# generated using pymatgen
data_Li6RuN4
_symmetry_space_group_name_H-M   'P 1'
_cell_length_a   6.67386900
_cell_length_b   6.67386900
_cell_length_c   4.92968100
_cell_angle_alpha   90.00000000
_cell_angle_beta   90.00000000
_cell_angle_gamma   90.00000000
_symmetry_Int_Tables_number   1
_chemical_formula_structural   Li6RuN4
_chemical_formula_sum   'Li12 Ru2 N8'
_cell_volume   219.57059180
_cell_formula_units_Z   2
loop_
 _symmetry_equiv_pos_site_id
 _symmetry_equiv_pos_as_xyz
  1  'x, y, z'
loop_
 _atom_site_type_symbol
 _atom_site_label
 _atom_site_symmetry_multiplicity
 _atom_site_fract_x
 _atom_site_fract_y
 _atom_site_fract_z
 _atom_site_occupancy
  Li  Li0  1  0.00000000  0.50000000  0.59718400  1
  Li  Li1  1  0.50000000  0.00000000  0.90281600  1
  Li  Li2  1  0.50000000  0.00000000  0.40281600  1
  Li  Li3  1  0.00000000  0.50000000  0.09718400  1
  Li  Li4  1  0.21393500  0.21393500  0.50000000  1
  Li  Li5  1  0.78606500  0.78606500  0.50000000  1
  Li  Li6  1  0.71393500  0.71393500  0.00000000  1
  Li  Li7  1  0.28606500  0.28606500  0.00000000  1
  Li  Li8  1  0.78606500  0.21393500  0.50000000  1
  Li  Li9  1  0.21393500  0.78606500  0.50000000  1
  Li  Li10  1  0.28606500  0.71393500  0.00000000  1
  Li  Li11  1  0.71393500  0.28606500  0.00000000  1
  Ru  Ru0  1  0.50000000  0.50000000  0.50000000  1
  Ru  Ru1  1  0.00000000  0.00000000  0.00000000  1
  N  N0  1  0.25448500  0.50000000  0.30877400  1
  N  N1  1  0.74551500  0.50000000  0.30877400  1
  N  N2  1  0.75448500  0.00000000  0.19122600  1
  N  N3  1  0.24551500  0.00000000  0.19122600  1
  N  N4  1  0.50000000  0.25448500  0.69122600  1
  N  N5  1  0.50000000  0.74551500  0.69122600  1
  N  N6  1  0.00000000  0.75448500  0.80877400  1
  N  N7  1  0.00000000  0.24551500  0.80877400  1
loop_
_geom_bond_atom_site_label_1
_geom_bond_atom_site_label_2
_geom_bond_distance
_geom_bond_site_symmetry_2
Li0 N6 1.993128 1_555
Li0 N7 1.993128 1_555
Li0 N0 2.214947 1_555
Li0 N1 2.214947 1_455
Li0 Li8 2.431657 1_455
Li0 Li5 2.431657 1_455
Li0 Li4 2.431657 1_555
Li0 Li9 2.431657 1_555
Li0 Li3 2.464841 1_556
Li0 Li3 2.464841 1_555
Li1 N4 1.993128 1_555
Li1 N5 1.993128 1_545
Li1 N2 2.214947 1_556
Li1 N3 2.214947 1_556
Li1 Li7 2.431657 1_556
Li1 Li6 2.431657 1_546
Li1 Li11 2.431657 1_556
Li1 Li10 2.431657 1_546
Li1 Li2 2.464840 1_555
Li1 Li2 2.464841 1_556
Li2 N2 1.993128 1_555
Li2 N3 1.993128 1_555
Li2 N4 2.214947 1_555
Li2 N5 2.214947 1_545
Li2 Li9 2.431657 1_545
Li2 Li4 2.431657 1_555
Li2 Li8 2.431657 1_555
Li2 Li5 2.431657 1_545
Li3 N0 1.993128 1_555
Li3 N1 1.993128 1_455
Li3 N6 2.214947 1_554
Li3 N7 2.214947 1_554
Li3 Li7 2.431657 1_555
Li3 Li6 2.431657 1_455
Li4 N7 2.097599 1_555
Li4 N3 2.097599 1_555
Li4 N0 2.146342 1_555
Li4 N4 2.146342 1_555
Li4 Li7 2.557128 1_556
Li4 Li7 2.557128 1_555
Li4 Li8 2.855548 1_455
Li4 Li9 2.855548 1_545
Li5 N6 2.097599 1_655
Li5 N2 2.097599 1_565
Li5 N1 2.146342 1_555
Li5 N5 2.146342 1_555
Li5 Li6 2.557128 1_556
Li5 Li6 2.557128 1_555
Li5 Li8 2.855548 1_565
Li5 Li9 2.855548 1_655
Li6 N5 2.097599 1_554
Li6 N1 2.097599 1_555
Li6 N2 2.146342 1_565
Li6 N6 2.146342 1_654
Li7 N4 2.097599 1_554
Li7 N0 2.097599 1_555
Li7 N3 2.146342 1_555
Li7 N7 2.146342 1_554
Li8 N7 2.097599 1_655
Li8 N2 2.097599 1_555
Li8 N4 2.146342 1_555
Li8 N1 2.146342 1_555
Li9 N6 2.097599 1_555
Li9 N3 2.097599 1_565
Li9 N0 2.146342 1_555
Li9 N5 2.146342 1_555
Li10 N5 2.097599 1_554
Li10 N0 2.097599 1_555
Li10 N3 2.146342 1_565
Li10 N6 2.146342 1_554
Li10 Li3 2.431657 1_555
Li10 Li9 2.557128 1_554
Li10 Li9 2.557128 1_555
Li10 Li6 2.855548 1_555
Li10 Li7 2.855548 1_555
Li11 N1 2.097599 1_555
Li11 N4 2.097599 1_554
Li11 N2 2.146342 1_555
Li11 N7 2.146342 1_654
Li11 Li3 2.431657 1_655
Li11 Li8 2.557128 1_555
Li11 Li8 2.557128 1_554
Li11 Li6 2.855548 1_555
Li11 Li7 2.855548 1_555
N0 Ru0 1.890357 1_555
N1 Ru0 1.890357 1_555
N2 Ru1 1.890357 1_655
N3 Ru1 1.890357 1_555
N4 Ru0 1.890357 1_555
N5 Ru0 1.890357 1_555
N6 Ru1 1.890357 1_566
N7 Ru1 1.890357 1_556
