# generated using pymatgen
data_Fe3C
_symmetry_space_group_name_H-M   'P 1'
_cell_length_a   8.51994431
_cell_length_b   8.51994431
_cell_length_c   29.18488326
_cell_angle_alpha   77.31348231
_cell_angle_beta   77.31348231
_cell_angle_gamma   36.25844611
_symmetry_Int_Tables_number   1
_chemical_formula_structural   Fe3C
_chemical_formula_sum   'Fe96 C32'
_cell_volume   1219.03604849
_cell_formula_units_Z   32
loop_
 _symmetry_equiv_pos_site_id
 _symmetry_equiv_pos_as_xyz
  1  'x, y, z'
loop_
 _atom_site_type_symbol
 _atom_site_label
 _atom_site_symmetry_multiplicity
 _atom_site_fract_x
 _atom_site_fract_y
 _atom_site_fract_z
 _atom_site_occupancy
  Fe  Fe0_0  1  0.36825100  0.36825100  0.39249600  1
  Fe  Fe0_1  1  0.36825100  0.36825100  0.89249600  1
  Fe  Fe0_2  1  0.36825100  0.86825100  0.39249600  1
  Fe  Fe0_3  1  0.36825100  0.86825100  0.89249600  1
  Fe  Fe0_4  1  0.86825100  0.36825100  0.39249600  1
  Fe  Fe0_5  1  0.86825100  0.36825100  0.89249600  1
  Fe  Fe0_6  1  0.86825100  0.86825100  0.39249600  1
  Fe  Fe0_7  1  0.86825100  0.86825100  0.89249600  1
  Fe  Fe1_0  1  0.13174900  0.13174900  0.10750400  1
  Fe  Fe1_1  1  0.13174900  0.13174900  0.60750400  1
  Fe  Fe1_2  1  0.13174900  0.63174900  0.10750400  1
  Fe  Fe1_3  1  0.13174900  0.63174900  0.60750400  1
  Fe  Fe1_4  1  0.63174900  0.13174900  0.10750400  1
  Fe  Fe1_5  1  0.63174900  0.13174900  0.60750400  1
  Fe  Fe1_6  1  0.63174900  0.63174900  0.10750400  1
  Fe  Fe1_7  1  0.63174900  0.63174900  0.60750400  1
  Fe  Fe2_0  1  0.02026200  0.02026200  0.35358900  1
  Fe  Fe2_1  1  0.02026200  0.02026200  0.85358900  1
  Fe  Fe2_2  1  0.02026200  0.52026200  0.35358900  1
  Fe  Fe2_3  1  0.02026200  0.52026200  0.85358900  1
  Fe  Fe2_4  1  0.52026200  0.02026200  0.35358900  1
  Fe  Fe2_5  1  0.52026200  0.02026200  0.85358900  1
  Fe  Fe2_6  1  0.52026200  0.52026200  0.35358900  1
  Fe  Fe2_7  1  0.52026200  0.52026200  0.85358900  1
  Fe  Fe3_0  1  0.47973800  0.47973800  0.14641100  1
  Fe  Fe3_1  1  0.47973800  0.47973800  0.64641100  1
  Fe  Fe3_2  1  0.47973800  0.97973800  0.14641100  1
  Fe  Fe3_3  1  0.47973800  0.97973800  0.64641100  1
  Fe  Fe3_4  1  0.97973800  0.47973800  0.14641100  1
  Fe  Fe3_5  1  0.97973800  0.47973800  0.64641100  1
  Fe  Fe3_6  1  0.97973800  0.97973800  0.14641100  1
  Fe  Fe3_7  1  0.97973800  0.97973800  0.64641100  1
  Fe  Fe4_0  1  0.05971900  0.05971900  0.26665150  1
  Fe  Fe4_1  1  0.05971900  0.05971900  0.76665150  1
  Fe  Fe4_2  1  0.05971900  0.55971900  0.26665150  1
  Fe  Fe4_3  1  0.05971900  0.55971900  0.76665150  1
  Fe  Fe4_4  1  0.55971900  0.05971900  0.26665150  1
  Fe  Fe4_5  1  0.55971900  0.05971900  0.76665150  1
  Fe  Fe4_6  1  0.55971900  0.55971900  0.26665150  1
  Fe  Fe4_7  1  0.55971900  0.55971900  0.76665150  1
  Fe  Fe5_0  1  0.44028100  0.44028100  0.23334850  1
  Fe  Fe5_1  1  0.44028100  0.44028100  0.73334850  1
  Fe  Fe5_2  1  0.44028100  0.94028100  0.23334850  1
  Fe  Fe5_3  1  0.44028100  0.94028100  0.73334850  1
  Fe  Fe5_4  1  0.94028100  0.44028100  0.23334850  1
  Fe  Fe5_5  1  0.94028100  0.44028100  0.73334850  1
  Fe  Fe5_6  1  0.94028100  0.94028100  0.23334850  1
  Fe  Fe5_7  1  0.94028100  0.94028100  0.73334850  1
  Fe  Fe6_0  1  0.17607850  0.17607850  0.31205050  1
  Fe  Fe6_1  1  0.17607850  0.17607850  0.81205050  1
  Fe  Fe6_2  1  0.17607850  0.67607850  0.31205050  1
  Fe  Fe6_3  1  0.17607850  0.67607850  0.81205050  1
  Fe  Fe6_4  1  0.67607850  0.17607850  0.31205050  1
  Fe  Fe6_5  1  0.67607850  0.17607850  0.81205050  1
  Fe  Fe6_6  1  0.67607850  0.67607850  0.31205050  1
  Fe  Fe6_7  1  0.67607850  0.67607850  0.81205050  1
  Fe  Fe7_0  1  0.32392150  0.32392150  0.18794950  1
  Fe  Fe7_1  1  0.32392150  0.32392150  0.68794950  1
  Fe  Fe7_2  1  0.32392150  0.82392150  0.18794950  1
  Fe  Fe7_3  1  0.32392150  0.82392150  0.68794950  1
  Fe  Fe7_4  1  0.82392150  0.32392150  0.18794950  1
  Fe  Fe7_5  1  0.82392150  0.32392150  0.68794950  1
  Fe  Fe7_6  1  0.82392150  0.82392150  0.18794950  1
  Fe  Fe7_7  1  0.82392150  0.82392150  0.68794950  1
  Fe  Fe8_0  1  0.48077450  0.48077450  0.43958800  1
  Fe  Fe8_1  1  0.48077450  0.48077450  0.93958800  1
  Fe  Fe8_2  1  0.48077450  0.98077450  0.43958800  1
  Fe  Fe8_3  1  0.48077450  0.98077450  0.93958800  1
  Fe  Fe8_4  1  0.98077450  0.48077450  0.43958800  1
  Fe  Fe8_5  1  0.98077450  0.48077450  0.93958800  1
  Fe  Fe8_6  1  0.98077450  0.98077450  0.43958800  1
  Fe  Fe8_7  1  0.98077450  0.98077450  0.93958800  1
  Fe  Fe9_0  1  0.01922550  0.01922550  0.06041200  1
  Fe  Fe9_1  1  0.01922550  0.01922550  0.56041200  1
  Fe  Fe9_2  1  0.01922550  0.51922550  0.06041200  1
  Fe  Fe9_3  1  0.01922550  0.51922550  0.56041200  1
  Fe  Fe9_4  1  0.51922550  0.01922550  0.06041200  1
  Fe  Fe9_5  1  0.51922550  0.01922550  0.56041200  1
  Fe  Fe9_6  1  0.51922550  0.51922550  0.06041200  1
  Fe  Fe9_7  1  0.51922550  0.51922550  0.56041200  1
  Fe  Fe10_0  1  0.32539450  0.32539450  0.48252550  1
  Fe  Fe10_1  1  0.32539450  0.32539450  0.98252550  1
  Fe  Fe10_2  1  0.32539450  0.82539450  0.48252550  1
  Fe  Fe10_3  1  0.32539450  0.82539450  0.98252550  1
  Fe  Fe10_4  1  0.82539450  0.32539450  0.48252550  1
  Fe  Fe10_5  1  0.82539450  0.32539450  0.98252550  1
  Fe  Fe10_6  1  0.82539450  0.82539450  0.48252550  1
  Fe  Fe10_7  1  0.82539450  0.82539450  0.98252550  1
  Fe  Fe11_0  1  0.17460550  0.17460550  0.01747450  1
  Fe  Fe11_1  1  0.17460550  0.17460550  0.51747450  1
  Fe  Fe11_2  1  0.17460550  0.67460550  0.01747450  1
  Fe  Fe11_3  1  0.17460550  0.67460550  0.51747450  1
  Fe  Fe11_4  1  0.67460550  0.17460550  0.01747450  1
  Fe  Fe11_5  1  0.67460550  0.17460550  0.51747450  1
  Fe  Fe11_6  1  0.67460550  0.67460550  0.01747450  1
  Fe  Fe11_7  1  0.67460550  0.67460550  0.51747450  1
  C  C0_0  1  0.13733050  0.13733050  0.43992350  1
  C  C0_1  1  0.13733050  0.13733050  0.93992350  1
  C  C0_2  1  0.13733050  0.63733050  0.43992350  1
  C  C0_3  1  0.13733050  0.63733050  0.93992350  1
  C  C0_4  1  0.63733050  0.13733050  0.43992350  1
  C  C0_5  1  0.63733050  0.13733050  0.93992350  1
  C  C0_6  1  0.63733050  0.63733050  0.43992350  1
  C  C0_7  1  0.63733050  0.63733050  0.93992350  1
  C  C1_0  1  0.36266950  0.36266950  0.06007650  1
  C  C1_1  1  0.36266950  0.36266950  0.56007650  1
  C  C1_2  1  0.36266950  0.86266950  0.06007650  1
  C  C1_3  1  0.36266950  0.86266950  0.56007650  1
  C  C1_4  1  0.86266950  0.36266950  0.06007650  1
  C  C1_5  1  0.86266950  0.36266950  0.56007650  1
  C  C1_6  1  0.86266950  0.86266950  0.06007650  1
  C  C1_7  1  0.86266950  0.86266950  0.56007650  1
  C  C2_0  1  0.33348900  0.33348900  0.31249750  1
  C  C2_1  1  0.33348900  0.33348900  0.81249750  1
  C  C2_2  1  0.33348900  0.83348900  0.31249750  1
  C  C2_3  1  0.33348900  0.83348900  0.81249750  1
  C  C2_4  1  0.83348900  0.33348900  0.31249750  1
  C  C2_5  1  0.83348900  0.33348900  0.81249750  1
  C  C2_6  1  0.83348900  0.83348900  0.31249750  1
  C  C2_7  1  0.83348900  0.83348900  0.81249750  1
  C  C3_0  1  0.16651100  0.16651100  0.18750250  1
  C  C3_1  1  0.16651100  0.16651100  0.68750250  1
  C  C3_2  1  0.16651100  0.66651100  0.18750250  1
  C  C3_3  1  0.16651100  0.66651100  0.68750250  1
  C  C3_4  1  0.66651100  0.16651100  0.18750250  1
  C  C3_5  1  0.66651100  0.16651100  0.68750250  1
  C  C3_6  1  0.66651100  0.66651100  0.18750250  1
  C  C3_7  1  0.66651100  0.66651100  0.68750250  1
loop_
_geom_bond_atom_site_label_1
_geom_bond_atom_site_label_2
_geom_bond_distance
_geom_bond_site_symmetry_2
Fe0_0 Fe2_6 2.461149 1_555
Fe0_0 Fe2_4 2.529270 1_555
Fe0_0 Fe2_2 2.529270 1_555
Fe0_0 Fe0_6 2.651076 1_545
Fe0_0 Fe0_6 2.651076 1_455
Fe0_0 Fe6_2 2.670204 1_555
Fe0_0 Fe6_4 2.670204 1_555
Fe0_0 Fe8_2 2.681078 1_545
Fe0_0 Fe8_4 2.681078 1_455
Fe0_1 Fe2_7 2.461149 1_555
Fe0_1 Fe2_3 2.529270 1_555
Fe0_1 Fe2_5 2.529270 1_555
Fe0_1 Fe0_7 2.651076 1_545
Fe0_1 Fe0_7 2.651076 1_455
Fe0_1 Fe6_5 2.670204 1_555
Fe0_1 Fe6_3 2.670204 1_555
Fe0_1 Fe8_3 2.681078 1_545
Fe0_1 Fe8_5 2.681078 1_455
Fe0_2 Fe2_4 2.461149 1_565
Fe0_2 Fe2_0 2.529270 1_565
Fe0_2 Fe2_6 2.529270 1_555
Fe0_2 Fe0_4 2.651076 1_555
Fe0_2 Fe0_4 2.651076 1_465
Fe0_2 Fe6_6 2.670204 1_555
Fe0_2 Fe6_0 2.670204 1_565
Fe0_2 Fe8_6 2.681078 1_455
Fe0_2 Fe8_0 2.681078 1_555
Fe0_3 Fe2_5 2.461149 1_565
Fe0_3 Fe2_1 2.529270 1_565
Fe0_3 Fe2_7 2.529270 1_555
Fe0_3 Fe0_5 2.651076 1_555
Fe0_3 Fe0_5 2.651076 1_465
Fe0_3 Fe6_7 2.670204 1_555
Fe0_3 Fe6_1 2.670204 1_565
Fe0_3 Fe8_1 2.681078 1_555
Fe0_3 Fe8_7 2.681078 1_455
Fe0_4 Fe2_2 2.461149 1_655
Fe0_4 Fe2_6 2.529270 1_555
Fe0_4 Fe2_0 2.529270 1_655
Fe0_4 Fe6_6 2.670204 1_555
Fe0_4 Fe6_0 2.670204 1_655
Fe0_4 Fe8_6 2.681078 1_545
Fe0_4 Fe8_0 2.681078 1_555
Fe0_5 Fe2_3 2.461149 1_655
Fe0_5 Fe2_1 2.529270 1_655
Fe0_5 Fe2_7 2.529270 1_555
Fe0_5 Fe6_7 2.670204 1_555
Fe0_5 Fe6_1 2.670204 1_655
Fe0_5 Fe8_1 2.681078 1_555
Fe0_5 Fe8_7 2.681078 1_545
Fe0_6 Fe2_0 2.461149 1_665
Fe0_6 Fe2_4 2.529270 1_565
Fe0_6 Fe2_2 2.529270 1_655
Fe0_6 Fe6_2 2.670204 1_655
Fe0_6 Fe6_4 2.670204 1_565
Fe0_6 Fe8_4 2.681078 1_555
Fe0_6 Fe8_2 2.681078 1_555
Fe0_7 Fe2_1 2.461149 1_665
Fe0_7 Fe2_3 2.529270 1_655
Fe0_7 Fe2_5 2.529270 1_565
Fe0_7 Fe6_5 2.670204 1_565
Fe0_7 Fe6_3 2.670204 1_655
Fe0_7 Fe8_5 2.681078 1_555
Fe0_7 Fe8_3 2.681078 1_555
Fe1_0 Fe3_6 2.461149 1_445
Fe1_0 Fe3_2 2.529270 1_545
Fe1_0 Fe3_4 2.529270 1_455
Fe1_0 Fe1_6 2.651076 1_455
Fe1_0 Fe1_6 2.651076 1_545
Fe1_0 Fe7_2 2.670204 1_545
Fe1_0 Fe7_4 2.670204 1_455
Fe1_0 Fe9_2 2.681078 1_555
Fe1_0 Fe9_4 2.681078 1_555
Fe1_1 Fe3_7 2.461149 1_445
Fe1_1 Fe3_5 2.529270 1_455
Fe1_1 Fe3_3 2.529270 1_545
Fe1_1 Fe1_7 2.651076 1_455
Fe1_1 Fe1_7 2.651076 1_545
Fe1_1 Fe7_3 2.670204 1_545
Fe1_1 Fe7_5 2.670204 1_455
Fe1_1 Fe9_3 2.681078 1_555
Fe1_1 Fe9_5 2.681078 1_555
Fe1_2 Fe3_4 2.461149 1_455
Fe1_2 Fe3_0 2.529270 1_555
Fe1_2 Fe3_6 2.529270 1_455
Fe1_2 Fe1_4 2.651076 1_465
Fe1_2 Fe1_4 2.651076 1_555
Fe1_2 Fe7_6 2.670204 1_455
Fe1_2 Fe7_0 2.670204 1_555
Fe1_2 Fe9_0 2.681078 1_565
Fe1_2 Fe9_6 2.681078 1_555
Fe1_3 Fe3_5 2.461149 1_455
Fe1_3 Fe3_7 2.529270 1_455
Fe1_3 Fe3_1 2.529270 1_555
Fe1_3 Fe1_5 2.651076 1_555
Fe1_3 Fe1_5 2.651076 1_465
Fe1_3 Fe7_1 2.670204 1_555
Fe1_3 Fe7_7 2.670204 1_455
Fe1_3 Fe9_7 2.681078 1_555
Fe1_3 Fe9_1 2.681078 1_565
Fe1_4 Fe3_2 2.461149 1_545
Fe1_4 Fe3_6 2.529270 1_545
Fe1_4 Fe3_0 2.529270 1_555
Fe1_4 Fe7_0 2.670204 1_555
Fe1_4 Fe7_6 2.670204 1_545
Fe1_4 Fe9_0 2.681078 1_655
Fe1_4 Fe9_6 2.681078 1_555
Fe1_5 Fe3_3 2.461149 1_545
Fe1_5 Fe3_7 2.529270 1_545
Fe1_5 Fe3_1 2.529270 1_555
Fe1_5 Fe7_1 2.670204 1_555
Fe1_5 Fe7_7 2.670204 1_545
Fe1_5 Fe9_7 2.681078 1_555
Fe1_5 Fe9_1 2.681078 1_655
Fe1_6 Fe3_0 2.461149 1_555
Fe1_6 Fe3_4 2.529270 1_555
Fe1_6 Fe3_2 2.529270 1_555
Fe1_6 Fe7_4 2.670204 1_555
Fe1_6 Fe7_2 2.670204 1_555
Fe1_6 Fe9_4 2.681078 1_565
Fe1_6 Fe9_2 2.681078 1_655
Fe1_7 Fe3_1 2.461149 1_555
Fe1_7 Fe3_5 2.529270 1_555
Fe1_7 Fe3_3 2.529270 1_555
Fe1_7 Fe7_5 2.670204 1_555
Fe1_7 Fe7_3 2.670204 1_555
Fe1_7 Fe9_3 2.681078 1_655
Fe1_7 Fe9_5 2.681078 1_565
Fe2_0 Fe8_6 2.442659 1_445
Fe2_0 Fe6_2 2.531310 1_545
Fe2_0 Fe6_4 2.531310 1_455
Fe2_0 Fe2_6 2.651076 1_545
Fe2_0 Fe2_6 2.651076 1_455
Fe2_1 Fe8_7 2.442659 1_445
Fe2_1 Fe6_3 2.531310 1_545
Fe2_1 Fe6_5 2.531310 1_455
Fe2_1 Fe2_7 2.651076 1_545
Fe2_1 Fe2_7 2.651076 1_455
Fe2_2 Fe8_4 2.442659 1_455
Fe2_2 Fe6_6 2.531310 1_455
Fe2_2 Fe6_0 2.531310 1_555
Fe2_2 Fe2_4 2.651076 1_555
Fe2_2 Fe2_4 2.651076 1_465
Fe2_3 Fe8_5 2.442659 1_455
Fe2_3 Fe6_7 2.531310 1_455
Fe2_3 Fe6_1 2.531310 1_555
Fe2_3 Fe2_5 2.651076 1_555
Fe2_3 Fe2_5 2.651076 1_465
Fe2_4 Fe8_2 2.442659 1_545
Fe2_4 Fe6_0 2.531310 1_555
Fe2_4 Fe6_6 2.531310 1_545
Fe2_5 Fe8_3 2.442659 1_545
Fe2_5 Fe6_1 2.531310 1_555
Fe2_5 Fe6_7 2.531310 1_545
Fe2_6 Fe8_0 2.442659 1_555
Fe2_6 Fe6_4 2.531310 1_555
Fe2_6 Fe6_2 2.531310 1_555
Fe2_7 Fe8_1 2.442659 1_555
Fe2_7 Fe6_5 2.531310 1_555
Fe2_7 Fe6_3 2.531310 1_555
Fe3_0 Fe9_6 2.442659 1_555
Fe3_0 Fe7_2 2.531310 1_555
Fe3_0 Fe7_4 2.531310 1_555
Fe3_0 Fe3_6 2.651076 1_455
Fe3_0 Fe3_6 2.651076 1_545
Fe3_1 Fe9_7 2.442659 1_555
Fe3_1 Fe7_5 2.531310 1_555
Fe3_1 Fe7_3 2.531310 1_555
Fe3_1 Fe3_7 2.651076 1_545
Fe3_1 Fe3_7 2.651076 1_455
Fe3_2 Fe9_4 2.442659 1_565
Fe3_2 Fe7_0 2.531310 1_565
Fe3_2 Fe7_6 2.531310 1_555
Fe3_2 Fe3_4 2.651076 1_465
Fe3_2 Fe3_4 2.651076 1_555
Fe3_3 Fe9_5 2.442659 1_565
Fe3_3 Fe7_7 2.531310 1_555
Fe3_3 Fe7_1 2.531310 1_565
Fe3_3 Fe3_5 2.651076 1_555
Fe3_3 Fe3_5 2.651076 1_465
Fe3_4 Fe9_2 2.442659 1_655
Fe3_4 Fe7_0 2.531310 1_655
Fe3_4 Fe7_6 2.531310 1_555
Fe3_5 Fe9_3 2.442659 1_655
Fe3_5 Fe7_7 2.531310 1_555
Fe3_5 Fe7_1 2.531310 1_655
Fe3_6 Fe9_0 2.442659 1_665
Fe3_6 Fe7_2 2.531310 1_655
Fe3_6 Fe7_4 2.531310 1_565
Fe3_7 Fe9_1 2.442659 1_665
Fe3_7 Fe7_5 2.531310 1_565
Fe3_7 Fe7_3 2.531310 1_655
Fe4_0 Fe5_6 2.356813 1_445
Fe4_0 Fe5_2 2.494453 1_545
Fe4_0 Fe5_4 2.494453 1_455
Fe4_0 Fe7_2 2.615641 1_545
Fe4_0 Fe7_4 2.615641 1_455
Fe4_0 Fe6_2 2.621250 1_545
Fe4_0 Fe6_4 2.621250 1_455
Fe4_0 Fe4_6 2.651076 1_455
Fe4_0 Fe4_6 2.651076 1_545
Fe4_1 Fe5_7 2.356813 1_445
Fe4_1 Fe5_5 2.494453 1_455
Fe4_1 Fe5_3 2.494453 1_545
Fe4_1 Fe7_3 2.615641 1_545
Fe4_1 Fe7_5 2.615641 1_455
Fe4_1 Fe6_3 2.621250 1_545
Fe4_1 Fe6_5 2.621250 1_455
Fe4_1 Fe4_7 2.651076 1_545
Fe4_1 Fe4_7 2.651076 1_455
Fe4_2 Fe5_4 2.356813 1_455
Fe4_2 Fe5_0 2.494453 1_555
Fe4_2 Fe5_6 2.494453 1_455
Fe4_2 Fe7_6 2.615641 1_455
Fe4_2 Fe7_0 2.615641 1_555
Fe4_2 Fe6_0 2.621250 1_555
Fe4_2 Fe6_6 2.621250 1_455
Fe4_2 Fe4_4 2.651076 1_555
Fe4_2 Fe4_4 2.651076 1_465
Fe4_3 Fe5_5 2.356813 1_455
Fe4_3 Fe5_7 2.494453 1_455
Fe4_3 Fe5_1 2.494453 1_555
Fe4_3 Fe7_1 2.615641 1_555
Fe4_3 Fe7_7 2.615641 1_455
Fe4_3 Fe6_1 2.621250 1_555
Fe4_3 Fe6_7 2.621250 1_455
Fe4_3 Fe4_5 2.651076 1_465
Fe4_3 Fe4_5 2.651076 1_555
Fe4_4 Fe5_2 2.356813 1_545
Fe4_4 Fe5_0 2.494453 1_555
Fe4_4 Fe5_6 2.494453 1_545
Fe4_4 Fe7_6 2.615641 1_545
Fe4_4 Fe7_0 2.615641 1_555
Fe4_4 Fe6_0 2.621250 1_555
Fe4_4 Fe6_6 2.621250 1_545
Fe4_5 Fe5_3 2.356813 1_545
Fe4_5 Fe5_7 2.494453 1_545
Fe4_5 Fe5_1 2.494453 1_555
Fe4_5 Fe7_1 2.615641 1_555
Fe4_5 Fe7_7 2.615641 1_545
Fe4_5 Fe6_1 2.621250 1_555
Fe4_5 Fe6_7 2.621250 1_545
Fe4_6 Fe5_0 2.356813 1_555
Fe4_6 Fe5_2 2.494453 1_555
Fe4_6 Fe5_4 2.494453 1_555
Fe4_6 Fe7_4 2.615641 1_555
Fe4_6 Fe7_2 2.615641 1_555
Fe4_6 Fe6_4 2.621250 1_555
Fe4_6 Fe6_2 2.621250 1_555
Fe4_7 Fe5_1 2.356813 1_555
Fe4_7 Fe5_3 2.494453 1_555
Fe4_7 Fe5_5 2.494453 1_555
Fe4_7 Fe7_3 2.615641 1_555
Fe4_7 Fe7_5 2.615641 1_555
Fe4_7 Fe6_3 2.621250 1_555
Fe4_7 Fe6_5 2.621250 1_555
Fe5_0 Fe6_4 2.615641 1_555
Fe5_0 Fe6_2 2.615641 1_555
Fe5_0 Fe7_4 2.621250 1_555
Fe5_0 Fe7_2 2.621250 1_555
Fe5_0 Fe5_6 2.651076 1_455
Fe5_0 Fe5_6 2.651076 1_545
Fe5_1 Fe6_3 2.615641 1_555
Fe5_1 Fe6_5 2.615641 1_555
Fe5_1 Fe7_5 2.621250 1_555
Fe5_1 Fe7_3 2.621250 1_555
Fe5_1 Fe5_7 2.651076 1_455
Fe5_1 Fe5_7 2.651076 1_545
Fe5_2 Fe6_6 2.615641 1_555
Fe5_2 Fe6_0 2.615641 1_565
Fe5_2 Fe7_0 2.621250 1_565
Fe5_2 Fe7_6 2.621250 1_555
Fe5_2 Fe5_4 2.651076 1_555
Fe5_2 Fe5_4 2.651076 1_465
Fe5_3 Fe6_7 2.615641 1_555
Fe5_3 Fe6_1 2.615641 1_565
Fe5_3 Fe7_7 2.621250 1_555
Fe5_3 Fe7_1 2.621250 1_565
Fe5_3 Fe5_5 2.651076 1_555
Fe5_3 Fe5_5 2.651076 1_465
Fe5_4 Fe6_6 2.615641 1_555
Fe5_4 Fe6_0 2.615641 1_655
Fe5_4 Fe7_0 2.621250 1_655
Fe5_4 Fe7_6 2.621250 1_555
Fe5_5 Fe6_7 2.615641 1_555
Fe5_5 Fe6_1 2.615641 1_655
Fe5_5 Fe7_7 2.621250 1_555
Fe5_5 Fe7_1 2.621250 1_655
Fe5_6 Fe6_2 2.615641 1_655
Fe5_6 Fe6_4 2.615641 1_565
Fe5_6 Fe7_4 2.621250 1_565
Fe5_6 Fe7_2 2.621250 1_655
Fe5_7 Fe6_3 2.615641 1_655
Fe5_7 Fe6_5 2.615641 1_565
Fe5_7 Fe7_3 2.621250 1_655
Fe5_7 Fe7_5 2.621250 1_565
Fe6_0 Fe6_6 2.651076 1_545
Fe6_0 Fe6_6 2.651076 1_455
Fe6_1 Fe6_7 2.651076 1_455
Fe6_1 Fe6_7 2.651076 1_545
Fe6_2 Fe6_4 2.651076 1_555
Fe6_2 Fe6_4 2.651076 1_465
Fe6_3 Fe6_5 2.651076 1_555
Fe6_3 Fe6_5 2.651076 1_465
Fe7_0 Fe7_6 2.651076 1_455
Fe7_0 Fe7_6 2.651076 1_545
Fe7_1 Fe7_7 2.651076 1_455
Fe7_1 Fe7_7 2.651076 1_545
Fe7_2 Fe7_4 2.651076 1_465
Fe7_2 Fe7_4 2.651076 1_555
Fe7_3 Fe7_5 2.651076 1_465
Fe7_3 Fe7_5 2.651076 1_555
Fe8_0 Fe8_6 2.651076 1_455
Fe8_0 Fe8_6 2.651076 1_545
Fe8_1 Fe8_7 2.651076 1_545
Fe8_1 Fe8_7 2.651076 1_455
Fe8_2 Fe8_4 2.651076 1_465
Fe8_2 Fe8_4 2.651076 1_555
Fe8_3 Fe8_5 2.651076 1_465
Fe8_3 Fe8_5 2.651076 1_555
Fe9_0 Fe9_6 2.651076 1_455
Fe9_0 Fe9_6 2.651076 1_545
Fe9_1 Fe9_7 2.651076 1_455
Fe9_1 Fe9_7 2.651076 1_545
Fe9_2 Fe9_4 2.651076 1_555
Fe9_2 Fe9_4 2.651076 1_465
Fe9_3 Fe9_5 2.651076 1_465
Fe9_3 Fe9_5 2.651076 1_555
Fe10_0 Fe11_1 2.419087 1_555
Fe10_0 Fe11_3 2.477101 1_555
Fe10_0 Fe11_5 2.477101 1_555
Fe10_0 Fe8_2 2.561773 1_545
Fe10_0 Fe8_4 2.561773 1_455
Fe10_0 Fe9_3 2.606883 1_555
Fe10_0 Fe9_5 2.606883 1_555
Fe10_1 Fe11_0 2.419087 1_556
Fe10_1 Fe11_4 2.477101 1_556
Fe10_1 Fe11_2 2.477101 1_556
Fe10_1 Fe8_3 2.561773 1_545
Fe10_1 Fe8_5 2.561773 1_455
Fe10_1 Fe9_4 2.606883 1_556
Fe10_1 Fe9_2 2.606883 1_556
Fe10_2 Fe11_3 2.419087 1_555
Fe10_2 Fe11_1 2.477101 1_565
Fe10_2 Fe11_7 2.477101 1_555
Fe10_2 Fe8_6 2.561773 1_455
Fe10_2 Fe8_0 2.561773 1_555
Fe10_2 Fe9_1 2.606883 1_565
Fe10_2 Fe9_7 2.606883 1_555
Fe10_3 Fe11_2 2.419087 1_556
Fe10_3 Fe11_6 2.477101 1_556
Fe10_3 Fe11_0 2.477101 1_566
Fe10_3 Fe8_7 2.561773 1_455
Fe10_3 Fe8_1 2.561773 1_555
Fe10_3 Fe9_6 2.606883 1_556
Fe10_3 Fe9_0 2.606883 1_566
Fe10_4 Fe11_5 2.419087 1_555
Fe10_4 Fe11_1 2.477101 1_655
Fe10_4 Fe11_7 2.477101 1_555
Fe10_4 Fe8_6 2.561773 1_545
Fe10_4 Fe8_0 2.561773 1_555
Fe10_4 Fe9_1 2.606883 1_655
Fe10_4 Fe9_7 2.606883 1_555
Fe10_5 Fe11_4 2.419087 1_556
Fe10_5 Fe11_6 2.477101 1_556
Fe10_5 Fe11_0 2.477101 1_656
Fe10_5 Fe8_1 2.561773 1_555
Fe10_5 Fe8_7 2.561773 1_545
Fe10_5 Fe9_6 2.606883 1_556
Fe10_5 Fe9_0 2.606883 1_656
Fe10_6 Fe11_7 2.419087 1_555
Fe10_6 Fe11_3 2.477101 1_655
Fe10_6 Fe11_5 2.477101 1_565
Fe10_6 Fe8_4 2.561773 1_555
Fe10_6 Fe8_2 2.561773 1_555
Fe10_6 Fe9_3 2.606883 1_655
Fe10_6 Fe9_5 2.606883 1_565
Fe10_7 Fe11_6 2.419087 1_556
Fe10_7 Fe11_4 2.477101 1_566
Fe10_7 Fe11_2 2.477101 1_656
Fe10_7 Fe8_3 2.561773 1_555
Fe10_7 Fe8_5 2.561773 1_555
Fe10_7 Fe9_2 2.606883 1_656
Fe10_7 Fe9_4 2.606883 1_566
Fe11_0 Fe9_4 2.561773 1_555
Fe11_0 Fe9_2 2.561773 1_555
Fe11_0 Fe8_5 2.606883 1_454
Fe11_0 Fe8_3 2.606883 1_544
Fe11_1 Fe9_5 2.561773 1_555
Fe11_1 Fe9_3 2.561773 1_555
Fe11_1 Fe8_2 2.606883 1_545
Fe11_1 Fe8_4 2.606883 1_455
Fe11_2 Fe9_0 2.561773 1_565
Fe11_2 Fe9_6 2.561773 1_555
Fe11_2 Fe8_1 2.606883 1_554
Fe11_2 Fe8_7 2.606883 1_454
Fe11_3 Fe9_7 2.561773 1_555
Fe11_3 Fe9_1 2.561773 1_565
Fe11_3 Fe8_0 2.606883 1_555
Fe11_3 Fe8_6 2.606883 1_455
Fe11_4 Fe9_0 2.561773 1_655
Fe11_4 Fe9_6 2.561773 1_555
Fe11_4 Fe8_1 2.606883 1_554
Fe11_4 Fe8_7 2.606883 1_544
Fe11_5 Fe9_1 2.561773 1_655
Fe11_5 Fe9_7 2.561773 1_555
Fe11_5 Fe8_0 2.606883 1_555
Fe11_5 Fe8_6 2.606883 1_545
Fe11_6 Fe9_2 2.561773 1_655
Fe11_6 Fe9_4 2.561773 1_565
Fe11_6 Fe8_3 2.606883 1_554
Fe11_6 Fe8_5 2.606883 1_554
Fe11_7 Fe9_3 2.561773 1_655
Fe11_7 Fe9_5 2.561773 1_565
Fe11_7 Fe8_2 2.606883 1_555
Fe11_7 Fe8_4 2.606883 1_555
C0_0 Fe10_4 1.931984 1_455
C0_0 Fe10_2 1.931984 1_545
C0_0 Fe0_2 1.991505 1_545
C0_0 Fe0_4 1.991505 1_455
C0_0 Fe8_4 2.010016 1_455
C0_0 Fe8_2 2.010016 1_545
C0_0 Fe11_1 2.473541 1_555
C0_0 Fe8_6 2.537545 1_445
C0_1 Fe10_5 1.931984 1_455
C0_1 Fe10_3 1.931984 1_545
C0_1 Fe0_5 1.991505 1_455
C0_1 Fe0_3 1.991505 1_545
C0_1 Fe8_5 2.010016 1_455
C0_1 Fe8_3 2.010016 1_545
C0_1 Fe11_0 2.473541 1_556
C0_1 Fe8_7 2.537545 1_445
C0_2 Fe10_0 1.931984 1_555
C0_2 Fe10_6 1.931984 1_455
C0_2 Fe0_6 1.991505 1_455
C0_2 Fe0_0 1.991505 1_555
C0_2 Fe8_0 2.010016 1_555
C0_2 Fe8_6 2.010016 1_455
C0_2 Fe11_3 2.473541 1_555
C0_2 Fe8_4 2.537545 1_455
C0_3 Fe10_1 1.931984 1_555
C0_3 Fe10_7 1.931984 1_455
C0_3 Fe0_1 1.991505 1_555
C0_3 Fe0_7 1.991505 1_455
C0_3 Fe8_7 2.010016 1_455
C0_3 Fe8_1 2.010016 1_555
C0_3 Fe11_2 2.473541 1_556
C0_3 Fe8_5 2.537545 1_455
C0_4 Fe10_0 1.931984 1_555
C0_4 Fe10_6 1.931984 1_545
C0_4 Fe0_6 1.991505 1_545
C0_4 Fe0_0 1.991505 1_555
C0_4 Fe8_0 2.010016 1_555
C0_4 Fe8_6 2.010016 1_545
C0_4 Fe11_5 2.473541 1_555
C0_4 Fe8_2 2.537545 1_545
C0_5 Fe10_1 1.931984 1_555
C0_5 Fe10_7 1.931984 1_545
C0_5 Fe0_1 1.991505 1_555
C0_5 Fe0_7 1.991505 1_545
C0_5 Fe8_1 2.010016 1_555
C0_5 Fe8_7 2.010016 1_545
C0_5 Fe11_4 2.473541 1_556
C0_5 Fe8_3 2.537545 1_545
C0_6 Fe10_4 1.931984 1_555
C0_6 Fe10_2 1.931984 1_555
C0_6 Fe0_2 1.991505 1_555
C0_6 Fe0_4 1.991505 1_555
C0_6 Fe8_2 2.010016 1_555
C0_6 Fe8_4 2.010016 1_555
C0_6 Fe11_7 2.473541 1_555
C0_6 Fe8_0 2.537545 1_555
C0_7 Fe10_3 1.931984 1_555
C0_7 Fe10_5 1.931984 1_555
C0_7 Fe0_5 1.991505 1_555
C0_7 Fe0_3 1.991505 1_555
C0_7 Fe8_3 2.010016 1_555
C0_7 Fe8_5 2.010016 1_555
C0_7 Fe11_6 2.473541 1_556
C0_7 Fe8_1 2.537545 1_555
C1_0 Fe11_4 1.931984 1_555
C1_0 Fe11_2 1.931984 1_555
C1_0 Fe1_4 1.991505 1_555
C1_0 Fe1_2 1.991505 1_555
C1_0 Fe9_2 2.010016 1_555
C1_0 Fe9_4 2.010016 1_555
C1_0 Fe10_1 2.473541 1_554
C1_0 Fe9_6 2.537545 1_555
C1_1 Fe11_5 1.931984 1_555
C1_1 Fe11_3 1.931984 1_555
C1_1 Fe1_5 1.991505 1_555
C1_1 Fe1_3 1.991505 1_555
C1_1 Fe9_5 2.010016 1_555
C1_1 Fe9_3 2.010016 1_555
C1_1 Fe10_0 2.473541 1_555
C1_1 Fe9_7 2.537545 1_555
C1_2 Fe11_0 1.931984 1_565
C1_2 Fe11_6 1.931984 1_555
C1_2 Fe1_0 1.991505 1_565
C1_2 Fe1_6 1.991505 1_555
C1_2 Fe9_0 2.010016 1_565
C1_2 Fe9_6 2.010016 1_555
C1_2 Fe10_3 2.473541 1_554
C1_2 Fe9_4 2.537545 1_565
C1_3 Fe11_1 1.931984 1_565
C1_3 Fe11_7 1.931984 1_555
C1_3 Fe1_1 1.991505 1_565
C1_3 Fe1_7 1.991505 1_555
C1_3 Fe9_1 2.010016 1_565
C1_3 Fe9_7 2.010016 1_555
C1_3 Fe10_2 2.473541 1_555
C1_3 Fe9_5 2.537545 1_565
C1_4 Fe11_0 1.931984 1_655
C1_4 Fe11_6 1.931984 1_555
C1_4 Fe1_0 1.991505 1_655
C1_4 Fe1_6 1.991505 1_555
C1_4 Fe9_0 2.010016 1_655
C1_4 Fe9_6 2.010016 1_555
C1_4 Fe10_5 2.473541 1_554
C1_4 Fe9_2 2.537545 1_655
C1_5 Fe11_1 1.931984 1_655
C1_5 Fe11_7 1.931984 1_555
C1_5 Fe1_1 1.991505 1_655
C1_5 Fe1_7 1.991505 1_555
C1_5 Fe9_1 2.010016 1_655
C1_5 Fe9_7 2.010016 1_555
C1_5 Fe10_4 2.473541 1_555
C1_5 Fe9_3 2.537545 1_655
C1_6 Fe11_4 1.931984 1_565
C1_6 Fe11_2 1.931984 1_655
C1_6 Fe1_4 1.991505 1_565
C1_6 Fe1_2 1.991505 1_655
C1_6 Fe9_4 2.010016 1_565
C1_6 Fe9_2 2.010016 1_655
C1_6 Fe10_7 2.473541 1_554
C1_6 Fe9_0 2.537545 1_665
C1_7 Fe11_5 1.931984 1_565
C1_7 Fe11_3 1.931984 1_655
C1_7 Fe1_5 1.991505 1_565
C1_7 Fe1_3 1.991505 1_655
C1_7 Fe9_5 2.010016 1_565
C1_7 Fe9_3 2.010016 1_655
C1_7 Fe10_6 2.473541 1_555
C1_7 Fe9_1 2.537545 1_665
C2_0 Fe2_4 1.917317 1_555
C2_0 Fe2_2 1.917317 1_555
C2_0 Fe4_2 1.983314 1_555
C2_0 Fe4_4 1.983314 1_555
C2_0 Fe6_4 1.999089 1_555
C2_0 Fe6_2 1.999089 1_555
C2_0 Fe0_0 2.524952 1_555
C2_0 Fe5_0 2.545656 1_555
C2_0 Fe6_0 2.552149 1_555
C2_1 Fe2_3 1.917317 1_555
C2_1 Fe2_5 1.917317 1_555
C2_1 Fe4_5 1.983314 1_555
C2_1 Fe4_3 1.983314 1_555
C2_1 Fe6_5 1.999089 1_555
C2_1 Fe6_3 1.999089 1_555
C2_1 Fe0_1 2.524952 1_555
C2_1 Fe5_1 2.545656 1_555
C2_1 Fe6_1 2.552149 1_555
C2_2 Fe2_0 1.917317 1_565
C2_2 Fe2_6 1.917317 1_555
C2_2 Fe4_0 1.983314 1_565
C2_2 Fe4_6 1.983314 1_555
C2_2 Fe6_6 1.999089 1_555
C2_2 Fe6_0 1.999089 1_565
C2_2 Fe0_2 2.524952 1_555
C2_2 Fe5_2 2.545656 1_555
C2_2 Fe6_2 2.552149 1_555
C2_3 Fe2_1 1.917317 1_565
C2_3 Fe2_7 1.917317 1_555
C2_3 Fe4_1 1.983314 1_565
C2_3 Fe4_7 1.983314 1_555
C2_3 Fe6_7 1.999089 1_555
C2_3 Fe6_1 1.999089 1_565
C2_3 Fe0_3 2.524952 1_555
C2_3 Fe5_3 2.545656 1_555
C2_3 Fe6_3 2.552149 1_555
C2_4 Fe2_6 1.917317 1_555
C2_4 Fe2_0 1.917317 1_655
C2_4 Fe4_6 1.983314 1_555
C2_4 Fe4_0 1.983314 1_655
C2_4 Fe6_6 1.999089 1_555
C2_4 Fe6_0 1.999089 1_655
C2_4 Fe0_4 2.524952 1_555
C2_4 Fe5_4 2.545656 1_555
C2_4 Fe6_4 2.552149 1_555
C2_5 Fe2_1 1.917317 1_655
C2_5 Fe2_7 1.917317 1_555
C2_5 Fe4_1 1.983314 1_655
C2_5 Fe4_7 1.983314 1_555
C2_5 Fe6_7 1.999089 1_555
C2_5 Fe6_1 1.999089 1_655
C2_5 Fe0_5 2.524952 1_555
C2_5 Fe5_5 2.545656 1_555
C2_5 Fe6_5 2.552149 1_555
C2_6 Fe2_2 1.917317 1_655
C2_6 Fe2_4 1.917317 1_565
C2_6 Fe4_4 1.983314 1_565
C2_6 Fe4_2 1.983314 1_655
C2_6 Fe6_2 1.999089 1_655
C2_6 Fe6_4 1.999089 1_565
C2_6 Fe0_6 2.524952 1_555
C2_6 Fe5_6 2.545656 1_555
C2_6 Fe6_6 2.552149 1_555
C2_7 Fe2_5 1.917317 1_565
C2_7 Fe2_3 1.917317 1_655
C2_7 Fe4_5 1.983314 1_565
C2_7 Fe4_3 1.983314 1_655
C2_7 Fe6_5 1.999089 1_565
C2_7 Fe6_3 1.999089 1_655
C2_7 Fe0_7 2.524952 1_555
C2_7 Fe5_7 2.545656 1_555
C2_7 Fe6_7 2.552149 1_555
C3_0 Fe3_2 1.917317 1_545
C3_0 Fe3_4 1.917317 1_455
C3_0 Fe5_4 1.983314 1_455
C3_0 Fe5_2 1.983314 1_545
C3_0 Fe7_2 1.999089 1_545
C3_0 Fe7_4 1.999089 1_455
C3_0 Fe1_0 2.524952 1_555
C3_0 Fe4_0 2.545656 1_555
C3_0 Fe7_0 2.552149 1_555
C3_1 Fe3_3 1.917317 1_545
C3_1 Fe3_5 1.917317 1_455
C3_1 Fe5_5 1.983314 1_455
C3_1 Fe5_3 1.983314 1_545
C3_1 Fe7_3 1.999089 1_545
C3_1 Fe7_5 1.999089 1_455
C3_1 Fe1_1 2.524952 1_555
C3_1 Fe4_1 2.545656 1_555
C3_1 Fe7_1 2.552149 1_555
C3_2 Fe3_0 1.917317 1_555
C3_2 Fe3_6 1.917317 1_455
C3_2 Fe5_0 1.983314 1_555
C3_2 Fe5_6 1.983314 1_455
C3_2 Fe7_6 1.999089 1_455
C3_2 Fe7_0 1.999089 1_555
C3_2 Fe1_2 2.524952 1_555
C3_2 Fe4_2 2.545656 1_555
C3_2 Fe7_2 2.552149 1_555
C3_3 Fe3_7 1.917317 1_455
C3_3 Fe3_1 1.917317 1_555
C3_3 Fe5_7 1.983314 1_455
C3_3 Fe5_1 1.983314 1_555
C3_3 Fe7_1 1.999089 1_555
C3_3 Fe7_7 1.999089 1_455
C3_3 Fe1_3 2.524952 1_555
C3_3 Fe4_3 2.545656 1_555
C3_3 Fe7_3 2.552149 1_555
C3_4 Fe3_6 1.917317 1_545
C3_4 Fe3_0 1.917317 1_555
C3_4 Fe5_0 1.983314 1_555
C3_4 Fe5_6 1.983314 1_545
C3_4 Fe7_6 1.999089 1_545
C3_4 Fe7_0 1.999089 1_555
C3_4 Fe1_4 2.524952 1_555
C3_4 Fe4_4 2.545656 1_555
C3_4 Fe7_4 2.552149 1_555
C3_5 Fe3_7 1.917317 1_545
C3_5 Fe3_1 1.917317 1_555
C3_5 Fe5_1 1.983314 1_555
C3_5 Fe5_7 1.983314 1_545
C3_5 Fe7_1 1.999089 1_555
C3_5 Fe7_7 1.999089 1_545
C3_5 Fe1_5 2.524952 1_555
C3_5 Fe4_5 2.545656 1_555
C3_5 Fe7_5 2.552149 1_555
C3_6 Fe3_4 1.917317 1_555
C3_6 Fe3_2 1.917317 1_555
C3_6 Fe5_2 1.983314 1_555
C3_6 Fe5_4 1.983314 1_555
C3_6 Fe7_4 1.999089 1_555
C3_6 Fe7_2 1.999089 1_555
C3_6 Fe1_6 2.524952 1_555
C3_6 Fe4_6 2.545656 1_555
C3_6 Fe7_6 2.552149 1_555
C3_7 Fe3_5 1.917317 1_555
C3_7 Fe3_3 1.917317 1_555
C3_7 Fe5_5 1.983314 1_555
C3_7 Fe5_3 1.983314 1_555
C3_7 Fe7_5 1.999089 1_555
C3_7 Fe7_3 1.999089 1_555
C3_7 Fe1_7 2.524952 1_555
C3_7 Fe4_7 2.545656 1_555
C3_7 Fe7_7 2.552149 1_555
