# generated using pymatgen
data_TbBO3
_symmetry_space_group_name_H-M   'P 1'
_cell_length_a   3.88995076
_cell_length_b   4.32350172
_cell_length_c   8.52708142
_cell_angle_alpha   90.00000000
_cell_angle_beta   90.00000000
_cell_angle_gamma   56.29794858
_symmetry_Int_Tables_number   1
_chemical_formula_structural   TbBO3
_chemical_formula_sum   'Tb2 B2 O6'
_cell_volume   119.30788763
_cell_formula_units_Z   2
loop_
 _symmetry_equiv_pos_site_id
 _symmetry_equiv_pos_as_xyz
  1  'x, y, z'
loop_
 _atom_site_type_symbol
 _atom_site_label
 _atom_site_symmetry_multiplicity
 _atom_site_fract_x
 _atom_site_fract_y
 _atom_site_fract_z
 _atom_site_occupancy
  Tb  Tb0  1  0.94915422  0.98393632  0.50001634  1
  Tb  Tb1  1  0.94915422  0.98393632  -0.00001634  1
  B  B0  1  0.67521354  0.55746074  0.75000000  1
  B  B1  1  0.22365208  0.28284348  0.25000000  1
  O  O0  1  0.60859088  0.72339969  0.60435695  1
  O  O1  1  0.28969796  0.38261548  0.10431962  1
  O  O2  1  0.28969796  0.38261548  0.39568038  1
  O  O3  1  0.60859088  0.72339969  0.89564305  1
  O  O4  1  0.80608894  0.19137528  0.75000000  1
  O  O5  1  0.09416231  0.04642051  0.25000000  1
loop_
_geom_bond_atom_site_label_1
_geom_bond_atom_site_label_2
_geom_bond_distance
_geom_bond_site_symmetry_2
B0 O4 1.367525 1_555
B0 O3 1.384877 1_555
B0 O0 1.384877 1_555
B1 O5 1.367461 1_555
B1 O2 1.384991 1_555
B1 O1 1.384991 1_555
O0 Tb0 2.331087 1_455
O0 Tb0 2.339127 1_555
O0 Tb0 2.840364 1_545
O1 Tb1 2.331563 1_545
O1 Tb1 2.341675 1_455
O1 Tb1 2.837504 1_445
O2 Tb0 2.331563 1_545
O2 Tb0 2.341675 1_455
O2 Tb0 2.837504 1_445
O3 Tb1 2.331087 1_456
O3 Tb1 2.339127 1_556
O3 Tb1 2.840364 1_546
O4 Tb0 2.259210 1_545
O4 Tb1 2.259210 1_546
O5 Tb1 2.259493 1_445
O5 Tb0 2.259493 1_445
