# generated using pymatgen
data_LiV3OF11
_symmetry_space_group_name_H-M   'P 1'
_cell_length_a   5.24875900
_cell_length_b   5.39097959
_cell_length_c   15.67548598
_cell_angle_alpha   80.25282652
_cell_angle_beta   89.58468337
_cell_angle_gamma   88.69205826
_symmetry_Int_Tables_number   1
_chemical_formula_structural   LiV3OF11
_chemical_formula_sum   'Li2 V6 O2 F22'
_cell_volume   437.03338860
_cell_formula_units_Z   2
loop_
 _symmetry_equiv_pos_site_id
 _symmetry_equiv_pos_as_xyz
  1  'x, y, z'
loop_
 _atom_site_type_symbol
 _atom_site_label
 _atom_site_symmetry_multiplicity
 _atom_site_fract_x
 _atom_site_fract_y
 _atom_site_fract_z
 _atom_site_occupancy
  Li  Li0  1  0.75962000  0.34104500  0.84690700  1
  Li  Li1  1  0.24038000  0.65895500  0.15309300  1
  V  V0  1  0.00192900  0.66870200  0.66253700  1
  V  V1  1  0.50000000  0.50000000  0.00000000  1
  V  V2  1  0.50239300  0.83334000  0.33692000  1
  V  V3  1  0.00000000  0.00000000  0.00000000  1
  V  V4  1  0.99807100  0.33129800  0.33746300  1
  V  V5  1  0.49760700  0.16666000  0.66308000  1
  O  O0  1  0.75808000  0.28278000  0.98795000  1
  O  O1  1  0.24192000  0.71722000  0.01205000  1
  F  F0  1  0.19384500  0.34529600  0.69281000  1
  F  F1  1  0.68748300  0.47843800  0.64388200  1
  F  F2  1  0.09365500  0.69456600  0.55213700  1
  F  F3  1  0.43850800  0.52496000  0.88383400  1
  F  F4  1  0.40763400  0.86845300  0.22286300  1
  F  F5  1  0.93914700  0.91554800  0.11517200  1
  F  F6  1  0.59098100  0.79035800  0.44602400  1
  F  F7  1  0.90956900  0.62383100  0.77887500  1
  F  F8  1  0.19308300  0.01125700  0.35998100  1
  F  F9  1  0.31122600  0.85617400  0.68861800  1
  F  F10  1  0.27398400  0.21423200  0.02684500  1
  F  F11  1  0.72601600  0.78576800  0.97315500  1
  F  F12  1  0.68877400  0.14382600  0.31138200  1
  F  F13  1  0.80691700  0.98874300  0.64001900  1
  F  F14  1  0.09043100  0.37616900  0.22112500  1
  F  F15  1  0.40901900  0.20964200  0.55397600  1
  F  F16  1  0.06085300  0.08445200  0.88482800  1
  F  F17  1  0.59236600  0.13154700  0.77713700  1
  F  F18  1  0.56149200  0.47504000  0.11616600  1
  F  F19  1  0.90634500  0.30543400  0.44786300  1
  F  F20  1  0.31251700  0.52156200  0.35611800  1
  F  F21  1  0.80615500  0.65470400  0.30719000  1
loop_
_geom_bond_atom_site_label_1
_geom_bond_atom_site_label_2
_geom_bond_distance
_geom_bond_site_symmetry_2
Li0 O0 2.179815 1_555
Li1 O1 2.179815 1_555
O0 V1 1.800194 1_556
O0 V3 1.946691 1_656
O1 V1 1.800194 1_555
O1 V3 1.946691 1_565
F0 V5 1.938485 1_555
F0 V0 1.981465 1_555
F0 F7 2.618330 1_455
F0 F17 2.620082 1_555
F0 F15 2.648046 1_555
F0 F2 2.692610 1_555
F0 F9 2.705694 1_545
F1 V5 1.951847 1_555
F1 V0 2.011821 1_655
F1 F17 2.610463 1_555
F1 F15 2.653355 1_555
F1 F7 2.662712 1_555
F1 F13 2.709970 1_545
F1 F2 2.733567 1_655
F2 V0 1.776345 1_555
F2 F9 2.711488 1_555
F3 V1 1.833505 1_556
F3 Li0 2.064632 1_555
F4 V2 1.836787 1_555
F4 Li1 1.928669 1_555
F4 F8 2.639382 1_565
F5 V3 1.813463 1_665
F5 Li1 2.098110 1_655
F6 V2 1.751372 1_555
F6 F8 2.642436 1_565
F7 V0 1.860754 1_655
F7 Li0 1.890218 1_555
F8 V2 1.929813 1_545
F8 V4 1.966590 1_455
F9 V5 1.939366 1_565
F9 V0 2.012092 1_555
F10 V1 1.953058 1_555
F10 V3 1.956563 1_555
F10 O0 2.628421 1_554
F10 F5 2.633919 1_445
F10 F18 2.647380 1_555
F10 O1 2.683593 1_555
F10 F16 2.701119 1_554
F10 F3 2.709931 1_554
F10 O1 2.737290 1_545
F11 V1 1.953058 1_556
F11 V3 1.956563 1_666
F11 O1 2.628421 1_556
F11 F16 2.633919 1_665
F11 F3 2.647380 1_555
F11 O0 2.683593 1_555
F11 F5 2.701119 1_556
F11 F18 2.709931 1_556
F11 O0 2.737290 1_565
F12 V2 1.939366 1_545
F12 V4 2.012092 1_555
F12 F6 2.648821 1_545
F12 F4 2.670933 1_545
F12 F21 2.705694 1_545
F12 F19 2.711488 1_555
F13 V5 1.929813 1_565
F13 V0 1.966590 1_655
F13 F17 2.639382 1_565
F13 F15 2.642436 1_565
F13 F2 2.697900 1_655
F14 V4 1.860754 1_455
F14 Li1 1.890218 1_555
F14 F21 2.618330 1_455
F14 F20 2.662712 1_555
F15 V5 1.751372 1_555
F15 F9 2.648821 1_545
F16 V3 1.813463 1_556
F16 Li0 2.098110 1_455
F17 V5 1.836787 1_555
F17 Li0 1.928669 1_555
F17 F9 2.670933 1_545
F18 V1 1.833505 1_555
F18 Li1 2.064632 1_555
F19 V4 1.776345 1_555
F19 F21 2.692610 1_555
F19 F8 2.697900 1_655
F19 F20 2.733567 1_655
F20 V2 1.951847 1_555
F20 V4 2.011821 1_455
F20 F4 2.610463 1_555
F20 F6 2.653355 1_555
F20 F8 2.709970 1_565
F21 V2 1.938485 1_555
F21 V4 1.981465 1_555
F21 F4 2.620082 1_555
F21 F6 2.648046 1_555
