# generated using pymatgen
data_Y3AlNi8
_symmetry_space_group_name_H-M   'P 1'
_cell_length_a   5.06052011
_cell_length_b   5.06052011
_cell_length_c   16.64032000
_cell_angle_alpha   90.00000000
_cell_angle_beta   90.00000000
_cell_angle_gamma   120.00000140
_symmetry_Int_Tables_number   1
_chemical_formula_structural   Y3AlNi8
_chemical_formula_sum   'Y6 Al2 Ni16'
_cell_volume   369.04778991
_cell_formula_units_Z   2
loop_
 _symmetry_equiv_pos_site_id
 _symmetry_equiv_pos_as_xyz
  1  'x, y, z'
loop_
 _atom_site_type_symbol
 _atom_site_label
 _atom_site_symmetry_multiplicity
 _atom_site_fract_x
 _atom_site_fract_y
 _atom_site_fract_z
 _atom_site_occupancy
  Y  Y0  1  0.33333300  0.66666700  0.25000000  1
  Y  Y1  1  0.66666700  0.33333300  0.75000000  1
  Y  Y2  1  0.33333300  0.66666700  0.95228400  1
  Y  Y3  1  0.66666700  0.33333300  0.45228400  1
  Y  Y4  1  0.66666700  0.33333300  0.04771600  1
  Y  Y5  1  0.33333300  0.66666700  0.54771600  1
  Al  Al0  1  0.33333300  0.66666700  0.75000000  1
  Al  Al1  1  0.66666700  0.33333300  0.25000000  1
  Ni  Ni0  1  0.32360700  0.16180300  0.61980600  1
  Ni  Ni1  1  0.67639300  0.83819700  0.11980600  1
  Ni  Ni2  1  0.16180300  0.83819700  0.11980600  1
  Ni  Ni3  1  0.83819700  0.67639300  0.88019400  1
  Ni  Ni4  1  0.83819700  0.16180300  0.88019400  1
  Ni  Ni5  1  0.83819700  0.67639300  0.61980600  1
  Ni  Ni6  1  0.32360700  0.16180300  0.88019400  1
  Ni  Ni7  1  0.67639300  0.83819700  0.38019400  1
  Ni  Ni8  1  0.16180300  0.32360700  0.38019400  1
  Ni  Ni9  1  0.16180300  0.83819700  0.38019400  1
  Ni  Ni10  1  0.00000000  0.00000000  0.50000000  1
  Ni  Ni11  1  0.00000000  0.00000000  0.00000000  1
  Ni  Ni12  1  0.00000000  0.00000000  0.75000000  1
  Ni  Ni13  1  0.00000000  0.00000000  0.25000000  1
  Ni  Ni14  1  0.16180300  0.32360700  0.11980600  1
  Ni  Ni15  1  0.83819700  0.16180300  0.61980600  1
loop_
_geom_bond_atom_site_label_1
_geom_bond_atom_site_label_2
_geom_bond_distance
_geom_bond_site_symmetry_2
Y2 Y4 3.325368 1_566
Y2 Y4 3.325368 1_456
Y2 Y4 3.325376 1_556
Y3 Y5 3.325368 1_545
Y3 Y5 3.325368 1_655
Y3 Y5 3.325376 1_555
Al0 Y1 2.921690 1_565
Al0 Y1 2.921690 1_455
Al0 Ni12 2.921690 1_565
Al0 Ni12 2.921694 1_665
Al0 Ni12 2.921694 1_555
Al0 Y1 2.921699 1_555
Al0 Ni3 3.331306 1_455
Al0 Ni6 3.331306 1_565
Al0 Ni5 3.331306 1_455
Al0 Ni0 3.331306 1_565
Al0 Ni4 3.331310 1_565
Al0 Ni4 3.331310 1_455
Al0 Ni15 3.331310 1_455
Al0 Ni15 3.331310 1_565
Al0 Ni6 3.331314 1_555
Al0 Ni3 3.331314 1_555
Al0 Ni0 3.331314 1_555
Al0 Ni5 3.331314 1_555
Al0 Y2 3.366070 1_555
Al0 Y5 3.366070 1_555
Al1 Y0 2.921690 1_545
Al1 Y0 2.921690 1_655
Al1 Ni13 2.921690 1_655
Al1 Ni13 2.921694 1_665
Al1 Ni13 2.921694 1_555
Al1 Y0 2.921699 1_555
Al1 Ni14 3.331306 1_655
Al1 Ni8 3.331306 1_655
Al1 Ni1 3.331306 1_545
Al1 Ni7 3.331306 1_545
Al1 Ni9 3.331310 1_655
Al1 Ni2 3.331310 1_655
Al1 Ni9 3.331310 1_545
Al1 Ni2 3.331310 1_545
Al1 Ni7 3.331314 1_555
Al1 Ni1 3.331314 1_555
Al1 Ni8 3.331314 1_555
Al1 Ni14 3.331314 1_555
Al1 Y3 3.366070 1_555
Al1 Y4 3.366070 1_555
Ni0 Ni10 2.446596 1_555
Ni0 Ni5 2.456427 1_445
Ni0 Ni15 2.456427 1_455
Ni0 Ni12 2.589390 1_555
Ni0 Ni5 2.604093 1_555
Ni0 Ni15 2.604093 1_555
Ni0 Y1 2.637049 1_555
Ni0 Y5 2.800544 1_545
Ni0 Y5 2.800554 1_555
Ni0 Y3 3.167216 1_555
Ni1 Ni11 2.446596 1_665
Ni1 Ni14 2.456427 1_665
Ni1 Ni2 2.456427 1_655
Ni1 Ni13 2.589390 1_665
Ni1 Ni14 2.604093 1_555
Ni1 Ni2 2.604093 1_555
Ni1 Y0 2.637049 1_555
Ni1 Y4 2.800544 1_565
Ni1 Y4 2.800554 1_555
Ni1 Y2 3.167216 1_554
Ni2 Y0 2.637049 1_555
Ni2 Y4 2.800549 1_455
Ni2 Y4 2.800549 1_565
Ni2 Y2 3.167216 1_554
Ni3 Ni6 2.456427 1_665
Ni3 Ni4 2.456427 1_565
Ni3 Ni6 2.604093 1_555
Ni3 Ni4 2.604093 1_555
Ni3 Y1 2.637049 1_555
Ni3 Y2 2.800544 1_655
Ni3 Y2 2.800554 1_555
Ni3 Y4 3.167216 1_556
Ni4 Ni6 2.456427 1_655
Ni4 Ni6 2.604093 1_555
Ni4 Y1 2.637049 1_555
Ni4 Y2 2.800549 1_545
Ni4 Y2 2.800549 1_655
Ni4 Y4 3.167216 1_556
Ni5 Y1 2.637049 1_555
Ni5 Y5 2.800544 1_655
Ni5 Y5 2.800554 1_555
Ni5 Y3 3.167216 1_555
Ni6 Y1 2.637049 1_555
Ni6 Y2 2.800544 1_545
Ni6 Y2 2.800554 1_555
Ni6 Y4 3.167216 1_556
Ni7 Ni8 2.456427 1_665
Ni7 Ni9 2.456427 1_655
Ni7 Ni8 2.604093 1_555
Ni7 Ni9 2.604093 1_555
Ni7 Y0 2.637049 1_555
Ni7 Y3 2.800544 1_565
Ni7 Y3 2.800554 1_555
Ni7 Y5 3.167216 1_555
Ni8 Ni9 2.456427 1_545
Ni8 Ni9 2.604093 1_555
Ni8 Y0 2.637049 1_555
Ni8 Y3 2.800544 1_455
Ni8 Y3 2.800554 1_555
Ni8 Y5 3.167216 1_555
Ni9 Y0 2.637049 1_555
Ni9 Y3 2.800549 1_565
Ni9 Y3 2.800549 1_455
Ni9 Y5 3.167216 1_555
Ni10 Ni15 2.446593 1_455
Ni10 Ni9 2.446593 1_545
Ni10 Ni5 2.446596 1_445
Ni10 Ni7 2.446596 1_445
Ni10 Ni8 2.446596 1_555
Ni10 Y5 3.027660 1_545
Ni10 Y3 3.027660 1_455
Ni10 Y5 3.027664 1_445
Ni10 Y5 3.027664 1_555
Ni10 Y3 3.027664 1_555
Ni10 Y3 3.027664 1_445
Ni11 Ni2 2.446593 1_545
Ni11 Ni4 2.446593 1_454
Ni11 Ni14 2.446596 1_555
Ni11 Ni3 2.446596 1_444
Ni11 Ni6 2.446596 1_554
Ni11 Y4 3.027660 1_455
Ni11 Y2 3.027660 1_544
Ni11 Y4 3.027664 1_555
Ni11 Y4 3.027664 1_445
Ni11 Y2 3.027664 1_444
Ni11 Y2 3.027664 1_554
Ni12 Ni4 2.589388 1_455
Ni12 Ni15 2.589388 1_455
Ni12 Ni6 2.589390 1_555
Ni12 Ni3 2.589390 1_445
Ni12 Ni5 2.589390 1_445
Ni12 Y1 2.921690 1_455
Ni12 Y1 2.921694 1_445
Ni12 Y1 2.921694 1_555
Ni13 Ni2 2.589388 1_545
Ni13 Ni9 2.589388 1_545
Ni13 Ni8 2.589390 1_555
Ni13 Ni7 2.589390 1_445
Ni13 Ni14 2.589390 1_555
Ni13 Y0 2.921690 1_545
Ni13 Y0 2.921694 1_445
Ni13 Y0 2.921694 1_555
Ni14 Ni2 2.456427 1_545
Ni14 Ni2 2.604093 1_555
Ni14 Y0 2.637049 1_555
Ni14 Y4 2.800544 1_455
Ni14 Y4 2.800554 1_555
Ni14 Y2 3.167216 1_554
Ni15 Ni5 2.456427 1_545
Ni15 Ni5 2.604093 1_555
Ni15 Y1 2.637049 1_555
Ni15 Y5 2.800549 1_545
Ni15 Y5 2.800549 1_655
Ni15 Y3 3.167216 1_555
