# generated using pymatgen
data_Ti2B
_symmetry_space_group_name_H-M   'P 1'
_cell_length_a   4.84344925
_cell_length_b   4.84344925
_cell_length_c   4.84344925
_cell_angle_alpha   99.58570573
_cell_angle_beta   99.58570573
_cell_angle_gamma   131.83244409
_symmetry_Int_Tables_number   1
_chemical_formula_structural   Ti2B
_chemical_formula_sum   'Ti4 B2'
_cell_volume   77.29026514
_cell_formula_units_Z   2
loop_
 _symmetry_equiv_pos_site_id
 _symmetry_equiv_pos_as_xyz
  1  'x, y, z'
loop_
 _atom_site_type_symbol
 _atom_site_label
 _atom_site_symmetry_multiplicity
 _atom_site_fract_x
 _atom_site_fract_y
 _atom_site_fract_z
 _atom_site_occupancy
  Ti  Ti0  1  0.15800400  0.65800400  0.81600700  1
  Ti  Ti1  1  0.84199600  0.34199600  0.18399300  1
  Ti  Ti2  1  0.34199600  0.15800400  0.50000000  1
  Ti  Ti3  1  0.65800400  0.84199600  0.50000000  1
  B  B0  1  0.50000000  0.50000000  0.00000000  1
  B  B1  1  0.00000000  0.00000000  0.00000000  1
loop_
_geom_bond_atom_site_label_1
_geom_bond_atom_site_label_2
_geom_bond_distance
_geom_bond_site_symmetry_2
Ti0 Ti1 2.560102 1_566
Ti0 Ti1 2.560108 1_456
Ti0 Ti1 2.794656 1_455
Ti0 Ti3 2.794908 1_555
Ti0 Ti2 2.794908 1_565
Ti0 Ti3 2.794911 1_445
Ti0 Ti2 2.794911 1_455
Ti1 Ti3 2.794908 1_545
Ti1 Ti2 2.794908 1_555
Ti1 Ti3 2.794911 1_655
Ti1 Ti2 2.794911 1_665
Ti2 Ti3 2.560100 1_445
Ti2 Ti3 2.560100 1_555
Ti2 Ti3 2.794665 1_545
B0 B1 1.976476 1_665
B0 B1 1.976476 1_555
B0 Ti2 2.355854 1_554
B0 Ti3 2.355854 1_555
B0 Ti0 2.355856 1_554
B0 Ti1 2.355856 1_555
B1 Ti2 2.355854 1_555
B1 Ti3 2.355854 1_444
B1 Ti1 2.355856 1_455
B1 Ti0 2.355856 1_544
