# generated using pymatgen
data_Pu
_symmetry_space_group_name_H-M   'P 1'
_cell_length_a   6.57837780
_cell_length_b   6.57837813
_cell_length_c   6.57837888
_cell_angle_alpha   59.99999621
_cell_angle_beta   59.99999457
_cell_angle_gamma   59.99998208
_symmetry_Int_Tables_number   1
_chemical_formula_structural   Pu
_chemical_formula_sum   Pu8
_cell_volume   201.29891819
_cell_formula_units_Z   8
loop_
 _symmetry_equiv_pos_site_id
 _symmetry_equiv_pos_as_xyz
  1  'x, y, z'
loop_
 _atom_site_type_symbol
 _atom_site_label
 _atom_site_symmetry_multiplicity
 _atom_site_fract_x
 _atom_site_fract_y
 _atom_site_fract_z
 _atom_site_occupancy
  Pu  Pu0_0  1  0.00000000  0.00000000  0.00000000  1
  Pu  Pu0_1  1  0.00000000  0.00000000  0.50000000  1
  Pu  Pu0_2  1  0.00000000  0.50000000  0.00000000  1
  Pu  Pu0_3  1  0.00000000  0.50000000  0.50000000  1
  Pu  Pu0_4  1  0.50000000  0.00000000  0.00000000  1
  Pu  Pu0_5  1  0.50000000  0.00000000  0.50000000  1
  Pu  Pu0_6  1  0.50000000  0.50000000  0.00000000  1
  Pu  Pu0_7  1  0.50000000  0.50000000  0.50000000  1
loop_
_geom_bond_atom_site_label_1
_geom_bond_atom_site_label_2
_geom_bond_distance
_geom_bond_site_symmetry_2
Pu0_0 Pu0_6 3.289188 1_455
Pu0_0 Pu0_6 3.289188 1_545
Pu0_0 Pu0_5 3.289189 1_455
Pu0_0 Pu0_5 3.289189 1_554
Pu0_0 Pu0_4 3.289189 1_455
Pu0_0 Pu0_4 3.289189 1_555
Pu0_0 Pu0_3 3.289189 1_554
Pu0_0 Pu0_2 3.289189 1_555
Pu0_0 Pu0_3 3.289189 1_545
Pu0_0 Pu0_2 3.289189 1_545
Pu0_0 Pu0_1 3.289189 1_555
Pu0_0 Pu0_1 3.289189 1_554
Pu0_1 Pu0_7 3.289188 1_455
Pu0_1 Pu0_7 3.289188 1_545
Pu0_1 Pu0_4 3.289189 1_555
Pu0_1 Pu0_4 3.289189 1_456
Pu0_1 Pu0_5 3.289189 1_555
Pu0_1 Pu0_5 3.289189 1_455
Pu0_1 Pu0_2 3.289189 1_555
Pu0_1 Pu0_3 3.289189 1_545
Pu0_1 Pu0_2 3.289189 1_546
Pu0_1 Pu0_3 3.289189 1_555
Pu0_2 Pu0_4 3.289188 1_465
Pu0_2 Pu0_4 3.289188 1_555
Pu0_2 Pu0_6 3.289189 1_455
Pu0_2 Pu0_7 3.289189 1_554
Pu0_2 Pu0_7 3.289189 1_455
Pu0_2 Pu0_6 3.289189 1_555
Pu0_2 Pu0_3 3.289189 1_554
Pu0_2 Pu0_3 3.289189 1_555
Pu0_3 Pu0_5 3.289188 1_465
Pu0_3 Pu0_5 3.289188 1_555
Pu0_3 Pu0_6 3.289189 1_456
Pu0_3 Pu0_7 3.289189 1_455
Pu0_3 Pu0_6 3.289189 1_555
Pu0_3 Pu0_7 3.289189 1_555
Pu0_4 Pu0_6 3.289189 1_545
Pu0_4 Pu0_7 3.289189 1_554
Pu0_4 Pu0_7 3.289189 1_545
Pu0_4 Pu0_6 3.289189 1_555
Pu0_4 Pu0_5 3.289189 1_555
Pu0_4 Pu0_5 3.289189 1_554
Pu0_5 Pu0_7 3.289189 1_545
Pu0_5 Pu0_6 3.289189 1_555
Pu0_5 Pu0_6 3.289189 1_546
Pu0_5 Pu0_7 3.289189 1_555
Pu0_6 Pu0_7 3.289189 1_554
Pu0_6 Pu0_7 3.289189 1_555
