# generated using pymatgen
data_Ba3V2Ni6(PO6)4
_symmetry_space_group_name_H-M   'P 1'
_cell_length_a   4.92066209
_cell_length_b   9.74495930
_cell_length_c   10.91503989
_cell_angle_alpha   78.03014275
_cell_angle_beta   76.97962765
_cell_angle_gamma   90.04579055
_symmetry_Int_Tables_number   1
_chemical_formula_structural   Ba3V2Ni6(PO6)4
_chemical_formula_sum   'Ba3 V2 Ni6 P4 O24'
_cell_volume   498.22953248
_cell_formula_units_Z   1
loop_
 _symmetry_equiv_pos_site_id
 _symmetry_equiv_pos_as_xyz
  1  'x, y, z'
loop_
 _atom_site_type_symbol
 _atom_site_label
 _atom_site_symmetry_multiplicity
 _atom_site_fract_x
 _atom_site_fract_y
 _atom_site_fract_z
 _atom_site_occupancy
  Ba  Ba0  1  0.00065500  0.00050600  0.99569800  1
  Ba  Ba1  1  0.33520600  0.66257900  0.32994300  1
  Ba  Ba2  1  0.66682900  0.33037300  0.66918100  1
  V  V0  1  0.38128900  0.04538400  0.23690900  1
  V  V1  1  0.71458900  0.71254600  0.56997100  1
  Ni  Ni0  1  0.44864100  0.38823100  0.10574300  1
  Ni  Ni1  1  0.77813200  0.05627900  0.44343200  1
  Ni  Ni2  1  0.10926900  0.71695100  0.77943000  1
  Ni  Ni3  1  0.55344200  0.61311000  0.89504200  1
  Ni  Ni4  1  0.88667900  0.28647600  0.22381300  1
  Ni  Ni5  1  0.21909700  0.95039900  0.56171900  1
  P  P0  1  0.95238800  0.62193600  0.09711600  1
  P  P1  1  0.28464600  0.28905300  0.42970400  1
  P  P2  1  0.61713500  0.95366800  0.76456200  1
  P  P3  1  0.04998000  0.37988100  0.90401400  1
  O  O0  1  0.91008000  0.72923900  0.18337900  1
  O  O1  1  0.24118300  0.39618000  0.51618000  1
  O  O2  1  0.57398700  0.06168600  0.85018000  1
  O  O3  1  0.09137600  0.27225800  0.81778600  1
  O  O4  1  0.42932000  0.92640300  0.14117400  1
  O  O5  1  0.76281100  0.59330300  0.47458000  1
  O  O6  1  0.26787600  0.58304100  0.07193200  1
  O  O7  1  0.59971800  0.24993100  0.40423700  1
  O  O8  1  0.93256300  0.91516800  0.73937700  1
  O  O9  1  0.75658200  0.48768000  0.16798300  1
  O  O10  1  0.09120800  0.15393100  0.50086500  1
  O  O11  1  0.42415100  0.81846500  0.83460400  1
  O  O12  1  0.87211000  0.68889000  0.96663100  1
  O  O13  1  0.20737500  0.35486500  0.29821500  1
  O  O14  1  0.53905000  0.02110000  0.63371100  1
  O  O15  1  0.73414600  0.41775400  0.92953200  1
  O  O16  1  0.02797400  0.08765400  0.26051300  1
  O  O17  1  0.35887700  0.75000000  0.59827500  1
  O  O18  1  0.24560700  0.51432200  0.83321400  1
  O  O19  1  0.59684500  0.19503600  0.15287000  1
  O  O20  1  0.93291500  0.86166700  0.48729400  1
  O  O21  1  0.13296100  0.31376400  0.03408600  1
  O  O22  1  0.47312500  0.96736500  0.38142300  1
  O  O23  1  0.80018700  0.63292700  0.71568200  1
loop_
_geom_bond_atom_site_label_1
_geom_bond_atom_site_label_2
_geom_bond_distance
_geom_bond_site_symmetry_2
Ba0 O2 2.897916 1_455
Ba0 O2 2.902187 1_555
Ba0 O4 2.907943 1_446
Ba0 O3 2.908216 1_555
Ba0 O4 2.920280 1_546
Ba0 O0 2.953587 1_446
Ba0 O8 3.165170 1_445
Ba0 O12 3.195182 1_445
Ba0 O11 3.198446 1_545
Ba0 O16 3.207368 1_556
Ba0 O19 3.209971 1_456
Ba0 O21 3.250939 1_556
Ba1 O5 2.903843 1_555
Ba1 O5 2.903861 1_455
Ba1 O0 2.904528 1_455
Ba1 O4 2.905251 1_555
Ba1 O1 2.910511 1_555
Ba1 O0 2.917190 1_555
Ba1 O9 3.151671 1_555
Ba1 O6 3.157048 1_555
Ba1 O13 3.167562 1_555
Ba1 O22 3.234012 1_555
Ba1 O20 3.238624 1_455
Ba1 O17 3.241302 1_555
Ba2 O2 2.900555 1_555
Ba2 O3 2.909218 1_655
Ba2 O3 2.918316 1_555
Ba2 O5 2.930599 1_555
Ba2 O1 2.934922 1_655
Ba2 O1 2.953126 1_555
Ba2 O23 3.185729 1_555
Ba2 O14 3.196746 1_555
Ba2 O10 3.206189 1_655
Ba2 O15 3.215235 1_555
Ba2 O18 3.221809 1_555
Ba2 O7 3.233684 1_555
Ni0 O19 2.027417 1_555
Ni0 O15 2.075574 1_554
Ni0 O21 2.081426 1_555
Ni0 O6 2.095558 1_555
Ni0 O9 2.105081 1_555
Ni0 O13 2.126237 1_555
Ni1 O22 2.039673 1_545
Ni1 O20 2.048402 1_545
Ni1 O16 2.057022 1_655
Ni1 O7 2.086151 1_555
Ni1 O10 2.086164 1_655
Ni1 O14 2.101933 1_555
Ni2 O17 2.040333 1_555
Ni2 O23 2.044231 1_455
Ni2 O12 2.074850 1_455
Ni2 O18 2.095839 1_555
Ni2 O11 2.099318 1_555
Ni2 O8 2.121794 1_455
Ni3 O23 2.028763 1_555
Ni3 O6 2.080960 1_556
Ni3 O12 2.098650 1_555
Ni3 O18 2.098674 1_555
Ni3 O15 2.100677 1_555
Ni3 O11 2.118535 1_555
Ni4 O16 2.050250 1_655
Ni4 O19 2.051683 1_555
Ni4 O9 2.075519 1_555
Ni4 O13 2.096217 1_655
Ni4 O7 2.110508 1_555
Ni4 O21 2.113791 1_655
Ni5 O20 2.048298 1_455
Ni5 O22 2.053990 1_555
Ni5 O17 2.061220 1_555
Ni5 O14 2.085935 1_565
Ni5 O8 2.087388 1_455
Ni5 O10 2.101192 1_565
O0 P0 1.530917 1_555
O1 P1 1.531214 1_555
O2 P2 1.531481 1_545
O3 P3 1.533185 1_555
O4 V0 1.698192 1_565
O5 V1 1.697543 1_555
O6 P0 1.575143 1_455
O7 P1 1.573834 1_555
O8 P2 1.573799 1_555
O9 P0 1.575037 1_555
O10 P1 1.576004 1_555
O11 P2 1.573285 1_555
O12 P0 1.574389 1_556
O13 P1 1.574861 1_555
O14 P2 1.574072 1_545
O15 P3 1.574029 1_655
O16 V0 1.761229 1_555
O17 V1 1.759682 1_555
O18 P3 1.575778 1_555
O19 V0 1.759968 1_555
O20 V1 1.759813 1_555
O21 P3 1.574714 1_554
O22 V0 1.759163 1_565
O23 V1 1.760518 1_555
