# generated using pymatgen
data_TlCu4Se3
_symmetry_space_group_name_H-M   'P 1'
_cell_length_a   7.73407200
_cell_length_b   7.73407200
_cell_length_c   20.26192200
_cell_angle_alpha   90.00000000
_cell_angle_beta   90.00000000
_cell_angle_gamma   90.00000000
_symmetry_Int_Tables_number   1
_chemical_formula_structural   TlCu4Se3
_chemical_formula_sum   'Tl8 Cu32 Se24'
_cell_volume   1211.98448625
_cell_formula_units_Z   8
loop_
 _symmetry_equiv_pos_site_id
 _symmetry_equiv_pos_as_xyz
  1  'x, y, z'
loop_
 _atom_site_type_symbol
 _atom_site_label
 _atom_site_symmetry_multiplicity
 _atom_site_fract_x
 _atom_site_fract_y
 _atom_site_fract_z
 _atom_site_occupancy
  Tl  Tl0_0  1  0.00000000  0.00000000  0.25000000  1
  Tl  Tl0_1  1  0.00000000  0.00000000  0.75000000  1
  Tl  Tl0_2  1  0.00000000  0.50000000  0.25000000  1
  Tl  Tl0_3  1  0.00000000  0.50000000  0.75000000  1
  Tl  Tl0_4  1  0.50000000  0.00000000  0.25000000  1
  Tl  Tl0_5  1  0.50000000  0.00000000  0.75000000  1
  Tl  Tl0_6  1  0.50000000  0.50000000  0.25000000  1
  Tl  Tl0_7  1  0.50000000  0.50000000  0.75000000  1
  Cu  Cu0_0  1  0.00000000  0.25000000  0.08085050  1
  Cu  Cu0_1  1  0.00000000  0.25000000  0.58085050  1
  Cu  Cu0_2  1  0.00000000  0.75000000  0.08085050  1
  Cu  Cu0_3  1  0.00000000  0.75000000  0.58085050  1
  Cu  Cu0_4  1  0.50000000  0.25000000  0.08085050  1
  Cu  Cu0_5  1  0.50000000  0.25000000  0.58085050  1
  Cu  Cu0_6  1  0.50000000  0.75000000  0.08085050  1
  Cu  Cu0_7  1  0.50000000  0.75000000  0.58085050  1
  Cu  Cu1_0  1  0.00000000  0.25000000  0.41914950  1
  Cu  Cu1_1  1  0.00000000  0.25000000  0.91914950  1
  Cu  Cu1_2  1  0.00000000  0.75000000  0.41914950  1
  Cu  Cu1_3  1  0.00000000  0.75000000  0.91914950  1
  Cu  Cu1_4  1  0.50000000  0.25000000  0.41914950  1
  Cu  Cu1_5  1  0.50000000  0.25000000  0.91914950  1
  Cu  Cu1_6  1  0.50000000  0.75000000  0.41914950  1
  Cu  Cu1_7  1  0.50000000  0.75000000  0.91914950  1
  Cu  Cu2_0  1  0.25000000  0.00000000  0.08085050  1
  Cu  Cu2_1  1  0.25000000  0.00000000  0.58085050  1
  Cu  Cu2_2  1  0.25000000  0.50000000  0.08085050  1
  Cu  Cu2_3  1  0.25000000  0.50000000  0.58085050  1
  Cu  Cu2_4  1  0.75000000  0.00000000  0.08085050  1
  Cu  Cu2_5  1  0.75000000  0.00000000  0.58085050  1
  Cu  Cu2_6  1  0.75000000  0.50000000  0.08085050  1
  Cu  Cu2_7  1  0.75000000  0.50000000  0.58085050  1
  Cu  Cu3_0  1  0.25000000  0.00000000  0.41914950  1
  Cu  Cu3_1  1  0.25000000  0.00000000  0.91914950  1
  Cu  Cu3_2  1  0.25000000  0.50000000  0.41914950  1
  Cu  Cu3_3  1  0.25000000  0.50000000  0.91914950  1
  Cu  Cu3_4  1  0.75000000  0.00000000  0.41914950  1
  Cu  Cu3_5  1  0.75000000  0.00000000  0.91914950  1
  Cu  Cu3_6  1  0.75000000  0.50000000  0.41914950  1
  Cu  Cu3_7  1  0.75000000  0.50000000  0.91914950  1
  Se  Se0_0  1  0.25000000  0.25000000  0.15321800  1
  Se  Se0_1  1  0.25000000  0.25000000  0.65321800  1
  Se  Se0_2  1  0.25000000  0.75000000  0.15321800  1
  Se  Se0_3  1  0.25000000  0.75000000  0.65321800  1
  Se  Se0_4  1  0.75000000  0.25000000  0.15321800  1
  Se  Se0_5  1  0.75000000  0.25000000  0.65321800  1
  Se  Se0_6  1  0.75000000  0.75000000  0.15321800  1
  Se  Se0_7  1  0.75000000  0.75000000  0.65321800  1
  Se  Se1_0  1  0.25000000  0.25000000  0.34678200  1
  Se  Se1_1  1  0.25000000  0.25000000  0.84678200  1
  Se  Se1_2  1  0.25000000  0.75000000  0.34678200  1
  Se  Se1_3  1  0.25000000  0.75000000  0.84678200  1
  Se  Se1_4  1  0.75000000  0.25000000  0.34678200  1
  Se  Se1_5  1  0.75000000  0.25000000  0.84678200  1
  Se  Se1_6  1  0.75000000  0.75000000  0.34678200  1
  Se  Se1_7  1  0.75000000  0.75000000  0.84678200  1
  Se  Se2_0  1  0.00000000  0.00000000  0.00000000  1
  Se  Se2_1  1  0.00000000  0.00000000  0.50000000  1
  Se  Se2_2  1  0.00000000  0.50000000  0.00000000  1
  Se  Se2_3  1  0.00000000  0.50000000  0.50000000  1
  Se  Se2_4  1  0.50000000  0.00000000  0.00000000  1
  Se  Se2_5  1  0.50000000  0.00000000  0.50000000  1
  Se  Se2_6  1  0.50000000  0.50000000  0.00000000  1
  Se  Se2_7  1  0.50000000  0.50000000  0.50000000  1
loop_
_geom_bond_atom_site_label_1
_geom_bond_atom_site_label_2
_geom_bond_distance
_geom_bond_site_symmetry_2
Tl0_0 Tl0_2 3.867036 1_555
Tl0_0 Tl0_4 3.867036 1_555
Tl0_0 Tl0_4 3.867036 1_455
Tl0_0 Tl0_2 3.867036 1_545
Tl0_1 Tl0_3 3.867036 1_555
Tl0_1 Tl0_5 3.867036 1_555
Tl0_1 Tl0_3 3.867036 1_545
Tl0_1 Tl0_5 3.867036 1_455
Tl0_2 Tl0_6 3.867036 1_555
Tl0_2 Tl0_6 3.867036 1_455
Tl0_3 Tl0_7 3.867036 1_555
Tl0_3 Tl0_7 3.867036 1_455
Tl0_4 Tl0_6 3.867036 1_555
Tl0_4 Tl0_6 3.867036 1_545
Tl0_5 Tl0_7 3.867036 1_555
Tl0_5 Tl0_7 3.867036 1_545
Cu0_0 Se0_0 2.426632 1_555
Cu0_0 Se0_4 2.426632 1_455
Cu0_0 Se2_2 2.534196 1_555
Cu0_0 Se2_0 2.534196 1_555
Cu0_0 Cu2_2 2.734407 1_555
Cu0_0 Cu2_0 2.734407 1_555
Cu0_0 Cu2_6 2.734407 1_455
Cu0_0 Cu2_4 2.734407 1_455
Cu0_1 Se0_1 2.426632 1_555
Cu0_1 Se0_5 2.426632 1_455
Cu0_1 Se2_1 2.534196 1_555
Cu0_1 Se2_3 2.534196 1_555
Cu0_1 Cu2_1 2.734407 1_555
Cu0_1 Cu2_3 2.734407 1_555
Cu0_1 Cu2_7 2.734407 1_455
Cu0_1 Cu2_5 2.734407 1_455
Cu0_2 Se0_2 2.426632 1_555
Cu0_2 Se0_6 2.426632 1_455
Cu0_2 Se2_2 2.534196 1_555
Cu0_2 Se2_0 2.534196 1_565
Cu0_2 Cu2_2 2.734407 1_555
Cu0_2 Cu2_6 2.734407 1_455
Cu0_2 Cu2_0 2.734407 1_565
Cu0_2 Cu2_4 2.734407 1_465
Cu0_3 Se0_3 2.426632 1_555
Cu0_3 Se0_7 2.426632 1_455
Cu0_3 Se2_3 2.534196 1_555
Cu0_3 Se2_1 2.534196 1_565
Cu0_3 Cu2_3 2.734407 1_555
Cu0_3 Cu2_7 2.734407 1_455
Cu0_3 Cu2_1 2.734407 1_565
Cu0_3 Cu2_5 2.734407 1_465
Cu0_4 Se0_0 2.426632 1_555
Cu0_4 Se0_4 2.426632 1_555
Cu0_4 Se2_6 2.534196 1_555
Cu0_4 Se2_4 2.534196 1_555
Cu0_4 Cu2_4 2.734407 1_555
Cu0_4 Cu2_6 2.734407 1_555
Cu0_4 Cu2_0 2.734407 1_555
Cu0_4 Cu2_2 2.734407 1_555
Cu0_5 Se0_5 2.426632 1_555
Cu0_5 Se0_1 2.426632 1_555
Cu0_5 Se2_5 2.534196 1_555
Cu0_5 Se2_7 2.534196 1_555
Cu0_5 Cu2_5 2.734407 1_555
Cu0_5 Cu2_7 2.734407 1_555
Cu0_5 Cu2_1 2.734407 1_555
Cu0_5 Cu2_3 2.734407 1_555
Cu0_6 Se0_2 2.426632 1_555
Cu0_6 Se0_6 2.426632 1_555
Cu0_6 Se2_6 2.534196 1_555
Cu0_6 Se2_4 2.534196 1_565
Cu0_6 Cu2_2 2.734407 1_555
Cu0_6 Cu2_6 2.734407 1_555
Cu0_6 Cu2_4 2.734407 1_565
Cu0_6 Cu2_0 2.734407 1_565
Cu0_7 Se0_7 2.426632 1_555
Cu0_7 Se0_3 2.426632 1_555
Cu0_7 Se2_7 2.534196 1_555
Cu0_7 Se2_5 2.534196 1_565
Cu0_7 Cu2_3 2.734407 1_555
Cu0_7 Cu2_7 2.734407 1_555
Cu0_7 Cu2_5 2.734407 1_565
Cu0_7 Cu2_1 2.734407 1_565
Cu1_0 Se1_0 2.426632 1_555
Cu1_0 Se1_4 2.426632 1_455
Cu1_0 Se2_3 2.534196 1_555
Cu1_0 Se2_1 2.534196 1_555
Cu1_0 Cu3_0 2.734407 1_555
Cu1_0 Cu3_2 2.734407 1_555
Cu1_0 Cu3_6 2.734407 1_455
Cu1_0 Cu3_4 2.734407 1_455
Cu1_1 Se1_1 2.426632 1_555
Cu1_1 Se1_5 2.426632 1_455
Cu1_1 Se2_0 2.534196 1_556
Cu1_1 Se2_2 2.534196 1_556
Cu1_1 Cu3_3 2.734407 1_555
Cu1_1 Cu3_1 2.734407 1_555
Cu1_1 Cu3_7 2.734407 1_455
Cu1_1 Cu3_5 2.734407 1_455
Cu1_2 Se1_2 2.426632 1_555
Cu1_2 Se1_6 2.426632 1_455
Cu1_2 Se2_3 2.534196 1_555
Cu1_2 Se2_1 2.534196 1_565
Cu1_2 Cu3_2 2.734407 1_555
Cu1_2 Cu3_6 2.734407 1_455
Cu1_2 Cu3_0 2.734407 1_565
Cu1_2 Cu3_4 2.734407 1_465
Cu1_3 Se1_3 2.426632 1_555
Cu1_3 Se1_7 2.426632 1_455
Cu1_3 Se2_2 2.534196 1_556
Cu1_3 Se2_0 2.534196 1_566
Cu1_3 Cu3_3 2.734407 1_555
Cu1_3 Cu3_7 2.734407 1_455
Cu1_3 Cu3_1 2.734407 1_565
Cu1_3 Cu3_5 2.734407 1_465
Cu1_4 Se1_4 2.426632 1_555
Cu1_4 Se1_0 2.426632 1_555
Cu1_4 Se2_5 2.534196 1_555
Cu1_4 Se2_7 2.534196 1_555
Cu1_4 Cu3_4 2.734407 1_555
Cu1_4 Cu3_6 2.734407 1_555
Cu1_4 Cu3_0 2.734407 1_555
Cu1_4 Cu3_2 2.734407 1_555
Cu1_5 Se1_1 2.426632 1_555
Cu1_5 Se1_5 2.426632 1_555
Cu1_5 Se2_6 2.534196 1_556
Cu1_5 Se2_4 2.534196 1_556
Cu1_5 Cu3_5 2.734407 1_555
Cu1_5 Cu3_7 2.734407 1_555
Cu1_5 Cu3_1 2.734407 1_555
Cu1_5 Cu3_3 2.734407 1_555
Cu1_6 Se1_6 2.426632 1_555
Cu1_6 Se1_2 2.426632 1_555
Cu1_6 Se2_7 2.534196 1_555
Cu1_6 Se2_5 2.534196 1_565
Cu1_6 Cu3_6 2.734407 1_555
Cu1_6 Cu3_2 2.734407 1_555
Cu1_6 Cu3_4 2.734407 1_565
Cu1_6 Cu3_0 2.734407 1_565
Cu1_7 Se1_7 2.426632 1_555
Cu1_7 Se1_3 2.426632 1_555
Cu1_7 Se2_6 2.534196 1_556
Cu1_7 Se2_4 2.534196 1_566
Cu1_7 Cu3_3 2.734407 1_555
Cu1_7 Cu3_7 2.734407 1_555
Cu1_7 Cu3_5 2.734407 1_565
Cu1_7 Cu3_1 2.734407 1_565
Cu2_0 Se0_0 2.426632 1_555
Cu2_0 Se0_2 2.426632 1_545
Cu2_0 Se2_0 2.534196 1_555
Cu2_0 Se2_4 2.534196 1_555
Cu2_1 Se0_1 2.426632 1_555
Cu2_1 Se0_3 2.426632 1_545
Cu2_1 Se2_1 2.534196 1_555
Cu2_1 Se2_5 2.534196 1_555
Cu2_2 Se0_2 2.426632 1_555
Cu2_2 Se0_0 2.426632 1_555
Cu2_2 Se2_2 2.534196 1_555
Cu2_2 Se2_6 2.534196 1_555
Cu2_3 Se0_3 2.426632 1_555
Cu2_3 Se0_1 2.426632 1_555
Cu2_3 Se2_3 2.534196 1_555
Cu2_3 Se2_7 2.534196 1_555
Cu2_4 Se0_4 2.426632 1_555
Cu2_4 Se0_6 2.426632 1_545
Cu2_4 Se2_4 2.534196 1_555
Cu2_4 Se2_0 2.534196 1_655
Cu2_5 Se0_5 2.426632 1_555
Cu2_5 Se0_7 2.426632 1_545
Cu2_5 Se2_5 2.534196 1_555
Cu2_5 Se2_1 2.534196 1_655
Cu2_6 Se0_6 2.426632 1_555
Cu2_6 Se0_4 2.426632 1_555
Cu2_6 Se2_6 2.534196 1_555
Cu2_6 Se2_2 2.534196 1_655
Cu2_7 Se0_7 2.426632 1_555
Cu2_7 Se0_5 2.426632 1_555
Cu2_7 Se2_7 2.534196 1_555
Cu2_7 Se2_3 2.534196 1_655
Cu3_0 Se1_0 2.426632 1_555
Cu3_0 Se1_2 2.426632 1_545
Cu3_0 Se2_1 2.534196 1_555
Cu3_0 Se2_5 2.534196 1_555
Cu3_1 Se1_1 2.426632 1_555
Cu3_1 Se1_3 2.426632 1_545
Cu3_1 Se2_0 2.534196 1_556
Cu3_1 Se2_4 2.534196 1_556
Cu3_2 Se1_2 2.426632 1_555
Cu3_2 Se1_0 2.426632 1_555
Cu3_2 Se2_3 2.534196 1_555
Cu3_2 Se2_7 2.534196 1_555
Cu3_3 Se1_1 2.426632 1_555
Cu3_3 Se1_3 2.426632 1_555
Cu3_3 Se2_6 2.534196 1_556
Cu3_3 Se2_2 2.534196 1_556
Cu3_4 Se1_4 2.426632 1_555
Cu3_4 Se1_6 2.426632 1_545
Cu3_4 Se2_5 2.534196 1_555
Cu3_4 Se2_1 2.534196 1_655
Cu3_5 Se1_5 2.426632 1_555
Cu3_5 Se1_7 2.426632 1_545
Cu3_5 Se2_4 2.534196 1_556
Cu3_5 Se2_0 2.534196 1_656
Cu3_6 Se1_6 2.426632 1_555
Cu3_6 Se1_4 2.426632 1_555
Cu3_6 Se2_7 2.534196 1_555
Cu3_6 Se2_3 2.534196 1_655
Cu3_7 Se1_7 2.426632 1_555
Cu3_7 Se1_5 2.426632 1_555
Cu3_7 Se2_6 2.534196 1_556
Cu3_7 Se2_2 2.534196 1_656
Se0_0 Tl0_2 3.364887 1_555
Se0_0 Tl0_0 3.364887 1_555
Se0_0 Tl0_6 3.364887 1_555
Se0_0 Tl0_4 3.364887 1_555
Se0_1 Tl0_1 3.364887 1_555
Se0_1 Tl0_5 3.364887 1_555
Se0_1 Tl0_3 3.364887 1_555
Se0_1 Tl0_7 3.364887 1_555
Se0_2 Tl0_2 3.364887 1_555
Se0_2 Tl0_6 3.364887 1_555
Se0_2 Tl0_0 3.364887 1_565
Se0_2 Tl0_4 3.364887 1_565
Se0_3 Tl0_3 3.364887 1_555
Se0_3 Tl0_7 3.364887 1_555
Se0_3 Tl0_1 3.364887 1_565
Se0_3 Tl0_5 3.364887 1_565
Se0_4 Tl0_6 3.364887 1_555
Se0_4 Tl0_4 3.364887 1_555
Se0_4 Tl0_0 3.364887 1_655
Se0_4 Tl0_2 3.364887 1_655
Se0_5 Tl0_5 3.364887 1_555
Se0_5 Tl0_7 3.364887 1_555
Se0_5 Tl0_1 3.364887 1_655
Se0_5 Tl0_3 3.364887 1_655
Se0_6 Tl0_6 3.364887 1_555
Se0_6 Tl0_4 3.364887 1_565
Se0_6 Tl0_2 3.364887 1_655
Se0_6 Tl0_0 3.364887 1_665
Se0_7 Tl0_7 3.364887 1_555
Se0_7 Tl0_5 3.364887 1_565
Se0_7 Tl0_3 3.364887 1_655
Se0_7 Tl0_1 3.364887 1_665
Se1_0 Tl0_2 3.364887 1_555
Se1_0 Tl0_0 3.364887 1_555
Se1_0 Tl0_6 3.364887 1_555
Se1_0 Tl0_4 3.364887 1_555
Se1_1 Tl0_1 3.364887 1_555
Se1_1 Tl0_5 3.364887 1_555
Se1_1 Tl0_3 3.364887 1_555
Se1_1 Tl0_7 3.364887 1_555
Se1_2 Tl0_2 3.364887 1_555
Se1_2 Tl0_6 3.364887 1_555
Se1_2 Tl0_0 3.364887 1_565
Se1_2 Tl0_4 3.364887 1_565
Se1_3 Tl0_3 3.364887 1_555
Se1_3 Tl0_7 3.364887 1_555
Se1_3 Tl0_1 3.364887 1_565
Se1_3 Tl0_5 3.364887 1_565
Se1_4 Tl0_6 3.364887 1_555
Se1_4 Tl0_4 3.364887 1_555
Se1_4 Tl0_0 3.364887 1_655
Se1_4 Tl0_2 3.364887 1_655
Se1_5 Tl0_5 3.364887 1_555
Se1_5 Tl0_7 3.364887 1_555
Se1_5 Tl0_1 3.364887 1_655
Se1_5 Tl0_3 3.364887 1_655
Se1_6 Tl0_6 3.364887 1_555
Se1_6 Tl0_4 3.364887 1_565
Se1_6 Tl0_2 3.364887 1_655
Se1_6 Tl0_0 3.364887 1_665
Se1_7 Tl0_7 3.364887 1_555
Se1_7 Tl0_5 3.364887 1_565
Se1_7 Tl0_3 3.364887 1_655
Se1_7 Tl0_1 3.364887 1_665
