# generated using pymatgen
data_Zr(NbMo)2
_symmetry_space_group_name_H-M   'P 1'
_cell_length_a   5.72739603
_cell_length_b   5.72739603
_cell_length_c   23.65560036
_cell_angle_alpha   85.51184398
_cell_angle_beta   85.51184398
_cell_angle_gamma   110.70707454
_symmetry_Int_Tables_number   1
_chemical_formula_structural   Zr(NbMo)2
_chemical_formula_sum   'Zr8 Nb16 Mo16'
_cell_volume   718.93948265
_cell_formula_units_Z   8
loop_
 _symmetry_equiv_pos_site_id
 _symmetry_equiv_pos_as_xyz
  1  'x, y, z'
loop_
 _atom_site_type_symbol
 _atom_site_label
 _atom_site_symmetry_multiplicity
 _atom_site_fract_x
 _atom_site_fract_y
 _atom_site_fract_z
 _atom_site_occupancy
  Zr  Zr0_0  1  0.49710550  0.49710550  0.00578950  1
  Zr  Zr0_1  1  0.49710550  0.49710550  0.50578950  1
  Zr  Zr0_2  1  0.49710550  0.99710550  0.00578950  1
  Zr  Zr0_3  1  0.49710550  0.99710550  0.50578950  1
  Zr  Zr0_4  1  0.99710550  0.49710550  0.00578950  1
  Zr  Zr0_5  1  0.99710550  0.49710550  0.50578950  1
  Zr  Zr0_6  1  0.99710550  0.99710550  0.00578950  1
  Zr  Zr0_7  1  0.99710550  0.99710550  0.50578950  1
  Nb  Nb0_0  1  0.10318950  0.10318950  0.29362050  1
  Nb  Nb0_1  1  0.10318950  0.10318950  0.79362050  1
  Nb  Nb0_2  1  0.10318950  0.60318950  0.29362050  1
  Nb  Nb0_3  1  0.10318950  0.60318950  0.79362050  1
  Nb  Nb0_4  1  0.60318950  0.10318950  0.29362050  1
  Nb  Nb0_5  1  0.60318950  0.10318950  0.79362050  1
  Nb  Nb0_6  1  0.60318950  0.60318950  0.29362050  1
  Nb  Nb0_7  1  0.60318950  0.60318950  0.79362050  1
  Nb  Nb1_0  1  0.30283600  0.30283600  0.39432800  1
  Nb  Nb1_1  1  0.30283600  0.30283600  0.89432800  1
  Nb  Nb1_2  1  0.30283600  0.80283600  0.39432800  1
  Nb  Nb1_3  1  0.30283600  0.80283600  0.89432800  1
  Nb  Nb1_4  1  0.80283600  0.30283600  0.39432800  1
  Nb  Nb1_5  1  0.80283600  0.30283600  0.89432800  1
  Nb  Nb1_6  1  0.80283600  0.80283600  0.39432800  1
  Nb  Nb1_7  1  0.80283600  0.80283600  0.89432800  1
  Mo  Mo0_0  1  0.19575700  0.19575700  0.10848600  1
  Mo  Mo0_1  1  0.19575700  0.19575700  0.60848600  1
  Mo  Mo0_2  1  0.19575700  0.69575700  0.10848600  1
  Mo  Mo0_3  1  0.19575700  0.69575700  0.60848600  1
  Mo  Mo0_4  1  0.69575700  0.19575700  0.10848600  1
  Mo  Mo0_5  1  0.69575700  0.19575700  0.60848600  1
  Mo  Mo0_6  1  0.69575700  0.69575700  0.10848600  1
  Mo  Mo0_7  1  0.69575700  0.69575700  0.60848600  1
  Mo  Mo1_0  1  0.40111200  0.40111200  0.19777600  1
  Mo  Mo1_1  1  0.40111200  0.40111200  0.69777600  1
  Mo  Mo1_2  1  0.40111200  0.90111200  0.19777600  1
  Mo  Mo1_3  1  0.40111200  0.90111200  0.69777600  1
  Mo  Mo1_4  1  0.90111200  0.40111200  0.19777600  1
  Mo  Mo1_5  1  0.90111200  0.40111200  0.69777600  1
  Mo  Mo1_6  1  0.90111200  0.90111200  0.19777600  1
  Mo  Mo1_7  1  0.90111200  0.90111200  0.69777600  1
loop_
_geom_bond_atom_site_label_1
_geom_bond_atom_site_label_2
_geom_bond_distance
_geom_bond_site_symmetry_2
Zr0_0 Zr0_4 2.863698 1_555
Zr0_0 Zr0_2 2.863698 1_555
Zr0_0 Zr0_2 2.863698 1_545
Zr0_0 Zr0_4 2.863698 1_455
Zr0_0 Zr0_6 3.256088 1_555
Zr0_0 Zr0_6 3.256088 1_445
Zr0_1 Zr0_3 2.863698 1_555
Zr0_1 Zr0_5 2.863698 1_555
Zr0_1 Zr0_5 2.863698 1_455
Zr0_1 Zr0_3 2.863698 1_545
Zr0_1 Zr0_7 3.256088 1_445
Zr0_1 Zr0_7 3.256088 1_555
Zr0_2 Zr0_6 2.863698 1_455
Zr0_2 Zr0_6 2.863698 1_555
Zr0_2 Zr0_4 3.256088 1_455
Zr0_2 Zr0_4 3.256088 1_565
Zr0_3 Zr0_7 2.863698 1_555
Zr0_3 Zr0_7 2.863698 1_455
Zr0_3 Zr0_5 3.256088 1_455
Zr0_3 Zr0_5 3.256088 1_565
Zr0_4 Zr0_6 2.863698 1_555
Zr0_4 Zr0_6 2.863698 1_545
Zr0_5 Zr0_7 2.863698 1_545
Zr0_5 Zr0_7 2.863698 1_555
Nb0_0 Nb0_4 2.863698 1_555
Nb0_0 Nb0_2 2.863698 1_555
Nb0_0 Nb0_2 2.863698 1_545
Nb0_0 Nb0_4 2.863698 1_455
Nb0_0 Nb1_6 2.866763 1_445
Nb0_0 Nb1_0 2.866765 1_555
Nb0_0 Nb0_6 3.256088 1_445
Nb0_0 Nb0_6 3.256088 1_555
Nb0_0 Nb1_4 3.334374 1_455
Nb0_0 Nb1_2 3.334374 1_545
Nb0_1 Nb0_3 2.863698 1_555
Nb0_1 Nb0_5 2.863698 1_455
Nb0_1 Nb0_5 2.863698 1_555
Nb0_1 Nb0_3 2.863698 1_545
Nb0_1 Nb1_7 2.866763 1_445
Nb0_1 Nb1_1 2.866765 1_555
Nb0_1 Nb0_7 3.256088 1_555
Nb0_1 Nb0_7 3.256088 1_445
Nb0_1 Nb1_5 3.334374 1_455
Nb0_1 Nb1_3 3.334374 1_545
Nb0_2 Nb0_6 2.863698 1_455
Nb0_2 Nb0_6 2.863698 1_555
Nb0_2 Nb1_4 2.866763 1_455
Nb0_2 Nb1_2 2.866765 1_555
Nb0_2 Nb0_4 3.256088 1_565
Nb0_2 Nb0_4 3.256088 1_455
Nb0_2 Nb1_0 3.334374 1_555
Nb0_2 Nb1_6 3.334374 1_455
Nb0_3 Nb0_7 2.863698 1_555
Nb0_3 Nb0_7 2.863698 1_455
Nb0_3 Nb1_5 2.866763 1_455
Nb0_3 Nb1_3 2.866765 1_555
Nb0_3 Nb0_5 3.256088 1_565
Nb0_3 Nb0_5 3.256088 1_455
Nb0_3 Nb1_7 3.334374 1_455
Nb0_3 Nb1_1 3.334374 1_555
Nb0_4 Nb0_6 2.863698 1_555
Nb0_4 Nb0_6 2.863698 1_545
Nb0_4 Nb1_2 2.866763 1_545
Nb0_4 Nb1_4 2.866765 1_555
Nb0_4 Nb1_0 3.334374 1_555
Nb0_4 Nb1_6 3.334374 1_545
Nb0_5 Nb0_7 2.863698 1_555
Nb0_5 Nb0_7 2.863698 1_545
Nb0_5 Nb1_3 2.866763 1_545
Nb0_5 Nb1_5 2.866765 1_555
Nb0_5 Nb1_1 3.334374 1_555
Nb0_5 Nb1_7 3.334374 1_545
Nb0_6 Nb1_0 2.866763 1_555
Nb0_6 Nb1_6 2.866765 1_555
Nb0_6 Nb1_2 3.334374 1_555
Nb0_6 Nb1_4 3.334374 1_555
Nb0_7 Nb1_1 2.866763 1_555
Nb0_7 Nb1_7 2.866765 1_555
Nb0_7 Nb1_3 3.334374 1_555
Nb0_7 Nb1_5 3.334374 1_555
Nb1_0 Nb1_4 2.863698 1_455
Nb1_0 Nb1_2 2.863698 1_555
Nb1_0 Nb1_2 2.863698 1_545
Nb1_0 Nb1_4 2.863698 1_555
Nb1_0 Zr0_7 3.077488 1_445
Nb1_0 Zr0_1 3.077490 1_555
Nb1_0 Nb1_6 3.256088 1_445
Nb1_0 Nb1_6 3.256088 1_555
Nb1_1 Nb1_3 2.863698 1_555
Nb1_1 Nb1_5 2.863698 1_455
Nb1_1 Nb1_3 2.863698 1_545
Nb1_1 Nb1_5 2.863698 1_555
Nb1_1 Zr0_6 3.077488 1_446
Nb1_1 Zr0_0 3.077490 1_556
Nb1_1 Nb1_7 3.256088 1_445
Nb1_1 Nb1_7 3.256088 1_555
Nb1_2 Nb1_6 2.863698 1_555
Nb1_2 Nb1_6 2.863698 1_455
Nb1_2 Zr0_5 3.077488 1_455
Nb1_2 Zr0_3 3.077490 1_555
Nb1_2 Nb1_4 3.256088 1_455
Nb1_2 Nb1_4 3.256088 1_565
Nb1_3 Nb1_7 2.863698 1_455
Nb1_3 Nb1_7 2.863698 1_555
Nb1_3 Zr0_4 3.077488 1_456
Nb1_3 Zr0_2 3.077490 1_556
Nb1_3 Nb1_5 3.256088 1_565
Nb1_3 Nb1_5 3.256088 1_455
Nb1_4 Nb1_6 2.863698 1_545
Nb1_4 Nb1_6 2.863698 1_555
Nb1_4 Zr0_3 3.077488 1_545
Nb1_4 Zr0_5 3.077490 1_555
Nb1_5 Nb1_7 2.863698 1_555
Nb1_5 Nb1_7 2.863698 1_545
Nb1_5 Zr0_2 3.077488 1_546
Nb1_5 Zr0_4 3.077490 1_556
Nb1_6 Zr0_1 3.077488 1_555
Nb1_6 Zr0_7 3.077490 1_555
Nb1_7 Zr0_0 3.077488 1_556
Nb1_7 Zr0_6 3.077490 1_556
Mo0_0 Mo1_0 2.650929 1_555
Mo0_0 Mo1_6 2.650929 1_445
Mo0_0 Mo0_2 2.863698 1_545
Mo0_0 Mo0_4 2.863698 1_555
Mo0_0 Mo0_4 2.863698 1_455
Mo0_0 Mo0_2 2.863698 1_555
Mo0_0 Zr0_6 2.905243 1_445
Mo0_0 Zr0_0 2.905244 1_555
Mo0_0 Mo1_2 3.150736 1_545
Mo0_0 Mo1_4 3.150736 1_455
Mo0_0 Mo0_6 3.256088 1_555
Mo0_0 Mo0_6 3.256088 1_445
Mo0_0 Zr0_2 3.367514 1_545
Mo0_0 Zr0_4 3.367514 1_455
Mo0_1 Mo1_1 2.650929 1_555
Mo0_1 Mo1_7 2.650929 1_445
Mo0_1 Mo0_3 2.863698 1_545
Mo0_1 Mo0_3 2.863698 1_555
Mo0_1 Mo0_5 2.863698 1_455
Mo0_1 Mo0_5 2.863698 1_555
Mo0_1 Zr0_7 2.905243 1_445
Mo0_1 Zr0_1 2.905244 1_555
Mo0_1 Mo1_5 3.150736 1_455
Mo0_1 Mo1_3 3.150736 1_545
Mo0_1 Mo0_7 3.256088 1_445
Mo0_1 Mo0_7 3.256088 1_555
Mo0_1 Zr0_5 3.367514 1_455
Mo0_1 Zr0_3 3.367514 1_545
Mo0_2 Mo1_2 2.650929 1_555
Mo0_2 Mo1_4 2.650929 1_455
Mo0_2 Mo0_6 2.863698 1_555
Mo0_2 Mo0_6 2.863698 1_455
Mo0_2 Zr0_4 2.905243 1_455
Mo0_2 Zr0_2 2.905244 1_555
Mo0_2 Mo1_6 3.150736 1_455
Mo0_2 Mo1_0 3.150736 1_555
Mo0_2 Mo0_4 3.256088 1_565
Mo0_2 Mo0_4 3.256088 1_455
Mo0_2 Zr0_6 3.367514 1_455
Mo0_2 Zr0_0 3.367514 1_555
Mo0_3 Mo1_3 2.650929 1_555
Mo0_3 Mo1_5 2.650929 1_455
Mo0_3 Mo0_7 2.863698 1_455
Mo0_3 Mo0_7 2.863698 1_555
Mo0_3 Zr0_5 2.905243 1_455
Mo0_3 Zr0_3 2.905244 1_555
Mo0_3 Mo1_1 3.150736 1_555
Mo0_3 Mo1_7 3.150736 1_455
Mo0_3 Mo0_5 3.256088 1_455
Mo0_3 Mo0_5 3.256088 1_565
Mo0_3 Zr0_7 3.367514 1_455
Mo0_3 Zr0_1 3.367514 1_555
Mo0_4 Mo1_4 2.650929 1_555
Mo0_4 Mo1_2 2.650929 1_545
Mo0_4 Mo0_6 2.863698 1_555
Mo0_4 Mo0_6 2.863698 1_545
Mo0_4 Zr0_2 2.905243 1_545
Mo0_4 Zr0_4 2.905244 1_555
Mo0_4 Mo1_0 3.150736 1_555
Mo0_4 Mo1_6 3.150736 1_545
Mo0_4 Zr0_0 3.367514 1_555
Mo0_4 Zr0_6 3.367514 1_545
Mo0_5 Mo1_5 2.650929 1_555
Mo0_5 Mo1_3 2.650929 1_545
Mo0_5 Mo0_7 2.863698 1_555
Mo0_5 Mo0_7 2.863698 1_545
Mo0_5 Zr0_3 2.905243 1_545
Mo0_5 Zr0_5 2.905244 1_555
Mo0_5 Mo1_1 3.150736 1_555
Mo0_5 Mo1_7 3.150736 1_545
Mo0_5 Zr0_1 3.367514 1_555
Mo0_5 Zr0_7 3.367514 1_545
Mo0_6 Mo1_6 2.650929 1_555
Mo0_6 Mo1_0 2.650929 1_555
Mo0_6 Zr0_0 2.905243 1_555
Mo0_6 Zr0_6 2.905244 1_555
Mo0_6 Mo1_2 3.150736 1_555
Mo0_6 Mo1_4 3.150736 1_555
Mo0_6 Zr0_2 3.367514 1_555
Mo0_6 Zr0_4 3.367514 1_555
Mo0_7 Mo1_7 2.650929 1_555
Mo0_7 Mo1_1 2.650929 1_555
Mo0_7 Zr0_1 2.905243 1_555
Mo0_7 Zr0_7 2.905244 1_555
Mo0_7 Mo1_5 3.150736 1_555
Mo0_7 Mo1_3 3.150736 1_555
Mo0_7 Zr0_5 3.367514 1_555
Mo0_7 Zr0_3 3.367514 1_555
Mo1_0 Nb0_6 2.773733 1_555
Mo1_0 Nb0_0 2.773735 1_555
Mo1_0 Mo1_4 2.863698 1_555
Mo1_0 Mo1_4 2.863698 1_455
Mo1_0 Mo1_2 2.863698 1_545
Mo1_0 Mo1_2 2.863698 1_555
Mo1_0 Nb0_4 3.254737 1_555
Mo1_0 Nb0_2 3.254737 1_555
Mo1_1 Nb0_7 2.773733 1_555
Mo1_1 Nb0_1 2.773735 1_555
Mo1_1 Mo1_3 2.863698 1_555
Mo1_1 Mo1_5 2.863698 1_555
Mo1_1 Mo1_5 2.863698 1_455
Mo1_1 Mo1_3 2.863698 1_545
Mo1_1 Nb0_3 3.254737 1_555
Mo1_1 Nb0_5 3.254737 1_555
Mo1_2 Nb0_4 2.773733 1_565
Mo1_2 Nb0_2 2.773735 1_555
Mo1_2 Mo1_6 2.863698 1_455
Mo1_2 Mo1_6 2.863698 1_555
Mo1_2 Nb0_6 3.254737 1_555
Mo1_2 Nb0_0 3.254737 1_565
Mo1_3 Nb0_5 2.773733 1_565
Mo1_3 Nb0_3 2.773735 1_555
Mo1_3 Mo1_7 2.863698 1_555
Mo1_3 Mo1_7 2.863698 1_455
Mo1_3 Nb0_7 3.254737 1_555
Mo1_3 Nb0_1 3.254737 1_565
Mo1_4 Nb0_2 2.773733 1_655
Mo1_4 Nb0_4 2.773735 1_555
Mo1_4 Mo1_6 2.863698 1_555
Mo1_4 Mo1_6 2.863698 1_545
Mo1_4 Nb0_6 3.254737 1_555
Mo1_4 Nb0_0 3.254737 1_655
Mo1_5 Nb0_3 2.773733 1_655
Mo1_5 Nb0_5 2.773735 1_555
Mo1_5 Mo1_7 2.863698 1_555
Mo1_5 Mo1_7 2.863698 1_545
Mo1_5 Nb0_7 3.254737 1_555
Mo1_5 Nb0_1 3.254737 1_655
Mo1_6 Nb0_0 2.773733 1_665
Mo1_6 Nb0_6 2.773735 1_555
Mo1_6 Nb0_2 3.254737 1_655
Mo1_6 Nb0_4 3.254737 1_565
Mo1_7 Nb0_1 2.773733 1_665
Mo1_7 Nb0_7 2.773735 1_555
Mo1_7 Nb0_3 3.254737 1_655
Mo1_7 Nb0_5 3.254737 1_565
