# generated using pymatgen
data_LiLa8Cu3O16
_symmetry_space_group_name_H-M   'P 1'
_cell_length_a   7.09366100
_cell_length_b   7.59218074
_cell_length_c   7.59210693
_cell_angle_alpha   90.16252882
_cell_angle_beta   105.37636574
_cell_angle_gamma   105.57225794
_symmetry_Int_Tables_number   1
_chemical_formula_structural   LiLa8Cu3O16
_chemical_formula_sum   'Li1 La8 Cu3 O16'
_cell_volume   378.56754270
_cell_formula_units_Z   1
loop_
 _symmetry_equiv_pos_site_id
 _symmetry_equiv_pos_as_xyz
  1  'x, y, z'
loop_
 _atom_site_type_symbol
 _atom_site_label
 _atom_site_symmetry_multiplicity
 _atom_site_fract_x
 _atom_site_fract_y
 _atom_site_fract_z
 _atom_site_occupancy
  Li  Li0  1  0.00000000  0.00000000  0.50000000  1
  La  La0  1  0.72190700  0.68092000  0.18596000  1
  La  La1  1  0.72353200  0.17552900  0.68034600  1
  La  La2  1  0.27646800  0.82447100  0.31965400  1
  La  La3  1  0.27809300  0.31908000  0.81404000  1
  La  La4  1  0.27637900  0.81959700  0.81855000  1
  La  La5  1  0.27644600  0.31415400  0.32412300  1
  La  La6  1  0.72355400  0.68584600  0.67587700  1
  La  La7  1  0.72362100  0.18040300  0.18145000  1
  Cu  Cu0  1  0.00000000  0.50000000  0.00000000  1
  Cu  Cu1  1  0.00000000  0.00000000  0.00000000  1
  Cu  Cu2  1  0.00000000  0.50000000  0.50000000  1
  O  O0  1  0.99410400  0.25337200  0.49922800  1
  O  O1  1  0.99357200  0.75087900  0.99904800  1
  O  O2  1  0.00593100  0.50214100  0.25386600  1
  O  O3  1  0.00648900  0.00232200  0.75655400  1
  O  O4  1  0.00642800  0.24912100  0.00095200  1
  O  O5  1  0.00589600  0.74662800  0.50077200  1
  O  O6  1  0.99351100  0.99767800  0.24344600  1
  O  O7  1  0.99406900  0.49785900  0.74613400  1
  O  O8  1  0.36290500  0.09914100  0.58180000  1
  O  O9  1  0.36228200  0.59958200  0.08194200  1
  O  O10  1  0.63771800  0.40041800  0.91805800  1
  O  O11  1  0.63709500  0.90085900  0.41820000  1
  O  O12  1  0.62786500  0.91686500  0.89694800  1
  O  O13  1  0.62797200  0.41669900  0.39757000  1
  O  O14  1  0.37202800  0.58330100  0.60243000  1
  O  O15  1  0.37213500  0.08313500  0.10305200  1
loop_
_geom_bond_atom_site_label_1
_geom_bond_atom_site_label_2
_geom_bond_distance
_geom_bond_site_symmetry_2
Li0 O5 1.935285 1_545
Li0 O0 1.935285 1_455
Li0 O6 1.936006 1_445
Li0 O3 1.936006 1_555
Li0 O8 2.385065 1_555
Li0 O11 2.385065 1_445
La0 O9 2.365570 1_555
La0 O6 2.597383 1_555
La0 O1 2.629543 1_554
La0 O13 2.630110 1_555
La0 O5 2.630574 1_655
La0 O2 2.662482 1_655
La0 O11 2.710040 1_555
La0 O10 2.770788 1_554
La0 O12 2.890695 1_554
La1 O8 2.371981 1_555
La1 O0 2.592139 1_555
La1 O7 2.623804 1_555
La1 O3 2.626500 1_655
La1 O12 2.629832 1_545
La1 O4 2.657800 1_656
La1 O11 2.707113 1_545
La1 O10 2.768754 1_555
La1 O13 2.887570 1_555
La2 O11 2.371981 1_555
La2 O5 2.592139 1_555
La2 O2 2.623804 1_555
La2 O6 2.626500 1_455
La2 O15 2.629832 1_565
La2 O1 2.657800 1_454
La2 O8 2.707113 1_565
La2 O9 2.768754 1_555
La2 O14 2.887570 1_555
La3 O10 2.365570 1_555
La3 O3 2.597383 1_555
La3 O4 2.629543 1_556
La3 O14 2.630110 1_555
La3 O0 2.630574 1_455
La3 O7 2.662482 1_455
La3 O8 2.710040 1_555
La3 O9 2.770788 1_556
La3 O15 2.890695 1_556
La4 O12 2.310451 1_555
La4 O3 2.600627 1_565
La4 O5 2.603047 1_555
La4 O7 2.657356 1_455
La4 O1 2.659827 1_455
La4 O9 2.660749 1_556
La4 O15 2.756426 1_566
La4 O14 2.756499 1_555
La4 O8 2.831811 1_565
La5 O13 2.313642 1_555
La5 O8 2.605276 1_555
La5 O0 2.628865 1_455
La5 O4 2.631654 1_555
La5 O6 2.631938 1_445
La5 O2 2.633593 1_555
La5 O14 2.751661 1_555
La5 O15 2.753315 1_555
La5 O9 2.890553 1_555
La6 O14 2.313642 1_555
La6 O11 2.605276 1_555
La6 O5 2.628865 1_655
La6 O1 2.631654 1_555
La6 O3 2.631938 1_665
La6 O7 2.633593 1_555
La6 O13 2.751661 1_555
La6 O12 2.753315 1_555
La6 O10 2.890553 1_555
La7 O15 2.310451 1_555
La7 O6 2.600627 1_545
La7 O0 2.603047 1_555
La7 O2 2.657356 1_655
La7 O4 2.659827 1_655
La7 O10 2.660749 1_554
La7 O12 2.756426 1_544
La7 O13 2.756499 1_555
La7 O11 2.831811 1_545
Cu0 O2 1.916578 1_555
Cu0 O7 1.916578 1_454
Cu0 O1 1.917451 1_454
Cu0 O4 1.917451 1_555
Cu0 O9 2.381035 1_555
Cu0 O10 2.381035 1_454
Cu1 O3 1.861019 1_554
Cu1 O6 1.861019 1_445
Cu1 O4 1.879591 1_555
Cu1 O1 1.879591 1_444
Cu1 O15 2.446708 1_555
Cu1 O12 2.446708 1_444
Cu2 O0 1.861610 1_455
Cu2 O5 1.861610 1_555
Cu2 O7 1.880288 1_455
Cu2 O2 1.880288 1_555
Cu2 O14 2.445814 1_555
Cu2 O13 2.445814 1_455
