# generated using pymatgen
data_Mg6NbCo
_symmetry_space_group_name_H-M   'P 1'
_cell_length_a   4.81889500
_cell_length_b   5.79800000
_cell_length_c   10.97176800
_cell_angle_alpha   90.00000000
_cell_angle_beta   90.00000000
_cell_angle_gamma   90.00000000
_symmetry_Int_Tables_number   1
_chemical_formula_structural   Mg6NbCo
_chemical_formula_sum   'Mg12 Nb2 Co2'
_cell_volume   306.55068455
_cell_formula_units_Z   2
loop_
 _symmetry_equiv_pos_site_id
 _symmetry_equiv_pos_as_xyz
  1  'x, y, z'
loop_
 _atom_site_type_symbol
 _atom_site_label
 _atom_site_symmetry_multiplicity
 _atom_site_fract_x
 _atom_site_fract_y
 _atom_site_fract_z
 _atom_site_occupancy
  Mg  Mg0  1  0.50000000  0.25124900  0.42687400  1
  Mg  Mg1  1  0.50000000  0.74875100  0.42687400  1
  Mg  Mg2  1  0.00000000  0.74947600  0.08414500  1
  Mg  Mg3  1  0.00000000  0.25052400  0.08414500  1
  Mg  Mg4  1  0.00000000  0.00000000  0.30727000  1
  Mg  Mg5  1  0.00000000  0.50000000  0.32699500  1
  Mg  Mg6  1  0.50000000  0.75124900  0.92687400  1
  Mg  Mg7  1  0.50000000  0.24875100  0.92687400  1
  Mg  Mg8  1  0.00000000  0.24947600  0.58414500  1
  Mg  Mg9  1  0.00000000  0.75052400  0.58414500  1
  Mg  Mg10  1  0.00000000  0.50000000  0.80727000  1
  Mg  Mg11  1  0.00000000  0.00000000  0.82699500  1
  Nb  Nb0  1  0.50000000  0.50000000  0.17892400  1
  Nb  Nb1  1  0.50000000  0.00000000  0.67892400  1
  Co  Co0  1  0.50000000  0.00000000  0.16476900  1
  Co  Co1  1  0.50000000  0.50000000  0.66476900  1
loop_
_geom_bond_atom_site_label_1
_geom_bond_atom_site_label_2
_geom_bond_distance
_geom_bond_site_symmetry_2
Mg0 Mg1 2.884517 1_555
Mg0 Mg1 2.913483 1_545
Mg0 Mg8 2.963618 1_555
Mg0 Mg8 2.963618 1_655
Mg0 Mg5 3.014371 1_655
Mg0 Mg5 3.014371 1_555
Mg0 Nb0 3.079116 1_555
Mg0 Mg4 3.106377 1_655
Mg0 Mg4 3.106377 1_555
Mg0 Nb1 3.125655 1_555
Mg1 Mg9 2.963618 1_555
Mg1 Mg9 2.963618 1_655
Mg1 Mg5 3.014371 1_555
Mg1 Mg5 3.014371 1_655
Mg1 Nb0 3.079116 1_555
Mg1 Mg4 3.106377 1_565
Mg1 Mg4 3.106377 1_665
Mg1 Nb1 3.125655 1_565
Mg2 Mg4 2.846567 1_565
Mg2 Mg3 2.892924 1_555
Mg2 Mg3 2.905076 1_565
Mg2 Mg6 2.963618 1_454
Mg2 Mg6 2.963618 1_554
Mg2 Nb0 2.996509 1_455
Mg2 Nb0 2.996509 1_555
Mg2 Mg5 3.031795 1_555
Mg3 Mg4 2.846567 1_555
Mg3 Mg7 2.963618 1_554
Mg3 Mg7 2.963618 1_454
Mg3 Nb0 2.996509 1_455
Mg3 Nb0 2.996509 1_555
Mg3 Mg5 3.031795 1_555
Mg4 Mg5 2.907067 1_545
Mg4 Mg5 2.907067 1_555
Mg4 Mg8 3.364600 1_555
Mg4 Mg9 3.364600 1_545
Mg5 Nb0 2.905988 1_555
Mg5 Nb0 2.905988 1_455
Mg5 Mg9 3.173344 1_555
Mg5 Mg8 3.173344 1_555
Mg6 Mg7 2.884517 1_565
Mg6 Mg7 2.913483 1_555
Mg6 Nb1 3.079116 1_565
Mg6 Nb0 3.125655 1_556
Mg7 Nb1 3.079116 1_555
Mg7 Nb0 3.125655 1_556
Mg8 Mg9 2.892924 1_545
Mg8 Mg9 2.905076 1_555
Mg8 Nb1 2.996509 1_555
Mg8 Nb1 2.996509 1_455
Mg9 Nb1 2.996509 1_465
Mg9 Nb1 2.996509 1_565
Mg10 Mg9 2.846567 1_555
Mg10 Mg8 2.846567 1_555
Mg10 Mg11 2.907067 1_555
Mg10 Mg11 2.907067 1_565
Mg10 Mg6 3.106377 1_455
Mg10 Mg7 3.106377 1_455
Mg10 Mg6 3.106377 1_555
Mg10 Mg7 3.106377 1_555
Mg10 Mg2 3.364600 1_556
Mg10 Mg3 3.364600 1_556
Mg11 Nb1 2.905988 1_455
Mg11 Nb1 2.905988 1_555
Mg11 Mg7 3.014371 1_455
Mg11 Mg7 3.014371 1_555
Mg11 Mg6 3.014371 1_445
Mg11 Mg6 3.014371 1_545
Mg11 Mg8 3.031795 1_555
Mg11 Mg9 3.031795 1_545
Mg11 Mg3 3.173344 1_556
Mg11 Mg2 3.173344 1_546
Co0 Mg4 2.872269 1_555
Co0 Mg4 2.872269 1_655
Co0 Nb0 2.903157 1_545
Co0 Nb0 2.903157 1_555
Co0 Mg3 2.949203 1_655
Co0 Mg3 2.949203 1_555
Co0 Mg2 2.949203 1_645
Co0 Mg2 2.949203 1_545
Co0 Mg7 2.982093 1_554
Co0 Mg6 2.982093 1_544
Co0 Mg0 3.223673 1_555
Co0 Mg1 3.223673 1_545
Co1 Mg10 2.872269 1_555
Co1 Mg10 2.872269 1_655
Co1 Nb1 2.903157 1_565
Co1 Nb1 2.903157 1_555
Co1 Mg9 2.949203 1_655
Co1 Mg9 2.949203 1_555
Co1 Mg8 2.949203 1_555
Co1 Mg8 2.949203 1_655
Co1 Mg1 2.982093 1_555
Co1 Mg0 2.982093 1_555
Co1 Mg6 3.223673 1_555
Co1 Mg7 3.223673 1_555
