# generated using pymatgen
data_K3Ta2Cu3Se8
_symmetry_space_group_name_H-M   'P 1'
_cell_length_a   5.70841770
_cell_length_b   12.57567119
_cell_length_c   13.94138290
_cell_angle_alpha   68.74007666
_cell_angle_beta   78.18635205
_cell_angle_gamma   76.88168079
_symmetry_Int_Tables_number   1
_chemical_formula_structural   K3Ta2Cu3Se8
_chemical_formula_sum   'K6 Ta4 Cu6 Se16'
_cell_volume   900.05974760
_cell_formula_units_Z   2
loop_
 _symmetry_equiv_pos_site_id
 _symmetry_equiv_pos_as_xyz
  1  'x, y, z'
loop_
 _atom_site_type_symbol
 _atom_site_label
 _atom_site_symmetry_multiplicity
 _atom_site_fract_x
 _atom_site_fract_y
 _atom_site_fract_z
 _atom_site_occupancy
  K  K0  1  0.73285420  0.70996902  0.90469360  1
  K  K1  1  0.34751682  0.79003098  0.59530640  1
  K  K2  1  0.26714580  0.29003098  0.09530640  1
  K  K3  1  0.65248318  0.20996902  0.40469360  1
  K  K4  1  -0.00000000  0.50000000  0.50000000  1
  K  K5  1  -0.00000000  0.00000000  -0.00000000  1
  Ta  Ta0  1  0.15773162  0.47042253  0.77844000  1
  Ta  Ta1  1  0.40659416  0.02957747  0.72156000  1
  Ta  Ta2  1  0.84226838  0.52957747  0.22156000  1
  Ta  Ta3  1  0.59340584  0.97042253  0.27844000  1
  Cu  Cu0  1  0.27552484  0.25000000  0.75000000  1
  Cu  Cu1  1  0.72447516  0.75000000  0.25000000  1
  Cu  Cu2  1  0.90415385  0.03442165  0.72054757  1
  Cu  Cu3  1  0.65912307  0.46557835  0.77945243  1
  Cu  Cu4  1  0.09584615  0.96557835  0.27945243  1
  Cu  Cu5  1  0.34087693  0.53442165  0.22054757  1
  Se  Se0  1  0.95004625  0.30677984  0.87548248  1
  Se  Se1  1  0.13230857  0.19322016  0.62451752  1
  Se  Se2  1  0.04995375  0.69322016  0.12451752  1
  Se  Se3  1  0.86769143  0.80677984  0.37548248  1
  Se  Se4  1  0.48769953  0.41440567  0.65641732  1
  Se  Se5  1  0.55852252  0.08559433  0.84358268  1
  Se  Se6  1  0.51230047  0.58559433  0.34358268  1
  Se  Se7  1  0.44147748  0.91440567  0.15641732  1
  Se  Se8  1  0.87486981  0.62921691  0.68408483  1
  Se  Se9  1  0.18817155  0.87078309  0.81591517  1
  Se  Se10  1  0.12513019  0.37078309  0.31591517  1
  Se  Se11  1  0.81182845  0.12921691  0.18408483  1
  Se  Se12  1  0.74105786  0.96892167  0.60749782  1
  Se  Se13  1  0.31747834  0.53107833  0.89250218  1
  Se  Se14  1  0.25894214  0.03107833  0.39250218  1
  Se  Se15  1  0.68252166  0.46892167  0.10749782  1
loop_
_geom_bond_atom_site_label_1
_geom_bond_atom_site_label_2
_geom_bond_distance
_geom_bond_site_symmetry_2
K0 Se15 3.333589 1_556
K0 Se9 3.410409 1_655
K0 Se8 3.466718 1_555
K0 Se9 3.492219 1_555
K0 Se13 3.586698 1_655
K0 Se13 3.684546 1_555
K0 Se2 3.787254 1_656
K0 Se2 4.432368 1_556
K1 Se14 3.333588 1_565
K1 Se8 3.410409 1_555
K1 Se9 3.466718 1_555
K1 Se8 3.492219 1_455
K1 Se12 3.586693 1_555
K1 Se12 3.684551 1_455
K1 Se3 3.787255 1_555
K1 Se3 4.432368 1_455
K2 Se13 3.333589 1_554
K2 Se11 3.410409 1_455
K2 Se10 3.466718 1_555
K2 Se11 3.492219 1_555
K2 Se15 3.586698 1_455
K2 Se15 3.684546 1_555
K2 Se0 3.787254 1_454
K2 Se0 4.432368 1_554
K3 Se12 3.333588 1_545
K3 Se10 3.410409 1_555
K3 Se11 3.466718 1_555
K3 Se10 3.492219 1_655
K3 Se14 3.586693 1_555
K3 Se14 3.684551 1_655
K3 Se1 3.787255 1_555
K3 Se1 4.432368 1_655
K4 Se8 3.388814 1_455
K4 Se10 3.388814 1_555
K4 Se6 3.403188 1_555
K4 Se4 3.403188 1_455
K4 Se3 3.581229 1_455
K4 Se1 3.581229 1_555
K4 Se6 3.617718 1_455
K4 Se4 3.617718 1_555
K5 Se9 3.388814 1_544
K5 Se11 3.388814 1_455
K5 Se5 3.403188 1_454
K5 Se7 3.403188 1_545
K5 Se2 3.581229 1_545
K5 Se0 3.581229 1_454
K5 Se7 3.617718 1_445
K5 Se5 3.617718 1_554
Cu0 Se4 2.444838 1_555
Cu0 Se5 2.444838 1_555
Cu0 Se1 2.448489 1_555
Cu0 Se0 2.448489 1_455
Cu0 Ta0 2.852178 1_555
Cu0 Ta1 2.852178 1_555
Cu1 Se6 2.444838 1_555
Cu1 Se7 2.444838 1_555
Cu1 Se3 2.448489 1_555
Cu1 Se2 2.448489 1_655
Cu1 Ta2 2.852178 1_555
Cu1 Ta3 2.852178 1_555
Cu2 Se12 2.433040 1_545
Cu2 Se1 2.450390 1_655
Cu2 Se9 2.452567 1_645
Cu2 Se5 2.467290 1_555
Cu2 Ta1 2.851771 1_555
Cu2 Ta1 2.857757 1_655
Cu3 Se13 2.433037 1_555
Cu3 Se0 2.450390 1_555
Cu3 Se8 2.452567 1_555
Cu3 Se4 2.467289 1_555
Cu3 Ta0 2.851771 1_555
Cu3 Ta0 2.857757 1_655
Cu4 Se14 2.433040 1_565
Cu4 Se3 2.450390 1_455
Cu4 Se11 2.452567 1_465
Cu4 Se7 2.467290 1_555
Cu4 Ta3 2.851771 1_555
Cu4 Ta3 2.857757 1_455
Cu5 Se15 2.433037 1_555
Cu5 Se2 2.450390 1_555
Cu5 Se10 2.452567 1_555
Cu5 Se6 2.467289 1_555
Cu5 Ta2 2.851771 1_555
Cu5 Ta2 2.857757 1_455
Se0 Ta0 2.429520 1_655
Se1 Ta1 2.429520 1_555
Se2 Ta2 2.429520 1_455
Se3 Ta3 2.429520 1_555
Se4 Ta0 2.427522 1_555
Se5 Ta1 2.427522 1_555
Se6 Ta2 2.427522 1_555
Se7 Ta3 2.427522 1_555
Se8 Ta0 2.413805 1_655
Se9 Ta1 2.413805 1_565
Se10 Ta2 2.413805 1_455
Se11 Ta3 2.413805 1_545
Se12 Ta1 2.393997 1_565
Se13 Ta0 2.394000 1_555
Se14 Ta3 2.393997 1_545
Se15 Ta2 2.394000 1_555
