# generated using pymatgen
data_Ba2SrMg4F14
_symmetry_space_group_name_H-M   'P 1'
_cell_length_a   12.63162300
_cell_length_b   12.63162300
_cell_length_c   7.57588100
_cell_angle_alpha   90.00000000
_cell_angle_beta   90.00000000
_cell_angle_gamma   90.00000000
_symmetry_Int_Tables_number   1
_chemical_formula_structural   Ba2SrMg4F14
_chemical_formula_sum   'Ba8 Sr4 Mg16 F56'
_cell_volume   1208.79166009
_cell_formula_units_Z   4
loop_
 _symmetry_equiv_pos_site_id
 _symmetry_equiv_pos_as_xyz
  1  'x, y, z'
loop_
 _atom_site_type_symbol
 _atom_site_label
 _atom_site_symmetry_multiplicity
 _atom_site_fract_x
 _atom_site_fract_y
 _atom_site_fract_z
 _atom_site_occupancy
  Ba  Ba0  1  0.52039400  0.18865800  0.50000000  1
  Ba  Ba1  1  0.47960600  0.81134200  0.50000000  1
  Ba  Ba2  1  0.02039400  0.31134200  0.00000000  1
  Ba  Ba3  1  0.97960600  0.68865800  0.00000000  1
  Ba  Ba4  1  0.18865800  0.52039400  0.50000000  1
  Ba  Ba5  1  0.81134200  0.47960600  0.50000000  1
  Ba  Ba6  1  0.31134200  0.02039400  0.00000000  1
  Ba  Ba7  1  0.68865800  0.97960600  0.00000000  1
  Sr  Sr0  1  0.50000000  0.50000000  0.25313500  1
  Sr  Sr1  1  0.00000000  0.00000000  0.75313500  1
  Sr  Sr2  1  0.50000000  0.50000000  0.74686500  1
  Sr  Sr3  1  0.00000000  0.00000000  0.24686500  1
  Mg  Mg0  1  0.79637900  0.20362100  0.25410900  1
  Mg  Mg1  1  0.20362100  0.79637900  0.25410900  1
  Mg  Mg2  1  0.29637900  0.29637900  0.75410900  1
  Mg  Mg3  1  0.70362100  0.70362100  0.75410900  1
  Mg  Mg4  1  0.20362100  0.79637900  0.74589100  1
  Mg  Mg5  1  0.79637900  0.20362100  0.74589100  1
  Mg  Mg6  1  0.70362100  0.70362100  0.24589100  1
  Mg  Mg7  1  0.29637900  0.29637900  0.24589100  1
  Mg  Mg8  1  0.74690900  0.95126600  0.50000000  1
  Mg  Mg9  1  0.25309100  0.04873400  0.50000000  1
  Mg  Mg10  1  0.24690900  0.54873400  0.00000000  1
  Mg  Mg11  1  0.75309100  0.45126600  0.00000000  1
  Mg  Mg12  1  0.95126600  0.74690900  0.50000000  1
  Mg  Mg13  1  0.04873400  0.25309100  0.50000000  1
  Mg  Mg14  1  0.54873400  0.24690900  0.00000000  1
  Mg  Mg15  1  0.45126600  0.75309100  0.00000000  1
  F  F0  1  0.64558400  0.19245500  0.18994600  1
  F  F1  1  0.35441600  0.80754500  0.18994600  1
  F  F2  1  0.14558400  0.30754500  0.68994600  1
  F  F3  1  0.85441600  0.69245500  0.68994600  1
  F  F4  1  0.35441600  0.80754500  0.81005400  1
  F  F5  1  0.64558400  0.19245500  0.81005400  1
  F  F6  1  0.85441600  0.69245500  0.31005400  1
  F  F7  1  0.14558400  0.30754500  0.31005400  1
  F  F8  1  0.19245500  0.64558400  0.18994600  1
  F  F9  1  0.80754500  0.35441600  0.18994600  1
  F  F10  1  0.30754500  0.14558400  0.68994600  1
  F  F11  1  0.69245500  0.85441600  0.68994600  1
  F  F12  1  0.80754500  0.35441600  0.81005400  1
  F  F13  1  0.19245500  0.64558400  0.81005400  1
  F  F14  1  0.69245500  0.85441600  0.31005400  1
  F  F15  1  0.30754500  0.14558400  0.31005400  1
  F  F16  1  0.80085800  0.04580900  0.30212100  1
  F  F17  1  0.19914200  0.95419100  0.30212100  1
  F  F18  1  0.30085800  0.45419100  0.80212100  1
  F  F19  1  0.69914200  0.54580900  0.80212100  1
  F  F20  1  0.19914200  0.95419100  0.69787900  1
  F  F21  1  0.80085800  0.04580900  0.69787900  1
  F  F22  1  0.69914200  0.54580900  0.19787900  1
  F  F23  1  0.30085800  0.45419100  0.19787900  1
  F  F24  1  0.04580900  0.80085800  0.30212100  1
  F  F25  1  0.95419100  0.19914200  0.30212100  1
  F  F26  1  0.45419100  0.30085800  0.80212100  1
  F  F27  1  0.54580900  0.69914200  0.80212100  1
  F  F28  1  0.95419100  0.19914200  0.69787900  1
  F  F29  1  0.04580900  0.80085800  0.69787900  1
  F  F30  1  0.54580900  0.69914200  0.19787900  1
  F  F31  1  0.45419100  0.30085800  0.19787900  1
  F  F32  1  0.60748900  0.01159400  0.50000000  1
  F  F33  1  0.39251100  0.98840600  0.50000000  1
  F  F34  1  0.10748900  0.48840600  0.00000000  1
  F  F35  1  0.89251100  0.51159400  0.00000000  1
  F  F36  1  0.01159400  0.60748900  0.50000000  1
  F  F37  1  0.98840600  0.39251100  0.50000000  1
  F  F38  1  0.48840600  0.10748900  0.00000000  1
  F  F39  1  0.51159400  0.89251100  0.00000000  1
  F  F40  1  0.66372100  0.66372100  0.50000000  1
  F  F41  1  0.33627900  0.33627900  0.50000000  1
  F  F42  1  0.16372100  0.83627900  0.00000000  1
  F  F43  1  0.83627900  0.16372100  0.00000000  1
  F  F44  1  0.90045900  0.90045900  0.50000000  1
  F  F45  1  0.09954100  0.09954100  0.50000000  1
  F  F46  1  0.40045900  0.59954100  0.00000000  1
  F  F47  1  0.59954100  0.40045900  0.00000000  1
  F  F48  1  0.75927000  0.24073000  0.50000000  1
  F  F49  1  0.24073000  0.75927000  0.50000000  1
  F  F50  1  0.25927000  0.25927000  0.00000000  1
  F  F51  1  0.74073000  0.74073000  0.00000000  1
  F  F52  1  0.58391400  0.41608600  0.50000000  1
  F  F53  1  0.41608600  0.58391400  0.50000000  1
  F  F54  1  0.08391400  0.08391400  0.00000000  1
  F  F55  1  0.91608600  0.91608600  0.00000000  1
loop_
_geom_bond_atom_site_label_1
_geom_bond_atom_site_label_2
_geom_bond_distance
_geom_bond_site_symmetry_2
Ba0 F32 2.492536 1_555
Ba0 F31 2.818993 1_555
Ba0 F26 2.818993 1_555
Ba0 F5 2.832042 1_555
Ba0 F0 2.832042 1_555
Ba0 F41 2.980910 1_555
Ba0 F52 2.982729 1_555
Ba0 F33 3.001305 1_545
Ba0 F48 3.088251 1_555
Ba0 F10 3.097661 1_555
Ba0 F15 3.097661 1_555
Ba1 F33 2.492536 1_555
Ba1 F27 2.818993 1_555
Ba1 F30 2.818993 1_555
Ba1 F4 2.832042 1_555
Ba1 F1 2.832042 1_555
Ba1 F40 2.980910 1_555
Ba1 F53 2.982729 1_555
Ba1 F32 3.001305 1_565
Ba1 F49 3.088251 1_555
Ba1 F11 3.097661 1_555
Ba1 F14 3.097661 1_555
Ba2 F34 2.492536 1_555
Ba2 F25 2.818993 1_455
Ba2 F28 2.818993 1_454
Ba2 F7 2.832042 1_555
Ba2 F2 2.832042 1_554
Ba2 F43 2.980910 1_455
Ba2 F54 2.982729 1_555
Ba2 F35 3.001305 1_455
Ba2 F50 3.088251 1_555
Ba2 F9 3.097661 1_455
Ba2 F12 3.097661 1_454
Ba3 F35 2.492536 1_555
Ba3 F24 2.818993 1_655
Ba3 F29 2.818993 1_654
Ba3 F6 2.832042 1_555
Ba3 F3 2.832042 1_554
Ba3 F42 2.980910 1_655
Ba3 F55 2.982729 1_555
Ba3 F34 3.001305 1_655
Ba3 F51 3.088251 1_555
Ba3 F8 3.097661 1_655
Ba3 F13 3.097661 1_654
Ba4 F36 2.492536 1_555
Ba4 F18 2.818993 1_555
Ba4 F23 2.818993 1_555
Ba4 F13 2.832042 1_555
Ba4 F8 2.832042 1_555
Ba4 F41 2.980910 1_555
Ba4 F53 2.982729 1_555
Ba4 F37 3.001305 1_455
Ba4 F49 3.088251 1_555
Ba4 F7 3.097661 1_555
Ba4 F2 3.097661 1_555
Ba5 F37 2.492536 1_555
Ba5 F22 2.818993 1_555
Ba5 F19 2.818993 1_555
Ba5 F12 2.832042 1_555
Ba5 F9 2.832042 1_555
Ba5 F40 2.980910 1_555
Ba5 F52 2.982729 1_555
Ba5 F36 3.001305 1_655
Ba5 F48 3.088251 1_555
Ba5 F3 3.097661 1_555
Ba5 F6 3.097661 1_555
Ba6 F38 2.492536 1_555
Ba6 F17 2.818993 1_545
Ba6 F20 2.818993 1_544
Ba6 F15 2.832042 1_555
Ba6 F10 2.832042 1_554
Ba6 F42 2.980910 1_545
Ba6 F54 2.982729 1_555
Ba6 F39 3.001305 1_545
Ba6 F50 3.088251 1_555
Ba6 F1 3.097661 1_545
Ba6 F4 3.097661 1_544
Ba7 F39 2.492536 1_555
Ba7 F16 2.818993 1_565
Ba7 F21 2.818993 1_564
Ba7 F14 2.832042 1_555
Ba7 F11 2.832042 1_554
Ba7 F43 2.980910 1_565
Ba7 F55 2.982729 1_555
Ba7 F38 3.001305 1_565
Ba7 F51 3.088251 1_555
Ba7 F0 3.097661 1_565
Ba7 F5 3.097661 1_564
F0 Mg0 1.970885 1_555
F0 Mg14 2.010103 1_555
F0 F38 2.676657 1_555
F0 F31 2.779104 1_555
F0 F16 2.828506 1_555
F0 F43 2.829265 1_555
F1 Mg1 1.970885 1_555
F1 Mg15 2.010103 1_555
F1 F39 2.676657 1_555
F1 F30 2.779104 1_555
F1 F17 2.828506 1_555
F1 F42 2.829265 1_555
F2 Mg2 1.970885 1_555
F2 Mg13 2.010103 1_555
F2 F37 2.676657 1_455
F2 F28 2.779104 1_455
F2 F41 2.829265 1_555
F3 Mg3 1.970885 1_555
F3 Mg12 2.010103 1_555
F3 F36 2.676657 1_655
F3 F40 2.829265 1_555
F4 Mg4 1.970885 1_555
F4 Mg15 2.010103 1_556
F4 F42 2.829265 1_556
F5 Mg5 1.970885 1_555
F5 Mg14 2.010103 1_556
F6 Mg6 1.970885 1_555
F6 Mg12 2.010103 1_555
F7 Mg7 1.970885 1_555
F7 Mg13 2.010103 1_555
F8 Mg1 1.970885 1_555
F8 Mg10 2.010103 1_555
F9 Mg0 1.970885 1_555
F9 Mg11 2.010103 1_555
F10 Mg2 1.970885 1_555
F10 Mg9 2.010103 1_555
F10 F33 2.676657 1_545
F10 F20 2.779104 1_545
F10 F26 2.828506 1_555
F10 F41 2.829265 1_555
F11 Mg3 1.970885 1_555
F11 Mg8 2.010103 1_555
F11 F32 2.676657 1_565
F11 F21 2.779104 1_565
F11 F27 2.828506 1_555
F11 F40 2.829265 1_555
F12 Mg5 1.970885 1_555
F12 Mg11 2.010103 1_556
F12 F35 2.676657 1_556
F12 F19 2.779104 1_555
F12 F28 2.828506 1_555
F12 F43 2.829265 1_556
F13 Mg4 1.970885 1_555
F13 Mg10 2.010103 1_556
F13 F34 2.676657 1_556
F13 F18 2.779104 1_555
F13 F29 2.828506 1_555
F13 F42 2.829265 1_556
F14 Mg6 1.970885 1_555
F14 Mg8 2.010103 1_555
F14 F32 2.676657 1_565
F14 F16 2.779104 1_565
F14 F30 2.828506 1_555
F14 F40 2.829265 1_555
F15 Mg7 1.970885 1_555
F15 Mg9 2.010103 1_555
F15 F33 2.676657 1_545
F15 F17 2.779104 1_545
F15 F31 2.828506 1_555
F15 F41 2.829265 1_555
F16 Mg0 2.027124 1_555
F16 Mg8 2.034184 1_545
F16 Sr3 2.614907 1_655
F16 F44 2.683489 1_545
F16 F25 2.739112 1_555
F16 F43 2.767186 1_555
F16 F55 3.168964 1_545
F17 Mg1 2.027124 1_555
F17 Mg9 2.034184 1_565
F17 Sr3 2.614907 1_565
F17 F45 2.683489 1_565
F17 F24 2.739112 1_555
F17 F42 2.767186 1_555
F17 F54 3.168964 1_565
F18 Mg2 2.027124 1_555
F18 Mg10 2.034184 1_556
F18 Sr2 2.614907 1_555
F18 F46 2.683489 1_556
F18 F26 2.739112 1_555
F18 F41 2.767186 1_555
F18 F2 2.828506 1_555
F18 F53 3.168964 1_555
F19 Mg3 2.027124 1_555
F19 Mg11 2.034184 1_556
F19 Sr2 2.614907 1_555
F19 F47 2.683489 1_556
F19 F27 2.739112 1_555
F19 F40 2.767186 1_555
F19 F3 2.828506 1_555
F19 F52 3.168964 1_555
F20 Mg4 2.027124 1_555
F20 Mg9 2.034184 1_565
F20 Sr1 2.614907 1_565
F20 F45 2.683489 1_565
F20 F29 2.739112 1_555
F20 F42 2.767186 1_556
F20 F4 2.828506 1_555
F20 F54 3.168964 1_566
F21 Mg5 2.027124 1_555
F21 Mg8 2.034184 1_545
F21 Sr1 2.614907 1_655
F21 F44 2.683489 1_545
F21 F28 2.739112 1_555
F21 F43 2.767186 1_556
F21 F5 2.828506 1_555
F21 F55 3.168964 1_546
F22 Mg6 2.027124 1_555
F22 Mg11 2.034184 1_555
F22 Sr0 2.614907 1_555
F22 F47 2.683489 1_555
F22 F30 2.739112 1_555
F22 F40 2.767186 1_555
F22 F9 2.779104 1_555
F22 F6 2.828506 1_555
F22 F52 3.168964 1_555
F23 Mg7 2.027124 1_555
F23 Mg10 2.034184 1_555
F23 Sr0 2.614907 1_555
F23 F46 2.683489 1_555
F23 F31 2.739112 1_555
F23 F41 2.767186 1_555
F23 F8 2.779104 1_555
F23 F7 2.828506 1_555
F23 F53 3.168964 1_555
F24 Mg1 2.027124 1_555
F24 Mg12 2.034184 1_455
F24 Sr3 2.614907 1_565
F24 F44 2.683489 1_455
F24 F42 2.767186 1_555
F24 F6 2.779104 1_455
F24 F8 2.828506 1_555
F24 F55 3.168964 1_455
F25 Mg0 2.027124 1_555
F25 Mg13 2.034184 1_655
F25 Sr3 2.614907 1_655
F25 F45 2.683489 1_655
F25 F43 2.767186 1_555
F25 F7 2.779104 1_655
F25 F9 2.828506 1_555
F25 F54 3.168964 1_655
F26 Mg2 2.027124 1_555
F26 Mg14 2.034184 1_556
F26 Sr2 2.614907 1_555
F26 F47 2.683489 1_556
F26 F41 2.767186 1_555
F26 F5 2.779104 1_555
F26 F52 3.168964 1_555
F27 Mg3 2.027124 1_555
F27 Mg15 2.034184 1_556
F27 Sr2 2.614907 1_555
F27 F46 2.683489 1_556
F27 F40 2.767186 1_555
F27 F4 2.779104 1_555
F27 F53 3.168964 1_555
F28 Mg5 2.027124 1_555
F28 Mg13 2.034184 1_655
F28 Sr1 2.614907 1_655
F28 F45 2.683489 1_655
F28 F43 2.767186 1_556
F28 F54 3.168964 1_656
F29 Mg4 2.027124 1_555
F29 Mg12 2.034184 1_455
F29 Sr1 2.614907 1_565
F29 F44 2.683489 1_455
F29 F42 2.767186 1_556
F29 F3 2.779104 1_455
F29 F55 3.168964 1_456
F30 Mg6 2.027124 1_555
F30 Mg15 2.034184 1_555
F30 Sr0 2.614907 1_555
F30 F46 2.683489 1_555
F30 F40 2.767186 1_555
F30 F53 3.168964 1_555
F31 Mg7 2.027124 1_555
F31 Mg14 2.034184 1_555
F31 Sr0 2.614907 1_555
F31 F47 2.683489 1_555
F31 F41 2.767186 1_555
F31 F52 3.168964 1_555
F32 Mg8 1.918901 1_545
F33 Mg9 1.918901 1_565
F34 Mg10 1.918901 1_555
F34 F8 2.676657 1_555
F35 Mg11 1.918901 1_555
F35 F9 2.676657 1_555
F36 Mg12 1.918901 1_455
F36 F6 2.676657 1_455
F37 Mg13 1.918901 1_655
F37 F7 2.676657 1_655
F38 Mg14 1.918901 1_555
F38 F5 2.676657 1_554
F39 Mg15 1.918901 1_555
F39 F4 2.676657 1_554
F40 Mg3 2.052814 1_555
F40 Mg6 2.052814 1_555
F40 F6 2.829265 1_555
F40 F53 3.286462 1_555
F40 F52 3.286462 1_555
F41 Mg2 2.052814 1_555
F41 Mg7 2.052814 1_555
F41 F7 2.829265 1_555
F41 F52 3.286462 1_555
F41 F53 3.286462 1_555
F42 Mg1 2.052814 1_555
F42 Mg4 2.052814 1_554
F42 F8 2.829265 1_555
F42 F55 3.286462 1_455
F42 F54 3.286462 1_565
F43 Mg0 2.052814 1_555
F43 Mg5 2.052814 1_554
F43 F9 2.829265 1_555
F43 F5 2.829265 1_554
F43 F54 3.286462 1_655
F43 F55 3.286462 1_545
F44 Mg8 2.043005 1_555
F44 Mg12 2.043005 1_555
F44 Sr1 2.615260 1_665
F44 Sr3 2.615260 1_665
F45 Mg9 2.043005 1_555
F45 Mg13 2.043005 1_555
F45 Sr1 2.615260 1_555
F45 Sr3 2.615260 1_555
F46 Mg15 2.043005 1_555
F46 Mg10 2.043005 1_555
F46 Sr0 2.615260 1_555
F46 Sr2 2.615260 1_554
F47 Mg11 2.043005 1_555
F47 Mg14 2.043005 1_555
F47 Sr0 2.615260 1_555
F47 Sr2 2.615260 1_554
F48 Mg5 1.977277 1_555
F48 Mg0 1.977277 1_555
F48 F52 3.132527 1_555
F49 Mg4 1.977277 1_555
F49 Mg1 1.977277 1_555
F49 F53 3.132527 1_555
F50 Mg7 1.977277 1_555
F50 Mg2 1.977277 1_554
F50 F54 3.132527 1_555
F51 Mg6 1.977277 1_555
F51 Mg3 1.977277 1_554
F51 F55 3.132527 1_555
F52 Sr2 2.396830 1_555
F52 Sr0 2.396830 1_555
F53 Sr2 2.396830 1_555
F53 Sr0 2.396830 1_555
F54 Sr3 2.396830 1_555
F54 Sr1 2.396830 1_554
F55 Sr3 2.396830 1_665
F55 Sr1 2.396830 1_664
