# generated using pymatgen
data_Ba3Np
_symmetry_space_group_name_H-M   'P 1'
_cell_length_a   6.81093171
_cell_length_b   6.81093171
_cell_length_c   6.81093171
_cell_angle_alpha   60.00000000
_cell_angle_beta   60.00000000
_cell_angle_gamma   60.00000000
_symmetry_Int_Tables_number   1
_chemical_formula_structural   Ba3Np
_chemical_formula_sum   'Ba3 Np1'
_cell_volume   223.41101422
_cell_formula_units_Z   1
loop_
 _symmetry_equiv_pos_site_id
 _symmetry_equiv_pos_as_xyz
  1  'x, y, z'
loop_
 _atom_site_type_symbol
 _atom_site_label
 _atom_site_symmetry_multiplicity
 _atom_site_fract_x
 _atom_site_fract_y
 _atom_site_fract_z
 _atom_site_occupancy
  Ba  Ba0  1  0.25000000  0.25000000  0.25000000  1
  Ba  Ba1  1  0.75000000  0.75000000  0.75000000  1
  Ba  Ba2  1  0.50000000  0.50000000  0.50000000  1
  Np  Np0  1  0.00000000  0.00000000  0.00000000  1
loop_
_geom_bond_atom_site_label_1
_geom_bond_atom_site_label_2
_geom_bond_distance
_geom_bond_site_symmetry_2
Ba0 Ba2 4.170827 1_455
Ba0 Np0 4.170827 1_565
Ba0 Np0 4.170827 1_555
Ba0 Ba2 4.170827 1_554
Ba0 Np0 4.170827 1_655
Ba0 Ba2 4.170827 1_555
Ba0 Np0 4.170827 1_556
Ba0 Ba2 4.170827 1_545
Ba0 Ba1 4.816056 1_455
Ba0 Ba1 4.816056 1_454
Ba0 Ba1 4.816056 1_554
Ba0 Ba1 4.816056 1_544
Ba0 Ba1 4.816056 1_445
Ba0 Ba1 4.816056 1_545
Ba1 Np0 4.170827 1_666
Ba1 Ba2 4.170827 1_655
Ba1 Np0 4.170827 1_566
Ba1 Ba2 4.170827 1_556
Ba1 Ba2 4.170827 1_555
Ba1 Np0 4.170827 1_656
Ba1 Np0 4.170827 1_665
Ba1 Ba2 4.170827 1_565
Ba2 Np0 4.816056 1_656
Ba2 Np0 4.816056 1_665
Ba2 Np0 4.816056 1_565
Ba2 Np0 4.816056 1_566
Ba2 Np0 4.816056 1_655
Ba2 Np0 4.816056 1_556
