# generated using pymatgen
data_ScAlN2
_symmetry_space_group_name_H-M   'P 1'
_cell_length_a   4.39823000
_cell_length_b   4.39970600
_cell_length_c   5.22531131
_cell_angle_alpha   114.89770076
_cell_angle_beta   114.88876820
_cell_angle_gamma   90.00000000
_symmetry_Int_Tables_number   1
_chemical_formula_structural   ScAlN2
_chemical_formula_sum   'Sc2 Al2 N4'
_cell_volume   81.24718422
_cell_formula_units_Z   2
loop_
 _symmetry_equiv_pos_site_id
 _symmetry_equiv_pos_as_xyz
  1  'x, y, z'
loop_
 _atom_site_type_symbol
 _atom_site_label
 _atom_site_symmetry_multiplicity
 _atom_site_fract_x
 _atom_site_fract_y
 _atom_site_fract_z
 _atom_site_occupancy
  Sc  Sc0  1  0.62498900  0.87498900  0.74997800  1
  Sc  Sc1  1  0.37501100  0.12501100  0.25002200  1
  Al  Al0  1  0.12501500  0.37501500  0.75003200  1
  Al  Al1  1  0.87498500  0.62498500  0.24996800  1
  N  N0  1  0.36251400  0.61251400  0.22502800  1
  N  N1  1  0.63748600  0.38748600  0.77497200  1
  N  N2  1  0.88747600  0.13747600  0.27495200  1
  N  N3  1  0.11252400  0.86252400  0.72504800  1
loop_
_geom_bond_atom_site_label_1
_geom_bond_atom_site_label_2
_geom_bond_distance
_geom_bond_site_symmetry_2
Al0 N0 1.994328 1_556
Al0 N2 1.994681 1_455
Al0 N1 2.201602 1_455
Al0 N1 2.201611 1_555
Al0 N3 2.202348 1_545
Al0 N3 2.202357 1_555
Al1 N1 1.994328 1_554
Al1 N3 1.994681 1_655
Al1 N0 2.201602 1_655
Al1 N0 2.201611 1_555
Al1 N2 2.202348 1_565
Al1 N2 2.202357 1_555
N0 Sc1 2.202355 1_565
N0 Sc1 2.202355 1_555
N0 Sc0 2.204066 1_555
N1 Sc0 2.202355 1_555
N1 Sc0 2.202355 1_545
N1 Sc1 2.204066 1_555
N2 Sc1 2.201605 1_655
N2 Sc1 2.201605 1_555
N2 Sc0 2.204167 1_544
N3 Sc0 2.201605 1_455
N3 Sc0 2.201605 1_555
N3 Sc1 2.204167 1_566
