# generated using pymatgen
data_LiAlAg2
_symmetry_space_group_name_H-M   'P 1'
_cell_length_a   4.43998561
_cell_length_b   4.43998639
_cell_length_c   4.43998542
_cell_angle_alpha   60.00000726
_cell_angle_beta   60.00000144
_cell_angle_gamma   60.00001108
_symmetry_Int_Tables_number   1
_chemical_formula_structural   LiAlAg2
_chemical_formula_sum   'Li1 Al1 Ag2'
_cell_volume   61.89132970
_cell_formula_units_Z   1
loop_
 _symmetry_equiv_pos_site_id
 _symmetry_equiv_pos_as_xyz
  1  'x, y, z'
loop_
 _atom_site_type_symbol
 _atom_site_label
 _atom_site_symmetry_multiplicity
 _atom_site_fract_x
 _atom_site_fract_y
 _atom_site_fract_z
 _atom_site_occupancy
  Li  Li0  1  0.75000000  0.75000000  0.75000000  1
  Al  Al0  1  0.25000000  0.25000000  0.25000000  1
  Ag  Ag0  1  0.50000000  0.50000000  0.50000000  1
  Ag  Ag1  1  0.00000000  -0.00000000  0.00000000  1
loop_
_geom_bond_atom_site_label_1
_geom_bond_atom_site_label_2
_geom_bond_distance
_geom_bond_site_symmetry_2
Al0 Li0 3.139544 1_554
Al0 Li0 3.139544 1_445
Al0 Li0 3.139544 1_544
Al0 Li0 3.139544 1_545
Al0 Li0 3.139544 1_455
Al0 Li0 3.139544 1_454
Ag0 Li0 2.718925 1_555
Ag0 Li0 2.718925 1_554
Ag0 Al0 2.718925 1_555
Ag0 Al0 2.718925 1_556
Ag0 Al0 2.718925 1_655
Ag0 Li0 2.718925 1_455
Ag0 Li0 2.718926 1_545
Ag0 Al0 2.718926 1_565
Ag0 Ag1 3.139544 1_556
Ag0 Ag1 3.139544 1_665
Ag0 Ag1 3.139544 1_565
Ag0 Ag1 3.139544 1_655
Ag0 Ag1 3.139544 1_656
Ag0 Ag1 3.139544 1_566
Ag1 Al0 2.718925 1_555
Ag1 Li0 2.718925 1_444
Ag1 Li0 2.718925 1_445
Ag1 Al0 2.718925 1_554
Ag1 Li0 2.718925 1_544
Ag1 Al0 2.718925 1_455
Ag1 Li0 2.718926 1_454
Ag1 Al0 2.718926 1_545
