# generated using pymatgen
data_BiB12H11O3
_symmetry_space_group_name_H-M   'P 1'
_cell_length_a   9.33957800
_cell_length_b   10.59568800
_cell_length_c   14.48038400
_cell_angle_alpha   90.00000000
_cell_angle_beta   90.00000000
_cell_angle_gamma   90.00000000
_symmetry_Int_Tables_number   1
_chemical_formula_structural   BiB12H11O3
_chemical_formula_sum   'Bi4 B48 H44 O12'
_cell_volume   1432.96800609
_cell_formula_units_Z   4
loop_
 _symmetry_equiv_pos_site_id
 _symmetry_equiv_pos_as_xyz
  1  'x, y, z'
loop_
 _atom_site_type_symbol
 _atom_site_label
 _atom_site_symmetry_multiplicity
 _atom_site_fract_x
 _atom_site_fract_y
 _atom_site_fract_z
 _atom_site_occupancy
  Bi  Bi0  1  0.25000000  0.45347600  0.72092400  1
  Bi  Bi1  1  0.25000000  0.04652400  0.22092400  1
  Bi  Bi2  1  0.75000000  0.54652400  0.27907600  1
  Bi  Bi3  1  0.75000000  0.95347600  0.77907600  1
  B  B0  1  0.25000000  0.66226900  0.80471200  1
  B  B1  1  0.25000000  0.83773100  0.30471200  1
  B  B2  1  0.75000000  0.33773100  0.19528800  1
  B  B3  1  0.75000000  0.16226900  0.69528800  1
  B  B4  1  0.15179700  0.74526800  0.72430500  1
  B  B5  1  0.34820300  0.75473200  0.22430500  1
  B  B6  1  0.65179700  0.25473200  0.27569500  1
  B  B7  1  0.84820300  0.24526800  0.77569500  1
  B  B8  1  0.84820300  0.25473200  0.27569500  1
  B  B9  1  0.65179700  0.24526800  0.77569500  1
  B  B10  1  0.34820300  0.74526800  0.72430500  1
  B  B11  1  0.15179700  0.75473200  0.22430500  1
  B  B12  1  0.09132300  0.72334900  0.84404100  1
  B  B13  1  0.40867700  0.77665100  0.34404100  1
  B  B14  1  0.59132300  0.27665100  0.15595900  1
  B  B15  1  0.90867700  0.22334900  0.65595900  1
  B  B16  1  0.90867700  0.27665100  0.15595900  1
  B  B17  1  0.59132300  0.22334900  0.65595900  1
  B  B18  1  0.40867700  0.72334900  0.84404100  1
  B  B19  1  0.09132300  0.77665100  0.34404100  1
  B  B20  1  0.25000000  0.71005400  0.91740300  1
  B  B21  1  0.25000000  0.78994600  0.41740300  1
  B  B22  1  0.75000000  0.28994600  0.08259700  1
  B  B23  1  0.75000000  0.21005400  0.58259700  1
  B  B24  1  0.15348400  0.85553200  0.90986800  1
  B  B25  1  0.34651600  0.64446800  0.40986800  1
  B  B26  1  0.65348400  0.14446800  0.09013200  1
  B  B27  1  0.84651600  0.35553200  0.59013200  1
  B  B28  1  0.84651600  0.14446800  0.09013200  1
  B  B29  1  0.65348400  0.35553200  0.59013200  1
  B  B30  1  0.34651600  0.85553200  0.90986800  1
  B  B31  1  0.15348400  0.64446800  0.40986800  1
  B  B32  1  0.09792100  0.87511800  0.79289400  1
  B  B33  1  0.40207900  0.62488200  0.29289400  1
  B  B34  1  0.59792100  0.12488200  0.20710600  1
  B  B35  1  0.90207900  0.37511800  0.70710600  1
  B  B36  1  0.90207900  0.12488200  0.20710600  1
  B  B37  1  0.59792100  0.37511800  0.70710600  1
  B  B38  1  0.40207900  0.87511800  0.79289400  1
  B  B39  1  0.09792100  0.62488200  0.29289400  1
  B  B40  1  0.25000000  0.89019500  0.71905800  1
  B  B41  1  0.25000000  0.60980500  0.21905800  1
  B  B42  1  0.75000000  0.10980500  0.28094200  1
  B  B43  1  0.75000000  0.39019500  0.78094200  1
  B  B44  1  0.25000000  0.95600000  0.83313900  1
  B  B45  1  0.25000000  0.54400000  0.33313900  1
  B  B46  1  0.75000000  0.04400000  0.16686100  1
  B  B47  1  0.75000000  0.45600000  0.66686100  1
  H  H0  1  0.08549200  0.70319400  0.66050200  1
  H  H1  1  0.41450800  0.79680600  0.16050200  1
  H  H2  1  0.58549200  0.29680600  0.33949800  1
  H  H3  1  0.91450800  0.20319400  0.83949800  1
  H  H4  1  0.91450800  0.29680600  0.33949800  1
  H  H5  1  0.58549200  0.20319400  0.83949800  1
  H  H6  1  0.41450800  0.70319400  0.66050200  1
  H  H7  1  0.08549200  0.79680600  0.16050200  1
  H  H8  1  0.98436300  0.66610600  0.86035000  1
  H  H9  1  0.51563700  0.83389400  0.36035000  1
  H  H10  1  0.48436300  0.33389400  0.13965000  1
  H  H11  1  0.01563700  0.16610600  0.63965000  1
  H  H12  1  0.01563700  0.33389400  0.13965000  1
  H  H13  1  0.48436300  0.16610600  0.63965000  1
  H  H14  1  0.51563700  0.66610600  0.86035000  1
  H  H15  1  0.98436300  0.83389400  0.36035000  1
  H  H16  1  0.25000000  0.64290000  0.98333900  1
  H  H17  1  0.25000000  0.85710000  0.48333900  1
  H  H18  1  0.75000000  0.35710000  0.01666100  1
  H  H19  1  0.75000000  0.14290000  0.51666100  1
  H  H20  1  0.08454500  0.89368200  0.97340100  1
  H  H21  1  0.41545500  0.60631800  0.47340100  1
  H  H22  1  0.58454500  0.10631800  0.02659900  1
  H  H23  1  0.91545500  0.39368200  0.52659900  1
  H  H24  1  0.91545500  0.10631800  0.02659900  1
  H  H25  1  0.58454500  0.39368200  0.52659900  1
  H  H26  1  0.41545500  0.89368200  0.97340100  1
  H  H27  1  0.08454500  0.60631800  0.47340100  1
  H  H28  1  0.99129500  0.93611400  0.77060400  1
  H  H29  1  0.50870500  0.56388600  0.27060400  1
  H  H30  1  0.49129500  0.06388600  0.22939600  1
  H  H31  1  0.00870500  0.43611400  0.72939600  1
  H  H32  1  0.00870500  0.06388600  0.22939600  1
  H  H33  1  0.49129500  0.43611400  0.72939600  1
  H  H34  1  0.50870500  0.93611400  0.77060400  1
  H  H35  1  0.99129500  0.56388600  0.27060400  1
  H  H36  1  0.25000000  0.95243900  0.65054300  1
  H  H37  1  0.25000000  0.54756100  0.15054300  1
  H  H38  1  0.75000000  0.04756100  0.34945700  1
  H  H39  1  0.75000000  0.45243900  0.84945700  1
  H  H40  1  0.25000000  0.06829600  0.84245500  1
  H  H41  1  0.25000000  0.43170400  0.34245500  1
  H  H42  1  0.75000000  0.93170400  0.15754500  1
  H  H43  1  0.75000000  0.56829600  0.65754500  1
  O  O0  1  0.25000000  0.36480900  0.60630600  1
  O  O1  1  0.25000000  0.13519100  0.10630600  1
  O  O2  1  0.75000000  0.63519100  0.39369400  1
  O  O3  1  0.75000000  0.86480900  0.89369400  1
  O  O4  1  0.18398400  0.34488400  0.94164800  1
  O  O5  1  0.31601600  0.15511600  0.44164800  1
  O  O6  1  0.68398400  0.65511600  0.05835200  1
  O  O7  1  0.81601600  0.84488400  0.55835200  1
  O  O8  1  0.81601600  0.65511600  0.05835200  1
  O  O9  1  0.68398400  0.84488400  0.55835200  1
  O  O10  1  0.31601600  0.34488400  0.94164800  1
  O  O11  1  0.18398400  0.15511600  0.44164800  1
loop_
_geom_bond_atom_site_label_1
_geom_bond_atom_site_label_2
_geom_bond_distance
_geom_bond_site_symmetry_2
Bi0 O0 1.907166 1_555
Bi0 H33 2.264415 1_555
Bi0 H31 2.264415 1_555
Bi1 O1 1.907166 1_555
Bi1 H30 2.264415 1_555
Bi1 H32 2.264415 1_555
Bi2 O2 1.907166 1_555
Bi2 H35 2.264415 1_555
Bi2 H29 2.264415 1_555
Bi3 O3 1.907166 1_555
Bi3 H28 2.264415 1_555
Bi3 H34 2.264415 1_555
B0 B20 1.708554 1_555
B0 B18 1.714477 1_555
B0 B12 1.714477 1_555
B0 B10 1.723444 1_555
B0 B4 1.723444 1_555
B0 Bi0 2.523163 1_555
B1 B21 1.708554 1_555
B1 B13 1.714477 1_555
B1 B19 1.714477 1_555
B1 B5 1.723444 1_555
B1 B11 1.723444 1_555
B1 Bi1 2.523163 1_565
B2 B22 1.708554 1_555
B2 B8 1.723444 1_555
B2 B6 1.723444 1_555
B2 Bi2 2.523163 1_555
B3 B7 1.723444 1_555
B3 B9 1.723444 1_555
B3 Bi3 2.523163 1_545
B4 H0 1.198249 1_555
B5 H1 1.198249 1_555
B6 H2 1.198249 1_555
B7 H3 1.198249 1_555
B8 H4 1.198249 1_555
B9 H5 1.198249 1_555
B10 H6 1.198249 1_555
B11 H7 1.198249 1_555
B12 H8 1.192297 1_455
B13 H9 1.192297 1_555
B14 H10 1.192297 1_555
B14 B2 1.714477 1_555
B15 H11 1.192297 1_655
B15 B3 1.714477 1_555
B16 H12 1.192297 1_655
B16 B2 1.714477 1_555
B17 H13 1.192297 1_555
B17 B3 1.714477 1_555
B18 H14 1.192297 1_555
B19 H15 1.192297 1_455
B20 H16 1.190754 1_555
B21 H17 1.190754 1_555
B22 H18 1.190754 1_555
B23 H19 1.190754 1_555
B23 B3 1.708554 1_555
B24 H20 1.193450 1_555
B25 H21 1.193450 1_555
B26 H22 1.193450 1_555
B27 H23 1.193450 1_555
B28 H24 1.193450 1_555
B29 H25 1.193450 1_555
B30 H26 1.193450 1_555
B31 H27 1.193450 1_555
B32 H28 1.230275 1_455
B33 H29 1.230275 1_555
B34 H30 1.230275 1_555
B35 H31 1.230275 1_655
B36 H32 1.230275 1_655
B37 H33 1.230275 1_555
B38 H34 1.230275 1_555
B39 H35 1.230275 1_455
B40 H36 1.191332 1_555
B41 H37 1.191332 1_555
B42 H38 1.191332 1_555
B43 H39 1.191332 1_555
B44 H40 1.197476 1_565
B45 H41 1.197476 1_555
B46 H42 1.197476 1_545
B47 H43 1.197476 1_555
O6 O8 1.233123 1_555
O7 O9 1.233123 1_555
O10 O4 1.233123 1_555
O11 O5 1.233123 1_555
