# generated using pymatgen
data_CuAg2(PO3)4
_symmetry_space_group_name_H-M   'P 1'
_cell_length_a   8.31543590
_cell_length_b   8.31543590
_cell_length_c   7.96632872
_cell_angle_alpha   86.79828941
_cell_angle_beta   86.79828941
_cell_angle_gamma   109.40646743
_symmetry_Int_Tables_number   1
_chemical_formula_structural   CuAg2(PO3)4
_chemical_formula_sum   'Cu2 Ag4 P8 O24'
_cell_volume   517.11464815
_cell_formula_units_Z   2
loop_
 _symmetry_equiv_pos_site_id
 _symmetry_equiv_pos_as_xyz
  1  'x, y, z'
loop_
 _atom_site_type_symbol
 _atom_site_label
 _atom_site_symmetry_multiplicity
 _atom_site_fract_x
 _atom_site_fract_y
 _atom_site_fract_z
 _atom_site_occupancy
  Cu  Cu0  1  0.63644700  0.36355300  0.75000000  1
  Cu  Cu1  1  0.36355300  0.63644700  0.25000000  1
  Ag  Ag0  1  0.31431700  0.02529200  0.81022500  1
  Ag  Ag1  1  0.68568300  0.97470800  0.18977500  1
  Ag  Ag2  1  0.97470800  0.68568300  0.68977500  1
  Ag  Ag3  1  0.02529200  0.31431700  0.31022500  1
  P  P0  1  0.56206700  0.71041700  0.82392400  1
  P  P1  1  0.43793300  0.28958300  0.17607600  1
  P  P2  1  0.28958300  0.43793300  0.67607600  1
  P  P3  1  0.71041700  0.56206700  0.32392400  1
  P  P4  1  0.73958600  0.05008800  0.62796600  1
  P  P5  1  0.26041400  0.94991200  0.37203400  1
  P  P6  1  0.94991200  0.26041400  0.87203400  1
  P  P7  1  0.05008800  0.73958600  0.12796600  1
  O  O0  1  0.18871500  0.91824300  0.55189600  1
  O  O1  1  0.81128500  0.08175700  0.44810400  1
  O  O2  1  0.08175700  0.81128500  0.94810400  1
  O  O3  1  0.91824300  0.18871500  0.05189600  1
  O  O4  1  0.37904900  0.62095100  0.75000000  1
  O  O5  1  0.62095100  0.37904900  0.25000000  1
  O  O6  1  0.41629600  0.34335400  0.65902900  1
  O  O7  1  0.58370400  0.65664600  0.34097100  1
  O  O8  1  0.65664600  0.58370400  0.84097100  1
  O  O9  1  0.34335400  0.41629600  0.15902900  1
  O  O10  1  0.66375800  0.84684500  0.66704300  1
  O  O11  1  0.33624200  0.15315500  0.33295700  1
  O  O12  1  0.15315500  0.33624200  0.83295700  1
  O  O13  1  0.84684500  0.66375800  0.16704300  1
  O  O14  1  0.89561200  0.10438800  0.75000000  1
  O  O15  1  0.10438800  0.89561200  0.25000000  1
  O  O16  1  0.53457000  0.80135600  0.97323500  1
  O  O17  1  0.46543000  0.19864400  0.02676500  1
  O  O18  1  0.19864400  0.46543000  0.52676500  1
  O  O19  1  0.80135600  0.53457000  0.47323500  1
  O  O20  1  0.60677000  0.12929800  0.68343500  1
  O  O21  1  0.39323000  0.87070200  0.31656500  1
  O  O22  1  0.87070200  0.39323000  0.81656500  1
  O  O23  1  0.12929800  0.60677000  0.18343500  1
loop_
_geom_bond_atom_site_label_1
_geom_bond_atom_site_label_2
_geom_bond_distance
_geom_bond_site_symmetry_2
Cu0 O6 1.965236 1_555
Cu0 O8 1.965236 1_555
Cu0 O20 1.986728 1_555
Cu0 O22 1.986728 1_555
Cu0 O17 2.603851 1_556
Cu0 O19 2.603851 1_555
Cu1 O9 1.965236 1_555
Cu1 O7 1.965236 1_555
Cu1 O23 1.986728 1_555
Cu1 O21 1.986728 1_555
Cu1 O18 2.603851 1_555
Cu1 O16 2.603851 1_554
Ag0 O2 2.317434 1_545
Ag0 O20 2.431578 1_555
Ag0 O0 2.438280 1_545
Ag0 O17 2.439016 1_556
Ag0 O6 2.684139 1_555
Ag1 O3 2.317434 1_565
Ag1 O21 2.431578 1_555
Ag1 O1 2.438280 1_565
Ag1 O16 2.439016 1_554
Ag1 O7 2.684139 1_555
Ag2 O0 2.317434 1_655
Ag2 O22 2.431578 1_555
Ag2 O2 2.438280 1_655
Ag2 O19 2.439016 1_555
Ag2 O8 2.684139 1_555
Ag3 O1 2.317434 1_455
Ag3 O23 2.431578 1_555
Ag3 O3 2.438280 1_455
Ag3 O18 2.439016 1_555
Ag3 O9 2.684139 1_555
O0 P5 1.495304 1_555
O1 P4 1.495304 1_555
O2 P7 1.495304 1_556
O3 P6 1.495304 1_554
O4 P2 1.616488 1_555
O4 P0 1.616488 1_555
O5 P1 1.616488 1_555
O5 P3 1.616488 1_555
O6 P2 1.514540 1_555
O7 P3 1.514540 1_555
O8 P0 1.514540 1_555
O9 P1 1.514540 1_555
O10 P4 1.600599 1_565
O10 P0 1.627896 1_555
O11 P5 1.600599 1_545
O11 P1 1.627896 1_555
O12 P6 1.600599 1_455
O12 P2 1.627896 1_555
O13 P7 1.600599 1_655
O13 P3 1.627896 1_555
O14 P6 1.622625 1_555
O14 P4 1.622625 1_555
O15 P7 1.622625 1_555
O15 P5 1.622625 1_555
O16 P0 1.491283 1_555
O17 P1 1.491283 1_555
O18 P2 1.491283 1_555
O19 P3 1.491283 1_555
O20 P4 1.519955 1_555
O21 P5 1.519955 1_555
O22 P6 1.519955 1_555
O23 P7 1.519955 1_555
