# generated using pymatgen
data_ZnFe(GeO3)2
_symmetry_space_group_name_H-M   'P 1'
_cell_length_a   9.24957400
_cell_length_b   5.50823100
_cell_length_c   9.84443544
_cell_angle_alpha   77.07487567
_cell_angle_beta   90.00000000
_cell_angle_gamma   90.00000000
_symmetry_Int_Tables_number   1
_chemical_formula_structural   ZnFe(GeO3)2
_chemical_formula_sum   'Zn4 Fe4 Ge8 O24'
_cell_volume   488.85410093
_cell_formula_units_Z   4
loop_
 _symmetry_equiv_pos_site_id
 _symmetry_equiv_pos_as_xyz
  1  'x, y, z'
loop_
 _atom_site_type_symbol
 _atom_site_label
 _atom_site_symmetry_multiplicity
 _atom_site_fract_x
 _atom_site_fract_y
 _atom_site_fract_z
 _atom_site_occupancy
  Zn  Zn0  1  0.49530900  0.54853500  0.24738400  1
  Zn  Zn1  1  0.99530900  0.95146500  0.75261600  1
  Zn  Zn2  1  0.50469100  0.45146500  0.75261600  1
  Zn  Zn3  1  0.00469100  0.04853500  0.24738400  1
  Fe  Fe0  1  0.65544200  0.04107300  0.24526800  1
  Fe  Fe1  1  0.15544200  0.45892700  0.75473200  1
  Fe  Fe2  1  0.34455800  0.95892700  0.75473200  1
  Fe  Fe3  1  0.84455800  0.54107300  0.24526800  1
  Ge  Ge0  1  0.33709500  0.18737100  0.05653700  1
  Ge  Ge1  1  0.83709500  0.31262900  0.94346300  1
  Ge  Ge2  1  0.66290500  0.81262900  0.94346300  1
  Ge  Ge3  1  0.16290500  0.68737100  0.05653700  1
  Ge  Ge4  1  0.34173000  0.76452900  0.45514800  1
  Ge  Ge5  1  0.84173000  0.73547100  0.54485200  1
  Ge  Ge6  1  0.65827000  0.23547100  0.54485200  1
  Ge  Ge7  1  0.15827000  0.26452900  0.45514800  1
  O  O0  1  0.28037500  0.51015800  0.38196800  1
  O  O1  1  0.78037500  0.98984200  0.61803200  1
  O  O2  1  0.71962500  0.48984200  0.61803200  1
  O  O3  1  0.21962500  0.01015800  0.38196800  1
  O  O4  1  0.31707400  0.85090600  0.10885000  1
  O  O5  1  0.81707400  0.64909400  0.89115000  1
  O  O6  1  0.68292600  0.14909400  0.89115000  1
  O  O7  1  0.18292600  0.35090600  0.10885000  1
  O  O8  1  0.98841000  0.29958000  0.37517200  1
  O  O9  1  0.48841000  0.20042000  0.62482800  1
  O  O10  1  0.01159000  0.70042000  0.62482800  1
  O  O11  1  0.51159000  0.79958000  0.37517200  1
  O  O12  1  0.01287000  0.77781500  0.14037000  1
  O  O13  1  0.51287000  0.72218500  0.85963000  1
  O  O14  1  0.98713000  0.22218500  0.85963000  1
  O  O15  1  0.48713000  0.27781500  0.14037000  1
  O  O16  1  0.33673500  0.25006800  0.87148400  1
  O  O17  1  0.83673500  0.24993200  0.12851600  1
  O  O18  1  0.66326500  0.74993200  0.12851600  1
  O  O19  1  0.16326500  0.75006800  0.87148400  1
  O  O20  1  0.33842700  0.68004200  0.63801800  1
  O  O21  1  0.83842700  0.81995800  0.36198200  1
  O  O22  1  0.66157300  0.31995800  0.36198200  1
  O  O23  1  0.16157300  0.18004200  0.63801800  1
loop_
_geom_bond_atom_site_label_1
_geom_bond_atom_site_label_2
_geom_bond_distance
_geom_bond_site_symmetry_2
Fe0 O11 2.101014 1_545
Fe0 O22 2.114892 1_555
Fe0 O15 2.141993 1_555
Fe0 O18 2.173151 1_545
Fe0 O17 2.205664 1_555
Fe0 O21 2.245486 1_545
Fe1 O10 2.101014 1_555
Fe1 O23 2.114892 1_555
Fe1 O14 2.141993 1_455
Fe1 O19 2.173151 1_555
Fe1 O16 2.205664 1_555
Fe1 O20 2.245486 1_555
Fe2 O9 2.101014 1_565
Fe2 O20 2.114892 1_555
Fe2 O13 2.141993 1_555
Fe2 O16 2.173151 1_565
Fe2 O19 2.205664 1_555
Fe2 O23 2.245486 1_565
Fe3 O8 2.101014 1_555
Fe3 O21 2.114892 1_555
Fe3 O12 2.141993 1_655
Fe3 O17 2.173151 1_555
Fe3 O18 2.205664 1_555
Fe3 O22 2.245486 1_555
Ge0 O15 1.743301 1_555
Ge0 O16 1.776675 1_554
Ge0 O4 1.818613 1_545
Ge0 O7 1.821437 1_555
Ge1 O14 1.743301 1_555
Ge1 O17 1.776675 1_556
Ge1 O5 1.818613 1_555
Ge1 O6 1.821437 1_555
Ge2 O13 1.743301 1_555
Ge2 O18 1.776675 1_556
Ge2 O6 1.818613 1_565
Ge2 O5 1.821437 1_555
Ge3 O12 1.743301 1_555
Ge3 O19 1.776675 1_554
Ge3 O7 1.818613 1_555
Ge3 O4 1.821437 1_555
Ge4 O11 1.748600 1_555
Ge4 O20 1.756025 1_555
Ge4 O3 1.785806 1_565
Ge4 O0 1.804384 1_555
Ge5 O10 1.748600 1_655
Ge5 O21 1.756025 1_555
Ge5 O2 1.785806 1_555
Ge5 O1 1.804384 1_555
Ge6 O9 1.748600 1_555
Ge6 O22 1.756025 1_555
Ge6 O1 1.785806 1_545
Ge6 O2 1.804384 1_555
Ge7 O8 1.748600 1_455
Ge7 O23 1.756025 1_555
Ge7 O0 1.785806 1_555
Ge7 O3 1.804384 1_555
O0 Zn0 2.372151 1_555
O1 Zn1 2.372151 1_555
O2 Zn2 2.372151 1_555
O3 Zn3 2.372151 1_555
O4 Zn0 2.517071 1_555
O5 Zn1 2.517071 1_555
O6 Zn2 2.517071 1_555
O7 Zn3 2.517071 1_555
O8 Zn3 2.072590 1_655
O9 Zn2 2.072590 1_555
O10 Zn1 2.072590 1_455
O11 Zn0 2.072590 1_555
O12 Zn3 2.010469 1_565
O13 Zn2 2.010469 1_555
O14 Zn1 2.010469 1_545
O15 Zn0 2.010469 1_555
O16 Zn2 2.105393 1_555
O17 Zn3 2.105393 1_655
O18 Zn0 2.105393 1_555
O19 Zn1 2.105393 1_455
O20 Zn2 2.141861 1_555
O21 Zn3 2.141861 1_665
O22 Zn0 2.141861 1_555
O23 Zn1 2.141861 1_445
