# generated using pymatgen
data_Nd2Mo4O15
_symmetry_space_group_name_H-M   'P 1'
_cell_length_a   7.37905689
_cell_length_b   7.51515152
_cell_length_c   11.72386776
_cell_angle_alpha   88.75207927
_cell_angle_beta   84.22025859
_cell_angle_gamma   83.84560377
_symmetry_Int_Tables_number   1
_chemical_formula_structural   Nd2Mo4O15
_chemical_formula_sum   'Nd4 Mo8 O30'
_cell_volume   643.07122025
_cell_formula_units_Z   2
loop_
 _symmetry_equiv_pos_site_id
 _symmetry_equiv_pos_as_xyz
  1  'x, y, z'
loop_
 _atom_site_type_symbol
 _atom_site_label
 _atom_site_symmetry_multiplicity
 _atom_site_fract_x
 _atom_site_fract_y
 _atom_site_fract_z
 _atom_site_occupancy
  Nd  Nd0  1  0.75306648  0.58871297  0.77613281  1
  Nd  Nd1  1  0.24693352  0.41128703  0.22386719  1
  Nd  Nd2  1  0.31851303  0.91068838  0.77599382  1
  Nd  Nd3  1  0.68148697  0.08931162  0.22400618  1
  Mo  Mo0  1  0.56062193  0.74661400  0.47099963  1
  Mo  Mo1  1  0.43937807  0.25338600  0.52900037  1
  Mo  Mo2  1  0.27248104  0.42963913  0.87085289  1
  Mo  Mo3  1  0.72751896  0.57036087  0.12914711  1
  Mo  Mo4  1  0.76908975  0.07400324  0.87131836  1
  Mo  Mo5  1  0.23091025  0.92599676  0.12868164  1
  Mo  Mo6  1  0.90805779  0.32716332  0.47047179  1
  Mo  Mo7  1  0.09194221  0.67283668  0.52952821  1
  O  O0  1  0.91748595  0.52440806  0.59571214  1
  O  O1  1  0.08251405  0.47559194  0.40428786  1
  O  O2  1  0.32907200  0.70949232  0.44263971  1
  O  O3  1  0.67092800  0.29050768  0.55736029  1
  O  O4  1  0.42362348  0.59393419  0.81893529  1
  O  O5  1  0.57637652  0.40606581  0.18106471  1
  O  O6  1  0.64658055  0.90634764  0.81350935  1
  O  O7  1  0.35341945  0.09365236  0.18649065  1
  O  O8  1  0.70329974  0.56921405  0.40860054  1
  O  O9  1  0.29670026  0.43078595  0.59139946  1
  O  O10  1  0.13071432  0.77343719  0.65702703  1
  O  O11  1  0.86928568  0.22656281  0.34297297  1
  O  O12  1  0.29878140  0.90131280  0.98250112  1
  O  O13  1  0.70121860  0.09868720  0.01749888  1
  O  O14  1  0.03973411  0.16896518  0.53683918  1
  O  O15  1  0.96026589  0.83103482  0.46316082  1
  O  O16  1  0.57889064  0.73363362  0.61984020  1
  O  O17  1  0.42110936  0.26636638  0.38015980  1
  O  O18  1  0.00230185  0.99892612  0.84942720  1
  O  O19  1  0.99769815  0.00107388  0.15057280  1
  O  O20  1  0.72208170  0.59225027  0.98110703  1
  O  O21  1  0.27791830  0.40774973  0.01889297  1
  O  O22  1  0.72817651  0.28415104  0.80434895  1
  O  O23  1  0.27182349  0.71584896  0.19565105  1
  O  O24  1  0.33813719  0.21675211  0.81251508  1
  O  O25  1  0.66186281  0.78324789  0.18748492  1
  O  O26  1  0.05123761  0.51108787  0.84057608  1
  O  O27  1  0.94876239  0.48891213  0.15942392  1
  O  O28  1  0.61758324  0.94789384  0.40554468  1
  O  O29  1  0.38241676  0.05210616  0.59445532  1
loop_
_geom_bond_atom_site_label_1
_geom_bond_atom_site_label_2
_geom_bond_distance
_geom_bond_site_symmetry_2
Nd0 O22 2.329554 1_555
Nd0 O0 2.362554 1_555
Nd0 O20 2.391369 1_555
Nd0 O26 2.406763 1_655
Nd0 O4 2.428522 1_555
Nd0 O6 2.466089 1_555
Nd0 O16 2.506553 1_555
Nd1 O23 2.329554 1_555
Nd1 O1 2.362554 1_555
Nd1 O21 2.391369 1_555
Nd1 O27 2.406763 1_455
Nd1 O5 2.428522 1_555
Nd1 O7 2.466089 1_555
Nd1 O17 2.506553 1_555
Nd2 O24 2.370998 1_565
Nd2 O10 2.384965 1_555
Nd2 O29 2.385047 1_565
Nd2 O12 2.410703 1_555
Nd2 O18 2.431852 1_555
Nd2 O4 2.480356 1_555
Nd2 O6 2.500363 1_555
Nd2 O16 2.768227 1_555
Nd3 O25 2.370998 1_545
Nd3 O11 2.384965 1_555
Nd3 O28 2.385047 1_545
Nd3 O13 2.410703 1_555
Nd3 O19 2.431852 1_555
Nd3 O5 2.480356 1_555
Nd3 O7 2.500363 1_555
Nd3 O17 2.768227 1_555
Mo0 O8 1.734189 1_555
Mo0 O28 1.753413 1_555
Mo0 O16 1.763466 1_555
Mo0 O2 1.824396 1_555
Mo1 O9 1.734189 1_555
Mo1 O29 1.753413 1_555
Mo1 O17 1.763466 1_555
Mo1 O3 1.824396 1_555
Mo2 O21 1.743892 1_556
Mo2 O26 1.748979 1_555
Mo2 O24 1.754092 1_555
Mo2 O4 1.806833 1_555
Mo3 O20 1.743892 1_554
Mo3 O27 1.748979 1_555
Mo3 O25 1.754092 1_555
Mo3 O5 1.806833 1_555
Mo4 O13 1.744536 1_556
Mo4 O18 1.747804 1_645
Mo4 O22 1.758765 1_555
Mo4 O6 1.808001 1_545
Mo5 O12 1.744536 1_554
Mo5 O19 1.747804 1_465
Mo5 O23 1.758765 1_555
Mo5 O7 1.808001 1_565
Mo6 O14 1.681441 1_655
Mo6 O11 1.752009 1_555
Mo6 O1 1.890116 1_655
Mo6 O3 1.976734 1_555
Mo6 O0 2.120265 1_555
Mo6 O8 2.385778 1_555
Mo7 O15 1.681441 1_455
Mo7 O10 1.752009 1_555
Mo7 O0 1.890116 1_455
Mo7 O2 1.976734 1_555
Mo7 O1 2.120265 1_555
Mo7 O9 2.385778 1_555
O0 O1 2.458399 1_655
