# generated using pymatgen
data_KMg14V
_symmetry_space_group_name_H-M   'P 1'
_cell_length_a   6.46354307
_cell_length_b   6.55167184
_cell_length_c   10.46841045
_cell_angle_alpha   90.00000000
_cell_angle_beta   90.00000000
_cell_angle_gamma   120.45207376
_symmetry_Int_Tables_number   1
_chemical_formula_structural   KMg14V
_chemical_formula_sum   'K1 Mg14 V1'
_cell_volume   382.15337071
_cell_formula_units_Z   1
loop_
 _symmetry_equiv_pos_site_id
 _symmetry_equiv_pos_as_xyz
  1  'x, y, z'
loop_
 _atom_site_type_symbol
 _atom_site_label
 _atom_site_symmetry_multiplicity
 _atom_site_fract_x
 _atom_site_fract_y
 _atom_site_fract_z
 _atom_site_occupancy
  K  K0  1  0.16673506  0.83336703  0.12500000  1
  Mg  Mg0  1  0.16558941  0.33279420  0.62500000  1
  Mg  Mg1  1  0.16879299  0.83439599  0.62500000  1
  Mg  Mg2  1  0.66497434  0.33533038  0.12500000  1
  Mg  Mg3  1  0.66642206  0.33075379  0.62500000  1
  Mg  Mg4  1  0.66497434  0.82964296  0.12500000  1
  Mg  Mg5  1  0.66642206  0.83566727  0.62500000  1
  Mg  Mg6  1  0.33385668  0.17857622  0.38185087  1
  Mg  Mg7  1  0.33385668  0.17857622  0.86814913  1
  Mg  Mg8  1  0.33385668  0.65528146  0.38185087  1
  Mg  Mg9  1  0.33385668  0.65528146  0.86814913  1
  Mg  Mg10  1  0.83909292  0.16954696  0.36665186  1
  Mg  Mg11  1  0.83909292  0.16954696  0.88334814  1
  Mg  Mg12  1  0.82340752  0.66170426  0.38822667  1
  Mg  Mg13  1  0.82340752  0.66170426  0.86177333  1
  V  V0  1  0.17566215  0.33783058  0.12500000  1
loop_
_geom_bond_atom_site_label_1
_geom_bond_atom_site_label_2
_geom_bond_distance
_geom_bond_site_symmetry_2
K0 Mg2 3.230854 1_455
K0 Mg4 3.230855 1_455
K0 Mg2 3.232825 1_565
K0 Mg4 3.232825 1_555
K0 V0 3.276214 1_555
K0 V0 3.276214 1_565
K0 Mg9 3.321960 1_554
K0 Mg8 3.321960 1_555
K0 Mg7 3.321967 1_564
K0 Mg6 3.321967 1_565
K0 Mg12 3.354502 1_455
K0 Mg13 3.354502 1_454
Mg0 Mg6 3.129956 1_555
Mg0 Mg7 3.129956 1_555
Mg0 Mg8 3.129962 1_555
Mg0 Mg9 3.129962 1_555
Mg0 Mg5 3.219635 1_445
Mg0 Mg3 3.219635 1_455
Mg0 Mg5 3.243949 1_555
Mg0 Mg3 3.243949 1_555
Mg0 Mg11 3.259421 1_455
Mg0 Mg10 3.259421 1_455
Mg0 Mg1 3.275885 1_555
Mg0 Mg1 3.275885 1_545
Mg1 Mg13 3.138026 1_455
Mg1 Mg12 3.138026 1_455
Mg1 Mg8 3.203658 1_555
Mg1 Mg9 3.203658 1_555
Mg1 Mg6 3.203665 1_565
Mg1 Mg7 3.203665 1_565
Mg1 Mg3 3.212233 1_565
Mg1 Mg5 3.212234 1_555
Mg1 Mg3 3.251325 1_455
Mg1 Mg5 3.251325 1_455
Mg2 V0 3.171024 1_555
Mg2 Mg4 3.238574 1_555
Mg2 Mg7 3.261436 1_554
Mg2 Mg6 3.261436 1_555
Mg2 V0 3.292581 1_655
Mg2 Mg4 3.313098 1_545
Mg3 Mg6 3.149799 1_555
Mg3 Mg7 3.149799 1_555
Mg3 Mg5 3.243644 1_545
Mg3 Mg5 3.308027 1_555
Mg4 V0 3.171023 1_555
Mg4 Mg9 3.261435 1_554
Mg4 Mg8 3.261435 1_555
Mg4 V0 3.292581 1_665
Mg5 Mg8 3.149799 1_555
Mg5 Mg9 3.149799 1_555
Mg6 Mg8 3.123216 1_555
Mg6 V0 3.231920 1_555
Mg6 Mg8 3.428456 1_545
Mg7 Mg9 3.123216 1_555
Mg7 V0 3.231920 1_556
Mg7 Mg9 3.428456 1_545
Mg8 V0 3.231926 1_555
Mg9 V0 3.231926 1_556
Mg10 V0 3.149020 1_655
Mg10 Mg8 3.172348 1_655
Mg10 Mg6 3.172348 1_655
Mg10 Mg2 3.175659 1_555
Mg10 Mg4 3.175666 1_545
Mg10 Mg12 3.284775 1_545
Mg10 Mg12 3.284775 1_555
Mg10 Mg3 3.297003 1_555
Mg10 Mg5 3.297009 1_545
Mg10 Mg8 3.299830 1_545
Mg10 Mg6 3.299831 1_555
Mg11 V0 3.149020 1_656
Mg11 Mg9 3.172348 1_655
Mg11 Mg7 3.172348 1_655
Mg11 Mg2 3.175659 1_556
Mg11 Mg4 3.175666 1_546
Mg11 Mg13 3.284775 1_545
Mg11 Mg13 3.284775 1_555
Mg11 Mg3 3.297003 1_555
Mg11 Mg5 3.297009 1_545
Mg11 Mg9 3.299830 1_545
Mg11 Mg7 3.299831 1_555
Mg12 Mg5 3.105562 1_555
Mg12 Mg3 3.105569 1_555
Mg12 Mg6 3.143824 1_555
Mg12 Mg8 3.143824 1_555
Mg12 Mg4 3.315796 1_555
Mg12 Mg2 3.315802 1_555
Mg12 Mg6 3.321506 1_665
Mg12 Mg8 3.321506 1_655
Mg13 Mg5 3.105562 1_555
Mg13 Mg3 3.105569 1_555
Mg13 Mg7 3.143824 1_555
Mg13 Mg9 3.143824 1_555
Mg13 Mg4 3.315796 1_556
Mg13 Mg2 3.315802 1_556
Mg13 Mg7 3.321506 1_665
Mg13 Mg9 3.321506 1_655
