# generated using pymatgen
data_Ta12Al4CoC
_symmetry_space_group_name_H-M   'P 1'
_cell_length_a   21.57404017
_cell_length_b   21.57404017
_cell_length_c   21.57404017
_cell_angle_alpha   60.00000000
_cell_angle_beta   60.00000000
_cell_angle_gamma   60.00000000
_symmetry_Int_Tables_number   1
_chemical_formula_structural   Ta12Al4CoC
_chemical_formula_sum   'Ta24 Al8 Co2 C2'
_cell_volume   7100.34499796
_cell_formula_units_Z   2
loop_
 _symmetry_equiv_pos_site_id
 _symmetry_equiv_pos_as_xyz
  1  'x, y, z'
loop_
 _atom_site_type_symbol
 _atom_site_label
 _atom_site_symmetry_multiplicity
 _atom_site_fract_x
 _atom_site_fract_y
 _atom_site_fract_z
 _atom_site_occupancy
  Ta  Ta0  1  0.56671955  0.56671955  0.18675676  1
  Ta  Ta1  1  0.67980414  0.18675676  0.56671955  1
  Ta  Ta2  1  0.18675676  0.67980414  0.56671955  1
  Ta  Ta3  1  0.56671955  0.18675676  0.56671955  1
  Ta  Ta4  1  0.07019586  0.18328045  0.56324324  1
  Ta  Ta5  1  0.18328045  0.18328045  0.56324324  1
  Ta  Ta6  1  0.56671955  0.56671955  0.67980414  1
  Ta  Ta7  1  0.18675676  0.56671955  0.67980414  1
  Ta  Ta8  1  0.18328045  0.56324324  0.18328045  1
  Ta  Ta9  1  0.07019586  0.56324324  0.18328045  1
  Ta  Ta10  1  0.67980414  0.56671955  0.18675676  1
  Ta  Ta11  1  0.18328045  0.07019586  0.18328045  1
  Ta  Ta12  1  0.56324324  0.07019586  0.18328045  1
  Ta  Ta13  1  0.56671955  0.67980414  0.56671955  1
  Ta  Ta14  1  0.56324324  0.18328045  0.07019586  1
  Ta  Ta15  1  0.18328045  0.18328045  0.07019586  1
  Ta  Ta16  1  0.18675676  0.56671955  0.56671955  1
  Ta  Ta17  1  0.56671955  0.18675676  0.67980414  1
  Ta  Ta18  1  0.67980414  0.56671955  0.56671955  1
  Ta  Ta19  1  0.56671955  0.67980414  0.18675676  1
  Ta  Ta20  1  0.18328045  0.56324324  0.07019586  1
  Ta  Ta21  1  0.56324324  0.18328045  0.18328045  1
  Ta  Ta22  1  0.18328045  0.07019586  0.56324324  1
  Ta  Ta23  1  0.07019586  0.18328045  0.18328045  1
  Al  Al0  1  0.79142488  0.79142488  0.79142488  1
  Al  Al1  1  0.62572535  0.79142488  0.79142488  1
  Al  Al2  1  0.79142488  0.62572535  0.79142488  1
  Al  Al3  1  0.12427465  0.95857512  0.95857512  1
  Al  Al4  1  0.95857512  0.95857512  0.95857512  1
  Al  Al5  1  0.79142488  0.79142488  0.62572535  1
  Al  Al6  1  0.95857512  0.12427465  0.95857512  1
  Al  Al7  1  0.95857512  0.95857512  0.12427465  1
  Co  Co0  1  0.00000000  -0.00000000  -0.00000000  1
  Co  Co1  1  0.75000000  0.75000000  0.75000000  1
  C  C0  1  0.50000000  0.50000000  0.50000000  1
  C  C1  1  0.25000000  0.25000000  0.25000000  1
loop_
_geom_bond_atom_site_label_1
_geom_bond_atom_site_label_2
_geom_bond_distance
_geom_bond_site_symmetry_2
Ta0 Ta10 2.439691 1_555
Ta0 Ta19 2.439691 1_555
Ta1 Ta3 2.439691 1_555
Ta1 Ta17 2.439691 1_555
Ta2 Ta7 2.439691 1_555
Ta4 Ta5 2.439691 1_555
Ta8 Ta9 2.439691 1_555
Ta10 Ta19 2.439691 1_555
Ta11 Ta23 2.439691 1_555
Ta11 Ta15 2.439691 1_555
Ta12 Ta14 2.439691 1_555
Ta12 Ta21 2.439691 1_555
Ta13 Ta6 2.439691 1_555
Ta13 Ta18 2.439691 1_555
Ta14 Ta21 2.439691 1_555
Ta15 Ta23 2.439691 1_555
Ta16 Ta2 2.439691 1_555
Ta16 Ta7 2.439691 1_555
Ta17 Ta3 2.439691 1_555
Ta18 Ta6 2.439691 1_555
Ta20 Ta9 2.439691 1_555
Ta20 Ta8 2.439691 1_555
Ta22 Ta4 2.439691 1_555
Ta22 Ta5 2.439691 1_555
Al0 Co1 2.189114 1_555
Al1 Co1 2.189114 1_555
Al2 Co1 2.189114 1_555
Al3 Co0 2.189114 1_566
Al4 Co0 2.189114 1_666
Al5 Co1 2.189114 1_555
Al6 Co0 2.189114 1_656
Al7 Co0 2.189114 1_665
C0 Ta6 5.694767 1_555
C0 Ta13 5.694767 1_555
C0 Ta18 5.694767 1_555
C0 Ta7 5.694767 1_555
C0 Ta1 5.694767 1_555
C0 Ta2 5.694767 1_555
C0 Ta17 5.694767 1_555
C0 Ta3 5.694767 1_555
C0 Ta0 5.694767 1_555
C0 Ta19 5.694767 1_555
C0 Ta16 5.694767 1_555
C0 Ta10 5.694767 1_555
C1 Ta23 5.694767 1_555
C1 Ta11 5.694767 1_555
C1 Ta9 5.694767 1_555
C1 Ta15 5.694767 1_555
C1 Ta12 5.694767 1_555
C1 Ta14 5.694767 1_555
C1 Ta5 5.694767 1_555
C1 Ta8 5.694767 1_555
C1 Ta22 5.694767 1_555
C1 Ta21 5.694767 1_555
C1 Ta4 5.694767 1_555
C1 Ta20 5.694767 1_555
