# generated using pymatgen
data_Sm8Sb3O8
_symmetry_space_group_name_H-M   'P 1'
_cell_length_a   14.23894107
_cell_length_b   14.23894107
_cell_length_c   30.92985843
_cell_angle_alpha   73.38069868
_cell_angle_beta   73.38069868
_cell_angle_gamma   31.52238847
_symmetry_Int_Tables_number   1
_chemical_formula_structural   Sm8Sb3O8
_chemical_formula_sum   'Sm64 Sb24 O64'
_cell_volume   3130.52186668
_cell_formula_units_Z   8
loop_
 _symmetry_equiv_pos_site_id
 _symmetry_equiv_pos_as_xyz
  1  'x, y, z'
loop_
 _atom_site_type_symbol
 _atom_site_label
 _atom_site_symmetry_multiplicity
 _atom_site_fract_x
 _atom_site_fract_y
 _atom_site_fract_z
 _atom_site_occupancy
  Sm  Sm0_0  1  0.35864400  0.36071300  0.45578150  1
  Sm  Sm0_1  1  0.35864400  0.36071300  0.95578150  1
  Sm  Sm0_2  1  0.35864400  0.86071300  0.45578150  1
  Sm  Sm0_3  1  0.35864400  0.86071300  0.95578150  1
  Sm  Sm0_4  1  0.85864400  0.36071300  0.45578150  1
  Sm  Sm0_5  1  0.85864400  0.36071300  0.95578150  1
  Sm  Sm0_6  1  0.85864400  0.86071300  0.45578150  1
  Sm  Sm0_7  1  0.85864400  0.86071300  0.95578150  1
  Sm  Sm1_0  1  0.13928700  0.14135600  0.04421850  1
  Sm  Sm1_1  1  0.13928700  0.14135600  0.54421850  1
  Sm  Sm1_2  1  0.13928700  0.64135600  0.04421850  1
  Sm  Sm1_3  1  0.13928700  0.64135600  0.54421850  1
  Sm  Sm1_4  1  0.63928700  0.14135600  0.04421850  1
  Sm  Sm1_5  1  0.63928700  0.14135600  0.54421850  1
  Sm  Sm1_6  1  0.63928700  0.64135600  0.04421850  1
  Sm  Sm1_7  1  0.63928700  0.64135600  0.54421850  1
  Sm  Sm2_0  1  0.32144300  0.32134800  0.28472350  1
  Sm  Sm2_1  1  0.32144300  0.32134800  0.78472350  1
  Sm  Sm2_2  1  0.32144300  0.82134800  0.28472350  1
  Sm  Sm2_3  1  0.32144300  0.82134800  0.78472350  1
  Sm  Sm2_4  1  0.82144300  0.32134800  0.28472350  1
  Sm  Sm2_5  1  0.82144300  0.32134800  0.78472350  1
  Sm  Sm2_6  1  0.82144300  0.82134800  0.28472350  1
  Sm  Sm2_7  1  0.82144300  0.82134800  0.78472350  1
  Sm  Sm3_0  1  0.17865200  0.17855700  0.21527650  1
  Sm  Sm3_1  1  0.17865200  0.17855700  0.71527650  1
  Sm  Sm3_2  1  0.17865200  0.67855700  0.21527650  1
  Sm  Sm3_3  1  0.17865200  0.67855700  0.71527650  1
  Sm  Sm3_4  1  0.67865200  0.17855700  0.21527650  1
  Sm  Sm3_5  1  0.67865200  0.17855700  0.71527650  1
  Sm  Sm3_6  1  0.67865200  0.67855700  0.21527650  1
  Sm  Sm3_7  1  0.67865200  0.67855700  0.71527650  1
  Sm  Sm4_0  1  0.43821900  0.43828450  0.32686700  1
  Sm  Sm4_1  1  0.43821900  0.43828450  0.82686700  1
  Sm  Sm4_2  1  0.43821900  0.93828450  0.32686700  1
  Sm  Sm4_3  1  0.43821900  0.93828450  0.82686700  1
  Sm  Sm4_4  1  0.93821900  0.43828450  0.32686700  1
  Sm  Sm4_5  1  0.93821900  0.43828450  0.82686700  1
  Sm  Sm4_6  1  0.93821900  0.93828450  0.32686700  1
  Sm  Sm4_7  1  0.93821900  0.93828450  0.82686700  1
  Sm  Sm5_0  1  0.06171550  0.06178100  0.17313300  1
  Sm  Sm5_1  1  0.06171550  0.06178100  0.67313300  1
  Sm  Sm5_2  1  0.06171550  0.56178100  0.17313300  1
  Sm  Sm5_3  1  0.06171550  0.56178100  0.67313300  1
  Sm  Sm5_4  1  0.56171550  0.06178100  0.17313300  1
  Sm  Sm5_5  1  0.56171550  0.06178100  0.67313300  1
  Sm  Sm5_6  1  0.56171550  0.56178100  0.17313300  1
  Sm  Sm5_7  1  0.56171550  0.56178100  0.67313300  1
  Sm  Sm6_0  1  0.22766150  0.22773150  0.41582800  1
  Sm  Sm6_1  1  0.22766150  0.22773150  0.91582800  1
  Sm  Sm6_2  1  0.22766150  0.72773150  0.41582800  1
  Sm  Sm6_3  1  0.22766150  0.72773150  0.91582800  1
  Sm  Sm6_4  1  0.72766150  0.22773150  0.41582800  1
  Sm  Sm6_5  1  0.72766150  0.22773150  0.91582800  1
  Sm  Sm6_6  1  0.72766150  0.72773150  0.41582800  1
  Sm  Sm6_7  1  0.72766150  0.72773150  0.91582800  1
  Sm  Sm7_0  1  0.27226850  0.27233850  0.08417200  1
  Sm  Sm7_1  1  0.27226850  0.27233850  0.58417200  1
  Sm  Sm7_2  1  0.27226850  0.77233850  0.08417200  1
  Sm  Sm7_3  1  0.27226850  0.77233850  0.58417200  1
  Sm  Sm7_4  1  0.77226850  0.27233850  0.08417200  1
  Sm  Sm7_5  1  0.77226850  0.27233850  0.58417200  1
  Sm  Sm7_6  1  0.77226850  0.77233850  0.08417200  1
  Sm  Sm7_7  1  0.77226850  0.77233850  0.58417200  1
  Sb  Sb0_0  1  0.08655350  0.08505400  0.36642450  1
  Sb  Sb0_1  1  0.08655350  0.08505400  0.86642450  1
  Sb  Sb0_2  1  0.08655350  0.58505400  0.36642450  1
  Sb  Sb0_3  1  0.08655350  0.58505400  0.86642450  1
  Sb  Sb0_4  1  0.58655350  0.08505400  0.36642450  1
  Sb  Sb0_5  1  0.58655350  0.08505400  0.86642450  1
  Sb  Sb0_6  1  0.58655350  0.58505400  0.36642450  1
  Sb  Sb0_7  1  0.58655350  0.58505400  0.86642450  1
  Sb  Sb1_0  1  0.41494600  0.41344650  0.13357550  1
  Sb  Sb1_1  1  0.41494600  0.41344650  0.63357550  1
  Sb  Sb1_2  1  0.41494600  0.91344650  0.13357550  1
  Sb  Sb1_3  1  0.41494600  0.91344650  0.63357550  1
  Sb  Sb1_4  1  0.91494600  0.41344650  0.13357550  1
  Sb  Sb1_5  1  0.91494600  0.41344650  0.63357550  1
  Sb  Sb1_6  1  0.91494600  0.91344650  0.13357550  1
  Sb  Sb1_7  1  0.91494600  0.91344650  0.63357550  1
  Sb  Sb2_0  1  0.48216950  0.01783050  0.00000000  1
  Sb  Sb2_1  1  0.48216950  0.01783050  0.50000000  1
  Sb  Sb2_2  1  0.48216950  0.51783050  0.00000000  1
  Sb  Sb2_3  1  0.48216950  0.51783050  0.50000000  1
  Sb  Sb2_4  1  0.98216950  0.01783050  0.00000000  1
  Sb  Sb2_5  1  0.98216950  0.01783050  0.50000000  1
  Sb  Sb2_6  1  0.98216950  0.51783050  0.00000000  1
  Sb  Sb2_7  1  0.98216950  0.51783050  0.50000000  1
  O  O0_0  1  0.23461450  0.23453200  0.31637350  1
  O  O0_1  1  0.23461450  0.23453200  0.81637350  1
  O  O0_2  1  0.23461450  0.73453200  0.31637350  1
  O  O0_3  1  0.23461450  0.73453200  0.81637350  1
  O  O0_4  1  0.73461450  0.23453200  0.31637350  1
  O  O0_5  1  0.73461450  0.23453200  0.81637350  1
  O  O0_6  1  0.73461450  0.73453200  0.31637350  1
  O  O0_7  1  0.73461450  0.73453200  0.81637350  1
  O  O1_0  1  0.26546800  0.26538550  0.18362650  1
  O  O1_1  1  0.26546800  0.26538550  0.68362650  1
  O  O1_2  1  0.26546800  0.76538550  0.18362650  1
  O  O1_3  1  0.26546800  0.76538550  0.68362650  1
  O  O1_4  1  0.76546800  0.26538550  0.18362650  1
  O  O1_5  1  0.76546800  0.26538550  0.68362650  1
  O  O1_6  1  0.76546800  0.76538550  0.18362650  1
  O  O1_7  1  0.76546800  0.76538550  0.68362650  1
  O  O2_0  1  0.44016400  0.44229650  0.39987900  1
  O  O2_1  1  0.44016400  0.44229650  0.89987900  1
  O  O2_2  1  0.44016400  0.94229650  0.39987900  1
  O  O2_3  1  0.44016400  0.94229650  0.89987900  1
  O  O2_4  1  0.94016400  0.44229650  0.39987900  1
  O  O2_5  1  0.94016400  0.44229650  0.89987900  1
  O  O2_6  1  0.94016400  0.94229650  0.39987900  1
  O  O2_7  1  0.94016400  0.94229650  0.89987900  1
  O  O3_0  1  0.05770350  0.05983600  0.10012100  1
  O  O3_1  1  0.05770350  0.05983600  0.60012100  1
  O  O3_2  1  0.05770350  0.55983600  0.10012100  1
  O  O3_3  1  0.05770350  0.55983600  0.60012100  1
  O  O3_4  1  0.55770350  0.05983600  0.10012100  1
  O  O3_5  1  0.55770350  0.05983600  0.60012100  1
  O  O3_6  1  0.55770350  0.55983600  0.10012100  1
  O  O3_7  1  0.55770350  0.55983600  0.60012100  1
  O  O4_0  1  0.08258700  0.08230500  0.24296900  1
  O  O4_1  1  0.08258700  0.08230500  0.74296900  1
  O  O4_2  1  0.08258700  0.58230500  0.24296900  1
  O  O4_3  1  0.08258700  0.58230500  0.74296900  1
  O  O4_4  1  0.58258700  0.08230500  0.24296900  1
  O  O4_5  1  0.58258700  0.08230500  0.74296900  1
  O  O4_6  1  0.58258700  0.58230500  0.24296900  1
  O  O4_7  1  0.58258700  0.58230500  0.74296900  1
  O  O5_0  1  0.41769500  0.41741300  0.25703100  1
  O  O5_1  1  0.41769500  0.41741300  0.75703100  1
  O  O5_2  1  0.41769500  0.91741300  0.25703100  1
  O  O5_3  1  0.41769500  0.91741300  0.75703100  1
  O  O5_4  1  0.91769500  0.41741300  0.25703100  1
  O  O5_5  1  0.91769500  0.41741300  0.75703100  1
  O  O5_6  1  0.91769500  0.91741300  0.25703100  1
  O  O5_7  1  0.91769500  0.91741300  0.75703100  1
  O  O6_0  1  0.14631700  0.15010900  0.46699250  1
  O  O6_1  1  0.14631700  0.15010900  0.96699250  1
  O  O6_2  1  0.14631700  0.65010900  0.46699250  1
  O  O6_3  1  0.14631700  0.65010900  0.96699250  1
  O  O6_4  1  0.64631700  0.15010900  0.46699250  1
  O  O6_5  1  0.64631700  0.15010900  0.96699250  1
  O  O6_6  1  0.64631700  0.65010900  0.46699250  1
  O  O6_7  1  0.64631700  0.65010900  0.96699250  1
  O  O7_0  1  0.34989100  0.35368300  0.03300750  1
  O  O7_1  1  0.34989100  0.35368300  0.53300750  1
  O  O7_2  1  0.34989100  0.85368300  0.03300750  1
  O  O7_3  1  0.34989100  0.85368300  0.53300750  1
  O  O7_4  1  0.84989100  0.35368300  0.03300750  1
  O  O7_5  1  0.84989100  0.35368300  0.53300750  1
  O  O7_6  1  0.84989100  0.85368300  0.03300750  1
  O  O7_7  1  0.84989100  0.85368300  0.53300750  1
loop_
_geom_bond_atom_site_label_1
_geom_bond_atom_site_label_2
_geom_bond_distance
_geom_bond_site_symmetry_2
Sb0_0 Sm2_2 3.294477 1_545
Sb0_0 Sm2_4 3.300848 1_455
Sb0_0 Sm4_2 3.324950 1_545
Sb0_0 Sm4_4 3.331984 1_455
Sb0_0 Sm6_2 3.484126 1_545
Sb0_0 Sm6_4 3.490858 1_455
Sb0_0 Sm0_2 3.581652 1_545
Sb0_0 Sm0_4 3.596525 1_455
Sb0_0 Sb0_6 3.867702 1_545
Sb0_0 Sb0_6 3.867702 1_455
Sb0_0 Sb2_5 4.104289 1_455
Sb0_1 Sm2_3 3.294477 1_545
Sb0_1 Sm2_5 3.300848 1_455
Sb0_1 Sm4_3 3.324950 1_545
Sb0_1 Sm4_5 3.331984 1_455
Sb0_1 Sm6_3 3.484126 1_545
Sb0_1 Sm6_5 3.490858 1_455
Sb0_1 Sm0_3 3.581652 1_545
Sb0_1 Sm0_5 3.596525 1_455
Sb0_1 Sb0_7 3.867702 1_455
Sb0_1 Sb0_7 3.867702 1_545
Sb0_1 Sb2_4 4.104289 1_456
Sb0_2 Sm2_0 3.294477 1_555
Sb0_2 Sm2_6 3.300848 1_455
Sb0_2 Sm4_0 3.324950 1_555
Sb0_2 Sm4_6 3.331984 1_455
Sb0_2 Sm6_0 3.484126 1_555
Sb0_2 Sm6_6 3.490858 1_455
Sb0_2 Sm0_0 3.581652 1_555
Sb0_2 Sm0_6 3.596525 1_455
Sb0_2 Sb0_4 3.867702 1_555
Sb0_2 Sb0_4 3.867702 1_465
Sb0_2 Sb2_7 4.104289 1_455
Sb0_3 Sm2_1 3.294477 1_555
Sb0_3 Sm2_7 3.300848 1_455
Sb0_3 Sm4_1 3.324950 1_555
Sb0_3 Sm4_7 3.331984 1_455
Sb0_3 Sm6_1 3.484126 1_555
Sb0_3 Sm6_7 3.490858 1_455
Sb0_3 Sm0_1 3.581652 1_555
Sb0_3 Sm0_7 3.596525 1_455
Sb0_3 Sb0_5 3.867702 1_555
Sb0_3 Sb0_5 3.867702 1_465
Sb0_3 Sb2_6 4.104289 1_456
Sb0_4 Sm2_6 3.294477 1_545
Sb0_4 Sm2_0 3.300848 1_555
Sb0_4 Sm4_6 3.324950 1_545
Sb0_4 Sm4_0 3.331984 1_555
Sb0_4 Sm6_6 3.484126 1_545
Sb0_4 Sm6_0 3.490858 1_555
Sb0_4 Sm0_6 3.581652 1_545
Sb0_4 Sm0_0 3.596525 1_555
Sb0_4 Sb2_1 4.104289 1_555
Sb0_5 Sm2_7 3.294477 1_545
Sb0_5 Sm2_1 3.300848 1_555
Sb0_5 Sm4_7 3.324950 1_545
Sb0_5 Sm4_1 3.331984 1_555
Sb0_5 Sm6_7 3.484126 1_545
Sb0_5 Sm6_1 3.490858 1_555
Sb0_5 Sm0_7 3.581652 1_545
Sb0_5 Sm0_1 3.596525 1_555
Sb0_5 Sb2_0 4.104289 1_556
Sb0_6 Sm2_4 3.294477 1_555
Sb0_6 Sm2_2 3.300848 1_555
Sb0_6 Sm4_4 3.324950 1_555
Sb0_6 Sm4_2 3.331984 1_555
Sb0_6 Sm6_4 3.484126 1_555
Sb0_6 Sm6_2 3.490858 1_555
Sb0_6 Sm0_4 3.581652 1_555
Sb0_6 Sm0_2 3.596525 1_555
Sb0_6 Sb2_3 4.104289 1_555
Sb0_7 Sm2_5 3.294477 1_555
Sb0_7 Sm2_3 3.300848 1_555
Sb0_7 Sm4_5 3.324950 1_555
Sb0_7 Sm4_3 3.331984 1_555
Sb0_7 Sm6_5 3.484126 1_555
Sb0_7 Sm6_3 3.490858 1_555
Sb0_7 Sm0_5 3.581652 1_555
Sb0_7 Sm0_3 3.596525 1_555
Sb0_7 Sb2_2 4.104289 1_556
Sb1_0 Sm3_4 3.294477 1_555
Sb1_0 Sm3_2 3.300848 1_555
Sb1_0 Sm5_4 3.324950 1_555
Sb1_0 Sm5_2 3.331984 1_555
Sb1_0 Sm7_4 3.484126 1_555
Sb1_0 Sm7_2 3.490858 1_555
Sb1_0 Sm1_4 3.581652 1_555
Sb1_0 Sm1_2 3.596525 1_555
Sb1_0 Sb1_6 3.867702 1_455
Sb1_0 Sb1_6 3.867702 1_545
Sb1_0 Sb2_2 4.104289 1_555
Sb1_1 Sm3_5 3.294477 1_555
Sb1_1 Sm3_3 3.300848 1_555
Sb1_1 Sm5_5 3.324950 1_555
Sb1_1 Sm5_3 3.331984 1_555
Sb1_1 Sm7_5 3.484126 1_555
Sb1_1 Sm7_3 3.490858 1_555
Sb1_1 Sm1_5 3.581652 1_555
Sb1_1 Sm1_3 3.596525 1_555
Sb1_1 Sb1_7 3.867702 1_545
Sb1_1 Sb1_7 3.867702 1_455
Sb1_1 Sb2_3 4.104289 1_555
Sb1_2 Sm3_6 3.294477 1_555
Sb1_2 Sm3_0 3.300848 1_565
Sb1_2 Sm5_6 3.324950 1_555
Sb1_2 Sm5_0 3.331984 1_565
Sb1_2 Sm7_6 3.484126 1_555
Sb1_2 Sm7_0 3.490858 1_565
Sb1_2 Sm1_6 3.581652 1_555
Sb1_2 Sm1_0 3.596525 1_565
Sb1_2 Sb1_4 3.867702 1_555
Sb1_2 Sb1_4 3.867702 1_465
Sb1_2 Sb2_0 4.104289 1_565
Sb1_3 Sm3_7 3.294477 1_555
Sb1_3 Sm3_1 3.300848 1_565
Sb1_3 Sm5_7 3.324950 1_555
Sb1_3 Sm5_1 3.331984 1_565
Sb1_3 Sm7_7 3.484126 1_555
Sb1_3 Sm7_1 3.490858 1_565
Sb1_3 Sm1_7 3.581652 1_555
Sb1_3 Sm1_1 3.596525 1_565
Sb1_3 Sb1_5 3.867702 1_555
Sb1_3 Sb1_5 3.867702 1_465
Sb1_3 Sb2_1 4.104289 1_565
Sb1_4 Sm3_0 3.294477 1_655
Sb1_4 Sm3_6 3.300848 1_555
Sb1_4 Sm5_0 3.324950 1_655
Sb1_4 Sm5_6 3.331984 1_555
Sb1_4 Sm7_0 3.484126 1_655
Sb1_4 Sm7_6 3.490858 1_555
Sb1_4 Sm1_0 3.581652 1_655
Sb1_4 Sm1_6 3.596525 1_555
Sb1_4 Sb2_6 4.104289 1_555
Sb1_5 Sm3_1 3.294477 1_655
Sb1_5 Sm3_7 3.300848 1_555
Sb1_5 Sm5_1 3.324950 1_655
Sb1_5 Sm5_7 3.331984 1_555
Sb1_5 Sm7_1 3.484126 1_655
Sb1_5 Sm7_7 3.490858 1_555
Sb1_5 Sm1_1 3.581652 1_655
Sb1_5 Sm1_7 3.596525 1_555
Sb1_5 Sb2_7 4.104289 1_555
Sb1_6 Sm3_2 3.294477 1_655
Sb1_6 Sm3_4 3.300848 1_565
Sb1_6 Sm5_2 3.324950 1_655
Sb1_6 Sm5_4 3.331984 1_565
Sb1_6 Sm7_2 3.484126 1_655
Sb1_6 Sm7_4 3.490858 1_565
Sb1_6 Sm1_2 3.581652 1_655
Sb1_6 Sm1_4 3.596525 1_565
Sb1_6 Sb2_4 4.104289 1_565
Sb1_7 Sm3_3 3.294477 1_655
Sb1_7 Sm3_5 3.300848 1_565
Sb1_7 Sm5_3 3.324950 1_655
Sb1_7 Sm5_5 3.331984 1_565
Sb1_7 Sm7_3 3.484126 1_655
Sb1_7 Sm7_5 3.490858 1_565
Sb1_7 Sm1_3 3.581652 1_655
Sb1_7 Sm1_5 3.596525 1_565
Sb1_7 Sb2_5 4.104289 1_565
Sb2_0 Sm6_1 3.365071 1_554
Sb2_0 Sm7_0 3.365071 1_555
Sb2_0 Sm0_1 3.423013 1_554
Sb2_0 Sm1_0 3.423013 1_555
Sb2_0 Sm6_7 3.519733 1_544
Sb2_0 Sm7_6 3.519733 1_545
Sb2_0 Sm0_7 3.566796 1_544
Sb2_0 Sm1_6 3.566796 1_545
Sb2_0 Sb2_6 3.867702 1_455
Sb2_0 Sb2_6 3.867702 1_545
Sb2_1 Sm6_0 3.365071 1_555
Sb2_1 Sm7_1 3.365071 1_555
Sb2_1 Sm0_0 3.423013 1_555
Sb2_1 Sm1_1 3.423013 1_555
Sb2_1 Sm6_6 3.519733 1_545
Sb2_1 Sm7_7 3.519733 1_545
Sb2_1 Sm0_6 3.566796 1_545
Sb2_1 Sm1_7 3.566796 1_545
Sb2_1 Sb2_7 3.867702 1_455
Sb2_1 Sb2_7 3.867702 1_545
Sb2_2 Sm6_3 3.365071 1_554
Sb2_2 Sm7_2 3.365071 1_555
Sb2_2 Sm0_3 3.423013 1_554
Sb2_2 Sm1_2 3.423013 1_555
Sb2_2 Sm7_4 3.519733 1_555
Sb2_2 Sm6_5 3.519733 1_554
Sb2_2 Sm0_5 3.566796 1_554
Sb2_2 Sm1_4 3.566796 1_555
Sb2_2 Sb2_4 3.867702 1_555
Sb2_2 Sb2_4 3.867702 1_465
Sb2_3 Sm6_2 3.365071 1_555
Sb2_3 Sm7_3 3.365071 1_555
Sb2_3 Sm0_2 3.423013 1_555
Sb2_3 Sm1_3 3.423013 1_555
Sb2_3 Sm6_4 3.519733 1_555
Sb2_3 Sm7_5 3.519733 1_555
Sb2_3 Sm0_4 3.566796 1_555
Sb2_3 Sm1_5 3.566796 1_555
Sb2_3 Sb2_5 3.867702 1_555
Sb2_3 Sb2_5 3.867702 1_465
Sb2_4 Sm6_5 3.365071 1_554
Sb2_4 Sm7_4 3.365071 1_555
Sb2_4 Sm0_5 3.423013 1_554
Sb2_4 Sm1_4 3.423013 1_555
Sb2_4 Sm7_2 3.519733 1_645
Sb2_4 Sm6_3 3.519733 1_644
Sb2_4 Sm0_3 3.566796 1_644
Sb2_4 Sm1_2 3.566796 1_645
Sb2_5 Sm6_4 3.365071 1_555
Sb2_5 Sm7_5 3.365071 1_555
Sb2_5 Sm0_4 3.423013 1_555
Sb2_5 Sm1_5 3.423013 1_555
Sb2_5 Sm6_2 3.519733 1_645
Sb2_5 Sm7_3 3.519733 1_645
Sb2_5 Sm0_2 3.566796 1_645
Sb2_5 Sm1_3 3.566796 1_645
Sb2_6 Sm6_7 3.365071 1_554
Sb2_6 Sm7_6 3.365071 1_555
Sb2_6 Sm0_7 3.423013 1_554
Sb2_6 Sm1_6 3.423013 1_555
Sb2_6 Sm7_0 3.519733 1_655
Sb2_6 Sm6_1 3.519733 1_654
Sb2_6 Sm0_1 3.566796 1_654
Sb2_6 Sm1_0 3.566796 1_655
Sb2_7 Sm6_6 3.365071 1_555
Sb2_7 Sm7_7 3.365071 1_555
Sb2_7 Sm1_7 3.423013 1_555
Sb2_7 Sm0_6 3.423013 1_555
Sb2_7 Sm6_0 3.519733 1_655
Sb2_7 Sm7_1 3.519733 1_655
Sb2_7 Sm0_0 3.566796 1_655
Sb2_7 Sm1_1 3.566796 1_655
O0_0 Sm4_2 2.282484 1_545
O0_0 Sm4_4 2.283454 1_455
O0_0 Sm2_0 2.288240 1_555
O0_0 Sm6_0 3.025459 1_555
O0_1 Sm4_3 2.282484 1_545
O0_1 Sm4_5 2.283454 1_455
O0_1 Sm2_1 2.288240 1_555
O0_1 Sm6_1 3.025459 1_555
O0_2 Sm4_0 2.282484 1_555
O0_2 Sm4_6 2.283454 1_455
O0_2 Sm2_2 2.288240 1_555
O0_2 Sm6_2 3.025459 1_555
O0_3 Sm4_1 2.282484 1_555
O0_3 Sm4_7 2.283454 1_455
O0_3 Sm2_3 2.288240 1_555
O0_3 Sm6_3 3.025459 1_555
O0_4 Sm4_6 2.282484 1_545
O0_4 Sm4_0 2.283454 1_555
O0_4 Sm2_4 2.288240 1_555
O0_4 Sm6_4 3.025459 1_555
O0_5 Sm4_7 2.282484 1_545
O0_5 Sm4_1 2.283454 1_555
O0_5 Sm2_5 2.288240 1_555
O0_5 Sm6_5 3.025459 1_555
O0_6 Sm4_4 2.282484 1_555
O0_6 Sm4_2 2.283454 1_555
O0_6 Sm2_6 2.288240 1_555
O0_6 Sm6_6 3.025459 1_555
O0_7 Sm4_5 2.282484 1_555
O0_7 Sm4_3 2.283454 1_555
O0_7 Sm2_7 2.288240 1_555
O0_7 Sm6_7 3.025459 1_555
O1_0 Sm5_4 2.282484 1_555
O1_0 Sm5_2 2.283454 1_555
O1_0 Sm3_0 2.288240 1_555
O1_0 Sm7_0 3.025459 1_555
O1_1 Sm5_5 2.282484 1_555
O1_1 Sm5_3 2.283454 1_555
O1_1 Sm3_1 2.288240 1_555
O1_1 Sm7_1 3.025459 1_555
O1_2 Sm5_6 2.282484 1_555
O1_2 Sm5_0 2.283454 1_565
O1_2 Sm3_2 2.288240 1_555
O1_2 Sm7_2 3.025459 1_555
O1_3 Sm5_7 2.282484 1_555
O1_3 Sm5_1 2.283454 1_565
O1_3 Sm3_3 2.288240 1_555
O1_3 Sm7_3 3.025459 1_555
O1_4 Sm5_0 2.282484 1_655
O1_4 Sm5_6 2.283454 1_555
O1_4 Sm3_4 2.288240 1_555
O1_4 Sm7_4 3.025459 1_555
O1_5 Sm5_1 2.282484 1_655
O1_5 Sm5_7 2.283454 1_555
O1_5 Sm3_5 2.288240 1_555
O1_5 Sm7_5 3.025459 1_555
O1_6 Sm5_2 2.282484 1_655
O1_6 Sm5_4 2.283454 1_565
O1_6 Sm3_6 2.288240 1_555
O1_6 Sm7_6 3.025459 1_555
O1_7 Sm5_3 2.282484 1_655
O1_7 Sm5_5 2.283454 1_565
O1_7 Sm3_7 2.288240 1_555
O1_7 Sm7_7 3.025459 1_555
O2_0 Sm4_0 2.283855 1_555
O2_0 Sm6_2 2.290032 1_555
O2_0 Sm6_4 2.303466 1_555
O2_0 Sm0_0 2.385018 1_555
O2_0 O6_4 2.821234 1_555
O2_0 O6_2 2.830019 1_555
O2_0 Sb0_6 3.786053 1_555
O2_1 Sm4_1 2.283855 1_555
O2_1 Sm6_3 2.290032 1_555
O2_1 Sm6_5 2.303466 1_555
O2_1 Sm0_1 2.385018 1_555
O2_1 O6_5 2.821234 1_555
O2_1 O6_3 2.830019 1_555
O2_1 Sb0_7 3.786053 1_555
O2_2 Sm4_2 2.283855 1_555
O2_2 Sm6_0 2.290032 1_565
O2_2 Sm6_6 2.303466 1_555
O2_2 Sm0_2 2.385018 1_555
O2_2 O6_6 2.821234 1_555
O2_2 O6_0 2.830019 1_565
O2_2 Sb0_4 3.786053 1_565
O2_3 Sm4_3 2.283855 1_555
O2_3 Sm6_1 2.290032 1_565
O2_3 Sm6_7 2.303466 1_555
O2_3 Sm0_3 2.385018 1_555
O2_3 O6_7 2.821234 1_555
O2_3 O6_1 2.830019 1_565
O2_3 Sb0_5 3.786053 1_565
O2_4 Sm4_4 2.283855 1_555
O2_4 Sm6_6 2.290032 1_555
O2_4 Sm6_0 2.303466 1_655
O2_4 Sm0_4 2.385018 1_555
O2_4 O6_0 2.821234 1_655
O2_4 O6_6 2.830019 1_555
O2_4 Sb0_2 3.786053 1_655
O2_5 Sm4_5 2.283855 1_555
O2_5 Sm6_7 2.290032 1_555
O2_5 Sm6_1 2.303466 1_655
O2_5 Sm0_5 2.385018 1_555
O2_5 O6_1 2.821234 1_655
O2_5 O6_7 2.830019 1_555
O2_5 Sb0_3 3.786053 1_655
O2_6 Sm4_6 2.283855 1_555
O2_6 Sm6_4 2.290032 1_565
O2_6 Sm6_2 2.303466 1_655
O2_6 Sm0_6 2.385018 1_555
O2_6 O6_2 2.821234 1_655
O2_6 O6_4 2.830019 1_565
O2_6 Sb0_0 3.786053 1_665
O2_7 Sm4_7 2.283855 1_555
O2_7 Sm6_5 2.290032 1_565
O2_7 Sm6_3 2.303466 1_655
O2_7 Sm0_7 2.385018 1_555
O2_7 O6_3 2.821234 1_655
O2_7 O6_5 2.830019 1_565
O2_7 Sb0_1 3.786053 1_665
O3_0 Sm5_0 2.283855 1_555
O3_0 Sm7_4 2.290032 1_455
O3_0 Sm7_2 2.303466 1_545
O3_0 Sm1_0 2.385018 1_555
O3_0 O7_2 2.821234 1_545
O3_0 O7_4 2.830019 1_455
O3_0 Sb1_6 3.786053 1_445
O3_1 Sm5_1 2.283855 1_555
O3_1 Sm7_5 2.290032 1_455
O3_1 Sm7_3 2.303466 1_545
O3_1 Sm1_1 2.385018 1_555
O3_1 O7_3 2.821234 1_545
O3_1 O7_5 2.830019 1_455
O3_1 Sb1_7 3.786053 1_445
O3_2 Sm5_2 2.283855 1_555
O3_2 Sm7_6 2.290032 1_455
O3_2 Sm7_0 2.303466 1_555
O3_2 Sm1_2 2.385018 1_555
O3_2 O7_0 2.821234 1_555
O3_2 O7_6 2.830019 1_455
O3_2 Sb1_4 3.786053 1_455
O3_3 Sm5_3 2.283855 1_555
O3_3 Sm7_7 2.290032 1_455
O3_3 Sm7_1 2.303466 1_555
O3_3 Sm1_3 2.385018 1_555
O3_3 O7_1 2.821234 1_555
O3_3 O7_7 2.830019 1_455
O3_3 Sb1_5 3.786053 1_455
O3_4 Sm5_4 2.283855 1_555
O3_4 Sm7_0 2.290032 1_555
O3_4 Sm7_6 2.303466 1_545
O3_4 Sm1_4 2.385018 1_555
O3_4 O7_6 2.821234 1_545
O3_4 O7_0 2.830019 1_555
O3_4 Sb1_2 3.786053 1_545
O3_5 Sm5_5 2.283855 1_555
O3_5 Sm7_1 2.290032 1_555
O3_5 Sm7_7 2.303466 1_545
O3_5 Sm1_5 2.385018 1_555
O3_5 O7_7 2.821234 1_545
O3_5 O7_1 2.830019 1_555
O3_5 Sb1_3 3.786053 1_545
O3_6 Sm5_6 2.283855 1_555
O3_6 Sm7_2 2.290032 1_555
O3_6 Sm7_4 2.303466 1_555
O3_6 Sm1_6 2.385018 1_555
O3_6 O7_4 2.821234 1_555
O3_6 O7_2 2.830019 1_555
O3_6 Sb1_0 3.786053 1_555
O3_7 Sm5_7 2.283855 1_555
O3_7 Sm7_3 2.290032 1_555
O3_7 Sm7_5 2.303466 1_555
O3_7 Sm1_7 2.385018 1_555
O3_7 O7_5 2.821234 1_555
O3_7 O7_3 2.830019 1_555
O3_7 Sb1_1 3.786053 1_555
O4_0 Sm2_2 2.294363 1_545
O4_0 Sm2_4 2.295582 1_455
O4_0 Sm5_0 2.390764 1_555
O4_0 Sm3_0 2.517432 1_555
O4_1 Sm2_3 2.294363 1_545
O4_1 Sm2_5 2.295582 1_455
O4_1 Sm5_1 2.390764 1_555
O4_1 Sm3_1 2.517432 1_555
O4_2 Sm2_0 2.294363 1_555
O4_2 Sm2_6 2.295582 1_455
O4_2 Sm5_2 2.390764 1_555
O4_2 Sm3_2 2.517432 1_555
O4_3 Sm2_1 2.294363 1_555
O4_3 Sm2_7 2.295582 1_455
O4_3 Sm5_3 2.390764 1_555
O4_3 Sm3_3 2.517432 1_555
O4_4 Sm2_6 2.294363 1_545
O4_4 Sm2_0 2.295582 1_555
O4_4 Sm5_4 2.390764 1_555
O4_4 Sm3_4 2.517432 1_555
O4_5 Sm2_7 2.294363 1_545
O4_5 Sm2_1 2.295582 1_555
O4_5 Sm5_5 2.390764 1_555
O4_5 Sm3_5 2.517432 1_555
O4_6 Sm2_4 2.294363 1_555
O4_6 Sm2_2 2.295582 1_555
O4_6 Sm5_6 2.390764 1_555
O4_6 Sm3_6 2.517432 1_555
O4_7 Sm2_5 2.294363 1_555
O4_7 Sm2_3 2.295582 1_555
O4_7 Sm5_7 2.390764 1_555
O4_7 Sm3_7 2.517432 1_555
O5_0 Sm3_4 2.294363 1_555
O5_0 Sm3_2 2.295582 1_555
O5_0 Sm4_0 2.390764 1_555
O5_0 Sm2_0 2.517432 1_555
O5_1 Sm3_5 2.294363 1_555
O5_1 Sm3_3 2.295582 1_555
O5_1 Sm4_1 2.390764 1_555
O5_1 Sm2_1 2.517432 1_555
O5_2 Sm3_6 2.294363 1_555
O5_2 Sm3_0 2.295582 1_565
O5_2 Sm4_2 2.390764 1_555
O5_2 Sm2_2 2.517432 1_555
O5_3 Sm3_7 2.294363 1_555
O5_3 Sm3_1 2.295582 1_565
O5_3 Sm4_3 2.390764 1_555
O5_3 Sm2_3 2.517432 1_555
O5_4 Sm3_0 2.294363 1_655
O5_4 Sm3_6 2.295582 1_555
O5_4 Sm4_4 2.390764 1_555
O5_4 Sm2_4 2.517432 1_555
O5_5 Sm3_1 2.294363 1_655
O5_5 Sm3_7 2.295582 1_555
O5_5 Sm4_5 2.390764 1_555
O5_5 Sm2_5 2.517432 1_555
O5_6 Sm3_2 2.294363 1_655
O5_6 Sm3_4 2.295582 1_565
O5_6 Sm4_6 2.390764 1_555
O5_6 Sm2_6 2.517432 1_555
O5_7 Sm3_3 2.294363 1_655
O5_7 Sm3_5 2.295582 1_565
O5_7 Sm4_7 2.390764 1_555
O5_7 Sm2_7 2.517432 1_555
O6_0 Sm0_4 2.273180 1_455
O6_0 Sm6_0 2.280579 1_555
O6_0 Sm0_2 2.284491 1_545
O6_0 Sm1_1 2.333479 1_555
O6_0 O7_5 2.825542 1_455
O6_0 O7_3 2.825542 1_545
O6_0 Sb2_1 3.714256 1_555
O6_1 Sm0_5 2.273180 1_455
O6_1 Sm6_1 2.280579 1_555
O6_1 Sm0_3 2.284491 1_545
O6_1 Sm1_0 2.333479 1_556
O6_1 O7_4 2.825542 1_456
O6_1 O7_2 2.825542 1_546
O6_1 Sb2_0 3.714256 1_556
O6_2 Sm0_6 2.273180 1_455
O6_2 Sm6_2 2.280579 1_555
O6_2 Sm0_0 2.284491 1_555
O6_2 Sm1_3 2.333479 1_555
O6_2 O7_7 2.825542 1_455
O6_2 O7_1 2.825542 1_555
O6_2 Sb2_3 3.714256 1_555
O6_3 Sm0_7 2.273180 1_455
O6_3 Sm6_3 2.280579 1_555
O6_3 Sm0_1 2.284491 1_555
O6_3 Sm1_2 2.333479 1_556
O6_3 O7_6 2.825542 1_456
O6_3 O7_0 2.825542 1_556
O6_3 Sb2_2 3.714256 1_556
O6_4 Sm0_0 2.273180 1_555
O6_4 Sm6_4 2.280579 1_555
O6_4 Sm0_6 2.284491 1_545
O6_4 Sm1_5 2.333479 1_555
O6_4 O7_1 2.825542 1_555
O6_4 O7_7 2.825542 1_545
O6_4 Sb2_5 3.714256 1_555
O6_5 Sm0_1 2.273180 1_555
O6_5 Sm6_5 2.280579 1_555
O6_5 Sm0_7 2.284491 1_545
O6_5 Sm1_4 2.333479 1_556
O6_5 O7_0 2.825542 1_556
O6_5 O7_6 2.825542 1_546
O6_5 Sb2_4 3.714256 1_556
O6_6 Sm0_2 2.273180 1_555
O6_6 Sm6_6 2.280579 1_555
O6_6 Sm0_4 2.284491 1_555
O6_6 Sm1_7 2.333479 1_555
O6_6 O7_3 2.825542 1_555
O6_6 O7_5 2.825542 1_555
O6_6 Sb2_7 3.714256 1_555
O6_7 Sm0_3 2.273180 1_555
O6_7 Sm6_7 2.280579 1_555
O6_7 Sm0_5 2.284491 1_555
O6_7 Sm1_6 2.333479 1_556
O6_7 O7_2 2.825542 1_556
O6_7 O7_4 2.825542 1_556
O6_7 Sb2_6 3.714256 1_556
O7_0 Sm1_2 2.273180 1_555
O7_0 Sm7_0 2.280579 1_555
O7_0 Sm1_4 2.284491 1_555
O7_0 Sm0_1 2.333479 1_554
O7_0 Sb2_0 3.714256 1_555
O7_1 Sm1_3 2.273180 1_555
O7_1 Sm7_1 2.280579 1_555
O7_1 Sm1_5 2.284491 1_555
O7_1 Sm0_0 2.333479 1_555
O7_1 Sb2_1 3.714256 1_555
O7_2 Sm1_0 2.273180 1_565
O7_2 Sm7_2 2.280579 1_555
O7_2 Sm1_6 2.284491 1_555
O7_2 Sm0_3 2.333479 1_554
O7_2 Sb2_2 3.714256 1_555
O7_3 Sm1_1 2.273180 1_565
O7_3 Sm7_3 2.280579 1_555
O7_3 Sm1_7 2.284491 1_555
O7_3 Sm0_2 2.333479 1_555
O7_3 Sb2_3 3.714256 1_555
O7_4 Sm1_6 2.273180 1_555
O7_4 Sm7_4 2.280579 1_555
O7_4 Sm1_0 2.284491 1_655
O7_4 Sm0_5 2.333479 1_554
O7_4 Sb2_4 3.714256 1_555
O7_5 Sm1_7 2.273180 1_555
O7_5 Sm7_5 2.280579 1_555
O7_5 Sm1_1 2.284491 1_655
O7_5 Sm0_4 2.333479 1_555
O7_5 Sb2_5 3.714256 1_555
O7_6 Sm1_4 2.273180 1_565
O7_6 Sm7_6 2.280579 1_555
O7_6 Sm1_2 2.284491 1_655
O7_6 Sm0_7 2.333479 1_554
O7_6 Sb2_6 3.714256 1_555
O7_7 Sm1_5 2.273180 1_565
O7_7 Sm7_7 2.280579 1_555
O7_7 Sm1_3 2.284491 1_655
O7_7 Sm0_6 2.333479 1_555
O7_7 Sb2_7 3.714256 1_555
