# generated using pymatgen
data_Gd2VFeO6
_symmetry_space_group_name_H-M   'P 1'
_cell_length_a   5.75909900
_cell_length_b   5.42260500
_cell_length_c   9.24149748
_cell_angle_alpha   55.53443893
_cell_angle_beta   90.00000000
_cell_angle_gamma   90.00000000
_symmetry_Int_Tables_number   1
_chemical_formula_structural   Gd2VFeO6
_chemical_formula_sum   'Gd4 V2 Fe2 O12'
_cell_volume   237.94570665
_cell_formula_units_Z   2
loop_
 _symmetry_equiv_pos_site_id
 _symmetry_equiv_pos_as_xyz
  1  'x, y, z'
loop_
 _atom_site_type_symbol
 _atom_site_label
 _atom_site_symmetry_multiplicity
 _atom_site_fract_x
 _atom_site_fract_y
 _atom_site_fract_z
 _atom_site_occupancy
  Gd  Gd0  1  0.56987800  0.72506300  0.75196900  1
  Gd  Gd1  1  0.06987800  0.27493700  0.74803100  1
  Gd  Gd2  1  0.43012200  0.27493700  0.24803100  1
  Gd  Gd3  1  0.93012200  0.72506300  0.25196900  1
  V  V0  1  0.00000000  0.00000000  0.50000000  1
  V  V1  1  0.50000000  0.00000000  0.00000000  1
  Fe  Fe0  1  0.00000000  0.50000000  0.00000000  1
  Fe  Fe1  1  0.50000000  0.50000000  0.50000000  1
  O  O0  1  0.79603300  0.23999400  0.94210500  1
  O  O1  1  0.29603300  0.76000600  0.55789500  1
  O  O2  1  0.18371000  0.35162100  0.44597900  1
  O  O3  1  0.68371000  0.64837900  0.05402100  1
  O  O4  1  0.20396700  0.76000600  0.05789500  1
  O  O5  1  0.70396700  0.23999400  0.44210500  1
  O  O6  1  0.81629000  0.64837900  0.55402100  1
  O  O7  1  0.31629000  0.35162100  0.94597900  1
  O  O8  1  0.96570900  0.87273600  0.73766000  1
  O  O9  1  0.46570900  0.12726400  0.76234000  1
  O  O10  1  0.03429100  0.12726400  0.26234000  1
  O  O11  1  0.53429100  0.87273600  0.23766000  1
loop_
_geom_bond_atom_site_label_1
_geom_bond_atom_site_label_2
_geom_bond_distance
_geom_bond_site_symmetry_2
Gd0 O7 2.310604 1_555
Gd0 O1 2.314146 1_555
Gd0 O9 2.315672 1_565
Gd0 O8 2.394908 1_555
Gd0 O6 2.528680 1_555
Gd0 O0 2.543906 1_555
Gd0 O3 2.660999 1_556
Gd0 O5 2.746516 1_565
Gd1 O6 2.310604 1_455
Gd1 O0 2.314146 1_455
Gd1 O8 2.315672 1_445
Gd1 O9 2.394908 1_555
Gd1 O7 2.528680 1_555
Gd1 O1 2.543906 1_555
Gd1 O2 2.660999 1_555
Gd1 O4 2.746516 1_546
Gd2 O3 2.310604 1_555
Gd2 O5 2.314146 1_555
Gd2 O11 2.315672 1_545
Gd2 O10 2.394908 1_555
Gd2 O2 2.528680 1_555
Gd2 O4 2.543906 1_555
Gd2 O7 2.660999 1_554
Gd2 O1 2.746516 1_545
Gd3 O2 2.310604 1_655
Gd3 O4 2.314146 1_655
Gd3 O10 2.315672 1_665
Gd3 O11 2.394908 1_555
Gd3 O3 2.528680 1_555
Gd3 O5 2.543906 1_555
Gd3 O6 2.660999 1_555
Gd3 O0 2.746516 1_564
Fe0 O10 2.110889 1_555
Fe0 O8 2.110889 1_454
Fe0 O4 2.123145 1_555
Fe0 O0 2.123145 1_454
Fe0 O3 2.160852 1_455
Fe0 O7 2.160852 1_554
Fe1 O11 2.110889 1_555
Fe1 O9 2.110889 1_555
Fe1 O1 2.123145 1_555
Fe1 O5 2.123145 1_555
Fe1 O6 2.160852 1_555
Fe1 O2 2.160852 1_555
O0 V1 2.024459 1_556
O1 V0 2.024459 1_565
O2 V0 1.981602 1_555
O3 V1 1.981602 1_565
O4 V1 2.024459 1_565
O5 V0 2.024459 1_655
O6 V0 1.981602 1_665
O7 V1 1.981602 1_556
O8 V0 1.903583 1_665
O9 V1 1.903583 1_556
O10 V0 1.903583 1_555
O11 V1 1.903583 1_565
