# generated using pymatgen
data_CaLa2VO6
_symmetry_space_group_name_H-M   'P 1'
_cell_length_a   5.69177148
_cell_length_b   5.69177148
_cell_length_c   5.69177120
_cell_angle_alpha   62.37379971
_cell_angle_beta   62.37379971
_cell_angle_gamma   62.37379654
_symmetry_Int_Tables_number   1
_chemical_formula_structural   CaLa2VO6
_chemical_formula_sum   'Ca1 La2 V1 O6'
_cell_volume   137.28887287
_cell_formula_units_Z   1
loop_
 _symmetry_equiv_pos_site_id
 _symmetry_equiv_pos_as_xyz
  1  'x, y, z'
loop_
 _atom_site_type_symbol
 _atom_site_label
 _atom_site_symmetry_multiplicity
 _atom_site_fract_x
 _atom_site_fract_y
 _atom_site_fract_z
 _atom_site_occupancy
  Ca  Ca0  1  0.50000000  0.50000000  0.50000000  1
  La  La0  1  0.76139200  0.76139200  0.76139200  1
  La  La1  1  0.23860800  0.23860800  0.23860800  1
  V  V0  1  0.00000000  0.00000000  0.00000000  1
  O  O0  1  0.78575500  0.32935800  0.13113900  1
  O  O1  1  0.13113900  0.78575500  0.32935800  1
  O  O2  1  0.32935800  0.13113900  0.78575500  1
  O  O3  1  0.21424500  0.67064200  0.86886100  1
  O  O4  1  0.67064200  0.86886100  0.21424500  1
  O  O5  1  0.86886100  0.21424500  0.67064200  1
loop_
_geom_bond_atom_site_label_1
_geom_bond_atom_site_label_2
_geom_bond_distance
_geom_bond_site_symmetry_2
Ca0 O3 2.292541 1_555
Ca0 O0 2.292541 1_555
Ca0 O5 2.292541 1_555
Ca0 O1 2.292541 1_555
Ca0 O2 2.292541 1_555
Ca0 O4 2.292541 1_555
La0 O2 2.376995 1_565
La0 O1 2.376995 1_655
La0 O0 2.376995 1_556
La0 O4 2.686840 1_556
La0 O3 2.686840 1_655
La0 O5 2.686841 1_565
La0 O4 3.125951 1_555
La0 O5 3.125952 1_555
La0 O3 3.125952 1_555
La1 O4 2.376995 1_545
La1 O5 2.376995 1_455
La1 O3 2.376995 1_554
La1 O2 2.686840 1_554
La1 O0 2.686840 1_455
La1 O1 2.686841 1_545
La1 O2 3.125951 1_555
La1 O1 3.125952 1_555
La1 O0 3.125952 1_555
O0 V0 1.972791 1_655
O0 O5 2.770976 1_554
O0 O4 2.770976 1_545
O1 V0 1.972791 1_565
O1 O3 2.770976 1_554
O1 O4 2.770976 1_455
O2 V0 1.972791 1_556
O2 O5 2.770976 1_455
O2 O3 2.770976 1_545
O3 V0 1.972791 1_566
O4 V0 1.972791 1_665
O5 V0 1.972791 1_656
