# generated using pymatgen
data_LiFe
_symmetry_space_group_name_H-M   'P 1'
_cell_length_a   4.75231200
_cell_length_b   9.36146578
_cell_length_c   9.12028600
_cell_angle_alpha   90.00000000
_cell_angle_beta   90.00000000
_cell_angle_gamma   104.70385781
_symmetry_Int_Tables_number   1
_chemical_formula_structural   LiFe
_chemical_formula_sum   'Li16 Fe16'
_cell_volume   392.46080814
_cell_formula_units_Z   16
loop_
 _symmetry_equiv_pos_site_id
 _symmetry_equiv_pos_as_xyz
  1  'x, y, z'
loop_
 _atom_site_type_symbol
 _atom_site_label
 _atom_site_symmetry_multiplicity
 _atom_site_fract_x
 _atom_site_fract_y
 _atom_site_fract_z
 _atom_site_occupancy
  Li  Li0_0  1  0.00000000  0.00000000  0.00000000  1
  Li  Li0_1  1  0.00000000  0.00000000  0.50000000  1
  Li  Li0_2  1  0.00000000  0.50000000  0.00000000  1
  Li  Li0_3  1  0.00000000  0.50000000  0.50000000  1
  Li  Li0_4  1  0.50000000  0.00000000  0.00000000  1
  Li  Li0_5  1  0.50000000  0.00000000  0.50000000  1
  Li  Li0_6  1  0.50000000  0.50000000  0.00000000  1
  Li  Li0_7  1  0.50000000  0.50000000  0.50000000  1
  Li  Li1_0  1  0.00000000  0.00000000  0.25000000  1
  Li  Li1_1  1  0.00000000  0.00000000  0.75000000  1
  Li  Li1_2  1  0.00000000  0.50000000  0.25000000  1
  Li  Li1_3  1  0.00000000  0.50000000  0.75000000  1
  Li  Li1_4  1  0.50000000  0.00000000  0.25000000  1
  Li  Li1_5  1  0.50000000  0.00000000  0.75000000  1
  Li  Li1_6  1  0.50000000  0.50000000  0.25000000  1
  Li  Li1_7  1  0.50000000  0.50000000  0.75000000  1
  Fe  Fe0_0  1  0.12832150  0.25664250  0.12500000  1
  Fe  Fe0_1  1  0.12832150  0.25664250  0.62500000  1
  Fe  Fe0_2  1  0.12832150  0.75664250  0.12500000  1
  Fe  Fe0_3  1  0.12832150  0.75664250  0.62500000  1
  Fe  Fe0_4  1  0.62832150  0.25664250  0.12500000  1
  Fe  Fe0_5  1  0.62832150  0.25664250  0.62500000  1
  Fe  Fe0_6  1  0.62832150  0.75664250  0.12500000  1
  Fe  Fe0_7  1  0.62832150  0.75664250  0.62500000  1
  Fe  Fe1_0  1  0.37167850  0.24335700  0.37500000  1
  Fe  Fe1_1  1  0.37167850  0.24335700  0.87500000  1
  Fe  Fe1_2  1  0.37167850  0.74335700  0.37500000  1
  Fe  Fe1_3  1  0.37167850  0.74335700  0.87500000  1
  Fe  Fe1_4  1  0.87167850  0.24335700  0.37500000  1
  Fe  Fe1_5  1  0.87167850  0.24335700  0.87500000  1
  Fe  Fe1_6  1  0.87167850  0.74335700  0.37500000  1
  Fe  Fe1_7  1  0.87167850  0.74335700  0.87500000  1
loop_
_geom_bond_atom_site_label_1
_geom_bond_atom_site_label_2
_geom_bond_distance
_geom_bond_site_symmetry_2
Li0_0 Li1_1 2.280072 1_554
Li0_0 Li1_0 2.280072 1_555
Li0_0 Li0_4 2.376156 1_455
Li0_0 Li0_4 2.376156 1_555
Li0_1 Li1_0 2.280072 1_555
Li0_1 Li1_1 2.280072 1_555
Li0_1 Li0_5 2.376156 1_455
Li0_1 Li0_5 2.376156 1_555
Li0_2 Li1_3 2.280072 1_554
Li0_2 Li1_2 2.280072 1_555
Li0_2 Li0_6 2.376156 1_555
Li0_2 Li0_6 2.376156 1_455
Li0_3 Li1_2 2.280072 1_555
Li0_3 Li1_3 2.280072 1_555
Li0_3 Li0_7 2.376156 1_555
Li0_3 Li0_7 2.376156 1_455
Li0_4 Li1_5 2.280072 1_554
Li0_4 Li1_4 2.280072 1_555
Li0_5 Li1_5 2.280072 1_555
Li0_5 Li1_4 2.280072 1_555
Li0_6 Li1_7 2.280072 1_554
Li0_6 Li1_6 2.280072 1_555
Li0_7 Li1_7 2.280072 1_555
Li0_7 Li1_6 2.280072 1_555
Li1_0 Li1_4 2.376156 1_455
Li1_0 Li1_4 2.376156 1_555
Li1_1 Li1_5 2.376156 1_455
Li1_1 Li1_5 2.376156 1_555
Li1_2 Li1_6 2.376156 1_455
Li1_2 Li1_6 2.376156 1_555
Li1_3 Li1_7 2.376156 1_455
Li1_3 Li1_7 2.376156 1_555
Fe0_0 Fe0_4 2.376156 1_455
Fe0_0 Fe0_4 2.376156 1_555
Fe0_0 Fe1_0 2.573854 1_555
Fe0_0 Fe1_1 2.573854 1_554
Fe0_0 Fe1_5 2.573855 1_454
Fe0_0 Fe1_4 2.573855 1_455
Fe0_0 Li0_0 2.588444 1_555
Fe0_0 Li1_0 2.588444 1_555
Fe0_0 Li0_6 2.750808 1_555
Fe0_0 Li1_6 2.750808 1_555
Fe0_0 Li0_2 2.750809 1_555
Fe0_0 Li1_2 2.750809 1_555
Fe0_1 Fe0_5 2.376156 1_555
Fe0_1 Fe0_5 2.376156 1_455
Fe0_1 Fe1_1 2.573854 1_555
Fe0_1 Fe1_0 2.573854 1_555
Fe0_1 Fe1_4 2.573855 1_455
Fe0_1 Fe1_5 2.573855 1_455
Fe0_1 Li1_1 2.588444 1_555
Fe0_1 Li0_1 2.588444 1_555
Fe0_1 Li1_7 2.750808 1_555
Fe0_1 Li0_7 2.750808 1_555
Fe0_1 Li1_3 2.750809 1_555
Fe0_1 Li0_3 2.750809 1_555
Fe0_2 Fe0_6 2.376156 1_455
Fe0_2 Fe0_6 2.376156 1_555
Fe0_2 Fe1_2 2.573854 1_555
Fe0_2 Fe1_3 2.573854 1_554
Fe0_2 Fe1_6 2.573855 1_455
Fe0_2 Fe1_7 2.573855 1_454
Fe0_2 Li1_2 2.588444 1_555
Fe0_2 Li0_2 2.588444 1_555
Fe0_2 Li0_4 2.750808 1_565
Fe0_2 Li1_4 2.750808 1_565
Fe0_2 Li1_0 2.750809 1_565
Fe0_2 Li0_0 2.750809 1_565
Fe0_3 Fe0_7 2.376156 1_455
Fe0_3 Fe0_7 2.376156 1_555
Fe0_3 Fe1_2 2.573854 1_555
Fe0_3 Fe1_3 2.573854 1_555
Fe0_3 Fe1_7 2.573855 1_455
Fe0_3 Fe1_6 2.573855 1_455
Fe0_3 Li0_3 2.588444 1_555
Fe0_3 Li1_3 2.588444 1_555
Fe0_3 Li0_5 2.750808 1_565
Fe0_3 Li1_5 2.750808 1_565
Fe0_3 Li1_1 2.750809 1_565
Fe0_3 Li0_1 2.750809 1_565
Fe0_4 Fe1_4 2.573854 1_555
Fe0_4 Fe1_5 2.573854 1_554
Fe0_4 Fe1_0 2.573855 1_555
Fe0_4 Fe1_1 2.573855 1_554
Fe0_4 Li0_4 2.588444 1_555
Fe0_4 Li1_4 2.588444 1_555
Fe0_4 Li1_2 2.750808 1_655
Fe0_4 Li0_2 2.750808 1_655
Fe0_4 Li0_6 2.750809 1_555
Fe0_4 Li1_6 2.750809 1_555
Fe0_5 Fe1_4 2.573854 1_555
Fe0_5 Fe1_5 2.573854 1_555
Fe0_5 Fe1_1 2.573855 1_555
Fe0_5 Fe1_0 2.573855 1_555
Fe0_5 Li0_5 2.588444 1_555
Fe0_5 Li1_5 2.588444 1_555
Fe0_5 Li1_3 2.750808 1_655
Fe0_5 Li0_3 2.750808 1_655
Fe0_5 Li1_7 2.750809 1_555
Fe0_5 Li0_7 2.750809 1_555
Fe0_6 Fe1_6 2.573854 1_555
Fe0_6 Fe1_7 2.573854 1_554
Fe0_6 Fe1_2 2.573855 1_555
Fe0_6 Fe1_3 2.573855 1_554
Fe0_6 Li0_6 2.588444 1_555
Fe0_6 Li1_6 2.588444 1_555
Fe0_6 Li1_0 2.750808 1_665
Fe0_6 Li0_0 2.750808 1_665
Fe0_6 Li1_4 2.750809 1_565
Fe0_6 Li0_4 2.750809 1_565
Fe0_7 Fe1_6 2.573854 1_555
Fe0_7 Fe1_7 2.573854 1_555
Fe0_7 Fe1_2 2.573855 1_555
Fe0_7 Fe1_3 2.573855 1_555
Fe0_7 Li0_7 2.588444 1_555
Fe0_7 Li1_7 2.588444 1_555
Fe0_7 Li1_1 2.750808 1_665
Fe0_7 Li0_1 2.750808 1_665
Fe0_7 Li0_5 2.750809 1_565
Fe0_7 Li1_5 2.750809 1_565
Fe1_0 Fe1_4 2.376156 1_455
Fe1_0 Fe1_4 2.376156 1_555
Fe1_0 Li0_7 2.588448 1_555
Fe1_0 Li1_6 2.588448 1_555
Fe1_0 Li1_0 2.750805 1_555
Fe1_0 Li0_1 2.750805 1_555
Fe1_0 Li0_5 2.750805 1_555
Fe1_0 Li1_4 2.750805 1_555
Fe1_1 Fe1_5 2.376156 1_455
Fe1_1 Fe1_5 2.376156 1_555
Fe1_1 Li0_6 2.588448 1_556
Fe1_1 Li1_7 2.588448 1_555
Fe1_1 Li1_1 2.750805 1_555
Fe1_1 Li0_0 2.750805 1_556
Fe1_1 Li0_4 2.750805 1_556
Fe1_1 Li1_5 2.750805 1_555
Fe1_2 Fe1_6 2.376156 1_455
Fe1_2 Fe1_6 2.376156 1_555
Fe1_2 Li0_5 2.588448 1_565
Fe1_2 Li1_4 2.588448 1_565
Fe1_2 Li0_3 2.750805 1_555
Fe1_2 Li1_2 2.750805 1_555
Fe1_2 Li0_7 2.750805 1_555
Fe1_2 Li1_6 2.750805 1_555
Fe1_3 Fe1_7 2.376156 1_455
Fe1_3 Fe1_7 2.376156 1_555
Fe1_3 Li1_5 2.588448 1_565
Fe1_3 Li0_4 2.588448 1_566
Fe1_3 Li1_3 2.750805 1_555
Fe1_3 Li0_2 2.750805 1_556
Fe1_3 Li1_7 2.750805 1_555
Fe1_3 Li0_6 2.750805 1_556
Fe1_4 Li0_3 2.588448 1_655
Fe1_4 Li1_2 2.588448 1_655
Fe1_4 Li0_5 2.750805 1_555
Fe1_4 Li1_4 2.750805 1_555
Fe1_4 Li1_0 2.750805 1_655
Fe1_4 Li0_1 2.750805 1_655
Fe1_5 Li1_3 2.588448 1_655
Fe1_5 Li0_2 2.588448 1_656
Fe1_5 Li0_4 2.750805 1_556
Fe1_5 Li1_5 2.750805 1_555
Fe1_5 Li1_1 2.750805 1_655
Fe1_5 Li0_0 2.750805 1_656
Fe1_6 Li1_0 2.588448 1_665
Fe1_6 Li0_1 2.588448 1_665
Fe1_6 Li1_6 2.750805 1_555
Fe1_6 Li0_7 2.750805 1_555
Fe1_6 Li1_2 2.750805 1_655
Fe1_6 Li0_3 2.750805 1_655
Fe1_7 Li1_1 2.588448 1_665
Fe1_7 Li0_0 2.588448 1_666
Fe1_7 Li1_7 2.750805 1_555
Fe1_7 Li0_6 2.750805 1_556
Fe1_7 Li1_3 2.750805 1_655
Fe1_7 Li0_2 2.750805 1_656
