# generated using pymatgen
data_Ba2Mn(BO2)6
_symmetry_space_group_name_H-M   'P 1'
_cell_length_a   7.19169066
_cell_length_b   12.33121618
_cell_length_c   12.45637470
_cell_angle_alpha   80.30761779
_cell_angle_beta   90.00000338
_cell_angle_gamma   73.04592345
_symmetry_Int_Tables_number   1
_chemical_formula_structural   Ba2Mn(BO2)6
_chemical_formula_sum   'Ba8 Mn4 B24 O48'
_cell_volume   1040.15439197
_cell_formula_units_Z   4
loop_
 _symmetry_equiv_pos_site_id
 _symmetry_equiv_pos_as_xyz
  1  'x, y, z'
loop_
 _atom_site_type_symbol
 _atom_site_label
 _atom_site_symmetry_multiplicity
 _atom_site_fract_x
 _atom_site_fract_y
 _atom_site_fract_z
 _atom_site_occupancy
  Ba  Ba0  1  0.90608400  0.18783200  0.30202800  1
  Ba  Ba1  1  0.65608400  0.68783200  0.55202800  1
  Ba  Ba2  1  0.40608400  0.18783200  0.80202800  1
  Ba  Ba3  1  0.15608400  0.68783200  0.05202800  1
  Ba  Ba4  1  0.34391600  0.31216800  0.44797200  1
  Ba  Ba5  1  0.09391600  0.81216800  0.69797200  1
  Ba  Ba6  1  0.84391600  0.31216800  0.94797200  1
  Ba  Ba7  1  0.59391600  0.81216800  0.19797200  1
  Mn  Mn0  1  0.50000000  0.00000000  0.50000000  1
  Mn  Mn1  1  0.25000000  0.50000000  0.75000000  1
  Mn  Mn2  1  0.00000000  0.00000000  0.00000000  1
  Mn  Mn3  1  0.75000000  0.50000000  0.25000000  1
  B  B0  1  0.38510500  0.61907500  0.37031900  1
  B  B1  1  0.13510500  0.11907500  0.62031900  1
  B  B2  1  0.88510500  0.61907500  0.87031900  1
  B  B3  1  0.63510500  0.11907500  0.12031900  1
  B  B4  1  0.13289400  0.61907500  0.50739300  1
  B  B5  1  0.88289400  0.11907500  0.75739300  1
  B  B6  1  0.63289400  0.61907500  0.00739300  1
  B  B7  1  0.38289400  0.11907500  0.25739300  1
  B  B8  1  0.05338800  0.61907500  0.31275000  1
  B  B9  1  0.80338800  0.11907500  0.56275000  1
  B  B10  1  0.55338800  0.61907500  0.81275000  1
  B  B11  1  0.30338800  0.11907500  0.06275000  1
  B  B12  1  0.19661200  0.88092500  0.43725000  1
  B  B13  1  0.94661200  0.38092500  0.68725000  1
  B  B14  1  0.69661200  0.88092500  0.93725000  1
  B  B15  1  0.44661200  0.38092500  0.18725000  1
  B  B16  1  0.86489500  0.88092500  0.37968100  1
  B  B17  1  0.61489500  0.38092500  0.62968100  1
  B  B18  1  0.36489500  0.88092500  0.87968100  1
  B  B19  1  0.11489500  0.38092500  0.12968100  1
  B  B20  1  0.11710600  0.88092500  0.24260700  1
  B  B21  1  0.86710600  0.38092500  0.49260700  1
  B  B22  1  0.61710600  0.88092500  0.74260700  1
  B  B23  1  0.36710600  0.38092500  0.99260700  1
  O  O0  1  0.00277000  0.88235700  0.45952600  1
  O  O1  1  0.75277000  0.38235700  0.70952600  1
  O  O2  1  0.50277000  0.88235700  0.95952600  1
  O  O3  1  0.25277000  0.38235700  0.20952600  1
  O  O4  1  0.32303200  0.61764300  0.47837800  1
  O  O5  1  0.07303200  0.11764300  0.72837800  1
  O  O6  1  0.82303200  0.61764300  0.97837800  1
  O  O7  1  0.57303200  0.11764300  0.22837800  1
  O  O8  1  0.00327500  0.61764300  0.42232700  1
  O  O9  1  0.75327500  0.11764300  0.67232700  1
  O  O10  1  0.50327500  0.61764300  0.92232700  1
  O  O11  1  0.25327500  0.11764300  0.17232700  1
  O  O12  1  0.24672500  0.88235700  0.32767300  1
  O  O13  1  0.99672500  0.38235700  0.57767300  1
  O  O14  1  0.74672500  0.88235700  0.82767300  1
  O  O15  1  0.49672500  0.38235700  0.07767300  1
  O  O16  1  0.24723000  0.61764300  0.29047400  1
  O  O17  1  0.99723000  0.11764300  0.54047400  1
  O  O18  1  0.74723000  0.61764300  0.79047400  1
  O  O19  1  0.49723000  0.11764300  0.04047400  1
  O  O20  1  0.92696800  0.88235700  0.27162200  1
  O  O21  1  0.67696800  0.38235700  0.52162200  1
  O  O22  1  0.42696800  0.88235700  0.77162200  1
  O  O23  1  0.17696800  0.38235700  0.02162200  1
  O  O24  1  0.32073600  0.87632800  0.51841500  1
  O  O25  1  0.07073600  0.37632800  0.76841500  1
  O  O26  1  0.82073600  0.87632800  0.01841500  1
  O  O27  1  0.57073600  0.37632800  0.26841500  1
  O  O28  1  0.17909000  0.87632800  0.14226000  1
  O  O29  1  0.92909000  0.37632800  0.39226000  1
  O  O30  1  0.67909000  0.87632800  0.64226000  1
  O  O31  1  0.42909000  0.37632800  0.89226000  1
  O  O32  1  0.68568100  0.87632800  0.40116100  1
  O  O33  1  0.43568100  0.37632800  0.65116100  1
  O  O34  1  0.18568100  0.87632800  0.90116100  1
  O  O35  1  0.93568100  0.37632800  0.15116100  1
  O  O36  1  0.92926400  0.62367200  0.23158500  1
  O  O37  1  0.67926400  0.12367200  0.48158500  1
  O  O38  1  0.42926400  0.62367200  0.73158500  1
  O  O39  1  0.17926400  0.12367200  0.98158500  1
  O  O40  1  0.07091000  0.62367200  0.60774000  1
  O  O41  1  0.82091000  0.12367200  0.85774000  1
  O  O42  1  0.57091000  0.62367200  0.10774000  1
  O  O43  1  0.32091000  0.12367200  0.35774000  1
  O  O44  1  0.56431900  0.62367200  0.34883900  1
  O  O45  1  0.31431900  0.12367200  0.59883900  1
  O  O46  1  0.06431900  0.62367200  0.84883900  1
  O  O47  1  0.81431900  0.12367200  0.09883900  1
loop_
_geom_bond_atom_site_label_1
_geom_bond_atom_site_label_2
_geom_bond_distance
_geom_bond_site_symmetry_2
Ba0 O35 2.792383 1_555
Ba0 O29 2.792383 1_555
Ba0 O27 2.792387 1_555
Ba0 O37 2.906230 1_555
Ba0 O43 2.906235 1_655
Ba0 O47 2.906235 1_555
Ba0 O7 2.967186 1_555
Ba0 O11 2.967191 1_655
Ba0 O17 2.967192 1_555
Ba1 O32 2.792383 1_555
Ba1 O30 2.792383 1_555
Ba1 O24 2.792387 1_555
Ba1 O38 2.906230 1_555
Ba1 O40 2.906235 1_655
Ba1 O44 2.906235 1_555
Ba1 O4 2.967186 1_555
Ba1 O8 2.967191 1_655
Ba1 O18 2.967192 1_555
Ba2 O33 2.792383 1_555
Ba2 O31 2.792383 1_555
Ba2 O25 2.792387 1_555
Ba2 O39 2.906230 1_555
Ba2 O41 2.906235 1_555
Ba2 O45 2.906235 1_555
Ba2 O5 2.967186 1_555
Ba2 O9 2.967191 1_555
Ba2 O19 2.967192 1_556
Ba3 O34 2.792383 1_554
Ba3 O28 2.792383 1_555
Ba3 O26 2.792387 1_455
Ba3 O36 2.906230 1_455
Ba3 O42 2.906235 1_555
Ba3 O46 2.906235 1_554
Ba3 O6 2.967186 1_454
Ba3 O10 2.967191 1_554
Ba3 O16 2.967192 1_555
Ba4 O45 2.792383 1_555
Ba4 O43 2.792383 1_555
Ba4 O37 2.792387 1_555
Ba4 O27 2.906230 1_555
Ba4 O29 2.906235 1_455
Ba4 O33 2.906235 1_555
Ba4 O21 2.967186 1_555
Ba4 O13 2.967191 1_455
Ba4 O3 2.967192 1_555
Ba5 O46 2.792383 1_555
Ba5 O40 2.792383 1_555
Ba5 O38 2.792387 1_555
Ba5 O24 2.906230 1_555
Ba5 O30 2.906235 1_455
Ba5 O34 2.906235 1_555
Ba5 O22 2.967186 1_555
Ba5 O14 2.967191 1_455
Ba5 O0 2.967192 1_555
Ba6 O47 2.792383 1_556
Ba6 O41 2.792383 1_555
Ba6 O39 2.792387 1_655
Ba6 O25 2.906230 1_655
Ba6 O31 2.906235 1_555
Ba6 O35 2.906235 1_556
Ba6 O23 2.967186 1_656
Ba6 O15 2.967191 1_556
Ba6 O1 2.967192 1_555
Ba7 O44 2.792383 1_555
Ba7 O42 2.792383 1_555
Ba7 O36 2.792387 1_555
Ba7 O26 2.906230 1_555
Ba7 O28 2.906235 1_555
Ba7 O32 2.906235 1_555
Ba7 O20 2.967186 1_555
Ba7 O12 2.967191 1_555
Ba7 O2 2.967192 1_554
Mn0 O43 2.251491 1_555
Mn0 O30 2.251491 1_545
Mn0 O45 2.251491 1_555
Mn0 O32 2.251491 1_545
Mn0 O37 2.251497 1_555
Mn0 O24 2.251497 1_545
Mn1 O40 2.251491 1_555
Mn1 O31 2.251491 1_555
Mn1 O33 2.251491 1_555
Mn1 O46 2.251491 1_555
Mn1 O38 2.251497 1_555
Mn1 O25 2.251497 1_555
Mn2 O41 2.251491 1_454
Mn2 O28 2.251491 1_545
Mn2 O47 2.251491 1_455
Mn2 O34 2.251491 1_544
Mn2 O39 2.251497 1_554
Mn2 O26 2.251497 1_445
Mn3 O42 2.251491 1_555
Mn3 O29 2.251491 1_555
Mn3 O44 2.251491 1_555
Mn3 O35 2.251491 1_555
Mn3 O36 2.251497 1_555
Mn3 O27 2.251497 1_555
B0 O44 1.331707 1_555
B0 O16 1.410250 1_555
B0 O4 1.417027 1_555
B1 O45 1.331707 1_555
B1 O17 1.410250 1_455
B1 O5 1.417027 1_555
B2 O46 1.331707 1_655
B2 O18 1.410250 1_555
B2 O6 1.417027 1_555
B3 O47 1.331707 1_555
B3 O19 1.410250 1_555
B3 O7 1.417027 1_555
B4 O40 1.331707 1_555
B4 O4 1.410257 1_555
B4 O8 1.417023 1_555
B5 O41 1.331707 1_555
B5 O5 1.410257 1_655
B5 O9 1.417023 1_555
B6 O42 1.331707 1_555
B6 O6 1.410257 1_554
B6 O10 1.417023 1_554
B7 O43 1.331707 1_555
B7 O7 1.410257 1_555
B7 O11 1.417023 1_555
B8 O36 1.331696 1_455
B8 O8 1.410260 1_555
B8 O16 1.417032 1_555
B9 O37 1.331696 1_555
B9 O9 1.410260 1_555
B9 O17 1.417032 1_555
B10 O38 1.331696 1_555
B10 O10 1.410260 1_555
B10 O18 1.417032 1_555
B11 O39 1.331696 1_554
B11 O11 1.410260 1_555
B11 O19 1.417032 1_555
B12 O24 1.331696 1_555
B12 O12 1.410260 1_555
B12 O0 1.417032 1_555
B13 O25 1.331696 1_655
B13 O13 1.410260 1_555
B13 O1 1.417032 1_555
B14 O26 1.331696 1_556
B14 O14 1.410260 1_555
B14 O2 1.417032 1_555
B15 O27 1.331696 1_555
B15 O15 1.410260 1_555
B15 O3 1.417032 1_555
B16 O32 1.331707 1_555
B16 O0 1.410250 1_655
B16 O20 1.417027 1_555
B17 O33 1.331707 1_555
B17 O1 1.410250 1_555
B17 O21 1.417027 1_555
B18 O34 1.331707 1_555
B18 O2 1.410250 1_555
B18 O22 1.417027 1_555
B19 O35 1.331707 1_455
B19 O3 1.410250 1_555
B19 O23 1.417027 1_555
B20 O28 1.331707 1_555
B20 O20 1.410257 1_455
B20 O12 1.417023 1_555
B21 O29 1.331707 1_555
B21 O21 1.410257 1_555
B21 O13 1.417023 1_555
B22 O30 1.331707 1_555
B22 O22 1.410257 1_555
B22 O14 1.417023 1_555
B23 O31 1.331707 1_555
B23 O23 1.410257 1_556
B23 O15 1.417023 1_556
