# generated using pymatgen
data_MgGa2
_symmetry_space_group_name_H-M   'P 1'
_cell_length_a   5.16488626
_cell_length_b   5.16488626
_cell_length_c   4.80704642
_cell_angle_alpha   90.00000000
_cell_angle_beta   90.00000000
_cell_angle_gamma   119.99998391
_symmetry_Int_Tables_number   1
_chemical_formula_structural   MgGa2
_chemical_formula_sum   'Mg2 Ga4'
_cell_volume   111.05306334
_cell_formula_units_Z   2
loop_
 _symmetry_equiv_pos_site_id
 _symmetry_equiv_pos_as_xyz
  1  'x, y, z'
loop_
 _atom_site_type_symbol
 _atom_site_label
 _atom_site_symmetry_multiplicity
 _atom_site_fract_x
 _atom_site_fract_y
 _atom_site_fract_z
 _atom_site_occupancy
  Mg  Mg0  1  0.66666700  0.33333300  0.50000000  1
  Mg  Mg1  1  0.33333300  0.66666700  0.50000000  1
  Ga  Ga0  1  0.00000000  0.66557128  0.00000000  1
  Ga  Ga1  1  0.66557128  0.00000000  -0.00000000  1
  Ga  Ga2  1  0.33442872  0.33442872  -0.00000000  1
  Ga  Ga3  1  0.00000000  0.00000000  0.50000000  1
loop_
_geom_bond_atom_site_label_1
_geom_bond_atom_site_label_2
_geom_bond_distance
_geom_bond_site_symmetry_2
Mg0 Mg1 2.981946 1_545
Mg0 Mg1 2.981946 1_655
Mg0 Mg1 2.981954 1_555
Ga0 Mg1 2.954862 1_555
Ga0 Mg1 2.954862 1_554
Ga0 Mg0 2.954864 1_455
Ga0 Mg0 2.954864 1_454
Ga0 Ga3 2.959804 1_564
Ga0 Ga3 2.959804 1_565
Ga0 Ga2 2.977061 1_555
Ga0 Ga2 2.977061 1_455
Ga0 Ga1 2.977061 1_455
Ga0 Ga1 2.977061 1_565
Ga0 Ga1 2.991747 1_465
Ga0 Ga2 2.991748 1_565
Ga1 Mg0 2.954862 1_554
Ga1 Mg0 2.954862 1_555
Ga1 Mg1 2.954864 1_544
Ga1 Mg1 2.954864 1_545
Ga1 Ga3 2.959804 1_655
Ga1 Ga3 2.959804 1_654
Ga1 Ga2 2.977061 1_555
Ga1 Ga2 2.977061 1_545
Ga1 Ga2 2.991748 1_655
Ga2 Mg0 2.954865 1_554
Ga2 Mg0 2.954865 1_555
Ga2 Mg1 2.954865 1_554
Ga2 Mg1 2.954865 1_555
Ga2 Ga3 2.959805 1_555
Ga2 Ga3 2.959805 1_554
Ga3 Mg1 2.981945 1_545
Ga3 Mg0 2.981945 1_455
Ga3 Mg0 2.981950 1_555
Ga3 Mg1 2.981950 1_445
Ga3 Mg0 2.981950 1_445
Ga3 Mg1 2.981950 1_555
