# generated using pymatgen
data_Sr4SnN4
_symmetry_space_group_name_H-M   'P 1'
_cell_length_a   6.47230646
_cell_length_b   6.53397410
_cell_length_c   9.63897472
_cell_angle_alpha   71.38092844
_cell_angle_beta   79.42108475
_cell_angle_gamma   67.89975121
_symmetry_Int_Tables_number   1
_chemical_formula_structural   Sr4SnN4
_chemical_formula_sum   'Sr8 Sn2 N8'
_cell_volume   356.97790213
_cell_formula_units_Z   2
loop_
 _symmetry_equiv_pos_site_id
 _symmetry_equiv_pos_as_xyz
  1  'x, y, z'
loop_
 _atom_site_type_symbol
 _atom_site_label
 _atom_site_symmetry_multiplicity
 _atom_site_fract_x
 _atom_site_fract_y
 _atom_site_fract_z
 _atom_site_occupancy
  Sr  Sr0  1  0.77060600  0.57718500  0.17611900  1
  Sr  Sr1  1  0.22939400  0.42281500  0.82388100  1
  Sr  Sr2  1  0.74155300  0.23016200  0.98125200  1
  Sr  Sr3  1  0.25844700  0.76983800  0.01874800  1
  Sr  Sr4  1  0.72903000  0.48842200  0.56948500  1
  Sr  Sr5  1  0.27097000  0.51157800  0.43051500  1
  Sr  Sr6  1  0.23215300  0.95668400  0.60616200  1
  Sr  Sr7  1  0.76784700  0.04331600  0.39383800  1
  Sn  Sn0  1  0.71506400  0.84826200  0.75674700  1
  Sn  Sn1  1  0.28493600  0.15173800  0.24325300  1
  N  N0  1  0.97968900  0.70015000  0.60845000  1
  N  N1  1  0.02031100  0.29985000  0.39155000  1
  N  N2  1  0.89229400  0.83266400  0.92619600  1
  N  N3  1  0.10770600  0.16733600  0.07380400  1
  N  N4  1  0.51366500  0.62988500  0.80569600  1
  N  N5  1  0.48633500  0.37011500  0.19430400  1
  N  N6  1  0.49353100  0.82075600  0.36711800  1
  N  N7  1  0.50646900  0.17924400  0.63288200  1
loop_
_geom_bond_atom_site_label_1
_geom_bond_atom_site_label_2
_geom_bond_distance
_geom_bond_site_symmetry_2
Sr0 Sr3 3.515818 1_555
Sr1 Sr2 3.515818 1_555
N0 Sn0 2.156496 1_555
N0 Sr5 2.535396 1_655
N0 Sr1 2.614093 1_655
N0 Sr4 2.632725 1_555
N0 Sr7 2.636878 1_565
N0 Sr6 2.739382 1_655
N1 Sn1 2.156496 1_555
N1 Sr4 2.535396 1_455
N1 Sr0 2.614093 1_455
N1 Sr5 2.632725 1_555
N1 Sr6 2.636878 1_545
N1 Sr7 2.739382 1_455
N2 Sn0 2.118391 1_555
N2 Sr3 2.528041 1_656
N2 Sr2 2.600475 1_565
N2 Sr0 2.633429 1_556
N2 Sr1 3.066630 1_655
N2 Sr6 3.502103 1_655
N3 Sn1 2.118391 1_555
N3 Sr2 2.528041 1_454
N3 Sr3 2.600475 1_545
N3 Sr1 2.633429 1_554
N3 Sr0 3.066630 1_455
N3 Sr7 3.502103 1_455
N4 Sn0 2.168304 1_555
N4 Sr3 2.568867 1_556
N4 Sr1 2.617207 1_555
N4 Sr2 2.656316 1_555
N4 Sr4 2.681483 1_555
N4 Sr6 2.704662 1_555
N5 Sn1 2.168304 1_555
N5 Sr2 2.568867 1_554
N5 Sr0 2.617207 1_555
N5 Sr3 2.656316 1_555
N5 Sr5 2.681483 1_555
N5 Sr7 2.704662 1_555
N6 Sn1 2.161320 1_565
N6 Sr4 2.596132 1_555
N6 Sr5 2.758193 1_555
N6 Sr0 2.765746 1_555
N6 Sr7 2.771839 1_565
N6 Sr6 2.775735 1_555
N7 Sn0 2.161320 1_545
N7 Sr5 2.596132 1_555
N7 Sr4 2.758193 1_555
N7 Sr1 2.765746 1_555
N7 Sr6 2.771839 1_545
N7 Sr7 2.775735 1_555
