# generated using pymatgen
data_LaAlNi4
_symmetry_space_group_name_H-M   'P 1'
_cell_length_a   10.33215910
_cell_length_b   10.33215910
_cell_length_c   7.74274600
_cell_angle_alpha   90.00000000
_cell_angle_beta   90.00000000
_cell_angle_gamma   119.99999426
_symmetry_Int_Tables_number   1
_chemical_formula_structural   LaAlNi4
_chemical_formula_sum   'La8 Al8 Ni32'
_cell_volume   715.82661156
_cell_formula_units_Z   8
loop_
 _symmetry_equiv_pos_site_id
 _symmetry_equiv_pos_as_xyz
  1  'x, y, z'
loop_
 _atom_site_type_symbol
 _atom_site_label
 _atom_site_symmetry_multiplicity
 _atom_site_fract_x
 _atom_site_fract_y
 _atom_site_fract_z
 _atom_site_occupancy
  La  La0_0  1  0.16666650  0.33333350  0.00000000  1
  La  La0_1  1  0.16666650  0.33333350  0.50000000  1
  La  La0_2  1  0.16666650  0.83333350  0.00000000  1
  La  La0_3  1  0.16666650  0.83333350  0.50000000  1
  La  La0_4  1  0.66666650  0.33333350  0.00000000  1
  La  La0_5  1  0.66666650  0.33333350  0.50000000  1
  La  La0_6  1  0.66666650  0.83333350  0.00000000  1
  La  La0_7  1  0.66666650  0.83333350  0.50000000  1
  Al  Al0_0  1  0.33333350  0.16666650  0.00000000  1
  Al  Al0_1  1  0.33333350  0.16666650  0.50000000  1
  Al  Al0_2  1  0.33333350  0.66666650  0.00000000  1
  Al  Al0_3  1  0.33333350  0.66666650  0.50000000  1
  Al  Al0_4  1  0.83333350  0.16666650  0.00000000  1
  Al  Al0_5  1  0.83333350  0.16666650  0.50000000  1
  Al  Al0_6  1  0.83333350  0.66666650  0.00000000  1
  Al  Al0_7  1  0.83333350  0.66666650  0.50000000  1
  Ni  Ni0_0  1  0.00000000  0.00000000  0.00000000  1
  Ni  Ni0_1  1  0.00000000  0.00000000  0.50000000  1
  Ni  Ni0_2  1  0.00000000  0.50000000  0.00000000  1
  Ni  Ni0_3  1  0.00000000  0.50000000  0.50000000  1
  Ni  Ni0_4  1  0.50000000  0.00000000  0.00000000  1
  Ni  Ni0_5  1  0.50000000  0.00000000  0.50000000  1
  Ni  Ni0_6  1  0.50000000  0.50000000  0.00000000  1
  Ni  Ni0_7  1  0.50000000  0.50000000  0.50000000  1
  Ni  Ni1_0  1  0.16481150  0.08240600  0.25000000  1
  Ni  Ni1_1  1  0.16481150  0.08240600  0.75000000  1
  Ni  Ni1_2  1  0.16481150  0.58240600  0.25000000  1
  Ni  Ni1_3  1  0.16481150  0.58240600  0.75000000  1
  Ni  Ni1_4  1  0.66481150  0.08240600  0.25000000  1
  Ni  Ni1_5  1  0.66481150  0.08240600  0.75000000  1
  Ni  Ni1_6  1  0.66481150  0.58240600  0.25000000  1
  Ni  Ni1_7  1  0.66481150  0.58240600  0.75000000  1
  Ni  Ni2_0  1  0.41759400  0.08240600  0.25000000  1
  Ni  Ni2_1  1  0.41759400  0.08240600  0.75000000  1
  Ni  Ni2_2  1  0.41759400  0.58240600  0.25000000  1
  Ni  Ni2_3  1  0.41759400  0.58240600  0.75000000  1
  Ni  Ni2_4  1  0.91759400  0.08240600  0.25000000  1
  Ni  Ni2_5  1  0.91759400  0.08240600  0.75000000  1
  Ni  Ni2_6  1  0.91759400  0.58240600  0.25000000  1
  Ni  Ni2_7  1  0.91759400  0.58240600  0.75000000  1
  Ni  Ni3_0  1  0.41759400  0.33518850  0.25000000  1
  Ni  Ni3_1  1  0.41759400  0.33518850  0.75000000  1
  Ni  Ni3_2  1  0.41759400  0.83518850  0.25000000  1
  Ni  Ni3_3  1  0.41759400  0.83518850  0.75000000  1
  Ni  Ni3_4  1  0.91759400  0.33518850  0.25000000  1
  Ni  Ni3_5  1  0.91759400  0.33518850  0.75000000  1
  Ni  Ni3_6  1  0.91759400  0.83518850  0.25000000  1
  Ni  Ni3_7  1  0.91759400  0.83518850  0.75000000  1
loop_
_geom_bond_atom_site_label_1
_geom_bond_atom_site_label_2
_geom_bond_distance
_geom_bond_site_symmetry_2
La0_0 Ni0_2 2.982634 1_555
La0_0 Ni0_0 2.982639 1_555
La0_0 Ni0_6 2.982639 1_555
La0_0 Ni1_2 3.227887 1_555
La0_0 Ni1_3 3.227887 1_554
La0_0 Ni3_4 3.227887 1_455
La0_0 Ni3_5 3.227887 1_454
La0_0 Ni3_0 3.227887 1_555
La0_0 Ni3_1 3.227887 1_554
La0_0 Ni1_0 3.227887 1_555
La0_0 Ni1_1 3.227887 1_554
La0_0 Ni2_2 3.227887 1_555
La0_0 Ni2_3 3.227887 1_554
La0_0 Ni2_4 3.227887 1_455
La0_0 Ni2_5 3.227887 1_454
La0_0 La0_1 3.871373 1_555
La0_0 La0_1 3.871373 1_554
La0_1 Ni0_3 2.982634 1_555
La0_1 Ni0_7 2.982639 1_555
La0_1 Ni0_1 2.982639 1_555
La0_1 Ni1_3 3.227887 1_555
La0_1 Ni1_2 3.227887 1_555
La0_1 Ni3_4 3.227887 1_455
La0_1 Ni3_5 3.227887 1_455
La0_1 Ni3_0 3.227887 1_555
La0_1 Ni3_1 3.227887 1_555
La0_1 Ni1_1 3.227887 1_555
La0_1 Ni1_0 3.227887 1_555
La0_1 Ni2_2 3.227887 1_555
La0_1 Ni2_3 3.227887 1_555
La0_1 Ni2_5 3.227887 1_455
La0_1 Ni2_4 3.227887 1_455
La0_2 Ni0_0 2.982634 1_565
La0_2 Ni0_2 2.982639 1_555
La0_2 Ni0_4 2.982639 1_565
La0_2 Ni1_0 3.227887 1_565
La0_2 Ni1_1 3.227887 1_564
La0_2 Ni3_6 3.227887 1_455
La0_2 Ni3_7 3.227887 1_454
La0_2 Ni3_2 3.227887 1_555
La0_2 Ni3_3 3.227887 1_554
La0_2 Ni1_2 3.227887 1_555
La0_2 Ni1_3 3.227887 1_554
La0_2 Ni2_0 3.227887 1_565
La0_2 Ni2_1 3.227887 1_564
La0_2 Ni2_6 3.227887 1_455
La0_2 Ni2_7 3.227887 1_454
La0_2 La0_3 3.871373 1_555
La0_2 La0_3 3.871373 1_554
La0_3 Ni0_1 2.982634 1_565
La0_3 Ni0_3 2.982639 1_555
La0_3 Ni0_5 2.982639 1_565
La0_3 Ni1_1 3.227887 1_565
La0_3 Ni1_0 3.227887 1_565
La0_3 Ni3_7 3.227887 1_455
La0_3 Ni3_6 3.227887 1_455
La0_3 Ni3_3 3.227887 1_555
La0_3 Ni3_2 3.227887 1_555
La0_3 Ni1_3 3.227887 1_555
La0_3 Ni1_2 3.227887 1_555
La0_3 Ni2_1 3.227887 1_565
La0_3 Ni2_0 3.227887 1_565
La0_3 Ni2_6 3.227887 1_455
La0_3 Ni2_7 3.227887 1_455
La0_4 Ni0_6 2.982634 1_555
La0_4 Ni0_2 2.982639 1_655
La0_4 Ni0_4 2.982639 1_555
La0_4 Ni1_6 3.227887 1_555
La0_4 Ni1_7 3.227887 1_554
La0_4 Ni3_0 3.227887 1_555
La0_4 Ni3_1 3.227887 1_554
La0_4 Ni3_4 3.227887 1_555
La0_4 Ni3_5 3.227887 1_554
La0_4 Ni1_4 3.227887 1_555
La0_4 Ni1_5 3.227887 1_554
La0_4 Ni2_6 3.227887 1_555
La0_4 Ni2_7 3.227887 1_554
La0_4 Ni2_0 3.227887 1_555
La0_4 Ni2_1 3.227887 1_554
La0_4 La0_5 3.871373 1_555
La0_4 La0_5 3.871373 1_554
La0_5 Ni0_7 2.982634 1_555
La0_5 Ni0_3 2.982639 1_655
La0_5 Ni0_5 2.982639 1_555
La0_5 Ni1_7 3.227887 1_555
La0_5 Ni1_6 3.227887 1_555
La0_5 Ni3_1 3.227887 1_555
La0_5 Ni3_0 3.227887 1_555
La0_5 Ni3_4 3.227887 1_555
La0_5 Ni3_5 3.227887 1_555
La0_5 Ni1_5 3.227887 1_555
La0_5 Ni1_4 3.227887 1_555
La0_5 Ni2_6 3.227887 1_555
La0_5 Ni2_7 3.227887 1_555
La0_5 Ni2_0 3.227887 1_555
La0_5 Ni2_1 3.227887 1_555
La0_6 Ni0_4 2.982634 1_565
La0_6 Ni0_6 2.982639 1_555
La0_6 Ni0_0 2.982639 1_665
La0_6 Ni1_4 3.227887 1_565
La0_6 Ni1_5 3.227887 1_564
La0_6 Ni3_2 3.227887 1_555
La0_6 Ni3_3 3.227887 1_554
La0_6 Ni3_6 3.227887 1_555
La0_6 Ni3_7 3.227887 1_554
La0_6 Ni1_6 3.227887 1_555
La0_6 Ni1_7 3.227887 1_554
La0_6 Ni2_4 3.227887 1_565
La0_6 Ni2_5 3.227887 1_564
La0_6 Ni2_2 3.227887 1_555
La0_6 Ni2_3 3.227887 1_554
La0_6 La0_7 3.871373 1_555
La0_6 La0_7 3.871373 1_554
La0_7 Ni0_5 2.982634 1_565
La0_7 Ni0_1 2.982639 1_665
La0_7 Ni0_7 2.982639 1_555
La0_7 Ni1_4 3.227887 1_565
La0_7 Ni1_5 3.227887 1_565
La0_7 Ni3_3 3.227887 1_555
La0_7 Ni3_2 3.227887 1_555
La0_7 Ni3_7 3.227887 1_555
La0_7 Ni3_6 3.227887 1_555
La0_7 Ni1_7 3.227887 1_555
La0_7 Ni1_6 3.227887 1_555
La0_7 Ni2_5 3.227887 1_565
La0_7 Ni2_4 3.227887 1_565
La0_7 Ni2_2 3.227887 1_555
La0_7 Ni2_3 3.227887 1_555
Al0_0 Ni2_0 2.453707 1_555
Al0_0 Ni2_1 2.453707 1_554
Al0_0 Ni3_0 2.453713 1_555
Al0_0 Ni1_0 2.453713 1_555
Al0_0 Ni3_1 2.453713 1_554
Al0_0 Ni1_1 2.453713 1_554
Al0_0 Ni0_4 2.982634 1_555
Al0_0 La0_4 2.982635 1_555
Al0_0 La0_2 2.982635 1_545
Al0_0 Ni0_6 2.982639 1_555
Al0_0 Ni0_0 2.982639 1_555
Al0_0 La0_0 2.982643 1_555
Al0_1 Ni2_1 2.453707 1_555
Al0_1 Ni2_0 2.453707 1_555
Al0_1 Ni1_1 2.453713 1_555
Al0_1 Ni3_1 2.453713 1_555
Al0_1 Ni3_0 2.453713 1_555
Al0_1 Ni1_0 2.453713 1_555
Al0_1 Ni0_5 2.982634 1_555
Al0_1 La0_5 2.982635 1_555
Al0_1 La0_3 2.982635 1_545
Al0_1 Ni0_7 2.982639 1_555
Al0_1 Ni0_1 2.982639 1_555
Al0_1 La0_1 2.982643 1_555
Al0_2 Ni2_2 2.453707 1_555
Al0_2 Ni2_3 2.453707 1_554
Al0_2 Ni1_2 2.453713 1_555
Al0_2 Ni3_2 2.453713 1_555
Al0_2 Ni3_3 2.453713 1_554
Al0_2 Ni1_3 2.453713 1_554
Al0_2 Ni0_6 2.982634 1_555
Al0_2 La0_6 2.982635 1_555
Al0_2 La0_0 2.982635 1_555
Al0_2 Ni0_4 2.982639 1_565
Al0_2 Ni0_2 2.982639 1_555
Al0_2 La0_2 2.982643 1_555
Al0_3 Ni2_2 2.453707 1_555
Al0_3 Ni2_3 2.453707 1_555
Al0_3 Ni1_2 2.453713 1_555
Al0_3 Ni3_2 2.453713 1_555
Al0_3 Ni1_3 2.453713 1_555
Al0_3 Ni3_3 2.453713 1_555
Al0_3 Ni0_7 2.982634 1_555
Al0_3 La0_1 2.982635 1_555
Al0_3 La0_7 2.982635 1_555
Al0_3 Ni0_5 2.982639 1_565
Al0_3 Ni0_3 2.982639 1_555
Al0_3 La0_3 2.982643 1_555
Al0_4 Ni2_4 2.453707 1_555
Al0_4 Ni2_5 2.453707 1_554
Al0_4 Ni3_4 2.453713 1_555
Al0_4 Ni1_4 2.453713 1_555
Al0_4 Ni1_5 2.453713 1_554
Al0_4 Ni3_5 2.453713 1_554
Al0_4 Ni0_0 2.982634 1_655
Al0_4 La0_0 2.982635 1_655
Al0_4 La0_6 2.982635 1_545
Al0_4 Ni0_4 2.982639 1_555
Al0_4 Ni0_2 2.982639 1_655
Al0_4 La0_4 2.982643 1_555
Al0_5 Ni2_5 2.453707 1_555
Al0_5 Ni2_4 2.453707 1_555
Al0_5 Ni1_5 2.453713 1_555
Al0_5 Ni3_4 2.453713 1_555
Al0_5 Ni1_4 2.453713 1_555
Al0_5 Ni3_5 2.453713 1_555
Al0_5 Ni0_1 2.982634 1_655
Al0_5 La0_7 2.982635 1_545
Al0_5 La0_1 2.982635 1_655
Al0_5 Ni0_5 2.982639 1_555
Al0_5 Ni0_3 2.982639 1_655
Al0_5 La0_5 2.982643 1_555
Al0_6 Ni2_6 2.453707 1_555
Al0_6 Ni2_7 2.453707 1_554
Al0_6 Ni3_6 2.453713 1_555
Al0_6 Ni1_6 2.453713 1_555
Al0_6 Ni3_7 2.453713 1_554
Al0_6 Ni1_7 2.453713 1_554
Al0_6 Ni0_2 2.982634 1_655
Al0_6 La0_4 2.982635 1_555
Al0_6 La0_2 2.982635 1_655
Al0_6 Ni0_0 2.982639 1_665
Al0_6 Ni0_6 2.982639 1_555
Al0_6 La0_6 2.982643 1_555
Al0_7 Ni2_7 2.453707 1_555
Al0_7 Ni2_6 2.453707 1_555
Al0_7 Ni3_6 2.453713 1_555
Al0_7 Ni1_6 2.453713 1_555
Al0_7 Ni1_7 2.453713 1_555
Al0_7 Ni3_7 2.453713 1_555
Al0_7 Ni0_3 2.982634 1_655
Al0_7 La0_5 2.982635 1_555
Al0_7 La0_3 2.982635 1_655
Al0_7 Ni0_7 2.982639 1_555
Al0_7 Ni0_1 2.982639 1_665
Al0_7 La0_7 2.982643 1_555
Ni0_0 Ni3_6 2.433450 1_445
Ni0_0 Ni1_0 2.433450 1_555
Ni0_0 Ni3_7 2.433450 1_444
Ni0_0 Ni1_1 2.433450 1_554
Ni0_0 Ni2_4 2.433452 1_455
Ni0_0 Ni2_5 2.433452 1_454
Ni0_1 Ni3_7 2.433450 1_445
Ni0_1 Ni3_6 2.433450 1_445
Ni0_1 Ni1_1 2.433450 1_555
Ni0_1 Ni1_0 2.433450 1_555
Ni0_1 Ni2_5 2.433452 1_455
Ni0_1 Ni2_4 2.433452 1_455
Ni0_2 Ni1_2 2.433450 1_555
Ni0_2 Ni3_4 2.433450 1_455
Ni0_2 Ni1_3 2.433450 1_554
Ni0_2 Ni3_5 2.433450 1_454
Ni0_2 Ni2_6 2.433452 1_455
Ni0_2 Ni2_7 2.433452 1_454
Ni0_3 Ni3_5 2.433450 1_455
Ni0_3 Ni1_3 2.433450 1_555
Ni0_3 Ni1_2 2.433450 1_555
Ni0_3 Ni3_4 2.433450 1_455
Ni0_3 Ni2_7 2.433452 1_455
Ni0_3 Ni2_6 2.433452 1_455
Ni0_4 Ni1_4 2.433450 1_555
Ni0_4 Ni3_2 2.433450 1_545
Ni0_4 Ni1_5 2.433450 1_554
Ni0_4 Ni3_3 2.433450 1_544
Ni0_4 Ni2_0 2.433452 1_555
Ni0_4 Ni2_1 2.433452 1_554
Ni0_5 Ni3_3 2.433450 1_545
Ni0_5 Ni1_5 2.433450 1_555
Ni0_5 Ni1_4 2.433450 1_555
Ni0_5 Ni3_2 2.433450 1_545
Ni0_5 Ni2_0 2.433452 1_555
Ni0_5 Ni2_1 2.433452 1_555
Ni0_6 Ni1_6 2.433450 1_555
Ni0_6 Ni1_7 2.433450 1_554
Ni0_6 Ni3_0 2.433450 1_555
Ni0_6 Ni3_1 2.433450 1_554
Ni0_6 Ni2_2 2.433452 1_555
Ni0_6 Ni2_3 2.433452 1_554
Ni0_7 Ni1_6 2.433450 1_555
Ni0_7 Ni1_7 2.433450 1_555
Ni0_7 Ni3_1 2.433450 1_555
Ni0_7 Ni3_0 2.433450 1_555
Ni0_7 Ni2_3 2.433452 1_555
Ni0_7 Ni2_2 2.433452 1_555
Ni1_0 Ni2_4 2.554291 1_455
Ni1_0 Ni3_6 2.554291 1_445
Ni1_0 Ni2_0 2.611789 1_555
Ni1_0 Ni3_0 2.611789 1_555
Ni1_1 Ni2_5 2.554291 1_455
Ni1_1 Ni3_7 2.554291 1_445
Ni1_1 Ni2_1 2.611789 1_555
Ni1_1 Ni3_1 2.611789 1_555
Ni1_2 Ni2_6 2.554291 1_455
Ni1_2 Ni3_4 2.554291 1_455
Ni1_2 Ni2_2 2.611789 1_555
Ni1_2 Ni3_2 2.611789 1_555
Ni1_3 Ni2_7 2.554291 1_455
Ni1_3 Ni3_5 2.554291 1_455
Ni1_3 Ni2_3 2.611789 1_555
Ni1_3 Ni3_3 2.611789 1_555
Ni1_4 Ni2_0 2.554291 1_555
Ni1_4 Ni3_2 2.554291 1_545
Ni1_4 Ni2_4 2.611789 1_555
Ni1_4 Ni3_4 2.611789 1_555
Ni1_5 Ni2_1 2.554291 1_555
Ni1_5 Ni3_3 2.554291 1_545
Ni1_5 Ni2_5 2.611789 1_555
Ni1_5 Ni3_5 2.611789 1_555
Ni1_6 Ni2_2 2.554291 1_555
Ni1_6 Ni3_0 2.554291 1_555
Ni1_6 Ni2_6 2.611789 1_555
Ni1_6 Ni3_6 2.611789 1_555
Ni1_7 Ni2_3 2.554291 1_555
Ni1_7 Ni3_1 2.554291 1_555
Ni1_7 Ni2_7 2.611789 1_555
Ni1_7 Ni3_7 2.611789 1_555
Ni2_0 Ni3_2 2.554291 1_545
Ni2_0 Ni3_0 2.611789 1_555
Ni2_1 Ni3_3 2.554291 1_545
Ni2_1 Ni3_1 2.611789 1_555
Ni2_2 Ni3_0 2.554291 1_555
Ni2_2 Ni3_2 2.611789 1_555
Ni2_3 Ni3_1 2.554291 1_555
Ni2_3 Ni3_3 2.611789 1_555
Ni2_4 Ni3_6 2.554291 1_545
Ni2_4 Ni3_4 2.611789 1_555
Ni2_5 Ni3_7 2.554291 1_545
Ni2_5 Ni3_5 2.611789 1_555
Ni2_6 Ni3_4 2.554291 1_555
Ni2_6 Ni3_6 2.611789 1_555
Ni2_7 Ni3_5 2.554291 1_555
Ni2_7 Ni3_7 2.611789 1_555
