# generated using pymatgen
data_MnSbRh2
_symmetry_space_group_name_H-M   'P 1'
_cell_length_a   5.95572800
_cell_length_b   5.95572800
_cell_length_c   14.04425800
_cell_angle_alpha   90.00000000
_cell_angle_beta   90.00000000
_cell_angle_gamma   90.00000000
_symmetry_Int_Tables_number   1
_chemical_formula_structural   MnSbRh2
_chemical_formula_sum   'Mn8 Sb8 Rh16'
_cell_volume   498.15960620
_cell_formula_units_Z   8
loop_
 _symmetry_equiv_pos_site_id
 _symmetry_equiv_pos_as_xyz
  1  'x, y, z'
loop_
 _atom_site_type_symbol
 _atom_site_label
 _atom_site_symmetry_multiplicity
 _atom_site_fract_x
 _atom_site_fract_y
 _atom_site_fract_z
 _atom_site_occupancy
  Mn  Mn0_0  1  0.25000000  0.25000000  0.00000000  1
  Mn  Mn0_1  1  0.25000000  0.25000000  0.50000000  1
  Mn  Mn0_2  1  0.25000000  0.75000000  0.00000000  1
  Mn  Mn0_3  1  0.25000000  0.75000000  0.50000000  1
  Mn  Mn0_4  1  0.75000000  0.25000000  0.00000000  1
  Mn  Mn0_5  1  0.75000000  0.25000000  0.50000000  1
  Mn  Mn0_6  1  0.75000000  0.75000000  0.00000000  1
  Mn  Mn0_7  1  0.75000000  0.75000000  0.50000000  1
  Sb  Sb0_0  1  0.25000000  0.25000000  0.25000000  1
  Sb  Sb0_1  1  0.25000000  0.25000000  0.75000000  1
  Sb  Sb0_2  1  0.25000000  0.75000000  0.25000000  1
  Sb  Sb0_3  1  0.25000000  0.75000000  0.75000000  1
  Sb  Sb0_4  1  0.75000000  0.25000000  0.25000000  1
  Sb  Sb0_5  1  0.75000000  0.25000000  0.75000000  1
  Sb  Sb0_6  1  0.75000000  0.75000000  0.25000000  1
  Sb  Sb0_7  1  0.75000000  0.75000000  0.75000000  1
  Rh  Rh0_0  1  0.00000000  0.00000000  0.39124300  1
  Rh  Rh0_1  1  0.00000000  0.00000000  0.89124300  1
  Rh  Rh0_2  1  0.00000000  0.50000000  0.39124300  1
  Rh  Rh0_3  1  0.00000000  0.50000000  0.89124300  1
  Rh  Rh0_4  1  0.50000000  0.00000000  0.39124300  1
  Rh  Rh0_5  1  0.50000000  0.00000000  0.89124300  1
  Rh  Rh0_6  1  0.50000000  0.50000000  0.39124300  1
  Rh  Rh0_7  1  0.50000000  0.50000000  0.89124300  1
  Rh  Rh1_0  1  0.00000000  0.00000000  0.10875700  1
  Rh  Rh1_1  1  0.00000000  0.00000000  0.60875700  1
  Rh  Rh1_2  1  0.00000000  0.50000000  0.10875700  1
  Rh  Rh1_3  1  0.00000000  0.50000000  0.60875700  1
  Rh  Rh1_4  1  0.50000000  0.00000000  0.10875700  1
  Rh  Rh1_5  1  0.50000000  0.00000000  0.60875700  1
  Rh  Rh1_6  1  0.50000000  0.50000000  0.10875700  1
  Rh  Rh1_7  1  0.50000000  0.50000000  0.60875700  1
loop_
_geom_bond_atom_site_label_1
_geom_bond_atom_site_label_2
_geom_bond_distance
_geom_bond_site_symmetry_2
Mn0_0 Rh1_2 2.601312 1_555
Mn0_0 Rh1_4 2.601312 1_555
Mn0_0 Rh1_6 2.601312 1_555
Mn0_0 Rh1_0 2.601312 1_555
Mn0_0 Rh0_3 2.601312 1_554
Mn0_0 Rh0_7 2.601312 1_554
Mn0_0 Rh0_1 2.601312 1_554
Mn0_0 Rh0_5 2.601312 1_554
Mn0_0 Mn0_4 2.977864 1_555
Mn0_0 Mn0_4 2.977864 1_455
Mn0_0 Mn0_2 2.977864 1_555
Mn0_0 Mn0_2 2.977864 1_545
Mn0_1 Rh1_5 2.601312 1_555
Mn0_1 Rh1_7 2.601312 1_555
Mn0_1 Rh1_1 2.601312 1_555
Mn0_1 Rh1_3 2.601312 1_555
Mn0_1 Rh0_0 2.601312 1_555
Mn0_1 Rh0_4 2.601312 1_555
Mn0_1 Rh0_6 2.601312 1_555
Mn0_1 Rh0_2 2.601312 1_555
Mn0_1 Mn0_3 2.977864 1_545
Mn0_1 Mn0_5 2.977864 1_555
Mn0_1 Mn0_5 2.977864 1_455
Mn0_1 Mn0_3 2.977864 1_555
Mn0_2 Rh1_2 2.601312 1_555
Mn0_2 Rh1_0 2.601312 1_565
Mn0_2 Rh1_4 2.601312 1_565
Mn0_2 Rh1_6 2.601312 1_555
Mn0_2 Rh0_3 2.601312 1_554
Mn0_2 Rh0_1 2.601312 1_564
Mn0_2 Rh0_7 2.601312 1_554
Mn0_2 Rh0_5 2.601312 1_564
Mn0_2 Mn0_6 2.977864 1_455
Mn0_2 Mn0_6 2.977864 1_555
Mn0_3 Rh1_1 2.601312 1_565
Mn0_3 Rh1_7 2.601312 1_555
Mn0_3 Rh1_5 2.601312 1_565
Mn0_3 Rh1_3 2.601312 1_555
Mn0_3 Rh0_0 2.601312 1_565
Mn0_3 Rh0_4 2.601312 1_565
Mn0_3 Rh0_6 2.601312 1_555
Mn0_3 Rh0_2 2.601312 1_555
Mn0_3 Mn0_7 2.977864 1_555
Mn0_3 Mn0_7 2.977864 1_455
Mn0_4 Rh1_2 2.601312 1_655
Mn0_4 Rh1_4 2.601312 1_555
Mn0_4 Rh1_6 2.601312 1_555
Mn0_4 Rh1_0 2.601312 1_655
Mn0_4 Rh0_1 2.601312 1_654
Mn0_4 Rh0_3 2.601312 1_654
Mn0_4 Rh0_7 2.601312 1_554
Mn0_4 Rh0_5 2.601312 1_554
Mn0_4 Mn0_6 2.977864 1_545
Mn0_4 Mn0_6 2.977864 1_555
Mn0_5 Rh1_3 2.601312 1_655
Mn0_5 Rh1_5 2.601312 1_555
Mn0_5 Rh1_1 2.601312 1_655
Mn0_5 Rh1_7 2.601312 1_555
Mn0_5 Rh0_0 2.601312 1_655
Mn0_5 Rh0_4 2.601312 1_555
Mn0_5 Rh0_2 2.601312 1_655
Mn0_5 Rh0_6 2.601312 1_555
Mn0_5 Mn0_7 2.977864 1_555
Mn0_5 Mn0_7 2.977864 1_545
Mn0_6 Rh1_2 2.601312 1_655
Mn0_6 Rh1_4 2.601312 1_565
Mn0_6 Rh1_6 2.601312 1_555
Mn0_6 Rh1_0 2.601312 1_665
Mn0_6 Rh0_3 2.601312 1_654
Mn0_6 Rh0_1 2.601312 1_664
Mn0_6 Rh0_7 2.601312 1_554
Mn0_6 Rh0_5 2.601312 1_564
Mn0_7 Rh1_3 2.601312 1_655
Mn0_7 Rh1_7 2.601312 1_555
Mn0_7 Rh1_1 2.601312 1_665
Mn0_7 Rh1_5 2.601312 1_565
Mn0_7 Rh0_0 2.601312 1_665
Mn0_7 Rh0_4 2.601312 1_565
Mn0_7 Rh0_2 2.601312 1_655
Mn0_7 Rh0_6 2.601312 1_555
Sb0_0 Sb0_4 2.977864 1_455
Sb0_0 Sb0_2 2.977864 1_545
Sb0_0 Sb0_4 2.977864 1_555
Sb0_0 Sb0_2 2.977864 1_555
Sb0_1 Sb0_3 2.977864 1_555
Sb0_1 Sb0_3 2.977864 1_545
Sb0_1 Sb0_5 2.977864 1_455
Sb0_1 Sb0_5 2.977864 1_555
Sb0_2 Sb0_6 2.977864 1_455
Sb0_2 Sb0_6 2.977864 1_555
Sb0_3 Sb0_7 2.977864 1_455
Sb0_3 Sb0_7 2.977864 1_555
Sb0_4 Sb0_6 2.977864 1_545
Sb0_4 Sb0_6 2.977864 1_555
Sb0_5 Sb0_7 2.977864 1_555
Sb0_5 Sb0_7 2.977864 1_545
Rh0_0 Sb0_4 2.892873 1_455
Rh0_0 Sb0_0 2.892873 1_555
Rh0_0 Sb0_2 2.892873 1_545
Rh0_0 Sb0_6 2.892873 1_445
Rh0_0 Rh0_2 2.977864 1_545
Rh0_0 Rh0_4 2.977864 1_555
Rh0_0 Rh0_4 2.977864 1_455
Rh0_0 Rh0_2 2.977864 1_555
Rh0_1 Sb0_3 2.892873 1_545
Rh0_1 Sb0_1 2.892873 1_555
Rh0_1 Sb0_5 2.892873 1_455
Rh0_1 Sb0_7 2.892873 1_445
Rh0_1 Rh0_3 2.977864 1_545
Rh0_1 Rh0_5 2.977864 1_555
Rh0_1 Rh0_3 2.977864 1_555
Rh0_1 Rh0_5 2.977864 1_455
Rh0_2 Sb0_2 2.892873 1_555
Rh0_2 Sb0_4 2.892873 1_455
Rh0_2 Sb0_0 2.892873 1_555
Rh0_2 Sb0_6 2.892873 1_455
Rh0_2 Rh0_6 2.977864 1_455
Rh0_2 Rh0_6 2.977864 1_555
Rh0_3 Sb0_1 2.892873 1_555
Rh0_3 Sb0_5 2.892873 1_455
Rh0_3 Sb0_3 2.892873 1_555
Rh0_3 Sb0_7 2.892873 1_455
Rh0_3 Rh0_7 2.977864 1_555
Rh0_3 Rh0_7 2.977864 1_455
Rh0_4 Sb0_6 2.892873 1_545
Rh0_4 Sb0_0 2.892873 1_555
Rh0_4 Sb0_2 2.892873 1_545
Rh0_4 Sb0_4 2.892873 1_555
Rh0_4 Rh0_6 2.977864 1_545
Rh0_4 Rh0_6 2.977864 1_555
Rh0_5 Sb0_3 2.892873 1_545
Rh0_5 Sb0_1 2.892873 1_555
Rh0_5 Sb0_5 2.892873 1_555
Rh0_5 Sb0_7 2.892873 1_545
Rh0_5 Rh0_7 2.977864 1_555
Rh0_5 Rh0_7 2.977864 1_545
Rh0_6 Sb0_2 2.892873 1_555
Rh0_6 Sb0_0 2.892873 1_555
Rh0_6 Sb0_6 2.892873 1_555
Rh0_6 Sb0_4 2.892873 1_555
Rh0_7 Sb0_7 2.892873 1_555
Rh0_7 Sb0_1 2.892873 1_555
Rh0_7 Sb0_3 2.892873 1_555
Rh0_7 Sb0_5 2.892873 1_555
Rh1_0 Sb0_6 2.892873 1_445
Rh1_0 Sb0_2 2.892873 1_545
Rh1_0 Sb0_4 2.892873 1_455
Rh1_0 Sb0_0 2.892873 1_555
Rh1_0 Rh1_4 2.977864 1_455
Rh1_0 Rh1_2 2.977864 1_555
Rh1_0 Rh1_4 2.977864 1_555
Rh1_0 Rh1_2 2.977864 1_545
Rh1_1 Sb0_3 2.892873 1_545
Rh1_1 Sb0_1 2.892873 1_555
Rh1_1 Sb0_5 2.892873 1_455
Rh1_1 Sb0_7 2.892873 1_445
Rh1_1 Rh1_5 2.977864 1_455
Rh1_1 Rh1_3 2.977864 1_555
Rh1_1 Rh1_3 2.977864 1_545
Rh1_1 Rh1_5 2.977864 1_555
Rh1_2 Sb0_6 2.892873 1_455
Rh1_2 Sb0_2 2.892873 1_555
Rh1_2 Sb0_4 2.892873 1_455
Rh1_2 Sb0_0 2.892873 1_555
Rh1_2 Rh1_6 2.977864 1_555
Rh1_2 Rh1_6 2.977864 1_455
Rh1_3 Sb0_7 2.892873 1_455
Rh1_3 Sb0_1 2.892873 1_555
Rh1_3 Sb0_5 2.892873 1_455
Rh1_3 Sb0_3 2.892873 1_555
Rh1_3 Rh1_7 2.977864 1_455
Rh1_3 Rh1_7 2.977864 1_555
Rh1_4 Sb0_6 2.892873 1_545
Rh1_4 Sb0_4 2.892873 1_555
Rh1_4 Sb0_0 2.892873 1_555
Rh1_4 Sb0_2 2.892873 1_545
Rh1_4 Rh1_6 2.977864 1_555
Rh1_4 Rh1_6 2.977864 1_545
Rh1_5 Sb0_3 2.892873 1_545
Rh1_5 Sb0_1 2.892873 1_555
Rh1_5 Sb0_5 2.892873 1_555
Rh1_5 Sb0_7 2.892873 1_545
Rh1_5 Rh1_7 2.977864 1_555
Rh1_5 Rh1_7 2.977864 1_545
Rh1_6 Sb0_4 2.892873 1_555
Rh1_6 Sb0_2 2.892873 1_555
Rh1_6 Sb0_6 2.892873 1_555
Rh1_6 Sb0_0 2.892873 1_555
Rh1_7 Sb0_7 2.892873 1_555
Rh1_7 Sb0_1 2.892873 1_555
Rh1_7 Sb0_5 2.892873 1_555
Rh1_7 Sb0_3 2.892873 1_555
