# generated using pymatgen
data_SrMg3O4
_symmetry_space_group_name_H-M   'P 1'
_cell_length_a   5.58393200
_cell_length_b   5.58393200
_cell_length_c   22.51654600
_cell_angle_alpha   90.00000000
_cell_angle_beta   90.00000000
_cell_angle_gamma   90.00000000
_symmetry_Int_Tables_number   1
_chemical_formula_structural   SrMg3O4
_chemical_formula_sum   'Sr8 Mg24 O32'
_cell_volume   702.07258225
_cell_formula_units_Z   8
loop_
 _symmetry_equiv_pos_site_id
 _symmetry_equiv_pos_as_xyz
  1  'x, y, z'
loop_
 _atom_site_type_symbol
 _atom_site_label
 _atom_site_symmetry_multiplicity
 _atom_site_fract_x
 _atom_site_fract_y
 _atom_site_fract_z
 _atom_site_occupancy
  Sr  Sr0_0  1  0.00000000  0.00000000  0.00000000  1
  Sr  Sr0_1  1  0.00000000  0.00000000  0.50000000  1
  Sr  Sr0_2  1  0.00000000  0.50000000  0.00000000  1
  Sr  Sr0_3  1  0.00000000  0.50000000  0.50000000  1
  Sr  Sr0_4  1  0.50000000  0.00000000  0.00000000  1
  Sr  Sr0_5  1  0.50000000  0.00000000  0.50000000  1
  Sr  Sr0_6  1  0.50000000  0.50000000  0.00000000  1
  Sr  Sr0_7  1  0.50000000  0.50000000  0.50000000  1
  Mg  Mg0_0  1  0.00000000  0.00000000  0.13021350  1
  Mg  Mg0_1  1  0.00000000  0.00000000  0.63021350  1
  Mg  Mg0_2  1  0.00000000  0.50000000  0.13021350  1
  Mg  Mg0_3  1  0.00000000  0.50000000  0.63021350  1
  Mg  Mg0_4  1  0.50000000  0.00000000  0.13021350  1
  Mg  Mg0_5  1  0.50000000  0.00000000  0.63021350  1
  Mg  Mg0_6  1  0.50000000  0.50000000  0.13021350  1
  Mg  Mg0_7  1  0.50000000  0.50000000  0.63021350  1
  Mg  Mg1_0  1  0.00000000  0.00000000  0.25000000  1
  Mg  Mg1_1  1  0.00000000  0.00000000  0.75000000  1
  Mg  Mg1_2  1  0.00000000  0.50000000  0.25000000  1
  Mg  Mg1_3  1  0.00000000  0.50000000  0.75000000  1
  Mg  Mg1_4  1  0.50000000  0.00000000  0.25000000  1
  Mg  Mg1_5  1  0.50000000  0.00000000  0.75000000  1
  Mg  Mg1_6  1  0.50000000  0.50000000  0.25000000  1
  Mg  Mg1_7  1  0.50000000  0.50000000  0.75000000  1
  Mg  Mg2_0  1  0.00000000  0.00000000  0.36978650  1
  Mg  Mg2_1  1  0.00000000  0.00000000  0.86978650  1
  Mg  Mg2_2  1  0.00000000  0.50000000  0.36978650  1
  Mg  Mg2_3  1  0.00000000  0.50000000  0.86978650  1
  Mg  Mg2_4  1  0.50000000  0.00000000  0.36978650  1
  Mg  Mg2_5  1  0.50000000  0.00000000  0.86978650  1
  Mg  Mg2_6  1  0.50000000  0.50000000  0.36978650  1
  Mg  Mg2_7  1  0.50000000  0.50000000  0.86978650  1
  O  O0_0  1  0.25000000  0.25000000  0.07217200  1
  O  O0_1  1  0.25000000  0.25000000  0.57217200  1
  O  O0_2  1  0.25000000  0.75000000  0.07217200  1
  O  O0_3  1  0.25000000  0.75000000  0.57217200  1
  O  O0_4  1  0.75000000  0.25000000  0.07217200  1
  O  O0_5  1  0.75000000  0.25000000  0.57217200  1
  O  O0_6  1  0.75000000  0.75000000  0.07217200  1
  O  O0_7  1  0.75000000  0.75000000  0.57217200  1
  O  O1_0  1  0.25000000  0.25000000  0.19016050  1
  O  O1_1  1  0.25000000  0.25000000  0.69016050  1
  O  O1_2  1  0.25000000  0.75000000  0.19016050  1
  O  O1_3  1  0.25000000  0.75000000  0.69016050  1
  O  O1_4  1  0.75000000  0.25000000  0.19016050  1
  O  O1_5  1  0.75000000  0.25000000  0.69016050  1
  O  O1_6  1  0.75000000  0.75000000  0.19016050  1
  O  O1_7  1  0.75000000  0.75000000  0.69016050  1
  O  O2_0  1  0.25000000  0.25000000  0.30983950  1
  O  O2_1  1  0.25000000  0.25000000  0.80983950  1
  O  O2_2  1  0.25000000  0.75000000  0.30983950  1
  O  O2_3  1  0.25000000  0.75000000  0.80983950  1
  O  O2_4  1  0.75000000  0.25000000  0.30983950  1
  O  O2_5  1  0.75000000  0.25000000  0.80983950  1
  O  O2_6  1  0.75000000  0.75000000  0.30983950  1
  O  O2_7  1  0.75000000  0.75000000  0.80983950  1
  O  O3_0  1  0.25000000  0.25000000  0.42782800  1
  O  O3_1  1  0.25000000  0.25000000  0.92782800  1
  O  O3_2  1  0.25000000  0.75000000  0.42782800  1
  O  O3_3  1  0.25000000  0.75000000  0.92782800  1
  O  O3_4  1  0.75000000  0.25000000  0.42782800  1
  O  O3_5  1  0.75000000  0.25000000  0.92782800  1
  O  O3_6  1  0.75000000  0.75000000  0.42782800  1
  O  O3_7  1  0.75000000  0.75000000  0.92782800  1
loop_
_geom_bond_atom_site_label_1
_geom_bond_atom_site_label_2
_geom_bond_distance
_geom_bond_site_symmetry_2
Sr0_0 Sr0_4 2.791966 1_555
Sr0_0 Sr0_4 2.791966 1_455
Sr0_0 Sr0_2 2.791966 1_545
Sr0_0 Sr0_2 2.791966 1_555
Sr0_1 Sr0_3 2.791966 1_555
Sr0_1 Sr0_3 2.791966 1_545
Sr0_1 Sr0_5 2.791966 1_455
Sr0_1 Sr0_5 2.791966 1_555
Sr0_2 Sr0_6 2.791966 1_555
Sr0_2 Sr0_6 2.791966 1_455
Sr0_3 Sr0_7 2.791966 1_455
Sr0_3 Sr0_7 2.791966 1_555
Sr0_4 Sr0_6 2.791966 1_555
Sr0_4 Sr0_6 2.791966 1_545
Sr0_5 Sr0_7 2.791966 1_545
Sr0_5 Sr0_7 2.791966 1_555
Mg0_0 O0_0 2.367596 1_555
Mg0_0 O0_4 2.367596 1_455
Mg0_0 O0_2 2.367596 1_545
Mg0_0 O0_6 2.367596 1_445
Mg0_0 O1_4 2.391547 1_455
Mg0_0 O1_0 2.391547 1_555
Mg0_0 O1_2 2.391547 1_545
Mg0_0 O1_6 2.391547 1_445
Mg0_0 Mg1_0 2.697178 1_555
Mg0_1 O0_3 2.367596 1_545
Mg0_1 O0_1 2.367596 1_555
Mg0_1 O0_5 2.367596 1_455
Mg0_1 O0_7 2.367596 1_445
Mg0_1 O1_1 2.391547 1_555
Mg0_1 O1_3 2.391547 1_545
Mg0_1 O1_7 2.391547 1_445
Mg0_1 O1_5 2.391547 1_455
Mg0_1 Mg1_1 2.697178 1_555
Mg0_2 O0_2 2.367596 1_555
Mg0_2 O0_6 2.367596 1_455
Mg0_2 O0_0 2.367596 1_555
Mg0_2 O0_4 2.367596 1_455
Mg0_2 O1_2 2.391547 1_555
Mg0_2 O1_4 2.391547 1_455
Mg0_2 O1_0 2.391547 1_555
Mg0_2 O1_6 2.391547 1_455
Mg0_2 Mg1_2 2.697178 1_555
Mg0_3 O0_3 2.367596 1_555
Mg0_3 O0_7 2.367596 1_455
Mg0_3 O0_1 2.367596 1_555
Mg0_3 O0_5 2.367596 1_455
Mg0_3 O1_7 2.391547 1_455
Mg0_3 O1_1 2.391547 1_555
Mg0_3 O1_5 2.391547 1_455
Mg0_3 O1_3 2.391547 1_555
Mg0_3 Mg1_3 2.697178 1_555
Mg0_4 O0_0 2.367596 1_555
Mg0_4 O0_4 2.367596 1_555
Mg0_4 O0_2 2.367596 1_545
Mg0_4 O0_6 2.367596 1_545
Mg0_4 O1_6 2.391547 1_545
Mg0_4 O1_4 2.391547 1_555
Mg0_4 O1_0 2.391547 1_555
Mg0_4 O1_2 2.391547 1_545
Mg0_4 Mg1_4 2.697178 1_555
Mg0_5 O0_5 2.367596 1_555
Mg0_5 O0_7 2.367596 1_545
Mg0_5 O0_3 2.367596 1_545
Mg0_5 O0_1 2.367596 1_555
Mg0_5 O1_1 2.391547 1_555
Mg0_5 O1_7 2.391547 1_545
Mg0_5 O1_3 2.391547 1_545
Mg0_5 O1_5 2.391547 1_555
Mg0_5 Mg1_5 2.697178 1_555
Mg0_6 O0_2 2.367596 1_555
Mg0_6 O0_6 2.367596 1_555
Mg0_6 O0_0 2.367596 1_555
Mg0_6 O0_4 2.367596 1_555
Mg0_6 O1_2 2.391547 1_555
Mg0_6 O1_4 2.391547 1_555
Mg0_6 O1_0 2.391547 1_555
Mg0_6 O1_6 2.391547 1_555
Mg0_6 Mg1_6 2.697178 1_555
Mg0_7 O0_5 2.367596 1_555
Mg0_7 O0_3 2.367596 1_555
Mg0_7 O0_1 2.367596 1_555
Mg0_7 O0_7 2.367596 1_555
Mg0_7 O1_7 2.391547 1_555
Mg0_7 O1_1 2.391547 1_555
Mg0_7 O1_5 2.391547 1_555
Mg0_7 O1_3 2.391547 1_555
Mg0_7 Mg1_7 2.697178 1_555
Mg1_0 O2_0 2.390181 1_555
Mg1_0 O2_4 2.390181 1_455
Mg1_0 O2_6 2.390181 1_445
Mg1_0 O2_2 2.390181 1_545
Mg1_0 O1_2 2.390181 1_545
Mg1_0 O1_6 2.390181 1_445
Mg1_0 O1_4 2.390181 1_455
Mg1_0 O1_0 2.390181 1_555
Mg1_0 Mg2_0 2.697178 1_555
Mg1_0 Mg1_2 2.791966 1_555
Mg1_0 Mg1_4 2.791966 1_555
Mg1_0 Mg1_4 2.791966 1_455
Mg1_0 Mg1_2 2.791966 1_545
Mg1_1 O2_1 2.390181 1_555
Mg1_1 O2_3 2.390181 1_545
Mg1_1 O2_7 2.390181 1_445
Mg1_1 O2_5 2.390181 1_455
Mg1_1 O1_7 2.390181 1_445
Mg1_1 O1_1 2.390181 1_555
Mg1_1 O1_3 2.390181 1_545
Mg1_1 O1_5 2.390181 1_455
Mg1_1 Mg2_1 2.697178 1_555
Mg1_1 Mg1_3 2.791966 1_545
Mg1_1 Mg1_5 2.791966 1_455
Mg1_1 Mg1_3 2.791966 1_555
Mg1_1 Mg1_5 2.791966 1_555
Mg1_2 O2_0 2.390181 1_555
Mg1_2 O2_2 2.390181 1_555
Mg1_2 O2_4 2.390181 1_455
Mg1_2 O2_6 2.390181 1_455
Mg1_2 O1_6 2.390181 1_455
Mg1_2 O1_2 2.390181 1_555
Mg1_2 O1_4 2.390181 1_455
Mg1_2 O1_0 2.390181 1_555
Mg1_2 Mg2_2 2.697178 1_555
Mg1_2 Mg1_6 2.791966 1_555
Mg1_2 Mg1_6 2.791966 1_455
Mg1_3 O2_1 2.390181 1_555
Mg1_3 O2_3 2.390181 1_555
Mg1_3 O2_7 2.390181 1_455
Mg1_3 O2_5 2.390181 1_455
Mg1_3 O1_3 2.390181 1_555
Mg1_3 O1_7 2.390181 1_455
Mg1_3 O1_1 2.390181 1_555
Mg1_3 O1_5 2.390181 1_455
Mg1_3 Mg2_3 2.697178 1_555
Mg1_3 Mg1_7 2.791966 1_555
Mg1_3 Mg1_7 2.791966 1_455
Mg1_4 O2_0 2.390181 1_555
Mg1_4 O2_4 2.390181 1_555
Mg1_4 O2_2 2.390181 1_545
Mg1_4 O2_6 2.390181 1_545
Mg1_4 O1_2 2.390181 1_545
Mg1_4 O1_6 2.390181 1_545
Mg1_4 O1_4 2.390181 1_555
Mg1_4 O1_0 2.390181 1_555
Mg1_4 Mg2_4 2.697178 1_555
Mg1_4 Mg1_6 2.791966 1_555
Mg1_4 Mg1_6 2.791966 1_545
Mg1_5 O2_1 2.390181 1_555
Mg1_5 O2_5 2.390181 1_555
Mg1_5 O2_3 2.390181 1_545
Mg1_5 O2_7 2.390181 1_545
Mg1_5 O1_5 2.390181 1_555
Mg1_5 O1_7 2.390181 1_545
Mg1_5 O1_1 2.390181 1_555
Mg1_5 O1_3 2.390181 1_545
Mg1_5 Mg2_5 2.697178 1_555
Mg1_5 Mg1_7 2.791966 1_545
Mg1_5 Mg1_7 2.791966 1_555
Mg1_6 O2_0 2.390181 1_555
Mg1_6 O2_2 2.390181 1_555
Mg1_6 O2_6 2.390181 1_555
Mg1_6 O2_4 2.390181 1_555
Mg1_6 O1_6 2.390181 1_555
Mg1_6 O1_4 2.390181 1_555
Mg1_6 O1_2 2.390181 1_555
Mg1_6 O1_0 2.390181 1_555
Mg1_6 Mg2_6 2.697178 1_555
Mg1_7 O2_1 2.390181 1_555
Mg1_7 O2_5 2.390181 1_555
Mg1_7 O2_3 2.390181 1_555
Mg1_7 O2_7 2.390181 1_555
Mg1_7 O1_5 2.390181 1_555
Mg1_7 O1_3 2.390181 1_555
Mg1_7 O1_1 2.390181 1_555
Mg1_7 O1_7 2.390181 1_555
Mg1_7 Mg2_7 2.697178 1_555
Mg2_0 O3_4 2.367596 1_455
Mg2_0 O3_2 2.367596 1_545
Mg2_0 O3_0 2.367596 1_555
Mg2_0 O3_6 2.367596 1_445
Mg2_0 O2_0 2.391547 1_555
Mg2_0 O2_4 2.391547 1_455
Mg2_0 O2_2 2.391547 1_545
Mg2_0 O2_6 2.391547 1_445
Mg2_1 O3_3 2.367596 1_545
Mg2_1 O3_1 2.367596 1_555
Mg2_1 O3_7 2.367596 1_445
Mg2_1 O3_5 2.367596 1_455
Mg2_1 O2_1 2.391547 1_555
Mg2_1 O2_5 2.391547 1_455
Mg2_1 O2_3 2.391547 1_545
Mg2_1 O2_7 2.391547 1_445
Mg2_2 O3_6 2.367596 1_455
Mg2_2 O3_4 2.367596 1_455
Mg2_2 O3_0 2.367596 1_555
Mg2_2 O3_2 2.367596 1_555
Mg2_2 O2_2 2.391547 1_555
Mg2_2 O2_0 2.391547 1_555
Mg2_2 O2_4 2.391547 1_455
Mg2_2 O2_6 2.391547 1_455
Mg2_3 O3_3 2.367596 1_555
Mg2_3 O3_7 2.367596 1_455
Mg2_3 O3_1 2.367596 1_555
Mg2_3 O3_5 2.367596 1_455
Mg2_3 O2_1 2.391547 1_555
Mg2_3 O2_5 2.391547 1_455
Mg2_3 O2_7 2.391547 1_455
Mg2_3 O2_3 2.391547 1_555
Mg2_4 O3_2 2.367596 1_545
Mg2_4 O3_4 2.367596 1_555
Mg2_4 O3_6 2.367596 1_545
Mg2_4 O3_0 2.367596 1_555
Mg2_4 O2_0 2.391547 1_555
Mg2_4 O2_2 2.391547 1_545
Mg2_4 O2_6 2.391547 1_545
Mg2_4 O2_4 2.391547 1_555
Mg2_5 O3_3 2.367596 1_545
Mg2_5 O3_7 2.367596 1_545
Mg2_5 O3_5 2.367596 1_555
Mg2_5 O3_1 2.367596 1_555
Mg2_5 O2_1 2.391547 1_555
Mg2_5 O2_5 2.391547 1_555
Mg2_5 O2_3 2.391547 1_545
Mg2_5 O2_7 2.391547 1_545
Mg2_6 O3_6 2.367596 1_555
Mg2_6 O3_4 2.367596 1_555
Mg2_6 O3_0 2.367596 1_555
Mg2_6 O3_2 2.367596 1_555
Mg2_6 O2_2 2.391547 1_555
Mg2_6 O2_0 2.391547 1_555
Mg2_6 O2_6 2.391547 1_555
Mg2_6 O2_4 2.391547 1_555
Mg2_7 O3_3 2.367596 1_555
Mg2_7 O3_5 2.367596 1_555
Mg2_7 O3_7 2.367596 1_555
Mg2_7 O3_1 2.367596 1_555
Mg2_7 O2_1 2.391547 1_555
Mg2_7 O2_5 2.391547 1_555
Mg2_7 O2_3 2.391547 1_555
Mg2_7 O2_7 2.391547 1_555
O0_0 Sr0_4 2.557024 1_555
O0_0 Sr0_6 2.557024 1_555
O0_0 Sr0_2 2.557024 1_555
O0_0 Sr0_0 2.557024 1_555
O0_0 O1_0 2.656693 1_555
O0_0 O0_4 2.791966 1_555
O0_0 O0_2 2.791966 1_555
O0_0 O0_4 2.791966 1_455
O0_0 O0_2 2.791966 1_545
O0_1 Sr0_5 2.557024 1_555
O0_1 Sr0_3 2.557024 1_555
O0_1 Sr0_7 2.557024 1_555
O0_1 Sr0_1 2.557024 1_555
O0_1 O1_1 2.656693 1_555
O0_1 O0_5 2.791966 1_555
O0_1 O0_5 2.791966 1_455
O0_1 O0_3 2.791966 1_545
O0_1 O0_3 2.791966 1_555
O0_2 Sr0_0 2.557024 1_565
O0_2 Sr0_4 2.557024 1_565
O0_2 Sr0_2 2.557024 1_555
O0_2 Sr0_6 2.557024 1_555
O0_2 O1_2 2.656693 1_555
O0_2 O0_6 2.791966 1_455
O0_2 O0_6 2.791966 1_555
O0_3 Sr0_5 2.557024 1_565
O0_3 Sr0_3 2.557024 1_555
O0_3 Sr0_7 2.557024 1_555
O0_3 Sr0_1 2.557024 1_565
O0_3 O1_3 2.656693 1_555
O0_3 O0_7 2.791966 1_455
O0_3 O0_7 2.791966 1_555
O0_4 Sr0_4 2.557024 1_555
O0_4 Sr0_0 2.557024 1_655
O0_4 Sr0_2 2.557024 1_655
O0_4 Sr0_6 2.557024 1_555
O0_4 O1_4 2.656693 1_555
O0_4 O0_6 2.791966 1_545
O0_4 O0_6 2.791966 1_555
O0_5 Sr0_5 2.557024 1_555
O0_5 Sr0_3 2.557024 1_655
O0_5 Sr0_7 2.557024 1_555
O0_5 Sr0_1 2.557024 1_655
O0_5 O1_5 2.656693 1_555
O0_5 O0_7 2.791966 1_555
O0_5 O0_7 2.791966 1_545
O0_6 Sr0_4 2.557024 1_565
O0_6 Sr0_0 2.557024 1_665
O0_6 Sr0_2 2.557024 1_655
O0_6 Sr0_6 2.557024 1_555
O0_6 O1_6 2.656693 1_555
O0_7 Sr0_1 2.557024 1_665
O0_7 Sr0_5 2.557024 1_565
O0_7 Sr0_3 2.557024 1_655
O0_7 Sr0_7 2.557024 1_555
O0_7 O1_7 2.656693 1_555
O1_0 O2_0 2.694758 1_555
O1_0 O1_4 2.791966 1_555
O1_0 O1_4 2.791966 1_455
O1_0 O1_2 2.791966 1_545
O1_0 O1_2 2.791966 1_555
O1_1 O2_1 2.694758 1_555
O1_1 O1_3 2.791966 1_555
O1_1 O1_3 2.791966 1_545
O1_1 O1_5 2.791966 1_455
O1_1 O1_5 2.791966 1_555
O1_2 O2_2 2.694758 1_555
O1_2 O1_6 2.791966 1_555
O1_2 O1_6 2.791966 1_455
O1_3 O2_3 2.694758 1_555
O1_3 O1_7 2.791966 1_455
O1_3 O1_7 2.791966 1_555
O1_4 O2_4 2.694758 1_555
O1_4 O1_6 2.791966 1_555
O1_4 O1_6 2.791966 1_545
O1_5 O2_5 2.694758 1_555
O1_5 O1_7 2.791966 1_555
O1_5 O1_7 2.791966 1_545
O1_6 O2_6 2.694758 1_555
O1_7 O2_7 2.694758 1_555
O2_0 O3_0 2.656693 1_555
O2_0 O2_4 2.791966 1_455
O2_0 O2_2 2.791966 1_545
O2_0 O2_4 2.791966 1_555
O2_0 O2_2 2.791966 1_555
O2_1 O3_1 2.656693 1_555
O2_1 O2_3 2.791966 1_555
O2_1 O2_5 2.791966 1_455
O2_1 O2_5 2.791966 1_555
O2_1 O2_3 2.791966 1_545
O2_2 O3_2 2.656693 1_555
O2_2 O2_6 2.791966 1_455
O2_2 O2_6 2.791966 1_555
O2_3 O3_3 2.656693 1_555
O2_3 O2_7 2.791966 1_555
O2_3 O2_7 2.791966 1_455
O2_4 O3_4 2.656693 1_555
O2_4 O2_6 2.791966 1_545
O2_4 O2_6 2.791966 1_555
O2_5 O3_5 2.656693 1_555
O2_5 O2_7 2.791966 1_555
O2_5 O2_7 2.791966 1_545
O2_6 O3_6 2.656693 1_555
O2_7 O3_7 2.656693 1_555
O3_0 Sr0_5 2.557024 1_555
O3_0 Sr0_3 2.557024 1_555
O3_0 Sr0_7 2.557024 1_555
O3_0 Sr0_1 2.557024 1_555
O3_0 O3_4 2.791966 1_455
O3_0 O3_2 2.791966 1_545
O3_0 O3_4 2.791966 1_555
O3_0 O3_2 2.791966 1_555
O3_1 Sr0_6 2.557024 1_556
O3_1 Sr0_0 2.557024 1_556
O3_1 Sr0_4 2.557024 1_556
O3_1 Sr0_2 2.557024 1_556
O3_1 O3_3 2.791966 1_555
O3_1 O3_5 2.791966 1_555
O3_1 O3_5 2.791966 1_455
O3_1 O3_3 2.791966 1_545
O3_2 Sr0_5 2.557024 1_565
O3_2 Sr0_3 2.557024 1_555
O3_2 Sr0_7 2.557024 1_555
O3_2 Sr0_1 2.557024 1_565
O3_2 O3_6 2.791966 1_455
O3_2 O3_6 2.791966 1_555
O3_3 Sr0_6 2.557024 1_556
O3_3 Sr0_0 2.557024 1_566
O3_3 Sr0_4 2.557024 1_566
O3_3 Sr0_2 2.557024 1_556
O3_3 O3_7 2.791966 1_455
O3_3 O3_7 2.791966 1_555
O3_4 Sr0_5 2.557024 1_555
O3_4 Sr0_3 2.557024 1_655
O3_4 Sr0_7 2.557024 1_555
O3_4 Sr0_1 2.557024 1_655
O3_4 O3_6 2.791966 1_555
O3_4 O3_6 2.791966 1_545
O3_5 Sr0_2 2.557024 1_656
O3_5 Sr0_6 2.557024 1_556
O3_5 Sr0_0 2.557024 1_656
O3_5 Sr0_4 2.557024 1_556
O3_5 O3_7 2.791966 1_545
O3_5 O3_7 2.791966 1_555
O3_6 Sr0_1 2.557024 1_665
O3_6 Sr0_5 2.557024 1_565
O3_6 Sr0_3 2.557024 1_655
O3_6 Sr0_7 2.557024 1_555
O3_7 Sr0_2 2.557024 1_656
O3_7 Sr0_6 2.557024 1_556
O3_7 Sr0_4 2.557024 1_566
O3_7 Sr0_0 2.557024 1_666
