# generated using pymatgen
data_MgV2O4
_symmetry_space_group_name_H-M   'P 1'
_cell_length_a   6.06009679
_cell_length_b   6.06009679
_cell_length_c   14.84882200
_cell_angle_alpha   90.00000000
_cell_angle_beta   90.00000000
_cell_angle_gamma   120.00000865
_symmetry_Int_Tables_number   1
_chemical_formula_structural   MgV2O4
_chemical_formula_sum   'Mg6 V12 O24'
_cell_volume   472.26060225
_cell_formula_units_Z   6
loop_
 _symmetry_equiv_pos_site_id
 _symmetry_equiv_pos_as_xyz
  1  'x, y, z'
loop_
 _atom_site_type_symbol
 _atom_site_label
 _atom_site_symmetry_multiplicity
 _atom_site_fract_x
 _atom_site_fract_y
 _atom_site_fract_z
 _atom_site_occupancy
  Mg  Mg0  1  0.66666700  0.33333300  0.95464600  1
  Mg  Mg1  1  0.00000000  0.00000000  0.62052400  1
  Mg  Mg2  1  0.33333300  0.66666700  0.66500100  1
  Mg  Mg3  1  0.33333300  0.66666700  0.29246200  1
  Mg  Mg4  1  0.00000000  0.00000000  0.99787400  1
  Mg  Mg5  1  0.00000000  0.00000000  0.37688800  1
  V  V0  1  0.16420200  0.83579800  0.83354500  1
  V  V1  1  0.16420200  0.32840400  0.83354500  1
  V  V2  1  0.49836800  0.50163200  0.50047300  1
  V  V3  1  0.67159600  0.83579800  0.83354500  1
  V  V4  1  0.49836800  0.99673500  0.50047300  1
  V  V5  1  0.66666700  0.33333300  0.33553700  1
  V  V6  1  0.66666700  0.33333300  0.71076800  1
  V  V7  1  0.83246900  0.16753100  0.16697600  1
  V  V8  1  0.00326500  0.50163200  0.50047300  1
  V  V9  1  0.83246900  0.66493700  0.16697600  1
  V  V10  1  0.33506300  0.16753100  0.16697600  1
  V  V11  1  0.33333300  0.66666700  0.04331900  1
  O  O0  1  0.84513300  0.15486700  0.91175500  1
  O  O1  1  0.00000000  0.00000000  0.75861900  1
  O  O2  1  0.84513300  0.69026600  0.91175500  1
  O  O3  1  0.30973400  0.15486700  0.91175500  1
  O  O4  1  0.17860700  0.82139300  0.57611300  1
  O  O5  1  0.01989500  0.50994700  0.75525000  1
  O  O6  1  0.33333300  0.66666700  0.42518700  1
  O  O7  1  0.49005300  0.98010500  0.75525000  1
  O  O8  1  0.33333300  0.66666700  0.90892900  1
  O  O9  1  0.17860700  0.35721400  0.57611300  1
  O  O10  1  0.64278600  0.82139300  0.57611300  1
  O  O11  1  0.49005300  0.50994700  0.75525000  1
  O  O12  1  0.51319900  0.48680100  0.24670400  1
  O  O13  1  0.35882900  0.17941500  0.42043600  1
  O  O14  1  0.82058500  0.64117100  0.42043600  1
  O  O15  1  0.66666700  0.33333300  0.09324600  1
  O  O16  1  0.66666700  0.33333300  0.57844700  1
  O  O17  1  0.51319900  0.02639700  0.24670400  1
  O  O18  1  0.97360300  0.48680100  0.24670400  1
  O  O19  1  0.82058500  0.17941500  0.42043600  1
  O  O20  1  0.68346500  0.84173300  0.08835100  1
  O  O21  1  0.15826700  0.31653500  0.08835100  1
  O  O22  1  0.00000000  0.00000000  0.23936000  1
  O  O23  1  0.15826700  0.84173300  0.08835100  1
loop_
_geom_bond_atom_site_label_1
_geom_bond_atom_site_label_2
_geom_bond_distance
_geom_bond_site_symmetry_2
Mg0 O0 1.978556 1_555
Mg0 O2 1.978560 1_555
Mg0 O3 1.978560 1_555
Mg0 O15 2.058047 1_556
Mg1 O9 1.987332 1_555
Mg1 O10 1.987332 1_445
Mg1 O4 1.987332 1_545
Mg1 O1 2.050548 1_555
Mg2 O4 2.092768 1_555
Mg2 O10 2.092772 1_555
Mg2 O9 2.092772 1_555
Mg2 O5 2.121749 1_555
Mg2 O7 2.121749 1_555
Mg2 O11 2.121757 1_555
Mg3 O6 1.970810 1_555
Mg3 O18 2.006477 1_455
Mg3 O17 2.006477 1_565
Mg3 O12 2.006487 1_555
Mg4 O3 2.068245 1_555
Mg4 O2 2.068245 1_445
Mg4 O0 2.068245 1_455
Mg4 O23 2.136498 1_546
Mg4 O20 2.136502 1_446
Mg4 O21 2.136502 1_556
Mg5 O13 1.991131 1_555
Mg5 O14 1.991131 1_445
Mg5 O19 1.991136 1_455
Mg5 O22 2.042129 1_555
O0 V3 2.039597 1_545
O0 V1 2.039597 1_655
O1 V1 2.051426 1_555
O1 V3 2.051426 1_445
O1 V0 2.051426 1_545
O2 V0 2.039597 1_655
O2 V3 2.039597 1_555
O3 V0 2.039597 1_545
O3 V1 2.039597 1_555
O4 V8 2.021517 1_555
O4 V4 2.021517 1_555
O5 V6 1.967963 1_455
O5 V1 2.070959 1_555
O5 V0 2.070963 1_555
O6 V4 2.061662 1_555
O6 V8 2.061662 1_555
O6 V2 2.061671 1_555
O7 V6 1.967963 1_565
O7 V3 2.070959 1_555
O7 V0 2.070963 1_555
O8 V11 1.995533 1_556
O8 V0 2.098701 1_555
O8 V1 2.098705 1_555
O8 V3 2.098705 1_555
O9 V8 2.021513 1_555
O9 V2 2.021517 1_555
O10 V4 2.021513 1_555
O10 V2 2.021517 1_555
O11 V6 1.967964 1_555
O11 V1 2.070963 1_555
O11 V3 2.070963 1_555
O12 V9 2.054682 1_555
O12 V10 2.054682 1_555
O12 V5 2.082020 1_555
O13 V5 2.049240 1_555
O13 V2 2.071036 1_555
O13 V4 2.071045 1_545
O14 V5 2.049240 1_555
O14 V2 2.071036 1_555
O14 V8 2.071045 1_655
O15 V10 2.056045 1_555
O15 V9 2.056045 1_555
O15 V7 2.056045 1_555
O16 V6 1.964811 1_555
O16 V8 2.112153 1_655
O16 V4 2.112153 1_545
O16 V2 2.112153 1_555
O17 V7 2.054682 1_555
O17 V10 2.054683 1_555
O17 V5 2.082020 1_555
O18 V7 2.054682 1_555
O18 V9 2.054683 1_555
O18 V5 2.082020 1_555
O19 V5 2.049232 1_555
O19 V8 2.071037 1_655
O19 V4 2.071037 1_545
O20 V11 1.955443 1_555
O20 V7 2.072128 1_565
O20 V9 2.072137 1_555
O21 V11 1.955443 1_555
O21 V7 2.072128 1_455
O21 V10 2.072137 1_555
O22 V7 2.060935 1_455
O22 V9 2.060940 1_445
O22 V10 2.060940 1_555
O23 V11 1.955443 1_555
O23 V10 2.072129 1_565
O23 V9 2.072129 1_455
