# generated using pymatgen
data_CeOF
_symmetry_space_group_name_H-M   'P 1'
_cell_length_a   3.98033600
_cell_length_b   3.98033600
_cell_length_c   5.89597100
_cell_angle_alpha   90.00000000
_cell_angle_beta   90.00000000
_cell_angle_gamma   90.00000000
_symmetry_Int_Tables_number   1
_chemical_formula_structural   CeOF
_chemical_formula_sum   'Ce2 O2 F2'
_cell_volume   93.41030882
_cell_formula_units_Z   2
loop_
 _symmetry_equiv_pos_site_id
 _symmetry_equiv_pos_as_xyz
  1  'x, y, z'
loop_
 _atom_site_type_symbol
 _atom_site_label
 _atom_site_symmetry_multiplicity
 _atom_site_fract_x
 _atom_site_fract_y
 _atom_site_fract_z
 _atom_site_occupancy
  Ce  Ce0  1  0.50000000  0.00000000  0.20540300  1
  Ce  Ce1  1  0.00000000  0.50000000  0.79459700  1
  O  O0  1  0.50000000  0.50000000  0.00000000  1
  O  O1  1  0.00000000  0.00000000  0.00000000  1
  F  F0  1  0.50000000  0.00000000  0.60888400  1
  F  F1  1  0.00000000  0.50000000  0.39111600  1
loop_
_geom_bond_atom_site_label_1
_geom_bond_atom_site_label_2
_geom_bond_distance
_geom_bond_site_symmetry_2
Ce0 O1 2.329680 1_555
Ce0 O0 2.329680 1_555
Ce0 O0 2.329680 1_545
Ce0 O1 2.329680 1_655
Ce0 F0 2.378912 1_555
Ce0 F1 3.020012 1_555
Ce0 F1 3.020012 1_645
Ce0 F1 3.020012 1_655
Ce0 F1 3.020012 1_545
Ce1 O1 2.329680 1_556
Ce1 O0 2.329680 1_456
Ce1 O0 2.329680 1_556
Ce1 O1 2.329680 1_566
Ce1 F1 2.378912 1_555
Ce1 F0 3.020012 1_455
Ce1 F0 3.020012 1_555
Ce1 F0 3.020012 1_565
Ce1 F0 3.020012 1_465
O0 O1 2.814523 1_655
O0 O1 2.814523 1_565
O0 O1 2.814523 1_665
O0 O1 2.814523 1_555
F0 O0 3.046054 1_556
F0 O1 3.046054 1_656
F0 O1 3.046054 1_556
F0 O0 3.046054 1_546
F0 F1 3.093554 1_645
F0 F1 3.093554 1_555
F0 F1 3.093554 1_655
F0 F1 3.093554 1_545
F1 O0 3.046054 1_555
F1 O0 3.046054 1_455
F1 O1 3.046054 1_565
F1 O1 3.046054 1_555
