# generated using pymatgen
data_Rb4GeO4
_symmetry_space_group_name_H-M   'P 1'
_cell_length_a   6.79631794
_cell_length_b   10.87837111
_cell_length_c   11.00378264
_cell_angle_alpha   67.70891135
_cell_angle_beta   90.00000000
_cell_angle_gamma   90.00000000
_symmetry_Int_Tables_number   1
_chemical_formula_structural   Rb4GeO4
_chemical_formula_sum   'Rb16 Ge4 O16'
_cell_volume   752.74424459
_cell_formula_units_Z   4
loop_
 _symmetry_equiv_pos_site_id
 _symmetry_equiv_pos_as_xyz
  1  'x, y, z'
loop_
 _atom_site_type_symbol
 _atom_site_label
 _atom_site_symmetry_multiplicity
 _atom_site_fract_x
 _atom_site_fract_y
 _atom_site_fract_z
 _atom_site_occupancy
  Rb  Rb0  1  0.68480207  0.29126887  0.07905487  1
  Rb  Rb1  1  0.18480207  0.20873113  0.92094513  1
  Rb  Rb2  1  0.31519793  0.70873113  0.92094513  1
  Rb  Rb3  1  0.81519793  0.79126887  0.07905487  1
  Rb  Rb4  1  0.91459800  0.20470634  0.43335190  1
  Rb  Rb5  1  0.41459800  0.29529366  0.56664810  1
  Rb  Rb6  1  0.08540200  0.79529366  0.56664810  1
  Rb  Rb7  1  0.58540200  0.70470634  0.43335190  1
  Rb  Rb8  1  0.17280360  0.39054746  0.12718388  1
  Rb  Rb9  1  0.67280360  0.10945254  0.87281612  1
  Rb  Rb10  1  0.82719640  0.60945254  0.87281612  1
  Rb  Rb11  1  0.32719640  0.89054746  0.12718388  1
  Rb  Rb12  1  0.88580987  0.42245010  0.65717010  1
  Rb  Rb13  1  0.38580987  0.07754990  0.34282990  1
  Rb  Rb14  1  0.11419013  0.57754990  0.34282990  1
  Rb  Rb15  1  0.61419013  0.92245010  0.65717010  1
  Ge  Ge0  1  0.87098200  0.98812006  0.26062903  1
  Ge  Ge1  1  0.37098200  0.51187994  0.73937097  1
  Ge  Ge2  1  0.12901800  0.01187994  0.73937097  1
  Ge  Ge3  1  0.62901800  0.48812006  0.26062903  1
  O  O0  1  0.00398457  0.83946186  0.28530635  1
  O  O1  1  0.50398457  0.66053814  0.71469365  1
  O  O2  1  0.99601543  0.16053814  0.71469365  1
  O  O3  1  0.49601543  0.33946186  0.28530635  1
  O  O4  1  0.73104448  0.47316160  0.41404068  1
  O  O5  1  0.23104448  0.02683840  0.58595932  1
  O  O6  1  0.26895552  0.52683840  0.58595932  1
  O  O7  1  0.76895552  0.97316160  0.41404068  1
  O  O8  1  0.02642171  0.13089680  0.19260922  1
  O  O9  1  0.52642171  0.36910320  0.80739078  1
  O  O10  1  0.97357829  0.86910320  0.80739078  1
  O  O11  1  0.47357829  0.63089680  0.19260922  1
  O  O12  1  0.67167053  0.00637647  0.14868293  1
  O  O13  1  0.17167053  0.49362353  0.85131707  1
  O  O14  1  0.32832947  0.99362353  0.85131707  1
  O  O15  1  0.82832947  0.50637647  0.14868293  1
loop_
_geom_bond_atom_site_label_1
_geom_bond_atom_site_label_2
_geom_bond_distance
_geom_bond_site_symmetry_2
Rb0 Rb10 3.479712 1_554
Rb0 Rb9 3.531849 1_554
Rb0 Rb13 3.583265 1_555
Rb0 Rb8 3.740201 1_555
Rb1 Rb11 3.479712 1_546
Rb1 Rb8 3.531849 1_556
Rb1 Rb12 3.583265 1_455
Rb1 Rb9 3.740201 1_455
Rb2 Rb8 3.479712 1_556
Rb3 Rb9 3.479712 1_564
Rb4 Rb8 3.653738 1_655
Rb5 Rb9 3.653738 1_555
Rb10 Rb3 3.531849 1_556
Rb10 Rb6 3.653738 1_655
Rb10 Rb12 3.686431 1_555
Rb10 Rb2 3.740201 1_555
Rb11 Rb2 3.531849 1_554
Rb11 Rb7 3.653738 1_555
Rb11 Rb13 3.686431 1_565
Rb11 Rb3 3.740201 1_455
Rb12 Rb7 3.731634 1_555
Rb13 Rb6 3.731634 1_545
Rb14 Rb3 3.583265 1_455
Rb14 Rb8 3.686431 1_555
Rb14 Rb5 3.731634 1_555
Rb15 Rb2 3.583265 1_555
Rb15 Rb9 3.686431 1_565
Rb15 Rb4 3.731634 1_565
Ge0 O7 1.774432 1_555
Ge0 O0 1.781261 1_655
Ge0 O12 1.790574 1_565
Ge0 O8 1.790722 1_665
Ge1 O6 1.774432 1_555
Ge1 O1 1.781261 1_555
Ge1 O13 1.790574 1_555
Ge1 O9 1.790722 1_555
Ge2 O5 1.774432 1_555
Ge2 O2 1.781261 1_455
Ge2 O14 1.790574 1_545
Ge2 O10 1.790722 1_445
Ge3 O4 1.774432 1_555
Ge3 O3 1.781261 1_555
Ge3 O15 1.790574 1_555
Ge3 O11 1.790722 1_555
O0 Rb11 2.725431 1_555
O0 Rb14 2.776923 1_555
O0 Rb3 2.823926 1_455
O0 Rb6 2.998788 1_555
O0 Rb7 3.329281 1_455
O1 Rb10 2.725431 1_555
O1 Rb15 2.776923 1_555
O1 Rb2 2.823926 1_555
O1 Rb7 2.998788 1_555
O1 Rb6 3.329281 1_555
O2 Rb9 2.725431 1_555
O2 Rb12 2.776923 1_555
O2 Rb1 2.823926 1_655
O2 Rb4 2.998788 1_555
O2 Rb5 3.329281 1_655
O3 Rb8 2.725431 1_555
O3 Rb13 2.776923 1_555
O3 Rb0 2.823926 1_555
O3 Rb5 2.998788 1_555
O3 Rb4 3.329281 1_555
O4 Rb12 2.729196 1_555
O4 Rb7 2.788454 1_555
O4 Rb14 2.830055 1_655
O4 Rb5 2.953684 1_555
O4 Rb4 3.107907 1_555
O5 Rb13 2.729196 1_555
O5 Rb6 2.788454 1_545
O5 Rb15 2.830055 1_545
O5 Rb4 2.953684 1_455
O5 Rb5 3.107907 1_555
O6 Rb14 2.729196 1_555
O6 Rb5 2.788454 1_555
O6 Rb12 2.830055 1_455
O6 Rb7 2.953684 1_555
O6 Rb6 3.107907 1_555
O7 Rb15 2.729196 1_555
O7 Rb4 2.788454 1_565
O7 Rb13 2.830055 1_565
O7 Rb6 2.953684 1_655
O7 Rb7 3.107907 1_555
O8 Rb8 2.818442 1_555
O8 Rb13 2.882244 1_555
O8 Rb0 2.888203 1_455
O8 Rb1 2.981865 1_554
O8 Rb4 3.139030 1_455
O8 Rb11 3.600145 1_545
O9 Rb9 2.818442 1_555
O9 Rb12 2.882244 1_555
O9 Rb1 2.888203 1_555
O9 Rb0 2.981865 1_556
O9 Rb5 3.139030 1_555
O9 Rb10 3.600145 1_555
O10 Rb10 2.818442 1_555
O10 Rb15 2.882244 1_555
O10 Rb2 2.888203 1_655
O10 Rb3 2.981865 1_556
O10 Rb6 3.139030 1_655
O10 Rb9 3.600145 1_565
O11 Rb11 2.818442 1_555
O11 Rb14 2.882244 1_555
O11 Rb3 2.888203 1_555
O11 Rb2 2.981865 1_554
O11 Rb7 3.139030 1_555
O11 Rb8 3.600145 1_555
O12 Rb11 2.711234 1_545
O12 Rb9 2.808898 1_554
O12 Rb3 2.893845 1_545
O12 Rb0 2.898010 1_555
O12 Rb13 3.192609 1_555
O12 Rb7 3.623111 1_545
O13 Rb10 2.711234 1_455
O13 Rb8 2.808898 1_556
O13 Rb2 2.893845 1_555
O13 Rb1 2.898010 1_555
O13 Rb12 3.192609 1_455
O13 Rb6 3.623111 1_555
O14 Rb9 2.711234 1_565
O14 Rb11 2.808898 1_556
O14 Rb1 2.893845 1_565
O14 Rb2 2.898010 1_555
O14 Rb15 3.192609 1_555
O14 Rb5 3.623111 1_565
O15 Rb8 2.711234 1_655
O15 Rb10 2.808898 1_554
O15 Rb0 2.893845 1_555
O15 Rb3 2.898010 1_555
O15 Rb14 3.192609 1_655
O15 Rb4 3.623111 1_555
