# generated using pymatgen
data_CsSO4
_symmetry_space_group_name_H-M   'P 1'
_cell_length_a   5.88036817
_cell_length_b   5.34096645
_cell_length_c   7.08513227
_cell_angle_alpha   77.66391993
_cell_angle_beta   89.99993351
_cell_angle_gamma   90.00001059
_symmetry_Int_Tables_number   1
_chemical_formula_structural   CsSO4
_chemical_formula_sum   'Cs2 S2 O8'
_cell_volume   217.38392878
_cell_formula_units_Z   2
loop_
 _symmetry_equiv_pos_site_id
 _symmetry_equiv_pos_as_xyz
  1  'x, y, z'
loop_
 _atom_site_type_symbol
 _atom_site_label
 _atom_site_symmetry_multiplicity
 _atom_site_fract_x
 _atom_site_fract_y
 _atom_site_fract_z
 _atom_site_occupancy
  Cs  Cs0  1  0.74999962  0.45857936  0.23980746  1
  Cs  Cs1  1  0.25000038  0.54142064  0.76019254  1
  S  S0  1  0.75000029  0.01839503  0.74418781  1
  S  S1  1  0.24999971  0.98160497  0.25581219  1
  O  O0  1  0.75000075  0.74030808  0.79627588  1
  O  O1  1  0.24999925  0.25969192  0.20372412  1
  O  O2  1  0.75000023  0.13646959  0.91355756  1
  O  O3  1  0.24999977  0.86353041  0.08644244  1
  O  O4  1  0.95851555  0.11467944  0.63274159  1
  O  O5  1  0.04148445  0.88532056  0.36725841  1
  O  O6  1  0.45851569  0.88532163  0.36725759  1
  O  O7  1  0.54148431  0.11467837  0.63274241  1
loop_
_geom_bond_atom_site_label_1
_geom_bond_atom_site_label_2
_geom_bond_distance
_geom_bond_site_symmetry_2
Cs0 O6 3.134895 1_555
Cs0 O5 3.134897 1_655
Cs0 O1 3.155067 1_655
Cs0 O1 3.155071 1_555
Cs0 O2 3.162601 1_554
Cs0 O0 3.181017 1_554
Cs0 O4 3.231528 1_555
Cs0 O7 3.231531 1_555
Cs0 O6 3.456338 1_545
Cs0 O5 3.456347 1_645
Cs1 O7 3.134895 1_555
Cs1 O4 3.134897 1_455
Cs1 O0 3.155067 1_455
Cs1 O0 3.155071 1_555
Cs1 O3 3.162601 1_556
Cs1 O1 3.181017 1_556
Cs1 O5 3.231528 1_555
Cs1 O6 3.231531 1_555
Cs1 O7 3.456338 1_565
Cs1 O4 3.456347 1_465
O0 S0 1.451882 1_565
O1 S1 1.451882 1_545
O2 S0 1.470059 1_555
O3 S1 1.470059 1_555
O4 S0 1.489251 1_555
O5 S1 1.489251 1_555
O6 S1 1.489252 1_555
O7 S0 1.489252 1_555
