# generated using pymatgen
data_CuH10C2(NCl2)2
_symmetry_space_group_name_H-M   'P 1'
_cell_length_a   7.45351600
_cell_length_b   7.22143500
_cell_length_c   8.25591301
_cell_angle_alpha   89.66750422
_cell_angle_beta   90.00000000
_cell_angle_gamma   90.00000000
_symmetry_Int_Tables_number   1
_chemical_formula_structural   CuH10C2(NCl2)2
_chemical_formula_sum   'Cu2 H20 C4 N4 Cl8'
_cell_volume   444.36770687
_cell_formula_units_Z   2
loop_
 _symmetry_equiv_pos_site_id
 _symmetry_equiv_pos_as_xyz
  1  'x, y, z'
loop_
 _atom_site_type_symbol
 _atom_site_label
 _atom_site_symmetry_multiplicity
 _atom_site_fract_x
 _atom_site_fract_y
 _atom_site_fract_z
 _atom_site_occupancy
  Cu  Cu0  1  0.50000000  0.00000000  0.50000000  1
  Cu  Cu1  1  0.00000000  0.50000000  0.50000000  1
  H  H0  1  0.05180200  0.07064300  0.68125900  1
  H  H1  1  0.55180200  0.42935700  0.31874100  1
  H  H2  1  0.94819800  0.92935700  0.31874100  1
  H  H3  1  0.44819800  0.57064400  0.68125900  1
  H  H4  1  0.98578100  0.85908700  0.75097200  1
  H  H5  1  0.48578100  0.64091300  0.24902800  1
  H  H6  1  0.01421900  0.14091300  0.24902800  1
  H  H7  1  0.51421900  0.35908700  0.75097200  1
  H  H8  1  0.84398700  0.03871700  0.76084100  1
  H  H9  1  0.34398700  0.46128300  0.23915900  1
  H  H10  1  0.15601300  0.96128300  0.23915900  1
  H  H11  1  0.65601300  0.53871700  0.76084100  1
  H  H12  1  0.04348600  0.20087700  0.94505400  1
  H  H13  1  0.54348600  0.29912300  0.05494600  1
  H  H14  1  0.95651400  0.79912300  0.05494600  1
  H  H15  1  0.45651400  0.70087700  0.94505400  1
  H  H16  1  0.19502900  0.01034300  0.93478000  1
  H  H17  1  0.69502900  0.48965700  0.06522000  1
  H  H18  1  0.80497100  0.98965700  0.06522000  1
  H  H19  1  0.30497100  0.51034300  0.93478000  1
  C  C0  1  0.05261200  0.04932000  0.93347600  1
  C  C1  1  0.55261200  0.45068000  0.06652400  1
  C  C2  1  0.94738800  0.95068000  0.06652400  1
  C  C3  1  0.44738800  0.54932000  0.93347600  1
  N  N0  1  0.97869700  0.00128900  0.77163000  1
  N  N1  1  0.47869700  0.49871100  0.22837000  1
  N  N2  1  0.02130300  0.99871100  0.22837000  1
  N  N3  1  0.52130300  0.50128900  0.77163000  1
  Cl  Cl0  1  0.54195600  0.03048200  0.77892400  1
  Cl  Cl1  1  0.04195600  0.46951800  0.22107600  1
  Cl  Cl2  1  0.45804400  0.96951800  0.22107600  1
  Cl  Cl3  1  0.95804400  0.53048200  0.77892400  1
  Cl  Cl4  1  0.79427300  0.73238000  0.45996600  1
  Cl  Cl5  1  0.29427300  0.76762000  0.54003400  1
  Cl  Cl6  1  0.20572700  0.26762000  0.54003400  1
  Cl  Cl7  1  0.70572700  0.23238000  0.45996600  1
loop_
_geom_bond_atom_site_label_1
_geom_bond_atom_site_label_2
_geom_bond_distance
_geom_bond_site_symmetry_2
H0 N0 1.048838 1_455
H1 N1 1.048838 1_555
H2 N2 1.048838 1_655
H3 N3 1.048842 1_555
H4 N0 1.043282 1_565
H5 N1 1.043282 1_555
H6 N2 1.043282 1_545
H7 N3 1.043282 1_555
H8 N0 1.043480 1_555
H9 N1 1.043480 1_555
H10 N2 1.043480 1_555
H11 N3 1.043480 1_555
C0 H16 1.098228 1_555
C0 H12 1.101280 1_555
C0 N0 1.488153 1_455
C0 C2 1.523150 1_446
C1 H17 1.098228 1_555
C1 H13 1.101280 1_555
C1 N1 1.488153 1_555
C1 C3 1.523150 1_554
C2 H18 1.098228 1_555
C2 H14 1.101280 1_555
C2 N2 1.488153 1_655
C3 H19 1.098228 1_555
C3 H15 1.101280 1_555
C3 N3 1.488153 1_555
Cl0 H8 2.256899 1_555
Cl0 Cu0 2.335571 1_555
Cl0 H7 2.391812 1_555
Cl0 H15 2.813236 1_545
Cl0 H16 2.891567 1_555
Cl0 H13 3.001321 1_556
Cl0 H18 3.083620 1_546
Cl1 H9 2.256899 1_555
Cl1 Cu1 2.335571 1_555
Cl1 H6 2.391812 1_555
Cl1 H14 2.813236 1_455
Cl1 H17 2.891567 1_455
Cl1 H12 3.001321 1_554
Cl1 H19 3.083620 1_554
Cl2 H10 2.256899 1_555
Cl2 Cu0 2.335571 1_565
Cl2 H5 2.391812 1_555
Cl2 H13 2.813236 1_565
Cl2 H18 2.891567 1_555
Cl2 H15 3.001321 1_554
Cl2 H16 3.083620 1_564
Cl3 H11 2.256899 1_555
Cl3 Cu1 2.335571 1_655
Cl3 H4 2.391812 1_555
Cl3 H12 2.813236 1_655
Cl3 H19 2.891567 1_655
Cl3 H14 3.001321 1_556
Cl3 H17 3.083620 1_556
Cl4 H2 2.163287 1_555
Cl4 Cu1 2.295684 1_655
Cl4 Cu0 2.943207 1_565
Cl4 H4 2.944885 1_555
Cl4 H5 2.961321 1_555
Cl4 H11 3.024529 1_555
Cl5 H3 2.163282 1_555
Cl5 Cu0 2.295684 1_565
Cl5 Cu1 2.943207 1_555
Cl5 H5 2.944885 1_555
Cl5 H4 2.961321 1_455
Cl5 H10 3.024529 1_555
Cl6 H0 2.163287 1_555
Cl6 Cu1 2.295684 1_555
Cl6 Cu0 2.943207 1_555
Cl6 H6 2.944885 1_555
Cl6 H7 2.961321 1_555
Cl6 H9 3.024529 1_555
Cl7 H1 2.163287 1_555
Cl7 Cu0 2.295684 1_555
Cl7 Cu1 2.943207 1_655
Cl7 H7 2.944885 1_555
Cl7 H6 2.961321 1_655
Cl7 H8 3.024529 1_555
