# generated using pymatgen
data_SiNi3Mo2
_symmetry_space_group_name_H-M   'P 1'
_cell_length_a   4.72612398
_cell_length_b   4.72612294
_cell_length_c   7.46894447
_cell_angle_alpha   90.00000000
_cell_angle_beta   90.00000000
_cell_angle_gamma   119.99838244
_symmetry_Int_Tables_number   1
_chemical_formula_structural   SiNi3Mo2
_chemical_formula_sum   'Si2 Ni6 Mo4'
_cell_volume   144.47977801
_cell_formula_units_Z   2
loop_
 _symmetry_equiv_pos_site_id
 _symmetry_equiv_pos_as_xyz
  1  'x, y, z'
loop_
 _atom_site_type_symbol
 _atom_site_label
 _atom_site_symmetry_multiplicity
 _atom_site_fract_x
 _atom_site_fract_y
 _atom_site_fract_z
 _atom_site_occupancy
  Si  Si0  1  0.00000006  -0.00000017  0.49998736  1
  Si  Si1  1  0.00000006  -0.00000017  0.00001264  1
  Ni  Ni0  1  0.83035171  0.16964941  0.25000000  1
  Ni  Ni1  1  0.83034785  0.66070647  0.25000000  1
  Ni  Ni2  1  0.33929377  0.16965284  0.25000000  1
  Ni  Ni3  1  0.16964051  0.83035797  0.75000000  1
  Ni  Ni4  1  0.16964950  0.33928421  0.75000000  1
  Ni  Ni5  1  0.66071608  0.83034996  0.75000000  1
  Mo  Mo0  1  0.33334223  0.66665613  0.43362549  1
  Mo  Mo1  1  0.66665800  0.33334411  0.56635209  1
  Mo  Mo2  1  0.66665800  0.33334411  0.93364791  1
  Mo  Mo3  1  0.33334223  0.66665613  0.06637451  1
loop_
_geom_bond_atom_site_label_1
_geom_bond_atom_site_label_2
_geom_bond_distance
_geom_bond_site_symmetry_2
Ni0 Ni1 2.320805 1_555
Ni0 Ni2 2.320809 1_555
Ni0 Si1 2.326961 1_655
Ni0 Si0 2.326961 1_655
Ni0 Ni2 2.405315 1_655
Ni0 Ni1 2.405318 1_545
Ni1 Ni2 2.320838 1_555
Ni1 Si1 2.326970 1_665
Ni1 Si0 2.326970 1_665
Ni1 Ni2 2.405401 1_665
Ni2 Si0 2.326972 1_555
Ni2 Si1 2.326972 1_555
Ni3 Ni4 2.320896 1_555
Ni3 Ni5 2.320903 1_555
Ni3 Si0 2.327075 1_565
Ni3 Si1 2.327075 1_566
Ni3 Ni5 2.405221 1_455
Ni3 Ni4 2.405227 1_565
Ni4 Ni5 2.320896 1_555
Ni4 Si1 2.327100 1_556
Ni4 Si0 2.327100 1_555
Ni4 Ni5 2.405343 1_445
Ni5 Si0 2.327099 1_665
Ni5 Si1 2.327099 1_666
Mo0 Ni4 2.716454 1_555
Mo0 Ni5 2.716458 1_555
Mo0 Ni3 2.716502 1_555
Mo0 Ni2 2.732245 1_555
Mo0 Ni1 2.732251 1_555
Mo0 Ni0 2.732377 1_455
Mo0 Ni0 2.732388 1_565
Mo0 Ni1 2.732412 1_455
Mo0 Ni2 2.732417 1_565
Mo0 Mo3 2.742977 1_555
Mo0 Si0 2.773283 1_555
Mo0 Si0 2.773289 1_665
Mo0 Si0 2.773336 1_565
Mo0 Mo1 2.902956 1_555
Mo0 Mo1 2.903236 1_455
Mo0 Mo1 2.903250 1_565
Mo1 Ni1 2.716289 1_555
Mo1 Ni2 2.716293 1_555
Mo1 Ni0 2.716325 1_555
Mo1 Ni5 2.732320 1_555
Mo1 Ni4 2.732327 1_555
Mo1 Ni3 2.732459 1_655
Mo1 Ni3 2.732473 1_545
Mo1 Ni4 2.732504 1_655
Mo1 Ni5 2.732510 1_545
Mo1 Mo2 2.743312 1_555
Mo1 Si0 2.773284 1_665
Mo1 Si0 2.773294 1_555
Mo1 Si0 2.773342 1_655
Mo2 Ni1 2.716289 1_556
Mo2 Ni2 2.716293 1_556
Mo2 Ni0 2.716325 1_556
Mo2 Ni5 2.732320 1_555
Mo2 Ni4 2.732327 1_555
Mo2 Ni3 2.732459 1_655
Mo2 Ni3 2.732473 1_545
Mo2 Ni4 2.732504 1_655
Mo2 Ni5 2.732510 1_545
Mo2 Si1 2.773284 1_666
Mo2 Si1 2.773294 1_556
Mo2 Si1 2.773342 1_656
Mo2 Mo3 2.902956 1_556
Mo2 Mo3 2.903236 1_656
Mo2 Mo3 2.903250 1_546
Mo3 Ni4 2.716454 1_554
Mo3 Ni5 2.716458 1_554
Mo3 Ni3 2.716502 1_554
Mo3 Ni2 2.732245 1_555
Mo3 Ni1 2.732251 1_555
Mo3 Ni0 2.732377 1_455
Mo3 Ni0 2.732388 1_565
Mo3 Ni1 2.732412 1_455
Mo3 Ni2 2.732417 1_565
Mo3 Si1 2.773283 1_555
Mo3 Si1 2.773289 1_665
Mo3 Si1 2.773336 1_565
