# generated using pymatgen
data_Ti3P3O13
_symmetry_space_group_name_H-M   'P 1'
_cell_length_a   6.37787200
_cell_length_b   7.68142600
_cell_length_c   10.46725810
_cell_angle_alpha   81.52041802
_cell_angle_beta   90.00000000
_cell_angle_gamma   90.00000000
_symmetry_Int_Tables_number   1
_chemical_formula_structural   Ti3P3O13
_chemical_formula_sum   'Ti6 P6 O26'
_cell_volume   507.19731110
_cell_formula_units_Z   2
loop_
 _symmetry_equiv_pos_site_id
 _symmetry_equiv_pos_as_xyz
  1  'x, y, z'
loop_
 _atom_site_type_symbol
 _atom_site_label
 _atom_site_symmetry_multiplicity
 _atom_site_fract_x
 _atom_site_fract_y
 _atom_site_fract_z
 _atom_site_occupancy
  Ti  Ti0  1  0.25000000  0.64652300  0.18964900  1
  Ti  Ti1  1  0.75000000  0.35347700  0.81035100  1
  Ti  Ti2  1  0.25000000  0.20923200  0.44152200  1
  Ti  Ti3  1  0.50000000  0.00000000  0.00000000  1
  Ti  Ti4  1  0.75000000  0.79076800  0.55847800  1
  Ti  Ti5  1  0.00000000  0.00000000  0.00000000  1
  P  P0  1  0.25000000  0.77936900  0.48054600  1
  P  P1  1  0.75000000  0.22063100  0.51945400  1
  P  P2  1  0.25000000  0.25597700  0.76519200  1
  P  P3  1  0.75000000  0.74402300  0.23480800  1
  P  P4  1  0.75000000  0.69599800  0.87952600  1
  P  P5  1  0.25000000  0.30400200  0.12047400  1
  O  O0  1  0.75000000  0.66758800  0.73417700  1
  O  O1  1  0.55156700  0.25061300  0.43550000  1
  O  O2  1  0.25000000  0.20449700  0.62710000  1
  O  O3  1  0.55288200  0.79653000  0.91212500  1
  O  O4  1  0.75000000  0.34187400  0.62240500  1
  O  O5  1  0.75000000  0.13146100  0.90160200  1
  O  O6  1  0.25000000  0.65812600  0.37759500  1
  O  O7  1  0.05288200  0.20347000  0.08787500  1
  O  O8  1  0.25000000  0.97841600  0.41352200  1
  O  O9  1  0.75000000  0.02158400  0.58647800  1
  O  O10  1  0.05381300  0.36164800  0.78837800  1
  O  O11  1  0.25000000  0.86853900  0.09839800  1
  O  O12  1  0.55381300  0.63835200  0.21162200  1
  O  O13  1  0.75000000  0.50122400  0.94596100  1
  O  O14  1  0.75000000  0.79550300  0.37290000  1
  O  O15  1  0.44711800  0.20347000  0.08787500  1
  O  O16  1  0.94843300  0.25061300  0.43550000  1
  O  O17  1  0.44843300  0.74938700  0.56450000  1
  O  O18  1  0.44618700  0.36164800  0.78837800  1
  O  O19  1  0.25000000  0.33241200  0.26582300  1
  O  O20  1  0.75000000  0.91706200  0.13101500  1
  O  O21  1  0.25000000  0.08293800  0.86898500  1
  O  O22  1  0.94618700  0.63835200  0.21162200  1
  O  O23  1  0.94711800  0.79653000  0.91212500  1
  O  O24  1  0.05156700  0.74938700  0.56450000  1
  O  O25  1  0.25000000  0.49877600  0.05403900  1
loop_
_geom_bond_atom_site_label_1
_geom_bond_atom_site_label_2
_geom_bond_distance
_geom_bond_site_symmetry_2
O0 P4 1.568507 1_555
O0 Ti4 1.940191 1_555
O0 Ti1 2.426949 1_555
O1 P1 1.538597 1_555
O1 Ti2 1.948948 1_555
O2 P2 1.553786 1_555
O2 Ti2 1.937464 1_555
O3 P4 1.539810 1_555
O3 Ti3 1.956159 1_566
O4 P1 1.524659 1_555
O4 Ti1 1.982383 1_555
O5 Ti1 1.827651 1_555
O5 Ti3 2.077528 1_556
O5 Ti5 2.077528 1_656
O6 P0 1.524659 1_555
O6 Ti0 1.982383 1_555
O7 P5 1.539810 1_555
O7 Ti5 1.956159 1_555
O8 P0 1.585426 1_555
O8 Ti2 1.839201 1_565
O9 P1 1.585426 1_555
O9 Ti4 1.839201 1_545
O10 P2 1.530196 1_555
O10 Ti1 1.951201 1_455
O11 Ti0 1.827651 1_555
O11 Ti5 2.077528 1_565
O11 Ti3 2.077528 1_565
O12 P3 1.530196 1_555
O12 Ti0 1.951201 1_555
O13 P4 1.554085 1_555
O13 Ti1 1.943705 1_555
O14 P3 1.553786 1_555
O14 Ti4 1.937464 1_555
O15 P5 1.539810 1_555
O15 Ti3 1.956159 1_555
O16 P1 1.538597 1_555
O16 Ti2 1.948948 1_655
O17 P0 1.538597 1_555
O17 Ti4 1.948948 1_555
O18 P2 1.530196 1_555
O18 Ti1 1.951201 1_555
O19 P5 1.568507 1_555
O19 Ti2 1.940191 1_555
O19 Ti0 2.426949 1_555
O20 P3 1.587825 1_555
O20 Ti3 2.138035 1_565
O20 Ti5 2.138035 1_665
O21 P2 1.587825 1_555
O21 Ti3 2.138035 1_556
O21 Ti5 2.138035 1_556
O22 P3 1.530196 1_555
O22 Ti0 1.951201 1_655
O23 P4 1.539810 1_555
O23 Ti5 1.956159 1_666
O24 P0 1.538597 1_555
O24 Ti4 1.948948 1_455
O25 P5 1.554085 1_555
O25 Ti0 1.943705 1_555
