# generated using pymatgen
data_Sr2Ti5Al17O38
_symmetry_space_group_name_H-M   'P 1'
_cell_length_a   12.73043398
_cell_length_b   12.73043398
_cell_length_c   9.85129560
_cell_angle_alpha   82.50996925
_cell_angle_beta   82.50996925
_cell_angle_gamma   51.95380610
_symmetry_Int_Tables_number   1
_chemical_formula_structural   Sr2Ti5Al17O38
_chemical_formula_sum   'Sr4 Ti10 Al34 O76'
_cell_volume   1244.00954935
_cell_formula_units_Z   2
loop_
 _symmetry_equiv_pos_site_id
 _symmetry_equiv_pos_as_xyz
  1  'x, y, z'
loop_
 _atom_site_type_symbol
 _atom_site_label
 _atom_site_symmetry_multiplicity
 _atom_site_fract_x
 _atom_site_fract_y
 _atom_site_fract_z
 _atom_site_occupancy
  Sr  Sr0  1  0.18634600  0.92264500  0.56279300  1
  Sr  Sr1  1  0.81365400  0.07735500  0.43720700  1
  Sr  Sr2  1  0.07735500  0.81365400  0.93720700  1
  Sr  Sr3  1  0.92264500  0.18634600  0.06279300  1
  Ti  Ti0  1  0.89254200  0.10745800  0.75000000  1
  Ti  Ti1  1  0.10745800  0.89254200  0.25000000  1
  Ti  Ti2  1  0.56778600  0.81040900  0.86972200  1
  Ti  Ti3  1  0.43221400  0.18959100  0.13027800  1
  Ti  Ti4  1  0.18959100  0.43221400  0.63027800  1
  Ti  Ti5  1  0.81040900  0.56778600  0.36972200  1
  Ti  Ti6  1  0.77834100  0.01576500  0.13427400  1
  Ti  Ti7  1  0.22165900  0.98423500  0.86572600  1
  Ti  Ti8  1  0.98423500  0.22165900  0.36572600  1
  Ti  Ti9  1  0.01576500  0.77834100  0.63427400  1
  Al  Al0  1  0.52866200  0.26566700  0.61305900  1
  Al  Al1  1  0.47133800  0.73433300  0.38694100  1
  Al  Al2  1  0.73433300  0.47133800  0.88694100  1
  Al  Al3  1  0.26566700  0.52866200  0.11305900  1
  Al  Al4  1  0.65372000  0.13353600  0.86667000  1
  Al  Al5  1  0.34628000  0.86646400  0.13333000  1
  Al  Al6  1  0.86646400  0.34628000  0.63333000  1
  Al  Al7  1  0.13353600  0.65372000  0.36667000  1
  Al  Al8  1  0.62209400  0.37790600  0.75000000  1
  Al  Al9  1  0.37790600  0.62209400  0.25000000  1
  Al  Al10  1  0.34833200  0.59617700  0.58504900  1
  Al  Al11  1  0.65166800  0.40382300  0.41495100  1
  Al  Al12  1  0.40382300  0.65166800  0.91495100  1
  Al  Al13  1  0.59617700  0.34833200  0.08504900  1
  Al  Al14  1  0.39483500  0.14949500  0.81901800  1
  Al  Al15  1  0.60516500  0.85050500  0.18098200  1
  Al  Al16  1  0.85050500  0.60516500  0.68098200  1
  Al  Al17  1  0.14949500  0.39483500  0.31901800  1
  Al  Al18  1  0.80145100  0.80502200  0.91058900  1
  Al  Al19  1  0.19854900  0.19497800  0.08941100  1
  Al  Al20  1  0.19497800  0.19854900  0.58941100  1
  Al  Al21  1  0.80502200  0.80145100  0.41058900  1
  Al  Al22  1  0.45771700  0.93258000  0.59151900  1
  Al  Al23  1  0.54228300  0.06742000  0.40848100  1
  Al  Al24  1  0.06742000  0.54228300  0.90848100  1
  Al  Al25  1  0.93258000  0.45771700  0.09151900  1
  Al  Al26  1  0.67581100  0.93756600  0.65521800  1
  Al  Al27  1  0.32418900  0.06243400  0.34478200  1
  Al  Al28  1  0.06243400  0.32418900  0.84478200  1
  Al  Al29  1  0.93756600  0.67581100  0.15521800  1
  Al  Al30  1  0.58983900  0.61553400  0.63358900  1
  Al  Al31  1  0.41016100  0.38446600  0.36641100  1
  Al  Al32  1  0.38446600  0.41016100  0.86641100  1
  Al  Al33  1  0.61553400  0.58983900  0.13358900  1
  O  O0  1  0.27344700  0.02280900  0.69043600  1
  O  O1  1  0.72655300  0.97719100  0.30956400  1
  O  O2  1  0.97719100  0.72655300  0.80956400  1
  O  O3  1  0.02280800  0.27344700  0.19043600  1
  O  O4  1  0.56850700  0.32670500  0.91825900  1
  O  O5  1  0.43149300  0.67329500  0.08174100  1
  O  O6  1  0.67329500  0.43149300  0.58174100  1
  O  O7  1  0.32670500  0.56850700  0.41825900  1
  O  O8  1  0.81951200  0.07110000  0.91937300  1
  O  O9  1  0.18048800  0.92890000  0.08062700  1
  O  O10  1  0.92890000  0.18048800  0.58062700  1
  O  O11  1  0.07110000  0.81951200  0.41937300  1
  O  O12  1  0.71680000  0.97117500  0.80861500  1
  O  O13  1  0.28320000  0.02882500  0.19138500  1
  O  O14  1  0.02882500  0.28320000  0.69138500  1
  O  O15  1  0.97117500  0.71680000  0.30861500  1
  O  O16  1  0.68838100  0.20710300  0.69600200  1
  O  O17  1  0.31161900  0.79289700  0.30399800  1
  O  O18  1  0.79289700  0.31161900  0.80399800  1
  O  O19  1  0.20710300  0.68838100  0.19600200  1
  O  O20  1  0.62512100  0.89759300  0.50620000  1
  O  O21  1  0.37487900  0.10240700  0.49380000  1
  O  O22  1  0.10240700  0.37487900  0.99380000  1
  O  O23  1  0.89759300  0.62512100  0.00620000  1
  O  O24  1  0.43031900  0.67272000  0.55546800  1
  O  O25  1  0.56968100  0.32728000  0.44453200  1
  O  O26  1  0.32728000  0.56968100  0.94453200  1
  O  O27  1  0.67272000  0.43031900  0.05546800  1
  O  O28  1  0.74834300  0.75991300  0.76396600  1
  O  O29  1  0.25165700  0.24008700  0.23603400  1
  O  O30  1  0.24008700  0.25165700  0.73603400  1
  O  O31  1  0.75991300  0.74834300  0.26396600  1
  O  O32  1  0.36001900  0.35367100  0.54735600  1
  O  O33  1  0.63998100  0.64632900  0.45264400  1
  O  O34  1  0.64632900  0.63998100  0.95264400  1
  O  O35  1  0.35367100  0.36001900  0.04735600  1
  O  O36  1  0.28322700  0.80893100  0.83603400  1
  O  O37  1  0.71677300  0.19106900  0.16396600  1
  O  O38  1  0.19106900  0.71677300  0.66396600  1
  O  O39  1  0.80893100  0.28322700  0.33603400  1
  O  O40  1  0.47762300  0.22848700  0.79708400  1
  O  O41  1  0.52237700  0.77151300  0.20291600  1
  O  O42  1  0.77151300  0.52237700  0.70291600  1
  O  O43  1  0.22848700  0.47762300  0.29708400  1
  O  O44  1  0.60475800  0.10342700  0.04612400  1
  O  O45  1  0.39524200  0.89657300  0.95387600  1
  O  O46  1  0.89657300  0.39524200  0.45387600  1
  O  O47  1  0.10342700  0.60475800  0.54612400  1
  O  O48  1  0.59892400  0.10318200  0.55255900  1
  O  O49  1  0.40107600  0.89681800  0.44744100  1
  O  O50  1  0.89681800  0.40107600  0.94744100  1
  O  O51  1  0.10318200  0.59892400  0.05255900  1
  O  O52  1  0.84550200  0.85311900  0.55513700  1
  O  O53  1  0.15449800  0.14688100  0.44486300  1
  O  O54  1  0.14688100  0.15449800  0.94486300  1
  O  O55  1  0.85311900  0.84550200  0.05513700  1
  O  O56  1  0.50229000  0.99000700  0.74377400  1
  O  O57  1  0.49771000  0.00999300  0.25622600  1
  O  O58  1  0.00999300  0.49771000  0.75622600  1
  O  O59  1  0.99000700  0.50229000  0.24377400  1
  O  O60  1  0.63706000  0.85476300  0.00038800  1
  O  O61  1  0.36294000  0.14523700  0.99961200  1
  O  O62  1  0.14523700  0.36294000  0.49961200  1
  O  O63  1  0.85476300  0.63706000  0.50038800  1
  O  O64  1  0.95472000  0.95726000  0.16472900  1
  O  O65  1  0.04528000  0.04274000  0.83527100  1
  O  O66  1  0.04274000  0.04528000  0.33527100  1
  O  O67  1  0.95726000  0.95472000  0.66472900  1
  O  O68  1  0.53334300  0.77456500  0.69782400  1
  O  O69  1  0.46665700  0.22543500  0.30217600  1
  O  O70  1  0.22543500  0.46665700  0.80217600  1
  O  O71  1  0.77456500  0.53334300  0.19782400  1
  O  O72  1  0.45164400  0.44347000  0.69267900  1
  O  O73  1  0.54835600  0.55653000  0.30732100  1
  O  O74  1  0.55653000  0.54835600  0.80732100  1
  O  O75  1  0.44347000  0.45164400  0.19267900  1
loop_
_geom_bond_atom_site_label_1
_geom_bond_atom_site_label_2
_geom_bond_distance
_geom_bond_site_symmetry_2
Al0 O48 1.826437 1_555
Al0 O32 1.868639 1_555
Al0 O25 1.893023 1_555
Al0 O16 1.939994 1_555
Al0 O40 1.944486 1_555
Al0 O72 2.055939 1_555
Al1 O49 1.826437 1_555
Al1 O33 1.868639 1_555
Al1 O24 1.893023 1_555
Al1 O17 1.939994 1_555
Al1 O41 1.944486 1_555
Al1 O73 2.055939 1_555
Al2 O50 1.826437 1_555
Al2 O34 1.868639 1_555
Al2 O27 1.893023 1_556
Al2 O18 1.939994 1_555
Al2 O42 1.944486 1_555
Al2 O74 2.055939 1_555
Al3 O51 1.826437 1_555
Al3 O35 1.868639 1_555
Al3 O26 1.893023 1_554
Al3 O19 1.939994 1_555
Al3 O43 1.944486 1_555
Al3 O75 2.055939 1_555
Al4 O12 1.840302 1_545
Al4 O8 1.861799 1_555
Al4 O44 1.868498 1_556
Al4 O40 1.949669 1_555
Al4 O16 1.950391 1_555
Al4 O4 2.091968 1_555
Al5 O13 1.840302 1_565
Al5 O9 1.861799 1_555
Al5 O45 1.868498 1_554
Al5 O41 1.949669 1_555
Al5 O17 1.950391 1_555
Al5 O5 2.091968 1_555
Al6 O14 1.840302 1_655
Al6 O10 1.861799 1_555
Al6 O46 1.868498 1_555
Al6 O42 1.949669 1_555
Al6 O18 1.950391 1_555
Al6 O6 2.091968 1_555
Al7 O15 1.840302 1_455
Al7 O11 1.861799 1_555
Al7 O47 1.868498 1_555
Al7 O43 1.949669 1_555
Al7 O19 1.950391 1_555
Al7 O7 2.091968 1_555
Al8 O4 1.899836 1_555
Al8 O6 1.899836 1_555
Al8 O16 1.909430 1_555
Al8 O18 1.909430 1_555
Al8 O72 1.920466 1_555
Al8 O74 1.920466 1_555
Al9 O7 1.899836 1_555
Al9 O5 1.899836 1_555
Al9 O19 1.909430 1_555
Al9 O17 1.909430 1_555
Al9 O75 1.920466 1_555
Al9 O73 1.920466 1_555
Al10 O38 1.756809 1_555
Al10 O24 1.795568 1_555
Al10 O7 1.813291 1_555
Al10 O72 1.818769 1_555
Al11 O39 1.756809 1_555
Al11 O25 1.795568 1_555
Al11 O6 1.813291 1_555
Al11 O73 1.818769 1_555
Al12 O36 1.756809 1_555
Al12 O26 1.795568 1_555
Al12 O5 1.813291 1_556
Al12 O74 1.818769 1_555
Al13 O37 1.756809 1_555
Al13 O27 1.795568 1_555
Al13 O4 1.813291 1_554
Al13 O75 1.818769 1_555
Al14 O61 1.773868 1_555
Al14 O30 1.795921 1_555
Al14 O56 1.802123 1_545
Al14 O40 1.832760 1_555
Al15 O60 1.773868 1_555
Al15 O31 1.795921 1_555
Al15 O57 1.802123 1_565
Al15 O41 1.832760 1_555
Al16 O63 1.773868 1_555
Al16 O28 1.795921 1_555
Al16 O58 1.802123 1_655
Al16 O42 1.832760 1_555
Al17 O62 1.773868 1_555
Al17 O29 1.795921 1_555
Al17 O59 1.802123 1_455
Al17 O43 1.832760 1_555
Al18 O12 1.887647 1_555
Al18 O55 1.891888 1_556
Al18 O60 1.895573 1_556
Al18 O28 1.955155 1_555
Al18 O23 1.978228 1_556
Al18 O2 1.979303 1_555
Al19 O13 1.887647 1_555
Al19 O54 1.891888 1_554
Al19 O61 1.895573 1_554
Al19 O29 1.955155 1_555
Al19 O22 1.978228 1_554
Al19 O3 1.979313 1_555
Al20 O14 1.887647 1_555
Al20 O53 1.891888 1_555
Al20 O62 1.895573 1_555
Al20 O30 1.955155 1_555
Al20 O21 1.978228 1_555
Al20 O0 1.979303 1_555
Al21 O15 1.887647 1_555
Al21 O52 1.891888 1_555
Al21 O63 1.895573 1_555
Al21 O31 1.955155 1_555
Al21 O20 1.978228 1_555
Al21 O1 1.979303 1_555
Al22 O68 1.843001 1_555
Al22 O49 1.892534 1_555
Al22 O21 1.903884 1_565
Al22 O20 1.976653 1_555
Al22 O56 2.031073 1_555
Al22 O0 2.036295 1_565
Al23 O69 1.843001 1_555
Al23 O48 1.892534 1_555
Al23 O20 1.903884 1_545
Al23 O21 1.976653 1_555
Al23 O57 2.031073 1_555
Al23 O1 2.036295 1_545
Al24 O70 1.843001 1_555
Al24 O51 1.892534 1_556
Al24 O23 1.903884 1_456
Al24 O22 1.976653 1_555
Al24 O58 2.031073 1_555
Al24 O2 2.036295 1_455
Al25 O71 1.843001 1_555
Al25 O50 1.892534 1_554
Al25 O22 1.903884 1_654
Al25 O23 1.976653 1_555
Al25 O59 2.031073 1_555
Al25 O3 2.036296 1_655
Al26 O12 1.840727 1_555
Al26 O48 1.893288 1_565
Al26 O52 1.911271 1_555
Al26 O20 1.917536 1_555
Al26 O56 1.979424 1_555
Al26 O28 2.041414 1_555
Al27 O13 1.840727 1_555
Al27 O49 1.893288 1_545
Al27 O53 1.911271 1_555
Al27 O21 1.917536 1_555
Al27 O57 1.979424 1_555
Al27 O29 2.041414 1_555
Al28 O14 1.840727 1_555
Al28 O50 1.893288 1_455
Al28 O54 1.911271 1_555
Al28 O22 1.917536 1_555
Al28 O58 1.979424 1_555
Al28 O30 2.041414 1_555
Al29 O15 1.840727 1_555
Al29 O51 1.893288 1_655
Al29 O55 1.911271 1_555
Al29 O23 1.917536 1_555
Al29 O59 1.979424 1_555
Al29 O31 2.041414 1_555
Al30 O68 1.853924 1_555
Al30 O33 1.888977 1_555
Al30 O24 1.919730 1_555
Al30 O74 1.927838 1_555
Al30 O6 1.995314 1_555
Al30 O42 2.010407 1_555
Al31 O69 1.853924 1_555
Al31 O32 1.888977 1_555
Al31 O25 1.919730 1_555
Al31 O75 1.927838 1_555
Al31 O7 1.995314 1_555
Al31 O43 2.010407 1_555
Al32 O70 1.853924 1_555
Al32 O35 1.888977 1_556
Al32 O26 1.919730 1_555
Al32 O72 1.927838 1_555
Al32 O4 1.995314 1_555
Al32 O40 2.010407 1_555
Al33 O71 1.853924 1_555
Al33 O34 1.888977 1_554
Al33 O27 1.919730 1_555
Al33 O73 1.927838 1_555
Al33 O5 1.995314 1_555
Al33 O41 2.010407 1_555
O0 Ti7 1.881202 1_545
O0 Sr0 2.638361 1_545
O1 Ti6 1.881202 1_565
O1 Sr1 2.638361 1_565
O2 Ti9 1.881202 1_655
O2 Sr2 2.638361 1_655
O3 Ti8 1.881197 1_455
O3 Sr3 2.638351 1_455
O8 Ti0 1.946088 1_555
O8 Ti6 2.242736 1_556
O8 Sr2 2.878683 1_645
O8 Sr3 3.044792 1_556
O9 Ti1 1.946088 1_555
O9 Ti7 2.242736 1_554
O9 Sr3 2.878683 1_465
O9 Sr2 3.044792 1_554
O10 Ti0 1.946088 1_555
O10 Ti8 2.242736 1_555
O10 Sr0 2.878683 1_645
O10 Sr1 3.044792 1_555
O11 Ti1 1.946088 1_555
O11 Ti9 2.242736 1_555
O11 Sr1 2.878683 1_465
O11 Sr0 3.044792 1_555
O16 Ti0 2.183559 1_555
O16 Sr1 2.926153 1_555
O17 Ti1 2.183559 1_555
O17 Sr0 2.926153 1_555
O18 Ti0 2.183559 1_555
O18 Sr3 2.926153 1_556
O19 Ti1 2.183559 1_555
O19 Sr2 2.926153 1_554
O24 Sr0 2.756042 1_555
O25 Sr1 2.756042 1_555
O26 Sr2 2.756042 1_555
O27 Sr3 2.756042 1_555
O28 Ti2 2.123928 1_555
O29 Ti3 2.123928 1_555
O30 Ti4 2.123928 1_555
O31 Ti5 2.123928 1_555
O32 Ti4 1.857758 1_555
O33 Ti5 1.857758 1_555
O34 Ti2 1.857758 1_555
O35 Ti3 1.857758 1_555
O36 Ti7 1.906500 1_555
O36 Sr2 2.646919 1_555
O36 Sr0 2.917421 1_555
O37 Ti6 1.906500 1_555
O37 Sr3 2.646919 1_555
O37 Sr1 2.917421 1_555
O38 Ti9 1.906500 1_555
O38 Sr0 2.646919 1_555
O38 Sr2 2.917421 1_555
O39 Ti8 1.906500 1_555
O39 Sr1 2.646919 1_555
O39 Sr3 2.917421 1_555
O44 Ti3 1.872927 1_555
O44 Ti6 2.022533 1_555
O45 Ti2 1.872927 1_555
O45 Ti7 2.022533 1_555
O46 Ti5 1.872927 1_555
O46 Ti8 2.022533 1_555
O47 Ti4 1.872927 1_555
O47 Ti9 2.022533 1_555
O48 Sr1 2.655514 1_555
O49 Sr0 2.655514 1_555
O50 Sr3 2.655514 1_556
O51 Sr2 2.655514 1_554
O52 Ti9 1.978862 1_655
O52 Sr1 2.737619 1_565
O53 Ti8 1.978862 1_455
O53 Sr0 2.737619 1_545
O54 Ti7 1.978862 1_545
O54 Sr3 2.737619 1_456
O55 Ti6 1.978862 1_565
O55 Sr2 2.737619 1_654
O56 Ti2 2.154645 1_555
O57 Ti3 2.154645 1_555
O58 Ti4 2.154645 1_555
O59 Ti5 2.154645 1_555
O60 Ti2 1.962837 1_554
O61 Ti3 1.962837 1_556
O62 Ti4 1.962837 1_555
O63 Ti5 1.962837 1_555
O64 Ti1 1.853650 1_655
O64 Ti6 1.934559 1_565
O64 Sr2 2.727887 1_654
O64 Sr3 2.748801 1_565
O64 Sr1 3.032603 1_565
O65 Ti0 1.853650 1_455
O65 Ti7 1.934559 1_545
O65 Sr3 2.727887 1_456
O65 Sr2 2.748801 1_545
O65 Sr0 3.032603 1_545
O66 Ti1 1.853650 1_545
O66 Ti8 1.934559 1_455
O66 Sr0 2.727887 1_545
O66 Sr1 2.748801 1_455
O66 Sr3 3.032603 1_455
O67 Ti0 1.853650 1_565
O67 Ti9 1.934559 1_655
O67 Sr1 2.727887 1_565
O67 Sr0 2.748801 1_655
O67 Sr2 3.032603 1_655
O68 Ti2 1.977320 1_555
O69 Ti3 1.977320 1_555
O70 Ti4 1.977320 1_555
O71 Ti5 1.977320 1_555
