# generated using pymatgen
data_LiTi2BiO6
_symmetry_space_group_name_H-M   'P 1'
_cell_length_a   5.57415657
_cell_length_b   5.57415657
_cell_length_c   5.57415699
_cell_angle_alpha   58.15426316
_cell_angle_beta   58.15426316
_cell_angle_gamma   58.15425455
_symmetry_Int_Tables_number   1
_chemical_formula_structural   LiTi2BiO6
_chemical_formula_sum   'Li1 Ti2 Bi1 O6'
_cell_volume   117.28711672
_cell_formula_units_Z   1
loop_
 _symmetry_equiv_pos_site_id
 _symmetry_equiv_pos_as_xyz
  1  'x, y, z'
loop_
 _atom_site_type_symbol
 _atom_site_label
 _atom_site_symmetry_multiplicity
 _atom_site_fract_x
 _atom_site_fract_y
 _atom_site_fract_z
 _atom_site_occupancy
  Li  Li0  1  0.70253800  0.70253800  0.70253800  1
  Ti  Ti0  1  0.98636200  0.98636200  0.98636200  1
  Ti  Ti1  1  0.48596400  0.48596400  0.48596400  1
  Bi  Bi0  1  0.21608400  0.21608400  0.21608400  1
  O  O0  1  0.26334200  0.82248000  0.68330800  1
  O  O1  1  0.82248000  0.68330800  0.26334200  1
  O  O2  1  0.68330800  0.26334200  0.82248000  1
  O  O3  1  0.34508500  0.76630100  0.16273400  1
  O  O4  1  0.16273400  0.34508500  0.76630100  1
  O  O5  1  0.76630100  0.16273400  0.34508500  1
loop_
_geom_bond_atom_site_label_1
_geom_bond_atom_site_label_2
_geom_bond_distance
_geom_bond_site_symmetry_2
Li0 O0 2.219453 1_555
Li0 O2 2.219453 1_555
Li0 O1 2.219453 1_555
Li0 O4 2.344740 1_655
Li0 O5 2.344740 1_565
Li0 O3 2.344740 1_556
Bi0 O3 2.355848 1_545
Bi0 O5 2.355848 1_455
Bi0 O4 2.355848 1_554
Bi0 O1 2.397937 1_455
Bi0 O2 2.397937 1_554
Bi0 O0 2.397937 1_545
O0 Ti0 1.860024 1_455
O0 Ti1 2.132874 1_555
O1 Ti0 1.860024 1_554
O1 Ti1 2.132874 1_555
O2 Ti0 1.860024 1_545
O2 Ti1 2.132874 1_555
O3 Ti1 1.879315 1_555
O3 Ti0 2.164036 1_454
O4 Ti1 1.879315 1_555
O4 Ti0 2.164037 1_445
O5 Ti1 1.879315 1_555
O5 Ti0 2.164037 1_544
