# generated using pymatgen
data_K3NaP4(H2O7)2
_symmetry_space_group_name_H-M   'P 1'
_cell_length_a   9.32109264
_cell_length_b   9.32109264
_cell_length_c   11.17047166
_cell_angle_alpha   80.60612335
_cell_angle_beta   80.60612335
_cell_angle_gamma   46.13090156
_symmetry_Int_Tables_number   1
_chemical_formula_structural   K3NaP4(H2O7)2
_chemical_formula_sum   'K6 Na2 P8 H8 O28'
_cell_volume   688.57525048
_cell_formula_units_Z   2
loop_
 _symmetry_equiv_pos_site_id
 _symmetry_equiv_pos_as_xyz
  1  'x, y, z'
loop_
 _atom_site_type_symbol
 _atom_site_label
 _atom_site_symmetry_multiplicity
 _atom_site_fract_x
 _atom_site_fract_y
 _atom_site_fract_z
 _atom_site_occupancy
  K  K0  1  0.19292600  0.52848000  0.97135200  1
  K  K1  1  0.47211800  0.80746500  0.52827900  1
  K  K2  1  0.80746500  0.47211800  0.02827900  1
  K  K3  1  0.52848000  0.19292600  0.47135200  1
  K  K4  1  0.80142200  0.20071400  0.75061300  1
  K  K5  1  0.20071400  0.80142200  0.25061300  1
  Na  Na0  1  0.49805100  0.99989900  0.00000400  1
  Na  Na1  1  0.99989900  0.49805100  0.50000400  1
  P  P0  1  0.78374300  0.82634800  0.25577000  1
  P  P1  1  0.17377700  0.21598500  0.24462500  1
  P  P2  1  0.21598500  0.17377700  0.74462500  1
  P  P3  1  0.82634800  0.78374300  0.75577000  1
  P  P4  1  0.67611000  0.18558600  0.10624200  1
  P  P5  1  0.80630100  0.33119500  0.39225100  1
  P  P6  1  0.33119500  0.80630100  0.89225100  1
  P  P7  1  0.18558600  0.67611000  0.60624200  1
  H  H0  1  0.52397300  0.87483800  0.23434400  1
  H  H1  1  0.12662400  0.47437100  0.26585800  1
  H  H2  1  0.47437100  0.12662400  0.76585800  1
  H  H3  1  0.87483800  0.52397300  0.73434400  1
  H  H4  1  0.01721800  0.98849400  0.99187100  1
  H  H5  1  0.98849400  0.01721800  0.49187100  1
  H  H6  1  0.57617500  0.40955300  0.23278900  1
  H  H7  1  0.40955300  0.57617500  0.73278900  1
  O  O0  1  0.67888200  0.05722800  0.22657300  1
  O  O1  1  0.94475200  0.31794400  0.27421300  1
  O  O2  1  0.31794400  0.94475200  0.77421300  1
  O  O3  1  0.05722800  0.67888200  0.72657300  1
  O  O4  1  0.99710300  0.69040700  0.19977500  1
  O  O5  1  0.31164500  0.00184500  0.29988000  1
  O  O6  1  0.00184500  0.31164500  0.79988000  1
  O  O7  1  0.69040700  0.99710300  0.69977500  1
  O  O8  1  0.74885500  0.80695900  0.39135700  1
  O  O9  1  0.19280100  0.25213000  0.10918200  1
  O  O10  1  0.25213000  0.19280100  0.60918200  1
  O  O11  1  0.80695900  0.74885500  0.89135700  1
  O  O12  1  0.65976800  0.80875200  0.18661000  1
  O  O13  1  0.19185400  0.33960300  0.31393800  1
  O  O14  1  0.33960300  0.19185400  0.81393800  1
  O  O15  1  0.80875200  0.65976800  0.68661000  1
  O  O16  1  0.59210100  0.18558000  0.00275400  1
  O  O17  1  0.81626700  0.40483200  0.49811100  1
  O  O18  1  0.40483200  0.81626700  0.99811100  1
  O  O19  1  0.18558000  0.59210100  0.50275400  1
  O  O20  1  0.52872800  0.39987900  0.15726100  1
  O  O21  1  0.60496800  0.45766000  0.34003700  1
  O  O22  1  0.45766000  0.60496800  0.84003700  1
  O  O23  1  0.39987900  0.52872800  0.65726100  1
  O  O24  1  0.88438300  0.11030500  0.08513100  1
  O  O25  1  0.89336400  0.11224000  0.41848100  1
  O  O26  1  0.11224000  0.89336400  0.91848100  1
  O  O27  1  0.11030500  0.88438300  0.58513100  1
loop_
_geom_bond_atom_site_label_1
_geom_bond_atom_site_label_2
_geom_bond_distance
_geom_bond_site_symmetry_2
K0 O9 2.777512 1_556
K0 O16 2.785640 1_556
K0 O4 2.835271 1_456
K0 O11 2.858041 1_455
K0 O26 2.902752 1_555
K0 O3 2.908872 1_555
K0 O22 3.108776 1_555
K0 O14 3.142751 1_555
K0 O20 3.414034 1_556
K1 O8 2.773212 1_555
K1 O17 2.803983 1_555
K1 O5 2.830169 1_565
K1 O10 2.858091 1_565
K1 O27 2.896410 1_555
K1 O2 2.925713 1_555
K1 O15 3.146196 1_555
K1 O23 3.188363 1_555
K1 O21 3.518265 1_555
K2 O11 2.773212 1_554
K2 O18 2.803983 1_554
K2 O6 2.830169 1_654
K2 O9 2.858091 1_655
K2 O24 2.896410 1_555
K2 O1 2.925713 1_555
K2 O12 3.146196 1_555
K2 O20 3.188363 1_555
K2 O22 3.518265 1_554
K3 O10 2.777512 1_555
K3 O19 2.785640 1_555
K3 O7 2.835271 1_545
K3 O8 2.858041 1_545
K3 O25 2.902752 1_555
K3 O0 2.908872 1_555
K3 O21 3.108776 1_555
K3 O13 3.142751 1_555
K3 O23 3.414034 1_555
K4 O6 2.839151 1_655
K4 O7 2.874171 1_545
K4 O26 2.938196 1_645
K4 O27 2.945486 1_645
K4 O23 2.969249 1_555
K4 O22 2.985404 1_555
K4 O17 3.174950 1_555
K4 O16 3.196472 1_556
K5 O5 2.839151 1_565
K5 O4 2.874171 1_455
K5 O25 2.938196 1_465
K5 O24 2.945486 1_465
K5 O20 2.969249 1_555
K5 O21 2.985404 1_555
K5 O18 3.174950 1_554
K5 O19 3.196472 1_555
Na0 O9 2.375280 1_565
Na0 O11 2.384726 1_554
Na0 O18 2.400912 1_554
Na0 O14 2.414128 1_564
Na0 O12 2.425403 1_555
Na0 O16 2.427769 1_565
Na1 O10 2.375280 1_655
Na1 O8 2.384726 1_555
Na1 O17 2.400912 1_555
Na1 O13 2.414128 1_655
Na1 O15 2.425403 1_555
Na1 O19 2.427769 1_655
H0 O12 1.035434 1_555
H0 O5 1.554630 1_565
H0 Na0 2.662613 1_555
H1 O13 1.031444 1_555
H1 O4 1.579085 1_455
H1 Na1 2.665238 1_455
H2 O14 1.031444 1_555
H2 O7 1.579085 1_545
H2 Na0 2.665238 1_546
H3 O15 1.035434 1_555
H3 O6 1.554630 1_655
H3 Na1 2.662613 1_555
H4 O26 1.074496 1_555
H4 O24 1.387089 1_466
H4 K4 3.120291 1_465
H4 K5 3.186605 1_556
H5 O25 1.074496 1_555
H5 O27 1.387089 1_645
H5 K5 3.120291 1_645
H5 K4 3.186605 1_555
H6 O20 1.057089 1_555
H6 O21 1.468147 1_555
H6 K5 2.814519 1_555
H6 K2 3.147484 1_555
H6 K3 3.236853 1_555
H7 O23 1.057089 1_555
H7 O22 1.468147 1_555
H7 K4 2.814519 1_555
H7 K1 3.147484 1_555
H7 K0 3.236853 1_555
O0 P0 1.628664 1_545
O0 P4 1.637800 1_555
O1 P1 1.621690 1_655
O1 P5 1.641949 1_555
O2 P2 1.621690 1_565
O2 P6 1.641949 1_555
O3 P3 1.628664 1_455
O3 P7 1.637800 1_555
O4 P0 1.520475 1_555
O5 P1 1.522506 1_555
O6 P2 1.522506 1_555
O7 P3 1.520475 1_555
O8 P0 1.504546 1_555
O9 P1 1.504272 1_555
O10 P2 1.504272 1_555
O11 P3 1.504546 1_555
O12 P0 1.598309 1_555
O13 P1 1.599525 1_555
O14 P2 1.599525 1_555
O15 P3 1.598309 1_555
O16 P4 1.498372 1_555
O17 P5 1.505739 1_555
O18 P6 1.505739 1_555
O19 P7 1.498372 1_555
O20 P4 1.585735 1_555
O21 P5 1.522586 1_555
O22 P6 1.522586 1_555
O23 P7 1.585735 1_555
O24 P4 1.527496 1_555
O25 P5 1.580037 1_555
O26 P6 1.580037 1_555
O27 P7 1.527496 1_555
