# generated using pymatgen
data_Na12Mn3S6(O3F)8
_symmetry_space_group_name_H-M   'P 1'
_cell_length_a   9.67550489
_cell_length_b   9.70788936
_cell_length_c   9.79659818
_cell_angle_alpha   113.80105428
_cell_angle_beta   105.20619351
_cell_angle_gamma   109.00670057
_symmetry_Int_Tables_number   1
_chemical_formula_structural   Na12Mn3S6(O3F)8
_chemical_formula_sum   'Na12 Mn3 S6 O24 F8'
_cell_volume   708.79453894
_cell_formula_units_Z   1
loop_
 _symmetry_equiv_pos_site_id
 _symmetry_equiv_pos_as_xyz
  1  'x, y, z'
loop_
 _atom_site_type_symbol
 _atom_site_label
 _atom_site_symmetry_multiplicity
 _atom_site_fract_x
 _atom_site_fract_y
 _atom_site_fract_z
 _atom_site_occupancy
  Na  Na0  1  0.69568500  0.05030700  0.20416300  1
  Na  Na1  1  0.30431500  0.94969300  0.79583700  1
  Na  Na2  1  0.15459900  0.14478000  0.44080000  1
  Na  Na3  1  0.84540100  0.85522000  0.55920000  1
  Na  Na4  1  0.11185500  0.67939500  0.98490100  1
  Na  Na5  1  0.88814500  0.32060500  0.01509900  1
  Na  Na6  1  0.66043100  0.42520500  0.21452000  1
  Na  Na7  1  0.33956900  0.57479500  0.78548000  1
  Na  Na8  1  0.67173700  0.50010700  0.63376000  1
  Na  Na9  1  0.32826300  0.49989300  0.36624000  1
  Na  Na10  1  0.78112000  0.71678000  0.08255600  1
  Na  Na11  1  0.21888000  0.28322000  0.91744400  1
  Mn  Mn0  1  0.00000000  0.50000000  0.50000000  1
  Mn  Mn1  1  0.00000000  0.00000000  0.00000000  1
  Mn  Mn2  1  0.50000000  0.00000000  0.50000000  1
  S  S0  1  0.09034500  0.76231000  0.35687300  1
  S  S1  1  0.90965500  0.23769000  0.64312700  1
  S  S2  1  0.53573600  0.33457700  0.81645000  1
  S  S3  1  0.46426400  0.66542300  0.18355000  1
  S  S4  1  0.39463500  0.12677600  0.22757700  1
  S  S5  1  0.60536500  0.87322400  0.77242300  1
  O  O0  1  0.67420900  0.38951600  0.97255600  1
  O  O1  1  0.32579100  0.61048400  0.02744400  1
  O  O2  1  0.56916900  0.25705200  0.67035400  1
  O  O3  1  0.43083100  0.74294800  0.32964600  1
  O  O4  1  0.94792900  0.79054400  0.35820000  1
  O  O5  1  0.05207100  0.20945600  0.64180000  1
  O  O6  1  0.41948200  0.29044400  0.36235000  1
  O  O7  1  0.58051800  0.70955600  0.63765000  1
  O  O8  1  0.53238700  0.49153200  0.82777300  1
  O  O9  1  0.46761300  0.50846800  0.17222700  1
  O  O10  1  0.37764300  0.21117900  0.78943200  1
  O  O11  1  0.62235700  0.78882100  0.21056700  1
  O  O12  1  0.23439800  0.93047600  0.42113800  1
  O  O13  1  0.76560200  0.06952400  0.57886200  1
  O  O14  1  0.45073000  0.15236400  0.10793200  1
  O  O15  1  0.54927000  0.84763600  0.89206800  1
  O  O16  1  0.04730400  0.63198900  0.18453800  1
  O  O17  1  0.95269600  0.36801100  0.81546200  1
  O  O18  1  0.13692900  0.70368600  0.47393700  1
  O  O19  1  0.86307100  0.29631400  0.52606300  1
  O  O20  1  0.48791500  0.05723900  0.30069000  1
  O  O21  1  0.51208500  0.94276100  0.69931000  1
  O  O22  1  0.21521400  0.99473400  0.13392200  1
  O  O23  1  0.78478600  0.00526600  0.86607800  1
  F  F0  1  0.83421000  0.57103600  0.50518400  1
  F  F1  1  0.16579000  0.42896400  0.49481600  1
  F  F2  1  0.93784600  0.01722100  0.17458900  1
  F  F3  1  0.06215400  0.98277900  0.82541100  1
  F  F4  1  0.86375900  0.34340600  0.26519800  1
  F  F5  1  0.13624100  0.65659400  0.73480200  1
  F  F6  1  0.89583600  0.75553600  0.90255900  1
  F  F7  1  0.10416400  0.24446400  0.09744100  1
loop_
_geom_bond_atom_site_label_1
_geom_bond_atom_site_label_2
_geom_bond_distance
_geom_bond_site_symmetry_2
Na0 O11 2.435151 1_545
Na0 O20 2.444171 1_555
Na0 O15 2.506608 1_544
Na0 O19 2.644612 1_555
Na0 O14 2.932373 1_555
Na1 O10 2.435156 1_565
Na1 O21 2.444171 1_555
Na1 O14 2.506608 1_566
Na1 O18 2.644612 1_555
Na1 O15 2.932373 1_555
Na2 O5 2.385006 1_555
Na2 O12 2.400481 1_545
Na2 O6 2.951013 1_555
Na2 O4 2.984183 1_445
Na2 O22 3.074214 1_545
Na2 O10 3.191893 1_555
Na3 O4 2.385006 1_555
Na3 O13 2.400481 1_565
Na3 O7 2.951013 1_555
Na3 O5 2.984183 1_665
Na3 O23 3.074214 1_565
Na3 O11 3.191901 1_555
Na4 O1 2.362272 1_556
Na4 O16 2.367892 1_556
Na4 O17 2.416936 1_455
Na4 O22 2.477032 1_556
Na5 O0 2.362272 1_554
Na5 O17 2.367892 1_554
Na5 O16 2.416936 1_655
Na5 O23 2.477032 1_554
Na6 O9 2.269932 1_555
Na6 O0 2.299936 1_554
Na6 O14 2.319156 1_555
Na6 O4 3.128657 1_555
Na7 O8 2.269932 1_555
Na7 O1 2.299936 1_556
Na7 O15 2.319156 1_555
Na7 O5 3.128657 1_555
Na8 O2 2.454587 1_555
Na8 O7 2.457391 1_555
Na8 O6 2.482203 1_555
Na8 O8 2.614623 1_555
Na8 O19 3.190588 1_555
Na9 O3 2.454587 1_555
Na9 O6 2.457391 1_555
Na9 O7 2.482203 1_555
Na9 O9 2.614623 1_555
Na9 O18 3.190588 1_555
Na10 O11 2.328922 1_555
Na10 O4 2.410356 1_555
Na10 O8 2.412310 1_554
Na10 O0 2.614612 1_554
Na10 O16 3.000592 1_655
Na11 O10 2.328928 1_555
Na11 O5 2.410356 1_555
Na11 O9 2.412310 1_556
Na11 O1 2.614612 1_556
Na11 O17 3.000592 1_455
Mn0 O18 2.146852 1_555
Mn0 O19 2.146852 1_455
Mn1 O22 2.179501 1_545
Mn1 O23 2.179501 1_454
Mn2 O2 2.103616 1_555
Mn2 O3 2.103616 1_545
Mn2 O20 2.221080 1_555
Mn2 O21 2.221080 1_545
Mn2 O12 2.250405 1_545
Mn2 O13 2.250405 1_555
O0 S2 1.489854 1_555
O1 S3 1.489854 1_555
O2 S2 1.500519 1_555
O3 S3 1.500519 1_555
O4 S0 1.492167 1_655
O5 S1 1.492167 1_455
O6 S4 1.488970 1_555
O7 S5 1.488970 1_555
O8 S2 1.494205 1_555
O9 S3 1.494205 1_555
O10 S2 1.477504 1_555
O11 S3 1.477508 1_555
O12 S0 1.494051 1_555
O13 S1 1.494051 1_555
O14 S4 1.486956 1_555
O15 S5 1.486956 1_555
O16 S0 1.479321 1_555
O17 S1 1.479321 1_555
O18 S0 1.504983 1_555
O19 S1 1.504983 1_555
O20 S4 1.493746 1_555
O21 S5 1.493746 1_555
O22 S4 1.504775 1_565
O23 S5 1.504775 1_545
F0 Mn0 1.945838 1_655
F0 Na8 2.359169 1_555
F0 Na6 2.371470 1_555
F0 Na3 2.549495 1_555
F1 Mn0 1.945838 1_555
F1 Na9 2.359169 1_555
F1 Na7 2.371470 1_555
F1 Na2 2.549495 1_555
F2 Mn1 1.920745 1_655
F2 Na2 2.359188 1_655
F2 Na10 2.428721 1_545
F2 Na0 2.539308 1_555
F2 F6 2.648735 1_544
F3 Mn1 1.920745 1_566
F3 Na3 2.359188 1_455
F3 Na11 2.428721 1_565
F3 Na1 2.539308 1_555
F3 F7 2.648735 1_566
F4 Mn0 1.903033 1_655
F4 Na6 2.360243 1_555
F4 Na5 2.450980 1_555
F4 Na0 2.490178 1_555
F5 Mn0 1.903033 1_555
F5 Na7 2.360243 1_555
F5 Na4 2.450980 1_555
F5 Na1 2.490178 1_555
F6 Mn1 1.915218 1_666
F6 Na10 2.402737 1_556
F6 Na8 2.452928 1_555
F6 Na4 2.483682 1_655
F7 Mn1 1.915218 1_555
F7 Na11 2.402737 1_554
F7 Na9 2.452928 1_555
F7 Na5 2.483682 1_455
