# generated using pymatgen
data_MgNiAsO5
_symmetry_space_group_name_H-M   'P 1'
_cell_length_a   5.80487000
_cell_length_b   7.48795000
_cell_length_c   8.38538900
_cell_angle_alpha   90.00000000
_cell_angle_beta   90.00000000
_cell_angle_gamma   90.00000000
_symmetry_Int_Tables_number   1
_chemical_formula_structural   MgNiAsO5
_chemical_formula_sum   'Mg4 Ni4 As4 O20'
_cell_volume   364.48415091
_cell_formula_units_Z   4
loop_
 _symmetry_equiv_pos_site_id
 _symmetry_equiv_pos_as_xyz
  1  'x, y, z'
loop_
 _atom_site_type_symbol
 _atom_site_label
 _atom_site_symmetry_multiplicity
 _atom_site_fract_x
 _atom_site_fract_y
 _atom_site_fract_z
 _atom_site_occupancy
  Mg  Mg0  1  0.02713500  0.83367800  0.67931600  1
  Mg  Mg1  1  0.47286500  0.16632200  0.17931600  1
  Mg  Mg2  1  0.97286500  0.33367800  0.82068400  1
  Mg  Mg3  1  0.52713500  0.66632200  0.32068400  1
  Ni  Ni0  1  0.25676400  0.75581700  0.99852300  1
  Ni  Ni1  1  0.24323600  0.24418300  0.49852300  1
  Ni  Ni2  1  0.74323600  0.25581700  0.50147700  1
  Ni  Ni3  1  0.75676400  0.74418300  0.00147700  1
  As  As0  1  0.47789100  0.11110900  0.82055000  1
  As  As1  1  0.02210900  0.88889100  0.32055000  1
  As  As2  1  0.52210900  0.61110900  0.67945000  1
  As  As3  1  0.97789100  0.38889100  0.17945000  1
  O  O0  1  0.51424400  0.92129300  0.93401600  1
  O  O1  1  0.98575600  0.07870700  0.43401600  1
  O  O2  1  0.48575600  0.42129300  0.56598400  1
  O  O3  1  0.01424400  0.57870700  0.06598400  1
  O  O4  1  0.40561700  0.26843700  0.95706200  1
  O  O5  1  0.09438300  0.73156300  0.45706200  1
  O  O6  1  0.59438300  0.76843700  0.54293800  1
  O  O7  1  0.90561700  0.23156300  0.04293800  1
  O  O8  1  0.73429000  0.14691200  0.72229600  1
  O  O9  1  0.76571000  0.85308800  0.22229600  1
  O  O10  1  0.26571000  0.64691200  0.77770400  1
  O  O11  1  0.23429000  0.35308800  0.27770400  1
  O  O12  1  0.24120100  0.09034400  0.69711600  1
  O  O13  1  0.25879900  0.90965600  0.19711600  1
  O  O14  1  0.75879900  0.59034400  0.80288400  1
  O  O15  1  0.74120100  0.40965600  0.30288400  1
  O  O16  1  0.99931200  0.87265900  0.91627200  1
  O  O17  1  0.50068800  0.12734100  0.41627200  1
  O  O18  1  0.00068800  0.37265900  0.58372800  1
  O  O19  1  0.49931200  0.62734100  0.08372800  1
loop_
_geom_bond_atom_site_label_1
_geom_bond_atom_site_label_2
_geom_bond_distance
_geom_bond_site_symmetry_2
Mg0 O16 2.014777 1_455
Mg0 O5 2.051920 1_555
Mg0 O10 2.134101 1_555
Mg0 O12 2.293492 1_565
Mg0 O14 2.611490 1_455
Mg0 O1 2.766775 1_465
Mg0 O6 2.803021 1_455
Mg1 O17 2.014777 1_555
Mg1 O4 2.051920 1_554
Mg1 O11 2.134101 1_555
Mg1 O13 2.293492 1_545
Mg1 O15 2.611490 1_555
Mg1 O0 2.766775 1_544
Mg1 O7 2.803021 1_555
Mg2 O18 2.014777 1_655
Mg2 O7 2.051920 1_556
Mg2 O8 2.134101 1_555
Mg2 O14 2.293492 1_555
Mg2 O12 2.611490 1_655
Mg2 O3 2.766775 1_656
Mg2 O4 2.803021 1_655
Mg3 O19 2.014777 1_555
Mg3 O6 2.051920 1_555
Mg3 O9 2.134101 1_555
Mg3 O15 2.293492 1_555
Mg3 O13 2.611490 1_555
Mg3 O2 2.766775 1_555
Mg3 O5 2.803021 1_555
Ni0 O19 1.848868 1_556
Ni0 O16 1.864032 1_455
Ni0 O3 2.015112 1_556
Ni0 O0 2.015401 1_555
Ni0 O10 2.023936 1_555
Ni0 O13 2.024909 1_556
Ni1 O18 1.848868 1_555
Ni1 O17 1.864032 1_555
Ni1 O2 2.015112 1_555
Ni1 O1 2.015401 1_455
Ni1 O11 2.023936 1_555
Ni1 O12 2.024909 1_555
Ni2 O17 1.848868 1_555
Ni2 O18 1.864032 1_655
Ni2 O1 2.015112 1_555
Ni2 O2 2.015401 1_555
Ni2 O8 2.023936 1_555
Ni2 O15 2.024909 1_555
Ni3 O16 1.848868 1_554
Ni3 O19 1.864032 1_555
Ni3 O0 2.015112 1_554
Ni3 O3 2.015401 1_655
Ni3 O9 2.023936 1_555
Ni3 O14 2.024909 1_554
As0 O4 1.695347 1_555
As0 O8 1.722180 1_555
As0 O0 1.723365 1_545
As0 O12 1.727206 1_555
As1 O5 1.695347 1_555
As1 O9 1.722180 1_455
As1 O1 1.723365 1_465
As1 O13 1.727206 1_555
As2 O6 1.695347 1_555
As2 O10 1.722180 1_555
As2 O2 1.723365 1_555
As2 O14 1.727206 1_555
As3 O7 1.695347 1_555
As3 O11 1.722180 1_655
As3 O3 1.723365 1_655
As3 O15 1.727206 1_555
