# generated using pymatgen
data_CrBW
_symmetry_space_group_name_H-M   'P 1'
_cell_length_a   4.47608723
_cell_length_b   4.43114382
_cell_length_c   4.43114382
_cell_angle_alpha   62.29973727
_cell_angle_beta   74.63956755
_cell_angle_gamma   105.36043245
_symmetry_Int_Tables_number   1
_chemical_formula_structural   CrBW
_chemical_formula_sum   'Cr2 B2 W2'
_cell_volume   66.83837908
_cell_formula_units_Z   2
loop_
 _symmetry_equiv_pos_site_id
 _symmetry_equiv_pos_as_xyz
  1  'x, y, z'
loop_
 _atom_site_type_symbol
 _atom_site_label
 _atom_site_symmetry_multiplicity
 _atom_site_fract_x
 _atom_site_fract_y
 _atom_site_fract_z
 _atom_site_occupancy
  Cr  Cr0  1  0.50000000  0.32893400  0.82893400  1
  Cr  Cr1  1  0.50000000  0.67106600  0.17106600  1
  B  B0  1  0.00000000  0.25000000  0.75000000  1
  B  B1  1  0.00000000  0.75000000  0.25000000  1
  W  W0  1  0.16860100  0.83430100  0.66569900  1
  W  W1  1  0.83139900  0.16569900  0.33430100  1
loop_
_geom_bond_atom_site_label_1
_geom_bond_atom_site_label_2
_geom_bond_distance
_geom_bond_site_symmetry_2
Cr0 Cr1 2.586026 1_555
Cr0 Cr1 2.586026 1_546
Cr0 Cr1 2.594899 1_556
Cr0 W0 2.801322 1_545
Cr0 W1 2.801322 1_555
Cr0 W1 2.879427 1_456
Cr0 W0 2.879427 1_655
Cr0 W1 2.925855 1_565
Cr0 W0 2.925855 1_546
Cr0 W1 2.925859 1_556
Cr0 W0 2.925859 1_555
Cr1 W1 2.801322 1_565
Cr1 W0 2.801322 1_555
Cr1 W0 2.879427 1_654
Cr1 W1 2.879427 1_455
Cr1 W0 2.925855 1_545
Cr1 W1 2.925855 1_564
Cr1 W1 2.925859 1_555
Cr1 W0 2.925859 1_554
B0 B1 2.292135 1_546
B0 B1 2.292135 1_555
B0 W0 2.308449 1_545
B0 W1 2.308449 1_455
B0 W1 2.308451 1_456
B0 W0 2.308451 1_555
B0 Cr0 2.316733 1_455
B0 Cr0 2.316733 1_555
B0 Cr1 2.316733 1_555
B0 Cr1 2.316733 1_446
B1 W1 2.308449 1_465
B1 W0 2.308449 1_555
B1 W0 2.308451 1_554
B1 W1 2.308451 1_455
B1 Cr1 2.316733 1_455
B1 Cr0 2.316733 1_455
B1 Cr0 2.316733 1_564
B1 Cr1 2.316733 1_555
W0 W1 2.548238 1_565
W0 W1 2.633361 1_465
W0 W1 2.633369 1_456
