# generated using pymatgen
data_V3Ga2
_symmetry_space_group_name_H-M   'P 1'
_cell_length_a   6.54621700
_cell_length_b   6.54621700
_cell_length_c   6.54621700
_cell_angle_alpha   90.00000000
_cell_angle_beta   90.00000000
_cell_angle_gamma   90.00000000
_symmetry_Int_Tables_number   1
_chemical_formula_structural   V3Ga2
_chemical_formula_sum   'V12 Ga8'
_cell_volume   280.52475569
_cell_formula_units_Z   4
loop_
 _symmetry_equiv_pos_site_id
 _symmetry_equiv_pos_as_xyz
  1  'x, y, z'
loop_
 _atom_site_type_symbol
 _atom_site_label
 _atom_site_symmetry_multiplicity
 _atom_site_fract_x
 _atom_site_fract_y
 _atom_site_fract_z
 _atom_site_occupancy
  V  V0  1  0.79340900  0.95659100  0.37500000  1
  V  V1  1  0.70659100  0.04340900  0.87500000  1
  V  V2  1  0.20659100  0.45659100  0.12500000  1
  V  V3  1  0.29340900  0.54340900  0.62500000  1
  V  V4  1  0.95659100  0.37500000  0.79340900  1
  V  V5  1  0.04340900  0.87500000  0.70659100  1
  V  V6  1  0.45659100  0.12500000  0.20659100  1
  V  V7  1  0.54340900  0.62500000  0.29340900  1
  V  V8  1  0.37500000  0.79340900  0.95659100  1
  V  V9  1  0.87500000  0.70659100  0.04340900  1
  V  V10  1  0.12500000  0.20659100  0.45659100  1
  V  V11  1  0.62500000  0.29340900  0.54340900  1
  Ga  Ga0  1  0.18785200  0.81214800  0.31214800  1
  Ga  Ga1  1  0.31214800  0.18785200  0.81214800  1
  Ga  Ga2  1  0.81214800  0.31214800  0.18785200  1
  Ga  Ga3  1  0.68785200  0.68785200  0.68785200  1
  Ga  Ga4  1  0.56214800  0.43785200  0.93785200  1
  Ga  Ga5  1  0.43785200  0.93785200  0.56214800  1
  Ga  Ga6  1  0.93785200  0.56214800  0.43785200  1
  Ga  Ga7  1  0.06214800  0.06214800  0.06214800  1
loop_
_geom_bond_atom_site_label_1
_geom_bond_atom_site_label_2
_geom_bond_distance
_geom_bond_site_symmetry_2
V0 V11 2.700420 1_565
V0 V6 2.700420 1_565
V0 V7 2.770448 1_555
V0 V5 2.770448 1_655
V0 V10 2.770448 1_665
V0 V9 2.770448 1_555
V1 V5 2.700420 1_645
V1 V9 2.700420 1_546
V1 V8 2.770448 1_545
V1 V11 2.770448 1_555
V1 V6 2.770448 1_556
V1 V4 2.770448 1_555
V2 V8 2.700420 1_554
V2 V7 2.700420 1_555
V2 V6 2.770448 1_555
V2 V4 2.770448 1_454
V2 V9 2.770448 1_455
V3 V4 2.700420 1_455
V3 V8 2.770448 1_555
V3 V7 2.770448 1_555
V3 V5 2.770448 1_555
V4 V9 2.770448 1_556
V5 V9 2.700420 1_456
V5 V8 2.770448 1_555
V6 V8 2.770448 1_544
V7 V8 2.700420 1_554
V7 V9 2.770448 1_555
V10 V4 2.700420 1_455
V10 V3 2.700420 1_555
V10 V2 2.770448 1_555
V10 V6 2.770448 1_555
V10 V5 2.770448 1_545
V11 V6 2.700420 1_555
V11 V4 2.770448 1_555
V11 V3 2.770448 1_555
V11 V7 2.770448 1_555
Ga0 Ga5 2.456371 1_555
Ga0 Ga6 2.456371 1_455
Ga0 Ga7 2.456371 1_565
Ga0 V7 2.633145 1_555
Ga0 V8 2.633145 1_554
Ga0 V2 2.633145 1_555
Ga0 V10 2.780405 1_565
Ga0 V5 2.780405 1_555
Ga0 V0 2.780405 1_455
Ga0 V6 2.786869 1_565
Ga0 V3 2.786869 1_555
Ga0 V9 2.786869 1_455
Ga1 Ga4 2.456371 1_555
Ga1 Ga5 2.456371 1_545
Ga1 Ga7 2.456371 1_556
Ga1 V3 2.633145 1_555
Ga1 V4 2.633145 1_455
Ga1 V10 2.633145 1_555
Ga1 V6 2.780405 1_556
Ga1 V1 2.780405 1_555
Ga1 V8 2.780405 1_545
Ga1 V2 2.786869 1_556
Ga1 V11 2.786869 1_555
Ga1 V5 2.786869 1_545
Ga2 Ga6 2.456371 1_555
Ga2 Ga7 2.456371 1_655
Ga2 Ga4 2.456371 1_554
Ga2 V11 2.633145 1_555
Ga2 V0 2.633145 1_545
Ga2 V6 2.633145 1_555
Ga2 V2 2.780405 1_655
Ga2 V9 2.780405 1_555
Ga2 V4 2.780405 1_554
Ga2 V10 2.786869 1_655
Ga2 V7 2.786869 1_555
Ga2 V1 2.786869 1_554
Ga3 Ga5 2.456371 1_555
Ga3 Ga4 2.456371 1_555
Ga3 Ga6 2.456371 1_555
Ga3 V9 2.633145 1_556
Ga3 V1 2.633145 1_565
Ga3 V5 2.633145 1_655
Ga3 V11 2.780405 1_555
Ga3 V7 2.780405 1_555
Ga3 V3 2.780405 1_555
Ga3 V0 2.786869 1_555
Ga3 V4 2.786869 1_555
Ga3 V8 2.786869 1_555
Ga4 V8 2.633145 1_555
Ga4 V2 2.633145 1_556
Ga4 V7 2.633145 1_556
Ga4 V11 2.780405 1_555
Ga4 V1 2.780405 1_555
Ga4 V4 2.780405 1_555
Ga4 V3 2.786869 1_555
Ga4 V6 2.786869 1_556
Ga4 V9 2.786869 1_556
Ga5 V0 2.633145 1_555
Ga5 V6 2.633145 1_565
Ga5 V11 2.633145 1_565
Ga5 V3 2.780405 1_555
Ga5 V8 2.780405 1_555
Ga5 V5 2.780405 1_555
Ga5 V7 2.786869 1_555
Ga5 V10 2.786869 1_565
Ga5 V1 2.786869 1_565
Ga6 V4 2.633145 1_555
Ga6 V10 2.633145 1_655
Ga6 V3 2.633145 1_655
Ga6 V7 2.780405 1_555
Ga6 V0 2.780405 1_555
Ga6 V9 2.780405 1_555
Ga6 V11 2.786869 1_555
Ga6 V2 2.786869 1_655
Ga6 V5 2.786869 1_655
Ga7 V5 2.633145 1_544
Ga7 V1 2.633145 1_454
Ga7 V9 2.633145 1_445
Ga7 V2 2.780405 1_555
Ga7 V6 2.780405 1_555
Ga7 V10 2.780405 1_555
Ga7 V8 2.786869 1_544
Ga7 V0 2.786869 1_445
Ga7 V4 2.786869 1_454
