# generated using pymatgen
data_Ba3CdIr2O9
_symmetry_space_group_name_H-M   'P 1'
_cell_length_a   5.95612030
_cell_length_b   5.95612030
_cell_length_c   14.78467784
_cell_angle_alpha   89.00736387
_cell_angle_beta   89.00736387
_cell_angle_gamma   119.65767584
_symmetry_Int_Tables_number   1
_chemical_formula_structural   Ba3CdIr2O9
_chemical_formula_sum   'Ba6 Cd2 Ir4 O18'
_cell_volume   455.51118161
_cell_formula_units_Z   2
loop_
 _symmetry_equiv_pos_site_id
 _symmetry_equiv_pos_as_xyz
  1  'x, y, z'
loop_
 _atom_site_type_symbol
 _atom_site_label
 _atom_site_symmetry_multiplicity
 _atom_site_fract_x
 _atom_site_fract_y
 _atom_site_fract_z
 _atom_site_occupancy
  Ba  Ba0  1  0.32862000  0.65935200  0.58606000  1
  Ba  Ba1  1  0.67138000  0.34064800  0.41394000  1
  Ba  Ba2  1  0.34064800  0.67138000  0.91394000  1
  Ba  Ba3  1  0.65935200  0.32862000  0.08606000  1
  Ba  Ba4  1  0.99758400  0.00241600  0.75000000  1
  Ba  Ba5  1  0.00241600  0.99758400  0.25000000  1
  Cd  Cd0  1  0.00000000  0.00000000  0.50000000  1
  Cd  Cd1  1  0.00000000  0.00000000  0.00000000  1
  Ir  Ir0  1  0.65175900  0.31727500  0.66380000  1
  Ir  Ir1  1  0.34824100  0.68272500  0.33620000  1
  Ir  Ir2  1  0.68272500  0.34824100  0.83620000  1
  Ir  Ir3  1  0.31727500  0.65175900  0.16380000  1
  O  O0  1  0.39586400  0.20785800  0.92547800  1
  O  O1  1  0.60413600  0.79214200  0.07452200  1
  O  O2  1  0.79214200  0.60413600  0.57452200  1
  O  O3  1  0.20785800  0.39586400  0.42547800  1
  O  O4  1  0.51207000  0.48793000  0.75000000  1
  O  O5  1  0.48793000  0.51207000  0.25000000  1
  O  O6  1  0.78716900  0.13588100  0.59119200  1
  O  O7  1  0.21283100  0.86411900  0.40880800  1
  O  O8  1  0.86411900  0.21283100  0.90880800  1
  O  O9  1  0.13588100  0.78716900  0.09119200  1
  O  O10  1  0.32473400  0.14529600  0.59989200  1
  O  O11  1  0.67526600  0.85470400  0.40010800  1
  O  O12  1  0.85470400  0.67526600  0.90010800  1
  O  O13  1  0.14529600  0.32473400  0.09989200  1
  O  O14  1  0.51201300  0.02664500  0.76095300  1
  O  O15  1  0.48798700  0.97335500  0.23904700  1
  O  O16  1  0.97335500  0.48798700  0.73904700  1
  O  O17  1  0.02664500  0.51201300  0.26095300  1
loop_
_geom_bond_atom_site_label_1
_geom_bond_atom_site_label_2
_geom_bond_distance
_geom_bond_site_symmetry_2
Ba0 O3 2.772729 1_555
Ba0 O6 2.804285 1_565
Ba0 O16 2.872645 1_455
Ba0 O10 2.916540 1_565
Ba0 O2 2.939966 1_555
Ba0 O4 3.036645 1_555
Ba0 O10 3.053663 1_555
Ba0 O2 3.054217 1_455
Ba0 O7 3.100803 1_555
Ba0 O6 3.187429 1_455
Ba0 O11 3.238838 1_555
Ba0 O14 3.254841 1_565
Ba1 O2 2.772729 1_555
Ba1 O7 2.804285 1_545
Ba1 O17 2.872645 1_655
Ba1 O11 2.916540 1_545
Ba1 O3 2.939966 1_555
Ba1 O5 3.036645 1_555
Ba1 O11 3.053663 1_555
Ba1 O3 3.054217 1_655
Ba1 O6 3.100803 1_555
Ba1 O7 3.187429 1_655
Ba1 O10 3.238838 1_555
Ba1 O15 3.254841 1_545
Ba2 O1 2.772729 1_556
Ba2 O8 2.804285 1_455
Ba2 O14 2.872645 1_565
Ba2 O12 2.916540 1_455
Ba2 O0 2.939966 1_555
Ba2 O4 3.036645 1_555
Ba2 O12 3.053663 1_555
Ba2 O0 3.054217 1_565
Ba2 O9 3.100803 1_556
Ba2 O8 3.187429 1_565
Ba2 O13 3.238838 1_556
Ba2 O16 3.254841 1_455
Ba3 O0 2.772729 1_554
Ba3 O9 2.804285 1_655
Ba3 O15 2.872645 1_545
Ba3 O13 2.916540 1_655
Ba3 O1 2.939966 1_555
Ba3 O5 3.036645 1_555
Ba3 O13 3.053663 1_555
Ba3 O1 3.054217 1_545
Ba3 O8 3.100803 1_554
Ba3 O9 3.187429 1_545
Ba3 O12 3.238838 1_554
Ba3 O17 3.254841 1_655
Ba4 O12 2.754999 1_545
Ba4 O10 2.754999 1_655
Ba4 O8 2.956102 1_555
Ba4 O6 2.956102 1_555
Ba4 O14 2.968000 1_555
Ba4 O16 2.968000 1_555
Ba4 O4 2.997171 1_545
Ba4 O4 2.997171 1_655
Ba4 O16 3.002593 1_545
Ba4 O14 3.002593 1_655
Ba4 O0 3.362451 1_655
Ba4 O2 3.362451 1_545
Ba5 O11 2.754999 1_455
Ba5 O13 2.754999 1_565
Ba5 O9 2.956102 1_555
Ba5 O7 2.956102 1_555
Ba5 O17 2.968000 1_555
Ba5 O15 2.968000 1_555
Ba5 O5 2.997171 1_455
Ba5 O5 2.997171 1_565
Ba5 O17 3.002593 1_565
Ba5 O15 3.002593 1_455
Ba5 O3 3.362451 1_565
Ba5 O1 3.362451 1_455
Cd0 O6 2.252463 1_455
Cd0 O7 2.252463 1_545
Cd0 O10 2.271081 1_555
Cd0 O11 2.271081 1_445
Cd0 O2 2.297798 1_445
Cd0 O3 2.297798 1_555
Cd1 O9 2.252463 1_545
Cd1 O8 2.252463 1_454
Cd1 O13 2.271081 1_555
Cd1 O12 2.271081 1_444
Cd1 O1 2.297798 1_445
Cd1 O0 2.297798 1_554
Ir0 O2 1.957154 1_555
Ir0 O6 1.960265 1_555
Ir0 O10 1.964365 1_555
Ir0 O16 2.031285 1_555
Ir0 O4 2.048083 1_555
Ir0 O14 2.049142 1_555
Ir1 O3 1.957154 1_555
Ir1 O7 1.960265 1_555
Ir1 O11 1.964365 1_555
Ir1 O17 2.031285 1_555
Ir1 O5 2.048083 1_555
Ir1 O15 2.049142 1_555
Ir2 O0 1.957154 1_555
Ir2 O8 1.960265 1_555
Ir2 O12 1.964365 1_555
Ir2 O14 2.031285 1_555
Ir2 O4 2.048083 1_555
Ir2 O16 2.049142 1_555
Ir3 O1 1.957154 1_555
Ir3 O9 1.960265 1_555
Ir3 O13 1.964365 1_555
Ir3 O15 2.031285 1_555
Ir3 O5 2.048083 1_555
Ir3 O17 2.049142 1_555
O14 O6 2.855567 1_555
O15 O7 2.855567 1_555
O16 O8 2.855567 1_555
O17 O9 2.855567 1_555
