# generated using pymatgen
data_CaSn2Pd
_symmetry_space_group_name_H-M   'P 1'
_cell_length_a   4.45322517
_cell_length_b   6.06544031
_cell_length_c   7.43915876
_cell_angle_alpha   90.00000000
_cell_angle_beta   90.00000000
_cell_angle_gamma   111.53676503
_symmetry_Int_Tables_number   1
_chemical_formula_structural   CaSn2Pd
_chemical_formula_sum   'Ca2 Sn4 Pd2'
_cell_volume   186.90840947
_cell_formula_units_Z   2
loop_
 _symmetry_equiv_pos_site_id
 _symmetry_equiv_pos_as_xyz
  1  'x, y, z'
loop_
 _atom_site_type_symbol
 _atom_site_label
 _atom_site_symmetry_multiplicity
 _atom_site_fract_x
 _atom_site_fract_y
 _atom_site_fract_z
 _atom_site_occupancy
  Ca  Ca0  1  0.06979772  0.13959445  0.75000000  1
  Ca  Ca1  1  0.93020228  0.86040555  0.25000000  1
  Sn  Sn0  1  0.35842507  0.71685315  0.95449733  1
  Sn  Sn1  1  0.64157493  0.28314685  0.04550267  1
  Sn  Sn2  1  0.64157493  0.28314685  0.45449733  1
  Sn  Sn3  1  0.35842507  0.71685315  0.54550267  1
  Pd  Pd0  1  0.79710955  0.59421910  0.75000000  1
  Pd  Pd1  1  0.20289045  0.40578090  0.25000000  1
loop_
_geom_bond_atom_site_label_1
_geom_bond_atom_site_label_2
_geom_bond_distance
_geom_bond_site_symmetry_2
Ca0 Pd0 3.076988 1_445
Ca0 Sn2 3.232063 1_455
Ca0 Sn1 3.232063 1_456
Ca0 Sn2 3.232070 1_555
Ca0 Sn1 3.232070 1_556
Ca0 Pd0 3.396601 1_555
Ca0 Pd0 3.396603 1_455
Ca0 Sn0 3.594654 1_555
Ca0 Sn3 3.594654 1_555
Ca0 Sn3 3.600103 1_545
Ca0 Sn0 3.600103 1_545
Ca0 Sn0 3.600114 1_445
Ca0 Sn3 3.600114 1_445
Ca1 Pd1 3.076988 1_665
Ca1 Sn3 3.232063 1_655
Ca1 Sn0 3.232063 1_654
Ca1 Sn3 3.232070 1_555
Ca1 Sn0 3.232070 1_554
Ca1 Pd1 3.396601 1_555
Ca1 Pd1 3.396603 1_655
Ca1 Sn1 3.594654 1_555
Ca1 Sn2 3.594654 1_555
Ca1 Sn2 3.600103 1_565
Ca1 Sn1 3.600103 1_565
Ca1 Sn1 3.600114 1_665
Ca1 Sn2 3.600114 1_665
Sn0 Sn3 3.042576 1_555
Sn0 Sn1 3.265948 1_566
Sn0 Sn1 3.376932 1_456
Sn0 Sn1 3.376949 1_556
Sn1 Sn2 3.042576 1_555
Sn2 Sn3 3.265948 1_545
Sn2 Sn3 3.376932 1_655
Sn2 Sn3 3.376949 1_555
Pd0 Sn3 2.784028 1_655
Pd0 Sn0 2.784028 1_655
Pd0 Sn0 2.784039 1_555
Pd0 Sn3 2.784039 1_555
Pd0 Sn2 2.812955 1_555
Pd0 Sn1 2.812955 1_556
Pd1 Sn2 2.784028 1_455
Pd1 Sn1 2.784028 1_455
Pd1 Sn1 2.784039 1_555
Pd1 Sn2 2.784039 1_555
Pd1 Sn3 2.812955 1_555
Pd1 Sn0 2.812955 1_554
