# generated using pymatgen
data_CdH4C4(S2N3)2
_symmetry_space_group_name_H-M   'P 1'
_cell_length_a   8.05628551
_cell_length_b   8.65853707
_cell_length_c   8.65853707
_cell_angle_alpha   78.48433696
_cell_angle_beta   85.45763009
_cell_angle_gamma   85.45763009
_symmetry_Int_Tables_number   1
_chemical_formula_structural   CdH4C4(S2N3)2
_chemical_formula_sum   'Cd2 H8 C8 S8 N12'
_cell_volume   588.72143771
_cell_formula_units_Z   2
loop_
 _symmetry_equiv_pos_site_id
 _symmetry_equiv_pos_as_xyz
  1  'x, y, z'
loop_
 _atom_site_type_symbol
 _atom_site_label
 _atom_site_symmetry_multiplicity
 _atom_site_fract_x
 _atom_site_fract_y
 _atom_site_fract_z
 _atom_site_occupancy
  Cd  Cd0  1  0.25000000  0.58031800  0.41968200  1
  Cd  Cd1  1  0.75000000  0.41968200  0.58031800  1
  H  H0  1  0.61798900  0.98665400  0.87927200  1
  H  H1  1  0.38201100  0.01334600  0.12072800  1
  H  H2  1  0.88201100  0.12072800  0.01334600  1
  H  H3  1  0.11798900  0.87927200  0.98665400  1
  H  H4  1  0.22391500  0.14773600  0.17248900  1
  H  H5  1  0.77608500  0.85226400  0.82751100  1
  H  H6  1  0.27608500  0.82751100  0.85226400  1
  H  H7  1  0.72391500  0.17248900  0.14773600  1
  C  C0  1  0.08134700  0.22840000  0.53589900  1
  C  C1  1  0.91865300  0.77160000  0.46410100  1
  C  C2  1  0.41865300  0.46410100  0.77160000  1
  C  C3  1  0.58134700  0.53589900  0.22840000  1
  C  C4  1  0.11875900  0.01455100  0.76254700  1
  C  C5  1  0.88124100  0.98544900  0.23745300  1
  C  C6  1  0.38124100  0.23745300  0.98544900  1
  C  C7  1  0.61875900  0.76254700  0.01455100  1
  S  S0  1  0.23424400  0.07430500  0.58309400  1
  S  S1  1  0.76575600  0.92569500  0.41690600  1
  S  S2  1  0.26575600  0.41690600  0.92569500  1
  S  S3  1  0.73424400  0.58309400  0.07430500  1
  S  S4  1  0.07895300  0.36187200  0.35894700  1
  S  S5  1  0.92104700  0.63812800  0.64105300  1
  S  S6  1  0.42104700  0.64105300  0.63812800  1
  S  S7  1  0.57895300  0.35894700  0.36187200  1
  N  N0  1  0.16592700  0.88778500  0.87193900  1
  N  N1  1  0.83407300  0.11221500  0.12806100  1
  N  N2  1  0.33407300  0.12806100  0.11221500  1
  N  N3  1  0.66592700  0.87193900  0.88778500  1
  N  N4  1  0.01864900  0.89366600  0.22034900  1
  N  N5  1  0.98135100  0.10633400  0.77965100  1
  N  N6  1  0.48135100  0.77965100  0.10633400  1
  N  N7  1  0.51864900  0.22034900  0.89366600  1
  N  N8  1  0.03743500  0.77499100  0.34945400  1
  N  N9  1  0.96256500  0.22500900  0.65054600  1
  N  N10  1  0.46256500  0.65054600  0.22500900  1
  N  N11  1  0.53743500  0.34945400  0.77499100  1
loop_
_geom_bond_atom_site_label_1
_geom_bond_atom_site_label_2
_geom_bond_distance
_geom_bond_site_symmetry_2
Cd0 N10 2.332818 1_555
Cd0 N8 2.332818 1_555
Cd0 S6 2.584119 1_555
Cd0 S4 2.584119 1_555
Cd0 S5 3.211868 1_455
Cd0 S7 3.211868 1_555
Cd1 N9 2.332818 1_555
Cd1 N11 2.332818 1_555
Cd1 S5 2.584119 1_555
Cd1 S7 2.584119 1_555
Cd1 S6 3.211868 1_555
Cd1 S4 3.211868 1_655
H0 N3 1.027461 1_555
H1 N2 1.027461 1_555
H2 N1 1.027461 1_555
H3 N0 1.027461 1_555
H4 N2 1.013493 1_555
H5 N3 1.013493 1_555
H6 N0 1.013493 1_555
H7 N1 1.013493 1_555
C0 N9 1.320740 1_455
C0 S4 1.725571 1_555
C0 S0 1.751052 1_555
C1 N8 1.320740 1_655
C1 S5 1.725571 1_555
C1 S1 1.751052 1_555
C2 N11 1.320740 1_555
C2 S6 1.725571 1_555
C2 S2 1.751052 1_555
C3 N10 1.320740 1_555
C3 S7 1.725571 1_555
C3 S3 1.751052 1_555
C4 N5 1.326882 1_455
C4 N0 1.349865 1_545
C4 S0 1.753248 1_555
C5 N4 1.326882 1_655
C5 N1 1.349865 1_565
C5 S1 1.753248 1_555
C6 N7 1.326882 1_555
C6 N2 1.349865 1_556
C6 S2 1.753248 1_555
C7 N6 1.326882 1_555
C7 N3 1.349865 1_554
C7 S3 1.753248 1_555
N4 N8 1.368181 1_555
N5 N9 1.368181 1_555
N10 N6 1.368181 1_555
N11 N7 1.368181 1_555
