# generated using pymatgen
data_Ba2LiLaCu3O7
_symmetry_space_group_name_H-M   'P 1'
_cell_length_a   4.00145336
_cell_length_b   4.23173400
_cell_length_c   11.50491710
_cell_angle_alpha   90.00000000
_cell_angle_beta   87.85270137
_cell_angle_gamma   90.00000000
_symmetry_Int_Tables_number   1
_chemical_formula_structural   Ba2LiLaCu3O7
_chemical_formula_sum   'Ba2 Li1 La1 Cu3 O7'
_cell_volume   194.67695603
_cell_formula_units_Z   1
loop_
 _symmetry_equiv_pos_site_id
 _symmetry_equiv_pos_as_xyz
  1  'x, y, z'
loop_
 _atom_site_type_symbol
 _atom_site_label
 _atom_site_symmetry_multiplicity
 _atom_site_fract_x
 _atom_site_fract_y
 _atom_site_fract_z
 _atom_site_occupancy
  Ba  Ba0  1  0.50360500  0.50000000  0.82390500  1
  Ba  Ba1  1  0.37892900  0.50000000  0.16069000  1
  Li  Li0  1  0.75535100  0.00000000  0.19305900  1
  La  La0  1  0.53792900  0.50000000  0.49753300  1
  Cu  Cu0  1  0.01988200  0.00000000  0.64737200  1
  Cu  Cu1  1  0.05632100  0.00000000  0.36743200  1
  Cu  Cu2  1  0.97535900  0.00000000  0.98951700  1
  O  O0  1  0.52403900  0.00000000  0.61266700  1
  O  O1  1  0.01985400  0.50000000  0.62794600  1
  O  O2  1  0.55535200  0.00000000  0.34281900  1
  O  O3  1  0.04148700  0.50000000  0.36380400  1
  O  O4  1  0.95002500  0.50000000  0.01001500  1
  O  O5  1  0.49737700  0.00000000  0.04848400  1
  O  O6  1  0.01782300  0.00000000  0.82053700  1
loop_
_geom_bond_atom_site_label_1
_geom_bond_atom_site_label_2
_geom_bond_distance
_geom_bond_site_symmetry_2
Ba0 O4 2.839410 1_556
Ba0 O6 2.874462 1_555
Ba0 O6 2.874462 1_565
Ba0 O6 2.950630 1_655
Ba0 O6 2.950630 1_665
Ba0 O1 3.000174 1_655
Ba0 O4 3.022582 1_456
Ba0 O1 3.026008 1_555
Ba0 O0 3.221013 1_555
Ba0 O0 3.221013 1_565
Ba0 O5 3.338940 1_556
Ba0 O5 3.338940 1_566
Ba1 O4 2.484644 1_455
Ba1 O5 2.514391 1_555
Ba1 O5 2.514391 1_565
Ba1 Li0 2.631797 1_565
Ba1 Li0 2.631797 1_555
Ba1 O3 2.654699 1_555
Ba1 O4 2.816093 1_555
Ba1 O2 3.078428 1_555
Ba1 O2 3.078428 1_565
Ba1 Li0 3.282081 1_465
Ba1 Li0 3.282081 1_455
Li0 O2 1.872372 1_555
Li0 O5 1.990200 1_555
La0 O1 2.487312 1_655
La0 O3 2.488950 1_655
La0 O0 2.495806 1_555
La0 O0 2.495806 1_565
La0 O1 2.513093 1_555
La0 O3 2.557788 1_555
La0 O2 2.764191 1_555
La0 O2 2.764191 1_565
Cu0 O6 1.991957 1_555
Cu0 O0 2.038483 1_455
Cu0 O0 2.041765 1_555
Cu0 O1 2.127638 1_555
Cu0 O1 2.127638 1_545
Cu1 O2 2.006295 1_555
Cu1 O2 2.034984 1_455
Cu1 O3 2.117155 1_555
Cu1 O3 2.117155 1_545
Cu1 Li0 2.378247 1_455
Cu2 O6 1.945160 1_655
Cu2 O5 2.005276 1_556
Cu2 O4 2.130961 1_546
Cu2 O4 2.130961 1_556
Cu2 O5 2.220281 1_656
Cu2 Li0 2.470678 1_556
