# generated using pymatgen
data_H4CN4O
_symmetry_space_group_name_H-M   'P 1'
_cell_length_a   4.62235700
_cell_length_b   7.59479323
_cell_length_c   11.37541082
_cell_angle_alpha   105.20114034
_cell_angle_beta   91.38947467
_cell_angle_gamma   105.01037118
_symmetry_Int_Tables_number   1
_chemical_formula_structural   H4CN4O
_chemical_formula_sum   'H16 C4 N16 O4'
_cell_volume   370.39774330
_cell_formula_units_Z   4
loop_
 _symmetry_equiv_pos_site_id
 _symmetry_equiv_pos_as_xyz
  1  'x, y, z'
loop_
 _atom_site_type_symbol
 _atom_site_label
 _atom_site_symmetry_multiplicity
 _atom_site_fract_x
 _atom_site_fract_y
 _atom_site_fract_z
 _atom_site_occupancy
  H  H0  1  0.77944700  0.62941600  0.06896000  1
  H  H1  1  0.22055300  0.37058400  0.93104000  1
  H  H2  1  0.29926600  0.22970300  0.68704200  1
  H  H3  1  0.70073400  0.77029700  0.31295800  1
  H  H4  1  0.58437600  0.14990500  0.09036100  1
  H  H5  1  0.41562400  0.85009500  0.90963900  1
  H  H6  1  0.85588400  0.30062100  0.06073900  1
  H  H7  1  0.14411600  0.69937900  0.93926100  1
  H  H8  1  0.98626700  0.44740100  0.31939200  1
  H  H9  1  0.01373300  0.55259900  0.68060800  1
  H  H10  1  0.54284600  0.77022700  0.07195200  1
  H  H11  1  0.45715400  0.22977300  0.92804800  1
  H  H12  1  0.31257700  0.61704500  0.40457000  1
  H  H13  1  0.68742300  0.38295500  0.59543000  1
  H  H14  1  0.10285800  0.14565400  0.83869200  1
  H  H15  1  0.89714200  0.85434600  0.16130800  1
  C  C0  1  0.30143400  0.56623900  0.21704200  1
  C  C1  1  0.69856600  0.43376100  0.78295800  1
  C  C2  1  0.21545000  0.07098800  0.38725900  1
  C  C3  1  0.78455000  0.92901200  0.61274100  1
  N  N0  1  0.20635800  0.02087100  0.26377900  1
  N  N1  1  0.79364200  0.97912900  0.73622100  1
  N  N2  1  0.40850400  0.31904400  0.77002300  1
  N  N3  1  0.59149600  0.68095600  0.22997700  1
  N  N4  1  0.60824900  0.25056300  0.34419900  1
  N  N5  1  0.39175100  0.74943700  0.65580100  1
  N  N6  1  0.29430700  0.26403300  0.87355800  1
  N  N7  1  0.70569300  0.73596700  0.12644200  1
  N  N8  1  0.46389300  0.21421000  0.43863200  1
  N  N9  1  0.53610700  0.78579000  0.56136800  1
  N  N10  1  0.01310600  0.02590800  0.55807300  1
  N  N11  1  0.98689400  0.97409200  0.44192700  1
  N  N12  1  0.45361100  0.13403000  0.23924900  1
  N  N13  1  0.54638900  0.86597000  0.76075100  1
  N  N14  1  0.18811700  0.54544900  0.32169900  1
  N  N15  1  0.81188300  0.45455100  0.67830100  1
  O  O0  1  0.16374200  0.48887600  0.11148000  1
  O  O1  1  0.83625800  0.51112400  0.88852000  1
  O  O2  1  0.68433100  0.18851700  0.02098000  1
  O  O3  1  0.31566900  0.81148300  0.97902000  1
loop_
_geom_bond_atom_site_label_1
_geom_bond_atom_site_label_2
_geom_bond_distance
_geom_bond_site_symmetry_2
H0 N7 1.036758 1_555
H1 N6 1.036758 1_555
H2 N2 1.034369 1_555
H3 N3 1.034369 1_555
H4 O2 0.995609 1_555
H4 N12 1.835038 1_555
H5 O3 0.995609 1_555
H5 N13 1.835038 1_555
H6 O2 0.994592 1_555
H6 O0 1.695841 1_655
H7 O3 0.994592 1_555
H7 O1 1.695841 1_455
H8 N14 1.026843 1_655
H9 N15 1.026843 1_455
H10 N7 1.087166 1_555
H11 N6 1.087166 1_555
H12 N14 1.028666 1_555
H13 N15 1.028666 1_555
H14 N6 1.064240 1_555
H14 N1 1.791904 1_445
H15 N7 1.064240 1_555
H15 N0 1.791904 1_665
C0 O0 1.261540 1_555
C0 N14 1.342609 1_555
C0 N3 1.377139 1_555
C1 O1 1.261540 1_555
C1 N15 1.342609 1_555
C1 N2 1.377139 1_555
C2 N0 1.352080 1_555
C2 N8 1.352978 1_555
C2 N11 1.383309 1_445
C3 N1 1.352080 1_555
C3 N9 1.352978 1_555
C3 N10 1.383309 1_665
N0 N12 1.324807 1_555
N1 N13 1.324807 1_555
N2 N6 1.419243 1_555
N3 N7 1.419243 1_555
N4 N8 1.330516 1_555
N5 N9 1.330516 1_555
N10 N11 1.268863 1_445
N12 N4 1.340271 1_555
N13 N5 1.340271 1_555
