# generated using pymatgen
data_Na2Al2Si3(HO5)2
_symmetry_space_group_name_H-M   'P 1'
_cell_length_a   12.92439321
_cell_length_b   9.89103534
_cell_length_c   9.58096515
_cell_angle_alpha   83.15546630
_cell_angle_beta   49.45059077
_cell_angle_gamma   47.39394294
_symmetry_Int_Tables_number   1
_chemical_formula_structural   Na2Al2Si3(HO5)2
_chemical_formula_sum   'Na4 Al4 Si6 H4 O20'
_cell_volume   560.99094318
_cell_formula_units_Z   2
loop_
 _symmetry_equiv_pos_site_id
 _symmetry_equiv_pos_as_xyz
  1  'x, y, z'
loop_
 _atom_site_type_symbol
 _atom_site_label
 _atom_site_symmetry_multiplicity
 _atom_site_fract_x
 _atom_site_fract_y
 _atom_site_fract_z
 _atom_site_occupancy
  Na  Na0  1  0.63983800  0.42932400  0.80069700  1
  Na  Na1  1  0.13014100  0.80069700  0.42932400  1
  Na  Na2  1  0.82067600  0.61016200  0.11985900  1
  Na  Na3  1  0.44930300  0.11985900  0.61016200  1
  Al  Al0  1  0.50756700  0.68288900  0.55998400  1
  Al  Al1  1  0.24956000  0.55998400  0.68288900  1
  Al  Al2  1  0.56711100  0.74243300  0.00044000  1
  Al  Al3  1  0.69001600  0.00044000  0.74243300  1
  Si  Si0  1  0.74510400  0.68412500  0.55674700  1
  Si  Si1  1  0.01402400  0.55674700  0.68412500  1
  Si  Si2  1  0.56587500  0.50489600  0.23597600  1
  Si  Si3  1  0.69325300  0.23597600  0.50489600  1
  Si  Si4  1  0.00032900  0.99967100  0.99967100  1
  Si  Si5  1  0.25032900  0.24967100  0.24967100  1
  H  H0  1  0.14227800  0.21085700  0.99320500  1
  H  H1  1  0.65366000  0.99320500  0.21085700  1
  H  H2  1  0.03914300  0.10772200  0.59634000  1
  H  H3  1  0.25679500  0.59634000  0.10772200  1
  O  O0  1  0.63818500  0.66612200  0.76888700  1
  O  O1  1  0.92680700  0.76888700  0.66612200  1
  O  O2  1  0.58387800  0.61181500  0.32319300  1
  O  O3  1  0.48111300  0.32319300  0.61181500  1
  O  O4  1  0.63868300  0.73541000  0.48821000  1
  O  O5  1  0.13769800  0.48821000  0.73541000  1
  O  O6  1  0.51459000  0.61131700  0.11230200  1
  O  O7  1  0.76179000  0.11230200  0.61131700  1
  O  O8  1  0.62653500  0.44695800  0.57113100  1
  O  O9  1  0.35537600  0.57113100  0.44695800  1
  O  O10  1  0.80304200  0.62346500  0.89462400  1
  O  O11  1  0.67886900  0.89462400  0.62346500  1
  O  O12  1  0.01820600  0.44888800  0.33571100  1
  O  O13  1  0.19719500  0.33571100  0.44888800  1
  O  O14  1  0.80111200  0.23179400  0.05280500  1
  O  O15  1  0.91428900  0.05280500  0.23179400  1
  O  O16  1  0.32976600  0.02908000  0.20490500  1
  O  O17  1  0.43625000  0.20490500  0.02908000  1
  O  O18  1  0.22092000  0.92023400  0.81375000  1
  O  O19  1  0.04509500  0.81375000  0.92023400  1
loop_
_geom_bond_atom_site_label_1
_geom_bond_atom_site_label_2
_geom_bond_distance
_geom_bond_site_symmetry_2
Na0 O8 2.292874 1_555
Na0 O0 2.312945 1_555
Na0 O6 2.413706 1_556
Na0 O7 2.560314 1_555
Na1 O9 2.292874 1_555
Na1 O1 2.312937 1_455
Na1 O7 2.413714 1_465
Na1 O6 2.560306 1_555
Na2 O10 2.292874 1_554
Na2 O2 2.312945 1_555
Na2 O4 2.413714 1_555
Na2 O5 2.560310 1_654
Na3 O11 2.292874 1_545
Na3 O3 2.312935 1_555
Na3 O5 2.413710 1_555
Na3 O4 2.560306 1_545
Al0 O18 1.738197 1_555
Al0 O8 1.765618 1_555
Al0 O2 1.773702 1_555
Al0 O4 1.790525 1_555
Al1 O19 1.738193 1_555
Al1 O9 1.765618 1_555
Al1 O3 1.773695 1_555
Al1 O5 1.790513 1_555
Al2 O16 1.738198 1_565
Al2 O10 1.765618 1_554
Al2 O0 1.773693 1_554
Al2 O6 1.790522 1_555
Al3 O17 1.738197 1_556
Al3 O11 1.765618 1_545
Al3 O1 1.773700 1_545
Al3 O7 1.790516 1_555
H0 Na2 2.589624 1_456
H0 Na3 2.653608 1_555
H0 O18 2.683743 1_545
H0 O12 2.961603 1_556
H0 O0 3.581026 1_545
H0 O16 3.583417 1_556
H0 O15 3.602634 1_456
H1 Na3 2.589624 1_565
H1 Na2 2.653608 1_555
H1 O19 2.683734 1_654
H1 O13 2.961603 1_565
H1 O1 3.581021 1_554
H1 O17 3.583408 1_565
H1 O14 3.602634 1_565
H2 Na0 2.589624 1_455
H2 Na1 2.653608 1_545
H2 O16 2.683738 1_555
H2 O14 2.961603 1_456
H2 O2 3.581022 1_545
H2 O18 3.583408 1_545
H2 O13 3.602634 1_555
H3 Na1 2.589624 1_555
H3 Na0 2.653608 1_554
H3 O17 2.683735 1_555
H3 O15 2.961603 1_465
H3 O3 3.581030 1_554
H3 O19 3.583416 1_554
H3 O12 3.602634 1_555
O0 Si0 1.633218 1_555
O1 Si1 1.633219 1_655
O2 Si2 1.633211 1_555
O3 Si3 1.633223 1_555
O4 Si0 1.652453 1_555
O5 Si1 1.652465 1_555
O6 Si2 1.652462 1_555
O7 Si3 1.652456 1_555
O8 Si3 1.633705 1_555
O9 Si2 1.633705 1_555
O10 Si1 1.633705 1_655
O11 Si0 1.633705 1_555
O12 Si0 1.641188 1_455
O12 Si5 1.652456 1_555
O13 Si1 1.641188 1_555
O13 Si5 1.652456 1_555
O14 Si2 1.641188 1_555
O14 Si4 1.652456 1_644
O15 Si3 1.641188 1_555
O15 Si4 1.652456 1_644
O16 Si5 1.617483 1_555
O17 Si5 1.617488 1_555
O18 Si4 1.617483 1_555
O19 Si4 1.617492 1_555
