# generated using pymatgen
data_MgCo4(Te2O5)4
_symmetry_space_group_name_H-M   'P 1'
_cell_length_a   7.21797646
_cell_length_b   10.99906875
_cell_length_c   6.31252205
_cell_angle_alpha   93.50586638
_cell_angle_beta   89.91877175
_cell_angle_gamma   88.66718852
_symmetry_Int_Tables_number   1
_chemical_formula_structural   MgCo4(Te2O5)4
_chemical_formula_sum   'Mg1 Co4 Te8 O20'
_cell_volume   500.08230701
_cell_formula_units_Z   1
loop_
 _symmetry_equiv_pos_site_id
 _symmetry_equiv_pos_as_xyz
  1  'x, y, z'
loop_
 _atom_site_type_symbol
 _atom_site_label
 _atom_site_symmetry_multiplicity
 _atom_site_fract_x
 _atom_site_fract_y
 _atom_site_fract_z
 _atom_site_occupancy
  Mg  Mg0  1  0.68270057  0.61521467  0.94107549  1
  Co  Co0  1  0.01166537  0.05236942  0.23780364  1
  Co  Co1  1  0.99614831  0.93602601  0.72884677  1
  Co  Co2  1  0.49755771  0.55455134  0.32343770  1
  Co  Co3  1  0.47912020  0.42214518  0.76369593  1
  Te  Te0  1  0.12914395  0.33674303  0.47057871  1
  Te  Te1  1  0.15108437  0.67259232  0.00066637  1
  Te  Te2  1  0.37016681  0.14785298  0.94011561  1
  Te  Te3  1  0.38035429  0.85294100  0.50254536  1
  Te  Te4  1  0.63206540  0.15918472  0.47065798  1
  Te  Te5  1  0.61424020  0.88812600  0.99191986  1
  Te  Te6  1  0.86588698  0.65415845  0.50098731  1
  Te  Te7  1  0.87992475  0.34057095  0.99664204  1
  O  O0  1  0.01477133  0.42935324  0.23626300  1
  O  O1  1  0.96298456  0.58152581  0.84011154  1
  O  O2  1  0.15163243  0.05772987  0.93055053  1
  O  O3  1  0.14688062  0.92703521  0.44463166  1
  O  O4  1  0.20447516  0.19666109  0.30392821  1
  O  O5  1  0.19623709  0.79174601  0.80165978  1
  O  O6  1  0.27646118  0.29343585  0.81532777  1
  O  O7  1  0.33611493  0.70459801  0.34163763  1
  O  O8  1  0.35260084  0.42624349  0.46563726  1
  O  O9  1  0.37251842  0.57369523  0.94612852  1
  O  O10  1  0.50831334  0.94283569  0.27707891  1
  O  O11  1  0.45646748  0.07865961  0.65798275  1
  O  O12  1  0.65578741  0.43760241  0.04244415  1
  O  O13  1  0.65379154  0.57128118  0.61483842  1
  O  O14  1  0.67556180  0.28881481  0.68220960  1
  O  O15  1  0.71740114  0.66429516  0.24827311  1
  O  O16  1  0.82024193  0.20827910  0.15962471  1
  O  O17  1  0.79901841  0.80759550  0.63895612  1
  O  O18  1  0.85176952  0.07026985  0.52515771  1
  O  O19  1  0.87119896  0.92836281  0.04400187  1
loop_
_geom_bond_atom_site_label_1
_geom_bond_atom_site_label_2
_geom_bond_distance
_geom_bond_site_symmetry_2
Mg0 O15 1.998565 1_556
Mg0 O13 2.098164 1_555
Mg0 O12 2.105664 1_556
Mg0 O1 2.137512 1_555
Mg0 O9 2.295938 1_555
Co0 O19 2.061253 1_445
Co0 O18 2.144976 1_455
Co0 O4 2.157135 1_555
Co0 O3 2.172262 1_545
Co0 O2 2.190243 1_554
Co0 O16 2.255787 1_455
Co1 O17 2.083222 1_555
Co1 O3 2.092867 1_655
Co1 O2 2.130286 1_665
Co1 O19 2.190264 1_556
Co1 O5 2.190878 1_655
Co1 O18 2.254753 1_565
Co2 O7 1.995445 1_555
Co2 O8 2.028083 1_555
Co2 O15 2.087391 1_555
Co2 O13 2.159479 1_555
Co2 O12 2.398371 1_555
Co2 O9 2.567164 1_554
Co3 O14 2.057828 1_555
Co3 O8 2.095082 1_555
Co3 O9 2.097592 1_555
Co3 O6 2.097987 1_555
Co3 O12 2.175099 1_556
Co3 O13 2.333379 1_555
O0 Te0 2.013835 1_555
O0 Te7 2.014121 1_454
O1 Te1 1.953675 1_656
O1 Te6 2.428890 1_555
O1 O13 2.648905 1_555
O2 Te2 1.881506 1_555
O3 Te3 1.900537 1_555
O4 Te0 1.880816 1_555
O4 Te2 2.608512 1_554
O5 Te1 1.903162 1_556
O5 Te3 2.444232 1_555
O6 Te2 1.935836 1_555
O6 Te0 2.490654 1_555
O7 Te3 1.902203 1_555
O7 Te1 2.545141 1_555
O8 Te0 1.910236 1_555
O9 Te1 1.930834 1_556
O10 Te5 2.007279 1_554
O10 Te3 2.016737 1_555
O10 O11 2.772265 1_565
O10 Te4 2.774907 1_565
O11 Te2 1.986989 1_555
O11 Te4 1.991300 1_555
O11 Te3 2.682424 1_545
O11 O6 2.796766 1_555
O12 Te7 1.928880 1_554
O12 O9 2.600637 1_554
O13 Te6 1.957819 1_555
O14 Te4 1.924579 1_555
O14 Te7 2.519682 1_555
O15 Te6 1.930550 1_555
O16 Te7 1.890065 1_554
O16 Te4 2.479441 1_555
O17 Te6 1.902851 1_555
O17 Te5 2.687570 1_555
O18 Te4 1.886842 1_555
O18 O3 2.649650 1_645
O19 Te5 1.940636 1_554
O19 O2 2.624752 1_664
