# generated using pymatgen
data_K2GeB4O11
_symmetry_space_group_name_H-M   'P 1'
_cell_length_a   7.01303002
_cell_length_b   7.01303002
_cell_length_c   12.02950039
_cell_angle_alpha   89.28656575
_cell_angle_beta   89.28656575
_cell_angle_gamma   121.57322021
_symmetry_Int_Tables_number   1
_chemical_formula_structural   K2GeB4O11
_chemical_formula_sum   'K4 Ge2 B8 O22'
_cell_volume   503.89819520
_cell_formula_units_Z   2
loop_
 _symmetry_equiv_pos_site_id
 _symmetry_equiv_pos_as_xyz
  1  'x, y, z'
loop_
 _atom_site_type_symbol
 _atom_site_label
 _atom_site_symmetry_multiplicity
 _atom_site_fract_x
 _atom_site_fract_y
 _atom_site_fract_z
 _atom_site_occupancy
  K  K0  1  0.44019300  0.52731000  0.89070300  1
  K  K1  1  0.52731000  0.44019300  0.39070300  1
  K  K2  1  0.30847000  0.81331200  0.61879900  1
  K  K3  1  0.81331200  0.30847000  0.11879900  1
  Ge  Ge0  1  0.82331900  0.23900400  0.79542400  1
  Ge  Ge1  1  0.23900400  0.82331900  0.29542400  1
  B  B0  1  0.92199700  0.29831100  0.55812900  1
  B  B1  1  0.29831100  0.92199700  0.05812900  1
  B  B2  1  0.03449300  0.36169400  0.36004800  1
  B  B3  1  0.36169400  0.03449300  0.86004800  1
  B  B4  1  0.93043100  0.96530700  0.34576600  1
  B  B5  1  0.96530700  0.93043100  0.84576600  1
  B  B6  1  0.66204600  0.06585200  0.40924400  1
  B  B7  1  0.06585200  0.66204600  0.90924400  1
  O  O0  1  0.41918000  0.98072000  0.40299400  1
  O  O1  1  0.98072000  0.41918000  0.90299400  1
  O  O2  1  0.08685800  0.42967300  0.47985500  1
  O  O3  1  0.42967300  0.08685800  0.97985500  1
  O  O4  1  0.97605700  0.36570400  0.66841000  1
  O  O5  1  0.36570400  0.97605700  0.16841000  1
  O  O6  1  0.18017700  0.54917800  0.28320300  1
  O  O7  1  0.54917800  0.18017700  0.78320300  1
  O  O8  1  0.09412600  0.18698800  0.33751800  1
  O  O9  1  0.18698800  0.09412600  0.83751800  1
  O  O10  1  0.97515100  0.79741100  0.32296700  1
  O  O11  1  0.79741100  0.97515100  0.82296700  1
  O  O12  1  0.71190700  0.89082400  0.37682700  1
  O  O13  1  0.89082400  0.71190700  0.87682700  1
  O  O14  1  0.71775300  0.11836500  0.53104700  1
  O  O15  1  0.11836500  0.71775300  0.03104700  1
  O  O16  1  0.79660800  0.26873600  0.34159200  1
  O  O17  1  0.26873600  0.79660800  0.84159200  1
  O  O18  1  0.52306300  0.55425400  0.13699300  1
  O  O19  1  0.55425400  0.52306300  0.63699300  1
  O  O20  1  0.74287700  0.67653100  0.60643000  1
  O  O21  1  0.67653100  0.74287700  0.10643000  1
loop_
_geom_bond_atom_site_label_1
_geom_bond_atom_site_label_2
_geom_bond_distance
_geom_bond_site_symmetry_2
K0 O9 2.686864 1_555
K0 O13 2.718170 1_555
K0 O17 2.780216 1_555
K0 O1 2.899423 1_455
K0 O11 2.906922 1_555
K0 O18 3.015485 1_556
K0 O21 3.057449 1_556
K0 O19 3.149904 1_555
K0 O7 3.191440 1_555
K0 O3 3.220841 1_555
K1 O8 2.686864 1_555
K1 O12 2.718170 1_555
K1 O16 2.780216 1_555
K1 O0 2.899423 1_545
K1 O10 2.906922 1_555
K1 O19 3.015485 1_555
K1 O20 3.057449 1_555
K1 O18 3.149904 1_555
K1 O6 3.191440 1_555
K1 O2 3.220841 1_555
K2 O17 2.685823 1_555
K2 O14 2.714378 1_565
K2 O0 2.764037 1_555
K2 O4 2.810729 1_455
K2 O2 2.871535 1_555
K2 O7 3.007026 1_565
K2 O19 3.291627 1_555
K2 O20 3.565033 1_455
K3 O16 2.685823 1_555
K3 O15 2.714378 1_655
K3 O1 2.764037 1_554
K3 O5 2.810729 1_545
K3 O3 2.871535 1_554
K3 O6 3.007026 1_655
K3 O18 3.291627 1_555
K3 O21 3.565033 1_545
Ge0 O7 1.751005 1_555
Ge0 O1 1.762181 1_555
Ge0 O11 1.788287 1_545
Ge0 O4 1.788904 1_555
Ge1 O6 1.751005 1_555
Ge1 O0 1.762181 1_555
Ge1 O10 1.788287 1_455
Ge1 O5 1.788904 1_555
B0 O14 1.370897 1_555
B0 O2 1.381289 1_655
B0 O4 1.402694 1_555
B1 O15 1.370897 1_555
B1 O3 1.381289 1_564
B1 O5 1.402694 1_555
B2 O16 1.459940 1_455
B2 O6 1.471953 1_555
B2 O2 1.512021 1_555
B2 O8 1.513779 1_555
B3 O17 1.459940 1_545
B3 O7 1.471953 1_555
B3 O3 1.512021 1_555
B3 O9 1.513779 1_555
B4 O8 1.367144 1_665
B4 O12 1.379736 1_555
B4 O10 1.397350 1_555
B5 O9 1.367144 1_665
B5 O13 1.379736 1_555
B5 O11 1.397350 1_555
B6 O16 1.457150 1_555
B6 O0 1.484094 1_545
B6 O12 1.496340 1_545
B6 O14 1.520585 1_555
B7 O17 1.457150 1_555
B7 O1 1.484094 1_455
B7 O13 1.496340 1_455
B7 O15 1.520585 1_556
O18 O21 1.237151 1_555
O19 O20 1.237151 1_555
