# generated using pymatgen
data_MgV6(HO3)6
_symmetry_space_group_name_H-M   'P 1'
_cell_length_a   5.06422957
_cell_length_b   9.65656038
_cell_length_c   8.43186267
_cell_angle_alpha   89.72377339
_cell_angle_beta   103.44398666
_cell_angle_gamma   90.36497013
_symmetry_Int_Tables_number   1
_chemical_formula_structural   MgV6(HO3)6
_chemical_formula_sum   'Mg1 V6 H6 O18'
_cell_volume   401.03402852
_cell_formula_units_Z   1
loop_
 _symmetry_equiv_pos_site_id
 _symmetry_equiv_pos_as_xyz
  1  'x, y, z'
loop_
 _atom_site_type_symbol
 _atom_site_label
 _atom_site_symmetry_multiplicity
 _atom_site_fract_x
 _atom_site_fract_y
 _atom_site_fract_z
 _atom_site_occupancy
  Mg  Mg0  1  0.98274703  0.75003892  0.65214396  1
  V  V0  1  0.46824091  0.42650383  0.16227148  1
  V  V1  1  0.54072508  0.93021103  0.83889829  1
  V  V2  1  0.54055983  0.56233541  0.84430942  1
  V  V3  1  0.47300381  0.06687532  0.15640605  1
  V  V4  1  0.90112160  0.24814687  0.02816081  1
  V  V5  1  0.11806276  0.74731904  0.99062408  1
  H  H0  1  0.73800538  0.63322185  0.38681066  1
  H  H1  1  0.25385117  0.15713655  0.60623181  1
  H  H2  1  0.06483046  0.24615393  0.70678619  1
  H  H3  1  0.25838184  0.33156189  0.60606603  1
  H  H4  1  0.93616756  0.74097871  0.32553271  1
  H  H5  1  0.66286230  0.88277621  0.35276201  1
  O  O0  1  0.64351192  0.40735377  0.97807500  1
  O  O1  1  0.39722989  0.89661487  0.03105275  1
  O  O2  1  0.37763495  0.59205439  0.02870173  1
  O  O3  1  0.62480898  0.09155169  0.96627948  1
  O  O4  1  0.14453948  0.37708091  0.17032767  1
  O  O5  1  0.86929031  0.87890803  0.81956925  1
  O  O6  1  0.86544258  0.62064539  0.82138207  1
  O  O7  1  0.14609257  0.10491994  0.15575921  1
  O  O8  1  0.62622359  0.24035224  0.19788184  1
  O  O9  1  0.36139871  0.74678136  0.78762256  1
  O  O10  1  0.99684600  0.24947613  0.85173257  1
  O  O11  1  0.01035107  0.75246868  0.16084088  1
  O  O12  1  0.61508307  0.49938430  0.33861898  1
  O  O13  1  0.36532834  -0.00008762  0.66650208  1
  O  O14  1  0.37224121  0.48844082  0.67388006  1
  O  O15  1  0.62482239  0.98368498  0.34336514  1
  O  O16  1  0.14352021  0.24490785  0.59668282  1
  O  O17  1  0.83957501  0.72718174  0.41878341  1
loop_
_geom_bond_atom_site_label_1
_geom_bond_atom_site_label_2
_geom_bond_distance
_geom_bond_site_symmetry_2
Mg0 O17 1.945479 1_555
Mg0 O9 1.991202 1_655
Mg0 O5 2.067577 1_555
Mg0 O6 2.077975 1_555
H0 O17 1.045197 1_555
H0 O12 1.449189 1_555
H1 O16 1.010695 1_555
H1 O13 1.658949 1_555
H2 O16 1.092259 1_555
H2 O10 1.345152 1_455
H3 O16 1.008889 1_555
H3 O14 1.672813 1_555
H4 O17 1.025802 1_555
H4 O11 1.523938 1_655
H5 O15 0.993708 1_555
O0 V2 1.871892 1_555
O0 V0 1.969800 1_556
O0 V4 2.001748 1_556
O0 O2 2.341264 1_556
O0 O8 2.467427 1_556
O1 V3 1.946203 1_565
O1 V1 1.948808 1_554
O1 V5 1.986975 1_554
O1 O3 2.329209 1_564
O1 O9 2.488277 1_554
O2 V2 1.945318 1_554
O2 V0 1.945850 1_555
O2 V5 1.975669 1_554
O2 O9 2.503159 1_554
O3 V1 1.886080 1_545
O3 V3 1.945469 1_556
O3 V4 2.039149 1_556
O3 O8 2.428732 1_556
O4 V0 1.720810 1_555
O4 V4 1.953064 1_455
O5 V1 1.782705 1_555
O5 V5 2.107114 1_655
O5 O6 2.493882 1_555
O6 V2 1.787853 1_555
O6 V5 2.077828 1_655
O7 V3 1.696875 1_555
O7 V4 1.999096 1_455
O8 V3 1.842161 1_555
O8 V0 1.965446 1_555
O8 V4 2.217134 1_555
O9 V1 1.988337 1_555
O9 V2 2.008673 1_555
O9 V5 2.330116 1_555
O10 V4 1.668305 1_556
O11 V5 1.650762 1_554
O12 V0 1.657875 1_555
O13 V1 1.659166 1_545
O13 O9 2.646341 1_545
O14 V2 1.653301 1_555
O14 O9 2.682452 1_555
O15 V3 1.775845 1_565
