# generated using pymatgen
data_Ce2P2AuO
_symmetry_space_group_name_H-M   'P 1'
_cell_length_a   4.18258900
_cell_length_b   7.83838236
_cell_length_c   7.86074593
_cell_angle_alpha   78.11087039
_cell_angle_beta   74.57107357
_cell_angle_gamma   74.52595280
_symmetry_Int_Tables_number   1
_chemical_formula_structural   Ce2P2AuO
_chemical_formula_sum   'Ce4 P4 Au2 O2'
_cell_volume   236.87700077
_cell_formula_units_Z   2
loop_
 _symmetry_equiv_pos_site_id
 _symmetry_equiv_pos_as_xyz
  1  'x, y, z'
loop_
 _atom_site_type_symbol
 _atom_site_label
 _atom_site_symmetry_multiplicity
 _atom_site_fract_x
 _atom_site_fract_y
 _atom_site_fract_z
 _atom_site_occupancy
  Ce  Ce0  1  0.86959800  0.94939100  0.31141300  1
  Ce  Ce1  1  0.13040200  0.05060900  0.68858700  1
  Ce  Ce2  1  0.82864800  0.61247500  0.73023000  1
  Ce  Ce3  1  0.17135200  0.38752500  0.26977000  1
  P  P0  1  0.45002800  0.64573600  0.45420700  1
  P  P1  1  0.54997200  0.35426400  0.54579300  1
  P  P2  1  0.85046500  0.26384300  0.03522800  1
  P  P3  1  0.14953500  0.73615700  0.96477200  1
  Au  Au0  1  0.58711800  0.70069700  0.12506700  1
  Au  Au1  1  0.41288200  0.29930300  0.87493300  1
  O  O0  1  0.72513100  0.92284300  0.62689500  1
  O  O1  1  0.27486900  0.07715700  0.37310500  1
loop_
_geom_bond_atom_site_label_1
_geom_bond_atom_site_label_2
_geom_bond_distance
_geom_bond_site_symmetry_2
Ce0 O0 2.369721 1_555
Ce0 O1 2.377976 1_565
Ce0 O1 2.377976 1_665
Ce0 P2 2.928699 1_565
Ce0 P0 3.175630 1_655
Ce0 P0 3.175633 1_555
Ce0 P3 3.274766 1_654
Ce1 O1 2.369721 1_555
Ce1 O0 2.377976 1_545
Ce1 O0 2.377976 1_445
Ce1 P3 2.928699 1_545
Ce1 P1 3.175630 1_455
Ce1 P1 3.175633 1_555
Ce1 P2 3.274766 1_456
Ce2 O0 2.361472 1_555
Ce2 P0 2.942523 1_655
Ce2 P0 2.942529 1_555
Ce2 P3 2.981231 1_655
Ce2 P3 2.981237 1_555
Ce2 P2 3.241589 1_556
Ce2 P1 3.305147 1_655
Ce2 P1 3.305147 1_555
Ce3 O1 2.361472 1_555
Ce3 P1 2.942523 1_455
Ce3 P1 2.942529 1_555
Ce3 P2 2.981231 1_455
Ce3 P2 2.981237 1_555
Ce3 P3 3.241589 1_554
Ce3 P0 3.305147 1_455
Ce3 P0 3.305147 1_555
P0 P1 2.210329 1_555
Au0 P3 2.413710 1_654
Au0 P3 2.413713 1_554
Au0 P0 2.468117 1_555
Au0 Ce2 3.158328 1_554
Au0 Ce3 3.227782 1_655
Au0 Ce3 3.227785 1_555
Au0 Ce0 3.266195 1_455
Au0 Ce0 3.266195 1_555
Au1 P2 2.413710 1_456
Au1 P2 2.413713 1_556
Au1 P1 2.468117 1_555
Au1 Ce3 3.158328 1_556
Au1 Ce2 3.227782 1_455
Au1 Ce2 3.227785 1_555
Au1 Ce1 3.266195 1_655
Au1 Ce1 3.266195 1_555
O0 P1 3.227524 1_565
O1 P0 3.227524 1_545
