# generated using pymatgen
data_NaCu3PbSe4
_symmetry_space_group_name_H-M   'P 1'
_cell_length_a   6.14472200
_cell_length_b   6.14472200
_cell_length_c   6.14472200
_cell_angle_alpha   90.00000000
_cell_angle_beta   90.00000000
_cell_angle_gamma   90.00000000
_symmetry_Int_Tables_number   1
_chemical_formula_structural   NaCu3PbSe4
_chemical_formula_sum   'Na1 Cu3 Pb1 Se4'
_cell_volume   232.01000735
_cell_formula_units_Z   1
loop_
 _symmetry_equiv_pos_site_id
 _symmetry_equiv_pos_as_xyz
  1  'x, y, z'
loop_
 _atom_site_type_symbol
 _atom_site_label
 _atom_site_symmetry_multiplicity
 _atom_site_fract_x
 _atom_site_fract_y
 _atom_site_fract_z
 _atom_site_occupancy
  Na  Na0  1  0.50000000  0.50000000  0.50000000  1
  Cu  Cu0  1  0.00000000  0.50000000  0.00000000  1
  Cu  Cu1  1  0.00000000  0.00000000  0.50000000  1
  Cu  Cu2  1  0.50000000  0.00000000  0.00000000  1
  Pb  Pb0  1  0.00000000  0.00000000  0.00000000  1
  Se  Se0  1  0.24636000  0.24636000  0.24636000  1
  Se  Se1  1  0.75364000  0.75364000  0.24636000  1
  Se  Se2  1  0.24636000  0.75364000  0.75364000  1
  Se  Se3  1  0.75364000  0.24636000  0.75364000  1
loop_
_geom_bond_atom_site_label_1
_geom_bond_atom_site_label_2
_geom_bond_distance
_geom_bond_site_symmetry_2
Na0 Se0 2.699483 1_555
Na0 Se3 2.699483 1_555
Na0 Se2 2.699483 1_555
Na0 Se1 2.699483 1_555
Cu0 Se3 2.648081 1_454
Cu0 Se1 2.648081 1_455
Cu0 Se2 2.648081 1_554
Cu0 Se0 2.648081 1_555
Cu0 Pb0 3.072361 1_555
Cu0 Pb0 3.072361 1_565
Cu1 Se1 2.648081 1_445
Cu1 Se3 2.648081 1_455
Cu1 Se2 2.648081 1_545
Cu1 Se0 2.648081 1_555
Cu1 Pb0 3.072361 1_555
Cu1 Pb0 3.072361 1_556
Cu2 Se2 2.648081 1_544
Cu2 Se0 2.648081 1_555
Cu2 Se3 2.648081 1_554
Cu2 Se1 2.648081 1_545
Cu2 Pb0 3.072361 1_555
Cu2 Pb0 3.072361 1_655
Pb0 Se1 2.622002 1_445
Pb0 Se2 2.622002 1_544
Pb0 Se3 2.622002 1_454
Pb0 Se0 2.622002 1_555
