# generated using pymatgen
data_Cr3(NO5)2
_symmetry_space_group_name_H-M   'P 1'
_cell_length_a   12.61904428
_cell_length_b   12.61904428
_cell_length_c   13.40314900
_cell_angle_alpha   90.00000000
_cell_angle_beta   90.00000000
_cell_angle_gamma   120.00000147
_symmetry_Int_Tables_number   1
_chemical_formula_structural   Cr3(NO5)2
_chemical_formula_sum   'Cr18 N12 O60'
_cell_volume   1848.37633465
_cell_formula_units_Z   6
loop_
 _symmetry_equiv_pos_site_id
 _symmetry_equiv_pos_as_xyz
  1  'x, y, z'
loop_
 _atom_site_type_symbol
 _atom_site_label
 _atom_site_symmetry_multiplicity
 _atom_site_fract_x
 _atom_site_fract_y
 _atom_site_fract_z
 _atom_site_occupancy
  Cr  Cr0  1  0.94905200  0.63132500  0.57688100  1
  Cr  Cr1  1  0.36867500  0.31772700  0.57688100  1
  Cr  Cr2  1  0.68227300  0.05094800  0.57688100  1
  Cr  Cr3  1  0.05094800  0.36867500  0.07688100  1
  Cr  Cr4  1  0.63132500  0.68227300  0.07688100  1
  Cr  Cr5  1  0.31772700  0.94905200  0.07688100  1
  Cr  Cr6  1  0.05094800  0.36867500  0.42311900  1
  Cr  Cr7  1  0.63132500  0.68227300  0.42311900  1
  Cr  Cr8  1  0.31772700  0.94905200  0.42311900  1
  Cr  Cr9  1  0.94905200  0.63132500  0.92311900  1
  Cr  Cr10  1  0.36867500  0.31772700  0.92311900  1
  Cr  Cr11  1  0.68227300  0.05094800  0.92311900  1
  Cr  Cr12  1  0.15972300  0.76119100  0.75000000  1
  Cr  Cr13  1  0.23880900  0.39853200  0.75000000  1
  Cr  Cr14  1  0.60146800  0.84027700  0.75000000  1
  Cr  Cr15  1  0.84027700  0.23880900  0.25000000  1
  Cr  Cr16  1  0.76119100  0.60146800  0.25000000  1
  Cr  Cr17  1  0.39853200  0.15972300  0.25000000  1
  N  N0  1  0.67111000  0.57250600  0.75000000  1
  N  N1  1  0.42749400  0.09860400  0.75000000  1
  N  N2  1  0.90139600  0.32889000  0.75000000  1
  N  N3  1  0.32889000  0.42749400  0.25000000  1
  N  N4  1  0.57250600  0.90139600  0.25000000  1
  N  N5  1  0.09860400  0.67111000  0.25000000  1
  N  N6  1  0.66666700  0.33333300  0.44716800  1
  N  N7  1  0.33333300  0.66666700  0.94716800  1
  N  N8  1  0.33333300  0.66666700  0.55283200  1
  N  N9  1  0.66666700  0.33333300  0.05283200  1
  N  N10  1  0.00000000  0.00000000  0.50000000  1
  N  N11  1  0.00000000  0.00000000  0.00000000  1
  O  O0  1  0.90922100  0.73532400  0.58783400  1
  O  O1  1  0.26467600  0.17389700  0.58783400  1
  O  O2  1  0.82610300  0.09077900  0.58783400  1
  O  O3  1  0.09077900  0.26467600  0.08783400  1
  O  O4  1  0.73532400  0.82610300  0.08783400  1
  O  O5  1  0.17389700  0.90922100  0.08783400  1
  O  O6  1  0.09077900  0.26467600  0.41216600  1
  O  O7  1  0.73532400  0.82610300  0.41216600  1
  O  O8  1  0.17389700  0.90922100  0.41216600  1
  O  O9  1  0.90922100  0.73532400  0.91216600  1
  O  O10  1  0.26467600  0.17389700  0.91216600  1
  O  O11  1  0.82610300  0.09077900  0.91216600  1
  O  O12  1  0.83735700  0.50293700  0.62123100  1
  O  O13  1  0.49706300  0.33441900  0.62123100  1
  O  O14  1  0.66558100  0.16264300  0.62123100  1
  O  O15  1  0.16264300  0.49706300  0.12123100  1
  O  O16  1  0.50293700  0.66558100  0.12123100  1
  O  O17  1  0.33441900  0.83735700  0.12123100  1
  O  O18  1  0.16264300  0.49706300  0.37876900  1
  O  O19  1  0.50293700  0.66558100  0.37876900  1
  O  O20  1  0.33441900  0.83735700  0.37876900  1
  O  O21  1  0.83735700  0.50293700  0.87876900  1
  O  O22  1  0.49706300  0.33441900  0.87876900  1
  O  O23  1  0.66558100  0.16264300  0.87876900  1
  O  O24  1  0.96149700  0.60959100  0.45758600  1
  O  O25  1  0.39040900  0.35190700  0.45758600  1
  O  O26  1  0.64809300  0.03850300  0.45758600  1
  O  O27  1  0.03850300  0.39040900  0.95758600  1
  O  O28  1  0.60959100  0.64809300  0.95758600  1
  O  O29  1  0.35190700  0.96149700  0.95758600  1
  O  O30  1  0.03850300  0.39040900  0.54241400  1
  O  O31  1  0.60959100  0.64809300  0.54241400  1
  O  O32  1  0.35190700  0.96149700  0.54241400  1
  O  O33  1  0.96149700  0.60959100  0.04241400  1
  O  O34  1  0.39040900  0.35190700  0.04241400  1
  O  O35  1  0.64809300  0.03850300  0.04241400  1
  O  O36  1  0.08786000  0.67339000  0.64184400  1
  O  O37  1  0.32661000  0.41447000  0.64184400  1
  O  O38  1  0.58553000  0.91214000  0.64184400  1
  O  O39  1  0.91214000  0.32661000  0.14184400  1
  O  O40  1  0.67339000  0.58553000  0.14184400  1
  O  O41  1  0.41447000  0.08786000  0.14184400  1
  O  O42  1  0.91214000  0.32661000  0.35815600  1
  O  O43  1  0.67339000  0.58553000  0.35815600  1
  O  O44  1  0.41447000  0.08786000  0.35815600  1
  O  O45  1  0.08786000  0.67339000  0.85815600  1
  O  O46  1  0.32661000  0.41447000  0.85815600  1
  O  O47  1  0.58553000  0.91214000  0.85815600  1
  O  O48  1  0.14464400  0.87917400  0.75000000  1
  O  O49  1  0.12082600  0.26547000  0.75000000  1
  O  O50  1  0.73453000  0.85535600  0.75000000  1
  O  O51  1  0.85535600  0.12082600  0.25000000  1
  O  O52  1  0.87917400  0.73453000  0.25000000  1
  O  O53  1  0.26547000  0.14464400  0.25000000  1
  O  O54  1  0.30086300  0.80036100  0.75000000  1
  O  O55  1  0.19963900  0.50050200  0.75000000  1
  O  O56  1  0.49949800  0.69913700  0.75000000  1
  O  O57  1  0.69913700  0.19963900  0.25000000  1
  O  O58  1  0.80036100  0.49949800  0.25000000  1
  O  O59  1  0.50050200  0.30086300  0.25000000  1
loop_
_geom_bond_atom_site_label_1
_geom_bond_atom_site_label_2
_geom_bond_distance
_geom_bond_site_symmetry_2
Cr0 O0 1.629764 1_555
Cr0 O12 1.637459 1_555
Cr0 O24 1.643024 1_555
Cr0 O36 1.782777 1_655
Cr1 O1 1.629764 1_555
Cr1 O13 1.637464 1_555
Cr1 O25 1.643026 1_555
Cr1 O37 1.782777 1_555
Cr2 O2 1.629764 1_555
Cr2 O14 1.637452 1_555
Cr2 O26 1.643026 1_555
Cr2 O38 1.782777 1_545
Cr3 O3 1.629764 1_555
Cr3 O15 1.637459 1_555
Cr3 O27 1.643024 1_554
Cr3 O39 1.782777 1_455
Cr4 O4 1.629764 1_555
Cr4 O16 1.637464 1_555
Cr4 O28 1.643026 1_554
Cr4 O40 1.782777 1_555
Cr5 O5 1.629764 1_555
Cr5 O17 1.637452 1_555
Cr5 O29 1.643026 1_554
Cr5 O41 1.782777 1_565
Cr6 O6 1.629764 1_555
Cr6 O18 1.637459 1_555
Cr6 O30 1.643024 1_555
Cr6 O42 1.782777 1_455
Cr7 O7 1.629764 1_555
Cr7 O19 1.637464 1_555
Cr7 O31 1.643026 1_555
Cr7 O43 1.782777 1_555
Cr8 O8 1.629764 1_555
Cr8 O20 1.637452 1_555
Cr8 O32 1.643026 1_555
Cr8 O44 1.782777 1_565
Cr9 O9 1.629764 1_555
Cr9 O21 1.637459 1_555
Cr9 O33 1.643024 1_556
Cr9 O45 1.782777 1_655
Cr10 O10 1.629764 1_555
Cr10 O22 1.637464 1_555
Cr10 O34 1.643026 1_556
Cr10 O46 1.782777 1_555
Cr11 O11 1.629764 1_555
Cr11 O23 1.637452 1_555
Cr11 O35 1.643026 1_556
Cr11 O47 1.782777 1_545
Cr12 O54 1.592518 1_555
Cr12 O48 1.592523 1_555
Cr12 O45 1.773874 1_555
Cr12 O36 1.773874 1_555
Cr13 O55 1.592518 1_555
Cr13 O49 1.592523 1_555
Cr13 O46 1.773874 1_555
Cr13 O37 1.773874 1_555
Cr14 O56 1.592518 1_555
Cr14 O50 1.592523 1_555
Cr14 O47 1.773874 1_555
Cr14 O38 1.773874 1_555
Cr15 O57 1.592518 1_555
Cr15 O51 1.592523 1_555
Cr15 O42 1.773874 1_555
Cr15 O39 1.773874 1_555
Cr16 O58 1.592518 1_555
Cr16 O52 1.592523 1_555
Cr16 O43 1.773874 1_555
Cr16 O40 1.773874 1_555
Cr17 O59 1.592518 1_555
Cr17 O53 1.592523 1_555
Cr17 O44 1.773874 1_555
Cr17 O41 1.773874 1_555
N0 O21 3.161056 1_555
N0 O12 3.161056 1_555
N0 O28 3.161354 1_555
N0 O31 3.161354 1_555
N0 O22 3.198512 1_555
N0 O13 3.198512 1_555
N0 O50 3.244049 1_555
N0 O56 3.271656 1_555
N0 O9 3.435192 1_555
N0 O0 3.435192 1_555
N1 O22 3.161045 1_555
N1 O13 3.161045 1_555
N1 O29 3.161359 1_545
N1 O32 3.161359 1_545
N1 O23 3.198515 1_555
N1 O14 3.198515 1_555
N1 O48 3.244049 1_545
N1 O54 3.271656 1_545
N1 O10 3.435192 1_555
N1 O1 3.435192 1_555
N2 O23 3.161048 1_555
N2 O14 3.161048 1_555
N2 O27 3.161360 1_655
N2 O30 3.161360 1_655
N2 O21 3.198505 1_555
N2 O12 3.198505 1_555
N2 O49 3.244049 1_655
N2 O55 3.271656 1_655
N2 O11 3.435192 1_555
N2 O2 3.435192 1_555
N3 O18 3.161056 1_555
N3 O15 3.161056 1_555
N3 O34 3.161354 1_555
N3 O25 3.161354 1_555
N3 O19 3.198512 1_555
N3 O16 3.198512 1_555
N3 O53 3.244049 1_555
N3 O59 3.271656 1_555
N3 O3 3.435192 1_555
N3 O6 3.435192 1_555
N4 O19 3.161045 1_555
N4 O16 3.161045 1_555
N4 O35 3.161359 1_565
N4 O26 3.161359 1_565
N4 O20 3.198515 1_555
N4 O17 3.198515 1_555
N4 O51 3.244049 1_565
N4 O57 3.271656 1_565
N4 O7 3.435192 1_555
N4 O4 3.435192 1_555
N5 O20 3.161048 1_555
N5 O17 3.161048 1_555
N5 O24 3.161360 1_455
N5 O33 3.161360 1_455
N5 O18 3.198505 1_555
N5 O15 3.198505 1_555
N5 O52 3.244049 1_455
N5 O58 3.271656 1_455
N5 O8 3.435192 1_555
N5 O5 3.435192 1_555
N6 O12 3.170647 1_555
N6 O14 3.170647 1_555
N6 O13 3.170647 1_555
N6 O57 3.269426 1_555
N6 O58 3.269431 1_555
N6 O59 3.269433 1_555
N6 O42 3.359863 1_555
N6 O44 3.359869 1_555
N6 O43 3.359875 1_555
N6 O26 3.611693 1_555
N6 O24 3.611704 1_555
N6 O25 3.611718 1_555
N7 O15 3.170647 1_556
N7 O17 3.170647 1_556
N7 O16 3.170647 1_556
N7 O54 3.269426 1_555
N7 O55 3.269431 1_555
N7 O56 3.269433 1_555
N7 O45 3.359863 1_555
N7 O47 3.359869 1_555
N7 O46 3.359875 1_555
N7 O29 3.611693 1_555
N7 O27 3.611704 1_555
N7 O28 3.611718 1_555
N8 O18 3.170647 1_555
N8 O20 3.170647 1_555
N8 O19 3.170647 1_555
N8 O54 3.269426 1_555
N8 O55 3.269431 1_555
N8 O56 3.269433 1_555
N8 O36 3.359863 1_555
N8 O38 3.359869 1_555
N8 O37 3.359875 1_555
N8 O32 3.611693 1_555
N8 O30 3.611704 1_555
N8 O31 3.611718 1_555
N9 O21 3.170647 1_554
N9 O23 3.170647 1_554
N9 O22 3.170647 1_554
N9 O57 3.269426 1_555
N9 O58 3.269431 1_555
N9 O59 3.269433 1_555
N9 O39 3.359863 1_555
N9 O41 3.359869 1_555
N9 O40 3.359875 1_555
N9 O35 3.611693 1_555
N9 O33 3.611704 1_555
N9 O34 3.611718 1_555
N10 O1 3.166614 1_555
N10 O7 3.166614 1_445
N10 O6 3.166614 1_555
N10 O0 3.166614 1_445
N10 O8 3.166614 1_545
N10 O2 3.166614 1_455
N11 O10 3.166614 1_554
N11 O4 3.166614 1_445
N11 O3 3.166614 1_555
N11 O9 3.166614 1_444
N11 O5 3.166614 1_545
N11 O11 3.166614 1_454
