# generated using pymatgen
data_U5As3Se2
_symmetry_space_group_name_H-M   'P 1'
_cell_length_a   8.61993649
_cell_length_b   8.61993649
_cell_length_c   8.61993649
_cell_angle_alpha   99.57817729
_cell_angle_beta   99.57817729
_cell_angle_gamma   131.85237315
_symmetry_Int_Tables_number   1
_chemical_formula_structural   U5As3Se2
_chemical_formula_sum   'U10 As6 Se4'
_cell_volume   435.58330091
_cell_formula_units_Z   2
loop_
 _symmetry_equiv_pos_site_id
 _symmetry_equiv_pos_as_xyz
  1  'x, y, z'
loop_
 _atom_site_type_symbol
 _atom_site_label
 _atom_site_symmetry_multiplicity
 _atom_site_fract_x
 _atom_site_fract_y
 _atom_site_fract_z
 _atom_site_occupancy
  U  U0  1  0.84832000  0.94798500  0.29850900  1
  U  U1  1  0.75000000  0.25000000  0.50000000  1
  U  U2  1  0.45018900  0.15168000  0.09966500  1
  U  U3  1  0.64947600  0.54981100  0.70149100  1
  U  U4  1  0.54981100  0.84832000  0.90033500  1
  U  U5  1  0.35052400  0.45018900  0.29850900  1
  U  U6  1  0.25000000  0.75000000  0.50000000  1
  U  U7  1  0.15168000  0.05201500  0.70149100  1
  U  U8  1  0.05201500  0.35052400  0.90033500  1
  U  U9  1  0.94798500  0.64947600  0.09966500  1
  As  As0  1  0.40008500  0.80012900  0.20021400  1
  As  As1  1  0.80012900  0.59991500  0.40004400  1
  As  As2  1  0.59991500  0.19987100  0.79978600  1
  As  As3  1  0.50000000  0.50000000  0.00000000  1
  As  As4  1  0.19987100  0.40008500  0.59995600  1
  As  As5  1  0.00000000  0.00000000  0.00000000  1
  Se  Se0  1  0.69999200  0.90000800  0.60000000  1
  Se  Se1  1  0.90000800  0.30000800  0.20001700  1
  Se  Se2  1  0.30000800  0.09999200  0.40000000  1
  Se  Se3  1  0.09999200  0.69999200  0.79998300  1
loop_
_geom_bond_atom_site_label_1
_geom_bond_atom_site_label_2
_geom_bond_distance
_geom_bond_site_symmetry_2
U0 U5 3.500687 1_555
U0 U4 3.502730 1_554
U0 U9 3.502730 1_555
U0 U1 3.527279 1_565
U0 U5 3.531685 1_665
U0 U7 3.538351 1_665
U1 U6 3.516186 1_655
U1 U6 3.516186 1_545
U1 U8 3.527279 1_655
U1 U3 3.527279 1_555
U1 U2 3.527279 1_555
U2 U9 3.500687 1_555
U2 U7 3.502730 1_554
U2 U5 3.502730 1_555
U2 U9 3.531685 1_445
U2 U4 3.538351 1_544
U3 U7 3.500687 1_555
U3 U9 3.502730 1_556
U3 U4 3.502730 1_555
U3 U7 3.531685 1_665
U3 U5 3.538351 1_555
U4 U8 3.500687 1_555
U4 U6 3.527279 1_555
U4 U8 3.531685 1_665
U5 U8 3.502730 1_554
U5 U6 3.527279 1_555
U6 U7 3.527279 1_565
U6 U9 3.527279 1_455
U7 U8 3.502730 1_555
U8 U9 3.538351 1_456
As0 U5 3.041517 1_555
As0 U0 3.041517 1_555
As0 U8 3.045052 1_554
As0 U4 3.045052 1_554
As0 U6 3.045713 1_555
As0 U1 3.045713 1_565
As0 U9 3.061519 1_455
As0 U2 3.061519 1_565
As0 Se1 3.516183 1_565
As0 Se1 3.516190 1_455
As0 Se0 3.518244 1_555
As0 Se2 3.518476 1_565
As0 As3 3.520715 1_555
As0 Se3 3.521123 1_554
As1 U2 3.041517 1_555
As1 U9 3.041517 1_555
As1 U0 3.045052 1_555
As1 U5 3.045052 1_555
As1 U6 3.045713 1_655
As1 U1 3.045713 1_555
As1 U7 3.061519 1_665
As1 U3 3.061519 1_555
As1 Se2 3.516186 1_665
As1 Se2 3.516186 1_555
As1 Se1 3.518240 1_555
As1 Se3 3.518469 1_655
As1 As3 3.520715 1_555
As1 Se0 3.521116 1_555
As2 U3 3.041517 1_555
As2 U7 3.041517 1_555
As2 U9 3.045052 1_556
As2 U2 3.045052 1_556
As2 U1 3.045713 1_555
As2 U6 3.045713 1_545
As2 U4 3.061519 1_545
As2 U8 3.061519 1_655
As2 Se3 3.516183 1_545
As2 Se3 3.516190 1_655
As2 Se2 3.518244 1_555
As2 Se0 3.518476 1_545
As2 As3 3.520715 1_556
As2 Se1 3.521123 1_556
As3 U5 3.032863 1_555
As3 U0 3.032863 1_555
As3 U2 3.032863 1_555
As3 U3 3.032863 1_554
As3 U8 3.032863 1_554
As3 U7 3.032863 1_554
As3 U9 3.032863 1_555
As3 U4 3.032863 1_554
As3 As5 3.516186 1_555
As3 As5 3.516186 1_665
As3 As4 3.520715 1_554
As4 U8 3.041517 1_555
As4 U4 3.041517 1_555
As4 U3 3.045052 1_555
As4 U7 3.045052 1_555
As4 U6 3.045713 1_555
As4 U1 3.045713 1_455
As4 U0 3.061519 1_445
As4 U5 3.061519 1_555
As4 Se0 3.516186 1_555
As4 Se0 3.516186 1_445
As4 Se3 3.518240 1_555
As4 Se1 3.518469 1_455
As4 Se2 3.521116 1_555
As5 U0 3.041835 1_445
As5 U5 3.041835 1_555
As5 U7 3.041835 1_554
As5 U2 3.041835 1_555
As5 U8 3.041835 1_554
As5 U9 3.041835 1_445
As5 U3 3.041835 1_444
As5 U4 3.041835 1_444
As5 Se0 3.519708 1_444
As5 Se2 3.519708 1_555
As5 Se3 3.519712 1_544
As5 Se1 3.519712 1_455
Se0 U6 3.047010 1_555
Se0 U1 3.047010 1_565
Se0 U4 3.050591 1_555
Se0 U8 3.050591 1_665
Se0 U5 3.052471 1_555
Se0 U0 3.052471 1_555
Se0 U3 3.052693 1_555
Se0 U7 3.052693 1_665
Se1 U1 3.047002 1_555
Se1 U6 3.047006 1_655
Se1 U0 3.050587 1_545
Se1 U5 3.050591 1_655
Se1 U2 3.052471 1_555
Se1 U9 3.052475 1_555
Se1 U4 3.052697 1_544
Se1 U8 3.052701 1_654
Se2 U6 3.047010 1_545
Se2 U1 3.047010 1_555
Se2 U9 3.050591 1_445
Se2 U2 3.050591 1_555
Se2 U3 3.052471 1_555
Se2 U7 3.052471 1_555
Se2 U0 3.052693 1_445
Se2 U5 3.052693 1_555
Se3 U6 3.047002 1_555
Se3 U1 3.047006 1_455
Se3 U7 3.050587 1_565
Se3 U3 3.050591 1_455
Se3 U4 3.052471 1_555
Se3 U8 3.052475 1_555
Se3 U2 3.052697 1_566
Se3 U9 3.052701 1_456
