# generated using pymatgen
data_Fe4Te3N2
_symmetry_space_group_name_H-M   'P 1'
_cell_length_a   6.17904400
_cell_length_b   10.51591700
_cell_length_c   9.10105000
_cell_angle_alpha   90.00000000
_cell_angle_beta   90.00000000
_cell_angle_gamma   90.00000000
_symmetry_Int_Tables_number   1
_chemical_formula_structural   Fe4Te3N2
_chemical_formula_sum   'Fe16 Te12 N8'
_cell_volume   591.37088320
_cell_formula_units_Z   4
loop_
 _symmetry_equiv_pos_site_id
 _symmetry_equiv_pos_as_xyz
  1  'x, y, z'
loop_
 _atom_site_type_symbol
 _atom_site_label
 _atom_site_symmetry_multiplicity
 _atom_site_fract_x
 _atom_site_fract_y
 _atom_site_fract_z
 _atom_site_occupancy
  Fe  Fe0  1  0.65698000  0.25000000  0.95099400  1
  Fe  Fe1  1  0.15698000  0.25000000  0.54900600  1
  Fe  Fe2  1  0.34302000  0.75000000  0.04900600  1
  Fe  Fe3  1  0.84302000  0.75000000  0.45099400  1
  Fe  Fe4  1  0.80581300  0.25000000  0.42434800  1
  Fe  Fe5  1  0.30581300  0.25000000  0.07565200  1
  Fe  Fe6  1  0.19418700  0.75000000  0.57565200  1
  Fe  Fe7  1  0.69418700  0.75000000  0.92434800  1
  Fe  Fe8  1  0.68318700  0.48705400  0.05846600  1
  Fe  Fe9  1  0.18318700  0.01294600  0.44153400  1
  Fe  Fe10  1  0.31681300  0.98705400  0.94153400  1
  Fe  Fe11  1  0.81681300  0.51294600  0.55846600  1
  Fe  Fe12  1  0.31681300  0.51294600  0.94153400  1
  Fe  Fe13  1  0.81681300  0.98705400  0.55846600  1
  Fe  Fe14  1  0.68318700  0.01294600  0.05846600  1
  Fe  Fe15  1  0.18318700  0.48705400  0.44153400  1
  Te  Te0  1  0.90802500  0.25000000  0.16149000  1
  Te  Te1  1  0.40802500  0.25000000  0.33851000  1
  Te  Te2  1  0.09197500  0.75000000  0.83851000  1
  Te  Te3  1  0.59197500  0.75000000  0.66149000  1
  Te  Te4  1  0.57312400  0.56704700  0.33102100  1
  Te  Te5  1  0.07312400  0.93295300  0.16897900  1
  Te  Te6  1  0.42687600  0.06704700  0.66897900  1
  Te  Te7  1  0.92687600  0.43295300  0.83102100  1
  Te  Te8  1  0.42687600  0.43295300  0.66897900  1
  Te  Te9  1  0.92687600  0.06704700  0.83102100  1
  Te  Te10  1  0.57312400  0.93295300  0.33102100  1
  Te  Te11  1  0.07312400  0.56704700  0.16897900  1
  N  N0  1  0.53778000  0.62333700  0.98914900  1
  N  N1  1  0.03778000  0.87666300  0.51085100  1
  N  N2  1  0.46222000  0.12333700  0.01085100  1
  N  N3  1  0.96222000  0.37666300  0.48914900  1
  N  N4  1  0.46222000  0.37666300  0.01085100  1
  N  N5  1  0.96222000  0.12333700  0.48914900  1
  N  N6  1  0.53778000  0.87666300  0.98914900  1
  N  N7  1  0.03778000  0.62333700  0.51085100  1
loop_
_geom_bond_atom_site_label_1
_geom_bond_atom_site_label_2
_geom_bond_distance
_geom_bond_site_symmetry_2
Fe0 N4 1.875946 1_556
Fe0 N2 1.875946 1_556
Fe0 Te0 2.465019 1_556
Fe0 Te7 2.770358 1_555
Fe0 Te9 2.770358 1_555
Fe0 Te8 3.508653 1_555
Fe0 Te6 3.508653 1_555
Fe1 N3 1.875946 1_455
Fe1 N5 1.875946 1_455
Fe1 Te1 2.465019 1_555
Fe1 Te8 2.770358 1_555
Fe1 Te6 2.770358 1_555
Fe1 Te7 3.508653 1_455
Fe1 Te9 3.508653 1_455
Fe2 N6 1.875946 1_554
Fe2 N0 1.875946 1_554
Fe2 Te2 2.465019 1_554
Fe2 Te5 2.770358 1_555
Fe2 Te11 2.770358 1_555
Fe2 Te10 3.508653 1_555
Fe2 Te4 3.508653 1_555
Fe3 N1 1.875946 1_655
Fe3 N7 1.875946 1_655
Fe3 Te3 2.465019 1_555
Fe3 Te10 2.770358 1_555
Fe3 Te4 2.770358 1_555
Fe3 Te5 3.508653 1_655
Fe3 Te11 3.508653 1_655
Fe4 N3 1.748140 1_555
Fe4 N5 1.748140 1_555
Fe4 Te0 2.474248 1_555
Fe4 Te1 2.579111 1_555
Fe5 N4 1.748140 1_555
Fe5 N2 1.748140 1_555
Fe5 Te1 2.474248 1_555
Fe5 Te0 2.579111 1_455
Fe6 N1 1.748140 1_555
Fe6 N7 1.748140 1_555
Fe6 Te2 2.474248 1_555
Fe6 Te3 2.579111 1_555
Fe7 N6 1.748140 1_555
Fe7 N0 1.748140 1_555
Fe7 Te3 2.474248 1_555
Fe7 Te2 2.579111 1_655
Fe8 N0 1.805307 1_554
Fe8 N4 1.843804 1_555
Fe8 Te7 2.622185 1_554
Fe8 Te4 2.706140 1_555
Fe8 Te11 2.743102 1_655
Fe8 Te0 3.003915 1_555
Fe9 N1 1.805307 1_545
Fe9 N5 1.843804 1_455
Fe9 Te6 2.622185 1_555
Fe9 Te5 2.706140 1_545
Fe9 Te10 2.743102 1_545
Fe9 Te1 3.003915 1_555
Fe10 N2 1.805307 1_566
Fe10 N6 1.843804 1_555
Fe10 Te5 2.622185 1_556
Fe10 Te6 2.706140 1_565
Fe10 Te9 2.743102 1_465
Fe10 Te2 3.003915 1_555
Fe11 N3 1.805307 1_555
Fe11 N7 1.843804 1_655
Fe11 Te4 2.622185 1_555
Fe11 Te7 2.706140 1_555
Fe11 Te8 2.743102 1_555
Fe11 Te3 3.003915 1_555
Fe12 N4 1.805307 1_556
Fe12 N0 1.843804 1_555
Fe12 Te11 2.622185 1_556
Fe12 Te8 2.706140 1_555
Fe12 Te7 2.743102 1_455
Fe12 Te2 3.003915 1_555
Fe13 N5 1.805307 1_565
Fe13 N1 1.843804 1_655
Fe13 Te10 2.622185 1_555
Fe13 Te9 2.706140 1_565
Fe13 Te6 2.743102 1_565
Fe13 Te3 3.003915 1_555
Fe14 N6 1.805307 1_544
Fe14 N2 1.843804 1_555
Fe14 Te9 2.622185 1_554
Fe14 Te10 2.706140 1_545
Fe14 Te5 2.743102 1_645
Fe14 Te0 3.003915 1_555
Fe15 N7 1.805307 1_555
Fe15 N3 1.843804 1_455
Fe15 Te8 2.622185 1_555
Fe15 Te11 2.706140 1_555
Fe15 Te4 2.743102 1_555
Fe15 Te1 3.003915 1_555
Te0 Te11 3.487289 1_655
Te0 Te5 3.487289 1_645
Te1 Te4 3.487289 1_555
Te1 Te10 3.487289 1_545
Te2 Te7 3.487289 1_455
Te2 Te9 3.487289 1_465
Te3 Te8 3.487289 1_555
Te3 Te6 3.487289 1_565
Te6 Te9 3.423454 1_555
Te6 Te9 3.423454 1_455
Te7 Te8 3.423454 1_555
Te7 Te8 3.423454 1_655
Te10 Te5 3.423454 1_655
Te10 Te5 3.423454 1_555
Te11 Te4 3.423454 1_455
Te11 Te4 3.423454 1_555
N0 Te4 3.174722 1_556
N1 Te5 3.174722 1_555
N2 Te6 3.174722 1_554
N3 Te7 3.174722 1_555
N4 Te8 3.174722 1_554
N5 Te9 3.174722 1_555
N6 Te10 3.174722 1_556
N7 Te11 3.174722 1_555
