# generated using pymatgen
data_BeCo2Ge
_symmetry_space_group_name_H-M   'P 1'
_cell_length_a   5.60029600
_cell_length_b   5.60029600
_cell_length_c   10.67330400
_cell_angle_alpha   90.00000000
_cell_angle_beta   90.00000000
_cell_angle_gamma   90.00000000
_symmetry_Int_Tables_number   1
_chemical_formula_structural   BeCo2Ge
_chemical_formula_sum   'Be8 Co16 Ge8'
_cell_volume   334.75019851
_cell_formula_units_Z   8
loop_
 _symmetry_equiv_pos_site_id
 _symmetry_equiv_pos_as_xyz
  1  'x, y, z'
loop_
 _atom_site_type_symbol
 _atom_site_label
 _atom_site_symmetry_multiplicity
 _atom_site_fract_x
 _atom_site_fract_y
 _atom_site_fract_z
 _atom_site_occupancy
  Be  Be0_0  1  0.00000000  0.00000000  0.00000000  1
  Be  Be0_1  1  0.00000000  0.00000000  0.50000000  1
  Be  Be0_2  1  0.00000000  0.50000000  0.00000000  1
  Be  Be0_3  1  0.00000000  0.50000000  0.50000000  1
  Be  Be0_4  1  0.50000000  0.00000000  0.00000000  1
  Be  Be0_5  1  0.50000000  0.00000000  0.50000000  1
  Be  Be0_6  1  0.50000000  0.50000000  0.00000000  1
  Be  Be0_7  1  0.50000000  0.50000000  0.50000000  1
  Co  Co0_0  1  0.25000000  0.25000000  0.11849650  1
  Co  Co0_1  1  0.25000000  0.25000000  0.61849650  1
  Co  Co0_2  1  0.25000000  0.75000000  0.11849650  1
  Co  Co0_3  1  0.25000000  0.75000000  0.61849650  1
  Co  Co0_4  1  0.75000000  0.25000000  0.11849650  1
  Co  Co0_5  1  0.75000000  0.25000000  0.61849650  1
  Co  Co0_6  1  0.75000000  0.75000000  0.11849650  1
  Co  Co0_7  1  0.75000000  0.75000000  0.61849650  1
  Co  Co1_0  1  0.25000000  0.25000000  0.38150350  1
  Co  Co1_1  1  0.25000000  0.25000000  0.88150350  1
  Co  Co1_2  1  0.25000000  0.75000000  0.38150350  1
  Co  Co1_3  1  0.25000000  0.75000000  0.88150350  1
  Co  Co1_4  1  0.75000000  0.25000000  0.38150350  1
  Co  Co1_5  1  0.75000000  0.25000000  0.88150350  1
  Co  Co1_6  1  0.75000000  0.75000000  0.38150350  1
  Co  Co1_7  1  0.75000000  0.75000000  0.88150350  1
  Ge  Ge0_0  1  0.00000000  0.00000000  0.25000000  1
  Ge  Ge0_1  1  0.00000000  0.00000000  0.75000000  1
  Ge  Ge0_2  1  0.00000000  0.50000000  0.25000000  1
  Ge  Ge0_3  1  0.00000000  0.50000000  0.75000000  1
  Ge  Ge0_4  1  0.50000000  0.00000000  0.25000000  1
  Ge  Ge0_5  1  0.50000000  0.00000000  0.75000000  1
  Ge  Ge0_6  1  0.50000000  0.50000000  0.25000000  1
  Ge  Ge0_7  1  0.50000000  0.50000000  0.75000000  1
loop_
_geom_bond_atom_site_label_1
_geom_bond_atom_site_label_2
_geom_bond_distance
_geom_bond_site_symmetry_2
Be0_0 Co0_4 2.349469 1_455
Be0_0 Co0_0 2.349469 1_555
Be0_0 Co0_6 2.349469 1_445
Be0_0 Co0_2 2.349469 1_545
Be0_0 Co1_3 2.349469 1_544
Be0_0 Co1_1 2.349469 1_554
Be0_0 Co1_7 2.349469 1_444
Be0_0 Co1_5 2.349469 1_454
Be0_0 Ge0_0 2.668326 1_555
Be0_0 Ge0_1 2.668326 1_554
Be0_1 Co0_1 2.349469 1_555
Be0_1 Co0_7 2.349469 1_445
Be0_1 Co0_3 2.349469 1_545
Be0_1 Co0_5 2.349469 1_455
Be0_1 Co1_4 2.349469 1_455
Be0_1 Co1_2 2.349469 1_545
Be0_1 Co1_0 2.349469 1_555
Be0_1 Co1_6 2.349469 1_445
Be0_1 Ge0_1 2.668326 1_555
Be0_1 Ge0_0 2.668326 1_555
Be0_2 Co0_6 2.349469 1_455
Be0_2 Co0_4 2.349469 1_455
Be0_2 Co0_0 2.349469 1_555
Be0_2 Co0_2 2.349469 1_555
Be0_2 Co1_1 2.349469 1_554
Be0_2 Co1_3 2.349469 1_554
Be0_2 Co1_7 2.349469 1_454
Be0_2 Co1_5 2.349469 1_454
Be0_2 Ge0_2 2.668326 1_555
Be0_2 Ge0_3 2.668326 1_554
Be0_3 Co0_1 2.349469 1_555
Be0_3 Co0_3 2.349469 1_555
Be0_3 Co0_7 2.349469 1_455
Be0_3 Co0_5 2.349469 1_455
Be0_3 Co1_2 2.349469 1_555
Be0_3 Co1_6 2.349469 1_455
Be0_3 Co1_4 2.349469 1_455
Be0_3 Co1_0 2.349469 1_555
Be0_3 Ge0_3 2.668326 1_555
Be0_3 Ge0_2 2.668326 1_555
Be0_4 Co0_6 2.349469 1_545
Be0_4 Co0_0 2.349469 1_555
Be0_4 Co0_4 2.349469 1_555
Be0_4 Co0_2 2.349469 1_545
Be0_4 Co1_3 2.349469 1_544
Be0_4 Co1_1 2.349469 1_554
Be0_4 Co1_5 2.349469 1_554
Be0_4 Co1_7 2.349469 1_544
Be0_4 Ge0_4 2.668326 1_555
Be0_4 Ge0_5 2.668326 1_554
Be0_5 Co0_1 2.349469 1_555
Be0_5 Co0_5 2.349469 1_555
Be0_5 Co0_3 2.349469 1_545
Be0_5 Co0_7 2.349469 1_545
Be0_5 Co1_2 2.349469 1_545
Be0_5 Co1_6 2.349469 1_545
Be0_5 Co1_0 2.349469 1_555
Be0_5 Co1_4 2.349469 1_555
Be0_5 Ge0_5 2.668326 1_555
Be0_5 Ge0_4 2.668326 1_555
Be0_6 Co0_4 2.349469 1_555
Be0_6 Co0_0 2.349469 1_555
Be0_6 Co0_2 2.349469 1_555
Be0_6 Co0_6 2.349469 1_555
Be0_6 Co1_1 2.349469 1_554
Be0_6 Co1_5 2.349469 1_554
Be0_6 Co1_7 2.349469 1_554
Be0_6 Co1_3 2.349469 1_554
Be0_6 Ge0_6 2.668326 1_555
Be0_6 Ge0_7 2.668326 1_554
Be0_7 Co0_1 2.349469 1_555
Be0_7 Co0_5 2.349469 1_555
Be0_7 Co0_3 2.349469 1_555
Be0_7 Co0_7 2.349469 1_555
Be0_7 Co1_2 2.349469 1_555
Be0_7 Co1_6 2.349469 1_555
Be0_7 Co1_0 2.349469 1_555
Be0_7 Co1_4 2.349469 1_555
Be0_7 Ge0_7 2.668326 1_555
Be0_7 Ge0_6 2.668326 1_555
Co0_0 Ge0_0 2.427023 1_555
Co0_0 Ge0_4 2.427023 1_555
Co0_0 Ge0_2 2.427023 1_555
Co0_0 Ge0_6 2.427023 1_555
Co0_0 Co1_1 2.529498 1_554
Co0_0 Co0_2 2.800148 1_555
Co0_0 Co0_2 2.800148 1_545
Co0_0 Co0_4 2.800148 1_455
Co0_0 Co0_4 2.800148 1_555
Co0_0 Co1_0 2.807154 1_555
Co0_1 Ge0_1 2.427023 1_555
Co0_1 Ge0_3 2.427023 1_555
Co0_1 Ge0_7 2.427023 1_555
Co0_1 Ge0_5 2.427023 1_555
Co0_1 Co1_0 2.529498 1_555
Co0_1 Co0_5 2.800148 1_555
Co0_1 Co0_3 2.800148 1_545
Co0_1 Co0_3 2.800148 1_555
Co0_1 Co0_5 2.800148 1_455
Co0_1 Co1_1 2.807154 1_555
Co0_2 Ge0_6 2.427023 1_555
Co0_2 Ge0_0 2.427023 1_565
Co0_2 Ge0_2 2.427023 1_555
Co0_2 Ge0_4 2.427023 1_565
Co0_2 Co1_3 2.529498 1_554
Co0_2 Co0_6 2.800148 1_455
Co0_2 Co0_6 2.800148 1_555
Co0_2 Co1_2 2.807154 1_555
Co0_3 Ge0_3 2.427023 1_555
Co0_3 Ge0_7 2.427023 1_555
Co0_3 Ge0_1 2.427023 1_565
Co0_3 Ge0_5 2.427023 1_565
Co0_3 Co1_2 2.529498 1_555
Co0_3 Co0_7 2.800148 1_455
Co0_3 Co0_7 2.800148 1_555
Co0_3 Co1_3 2.807154 1_555
Co0_4 Ge0_2 2.427023 1_655
Co0_4 Ge0_4 2.427023 1_555
Co0_4 Ge0_0 2.427023 1_655
Co0_4 Ge0_6 2.427023 1_555
Co0_4 Co1_5 2.529498 1_554
Co0_4 Co0_6 2.800148 1_555
Co0_4 Co0_6 2.800148 1_545
Co0_4 Co1_4 2.807154 1_555
Co0_5 Ge0_3 2.427023 1_655
Co0_5 Ge0_7 2.427023 1_555
Co0_5 Ge0_5 2.427023 1_555
Co0_5 Ge0_1 2.427023 1_655
Co0_5 Co1_4 2.529498 1_555
Co0_5 Co0_7 2.800148 1_555
Co0_5 Co0_7 2.800148 1_545
Co0_5 Co1_5 2.807154 1_555
Co0_6 Ge0_2 2.427023 1_655
Co0_6 Ge0_4 2.427023 1_565
Co0_6 Ge0_6 2.427023 1_555
Co0_6 Ge0_0 2.427023 1_665
Co0_6 Co1_7 2.529498 1_554
Co0_6 Co1_6 2.807154 1_555
Co0_7 Ge0_1 2.427023 1_665
Co0_7 Ge0_3 2.427023 1_655
Co0_7 Ge0_7 2.427023 1_555
Co0_7 Ge0_5 2.427023 1_565
Co0_7 Co1_6 2.529498 1_555
Co0_7 Co1_7 2.807154 1_555
Co1_0 Ge0_4 2.427023 1_555
Co1_0 Ge0_2 2.427023 1_555
Co1_0 Ge0_6 2.427023 1_555
Co1_0 Ge0_0 2.427023 1_555
Co1_0 Co1_4 2.800148 1_455
Co1_0 Co1_2 2.800148 1_545
Co1_0 Co1_4 2.800148 1_555
Co1_0 Co1_2 2.800148 1_555
Co1_1 Ge0_7 2.427023 1_555
Co1_1 Ge0_1 2.427023 1_555
Co1_1 Ge0_3 2.427023 1_555
Co1_1 Ge0_5 2.427023 1_555
Co1_1 Co1_5 2.800148 1_455
Co1_1 Co1_3 2.800148 1_545
Co1_1 Co1_5 2.800148 1_555
Co1_1 Co1_3 2.800148 1_555
Co1_2 Ge0_2 2.427023 1_555
Co1_2 Ge0_0 2.427023 1_565
Co1_2 Ge0_4 2.427023 1_565
Co1_2 Ge0_6 2.427023 1_555
Co1_2 Co1_6 2.800148 1_455
Co1_2 Co1_6 2.800148 1_555
Co1_3 Ge0_7 2.427023 1_555
Co1_3 Ge0_3 2.427023 1_555
Co1_3 Ge0_1 2.427023 1_565
Co1_3 Ge0_5 2.427023 1_565
Co1_3 Co1_7 2.800148 1_555
Co1_3 Co1_7 2.800148 1_455
Co1_4 Ge0_2 2.427023 1_655
Co1_4 Ge0_4 2.427023 1_555
Co1_4 Ge0_0 2.427023 1_655
Co1_4 Ge0_6 2.427023 1_555
Co1_4 Co1_6 2.800148 1_545
Co1_4 Co1_6 2.800148 1_555
Co1_5 Ge0_7 2.427023 1_555
Co1_5 Ge0_5 2.427023 1_555
Co1_5 Ge0_1 2.427023 1_655
Co1_5 Ge0_3 2.427023 1_655
Co1_5 Co1_7 2.800148 1_555
Co1_5 Co1_7 2.800148 1_545
Co1_6 Ge0_2 2.427023 1_655
Co1_6 Ge0_4 2.427023 1_565
Co1_6 Ge0_0 2.427023 1_665
Co1_6 Ge0_6 2.427023 1_555
Co1_7 Ge0_7 2.427023 1_555
Co1_7 Ge0_1 2.427023 1_665
Co1_7 Ge0_5 2.427023 1_565
Co1_7 Ge0_3 2.427023 1_655
Ge0_0 Ge0_4 2.800148 1_455
Ge0_0 Ge0_4 2.800148 1_555
Ge0_0 Ge0_2 2.800148 1_545
Ge0_0 Ge0_2 2.800148 1_555
Ge0_1 Ge0_3 2.800148 1_555
Ge0_1 Ge0_5 2.800148 1_455
Ge0_1 Ge0_3 2.800148 1_545
Ge0_1 Ge0_5 2.800148 1_555
Ge0_2 Ge0_6 2.800148 1_555
Ge0_2 Ge0_6 2.800148 1_455
Ge0_3 Ge0_7 2.800148 1_455
Ge0_3 Ge0_7 2.800148 1_555
Ge0_4 Ge0_6 2.800148 1_545
Ge0_4 Ge0_6 2.800148 1_555
Ge0_5 Ge0_7 2.800148 1_555
Ge0_5 Ge0_7 2.800148 1_545
