# generated using pymatgen
data_GdHoAl6
_symmetry_space_group_name_H-M   'P 1'
_cell_length_a   6.11133134
_cell_length_b   6.11133134
_cell_length_c   9.63886700
_cell_angle_alpha   90.00000000
_cell_angle_beta   90.00000000
_cell_angle_gamma   119.99999285
_symmetry_Int_Tables_number   1
_chemical_formula_structural   GdHoAl6
_chemical_formula_sum   'Gd2 Ho2 Al12'
_cell_volume   311.76568486
_cell_formula_units_Z   2
loop_
 _symmetry_equiv_pos_site_id
 _symmetry_equiv_pos_as_xyz
  1  'x, y, z'
loop_
 _atom_site_type_symbol
 _atom_site_label
 _atom_site_symmetry_multiplicity
 _atom_site_fract_x
 _atom_site_fract_y
 _atom_site_fract_z
 _atom_site_occupancy
  Gd  Gd0  1  0.33333300  0.66666700  0.75000000  1
  Gd  Gd1  1  0.66666700  0.33333300  0.25000000  1
  Ho  Ho0  1  0.00000000  0.00000000  0.00000000  1
  Ho  Ho1  1  0.00000000  0.00000000  0.50000000  1
  Al  Al0  1  0.81541900  0.63083700  0.75000000  1
  Al  Al1  1  0.36916300  0.18458100  0.75000000  1
  Al  Al2  1  0.81541900  0.18458100  0.75000000  1
  Al  Al3  1  0.18458100  0.36916300  0.25000000  1
  Al  Al4  1  0.63083700  0.81541900  0.25000000  1
  Al  Al5  1  0.18458100  0.81541900  0.25000000  1
  Al  Al6  1  0.50000000  0.50000000  0.00000000  1
  Al  Al7  1  0.50000000  0.00000000  0.00000000  1
  Al  Al8  1  0.00000000  0.50000000  0.00000000  1
  Al  Al9  1  0.50000000  0.50000000  0.50000000  1
  Al  Al10  1  0.50000000  0.00000000  0.50000000  1
  Al  Al11  1  0.00000000  0.50000000  0.50000000  1
loop_
_geom_bond_atom_site_label_1
_geom_bond_atom_site_label_2
_geom_bond_distance
_geom_bond_site_symmetry_2
Al0 Al2 2.727218 1_555
Al0 Al1 2.727219 1_555
Al0 Al11 2.936070 1_655
Al0 Al8 2.936070 1_656
Al0 Al6 2.936073 1_556
Al0 Al9 2.936073 1_555
Al0 Gd0 3.061538 1_655
Al0 Gd0 3.061550 1_555
Al0 Ho0 3.102281 1_666
Al0 Ho1 3.102281 1_665
Al0 Al2 3.384113 1_565
Al0 Al1 3.384113 1_665
Al1 Al2 2.727218 1_555
Al1 Al7 2.936070 1_556
Al1 Al10 2.936070 1_555
Al1 Al9 2.936073 1_555
Al1 Al6 2.936073 1_556
Al1 Gd0 3.061538 1_545
Al1 Gd0 3.061550 1_555
Al1 Ho0 3.102281 1_556
Al1 Ho1 3.102281 1_555
Al1 Al2 3.384113 1_455
Al2 Al8 2.936073 1_656
Al2 Al7 2.936073 1_556
Al2 Gd0 3.061544 1_545
Al2 Gd0 3.061544 1_655
Al2 Ho1 3.102278 1_655
Al2 Ho0 3.102278 1_656
Al3 Al5 2.727218 1_555
Al3 Al4 2.727219 1_555
Al3 Al8 2.936070 1_555
Al3 Al9 2.936073 1_555
Al3 Al6 2.936073 1_555
Al3 Gd1 3.061538 1_455
Al3 Gd1 3.061550 1_555
Al3 Ho0 3.102281 1_555
Al3 Ho1 3.102281 1_555
Al3 Al5 3.384113 1_545
Al3 Al4 3.384113 1_445
Al4 Al5 2.727218 1_555
Al4 Al7 2.936070 1_565
Al4 Al6 2.936073 1_555
Al4 Al9 2.936073 1_555
Al4 Gd1 3.061538 1_565
Al4 Gd1 3.061550 1_555
Al4 Ho0 3.102281 1_665
Al4 Ho1 3.102281 1_665
Al4 Al5 3.384113 1_655
Al5 Al7 2.936073 1_565
Al5 Al8 2.936073 1_555
Al5 Gd1 3.061544 1_455
Al5 Gd1 3.061544 1_565
Al5 Ho0 3.102278 1_565
Al5 Ho1 3.102278 1_565
Al6 Gd1 2.986488 1_555
Al6 Gd0 2.986488 1_554
Al6 Al7 3.055666 1_565
Al6 Al7 3.055666 1_555
Al6 Al8 3.055666 1_655
Al6 Al8 3.055666 1_555
Al6 Ho0 3.055666 1_665
Al6 Ho0 3.055666 1_555
Al7 Gd0 2.986485 1_544
Al7 Gd1 2.986485 1_555
Al7 Ho0 3.055666 1_655
Al7 Ho0 3.055666 1_555
Al7 Al8 3.055666 1_655
Al7 Al8 3.055666 1_545
Al8 Gd1 2.986485 1_455
Al8 Gd0 2.986485 1_554
Al8 Ho0 3.055666 1_565
Al8 Ho0 3.055666 1_555
Al9 Gd1 2.986488 1_555
Al9 Gd0 2.986488 1_555
Al9 Ho1 3.055666 1_665
Al9 Ho1 3.055666 1_555
Al10 Al4 2.936070 1_545
Al10 Al2 2.936073 1_555
Al10 Al5 2.936073 1_545
Al10 Gd0 2.986485 1_545
Al10 Gd1 2.986485 1_555
Al10 Al9 3.055666 1_545
Al10 Ho1 3.055666 1_655
Al10 Ho1 3.055666 1_555
Al10 Al9 3.055666 1_555
Al10 Al11 3.055666 1_655
Al10 Al11 3.055666 1_545
Al11 Al3 2.936070 1_555
Al11 Al2 2.936073 1_455
Al11 Al5 2.936073 1_555
Al11 Gd1 2.986485 1_455
Al11 Gd0 2.986485 1_555
Al11 Ho1 3.055666 1_565
Al11 Al9 3.055666 1_455
Al11 Ho1 3.055666 1_555
Al11 Al9 3.055666 1_555
