# generated using pymatgen
data_Nd2Si3
_symmetry_space_group_name_H-M   'P 1'
_cell_length_a   4.05999318
_cell_length_b   4.05999318
_cell_length_c   8.25259300
_cell_angle_alpha   90.00000000
_cell_angle_beta   90.00000000
_cell_angle_gamma   119.99998669
_symmetry_Int_Tables_number   1
_chemical_formula_structural   Nd2Si3
_chemical_formula_sum   'Nd2 Si3'
_cell_volume   117.80717069
_cell_formula_units_Z   1
loop_
 _symmetry_equiv_pos_site_id
 _symmetry_equiv_pos_as_xyz
  1  'x, y, z'
loop_
 _atom_site_type_symbol
 _atom_site_label
 _atom_site_symmetry_multiplicity
 _atom_site_fract_x
 _atom_site_fract_y
 _atom_site_fract_z
 _atom_site_occupancy
  Nd  Nd0  1  0.00000000  0.00000000  0.24647200  1
  Nd  Nd1  1  0.00000000  0.00000000  0.75352800  1
  Si  Si0  1  0.33333300  0.66666700  0.50000000  1
  Si  Si1  1  0.66666700  0.33333300  0.00000000  1
  Si  Si2  1  0.66666700  0.33333300  0.50000000  1
loop_
_geom_bond_atom_site_label_1
_geom_bond_atom_site_label_2
_geom_bond_distance
_geom_bond_site_symmetry_2
Nd0 Si1 3.103513 1_455
Nd0 Si1 3.103516 1_445
Nd0 Si1 3.103516 1_555
Nd0 Si0 3.141985 1_545
Nd0 Si2 3.141985 1_455
Nd0 Si2 3.141988 1_445
Nd0 Si0 3.141988 1_445
Nd0 Si2 3.141988 1_555
Nd0 Si0 3.141988 1_555
Nd1 Si1 3.103513 1_456
Nd1 Si1 3.103516 1_556
Nd1 Si1 3.103516 1_446
Nd1 Si0 3.141985 1_545
Nd1 Si2 3.141985 1_455
Nd1 Si0 3.141988 1_555
Nd1 Si0 3.141988 1_445
Nd1 Si2 3.141988 1_555
Nd1 Si2 3.141988 1_445
Si0 Si2 2.344036 1_455
Si0 Si2 2.344036 1_565
Si0 Si2 2.344043 1_555
