# generated using pymatgen
data_CoPH3CO4
_symmetry_space_group_name_H-M   'P 1'
_cell_length_a   4.81237800
_cell_length_b   5.70650700
_cell_length_c   17.42505600
_cell_angle_alpha   90.00000000
_cell_angle_beta   90.00000000
_cell_angle_gamma   90.00000000
_symmetry_Int_Tables_number   1
_chemical_formula_structural   CoPH3CO4
_chemical_formula_sum   'Co4 P4 H12 C4 O16'
_cell_volume   478.52460072
_cell_formula_units_Z   4
loop_
 _symmetry_equiv_pos_site_id
 _symmetry_equiv_pos_as_xyz
  1  'x, y, z'
loop_
 _atom_site_type_symbol
 _atom_site_label
 _atom_site_symmetry_multiplicity
 _atom_site_fract_x
 _atom_site_fract_y
 _atom_site_fract_z
 _atom_site_occupancy
  Co  Co0  1  0.13817000  0.19603000  0.26625700  1
  Co  Co1  1  0.86183000  0.69603000  0.73374300  1
  Co  Co2  1  0.63817000  0.69603000  0.23374300  1
  Co  Co3  1  0.36183000  0.19603000  0.76625700  1
  P  P0  1  0.19954500  0.69672000  0.34160000  1
  P  P1  1  0.80045500  0.19672000  0.65840000  1
  P  P2  1  0.69954500  0.19672000  0.15840000  1
  P  P3  1  0.30045500  0.69672000  0.84160000  1
  H  H0  1  0.20651400  0.84681300  0.47065500  1
  H  H1  1  0.79348500  0.34681300  0.52934500  1
  H  H2  1  0.70651500  0.34681300  0.02934500  1
  H  H3  1  0.29348600  0.84681300  0.97065500  1
  H  H4  1  0.51368700  0.68524600  0.44726000  1
  H  H5  1  0.48631300  0.18524600  0.55274000  1
  H  H6  1  0.01368700  0.18524600  0.05274000  1
  H  H7  1  0.98631300  0.68524600  0.94726000  1
  H  H8  1  0.19763400  0.53376500  0.46814500  1
  H  H9  1  0.80236600  0.03376500  0.53185500  1
  H  H10  1  0.69763400  0.03376500  0.03185500  1
  H  H11  1  0.30236600  0.53376500  0.96814500  1
  C  C0  1  0.28743300  0.69081300  0.44167400  1
  C  C1  1  0.71256700  0.19081300  0.55832600  1
  C  C2  1  0.78743300  0.19081300  0.05832600  1
  C  C3  1  0.21256700  0.69081300  0.94167400  1
  O  O0  1  0.34813500  0.48338800  0.30127500  1
  O  O1  1  0.65186500  0.98338800  0.69872500  1
  O  O2  1  0.84813500  0.98338800  0.19872500  1
  O  O3  1  0.15186500  0.48338800  0.80127500  1
  O  O4  1  0.35084400  0.91006400  0.30203800  1
  O  O5  1  0.64915600  0.41006400  0.69796200  1
  O  O6  1  0.85084400  0.41006400  0.19796200  1
  O  O7  1  0.14915600  0.91006400  0.80203800  1
  O  O8  1  0.88703900  0.69889700  0.33091000  1
  O  O9  1  0.11296100  0.19889700  0.66909000  1
  O  O10  1  0.38703900  0.19889700  0.16909000  1
  O  O11  1  0.61296100  0.69889700  0.83091000  1
  O  O12  1  0.91601200  0.19376200  0.34461100  1
  O  O13  1  0.08398800  0.69376200  0.65538900  1
  O  O14  1  0.41601200  0.69376200  0.15538900  1
  O  O15  1  0.58398800  0.19376200  0.84461100  1
loop_
_geom_bond_atom_site_label_1
_geom_bond_atom_site_label_2
_geom_bond_distance
_geom_bond_site_symmetry_2
Co0 O12 1.734147 1_455
Co0 O0 2.020466 1_555
Co0 O4 2.024651 1_545
Co0 O10 2.073972 1_555
Co0 O2 2.192105 1_445
Co0 O6 2.195429 1_455
Co1 O13 1.734147 1_655
Co1 O1 2.020466 1_555
Co1 O5 2.024651 1_555
Co1 O11 2.073972 1_555
Co1 O3 2.192105 1_655
Co1 O7 2.195429 1_655
Co2 O14 1.734147 1_555
Co2 O2 2.020466 1_555
Co2 O6 2.024651 1_555
Co2 O8 2.073972 1_555
Co2 O0 2.192105 1_555
Co2 O4 2.195429 1_555
Co3 O15 1.734147 1_555
Co3 O3 2.020466 1_555
Co3 O7 2.024651 1_545
Co3 O9 2.073972 1_555
Co3 O1 2.192105 1_545
Co3 O5 2.195429 1_555
C0 H4 1.093623 1_555
C0 H0 1.095055 1_555
C0 H8 1.096666 1_555
C0 P0 1.794671 1_555
C1 H5 1.093623 1_555
C1 H1 1.095053 1_555
C1 H9 1.096666 1_555
C1 P1 1.794671 1_555
C2 H6 1.093623 1_655
C2 H2 1.095053 1_555
C2 H10 1.096666 1_555
C2 P2 1.794671 1_555
C3 H7 1.093623 1_455
C3 H3 1.095055 1_555
C3 H11 1.096666 1_555
C3 P3 1.794671 1_555
O0 P0 1.577048 1_555
O1 P1 1.577048 1_565
O2 P2 1.577048 1_565
O3 P3 1.577048 1_555
O4 P0 1.577198 1_555
O5 P1 1.577198 1_555
O6 P2 1.577198 1_555
O7 P3 1.577198 1_555
O8 P0 1.515440 1_655
O9 P1 1.515440 1_455
O10 P2 1.515440 1_555
O11 P3 1.515440 1_555
