# generated using pymatgen
data_Dy5Si2BO13
_symmetry_space_group_name_H-M   'P 1'
_cell_length_a   6.77837500
_cell_length_b   9.26475200
_cell_length_c   9.28006307
_cell_angle_alpha   60.36921830
_cell_angle_beta   90.00000000
_cell_angle_gamma   90.00000000
_symmetry_Int_Tables_number   1
_chemical_formula_structural   Dy5Si2BO13
_chemical_formula_sum   'Dy10 Si4 B2 O26'
_cell_volume   506.57615547
_cell_formula_units_Z   2
loop_
 _symmetry_equiv_pos_site_id
 _symmetry_equiv_pos_as_xyz
  1  'x, y, z'
loop_
 _atom_site_type_symbol
 _atom_site_label
 _atom_site_symmetry_multiplicity
 _atom_site_fract_x
 _atom_site_fract_y
 _atom_site_fract_z
 _atom_site_occupancy
  Dy  Dy0  1  0.73987200  0.34468100  0.33250300  1
  Dy  Dy1  1  0.25970700  0.65380300  0.67748300  1
  Dy  Dy2  1  0.74029300  0.65380300  0.67748300  1
  Dy  Dy3  1  0.26012800  0.34468100  0.33250300  1
  Dy  Dy4  1  0.50000000  0.98922300  0.77459800  1
  Dy  Dy5  1  0.50000000  0.24793700  0.98169000  1
  Dy  Dy6  1  0.50000000  0.75415100  0.23382500  1
  Dy  Dy7  1  0.00000000  0.99535800  0.23571200  1
  Dy  Dy8  1  0.00000000  0.76425000  0.98920000  1
  Dy  Dy9  1  0.00000000  0.24231100  0.76334800  1
  Si  Si0  1  0.50000000  0.96985300  0.39938800  1
  Si  Si1  1  0.00000000  0.36765900  0.03302300  1
  Si  Si2  1  0.00000000  0.59882400  0.37394700  1
  Si  Si3  1  0.00000000  0.02935700  0.59801900  1
  B  B0  1  0.50000000  0.63015500  0.97067100  1
  B  B1  1  0.50000000  0.40874700  0.62381000  1
  O  O0  1  0.68064700  0.74056200  0.91321100  1
  O  O1  1  0.68113400  0.35465000  0.73663000  1
  O  O2  1  0.69285500  0.90563700  0.34094200  1
  O  O3  1  0.19256600  0.24572100  0.09203100  1
  O  O4  1  0.19024200  0.65478300  0.24952700  1
  O  O5  1  0.19263600  0.09211700  0.65976400  1
  O  O6  1  0.80743400  0.24572100  0.09203100  1
  O  O7  1  0.80975800  0.65478300  0.24952700  1
  O  O8  1  0.80736400  0.09211700  0.65976400  1
  O  O9  1  0.31935300  0.74056200  0.91321100  1
  O  O10  1  0.31886600  0.35465000  0.73663000  1
  O  O11  1  0.30714500  0.90563700  0.34094200  1
  O  O12  1  0.50000000  0.51915700  0.15459700  1
  O  O13  1  0.50000000  0.34428500  0.50665200  1
  O  O14  1  0.50000000  0.16996300  0.32858900  1
  O  O15  1  0.00000000  0.48629100  0.83263200  1
  O  O16  1  0.00000000  0.67734000  0.49508300  1
  O  O17  1  0.00000000  0.82773100  0.68133500  1
  O  O18  1  0.50000000  0.53359100  0.87987200  1
  O  O19  1  0.50000000  0.59564900  0.53428800  1
  O  O20  1  0.50000000  0.86655800  0.60276200  1
  O  O21  1  0.00000000  0.47164100  0.13283200  1
  O  O22  1  0.00000000  0.39521200  0.47304200  1
  O  O23  1  0.00000000  0.13358700  0.39472500  1
  O  O24  1  0.50000000  0.99784700  0.00531400  1
  O  O25  1  0.00000000  0.99941600  0.99686500  1
loop_
_geom_bond_atom_site_label_1
_geom_bond_atom_site_label_2
_geom_bond_distance
_geom_bond_site_symmetry_2
Dy0 O13 2.291214 1_555
Dy0 O14 2.307249 1_555
Dy0 O12 2.311599 1_555
Dy0 O22 2.373377 1_655
Dy0 O21 2.402267 1_655
Dy0 O23 2.480058 1_655
Dy0 O7 2.623742 1_555
Dy0 O8 2.807323 1_555
Dy0 O6 2.837865 1_555
Dy1 O18 2.313557 1_555
Dy1 O15 2.317551 1_555
Dy1 O19 2.327464 1_555
Dy1 O16 2.376283 1_555
Dy1 O20 2.380673 1_555
Dy1 O17 2.398713 1_555
Dy1 O10 2.576713 1_555
Dy1 O9 2.708086 1_555
Dy1 O11 2.845293 1_555
Dy2 O18 2.313557 1_555
Dy2 O15 2.317551 1_655
Dy2 O19 2.327464 1_555
Dy2 O16 2.376283 1_655
Dy2 O20 2.380673 1_555
Dy2 O17 2.398713 1_655
Dy2 O1 2.576713 1_555
Dy2 O0 2.708086 1_555
Dy2 O2 2.845293 1_555
Dy3 O13 2.291214 1_555
Dy3 O14 2.307249 1_555
Dy3 O12 2.311599 1_555
Dy3 O22 2.373377 1_555
Dy3 O21 2.402267 1_555
Dy3 O23 2.480058 1_555
Dy3 O4 2.623742 1_555
Dy3 O5 2.807323 1_555
Dy3 O3 2.837865 1_555
Dy4 O24 2.181668 1_556
Dy4 O5 2.319601 1_565
Dy4 O8 2.319601 1_565
Dy4 O0 2.351841 1_555
Dy4 O9 2.351841 1_555
Dy4 O20 2.372012 1_555
Dy4 O13 2.985961 1_565
Dy5 O24 2.216837 1_546
Dy5 O6 2.317499 1_556
Dy5 O3 2.317499 1_556
Dy5 O18 2.328982 1_555
Dy5 O10 2.330996 1_555
Dy5 O1 2.330996 1_555
Dy5 O14 2.930154 1_556
Dy6 O24 2.204587 1_555
Dy6 O4 2.268189 1_555
Dy6 O7 2.268189 1_555
Dy6 O19 2.425353 1_555
Dy6 O2 2.458926 1_555
Dy6 O11 2.458926 1_555
Dy6 O12 2.619818 1_555
Dy7 O25 2.198170 1_554
Dy7 O2 2.275175 1_455
Dy7 O11 2.275175 1_555
Dy7 O23 2.384596 1_565
Dy7 O6 2.409092 1_465
Dy7 O3 2.409092 1_565
Dy7 O16 2.731676 1_555
Dy8 O25 2.214786 1_555
Dy8 O0 2.320427 1_455
Dy8 O9 2.320427 1_555
Dy8 O21 2.356449 1_556
Dy8 O4 2.470845 1_556
Dy8 O7 2.470845 1_456
Dy8 O17 2.616653 1_555
Dy9 O25 2.222189 1_545
Dy9 O22 2.343283 1_555
Dy9 O10 2.358214 1_555
Dy9 O1 2.358214 1_455
Dy9 O8 2.426519 1_455
Dy9 O5 2.426519 1_555
Dy9 O15 2.638176 1_555
B0 O12 1.495066 1_556
B0 O18 1.501934 1_555
B0 O0 1.513503 1_555
B0 O9 1.513503 1_555
B1 O13 1.476759 1_555
B1 O19 1.505372 1_555
B1 O10 1.528386 1_555
B1 O1 1.528386 1_555
O2 Si0 1.635880 1_555
O3 Si1 1.633460 1_555
O4 Si2 1.634907 1_555
O5 Si3 1.643433 1_555
O6 Si1 1.633460 1_655
O7 Si2 1.634907 1_655
O8 Si3 1.643433 1_655
O11 Si0 1.635880 1_555
O14 Si0 1.632300 1_545
O15 Si1 1.626410 1_556
O16 Si2 1.612906 1_555
O17 Si3 1.630683 1_565
O20 Si0 1.640691 1_555
O21 Si1 1.633497 1_555
O22 Si2 1.639779 1_555
O23 Si3 1.640202 1_555
