# generated using pymatgen
data_SrNdNiO4
_symmetry_space_group_name_H-M   'P 1'
_cell_length_a   6.71022687
_cell_length_b   6.71022687
_cell_length_c   6.71022687
_cell_angle_alpha   147.20917422
_cell_angle_beta   147.20917386
_cell_angle_gamma   47.05416544
_symmetry_Int_Tables_number   1
_chemical_formula_structural   SrNdNiO4
_chemical_formula_sum   'Sr1 Nd1 Ni1 O4'
_cell_volume   88.28624974
_cell_formula_units_Z   1
loop_
 _symmetry_equiv_pos_site_id
 _symmetry_equiv_pos_as_xyz
  1  'x, y, z'
loop_
 _atom_site_type_symbol
 _atom_site_label
 _atom_site_symmetry_multiplicity
 _atom_site_fract_x
 _atom_site_fract_y
 _atom_site_fract_z
 _atom_site_occupancy
  Sr  Sr0  1  0.64138206  0.64138206  0.00000000  1
  Nd  Nd0  1  0.36198021  0.36198021  -0.00000000  1
  Ni  Ni0  1  0.00302109  0.00302109  -0.00000000  1
  O  O0  1  0.83908336  0.83908336  -0.00000000  1
  O  O1  1  0.17012974  0.17012974  0.00000000  1
  O  O2  1  0.99220178  0.49220178  0.50000000  1
  O  O3  1  0.49220175  0.99220175  0.50000000  1
loop_
_geom_bond_atom_site_label_1
_geom_bond_atom_site_label_2
_geom_bond_distance
_geom_bond_site_symmetry_2
Nd0 O1 2.360688 1_555
Nd0 O3 2.480928 1_555
Nd0 O3 2.480928 1_544
Nd0 O2 2.480928 1_454
Nd0 O2 2.480928 1_555
Nd0 O0 2.693382 1_455
Nd0 O0 2.693382 1_556
Nd0 O0 2.693382 1_444
Nd0 O0 2.693382 1_545
Ni0 O2 1.898733 1_455
Ni0 O2 1.898733 1_444
Ni0 O3 1.898733 1_444
Ni0 O3 1.898733 1_545
Ni0 O0 2.017226 1_445
Ni0 O1 2.056244 1_555
O0 Sr0 2.432681 1_555
O1 Sr0 2.701861 1_455
O1 Sr0 2.701861 1_556
O1 Sr0 2.701861 1_444
O1 Sr0 2.701861 1_545
O2 Sr0 2.637618 1_555
O2 Sr0 2.637618 1_656
O3 Sr0 2.637619 1_566
O3 Sr0 2.637619 1_555
