# generated using pymatgen
data_Al(CoS2)2
_symmetry_space_group_name_H-M   'P 1'
_cell_length_a   6.80741032
_cell_length_b   6.80741032
_cell_length_c   6.80741032
_cell_angle_alpha   60.00000000
_cell_angle_beta   60.00000000
_cell_angle_gamma   60.00000000
_symmetry_Int_Tables_number   1
_chemical_formula_structural   Al(CoS2)2
_chemical_formula_sum   'Al2 Co4 S8'
_cell_volume   223.06466908
_cell_formula_units_Z   2
loop_
 _symmetry_equiv_pos_site_id
 _symmetry_equiv_pos_as_xyz
  1  'x, y, z'
loop_
 _atom_site_type_symbol
 _atom_site_label
 _atom_site_symmetry_multiplicity
 _atom_site_fract_x
 _atom_site_fract_y
 _atom_site_fract_z
 _atom_site_occupancy
  Al  Al0  1  0.25000000  0.25000000  0.25000000  1
  Al  Al1  1  0.00000000  0.00000000  0.00000000  1
  Co  Co0  1  0.12500000  0.62500000  0.62500000  1
  Co  Co1  1  0.62500000  0.62500000  0.12500000  1
  Co  Co2  1  0.62500000  0.62500000  0.62500000  1
  Co  Co3  1  0.62500000  0.12500000  0.62500000  1
  S  S0  1  0.41533000  0.86155700  0.86155700  1
  S  S1  1  0.86155700  0.86155700  0.41533000  1
  S  S2  1  0.86155700  0.86155700  0.86155700  1
  S  S3  1  0.83467000  0.38844300  0.38844300  1
  S  S4  1  0.38844300  0.83467000  0.38844300  1
  S  S5  1  0.38844300  0.38844300  0.83467000  1
  S  S6  1  0.86155700  0.41533000  0.86155700  1
  S  S7  1  0.38844300  0.38844300  0.38844300  1
loop_
_geom_bond_atom_site_label_1
_geom_bond_atom_site_label_2
_geom_bond_distance
_geom_bond_site_symmetry_2
Al0 S7 2.308493 1_555
Al0 S5 2.308499 1_554
Al0 S4 2.308499 1_545
Al0 S3 2.308499 1_455
Al1 S2 2.308493 1_444
Al1 S1 2.308499 1_445
Al1 S6 2.308499 1_454
Al1 S0 2.308499 1_544
Co0 S4 2.284704 1_555
Co0 S5 2.284704 1_555
Co0 S6 2.284704 1_455
Co0 S1 2.284704 1_455
Co0 S2 2.284708 1_455
Co0 S7 2.284708 1_555
Co1 S4 2.284704 1_555
Co1 S3 2.284704 1_555
Co1 S6 2.284704 1_554
Co1 S0 2.284704 1_554
Co1 S2 2.284708 1_554
Co1 S7 2.284708 1_555
Co2 S6 2.284709 1_555
Co2 S0 2.284709 1_555
Co2 S1 2.284709 1_555
Co2 S3 2.284709 1_555
Co2 S4 2.284709 1_555
Co2 S5 2.284709 1_555
Co3 S5 2.284704 1_555
Co3 S3 2.284704 1_555
Co3 S0 2.284704 1_545
Co3 S1 2.284704 1_545
Co3 S2 2.284708 1_545
Co3 S7 2.284708 1_555
