# generated using pymatgen
data_Li9Mn2Co5O16
_symmetry_space_group_name_H-M   'P 1'
_cell_length_a   5.17472600
_cell_length_b   7.61681287
_cell_length_c   7.73907677
_cell_angle_alpha   93.87549471
_cell_angle_beta   108.30429102
_cell_angle_gamma   96.70824686
_symmetry_Int_Tables_number   1
_chemical_formula_structural   Li9Mn2Co5O16
_chemical_formula_sum   'Li9 Mn2 Co5 O16'
_cell_volume   285.85404271
_cell_formula_units_Z   1
loop_
 _symmetry_equiv_pos_site_id
 _symmetry_equiv_pos_as_xyz
  1  'x, y, z'
loop_
 _atom_site_type_symbol
 _atom_site_label
 _atom_site_symmetry_multiplicity
 _atom_site_fract_x
 _atom_site_fract_y
 _atom_site_fract_z
 _atom_site_occupancy
  Li  Li0  1  0.56522300  0.18414400  0.06074600  1
  Li  Li1  1  0.94691900  0.31470800  0.44577700  1
  Li  Li2  1  0.30227200  0.43490100  0.80435800  1
  Li  Li3  1  0.68878800  0.56591800  0.19041800  1
  Li  Li4  1  0.06898000  0.69211200  0.56722600  1
  Li  Li5  1  0.43640100  0.81031400  0.93017800  1
  Li  Li6  1  0.81335700  0.93317300  0.32482300  1
  Li  Li7  1  0.17165300  0.05956400  0.67462500  1
  Li  Li8  1  0.62537000  0.87555700  0.62518500  1
  Mn  Mn0  1  0.00039200  0.00028500  0.99774600  1
  Mn  Mn1  1  0.12763900  0.37495000  0.12548900  1
  Co  Co0  1  0.38687100  0.12421700  0.38422900  1
  Co  Co1  1  0.75152600  0.24975100  0.74642900  1
  Co  Co2  1  0.50115300  0.50683000  0.50267700  1
  Co  Co3  1  0.86048500  0.63249100  0.86572100  1
  Co  Co4  1  0.25425400  0.75411100  0.25738900  1
  O  O0  1  0.15879000  0.21721600  0.92491600  1
  O  O1  1  0.49315900  0.33725100  0.27453200  1
  O  O2  1  0.88304800  0.46310200  0.65916900  1
  O  O3  1  0.26660100  0.58643600  0.04499500  1
  O  O4  1  0.63621200  0.70680000  0.40573800  1
  O  O5  1  0.03603800  0.84499500  0.80192800  1
  O  O6  1  0.37525700  0.96808100  0.15219400  1
  O  O7  1  0.76488100  0.10690100  0.53574900  1
  O  O8  1  0.98093700  0.15801800  0.20280000  1
  O  O9  1  0.34922700  0.28236900  0.58839900  1
  O  O10  1  0.76075800  0.40415900  0.96671300  1
  O  O11  1  0.09803500  0.52140000  0.32932600  1
  O  O12  1  0.48164500  0.64557600  0.72389700  1
  O  O13  1  0.85482000  0.79478700  0.08576300  1
  O  O14  1  0.21695200  0.90648700  0.45240600  1
  O  O15  1  0.64235700  0.04338900  0.84845600  1
loop_
_geom_bond_atom_site_label_1
_geom_bond_atom_site_label_2
_geom_bond_distance
_geom_bond_site_symmetry_2
Li0 O15 2.069233 1_554
Li0 O0 2.088709 1_554
Li0 O6 2.095722 1_545
Li0 O1 2.113001 1_555
Li0 O8 2.126025 1_555
Li0 O10 2.143124 1_554
Li1 O7 2.022417 1_555
Li1 O11 2.061328 1_655
Li1 O2 2.071692 1_555
Li1 O9 2.079954 1_655
Li1 O8 2.223732 1_555
Li1 O1 2.338728 1_555
Li2 O12 1.993597 1_555
Li2 O9 2.064148 1_555
Li2 O0 2.127814 1_555
Li2 O2 2.150636 1_455
Li2 O3 2.193082 1_556
Li2 O10 2.357880 1_555
Li3 O4 2.028196 1_555
Li3 O11 2.131317 1_655
Li3 O3 2.150139 1_555
Li3 O1 2.153460 1_555
Li3 O13 2.170514 1_555
Li3 O10 2.208595 1_554
Li4 O14 2.091306 1_555
Li4 O5 2.153891 1_555
Li4 O2 2.163428 1_455
Li4 O12 2.182755 1_555
Li4 O4 2.215633 1_455
Li4 O11 2.235849 1_555
Li5 O12 2.051945 1_555
Li5 O5 2.053975 1_555
Li5 O13 2.143223 1_556
Li5 O6 2.155820 1_556
Li5 O3 2.194232 1_556
Li5 O15 2.195594 1_565
Li6 O14 2.051599 1_655
Li6 O4 2.083913 1_555
Li6 O7 2.126343 1_565
Li6 O13 2.149076 1_555
Li6 O8 2.227742 1_565
Li6 O6 2.298145 1_555
Li7 O9 2.084135 1_555
Li7 O14 2.101912 1_545
Li7 O5 2.125592 1_545
Li7 O7 2.127099 1_455
Li7 O0 2.232410 1_555
Li7 O15 2.406698 1_555
Li8 O15 2.051176 1_565
Li8 O7 2.070459 1_565
Li8 O4 2.078765 1_555
Li8 O12 2.106819 1_555
Li8 O14 2.166556 1_555
Li8 O5 2.184941 1_655
Mn0 O13 1.916347 1_446
Mn0 O5 1.927153 1_545
Mn0 O15 1.929795 1_455
Mn0 O0 1.954323 1_555
Mn0 O8 1.960301 1_456
Mn0 O6 1.986501 1_546
Mn1 O3 1.909553 1_555
Mn1 O11 1.926177 1_555
Mn1 O8 1.946885 1_455
Mn1 O1 1.947259 1_555
Mn1 O0 1.956839 1_554
Mn1 O10 1.958070 1_454
Co0 O7 1.964476 1_555
Co0 O14 1.967451 1_545
Co0 O1 1.981716 1_555
Co0 O9 1.994136 1_555
Co0 O6 2.066264 1_545
Co0 O8 2.184688 1_455
Co1 O15 1.911469 1_555
Co1 O7 1.922398 1_555
Co1 O2 1.933572 1_555
Co1 O10 1.989095 1_555
Co1 O9 2.110445 1_555
Co1 O0 2.179605 1_655
Co2 O4 1.899033 1_555
Co2 O12 1.986707 1_555
Co2 O9 2.036685 1_555
Co2 O2 2.046469 1_555
Co2 O1 2.102591 1_555
Co2 O11 2.116602 1_555
Co3 O5 1.932636 1_655
Co3 O12 1.940790 1_555
Co3 O2 2.026614 1_555
Co3 O10 2.032066 1_555
Co3 O13 2.045531 1_556
Co3 O3 2.207041 1_656
Co4 O14 1.913291 1_555
Co4 O6 1.993022 1_555
Co4 O3 2.034283 1_555
Co4 O4 2.037545 1_555
Co4 O11 2.046112 1_555
Co4 O13 2.147857 1_455
