# generated using pymatgen
data_Mn3(O2F)2
_symmetry_space_group_name_H-M   'P 1'
_cell_length_a   4.70550607
_cell_length_b   8.96989915
_cell_length_c   4.70548302
_cell_angle_alpha   90.00737918
_cell_angle_beta   89.99378945
_cell_angle_gamma   90.01929546
_symmetry_Int_Tables_number   1
_chemical_formula_structural   Mn3(O2F)2
_chemical_formula_sum   'Mn6 O8 F4'
_cell_volume   198.60861270
_cell_formula_units_Z   2
loop_
 _symmetry_equiv_pos_site_id
 _symmetry_equiv_pos_as_xyz
  1  'x, y, z'
loop_
 _atom_site_type_symbol
 _atom_site_label
 _atom_site_symmetry_multiplicity
 _atom_site_fract_x
 _atom_site_fract_y
 _atom_site_fract_z
 _atom_site_occupancy
  Mn  Mn0  1  0.99984200  0.33265300  0.99944500  1
  Mn  Mn1  1  0.50017600  0.14967300  0.50015600  1
  Mn  Mn2  1  0.49996600  0.51620000  0.50023000  1
  Mn  Mn3  1  0.50000500  0.83251000  0.50025900  1
  Mn  Mn4  1  0.99981100  0.01628600  0.00010800  1
  Mn  Mn5  1  0.00017300  0.64961700  0.99996000  1
  O  O0  1  0.80013600  0.16887300  0.19990300  1
  O  O1  1  0.81674000  0.49945300  0.18316500  1
  O  O2  1  0.31682500  0.99939800  0.31688000  1
  O  O3  1  0.29999300  0.66878100  0.30003500  1
  O  O4  1  0.68335700  0.99935000  0.68341100  1
  O  O5  1  0.69986200  0.66872500  0.69989900  1
  O  O6  1  0.19993800  0.16885500  0.80009700  1
  O  O7  1  0.18338200  0.49936700  0.81652500  1
  F  F0  1  0.82024500  0.83251100  0.17962700  1
  F  F1  1  0.32034400  0.33255700  0.32033600  1
  F  F2  1  0.67965000  0.33256800  0.67964000  1
  F  F3  1  0.17955300  0.83262200  0.82032700  1
loop_
_geom_bond_atom_site_label_1
_geom_bond_atom_site_label_2
_geom_bond_distance
_geom_bond_site_symmetry_2
Mn0 O7 1.929322 1_655
Mn0 O1 1.930959 1_556
Mn0 O6 1.981289 1_655
Mn0 O0 1.982487 1_556
Mn1 O2 1.817730 1_545
Mn1 O4 1.818219 1_545
Mn1 O6 2.004284 1_555
Mn1 O0 2.004360 1_555
Mn2 O5 1.907425 1_555
Mn2 O3 1.909811 1_555
Mn2 O7 2.111041 1_555
Mn2 O1 2.114216 1_555
Mn3 O4 1.930202 1_555
Mn3 O2 1.931273 1_555
Mn3 O5 1.981595 1_555
Mn3 O3 1.982224 1_555
Mn4 O0 1.907957 1_555
Mn4 O6 1.909109 1_654
Mn4 O4 2.112210 1_544
Mn4 O2 2.114386 1_645
Mn5 O1 1.817093 1_456
Mn5 O7 1.817944 1_555
Mn5 O3 2.003463 1_556
Mn5 O5 2.005114 1_455
F0 Mn5 2.030604 1_654
F0 Mn4 2.035713 1_565
F0 Mn3 2.132250 1_555
F0 F3 2.390886 1_654
F0 O5 2.752047 1_554
F0 O3 2.752591 1_655
F0 O4 2.847508 1_554
F0 O2 2.848807 1_655
F1 Mn1 2.030895 1_555
F1 Mn2 2.035497 1_555
F1 Mn0 2.134215 1_454
F1 F2 2.391151 1_555
F1 O6 2.752004 1_555
F1 O0 2.752386 1_555
F1 O7 2.846915 1_555
F1 O1 2.848025 1_555
F2 Mn1 2.028979 1_555
F2 Mn2 2.035229 1_555
F2 Mn0 2.129569 1_555
F2 O6 2.751506 1_555
F2 O0 2.751849 1_555
F2 O7 2.847508 1_555
F2 O1 2.848596 1_555
F3 Mn5 2.029984 1_555
F3 Mn4 2.036047 1_466
F3 Mn3 2.131079 1_555
F3 O5 2.752300 1_455
F3 O3 2.752803 1_556
F3 O4 2.847130 1_455
F3 O2 2.848377 1_556
