# generated using pymatgen
data_BaNaLi3(BO2)6
_symmetry_space_group_name_H-M   'P 1'
_cell_length_a   8.39910612
_cell_length_b   8.39910612
_cell_length_c   8.39910582
_cell_angle_alpha   69.38327054
_cell_angle_beta   69.38327054
_cell_angle_gamma   69.38327115
_symmetry_Int_Tables_number   1
_chemical_formula_structural   BaNaLi3(BO2)6
_chemical_formula_sum   'Ba2 Na2 Li6 B12 O24'
_cell_volume   501.14250699
_cell_formula_units_Z   2
loop_
 _symmetry_equiv_pos_site_id
 _symmetry_equiv_pos_as_xyz
  1  'x, y, z'
loop_
 _atom_site_type_symbol
 _atom_site_label
 _atom_site_symmetry_multiplicity
 _atom_site_fract_x
 _atom_site_fract_y
 _atom_site_fract_z
 _atom_site_occupancy
  Ba  Ba0  1  0.85236100  0.85236100  0.85236100  1
  Ba  Ba1  1  0.14763900  0.14763900  0.14763900  1
  Na  Na0  1  0.66863200  0.66863200  0.66863200  1
  Na  Na1  1  0.33136800  0.33136800  0.33136800  1
  Li  Li0  1  0.78268800  0.59852600  0.27993600  1
  Li  Li1  1  0.27993600  0.78268800  0.59852600  1
  Li  Li2  1  0.59852600  0.27993600  0.78268800  1
  Li  Li3  1  0.21731200  0.40147400  0.72006400  1
  Li  Li4  1  0.72006400  0.21731200  0.40147400  1
  Li  Li5  1  0.40147400  0.72006400  0.21731200  1
  B  B0  1  0.69286500  0.48463300  0.06735700  1
  B  B1  1  0.06735700  0.69286500  0.48463300  1
  B  B2  1  0.48463300  0.06735700  0.69286500  1
  B  B3  1  0.30713500  0.51536700  0.93264300  1
  B  B4  1  0.93264300  0.30713500  0.51536700  1
  B  B5  1  0.51536700  0.93264300  0.30713500  1
  B  B6  1  0.13251200  0.68607800  0.16660000  1
  B  B7  1  0.16660000  0.13251200  0.68607800  1
  B  B8  1  0.68607800  0.16660000  0.13251200  1
  B  B9  1  0.86748800  0.31392200  0.83340000  1
  B  B10  1  0.83340000  0.86748800  0.31392200  1
  B  B11  1  0.31392200  0.83340000  0.86748800  1
  O  O0  1  0.90375000  0.80994800  0.47074600  1
  O  O1  1  0.47074600  0.90375000  0.80994800  1
  O  O2  1  0.80994800  0.47074600  0.90375000  1
  O  O3  1  0.09625000  0.19005200  0.52925400  1
  O  O4  1  0.52925400  0.09625000  0.19005200  1
  O  O5  1  0.19005200  0.52925400  0.09625000  1
  O  O6  1  0.65768100  0.82305000  0.37809100  1
  O  O7  1  0.37809100  0.65768100  0.82305000  1
  O  O8  1  0.82305000  0.37809100  0.65768100  1
  O  O9  1  0.34231900  0.17695000  0.62190900  1
  O  O10  1  0.62190900  0.34231900  0.17695000  1
  O  O11  1  0.17695000  0.62190900  0.34231900  1
  O  O12  1  0.94291500  0.76005800  0.18646600  1
  O  O13  1  0.18646600  0.94291500  0.76005800  1
  O  O14  1  0.76005800  0.18646600  0.94291500  1
  O  O15  1  0.05708500  0.23994200  0.81353400  1
  O  O16  1  0.81353400  0.05708500  0.23994200  1
  O  O17  1  0.23994200  0.81353400  0.05708500  1
  O  O18  1  0.65178400  0.63316100  0.11797700  1
  O  O19  1  0.11797700  0.65178400  0.63316100  1
  O  O20  1  0.63316100  0.11797700  0.65178400  1
  O  O21  1  0.34821600  0.36683900  0.88202300  1
  O  O22  1  0.88202300  0.34821600  0.36683900  1
  O  O23  1  0.36683900  0.88202300  0.34821600  1
loop_
_geom_bond_atom_site_label_1
_geom_bond_atom_site_label_2
_geom_bond_distance
_geom_bond_site_symmetry_2
Ba0 O18 2.801739 1_556
Ba0 O19 2.801739 1_655
Ba0 O20 2.801739 1_565
Ba0 O12 2.934262 1_556
Ba0 O14 2.934262 1_565
Ba0 O13 2.934262 1_655
Ba0 O0 3.210640 1_555
Ba0 O1 3.210640 1_555
Ba0 O2 3.210640 1_555
Ba1 O21 2.801739 1_554
Ba1 O22 2.801739 1_455
Ba1 O23 2.801739 1_545
Ba1 O15 2.934262 1_554
Ba1 O17 2.934262 1_545
Ba1 O16 2.934262 1_455
Ba1 O3 3.210640 1_555
Ba1 O4 3.210640 1_555
Ba1 O5 3.210640 1_555
Na0 O6 2.343239 1_555
Na0 O7 2.343239 1_555
Na0 O8 2.343239 1_555
Na0 O2 2.453768 1_555
Na0 O0 2.453768 1_555
Na0 O1 2.453768 1_555
Na1 O9 2.343239 1_555
Na1 O10 2.343239 1_555
Na1 O11 2.343239 1_555
Na1 O5 2.453768 1_555
Na1 O3 2.453768 1_555
Na1 O4 2.453768 1_555
Li0 O18 1.921788 1_555
Li0 O22 1.939533 1_555
Li0 O12 2.014894 1_555
Li0 O6 2.104567 1_555
Li1 O19 1.921788 1_555
Li1 O23 1.939533 1_555
Li1 O13 2.014894 1_555
Li1 O7 2.104567 1_555
Li2 O20 1.921788 1_555
Li2 O21 1.939533 1_555
Li2 O14 2.014894 1_555
Li2 O8 2.104567 1_555
Li3 O21 1.921788 1_555
Li3 O19 1.939533 1_555
Li3 O15 2.014894 1_555
Li3 O9 2.104567 1_555
Li4 O22 1.921788 1_555
Li4 O20 1.939533 1_555
Li4 O16 2.014894 1_555
Li4 O10 2.104567 1_555
Li5 O23 1.921788 1_555
Li5 O18 1.939533 1_555
Li5 O17 2.014894 1_555
Li5 O11 2.104567 1_555
B0 O18 1.350243 1_555
B0 O2 1.396213 1_554
B0 O10 1.404186 1_555
B1 O19 1.350243 1_555
B1 O0 1.396213 1_455
B1 O11 1.404186 1_555
B2 O20 1.350243 1_555
B2 O1 1.396213 1_545
B2 O9 1.404186 1_555
B3 O21 1.350243 1_555
B3 O5 1.396213 1_556
B3 O7 1.404186 1_555
B4 O22 1.350243 1_555
B4 O3 1.396213 1_655
B4 O8 1.404186 1_555
B5 O23 1.350243 1_555
B5 O4 1.396213 1_565
B5 O6 1.404186 1_555
B6 O12 1.462492 1_455
B6 O17 1.486125 1_555
B6 O5 1.488747 1_555
B6 O11 1.514631 1_555
B7 O13 1.462492 1_545
B7 O15 1.486125 1_555
B7 O3 1.488747 1_555
B7 O9 1.514631 1_555
B8 O14 1.462492 1_554
B8 O16 1.486125 1_555
B8 O4 1.488747 1_555
B8 O10 1.514631 1_555
B9 O15 1.462492 1_655
B9 O14 1.486125 1_555
B9 O2 1.488747 1_555
B9 O8 1.514631 1_555
B10 O16 1.462492 1_565
B10 O12 1.486125 1_555
B10 O0 1.488747 1_555
B10 O6 1.514631 1_555
B11 O17 1.462492 1_556
B11 O13 1.486125 1_555
B11 O1 1.488747 1_555
B11 O7 1.514631 1_555
