# generated using pymatgen
data_ZrCrAgS4
_symmetry_space_group_name_H-M   'P 1'
_cell_length_a   11.37382800
_cell_length_b   3.61862000
_cell_length_c   13.21396500
_cell_angle_alpha   90.00000000
_cell_angle_beta   90.00000000
_cell_angle_gamma   90.00000000
_symmetry_Int_Tables_number   1
_chemical_formula_structural   ZrCrAgS4
_chemical_formula_sum   'Zr4 Cr4 Ag4 S16'
_cell_volume   543.85457685
_cell_formula_units_Z   4
loop_
 _symmetry_equiv_pos_site_id
 _symmetry_equiv_pos_as_xyz
  1  'x, y, z'
loop_
 _atom_site_type_symbol
 _atom_site_label
 _atom_site_symmetry_multiplicity
 _atom_site_fract_x
 _atom_site_fract_y
 _atom_site_fract_z
 _atom_site_occupancy
  Zr  Zr0  1  0.95241400  0.75000000  0.88408300  1
  Zr  Zr1  1  0.54758600  0.25000000  0.38408300  1
  Zr  Zr2  1  0.92819000  0.75000000  0.41095800  1
  Zr  Zr3  1  0.57181000  0.25000000  0.91095800  1
  Cr  Cr0  1  0.06342900  0.25000000  0.11099300  1
  Cr  Cr1  1  0.43657100  0.75000000  0.61099300  1
  Cr  Cr2  1  0.09494700  0.25000000  0.59468700  1
  Cr  Cr3  1  0.40505300  0.75000000  0.09468700  1
  Ag  Ag0  1  0.24619200  0.25000000  0.31535700  1
  Ag  Ag1  1  0.74990000  0.75000000  0.66284500  1
  Ag  Ag2  1  0.25380800  0.75000000  0.81535700  1
  Ag  Ag3  1  0.75010000  0.25000000  0.16284500  1
  S  S0  1  0.04838400  0.75000000  0.70905500  1
  S  S1  1  0.98379800  0.25000000  0.28488200  1
  S  S2  1  0.45161600  0.25000000  0.20905500  1
  S  S3  1  0.51620200  0.75000000  0.78488200  1
  S  S4  1  0.09996400  0.25000000  0.93354400  1
  S  S5  1  0.92007000  0.75000000  0.07700900  1
  S  S6  1  0.40003600  0.75000000  0.43354400  1
  S  S7  1  0.57993000  0.25000000  0.57700900  1
  S  S8  1  0.13383200  0.75000000  0.47977600  1
  S  S9  1  0.88547800  0.25000000  0.54439100  1
  S  S10  1  0.36616800  0.25000000  0.97977600  1
  S  S11  1  0.61452200  0.75000000  0.04439100  1
  S  S12  1  0.19989900  0.75000000  0.15251900  1
  S  S13  1  0.79527800  0.25000000  0.83990000  1
  S  S14  1  0.30010100  0.25000000  0.65251900  1
  S  S15  1  0.70472200  0.75000000  0.33990000  1
loop_
_geom_bond_atom_site_label_1
_geom_bond_atom_site_label_2
_geom_bond_distance
_geom_bond_site_symmetry_2
Cr0 S4 2.381341 1_554
Cr0 S12 2.446218 1_545
Cr0 S12 2.446218 1_555
Cr0 S1 2.469823 1_455
Cr0 S5 2.476676 1_445
Cr0 S5 2.476676 1_455
Cr1 S6 2.381341 1_555
Cr1 S14 2.446218 1_565
Cr1 S14 2.446218 1_555
Cr1 S3 2.469823 1_555
Cr1 S7 2.476676 1_555
Cr1 S7 2.476676 1_565
Cr2 S8 2.403089 1_545
Cr2 S8 2.403089 1_555
Cr2 S0 2.416189 1_555
Cr2 S0 2.416189 1_545
Cr2 S14 2.455337 1_555
Cr2 S9 2.473427 1_455
Cr3 S10 2.403089 1_564
Cr3 S10 2.403089 1_554
Cr3 S2 2.416189 1_555
Cr3 S2 2.416189 1_565
Cr3 S12 2.455337 1_555
Cr3 S11 2.473427 1_555
Ag0 S2 2.726194 1_555
Ag0 S12 2.860210 1_545
Ag0 S12 2.860210 1_555
Ag0 S6 2.962153 1_555
Ag0 S6 2.962153 1_545
Ag0 S1 3.011470 1_455
Ag0 S8 3.102757 1_555
Ag0 S8 3.102757 1_545
Ag1 S9 2.846312 1_555
Ag1 S9 2.846312 1_565
Ag1 S7 2.880519 1_555
Ag1 S7 2.880519 1_565
Ag1 S13 3.002283 1_555
Ag1 S13 3.002283 1_565
Ag1 S3 3.108961 1_555
Ag1 S0 3.449382 1_655
Ag2 S0 2.726194 1_555
Ag2 S14 2.860210 1_555
Ag2 S14 2.860210 1_565
Ag2 S4 2.962153 1_555
Ag2 S4 2.962153 1_565
Ag2 S3 3.011470 1_555
Ag2 S10 3.102757 1_565
Ag2 S10 3.102757 1_555
Ag3 S11 2.846312 1_545
Ag3 S11 2.846312 1_555
Ag3 S5 2.880519 1_555
Ag3 S5 2.880519 1_545
Ag3 S15 3.002283 1_545
Ag3 S15 3.002283 1_555
Ag3 S1 3.108961 1_555
Ag3 S2 3.449382 1_555
S0 Zr0 2.557456 1_455
S1 Zr2 2.539501 1_555
S1 Zr2 2.539501 1_545
S2 Zr1 2.557456 1_555
S3 Zr3 2.539501 1_565
S3 Zr3 2.539501 1_555
S4 Zr0 2.552870 1_445
S4 Zr0 2.552870 1_455
S5 Zr0 2.575723 1_554
S6 Zr1 2.552870 1_555
S6 Zr1 2.552870 1_565
S6 S8 3.088775 1_555
S7 Zr1 2.575723 1_555
S8 Zr2 2.509494 1_455
S9 Zr2 2.572626 1_555
S9 Zr2 2.572626 1_545
S10 Zr3 2.509494 1_555
S10 S4 3.088775 1_555
S11 Zr3 2.572626 1_554
S11 Zr3 2.572626 1_564
S13 Zr0 2.609345 1_545
S13 Zr0 2.609345 1_555
S13 Zr3 2.709578 1_555
S15 Zr1 2.609345 1_555
S15 Zr1 2.609345 1_565
S15 Zr2 2.709578 1_555
