# generated using pymatgen
data_NaSO4
_symmetry_space_group_name_H-M   'P 1'
_cell_length_a   6.86421000
_cell_length_b   7.04250490
_cell_length_c   7.05730621
_cell_angle_alpha   77.83225871
_cell_angle_beta   82.77571994
_cell_angle_gamma   88.28546862
_symmetry_Int_Tables_number   1
_chemical_formula_structural   NaSO4
_chemical_formula_sum   'Na4 S4 O16'
_cell_volume   330.84515349
_cell_formula_units_Z   4
loop_
 _symmetry_equiv_pos_site_id
 _symmetry_equiv_pos_as_xyz
  1  'x, y, z'
loop_
 _atom_site_type_symbol
 _atom_site_label
 _atom_site_symmetry_multiplicity
 _atom_site_fract_x
 _atom_site_fract_y
 _atom_site_fract_z
 _atom_site_occupancy
  Na  Na0  1  0.45140100  0.31478700  0.72717700  1
  Na  Na1  1  0.54859900  0.68521300  0.27282300  1
  Na  Na2  1  0.85265300  0.18328300  0.32455100  1
  Na  Na3  1  0.14734700  0.81671700  0.67544900  1
  S  S0  1  0.38309500  0.20633100  0.27383400  1
  S  S1  1  0.61690500  0.79366900  0.72616600  1
  S  S2  1  0.95798400  0.29697400  0.78640000  1
  S  S3  1  0.04201600  0.70302600  0.21360000  1
  O  O0  1  0.35339900  0.30284700  0.07005500  1
  O  O1  1  0.64660100  0.69715300  0.92994500  1
  O  O2  1  0.48518800  0.33753900  0.36837600  1
  O  O3  1  0.51481200  0.66246100  0.63162400  1
  O  O4  1  0.19293000  0.14289000  0.38873000  1
  O  O5  1  0.80707000  0.85711000  0.61127000  1
  O  O6  1  0.51438900  0.03621600  0.25500900  1
  O  O7  1  0.48561100  0.96378400  0.74499100  1
  O  O8  1  0.84924900  0.31923300  0.97552100  1
  O  O9  1  0.15075100  0.68076700  0.02447900  1
  O  O10  1  0.10577900  0.45418500  0.71560600  1
  O  O11  1  0.89422100  0.54581500  0.28439400  1
  O  O12  1  0.06299400  0.10781200  0.81722300  1
  O  O13  1  0.93700600  0.89218800  0.18277700  1
  O  O14  1  0.81683700  0.30559900  0.64170900  1
  O  O15  1  0.18316300  0.69440100  0.35829100  1
loop_
_geom_bond_atom_site_label_1
_geom_bond_atom_site_label_2
_geom_bond_distance
_geom_bond_site_symmetry_2
Na0 O0 2.413134 1_556
Na0 O3 2.435826 1_555
Na0 O7 2.454205 1_545
Na0 O2 2.484920 1_555
Na0 O14 2.507275 1_555
Na0 O10 2.544479 1_555
Na0 O12 3.008750 1_555
Na1 O1 2.413134 1_554
Na1 O2 2.435826 1_555
Na1 O6 2.454205 1_565
Na1 O3 2.484920 1_555
Na1 O15 2.507275 1_555
Na1 O11 2.544479 1_555
Na1 O13 3.008750 1_555
Na2 O4 2.431814 1_655
Na2 O8 2.450225 1_554
Na2 O13 2.487353 1_545
Na2 O11 2.529518 1_555
Na2 O14 2.544422 1_555
Na2 O6 2.711025 1_555
Na2 O5 2.719054 1_545
Na2 O2 2.723886 1_555
Na3 O5 2.431814 1_455
Na3 O9 2.450225 1_556
Na3 O12 2.487353 1_565
Na3 O10 2.529518 1_555
Na3 O15 2.544422 1_555
Na3 O7 2.711025 1_555
Na3 O4 2.719054 1_565
Na3 O3 2.723886 1_555
O0 S0 1.491693 1_555
O1 S1 1.491693 1_555
O2 S0 1.485381 1_555
O3 S1 1.485381 1_555
O4 S0 1.475457 1_555
O5 S1 1.475457 1_555
O6 S0 1.495837 1_555
O7 S1 1.495837 1_555
O8 S2 1.481111 1_555
O9 S3 1.481111 1_555
O10 S2 1.487001 1_455
O11 S3 1.487001 1_655
O12 S2 1.483709 1_455
O13 S3 1.483709 1_655
O14 S2 1.484670 1_555
O15 S3 1.484670 1_555
