# generated using pymatgen
data_Mg2Bi3O8
_symmetry_space_group_name_H-M   'P 1'
_cell_length_a   6.76714657
_cell_length_b   6.76714657
_cell_length_c   9.68006100
_cell_angle_alpha   90.00000000
_cell_angle_beta   90.00000000
_cell_angle_gamma   120.00000553
_symmetry_Int_Tables_number   1
_chemical_formula_structural   Mg2Bi3O8
_chemical_formula_sum   'Mg4 Bi6 O16'
_cell_volume   383.90155123
_cell_formula_units_Z   2
loop_
 _symmetry_equiv_pos_site_id
 _symmetry_equiv_pos_as_xyz
  1  'x, y, z'
loop_
 _atom_site_type_symbol
 _atom_site_label
 _atom_site_symmetry_multiplicity
 _atom_site_fract_x
 _atom_site_fract_y
 _atom_site_fract_z
 _atom_site_occupancy
  Mg  Mg0  1  0.66666700  0.33333300  0.03056500  1
  Mg  Mg1  1  0.33333300  0.66666700  0.53056500  1
  Mg  Mg2  1  0.66666700  0.33333300  0.40105500  1
  Mg  Mg3  1  0.33333300  0.66666700  0.90105500  1
  Bi  Bi0  1  0.66788400  0.83394200  0.24150100  1
  Bi  Bi1  1  0.83394200  0.16605800  0.74150100  1
  Bi  Bi2  1  0.16605800  0.33211600  0.24150100  1
  Bi  Bi3  1  0.83394200  0.66788400  0.74150100  1
  Bi  Bi4  1  0.33211600  0.16605800  0.74150100  1
  Bi  Bi5  1  0.16605800  0.83394200  0.24150100  1
  O  O0  1  0.82367000  0.17633000  0.14270000  1
  O  O1  1  0.64734000  0.82367000  0.64270000  1
  O  O2  1  0.17633000  0.35266000  0.64270000  1
  O  O3  1  0.82367000  0.64734000  0.14270000  1
  O  O4  1  0.35266000  0.17633000  0.14270000  1
  O  O5  1  0.17633000  0.82367000  0.64270000  1
  O  O6  1  0.51648000  0.48352000  0.88233600  1
  O  O7  1  0.03296100  0.51648000  0.38233600  1
  O  O8  1  0.48352000  0.96703900  0.38233600  1
  O  O9  1  0.51648000  0.03296100  0.88233600  1
  O  O10  1  0.00000000  0.00000000  0.35216100  1
  O  O11  1  0.00000000  0.00000000  0.85216100  1
  O  O12  1  0.33333300  0.66666700  0.11011000  1
  O  O13  1  0.96703900  0.48352000  0.88233600  1
  O  O14  1  0.48352000  0.51648000  0.38233600  1
  O  O15  1  0.66666700  0.33333300  0.61011000  1
loop_
_geom_bond_atom_site_label_1
_geom_bond_atom_site_label_2
_geom_bond_distance
_geom_bond_site_symmetry_2
Mg0 O0 2.136523 1_555
Mg0 O4 2.136528 1_555
Mg0 O3 2.136528 1_555
Mg0 O13 2.271040 1_554
Mg0 O9 2.271040 1_554
Mg0 O6 2.271049 1_554
Mg1 O5 2.136523 1_555
Mg1 O2 2.136528 1_555
Mg1 O1 2.136528 1_555
Mg1 O8 2.271040 1_555
Mg1 O7 2.271040 1_555
Mg1 O14 2.271049 1_555
Mg2 O15 2.023665 1_555
Mg2 O7 2.154308 1_655
Mg2 O8 2.154308 1_545
Mg2 O14 2.154308 1_555
Mg3 O12 2.023665 1_556
Mg3 O13 2.154308 1_455
Mg3 O9 2.154308 1_565
Mg3 O6 2.154308 1_555
Bi0 O10 2.221672 1_665
Bi0 O0 2.225287 1_565
Bi0 O3 2.225287 1_555
Bi0 O8 2.313021 1_555
Bi0 O14 2.313025 1_555
Bi0 O12 2.337045 1_555
Bi1 O11 2.221672 1_655
Bi1 O1 2.225287 1_545
Bi1 O2 2.225287 1_655
Bi1 O9 2.313026 1_555
Bi1 O13 2.313026 1_555
Bi1 O15 2.337041 1_555
Bi2 O10 2.221672 1_555
Bi2 O0 2.225287 1_455
Bi2 O4 2.225287 1_555
Bi2 O7 2.313021 1_555
Bi2 O14 2.313025 1_555
Bi2 O12 2.337045 1_555
Bi3 O11 2.221672 1_665
Bi3 O5 2.225287 1_655
Bi3 O1 2.225287 1_555
Bi3 O13 2.313021 1_555
Bi3 O6 2.313025 1_555
Bi3 O15 2.337045 1_555
Bi4 O11 2.221672 1_555
Bi4 O5 2.225287 1_545
Bi4 O2 2.225287 1_555
Bi4 O9 2.313021 1_555
Bi4 O6 2.313025 1_555
Bi4 O15 2.337045 1_555
Bi5 O10 2.221672 1_565
Bi5 O3 2.225287 1_455
Bi5 O4 2.225287 1_565
Bi5 O7 2.313026 1_555
Bi5 O8 2.313026 1_555
Bi5 O12 2.337041 1_555
