# generated using pymatgen
data_Ho3As
_symmetry_space_group_name_H-M   'P 1'
_cell_length_a   6.04169745
_cell_length_b   6.04169745
_cell_length_c   6.04169745
_cell_angle_alpha   136.59099836
_cell_angle_beta   136.59099836
_cell_angle_gamma   63.06795391
_symmetry_Int_Tables_number   1
_chemical_formula_structural   Ho3As
_chemical_formula_sum   'Ho3 As1'
_cell_volume   102.83121261
_cell_formula_units_Z   1
loop_
 _symmetry_equiv_pos_site_id
 _symmetry_equiv_pos_as_xyz
  1  'x, y, z'
loop_
 _atom_site_type_symbol
 _atom_site_label
 _atom_site_symmetry_multiplicity
 _atom_site_fract_x
 _atom_site_fract_y
 _atom_site_fract_z
 _atom_site_occupancy
  Ho  Ho0  1  0.75000000  0.25000000  0.50000000  1
  Ho  Ho1  1  0.25000000  0.75000000  0.50000000  1
  Ho  Ho2  1  0.50000000  0.50000000  0.00000000  1
  As  As0  1  0.00000000  0.00000000  0.00000000  1
loop_
_geom_bond_atom_site_label_1
_geom_bond_atom_site_label_2
_geom_bond_distance
_geom_bond_site_symmetry_2
Ho0 Ho1 3.159833 1_645
Ho0 Ho1 3.159833 1_544
Ho0 Ho1 3.159833 1_656
Ho0 Ho1 3.159833 1_555
Ho0 Ho2 3.409056 1_555
Ho0 Ho2 3.409056 1_656
Ho0 Ho2 3.409056 1_545
Ho0 Ho2 3.409056 1_556
Ho1 Ho2 3.409056 1_555
Ho1 Ho2 3.409056 1_455
Ho1 Ho2 3.409056 1_566
Ho1 Ho2 3.409056 1_556
As0 Ho2 3.159833 1_455
As0 Ho2 3.159833 1_545
As0 Ho2 3.159833 1_556
As0 Ho2 3.159833 1_444
As0 Ho1 3.409056 1_545
As0 Ho0 3.409056 1_455
As0 Ho1 3.409056 1_555
As0 Ho0 3.409056 1_444
As0 Ho0 3.409056 1_454
As0 Ho1 3.409056 1_544
As0 Ho1 3.409056 1_444
As0 Ho0 3.409056 1_555
