# generated using pymatgen
data_Nb6SiGe
_symmetry_space_group_name_H-M   'P 1'
_cell_length_a   5.15402400
_cell_length_b   5.15402400
_cell_length_c   5.15402400
_cell_angle_alpha   90.00000000
_cell_angle_beta   90.00000000
_cell_angle_gamma   90.00000000
_symmetry_Int_Tables_number   1
_chemical_formula_structural   Nb6SiGe
_chemical_formula_sum   'Nb6 Si1 Ge1'
_cell_volume   136.91130486
_cell_formula_units_Z   1
loop_
 _symmetry_equiv_pos_site_id
 _symmetry_equiv_pos_as_xyz
  1  'x, y, z'
loop_
 _atom_site_type_symbol
 _atom_site_label
 _atom_site_symmetry_multiplicity
 _atom_site_fract_x
 _atom_site_fract_y
 _atom_site_fract_z
 _atom_site_occupancy
  Nb  Nb0  1  0.00000000  0.50000000  0.74560200  1
  Nb  Nb1  1  0.50000000  0.25439800  0.00000000  1
  Nb  Nb2  1  0.74560200  0.00000000  0.50000000  1
  Nb  Nb3  1  0.00000000  0.50000000  0.25439800  1
  Nb  Nb4  1  0.50000000  0.74560200  0.00000000  1
  Nb  Nb5  1  0.25439800  0.00000000  0.50000000  1
  Si  Si0  1  0.50000000  0.50000000  0.50000000  1
  Ge  Ge0  1  0.00000000  0.00000000  0.00000000  1
loop_
_geom_bond_atom_site_label_1
_geom_bond_atom_site_label_2
_geom_bond_distance
_geom_bond_site_symmetry_2
Nb0 Nb3 2.531677 1_555
Nb0 Nb3 2.622347 1_556
Nb0 Si0 2.871121 1_455
Nb0 Si0 2.871121 1_555
Nb0 Nb5 3.156345 1_555
Nb0 Nb5 3.156345 1_565
Nb0 Nb2 3.156345 1_455
Nb0 Nb4 3.156345 1_456
Nb0 Nb1 3.156345 1_556
Nb0 Nb1 3.156345 1_456
Nb0 Nb4 3.156345 1_556
Nb0 Nb2 3.156345 1_465
Nb1 Nb4 2.531677 1_555
Nb1 Nb4 2.622347 1_545
Nb1 Si0 2.871121 1_554
Nb1 Si0 2.871121 1_555
Nb1 Nb2 3.156345 1_555
Nb1 Nb3 3.156345 1_655
Nb1 Nb2 3.156345 1_554
Nb1 Nb5 3.156345 1_554
Nb1 Nb5 3.156345 1_555
Nb1 Nb3 3.156345 1_555
Nb2 Nb5 2.531677 1_555
Nb2 Nb5 2.622347 1_655
Nb2 Si0 2.871121 1_555
Nb2 Si0 2.871121 1_545
Nb2 Nb3 3.156345 1_655
Nb2 Nb4 3.156345 1_546
Nb2 Nb3 3.156345 1_645
Nb2 Nb4 3.156345 1_545
Nb3 Si0 2.871121 1_455
Nb3 Si0 2.871121 1_555
Nb3 Nb5 3.156345 1_555
Nb3 Nb5 3.156345 1_565
Nb3 Nb4 3.156345 1_455
Nb3 Nb4 3.156345 1_555
Nb4 Si0 2.871121 1_554
Nb4 Si0 2.871121 1_555
Nb4 Nb5 3.156345 1_565
Nb4 Nb5 3.156345 1_564
Nb5 Si0 2.871121 1_555
Nb5 Si0 2.871121 1_545
Ge0 Nb0 2.891395 1_544
Ge0 Nb1 2.891395 1_555
Ge0 Nb4 2.891395 1_445
Ge0 Nb0 2.891395 1_554
Ge0 Nb3 2.891395 1_555
Ge0 Nb1 2.891395 1_455
Ge0 Nb3 2.891395 1_545
Ge0 Nb4 2.891395 1_545
Ge0 Nb2 2.891395 1_454
Ge0 Nb5 2.891395 1_555
Ge0 Nb2 2.891395 1_455
Ge0 Nb5 2.891395 1_554
