# generated using pymatgen
data_NpZn(OF2)3
_symmetry_space_group_name_H-M   'P 1'
_cell_length_a   6.88338800
_cell_length_b   6.88338800
_cell_length_c   9.17365211
_cell_angle_alpha   79.62120375
_cell_angle_beta   79.62120375
_cell_angle_gamma   62.84635773
_symmetry_Int_Tables_number   1
_chemical_formula_structural   NpZn(OF2)3
_chemical_formula_sum   'Np2 Zn2 O6 F12'
_cell_volume   378.03462552
_cell_formula_units_Z   2
loop_
 _symmetry_equiv_pos_site_id
 _symmetry_equiv_pos_as_xyz
  1  'x, y, z'
loop_
 _atom_site_type_symbol
 _atom_site_label
 _atom_site_symmetry_multiplicity
 _atom_site_fract_x
 _atom_site_fract_y
 _atom_site_fract_z
 _atom_site_occupancy
  Np  Np0  1  0.26683000  0.73317000  0.00000000  1
  Np  Np1  1  0.48140200  0.51859800  0.50000000  1
  Zn  Zn0  1  0.37955900  0.14396000  0.24555600  1
  Zn  Zn1  1  0.85604000  0.62044100  0.75444400  1
  O  O0  1  0.73329200  0.26670800  0.50000000  1
  O  O1  1  0.07519200  0.27243500  0.23149800  1
  O  O2  1  0.72756500  0.92480800  0.76850200  1
  O  O3  1  0.67542800  0.94735000  0.26234600  1
  O  O4  1  0.05265000  0.32457200  0.73765400  1
  O  O5  1  0.01425900  0.98574100  0.00000000  1
  F  F0  1  0.34306100  0.85781700  0.43539200  1
  F  F1  1  0.14218300  0.65693900  0.56460800  1
  F  F2  1  0.41701900  0.38628800  0.07460400  1
  F  F3  1  0.61371200  0.58298100  0.92539600  1
  F  F4  1  0.36562700  0.31718400  0.41707800  1
  F  F5  1  0.68281600  0.63437300  0.58292200  1
  F  F6  1  0.59378200  0.55375900  0.27778600  1
  F  F7  1  0.44624100  0.40621800  0.72221400  1
  F  F8  1  0.16120900  0.70225900  0.22318400  1
  F  F9  1  0.29774100  0.83879100  0.77681600  1
  F  F10  1  0.39095100  0.92834800  0.06891500  1
  F  F11  1  0.07165200  0.60904900  0.93108500  1
loop_
_geom_bond_atom_site_label_1
_geom_bond_atom_site_label_2
_geom_bond_distance
_geom_bond_site_symmetry_2
Np0 O5 1.812797 1_555
Np1 O0 1.807909 1_555
O1 Zn0 1.884986 1_555
O2 Zn1 1.884986 1_555
O3 Zn0 1.877527 1_565
O4 Zn1 1.877527 1_455
F0 Np1 2.094133 1_555
F0 F1 2.406854 1_555
F0 Zn0 2.456314 1_565
F0 F6 2.518653 1_555
F0 F5 2.602664 1_555
F0 O3 2.785641 1_555
F1 Np1 2.094133 1_555
F1 Zn1 2.456314 1_455
F1 F7 2.518653 1_555
F1 F4 2.602664 1_555
F1 O4 2.785641 1_555
F2 Zn0 2.147697 1_555
F2 Np0 2.156714 1_555
F2 F3 2.424341 1_554
F2 F8 2.529140 1_555
F3 Zn1 2.147697 1_555
F3 Np0 2.156714 1_556
F3 F9 2.529140 1_555
F4 Zn0 2.103343 1_555
F4 Np1 2.177792 1_555
F4 O0 2.626797 1_555
F4 F6 2.759080 1_555
F4 F8 2.822815 1_555
F4 O3 2.880844 1_545
F5 Zn1 2.103343 1_555
F5 Np1 2.177792 1_555
F5 O0 2.626797 1_555
F5 F7 2.759080 1_555
F5 F9 2.822815 1_555
F5 O4 2.880844 1_655
F6 Np1 2.058506 1_555
F6 O0 2.550292 1_555
F6 F8 2.781455 1_555
F7 Np1 2.058506 1_555
F7 O0 2.550292 1_555
F7 F9 2.781455 1_555
F8 Np0 2.052716 1_555
F8 O5 2.554959 1_555
F9 Np0 2.052716 1_556
F9 O5 2.554959 1_556
F10 Np0 2.117293 1_555
F10 Zn0 2.355670 1_565
F10 F3 2.609456 1_554
F10 O5 2.616225 1_555
F10 F8 2.751729 1_555
F10 O1 2.822113 1_565
F10 F6 2.857800 1_555
F10 O3 2.927394 1_555
F11 Np0 2.117293 1_556
F11 Zn1 2.355670 1_455
F11 F2 2.609456 1_556
F11 O5 2.616225 1_556
F11 F9 2.751729 1_555
F11 O2 2.822113 1_455
F11 F7 2.857800 1_555
F11 O4 2.927394 1_555
