# generated using pymatgen
data_CsEr(MoO4)2
_symmetry_space_group_name_H-M   'P 1'
_cell_length_a   5.08825300
_cell_length_b   8.10583400
_cell_length_c   9.62821500
_cell_angle_alpha   90.00000000
_cell_angle_beta   90.00000000
_cell_angle_gamma   90.00000000
_symmetry_Int_Tables_number   1
_chemical_formula_structural   CsEr(MoO4)2
_chemical_formula_sum   'Cs2 Er2 Mo4 O16'
_cell_volume   397.11124254
_cell_formula_units_Z   2
loop_
 _symmetry_equiv_pos_site_id
 _symmetry_equiv_pos_as_xyz
  1  'x, y, z'
loop_
 _atom_site_type_symbol
 _atom_site_label
 _atom_site_symmetry_multiplicity
 _atom_site_fract_x
 _atom_site_fract_y
 _atom_site_fract_z
 _atom_site_occupancy
  Cs  Cs0  1  0.00000000  0.25000000  0.50000000  1
  Cs  Cs1  1  0.00000000  0.75000000  0.50000000  1
  Er  Er0  1  0.00000000  0.25000000  0.00000000  1
  Er  Er1  1  0.00000000  0.75000000  0.00000000  1
  Mo  Mo0  1  0.52282100  0.00000000  0.19402600  1
  Mo  Mo1  1  0.47717900  0.00000000  0.80597400  1
  Mo  Mo2  1  0.47717900  0.50000000  0.19402600  1
  Mo  Mo3  1  0.52282100  0.50000000  0.80597400  1
  O  O0  1  0.24742000  0.00000000  0.06558600  1
  O  O1  1  0.75258000  0.00000000  0.93441400  1
  O  O2  1  0.75258000  0.50000000  0.06558600  1
  O  O3  1  0.24742000  0.50000000  0.93441400  1
  O  O4  1  0.25781300  0.32428700  0.18447200  1
  O  O5  1  0.74218700  0.67571300  0.81552800  1
  O  O6  1  0.74218700  0.32428700  0.81552800  1
  O  O7  1  0.74218700  0.17571300  0.18447200  1
  O  O8  1  0.25781300  0.67571300  0.18447200  1
  O  O9  1  0.25781300  0.82428700  0.81552800  1
  O  O10  1  0.25781300  0.17571300  0.81552800  1
  O  O11  1  0.74218700  0.82428700  0.18447200  1
  O  O12  1  0.38637300  0.00000000  0.36108200  1
  O  O13  1  0.61362700  0.00000000  0.63891800  1
  O  O14  1  0.61362700  0.50000000  0.36108200  1
  O  O15  1  0.38637300  0.50000000  0.63891800  1
loop_
_geom_bond_atom_site_label_1
_geom_bond_atom_site_label_2
_geom_bond_distance
_geom_bond_site_symmetry_2
Cs0 O15 3.124186 1_555
Cs0 O12 3.124186 1_555
Cs0 O13 3.124186 1_455
Cs0 O14 3.124186 1_455
Cs0 O10 3.363440 1_555
Cs0 O6 3.363440 1_455
Cs0 O4 3.363440 1_555
Cs0 O7 3.363440 1_455
Cs1 O15 3.124186 1_555
Cs1 O12 3.124186 1_565
Cs1 O13 3.124186 1_465
Cs1 O14 3.124186 1_455
Cs1 O9 3.363440 1_555
Cs1 O5 3.363440 1_455
Cs1 O8 3.363440 1_555
Cs1 O11 3.363440 1_455
Er0 O4 2.288694 1_555
Er0 O7 2.288694 1_455
Er0 O10 2.288694 1_554
Er0 O6 2.288694 1_454
Er0 O2 2.467836 1_455
Er0 O0 2.467836 1_555
Er0 O1 2.467836 1_454
Er0 O3 2.467836 1_554
Er1 O8 2.288694 1_555
Er1 O11 2.288694 1_455
Er1 O9 2.288694 1_554
Er1 O5 2.288694 1_454
Er1 O2 2.467836 1_455
Er1 O0 2.467836 1_565
Er1 O1 2.467836 1_464
Er1 O3 2.467836 1_554
Mo0 O12 1.751897 1_555
Mo0 O7 1.811898 1_555
Mo0 O11 1.811898 1_545
Mo0 O0 1.868948 1_555
Mo1 O13 1.751897 1_555
Mo1 O10 1.811898 1_555
Mo1 O9 1.811898 1_545
Mo1 O1 1.868948 1_555
Mo2 O14 1.751897 1_555
Mo2 O4 1.811898 1_555
Mo2 O8 1.811898 1_555
Mo2 O2 1.868948 1_555
Mo3 O15 1.751897 1_555
Mo3 O6 1.811898 1_555
Mo3 O5 1.811898 1_555
Mo3 O3 1.868948 1_555
