# generated using pymatgen
data_NaH3(SeO3)2
_symmetry_space_group_name_H-M   'P 1'
_cell_length_a   4.88741200
_cell_length_b   5.84045000
_cell_length_c   11.89189298
_cell_angle_alpha   62.02779098
_cell_angle_beta   90.00000000
_cell_angle_gamma   90.00000000
_symmetry_Int_Tables_number   1
_chemical_formula_structural   NaH3(SeO3)2
_chemical_formula_sum   'Na2 H6 Se4 O12'
_cell_volume   299.79412666
_cell_formula_units_Z   2
loop_
 _symmetry_equiv_pos_site_id
 _symmetry_equiv_pos_as_xyz
  1  'x, y, z'
loop_
 _atom_site_type_symbol
 _atom_site_label
 _atom_site_symmetry_multiplicity
 _atom_site_fract_x
 _atom_site_fract_y
 _atom_site_fract_z
 _atom_site_occupancy
  Na  Na0  1  0.75301300  0.99366000  0.49984900  1
  Na  Na1  1  0.24698700  0.99366000  0.99984900  1
  H  H0  1  0.24980500  0.74182400  0.67286800  1
  H  H1  1  0.75019500  0.74182400  0.17286800  1
  H  H2  1  0.22233100  0.27228000  0.33119100  1
  H  H3  1  0.77766900  0.27228000  0.83119100  1
  H  H4  1  0.71971300  0.47045500  0.51330100  1
  H  H5  1  0.28028700  0.47045500  0.01330100  1
  Se  Se0  1  0.35986600  0.33604100  0.67215100  1
  Se  Se1  1  0.64013400  0.33604100  0.17215100  1
  Se  Se2  1  0.13284900  0.66866200  0.33057500  1
  Se  Se3  1  0.86715100  0.66866200  0.83057500  1
  O  O0  1  0.05800000  0.66699600  0.94962900  1
  O  O1  1  0.94200000  0.66699600  0.44962900  1
  O  O2  1  0.43227900  0.32754500  0.04978000  1
  O  O3  1  0.56772100  0.32754500  0.54978000  1
  O  O4  1  0.55233400  0.64871700  0.14676600  1
  O  O5  1  0.44766600  0.64871700  0.64676600  1
  O  O6  1  0.95270400  0.34681300  0.85354500  1
  O  O7  1  0.04729600  0.34681300  0.35354500  1
  O  O8  1  0.53611300  0.14411600  0.80647100  1
  O  O9  1  0.46388700  0.14411600  0.30647100  1
  O  O10  1  0.94554800  0.84999000  0.19187200  1
  O  O11  1  0.05445200  0.84999000  0.69187200  1
loop_
_geom_bond_atom_site_label_1
_geom_bond_atom_site_label_2
_geom_bond_distance
_geom_bond_site_symmetry_2
Na0 O1 2.432818 1_555
Na0 O7 2.446124 1_665
Na0 O5 2.456908 1_555
Na0 O3 2.462016 1_565
Na0 O9 2.482260 1_565
Na0 O11 2.508298 1_655
Na1 O0 2.432818 1_555
Na1 O6 2.446124 1_465
Na1 O4 2.456908 1_556
Na1 O2 2.462016 1_566
Na1 O8 2.482260 1_565
Na1 O10 2.508298 1_456
H0 O5 1.218827 1_555
H0 O11 1.222981 1_555
H1 O4 1.218827 1_555
H1 O10 1.222981 1_555
H2 O7 1.049065 1_555
H2 O9 1.498973 1_555
H3 O6 1.049065 1_555
H3 O8 1.498973 1_555
H4 O3 1.047379 1_555
H4 O1 1.501967 1_555
H5 O2 1.047379 1_555
H5 O0 1.501967 1_554
O0 Se3 1.691637 1_455
O1 Se2 1.691637 1_655
O2 Se1 1.794400 1_555
O3 Se0 1.794400 1_555
O4 Se1 1.758697 1_555
O5 Se0 1.758697 1_555
O6 Se3 1.816923 1_555
O7 Se2 1.816923 1_555
O8 Se0 1.694190 1_555
O9 Se1 1.694190 1_555
O10 Se2 1.744000 1_655
O11 Se3 1.744000 1_455
