# generated using pymatgen
data_Ca(AlH4)2
_symmetry_space_group_name_H-M   'P 1'
_cell_length_a   3.60002400
_cell_length_b   10.37529968
_cell_length_c   10.37529968
_cell_angle_alpha   119.99999795
_cell_angle_beta   90.00000000
_cell_angle_gamma   90.00000000
_symmetry_Int_Tables_number   1
_chemical_formula_structural   Ca(AlH4)2
_chemical_formula_sum   'Ca3 Al6 H24'
_cell_volume   335.61188804
_cell_formula_units_Z   3
loop_
 _symmetry_equiv_pos_site_id
 _symmetry_equiv_pos_as_xyz
  1  'x, y, z'
loop_
 _atom_site_type_symbol
 _atom_site_label
 _atom_site_symmetry_multiplicity
 _atom_site_fract_x
 _atom_site_fract_y
 _atom_site_fract_z
 _atom_site_occupancy
  Ca  Ca0  1  0.00000000  0.00000000  0.00000000  1
  Ca  Ca1  1  0.50000000  0.66666700  0.33333300  1
  Ca  Ca2  1  0.50000000  0.33333300  0.66666700  1
  Al  Al0  1  0.50000000  0.71815700  0.71815700  1
  Al  Al1  1  0.50000000  0.00000000  0.28184300  1
  Al  Al2  1  0.50000000  0.28184300  0.00000000  1
  Al  Al3  1  0.00000000  0.38902000  0.38902000  1
  Al  Al4  1  0.00000000  0.00000000  0.61098000  1
  Al  Al5  1  0.00000000  0.61098000  0.00000000  1
  H  H0  1  0.50000000  0.84045200  0.27164300  1
  H  H1  1  0.50000000  0.43119100  0.15954800  1
  H  H2  1  0.50000000  0.56880900  0.72835700  1
  H  H3  1  0.50000000  0.72835700  0.56880900  1
  H  H4  1  0.50000000  0.27164300  0.84045200  1
  H  H5  1  0.50000000  0.15954800  0.43119100  1
  H  H6  1  0.00000000  0.72916800  0.72916800  1
  H  H7  1  0.00000000  0.00000000  0.27083200  1
  H  H8  1  0.00000000  0.27083200  0.00000000  1
  H  H9  1  0.50000000  0.87600200  0.87600200  1
  H  H10  1  0.50000000  0.00000000  0.12399800  1
  H  H11  1  0.50000000  0.12399800  0.00000000  1
  H  H12  1  0.50000000  0.40864600  0.40864600  1
  H  H13  1  0.50000000  0.00000000  0.59135400  1
  H  H14  1  0.50000000  0.59135400  0.00000000  1
  H  H15  1  0.00000000  0.23278200  0.23278200  1
  H  H16  1  0.00000000  0.00000000  0.76721800  1
  H  H17  1  0.00000000  0.76721800  0.00000000  1
  H  H18  1  0.00000000  0.83363900  0.45426300  1
  H  H19  1  0.00000000  0.62062400  0.16636100  1
  H  H20  1  0.00000000  0.37937600  0.54573700  1
  H  H21  1  0.00000000  0.54573700  0.37937600  1
  H  H22  1  0.00000000  0.45426300  0.83363900  1
  H  H23  1  0.00000000  0.16636100  0.62062400  1
loop_
_geom_bond_atom_site_label_1
_geom_bond_atom_site_label_2
_geom_bond_distance
_geom_bond_site_symmetry_2
Ca0 H10 2.212503 1_555
Ca0 H11 2.212503 1_555
Ca0 H11 2.212503 1_455
Ca0 H10 2.212503 1_455
Ca0 H9 2.212503 1_544
Ca0 H9 2.212503 1_444
Ca0 H17 2.415183 1_545
Ca0 H16 2.415183 1_554
Ca0 H15 2.415183 1_555
Ca1 H0 2.194264 1_555
Ca1 H1 2.194271 1_555
Ca1 H3 2.194274 1_555
Ca1 H19 2.375253 1_655
Ca1 H19 2.375253 1_555
Ca1 H18 2.375255 1_655
Ca1 H18 2.375255 1_555
Ca1 H21 2.375260 1_655
Ca1 H21 2.375260 1_555
Ca2 H4 2.194264 1_555
Ca2 H5 2.194271 1_555
Ca2 H2 2.194274 1_555
Ca2 H23 2.375253 1_555
Ca2 H23 2.375253 1_655
Ca2 H22 2.375255 1_655
Ca2 H22 2.375255 1_555
Ca2 H20 2.375260 1_655
Ca2 H20 2.375260 1_555
Al0 H3 1.605063 1_555
Al0 H2 1.605063 1_555
Al0 H9 1.637689 1_555
Al0 H6 1.803634 1_655
Al0 H6 1.803634 1_555
Al1 H0 1.605063 1_545
Al1 H5 1.605063 1_555
Al1 H10 1.637689 1_555
Al1 H7 1.803634 1_555
Al1 H7 1.803634 1_655
Al2 H4 1.605063 1_554
Al2 H1 1.605063 1_555
Al2 H11 1.637689 1_555
Al2 H8 1.803634 1_555
Al2 H8 1.803634 1_655
Al3 H15 1.621016 1_555
Al3 H21 1.678254 1_555
Al3 H20 1.678254 1_555
Al3 H12 1.811493 1_555
Al3 H12 1.811493 1_455
Al4 H16 1.621016 1_555
Al4 H23 1.678254 1_555
Al4 H18 1.678254 1_545
Al4 H13 1.811493 1_555
Al4 H13 1.811493 1_455
Al5 H17 1.621016 1_555
Al5 H19 1.678254 1_555
Al5 H22 1.678254 1_554
Al5 H14 1.811493 1_455
Al5 H14 1.811493 1_555
H0 H7 2.448317 1_665
H0 H7 2.448317 1_565
H1 H8 2.448317 1_655
H1 H8 2.448317 1_555
H2 H6 2.448317 1_555
H2 H6 2.448317 1_655
H3 H6 2.448317 1_555
H3 H6 2.448317 1_655
H4 H8 2.448317 1_556
H4 H8 2.448317 1_656
H5 H7 2.448317 1_555
H5 H7 2.448317 1_655
H6 H9 2.358163 1_455
H6 H9 2.358163 1_555
H10 H11 2.228312 1_555
H10 H9 2.228312 1_544
H10 H7 2.358163 1_555
H10 H7 2.358163 1_655
H11 H9 2.228312 1_544
H11 H8 2.358163 1_555
H11 H8 2.358163 1_655
H12 H20 2.405686 1_555
H12 H21 2.405686 1_655
H12 H21 2.405686 1_555
H12 H20 2.405686 1_655
H13 H23 2.405686 1_655
H13 H23 2.405686 1_555
H13 H18 2.405686 1_545
H13 H18 2.405686 1_645
H14 H19 2.405686 1_655
H14 H19 2.405686 1_555
H14 H22 2.405686 1_654
H14 H22 2.405686 1_554
