# generated using pymatgen
data_Ga9Ir2
_symmetry_space_group_name_H-M   'P 1'
_cell_length_a   6.41979742
_cell_length_b   6.40778196
_cell_length_c   8.80186242
_cell_angle_alpha   90.00000000
_cell_angle_beta   93.09352773
_cell_angle_gamma   90.00000000
_symmetry_Int_Tables_number   1
_chemical_formula_structural   Ga9Ir2
_chemical_formula_sum   'Ga18 Ir4'
_cell_volume   361.55160857
_cell_formula_units_Z   2
loop_
 _symmetry_equiv_pos_site_id
 _symmetry_equiv_pos_as_xyz
  1  'x, y, z'
loop_
 _atom_site_type_symbol
 _atom_site_label
 _atom_site_symmetry_multiplicity
 _atom_site_fract_x
 _atom_site_fract_y
 _atom_site_fract_z
 _atom_site_occupancy
  Ga  Ga0  1  -0.00000000  0.50000000  0.50000000  1
  Ga  Ga1  1  -0.00000000  -0.00000000  0.00000000  1
  Ga  Ga2  1  0.60326893  0.49491076  0.22630376  1
  Ga  Ga3  1  0.39673107  0.99491076  0.27369624  1
  Ga  Ga4  1  0.39673107  0.50508924  0.77369624  1
  Ga  Ga5  1  0.60326893  0.00508924  0.72630376  1
  Ga  Ga6  1  0.89655883  0.78776996  0.27891929  1
  Ga  Ga7  1  0.10344117  0.28776996  0.22108071  1
  Ga  Ga8  1  0.10344117  0.21223004  0.72108071  1
  Ga  Ga9  1  0.89655883  0.71223004  0.77891929  1
  Ga  Ga10  1  0.60900633  0.69342350  0.50215283  1
  Ga  Ga11  1  0.39099367  0.19342350  0.99784717  1
  Ga  Ga12  1  0.39099367  0.30657650  0.49784717  1
  Ga  Ga13  1  0.60900633  0.80657650  0.00215283  1
  Ga  Ga14  1  0.78644821  0.10160804  0.45840357  1
  Ga  Ga15  1  0.21355179  0.60160804  0.04159643  1
  Ga  Ga16  1  0.21355179  0.89839196  0.54159643  1
  Ga  Ga17  1  0.78644821  0.39839196  0.95840357  1
  Ir  Ir0  1  0.73928130  0.12919401  0.16847656  1
  Ir  Ir1  1  0.26071870  0.62919401  0.33152344  1
  Ir  Ir2  1  0.26071870  0.87080599  0.83152344  1
  Ir  Ir3  1  0.73928130  0.37080599  0.66847656  1
loop_
_geom_bond_atom_site_label_1
_geom_bond_atom_site_label_2
_geom_bond_distance
_geom_bond_site_symmetry_2
Ga0 Ir1 2.440023 1_555
Ga0 Ir3 2.440023 1_455
Ga0 Ga6 2.736484 1_455
Ga0 Ga8 2.736484 1_555
Ga0 Ga10 2.800401 1_455
Ga0 Ga12 2.800401 1_555
Ga0 Ga16 2.911397 1_555
Ga0 Ga14 2.911397 1_455
Ga0 Ga7 2.914347 1_555
Ga0 Ga9 2.914347 1_455
Ga1 Ir2 2.440023 1_544
Ga1 Ir0 2.440023 1_455
Ga1 Ga7 2.736484 1_555
Ga1 Ga9 2.736484 1_444
Ga1 Ga11 2.800401 1_554
Ga1 Ga13 2.800401 1_445
Ga1 Ga15 2.911397 1_545
Ga1 Ga17 2.911397 1_454
Ga1 Ga8 2.914347 1_554
Ga1 Ga6 2.914347 1_445
Ga2 Ir0 2.561473 1_555
Ga2 Ir1 2.579530 1_555
Ga2 Ga6 2.680872 1_555
Ga3 Ir1 2.561473 1_555
Ga3 Ir0 2.579530 1_565
Ga3 Ga7 2.680872 1_565
Ga4 Ir2 2.561473 1_555
Ga4 Ir3 2.579530 1_555
Ga4 Ga8 2.680872 1_555
Ga5 Ir3 2.561473 1_555
Ga5 Ir2 2.579530 1_545
Ga5 Ga9 2.680872 1_545
Ga6 Ir1 2.568173 1_655
Ga6 Ir0 2.577762 1_565
Ga7 Ir0 2.568173 1_455
Ga7 Ir1 2.577762 1_555
Ga8 Ir3 2.568173 1_455
Ga8 Ir2 2.577762 1_545
Ga9 Ir2 2.568173 1_655
Ga9 Ir3 2.577762 1_555
Ga10 Ir3 2.642738 1_555
Ga10 Ir1 2.657429 1_555
Ga10 Ga2 2.739502 1_555
Ga10 Ga5 2.808926 1_565
Ga10 Ga6 2.832934 1_555
Ga10 Ga12 2.845907 1_555
Ga10 Ga14 2.886938 1_565
Ga10 Ga16 2.895834 1_555
Ga10 Ga9 2.978483 1_555
Ga10 Ga3 3.055643 1_555
Ga10 Ga4 3.062282 1_555
Ga11 Ir2 2.642738 1_545
Ga11 Ir0 2.657429 1_556
Ga11 Ga3 2.739502 1_546
Ga11 Ga4 2.808926 1_555
Ga11 Ga7 2.832934 1_556
Ga11 Ga13 2.845907 1_546
Ga11 Ga15 2.886938 1_556
Ga11 Ga17 2.895834 1_555
Ga11 Ga8 2.978483 1_555
Ga11 Ga2 3.055643 1_556
Ga11 Ga5 3.062282 1_555
Ga12 Ir1 2.642738 1_555
Ga12 Ir3 2.657429 1_555
Ga12 Ga4 2.739502 1_555
Ga12 Ga3 2.808926 1_545
Ga12 Ga8 2.832934 1_555
Ga12 Ga16 2.886938 1_545
Ga12 Ga14 2.895834 1_555
Ga12 Ga7 2.978483 1_555
Ga12 Ga5 3.055643 1_555
Ga12 Ga2 3.062282 1_555
Ga13 Ir0 2.642738 1_565
Ga13 Ir2 2.657429 1_554
Ga13 Ga5 2.739502 1_564
Ga13 Ga2 2.808926 1_555
Ga13 Ga9 2.832934 1_554
Ga13 Ga17 2.886938 1_554
Ga13 Ga15 2.895834 1_555
Ga13 Ga6 2.978483 1_555
Ga13 Ga4 3.055643 1_554
Ga13 Ga3 3.062282 1_555
Ga14 Ir3 2.558620 1_555
Ga14 Ir0 2.559632 1_555
Ga14 Ga6 2.675841 1_545
Ga14 Ga5 2.761336 1_555
Ga14 Ga3 2.988490 1_545
Ga14 Ga8 3.079211 1_655
Ga14 Ga16 3.087594 1_645
Ga14 Ga7 3.222820 1_655
Ga15 Ir2 2.558620 1_554
Ga15 Ir1 2.559632 1_555
Ga15 Ga7 2.675841 1_555
Ga15 Ga4 2.761336 1_554
Ga15 Ga2 2.988490 1_555
Ga15 Ga9 3.079211 1_454
Ga15 Ga17 3.087594 1_454
Ga15 Ga6 3.222820 1_455
Ga16 Ir1 2.558620 1_555
Ga16 Ir2 2.559632 1_555
Ga16 Ga8 2.675841 1_565
Ga16 Ga3 2.761336 1_555
Ga16 Ga5 2.988490 1_565
Ga16 Ga6 3.079211 1_455
Ga16 Ga9 3.222820 1_455
Ga17 Ir0 2.558620 1_556
Ga17 Ir3 2.559632 1_555
Ga17 Ga9 2.675841 1_555
Ga17 Ga2 2.761336 1_556
Ga17 Ga4 2.988490 1_555
Ga17 Ga7 3.079211 1_656
Ga17 Ga8 3.222820 1_655
