# generated using pymatgen
data_Rb2Li(TcO4)2
_symmetry_space_group_name_H-M   'P 1'
_cell_length_a   7.93306232
_cell_length_b   5.70256818
_cell_length_c   6.30375421
_cell_angle_alpha   98.03138284
_cell_angle_beta   109.15700061
_cell_angle_gamma   107.75070324
_symmetry_Int_Tables_number   1
_chemical_formula_structural   Rb2Li(TcO4)2
_chemical_formula_sum   'Rb2 Li1 Tc2 O8'
_cell_volume   247.27870188
_cell_formula_units_Z   1
loop_
 _symmetry_equiv_pos_site_id
 _symmetry_equiv_pos_as_xyz
  1  'x, y, z'
loop_
 _atom_site_type_symbol
 _atom_site_label
 _atom_site_symmetry_multiplicity
 _atom_site_fract_x
 _atom_site_fract_y
 _atom_site_fract_z
 _atom_site_occupancy
  Rb  Rb0  1  0.25985200  0.59372200  0.45657200  1
  Rb  Rb1  1  0.70334500  0.31374000  0.57232700  1
  Li  Li0  1  0.11751700  0.71909200  0.97485200  1
  Tc  Tc0  1  0.76523500  0.84471700  0.12121800  1
  Tc  Tc1  1  0.23891000  0.16066100  0.87364600  1
  O  O0  1  0.91393000  0.67652500  0.09220800  1
  O  O1  1  0.32485800  0.08099300  0.14351000  1
  O  O2  1  0.61027100  0.69143000  0.24569700  1
  O  O3  1  0.90460100  0.15500800  0.29975800  1
  O  O4  1  0.06472300  0.85126300  0.69667900  1
  O  O5  1  0.39633400  0.25585200  0.73242300  1
  O  O6  1  0.63608400  0.86410000  0.84440200  1
  O  O7  1  0.13934400  0.39706400  0.91546000  1
loop_
_geom_bond_atom_site_label_1
_geom_bond_atom_site_label_2
_geom_bond_distance
_geom_bond_site_symmetry_2
Li0 O7 1.893882 1_555
Li0 O0 1.951908 1_456
Li0 O4 1.974377 1_555
Li0 O1 2.065016 1_566
Li0 Rb0 3.139394 1_556
O0 Tc0 1.768410 1_555
O0 Rb0 3.160005 1_655
O0 Rb1 3.196209 1_554
O1 Tc1 1.791313 1_554
O1 Rb1 3.053624 1_555
O1 Rb0 3.561533 1_555
O1 Rb0 3.634302 1_545
O2 Tc0 1.749470 1_555
O2 Rb1 3.261071 1_555
O2 Rb0 3.390153 1_555
O2 Rb1 3.569468 1_565
O3 Tc0 1.747570 1_545
O3 Rb0 2.891360 1_655
O3 Rb1 2.927063 1_555
O4 Tc1 1.794044 1_565
O4 Rb0 3.024375 1_555
O4 Rb1 3.274821 1_455
O5 Tc1 1.760162 1_555
O5 Rb1 2.876693 1_555
O5 Rb0 2.980077 1_555
O5 Rb0 3.590249 1_545
O6 Tc0 1.748274 1_556
O6 Rb0 2.934986 1_555
O6 Rb1 3.285744 1_565
O6 Rb1 3.632335 1_555
O7 Tc1 1.788119 1_555
O7 Rb0 3.153399 1_556
O7 Rb1 3.266232 1_455
O7 Rb0 3.550658 1_555
