# generated using pymatgen
data_Ta2AgS4
_symmetry_space_group_name_H-M   'P 1'
_cell_length_a   6.76187120
_cell_length_b   6.76187120
_cell_length_c   28.01768000
_cell_angle_alpha   90.00000000
_cell_angle_beta   90.00000000
_cell_angle_gamma   119.99999213
_symmetry_Int_Tables_number   1
_chemical_formula_structural   Ta2AgS4
_chemical_formula_sum   'Ta16 Ag8 S32'
_cell_volume   1109.42161860
_cell_formula_units_Z   8
loop_
 _symmetry_equiv_pos_site_id
 _symmetry_equiv_pos_as_xyz
  1  'x, y, z'
loop_
 _atom_site_type_symbol
 _atom_site_label
 _atom_site_symmetry_multiplicity
 _atom_site_fract_x
 _atom_site_fract_y
 _atom_site_fract_z
 _atom_site_occupancy
  Ta  Ta0_0  1  0.00000000  0.00000000  0.12137000  1
  Ta  Ta0_1  1  0.00000000  0.00000000  0.62137000  1
  Ta  Ta0_2  1  0.00000000  0.50000000  0.12137000  1
  Ta  Ta0_3  1  0.00000000  0.50000000  0.62137000  1
  Ta  Ta0_4  1  0.50000000  0.00000000  0.12137000  1
  Ta  Ta0_5  1  0.50000000  0.00000000  0.62137000  1
  Ta  Ta0_6  1  0.50000000  0.50000000  0.12137000  1
  Ta  Ta0_7  1  0.50000000  0.50000000  0.62137000  1
  Ta  Ta1_0  1  0.00000000  0.00000000  0.37863000  1
  Ta  Ta1_1  1  0.00000000  0.00000000  0.87863000  1
  Ta  Ta1_2  1  0.00000000  0.50000000  0.37863000  1
  Ta  Ta1_3  1  0.00000000  0.50000000  0.87863000  1
  Ta  Ta1_4  1  0.50000000  0.00000000  0.37863000  1
  Ta  Ta1_5  1  0.50000000  0.00000000  0.87863000  1
  Ta  Ta1_6  1  0.50000000  0.50000000  0.37863000  1
  Ta  Ta1_7  1  0.50000000  0.50000000  0.87863000  1
  Ag  Ag0_0  1  0.00000000  0.00000000  0.25000000  1
  Ag  Ag0_1  1  0.00000000  0.00000000  0.75000000  1
  Ag  Ag0_2  1  0.00000000  0.50000000  0.25000000  1
  Ag  Ag0_3  1  0.00000000  0.50000000  0.75000000  1
  Ag  Ag0_4  1  0.50000000  0.00000000  0.25000000  1
  Ag  Ag0_5  1  0.50000000  0.00000000  0.75000000  1
  Ag  Ag0_6  1  0.50000000  0.50000000  0.25000000  1
  Ag  Ag0_7  1  0.50000000  0.50000000  0.75000000  1
  S  S0_0  1  0.33333350  0.16666650  0.17763600  1
  S  S0_1  1  0.33333350  0.16666650  0.67763600  1
  S  S0_2  1  0.33333350  0.66666650  0.17763600  1
  S  S0_3  1  0.33333350  0.66666650  0.67763600  1
  S  S0_4  1  0.83333350  0.16666650  0.17763600  1
  S  S0_5  1  0.83333350  0.16666650  0.67763600  1
  S  S0_6  1  0.83333350  0.66666650  0.17763600  1
  S  S0_7  1  0.83333350  0.66666650  0.67763600  1
  S  S1_0  1  0.16666650  0.33333350  0.32236400  1
  S  S1_1  1  0.16666650  0.33333350  0.82236400  1
  S  S1_2  1  0.16666650  0.83333350  0.32236400  1
  S  S1_3  1  0.16666650  0.83333350  0.82236400  1
  S  S1_4  1  0.66666650  0.33333350  0.32236400  1
  S  S1_5  1  0.66666650  0.33333350  0.82236400  1
  S  S1_6  1  0.66666650  0.83333350  0.32236400  1
  S  S1_7  1  0.66666650  0.83333350  0.82236400  1
  S  S2_0  1  0.16666650  0.33333350  0.43260400  1
  S  S2_1  1  0.16666650  0.33333350  0.93260400  1
  S  S2_2  1  0.16666650  0.83333350  0.43260400  1
  S  S2_3  1  0.16666650  0.83333350  0.93260400  1
  S  S2_4  1  0.66666650  0.33333350  0.43260400  1
  S  S2_5  1  0.66666650  0.33333350  0.93260400  1
  S  S2_6  1  0.66666650  0.83333350  0.43260400  1
  S  S2_7  1  0.66666650  0.83333350  0.93260400  1
  S  S3_0  1  0.33333350  0.16666650  0.06739600  1
  S  S3_1  1  0.33333350  0.16666650  0.56739600  1
  S  S3_2  1  0.33333350  0.66666650  0.06739600  1
  S  S3_3  1  0.33333350  0.66666650  0.56739600  1
  S  S3_4  1  0.83333350  0.16666650  0.06739600  1
  S  S3_5  1  0.83333350  0.16666650  0.56739600  1
  S  S3_6  1  0.83333350  0.66666650  0.06739600  1
  S  S3_7  1  0.83333350  0.66666650  0.56739600  1
loop_
_geom_bond_atom_site_label_1
_geom_bond_atom_site_label_2
_geom_bond_distance
_geom_bond_site_symmetry_2
Ag0_0 S0_4 2.814405 1_455
Ag0_0 S1_2 2.814405 1_545
Ag0_0 S1_0 2.814407 1_555
Ag0_0 S0_6 2.814407 1_445
Ag0_0 S0_0 2.814407 1_555
Ag0_0 S1_6 2.814407 1_445
Ag0_0 Ag0_2 3.380936 1_545
Ag0_0 Ag0_2 3.380936 1_555
Ag0_0 Ag0_4 3.380936 1_455
Ag0_0 Ag0_4 3.380936 1_555
Ag0_0 Ag0_6 3.380936 1_555
Ag0_0 Ag0_6 3.380936 1_445
Ag0_1 S0_5 2.814405 1_455
Ag0_1 S1_3 2.814405 1_545
Ag0_1 S0_7 2.814407 1_445
Ag0_1 S0_1 2.814407 1_555
Ag0_1 S1_1 2.814407 1_555
Ag0_1 S1_7 2.814407 1_445
Ag0_1 Ag0_5 3.380936 1_455
Ag0_1 Ag0_3 3.380936 1_545
Ag0_1 Ag0_3 3.380936 1_555
Ag0_1 Ag0_5 3.380936 1_555
Ag0_1 Ag0_7 3.380936 1_445
Ag0_1 Ag0_7 3.380936 1_555
Ag0_2 S1_0 2.814405 1_555
Ag0_2 S0_6 2.814405 1_455
Ag0_2 S1_2 2.814407 1_555
Ag0_2 S1_4 2.814407 1_455
Ag0_2 S0_2 2.814407 1_555
Ag0_2 S0_4 2.814407 1_455
Ag0_2 Ag0_6 3.380936 1_455
Ag0_2 Ag0_6 3.380936 1_555
Ag0_2 Ag0_4 3.380936 1_455
Ag0_2 Ag0_4 3.380936 1_565
Ag0_3 S1_1 2.814405 1_555
Ag0_3 S0_7 2.814405 1_455
Ag0_3 S1_3 2.814407 1_555
Ag0_3 S0_3 2.814407 1_555
Ag0_3 S1_5 2.814407 1_455
Ag0_3 S0_5 2.814407 1_455
Ag0_3 Ag0_7 3.380936 1_455
Ag0_3 Ag0_7 3.380936 1_555
Ag0_3 Ag0_5 3.380936 1_565
Ag0_3 Ag0_5 3.380936 1_455
Ag0_4 S1_6 2.814405 1_545
Ag0_4 S0_0 2.814405 1_555
Ag0_4 S0_2 2.814407 1_545
Ag0_4 S1_2 2.814407 1_545
Ag0_4 S0_4 2.814407 1_555
Ag0_4 S1_4 2.814407 1_555
Ag0_4 Ag0_6 3.380936 1_545
Ag0_4 Ag0_6 3.380936 1_555
Ag0_5 S0_1 2.814405 1_555
Ag0_5 S1_7 2.814405 1_545
Ag0_5 S0_3 2.814407 1_545
Ag0_5 S0_5 2.814407 1_555
Ag0_5 S1_3 2.814407 1_545
Ag0_5 S1_5 2.814407 1_555
Ag0_5 Ag0_7 3.380936 1_545
Ag0_5 Ag0_7 3.380936 1_555
Ag0_6 S1_4 2.814405 1_555
Ag0_6 S0_2 2.814405 1_555
Ag0_6 S1_0 2.814407 1_555
Ag0_6 S0_6 2.814407 1_555
Ag0_6 S0_0 2.814407 1_555
Ag0_6 S1_6 2.814407 1_555
Ag0_7 S1_5 2.814405 1_555
Ag0_7 S0_3 2.814405 1_555
Ag0_7 S0_1 2.814407 1_555
Ag0_7 S1_1 2.814407 1_555
Ag0_7 S0_7 2.814407 1_555
Ag0_7 S1_7 2.814407 1_555
S0_0 Ta0_4 2.509065 1_555
S0_0 Ta0_6 2.509067 1_555
S0_0 Ta0_0 2.509067 1_555
S0_1 Ta0_5 2.509065 1_555
S0_1 Ta0_1 2.509067 1_555
S0_1 Ta0_7 2.509067 1_555
S0_2 Ta0_6 2.509065 1_555
S0_2 Ta0_2 2.509067 1_555
S0_2 Ta0_4 2.509067 1_565
S0_3 Ta0_7 2.509065 1_555
S0_3 Ta0_5 2.509067 1_565
S0_3 Ta0_3 2.509067 1_555
S0_4 Ta0_0 2.509065 1_655
S0_4 Ta0_2 2.509067 1_655
S0_4 Ta0_4 2.509067 1_555
S0_5 Ta0_1 2.509065 1_655
S0_5 Ta0_5 2.509067 1_555
S0_5 Ta0_3 2.509067 1_655
S0_6 Ta0_2 2.509065 1_655
S0_6 Ta0_0 2.509067 1_665
S0_6 Ta0_6 2.509067 1_555
S0_7 Ta0_3 2.509065 1_655
S0_7 Ta0_1 2.509067 1_665
S0_7 Ta0_7 2.509067 1_555
S1_0 Ta1_2 2.509065 1_555
S1_0 Ta1_6 2.509067 1_555
S1_0 Ta1_0 2.509067 1_555
S1_1 Ta1_3 2.509065 1_555
S1_1 Ta1_1 2.509067 1_555
S1_1 Ta1_7 2.509067 1_555
S1_2 Ta1_0 2.509065 1_565
S1_2 Ta1_2 2.509067 1_555
S1_2 Ta1_4 2.509067 1_565
S1_3 Ta1_1 2.509065 1_565
S1_3 Ta1_3 2.509067 1_555
S1_3 Ta1_5 2.509067 1_565
S1_4 Ta1_6 2.509065 1_555
S1_4 Ta1_4 2.509067 1_555
S1_4 Ta1_2 2.509067 1_655
S1_5 Ta1_7 2.509065 1_555
S1_5 Ta1_3 2.509067 1_655
S1_5 Ta1_5 2.509067 1_555
S1_6 Ta1_4 2.509065 1_565
S1_6 Ta1_6 2.509067 1_555
S1_6 Ta1_0 2.509067 1_665
S1_7 Ta1_5 2.509065 1_565
S1_7 Ta1_7 2.509067 1_555
S1_7 Ta1_1 2.509067 1_665
S2_0 Ta1_2 2.469223 1_555
S2_0 Ta1_0 2.469225 1_555
S2_0 Ta1_6 2.469225 1_555
S2_0 S2_4 3.380936 1_555
S2_0 S2_2 3.380936 1_555
S2_0 S2_4 3.380936 1_455
S2_0 S2_2 3.380936 1_545
S2_0 S2_6 3.380936 1_555
S2_0 S2_6 3.380936 1_445
S2_1 Ta1_3 2.469223 1_555
S2_1 Ta1_7 2.469225 1_555
S2_1 Ta1_1 2.469225 1_555
S2_1 S2_5 3.380936 1_555
S2_1 S2_3 3.380936 1_555
S2_1 S2_3 3.380936 1_545
S2_1 S2_5 3.380936 1_455
S2_1 S2_7 3.380936 1_445
S2_1 S2_7 3.380936 1_555
S2_2 Ta1_0 2.469223 1_565
S2_2 Ta1_4 2.469225 1_565
S2_2 Ta1_2 2.469225 1_555
S2_2 S2_6 3.380936 1_555
S2_2 S2_6 3.380936 1_455
S2_2 S2_4 3.380936 1_565
S2_2 S2_4 3.380936 1_455
S2_3 Ta1_1 2.469223 1_565
S2_3 Ta1_5 2.469225 1_565
S2_3 Ta1_3 2.469225 1_555
S2_3 S2_7 3.380936 1_555
S2_3 S2_7 3.380936 1_455
S2_3 S2_5 3.380936 1_455
S2_3 S2_5 3.380936 1_565
S2_4 Ta1_6 2.469223 1_555
S2_4 Ta1_2 2.469225 1_655
S2_4 Ta1_4 2.469225 1_555
S2_4 S2_6 3.380936 1_545
S2_4 S2_6 3.380936 1_555
S2_5 Ta1_7 2.469223 1_555
S2_5 Ta1_5 2.469225 1_555
S2_5 Ta1_3 2.469225 1_655
S2_5 S2_7 3.380936 1_545
S2_5 S2_7 3.380936 1_555
S2_6 Ta1_4 2.469223 1_565
S2_6 Ta1_0 2.469225 1_665
S2_6 Ta1_6 2.469225 1_555
S2_7 Ta1_5 2.469223 1_565
S2_7 Ta1_7 2.469225 1_555
S2_7 Ta1_1 2.469225 1_665
S3_0 Ta0_4 2.469223 1_555
S3_0 Ta0_6 2.469225 1_555
S3_0 Ta0_0 2.469225 1_555
S3_0 S3_2 3.380936 1_545
S3_0 S3_4 3.380936 1_555
S3_0 S3_2 3.380936 1_555
S3_0 S3_4 3.380936 1_455
S3_0 S3_6 3.380936 1_555
S3_0 S3_6 3.380936 1_445
S3_1 Ta0_5 2.469223 1_555
S3_1 Ta0_1 2.469225 1_555
S3_1 Ta0_7 2.469225 1_555
S3_1 S3_3 3.380936 1_545
S3_1 S3_5 3.380936 1_555
S3_1 S3_5 3.380936 1_455
S3_1 S3_3 3.380936 1_555
S3_1 S3_7 3.380936 1_555
S3_1 S3_7 3.380936 1_445
S3_2 Ta0_6 2.469223 1_555
S3_2 Ta0_4 2.469225 1_565
S3_2 Ta0_2 2.469225 1_555
S3_2 S3_6 3.380936 1_555
S3_2 S3_6 3.380936 1_455
S3_2 S3_4 3.380936 1_455
S3_2 S3_4 3.380936 1_565
S3_3 Ta0_7 2.469223 1_555
S3_3 Ta0_5 2.469225 1_565
S3_3 Ta0_3 2.469225 1_555
S3_3 S3_7 3.380936 1_555
S3_3 S3_7 3.380936 1_455
S3_3 S3_5 3.380936 1_565
S3_3 S3_5 3.380936 1_455
S3_4 Ta0_0 2.469223 1_655
S3_4 Ta0_4 2.469225 1_555
S3_4 Ta0_2 2.469225 1_655
S3_4 S3_6 3.380936 1_545
S3_4 S3_6 3.380936 1_555
S3_5 Ta0_1 2.469223 1_655
S3_5 Ta0_5 2.469225 1_555
S3_5 Ta0_3 2.469225 1_655
S3_5 S3_7 3.380936 1_545
S3_5 S3_7 3.380936 1_555
S3_6 Ta0_2 2.469223 1_655
S3_6 Ta0_6 2.469225 1_555
S3_6 Ta0_0 2.469225 1_665
S3_7 Ta0_3 2.469223 1_655
S3_7 Ta0_1 2.469225 1_665
S3_7 Ta0_7 2.469225 1_555
