# generated using pymatgen
data_NbCrGe
_symmetry_space_group_name_H-M   'P 1'
_cell_length_a   5.18635318
_cell_length_b   5.18635318
_cell_length_c   7.81050200
_cell_angle_alpha   90.00000000
_cell_angle_beta   90.00000000
_cell_angle_gamma   121.91416431
_symmetry_Int_Tables_number   1
_chemical_formula_structural   NbCrGe
_chemical_formula_sum   'Nb4 Cr4 Ge4'
_cell_volume   178.33208391
_cell_formula_units_Z   4
loop_
 _symmetry_equiv_pos_site_id
 _symmetry_equiv_pos_as_xyz
  1  'x, y, z'
loop_
 _atom_site_type_symbol
 _atom_site_label
 _atom_site_symmetry_multiplicity
 _atom_site_fract_x
 _atom_site_fract_y
 _atom_site_fract_z
 _atom_site_occupancy
  Nb  Nb0  1  0.33490700  0.66509300  0.18019600  1
  Nb  Nb1  1  0.66434500  0.33565500  0.30635300  1
  Nb  Nb2  1  0.66434500  0.33565500  0.69364700  1
  Nb  Nb3  1  0.33490700  0.66509300  0.81980400  1
  Cr  Cr0  1  0.00644800  0.99355200  0.24404700  1
  Cr  Cr1  1  0.00644800  0.99355200  0.75595300  1
  Cr  Cr2  1  0.83524500  0.67214500  0.00000000  1
  Cr  Cr3  1  0.32785500  0.16475500  0.00000000  1
  Ge  Ge0  1  0.82343500  0.17656500  0.00000000  1
  Ge  Ge1  1  0.17038700  0.33848500  0.50000000  1
  Ge  Ge2  1  0.66151500  0.82961300  0.50000000  1
  Ge  Ge3  1  0.16999000  0.83001000  0.50000000  1
loop_
_geom_bond_atom_site_label_1
_geom_bond_atom_site_label_2
_geom_bond_distance
_geom_bond_site_symmetry_2
Nb0 Nb3 2.814842 1_554
Nb0 Nb1 3.114891 1_455
Nb0 Nb1 3.114891 1_565
Nb0 Nb1 3.145780 1_555
Nb1 Nb2 3.024961 1_555
Nb2 Nb3 3.114891 1_655
Nb2 Nb3 3.114891 1_545
Nb2 Nb3 3.145780 1_555
Cr0 Cr2 2.373917 1_455
Cr0 Cr3 2.373917 1_565
Cr0 Ge3 2.489170 1_555
Cr0 Ge1 2.512277 1_565
Cr0 Ge2 2.512277 1_455
Cr0 Ge0 2.527394 1_465
Cr0 Nb1 2.937065 1_565
Cr0 Nb1 2.937065 1_455
Cr0 Nb0 3.001313 1_565
Cr0 Nb0 3.001313 1_455
Cr0 Nb0 3.020060 1_555
Cr0 Nb1 3.140264 1_465
Cr1 Cr2 2.373917 1_456
Cr1 Cr3 2.373917 1_566
Cr1 Ge3 2.489170 1_555
Cr1 Ge1 2.512277 1_565
Cr1 Ge2 2.512277 1_455
Cr1 Ge0 2.527394 1_466
Cr1 Nb2 2.937065 1_455
Cr1 Nb2 2.937065 1_565
Cr1 Nb3 3.001313 1_565
Cr1 Nb3 3.001313 1_455
Cr1 Nb3 3.020060 1_555
Cr1 Nb2 3.140264 1_465
Cr2 Cr3 2.480578 1_665
Cr2 Ge0 2.538405 1_555
Cr2 Cr3 2.555004 1_555
Cr2 Ge0 2.648991 1_565
Cr2 Nb1 2.814443 1_555
Cr2 Nb2 2.814443 1_554
Cr2 Nb3 2.935215 1_554
Cr2 Nb0 2.935215 1_555
Cr2 Nb0 2.966118 1_655
Cr2 Nb3 2.966118 1_654
Cr3 Ge0 2.538405 1_555
Cr3 Ge0 2.648991 1_455
Cr3 Nb1 2.814443 1_555
Cr3 Nb2 2.814443 1_554
Cr3 Nb3 2.935215 1_554
Cr3 Nb0 2.935215 1_555
Cr3 Nb0 2.966118 1_545
Cr3 Nb3 2.966118 1_544
Ge0 Nb1 2.794050 1_555
Ge0 Nb2 2.794050 1_554
Ge0 Nb0 2.886335 1_545
Ge0 Nb3 2.886335 1_544
Ge0 Nb0 2.886335 1_655
Ge0 Nb3 2.886335 1_654
Ge1 Ge2 2.473115 1_555
Ge1 Ge3 2.550311 1_555
Ge1 Ge2 2.562467 1_445
Ge1 Ge3 2.636043 1_545
Ge1 Nb3 2.882423 1_555
Ge1 Nb0 2.882423 1_555
Ge1 Nb1 2.981710 1_555
Ge1 Nb2 2.981710 1_555
Ge1 Nb1 3.022441 1_455
Ge1 Nb2 3.022441 1_455
Ge2 Ge3 2.550311 1_555
Ge2 Ge3 2.636043 1_655
Ge2 Nb3 2.882423 1_555
Ge2 Nb0 2.882423 1_555
Ge2 Nb1 2.981710 1_555
Ge2 Nb2 2.981710 1_555
Ge2 Nb1 3.022441 1_565
Ge2 Nb2 3.022441 1_565
Ge3 Nb0 2.911319 1_555
Ge3 Nb3 2.911319 1_555
Ge3 Nb1 2.937599 1_565
Ge3 Nb2 2.937599 1_565
Ge3 Nb1 2.937599 1_455
Ge3 Nb2 2.937599 1_455
