# generated using pymatgen
data_VBC
_symmetry_space_group_name_H-M   'P 1'
_cell_length_a   5.55318091
_cell_length_b   5.55318091
_cell_length_c   13.83045800
_cell_angle_alpha   90.00000000
_cell_angle_beta   90.00000000
_cell_angle_gamma   120.00001082
_symmetry_Int_Tables_number   1
_chemical_formula_structural   VBC
_chemical_formula_sum   'V16 B16 C16'
_cell_volume   369.36078983
_cell_formula_units_Z   16
loop_
 _symmetry_equiv_pos_site_id
 _symmetry_equiv_pos_as_xyz
  1  'x, y, z'
loop_
 _atom_site_type_symbol
 _atom_site_label
 _atom_site_symmetry_multiplicity
 _atom_site_fract_x
 _atom_site_fract_y
 _atom_site_fract_z
 _atom_site_occupancy
  V  V0_0  1  0.00000000  0.00000000  0.25000000  1
  V  V0_1  1  0.00000000  0.00000000  0.75000000  1
  V  V0_2  1  0.00000000  0.50000000  0.25000000  1
  V  V0_3  1  0.00000000  0.50000000  0.75000000  1
  V  V0_4  1  0.50000000  0.00000000  0.25000000  1
  V  V0_5  1  0.50000000  0.00000000  0.75000000  1
  V  V0_6  1  0.50000000  0.50000000  0.25000000  1
  V  V0_7  1  0.50000000  0.50000000  0.75000000  1
  V  V1_0  1  0.00000000  0.00000000  0.00000000  1
  V  V1_1  1  0.00000000  0.00000000  0.50000000  1
  V  V1_2  1  0.00000000  0.50000000  0.00000000  1
  V  V1_3  1  0.00000000  0.50000000  0.50000000  1
  V  V1_4  1  0.50000000  0.00000000  0.00000000  1
  V  V1_5  1  0.50000000  0.00000000  0.50000000  1
  V  V1_6  1  0.50000000  0.50000000  0.00000000  1
  V  V1_7  1  0.50000000  0.50000000  0.50000000  1
  B  B0_0  1  0.16666650  0.33333350  0.37500000  1
  B  B0_1  1  0.16666650  0.33333350  0.87500000  1
  B  B0_2  1  0.16666650  0.83333350  0.37500000  1
  B  B0_3  1  0.16666650  0.83333350  0.87500000  1
  B  B0_4  1  0.66666650  0.33333350  0.37500000  1
  B  B0_5  1  0.66666650  0.33333350  0.87500000  1
  B  B0_6  1  0.66666650  0.83333350  0.37500000  1
  B  B0_7  1  0.66666650  0.83333350  0.87500000  1
  B  B1_0  1  0.33333350  0.16666650  0.12500000  1
  B  B1_1  1  0.33333350  0.16666650  0.62500000  1
  B  B1_2  1  0.33333350  0.66666650  0.12500000  1
  B  B1_3  1  0.33333350  0.66666650  0.62500000  1
  B  B1_4  1  0.83333350  0.16666650  0.12500000  1
  B  B1_5  1  0.83333350  0.16666650  0.62500000  1
  B  B1_6  1  0.83333350  0.66666650  0.12500000  1
  B  B1_7  1  0.83333350  0.66666650  0.62500000  1
  C  C0_0  1  0.16666650  0.33333350  0.12500000  1
  C  C0_1  1  0.16666650  0.33333350  0.62500000  1
  C  C0_2  1  0.16666650  0.83333350  0.12500000  1
  C  C0_3  1  0.16666650  0.83333350  0.62500000  1
  C  C0_4  1  0.66666650  0.33333350  0.12500000  1
  C  C0_5  1  0.66666650  0.33333350  0.62500000  1
  C  C0_6  1  0.66666650  0.83333350  0.12500000  1
  C  C0_7  1  0.66666650  0.83333350  0.62500000  1
  C  C1_0  1  0.33333350  0.16666650  0.37500000  1
  C  C1_1  1  0.33333350  0.16666650  0.87500000  1
  C  C1_2  1  0.33333350  0.66666650  0.37500000  1
  C  C1_3  1  0.33333350  0.66666650  0.87500000  1
  C  C1_4  1  0.83333350  0.16666650  0.37500000  1
  C  C1_5  1  0.83333350  0.16666650  0.87500000  1
  C  C1_6  1  0.83333350  0.66666650  0.37500000  1
  C  C1_7  1  0.83333350  0.66666650  0.87500000  1
loop_
_geom_bond_atom_site_label_1
_geom_bond_atom_site_label_2
_geom_bond_distance
_geom_bond_site_symmetry_2
V0_0 V0_6 2.776590 1_445
V0_0 V0_6 2.776590 1_555
V0_0 V0_2 2.776590 1_545
V0_0 V0_4 2.776590 1_455
V0_0 V0_2 2.776590 1_555
V0_0 V0_4 2.776590 1_555
V0_1 V0_7 2.776590 1_445
V0_1 V0_7 2.776590 1_555
V0_1 V0_5 2.776590 1_455
V0_1 V0_3 2.776590 1_555
V0_1 V0_3 2.776590 1_545
V0_1 V0_5 2.776590 1_555
V0_2 V0_4 2.776590 1_565
V0_2 V0_4 2.776590 1_455
V0_2 V0_6 2.776590 1_555
V0_2 V0_6 2.776590 1_455
V0_3 V0_5 2.776590 1_565
V0_3 V0_5 2.776590 1_455
V0_3 V0_7 2.776590 1_555
V0_3 V0_7 2.776590 1_455
V0_4 V0_6 2.776590 1_555
V0_4 V0_6 2.776590 1_545
V0_5 V0_7 2.776590 1_555
V0_5 V0_7 2.776590 1_545
V1_0 V1_6 2.776590 1_555
V1_0 V1_6 2.776590 1_445
V1_0 V1_2 2.776590 1_555
V1_0 V1_4 2.776590 1_455
V1_0 V1_4 2.776590 1_555
V1_0 V1_2 2.776590 1_545
V1_1 V1_7 2.776590 1_445
V1_1 V1_7 2.776590 1_555
V1_1 V1_3 2.776590 1_555
V1_1 V1_5 2.776590 1_455
V1_1 V1_5 2.776590 1_555
V1_1 V1_3 2.776590 1_545
V1_2 V1_4 2.776590 1_565
V1_2 V1_4 2.776590 1_455
V1_2 V1_6 2.776590 1_455
V1_2 V1_6 2.776590 1_555
V1_3 V1_5 2.776590 1_565
V1_3 V1_5 2.776590 1_455
V1_3 V1_7 2.776590 1_455
V1_3 V1_7 2.776590 1_555
V1_4 V1_6 2.776590 1_545
V1_4 V1_6 2.776590 1_555
V1_5 V1_7 2.776590 1_545
V1_5 V1_7 2.776590 1_555
B0_0 C1_2 1.603063 1_555
B0_0 C1_4 1.603063 1_455
B0_0 C1_0 1.603069 1_555
B0_0 V1_3 2.357666 1_555
B0_0 V0_2 2.357666 1_555
B0_0 V0_0 2.357667 1_555
B0_0 V0_6 2.357667 1_555
B0_0 V1_7 2.357667 1_555
B0_0 V1_1 2.357667 1_555
B0_1 C1_5 1.603063 1_455
B0_1 C1_3 1.603063 1_555
B0_1 C1_1 1.603069 1_555
B0_1 V1_2 2.357666 1_556
B0_1 V0_3 2.357666 1_555
B0_1 V1_6 2.357667 1_556
B0_1 V1_0 2.357667 1_556
B0_1 V0_1 2.357667 1_555
B0_1 V0_7 2.357667 1_555
B0_2 C1_6 1.603063 1_455
B0_2 C1_0 1.603063 1_565
B0_2 C1_2 1.603069 1_555
B0_2 V1_1 2.357666 1_565
B0_2 V0_0 2.357666 1_565
B0_2 V1_3 2.357667 1_555
B0_2 V0_2 2.357667 1_555
B0_2 V0_4 2.357667 1_565
B0_2 V1_5 2.357667 1_565
B0_3 C1_7 1.603063 1_455
B0_3 C1_1 1.603063 1_565
B0_3 C1_3 1.603069 1_555
B0_3 V1_0 2.357666 1_566
B0_3 V0_1 2.357666 1_565
B0_3 V1_2 2.357667 1_556
B0_3 V1_4 2.357667 1_566
B0_3 V0_3 2.357667 1_555
B0_3 V0_5 2.357667 1_565
B0_4 C1_6 1.603063 1_555
B0_4 C1_0 1.603063 1_555
B0_4 C1_4 1.603069 1_555
B0_4 V0_6 2.357666 1_555
B0_4 V1_7 2.357666 1_555
B0_4 V0_2 2.357667 1_655
B0_4 V1_3 2.357667 1_655
B0_4 V1_5 2.357667 1_555
B0_4 V0_4 2.357667 1_555
B0_5 C1_1 1.603063 1_555
B0_5 C1_7 1.603063 1_555
B0_5 C1_5 1.603069 1_555
B0_5 V1_6 2.357666 1_556
B0_5 V0_7 2.357666 1_555
B0_5 V1_4 2.357667 1_556
B0_5 V1_2 2.357667 1_656
B0_5 V0_5 2.357667 1_555
B0_5 V0_3 2.357667 1_655
B0_6 C1_2 1.603063 1_555
B0_6 C1_4 1.603063 1_565
B0_6 C1_6 1.603069 1_555
B0_6 V0_4 2.357666 1_565
B0_6 V1_5 2.357666 1_565
B0_6 V0_6 2.357667 1_555
B0_6 V1_1 2.357667 1_665
B0_6 V0_0 2.357667 1_665
B0_6 V1_7 2.357667 1_555
B0_7 C1_3 1.603063 1_555
B0_7 C1_5 1.603063 1_565
B0_7 C1_7 1.603069 1_555
B0_7 V1_4 2.357666 1_566
B0_7 V0_5 2.357666 1_565
B0_7 V1_6 2.357667 1_556
B0_7 V1_0 2.357667 1_666
B0_7 V0_1 2.357667 1_665
B0_7 V0_7 2.357667 1_555
B1_0 C0_2 1.603063 1_545
B1_0 C0_4 1.603063 1_555
B1_0 C0_0 1.603069 1_555
B1_0 V1_4 2.357666 1_555
B1_0 V0_4 2.357666 1_555
B1_0 V0_0 2.357667 1_555
B1_0 V0_6 2.357667 1_555
B1_0 V1_6 2.357667 1_555
B1_0 V1_0 2.357667 1_555
B1_1 C0_3 1.603063 1_545
B1_1 C0_5 1.603063 1_555
B1_1 C0_1 1.603069 1_555
B1_1 V1_5 2.357666 1_555
B1_1 V0_5 2.357666 1_555
B1_1 V1_7 2.357667 1_555
B1_1 V0_1 2.357667 1_555
B1_1 V1_1 2.357667 1_555
B1_1 V0_7 2.357667 1_555
B1_2 C0_6 1.603063 1_555
B1_2 C0_0 1.603063 1_555
B1_2 C0_2 1.603069 1_555
B1_2 V0_6 2.357666 1_555
B1_2 V1_6 2.357666 1_555
B1_2 V1_4 2.357667 1_565
B1_2 V0_4 2.357667 1_565
B1_2 V1_2 2.357667 1_555
B1_2 V0_2 2.357667 1_555
B1_3 C0_7 1.603063 1_555
B1_3 C0_1 1.603063 1_555
B1_3 C0_3 1.603069 1_555
B1_3 V0_7 2.357666 1_555
B1_3 V1_7 2.357666 1_555
B1_3 V0_5 2.357667 1_565
B1_3 V1_5 2.357667 1_565
B1_3 V0_3 2.357667 1_555
B1_3 V1_3 2.357667 1_555
B1_4 C0_6 1.603063 1_545
B1_4 C0_0 1.603063 1_655
B1_4 C0_4 1.603069 1_555
B1_4 V0_0 2.357666 1_655
B1_4 V1_0 2.357666 1_655
B1_4 V1_4 2.357667 1_555
B1_4 V0_4 2.357667 1_555
B1_4 V1_2 2.357667 1_655
B1_4 V0_2 2.357667 1_655
B1_5 C0_7 1.603063 1_545
B1_5 C0_1 1.603063 1_655
B1_5 C0_5 1.603069 1_555
B1_5 V1_1 2.357666 1_655
B1_5 V0_1 2.357666 1_655
B1_5 V1_5 2.357667 1_555
B1_5 V0_5 2.357667 1_555
B1_5 V1_3 2.357667 1_655
B1_5 V0_3 2.357667 1_655
B1_6 C0_4 1.603063 1_555
B1_6 C0_2 1.603063 1_655
B1_6 C0_6 1.603069 1_555
B1_6 V1_2 2.357666 1_655
B1_6 V0_2 2.357666 1_655
B1_6 V1_0 2.357667 1_665
B1_6 V0_0 2.357667 1_665
B1_6 V0_6 2.357667 1_555
B1_6 V1_6 2.357667 1_555
B1_7 C0_5 1.603063 1_555
B1_7 C0_3 1.603063 1_655
B1_7 C0_7 1.603069 1_555
B1_7 V0_3 2.357666 1_655
B1_7 V1_3 2.357666 1_655
B1_7 V1_1 2.357667 1_665
B1_7 V0_7 2.357667 1_555
B1_7 V1_7 2.357667 1_555
B1_7 V0_1 2.357667 1_665
C0_0 V0_2 2.357666 1_555
C0_0 V1_2 2.357666 1_555
C0_0 V0_0 2.357667 1_555
C0_0 V0_6 2.357667 1_555
C0_0 V1_6 2.357667 1_555
C0_0 V1_0 2.357667 1_555
C0_1 V1_3 2.357666 1_555
C0_1 V0_3 2.357666 1_555
C0_1 V1_7 2.357667 1_555
C0_1 V0_1 2.357667 1_555
C0_1 V1_1 2.357667 1_555
C0_1 V0_7 2.357667 1_555
C0_2 V0_0 2.357666 1_565
C0_2 V1_0 2.357666 1_565
C0_2 V0_2 2.357667 1_555
C0_2 V1_2 2.357667 1_555
C0_2 V0_4 2.357667 1_565
C0_2 V1_4 2.357667 1_565
C0_3 V1_1 2.357666 1_565
C0_3 V0_1 2.357666 1_565
C0_3 V1_3 2.357667 1_555
C0_3 V0_3 2.357667 1_555
C0_3 V1_5 2.357667 1_565
C0_3 V0_5 2.357667 1_565
C0_4 V0_6 2.357666 1_555
C0_4 V1_6 2.357666 1_555
C0_4 V0_2 2.357667 1_655
C0_4 V1_2 2.357667 1_655
C0_4 V1_4 2.357667 1_555
C0_4 V0_4 2.357667 1_555
C0_5 V0_7 2.357666 1_555
C0_5 V1_7 2.357666 1_555
C0_5 V0_3 2.357667 1_655
C0_5 V1_3 2.357667 1_655
C0_5 V1_5 2.357667 1_555
C0_5 V0_5 2.357667 1_555
C0_6 V1_4 2.357666 1_565
C0_6 V0_4 2.357666 1_565
C0_6 V1_0 2.357667 1_665
C0_6 V0_0 2.357667 1_665
C0_6 V0_6 2.357667 1_555
C0_6 V1_6 2.357667 1_555
C0_7 V1_5 2.357666 1_565
C0_7 V0_5 2.357666 1_565
C0_7 V1_1 2.357667 1_665
C0_7 V0_7 2.357667 1_555
C0_7 V1_7 2.357667 1_555
C0_7 V0_1 2.357667 1_665
C1_0 V0_4 2.357666 1_555
C1_0 V1_5 2.357666 1_555
C1_0 V0_0 2.357667 1_555
C1_0 V0_6 2.357667 1_555
C1_0 V1_7 2.357667 1_555
C1_0 V1_1 2.357667 1_555
C1_1 V1_4 2.357666 1_556
C1_1 V0_5 2.357666 1_555
C1_1 V1_6 2.357667 1_556
C1_1 V1_0 2.357667 1_556
C1_1 V0_1 2.357667 1_555
C1_1 V0_7 2.357667 1_555
C1_2 V0_6 2.357666 1_555
C1_2 V1_7 2.357666 1_555
C1_2 V1_5 2.357667 1_565
C1_2 V0_4 2.357667 1_565
C1_2 V1_3 2.357667 1_555
C1_2 V0_2 2.357667 1_555
C1_3 V1_6 2.357666 1_556
C1_3 V0_7 2.357666 1_555
C1_3 V1_2 2.357667 1_556
C1_3 V1_4 2.357667 1_566
C1_3 V0_3 2.357667 1_555
C1_3 V0_5 2.357667 1_565
C1_4 V0_0 2.357666 1_655
C1_4 V1_1 2.357666 1_655
C1_4 V1_5 2.357667 1_555
C1_4 V0_4 2.357667 1_555
C1_4 V1_3 2.357667 1_655
C1_4 V0_2 2.357667 1_655
C1_5 V1_0 2.357666 1_656
C1_5 V0_1 2.357666 1_655
C1_5 V1_4 2.357667 1_556
C1_5 V1_2 2.357667 1_656
C1_5 V0_5 2.357667 1_555
C1_5 V0_3 2.357667 1_655
C1_6 V1_3 2.357666 1_655
C1_6 V0_2 2.357666 1_655
C1_6 V1_7 2.357667 1_555
C1_6 V1_1 2.357667 1_665
C1_6 V0_0 2.357667 1_665
C1_6 V0_6 2.357667 1_555
C1_7 V1_2 2.357666 1_656
C1_7 V0_3 2.357666 1_655
C1_7 V1_6 2.357667 1_556
C1_7 V1_0 2.357667 1_666
C1_7 V0_1 2.357667 1_665
C1_7 V0_7 2.357667 1_555
