# generated using pymatgen
data_YMg6Cd
_symmetry_space_group_name_H-M   'P 1'
_cell_length_a   5.12587000
_cell_length_b   6.58270300
_cell_length_c   11.41188300
_cell_angle_alpha   90.00000000
_cell_angle_beta   90.00000000
_cell_angle_gamma   90.00000000
_symmetry_Int_Tables_number   1
_chemical_formula_structural   YMg6Cd
_chemical_formula_sum   'Y2 Mg12 Cd2'
_cell_volume   385.06066716
_cell_formula_units_Z   2
loop_
 _symmetry_equiv_pos_site_id
 _symmetry_equiv_pos_as_xyz
  1  'x, y, z'
loop_
 _atom_site_type_symbol
 _atom_site_label
 _atom_site_symmetry_multiplicity
 _atom_site_fract_x
 _atom_site_fract_y
 _atom_site_fract_z
 _atom_site_occupancy
  Y  Y0  1  0.00000000  0.50000000  0.33044400  1
  Y  Y1  1  0.00000000  0.00000000  0.83044400  1
  Mg  Mg0  1  0.00000000  0.25321300  0.08115900  1
  Mg  Mg1  1  0.00000000  0.74678700  0.08115900  1
  Mg  Mg2  1  0.00000000  0.00000000  0.33612700  1
  Mg  Mg3  1  0.50000000  0.75549300  0.41917100  1
  Mg  Mg4  1  0.50000000  0.24450700  0.41917100  1
  Mg  Mg5  1  0.50000000  0.00000000  0.16711000  1
  Mg  Mg6  1  0.00000000  0.75321300  0.58115900  1
  Mg  Mg7  1  0.00000000  0.24678700  0.58115900  1
  Mg  Mg8  1  0.00000000  0.50000000  0.83612700  1
  Mg  Mg9  1  0.50000000  0.25549300  0.91917100  1
  Mg  Mg10  1  0.50000000  0.74450700  0.91917100  1
  Mg  Mg11  1  0.50000000  0.50000000  0.66711000  1
  Cd  Cd0  1  0.50000000  0.50000000  0.16566000  1
  Cd  Cd1  1  0.50000000  0.00000000  0.66566000  1
loop_
_geom_bond_atom_site_label_1
_geom_bond_atom_site_label_2
_geom_bond_distance
_geom_bond_site_symmetry_2
Mg0 Mg9 3.160085 1_454
Mg0 Mg9 3.160085 1_554
Mg0 Mg5 3.210769 1_455
Mg0 Mg5 3.210769 1_555
Mg0 Mg8 3.233921 1_554
Mg0 Mg1 3.249051 1_555
Mg0 Y0 3.275978 1_555
Mg0 Y1 3.311250 1_554
Mg0 Mg1 3.333652 1_545
Mg0 Mg2 3.353276 1_555
Mg1 Mg10 3.160085 1_454
Mg1 Mg10 3.160085 1_554
Mg1 Mg5 3.210769 1_565
Mg1 Mg5 3.210769 1_465
Mg1 Mg8 3.233921 1_554
Mg1 Y0 3.275978 1_555
Mg1 Y1 3.311250 1_564
Mg1 Mg2 3.353276 1_565
Mg2 Mg3 3.171324 1_545
Mg2 Mg4 3.171324 1_455
Mg2 Mg3 3.171324 1_445
Mg2 Mg4 3.171324 1_555
Mg2 Mg5 3.207634 1_455
Mg2 Mg5 3.207634 1_555
Mg2 Mg7 3.233921 1_555
Mg2 Mg6 3.233921 1_545
Mg2 Y0 3.291990 1_555
Mg2 Y0 3.291990 1_545
Mg3 Mg6 3.160085 1_555
Mg3 Mg6 3.160085 1_655
Mg3 Mg4 3.219034 1_565
Mg3 Y0 3.228381 1_655
Mg3 Y0 3.228381 1_555
Mg3 Mg5 3.296171 1_565
Mg3 Mg4 3.363669 1_555
Mg4 Mg7 3.160085 1_655
Mg4 Mg7 3.160085 1_555
Mg4 Y0 3.228381 1_655
Mg4 Y0 3.228381 1_555
Mg4 Mg5 3.296171 1_555
Mg5 Mg9 3.291559 1_554
Mg6 Mg7 3.249051 1_565
Mg6 Y1 3.275978 1_565
Mg6 Y0 3.311250 1_555
Mg6 Mg7 3.333652 1_555
Mg6 Mg8 3.353276 1_555
Mg7 Y1 3.275978 1_555
Mg7 Y0 3.311250 1_555
Mg7 Mg8 3.353276 1_555
Mg8 Mg9 3.171324 1_455
Mg8 Mg9 3.171324 1_555
Mg8 Y1 3.291990 1_565
Mg8 Y1 3.291990 1_555
Mg9 Y1 3.228381 1_655
Mg9 Y1 3.228381 1_555
Mg10 Mg8 3.171324 1_655
Mg10 Mg8 3.171324 1_555
Mg10 Mg9 3.219034 1_555
Mg10 Y1 3.228381 1_565
Mg10 Y1 3.228381 1_665
Mg10 Mg5 3.291559 1_566
Mg10 Mg11 3.296171 1_555
Mg10 Mg9 3.363669 1_565
Mg11 Mg8 3.207634 1_555
Mg11 Mg8 3.207634 1_655
Mg11 Mg6 3.210769 1_555
Mg11 Mg6 3.210769 1_655
Mg11 Mg7 3.210769 1_555
Mg11 Mg7 3.210769 1_655
Mg11 Mg3 3.291559 1_555
Mg11 Mg4 3.291559 1_555
Mg11 Mg9 3.296171 1_555
Cd0 Y0 3.178821 1_655
Cd0 Y0 3.178821 1_555
Cd0 Mg1 3.183963 1_555
Cd0 Mg1 3.183963 1_655
Cd0 Mg0 3.183963 1_555
Cd0 Mg0 3.183963 1_655
Cd0 Mg10 3.240829 1_554
Cd0 Mg9 3.240829 1_554
Cd0 Mg5 3.291393 1_555
Cd0 Mg5 3.291393 1_565
Cd0 Mg3 3.346376 1_555
Cd0 Mg4 3.346376 1_555
Cd1 Y1 3.178821 1_555
Cd1 Y1 3.178821 1_655
Cd1 Mg7 3.183963 1_555
Cd1 Mg7 3.183963 1_655
Cd1 Mg6 3.183963 1_545
Cd1 Mg6 3.183963 1_645
Cd1 Mg4 3.240829 1_555
Cd1 Mg3 3.240829 1_545
Cd1 Mg11 3.291393 1_555
Cd1 Mg11 3.291393 1_545
Cd1 Mg9 3.346376 1_555
Cd1 Mg10 3.346376 1_545
