# generated using pymatgen
data_Zn(FeO2)2
_symmetry_space_group_name_H-M   'P 1'
_cell_length_a   5.89671500
_cell_length_b   5.05723700
_cell_length_c   10.23256134
_cell_angle_alpha   89.60404381
_cell_angle_beta   90.00000000
_cell_angle_gamma   90.00000000
_symmetry_Int_Tables_number   1
_chemical_formula_structural   Zn(FeO2)2
_chemical_formula_sum   'Zn4 Fe8 O16'
_cell_volume   305.13879783
_cell_formula_units_Z   4
loop_
 _symmetry_equiv_pos_site_id
 _symmetry_equiv_pos_as_xyz
  1  'x, y, z'
loop_
 _atom_site_type_symbol
 _atom_site_label
 _atom_site_symmetry_multiplicity
 _atom_site_fract_x
 _atom_site_fract_y
 _atom_site_fract_z
 _atom_site_occupancy
  Zn  Zn0  1  0.50000000  0.85558200  0.75093200  1
  Zn  Zn1  1  0.00000000  0.14899900  0.25013700  1
  Zn  Zn2  1  0.50000000  0.53789300  0.24993100  1
  Zn  Zn3  1  0.00000000  0.47073700  0.74997300  1
  Fe  Fe0  1  0.00000000  0.50922000  0.48656800  1
  Fe  Fe1  1  0.00000000  0.50973000  0.01161000  1
  Fe  Fe2  1  0.50000000  0.49056800  0.51530800  1
  Fe  Fe3  1  0.50000000  0.48949000  0.98718000  1
  Fe  Fe4  1  0.75245100  0.99957200  0.49982000  1
  Fe  Fe5  1  0.24938000  0.99937800  0.00059200  1
  Fe  Fe6  1  0.24754900  0.99957200  0.49982000  1
  Fe  Fe7  1  0.75062000  0.99937800  0.00059200  1
  O  O0  1  0.00000000  0.84535800  0.39333200  1
  O  O1  1  0.00000000  0.84584100  0.10736200  1
  O  O2  1  0.50000000  0.14947900  0.60665900  1
  O  O3  1  0.50000000  0.15064100  0.89355400  1
  O  O4  1  0.00000000  0.19967700  0.59697500  1
  O  O5  1  0.00000000  0.20191000  0.90212000  1
  O  O6  1  0.50000000  0.79862800  0.40308000  1
  O  O7  1  0.50000000  0.79922900  0.09741300  1
  O  O8  1  0.75948000  0.66392300  0.61205600  1
  O  O9  1  0.24972300  0.66128200  0.89015000  1
  O  O10  1  0.24436300  0.33547200  0.38658800  1
  O  O11  1  0.74845200  0.33863000  0.10973300  1
  O  O12  1  0.75563700  0.33547200  0.38658800  1
  O  O13  1  0.25154800  0.33863000  0.10973300  1
  O  O14  1  0.24052000  0.66392300  0.61205600  1
  O  O15  1  0.75027700  0.66128200  0.89015000  1
loop_
_geom_bond_atom_site_label_1
_geom_bond_atom_site_label_2
_geom_bond_distance
_geom_bond_site_symmetry_2
Fe0 O4 1.924178 1_555
Fe0 O0 1.943590 1_555
Fe0 O12 1.976727 1_455
Fe0 O10 1.976727 1_555
Fe0 O8 2.070343 1_455
Fe0 O14 2.070343 1_555
Fe1 O5 1.924238 1_554
Fe1 O1 1.967816 1_555
Fe1 O13 1.986212 1_555
Fe1 O11 1.986212 1_455
Fe1 O9 2.070583 1_554
Fe1 O15 2.070583 1_454
Fe2 O6 1.929042 1_555
Fe2 O2 1.956271 1_555
Fe2 O8 2.025290 1_555
Fe2 O14 2.025290 1_555
Fe2 O12 2.153288 1_555
Fe2 O10 2.153288 1_555
Fe3 O7 1.936598 1_556
Fe3 O3 1.969030 1_555
Fe3 O15 1.976533 1_555
Fe3 O9 1.976533 1_555
Fe3 O13 2.070704 1_556
Fe3 O11 2.070704 1_556
Fe4 O0 1.984467 1_655
Fe4 O2 1.999346 1_565
Fe4 O4 2.038904 1_665
Fe4 O8 2.043305 1_555
Fe4 O12 2.049706 1_565
Fe4 O6 2.059741 1_555
Fe5 O1 1.986768 1_555
Fe5 O3 1.989277 1_564
Fe5 O7 2.043582 1_555
Fe5 O5 2.052453 1_564
Fe5 O13 2.053636 1_565
Fe5 O9 2.056057 1_554
Fe6 O0 1.984467 1_555
Fe6 O2 1.999346 1_565
Fe6 O4 2.038904 1_565
Fe6 O14 2.043305 1_555
Fe6 O10 2.049706 1_565
Fe6 O6 2.059741 1_555
Fe7 O1 1.986768 1_655
Fe7 O3 1.989277 1_564
Fe7 O7 2.043582 1_555
Fe7 O5 2.052453 1_664
Fe7 O11 2.053636 1_565
Fe7 O15 2.056057 1_554
O0 Zn1 2.115156 1_565
O1 Zn1 2.125057 1_565
O2 Zn0 2.087628 1_545
O3 Zn0 2.094403 1_545
O4 Zn3 2.088008 1_555
O5 Zn3 2.059815 1_555
O6 Zn2 2.055015 1_555
O7 Zn2 2.038099 1_555
O8 Zn3 2.222289 1_655
O8 Zn0 2.306309 1_555
O9 Zn0 2.270150 1_555
O9 Zn3 2.274532 1_555
O10 Zn1 2.221108 1_555
O10 Zn2 2.292565 1_555
O11 Zn1 2.272650 1_655
O11 Zn2 2.289080 1_555
O12 Zn1 2.221108 1_655
O12 Zn2 2.292565 1_555
O13 Zn1 2.272650 1_555
O13 Zn2 2.289080 1_555
O14 Zn3 2.222289 1_555
O14 Zn0 2.306309 1_555
O15 Zn0 2.270150 1_555
O15 Zn3 2.274532 1_655
