# generated using pymatgen
data_ZnAg2(PS3)2
_symmetry_space_group_name_H-M   'P 1'
_cell_length_a   6.32867873
_cell_length_b   6.32867873
_cell_length_c   27.41431165
_cell_angle_alpha   86.90598939
_cell_angle_beta   86.90598939
_cell_angle_gamma   119.83183740
_symmetry_Int_Tables_number   1
_chemical_formula_structural   ZnAg2(PS3)2
_chemical_formula_sum   'Zn4 Ag8 P8 S24'
_cell_volume   946.96777154
_cell_formula_units_Z   4
loop_
 _symmetry_equiv_pos_site_id
 _symmetry_equiv_pos_as_xyz
  1  'x, y, z'
loop_
 _atom_site_type_symbol
 _atom_site_label
 _atom_site_symmetry_multiplicity
 _atom_site_fract_x
 _atom_site_fract_y
 _atom_site_fract_z
 _atom_site_occupancy
  Zn  Zn0  1  0.81765700  0.95405000  0.12594000  1
  Zn  Zn1  1  0.18234300  0.04595000  0.87406000  1
  Zn  Zn2  1  0.04595000  0.18234300  0.37406000  1
  Zn  Zn3  1  0.95405000  0.81765700  0.62594000  1
  Ag  Ag0  1  0.53244900  0.74798400  0.81295600  1
  Ag  Ag1  1  0.46755100  0.25201600  0.18704400  1
  Ag  Ag2  1  0.25201600  0.46755100  0.68704400  1
  Ag  Ag3  1  0.74798400  0.53244900  0.31295600  1
  Ag  Ag4  1  0.51827900  0.69721200  0.94002500  1
  Ag  Ag5  1  0.48172100  0.30278800  0.05997500  1
  Ag  Ag6  1  0.30278800  0.48172100  0.55997500  1
  Ag  Ag7  1  0.69721200  0.51827900  0.44002500  1
  P  P0  1  0.59070400  0.13410100  0.66656500  1
  P  P1  1  0.40929600  0.86589900  0.33343500  1
  P  P2  1  0.86589900  0.40929600  0.83343500  1
  P  P3  1  0.13410100  0.59070400  0.16656500  1
  P  P4  1  0.62485800  0.14462800  0.58307800  1
  P  P5  1  0.37514200  0.85537200  0.41692200  1
  P  P6  1  0.85537200  0.37514200  0.91692200  1
  P  P7  1  0.14462800  0.62485800  0.08307800  1
  S  S0  1  0.51489000  0.30147000  0.94282200  1
  S  S1  1  0.48511000  0.69853000  0.05717800  1
  S  S2  1  0.69853000  0.48511000  0.55717800  1
  S  S3  1  0.30147000  0.51489000  0.44282200  1
  S  S4  1  0.90870600  0.08523400  0.56336400  1
  S  S5  1  0.09129400  0.91476600  0.43663600  1
  S  S6  1  0.91476600  0.09129400  0.93663600  1
  S  S7  1  0.08523400  0.90870600  0.06336400  1
  S  S8  1  0.64265100  0.85555100  0.69243000  1
  S  S9  1  0.35734900  0.14444900  0.30757000  1
  S  S10  1  0.14444900  0.35734900  0.80757000  1
  S  S11  1  0.85555100  0.64265100  0.19243000  1
  S  S12  1  0.24648000  0.07247100  0.68701500  1
  S  S13  1  0.75352000  0.92752900  0.31298500  1
  S  S14  1  0.92752900  0.75352000  0.81298500  1
  S  S15  1  0.07247100  0.24648000  0.18701500  1
  S  S16  1  0.29651500  0.87028600  0.56444100  1
  S  S17  1  0.70348500  0.12971400  0.43555900  1
  S  S18  1  0.12971400  0.70348500  0.93555900  1
  S  S19  1  0.87028600  0.29651500  0.06444100  1
  S  S20  1  0.53314900  0.14193100  0.81421400  1
  S  S21  1  0.46685100  0.85806900  0.18578600  1
  S  S22  1  0.85806900  0.46685100  0.68578600  1
  S  S23  1  0.14193100  0.53314900  0.31421400  1
loop_
_geom_bond_atom_site_label_1
_geom_bond_atom_site_label_2
_geom_bond_distance
_geom_bond_site_symmetry_2
Ag0 S14 2.483136 1_555
Ag0 S10 2.490396 1_555
Ag0 S20 2.493067 1_565
Ag0 S8 3.302004 1_555
Ag0 Ag4 3.473169 1_555
Ag1 S15 2.483136 1_555
Ag1 S11 2.490396 1_555
Ag1 S21 2.493067 1_545
Ag1 S9 3.302004 1_555
Ag1 Ag5 3.473169 1_555
Ag2 S12 2.483136 1_555
Ag2 S8 2.490396 1_555
Ag2 S22 2.493067 1_455
Ag2 S10 3.302004 1_555
Ag2 Ag6 3.473169 1_555
Ag3 S13 2.483136 1_555
Ag3 S9 2.490396 1_555
Ag3 S23 2.493067 1_655
Ag3 S11 3.302004 1_555
Ag3 Ag7 3.473169 1_555
Ag4 S18 2.488545 1_555
Ag4 S0 2.490909 1_555
Ag4 S6 2.499723 1_565
Ag4 S1 3.207929 1_556
Ag5 S19 2.488545 1_555
Ag5 S1 2.490909 1_555
Ag5 S7 2.499723 1_545
Ag5 S0 3.207929 1_554
Ag6 S16 2.488545 1_555
Ag6 S2 2.490909 1_555
Ag6 S4 2.499723 1_455
Ag6 S3 3.207929 1_555
Ag7 S17 2.488545 1_555
Ag7 S3 2.490909 1_555
Ag7 S5 2.499723 1_655
Ag7 S2 3.207929 1_555
P0 S8 2.045811 1_545
P0 S12 2.052171 1_555
P0 S22 2.060660 1_555
P0 P4 2.281511 1_555
P1 S9 2.045811 1_565
P1 S13 2.052171 1_555
P1 S23 2.060660 1_555
P1 P5 2.281511 1_555
P2 S10 2.045811 1_655
P2 S14 2.052171 1_555
P2 S20 2.060660 1_555
P2 P6 2.281511 1_555
P3 S11 2.045811 1_455
P3 S15 2.052171 1_555
P3 S21 2.060660 1_555
P3 P7 2.281511 1_555
P4 S2 2.040648 1_555
P4 S16 2.052898 1_545
P4 S4 2.061380 1_555
P5 S3 2.040648 1_555
P5 S17 2.052898 1_565
P5 S5 2.061380 1_555
P6 S0 2.040648 1_555
P6 S18 2.052898 1_655
P6 S6 2.061380 1_555
P7 S1 2.040648 1_555
P7 S19 2.052898 1_455
P7 S7 2.061380 1_555
S0 Zn1 2.822954 1_555
S1 Zn0 2.822954 1_555
S2 Zn3 2.822954 1_555
S3 Zn2 2.822954 1_555
S4 Zn3 2.473030 1_545
S5 Zn2 2.473030 1_565
S6 Zn1 2.473030 1_655
S7 Zn0 2.473030 1_455
S8 Zn3 2.719098 1_555
S9 Zn2 2.719098 1_555
S10 Zn1 2.719098 1_555
S11 Zn0 2.719098 1_555
S12 Zn3 2.546704 1_445
S13 Zn2 2.546704 1_665
S14 Zn1 2.546704 1_665
S15 Zn0 2.546704 1_445
S16 Zn3 2.545094 1_455
S17 Zn2 2.545094 1_655
S18 Zn1 2.545094 1_565
S19 Zn0 2.545094 1_545
S20 Zn1 2.479350 1_555
S21 Zn0 2.479350 1_555
S22 Zn3 2.479350 1_555
S23 Zn2 2.479350 1_555
