# generated using pymatgen
data_Dy2Sb5
_symmetry_space_group_name_H-M   'P 1'
_cell_length_a   4.21335032
_cell_length_b   13.18698041
_cell_length_c   14.77926350
_cell_angle_alpha   102.44927242
_cell_angle_beta   90.00000000
_cell_angle_gamma   90.00000000
_symmetry_Int_Tables_number   1
_chemical_formula_structural   Dy2Sb5
_chemical_formula_sum   'Dy8 Sb20'
_cell_volume   801.84846389
_cell_formula_units_Z   4
loop_
 _symmetry_equiv_pos_site_id
 _symmetry_equiv_pos_as_xyz
  1  'x, y, z'
loop_
 _atom_site_type_symbol
 _atom_site_label
 _atom_site_symmetry_multiplicity
 _atom_site_fract_x
 _atom_site_fract_y
 _atom_site_fract_z
 _atom_site_occupancy
  Dy  Dy0  1  0.25000000  0.60594067  0.77111239  1
  Dy  Dy1  1  0.75000000  0.39405933  0.22888761  1
  Dy  Dy2  1  0.25000000  0.33736957  0.85523271  1
  Dy  Dy3  1  0.75000000  0.66263043  0.14476729  1
  Dy  Dy4  1  0.25000000  0.33003096  0.57790750  1
  Dy  Dy5  1  0.75000000  0.66996904  0.42209250  1
  Dy  Dy6  1  0.25000000  0.04793781  0.36423722  1
  Dy  Dy7  1  0.75000000  0.95206219  0.63576278  1
  Sb  Sb0  1  0.25000000  0.85927916  0.77768334  1
  Sb  Sb1  1  0.75000000  0.14072084  0.22231666  1
  Sb  Sb2  1  0.25000000  0.85715599  0.48073832  1
  Sb  Sb3  1  0.75000000  0.14284401  0.51926168  1
  Sb  Sb4  1  0.25000000  0.84763390  0.17623099  1
  Sb  Sb5  1  0.75000000  0.15236610  0.82376901  1
  Sb  Sb6  1  0.25000000  0.57985392  0.97505365  1
  Sb  Sb7  1  0.75000000  0.42014608  0.02494635  1
  Sb  Sb8  1  0.75000000  0.96977341  0.89669103  1
  Sb  Sb9  1  0.25000000  0.03022659  0.10330897  1
  Sb  Sb10  1  0.75000000  0.86188370  0.32346871  1
  Sb  Sb11  1  0.25000000  0.13811630  0.67653129  1
  Sb  Sb12  1  0.75000000  0.71821611  0.93990241  1
  Sb  Sb13  1  0.25000000  0.28178389  0.06009759  1
  Sb  Sb14  1  0.75000000  0.71184013  0.64955604  1
  Sb  Sb15  1  0.25000000  0.28815987  0.35044396  1
  Sb  Sb16  1  0.75000000  0.42373445  0.73463141  1
  Sb  Sb17  1  0.25000000  0.57626555  0.26536859  1
  Sb  Sb18  1  0.75000000  0.42360910  0.44717881  1
  Sb  Sb19  1  0.25000000  0.57639090  0.55282119  1
loop_
_geom_bond_atom_site_label_1
_geom_bond_atom_site_label_2
_geom_bond_distance
_geom_bond_site_symmetry_2
Dy0 Sb6 3.106476 1_555
Dy0 Sb16 3.153322 1_455
Dy0 Sb16 3.153322 1_555
Dy0 Sb19 3.165135 1_555
Dy0 Sb14 3.270690 1_455
Dy0 Sb14 3.270690 1_555
Dy0 Sb0 3.321189 1_555
Dy0 Sb12 3.355704 1_455
Dy0 Sb12 3.355704 1_555
Dy1 Sb7 3.106476 1_555
Dy1 Sb17 3.153322 1_555
Dy1 Sb17 3.153322 1_655
Dy1 Sb18 3.165135 1_555
Dy1 Sb15 3.270690 1_655
Dy1 Sb15 3.270690 1_555
Dy1 Sb1 3.321189 1_555
Dy1 Sb13 3.355704 1_555
Dy1 Sb13 3.355704 1_655
Dy2 Sb16 3.128469 1_555
Dy2 Sb16 3.128469 1_455
Dy2 Sb5 3.180727 1_455
Dy2 Sb5 3.180727 1_555
Dy2 Sb13 3.265189 1_556
Dy2 Sb7 3.277260 1_556
Dy2 Sb7 3.277260 1_456
Dy2 Sb11 3.299591 1_555
Dy2 Sb6 3.304454 1_555
Dy3 Sb17 3.128469 1_555
Dy3 Sb17 3.128469 1_655
Dy3 Sb4 3.180727 1_555
Dy3 Sb4 3.180727 1_655
Dy3 Sb12 3.265189 1_554
Dy3 Sb6 3.277260 1_554
Dy3 Sb6 3.277260 1_654
Dy3 Sb10 3.299591 1_555
Dy3 Sb7 3.304454 1_555
Dy4 Sb16 3.177424 1_455
Dy4 Sb16 3.177424 1_555
Dy4 Sb11 3.181166 1_555
Dy4 Sb3 3.218700 1_555
Dy4 Sb3 3.218700 1_455
Dy4 Sb18 3.274405 1_455
Dy4 Sb18 3.274405 1_555
Dy4 Sb15 3.287232 1_555
Dy4 Sb19 3.348300 1_555
Dy5 Sb17 3.177424 1_655
Dy5 Sb17 3.177424 1_555
Dy5 Sb10 3.181166 1_555
Dy5 Sb2 3.218700 1_555
Dy5 Sb2 3.218700 1_655
Dy5 Sb19 3.274405 1_555
Dy5 Sb19 3.274405 1_655
Dy5 Sb14 3.287232 1_555
Dy5 Sb18 3.348300 1_555
Dy6 Sb3 3.165037 1_455
Dy6 Sb3 3.165037 1_555
Dy6 Sb10 3.191140 1_445
Dy6 Sb10 3.191140 1_545
Dy6 Sb15 3.217912 1_555
Dy6 Sb2 3.340909 1_545
Dy6 Sb1 3.382455 1_455
Dy6 Sb1 3.382455 1_555
Dy6 Sb4 3.396059 1_545
Dy7 Sb2 3.165037 1_655
Dy7 Sb2 3.165037 1_555
Dy7 Sb11 3.191140 1_565
Dy7 Sb11 3.191140 1_665
Dy7 Sb14 3.217912 1_555
Dy7 Sb3 3.340909 1_565
Dy7 Sb0 3.382455 1_555
Dy7 Sb0 3.382455 1_655
Dy7 Sb5 3.396059 1_565
Sb0 Sb8 2.923999 1_455
Sb0 Sb8 2.923999 1_555
Sb0 Sb14 3.196362 1_455
Sb0 Sb14 3.196362 1_555
Sb0 Sb12 3.945776 1_455
Sb0 Sb12 3.945776 1_555
Sb1 Sb9 2.923999 1_655
Sb1 Sb9 2.923999 1_555
Sb1 Sb15 3.196362 1_655
Sb1 Sb15 3.196362 1_555
Sb1 Sb13 3.945776 1_555
Sb1 Sb13 3.945776 1_655
Sb4 Sb9 2.842196 1_565
Sb5 Sb8 2.842196 1_545
Sb6 Sb7 3.175984 1_556
Sb6 Sb7 3.175984 1_456
Sb8 Sb9 3.653610 1_566
Sb8 Sb9 3.653610 1_666
Sb10 Sb4 3.005387 1_555
Sb10 Sb4 3.005387 1_655
Sb10 Sb2 3.147531 1_555
Sb10 Sb2 3.147531 1_655
Sb11 Sb5 3.005387 1_455
Sb11 Sb5 3.005387 1_555
Sb11 Sb3 3.147531 1_455
Sb11 Sb3 3.147531 1_555
Sb12 Sb6 2.906156 1_655
Sb12 Sb6 2.906156 1_555
Sb12 Sb8 3.510784 1_555
Sb13 Sb7 2.906156 1_455
Sb13 Sb7 2.906156 1_555
Sb13 Sb9 3.510784 1_555
Sb14 Sb19 2.927700 1_555
Sb14 Sb19 2.927700 1_655
Sb15 Sb18 2.927700 1_455
Sb15 Sb18 2.927700 1_555
Sb18 Sb19 3.094946 1_655
Sb18 Sb19 3.094946 1_555
