# generated using pymatgen
data_MnZnSiO5
_symmetry_space_group_name_H-M   'P 1'
_cell_length_a   5.37820552
_cell_length_b   7.12421001
_cell_length_c   8.05351870
_cell_angle_alpha   90.18779308
_cell_angle_beta   41.60967476
_cell_angle_gamma   71.59504156
_symmetry_Int_Tables_number   1
_chemical_formula_structural   MnZnSiO5
_chemical_formula_sum   'Mn2 Zn2 Si2 O10'
_cell_volume   179.85444508
_cell_formula_units_Z   2
loop_
 _symmetry_equiv_pos_site_id
 _symmetry_equiv_pos_as_xyz
  1  'x, y, z'
loop_
 _atom_site_type_symbol
 _atom_site_label
 _atom_site_symmetry_multiplicity
 _atom_site_fract_x
 _atom_site_fract_y
 _atom_site_fract_z
 _atom_site_occupancy
  Mn  Mn0  1  0.49815200  0.48616000  0.99661400  1
  Mn  Mn1  1  0.50029600  0.98583400  0.99501100  1
  Zn  Zn0  1  0.45180400  0.23391800  0.70541400  1
  Zn  Zn1  1  0.56748700  0.72605400  0.27486800  1
  Si  Si0  1  0.52290800  0.23330000  0.32927900  1
  Si  Si1  1  0.47040400  0.73952000  0.66462700  1
  O  O0  1  0.50499000  0.04392700  0.22782100  1
  O  O1  1  0.60070600  0.40271500  0.17685900  1
  O  O2  1  0.49106900  0.92907000  0.76357700  1
  O  O3  1  0.38546800  0.57368600  0.82233300  1
  O  O4  1  0.88620800  0.61610100  0.33092000  1
  O  O5  1  0.11852000  0.83540000  0.68695400  1
  O  O6  1  0.11119300  0.35302600  0.66353400  1
  O  O7  1  0.88072800  0.13585900  0.30210000  1
  O  O8  1  0.48477300  0.73948200  0.08020700  1
  O  O9  1  0.51202400  0.23307900  0.91189600  1
loop_
_geom_bond_atom_site_label_1
_geom_bond_atom_site_label_2
_geom_bond_distance
_geom_bond_site_symmetry_2
Mn0 O9 1.884877 1_555
Mn0 O8 1.884942 1_556
Mn0 O4 1.935666 1_456
Mn0 O6 1.936237 1_655
Mn0 O1 1.939239 1_556
Mn0 O3 1.940419 1_555
Mn1 O9 1.889286 1_565
Mn1 O8 1.890171 1_556
Mn1 O5 1.938038 1_655
Mn1 O0 1.938972 1_566
Mn1 O7 1.942324 1_466
Mn1 O2 1.945767 1_555
O0 Si0 1.640032 1_555
O0 Zn1 2.258392 1_545
O1 Si0 1.642911 1_555
O1 Zn1 2.340629 1_555
O2 Si1 1.640463 1_555
O2 Zn0 2.201297 1_565
O3 Si1 1.643358 1_555
O3 Zn0 2.410498 1_555
O3 Zn1 2.607170 1_456
O4 Si1 1.659045 1_555
O4 Zn1 2.016734 1_555
O5 Si1 1.659675 1_555
O5 Zn1 2.064797 1_555
O6 Si0 1.660098 1_555
O6 Zn0 2.033175 1_555
O7 Si0 1.660952 1_555
O7 Zn0 2.030416 1_555
O8 Zn1 1.918783 1_555
O9 Zn0 1.916873 1_555
