# generated using pymatgen
data_TbCo3P2
_symmetry_space_group_name_H-M   'P 1'
_cell_length_a   3.69379479
_cell_length_b   10.43301991
_cell_length_c   12.13095140
_cell_angle_alpha   90.00000000
_cell_angle_beta   90.00000000
_cell_angle_gamma   90.00000000
_symmetry_Int_Tables_number   1
_chemical_formula_structural   TbCo3P2
_chemical_formula_sum   'Tb6 Co18 P12'
_cell_volume   467.49574606
_cell_formula_units_Z   6
loop_
 _symmetry_equiv_pos_site_id
 _symmetry_equiv_pos_as_xyz
  1  'x, y, z'
loop_
 _atom_site_type_symbol
 _atom_site_label
 _atom_site_symmetry_multiplicity
 _atom_site_fract_x
 _atom_site_fract_y
 _atom_site_fract_z
 _atom_site_occupancy
  Tb  Tb0  1  -0.00000000  0.50000000  0.52117729  1
  Tb  Tb1  1  0.50000000  -0.00000000  0.47882271  1
  Tb  Tb2  1  0.50000000  0.81732938  0.20610064  1
  Tb  Tb3  1  0.50000000  0.18267062  0.20610064  1
  Tb  Tb4  1  -0.00000000  0.68267062  0.79389936  1
  Tb  Tb5  1  0.00000000  0.31732938  0.79389936  1
  Co  Co0  1  0.50000000  0.50000000  0.15475319  1
  Co  Co1  1  -0.00000000  -0.00000000  0.84524681  1
  Co  Co2  1  0.50000000  0.50000000  0.70370767  1
  Co  Co3  1  0.00000000  -0.00000000  0.29629233  1
  Co  Co4  1  -0.00000000  0.50000000  0.98699761  1
  Co  Co5  1  0.50000000  -0.00000000  0.01300239  1
  Co  Co6  1  0.50000000  0.33324268  0.99548442  1
  Co  Co7  1  0.50000000  0.66675732  0.99548442  1
  Co  Co8  1  0.00000000  0.16675732  0.00451558  1
  Co  Co9  1  0.00000000  0.83324268  0.00451558  1
  Co  Co10  1  0.50000000  0.29648047  0.43059821  1
  Co  Co11  1  0.50000000  0.70351953  0.43059821  1
  Co  Co12  1  -0.00000000  0.20351953  0.56940179  1
  Co  Co13  1  0.00000000  0.79648047  0.56940179  1
  Co  Co14  1  0.50000000  0.88056617  0.71020178  1
  Co  Co15  1  0.50000000  0.11943383  0.71020178  1
  Co  Co16  1  0.00000000  0.61943383  0.28979822  1
  Co  Co17  1  0.00000000  0.38056617  0.28979822  1
  P  P0  1  0.50000000  0.50000000  0.88291899  1
  P  P1  1  -0.00000000  -0.00000000  0.11708101  1
  P  P2  1  0.50000000  0.50000000  0.34233008  1
  P  P3  1  0.00000000  -0.00000000  0.65766992  1
  P  P4  1  0.50000000  0.30975840  0.61499094  1
  P  P5  1  0.50000000  0.69024160  0.61499094  1
  P  P6  1  0.00000000  0.19024160  0.38500906  1
  P  P7  1  0.00000000  0.80975840  0.38500906  1
  P  P8  1  0.50000000  0.84651853  0.89414607  1
  P  P9  1  0.50000000  0.15348147  0.89414607  1
  P  P10  1  -0.00000000  0.65348147  0.10585393  1
  P  P11  1  0.00000000  0.34651853  0.10585393  1
loop_
_geom_bond_atom_site_label_1
_geom_bond_atom_site_label_2
_geom_bond_distance
_geom_bond_site_symmetry_2
Co0 P2 2.275486 1_555
Co0 P11 2.515351 1_555
Co0 P10 2.515351 1_655
Co0 P10 2.515351 1_555
Co0 P11 2.515351 1_655
Co0 Co7 2.599958 1_554
Co0 Co6 2.599958 1_554
Co0 Co4 2.748162 1_654
Co0 Co4 2.748162 1_554
Co0 Co16 2.765405 1_555
Co0 Co16 2.765405 1_655
Co0 Co17 2.765405 1_555
Co0 Co17 2.765405 1_655
Co1 P3 2.275486 1_555
Co1 P9 2.515351 1_455
Co1 P8 2.515351 1_545
Co1 P8 2.515351 1_445
Co1 P9 2.515351 1_555
Co1 Co9 2.599958 1_546
Co1 Co8 2.599958 1_556
Co1 Co5 2.748162 1_556
Co1 Co5 2.748162 1_456
Co1 Co15 2.765405 1_455
Co1 Co14 2.765405 1_545
Co1 Co14 2.765405 1_445
Co1 Co15 2.765405 1_555
Co2 P0 2.174004 1_555
Co2 P5 2.257799 1_555
Co2 P4 2.257799 1_555
Co2 Tb5 2.870576 1_555
Co2 Tb5 2.870576 1_655
Co2 Tb4 2.870576 1_555
Co2 Tb4 2.870576 1_655
Co2 Tb0 2.883402 1_655
Co2 Tb0 2.883402 1_555
Co3 P1 2.174004 1_555
Co3 P6 2.257799 1_555
Co3 P7 2.257799 1_545
Co3 Tb2 2.870576 1_545
Co3 Tb3 2.870576 1_455
Co3 Tb2 2.870576 1_445
Co3 Tb3 2.870576 1_555
Co3 Tb1 2.883402 1_455
Co3 Tb1 2.883402 1_555
Co4 P11 2.154759 1_556
Co4 P10 2.154759 1_556
Co4 P0 2.237212 1_555
Co4 P0 2.237212 1_455
Co4 Co6 2.539384 1_455
Co4 Co6 2.539384 1_555
Co4 Co7 2.539384 1_455
Co4 Co7 2.539384 1_555
Co4 Tb4 3.019808 1_555
Co4 Tb5 3.019808 1_555
Co5 P8 2.154759 1_544
Co5 P9 2.154759 1_554
Co5 P1 2.237212 1_555
Co5 P1 2.237212 1_655
Co5 Co8 2.539384 1_555
Co5 Co9 2.539384 1_645
Co5 Co9 2.539384 1_545
Co5 Co8 2.539384 1_655
Co5 Tb2 3.019808 1_545
Co5 Tb3 3.019808 1_555
Co6 P0 2.211674 1_555
Co6 P9 2.242448 1_555
Co6 P11 2.285352 1_656
Co6 P11 2.285352 1_556
Co6 Co8 2.537718 1_556
Co6 Co8 2.537718 1_656
Co6 Tb3 2.999282 1_556
Co6 Tb5 3.068984 1_555
Co6 Tb5 3.068984 1_655
Co7 P0 2.211674 1_555
Co7 P8 2.242448 1_555
Co7 P10 2.285352 1_656
Co7 P10 2.285352 1_556
Co7 Co9 2.537718 1_556
Co7 Co9 2.537718 1_656
Co7 Tb2 2.999282 1_556
Co7 Tb4 3.068984 1_555
Co7 Tb4 3.068984 1_655
Co8 P1 2.211674 1_555
Co8 P11 2.242448 1_555
Co8 P9 2.285352 1_454
Co8 P9 2.285352 1_554
Co8 Tb5 2.999282 1_554
Co8 Tb3 3.068984 1_555
Co8 Tb3 3.068984 1_455
Co9 P1 2.211674 1_565
Co9 P10 2.242448 1_555
Co9 P8 2.285352 1_554
Co9 P8 2.285352 1_454
Co9 Tb4 2.999282 1_554
Co9 Tb2 3.068984 1_555
Co9 Tb2 3.068984 1_455
Co10 P6 2.223829 1_655
Co10 P6 2.223829 1_555
Co10 P4 2.241145 1_555
Co10 P2 2.378038 1_555
Co10 Co17 2.664211 1_555
Co10 Co17 2.664211 1_655
Co10 Co12 2.680842 1_655
Co10 Co12 2.680842 1_555
Co10 Tb3 2.970961 1_555
Co10 Tb0 3.021079 1_655
Co10 Tb0 3.021079 1_555
Co10 Tb1 3.148021 1_555
Co11 P7 2.223829 1_655
Co11 P7 2.223829 1_555
Co11 P5 2.241145 1_555
Co11 P2 2.378038 1_555
Co11 Co16 2.664211 1_655
Co11 Co16 2.664211 1_555
Co11 Co13 2.680842 1_555
Co11 Co13 2.680842 1_655
Co11 Tb2 2.970961 1_555
Co11 Tb0 3.021079 1_655
Co11 Tb0 3.021079 1_555
Co11 Tb1 3.148021 1_565
Co12 P4 2.223829 1_555
Co12 P4 2.223829 1_455
Co12 P6 2.241145 1_555
Co12 P3 2.378038 1_555
Co12 Co15 2.664211 1_455
Co12 Co15 2.664211 1_555
Co12 Tb5 2.970961 1_555
Co12 Tb1 3.021079 1_555
Co12 Tb1 3.021079 1_455
Co12 Tb0 3.148021 1_555
Co13 P5 2.223829 1_555
Co13 P5 2.223829 1_455
Co13 P7 2.241145 1_555
Co13 P3 2.378038 1_565
Co13 Co14 2.664211 1_455
Co13 Co14 2.664211 1_555
Co13 Tb4 2.970961 1_555
Co13 Tb1 3.021079 1_465
Co13 Tb1 3.021079 1_565
Co13 Tb0 3.148021 1_555
Co14 P8 2.259516 1_555
Co14 P5 2.297143 1_555
Co14 P3 2.317280 1_565
Co14 P3 2.317280 1_665
Co14 Co15 2.492111 1_565
Co14 Tb4 2.950373 1_555
Co14 Tb4 2.950373 1_655
Co14 Tb1 3.071002 1_565
Co15 P9 2.259516 1_555
Co15 P4 2.297143 1_555
Co15 P3 2.317280 1_655
Co15 P3 2.317280 1_555
Co15 Tb5 2.950373 1_555
Co15 Tb5 2.950373 1_655
Co15 Tb1 3.071002 1_555
Co16 P10 2.259516 1_555
Co16 P7 2.297143 1_555
Co16 P2 2.317280 1_555
Co16 P2 2.317280 1_455
Co16 Co17 2.492111 1_555
Co16 Tb2 2.950373 1_455
Co16 Tb2 2.950373 1_555
Co16 Tb0 3.071002 1_555
Co17 P11 2.259516 1_555
Co17 P6 2.297143 1_555
Co17 P2 2.317280 1_555
Co17 P2 2.317280 1_455
Co17 Tb3 2.950373 1_455
Co17 Tb3 2.950373 1_555
Co17 Tb0 3.071002 1_555
P0 Tb4 2.865187 1_555
P0 Tb4 2.865187 1_655
P0 Tb5 2.865187 1_555
P0 Tb5 2.865187 1_655
P1 Tb2 2.865187 1_545
P1 Tb3 2.865187 1_555
P1 Tb2 2.865187 1_445
P1 Tb3 2.865187 1_455
P2 Tb0 2.849234 1_555
P2 Tb0 2.849234 1_655
P3 Tb1 2.849234 1_455
P3 Tb1 2.849234 1_555
P4 Tb5 2.850894 1_555
P4 Tb5 2.850894 1_655
P4 Tb0 2.940339 1_655
P4 Tb0 2.940339 1_555
P5 Tb4 2.850894 1_555
P5 Tb4 2.850894 1_655
P5 Tb0 2.940339 1_655
P5 Tb0 2.940339 1_555
P6 Tb3 2.850894 1_455
P6 Tb3 2.850894 1_555
P6 Tb1 2.940339 1_455
P6 Tb1 2.940339 1_555
P7 Tb2 2.850894 1_455
P7 Tb2 2.850894 1_555
P7 Tb1 2.940339 1_465
P7 Tb1 2.940339 1_565
P8 Tb4 2.795004 1_655
P8 Tb4 2.795004 1_555
P9 Tb5 2.795004 1_555
P9 Tb5 2.795004 1_655
P10 Tb2 2.795004 1_455
P10 Tb2 2.795004 1_555
P11 Tb3 2.795004 1_455
P11 Tb3 2.795004 1_555
