# generated using pymatgen
data_Yb2SeO2
_symmetry_space_group_name_H-M   'P 1'
_cell_length_a   3.73817219
_cell_length_b   3.73817219
_cell_length_c   6.67094790
_cell_angle_alpha   90.00000000
_cell_angle_beta   90.00000000
_cell_angle_gamma   120.00000444
_symmetry_Int_Tables_number   1
_chemical_formula_structural   Yb2SeO2
_chemical_formula_sum   'Yb2 Se1 O2'
_cell_volume   80.73033704
_cell_formula_units_Z   1
loop_
 _symmetry_equiv_pos_site_id
 _symmetry_equiv_pos_as_xyz
  1  'x, y, z'
loop_
 _atom_site_type_symbol
 _atom_site_label
 _atom_site_symmetry_multiplicity
 _atom_site_fract_x
 _atom_site_fract_y
 _atom_site_fract_z
 _atom_site_occupancy
  Yb  Yb0  1  0.66666700  0.33333300  0.70735215  1
  Yb  Yb1  1  0.33333300  0.66666700  0.29264785  1
  Se  Se0  1  0.00000000  0.00000000  0.00000000  1
  O  O0  1  0.66666700  0.33333300  0.37472074  1
  O  O1  1  0.33333300  0.66666700  0.62527926  1
loop_
_geom_bond_atom_site_label_1
_geom_bond_atom_site_label_2
_geom_bond_distance
_geom_bond_site_symmetry_2
Se0 Yb1 2.910190 1_545
Se0 Yb0 2.910190 1_454
Se0 Yb1 2.910192 1_555
Se0 Yb1 2.910192 1_445
Se0 Yb0 2.910192 1_554
Se0 Yb0 2.910192 1_444
O0 Yb0 2.218967 1_555
O0 Yb1 2.226596 1_655
O0 Yb1 2.226596 1_545
O0 Yb1 2.226602 1_555
O0 O1 2.729790 1_655
O0 O1 2.729790 1_545
O0 O1 2.729796 1_555
O0 Se0 3.302526 1_655
O0 Se0 3.302528 1_555
O0 Se0 3.302528 1_665
O1 Yb1 2.218967 1_555
O1 Yb0 2.226596 1_565
O1 Yb0 2.226596 1_455
O1 Yb0 2.226602 1_555
O1 Se0 3.302526 1_566
O1 Se0 3.302528 1_556
O1 Se0 3.302528 1_666
