# generated using pymatgen
data_YLuRu2
_symmetry_space_group_name_H-M   'P 1'
_cell_length_a   4.77215194
_cell_length_b   4.77215194
_cell_length_c   4.77215194
_cell_angle_alpha   60.00000000
_cell_angle_beta   60.00000000
_cell_angle_gamma   60.00000000
_symmetry_Int_Tables_number   1
_chemical_formula_structural   YLuRu2
_chemical_formula_sum   'Y1 Lu1 Ru2'
_cell_volume   76.84715451
_cell_formula_units_Z   1
loop_
 _symmetry_equiv_pos_site_id
 _symmetry_equiv_pos_as_xyz
  1  'x, y, z'
loop_
 _atom_site_type_symbol
 _atom_site_label
 _atom_site_symmetry_multiplicity
 _atom_site_fract_x
 _atom_site_fract_y
 _atom_site_fract_z
 _atom_site_occupancy
  Y  Y0  1  0.00000000  0.00000000  0.00000000  1
  Lu  Lu0  1  0.50000000  0.50000000  0.50000000  1
  Ru  Ru0  1  0.25000000  0.25000000  0.25000000  1
  Ru  Ru1  1  0.75000000  0.75000000  0.75000000  1
loop_
_geom_bond_atom_site_label_1
_geom_bond_atom_site_label_2
_geom_bond_distance
_geom_bond_site_symmetry_2
Lu0 Ru0 2.922334 1_655
Lu0 Ru0 2.922334 1_556
Lu0 Ru1 2.922334 1_555
Lu0 Ru1 2.922334 1_545
Lu0 Ru1 2.922334 1_554
Lu0 Ru0 2.922334 1_555
Lu0 Ru0 2.922334 1_565
Lu0 Ru1 2.922334 1_455
Lu0 Y0 3.374421 1_566
Lu0 Y0 3.374421 1_665
Lu0 Y0 3.374421 1_655
Lu0 Y0 3.374421 1_556
Lu0 Y0 3.374421 1_656
Lu0 Y0 3.374421 1_565
Ru0 Y0 2.922334 1_655
Ru0 Y0 2.922334 1_556
Ru0 Y0 2.922334 1_555
Ru0 Y0 2.922334 1_565
Ru0 Ru1 3.374421 1_454
Ru0 Ru1 3.374421 1_455
Ru0 Ru1 3.374421 1_544
Ru0 Ru1 3.374421 1_445
Ru0 Ru1 3.374421 1_545
Ru0 Ru1 3.374421 1_554
Ru1 Y0 2.922334 1_666
Ru1 Y0 2.922334 1_566
Ru1 Y0 2.922334 1_656
Ru1 Y0 2.922334 1_665
