# generated using pymatgen
data_NaMn2O4
_symmetry_space_group_name_H-M   'P 1'
_cell_length_a   6.03438782
_cell_length_b   9.90824546
_cell_length_c   9.82211210
_cell_angle_alpha   90.00000000
_cell_angle_beta   90.00000000
_cell_angle_gamma   90.00000000
_symmetry_Int_Tables_number   1
_chemical_formula_structural   NaMn2O4
_chemical_formula_sum   'Na8 Mn16 O32'
_cell_volume   587.26600486
_cell_formula_units_Z   8
loop_
 _symmetry_equiv_pos_site_id
 _symmetry_equiv_pos_as_xyz
  1  'x, y, z'
loop_
 _atom_site_type_symbol
 _atom_site_label
 _atom_site_symmetry_multiplicity
 _atom_site_fract_x
 _atom_site_fract_y
 _atom_site_fract_z
 _atom_site_occupancy
  Na  Na0  1  0.12478975  0.85512958  0.24999389  1
  Na  Na1  1  0.12478975  0.64487042  0.74999389  1
  Na  Na2  1  0.37521025  0.35512958  0.24999389  1
  Na  Na3  1  0.37521025  0.14487042  0.74999389  1
  Na  Na4  1  0.62478975  0.85512958  0.25000611  1
  Na  Na5  1  0.62478975  0.64487042  0.75000611  1
  Na  Na6  1  0.87521025  0.14487042  0.75000611  1
  Na  Na7  1  0.87521025  0.35512958  0.25000611  1
  Mn  Mn0  1  0.12338617  0.38733854  0.92799535  1
  Mn  Mn1  1  0.12338617  0.11266146  0.42799535  1
  Mn  Mn2  1  0.12338869  0.38731858  0.57203548  1
  Mn  Mn3  1  0.12338869  0.11268142  0.07203548  1
  Mn  Mn4  1  0.37661283  0.88733854  0.92799535  1
  Mn  Mn5  1  0.37661131  0.61268142  0.07203548  1
  Mn  Mn6  1  0.37661283  0.61266146  0.42799535  1
  Mn  Mn7  1  0.37661131  0.88731858  0.57203548  1
  Mn  Mn8  1  0.62338717  0.11266146  0.07200465  1
  Mn  Mn9  1  0.62338869  0.11268142  0.42796452  1
  Mn  Mn10  1  0.62338717  0.38733854  0.57200465  1
  Mn  Mn11  1  0.62338869  0.38731858  0.92796452  1
  Mn  Mn12  1  0.87661283  0.61266146  0.07200465  1
  Mn  Mn13  1  0.87661131  0.61268142  0.42796452  1
  Mn  Mn14  1  0.87661283  0.88733854  0.57200465  1
  Mn  Mn15  1  0.87661131  0.88731858  0.92796452  1
  O  O0  1  0.12470604  0.01581921  0.60405239  1
  O  O1  1  0.12516456  0.01581523  0.89596609  1
  O  O2  1  0.12516456  0.48418477  0.39596609  1
  O  O3  1  0.12470604  0.48418079  0.10405239  1
  O  O4  1  0.12464240  0.18352934  0.25003561  1
  O  O5  1  0.12464240  0.31647066  0.75003561  1
  O  O6  1  0.13192033  0.74999476  0.50006041  1
  O  O7  1  0.13192033  0.75000524  0.00006041  1
  O  O8  1  0.36807967  0.24999476  0.50006041  1
  O  O9  1  0.36807967  0.25000524  0.00006041  1
  O  O10  1  0.37535760  0.68352934  0.25003561  1
  O  O11  1  0.37535760  0.81647066  0.75003561  1
  O  O12  1  0.37529396  0.98418079  0.10405239  1
  O  O13  1  0.37529396  0.51581921  0.60405239  1
  O  O14  1  0.37483544  0.51581523  0.89596609  1
  O  O15  1  0.37483544  0.98418477  0.39596609  1
  O  O16  1  0.62516456  0.01581523  0.60403391  1
  O  O17  1  0.62470604  0.01581921  0.89594761  1
  O  O18  1  0.62516456  0.48418477  0.10403391  1
  O  O19  1  0.62470604  0.48418079  0.39594761  1
  O  O20  1  0.62464240  0.18352934  0.24996439  1
  O  O21  1  0.62464240  0.31647066  0.74996439  1
  O  O22  1  0.63192033  0.74999476  0.99993959  1
  O  O23  1  0.63192033  0.75000524  0.49993959  1
  O  O24  1  0.86807967  0.25000524  0.49993959  1
  O  O25  1  0.86807967  0.24999476  0.99993959  1
  O  O26  1  0.87535760  0.68352934  0.24996439  1
  O  O27  1  0.87535760  0.81647066  0.74996439  1
  O  O28  1  0.87483544  0.51581523  0.60403391  1
  O  O29  1  0.87529396  0.51581921  0.89594761  1
  O  O30  1  0.87483544  0.98418477  0.10403391  1
  O  O31  1  0.87529396  0.98418079  0.39594761  1
loop_
_geom_bond_atom_site_label_1
_geom_bond_atom_site_label_2
_geom_bond_distance
_geom_bond_site_symmetry_2
Na0 O26 2.270774 1_455
Na0 O10 2.275322 1_555
Na0 O31 2.440661 1_455
Na0 O30 2.442426 1_455
Na0 O15 2.442837 1_555
Na0 O12 2.444349 1_555
Na0 O7 2.667056 1_555
Na0 O6 2.668299 1_555
Na1 O27 2.270774 1_455
Na1 O11 2.275322 1_555
Na1 O29 2.440661 1_455
Na1 O28 2.442426 1_455
Na1 O14 2.442837 1_555
Na1 O13 2.444349 1_555
Na1 O6 2.667056 1_555
Na1 O7 2.668299 1_556
Na2 O20 2.270774 1_555
Na2 O4 2.275322 1_555
Na2 O19 2.440661 1_555
Na2 O18 2.442426 1_555
Na2 O2 2.442837 1_555
Na2 O3 2.444349 1_555
Na2 O9 2.667056 1_555
Na2 O8 2.668299 1_555
Na3 O21 2.270774 1_555
Na3 O5 2.275322 1_555
Na3 O17 2.440661 1_555
Na3 O16 2.442426 1_555
Na3 O1 2.442837 1_555
Na3 O0 2.444349 1_555
Na3 O8 2.667056 1_555
Na3 O9 2.668299 1_556
Na4 O10 2.270774 1_555
Na4 O26 2.275322 1_555
Na4 O12 2.440661 1_555
Na4 O15 2.442426 1_555
Na4 O30 2.442837 1_555
Na4 O31 2.444349 1_555
Na4 O23 2.667056 1_555
Na4 O22 2.668299 1_554
Na5 O11 2.270774 1_555
Na5 O27 2.275322 1_555
Na5 O13 2.440661 1_555
Na5 O14 2.442426 1_555
Na5 O28 2.442837 1_555
Na5 O29 2.444349 1_555
Na5 O22 2.667056 1_555
Na5 O23 2.668299 1_555
Na6 O5 2.270774 1_655
Na6 O21 2.275322 1_555
Na6 O0 2.440661 1_655
Na6 O1 2.442426 1_655
Na6 O16 2.442837 1_555
Na6 O17 2.444349 1_555
Na6 O25 2.667056 1_555
Na6 O24 2.668299 1_555
Na7 O4 2.270774 1_655
Na7 O20 2.275322 1_555
Na7 O3 2.440661 1_655
Na7 O2 2.442426 1_655
Na7 O18 2.442837 1_555
Na7 O19 2.444349 1_555
Na7 O24 2.667056 1_555
Na7 O25 2.668299 1_554
Mn0 O5 1.883721 1_555
Mn0 O3 1.977647 1_556
Mn0 O29 1.990206 1_455
Mn0 O14 2.005436 1_555
Mn0 O9 2.129059 1_556
Mn0 O25 2.173643 1_455
Mn1 O4 1.883721 1_555
Mn1 O0 1.977647 1_555
Mn1 O31 1.990206 1_445
Mn1 O15 2.005436 1_545
Mn1 O8 2.129059 1_555
Mn1 O24 2.173643 1_455
Mn2 O5 1.884015 1_555
Mn2 O2 1.977881 1_555
Mn2 O28 1.992325 1_455
Mn2 O13 2.007650 1_555
Mn2 O8 2.128695 1_555
Mn2 O24 2.173950 1_455
Mn3 O4 1.884015 1_555
Mn3 O1 1.977881 1_554
Mn3 O30 1.992325 1_445
Mn3 O12 2.007650 1_545
Mn3 O9 2.128695 1_555
Mn3 O25 2.173950 1_454
Mn4 O11 1.883721 1_555
Mn4 O12 1.977647 1_556
Mn4 O17 1.990211 1_565
Mn4 O1 2.005431 1_565
Mn4 O7 2.129055 1_556
Mn4 O22 2.173648 1_555
Mn5 O10 1.884015 1_555
Mn5 O14 1.977881 1_554
Mn5 O18 1.992325 1_555
Mn5 O3 2.007650 1_555
Mn5 O7 2.128695 1_555
Mn5 O22 2.173950 1_554
Mn6 O10 1.883721 1_555
Mn6 O13 1.977647 1_555
Mn6 O19 1.990211 1_555
Mn6 O2 2.005431 1_555
Mn6 O6 2.129055 1_555
Mn6 O23 2.173648 1_555
Mn7 O11 1.884015 1_555
Mn7 O15 1.977881 1_555
Mn7 O16 1.992325 1_565
Mn7 O0 2.007650 1_565
Mn7 O6 2.128695 1_555
Mn7 O23 2.173950 1_555
Mn8 O20 1.883721 1_555
Mn8 O17 1.977647 1_554
Mn8 O12 1.990211 1_545
Mn8 O30 2.005431 1_545
Mn8 O25 2.129055 1_554
Mn8 O9 2.173648 1_555
Mn9 O20 1.884015 1_555
Mn9 O16 1.977881 1_555
Mn9 O15 1.992325 1_545
Mn9 O31 2.007650 1_545
Mn9 O24 2.128695 1_555
Mn9 O8 2.173950 1_555
Mn10 O21 1.883721 1_555
Mn10 O19 1.977647 1_555
Mn10 O13 1.990211 1_555
Mn10 O28 2.005431 1_555
Mn10 O24 2.129055 1_555
Mn10 O8 2.173648 1_555
Mn11 O21 1.884015 1_555
Mn11 O18 1.977881 1_556
Mn11 O14 1.992325 1_555
Mn11 O29 2.007650 1_555
Mn11 O25 2.128695 1_555
Mn11 O9 2.173950 1_556
Mn12 O26 1.883721 1_555
Mn12 O29 1.977647 1_554
Mn12 O3 1.990211 1_655
Mn12 O18 2.005431 1_555
Mn12 O22 2.129055 1_554
Mn12 O7 2.173648 1_655
Mn13 O26 1.884015 1_555
Mn13 O28 1.977881 1_555
Mn13 O2 1.992325 1_655
Mn13 O19 2.007650 1_555
Mn13 O23 2.128695 1_555
Mn13 O6 2.173950 1_655
Mn14 O27 1.883721 1_555
Mn14 O31 1.977647 1_555
Mn14 O0 1.990211 1_665
Mn14 O16 2.005431 1_565
Mn14 O23 2.129055 1_555
Mn14 O6 2.173648 1_655
Mn15 O27 1.884015 1_555
Mn15 O30 1.977881 1_556
Mn15 O1 1.992325 1_665
Mn15 O17 2.007650 1_565
Mn15 O22 2.128695 1_555
Mn15 O7 2.173950 1_656
