# generated using pymatgen
data_MgFeF4
_symmetry_space_group_name_H-M   'P 1'
_cell_length_a   5.10150140
_cell_length_b   5.07868520
_cell_length_c   6.28570089
_cell_angle_alpha   113.69908041
_cell_angle_beta   114.01266831
_cell_angle_gamma   89.85143674
_symmetry_Int_Tables_number   1
_chemical_formula_structural   MgFeF4
_chemical_formula_sum   'Mg2 Fe2 F8'
_cell_volume   133.66995051
_cell_formula_units_Z   2
loop_
 _symmetry_equiv_pos_site_id
 _symmetry_equiv_pos_as_xyz
  1  'x, y, z'
loop_
 _atom_site_type_symbol
 _atom_site_label
 _atom_site_symmetry_multiplicity
 _atom_site_fract_x
 _atom_site_fract_y
 _atom_site_fract_z
 _atom_site_occupancy
  Mg  Mg0  1  0.25260700  0.24892200  0.49910700  1
  Mg  Mg1  1  0.75105800  0.74875800  0.49899600  1
  Fe  Fe0  1  0.99718800  0.50315600  0.00056300  1
  Fe  Fe1  1  0.49712800  0.99635500  0.99815500  1
  F  F0  1  0.91488300  0.40544900  0.26326400  1
  F  F1  1  0.65867500  0.14583900  0.73497100  1
  F  F2  1  0.08918700  0.59706000  0.74029700  1
  F  F3  1  0.15777900  0.09235100  0.73286000  1
  F  F4  1  0.34876200  0.85072500  0.26411000  1
  F  F5  1  0.41440700  0.34940900  0.26224300  1
  F  F6  1  0.84644100  0.90246400  0.25896600  1
  F  F7  1  0.58694400  0.64564200  0.73572400  1
loop_
_geom_bond_atom_site_label_1
_geom_bond_atom_site_label_2
_geom_bond_distance
_geom_bond_site_symmetry_2
F0 Fe0 2.091230 1_555
F0 Mg0 2.158579 1_655
F0 Mg1 2.203990 1_555
F0 Fe1 2.446402 1_544
F0 F2 2.493480 1_655
F0 F6 2.556699 1_555
F0 F5 2.565750 1_655
F0 F5 2.566852 1_555
F0 F6 2.567021 1_545
F0 F1 2.725928 1_554
F1 Fe0 2.072906 1_556
F1 Mg1 2.156047 1_545
F1 Mg0 2.209558 1_555
F1 Fe1 2.472788 1_545
F1 F4 2.478658 1_545
F1 F7 2.562040 1_555
F1 F3 2.564516 1_555
F1 F3 2.564764 1_655
F1 F7 2.569663 1_545
F2 Fe0 2.092200 1_456
F2 Mg1 2.161635 1_455
F2 Mg0 2.232894 1_555
F2 Fe1 2.388480 1_555
F2 F3 2.562110 1_565
F2 F7 2.563010 1_455
F2 F7 2.564789 1_555
F2 F3 2.570460 1_555
F2 F4 2.702691 1_556
F3 Fe1 2.077277 1_545
F3 Mg0 2.131871 1_555
F3 Mg1 2.232808 1_445
F3 Fe0 2.479213 1_456
F3 F6 2.484721 1_445
F3 F5 2.731679 1_556
F4 Fe0 2.079568 1_455
F4 Mg0 2.166919 1_565
F4 Mg1 2.191571 1_555
F4 Fe1 2.437446 1_554
F4 F5 2.560886 1_565
F4 F5 2.563064 1_555
F4 F6 2.563760 1_455
F4 F6 2.567734 1_555
F5 Fe1 2.078991 1_544
F5 Mg0 2.184411 1_555
F5 Mg1 2.188453 1_555
F5 Fe0 2.453559 1_455
F5 F7 2.484188 1_555
F6 Fe1 2.082516 1_554
F6 Mg1 2.160729 1_555
F6 Mg0 2.237458 1_665
F6 Fe0 2.388070 1_555
F6 F7 2.699593 1_554
F7 Fe1 2.086284 1_555
F7 Mg0 2.173705 1_555
F7 Mg1 2.198174 1_555
F7 Fe0 2.408304 1_556
