# generated using pymatgen
data_Li9Mn2Co5O16
_symmetry_space_group_name_H-M   'P 1'
_cell_length_a   2.95854100
_cell_length_b   10.09802188
_cell_length_c   10.18311578
_cell_angle_alpha   108.00540151
_cell_angle_beta   91.20818795
_cell_angle_gamma   92.33004136
_symmetry_Int_Tables_number   1
_chemical_formula_structural   Li9Mn2Co5O16
_chemical_formula_sum   'Li9 Mn2 Co5 O16'
_cell_volume   288.90554165
_cell_formula_units_Z   1
loop_
 _symmetry_equiv_pos_site_id
 _symmetry_equiv_pos_as_xyz
  1  'x, y, z'
loop_
 _atom_site_type_symbol
 _atom_site_label
 _atom_site_symmetry_multiplicity
 _atom_site_fract_x
 _atom_site_fract_y
 _atom_site_fract_z
 _atom_site_occupancy
  Li  Li0  1  0.99323000  0.25124500  0.24799400  1
  Li  Li1  1  0.51560800  0.49543900  0.75025900  1
  Li  Li2  1  0.01204500  0.74101300  0.24352900  1
  Li  Li3  1  0.50551600  0.50144600  0.24200900  1
  Li  Li4  1  0.00090100  0.75034600  0.75014500  1
  Li  Li5  1  0.48316100  0.00523500  0.25813400  1
  Li  Li6  1  0.49615400  0.00051100  0.74743700  1
  Li  Li7  1  0.99480100  0.24881300  0.75359200  1
  Li  Li8  1  0.98756500  0.50456800  0.00986300  1
  Mn  Mn0  1  0.00468800  0.00167700  0.99698200  1
  Mn  Mn1  1  0.50780900  0.74219800  0.00090000  1
  Co  Co0  1  0.50447900  0.25250800  0.49727100  1
  Co  Co1  1  0.49849100  0.74872000  0.50265000  1
  Co  Co2  1  0.00542300  0.49935500  0.50354600  1
  Co  Co3  1  0.99274200  0.00078700  0.49672400  1
  Co  Co4  1  0.48912200  0.26134200  0.99879100  1
  O  O0  1  0.47064900  0.12968000  0.11055400  1
  O  O1  1  0.01457300  0.37519200  0.61638000  1
  O  O2  1  0.49694300  0.63679100  0.11930900  1
  O  O3  1  0.96359900  0.36392300  0.11512300  1
  O  O4  1  0.46860800  0.61832800  0.61639300  1
  O  O5  1  0.02733800  0.86594700  0.10593000  1
  O  O6  1  0.98853400  0.86904300  0.61447600  1
  O  O7  1  0.48102000  0.12268200  0.61132100  1
  O  O8  1  0.54149100  0.37785900  0.38769400  1
  O  O9  1  0.98654500  0.63915600  0.89151500  1
  O  O10  1  0.50624500  0.88163400  0.38652200  1
  O  O11  1  0.00845700  0.62495300  0.39045700  1
  O  O12  1  0.53953000  0.87311600  0.88470100  1
  O  O13  1  0.98805700  0.13009800  0.38022200  1
  O  O14  1  0.02399100  0.12748200  0.88444300  1
  O  O15  1  0.50268200  0.35891200  0.88513400  1
loop_
_geom_bond_atom_site_label_1
_geom_bond_atom_site_label_2
_geom_bond_distance
_geom_bond_site_symmetry_2
Li0 O3 2.021859 1_555
Li0 O13 2.080273 1_555
Li0 O8 2.130568 1_555
Li0 O0 2.132689 1_555
Li0 O0 2.150112 1_655
Li0 O8 2.213394 1_655
Li1 O1 2.067695 1_555
Li1 O4 2.114074 1_555
Li1 O9 2.139392 1_555
Li1 O1 2.172427 1_655
Li1 O15 2.226437 1_555
Li1 O9 2.369463 1_455
Li2 O2 1.998854 1_455
Li2 O2 2.035200 1_555
Li2 O5 2.155883 1_555
Li2 O11 2.167003 1_555
Li2 O10 2.176593 1_555
Li2 O10 2.315677 1_455
Li3 O2 2.118234 1_555
Li3 O3 2.133621 1_555
Li3 O11 2.154846 1_655
Li3 O3 2.188802 1_455
Li3 O8 2.217737 1_555
Li3 O11 2.253996 1_555
Li4 O9 2.081551 1_455
Li4 O6 2.090877 1_455
Li4 O12 2.108054 1_455
Li4 O12 2.156604 1_555
Li4 O4 2.157304 1_555
Li4 O4 2.174546 1_455
Li5 O13 2.041124 1_555
Li5 O10 2.069712 1_545
Li5 O13 2.130471 1_455
Li5 O5 2.146887 1_545
Li5 O0 2.237848 1_555
Li5 O5 2.431916 1_645
Li6 O6 2.119433 1_445
Li6 O7 2.122317 1_555
Li6 O14 2.159558 1_555
Li6 O14 2.160671 1_655
Li6 O12 2.177766 1_545
Li6 O6 2.201565 1_545
Li7 O15 2.036351 1_655
Li7 O14 2.072938 1_655
Li7 O15 2.107922 1_555
Li7 O7 2.154214 1_555
Li7 O1 2.164274 1_655
Li7 O7 2.210552 1_655
Li8 O3 2.026610 1_555
Li8 O2 2.035082 1_655
Li8 O9 2.076589 1_554
Li8 O15 2.105040 1_554
Li8 O2 2.106569 1_555
Li8 O15 2.282132 1_654
Mn0 O12 1.938372 1_445
Mn0 O0 1.942278 1_556
Mn0 O14 1.956357 1_555
Mn0 O5 2.014513 1_546
Mn0 O12 2.195946 1_545
Mn0 O0 2.196262 1_456
Mn1 O2 1.838520 1_555
Mn1 O9 1.944813 1_454
Mn1 O9 1.949188 1_554
Mn1 O5 2.004050 1_655
Mn1 O5 2.026917 1_555
Mn1 O12 2.029362 1_554
Co0 O8 1.930384 1_555
Co0 O7 2.002394 1_555
Co0 O1 2.031071 1_655
Co0 O13 2.035134 1_455
Co0 O13 2.073730 1_555
Co0 O1 2.097116 1_555
Co1 O6 1.951089 1_555
Co1 O11 1.967034 1_555
Co1 O4 2.005183 1_555
Co1 O10 2.044556 1_555
Co1 O6 2.101290 1_455
Co1 O11 2.118226 1_655
Co2 O4 1.894192 1_555
Co2 O8 1.918569 1_455
Co2 O1 1.945511 1_555
Co2 O11 1.958896 1_555
Co2 O4 2.159820 1_455
Co2 O8 2.180513 1_555
Co3 O10 1.932621 1_545
Co3 O7 1.964703 1_655
Co3 O13 2.017714 1_555
Co3 O6 2.047743 1_545
Co3 O10 2.097824 1_645
Co3 O7 2.122961 1_555
Co4 O15 1.736548 1_555
Co4 O3 1.870805 1_556
Co4 O14 1.970997 1_555
Co4 O0 1.999509 1_556
Co4 O3 2.084155 1_456
Co4 O14 2.228383 1_655
