# generated using pymatgen
data_CeEuZn2
_symmetry_space_group_name_H-M   'P 1'
_cell_length_a   5.21436238
_cell_length_b   5.21436238
_cell_length_c   5.21436238
_cell_angle_alpha   60.00000000
_cell_angle_beta   60.00000000
_cell_angle_gamma   60.00000000
_symmetry_Int_Tables_number   1
_chemical_formula_structural   CeEuZn2
_chemical_formula_sum   'Ce1 Eu1 Zn2'
_cell_volume   100.25098126
_cell_formula_units_Z   1
loop_
 _symmetry_equiv_pos_site_id
 _symmetry_equiv_pos_as_xyz
  1  'x, y, z'
loop_
 _atom_site_type_symbol
 _atom_site_label
 _atom_site_symmetry_multiplicity
 _atom_site_fract_x
 _atom_site_fract_y
 _atom_site_fract_z
 _atom_site_occupancy
  Ce  Ce0  1  0.50000000  0.50000000  0.50000000  1
  Eu  Eu0  1  0.00000000  0.00000000  0.00000000  1
  Zn  Zn0  1  0.25000000  0.25000000  0.25000000  1
  Zn  Zn1  1  0.75000000  0.75000000  0.75000000  1
loop_
_geom_bond_atom_site_label_1
_geom_bond_atom_site_label_2
_geom_bond_distance
_geom_bond_site_symmetry_2
Ce0 Zn0 3.193132 1_565
Ce0 Zn1 3.193132 1_554
Ce0 Zn0 3.193132 1_555
Ce0 Zn0 3.193132 1_556
Ce0 Zn1 3.193132 1_455
Ce0 Zn1 3.193132 1_555
Ce0 Zn1 3.193132 1_545
Ce0 Zn0 3.193132 1_655
Ce0 Eu0 3.687111 1_656
Ce0 Eu0 3.687111 1_665
Ce0 Eu0 3.687111 1_566
Ce0 Eu0 3.687111 1_565
Ce0 Eu0 3.687111 1_655
Ce0 Eu0 3.687111 1_556
Eu0 Zn0 3.193132 1_455
Eu0 Zn1 3.193132 1_444
Eu0 Zn0 3.193132 1_545
Eu0 Zn0 3.193132 1_555
Eu0 Zn0 3.193132 1_554
Eu0 Zn1 3.193132 1_544
Eu0 Zn1 3.193132 1_445
Eu0 Zn1 3.193132 1_454
Zn0 Zn1 3.687111 1_545
Zn0 Zn1 3.687111 1_445
Zn0 Zn1 3.687111 1_554
Zn0 Zn1 3.687111 1_544
Zn0 Zn1 3.687111 1_455
Zn0 Zn1 3.687111 1_454
