# generated using pymatgen
data_Te6RhBr3
_symmetry_space_group_name_H-M   'P 1'
_cell_length_a   9.31059055
_cell_length_b   9.31059055
_cell_length_c   9.31059030
_cell_angle_alpha   108.22336336
_cell_angle_beta   108.22336336
_cell_angle_gamma   108.22336462
_symmetry_Int_Tables_number   1
_chemical_formula_structural   Te6RhBr3
_chemical_formula_sum   'Te12 Rh2 Br6'
_cell_volume   648.42924512
_cell_formula_units_Z   2
loop_
 _symmetry_equiv_pos_site_id
 _symmetry_equiv_pos_as_xyz
  1  'x, y, z'
loop_
 _atom_site_type_symbol
 _atom_site_label
 _atom_site_symmetry_multiplicity
 _atom_site_fract_x
 _atom_site_fract_y
 _atom_site_fract_z
 _atom_site_occupancy
  Te  Te0  1  0.92583831  0.16795300  0.18890973  1
  Te  Te1  1  0.18890973  0.92583831  0.16795300  1
  Te  Te2  1  0.16795300  0.18890973  0.92583831  1
  Te  Te3  1  0.68890973  0.66795300  0.42583831  1
  Te  Te4  1  0.42583831  0.68890973  0.66795300  1
  Te  Te5  1  0.66795300  0.42583831  0.68890973  1
  Te  Te6  1  0.07416169  0.83204700  0.81109027  1
  Te  Te7  1  0.81109027  0.07416169  0.83204700  1
  Te  Te8  1  0.83204700  0.81109027  0.07416169  1
  Te  Te9  1  0.31109027  0.33204700  0.57416169  1
  Te  Te10  1  0.57416169  0.31109027  0.33204700  1
  Te  Te11  1  0.33204700  0.57416169  0.31109027  1
  Rh  Rh0  1  0.25000000  0.25000000  0.25000000  1
  Rh  Rh1  1  0.75000000  0.75000000  0.75000000  1
  Br  Br0  1  0.98502732  0.51497268  0.25000000  1
  Br  Br1  1  0.25000000  0.98502732  0.51497268  1
  Br  Br2  1  0.51497268  0.25000000  0.98502732  1
  Br  Br3  1  0.75000000  0.01497268  0.48502732  1
  Br  Br4  1  0.48502732  0.75000000  0.01497268  1
  Br  Br5  1  0.01497268  0.48502732  0.75000000  1
loop_
_geom_bond_atom_site_label_1
_geom_bond_atom_site_label_2
_geom_bond_distance
_geom_bond_site_symmetry_2
Te0 Te7 2.885354 1_554
Te0 Te8 2.885354 1_545
Te0 Te9 3.628252 1_655
Te1 Te6 2.885354 1_554
Te1 Te8 2.885354 1_455
Te1 Te10 3.628252 1_565
Te2 Te7 2.885354 1_455
Te2 Te6 2.885354 1_545
Te3 Te6 3.628252 1_655
Te4 Te9 2.885354 1_555
Te4 Te7 3.628252 1_565
Te5 Te9 2.885354 1_555
Te5 Te8 3.628252 1_556
Te10 Te5 2.885354 1_555
Te10 Te3 2.885354 1_555
Te11 Te4 2.885354 1_555
Te11 Te3 2.885354 1_555
Te11 Te2 3.628252 1_554
Rh0 Te2 2.688637 1_554
Rh0 Te9 2.688637 1_555
Rh0 Te0 2.688637 1_455
Rh0 Te11 2.688637 1_555
Rh0 Te1 2.688637 1_545
Rh0 Te10 2.688637 1_555
Rh1 Te8 2.688637 1_556
Rh1 Te3 2.688637 1_555
Rh1 Te6 2.688637 1_655
Rh1 Te5 2.688637 1_555
Rh1 Te7 2.688637 1_565
Rh1 Te4 2.688637 1_555
Br0 Te11 2.933810 1_655
Br0 Te0 2.933810 1_555
Br0 Br2 3.743498 1_554
Br0 Br1 3.743498 1_655
Br0 Te3 4.016333 1_555
Br0 Te8 4.016333 1_555
Br1 Te1 2.933810 1_555
Br1 Te9 2.933810 1_565
Br1 Br2 3.743498 1_565
Br1 Te6 4.016333 1_555
Br1 Te4 4.016333 1_555
Br2 Te10 2.933810 1_556
Br2 Te2 2.933810 1_555
Br2 Te5 4.016333 1_555
Br2 Te7 4.016333 1_555
Br3 Te7 2.933810 1_555
Br3 Te3 2.933810 1_545
Br3 Br4 3.743498 1_545
Br3 Br5 3.743498 1_655
Br3 Te0 4.016333 1_555
Br3 Te10 4.016333 1_555
Br4 Te4 2.933810 1_554
Br4 Te8 2.933810 1_555
Br4 Br5 3.743498 1_554
Br4 Te11 4.016333 1_555
Br4 Te1 4.016333 1_555
Br5 Te6 2.933810 1_555
Br5 Te5 2.933810 1_455
Br5 Te9 4.016333 1_555
Br5 Te2 4.016333 1_555
