# generated using pymatgen
data_PrCu3Pd2
_symmetry_space_group_name_H-M   'P 1'
_cell_length_a   5.20688550
_cell_length_b   5.20688550
_cell_length_c   5.20688550
_cell_angle_alpha   122.16143511
_cell_angle_beta   116.45365870
_cell_angle_gamma   91.27319218
_symmetry_Int_Tables_number   1
_chemical_formula_structural   PrCu3Pd2
_chemical_formula_sum   'Pr1 Cu3 Pd2'
_cell_volume   100.53363717
_cell_formula_units_Z   1
loop_
 _symmetry_equiv_pos_site_id
 _symmetry_equiv_pos_as_xyz
  1  'x, y, z'
loop_
 _atom_site_type_symbol
 _atom_site_label
 _atom_site_symmetry_multiplicity
 _atom_site_fract_x
 _atom_site_fract_y
 _atom_site_fract_z
 _atom_site_occupancy
  Pr  Pr0  1  0.00245700  0.00245700  0.00000000  1
  Cu  Cu0  1  0.62012000  0.36883400  0.74871300  1
  Cu  Cu1  1  0.62012000  0.87140700  0.25128700  1
  Cu  Cu2  1  0.25780600  0.75780600  0.50000000  1
  Pd  Pd0  1  0.62278600  0.37474800  0.24803800  1
  Pd  Pd1  1  0.12670900  0.37474800  0.75196200  1
loop_
_geom_bond_atom_site_label_1
_geom_bond_atom_site_label_2
_geom_bond_distance
_geom_bond_site_symmetry_2
Cu0 Cu1 2.504970 1_545
Cu0 Cu1 2.530890 1_556
Cu0 Pd0 2.577471 1_556
Cu0 Pd1 2.577474 1_555
Cu0 Pd1 2.629647 1_655
Cu0 Pd0 2.629649 1_555
Cu0 Cu2 2.920369 1_545
Cu0 Pr0 3.058048 1_666
Cu0 Pr0 3.133655 1_555
Cu0 Pr0 3.133660 1_656
Cu0 Cu2 3.181742 1_555
Cu0 Cu2 3.181747 1_656
Cu1 Pd0 2.577469 1_555
Cu1 Pd1 2.577471 1_554
Cu1 Pd1 2.629649 1_665
Cu1 Pd0 2.629652 1_565
Cu1 Cu2 2.920365 1_555
Cu1 Pr0 3.058052 1_665
Cu1 Pr0 3.133655 1_666
Cu1 Pr0 3.133655 1_565
Cu1 Cu2 3.181746 1_655
Cu1 Cu2 3.181746 1_554
Cu2 Pd1 2.985782 1_554
Cu2 Pd0 2.985784 1_566
Cu2 Pd0 2.985784 1_555
Cu2 Pd1 2.985786 1_565
Cu2 Pd0 3.112630 1_455
Cu2 Pd1 3.112632 1_555
Cu2 Pr0 3.130007 1_555
Cu2 Pr0 3.130007 1_566
Cu2 Pr0 3.269623 1_666
Cu2 Pr0 3.269623 1_565
Pd0 Pd1 2.720212 1_554
Pd0 Pd1 2.763240 1_655
Pd0 Pr0 3.018867 1_655
Pd0 Pr0 3.018867 1_666
Pd0 Pr0 3.032866 1_555
Pd1 Pr0 3.018865 1_566
Pd1 Pr0 3.018869 1_555
Pd1 Pr0 3.032864 1_556
