# generated using pymatgen
data_LiPr2Zn2(PO)2
_symmetry_space_group_name_H-M   'P 1'
_cell_length_a   11.33706867
_cell_length_b   11.33710993
_cell_length_c   11.94975825
_cell_angle_alpha   19.70589437
_cell_angle_beta   19.71071140
_cell_angle_gamma   20.47691266
_symmetry_Int_Tables_number   1
_chemical_formula_structural   LiPr2Zn2(PO)2
_chemical_formula_sum   'Li1 Pr2 Zn2 P2 O2'
_cell_volume   156.47539460
_cell_formula_units_Z   1
loop_
 _symmetry_equiv_pos_site_id
 _symmetry_equiv_pos_as_xyz
  1  'x, y, z'
loop_
 _atom_site_type_symbol
 _atom_site_label
 _atom_site_symmetry_multiplicity
 _atom_site_fract_x
 _atom_site_fract_y
 _atom_site_fract_z
 _atom_site_occupancy
  Li  Li0  1  0.92245700  0.92274000  0.48748200  1
  Pr  Pr0  1  0.61553500  0.61676900  0.60533100  1
  Pr  Pr1  1  0.45181100  0.45259900  0.20552300  1
  Zn  Zn0  1  0.12225900  0.12289600  0.33889400  1
  Zn  Zn1  1  0.64413200  0.64395500  0.14114300  1
  P  P0  1  0.23867600  0.23904300  0.82704400  1
  P  P1  1  0.83155400  0.83258100  0.98360100  1
  O  O0  1  0.75013000  0.75086800  0.55334700  1
  O  O1  1  0.31719500  0.31854900  0.25763600  1
loop_
_geom_bond_atom_site_label_1
_geom_bond_atom_site_label_2
_geom_bond_distance
_geom_bond_site_symmetry_2
Li0 P0 2.345769 1_655
Li0 P0 2.346610 1_565
Li0 P0 2.350686 1_664
Li0 Zn1 2.544091 1_565
Li0 Zn1 2.546063 1_655
Li0 Zn1 2.599013 1_556
Li0 Zn0 2.811491 1_665
Li0 O0 3.095621 1_555
Zn0 Zn1 2.775106 1_455
Zn0 Zn1 2.777786 1_545
Zn0 Zn1 3.172367 1_446
P0 Zn1 2.671565 1_555
P0 Zn1 2.725473 1_456
P0 Zn1 2.726630 1_546
P0 Pr1 3.173864 1_546
P0 Pr1 3.175369 1_456
P0 Pr1 3.189961 1_555
P1 Zn0 2.412945 1_665
P1 Zn0 2.441942 1_566
P1 Zn0 2.442693 1_656
P1 Zn1 2.456382 1_556
P1 Pr0 3.138713 1_655
P1 Pr0 3.138814 1_565
P1 Pr0 3.150287 1_556
O0 Pr1 2.406365 1_556
O0 Pr1 2.408319 1_565
O0 Pr1 2.408693 1_655
O0 Pr0 2.410230 1_555
O0 O1 2.928062 1_556
O0 O1 2.939357 1_655
O0 O1 2.940647 1_565
O1 Pr0 2.407383 1_554
O1 Pr1 2.408482 1_555
O1 Pr0 2.408601 1_545
O1 Pr0 2.408739 1_455
