# generated using pymatgen
data_MgBiF5
_symmetry_space_group_name_H-M   'P 1'
_cell_length_a   5.77498761
_cell_length_b   5.77498761
_cell_length_c   8.49753157
_cell_angle_alpha   67.93648436
_cell_angle_beta   67.93648436
_cell_angle_gamma   71.25904512
_symmetry_Int_Tables_number   1
_chemical_formula_structural   MgBiF5
_chemical_formula_sum   'Mg2 Bi2 F10'
_cell_volume   237.99244486
_cell_formula_units_Z   2
loop_
 _symmetry_equiv_pos_site_id
 _symmetry_equiv_pos_as_xyz
  1  'x, y, z'
loop_
 _atom_site_type_symbol
 _atom_site_label
 _atom_site_symmetry_multiplicity
 _atom_site_fract_x
 _atom_site_fract_y
 _atom_site_fract_z
 _atom_site_occupancy
  Mg  Mg0  1  0.51468300  0.48793200  0.74558700  1
  Mg  Mg1  1  0.48793200  0.51468300  0.24558700  1
  Bi  Bi0  1  0.00340200  0.99935900  0.99590700  1
  Bi  Bi1  1  0.99935900  0.00340200  0.49590700  1
  F  F0  1  0.16261000  0.83927400  0.24687900  1
  F  F1  1  0.83927400  0.16261000  0.74687900  1
  F  F2  1  0.22921000  0.30896200  0.35547200  1
  F  F3  1  0.69782200  0.76942100  0.14054800  1
  F  F4  1  0.70571100  0.33078400  0.07415300  1
  F  F5  1  0.66111400  0.31213700  0.43195900  1
  F  F6  1  0.31213700  0.66111400  0.93195900  1
  F  F7  1  0.33078400  0.70571100  0.57415300  1
  F  F8  1  0.30896200  0.22921000  0.85547200  1
  F  F9  1  0.76942100  0.69782200  0.64054800  1
loop_
_geom_bond_atom_site_label_1
_geom_bond_atom_site_label_2
_geom_bond_distance
_geom_bond_site_symmetry_2
Bi0 F8 2.243422 1_565
Bi0 F3 2.244625 1_456
Bi0 F4 2.245853 1_466
Bi0 F6 2.263056 1_555
Bi0 F0 2.386185 1_556
Bi0 F1 2.387266 1_465
Bi1 F2 2.243422 1_655
Bi1 F9 2.244625 1_545
Bi1 F7 2.245853 1_645
Bi1 F5 2.263056 1_555
Bi1 F1 2.386185 1_555
Bi1 F0 2.387266 1_645
F0 Mg1 2.186441 1_555
F0 F2 2.786620 1_555
F0 F3 2.811936 1_555
F0 F6 2.954146 1_554
F0 F7 3.034550 1_555
F1 Mg0 2.186441 1_555
F1 F8 2.786620 1_555
F1 F9 2.811936 1_555
F1 F5 2.954146 1_555
F1 F4 3.034550 1_556
F2 Mg1 1.942885 1_555
F3 Mg1 1.943351 1_555
F4 Mg1 1.938911 1_555
F5 Mg1 1.980677 1_555
F6 Mg0 1.980677 1_555
F7 Mg0 1.938911 1_555
F8 Mg0 1.942885 1_555
F9 Mg0 1.943351 1_555
