# generated using pymatgen
data_Ce2AlGe6
_symmetry_space_group_name_H-M   'P 1'
_cell_length_a   6.03626729
_cell_length_b   6.03626729
_cell_length_c   10.67514292
_cell_angle_alpha   81.91830453
_cell_angle_beta   81.91830453
_cell_angle_gamma   91.33126229
_symmetry_Int_Tables_number   1
_chemical_formula_structural   Ce2AlGe6
_chemical_formula_sum   'Ce4 Al2 Ge12'
_cell_volume   380.91056029
_cell_formula_units_Z   2
loop_
 _symmetry_equiv_pos_site_id
 _symmetry_equiv_pos_as_xyz
  1  'x, y, z'
loop_
 _atom_site_type_symbol
 _atom_site_label
 _atom_site_symmetry_multiplicity
 _atom_site_fract_x
 _atom_site_fract_y
 _atom_site_fract_z
 _atom_site_occupancy
  Ce  Ce0  1  0.83621300  0.33361200  0.66356700  1
  Ce  Ce1  1  0.33361200  0.83621300  0.66356700  1
  Ce  Ce2  1  0.16378700  0.66638800  0.33643300  1
  Ce  Ce3  1  0.66638800  0.16378700  0.33643300  1
  Al  Al0  1  0.80037800  0.80037800  0.80136500  1
  Al  Al1  1  0.19962200  0.19962200  0.19863500  1
  Ge  Ge0  1  0.14716900  0.14716900  0.43778100  1
  Ge  Ge1  1  0.85283100  0.85283100  0.56221900  1
  Ge  Ge2  1  0.36144200  0.36144200  0.58445800  1
  Ge  Ge3  1  0.63855800  0.63855800  0.41554200  1
  Ge  Ge4  1  0.06500900  0.49422200  0.88392800  1
  Ge  Ge5  1  0.49422200  0.06500900  0.88392800  1
  Ge  Ge6  1  0.93499100  0.50577800  0.11607200  1
  Ge  Ge7  1  0.50577800  0.93499100  0.11607200  1
  Ge  Ge8  1  0.06725700  0.06725700  0.88394100  1
  Ge  Ge9  1  0.93274300  0.93274300  0.11605900  1
  Ge  Ge10  1  0.49182700  0.49182700  0.88362900  1
  Ge  Ge11  1  0.50817300  0.50817300  0.11637100  1
loop_
_geom_bond_atom_site_label_1
_geom_bond_atom_site_label_2
_geom_bond_distance
_geom_bond_site_symmetry_2
Ce0 Ge2 3.101199 1_555
Ce0 Ge5 3.135400 1_555
Ce0 Ge4 3.142208 1_655
Ce0 Ge2 3.158407 1_655
Ce0 Ge1 3.163055 1_555
Ce0 Ge8 3.166637 1_655
Ce0 Ge10 3.178394 1_555
Ce0 Ge0 3.191878 1_655
Ce0 Ge1 3.235542 1_545
Ce0 Ge3 3.382607 1_555
Ce1 Ge2 3.101199 1_555
Ce1 Ge4 3.135400 1_555
Ce1 Ge5 3.142208 1_565
Ce1 Ge2 3.158407 1_565
Ce1 Ge1 3.163055 1_555
Ce1 Ge8 3.166637 1_565
Ce1 Ge10 3.178394 1_555
Ce1 Ge0 3.191878 1_565
Ce1 Ge1 3.235542 1_455
Ce1 Ge3 3.382607 1_555
Ce2 Ge3 3.101199 1_555
Ce2 Ge7 3.135400 1_555
Ce2 Ge6 3.142208 1_455
Ce2 Ge3 3.158407 1_455
Ce2 Ge0 3.163055 1_555
Ce2 Ge9 3.166637 1_455
Ce2 Ge11 3.178394 1_555
Ce2 Ge1 3.191878 1_455
Ce2 Ge0 3.235542 1_565
Ce2 Ge2 3.382607 1_555
Ce3 Ge3 3.101199 1_555
Ce3 Ge6 3.135400 1_555
Ce3 Ge7 3.142208 1_545
Ce3 Ge3 3.158407 1_545
Ce3 Ge0 3.163055 1_555
Ce3 Ge9 3.166637 1_545
Ce3 Ge11 3.178394 1_555
Ce3 Ge1 3.191878 1_545
Ce3 Ge0 3.235542 1_655
Ce3 Ge2 3.382607 1_555
Al0 Ge1 2.501736 1_555
Al0 Ge10 2.574497 1_555
Al0 Ge8 2.577863 1_665
Al0 Ge4 2.611274 1_655
Al0 Ge5 2.611274 1_565
Al0 Ce0 3.334347 1_565
Al0 Ce1 3.334347 1_655
Al0 Ce1 3.354595 1_555
Al0 Ce0 3.354595 1_555
Al1 Ge0 2.501736 1_555
Al1 Ge11 2.574497 1_555
Al1 Ge9 2.577863 1_445
Al1 Ge7 2.611274 1_545
Al1 Ge6 2.611274 1_455
Al1 Ce2 3.334347 1_545
Al1 Ce3 3.334347 1_455
Al1 Ce3 3.354595 1_555
Al1 Ce2 3.354595 1_555
Ge0 Ge1 2.569842 1_445
Ge0 Ge2 2.618905 1_555
Ge1 Ge3 2.618905 1_555
Ge2 Ge3 2.649811 1_555
Ge4 Ge6 2.503285 1_456
Ge4 Ge8 2.577606 1_555
Ge5 Ge7 2.503285 1_546
Ge5 Ge8 2.577606 1_555
Ge6 Ge9 2.577606 1_555
Ge7 Ge9 2.577606 1_555
Ge8 Ge9 2.509279 1_446
Ge10 Ge11 2.515926 1_556
Ge10 Ge4 2.576320 1_555
Ge10 Ge5 2.576320 1_555
Ge11 Ge7 2.576320 1_555
Ge11 Ge6 2.576320 1_555
