# generated using pymatgen
data_Mg2Zn
_symmetry_space_group_name_H-M   'P 1'
_cell_length_a   11.99928129
_cell_length_b   11.99928129
_cell_length_c   14.00153190
_cell_angle_alpha   74.65784662
_cell_angle_beta   74.65784662
_cell_angle_gamma   29.58615677
_symmetry_Int_Tables_number   1
_chemical_formula_structural   Mg2Zn
_chemical_formula_sum   'Mg32 Zn16'
_cell_volume   957.35878570
_cell_formula_units_Z   16
loop_
 _symmetry_equiv_pos_site_id
 _symmetry_equiv_pos_as_xyz
  1  'x, y, z'
loop_
 _atom_site_type_symbol
 _atom_site_label
 _atom_site_symmetry_multiplicity
 _atom_site_fract_x
 _atom_site_fract_y
 _atom_site_fract_z
 _atom_site_occupancy
  Mg  Mg0_0  1  0.15068250  0.15068250  0.07773400  1
  Mg  Mg0_1  1  0.15068250  0.15068250  0.57773400  1
  Mg  Mg0_2  1  0.15068250  0.65068250  0.07773400  1
  Mg  Mg0_3  1  0.15068250  0.65068250  0.57773400  1
  Mg  Mg0_4  1  0.65068250  0.15068250  0.07773400  1
  Mg  Mg0_5  1  0.65068250  0.15068250  0.57773400  1
  Mg  Mg0_6  1  0.65068250  0.65068250  0.07773400  1
  Mg  Mg0_7  1  0.65068250  0.65068250  0.57773400  1
  Mg  Mg1_0  1  0.01263200  0.01263200  0.10929600  1
  Mg  Mg1_1  1  0.01263200  0.01263200  0.60929600  1
  Mg  Mg1_2  1  0.01263200  0.51263200  0.10929600  1
  Mg  Mg1_3  1  0.01263200  0.51263200  0.60929600  1
  Mg  Mg1_4  1  0.51263200  0.01263200  0.10929600  1
  Mg  Mg1_5  1  0.51263200  0.01263200  0.60929600  1
  Mg  Mg1_6  1  0.51263200  0.51263200  0.10929600  1
  Mg  Mg1_7  1  0.51263200  0.51263200  0.60929600  1
  Mg  Mg2_0  1  0.48736800  0.48736800  0.39070400  1
  Mg  Mg2_1  1  0.48736800  0.48736800  0.89070400  1
  Mg  Mg2_2  1  0.48736800  0.98736800  0.39070400  1
  Mg  Mg2_3  1  0.48736800  0.98736800  0.89070400  1
  Mg  Mg2_4  1  0.98736800  0.48736800  0.39070400  1
  Mg  Mg2_5  1  0.98736800  0.48736800  0.89070400  1
  Mg  Mg2_6  1  0.98736800  0.98736800  0.39070400  1
  Mg  Mg2_7  1  0.98736800  0.98736800  0.89070400  1
  Mg  Mg3_0  1  0.34931750  0.34931750  0.42226600  1
  Mg  Mg3_1  1  0.34931750  0.34931750  0.92226600  1
  Mg  Mg3_2  1  0.34931750  0.84931750  0.42226600  1
  Mg  Mg3_3  1  0.34931750  0.84931750  0.92226600  1
  Mg  Mg3_4  1  0.84931750  0.34931750  0.42226600  1
  Mg  Mg3_5  1  0.84931750  0.34931750  0.92226600  1
  Mg  Mg3_6  1  0.84931750  0.84931750  0.42226600  1
  Mg  Mg3_7  1  0.84931750  0.84931750  0.92226600  1
  Zn  Zn0_0  1  0.32077500  0.32077500  0.23718050  1
  Zn  Zn0_1  1  0.32077500  0.32077500  0.73718050  1
  Zn  Zn0_2  1  0.32077500  0.82077500  0.23718050  1
  Zn  Zn0_3  1  0.32077500  0.82077500  0.73718050  1
  Zn  Zn0_4  1  0.82077500  0.32077500  0.23718050  1
  Zn  Zn0_5  1  0.82077500  0.32077500  0.73718050  1
  Zn  Zn0_6  1  0.82077500  0.82077500  0.23718050  1
  Zn  Zn0_7  1  0.82077500  0.82077500  0.73718050  1
  Zn  Zn1_0  1  0.17922500  0.17922500  0.26281950  1
  Zn  Zn1_1  1  0.17922500  0.17922500  0.76281950  1
  Zn  Zn1_2  1  0.17922500  0.67922500  0.26281950  1
  Zn  Zn1_3  1  0.17922500  0.67922500  0.76281950  1
  Zn  Zn1_4  1  0.67922500  0.17922500  0.26281950  1
  Zn  Zn1_5  1  0.67922500  0.17922500  0.76281950  1
  Zn  Zn1_6  1  0.67922500  0.67922500  0.26281950  1
  Zn  Zn1_7  1  0.67922500  0.67922500  0.76281950  1
loop_
_geom_bond_atom_site_label_1
_geom_bond_atom_site_label_2
_geom_bond_distance
_geom_bond_site_symmetry_2
Mg0_0 Zn1_0 2.844944 1_555
Mg0_0 Zn0_4 2.915981 1_455
Mg0_0 Zn0_2 2.915981 1_545
Mg0_0 Mg0_6 3.063764 1_455
Mg0_0 Mg0_6 3.063764 1_545
Mg0_0 Mg1_0 3.111439 1_555
Mg0_0 Mg1_2 3.149225 1_555
Mg0_0 Mg1_4 3.149225 1_555
Mg0_0 Mg3_5 3.150467 1_454
Mg0_0 Mg3_3 3.150467 1_544
Mg0_0 Mg2_5 3.219804 1_454
Mg0_0 Mg2_3 3.219804 1_544
Mg0_1 Zn1_1 2.844944 1_555
Mg0_1 Zn0_3 2.915981 1_545
Mg0_1 Zn0_5 2.915981 1_455
Mg0_1 Mg0_7 3.063764 1_545
Mg0_1 Mg0_7 3.063764 1_455
Mg0_1 Mg1_1 3.111439 1_555
Mg0_1 Mg1_5 3.149225 1_555
Mg0_1 Mg1_3 3.149225 1_555
Mg0_1 Mg3_2 3.150467 1_545
Mg0_1 Mg3_4 3.150467 1_455
Mg0_1 Mg2_2 3.219804 1_545
Mg0_1 Mg2_4 3.219804 1_455
Mg0_2 Zn1_2 2.844944 1_555
Mg0_2 Zn0_0 2.915981 1_555
Mg0_2 Zn0_6 2.915981 1_455
Mg0_2 Mg0_4 3.063764 1_555
Mg0_2 Mg0_4 3.063764 1_465
Mg0_2 Mg1_2 3.111439 1_555
Mg0_2 Mg1_6 3.149225 1_555
Mg0_2 Mg1_0 3.149225 1_565
Mg0_2 Mg3_7 3.150467 1_454
Mg0_2 Mg3_1 3.150467 1_554
Mg0_2 Mg2_1 3.219804 1_554
Mg0_2 Mg2_7 3.219804 1_454
Mg0_3 Zn1_3 2.844944 1_555
Mg0_3 Zn0_1 2.915981 1_555
Mg0_3 Zn0_7 2.915981 1_455
Mg0_3 Mg0_5 3.063764 1_555
Mg0_3 Mg0_5 3.063764 1_465
Mg0_3 Mg1_3 3.111439 1_555
Mg0_3 Mg1_1 3.149225 1_565
Mg0_3 Mg1_7 3.149225 1_555
Mg0_3 Mg3_0 3.150467 1_555
Mg0_3 Mg3_6 3.150467 1_455
Mg0_3 Mg2_0 3.219804 1_555
Mg0_3 Mg2_6 3.219804 1_455
Mg0_4 Zn1_4 2.844944 1_555
Mg0_4 Zn0_0 2.915981 1_555
Mg0_4 Zn0_6 2.915981 1_545
Mg0_4 Mg1_4 3.111439 1_555
Mg0_4 Mg1_6 3.149225 1_555
Mg0_4 Mg1_0 3.149225 1_655
Mg0_4 Mg3_7 3.150467 1_544
Mg0_4 Mg3_1 3.150467 1_554
Mg0_4 Mg2_1 3.219804 1_554
Mg0_4 Mg2_7 3.219804 1_544
Mg0_5 Zn1_5 2.844944 1_555
Mg0_5 Zn0_1 2.915981 1_555
Mg0_5 Zn0_7 2.915981 1_545
Mg0_5 Mg1_5 3.111439 1_555
Mg0_5 Mg1_1 3.149225 1_655
Mg0_5 Mg1_7 3.149225 1_555
Mg0_5 Mg3_0 3.150467 1_555
Mg0_5 Mg3_6 3.150467 1_545
Mg0_5 Mg2_6 3.219804 1_545
Mg0_5 Mg2_0 3.219804 1_555
Mg0_6 Zn1_6 2.844944 1_555
Mg0_6 Zn0_4 2.915981 1_555
Mg0_6 Zn0_2 2.915981 1_555
Mg0_6 Mg1_6 3.111439 1_555
Mg0_6 Mg1_2 3.149225 1_655
Mg0_6 Mg1_4 3.149225 1_565
Mg0_6 Mg3_5 3.150467 1_554
Mg0_6 Mg3_3 3.150467 1_554
Mg0_6 Mg2_3 3.219804 1_554
Mg0_6 Mg2_5 3.219804 1_554
Mg0_7 Zn1_7 2.844944 1_555
Mg0_7 Zn0_3 2.915981 1_555
Mg0_7 Zn0_5 2.915981 1_555
Mg0_7 Mg1_7 3.111439 1_555
Mg0_7 Mg1_5 3.149225 1_565
Mg0_7 Mg1_3 3.149225 1_655
Mg0_7 Mg3_2 3.150467 1_555
Mg0_7 Mg3_4 3.150467 1_555
Mg0_7 Mg2_4 3.219804 1_555
Mg0_7 Mg2_2 3.219804 1_555
Mg1_0 Zn1_2 2.904455 1_545
Mg1_0 Zn1_4 2.904455 1_455
Mg1_0 Zn0_4 2.948731 1_455
Mg1_0 Zn0_2 2.948731 1_545
Mg1_0 Mg1_6 3.063764 1_455
Mg1_0 Mg1_6 3.063764 1_545
Mg1_0 Mg3_5 3.219804 1_454
Mg1_0 Mg3_3 3.219804 1_544
Mg1_0 Mg2_7 3.270014 1_444
Mg1_1 Zn1_3 2.904455 1_545
Mg1_1 Zn1_5 2.904455 1_455
Mg1_1 Zn0_5 2.948731 1_455
Mg1_1 Zn0_3 2.948731 1_545
Mg1_1 Mg1_7 3.063764 1_455
Mg1_1 Mg1_7 3.063764 1_545
Mg1_1 Mg3_2 3.219804 1_545
Mg1_1 Mg3_4 3.219804 1_455
Mg1_1 Mg2_6 3.270014 1_445
Mg1_2 Zn1_0 2.904455 1_555
Mg1_2 Zn1_6 2.904455 1_455
Mg1_2 Zn0_0 2.948731 1_555
Mg1_2 Zn0_6 2.948731 1_455
Mg1_2 Mg1_4 3.063764 1_555
Mg1_2 Mg1_4 3.063764 1_465
Mg1_2 Mg3_1 3.219804 1_554
Mg1_2 Mg3_7 3.219804 1_454
Mg1_2 Mg2_5 3.270014 1_454
Mg1_3 Zn1_7 2.904455 1_455
Mg1_3 Zn1_1 2.904455 1_555
Mg1_3 Zn0_7 2.948731 1_455
Mg1_3 Zn0_1 2.948731 1_555
Mg1_3 Mg1_5 3.063764 1_465
Mg1_3 Mg1_5 3.063764 1_555
Mg1_3 Mg3_6 3.219804 1_455
Mg1_3 Mg3_0 3.219804 1_555
Mg1_3 Mg2_4 3.270014 1_455
Mg1_4 Zn1_0 2.904455 1_555
Mg1_4 Zn1_6 2.904455 1_545
Mg1_4 Zn0_0 2.948731 1_555
Mg1_4 Zn0_6 2.948731 1_545
Mg1_4 Mg3_1 3.219804 1_554
Mg1_4 Mg3_7 3.219804 1_544
Mg1_4 Mg2_3 3.270014 1_544
Mg1_5 Zn1_1 2.904455 1_555
Mg1_5 Zn1_7 2.904455 1_545
Mg1_5 Zn0_7 2.948731 1_545
Mg1_5 Zn0_1 2.948731 1_555
Mg1_5 Mg3_6 3.219804 1_545
Mg1_5 Mg3_0 3.219804 1_555
Mg1_5 Mg2_2 3.270014 1_545
Mg1_6 Zn1_2 2.904455 1_555
Mg1_6 Zn1_4 2.904455 1_555
Mg1_6 Zn0_4 2.948731 1_555
Mg1_6 Zn0_2 2.948731 1_555
Mg1_6 Mg3_3 3.219804 1_554
Mg1_6 Mg3_5 3.219804 1_554
Mg1_6 Mg2_1 3.270014 1_554
Mg1_7 Zn1_3 2.904455 1_555
Mg1_7 Zn1_5 2.904455 1_555
Mg1_7 Zn0_3 2.948731 1_555
Mg1_7 Zn0_5 2.948731 1_555
Mg1_7 Mg3_4 3.219804 1_555
Mg1_7 Mg3_2 3.219804 1_555
Mg1_7 Mg2_0 3.270014 1_555
Mg2_0 Zn0_4 2.904455 1_555
Mg2_0 Zn0_2 2.904455 1_555
Mg2_0 Zn1_2 2.948731 1_555
Mg2_0 Zn1_4 2.948731 1_555
Mg2_0 Mg2_6 3.063764 1_545
Mg2_0 Mg2_6 3.063764 1_455
Mg2_0 Mg3_0 3.111439 1_555
Mg2_0 Mg3_2 3.149225 1_555
Mg2_0 Mg3_4 3.149225 1_555
Mg2_1 Zn0_5 2.904455 1_555
Mg2_1 Zn0_3 2.904455 1_555
Mg2_1 Zn1_5 2.948731 1_555
Mg2_1 Zn1_3 2.948731 1_555
Mg2_1 Mg2_7 3.063764 1_545
Mg2_1 Mg2_7 3.063764 1_455
Mg2_1 Mg3_1 3.111439 1_555
Mg2_1 Mg3_3 3.149225 1_555
Mg2_1 Mg3_5 3.149225 1_555
Mg2_2 Zn0_6 2.904455 1_555
Mg2_2 Zn0_0 2.904455 1_565
Mg2_2 Zn1_6 2.948731 1_555
Mg2_2 Zn1_0 2.948731 1_565
Mg2_2 Mg2_4 3.063764 1_555
Mg2_2 Mg2_4 3.063764 1_465
Mg2_2 Mg3_2 3.111439 1_555
Mg2_2 Mg3_6 3.149225 1_555
Mg2_2 Mg3_0 3.149225 1_565
Mg2_3 Zn0_7 2.904455 1_555
Mg2_3 Zn0_1 2.904455 1_565
Mg2_3 Zn1_1 2.948731 1_565
Mg2_3 Zn1_7 2.948731 1_555
Mg2_3 Mg2_5 3.063764 1_555
Mg2_3 Mg2_5 3.063764 1_465
Mg2_3 Mg3_3 3.111439 1_555
Mg2_3 Mg3_1 3.149225 1_565
Mg2_3 Mg3_7 3.149225 1_555
Mg2_4 Zn0_0 2.904455 1_655
Mg2_4 Zn0_6 2.904455 1_555
Mg2_4 Zn1_0 2.948731 1_655
Mg2_4 Zn1_6 2.948731 1_555
Mg2_4 Mg3_4 3.111439 1_555
Mg2_4 Mg3_6 3.149225 1_555
Mg2_4 Mg3_0 3.149225 1_655
Mg2_5 Zn0_7 2.904455 1_555
Mg2_5 Zn0_1 2.904455 1_655
Mg2_5 Zn1_1 2.948731 1_655
Mg2_5 Zn1_7 2.948731 1_555
Mg2_5 Mg3_5 3.111439 1_555
Mg2_5 Mg3_1 3.149225 1_655
Mg2_5 Mg3_7 3.149225 1_555
Mg2_6 Zn0_2 2.904455 1_655
Mg2_6 Zn0_4 2.904455 1_565
Mg2_6 Zn1_4 2.948731 1_565
Mg2_6 Zn1_2 2.948731 1_655
Mg2_6 Mg3_6 3.111439 1_555
Mg2_6 Mg3_4 3.149225 1_565
Mg2_6 Mg3_2 3.149225 1_655
Mg2_7 Zn0_3 2.904455 1_655
Mg2_7 Zn0_5 2.904455 1_565
Mg2_7 Zn1_3 2.948731 1_655
Mg2_7 Zn1_5 2.948731 1_565
Mg2_7 Mg3_7 3.111439 1_555
Mg2_7 Mg3_3 3.149225 1_655
Mg2_7 Mg3_5 3.149225 1_565
Mg3_0 Zn0_0 2.844944 1_555
Mg3_0 Zn1_4 2.915981 1_555
Mg3_0 Zn1_2 2.915981 1_555
Mg3_0 Mg3_6 3.063764 1_455
Mg3_0 Mg3_6 3.063764 1_545
Mg3_1 Zn0_1 2.844944 1_555
Mg3_1 Zn1_5 2.915981 1_555
Mg3_1 Zn1_3 2.915981 1_555
Mg3_1 Mg3_7 3.063764 1_545
Mg3_1 Mg3_7 3.063764 1_455
Mg3_2 Zn0_2 2.844944 1_555
Mg3_2 Zn1_6 2.915981 1_555
Mg3_2 Zn1_0 2.915981 1_565
Mg3_2 Mg3_4 3.063764 1_555
Mg3_2 Mg3_4 3.063764 1_465
Mg3_3 Zn0_3 2.844944 1_555
Mg3_3 Zn1_7 2.915981 1_555
Mg3_3 Zn1_1 2.915981 1_565
Mg3_3 Mg3_5 3.063764 1_465
Mg3_3 Mg3_5 3.063764 1_555
Mg3_4 Zn0_4 2.844944 1_555
Mg3_4 Zn1_0 2.915981 1_655
Mg3_4 Zn1_6 2.915981 1_555
Mg3_5 Zn0_5 2.844944 1_555
Mg3_5 Zn1_7 2.915981 1_555
Mg3_5 Zn1_1 2.915981 1_655
Mg3_6 Zn0_6 2.844944 1_555
Mg3_6 Zn1_2 2.915981 1_655
Mg3_6 Zn1_4 2.915981 1_565
Mg3_7 Zn0_7 2.844944 1_555
Mg3_7 Zn1_5 2.915981 1_565
Mg3_7 Zn1_3 2.915981 1_655
Zn0_0 Zn1_4 3.049933 1_555
Zn0_0 Zn1_2 3.049933 1_555
Zn0_0 Zn0_6 3.063764 1_455
Zn0_0 Zn0_6 3.063764 1_545
Zn0_0 Zn1_0 3.204817 1_555
Zn0_1 Zn1_3 3.049933 1_555
Zn0_1 Zn1_5 3.049933 1_555
Zn0_1 Zn0_7 3.063764 1_545
Zn0_1 Zn0_7 3.063764 1_455
Zn0_1 Zn1_1 3.204817 1_555
Zn0_2 Zn1_6 3.049933 1_555
Zn0_2 Zn1_0 3.049933 1_565
Zn0_2 Zn0_4 3.063764 1_465
Zn0_2 Zn0_4 3.063764 1_555
Zn0_2 Zn1_2 3.204817 1_555
Zn0_3 Zn1_7 3.049933 1_555
Zn0_3 Zn1_1 3.049933 1_565
Zn0_3 Zn0_5 3.063764 1_465
Zn0_3 Zn0_5 3.063764 1_555
Zn0_3 Zn1_3 3.204817 1_555
Zn0_4 Zn1_0 3.049933 1_655
Zn0_4 Zn1_6 3.049933 1_555
Zn0_4 Zn1_4 3.204817 1_555
Zn0_5 Zn1_7 3.049933 1_555
Zn0_5 Zn1_1 3.049933 1_655
Zn0_5 Zn1_5 3.204817 1_555
Zn0_6 Zn1_2 3.049933 1_655
Zn0_6 Zn1_4 3.049933 1_565
Zn0_6 Zn1_6 3.204817 1_555
Zn0_7 Zn1_5 3.049933 1_565
Zn0_7 Zn1_3 3.049933 1_655
Zn0_7 Zn1_7 3.204817 1_555
Zn1_0 Zn1_6 3.063764 1_455
Zn1_0 Zn1_6 3.063764 1_545
Zn1_1 Zn1_7 3.063764 1_455
Zn1_1 Zn1_7 3.063764 1_545
Zn1_2 Zn1_4 3.063764 1_555
Zn1_2 Zn1_4 3.063764 1_465
Zn1_3 Zn1_5 3.063764 1_555
Zn1_3 Zn1_5 3.063764 1_465
