# generated using pymatgen
data_DyCd3
_symmetry_space_group_name_H-M   'P 1'
_cell_length_a   4.82749221
_cell_length_b   6.47200964
_cell_length_c   6.47201001
_cell_angle_alpha   113.30181711
_cell_angle_beta   90.00000000
_cell_angle_gamma   90.00000000
_symmetry_Int_Tables_number   1
_chemical_formula_structural   DyCd3
_chemical_formula_sum   'Dy2 Cd6'
_cell_volume   185.71534637
_cell_formula_units_Z   2
loop_
 _symmetry_equiv_pos_site_id
 _symmetry_equiv_pos_as_xyz
  1  'x, y, z'
loop_
 _atom_site_type_symbol
 _atom_site_label
 _atom_site_symmetry_multiplicity
 _atom_site_fract_x
 _atom_site_fract_y
 _atom_site_fract_z
 _atom_site_occupancy
  Dy  Dy0  1  0.75000000  0.36470298  0.63529702  1
  Dy  Dy1  1  0.25000000  0.63529702  0.36470298  1
  Cd  Cd0  1  0.75000000  0.82501269  0.17498731  1
  Cd  Cd1  1  0.25000000  0.17498731  0.82501269  1
  Cd  Cd2  1  0.75000000  0.30857094  0.12008359  1
  Cd  Cd3  1  0.25000000  0.69142906  0.87991641  1
  Cd  Cd4  1  0.25000000  0.12008359  0.30857094  1
  Cd  Cd5  1  0.75000000  0.87991641  0.69142906  1
loop_
_geom_bond_atom_site_label_1
_geom_bond_atom_site_label_2
_geom_bond_distance
_geom_bond_site_symmetry_2
Dy0 Dy1 3.792973 1_555
Dy0 Dy1 3.792973 1_655
Cd0 Cd4 2.985693 1_665
Cd0 Cd4 2.985693 1_565
Cd0 Cd3 2.985694 1_554
Cd0 Cd3 2.985694 1_654
Cd0 Dy1 3.167664 1_655
Cd0 Dy1 3.167664 1_555
Cd0 Cd2 3.218443 1_555
Cd0 Cd5 3.218443 1_555
Cd0 Cd2 3.286400 1_565
Cd0 Cd5 3.286401 1_554
Cd0 Dy0 3.583703 1_565
Cd0 Dy0 3.583703 1_554
Cd1 Cd5 2.985693 1_545
Cd1 Cd5 2.985693 1_445
Cd1 Cd2 2.985694 1_556
Cd1 Cd2 2.985694 1_456
Cd1 Dy0 3.167664 1_555
Cd1 Dy0 3.167664 1_455
Cd1 Cd3 3.218443 1_555
Cd1 Cd4 3.218443 1_555
Cd1 Cd3 3.286400 1_545
Cd1 Cd4 3.286401 1_556
Cd1 Dy1 3.583703 1_545
Cd1 Dy1 3.583703 1_556
Cd2 Cd5 3.050232 1_544
Cd2 Cd4 3.159079 1_555
Cd2 Cd4 3.159079 1_655
Cd2 Dy1 3.186767 1_555
Cd2 Dy1 3.186767 1_655
Cd2 Dy0 3.208157 1_555
Cd2 Dy0 3.298171 1_554
Cd3 Cd4 3.050232 1_566
Cd3 Cd5 3.159079 1_455
Cd3 Cd5 3.159079 1_555
Cd3 Dy0 3.186767 1_455
Cd3 Dy0 3.186767 1_555
Cd3 Dy1 3.208157 1_555
Cd3 Dy1 3.298171 1_556
Cd4 Dy0 3.186767 1_555
Cd4 Dy0 3.186767 1_455
Cd4 Dy1 3.208157 1_555
Cd4 Dy1 3.298171 1_545
Cd5 Dy1 3.186767 1_655
Cd5 Dy1 3.186767 1_555
Cd5 Dy0 3.208157 1_555
Cd5 Dy0 3.298171 1_565
