# generated using pymatgen
data_Mo2(NCl3)3
_symmetry_space_group_name_H-M   'P 1'
_cell_length_a   7.25711839
_cell_length_b   7.25711839
_cell_length_c   17.12849300
_cell_angle_alpha   90.00000000
_cell_angle_beta   90.00000000
_cell_angle_gamma   120.00000358
_symmetry_Int_Tables_number   1
_chemical_formula_structural   Mo2(NCl3)3
_chemical_formula_sum   'Mo4 N6 Cl18'
_cell_volume   781.22869539
_cell_formula_units_Z   2
loop_
 _symmetry_equiv_pos_site_id
 _symmetry_equiv_pos_as_xyz
  1  'x, y, z'
loop_
 _atom_site_type_symbol
 _atom_site_label
 _atom_site_symmetry_multiplicity
 _atom_site_fract_x
 _atom_site_fract_y
 _atom_site_fract_z
 _atom_site_occupancy
  Mo  Mo0  1  0.33333300  0.66666700  0.66893100  1
  Mo  Mo1  1  0.66666700  0.33333300  0.33106900  1
  Mo  Mo2  1  0.66666700  0.33333300  0.16893100  1
  Mo  Mo3  1  0.33333300  0.66666700  0.83106900  1
  N  N0  1  0.00000000  0.00000000  0.25000000  1
  N  N1  1  0.00000000  0.00000000  0.75000000  1
  N  N2  1  0.33333300  0.66666700  0.42941400  1
  N  N3  1  0.66666700  0.33333300  0.57058600  1
  N  N4  1  0.66666700  0.33333300  0.92941400  1
  N  N5  1  0.33333300  0.66666700  0.07058600  1
  Cl  Cl0  1  0.50362800  0.49637200  0.25000000  1
  Cl  Cl1  1  0.50362800  0.00725600  0.25000000  1
  Cl  Cl2  1  0.99274400  0.49637200  0.25000000  1
  Cl  Cl3  1  0.49637200  0.50362800  0.75000000  1
  Cl  Cl4  1  0.49637200  0.99274400  0.75000000  1
  Cl  Cl5  1  0.00725600  0.50362800  0.75000000  1
  Cl  Cl6  1  0.81985500  0.18014500  0.40339500  1
  Cl  Cl7  1  0.81985500  0.63970900  0.40339500  1
  Cl  Cl8  1  0.36029100  0.18014500  0.40339500  1
  Cl  Cl9  1  0.18014500  0.81985500  0.59660500  1
  Cl  Cl10  1  0.18014500  0.36029100  0.59660500  1
  Cl  Cl11  1  0.63970900  0.81985500  0.59660500  1
  Cl  Cl12  1  0.18014500  0.81985500  0.90339500  1
  Cl  Cl13  1  0.18014500  0.36029100  0.90339500  1
  Cl  Cl14  1  0.63970900  0.81985500  0.90339500  1
  Cl  Cl15  1  0.81985500  0.18014500  0.09660500  1
  Cl  Cl16  1  0.81985500  0.63970900  0.09660500  1
  Cl  Cl17  1  0.36029100  0.18014500  0.09660500  1
loop_
_geom_bond_atom_site_label_1
_geom_bond_atom_site_label_2
_geom_bond_distance
_geom_bond_site_symmetry_2
Mo0 Mo3 2.777180 1_555
Mo1 Mo2 2.777180 1_555
Cl0 Mo2 2.475484 1_555
Cl0 Mo1 2.475484 1_555
Cl0 Cl8 3.296176 1_555
Cl0 Cl17 3.296176 1_555
Cl0 Cl7 3.296176 1_555
Cl0 Cl16 3.296176 1_555
Cl0 N0 3.628846 1_555
Cl0 N0 3.628846 1_665
Cl0 N2 3.745113 1_555
Cl0 N5 3.745113 1_555
Cl1 Mo2 2.475479 1_555
Cl1 Mo1 2.475479 1_555
Cl1 Cl17 3.296172 1_555
Cl1 Cl8 3.296172 1_555
Cl1 Cl6 3.296176 1_555
Cl1 Cl15 3.296176 1_555
Cl1 N0 3.628846 1_555
Cl1 N0 3.628846 1_655
Cl1 N2 3.745110 1_545
Cl1 N5 3.745110 1_545
Cl2 Mo1 2.475479 1_555
Cl2 Mo2 2.475479 1_555
Cl2 Cl7 3.296172 1_555
Cl2 Cl6 3.296176 1_555
Cl2 N0 3.628846 1_665
Cl2 N0 3.628846 1_655
Cl2 N2 3.745110 1_655
Cl2 N5 3.745110 1_655
Cl3 Mo3 2.475484 1_555
Cl3 Mo0 2.475484 1_555
Cl3 N1 3.628846 1_665
Cl3 N1 3.628846 1_555
Cl3 N4 3.745113 1_555
Cl3 N3 3.745113 1_555
Cl4 Mo3 2.475479 1_555
Cl4 Mo0 2.475479 1_555
Cl4 Cl9 3.296176 1_555
Cl4 N1 3.628846 1_665
Cl4 N1 3.628846 1_565
Cl4 N4 3.745110 1_565
Cl4 N3 3.745110 1_565
Cl5 Mo3 2.475479 1_555
Cl5 Mo0 2.475479 1_555
Cl5 Cl9 3.296176 1_555
Cl5 N1 3.628846 1_555
Cl5 N1 3.628846 1_565
Cl5 N4 3.745110 1_455
Cl5 N3 3.745110 1_455
Cl6 Mo1 2.289622 1_555
Cl6 N3 3.450884 1_555
Cl6 N0 3.468534 1_655
Cl6 N2 3.659749 1_545
Cl6 N2 3.659749 1_655
Cl7 Mo1 2.289621 1_555
Cl7 N3 3.450884 1_555
Cl7 N0 3.468538 1_665
Cl7 N2 3.659742 1_655
Cl7 N2 3.659757 1_555
Cl8 Mo1 2.289621 1_555
Cl8 N3 3.450884 1_555
Cl8 N0 3.468538 1_555
Cl8 N2 3.659742 1_545
Cl8 N2 3.659757 1_555
Cl9 Mo0 2.289622 1_555
Cl9 N2 3.450884 1_555
Cl9 N1 3.468534 1_565
Cl9 N3 3.659749 1_455
Cl9 N3 3.659749 1_565
Cl10 Mo0 2.289621 1_555
Cl10 Cl5 3.296172 1_555
Cl10 Cl3 3.296176 1_555
Cl10 N2 3.450884 1_555
Cl10 N1 3.468538 1_555
Cl10 N3 3.659742 1_455
Cl10 N3 3.659757 1_555
Cl11 Mo0 2.289621 1_555
Cl11 Cl4 3.296172 1_555
Cl11 Cl3 3.296176 1_555
Cl11 N2 3.450884 1_555
Cl11 N1 3.468538 1_665
Cl11 N3 3.659742 1_565
Cl11 N3 3.659757 1_555
Cl12 Mo3 2.289622 1_555
Cl12 Cl4 3.296176 1_555
Cl12 Cl5 3.296176 1_555
Cl12 N5 3.450884 1_556
Cl12 N1 3.468534 1_565
Cl12 N4 3.659749 1_455
Cl12 N4 3.659749 1_565
Cl13 Mo3 2.289621 1_555
Cl13 Cl5 3.296172 1_555
Cl13 Cl3 3.296176 1_555
Cl13 N5 3.450884 1_556
Cl13 N1 3.468538 1_555
Cl13 N4 3.659742 1_455
Cl13 N4 3.659757 1_555
Cl14 Mo3 2.289621 1_555
Cl14 Cl4 3.296172 1_555
Cl14 Cl3 3.296176 1_555
Cl14 N5 3.450884 1_556
Cl14 N1 3.468538 1_665
Cl14 N4 3.659742 1_565
Cl14 N4 3.659757 1_555
Cl15 Mo2 2.289622 1_555
Cl15 Cl2 3.296176 1_555
Cl15 N4 3.450884 1_554
Cl15 N0 3.468534 1_655
Cl15 N5 3.659749 1_545
Cl15 N5 3.659749 1_655
Cl16 Mo2 2.289621 1_555
Cl16 Cl2 3.296172 1_555
Cl16 N4 3.450884 1_554
Cl16 N0 3.468538 1_665
Cl16 N5 3.659742 1_655
Cl16 N5 3.659757 1_555
Cl17 Mo2 2.289621 1_555
Cl17 N4 3.450884 1_554
Cl17 N0 3.468538 1_555
Cl17 N5 3.659742 1_545
Cl17 N5 3.659757 1_555
