# generated using pymatgen
data_Mn3W3C
_symmetry_space_group_name_H-M   'P 1'
_cell_length_a   7.97367360
_cell_length_b   7.97371298
_cell_length_c   7.97367120
_cell_angle_alpha   59.99977034
_cell_angle_beta   59.99961260
_cell_angle_gamma   59.99983370
_symmetry_Int_Tables_number   1
_chemical_formula_structural   Mn3W3C
_chemical_formula_sum   'Mn12 W12 C4'
_cell_volume   358.47577070
_cell_formula_units_Z   4
loop_
 _symmetry_equiv_pos_site_id
 _symmetry_equiv_pos_as_xyz
  1  'x, y, z'
loop_
 _atom_site_type_symbol
 _atom_site_label
 _atom_site_symmetry_multiplicity
 _atom_site_fract_x
 _atom_site_fract_y
 _atom_site_fract_z
 _atom_site_occupancy
  Mn  Mn0  1  0.12498923  0.12498942  0.12498872  1
  Mn  Mn1  1  0.33288403  0.33287665  0.00136761  1
  Mn  Mn2  1  0.00136353  0.33288667  0.33287384  1
  Mn  Mn3  1  0.91712432  0.24858798  0.91714375  1
  Mn  Mn4  1  0.24858938  0.91712762  0.91714257  1
  Mn  Mn5  1  0.91712937  0.91713588  0.91715079  1
  Mn  Mn6  1  0.91712862  0.91713814  0.24858488  1
  Mn  Mn7  1  0.33288576  0.00136692  0.33287245  1
  Mn  Mn8  1  0.62503451  0.12498868  0.12498826  1
  Mn  Mn9  1  0.12498933  0.12498995  0.62503109  1
  Mn  Mn10  1  0.12498931  0.62503234  0.12498909  1
  Mn  Mn11  1  0.33288355  0.33287747  0.33287003  1
  W  W0  1  0.68963922  0.31035107  0.68965541  1
  W  W1  1  0.31036448  0.68963434  0.31036592  1
  W  W2  1  0.56039322  0.93960715  0.56039455  1
  W  W3  1  0.56039357  0.93960610  0.93960559  1
  W  W4  1  0.93960516  0.56039603  0.56039464  1
  W  W5  1  0.93960499  0.56039589  0.93960584  1
  W  W6  1  0.31036501  0.31036683  0.68963361  1
  W  W7  1  0.56038999  0.56039380  0.93960879  1
  W  W8  1  0.68964529  0.68965787  0.31034937  1
  W  W9  1  0.68963936  0.31035220  0.31035202  1
  W  W10  1  0.93960332  0.93960480  0.56039627  1
  W  W11  1  0.31036298  0.68963439  0.68963444  1
  C  C0  1  0.62496607  0.62496690  0.62496713  1
  C  C1  1  0.62496639  0.62496658  0.12509953  1
  C  C2  1  0.12510075  0.62496625  0.62496670  1
  C  C3  1  0.62496626  0.12510106  0.62496611  1
loop_
_geom_bond_atom_site_label_1
_geom_bond_atom_site_label_2
_geom_bond_distance
_geom_bond_site_symmetry_2
Mn0 Mn4 2.438245 1_544
Mn0 Mn3 2.438257 1_454
Mn0 Mn6 2.438278 1_445
Mn0 Mn7 2.438663 1_555
Mn0 Mn2 2.438674 1_555
Mn0 Mn1 2.438680 1_555
Mn0 W9 2.888312 1_455
Mn0 W6 2.888374 1_554
Mn0 W1 2.888392 1_545
Mn0 W3 2.888665 1_544
Mn0 W10 2.888685 1_445
Mn0 W5 2.888695 1_454
Mn1 Mn8 2.438606 1_555
Mn1 Mn10 2.438649 1_555
Mn1 Mn11 2.643293 1_555
Mn1 Mn7 2.643328 1_555
Mn1 Mn2 2.643363 1_555
Mn1 W0 2.677128 1_554
Mn1 W11 2.677226 1_554
Mn1 W6 2.677254 1_554
Mn1 W7 2.885960 1_554
Mn1 W3 2.886013 1_544
Mn1 W5 2.886059 1_454
Mn2 Mn9 2.438671 1_555
Mn2 Mn7 2.643440 1_555
Mn2 W8 2.677238 1_455
Mn2 W0 2.677288 1_455
Mn2 W9 2.677300 1_455
Mn2 W5 2.885971 1_454
Mn2 W4 2.886010 1_455
Mn2 W10 2.886083 1_445
Mn3 Mn8 2.438113 1_556
Mn3 Mn9 2.438257 1_655
Mn3 Mn6 2.642835 1_546
Mn3 Mn5 2.642856 1_545
Mn3 Mn4 2.642975 1_645
Mn3 W7 2.677369 1_555
Mn3 W4 2.677440 1_555
Mn3 W5 2.677465 1_555
Mn3 W9 2.885576 1_556
Mn3 W0 2.885600 1_555
Mn3 W6 2.885844 1_655
Mn4 Mn9 2.438261 1_565
Mn4 Mn6 2.642870 1_456
Mn4 Mn5 2.642888 1_455
Mn4 W7 2.677353 1_555
Mn4 W2 2.677410 1_555
Mn4 W3 2.677419 1_555
Mn4 W1 2.885719 1_556
Mn4 W11 2.885758 1_555
Mn4 W6 2.885840 1_565
Mn5 Mn8 2.438130 1_566
Mn5 Mn9 2.438285 1_665
Mn5 Mn6 2.642752 1_556
Mn5 W3 2.677393 1_555
Mn5 W5 2.677422 1_555
Mn5 W10 2.677479 1_555
Mn5 W8 2.885505 1_556
Mn5 W0 2.885655 1_565
Mn5 W11 2.885814 1_655
Mn6 Mn8 2.438135 1_565
Mn6 W2 2.677374 1_555
Mn6 W4 2.677419 1_555
Mn6 W10 2.677475 1_555
Mn6 W8 2.885532 1_555
Mn6 W9 2.885643 1_565
Mn6 W1 2.885825 1_655
Mn7 Mn8 2.438594 1_555
Mn7 Mn9 2.438665 1_555
Mn7 W8 2.677150 1_545
Mn7 W11 2.677239 1_545
Mn7 W1 2.677250 1_545
Mn7 W3 2.885966 1_544
Mn7 W2 2.885996 1_545
Mn7 W10 2.886076 1_445
Mn8 W8 2.888219 1_545
Mn8 W0 2.888222 1_554
Mn8 W9 2.888238 1_555
Mn8 W2 2.888675 1_545
Mn8 W7 2.888682 1_554
Mn8 W3 2.888696 1_544
Mn9 W0 2.888317 1_455
Mn9 W6 2.888397 1_555
Mn9 W11 2.888399 1_545
Mn9 W2 2.888668 1_545
Mn9 W4 2.888700 1_455
Mn9 W10 2.888702 1_445
Mn10 Mn4 2.438160 1_554
Mn10 Mn5 2.438189 1_454
Mn10 Mn6 2.438213 1_455
Mn10 Mn2 2.438600 1_555
Mn10 Mn11 2.438634 1_555
Mn10 W8 2.888269 1_455
Mn10 W11 2.888371 1_554
Mn10 W1 2.888388 1_555
Mn10 W7 2.888639 1_554
Mn10 W4 2.888674 1_455
Mn10 W5 2.888684 1_454
Mn11 Mn8 2.438600 1_555
Mn11 Mn9 2.438668 1_555
Mn11 Mn7 2.643352 1_555
Mn11 Mn2 2.643381 1_555
Mn11 W9 2.677146 1_555
Mn11 W1 2.677238 1_555
Mn11 W6 2.677255 1_555
Mn11 W7 2.885927 1_554
Mn11 W2 2.886011 1_545
Mn11 W4 2.886058 1_455
C0 W11 2.122125 1_555
C0 W8 2.122169 1_555
C0 W0 2.122186 1_555
C0 W4 2.122741 1_555
C0 W7 2.122748 1_555
C0 W2 2.122759 1_555
C1 W1 2.122109 1_555
C1 W9 2.122169 1_555
C1 W8 2.122198 1_555
C1 W5 2.122729 1_554
C1 W7 2.122746 1_554
C1 W3 2.122748 1_554
C2 W11 2.122096 1_555
C2 W1 2.122097 1_555
C2 W6 2.122106 1_555
C2 W5 2.122734 1_455
C2 W4 2.122744 1_455
C2 W10 2.122750 1_455
C3 W6 2.122110 1_555
C3 W9 2.122154 1_555
C3 W0 2.122159 1_555
C3 W10 2.122730 1_545
C3 W3 2.122739 1_545
C3 W2 2.122749 1_545
