# generated using pymatgen
data_Dy3TaO7
_symmetry_space_group_name_H-M   'P 1'
_cell_length_a   7.45705200
_cell_length_b   7.58704900
_cell_length_c   10.58409400
_cell_angle_alpha   90.00000000
_cell_angle_beta   90.00000000
_cell_angle_gamma   90.00000000
_symmetry_Int_Tables_number   1
_chemical_formula_structural   Dy3TaO7
_chemical_formula_sum   'Dy12 Ta4 O28'
_cell_volume   598.81648648
_cell_formula_units_Z   4
loop_
 _symmetry_equiv_pos_site_id
 _symmetry_equiv_pos_as_xyz
  1  'x, y, z'
loop_
 _atom_site_type_symbol
 _atom_site_label
 _atom_site_symmetry_multiplicity
 _atom_site_fract_x
 _atom_site_fract_y
 _atom_site_fract_z
 _atom_site_occupancy
  Dy  Dy0  1  0.01584500  0.79725000  0.25000000  1
  Dy  Dy1  1  0.25243200  0.96856200  0.52079600  1
  Dy  Dy2  1  0.25243200  0.96856200  0.97920400  1
  Dy  Dy3  1  0.24756800  0.46856200  0.02079600  1
  Dy  Dy4  1  0.24756800  0.46856200  0.47920400  1
  Dy  Dy5  1  0.48415500  0.29725000  0.75000000  1
  Dy  Dy6  1  0.51584500  0.70275000  0.25000000  1
  Dy  Dy7  1  0.75243200  0.53143800  0.52079600  1
  Dy  Dy8  1  0.75243200  0.53143800  0.97920400  1
  Dy  Dy9  1  0.74756800  0.03143800  0.02079600  1
  Dy  Dy10  1  0.74756800  0.03143800  0.47920400  1
  Dy  Dy11  1  0.98415500  0.20275000  0.75000000  1
  Ta  Ta0  1  0.99789000  0.75002900  0.75000000  1
  Ta  Ta1  1  0.50211000  0.25002900  0.25000000  1
  Ta  Ta2  1  0.49789000  0.74997100  0.75000000  1
  Ta  Ta3  1  0.00211000  0.24997100  0.25000000  1
  O  O0  1  0.03673400  0.04614100  0.12481200  1
  O  O1  1  0.03673400  0.04614100  0.37518800  1
  O  O2  1  0.03966900  0.58840200  0.61063200  1
  O  O3  1  0.03966900  0.58840200  0.88936800  1
  O  O4  1  0.24877800  0.33497600  0.25000000  1
  O  O5  1  0.25766000  0.73328100  0.11603800  1
  O  O6  1  0.25766000  0.73328100  0.38396200  1
  O  O7  1  0.24234000  0.23328100  0.61603800  1
  O  O8  1  0.24234000  0.23328100  0.88396200  1
  O  O9  1  0.25122200  0.83497600  0.75000000  1
  O  O10  1  0.46033100  0.08840200  0.11063200  1
  O  O11  1  0.46033100  0.08840200  0.38936800  1
  O  O12  1  0.46326600  0.54614100  0.62481200  1
  O  O13  1  0.46326600  0.54614100  0.87518800  1
  O  O14  1  0.53673400  0.45385900  0.12481200  1
  O  O15  1  0.53673400  0.45385900  0.37518800  1
  O  O16  1  0.53966900  0.91159800  0.61063200  1
  O  O17  1  0.53966900  0.91159800  0.88936800  1
  O  O18  1  0.74877800  0.16502400  0.25000000  1
  O  O19  1  0.75766000  0.76671900  0.11603800  1
  O  O20  1  0.75766000  0.76671900  0.38396200  1
  O  O21  1  0.74234000  0.26671900  0.61603800  1
  O  O22  1  0.74234000  0.26671900  0.88396200  1
  O  O23  1  0.75122200  0.66502400  0.75000000  1
  O  O24  1  0.96033100  0.41159800  0.11063200  1
  O  O25  1  0.96033100  0.41159800  0.38936800  1
  O  O26  1  0.96326600  0.95385900  0.62481200  1
  O  O27  1  0.96326600  0.95385900  0.87518800  1
loop_
_geom_bond_atom_site_label_1
_geom_bond_atom_site_label_2
_geom_bond_distance
_geom_bond_site_symmetry_2
Dy0 O1 2.312088 1_565
Dy0 O0 2.312088 1_565
Dy0 O6 2.344680 1_555
Dy0 O5 2.344680 1_555
Dy0 O20 2.402244 1_455
Dy0 O19 2.402244 1_455
Dy1 O7 2.248476 1_565
Dy1 O11 2.272704 1_565
Dy1 O6 2.299028 1_555
Dy1 O1 2.304062 1_565
Dy1 O16 2.383020 1_555
Dy1 O26 2.423675 1_455
Dy1 O9 2.629141 1_555
Dy2 O8 2.248476 1_565
Dy2 O10 2.272704 1_566
Dy2 O5 2.299028 1_556
Dy2 O0 2.304062 1_566
Dy2 O17 2.383020 1_555
Dy2 O27 2.423675 1_455
Dy2 O9 2.629141 1_555
Dy3 O5 2.248476 1_555
Dy3 O3 2.272704 1_554
Dy3 O8 2.299028 1_554
Dy3 O13 2.304062 1_554
Dy3 O24 2.383020 1_455
Dy3 O14 2.423675 1_555
Dy3 O4 2.629141 1_555
Dy4 O6 2.248476 1_555
Dy4 O2 2.272704 1_555
Dy4 O7 2.299028 1_555
Dy4 O12 2.304062 1_555
Dy4 O25 2.383020 1_455
Dy4 O15 2.423675 1_555
Dy4 O4 2.629141 1_555
Dy5 O13 2.312088 1_555
Dy5 O12 2.312088 1_555
Dy5 O8 2.344680 1_555
Dy5 O7 2.344680 1_555
Dy5 O22 2.402244 1_555
Dy5 O21 2.402244 1_555
Dy6 O15 2.312088 1_555
Dy6 O14 2.312088 1_555
Dy6 O20 2.344680 1_555
Dy6 O19 2.344680 1_555
Dy6 O6 2.402244 1_555
Dy6 O5 2.402244 1_555
Dy7 O21 2.248476 1_555
Dy7 O25 2.272704 1_555
Dy7 O20 2.299028 1_555
Dy7 O15 2.304062 1_555
Dy7 O2 2.383020 1_655
Dy7 O12 2.423675 1_555
Dy7 O23 2.629141 1_555
Dy8 O22 2.248476 1_555
Dy8 O24 2.272704 1_556
Dy8 O19 2.299028 1_556
Dy8 O14 2.304062 1_556
Dy8 O3 2.383020 1_655
Dy8 O13 2.423675 1_555
Dy8 O23 2.629141 1_555
Dy9 O19 2.248476 1_545
Dy9 O17 2.272704 1_544
Dy9 O22 2.299028 1_554
Dy9 O27 2.304062 1_544
Dy9 O10 2.383020 1_555
Dy9 O0 2.423675 1_655
Dy9 O18 2.629141 1_555
Dy10 O20 2.248476 1_545
Dy10 O16 2.272704 1_545
Dy10 O21 2.299028 1_555
Dy10 O26 2.304062 1_545
Dy10 O11 2.383020 1_555
Dy10 O1 2.423675 1_655
Dy10 O18 2.629141 1_555
Dy11 O27 2.312088 1_545
Dy11 O26 2.312088 1_545
Dy11 O22 2.344680 1_555
Dy11 O21 2.344680 1_555
Dy11 O8 2.402244 1_655
Dy11 O7 2.402244 1_655
O0 Ta3 2.052768 1_555
O0 O1 2.650003 1_555
O0 O18 2.679569 1_455
O0 O27 2.787606 1_444
O0 O24 2.834646 1_455
O0 O5 2.890867 1_545
O1 Ta3 2.052768 1_555
O1 O18 2.679569 1_455
O1 O26 2.787606 1_445
O1 O25 2.834646 1_455
O1 O6 2.890867 1_545
O2 Ta0 1.943368 1_455
O2 O23 2.672166 1_455
O2 O26 2.834646 1_455
O2 O7 3.089781 1_555
O2 O6 3.099418 1_555
O3 Ta0 1.943368 1_455
O3 O8 3.089781 1_555
O3 O5 3.099418 1_556
O4 Ta3 1.949204 1_555
O4 Ta1 1.996024 1_555
O5 O6 2.835733 1_555
O7 O8 2.835733 1_555
O9 Ta2 1.949204 1_555
O9 Ta0 1.996024 1_455
O10 Ta1 1.943368 1_555
O10 O18 2.672166 1_555
O10 O14 2.834646 1_555
O10 O5 3.089781 1_545
O10 O8 3.099418 1_554
O11 Ta1 1.943368 1_555
O11 O18 2.672166 1_555
O11 O15 2.834646 1_555
O11 O6 3.089781 1_545
O11 O7 3.099418 1_555
O12 Ta2 2.052768 1_555
O12 O13 2.650003 1_555
O12 O23 2.679569 1_555
O12 O15 2.787606 1_555
O12 O16 2.834646 1_555
O12 O7 2.890867 1_555
O13 Ta2 2.052768 1_555
O13 O23 2.679569 1_555
O13 O14 2.787606 1_556
O13 O17 2.834646 1_555
O13 O8 2.890867 1_555
O14 Ta1 2.052768 1_555
O14 O15 2.650003 1_555
O14 O4 2.679569 1_555
O14 O19 2.890867 1_555
O15 Ta1 2.052768 1_555
O15 O4 2.679569 1_555
O15 O20 2.890867 1_555
O16 Ta2 1.943368 1_555
O16 O9 2.672166 1_555
O16 O21 3.089781 1_565
O16 O20 3.099418 1_555
O17 Ta2 1.943368 1_555
O17 O9 2.672166 1_555
O17 O22 3.089781 1_565
O17 O19 3.099418 1_556
O18 Ta1 1.949204 1_555
O18 Ta3 1.996024 1_655
O19 O20 2.835733 1_555
O19 O24 3.089781 1_555
O20 O25 3.089781 1_555
O21 O22 2.835733 1_555
O21 O26 2.890867 1_545
O21 O25 3.099418 1_555
O22 O27 2.890867 1_545
O22 O24 3.099418 1_556
O23 Ta0 1.949204 1_555
O23 Ta2 1.996024 1_555
O23 O3 2.672166 1_655
O24 Ta3 1.943368 1_655
O24 O4 2.672166 1_655
O25 Ta3 1.943368 1_655
O25 O4 2.672166 1_655
O26 Ta0 2.052768 1_555
O26 O27 2.650003 1_555
O26 O9 2.679569 1_655
O27 Ta0 2.052768 1_555
O27 O9 2.679569 1_655
O27 O3 2.834646 1_655
