# generated using pymatgen
data_Nb12Al3In
_symmetry_space_group_name_H-M   'P 1'
_cell_length_a   5.24773000
_cell_length_b   5.26156700
_cell_length_c   10.43068100
_cell_angle_alpha   90.00000000
_cell_angle_beta   90.00000000
_cell_angle_gamma   90.00000000
_symmetry_Int_Tables_number   1
_chemical_formula_structural   Nb12Al3In
_chemical_formula_sum   'Nb12 Al3 In1'
_cell_volume   288.00448490
_cell_formula_units_Z   1
loop_
 _symmetry_equiv_pos_site_id
 _symmetry_equiv_pos_as_xyz
  1  'x, y, z'
loop_
 _atom_site_type_symbol
 _atom_site_label
 _atom_site_symmetry_multiplicity
 _atom_site_fract_x
 _atom_site_fract_y
 _atom_site_fract_z
 _atom_site_occupancy
  Nb  Nb0  1  0.50000000  0.00000000  0.36909900  1
  Nb  Nb1  1  0.50000000  0.00000000  0.87491400  1
  Nb  Nb2  1  0.75855800  0.50000000  0.00000000  1
  Nb  Nb3  1  0.73853200  0.50000000  0.50000000  1
  Nb  Nb4  1  0.00000000  0.74366000  0.24297000  1
  Nb  Nb5  1  0.00000000  0.74366000  0.75703000  1
  Nb  Nb6  1  0.50000000  0.00000000  0.12508600  1
  Nb  Nb7  1  0.50000000  0.00000000  0.63090100  1
  Nb  Nb8  1  0.24144200  0.50000000  0.00000000  1
  Nb  Nb9  1  0.26146800  0.50000000  0.50000000  1
  Nb  Nb10  1  0.00000000  0.25634000  0.24297000  1
  Nb  Nb11  1  0.00000000  0.25634000  0.75703000  1
  Al  Al0  1  0.50000000  0.50000000  0.25028400  1
  Al  Al1  1  0.50000000  0.50000000  0.74971600  1
  Al  Al2  1  0.00000000  0.00000000  0.00000000  1
  In  In0  1  0.00000000  0.00000000  0.50000000  1
loop_
_geom_bond_atom_site_label_1
_geom_bond_atom_site_label_2
_geom_bond_distance
_geom_bond_site_symmetry_2
Nb0 Nb6 2.545222 1_555
Nb0 Nb7 2.730773 1_555
Nb0 Nb3 3.217481 1_545
Nb0 Nb3 3.217481 1_555
Nb0 Nb9 3.217481 1_555
Nb0 Nb9 3.217481 1_545
Nb0 Nb4 3.230267 1_645
Nb0 Nb4 3.230267 1_545
Nb0 Nb10 3.230267 1_555
Nb0 Nb10 3.230267 1_655
Nb1 Nb7 2.545222 1_555
Nb1 Nb6 2.609464 1_556
Nb1 Nb5 3.196207 1_645
Nb1 Nb5 3.196207 1_545
Nb1 Nb11 3.196207 1_555
Nb1 Nb11 3.196207 1_655
Nb1 Nb2 3.234868 1_556
Nb1 Nb2 3.234868 1_546
Nb1 Nb8 3.234868 1_556
Nb1 Nb8 3.234868 1_546
Nb2 Nb8 2.534045 1_655
Nb2 Nb8 2.713685 1_555
Nb2 Nb5 3.109959 1_654
Nb2 Nb4 3.109959 1_655
Nb2 Nb6 3.234868 1_565
Nb2 Nb6 3.234868 1_555
Nb3 Nb9 2.503503 1_555
Nb3 Nb9 2.744227 1_655
Nb3 Nb7 3.217481 1_555
Nb3 Nb7 3.217481 1_565
Nb3 Nb4 3.273233 1_655
Nb3 Nb5 3.273233 1_655
Nb4 Nb8 3.109959 1_555
Nb4 Nb6 3.196207 1_465
Nb4 Nb6 3.196207 1_565
Nb4 Nb9 3.273233 1_555
Nb5 Nb8 3.109959 1_556
Nb5 Nb7 3.230267 1_465
Nb5 Nb7 3.230267 1_565
Nb5 Nb9 3.273233 1_555
Nb6 Nb8 3.234868 1_545
Nb6 Nb8 3.234868 1_555
Nb7 Nb9 3.217481 1_555
Nb7 Nb9 3.217481 1_545
Nb10 Nb4 2.564067 1_555
Nb10 Nb4 2.697500 1_545
Nb10 Nb8 3.109959 1_555
Nb10 Nb2 3.109959 1_455
Nb10 Nb6 3.196207 1_555
Nb10 Nb6 3.196207 1_455
Nb10 Nb9 3.273233 1_555
Nb10 Nb3 3.273233 1_455
Nb11 Nb5 2.564067 1_555
Nb11 Nb5 2.697500 1_545
Nb11 Nb8 3.109959 1_556
Nb11 Nb2 3.109959 1_456
Nb11 Nb7 3.230267 1_555
Nb11 Nb7 3.230267 1_455
Nb11 Nb3 3.273233 1_455
Nb11 Nb9 3.273233 1_555
Al0 Nb3 2.889876 1_555
Al0 Nb9 2.889876 1_555
Al0 Nb0 2.908082 1_555
Al0 Nb0 2.908082 1_565
Al0 Nb10 2.921318 1_555
Al0 Nb10 2.921318 1_655
Al0 Nb4 2.921318 1_655
Al0 Nb4 2.921318 1_555
Al0 Nb6 2.937073 1_555
Al0 Nb6 2.937073 1_565
Al0 Nb2 2.942180 1_555
Al0 Nb8 2.942180 1_555
Al1 Nb3 2.889876 1_555
Al1 Nb9 2.889876 1_555
Al1 Nb7 2.908082 1_565
Al1 Nb7 2.908082 1_555
Al1 Nb11 2.921318 1_555
Al1 Nb11 2.921318 1_655
Al1 Nb5 2.921318 1_655
Al1 Nb5 2.921318 1_555
Al1 Nb1 2.937073 1_555
Al1 Nb1 2.937073 1_565
Al1 Nb8 2.942180 1_556
Al1 Nb2 2.942180 1_556
Al2 Nb5 2.870892 1_544
Al2 Nb4 2.870892 1_545
Al2 Nb11 2.870892 1_554
Al2 Nb10 2.870892 1_555
Al2 Nb8 2.919994 1_545
Al2 Nb2 2.919994 1_455
Al2 Nb8 2.919994 1_555
Al2 Nb2 2.919994 1_445
Al2 Nb1 2.930357 1_454
Al2 Nb1 2.930357 1_554
Al2 Nb6 2.930357 1_555
Al2 Nb6 2.930357 1_455
In0 Nb7 2.957862 1_555
In0 Nb7 2.957862 1_455
In0 Nb0 2.957862 1_555
In0 Nb0 2.957862 1_455
In0 Nb3 2.967106 1_455
In0 Nb9 2.967106 1_545
In0 Nb3 2.967106 1_445
In0 Nb9 2.967106 1_555
In0 Nb10 3.001146 1_555
In0 Nb4 3.001146 1_545
In0 Nb11 3.001146 1_555
In0 Nb5 3.001146 1_545
