# generated using pymatgen
data_Ho2MgSi2
_symmetry_space_group_name_H-M   'P 1'
_cell_length_a   7.12803891
_cell_length_b   7.12803891
_cell_length_c   4.18216300
_cell_angle_alpha   90.00000000
_cell_angle_beta   90.00000000
_cell_angle_gamma   90.00000000
_symmetry_Int_Tables_number   1
_chemical_formula_structural   Ho2MgSi2
_chemical_formula_sum   'Ho4 Mg2 Si4'
_cell_volume   212.49126351
_cell_formula_units_Z   2
loop_
 _symmetry_equiv_pos_site_id
 _symmetry_equiv_pos_as_xyz
  1  'x, y, z'
loop_
 _atom_site_type_symbol
 _atom_site_label
 _atom_site_symmetry_multiplicity
 _atom_site_fract_x
 _atom_site_fract_y
 _atom_site_fract_z
 _atom_site_occupancy
  Ho  Ho0  1  0.67832003  0.17832003  0.50000000  1
  Ho  Ho1  1  0.32167997  0.82167997  0.50000000  1
  Ho  Ho2  1  0.17832003  0.32167997  0.50000000  1
  Ho  Ho3  1  0.82167997  0.67832003  0.50000000  1
  Mg  Mg0  1  -0.00000000  0.00000000  0.00000000  1
  Mg  Mg1  1  0.50000000  0.50000000  0.00000000  1
  Si  Si0  1  0.11799952  0.61799952  -0.00000000  1
  Si  Si1  1  0.88200048  0.38200048  0.00000000  1
  Si  Si2  1  0.61799952  0.88200048  -0.00000000  1
  Si  Si3  1  0.38200048  0.11799952  0.00000000  1
loop_
_geom_bond_atom_site_label_1
_geom_bond_atom_site_label_2
_geom_bond_distance
_geom_bond_site_symmetry_2
Ho0 Si1 2.930582 1_555
Ho0 Si1 2.930582 1_556
Ho0 Si3 3.003129 1_555
Ho0 Si2 3.003129 1_545
Ho0 Si3 3.003129 1_556
Ho0 Si2 3.003129 1_546
Ho0 Mg1 3.353484 1_556
Ho0 Mg1 3.353484 1_555
Ho0 Mg0 3.353484 1_655
Ho0 Mg0 3.353484 1_656
Ho1 Si0 2.930582 1_556
Ho1 Si0 2.930582 1_555
Ho1 Si3 3.003129 1_566
Ho1 Si3 3.003129 1_565
Ho1 Si2 3.003129 1_555
Ho1 Si2 3.003129 1_556
Ho1 Mg0 3.353484 1_566
Ho1 Mg0 3.353484 1_565
Ho1 Mg1 3.353484 1_556
Ho1 Mg1 3.353484 1_555
Ho2 Si3 2.930582 1_556
Ho2 Si3 2.930582 1_555
Ho2 Si0 3.003129 1_556
Ho2 Si1 3.003129 1_455
Ho2 Si0 3.003129 1_555
Ho2 Si1 3.003129 1_456
Ho2 Mg0 3.353484 1_555
Ho2 Mg0 3.353484 1_556
Ho2 Mg1 3.353484 1_556
Ho2 Mg1 3.353484 1_555
Ho3 Si2 2.930582 1_556
Ho3 Si2 2.930582 1_555
Ho3 Si0 3.003129 1_655
Ho3 Si0 3.003129 1_656
Ho3 Si1 3.003129 1_555
Ho3 Si1 3.003129 1_556
Ho3 Mg0 3.353484 1_666
Ho3 Mg0 3.353484 1_665
Ho3 Mg1 3.353484 1_556
Ho3 Mg1 3.353484 1_555
Mg0 Si2 2.849863 1_445
Mg0 Si0 2.849863 1_545
Mg0 Si3 2.849863 1_555
Mg0 Si1 2.849863 1_455
Mg1 Si1 2.849863 1_555
Mg1 Si2 2.849863 1_555
Mg1 Si3 2.849863 1_555
Mg1 Si0 2.849863 1_555
Si0 Si1 2.379005 1_455
Si2 Si3 2.379005 1_565
