# generated using pymatgen
data_SmNiSn
_symmetry_space_group_name_H-M   'P 1'
_cell_length_a   4.57988100
_cell_length_b   7.41680700
_cell_length_c   7.60321800
_cell_angle_alpha   90.00000000
_cell_angle_beta   90.00000000
_cell_angle_gamma   90.00000000
_symmetry_Int_Tables_number   1
_chemical_formula_structural   SmNiSn
_chemical_formula_sum   'Sm4 Ni4 Sn4'
_cell_volume   258.26681962
_cell_formula_units_Z   4
loop_
 _symmetry_equiv_pos_site_id
 _symmetry_equiv_pos_as_xyz
  1  'x, y, z'
loop_
 _atom_site_type_symbol
 _atom_site_label
 _atom_site_symmetry_multiplicity
 _atom_site_fract_x
 _atom_site_fract_y
 _atom_site_fract_z
 _atom_site_occupancy
  Sm  Sm0  1  0.75000000  0.47746700  0.20177900  1
  Sm  Sm1  1  0.75000000  0.97746700  0.29822100  1
  Sm  Sm2  1  0.25000000  0.52253300  0.79822100  1
  Sm  Sm3  1  0.25000000  0.02253300  0.70177900  1
  Ni  Ni0  1  0.75000000  0.19450700  0.92425200  1
  Ni  Ni1  1  0.75000000  0.69450700  0.57574800  1
  Ni  Ni2  1  0.25000000  0.80549300  0.07574800  1
  Ni  Ni3  1  0.25000000  0.30549300  0.42425200  1
  Sn  Sn0  1  0.75000000  0.30922200  0.59400800  1
  Sn  Sn1  1  0.75000000  0.80922200  0.90599200  1
  Sn  Sn2  1  0.25000000  0.69077800  0.40599200  1
  Sn  Sn3  1  0.25000000  0.19077800  0.09400800  1
loop_
_geom_bond_atom_site_label_1
_geom_bond_atom_site_label_2
_geom_bond_distance
_geom_bond_site_symmetry_2
Sm0 Sn2 3.187103 1_655
Sm0 Sn2 3.187103 1_555
Sm0 Sn3 3.230554 1_655
Sm0 Sn3 3.230554 1_555
Sm0 Sn0 3.232745 1_555
Sm0 Sn1 3.333477 1_554
Sm0 Sm2 3.843209 1_554
Sm0 Sm2 3.843209 1_654
Sm1 Sn3 3.187103 1_565
Sm1 Sn3 3.187103 1_665
Sm1 Sn2 3.230554 1_655
Sm1 Sn2 3.230554 1_555
Sm1 Sn1 3.232745 1_554
Sm1 Sn0 3.333477 1_565
Sm1 Sm3 3.843209 1_665
Sm1 Sm3 3.843209 1_565
Sm2 Sn0 3.187103 1_455
Sm2 Sn0 3.187103 1_555
Sm2 Sn1 3.230554 1_555
Sm2 Sn1 3.230554 1_455
Sm2 Sn2 3.232745 1_555
Sm2 Sn3 3.333477 1_556
Sm3 Sn1 3.187103 1_545
Sm3 Sn1 3.187103 1_445
Sm3 Sn0 3.230554 1_555
Sm3 Sn0 3.230554 1_455
Sm3 Sn3 3.232745 1_556
Sm3 Sn2 3.333477 1_545
Ni0 Sn3 2.628779 1_556
Ni0 Sn3 2.628779 1_656
Ni0 Sn0 2.651150 1_555
Ni0 Sn1 2.860955 1_545
Ni0 Sm0 2.976052 1_556
Ni0 Sm3 3.119604 1_555
Ni0 Sm3 3.119604 1_655
Ni0 Sm1 3.267417 1_546
Ni0 Sm2 3.475785 1_655
Ni0 Sm2 3.475785 1_555
Ni1 Sn2 2.628779 1_655
Ni1 Sn2 2.628779 1_555
Ni1 Sn1 2.651150 1_555
Ni1 Sn0 2.860955 1_555
Ni1 Sm1 2.976052 1_555
Ni1 Sm2 3.119604 1_655
Ni1 Sm2 3.119604 1_555
Ni1 Sm0 3.267417 1_555
Ni1 Sm3 3.475785 1_565
Ni1 Sm3 3.475785 1_665
Ni2 Sn1 2.628779 1_454
Ni2 Sn1 2.628779 1_554
Ni2 Sn2 2.651150 1_555
Ni2 Sn3 2.860955 1_565
Ni2 Sm2 2.976052 1_554
Ni2 Sm1 3.119604 1_555
Ni2 Sm1 3.119604 1_455
Ni2 Sm3 3.267417 1_564
Ni2 Sm0 3.475785 1_455
Ni2 Sm0 3.475785 1_555
Ni3 Sn0 2.628779 1_455
Ni3 Sn0 2.628779 1_555
Ni3 Sn3 2.651150 1_555
Ni3 Sn2 2.860955 1_555
Ni3 Sm3 2.976052 1_555
Ni3 Sm0 3.119604 1_455
Ni3 Sm0 3.119604 1_555
Ni3 Sm2 3.267417 1_555
Ni3 Sm1 3.475785 1_545
Ni3 Sm1 3.475785 1_445
