# generated using pymatgen
data_VO2
_symmetry_space_group_name_H-M   'P 1'
_cell_length_a   5.28256442
_cell_length_b   5.47590467
_cell_length_c   8.26156120
_cell_angle_alpha   91.01474632
_cell_angle_beta   89.33915219
_cell_angle_gamma   116.42096122
_symmetry_Int_Tables_number   1
_chemical_formula_structural   VO2
_chemical_formula_sum   'V6 O12'
_cell_volume   213.98357746
_cell_formula_units_Z   6
loop_
 _symmetry_equiv_pos_site_id
 _symmetry_equiv_pos_as_xyz
  1  'x, y, z'
loop_
 _atom_site_type_symbol
 _atom_site_label
 _atom_site_symmetry_multiplicity
 _atom_site_fract_x
 _atom_site_fract_y
 _atom_site_fract_z
 _atom_site_occupancy
  V  V0  1  0.99931200  0.99970700  0.99660100  1
  V  V1  1  0.50027800  0.50100700  0.49726400  1
  V  V2  1  0.98557400  0.50142200  0.67771800  1
  V  V3  1  0.48212800  0.00702100  0.17882800  1
  V  V4  1  0.01466700  0.49795700  0.31550500  1
  V  V5  1  0.51726500  0.99394600  0.81565100  1
  O  O0  1  0.41847500  0.18502200  0.98861700  1
  O  O1  1  0.91666200  0.68448500  0.49031800  1
  O  O2  1  0.58120800  0.81552600  0.00506800  1
  O  O3  1  0.08366600  0.31496600  0.50301100  1
  O  O4  1  0.07067700  0.80199900  0.16265000  1
  O  O5  1  0.58618900  0.29883800  0.66887600  1
  O  O6  1  0.07457900  0.77624900  0.82613900  1
  O  O7  1  0.54971400  0.27495300  0.33253500  1
  O  O8  1  0.92924600  0.19775700  0.83077300  1
  O  O9  1  0.41407800  0.70071400  0.32445700  1
  O  O10  1  0.92562800  0.22379000  0.16699800  1
  O  O11  1  0.45065300  0.72464300  0.66149200  1
loop_
_geom_bond_atom_site_label_1
_geom_bond_atom_site_label_2
_geom_bond_distance
_geom_bond_site_symmetry_2
O0 V5 1.955720 1_545
O0 V3 1.972479 1_556
O0 V0 1.984039 1_445
O1 V4 1.948898 1_655
O1 V1 1.970614 1_555
O1 V2 1.981689 1_555
O2 V3 1.962662 1_565
O2 V5 1.969146 1_554
O2 V0 1.979100 1_554
O3 V2 1.948237 1_455
O3 V1 1.971696 1_555
O3 V4 1.982338 1_555
O4 V0 1.903644 1_454
O4 V3 1.957619 1_565
O4 V4 2.020306 1_555
O5 V2 1.898678 1_555
O5 V5 1.977606 1_545
O5 V1 1.989773 1_555
O6 V2 1.818696 1_455
O6 V0 1.999411 1_455
O6 V5 2.101277 1_555
O7 V3 1.836003 1_555
O7 V1 1.916347 1_555
O7 V4 2.207394 1_655
O8 V0 1.900416 1_545
O8 V5 1.958913 1_545
O8 V2 2.019391 1_555
O9 V4 1.898917 1_555
O9 V3 1.978637 1_565
O9 V1 1.988695 1_555
O10 V4 1.816619 1_655
O10 V0 1.997535 1_544
O10 V3 2.105072 1_555
O11 V5 1.844602 1_555
O11 V1 1.904699 1_555
O11 V2 2.207648 1_455
