# generated using pymatgen
data_K2YHf(PO4)3
_symmetry_space_group_name_H-M   'P 1'
_cell_length_a   10.48755800
_cell_length_b   10.48755800
_cell_length_c   10.48755800
_cell_angle_alpha   90.00000000
_cell_angle_beta   90.00000000
_cell_angle_gamma   90.00000000
_symmetry_Int_Tables_number   1
_chemical_formula_structural   K2YHf(PO4)3
_chemical_formula_sum   'K8 Y4 Hf4 P12 O48'
_cell_volume   1153.51468288
_cell_formula_units_Z   4
loop_
 _symmetry_equiv_pos_site_id
 _symmetry_equiv_pos_as_xyz
  1  'x, y, z'
loop_
 _atom_site_type_symbol
 _atom_site_label
 _atom_site_symmetry_multiplicity
 _atom_site_fract_x
 _atom_site_fract_y
 _atom_site_fract_z
 _atom_site_occupancy
  K  K0  1  0.57259400  0.07259400  0.42740600  1
  K  K1  1  0.07259400  0.42740600  0.57259400  1
  K  K2  1  0.42740600  0.57259400  0.07259400  1
  K  K3  1  0.92740600  0.92740600  0.92740600  1
  K  K4  1  0.79935600  0.29935600  0.20064400  1
  K  K5  1  0.29935600  0.20064400  0.79935600  1
  K  K6  1  0.20064400  0.79935600  0.29935600  1
  K  K7  1  0.70064400  0.70064400  0.70064400  1
  Y  Y0  1  0.08381700  0.58381700  0.91618300  1
  Y  Y1  1  0.58381700  0.91618300  0.08381700  1
  Y  Y2  1  0.91618300  0.08381700  0.58381700  1
  Y  Y3  1  0.41618300  0.41618300  0.41618300  1
  Hf  Hf0  1  0.35521700  0.85521700  0.64478300  1
  Hf  Hf1  1  0.85521700  0.64478300  0.35521700  1
  Hf  Hf2  1  0.64478300  0.35521700  0.85521700  1
  Hf  Hf3  1  0.14478300  0.14478300  0.14478300  1
  P  P0  1  0.37971900  0.54285000  0.73629200  1
  P  P1  1  0.26370800  0.87971900  0.95715000  1
  P  P2  1  0.04285000  0.76370800  0.62028100  1
  P  P3  1  0.87971900  0.95715000  0.26370800  1
  P  P4  1  0.76370800  0.62028100  0.04285000  1
  P  P5  1  0.54285000  0.73629200  0.37971900  1
  P  P6  1  0.62028100  0.04285000  0.76370800  1
  P  P7  1  0.73629200  0.37971900  0.54285000  1
  P  P8  1  0.95715000  0.26370800  0.87971900  1
  P  P9  1  0.12028100  0.45715000  0.23629200  1
  P  P10  1  0.23629200  0.12028100  0.45715000  1
  P  P11  1  0.45715000  0.23629200  0.12028100  1
  O  O0  1  0.26449800  0.51854800  0.82314700  1
  O  O1  1  0.17685300  0.76449800  0.98145200  1
  O  O2  1  0.01854800  0.67685300  0.73550200  1
  O  O3  1  0.76449800  0.98145200  0.17685300  1
  O  O4  1  0.67685300  0.73550200  0.01854800  1
  O  O5  1  0.51854800  0.82314700  0.26449800  1
  O  O6  1  0.73550200  0.01854800  0.67685300  1
  O  O7  1  0.82314700  0.26449800  0.51854800  1
  O  O8  1  0.98145200  0.17685300  0.76449800  1
  O  O9  1  0.23550200  0.48145200  0.32314700  1
  O  O10  1  0.32314700  0.23550200  0.48145200  1
  O  O11  1  0.48145200  0.32314700  0.23550200  1
  O  O12  1  0.34971100  0.49577700  0.60124800  1
  O  O13  1  0.39875200  0.84971100  0.00422300  1
  O  O14  1  0.99577700  0.89875200  0.65028900  1
  O  O15  1  0.84971100  0.00422300  0.39875200  1
  O  O16  1  0.89875200  0.65028900  0.99577700  1
  O  O17  1  0.49577700  0.60124800  0.34971100  1
  O  O18  1  0.65028900  0.99577700  0.89875200  1
  O  O19  1  0.60124800  0.34971100  0.49577700  1
  O  O20  1  0.00422300  0.39875200  0.84971100  1
  O  O21  1  0.15028900  0.50422300  0.10124800  1
  O  O22  1  0.10124800  0.15028900  0.50422300  1
  O  O23  1  0.50422300  0.10124800  0.15028900  1
  O  O24  1  0.41633000  0.68751100  0.73484900  1
  O  O25  1  0.26515100  0.91633000  0.81248900  1
  O  O26  1  0.18751100  0.76515100  0.58367000  1
  O  O27  1  0.91633000  0.81248900  0.26515100  1
  O  O28  1  0.76515100  0.58367000  0.18751100  1
  O  O29  1  0.68751100  0.73484900  0.41633000  1
  O  O30  1  0.58367000  0.18751100  0.76515100  1
  O  O31  1  0.73484900  0.41633000  0.68751100  1
  O  O32  1  0.81248900  0.26515100  0.91633000  1
  O  O33  1  0.08367000  0.31248900  0.23484900  1
  O  O34  1  0.23484900  0.08367000  0.31248900  1
  O  O35  1  0.31248900  0.23484900  0.08367000  1
  O  O36  1  0.49506100  0.46859700  0.79443800  1
  O  O37  1  0.20556200  0.99506100  0.03140300  1
  O  O38  1  0.96859700  0.70556200  0.50493900  1
  O  O39  1  0.99506100  0.03140300  0.20556200  1
  O  O40  1  0.70556200  0.50493900  0.96859700  1
  O  O41  1  0.46859700  0.79443800  0.49506100  1
  O  O42  1  0.50493900  0.96859700  0.70556200  1
  O  O43  1  0.79443800  0.49506100  0.46859700  1
  O  O44  1  0.03140300  0.20556200  0.99506100  1
  O  O45  1  0.00493900  0.53140300  0.29443800  1
  O  O46  1  0.29443800  0.00493900  0.53140300  1
  O  O47  1  0.53140300  0.29443800  0.00493900  1
loop_
_geom_bond_atom_site_label_1
_geom_bond_atom_site_label_2
_geom_bond_distance
_geom_bond_site_symmetry_2
K0 O23 3.008476 1_555
K0 O15 3.008476 1_555
K0 O19 3.008476 1_555
K0 O5 3.175562 1_545
K0 O6 3.175562 1_555
K0 O10 3.175562 1_555
K0 O41 3.194203 1_545
K0 O46 3.194203 1_555
K0 O42 3.194203 1_545
K0 O11 3.445140 1_555
K0 O3 3.445140 1_545
K0 O7 3.445140 1_555
K1 O22 3.008476 1_555
K1 O20 3.008476 1_555
K1 O12 3.008476 1_555
K1 O7 3.175562 1_455
K1 O2 3.175562 1_555
K1 O9 3.175562 1_555
K1 O43 3.194203 1_455
K1 O45 3.194203 1_555
K1 O38 3.194203 1_455
K1 O10 3.445140 1_555
K1 O8 3.445140 1_455
K1 O0 3.445140 1_555
K2 O21 3.008476 1_555
K2 O13 3.008476 1_555
K2 O17 3.008476 1_555
K2 O0 3.175562 1_554
K2 O4 3.175562 1_555
K2 O11 3.175562 1_555
K2 O36 3.194203 1_554
K2 O47 3.194203 1_555
K2 O40 3.194203 1_554
K2 O9 3.445140 1_555
K2 O1 3.445140 1_554
K2 O5 3.445140 1_555
K3 O16 3.008476 1_555
K3 O18 3.008476 1_555
K3 O14 3.008476 1_555
K3 O1 3.175562 1_655
K3 O8 3.175562 1_565
K3 O3 3.175562 1_556
K3 O37 3.194203 1_656
K3 O44 3.194203 1_665
K3 O39 3.194203 1_566
K3 O2 3.445140 1_655
K3 O6 3.445140 1_565
K3 O4 3.445140 1_556
K4 O33 3.006417 1_655
K4 O32 3.006417 1_554
K4 O28 3.006417 1_555
K4 O11 3.363287 1_555
K4 O7 3.363287 1_555
K4 O3 3.363287 1_545
K4 O45 3.396860 1_655
K4 O44 3.396860 1_654
K4 O40 3.396860 1_554
K4 O39 3.480281 1_555
K4 O43 3.480281 1_555
K4 O47 3.480281 1_555
K5 O35 3.006417 1_556
K5 O25 3.006417 1_545
K5 O30 3.006417 1_555
K5 O10 3.363287 1_555
K5 O0 3.363287 1_555
K5 O8 3.363287 1_455
K5 O47 3.396860 1_556
K5 O37 3.396860 1_546
K5 O42 3.396860 1_545
K5 O36 3.480281 1_555
K5 O44 3.480281 1_555
K5 O46 3.480281 1_555
K6 O34 3.006417 1_565
K6 O27 3.006417 1_455
K6 O26 3.006417 1_555
K6 O9 3.363287 1_555
K6 O5 3.363287 1_555
K6 O1 3.363287 1_554
K6 O46 3.396860 1_565
K6 O39 3.396860 1_465
K6 O38 3.396860 1_455
K6 O45 3.480281 1_555
K6 O41 3.480281 1_555
K6 O37 3.480281 1_555
K7 O31 3.006417 1_555
K7 O24 3.006417 1_555
K7 O29 3.006417 1_555
K7 O2 3.363287 1_655
K7 O4 3.363287 1_556
K7 O6 3.363287 1_565
K7 O36 3.396860 1_555
K7 O43 3.396860 1_555
K7 O41 3.396860 1_555
K7 O38 3.480281 1_555
K7 O40 3.480281 1_555
K7 O42 3.480281 1_555
Hf0 O42 2.070218 1_555
Hf0 O46 2.070218 1_565
Hf0 O41 2.070218 1_555
Hf0 O24 2.096777 1_555
Hf0 O25 2.096777 1_555
Hf0 O26 2.096777 1_555
Hf1 O38 2.070218 1_555
Hf1 O45 2.070218 1_655
Hf1 O43 2.070218 1_555
Hf1 O29 2.096777 1_555
Hf1 O27 2.096777 1_555
Hf1 O28 2.096777 1_555
Hf2 O40 2.070218 1_555
Hf2 O47 2.070218 1_556
Hf2 O36 2.070218 1_555
Hf2 O31 2.096777 1_555
Hf2 O32 2.096777 1_555
Hf2 O30 2.096777 1_555
Hf3 O44 2.070218 1_554
Hf3 O37 2.070218 1_545
Hf3 O39 2.070218 1_455
Hf3 O34 2.096777 1_555
Hf3 O33 2.096777 1_555
Hf3 O35 2.096777 1_555
O0 P0 1.534565 1_555
O0 Y0 2.238581 1_555
O1 P1 1.534565 1_555
O1 Y0 2.238581 1_555
O2 P2 1.534565 1_555
O2 Y0 2.238581 1_555
O3 P3 1.534565 1_555
O3 Y1 2.238581 1_555
O4 P4 1.534565 1_555
O4 Y1 2.238581 1_555
O5 P5 1.534565 1_555
O5 Y1 2.238581 1_555
O6 P6 1.534565 1_555
O6 Y2 2.238581 1_555
O7 P7 1.534565 1_555
O7 Y2 2.238581 1_555
O8 P8 1.534565 1_555
O8 Y2 2.238581 1_555
O9 P9 1.534565 1_555
O9 Y3 2.238581 1_555
O10 P10 1.534565 1_555
O10 Y3 2.238581 1_555
O11 P11 1.534565 1_555
O11 Y3 2.238581 1_555
O12 P0 1.532520 1_555
O12 Y3 2.224816 1_555
O13 P1 1.532520 1_554
O13 Y1 2.224816 1_555
O14 P2 1.532520 1_655
O14 Y2 2.224816 1_565
O15 P3 1.532520 1_545
O15 Y2 2.224816 1_555
O16 P4 1.532520 1_556
O16 Y0 2.224816 1_655
O17 P5 1.532520 1_555
O17 Y3 2.224816 1_555
O18 P6 1.532520 1_565
O18 Y1 2.224816 1_556
O19 P7 1.532520 1_555
O19 Y3 2.224816 1_555
O20 P8 1.532520 1_455
O20 Y0 2.224816 1_555
O21 P9 1.532520 1_555
O21 Y0 2.224816 1_554
O22 P10 1.532520 1_555
O22 Y2 2.224816 1_455
O23 P11 1.532520 1_555
O23 Y1 2.224816 1_545
O24 P0 1.565046 1_555
O25 P1 1.565046 1_555
O26 P2 1.565046 1_555
O27 P3 1.565046 1_555
O28 P4 1.565046 1_555
O29 P5 1.565046 1_555
O30 P6 1.565046 1_555
O31 P7 1.565046 1_555
O32 P8 1.565046 1_555
O33 P9 1.565046 1_555
O34 P10 1.565046 1_555
O35 P11 1.565046 1_555
O36 P0 1.562549 1_555
O37 P1 1.562549 1_554
O38 P2 1.562549 1_655
O39 P3 1.562549 1_545
O40 P4 1.562549 1_556
O41 P5 1.562549 1_555
O42 P6 1.562549 1_565
O43 P7 1.562549 1_555
O44 P8 1.562549 1_455
O45 P9 1.562549 1_555
O46 P10 1.562549 1_555
O47 P11 1.562549 1_555
