# generated using pymatgen
data_Sm4Tm4MgO12
_symmetry_space_group_name_H-M   'P 1'
_cell_length_a   6.08849295
_cell_length_b   9.01986316
_cell_length_c   5.84285435
_cell_angle_alpha   82.16074977
_cell_angle_beta   85.59766992
_cell_angle_gamma   84.47650564
_symmetry_Int_Tables_number   1
_chemical_formula_structural   Sm4Tm4MgO12
_chemical_formula_sum   'Sm4 Tm4 Mg1 O12'
_cell_volume   315.74010113
_cell_formula_units_Z   1
loop_
 _symmetry_equiv_pos_site_id
 _symmetry_equiv_pos_as_xyz
  1  'x, y, z'
loop_
 _atom_site_type_symbol
 _atom_site_label
 _atom_site_symmetry_multiplicity
 _atom_site_fract_x
 _atom_site_fract_y
 _atom_site_fract_z
 _atom_site_occupancy
  Sm  Sm0  1  0.00295600  0.18994300  0.98135300  1
  Sm  Sm1  1  0.43287700  0.73504000  0.47423700  1
  Sm  Sm2  1  0.61996400  0.30006600  0.55341200  1
  Sm  Sm3  1  0.93450200  0.72924200  0.01717800  1
  Tm  Tm0  1  0.89657700  0.94951700  0.47564000  1
  Tm  Tm1  1  0.05587400  0.50059800  0.51323400  1
  Tm  Tm2  1  0.47340700  0.96439500  0.92403300  1
  Tm  Tm3  1  0.51247800  0.49952900  0.01375200  1
  Mg  Mg0  1  0.28431600  0.11660400  0.42873600  1
  O  O0  1  0.03719000  0.72725600  0.61595400  1
  O  O1  1  0.23255200  0.60926500  0.20182600  1
  O  O2  1  0.17595800  0.95362300  0.17406300  1
  O  O3  1  0.37236800  0.49431100  0.67752100  1
  O  O4  1  0.31409600  0.18220200  0.75231000  1
  O  O5  1  0.43993700  0.28503800  0.23195300  1
  O  O6  1  0.58787900  0.73763800  0.83461200  1
  O  O7  1  0.69289800  0.87788800  0.22968800  1
  O  O8  1  0.75123600  0.54387600  0.28637400  1
  O  O9  1  0.78346100  0.05907300  0.78977200  1
  O  O10  1  0.83250200  0.40775900  0.80458700  1
  O  O11  1  0.96280800  0.19963700  0.37393200  1
loop_
_geom_bond_atom_site_label_1
_geom_bond_atom_site_label_2
_geom_bond_distance
_geom_bond_site_symmetry_2
Mg0 O5 2.039907 1_555
Mg0 O11 2.060058 1_455
Mg0 O4 2.082246 1_555
Mg0 O2 2.396806 1_545
O0 Tm0 2.180172 1_455
O0 Tm1 2.198247 1_555
O0 Sm3 2.381431 1_456
O0 Sm1 2.490977 1_555
O0 O3 2.791023 1_555
O0 O6 2.927699 1_455
O1 Tm3 2.185506 1_555
O1 Tm1 2.201017 1_555
O1 Sm3 2.287387 1_455
O1 Sm1 2.522893 1_555
O1 O5 3.059532 1_555
O1 O2 3.075348 1_555
O2 Tm2 2.238840 1_554
O2 Tm0 2.352420 1_455
O2 Sm0 2.452763 1_564
O2 Sm1 2.879983 1_555
O2 Sm3 2.895394 1_455
O3 Tm3 2.208983 1_556
O3 Tm1 2.210415 1_555
O3 Sm2 2.353379 1_555
O3 Sm1 2.375818 1_555
O3 O4 2.841648 1_555
O4 Sm0 2.235019 1_555
O4 Tm2 2.247668 1_545
O4 Sm2 2.379221 1_555
O5 Tm3 2.229051 1_555
O5 Sm2 2.271933 1_555
O6 Tm2 2.214326 1_555
O6 Tm3 2.328473 1_556
O6 Sm1 2.376464 1_555
O6 Sm3 2.426980 1_556
O7 Tm0 2.168297 1_555
O7 Sm3 2.301585 1_555
O7 Tm2 2.317256 1_554
O7 Sm1 2.398190 1_555
O7 O9 2.896831 1_564
O7 O8 2.975287 1_555
O8 Tm1 2.333772 1_655
O8 Tm3 2.334889 1_555
O8 Sm3 2.426274 1_555
O8 Sm2 2.668394 1_555
O8 Sm1 2.735204 1_555
O9 Tm2 2.192846 1_545
O9 Tm0 2.233675 1_545
O9 Sm0 2.307848 1_655
O9 Sm2 2.568813 1_555
O9 Sm3 3.169311 1_546
O10 Tm1 2.218944 1_655
O10 Sm0 2.285213 1_655
O10 Tm3 2.361179 1_556
O10 Sm2 2.386273 1_555
O10 O8 3.207572 1_556
O11 Sm0 2.300729 1_654
O11 Tm0 2.319080 1_545
O11 Sm2 2.415909 1_555
O11 O9 2.778874 1_555
O11 Tm1 3.053257 1_655
O11 O8 3.234176 1_555
