# generated using pymatgen
data_SbAsO5
_symmetry_space_group_name_H-M   'P 1'
_cell_length_a   4.92582480
_cell_length_b   8.81480547
_cell_length_c   9.19652929
_cell_angle_alpha   90.00000000
_cell_angle_beta   90.00000000
_cell_angle_gamma   90.00000000
_symmetry_Int_Tables_number   1
_chemical_formula_structural   SbAsO5
_chemical_formula_sum   'Sb4 As4 O20'
_cell_volume   399.31502512
_cell_formula_units_Z   4
loop_
 _symmetry_equiv_pos_site_id
 _symmetry_equiv_pos_as_xyz
  1  'x, y, z'
loop_
 _atom_site_type_symbol
 _atom_site_label
 _atom_site_symmetry_multiplicity
 _atom_site_fract_x
 _atom_site_fract_y
 _atom_site_fract_z
 _atom_site_occupancy
  Sb  Sb0  1  0.88233654  0.65251057  0.10329656  1
  Sb  Sb1  1  0.38233654  0.84748943  0.89670344  1
  Sb  Sb2  1  0.11766346  0.15251057  0.39670344  1
  Sb  Sb3  1  0.61766346  0.34748943  0.60329656  1
  As  As0  1  0.89167773  0.02872036  0.71132957  1
  As  As1  1  0.39167773  0.47127964  0.28867043  1
  As  As2  1  0.10832227  0.52872036  0.78867043  1
  As  As3  1  0.60832227  0.97127964  0.21132957  1
  O  O0  1  0.05164575  0.50123833  0.96953349  1
  O  O1  1  0.55164575  -0.00123833  0.03046651  1
  O  O2  1  0.94835425  0.00123833  0.53046651  1
  O  O3  1  0.44835425  0.49876167  0.46953349  1
  O  O4  1  0.22135507  0.70641924  0.74894465  1
  O  O5  1  0.72135507  0.79358076  0.25105535  1
  O  O6  1  0.77864493  0.20641924  0.75105535  1
  O  O7  1  0.27864493  0.29358076  0.24894465  1
  O  O8  1  0.91981903  0.32456953  0.47082938  1
  O  O9  1  0.41981903  0.17543047  0.52917062  1
  O  O10  1  0.08018097  0.82456953  0.02917062  1
  O  O11  1  0.58018097  0.67543047  0.97082938  1
  O  O12  1  0.17442656  0.61282302  0.24764661  1
  O  O13  1  0.67442656  0.88717698  0.75235339  1
  O  O14  1  0.82557344  0.11282302  0.25235339  1
  O  O15  1  0.32557344  0.38717698  0.74764661  1
  O  O16  1  0.68586293  0.48070446  0.19364423  1
  O  O17  1  0.18586293  0.01929554  0.80635577  1
  O  O18  1  0.31413707  0.98070446  0.30635577  1
  O  O19  1  0.81413707  0.51929554  0.69364423  1
loop_
_geom_bond_atom_site_label_1
_geom_bond_atom_site_label_2
_geom_bond_distance
_geom_bond_site_symmetry_2
As0 O13 1.686487 1_545
As0 O17 1.694263 1_655
As0 O6 1.702065 1_555
As0 O2 1.703888 1_555
As1 O12 1.686487 1_555
As1 O16 1.694263 1_555
As1 O7 1.702065 1_555
As1 O3 1.703888 1_555
As2 O15 1.686487 1_555
As2 O19 1.694263 1_455
As2 O4 1.702065 1_555
As2 O0 1.703888 1_555
As3 O14 1.686487 1_565
As3 O18 1.694263 1_555
As3 O5 1.702065 1_555
As3 O1 1.703888 1_565
O0 Sb0 1.996715 1_456
O1 Sb1 1.996715 1_544
O2 Sb2 1.996715 1_655
O3 Sb3 1.996715 1_555
O4 Sb1 2.005399 1_555
O5 Sb0 2.005399 1_555
O6 Sb3 2.005399 1_555
O7 Sb2 2.005399 1_555
O8 Sb2 1.927365 1_655
O8 Sb3 1.933948 1_555
O9 Sb3 1.927365 1_555
O9 Sb2 1.933948 1_555
O10 Sb0 1.927365 1_455
O10 Sb1 1.933948 1_554
O11 Sb1 1.927365 1_555
O11 Sb0 1.933948 1_556
O12 Sb0 1.988667 1_455
O13 Sb1 1.988667 1_555
O14 Sb2 1.988667 1_655
O15 Sb3 1.988667 1_555
O16 Sb0 1.980030 1_555
O17 Sb1 1.980030 1_545
O18 Sb2 1.980030 1_565
O19 Sb3 1.980030 1_555
