# generated using pymatgen
data_Cd(N2Cl3)2
_symmetry_space_group_name_H-M   'P 1'
_cell_length_a   10.70597284
_cell_length_b   10.70597284
_cell_length_c   10.70597247
_cell_angle_alpha   114.10366955
_cell_angle_beta   114.10366955
_cell_angle_gamma   114.10367386
_symmetry_Int_Tables_number   1
_chemical_formula_structural   Cd(N2Cl3)2
_chemical_formula_sum   'Cd2 N8 Cl12'
_cell_volume   739.75846467
_cell_formula_units_Z   2
loop_
 _symmetry_equiv_pos_site_id
 _symmetry_equiv_pos_as_xyz
  1  'x, y, z'
loop_
 _atom_site_type_symbol
 _atom_site_label
 _atom_site_symmetry_multiplicity
 _atom_site_fract_x
 _atom_site_fract_y
 _atom_site_fract_z
 _atom_site_occupancy
  Cd  Cd0  1  0.50000000  0.50000000  0.50000000  1
  Cd  Cd1  1  0.00000000  0.00000000  0.00000000  1
  N  N0  1  0.25000000  0.25000000  0.25000000  1
  N  N1  1  0.75000000  0.75000000  0.75000000  1
  N  N2  1  0.64752000  0.85248000  0.25000000  1
  N  N3  1  0.25000000  0.64752000  0.85248000  1
  N  N4  1  0.85248000  0.25000000  0.64752000  1
  N  N5  1  0.75000000  0.35248000  0.14752000  1
  N  N6  1  0.14752000  0.75000000  0.35248000  1
  N  N7  1  0.35248000  0.14752000  0.75000000  1
  Cl  Cl0  1  0.43338800  0.33526900  0.76973000  1
  Cl  Cl1  1  0.76973000  0.43338800  0.33526900  1
  Cl  Cl2  1  0.33526900  0.76973000  0.43338800  1
  Cl  Cl3  1  0.26973000  0.83526900  0.93338800  1
  Cl  Cl4  1  0.93338800  0.26973000  0.83526900  1
  Cl  Cl5  1  0.83526900  0.93338800  0.26973000  1
  Cl  Cl6  1  0.56661200  0.66473100  0.23027000  1
  Cl  Cl7  1  0.23027000  0.56661200  0.66473100  1
  Cl  Cl8  1  0.66473100  0.23027000  0.56661200  1
  Cl  Cl9  1  0.73027000  0.16473100  0.06661200  1
  Cl  Cl10  1  0.06661200  0.73027000  0.16473100  1
  Cl  Cl11  1  0.16473100  0.06661200  0.73027000  1
loop_
_geom_bond_atom_site_label_1
_geom_bond_atom_site_label_2
_geom_bond_distance
_geom_bond_site_symmetry_2
Cd0 N0 1.984338 1_555
Cd0 N1 1.984338 1_555
Cd1 N0 1.984338 1_555
Cd1 N1 1.984338 1_444
Cl0 N7 1.707878 1_555
Cl1 N5 1.707878 1_555
Cl2 N6 1.707879 1_555
Cl3 N3 1.707879 1_555
Cl4 N4 1.707878 1_555
Cl5 N2 1.707878 1_555
Cl6 N2 1.707878 1_555
Cl7 N3 1.707878 1_555
Cl8 N4 1.707879 1_555
Cl9 N5 1.707879 1_555
Cl10 N6 1.707878 1_555
Cl11 N7 1.707878 1_555
