# generated using pymatgen
data_Tl3Bi
_symmetry_space_group_name_H-M   'P 1'
_cell_length_a   7.01446176
_cell_length_b   7.01446176
_cell_length_c   23.28514126
_cell_angle_alpha   90.00000000
_cell_angle_beta   90.00000000
_cell_angle_gamma   120.00000075
_symmetry_Int_Tables_number   1
_chemical_formula_structural   Tl3Bi
_chemical_formula_sum   'Tl24 Bi8'
_cell_volume   992.19768450
_cell_formula_units_Z   8
loop_
 _symmetry_equiv_pos_site_id
 _symmetry_equiv_pos_as_xyz
  1  'x, y, z'
loop_
 _atom_site_type_symbol
 _atom_site_label
 _atom_site_symmetry_multiplicity
 _atom_site_fract_x
 _atom_site_fract_y
 _atom_site_fract_z
 _atom_site_occupancy
  Tl  Tl0_0  1  0.33333350  0.16666650  0.25000000  1
  Tl  Tl0_1  1  0.33333350  0.16666650  0.75000000  1
  Tl  Tl0_2  1  0.33333350  0.66666650  0.25000000  1
  Tl  Tl0_3  1  0.33333350  0.66666650  0.75000000  1
  Tl  Tl0_4  1  0.83333350  0.16666650  0.25000000  1
  Tl  Tl0_5  1  0.83333350  0.16666650  0.75000000  1
  Tl  Tl0_6  1  0.83333350  0.66666650  0.25000000  1
  Tl  Tl0_7  1  0.83333350  0.66666650  0.75000000  1
  Tl  Tl1_0  1  0.16666650  0.33333350  0.12319289  1
  Tl  Tl1_1  1  0.16666650  0.33333350  0.62319289  1
  Tl  Tl1_2  1  0.16666650  0.83333350  0.12319289  1
  Tl  Tl1_3  1  0.16666650  0.83333350  0.62319289  1
  Tl  Tl1_4  1  0.66666650  0.33333350  0.12319289  1
  Tl  Tl1_5  1  0.66666650  0.33333350  0.62319289  1
  Tl  Tl1_6  1  0.66666650  0.83333350  0.12319289  1
  Tl  Tl1_7  1  0.66666650  0.83333350  0.62319289  1
  Tl  Tl2_0  1  0.16666650  0.33333350  0.37680711  1
  Tl  Tl2_1  1  0.16666650  0.33333350  0.87680711  1
  Tl  Tl2_2  1  0.16666650  0.83333350  0.37680711  1
  Tl  Tl2_3  1  0.16666650  0.83333350  0.87680711  1
  Tl  Tl2_4  1  0.66666650  0.33333350  0.37680711  1
  Tl  Tl2_5  1  0.66666650  0.33333350  0.87680711  1
  Tl  Tl2_6  1  0.66666650  0.83333350  0.37680711  1
  Tl  Tl2_7  1  0.66666650  0.83333350  0.87680711  1
  Bi  Bi0_0  1  0.33333350  0.16666650  0.00000000  1
  Bi  Bi0_1  1  0.33333350  0.16666650  0.50000000  1
  Bi  Bi0_2  1  0.33333350  0.66666650  0.00000000  1
  Bi  Bi0_3  1  0.33333350  0.66666650  0.50000000  1
  Bi  Bi0_4  1  0.83333350  0.16666650  0.00000000  1
  Bi  Bi0_5  1  0.83333350  0.16666650  0.50000000  1
  Bi  Bi0_6  1  0.83333350  0.66666650  0.00000000  1
  Bi  Bi0_7  1  0.83333350  0.66666650  0.50000000  1
loop_
_geom_bond_atom_site_label_1
_geom_bond_atom_site_label_2
_geom_bond_distance
_geom_bond_site_symmetry_2
Tl0_0 Tl0_6 3.507231 1_445
Tl0_0 Tl0_6 3.507231 1_555
Tl0_0 Tl0_4 3.507231 1_455
Tl0_0 Tl0_2 3.507231 1_555
Tl0_0 Tl0_4 3.507231 1_555
Tl0_0 Tl0_2 3.507231 1_545
Tl0_0 Tl2_4 3.580332 1_555
Tl0_0 Tl1_4 3.580332 1_555
Tl0_0 Tl2_2 3.580332 1_545
Tl0_0 Tl1_2 3.580332 1_545
Tl0_0 Tl2_0 3.580336 1_555
Tl0_0 Tl1_0 3.580336 1_555
Tl0_1 Tl0_7 3.507231 1_445
Tl0_1 Tl0_7 3.507231 1_555
Tl0_1 Tl0_3 3.507231 1_555
Tl0_1 Tl0_5 3.507231 1_455
Tl0_1 Tl0_5 3.507231 1_555
Tl0_1 Tl0_3 3.507231 1_545
Tl0_1 Tl1_5 3.580332 1_555
Tl0_1 Tl2_5 3.580332 1_555
Tl0_1 Tl2_3 3.580332 1_545
Tl0_1 Tl1_3 3.580332 1_545
Tl0_1 Tl2_1 3.580336 1_555
Tl0_1 Tl1_1 3.580336 1_555
Tl0_2 Tl0_4 3.507231 1_565
Tl0_2 Tl0_4 3.507231 1_455
Tl0_2 Tl0_6 3.507231 1_455
Tl0_2 Tl0_6 3.507231 1_555
Tl0_2 Tl2_0 3.580332 1_555
Tl0_2 Tl1_0 3.580332 1_555
Tl0_2 Tl1_6 3.580332 1_555
Tl0_2 Tl2_6 3.580332 1_555
Tl0_2 Tl2_2 3.580336 1_555
Tl0_2 Tl1_2 3.580336 1_555
Tl0_3 Tl0_5 3.507231 1_565
Tl0_3 Tl0_5 3.507231 1_455
Tl0_3 Tl0_7 3.507231 1_455
Tl0_3 Tl0_7 3.507231 1_555
Tl0_3 Tl2_1 3.580332 1_555
Tl0_3 Tl1_1 3.580332 1_555
Tl0_3 Tl2_7 3.580332 1_555
Tl0_3 Tl1_7 3.580332 1_555
Tl0_3 Tl1_3 3.580336 1_555
Tl0_3 Tl2_3 3.580336 1_555
Tl0_4 Tl0_6 3.507231 1_555
Tl0_4 Tl0_6 3.507231 1_545
Tl0_4 Tl2_0 3.580332 1_655
Tl0_4 Tl1_0 3.580332 1_655
Tl0_4 Tl2_6 3.580332 1_545
Tl0_4 Tl1_6 3.580332 1_545
Tl0_4 Tl2_4 3.580336 1_555
Tl0_4 Tl1_4 3.580336 1_555
Tl0_5 Tl0_7 3.507231 1_555
Tl0_5 Tl0_7 3.507231 1_545
Tl0_5 Tl2_1 3.580332 1_655
Tl0_5 Tl1_1 3.580332 1_655
Tl0_5 Tl2_7 3.580332 1_545
Tl0_5 Tl1_7 3.580332 1_545
Tl0_5 Tl2_5 3.580336 1_555
Tl0_5 Tl1_5 3.580336 1_555
Tl0_6 Tl2_2 3.580332 1_655
Tl0_6 Tl2_4 3.580332 1_555
Tl0_6 Tl1_2 3.580332 1_655
Tl0_6 Tl1_4 3.580332 1_555
Tl0_6 Tl2_6 3.580336 1_555
Tl0_6 Tl1_6 3.580336 1_555
Tl0_7 Tl1_5 3.580332 1_555
Tl0_7 Tl2_3 3.580332 1_655
Tl0_7 Tl2_5 3.580332 1_555
Tl0_7 Tl1_3 3.580332 1_655
Tl0_7 Tl2_7 3.580336 1_555
Tl0_7 Tl1_7 3.580336 1_555
Tl1_0 Tl1_6 3.507231 1_445
Tl1_0 Tl1_6 3.507231 1_555
Tl1_0 Tl1_4 3.507231 1_555
Tl1_0 Tl1_2 3.507231 1_545
Tl1_0 Tl1_2 3.507231 1_555
Tl1_0 Tl1_4 3.507231 1_455
Tl1_1 Tl1_7 3.507231 1_445
Tl1_1 Tl1_7 3.507231 1_555
Tl1_1 Tl1_5 3.507231 1_555
Tl1_1 Tl1_3 3.507231 1_555
Tl1_1 Tl1_3 3.507231 1_545
Tl1_1 Tl1_5 3.507231 1_455
Tl1_2 Tl1_4 3.507231 1_455
Tl1_2 Tl1_4 3.507231 1_565
Tl1_2 Tl1_6 3.507231 1_455
Tl1_2 Tl1_6 3.507231 1_555
Tl1_3 Tl1_5 3.507231 1_565
Tl1_3 Tl1_5 3.507231 1_455
Tl1_3 Tl1_7 3.507231 1_455
Tl1_3 Tl1_7 3.507231 1_555
Tl1_4 Tl1_6 3.507231 1_555
Tl1_4 Tl1_6 3.507231 1_545
Tl1_5 Tl1_7 3.507231 1_555
Tl1_5 Tl1_7 3.507231 1_545
Tl2_0 Tl2_6 3.507231 1_445
Tl2_0 Tl2_6 3.507231 1_555
Tl2_0 Tl2_4 3.507231 1_555
Tl2_0 Tl2_2 3.507231 1_555
Tl2_0 Tl2_4 3.507231 1_455
Tl2_0 Tl2_2 3.507231 1_545
Tl2_1 Tl2_7 3.507231 1_445
Tl2_1 Tl2_7 3.507231 1_555
Tl2_1 Tl2_5 3.507231 1_555
Tl2_1 Tl2_3 3.507231 1_545
Tl2_1 Tl2_5 3.507231 1_455
Tl2_1 Tl2_3 3.507231 1_555
Tl2_2 Tl2_4 3.507231 1_565
Tl2_2 Tl2_4 3.507231 1_455
Tl2_2 Tl2_6 3.507231 1_455
Tl2_2 Tl2_6 3.507231 1_555
Tl2_3 Tl2_5 3.507231 1_455
Tl2_3 Tl2_5 3.507231 1_565
Tl2_3 Tl2_7 3.507231 1_455
Tl2_3 Tl2_7 3.507231 1_555
Tl2_4 Tl2_6 3.507231 1_555
Tl2_4 Tl2_6 3.507231 1_545
Tl2_5 Tl2_7 3.507231 1_555
Tl2_5 Tl2_7 3.507231 1_545
Bi0_0 Bi0_6 3.507231 1_445
Bi0_0 Bi0_6 3.507231 1_555
Bi0_0 Bi0_4 3.507231 1_455
Bi0_0 Bi0_2 3.507231 1_555
Bi0_0 Bi0_2 3.507231 1_545
Bi0_0 Bi0_4 3.507231 1_555
Bi0_0 Tl1_4 3.511249 1_555
Bi0_0 Tl2_5 3.511249 1_554
Bi0_0 Tl1_2 3.511249 1_545
Bi0_0 Tl2_3 3.511249 1_544
Bi0_0 Tl1_0 3.511253 1_555
Bi0_0 Tl2_1 3.511253 1_554
Bi0_1 Bi0_7 3.507231 1_445
Bi0_1 Bi0_7 3.507231 1_555
Bi0_1 Bi0_5 3.507231 1_455
Bi0_1 Bi0_3 3.507231 1_555
Bi0_1 Bi0_5 3.507231 1_555
Bi0_1 Bi0_3 3.507231 1_545
Bi0_1 Tl2_4 3.511249 1_555
Bi0_1 Tl1_5 3.511249 1_555
Bi0_1 Tl2_2 3.511249 1_545
Bi0_1 Tl1_3 3.511249 1_545
Bi0_1 Tl2_0 3.511253 1_555
Bi0_1 Tl1_1 3.511253 1_555
Bi0_2 Bi0_4 3.507231 1_565
Bi0_2 Bi0_4 3.507231 1_455
Bi0_2 Bi0_6 3.507231 1_455
Bi0_2 Bi0_6 3.507231 1_555
Bi0_2 Tl1_6 3.511249 1_555
Bi0_2 Tl1_0 3.511249 1_555
Bi0_2 Tl2_1 3.511249 1_554
Bi0_2 Tl2_7 3.511249 1_554
Bi0_2 Tl1_2 3.511253 1_555
Bi0_2 Tl2_3 3.511253 1_554
Bi0_3 Bi0_5 3.507231 1_565
Bi0_3 Bi0_5 3.507231 1_455
Bi0_3 Bi0_7 3.507231 1_455
Bi0_3 Bi0_7 3.507231 1_555
Bi0_3 Tl1_1 3.511249 1_555
Bi0_3 Tl2_0 3.511249 1_555
Bi0_3 Tl1_7 3.511249 1_555
Bi0_3 Tl2_6 3.511249 1_555
Bi0_3 Tl2_2 3.511253 1_555
Bi0_3 Tl1_3 3.511253 1_555
Bi0_4 Bi0_6 3.507231 1_555
Bi0_4 Bi0_6 3.507231 1_545
Bi0_4 Tl1_0 3.511249 1_655
Bi0_4 Tl1_6 3.511249 1_545
Bi0_4 Tl2_1 3.511249 1_654
Bi0_4 Tl2_7 3.511249 1_544
Bi0_4 Tl1_4 3.511253 1_555
Bi0_4 Tl2_5 3.511253 1_554
Bi0_5 Bi0_7 3.507231 1_555
Bi0_5 Bi0_7 3.507231 1_545
Bi0_5 Tl1_7 3.511249 1_545
Bi0_5 Tl2_6 3.511249 1_545
Bi0_5 Tl1_1 3.511249 1_655
Bi0_5 Tl2_0 3.511249 1_655
Bi0_5 Tl2_4 3.511253 1_555
Bi0_5 Tl1_5 3.511253 1_555
Bi0_6 Tl1_2 3.511249 1_655
Bi0_6 Tl1_4 3.511249 1_555
Bi0_6 Tl2_5 3.511249 1_554
Bi0_6 Tl2_3 3.511249 1_654
Bi0_6 Tl1_6 3.511253 1_555
Bi0_6 Tl2_7 3.511253 1_554
Bi0_7 Tl2_4 3.511249 1_555
Bi0_7 Tl2_2 3.511249 1_655
Bi0_7 Tl1_5 3.511249 1_555
Bi0_7 Tl1_3 3.511249 1_655
Bi0_7 Tl2_6 3.511253 1_555
Bi0_7 Tl1_7 3.511253 1_555
