# generated using pymatgen
data_Ge7(H2O11)2
_symmetry_space_group_name_H-M   'P 1'
_cell_length_a   7.87931256
_cell_length_b   7.87931256
_cell_length_c   7.87931284
_cell_angle_alpha   89.95997216
_cell_angle_beta   89.95997216
_cell_angle_gamma   89.95997585
_symmetry_Int_Tables_number   1
_chemical_formula_structural   Ge7(H2O11)2
_chemical_formula_sum   'Ge7 H4 O22'
_cell_volume   489.17548385
_cell_formula_units_Z   1
loop_
 _symmetry_equiv_pos_site_id
 _symmetry_equiv_pos_as_xyz
  1  'x, y, z'
loop_
 _atom_site_type_symbol
 _atom_site_label
 _atom_site_symmetry_multiplicity
 _atom_site_fract_x
 _atom_site_fract_y
 _atom_site_fract_z
 _atom_site_occupancy
  Ge  Ge0  1  0.15256300  0.15256300  0.84492800  1
  Ge  Ge1  1  0.84492800  0.15256300  0.15256300  1
  Ge  Ge2  1  0.15256300  0.84492800  0.15256300  1
  Ge  Ge3  1  0.84751000  0.84751000  0.84751000  1
  Ge  Ge4  1  0.49961600  0.99945300  0.99945300  1
  Ge  Ge5  1  0.99945400  0.49961600  0.99945300  1
  Ge  Ge6  1  0.99945400  0.99945400  0.49961600  1
  H  H0  1  0.18437100  0.18437100  0.18437100  1
  H  H1  1  0.81252500  0.18741400  0.81252500  1
  H  H2  1  0.18741400  0.81252500  0.81252500  1
  H  H3  1  0.81252500  0.81252500  0.18741400  1
  O  O0  1  0.11267700  0.11267700  0.11267700  1
  O  O1  1  0.88630800  0.11346600  0.88630800  1
  O  O2  1  0.11346600  0.88630800  0.88630800  1
  O  O3  1  0.88630800  0.88630800  0.11346600  1
  O  O4  1  0.37705100  0.13198000  0.86804800  1
  O  O5  1  0.13198000  0.37705100  0.86804800  1
  O  O6  1  0.13167700  0.13167700  0.62090800  1
  O  O7  1  0.62090800  0.13167700  0.13167700  1
  O  O8  1  0.86804800  0.37705100  0.13198000  1
  O  O9  1  0.86804800  0.13198000  0.37705100  1
  O  O10  1  0.37705100  0.86804800  0.13198000  1
  O  O11  1  0.13167700  0.62090800  0.13167700  1
  O  O12  1  0.13198000  0.86804800  0.37705100  1
  O  O13  1  0.62229600  0.86760300  0.86760300  1
  O  O14  1  0.86760300  0.62229600  0.86760300  1
  O  O15  1  0.86760300  0.86760300  0.62229600  1
  O  O16  1  0.50307400  0.50307400  0.99777900  1
  O  O17  1  0.99777900  0.50307400  0.50307400  1
  O  O18  1  0.50307400  0.99777900  0.50307400  1
  O  O19  1  0.67585800  0.32375200  0.67585800  1
  O  O20  1  0.32375200  0.67585800  0.67585800  1
  O  O21  1  0.67585800  0.67585800  0.32375300  1
loop_
_geom_bond_atom_site_label_1
_geom_bond_atom_site_label_2
_geom_bond_distance
_geom_bond_site_symmetry_2
Ge0 O6 1.780639 1_555
Ge0 O4 1.785550 1_555
Ge0 O5 1.785550 1_555
Ge0 O1 2.145279 1_455
Ge0 O2 2.145279 1_545
Ge0 O0 2.155589 1_556
Ge1 O7 1.780639 1_555
Ge1 O8 1.785550 1_555
Ge1 O9 1.785550 1_555
Ge1 O3 2.145279 1_545
Ge1 O1 2.145279 1_554
Ge1 O0 2.155589 1_655
Ge2 O11 1.780639 1_555
Ge2 O10 1.785550 1_555
Ge2 O12 1.785550 1_555
Ge2 O3 2.145279 1_455
Ge2 O2 2.145279 1_554
Ge2 O0 2.155589 1_565
Ge3 O14 1.788391 1_555
Ge3 O13 1.788391 1_555
Ge3 O15 1.788391 1_555
Ge3 O1 2.140131 1_565
Ge3 O2 2.140131 1_655
Ge3 O3 2.140131 1_556
Ge4 O7 1.757411 1_566
Ge4 O13 1.758311 1_555
Ge4 O10 1.758841 1_556
Ge4 O4 1.758841 1_565
Ge5 O11 1.757406 1_656
Ge5 O14 1.758316 1_555
Ge5 O5 1.758836 1_655
Ge5 O8 1.758845 1_556
Ge6 O6 1.757402 1_665
Ge6 O15 1.758320 1_555
Ge6 O12 1.758841 1_655
Ge6 O9 1.758841 1_565
H0 O0 0.979118 1_555
H0 O16 3.843421 1_554
H0 O18 3.843421 1_545
H0 O17 3.843421 1_455
H1 O1 1.007460 1_555
H1 O19 1.863217 1_555
H2 O2 1.007460 1_555
H2 O20 1.863217 1_555
H3 O3 1.007460 1_555
H3 O21 1.863221 1_555
O10 O16 3.220685 1_554
O10 O18 3.254243 1_555
O11 O16 3.245289 1_554
O11 O17 3.245289 1_455
O12 O17 3.220685 1_455
O12 O18 3.254243 1_555
O13 O16 3.191013 1_555
O13 O18 3.191013 1_555
O14 O16 3.191013 1_555
O14 O17 3.191013 1_555
O15 O18 3.191013 1_555
O15 O17 3.191013 1_555
O16 O20 3.206440 1_555
O16 O19 3.206440 1_555
O16 O21 3.211888 1_556
O16 O8 3.220685 1_556
O16 O7 3.245289 1_556
O16 O5 3.254243 1_555
O16 O4 3.254243 1_555
O17 O21 3.206436 1_555
O17 O19 3.206439 1_555
O17 O20 3.211882 1_655
O17 O5 3.220686 1_655
O17 O6 3.245289 1_655
O17 O9 3.254243 1_555
O17 O8 3.254243 1_555
O18 O21 3.206436 1_555
O18 O20 3.206439 1_555
O18 O19 3.211882 1_565
O18 O9 3.220685 1_565
O18 O4 3.220686 1_565
O18 O6 3.245289 1_565
O18 O7 3.245289 1_565
