# generated using pymatgen
data_Fe(BO)6
_symmetry_space_group_name_H-M   'P 1'
_cell_length_a   8.16446523
_cell_length_b   4.94038092
_cell_length_c   7.43392004
_cell_angle_alpha   68.23230968
_cell_angle_beta   63.33319608
_cell_angle_gamma   34.27956226
_symmetry_Int_Tables_number   1
_chemical_formula_structural   Fe(BO)6
_chemical_formula_sum   'Fe1 B6 O6'
_cell_volume   150.92159211
_cell_formula_units_Z   1
loop_
 _symmetry_equiv_pos_site_id
 _symmetry_equiv_pos_as_xyz
  1  'x, y, z'
loop_
 _atom_site_type_symbol
 _atom_site_label
 _atom_site_symmetry_multiplicity
 _atom_site_fract_x
 _atom_site_fract_y
 _atom_site_fract_z
 _atom_site_occupancy
  Fe  Fe0  1  0.00000000  0.00000000  0.00000000  1
  B  B0  1  0.57557800  0.00000000  0.77078700  1
  B  B1  1  0.42442200  0.00000000  0.22921300  1
  B  B2  1  0.65539000  0.33516800  0.89858000  1
  B  B3  1  0.34461000  0.66483200  0.10142000  1
  B  B4  1  0.99055800  0.66483200  0.89858000  1
  B  B5  1  0.00944200  0.33516800  0.10142000  1
  O  O0  1  0.28446600  0.44000500  0.76600700  1
  O  O1  1  0.71553400  0.55999500  0.23399300  1
  O  O2  1  0.74504100  0.00000000  0.78846600  1
  O  O3  1  0.27552900  0.44000500  0.23399300  1
  O  O4  1  0.25495900  0.00000000  0.21153400  1
  O  O5  1  0.72447100  0.55999500  0.76600700  1
loop_
_geom_bond_atom_site_label_1
_geom_bond_atom_site_label_2
_geom_bond_distance
_geom_bond_site_symmetry_2
Fe0 O3 2.323415 1_545
Fe0 O5 2.323415 1_454
Fe0 O1 2.323415 1_455
Fe0 O0 2.323415 1_544
B0 O0 1.362303 1_555
B0 O5 1.362304 1_545
B0 O2 1.447331 1_555
B1 O1 1.362303 1_545
B1 O3 1.362304 1_555
B1 O4 1.447331 1_555
B2 O5 1.499189 1_555
B2 O2 1.553138 1_555
B2 B3 1.709472 1_556
B2 B4 1.865262 1_545
B2 Fe0 2.122572 1_656
B3 O3 1.499189 1_555
B3 O4 1.553138 1_565
B3 B5 1.865262 1_565
B3 Fe0 2.122572 1_565
B4 O0 1.499189 1_655
B4 O2 1.553138 1_565
B4 B5 1.709473 1_656
B4 Fe0 2.122572 1_666
B5 O1 1.499189 1_455
B5 O4 1.553138 1_555
B5 Fe0 2.122572 1_555
