# generated using pymatgen
data_Li9Mn2Co5O16
_symmetry_space_group_name_H-M   'P 1'
_cell_length_a   3.01742800
_cell_length_b   5.98889313
_cell_length_c   16.08049416
_cell_angle_alpha   90.62518763
_cell_angle_beta   90.98213456
_cell_angle_gamma   95.01135698
_symmetry_Int_Tables_number   1
_chemical_formula_structural   Li9Mn2Co5O16
_chemical_formula_sum   'Li9 Mn2 Co5 O16'
_cell_volume   289.41567105
_cell_formula_units_Z   1
loop_
 _symmetry_equiv_pos_site_id
 _symmetry_equiv_pos_as_xyz
  1  'x, y, z'
loop_
 _atom_site_type_symbol
 _atom_site_label
 _atom_site_symmetry_multiplicity
 _atom_site_fract_x
 _atom_site_fract_y
 _atom_site_fract_z
 _atom_site_occupancy
  Li  Li0  1  0.99840500  0.50010200  0.75088900  1
  Li  Li1  1  0.49727600  0.74345700  0.87798800  1
  Li  Li2  1  0.00000000  0.00000000  0.00000000  1
  Li  Li3  1  0.50002400  0.25176700  0.62368800  1
  Li  Li4  1  0.00000000  0.00000000  0.50000000  1
  Li  Li5  1  0.49997600  0.74823300  0.37631200  1
  Li  Li6  1  0.00159500  0.49989800  0.24911100  1
  Li  Li7  1  0.50272400  0.25654300  0.12201200  1
  Li  Li8  1  0.00000000  0.50000000  0.00000000  1
  Mn  Mn0  1  0.99865000  0.99944500  0.75089300  1
  Mn  Mn1  1  0.00135000  0.00055500  0.24910700  1
  Co  Co0  1  0.49509600  0.26254500  0.88047100  1
  Co  Co1  1  0.50490400  0.73745500  0.11952900  1
  Co  Co2  1  0.49787300  0.25217400  0.37573400  1
  Co  Co3  1  0.00000000  0.50000000  0.50000000  1
  Co  Co4  1  0.50212700  0.74782600  0.62426600  1
  O  O0  1  0.52133100  0.75653800  0.74380900  1
  O  O1  1  0.02283100  0.01187800  0.87156400  1
  O  O2  1  0.50448200  0.24692400  0.98822200  1
  O  O3  1  0.02348300  0.51178700  0.61911600  1
  O  O4  1  0.52342100  0.26425600  0.49441100  1
  O  O5  1  0.02470000  0.01131500  0.37116700  1
  O  O6  1  0.52210400  0.75739800  0.24051600  1
  O  O7  1  0.02029100  0.51799800  0.12468700  1
  O  O8  1  0.47789600  0.24260200  0.75948400  1
  O  O9  1  0.97970900  0.48200200  0.87531300  1
  O  O10  1  0.49551800  0.75307600  0.01177800  1
  O  O11  1  0.97530000  0.98868500  0.62883300  1
  O  O12  1  0.47657900  0.73574400  0.50558900  1
  O  O13  1  0.97651700  0.48821300  0.38088400  1
  O  O14  1  0.47866900  0.24346200  0.25619100  1
  O  O15  1  0.97716900  0.98812200  0.12843600  1
loop_
_geom_bond_atom_site_label_1
_geom_bond_atom_site_label_2
_geom_bond_distance
_geom_bond_site_symmetry_2
Li0 O9 2.006406 1_555
Li0 O0 2.109004 1_655
Li0 O8 2.110217 1_555
Li0 O3 2.123320 1_655
Li0 O0 2.197327 1_555
Li0 O8 2.208669 1_655
Li1 O9 2.112259 1_455
Li1 O10 2.151662 1_556
Li1 O1 2.161845 1_665
Li1 O0 2.162172 1_555
Li1 O9 2.229718 1_555
Li1 O1 2.246103 1_565
Li2 O2 2.040257 1_554
Li2 O10 2.040257 1_445
Li2 O15 2.069434 1_445
Li2 O1 2.069434 1_554
Li2 O2 2.200230 1_454
Li2 O10 2.200230 1_545
Li3 O4 2.083182 1_555
Li3 O3 2.121782 1_655
Li3 O11 2.137210 1_445
Li3 O8 2.186972 1_555
Li3 O3 2.210902 1_555
Li3 O11 2.222493 1_545
Li4 O11 2.075947 1_445
Li4 O5 2.075947 1_555
Li4 O4 2.139730 1_555
Li4 O12 2.139730 1_445
Li4 O4 2.230908 1_455
Li4 O12 2.230908 1_545
Li5 O12 2.083182 1_555
Li5 O13 2.121782 1_455
Li5 O5 2.137210 1_665
Li5 O6 2.186972 1_555
Li5 O13 2.210902 1_555
Li5 O5 2.222493 1_565
Li6 O7 2.006406 1_555
Li6 O14 2.109004 1_455
Li6 O6 2.110217 1_555
Li6 O13 2.123320 1_455
Li6 O14 2.197327 1_555
Li6 O6 2.208669 1_455
Li7 O7 2.112259 1_655
Li7 O2 2.151662 1_554
Li7 O15 2.161845 1_445
Li7 O14 2.162172 1_555
Li7 O7 2.229718 1_555
Li7 O15 2.246103 1_545
Li8 O7 2.006347 1_555
Li8 O9 2.006347 1_454
Li8 O10 2.038812 1_555
Li8 O2 2.038812 1_454
Li8 O10 2.248768 1_455
Li8 O2 2.248768 1_554
Mn0 O1 1.940942 1_665
Mn0 O0 1.956619 1_555
Mn0 O8 1.962589 1_665
Mn0 O11 1.962995 1_555
Mn0 O8 2.238671 1_565
Mn0 O0 2.240546 1_655
Mn1 O15 1.940942 1_445
Mn1 O14 1.956619 1_555
Mn1 O6 1.962589 1_445
Mn1 O5 1.962995 1_555
Mn1 O6 2.238671 1_545
Mn1 O14 2.240546 1_455
Co0 O2 1.736112 1_555
Co0 O9 1.882372 1_555
Co0 O8 1.947417 1_555
Co0 O1 1.979756 1_555
Co0 O9 2.123156 1_455
Co0 O1 2.287069 1_655
Co1 O10 1.736112 1_555
Co1 O7 1.882372 1_555
Co1 O6 1.947417 1_555
Co1 O15 1.979756 1_555
Co1 O7 2.123156 1_655
Co1 O15 2.287069 1_455
Co2 O4 1.908947 1_555
Co2 O14 1.922192 1_555
Co2 O13 1.930736 1_555
Co2 O5 1.938797 1_555
Co2 O13 2.206899 1_455
Co2 O5 2.239524 1_655
Co3 O13 1.915843 1_455
Co3 O3 1.915843 1_555
Co3 O12 1.925473 1_555
Co3 O4 1.925473 1_455
Co3 O12 2.210771 1_455
Co3 O4 2.210771 1_555
Co4 O12 1.908947 1_555
Co4 O0 1.922192 1_555
Co4 O3 1.930736 1_555
Co4 O11 1.938797 1_555
Co4 O3 2.206899 1_655
Co4 O11 2.239524 1_455
