# generated using pymatgen
data_BaHfMg14O16
_symmetry_space_group_name_H-M   'P 1'
_cell_length_a   8.84990217
_cell_length_b   8.84990217
_cell_length_c   4.55739943
_cell_angle_alpha   90.00000000
_cell_angle_beta   90.00000000
_cell_angle_gamma   90.00000000
_symmetry_Int_Tables_number   1
_chemical_formula_structural   BaHfMg14O16
_chemical_formula_sum   'Ba1 Hf1 Mg14 O16'
_cell_volume   356.93902535
_cell_formula_units_Z   1
loop_
 _symmetry_equiv_pos_site_id
 _symmetry_equiv_pos_as_xyz
  1  'x, y, z'
loop_
 _atom_site_type_symbol
 _atom_site_label
 _atom_site_symmetry_multiplicity
 _atom_site_fract_x
 _atom_site_fract_y
 _atom_site_fract_z
 _atom_site_occupancy
  Ba  Ba0  1  -0.00000000  -0.00000000  -0.00000000  1
  Hf  Hf0  1  0.50000000  0.50000000  -0.00000000  1
  Mg  Mg0  1  -0.00000000  0.50000000  -0.00000000  1
  Mg  Mg1  1  0.50000000  -0.00000000  -0.00000000  1
  Mg  Mg2  1  -0.00000000  0.26313235  0.50000000  1
  Mg  Mg3  1  -0.00000000  0.73686765  0.50000000  1
  Mg  Mg4  1  0.50000000  0.24374841  0.50000000  1
  Mg  Mg5  1  0.50000000  0.75625159  0.50000000  1
  Mg  Mg6  1  0.26313235  -0.00000000  0.50000000  1
  Mg  Mg7  1  0.24374841  0.50000000  0.50000000  1
  Mg  Mg8  1  0.73686765  -0.00000000  0.50000000  1
  Mg  Mg9  1  0.75625159  0.50000000  0.50000000  1
  Mg  Mg10  1  0.25162905  0.25162905  0.00000000  1
  Mg  Mg11  1  0.25162905  0.74837095  -0.00000000  1
  Mg  Mg12  1  0.74837095  0.25162905  0.00000000  1
  Mg  Mg13  1  0.74837095  0.74837095  -0.00000000  1
  O  O0  1  0.28107625  -0.00000000  -0.00000000  1
  O  O1  1  0.25482383  0.50000000  -0.00000000  1
  O  O2  1  0.71892375  -0.00000000  -0.00000000  1
  O  O3  1  0.74517617  0.50000000  0.00000000  1
  O  O4  1  0.24919248  0.24919248  0.50000000  1
  O  O5  1  0.24919248  0.75080752  0.50000000  1
  O  O6  1  0.75080752  0.24919248  0.50000000  1
  O  O7  1  0.75080752  0.75080752  0.50000000  1
  O  O8  1  -0.00000000  -0.00000000  0.50000000  1
  O  O9  1  -0.00000000  0.50000000  0.50000000  1
  O  O10  1  0.50000000  -0.00000000  0.50000000  1
  O  O11  1  0.50000000  0.50000000  0.50000000  1
  O  O12  1  -0.00000000  0.28107625  0.00000000  1
  O  O13  1  -0.00000000  0.71892375  -0.00000000  1
  O  O14  1  0.50000000  0.25482383  -0.00000000  1
  O  O15  1  0.50000000  0.74517617  0.00000000  1
loop_
_geom_bond_atom_site_label_1
_geom_bond_atom_site_label_2
_geom_bond_distance
_geom_bond_site_symmetry_2
Ba0 O8 2.278700 1_555
Ba0 O8 2.278700 1_554
Ba0 O13 2.487497 1_545
Ba0 O0 2.487497 1_555
Ba0 O12 2.487497 1_555
Ba0 O2 2.487497 1_455
Hf0 O14 2.169785 1_555
Hf0 O1 2.169785 1_555
Hf0 O15 2.169785 1_555
Hf0 O3 2.169785 1_555
Hf0 O11 2.278700 1_554
Hf0 O11 2.278700 1_555
Mg0 O12 1.937454 1_555
Mg0 O13 1.937454 1_555
Mg0 O3 2.255166 1_455
Mg0 O1 2.255166 1_555
Mg0 O9 2.278700 1_554
Mg0 O9 2.278700 1_555
Mg1 O0 1.937454 1_555
Mg1 O2 1.937454 1_555
Mg1 O15 2.255166 1_545
Mg1 O14 2.255166 1_555
Mg1 O10 2.278700 1_555
Mg1 O10 2.278700 1_554
Mg2 O9 2.096256 1_555
Mg2 O6 2.208777 1_455
Mg2 O4 2.208777 1_555
Mg2 O12 2.284226 1_555
Mg2 O12 2.284226 1_556
Mg2 O8 2.328696 1_555
Mg3 O9 2.096256 1_555
Mg3 O7 2.208777 1_455
Mg3 O5 2.208777 1_555
Mg3 O13 2.284226 1_555
Mg3 O13 2.284226 1_556
Mg3 O8 2.328696 1_565
Mg4 O10 2.157150 1_555
Mg4 O4 2.220145 1_555
Mg4 O6 2.220145 1_555
Mg4 O11 2.267802 1_555
Mg4 O14 2.280807 1_555
Mg4 O14 2.280807 1_556
Mg5 O10 2.157150 1_565
Mg5 O7 2.220145 1_555
Mg5 O5 2.220145 1_555
Mg5 O11 2.267802 1_555
Mg5 O15 2.280807 1_556
Mg5 O15 2.280807 1_555
Mg6 O10 2.096256 1_555
Mg6 O5 2.208777 1_545
Mg6 O4 2.208777 1_555
Mg6 O0 2.284226 1_555
Mg6 O0 2.284226 1_556
Mg6 O8 2.328696 1_555
Mg7 O9 2.157150 1_555
Mg7 O4 2.220145 1_555
Mg7 O5 2.220145 1_555
Mg7 O11 2.267802 1_555
Mg7 O1 2.280807 1_556
Mg7 O1 2.280807 1_555
Mg8 O10 2.096256 1_555
Mg8 O7 2.208777 1_545
Mg8 O6 2.208777 1_555
Mg8 O2 2.284226 1_555
Mg8 O2 2.284226 1_556
Mg8 O8 2.328696 1_655
Mg9 O9 2.157150 1_655
Mg9 O6 2.220145 1_555
Mg9 O7 2.220145 1_555
Mg9 O11 2.267802 1_555
Mg9 O3 2.280807 1_556
Mg9 O3 2.280807 1_555
Mg10 O1 2.198240 1_555
Mg10 O14 2.198240 1_555
Mg10 O12 2.242089 1_555
Mg10 O0 2.242089 1_555
Mg10 O4 2.278904 1_554
Mg10 O4 2.278904 1_555
Mg11 O1 2.198240 1_555
Mg11 O15 2.198240 1_555
Mg11 O13 2.242089 1_555
Mg11 O0 2.242089 1_565
Mg11 O5 2.278904 1_554
Mg11 O5 2.278904 1_555
Mg12 O14 2.198240 1_555
Mg12 O3 2.198240 1_555
Mg12 O12 2.242089 1_655
Mg12 O2 2.242089 1_555
Mg12 O6 2.278904 1_554
Mg12 O6 2.278904 1_555
Mg13 O15 2.198240 1_555
Mg13 O3 2.198240 1_555
Mg13 O13 2.242089 1_655
Mg13 O2 2.242089 1_565
Mg13 O7 2.278904 1_555
Mg13 O7 2.278904 1_554
