# generated using pymatgen
data_CePt2Au3
_symmetry_space_group_name_H-M   'P 1'
_cell_length_a   5.44919390
_cell_length_b   5.45396191
_cell_length_c   5.44970287
_cell_angle_alpha   119.96577788
_cell_angle_beta   119.23227940
_cell_angle_gamma   90.67703548
_symmetry_Int_Tables_number   1
_chemical_formula_structural   CePt2Au3
_chemical_formula_sum   'Ce1 Pt2 Au3'
_cell_volume   115.22493449
_cell_formula_units_Z   1
loop_
 _symmetry_equiv_pos_site_id
 _symmetry_equiv_pos_as_xyz
  1  'x, y, z'
loop_
 _atom_site_type_symbol
 _atom_site_label
 _atom_site_symmetry_multiplicity
 _atom_site_fract_x
 _atom_site_fract_y
 _atom_site_fract_z
 _atom_site_occupancy
  Ce  Ce0  1  0.00621031  0.00619791  -0.00000601  1
  Pt  Pt0  1  0.12507208  0.37435779  0.75080824  1
  Pt  Pt1  1  0.62351691  0.37427351  0.24919729  1
  Au  Au0  1  0.62307045  0.87177431  0.24875645  1
  Au  Au1  1  0.62303117  0.37433449  0.75123858  1
  Au  Au2  1  0.24909908  0.74906199  0.50000645  1
loop_
_geom_bond_atom_site_label_1
_geom_bond_atom_site_label_2
_geom_bond_distance
_geom_bond_site_symmetry_2
Ce0 Pt1 3.137616 1_555
Ce0 Pt0 3.138104 1_554
Ce0 Pt1 3.219420 1_455
Ce0 Pt0 3.219760 1_555
Ce0 Pt0 3.221146 1_544
Ce0 Pt1 3.221440 1_444
Pt0 Pt1 2.747786 1_556
Pt0 Pt1 2.764775 1_455
Au0 Au1 2.713467 1_554
Au0 Pt0 2.714248 1_554
Au0 Pt1 2.714580 1_555
Au0 Pt0 2.739191 1_665
Au0 Pt1 2.739384 1_565
Au0 Au1 2.741186 1_565
Au0 Au2 3.175536 1_555
Au0 Ce0 3.205384 1_666
Au0 Ce0 3.205405 1_565
Au0 Au2 3.219831 1_655
Au0 Au2 3.220088 1_554
Au0 Ce0 3.233489 1_665
Au1 Pt0 2.712333 1_555
Au1 Pt1 2.712602 1_556
Au1 Pt0 2.736863 1_655
Au1 Pt1 2.737103 1_555
Au1 Au2 3.178486 1_545
Au1 Ce0 3.206056 1_555
Au1 Ce0 3.206606 1_656
Au1 Au2 3.220603 1_555
Au1 Au2 3.220886 1_656
Au1 Ce0 3.236040 1_666
Au2 Pt1 3.187578 1_455
Au2 Pt0 3.187663 1_555
Au2 Pt0 3.200036 1_554
Au2 Pt1 3.200080 1_555
Au2 Pt1 3.201814 1_566
Au2 Pt0 3.202436 1_565
Au2 Ce0 3.300287 1_566
Au2 Ce0 3.303641 1_555
Au2 Ce0 3.387996 1_666
Au2 Ce0 3.388590 1_565
