# generated using pymatgen
data_BaSrV4(NiO4)4
_symmetry_space_group_name_H-M   'P 1'
_cell_length_a   9.59187661
_cell_length_b   9.59187661
_cell_length_c   9.59201842
_cell_angle_alpha   100.73255918
_cell_angle_beta   100.73255918
_cell_angle_gamma   128.86853329
_symmetry_Int_Tables_number   1
_chemical_formula_structural   BaSrV4(NiO4)4
_chemical_formula_sum   'Ba2 Sr2 V8 Ni8 O32'
_cell_volume   619.83906028
_cell_formula_units_Z   2
loop_
 _symmetry_equiv_pos_site_id
 _symmetry_equiv_pos_as_xyz
  1  'x, y, z'
loop_
 _atom_site_type_symbol
 _atom_site_label
 _atom_site_symmetry_multiplicity
 _atom_site_fract_x
 _atom_site_fract_y
 _atom_site_fract_z
 _atom_site_occupancy
  Ba  Ba0  1  0.25000002  0.74999861  0.49999852  1
  Ba  Ba1  1  0.75000139  0.24999998  0.50000148  1
  Sr  Sr0  1  0.49999643  0.49999936  -0.00000081  1
  Sr  Sr1  1  0.00000064  0.00000357  0.00000081  1
  V  V0  1  0.04449298  0.87699203  0.67246192  1
  V  V1  1  0.70453177  0.37699190  0.83250031  1
  V  V2  1  0.54449199  0.87203239  0.16750464  1
  V  V3  1  0.20453393  0.37203193  0.32754033  1
  V  V4  1  0.12300810  0.79546823  0.16749969  1
  V  V5  1  0.62300797  0.45550702  0.32753808  1
  V  V6  1  0.12796807  0.29546607  0.67245967  1
  V  V7  1  0.62796761  0.95550801  0.83249536  1
  Ni  Ni0  1  0.66918212  0.83081788  0.50000000  1
  Ni  Ni1  1  0.83081141  0.33081189  0.16162946  1
  Ni  Ni2  1  0.41742705  0.08257295  0.00000000  1
  Ni  Ni3  1  0.58257088  0.58257194  0.66514047  1
  Ni  Ni4  1  0.33081348  0.16918652  0.50000000  1
  Ni  Ni5  1  0.16918811  0.66918859  0.83837054  1
  Ni  Ni6  1  0.08256618  0.41743382  0.00000000  1
  Ni  Ni7  1  0.91742806  0.91742912  0.33485953  1
  O  O0  1  0.68090609  0.66954563  0.33234846  1
  O  O1  1  0.83719655  0.16954580  0.98863536  1
  O  O2  1  0.41854182  0.90375404  0.83670545  1
  O  O3  1  0.56704788  0.40375411  0.48520775  1
  O  O4  1  0.33719993  0.34855704  0.66764525  1
  O  O5  1  0.18091035  0.84855965  0.01136134  1
  O  O6  1  0.06704657  0.58183538  0.16329175  1
  O  O7  1  0.91854357  0.08183526  0.51478893  1
  O  O8  1  0.33045420  0.66280345  0.01136464  1
  O  O9  1  0.83045437  0.81909391  0.66765154  1
  O  O10  1  0.09624589  0.93295212  0.51479225  1
  O  O11  1  0.59624596  0.08145818  0.16329455  1
  O  O12  1  0.65144035  0.31908965  0.98863866  1
  O  O13  1  0.15144296  0.16280007  0.33235475  1
  O  O14  1  0.41816474  0.58145643  0.48521107  1
  O  O15  1  0.91816462  0.43295343  0.83670825  1
  O  O16  1  0.43287922  0.27204361  0.15497254  1
  O  O17  1  0.61707113  0.77204093  0.83916448  1
  O  O18  1  0.64294185  0.97416603  0.66098512  1
  O  O19  1  0.81317610  0.47416391  0.33122036  1
  O  O20  1  0.11707100  0.27790580  0.84502828  1
  O  O21  1  0.93287588  0.77790572  0.16083160  1
  O  O22  1  0.31316980  0.98194645  0.33900765  1
  O  O23  1  0.14294101  0.48195159  0.66877720  1
  O  O24  1  0.72795907  0.88292887  0.16083552  1
  O  O25  1  0.22795639  0.06712078  0.84502746  1
  O  O26  1  0.02583609  0.68682390  0.66877964  1
  O  O27  1  0.52583397  0.85705815  0.33901488  1
  O  O28  1  0.72209428  0.56712412  0.83916840  1
  O  O29  1  0.22209420  0.38292900  0.15497172  1
  O  O30  1  0.01804841  0.35705899  0.33122280  1
  O  O31  1  0.51805355  0.18683020  0.66099235  1
loop_
_geom_bond_atom_site_label_1
_geom_bond_atom_site_label_2
_geom_bond_distance
_geom_bond_site_symmetry_2
Ba0 O22 2.763650 1_555
Ba0 O30 2.763671 1_555
Ba0 O18 2.763677 1_555
Ba0 O26 2.763690 1_555
Ba0 O14 2.916857 1_555
Ba0 O10 2.916865 1_555
Ba0 O2 2.916925 1_555
Ba0 O6 2.916926 1_555
Ba0 O27 3.023458 1_555
Ba0 O23 3.023518 1_555
Ba0 O19 3.023533 1_455
Ba0 O31 3.023582 1_565
Ba1 O31 2.763650 1_555
Ba1 O23 2.763671 1_655
Ba1 O27 2.763677 1_545
Ba1 O19 2.763690 1_555
Ba1 O7 2.916857 1_555
Ba1 O3 2.916865 1_555
Ba1 O11 2.916925 1_555
Ba1 O15 2.916926 1_555
Ba1 O18 3.023458 1_545
Ba1 O30 3.023518 1_655
Ba1 O26 3.023533 1_655
Ba1 O22 3.023582 1_545
Ni0 O14 2.014143 1_555
Ni0 O7 2.014143 1_565
Ni0 O27 2.031427 1_555
Ni0 O18 2.031427 1_555
Ni0 O0 2.085850 1_555
Ni0 O9 2.085850 1_555
Ni1 O11 2.014118 1_555
Ni1 O6 2.014168 1_655
Ni1 O19 2.031457 1_555
Ni1 O30 2.031497 1_655
Ni1 O12 2.085803 1_554
Ni1 O1 2.085838 1_554
Ni2 O12 1.997249 1_554
Ni2 O5 1.997249 1_545
Ni2 O16 2.026870 1_555
Ni2 O25 2.026870 1_554
Ni2 O2 2.103347 1_544
Ni2 O11 2.103347 1_555
Ni3 O4 1.997245 1_555
Ni3 O9 1.997264 1_555
Ni3 O17 2.026887 1_555
Ni3 O28 2.026926 1_555
Ni3 O14 2.103301 1_555
Ni3 O3 2.103348 1_555
Ni4 O10 2.014161 1_545
Ni4 O3 2.014161 1_555
Ni4 O22 2.031528 1_545
Ni4 O31 2.031528 1_555
Ni4 O13 2.085739 1_555
Ni4 O4 2.085739 1_555
Ni5 O2 2.014118 1_555
Ni5 O15 2.014168 1_455
Ni5 O26 2.031457 1_555
Ni5 O23 2.031497 1_555
Ni5 O5 2.085803 1_556
Ni5 O8 2.085838 1_556
Ni6 O8 1.997261 1_555
Ni6 O1 1.997261 1_454
Ni6 O20 2.026953 1_554
Ni6 O29 2.026953 1_555
Ni6 O15 2.103250 1_454
Ni6 O6 2.103250 1_555
Ni7 O13 1.997245 1_665
Ni7 O0 1.997264 1_555
Ni7 O24 2.026887 1_555
Ni7 O21 2.026926 1_555
Ni7 O7 2.103301 1_565
Ni7 O10 2.103348 1_655
O0 V5 1.746334 1_555
O0 Sr0 2.878458 1_555
O1 V7 1.746366 1_545
O1 Sr1 2.878364 1_656
O2 V7 1.751973 1_555
O3 V5 1.751955 1_555
O4 V6 1.746366 1_555
O4 Sr0 2.878495 1_556
O5 V4 1.746350 1_555
O5 Sr1 2.878426 1_565
O6 V4 1.751961 1_555
O7 V6 1.751987 1_655
O8 V2 1.746366 1_555
O8 Sr0 2.878364 1_555
O9 V0 1.746334 1_655
O9 Sr1 2.878458 1_666
O10 V0 1.751955 1_555
O11 V2 1.751973 1_545
O12 V1 1.746350 1_555
O12 Sr0 2.878426 1_556
O13 V3 1.746366 1_555
O13 Sr1 2.878495 1_555
O14 V3 1.751987 1_555
O15 V1 1.751961 1_555
O16 V5 1.710387 1_555
O16 Sr0 2.684278 1_555
O16 Sr1 2.986158 1_555
O17 V7 1.710399 1_555
O17 Sr1 2.684291 1_666
O17 Sr0 2.986113 1_556
O18 V7 1.710120 1_555
O19 V5 1.710106 1_555
O20 V6 1.710391 1_555
O20 Sr0 2.684264 1_556
O20 Sr1 2.986105 1_556
O21 V4 1.710380 1_655
O21 Sr1 2.684263 1_665
O21 Sr0 2.986160 1_555
O22 V4 1.710099 1_555
O23 V6 1.710112 1_555
O24 V2 1.710399 1_555
O24 Sr0 2.684291 1_555
O24 Sr1 2.986113 1_665
O25 V0 1.710387 1_545
O25 Sr1 2.684278 1_556
O25 Sr0 2.986158 1_556
O26 V0 1.710106 1_555
O27 V2 1.710120 1_555
O28 V1 1.710380 1_555
O28 Sr0 2.684263 1_556
O28 Sr1 2.986160 1_666
O29 V3 1.710391 1_555
O29 Sr1 2.684264 1_555
O29 Sr0 2.986105 1_555
O30 V3 1.710112 1_555
O31 V1 1.710099 1_555
