# generated using pymatgen
data_Li9Mn2Co5O16
_symmetry_space_group_name_H-M   'P 1'
_cell_length_a   2.88371300
_cell_length_b   5.21882100
_cell_length_c   19.47415560
_cell_angle_alpha   83.27124363
_cell_angle_beta   90.00000000
_cell_angle_gamma   90.00000000
_symmetry_Int_Tables_number   1
_chemical_formula_structural   Li9Mn2Co5O16
_chemical_formula_sum   'Li9 Mn2 Co5 O16'
_cell_volume   291.05917100
_cell_formula_units_Z   1
loop_
 _symmetry_equiv_pos_site_id
 _symmetry_equiv_pos_as_xyz
  1  'x, y, z'
loop_
 _atom_site_type_symbol
 _atom_site_label
 _atom_site_symmetry_multiplicity
 _atom_site_fract_x
 _atom_site_fract_y
 _atom_site_fract_z
 _atom_site_occupancy
  Li  Li0  1  0.50000000  0.86826600  0.86962500  1
  Li  Li1  1  0.50000000  0.63350600  0.62616700  1
  Li  Li2  1  0.50000000  0.36910300  0.37622500  1
  Li  Li3  1  0.50000000  0.12738700  0.12742600  1
  Li  Li4  1  0.00000000  0.36654900  0.86845700  1
  Li  Li5  1  0.00000000  0.12642700  0.62941000  1
  Li  Li6  1  0.00000000  0.88149900  0.37492200  1
  Li  Li7  1  0.00000000  0.62650500  0.12767000  1
  Li  Li8  1  0.00000000  0.75025600  0.74893600  1
  Mn  Mn0  1  0.00000000  0.99708100  0.99963300  1
  Mn  Mn1  1  0.50000000  0.49786600  0.99796400  1
  Co  Co0  1  0.00000000  0.50133200  0.50036400  1
  Co  Co1  1  0.00000000  0.25064000  0.25073400  1
  Co  Co2  1  0.50000000  0.25129800  0.74936500  1
  Co  Co3  1  0.50000000  0.00070200  0.50196200  1
  Co  Co4  1  0.50000000  0.75012800  0.25085600  1
  O  O0  1  0.50000000  0.15623300  0.94094800  1
  O  O1  1  0.50000000  0.99016600  0.69665000  1
  O  O2  1  0.50000000  0.67661500  0.44719100  1
  O  O3  1  0.50000000  0.43582600  0.19347200  1
  O  O4  1  0.00000000  0.65850900  0.93843000  1
  O  O5  1  0.00000000  0.41827100  0.69440400  1
  O  O6  1  0.00000000  0.17165400  0.44137100  1
  O  O7  1  0.00000000  0.93838600  0.19216100  1
  O  O8  1  0.50000000  0.51268900  0.80235800  1
  O  O9  1  0.50000000  0.32815100  0.55387800  1
  O  O10  1  0.50000000  0.06455400  0.30735000  1
  O  O11  1  0.50000000  0.83649800  0.05809500  1
  O  O12  1  0.00000000  0.08278900  0.80426100  1
  O  O13  1  0.00000000  0.82643900  0.56315100  1
  O  O14  1  0.00000000  0.56313000  0.30916700  1
  O  O15  1  0.00000000  0.34154400  0.05739700  1
loop_
_geom_bond_atom_site_label_1
_geom_bond_atom_site_label_2
_geom_bond_distance
_geom_bond_site_symmetry_2
Li0 O12 2.149116 1_565
Li0 O12 2.149116 1_665
Li0 O0 2.162615 1_565
Li0 O4 2.174613 1_555
Li0 O4 2.174613 1_655
Li0 O8 2.393588 1_555
Li1 O13 2.075858 1_555
Li1 O13 2.075858 1_655
Li1 O5 2.181001 1_555
Li1 O5 2.181001 1_655
Li1 O9 2.246567 1_555
Li1 O1 2.438715 1_555
Li2 O6 2.108065 1_655
Li2 O6 2.108065 1_555
Li2 O14 2.121270 1_555
Li2 O14 2.121270 1_655
Li2 O10 2.196533 1_555
Li2 O2 2.237234 1_555
Li3 O7 2.085601 1_545
Li3 O7 2.085601 1_645
Li3 O11 2.146597 1_545
Li3 O3 2.174982 1_555
Li3 O15 2.197894 1_655
Li3 O15 2.197894 1_555
Li4 O8 2.021759 1_455
Li4 O8 2.021759 1_555
Li4 O12 2.046899 1_555
Li4 O4 2.159868 1_555
Li4 O0 2.216636 1_555
Li4 O0 2.216636 1_455
Li5 O1 2.020167 1_545
Li5 O1 2.020167 1_445
Li5 O5 2.091299 1_555
Li5 O13 2.142293 1_545
Li5 O9 2.233380 1_455
Li5 O9 2.233380 1_555
Li6 O6 2.103980 1_565
Li6 O10 2.104430 1_565
Li6 O10 2.104430 1_465
Li6 O2 2.202345 1_555
Li6 O2 2.202345 1_455
Li6 O14 2.213354 1_555
Li7 O3 2.100589 1_455
Li7 O3 2.100589 1_555
Li7 O15 2.135739 1_555
Li7 O7 2.169235 1_555
Li7 O11 2.183532 1_455
Li7 O11 2.183532 1_555
Li8 O1 2.093945 1_455
Li8 O1 2.093945 1_555
Li8 O8 2.096704 1_555
Li8 O8 2.096704 1_455
Li8 O5 2.135588 1_555
Li8 O12 2.147250 1_565
Mn0 O0 1.962770 1_565
Mn0 O0 1.962770 1_465
Mn0 O11 1.963129 1_556
Mn0 O11 1.963129 1_456
Mn0 O15 2.229572 1_566
Mn0 O4 2.244144 1_555
Mn1 O15 1.965408 1_556
Mn1 O15 1.965408 1_656
Mn1 O4 1.974382 1_555
Mn1 O4 1.974382 1_655
Mn1 O0 2.208069 1_555
Mn1 O11 2.231458 1_556
Co0 O9 1.939366 1_455
Co0 O9 1.939366 1_555
Co0 O2 1.940628 1_555
Co0 O2 1.940628 1_455
Co0 O6 2.177901 1_555
Co0 O13 2.204520 1_555
Co1 O10 1.996692 1_455
Co1 O10 1.996692 1_555
Co1 O3 2.000985 1_455
Co1 O3 2.000985 1_555
Co1 O14 2.095084 1_555
Co1 O7 2.095778 1_545
Co2 O1 1.799705 1_545
Co2 O8 1.804391 1_555
Co2 O5 1.940441 1_555
Co2 O5 1.940441 1_655
Co2 O12 1.942907 1_655
Co2 O12 1.942907 1_555
Co3 O6 2.005124 1_555
Co3 O6 2.005124 1_655
Co3 O13 2.017923 1_645
Co3 O13 2.017923 1_545
Co3 O9 2.085034 1_555
Co3 O2 2.102641 1_545
Co4 O14 2.015228 1_555
Co4 O14 2.015228 1_655
Co4 O7 2.021779 1_655
Co4 O7 2.021779 1_555
Co4 O10 2.079927 1_565
Co4 O3 2.090192 1_555
