# generated using pymatgen
data_LiNd6B3O14
_symmetry_space_group_name_H-M   'P 1'
_cell_length_a   16.09829400
_cell_length_b   8.71192300
_cell_length_c   12.43621615
_cell_angle_alpha   48.00761790
_cell_angle_beta   90.00000000
_cell_angle_gamma   90.00000000
_symmetry_Int_Tables_number   1
_chemical_formula_structural   LiNd6B3O14
_chemical_formula_sum   'Li4 Nd24 B12 O56'
_cell_volume   1296.30616854
_cell_formula_units_Z   4
loop_
 _symmetry_equiv_pos_site_id
 _symmetry_equiv_pos_as_xyz
  1  'x, y, z'
loop_
 _atom_site_type_symbol
 _atom_site_label
 _atom_site_symmetry_multiplicity
 _atom_site_fract_x
 _atom_site_fract_y
 _atom_site_fract_z
 _atom_site_occupancy
  Li  Li0  1  0.60364800  0.88072900  0.44016000  1
  Li  Li1  1  0.39635200  0.11927100  0.55984000  1
  Li  Li2  1  0.10364800  0.11927100  0.05984000  1
  Li  Li3  1  0.89635200  0.88072900  0.94016000  1
  Nd  Nd0  1  0.82181700  0.55341800  0.30567900  1
  Nd  Nd1  1  0.17818300  0.44658200  0.69432100  1
  Nd  Nd2  1  0.32181700  0.44658200  0.19432100  1
  Nd  Nd3  1  0.67818300  0.55341800  0.80567900  1
  Nd  Nd4  1  0.32497600  0.98558600  0.05435800  1
  Nd  Nd5  1  0.67502400  0.01441400  0.94564200  1
  Nd  Nd6  1  0.82497600  0.01441400  0.44564200  1
  Nd  Nd7  1  0.17502400  0.98558600  0.55435800  1
  Nd  Nd8  1  0.35661900  0.84817500  0.42405600  1
  Nd  Nd9  1  0.64338100  0.15182500  0.57594400  1
  Nd  Nd10  1  0.85661900  0.15182500  0.07594400  1
  Nd  Nd11  1  0.14338100  0.84817500  0.92405600  1
  Nd  Nd12  1  0.51418800  0.66452700  0.28386000  1
  Nd  Nd13  1  0.48581200  0.33547300  0.71614000  1
  Nd  Nd14  1  0.01418800  0.33547300  0.21614000  1
  Nd  Nd15  1  0.98581200  0.66452700  0.78386000  1
  Nd  Nd16  1  0.50449900  0.23631500  0.06285700  1
  Nd  Nd17  1  0.49550100  0.76368500  0.93714300  1
  Nd  Nd18  1  0.00449900  0.76368500  0.43714300  1
  Nd  Nd19  1  0.99550100  0.23631500  0.56285700  1
  Nd  Nd20  1  0.66582100  0.41103100  0.16685100  1
  Nd  Nd21  1  0.33417900  0.58896900  0.83314900  1
  Nd  Nd22  1  0.16582100  0.58896900  0.33314900  1
  Nd  Nd23  1  0.83417900  0.41103100  0.66685100  1
  B  B0  1  0.82699800  0.54421800  0.02682100  1
  B  B1  1  0.17300200  0.45578200  0.97317900  1
  B  B2  1  0.32699800  0.45578200  0.47317900  1
  B  B3  1  0.67300200  0.54421800  0.52682100  1
  B  B4  1  0.99923900  0.79266200  0.14399500  1
  B  B5  1  0.00076100  0.20733800  0.85600500  1
  B  B6  1  0.49923900  0.20733800  0.35600500  1
  B  B7  1  0.50076100  0.79266200  0.64399500  1
  B  B8  1  0.69314300  0.95816900  0.22136700  1
  B  B9  1  0.30685700  0.04183100  0.77863300  1
  B  B10  1  0.19314300  0.04183100  0.27863300  1
  B  B11  1  0.80685700  0.95816900  0.72136700  1
  O  O0  1  0.75013500  0.88563000  0.17834200  1
  O  O1  1  0.24986500  0.11437000  0.82165800  1
  O  O2  1  0.25013500  0.11437000  0.32165800  1
  O  O3  1  0.74986500  0.88563000  0.67834200  1
  O  O4  1  0.46747000  0.69863300  0.59592300  1
  O  O5  1  0.53253000  0.30136700  0.40407700  1
  O  O6  1  0.96747000  0.30136700  0.90407700  1
  O  O7  1  0.03253000  0.69863300  0.09592300  1
  O  O8  1  0.42110500  0.93389400  0.22018300  1
  O  O9  1  0.57889500  0.06610600  0.77981700  1
  O  O10  1  0.92110500  0.06610600  0.27981700  1
  O  O11  1  0.07889500  0.93389400  0.72018300  1
  O  O12  1  0.91637400  0.85178200  0.11750100  1
  O  O13  1  0.08362600  0.14821800  0.88249900  1
  O  O14  1  0.41637400  0.14821800  0.38249900  1
  O  O15  1  0.58362600  0.85178200  0.61750100  1
  O  O16  1  0.91030900  0.52477800  0.01004700  1
  O  O17  1  0.08969100  0.47522200  0.98995300  1
  O  O18  1  0.41030900  0.47522200  0.48995300  1
  O  O19  1  0.58969100  0.52477800  0.51004700  1
  O  O20  1  0.79711500  0.64081700  0.07345300  1
  O  O21  1  0.20288500  0.35918300  0.92654700  1
  O  O22  1  0.29711500  0.35918300  0.42654700  1
  O  O23  1  0.70288500  0.64081700  0.57345300  1
  O  O24  1  0.45007000  0.82510400  0.71696500  1
  O  O25  1  0.54993000  0.17489600  0.28303500  1
  O  O26  1  0.95007000  0.17489600  0.78303500  1
  O  O27  1  0.04993000  0.82510400  0.21696500  1
  O  O28  1  0.59805400  0.70242400  0.10522700  1
  O  O29  1  0.40194600  0.29757600  0.89477300  1
  O  O30  1  0.09805400  0.29757600  0.39477300  1
  O  O31  1  0.90194600  0.70242400  0.60522700  1
  O  O32  1  0.91086300  0.52696100  0.46394000  1
  O  O33  1  0.08913700  0.47303900  0.53606000  1
  O  O34  1  0.41086300  0.47303900  0.03606000  1
  O  O35  1  0.58913700  0.52696100  0.96394000  1
  O  O36  1  0.41409900  0.71516100  0.12295600  1
  O  O37  1  0.58590100  0.28483900  0.87704400  1
  O  O38  1  0.91409900  0.28483900  0.37704400  1
  O  O39  1  0.08590100  0.71516100  0.62295600  1
  O  O40  1  0.23268400  0.72424100  0.12056600  1
  O  O41  1  0.76731600  0.27575900  0.87943400  1
  O  O42  1  0.73268400  0.27575900  0.37943400  1
  O  O43  1  0.26731600  0.72424100  0.62056600  1
  O  O44  1  0.22419900  0.94866100  0.23008100  1
  O  O45  1  0.77580100  0.05133900  0.76991900  1
  O  O46  1  0.72419900  0.05133900  0.26991900  1
  O  O47  1  0.27580100  0.94866100  0.73008100  1
  O  O48  1  0.60936700  0.94816200  0.20166000  1
  O  O49  1  0.39063300  0.05183800  0.79834000  1
  O  O50  1  0.10936700  0.05183800  0.29834000  1
  O  O51  1  0.89063300  0.94816200  0.70166000  1
  O  O52  1  0.76883200  0.44947300  0.00405000  1
  O  O53  1  0.23116800  0.55052700  0.99595000  1
  O  O54  1  0.26883200  0.55052700  0.49595000  1
  O  O55  1  0.73116800  0.44947300  0.50405000  1
loop_
_geom_bond_atom_site_label_1
_geom_bond_atom_site_label_2
_geom_bond_distance
_geom_bond_site_symmetry_2
Li0 O15 2.070579 1_555
Li0 O25 2.105509 1_565
Li0 O23 2.243333 1_555
Li0 O46 2.499419 1_565
Li0 O19 2.610718 1_555
Li0 O48 2.611408 1_555
Li0 O4 2.638755 1_555
Li1 O14 2.070579 1_555
Li1 O24 2.105509 1_545
Li1 O22 2.243333 1_555
Li1 O47 2.499419 1_545
Li1 O18 2.610718 1_555
Li1 O49 2.611408 1_555
Li1 O5 2.638755 1_555
Li2 O13 2.070579 1_554
Li2 O27 2.105509 1_545
Li2 O21 2.243333 1_554
Li2 O44 2.499419 1_545
Li2 O17 2.610718 1_554
Li2 O50 2.611408 1_555
Li2 O6 2.638755 1_454
Li3 O12 2.070579 1_556
Li3 O26 2.105509 1_565
Li3 O20 2.243333 1_556
Li3 O45 2.499419 1_565
Li3 O16 2.610718 1_556
Li3 O51 2.611408 1_555
Li3 O7 2.638755 1_656
Nd0 O32 2.318339 1_555
Nd0 O38 2.385543 1_555
Nd0 O42 2.404725 1_555
Nd0 O55 2.458933 1_555
Nd0 O0 2.466402 1_555
Nd0 O20 2.477123 1_555
Nd0 O12 2.531956 1_555
Nd1 O33 2.318339 1_555
Nd1 O39 2.385543 1_555
Nd1 O43 2.404725 1_555
Nd1 O54 2.458933 1_555
Nd1 O1 2.466402 1_555
Nd1 O21 2.477123 1_555
Nd1 O13 2.531956 1_555
Nd2 O34 2.318339 1_555
Nd2 O36 2.385543 1_555
Nd2 O40 2.404725 1_555
Nd2 O53 2.458933 1_554
Nd2 O2 2.466402 1_555
Nd2 O22 2.477123 1_555
Nd2 O14 2.531956 1_555
Nd3 O35 2.318339 1_555
Nd3 O37 2.385543 1_555
Nd3 O41 2.404725 1_555
Nd3 O52 2.458933 1_556
Nd3 O3 2.466402 1_555
Nd3 O23 2.477123 1_555
Nd3 O15 2.531956 1_555
Nd4 O40 2.358144 1_555
Nd4 O8 2.368070 1_555
Nd4 O29 2.375687 1_564
Nd4 O36 2.376406 1_555
Nd4 O44 2.563294 1_555
Nd4 O1 2.598283 1_564
Nd4 O21 3.171840 1_564
Nd5 O41 2.358144 1_555
Nd5 O9 2.368070 1_555
Nd5 O28 2.375687 1_546
Nd5 O37 2.376406 1_555
Nd5 O45 2.563294 1_555
Nd5 O0 2.598283 1_546
Nd5 O20 3.171840 1_546
Nd6 O42 2.358144 1_555
Nd6 O10 2.368070 1_555
Nd6 O31 2.375687 1_545
Nd6 O38 2.376406 1_555
Nd6 O46 2.563294 1_555
Nd6 O3 2.598283 1_545
Nd6 O23 3.171840 1_545
Nd7 O43 2.358144 1_555
Nd7 O11 2.368070 1_555
Nd7 O30 2.375687 1_565
Nd7 O39 2.376406 1_555
Nd7 O47 2.563294 1_555
Nd7 O2 2.598283 1_565
Nd7 O22 3.171840 1_565
Nd8 O8 2.351635 1_555
Nd8 O43 2.382066 1_555
Nd8 O4 2.392532 1_555
Nd8 O2 2.446771 1_565
Nd8 O14 2.493506 1_565
Nd8 O54 2.533466 1_555
Nd8 O44 2.881702 1_555
Nd8 O18 2.900461 1_555
Nd9 O9 2.351635 1_555
Nd9 O42 2.382066 1_555
Nd9 O5 2.392532 1_555
Nd9 O3 2.446771 1_545
Nd9 O15 2.493506 1_545
Nd9 O55 2.533466 1_555
Nd9 O45 2.881702 1_555
Nd9 O19 2.900461 1_555
Nd10 O10 2.351635 1_555
Nd10 O41 2.382066 1_554
Nd10 O6 2.392532 1_554
Nd10 O0 2.446771 1_545
Nd10 O12 2.493506 1_545
Nd10 O52 2.533466 1_555
Nd10 O46 2.881702 1_555
Nd10 O16 2.900461 1_555
Nd11 O11 2.351635 1_555
Nd11 O40 2.382066 1_556
Nd11 O7 2.392532 1_556
Nd11 O1 2.446771 1_565
Nd11 O13 2.493506 1_565
Nd11 O53 2.533466 1_555
Nd11 O47 2.881702 1_555
Nd11 O17 2.900461 1_555
Nd12 O36 2.369345 1_555
Nd12 O28 2.426009 1_555
Nd12 O8 2.427543 1_555
Nd12 O5 2.450102 1_555
Nd12 O48 2.473585 1_555
Nd12 O19 2.507921 1_555
Nd12 O18 2.535650 1_555
Nd13 O37 2.369345 1_555
Nd13 O29 2.426009 1_555
Nd13 O9 2.427543 1_555
Nd13 O4 2.450102 1_555
Nd13 O49 2.473585 1_555
Nd13 O18 2.507921 1_555
Nd13 O19 2.535650 1_555
Nd14 O38 2.369345 1_455
Nd14 O30 2.426009 1_555
Nd14 O10 2.427543 1_455
Nd14 O7 2.450102 1_555
Nd14 O50 2.473585 1_555
Nd14 O17 2.507921 1_554
Nd14 O16 2.535650 1_455
Nd15 O39 2.369345 1_655
Nd15 O31 2.426009 1_555
Nd15 O11 2.427543 1_655
Nd15 O6 2.450102 1_555
Nd15 O51 2.473585 1_555
Nd15 O16 2.507921 1_556
Nd15 O17 2.535650 1_655
Nd16 O35 2.369250 1_554
Nd16 O8 2.382087 1_545
Nd16 O34 2.390984 1_555
Nd16 O29 2.426338 1_554
Nd16 O37 2.434888 1_554
Nd16 O48 2.516615 1_545
Nd16 O25 2.521584 1_555
Nd17 O34 2.369250 1_556
Nd17 O9 2.382087 1_565
Nd17 O35 2.390984 1_555
Nd17 O28 2.426338 1_556
Nd17 O36 2.434888 1_556
Nd17 O49 2.516615 1_565
Nd17 O24 2.521584 1_555
Nd18 O33 2.369250 1_555
Nd18 O10 2.382087 1_465
Nd18 O32 2.390984 1_455
Nd18 O31 2.426338 1_455
Nd18 O39 2.434888 1_555
Nd18 O50 2.516615 1_565
Nd18 O27 2.521584 1_555
Nd19 O32 2.369250 1_555
Nd19 O11 2.382087 1_645
Nd19 O33 2.390984 1_655
Nd19 O30 2.426338 1_655
Nd19 O38 2.434888 1_555
Nd19 O51 2.516615 1_545
Nd19 O26 2.521584 1_555
Nd20 O42 2.316865 1_555
Nd20 O35 2.345541 1_554
Nd20 O28 2.370382 1_555
Nd20 O25 2.413110 1_555
Nd20 O52 2.460480 1_555
Nd20 O20 2.590887 1_555
Nd20 O46 2.640304 1_555
Nd21 O43 2.316865 1_555
Nd21 O34 2.345541 1_556
Nd21 O29 2.370382 1_555
Nd21 O24 2.413110 1_555
Nd21 O53 2.460480 1_555
Nd21 O21 2.590887 1_555
Nd21 O47 2.640304 1_555
Nd22 O40 2.316865 1_555
Nd22 O33 2.345541 1_555
Nd22 O30 2.370382 1_555
Nd22 O27 2.413110 1_555
Nd22 O54 2.460480 1_555
Nd22 O22 2.590887 1_555
Nd22 O44 2.640304 1_555
Nd23 O41 2.316865 1_555
Nd23 O32 2.345541 1_555
Nd23 O31 2.370382 1_555
Nd23 O26 2.413110 1_555
Nd23 O55 2.460480 1_555
Nd23 O23 2.590887 1_555
Nd23 O45 2.640304 1_555
B0 O16 1.384989 1_555
B0 O20 1.388884 1_555
B0 O52 1.396802 1_555
B1 O17 1.384989 1_555
B1 O21 1.388884 1_555
B1 O53 1.396802 1_555
B2 O18 1.384989 1_555
B2 O22 1.388884 1_555
B2 O54 1.396802 1_555
B3 O19 1.384989 1_555
B3 O23 1.388884 1_555
B3 O55 1.396802 1_555
B4 O27 1.382928 1_655
B4 O12 1.387905 1_555
B4 O7 1.403908 1_655
B5 O26 1.382928 1_455
B5 O13 1.387905 1_555
B5 O6 1.403908 1_455
B6 O25 1.382928 1_555
B6 O14 1.387905 1_555
B6 O5 1.403908 1_555
B7 O24 1.382928 1_555
B7 O15 1.387905 1_555
B7 O4 1.403908 1_555
B8 O48 1.383876 1_555
B8 O46 1.388940 1_565
B8 O0 1.407080 1_555
B9 O49 1.383876 1_555
B9 O47 1.388940 1_545
B9 O1 1.407080 1_555
B10 O50 1.383876 1_555
B10 O44 1.388940 1_545
B10 O2 1.407080 1_555
B11 O51 1.383876 1_555
B11 O45 1.388940 1_565
B11 O3 1.407080 1_555
O0 O41 2.922497 1_564
O1 O40 2.922497 1_546
O2 O43 2.922497 1_545
O3 O42 2.922497 1_565
O10 O38 2.861649 1_555
O11 O39 2.861649 1_555
O28 O36 2.977134 1_555
O28 O35 3.006411 1_554
O28 O48 3.080590 1_555
O28 O5 3.123753 1_555
O29 O37 2.977134 1_555
O29 O34 3.006411 1_556
O29 O49 3.080590 1_555
O29 O4 3.123753 1_555
O30 O38 2.977134 1_455
O30 O33 3.006411 1_555
O30 O50 3.080590 1_555
O30 O7 3.123753 1_555
O31 O39 2.977134 1_655
O31 O32 3.006411 1_555
O31 O51 3.080590 1_555
O31 O6 3.123753 1_555
O32 O55 2.936351 1_555
O32 O38 2.944483 1_555
O32 O33 2.949188 1_655
O33 O54 2.936351 1_555
O33 O39 2.944483 1_555
O34 O53 2.936351 1_554
O34 O36 2.944483 1_555
O34 O35 2.949188 1_554
O35 O52 2.936351 1_556
O35 O37 2.944483 1_555
O36 O8 2.861649 1_555
O36 O40 2.921156 1_555
O36 O49 3.033021 1_564
O37 O9 2.861649 1_555
O37 O41 2.921156 1_555
O37 O48 3.033021 1_546
O38 O42 2.921156 1_555
O38 O51 3.033021 1_545
O39 O43 2.921156 1_555
O39 O50 3.033021 1_565
O40 O53 2.798375 1_554
O41 O52 2.798375 1_556
O42 O55 2.798375 1_555
O43 O54 2.798375 1_555
