# generated using pymatgen
data_Na4Cr2H6O11
_symmetry_space_group_name_H-M   'P 1'
_cell_length_a   5.55735698
_cell_length_b   5.55735698
_cell_length_c   18.19683696
_cell_angle_alpha   96.71930806
_cell_angle_beta   96.71930806
_cell_angle_gamma   103.51866934
_symmetry_Int_Tables_number   1
_chemical_formula_structural   Na4Cr2H6O11
_chemical_formula_sum   'Na8 Cr4 H12 O22'
_cell_volume   536.57260798
_cell_formula_units_Z   2
loop_
 _symmetry_equiv_pos_site_id
 _symmetry_equiv_pos_as_xyz
  1  'x, y, z'
loop_
 _atom_site_type_symbol
 _atom_site_label
 _atom_site_symmetry_multiplicity
 _atom_site_fract_x
 _atom_site_fract_y
 _atom_site_fract_z
 _atom_site_occupancy
  Na  Na0  1  0.56407500  0.23769100  0.18954400  1
  Na  Na1  1  0.04814700  0.37453100  0.81045600  1
  Na  Na2  1  0.62453100  0.79814700  0.31045600  1
  Na  Na3  1  0.48769100  0.31407500  0.68954400  1
  Na  Na4  1  0.90084700  0.31395100  0.00718000  1
  Na  Na5  1  0.30677100  0.89366700  0.99282000  1
  Na  Na6  1  0.14366700  0.05677100  0.49282000  1
  Na  Na7  1  0.56395100  0.65084700  0.50718000  1
  Cr  Cr0  1  0.86412500  0.84041500  0.12271000  1
  Cr  Cr1  1  0.71770500  0.74141500  0.87729000  1
  Cr  Cr2  1  0.99141500  0.46770500  0.37729000  1
  Cr  Cr3  1  0.09041500  0.61412500  0.62271000  1
  H  H0  1  0.15924200  0.49198000  0.23031600  1
  H  H1  1  0.26166400  0.92892500  0.76968400  1
  H  H2  1  0.17892500  0.01166400  0.26968400  1
  H  H3  1  0.74198000  0.90924200  0.73031600  1
  H  H4  1  0.27792600  0.63507900  0.16921800  1
  H  H5  1  0.46586100  0.10870900  0.83078200  1
  H  H6  1  0.35870900  0.21586100  0.33078200  1
  H  H7  1  0.88507900  0.02792600  0.66921800  1
  H  H8  1  0.46710700  0.41907000  0.04263600  1
  H  H9  1  0.37643400  0.42447000  0.95736400  1
  H  H10  1  0.67447000  0.12643400  0.45736400  1
  H  H11  1  0.66907000  0.21710700  0.54263600  1
  O  O0  1  0.73297100  0.53106800  0.10418300  1
  O  O1  1  0.42688600  0.62878900  0.89581700  1
  O  O2  1  0.87878900  0.17688600  0.39581700  1
  O  O3  1  0.78106800  0.48297100  0.60418300  1
  O  O4  1  0.71179500  0.98498000  0.06512100  1
  O  O5  1  0.91985900  0.64667400  0.93487900  1
  O  O6  1  0.89667400  0.66985900  0.43487900  1
  O  O7  1  0.23498000  0.46179500  0.56512100  1
  O  O8  1  0.84216700  0.94818900  0.20988400  1
  O  O9  1  0.73830500  0.63228200  0.79011600  1
  O  O10  1  0.88228200  0.48830500  0.29011600  1
  O  O11  1  0.19818900  0.59216700  0.70988400  1
  O  O12  1  0.16643400  0.89358800  0.11239300  1
  O  O13  1  0.78119500  0.05404100  0.88760700  1
  O  O14  1  0.30404100  0.53119500  0.38760700  1
  O  O15  1  0.14358800  0.91643400  0.61239300  1
  O  O16  1  0.31239100  0.52950700  0.20692300  1
  O  O17  1  0.32258400  0.10546700  0.79307700  1
  O  O18  1  0.35546700  0.07258400  0.29307700  1
  O  O19  1  0.77950700  0.06239100  0.70692300  1
  O  O20  1  0.33230900  0.33230900  0.00000000  1
  O  O21  1  0.58230900  0.08230900  0.50000000  1
loop_
_geom_bond_atom_site_label_1
_geom_bond_atom_site_label_2
_geom_bond_distance
_geom_bond_site_symmetry_2
Na0 O16 2.393813 1_555
Na0 O10 2.431239 1_555
Na0 O18 2.480640 1_555
Na0 O0 2.484008 1_555
Na0 O8 2.506359 1_545
Na0 O12 2.679790 1_545
Na0 O4 2.828840 1_545
Na1 O17 2.393817 1_555
Na1 O11 2.431242 1_555
Na1 O19 2.480637 1_455
Na1 O1 2.484013 1_555
Na1 O9 2.506355 1_455
Na1 O13 2.679790 1_455
Na1 O5 2.828840 1_455
Na2 O18 2.393817 1_565
Na2 O8 2.431242 1_555
Na2 O16 2.480637 1_555
Na2 O2 2.484013 1_565
Na2 O10 2.506355 1_555
Na2 O14 2.679790 1_555
Na2 O6 2.828840 1_555
Na3 O19 2.393813 1_555
Na3 O9 2.431239 1_555
Na3 O17 2.480640 1_555
Na3 O3 2.484008 1_555
Na3 O11 2.506359 1_555
Na3 O15 2.679790 1_545
Na3 O7 2.828840 1_555
Na4 O4 2.317346 1_545
Na4 O5 2.381511 1_554
Na4 O20 2.395606 1_655
Na4 O13 2.395776 1_554
Na4 O0 2.419765 1_555
Na5 O5 2.317346 1_455
Na5 O4 2.381511 1_556
Na5 O20 2.395606 1_566
Na5 O12 2.395776 1_556
Na5 O1 2.419765 1_555
Na6 O6 2.317346 1_445
Na6 O7 2.381511 1_555
Na6 O21 2.395606 1_555
Na6 O15 2.395776 1_545
Na6 O2 2.419765 1_455
Na7 O7 2.317346 1_555
Na7 O6 2.381511 1_555
Na7 O21 2.395606 1_565
Na7 O14 2.395776 1_555
Na7 O3 2.419765 1_555
Cr0 O8 1.657430 1_555
Cr0 O4 1.663630 1_555
Cr0 O12 1.673255 1_655
Cr0 O0 1.679713 1_555
Cr1 O9 1.657432 1_555
Cr1 O5 1.663630 1_555
Cr1 O13 1.673255 1_565
Cr1 O1 1.679707 1_555
Cr2 O10 1.657432 1_555
Cr2 O6 1.663630 1_555
Cr2 O14 1.673255 1_655
Cr2 O2 1.679707 1_555
Cr3 O11 1.657430 1_555
Cr3 O7 1.663630 1_555
Cr3 O15 1.673255 1_555
Cr3 O3 1.679713 1_455
H0 O16 0.985720 1_555
H0 O10 1.983937 1_455
H1 O17 0.985720 1_565
H1 O11 1.983928 1_555
H2 O18 0.985720 1_555
H2 O8 1.983928 1_445
H3 O19 0.985720 1_565
H3 O9 1.983937 1_555
H4 O16 0.983686 1_555
H4 O12 2.032459 1_555
H5 O17 0.983683 1_555
H5 O13 2.032462 1_555
H6 O18 0.983683 1_555
H6 O14 2.032462 1_555
H7 O19 0.983686 1_555
H7 O15 2.032459 1_645
H8 O20 1.001587 1_555
H8 O0 1.686542 1_555
H8 Na4 2.738954 1_555
H9 O20 1.001584 1_556
H9 O1 1.686551 1_555
H9 Na5 2.738959 1_555
H10 O21 1.001584 1_555
H10 O2 1.686551 1_555
H10 Na6 2.738959 1_655
H11 O21 1.001587 1_555
H11 O3 1.686542 1_555
H11 Na7 2.738954 1_555
