# generated using pymatgen
data_TbScSi2
_symmetry_space_group_name_H-M   'P 1'
_cell_length_a   5.55490966
_cell_length_b   5.55490966
_cell_length_c   3.77391900
_cell_angle_alpha   90.00000000
_cell_angle_beta   90.00000000
_cell_angle_gamma   135.82644466
_symmetry_Int_Tables_number   1
_chemical_formula_structural   TbScSi2
_chemical_formula_sum   'Tb1 Sc1 Si2'
_cell_volume   81.14765920
_cell_formula_units_Z   1
loop_
 _symmetry_equiv_pos_site_id
 _symmetry_equiv_pos_as_xyz
  1  'x, y, z'
loop_
 _atom_site_type_symbol
 _atom_site_label
 _atom_site_symmetry_multiplicity
 _atom_site_fract_x
 _atom_site_fract_y
 _atom_site_fract_z
 _atom_site_occupancy
  Tb  Tb0  1  0.14077100  0.85922900  0.50000000  1
  Sc  Sc0  1  0.86206600  0.13793400  0.00000000  1
  Si  Si0  1  0.42083100  0.57916900  0.50000000  1
  Si  Si1  1  0.57633200  0.42366800  0.00000000  1
loop_
_geom_bond_atom_site_label_1
_geom_bond_atom_site_label_2
_geom_bond_distance
_geom_bond_site_symmetry_2
Sc0 Si0 2.879110 1_655
Sc0 Si0 2.879110 1_654
Sc0 Si0 2.879110 1_545
Sc0 Si0 2.879110 1_544
Sc0 Si1 2.941497 1_555
Sc0 Si1 3.037778 1_655
Sc0 Si1 3.037778 1_545
Sc0 Tb0 3.434030 1_644
Sc0 Tb0 3.434030 1_645
Sc0 Tb0 3.621211 1_655
Sc0 Tb0 3.621211 1_654
Sc0 Tb0 3.621211 1_545
Sc0 Tb0 3.621211 1_544
Si0 Si1 2.474512 1_556
Si0 Si1 2.474512 1_555
Si0 Tb0 2.883086 1_555
Si0 Tb0 3.080453 1_545
Si0 Tb0 3.080453 1_655
Si1 Tb0 2.891947 1_655
Si1 Tb0 2.891947 1_654
Si1 Tb0 2.891947 1_544
Si1 Tb0 2.891947 1_545
