# generated using pymatgen
data_Hf5Zr5Ga6
_symmetry_space_group_name_H-M   'P 1'
_cell_length_a   8.01564447
_cell_length_b   8.01567157
_cell_length_c   5.71559197
_cell_angle_alpha   90.00000000
_cell_angle_beta   90.00000000
_cell_angle_gamma   119.79520844
_symmetry_Int_Tables_number   1
_chemical_formula_structural   Hf5Zr5Ga6
_chemical_formula_sum   'Hf5 Zr5 Ga6'
_cell_volume   318.68581449
_cell_formula_units_Z   1
loop_
 _symmetry_equiv_pos_site_id
 _symmetry_equiv_pos_as_xyz
  1  'x, y, z'
loop_
 _atom_site_type_symbol
 _atom_site_label
 _atom_site_symmetry_multiplicity
 _atom_site_fract_x
 _atom_site_fract_y
 _atom_site_fract_z
 _atom_site_occupancy
  Hf  Hf0  1  0.33294570  0.66686408  0.25017030  1
  Hf  Hf1  1  0.66686287  0.33294074  0.25016901  1
  Hf  Hf2  1  0.66686287  0.33294074  0.74983099  1
  Hf  Hf3  1  0.33294570  0.66686408  0.74982970  1
  Hf  Hf4  1  0.24608032  0.24608394  0.50000000  1
  Zr  Zr0  1  0.75777595  -0.00005966  0.50000000  1
  Zr  Zr1  1  -0.00004841  0.75778215  0.50000000  1
  Zr  Zr2  1  0.75430341  0.75430523  0.00000000  1
  Zr  Zr3  1  0.24245286  0.00057335  -0.00000000  1
  Zr  Zr4  1  0.00058269  0.24246398  -0.00000000  1
  Ga  Ga0  1  0.60536324  0.60536915  0.50000000  1
  Ga  Ga1  1  0.39334429  0.00123787  0.50000000  1
  Ga  Ga2  1  0.00124068  0.39334755  0.50000000  1
  Ga  Ga3  1  0.39365923  0.39366440  0.00000000  1
  Ga  Ga4  1  0.60589333  0.99977714  0.00000000  1
  Ga  Ga5  1  0.99977528  0.60588627  -0.00000000  1
loop_
_geom_bond_atom_site_label_1
_geom_bond_atom_site_label_2
_geom_bond_distance
_geom_bond_site_symmetry_2
Hf0 Hf3 2.855849 1_555
Hf0 Hf3 2.859743 1_554
Hf0 Hf4 3.400868 1_555
Hf0 Zr2 3.404468 1_555
Hf0 Zr1 3.409934 1_555
Hf0 Zr3 3.413800 1_565
Hf0 Zr4 3.421674 1_555
Hf0 Zr0 3.424580 1_565
Hf1 Hf2 2.855864 1_555
Hf1 Hf2 2.859728 1_554
Hf1 Hf4 3.400898 1_555
Hf1 Zr2 3.404525 1_555
Hf1 Zr0 3.409964 1_555
Hf1 Zr4 3.413788 1_655
Hf1 Zr3 3.421725 1_555
Hf1 Zr1 3.424671 1_655
Hf2 Hf4 3.400898 1_555
Hf2 Zr2 3.404525 1_556
Hf2 Zr0 3.409964 1_555
Hf2 Zr4 3.413788 1_656
Hf2 Zr3 3.421725 1_556
Hf2 Zr1 3.424671 1_655
Hf3 Hf4 3.400868 1_555
Hf3 Zr2 3.404468 1_556
Hf3 Zr1 3.409934 1_555
Hf3 Zr3 3.413800 1_566
Hf3 Zr4 3.421674 1_556
Hf3 Zr0 3.424580 1_565
Hf4 Zr1 3.396770 1_545
Hf4 Zr0 3.396777 1_455
Hf4 Zr4 3.461707 1_555
Hf4 Zr4 3.461707 1_556
Hf4 Zr3 3.461753 1_556
Hf4 Zr3 3.461753 1_555
Zr0 Zr1 3.358656 1_645
Zr0 Zr4 3.460339 1_656
Zr0 Zr4 3.460339 1_655
Zr0 Zr2 3.462657 1_546
Zr0 Zr2 3.462657 1_545
Zr1 Zr3 3.460253 1_566
Zr1 Zr3 3.460253 1_565
Zr1 Zr2 3.462703 1_456
Zr1 Zr2 3.462703 1_455
Zr2 Zr3 3.395713 1_665
Zr2 Zr4 3.395790 1_665
Zr3 Zr4 3.354683 1_555
Ga0 Zr0 2.766871 1_565
Ga0 Zr1 2.766988 1_655
Ga0 Hf3 2.849515 1_555
Ga0 Hf0 2.849515 1_555
Ga0 Hf1 2.849620 1_555
Ga0 Hf2 2.849620 1_555
Ga0 Hf4 2.888808 1_555
Ga0 Zr2 3.098561 1_555
Ga0 Zr2 3.098561 1_556
Ga0 Ga3 3.326332 1_556
Ga0 Ga3 3.326332 1_555
Ga1 Hf4 2.747278 1_555
Ga1 Zr1 2.763345 1_545
Ga1 Hf1 2.849897 1_555
Ga1 Hf2 2.849897 1_555
Ga1 Hf3 2.857874 1_545
Ga1 Hf0 2.857874 1_545
Ga1 Zr0 2.926337 1_555
Ga1 Zr3 3.102176 1_555
Ga1 Zr3 3.102176 1_556
Ga1 Ga4 3.330107 1_546
Ga1 Ga4 3.330107 1_545
Ga2 Hf4 2.747225 1_555
Ga2 Zr0 2.763455 1_455
Ga2 Hf3 2.849895 1_555
Ga2 Hf0 2.849895 1_555
Ga2 Hf2 2.857877 1_455
Ga2 Hf1 2.857877 1_455
Ga2 Zr1 2.926336 1_555
Ga2 Zr4 3.102163 1_556
Ga2 Zr4 3.102163 1_555
Ga2 Ga5 3.330077 1_456
Ga2 Ga5 3.330077 1_455
Ga3 Zr4 2.757028 1_555
Ga3 Zr3 2.757140 1_555
Ga3 Hf0 2.852377 1_555
Ga3 Hf3 2.852377 1_554
Ga3 Hf2 2.852440 1_554
Ga3 Hf1 2.852440 1_555
Ga3 Zr2 2.899731 1_555
Ga3 Hf4 3.094356 1_555
Ga3 Hf4 3.094356 1_554
Ga4 Zr2 2.759144 1_555
Ga4 Zr4 2.770729 1_665
Ga4 Hf2 2.849220 1_564
Ga4 Hf1 2.849220 1_565
Ga4 Hf0 2.854836 1_555
Ga4 Hf3 2.854836 1_554
Ga4 Zr3 2.916386 1_565
Ga4 Zr0 3.106054 1_565
Ga4 Zr0 3.106054 1_564
Ga5 Zr2 2.759196 1_555
Ga5 Zr3 2.770712 1_665
Ga5 Hf0 2.849242 1_655
Ga5 Hf3 2.849242 1_654
Ga5 Hf2 2.854821 1_554
Ga5 Hf1 2.854821 1_555
Ga5 Zr4 2.916295 1_655
Ga5 Zr1 3.106077 1_654
Ga5 Zr1 3.106077 1_655
