# generated using pymatgen
data_Er2HfS5
_symmetry_space_group_name_H-M   'P 1'
_cell_length_a   7.21373400
_cell_length_b   7.67936700
_cell_length_c   11.51738400
_cell_angle_alpha   90.00000000
_cell_angle_beta   90.00000000
_cell_angle_gamma   90.00000000
_symmetry_Int_Tables_number   1
_chemical_formula_structural   Er2HfS5
_chemical_formula_sum   'Er8 Hf4 S20'
_cell_volume   638.02749440
_cell_formula_units_Z   4
loop_
 _symmetry_equiv_pos_site_id
 _symmetry_equiv_pos_as_xyz
  1  'x, y, z'
loop_
 _atom_site_type_symbol
 _atom_site_label
 _atom_site_symmetry_multiplicity
 _atom_site_fract_x
 _atom_site_fract_y
 _atom_site_fract_z
 _atom_site_occupancy
  Er  Er0  1  0.52379200  0.00275600  0.32150800  1
  Er  Er1  1  0.97620800  0.49724400  0.82150800  1
  Er  Er2  1  0.47620800  0.50275600  0.67849200  1
  Er  Er3  1  0.02379200  0.99724400  0.17849200  1
  Er  Er4  1  0.47620800  0.99724400  0.67849200  1
  Er  Er5  1  0.02379200  0.50275600  0.17849200  1
  Er  Er6  1  0.52379200  0.49724400  0.32150800  1
  Er  Er7  1  0.97620800  0.00275600  0.82150800  1
  Hf  Hf0  1  0.07544000  0.75000000  0.49416700  1
  Hf  Hf1  1  0.42456000  0.75000000  0.99416700  1
  Hf  Hf2  1  0.92456000  0.25000000  0.50583300  1
  Hf  Hf3  1  0.57544000  0.25000000  0.00583300  1
  S  S0  1  0.83854300  0.53634500  0.59536400  1
  S  S1  1  0.66145700  0.96365500  0.09536400  1
  S  S2  1  0.16145700  0.03634500  0.40463600  1
  S  S3  1  0.33854300  0.46365500  0.90463600  1
  S  S4  1  0.16145700  0.46365500  0.40463600  1
  S  S5  1  0.33854300  0.03634500  0.90463600  1
  S  S6  1  0.83854300  0.96365500  0.59536400  1
  S  S7  1  0.66145700  0.53634500  0.09536400  1
  S  S8  1  0.83213400  0.75000000  0.31890800  1
  S  S9  1  0.66786600  0.75000000  0.81890800  1
  S  S10  1  0.16786600  0.25000000  0.68109200  1
  S  S11  1  0.33213400  0.25000000  0.18109200  1
  S  S12  1  0.44761300  0.75000000  0.49721500  1
  S  S13  1  0.05238700  0.75000000  0.99721500  1
  S  S14  1  0.55238700  0.25000000  0.50278500  1
  S  S15  1  0.94761300  0.25000000  0.00278500  1
  S  S16  1  0.18883900  0.75000000  0.70746600  1
  S  S17  1  0.31116100  0.75000000  0.20746600  1
  S  S18  1  0.81116100  0.25000000  0.29253400  1
  S  S19  1  0.68883900  0.25000000  0.79253400  1
loop_
_geom_bond_atom_site_label_1
_geom_bond_atom_site_label_2
_geom_bond_distance
_geom_bond_site_symmetry_2
Er0 S2 2.795545 1_555
Er0 S17 2.800970 1_545
Er0 S1 2.803612 1_545
Er0 S14 2.829592 1_555
Er0 S18 2.830844 1_555
Er0 S11 2.851647 1_555
Er0 S12 2.857410 1_545
Er0 S8 2.952270 1_545
Er1 S3 2.795545 1_655
Er1 S16 2.800970 1_655
Er1 S0 2.803612 1_555
Er1 S15 2.829592 1_556
Er1 S19 2.830844 1_555
Er1 S10 2.851647 1_655
Er1 S13 2.857410 1_655
Er1 S9 2.952270 1_555
Er2 S0 2.795545 1_555
Er2 S19 2.800970 1_555
Er2 S3 2.803612 1_555
Er2 S12 2.829592 1_555
Er2 S16 2.830844 1_555
Er2 S9 2.851647 1_555
Er2 S14 2.857410 1_555
Er2 S10 2.952270 1_555
Er3 S1 2.795545 1_455
Er3 S18 2.800970 1_465
Er3 S2 2.803612 1_565
Er3 S13 2.829592 1_554
Er3 S17 2.830844 1_555
Er3 S8 2.851647 1_455
Er3 S15 2.857410 1_465
Er3 S11 2.952270 1_565
Er4 S6 2.795545 1_555
Er4 S19 2.800970 1_565
Er4 S5 2.803612 1_565
Er4 S12 2.829592 1_555
Er4 S16 2.830844 1_555
Er4 S9 2.851647 1_555
Er4 S14 2.857410 1_565
Er4 S10 2.952270 1_565
Er5 S7 2.795545 1_455
Er5 S18 2.800970 1_455
Er5 S4 2.803612 1_555
Er5 S13 2.829592 1_554
Er5 S17 2.830844 1_555
Er5 S8 2.851647 1_455
Er5 S15 2.857410 1_455
Er5 S11 2.952270 1_555
Er6 S4 2.795545 1_555
Er6 S17 2.800970 1_555
Er6 S7 2.803612 1_555
Er6 S14 2.829592 1_555
Er6 S18 2.830844 1_555
Er6 S11 2.851647 1_555
Er6 S12 2.857410 1_555
Er6 S8 2.952270 1_555
Er7 S5 2.795545 1_655
Er7 S16 2.800970 1_645
Er7 S6 2.803612 1_545
Er7 S15 2.829592 1_556
Er7 S19 2.830844 1_555
Er7 S10 2.851647 1_655
Er7 S13 2.857410 1_645
Er7 S9 2.952270 1_545
Hf0 S2 2.506730 1_565
Hf0 S4 2.506730 1_555
Hf0 S16 2.589263 1_555
Hf0 S6 2.640235 1_455
Hf0 S0 2.640235 1_455
Hf0 S8 2.674879 1_455
Hf0 S12 2.684987 1_555
Hf1 S5 2.506730 1_565
Hf1 S3 2.506730 1_555
Hf1 S17 2.589263 1_556
Hf1 S1 2.640235 1_556
Hf1 S7 2.640235 1_556
Hf1 S9 2.674879 1_555
Hf1 S13 2.684987 1_555
Hf2 S0 2.506730 1_555
Hf2 S6 2.506730 1_545
Hf2 S18 2.589263 1_555
Hf2 S4 2.640235 1_655
Hf2 S2 2.640235 1_655
Hf2 S10 2.674879 1_655
Hf2 S14 2.684987 1_555
Hf3 S7 2.506730 1_555
Hf3 S1 2.506730 1_545
Hf3 S19 2.589263 1_554
Hf3 S3 2.640235 1_554
Hf3 S5 2.640235 1_554
Hf3 S11 2.674879 1_555
Hf3 S15 2.684987 1_555
S0 S14 3.198975 1_555
S0 S4 3.250110 1_655
S0 S16 3.277872 1_655
S0 S6 3.281470 1_555
S0 S9 3.291913 1_555
S0 S19 3.340437 1_555
S0 S10 3.384371 1_655
S0 S12 3.452916 1_555
S0 S8 3.582223 1_555
S1 S15 3.198975 1_565
S1 S5 3.250110 1_564
S1 S17 3.277872 1_555
S1 S7 3.281470 1_555
S1 S8 3.291913 1_555
S1 S18 3.340437 1_565
S1 S11 3.384371 1_565
S1 S13 3.452916 1_654
S1 S9 3.582223 1_554
S2 S6 3.250110 1_445
S2 S4 3.281470 1_555
S2 S8 3.384371 1_445
S3 S7 3.250110 1_556
S3 S5 3.281470 1_555
S3 S9 3.384371 1_555
S4 S8 3.384371 1_455
S5 S9 3.384371 1_545
S6 S9 3.291913 1_555
S6 S8 3.582223 1_555
S7 S8 3.291913 1_555
S7 S9 3.582223 1_554
S10 S3 3.291913 1_555
S10 S5 3.291913 1_555
S10 S6 3.384371 1_445
S10 S14 3.451310 1_555
S10 S4 3.582223 1_555
S10 S2 3.582223 1_555
S11 S4 3.291913 1_555
S11 S2 3.291913 1_555
S11 S7 3.384371 1_555
S11 S15 3.451310 1_455
S11 S3 3.582223 1_554
S11 S5 3.582223 1_554
S12 S16 3.057537 1_555
S12 S2 3.198975 1_565
S12 S4 3.198975 1_555
S12 S8 3.451310 1_555
S12 S6 3.452916 1_555
S13 S17 3.057537 1_556
S13 S5 3.198975 1_565
S13 S3 3.198975 1_555
S13 S9 3.451310 1_455
S13 S7 3.452916 1_456
S14 S18 3.057537 1_555
S14 S6 3.198975 1_545
S14 S4 3.452916 1_555
S14 S2 3.452916 1_555
S15 S19 3.057537 1_554
S15 S7 3.198975 1_555
S15 S3 3.452916 1_654
S15 S5 3.452916 1_654
S16 S6 3.277872 1_455
S16 S5 3.340437 1_565
S16 S3 3.340437 1_555
S17 S7 3.277872 1_555
S17 S2 3.340437 1_565
S17 S4 3.340437 1_555
S18 S4 3.277872 1_655
S18 S2 3.277872 1_655
S18 S7 3.340437 1_555
S19 S3 3.277872 1_555
S19 S5 3.277872 1_555
S19 S6 3.340437 1_545
