# generated using pymatgen
data_Er3Tl2Cu5S8
_symmetry_space_group_name_H-M   'P 1'
_cell_length_a   14.36826347
_cell_length_b   14.36826347
_cell_length_c   28.84327487
_cell_angle_alpha   69.58197486
_cell_angle_beta   69.58197486
_cell_angle_gamma   31.56722596
_symmetry_Int_Tables_number   1
_chemical_formula_structural   Er3Tl2Cu5S8
_chemical_formula_sum   'Er24 Tl16 Cu40 S64'
_cell_volume   2905.16295349
_cell_formula_units_Z   8
loop_
 _symmetry_equiv_pos_site_id
 _symmetry_equiv_pos_as_xyz
  1  'x, y, z'
loop_
 _atom_site_type_symbol
 _atom_site_label
 _atom_site_symmetry_multiplicity
 _atom_site_fract_x
 _atom_site_fract_y
 _atom_site_fract_z
 _atom_site_occupancy
  Er  Er0_0  1  0.01854650  0.01854650  0.29613500  1
  Er  Er0_1  1  0.01854650  0.01854650  0.79613500  1
  Er  Er0_2  1  0.01854650  0.51854650  0.29613500  1
  Er  Er0_3  1  0.01854650  0.51854650  0.79613500  1
  Er  Er0_4  1  0.51854650  0.01854650  0.29613500  1
  Er  Er0_5  1  0.51854650  0.01854650  0.79613500  1
  Er  Er0_6  1  0.51854650  0.51854650  0.29613500  1
  Er  Er0_7  1  0.51854650  0.51854650  0.79613500  1
  Er  Er1_0  1  0.16690100  0.16690100  0.41362900  1
  Er  Er1_1  1  0.16690100  0.16690100  0.91362900  1
  Er  Er1_2  1  0.16690100  0.66690100  0.41362900  1
  Er  Er1_3  1  0.16690100  0.66690100  0.91362900  1
  Er  Er1_4  1  0.66690100  0.16690100  0.41362900  1
  Er  Er1_5  1  0.66690100  0.16690100  0.91362900  1
  Er  Er1_6  1  0.66690100  0.66690100  0.41362900  1
  Er  Er1_7  1  0.66690100  0.66690100  0.91362900  1
  Er  Er2_0  1  0.09854150  0.09854150  0.10640100  1
  Er  Er2_1  1  0.09854150  0.09854150  0.60640100  1
  Er  Er2_2  1  0.09854150  0.59854150  0.10640100  1
  Er  Er2_3  1  0.09854150  0.59854150  0.60640100  1
  Er  Er2_4  1  0.59854150  0.09854150  0.10640100  1
  Er  Er2_5  1  0.59854150  0.09854150  0.60640100  1
  Er  Er2_6  1  0.59854150  0.59854150  0.10640100  1
  Er  Er2_7  1  0.59854150  0.59854150  0.60640100  1
  Tl  Tl0_0  1  0.49994200  0.49994200  0.49981900  1
  Tl  Tl0_1  1  0.49994200  0.49994200  0.99981900  1
  Tl  Tl0_2  1  0.49994200  0.99994200  0.49981900  1
  Tl  Tl0_3  1  0.49994200  0.99994200  0.99981900  1
  Tl  Tl0_4  1  0.99994200  0.49994200  0.49981900  1
  Tl  Tl0_5  1  0.99994200  0.49994200  0.99981900  1
  Tl  Tl0_6  1  0.99994200  0.99994200  0.49981900  1
  Tl  Tl0_7  1  0.99994200  0.99994200  0.99981900  1
  Tl  Tl1_0  1  0.18576350  0.18576350  0.20687750  1
  Tl  Tl1_1  1  0.18576350  0.18576350  0.70687750  1
  Tl  Tl1_2  1  0.18576350  0.68576350  0.20687750  1
  Tl  Tl1_3  1  0.18576350  0.68576350  0.70687750  1
  Tl  Tl1_4  1  0.68576350  0.18576350  0.20687750  1
  Tl  Tl1_5  1  0.68576350  0.18576350  0.70687750  1
  Tl  Tl1_6  1  0.68576350  0.68576350  0.20687750  1
  Tl  Tl1_7  1  0.68576350  0.68576350  0.70687750  1
  Cu  Cu0_0  1  0.35876950  0.35876950  0.00910000  1
  Cu  Cu0_1  1  0.35876950  0.35876950  0.50910000  1
  Cu  Cu0_2  1  0.35876950  0.85876950  0.00910000  1
  Cu  Cu0_3  1  0.35876950  0.85876950  0.50910000  1
  Cu  Cu0_4  1  0.85876950  0.35876950  0.00910000  1
  Cu  Cu0_5  1  0.85876950  0.35876950  0.50910000  1
  Cu  Cu0_6  1  0.85876950  0.85876950  0.00910000  1
  Cu  Cu0_7  1  0.85876950  0.85876950  0.50910000  1
  Cu  Cu1_0  1  0.32837650  0.32837650  0.20351100  1
  Cu  Cu1_1  1  0.32837650  0.32837650  0.70351100  1
  Cu  Cu1_2  1  0.32837650  0.82837650  0.20351100  1
  Cu  Cu1_3  1  0.32837650  0.82837650  0.70351100  1
  Cu  Cu1_4  1  0.82837650  0.32837650  0.20351100  1
  Cu  Cu1_5  1  0.82837650  0.32837650  0.70351100  1
  Cu  Cu1_6  1  0.82837650  0.82837650  0.20351100  1
  Cu  Cu1_7  1  0.82837650  0.82837650  0.70351100  1
  Cu  Cu2_0  1  0.48957450  0.48957450  0.10449150  1
  Cu  Cu2_1  1  0.48957450  0.48957450  0.60449150  1
  Cu  Cu2_2  1  0.48957450  0.98957450  0.10449150  1
  Cu  Cu2_3  1  0.48957450  0.98957450  0.60449150  1
  Cu  Cu2_4  1  0.98957450  0.48957450  0.10449150  1
  Cu  Cu2_5  1  0.98957450  0.48957450  0.60449150  1
  Cu  Cu2_6  1  0.98957450  0.98957450  0.10449150  1
  Cu  Cu2_7  1  0.98957450  0.98957450  0.60449150  1
  Cu  Cu3_0  1  0.39357600  0.39357600  0.33124850  1
  Cu  Cu3_1  1  0.39357600  0.39357600  0.83124850  1
  Cu  Cu3_2  1  0.39357600  0.89357600  0.33124850  1
  Cu  Cu3_3  1  0.39357600  0.89357600  0.83124850  1
  Cu  Cu3_4  1  0.89357600  0.39357600  0.33124850  1
  Cu  Cu3_5  1  0.89357600  0.39357600  0.83124850  1
  Cu  Cu3_6  1  0.89357600  0.89357600  0.33124850  1
  Cu  Cu3_7  1  0.89357600  0.89357600  0.83124850  1
  Cu  Cu4_0  1  0.29280850  0.29280850  0.37867100  1
  Cu  Cu4_1  1  0.29280850  0.29280850  0.87867100  1
  Cu  Cu4_2  1  0.29280850  0.79280850  0.37867100  1
  Cu  Cu4_3  1  0.29280850  0.79280850  0.87867100  1
  Cu  Cu4_4  1  0.79280850  0.29280850  0.37867100  1
  Cu  Cu4_5  1  0.79280850  0.29280850  0.87867100  1
  Cu  Cu4_6  1  0.79280850  0.79280850  0.37867100  1
  Cu  Cu4_7  1  0.79280850  0.79280850  0.87867100  1
  S  S0_0  1  0.28757200  0.28757200  0.08459350  1
  S  S0_1  1  0.28757200  0.28757200  0.58459350  1
  S  S0_2  1  0.28757200  0.78757200  0.08459350  1
  S  S0_3  1  0.28757200  0.78757200  0.58459350  1
  S  S0_4  1  0.78757200  0.28757200  0.08459350  1
  S  S0_5  1  0.78757200  0.28757200  0.58459350  1
  S  S0_6  1  0.78757200  0.78757200  0.08459350  1
  S  S0_7  1  0.78757200  0.78757200  0.58459350  1
  S  S1_0  1  0.15624350  0.15624350  0.00834800  1
  S  S1_1  1  0.15624350  0.15624350  0.50834800  1
  S  S1_2  1  0.15624350  0.65624350  0.00834800  1
  S  S1_3  1  0.15624350  0.65624350  0.50834800  1
  S  S1_4  1  0.65624350  0.15624350  0.00834800  1
  S  S1_5  1  0.65624350  0.15624350  0.50834800  1
  S  S1_6  1  0.65624350  0.65624350  0.00834800  1
  S  S1_7  1  0.65624350  0.65624350  0.50834800  1
  S  S2_0  1  0.34769650  0.34769650  0.42480250  1
  S  S2_1  1  0.34769650  0.34769650  0.92480250  1
  S  S2_2  1  0.34769650  0.84769650  0.42480250  1
  S  S2_3  1  0.34769650  0.84769650  0.92480250  1
  S  S2_4  1  0.84769650  0.34769650  0.42480250  1
  S  S2_5  1  0.84769650  0.34769650  0.92480250  1
  S  S2_6  1  0.84769650  0.84769650  0.42480250  1
  S  S2_7  1  0.84769650  0.84769650  0.92480250  1
  S  S3_0  1  0.40224500  0.40224500  0.12916600  1
  S  S3_1  1  0.40224500  0.40224500  0.62916600  1
  S  S3_2  1  0.40224500  0.90224500  0.12916600  1
  S  S3_3  1  0.40224500  0.90224500  0.62916600  1
  S  S3_4  1  0.90224500  0.40224500  0.12916600  1
  S  S3_5  1  0.90224500  0.40224500  0.62916600  1
  S  S3_6  1  0.90224500  0.90224500  0.12916600  1
  S  S3_7  1  0.90224500  0.90224500  0.62916600  1
  S  S4_0  1  0.03116900  0.03116900  0.20084150  1
  S  S4_1  1  0.03116900  0.03116900  0.70084150  1
  S  S4_2  1  0.03116900  0.53116900  0.20084150  1
  S  S4_3  1  0.03116900  0.53116900  0.70084150  1
  S  S4_4  1  0.53116900  0.03116900  0.20084150  1
  S  S4_5  1  0.53116900  0.03116900  0.70084150  1
  S  S4_6  1  0.53116900  0.53116900  0.20084150  1
  S  S4_7  1  0.53116900  0.53116900  0.70084150  1
  S  S5_0  1  0.33762150  0.33762150  0.28568900  1
  S  S5_1  1  0.33762150  0.33762150  0.78568900  1
  S  S5_2  1  0.33762150  0.83762150  0.28568900  1
  S  S5_3  1  0.33762150  0.83762150  0.78568900  1
  S  S5_4  1  0.83762150  0.33762150  0.28568900  1
  S  S5_5  1  0.83762150  0.33762150  0.78568900  1
  S  S5_6  1  0.83762150  0.83762150  0.28568900  1
  S  S5_7  1  0.83762150  0.83762150  0.78568900  1
  S  S6_0  1  0.19314550  0.19314550  0.31370600  1
  S  S6_1  1  0.19314550  0.19314550  0.81370600  1
  S  S6_2  1  0.19314550  0.69314550  0.31370600  1
  S  S6_3  1  0.19314550  0.69314550  0.81370600  1
  S  S6_4  1  0.69314550  0.19314550  0.31370600  1
  S  S6_5  1  0.69314550  0.19314550  0.81370600  1
  S  S6_6  1  0.69314550  0.69314550  0.31370600  1
  S  S6_7  1  0.69314550  0.69314550  0.81370600  1
  S  S7_0  1  0.49256300  0.49256300  0.39623000  1
  S  S7_1  1  0.49256300  0.49256300  0.89623000  1
  S  S7_2  1  0.49256300  0.99256300  0.39623000  1
  S  S7_3  1  0.49256300  0.99256300  0.89623000  1
  S  S7_4  1  0.99256300  0.49256300  0.39623000  1
  S  S7_5  1  0.99256300  0.49256300  0.89623000  1
  S  S7_6  1  0.99256300  0.99256300  0.39623000  1
  S  S7_7  1  0.99256300  0.99256300  0.89623000  1
loop_
_geom_bond_atom_site_label_1
_geom_bond_atom_site_label_2
_geom_bond_distance
_geom_bond_site_symmetry_2
Er0_0 S4_0 2.642136 1_555
Er0_0 S5_2 2.672206 1_545
Er0_0 S5_4 2.672206 1_455
Er0_0 S7_6 2.710595 1_445
Er0_0 S6_4 2.767082 1_455
Er0_0 S6_2 2.767082 1_545
Er0_1 S4_1 2.642136 1_555
Er0_1 S5_3 2.672206 1_545
Er0_1 S5_5 2.672206 1_455
Er0_1 S7_7 2.710595 1_445
Er0_1 S6_5 2.767082 1_455
Er0_1 S6_3 2.767082 1_545
Er0_2 S4_2 2.642136 1_555
Er0_2 S5_0 2.672206 1_555
Er0_2 S5_6 2.672206 1_455
Er0_2 S7_4 2.710595 1_455
Er0_2 S6_0 2.767082 1_555
Er0_2 S6_6 2.767082 1_455
Er0_3 S4_3 2.642136 1_555
Er0_3 S5_1 2.672206 1_555
Er0_3 S5_7 2.672206 1_455
Er0_3 S7_5 2.710595 1_455
Er0_3 S6_7 2.767082 1_455
Er0_3 S6_1 2.767082 1_555
Er0_4 S4_4 2.642136 1_555
Er0_4 S5_6 2.672206 1_545
Er0_4 S5_0 2.672206 1_555
Er0_4 S7_2 2.710595 1_545
Er0_4 S6_0 2.767082 1_555
Er0_4 S6_6 2.767082 1_545
Er0_5 S4_5 2.642136 1_555
Er0_5 S5_1 2.672206 1_555
Er0_5 S5_7 2.672206 1_545
Er0_5 S7_3 2.710595 1_545
Er0_5 S6_7 2.767082 1_545
Er0_5 S6_1 2.767082 1_555
Er0_6 S4_6 2.642136 1_555
Er0_6 S5_2 2.672206 1_555
Er0_6 S5_4 2.672206 1_555
Er0_6 S7_0 2.710595 1_555
Er0_6 S6_4 2.767082 1_555
Er0_6 S6_2 2.767082 1_555
Er0_7 S4_7 2.642136 1_555
Er0_7 S5_5 2.672206 1_555
Er0_7 S5_3 2.672206 1_555
Er0_7 S7_1 2.710595 1_555
Er0_7 S6_5 2.767082 1_555
Er0_7 S6_3 2.767082 1_555
Er1_0 S1_1 2.639492 1_555
Er1_0 S2_4 2.671622 1_455
Er1_0 S2_2 2.671622 1_545
Er1_0 S6_0 2.704927 1_555
Er1_0 S7_2 2.772501 1_545
Er1_0 S7_4 2.772501 1_455
Er1_1 S1_0 2.639492 1_556
Er1_1 S2_5 2.671622 1_455
Er1_1 S2_3 2.671622 1_545
Er1_1 S6_1 2.704927 1_555
Er1_1 S7_3 2.772501 1_545
Er1_1 S7_5 2.772501 1_455
Er1_2 S1_3 2.639492 1_555
Er1_2 S2_0 2.671622 1_555
Er1_2 S2_6 2.671622 1_455
Er1_2 S6_2 2.704927 1_555
Er1_2 S7_0 2.772501 1_555
Er1_2 S7_6 2.772501 1_455
Er1_3 S1_2 2.639492 1_556
Er1_3 S2_1 2.671622 1_555
Er1_3 S2_7 2.671622 1_455
Er1_3 S6_3 2.704927 1_555
Er1_3 S7_1 2.772501 1_555
Er1_3 S7_7 2.772501 1_455
Er1_4 S1_5 2.639492 1_555
Er1_4 S2_0 2.671622 1_555
Er1_4 S2_6 2.671622 1_545
Er1_4 S6_4 2.704927 1_555
Er1_4 S7_0 2.772501 1_555
Er1_4 S7_6 2.772501 1_545
Er1_5 S1_4 2.639492 1_556
Er1_5 S2_7 2.671622 1_545
Er1_5 S2_1 2.671622 1_555
Er1_5 S6_5 2.704927 1_555
Er1_5 S7_1 2.772501 1_555
Er1_5 S7_7 2.772501 1_545
Er1_6 S1_7 2.639492 1_555
Er1_6 S2_4 2.671622 1_555
Er1_6 S2_2 2.671622 1_555
Er1_6 S6_6 2.704927 1_555
Er1_6 S7_2 2.772501 1_555
Er1_6 S7_4 2.772501 1_555
Er1_7 S1_6 2.639492 1_556
Er1_7 S2_5 2.671622 1_555
Er1_7 S2_3 2.671622 1_555
Er1_7 S6_7 2.704927 1_555
Er1_7 S7_3 2.772501 1_555
Er1_7 S7_5 2.772501 1_555
Er2_0 S3_2 2.676225 1_545
Er2_0 S3_4 2.676225 1_455
Er2_0 S4_0 2.685391 1_555
Er2_0 S1_0 2.696765 1_555
Er2_0 S0_4 2.797450 1_455
Er2_0 S0_2 2.797450 1_545
Er2_1 S3_3 2.676225 1_545
Er2_1 S3_5 2.676225 1_455
Er2_1 S4_1 2.685391 1_555
Er2_1 S1_1 2.696765 1_555
Er2_1 S0_3 2.797450 1_545
Er2_1 S0_5 2.797450 1_455
Er2_2 S3_0 2.676225 1_555
Er2_2 S3_6 2.676225 1_455
Er2_2 S4_2 2.685391 1_555
Er2_2 S1_2 2.696765 1_555
Er2_2 S0_0 2.797450 1_555
Er2_2 S0_6 2.797450 1_455
Er2_3 S3_1 2.676225 1_555
Er2_3 S3_7 2.676225 1_455
Er2_3 S4_3 2.685391 1_555
Er2_3 S1_3 2.696765 1_555
Er2_3 S0_7 2.797450 1_455
Er2_3 S0_1 2.797450 1_555
Er2_4 S3_0 2.676225 1_555
Er2_4 S3_6 2.676225 1_545
Er2_4 S4_4 2.685391 1_555
Er2_4 S1_4 2.696765 1_555
Er2_4 S0_0 2.797450 1_555
Er2_4 S0_6 2.797450 1_545
Er2_5 S3_1 2.676225 1_555
Er2_5 S3_7 2.676225 1_545
Er2_5 S4_5 2.685391 1_555
Er2_5 S1_5 2.696765 1_555
Er2_5 S0_7 2.797450 1_545
Er2_5 S0_1 2.797450 1_555
Er2_6 S3_2 2.676225 1_555
Er2_6 S3_4 2.676225 1_555
Er2_6 S4_6 2.685391 1_555
Er2_6 S1_6 2.696765 1_555
Er2_6 S0_4 2.797450 1_555
Er2_6 S0_2 2.797450 1_555
Er2_7 S3_3 2.676225 1_555
Er2_7 S3_5 2.676225 1_555
Er2_7 S4_7 2.685391 1_555
Er2_7 S1_7 2.696765 1_555
Er2_7 S0_5 2.797450 1_555
Er2_7 S0_3 2.797450 1_555
Tl0_0 Tl0_6 3.908240 1_545
Tl0_0 Tl0_6 3.908240 1_455
Tl0_1 Tl0_7 3.908240 1_545
Tl0_1 Tl0_7 3.908240 1_455
Tl0_2 Tl0_4 3.908240 1_465
Tl0_2 Tl0_4 3.908240 1_555
Tl0_3 Tl0_5 3.908240 1_465
Tl0_3 Tl0_5 3.908240 1_555
Tl1_0 Tl1_6 3.908240 1_545
Tl1_0 Tl1_6 3.908240 1_455
Tl1_1 Tl1_7 3.908240 1_545
Tl1_1 Tl1_7 3.908240 1_455
Tl1_2 Tl1_4 3.908240 1_465
Tl1_2 Tl1_4 3.908240 1_555
Tl1_3 Tl1_5 3.908240 1_465
Tl1_3 Tl1_5 3.908240 1_555
Cu0_0 S0_0 2.347180 1_555
Cu0_0 S1_2 2.349863 1_555
Cu0_0 S1_4 2.349863 1_555
Cu0_0 S2_1 2.558391 1_554
Cu0_0 Tl0_3 3.678440 1_544
Cu0_0 Tl0_5 3.678440 1_454
Cu0_1 S0_1 2.347180 1_555
Cu0_1 S1_3 2.349863 1_555
Cu0_1 S1_5 2.349863 1_555
Cu0_1 S2_0 2.558391 1_555
Cu0_1 Tl0_4 3.678440 1_455
Cu0_1 Tl0_2 3.678440 1_545
Cu0_2 S0_2 2.347180 1_555
Cu0_2 S1_0 2.349863 1_565
Cu0_2 S1_6 2.349863 1_555
Cu0_2 S2_3 2.558391 1_554
Cu0_2 Tl0_1 3.678440 1_554
Cu0_2 Tl0_7 3.678440 1_454
Cu0_3 S0_3 2.347180 1_555
Cu0_3 S1_1 2.349863 1_565
Cu0_3 S1_7 2.349863 1_555
Cu0_3 S2_2 2.558391 1_555
Cu0_3 Tl0_0 3.678440 1_555
Cu0_3 Tl0_6 3.678440 1_455
Cu0_4 S0_4 2.347180 1_555
Cu0_4 S1_0 2.349863 1_655
Cu0_4 S1_6 2.349863 1_555
Cu0_4 S2_5 2.558391 1_554
Cu0_4 Tl0_1 3.678440 1_554
Cu0_4 Tl0_7 3.678440 1_544
Cu0_5 S0_5 2.347180 1_555
Cu0_5 S1_7 2.349863 1_555
Cu0_5 S1_1 2.349863 1_655
Cu0_5 S2_4 2.558391 1_555
Cu0_5 Tl0_0 3.678440 1_555
Cu0_5 Tl0_6 3.678440 1_545
Cu0_6 S0_6 2.347180 1_555
Cu0_6 S1_4 2.349863 1_565
Cu0_6 S1_2 2.349863 1_655
Cu0_6 S2_7 2.558391 1_554
Cu0_6 Tl0_5 3.678440 1_554
Cu0_6 Tl0_3 3.678440 1_554
Cu0_7 S0_7 2.347180 1_555
Cu0_7 S1_3 2.349863 1_655
Cu0_7 S1_5 2.349863 1_565
Cu0_7 S2_6 2.558391 1_555
Cu0_7 Tl0_4 3.678440 1_555
Cu0_7 Tl0_2 3.678440 1_555
Cu1_0 S3_0 2.365340 1_555
Cu1_0 S4_4 2.366758 1_555
Cu1_0 S4_2 2.366758 1_555
Cu1_0 S5_0 2.474463 1_555
Cu1_0 Tl1_2 3.585453 1_555
Cu1_0 Tl1_4 3.585453 1_555
Cu1_1 S3_1 2.365340 1_555
Cu1_1 S4_3 2.366758 1_555
Cu1_1 S4_5 2.366758 1_555
Cu1_1 S5_1 2.474463 1_555
Cu1_1 Tl1_3 3.585453 1_555
Cu1_1 Tl1_5 3.585453 1_555
Cu1_2 S3_2 2.365340 1_555
Cu1_2 S4_0 2.366758 1_565
Cu1_2 S4_6 2.366758 1_555
Cu1_2 S5_2 2.474463 1_555
Cu1_2 Tl1_0 3.585453 1_565
Cu1_2 Tl1_6 3.585453 1_555
Cu1_3 S3_3 2.365340 1_555
Cu1_3 S4_7 2.366758 1_555
Cu1_3 S4_1 2.366758 1_565
Cu1_3 S5_3 2.474463 1_555
Cu1_3 Tl1_7 3.585453 1_555
Cu1_3 Tl1_1 3.585453 1_565
Cu1_4 S3_4 2.365340 1_555
Cu1_4 S4_6 2.366758 1_555
Cu1_4 S4_0 2.366758 1_655
Cu1_4 S5_4 2.474463 1_555
Cu1_4 Tl1_0 3.585453 1_655
Cu1_4 Tl1_6 3.585453 1_555
Cu1_5 S3_5 2.365340 1_555
Cu1_5 S4_7 2.366758 1_555
Cu1_5 S4_1 2.366758 1_655
Cu1_5 S5_5 2.474463 1_555
Cu1_5 Tl1_7 3.585453 1_555
Cu1_5 Tl1_1 3.585453 1_655
Cu1_6 S3_6 2.365340 1_555
Cu1_6 S4_4 2.366758 1_565
Cu1_6 S4_2 2.366758 1_655
Cu1_6 S5_6 2.474463 1_555
Cu1_6 Tl1_2 3.585453 1_655
Cu1_6 Tl1_4 3.585453 1_565
Cu1_7 S3_7 2.365340 1_555
Cu1_7 S4_5 2.366758 1_565
Cu1_7 S4_3 2.366758 1_655
Cu1_7 S5_7 2.474463 1_555
Cu1_7 Tl1_3 3.585453 1_655
Cu1_7 Tl1_5 3.585453 1_565
Cu2_0 S3_0 2.256591 1_555
Cu2_0 S0_2 2.314586 1_555
Cu2_0 S0_4 2.314586 1_555
Cu2_0 Tl0_1 2.927380 1_554
Cu2_0 Er2_6 3.033670 1_555
Cu2_0 Tl1_4 3.401128 1_555
Cu2_0 Tl1_2 3.401128 1_555
Cu2_1 S3_1 2.256591 1_555
Cu2_1 S0_5 2.314586 1_555
Cu2_1 S0_3 2.314586 1_555
Cu2_1 Tl0_0 2.927380 1_555
Cu2_1 Er2_7 3.033670 1_555
Cu2_1 Tl1_3 3.401128 1_555
Cu2_1 Tl1_5 3.401128 1_555
Cu2_2 S3_2 2.256591 1_555
Cu2_2 S0_6 2.314586 1_555
Cu2_2 S0_0 2.314586 1_565
Cu2_2 Tl0_3 2.927380 1_554
Cu2_2 Er2_4 3.033670 1_565
Cu2_2 Tl1_6 3.401128 1_555
Cu2_2 Tl1_0 3.401128 1_565
Cu2_3 S3_3 2.256591 1_555
Cu2_3 S0_1 2.314586 1_565
Cu2_3 S0_7 2.314586 1_555
Cu2_3 Tl0_2 2.927380 1_555
Cu2_3 Er2_5 3.033670 1_565
Cu2_3 Tl1_1 3.401128 1_565
Cu2_3 Tl1_7 3.401128 1_555
Cu2_4 S3_4 2.256591 1_555
Cu2_4 S0_6 2.314586 1_555
Cu2_4 S0_0 2.314586 1_655
Cu2_4 Tl0_5 2.927380 1_554
Cu2_4 Er2_2 3.033670 1_655
Cu2_4 Tl1_6 3.401128 1_555
Cu2_4 Tl1_0 3.401128 1_655
Cu2_5 S3_5 2.256591 1_555
Cu2_5 S0_1 2.314586 1_655
Cu2_5 S0_7 2.314586 1_555
Cu2_5 Tl0_4 2.927380 1_555
Cu2_5 Er2_3 3.033670 1_655
Cu2_5 Tl1_7 3.401128 1_555
Cu2_5 Tl1_1 3.401128 1_655
Cu2_6 S3_6 2.256591 1_555
Cu2_6 S0_4 2.314586 1_565
Cu2_6 S0_2 2.314586 1_655
Cu2_6 Tl0_7 2.927380 1_554
Cu2_6 Er2_0 3.033670 1_665
Cu2_6 Tl1_4 3.401128 1_565
Cu2_6 Tl1_2 3.401128 1_655
Cu2_7 S3_7 2.256591 1_555
Cu2_7 S0_3 2.314586 1_655
Cu2_7 S0_5 2.314586 1_565
Cu2_7 Tl0_6 2.927380 1_555
Cu2_7 Er2_1 3.033670 1_665
Cu2_7 Tl1_5 3.401128 1_565
Cu2_7 Tl1_3 3.401128 1_655
Cu3_0 S6_4 2.334665 1_555
Cu3_0 S6_2 2.334665 1_555
Cu3_0 S5_0 2.365435 1_555
Cu3_0 S2_0 2.531547 1_555
Cu3_0 Cu4_0 2.621465 1_555
Cu3_1 S6_3 2.334665 1_555
Cu3_1 S6_5 2.334665 1_555
Cu3_1 S5_1 2.365435 1_555
Cu3_1 S2_1 2.531547 1_555
Cu3_1 Cu4_1 2.621465 1_555
Cu3_2 S6_0 2.334665 1_565
Cu3_2 S6_6 2.334665 1_555
Cu3_2 S5_2 2.365435 1_555
Cu3_2 S2_2 2.531547 1_555
Cu3_2 Cu4_2 2.621465 1_555
Cu3_3 S6_1 2.334665 1_565
Cu3_3 S6_7 2.334665 1_555
Cu3_3 S5_3 2.365435 1_555
Cu3_3 S2_3 2.531547 1_555
Cu3_3 Cu4_3 2.621465 1_555
Cu3_4 S6_6 2.334665 1_555
Cu3_4 S6_0 2.334665 1_655
Cu3_4 S5_4 2.365435 1_555
Cu3_4 S2_4 2.531547 1_555
Cu3_4 Cu4_4 2.621465 1_555
Cu3_5 S6_7 2.334665 1_555
Cu3_5 S6_1 2.334665 1_655
Cu3_5 S5_5 2.365435 1_555
Cu3_5 S2_5 2.531547 1_555
Cu3_5 Cu4_5 2.621465 1_555
Cu3_6 S6_4 2.334665 1_565
Cu3_6 S6_2 2.334665 1_655
Cu3_6 S5_6 2.365435 1_555
Cu3_6 S2_6 2.531547 1_555
Cu3_6 Cu4_6 2.621465 1_555
Cu3_7 S6_3 2.334665 1_655
Cu3_7 S6_5 2.334665 1_565
Cu3_7 S5_7 2.365435 1_555
Cu3_7 S2_7 2.531547 1_555
Cu3_7 Cu4_7 2.621465 1_555
Cu4_0 S7_4 2.344227 1_455
Cu4_0 S7_2 2.344227 1_545
Cu4_0 S2_0 2.353418 1_555
Cu4_0 S5_0 2.513668 1_555
Cu4_1 S7_3 2.344227 1_545
Cu4_1 S7_5 2.344227 1_455
Cu4_1 S2_1 2.353418 1_555
Cu4_1 S5_1 2.513668 1_555
Cu4_2 S7_6 2.344227 1_455
Cu4_2 S7_0 2.344227 1_555
Cu4_2 S2_2 2.353418 1_555
Cu4_2 S5_2 2.513668 1_555
Cu4_3 S7_7 2.344227 1_455
Cu4_3 S7_1 2.344227 1_555
Cu4_3 S2_3 2.353418 1_555
Cu4_3 S5_3 2.513668 1_555
Cu4_4 S7_6 2.344227 1_545
Cu4_4 S7_0 2.344227 1_555
Cu4_4 S2_4 2.353418 1_555
Cu4_4 S5_4 2.513668 1_555
Cu4_5 S7_7 2.344227 1_545
Cu4_5 S7_1 2.344227 1_555
Cu4_5 S2_5 2.353418 1_555
Cu4_5 S5_5 2.513668 1_555
Cu4_6 S7_4 2.344227 1_555
Cu4_6 S7_2 2.344227 1_555
Cu4_6 S2_6 2.353418 1_555
Cu4_6 S5_6 2.513668 1_555
Cu4_7 S7_5 2.344227 1_555
Cu4_7 S7_3 2.344227 1_555
Cu4_7 S2_7 2.353418 1_555
Cu4_7 S5_7 2.513668 1_555
S0_0 Tl0_5 3.567234 1_454
S0_0 Tl0_3 3.567234 1_544
S0_0 Tl1_0 3.628553 1_555
S0_1 Tl0_4 3.567234 1_455
S0_1 Tl0_2 3.567234 1_545
S0_1 Tl1_1 3.628553 1_555
S0_2 Tl0_1 3.567234 1_554
S0_2 Tl0_7 3.567234 1_454
S0_2 Tl1_2 3.628553 1_555
S0_3 Tl0_0 3.567234 1_555
S0_3 Tl0_6 3.567234 1_455
S0_3 Tl1_3 3.628553 1_555
S0_4 Tl0_1 3.567234 1_554
S0_4 Tl0_7 3.567234 1_544
S0_4 Tl1_4 3.628553 1_555
S0_5 Tl0_0 3.567234 1_555
S0_5 Tl0_6 3.567234 1_545
S0_5 Tl1_5 3.628553 1_555
S0_6 Tl0_5 3.567234 1_554
S0_6 Tl0_3 3.567234 1_554
S0_6 Tl1_6 3.628553 1_555
S0_7 Tl0_4 3.567234 1_555
S0_7 Tl0_2 3.567234 1_555
S0_7 Tl1_7 3.628553 1_555
S1_0 Tl0_3 3.182839 1_544
S1_0 Tl0_5 3.182839 1_454
S1_1 Tl0_2 3.182839 1_545
S1_1 Tl0_4 3.182839 1_455
S1_2 Tl0_7 3.182839 1_454
S1_2 Tl0_1 3.182839 1_554
S1_3 Tl0_6 3.182839 1_455
S1_3 Tl0_0 3.182839 1_555
S1_4 Tl0_7 3.182839 1_544
S1_4 Tl0_1 3.182839 1_554
S1_5 Tl0_6 3.182839 1_545
S1_5 Tl0_0 3.182839 1_555
S1_6 Tl0_5 3.182839 1_554
S1_6 Tl0_3 3.182839 1_554
S1_7 Tl0_2 3.182839 1_555
S1_7 Tl0_4 3.182839 1_555
S2_0 Tl0_4 3.400981 1_455
S2_0 Tl0_2 3.400981 1_545
S2_1 Tl0_5 3.400981 1_455
S2_1 Tl0_3 3.400981 1_545
S2_2 Tl0_0 3.400981 1_555
S2_2 Tl0_6 3.400981 1_455
S2_3 Tl0_1 3.400981 1_555
S2_3 Tl0_7 3.400981 1_455
S2_4 Tl0_0 3.400981 1_555
S2_4 Tl0_6 3.400981 1_545
S2_5 Tl0_1 3.400981 1_555
S2_5 Tl0_7 3.400981 1_545
S2_6 Tl0_4 3.400981 1_555
S2_6 Tl0_2 3.400981 1_555
S2_7 Tl0_5 3.400981 1_555
S2_7 Tl0_3 3.400981 1_555
S3_0 Tl1_2 3.347868 1_555
S3_0 Tl1_4 3.347868 1_555
S3_1 Tl1_3 3.347868 1_555
S3_1 Tl1_5 3.347868 1_555
S3_2 Tl1_0 3.347868 1_565
S3_2 Tl1_6 3.347868 1_555
S3_3 Tl1_7 3.347868 1_555
S3_3 Tl1_1 3.347868 1_565
S3_4 Tl1_0 3.347868 1_655
S3_4 Tl1_6 3.347868 1_555
S3_5 Tl1_7 3.347868 1_555
S3_5 Tl1_1 3.347868 1_655
S3_6 Tl1_2 3.347868 1_655
S3_6 Tl1_4 3.347868 1_565
S3_7 Tl1_3 3.347868 1_655
S3_7 Tl1_5 3.347868 1_565
S4_0 Tl1_4 3.236701 1_455
S4_0 Tl1_2 3.236701 1_545
S4_1 Tl1_5 3.236701 1_455
S4_1 Tl1_3 3.236701 1_545
S4_2 Tl1_6 3.236701 1_455
S4_2 Tl1_0 3.236701 1_555
S4_3 Tl1_1 3.236701 1_555
S4_3 Tl1_7 3.236701 1_455
S4_4 Tl1_6 3.236701 1_545
S4_4 Tl1_0 3.236701 1_555
S4_5 Tl1_1 3.236701 1_555
S4_5 Tl1_7 3.236701 1_545
S4_6 Tl1_4 3.236701 1_555
S4_6 Tl1_2 3.236701 1_555
S4_7 Tl1_5 3.236701 1_555
S4_7 Tl1_3 3.236701 1_555
S5_0 Tl1_2 3.446474 1_555
S5_0 Tl1_4 3.446474 1_555
S5_1 Tl1_3 3.446474 1_555
S5_1 Tl1_5 3.446474 1_555
S5_2 Tl1_0 3.446474 1_565
S5_2 Tl1_6 3.446474 1_555
S5_3 Tl1_7 3.446474 1_555
S5_3 Tl1_1 3.446474 1_565
S5_4 Tl1_0 3.446474 1_655
S5_4 Tl1_6 3.446474 1_555
S5_5 Tl1_7 3.446474 1_555
S5_5 Tl1_1 3.446474 1_655
S5_6 Tl1_2 3.446474 1_655
S5_6 Tl1_4 3.446474 1_565
S5_7 Tl1_3 3.446474 1_655
S5_7 Tl1_5 3.446474 1_565
S6_0 Tl1_0 3.161020 1_555
S6_1 Tl1_1 3.161020 1_555
S6_2 Tl1_2 3.161020 1_555
S6_3 Tl1_3 3.161020 1_555
S6_4 Tl1_4 3.161020 1_555
S6_5 Tl1_5 3.161020 1_555
S6_6 Tl1_6 3.161020 1_555
S6_7 Tl1_7 3.161020 1_555
S7_0 Tl0_0 3.067722 1_555
S7_1 Tl0_1 3.067722 1_555
S7_2 Tl0_2 3.067722 1_555
S7_3 Tl0_3 3.067722 1_555
S7_4 Tl0_4 3.067722 1_555
S7_5 Tl0_5 3.067722 1_555
S7_6 Tl0_6 3.067722 1_555
S7_7 Tl0_7 3.067722 1_555
