# generated using pymatgen
data_HoTh
_symmetry_space_group_name_H-M   'P 1'
_cell_length_a   12.12443123
_cell_length_b   12.12443123
_cell_length_c   12.12443158
_cell_angle_alpha   34.23182867
_cell_angle_beta   34.23182867
_cell_angle_gamma   34.23182469
_symmetry_Int_Tables_number   1
_chemical_formula_structural   HoTh
_chemical_formula_sum   'Ho8 Th8'
_cell_volume   502.94934426
_cell_formula_units_Z   8
loop_
 _symmetry_equiv_pos_site_id
 _symmetry_equiv_pos_as_xyz
  1  'x, y, z'
loop_
 _atom_site_type_symbol
 _atom_site_label
 _atom_site_symmetry_multiplicity
 _atom_site_fract_x
 _atom_site_fract_y
 _atom_site_fract_z
 _atom_site_occupancy
  Ho  Ho0_0  1  0.00000000  0.00000000  0.00000000  1
  Ho  Ho0_1  1  0.00000000  0.00000000  0.50000000  1
  Ho  Ho0_2  1  0.00000000  0.50000000  0.00000000  1
  Ho  Ho0_3  1  1.00000000  0.50000000  0.50000000  1
  Ho  Ho0_4  1  0.50000000  0.00000000  0.00000000  1
  Ho  Ho0_5  1  0.50000000  0.00000000  0.50000000  1
  Ho  Ho0_6  1  0.50000000  0.50000000  0.00000000  1
  Ho  Ho0_7  1  0.50000000  0.50000000  0.50000000  1
  Th  Th0_0  1  0.25000000  0.25000000  0.25000000  1
  Th  Th0_1  1  0.25000000  0.25000000  0.75000000  1
  Th  Th0_2  1  0.25000000  0.75000000  0.25000000  1
  Th  Th0_3  1  0.25000000  0.75000000  0.75000000  1
  Th  Th0_4  1  0.75000000  0.25000000  0.25000000  1
  Th  Th0_5  1  0.75000000  0.25000000  0.75000000  1
  Th  Th0_6  1  0.75000000  0.75000000  0.25000000  1
  Th  Th0_7  1  0.75000000  0.75000000  0.75000000  1
loop_
_geom_bond_atom_site_label_1
_geom_bond_atom_site_label_2
_geom_bond_distance
_geom_bond_site_symmetry_2
Ho0_0 Th0_2 3.517213 1_545
Ho0_0 Th0_5 3.517213 1_454
Ho0_0 Th0_4 3.517213 1_455
Ho0_0 Th0_3 3.517213 1_544
Ho0_0 Th0_1 3.517213 1_554
Ho0_0 Th0_6 3.517213 1_445
Ho0_0 Ho0_6 3.568290 1_545
Ho0_0 Ho0_6 3.568290 1_455
Ho0_0 Ho0_5 3.568290 1_455
Ho0_0 Ho0_5 3.568290 1_554
Ho0_0 Ho0_3 3.568290 1_445
Ho0_0 Ho0_3 3.568290 1_454
Ho0_1 Th0_3 3.517213 1_545
Ho0_1 Th0_5 3.517213 1_455
Ho0_1 Th0_2 3.517213 1_545
Ho0_1 Th0_4 3.517213 1_455
Ho0_1 Th0_0 3.517213 1_555
Ho0_1 Th0_7 3.517213 1_445
Ho0_1 Ho0_7 3.568290 1_545
Ho0_1 Ho0_7 3.568290 1_455
Ho0_1 Ho0_4 3.568290 1_555
Ho0_1 Ho0_2 3.568290 1_555
Ho0_1 Ho0_4 3.568290 1_456
Ho0_1 Ho0_2 3.568290 1_546
Ho0_2 Th0_0 3.517213 1_555
Ho0_2 Th0_6 3.517213 1_455
Ho0_2 Th0_1 3.517213 1_554
Ho0_2 Th0_7 3.517213 1_454
Ho0_2 Th0_3 3.517213 1_554
Ho0_2 Th0_4 3.517213 1_455
Ho0_2 Ho0_4 3.568290 1_555
Ho0_2 Ho0_4 3.568290 1_465
Ho0_2 Ho0_7 3.568290 1_554
Ho0_2 Ho0_7 3.568290 1_455
Ho0_3 Th0_7 3.517213 1_555
Ho0_3 Th0_6 3.517213 1_555
Ho0_3 Th0_1 3.517213 1_655
Ho0_3 Th0_0 3.517213 1_655
Ho0_3 Th0_5 3.517213 1_555
Ho0_3 Th0_2 3.517213 1_655
Ho0_3 Ho0_5 3.568290 1_565
Ho0_3 Ho0_5 3.568290 1_655
Ho0_3 Ho0_6 3.568290 1_556
Ho0_3 Ho0_6 3.568290 1_655
Ho0_4 Th0_0 3.517213 1_555
Ho0_4 Th0_6 3.517213 1_545
Ho0_4 Th0_1 3.517213 1_554
Ho0_4 Th0_7 3.517213 1_544
Ho0_4 Th0_5 3.517213 1_554
Ho0_4 Th0_2 3.517213 1_545
Ho0_4 Ho0_7 3.568290 1_545
Ho0_4 Ho0_7 3.568290 1_554
Ho0_5 Th0_7 3.517213 1_545
Ho0_5 Th0_1 3.517213 1_555
Ho0_5 Th0_6 3.517213 1_545
Ho0_5 Th0_0 3.517213 1_555
Ho0_5 Th0_4 3.517213 1_555
Ho0_5 Th0_3 3.517213 1_545
Ho0_5 Ho0_6 3.568290 1_546
Ho0_5 Ho0_6 3.568290 1_555
Ho0_6 Th0_4 3.517213 1_555
Ho0_6 Th0_2 3.517213 1_555
Ho0_6 Th0_5 3.517213 1_554
Ho0_6 Th0_3 3.517213 1_554
Ho0_6 Th0_7 3.517213 1_554
Ho0_6 Th0_0 3.517213 1_555
Ho0_7 Th0_4 3.517213 1_555
Ho0_7 Th0_2 3.517213 1_555
Ho0_7 Th0_3 3.517213 1_555
Ho0_7 Th0_5 3.517213 1_555
Ho0_7 Th0_1 3.517213 1_555
Ho0_7 Th0_6 3.517213 1_555
Th0_0 Th0_6 3.568290 1_545
Th0_0 Th0_6 3.568290 1_455
Th0_0 Th0_5 3.568290 1_455
Th0_0 Th0_3 3.568290 1_545
Th0_0 Th0_3 3.568290 1_554
Th0_0 Th0_5 3.568290 1_554
Th0_1 Th0_7 3.568290 1_545
Th0_1 Th0_7 3.568290 1_455
Th0_1 Th0_4 3.568290 1_555
Th0_1 Th0_2 3.568290 1_546
Th0_1 Th0_2 3.568290 1_555
Th0_1 Th0_4 3.568290 1_456
Th0_2 Th0_4 3.568290 1_465
Th0_2 Th0_4 3.568290 1_555
Th0_2 Th0_7 3.568290 1_554
Th0_2 Th0_7 3.568290 1_455
Th0_3 Th0_5 3.568290 1_465
Th0_3 Th0_5 3.568290 1_555
Th0_3 Th0_6 3.568290 1_555
Th0_3 Th0_6 3.568290 1_456
Th0_4 Th0_7 3.568290 1_554
Th0_4 Th0_7 3.568290 1_545
Th0_5 Th0_6 3.568290 1_555
Th0_5 Th0_6 3.568290 1_546
