# generated using pymatgen
data_MgV2Zn2(SiO5)2
_symmetry_space_group_name_H-M   'P 1'
_cell_length_a   5.66558414
_cell_length_b   7.31641105
_cell_length_c   8.16103115
_cell_angle_alpha   90.87360128
_cell_angle_beta   40.90968419
_cell_angle_gamma   108.60261128
_symmetry_Int_Tables_number   1
_chemical_formula_structural   MgV2Zn2(SiO5)2
_chemical_formula_sum   'Mg1 V2 Zn2 Si2 O10'
_cell_volume   195.56765557
_cell_formula_units_Z   1
loop_
 _symmetry_equiv_pos_site_id
 _symmetry_equiv_pos_as_xyz
  1  'x, y, z'
loop_
 _atom_site_type_symbol
 _atom_site_label
 _atom_site_symmetry_multiplicity
 _atom_site_fract_x
 _atom_site_fract_y
 _atom_site_fract_z
 _atom_site_occupancy
  Mg  Mg0  1  0.08059700  0.80009900  0.99402800  1
  V  V0  1  0.43976100  0.49303400  0.54961600  1
  V  V1  1  0.55236800  0.01888400  0.46450300  1
  Zn  Zn0  1  0.38437900  0.22747900  0.26118000  1
  Zn  Zn1  1  0.73326200  0.73372300  0.70670200  1
  Si  Si0  1  0.56406400  0.25290700  0.81444200  1
  Si  Si1  1  0.42718300  0.75527800  0.17635400  1
  O  O0  1  0.77367000  0.14591300  0.58375900  1
  O  O1  1  0.52361200  0.44152600  0.74878600  1
  O  O2  1  0.32677200  0.91702000  0.33989500  1
  O  O3  1  0.47288000  0.59741300  0.28383100  1
  O  O4  1  0.10714100  0.66510300  0.18957000  1
  O  O5  1  0.88898600  0.87200700  0.85287000  1
  O  O6  1  0.80726100  0.33360500  0.86502700  1
  O  O7  1  0.10524500  0.06086500  0.09584700  1
  O  O8  1  0.44978200  0.75105800  0.64448400  1
  O  O9  1  0.51734200  0.26313200  0.42336300  1
loop_
_geom_bond_atom_site_label_1
_geom_bond_atom_site_label_2
_geom_bond_distance
_geom_bond_site_symmetry_2
Mg0 O4 2.012553 1_556
Mg0 O8 2.017494 1_555
Mg0 O3 2.046604 1_456
Mg0 O7 2.075335 1_566
Mg0 O5 2.248445 1_455
Mg0 O0 2.660553 1_565
O0 Si0 1.654159 1_555
O0 Zn0 2.054531 1_655
O0 V1 2.111020 1_555
O1 Si0 1.629115 1_555
O1 Zn1 1.970999 1_555
O1 V0 2.076002 1_555
O2 Si1 1.655005 1_555
O2 Zn1 2.024205 1_455
O2 V1 2.134700 1_565
O2 Zn0 2.221096 1_565
O3 Si1 1.653882 1_555
O3 V0 2.160377 1_555
O3 Zn0 2.621108 1_555
O4 Si1 1.636469 1_555
O4 V0 2.190530 1_455
O4 Zn1 2.481896 1_554
O5 Si1 1.657503 1_556
O5 Zn1 2.051690 1_555
O5 V1 2.201828 1_665
O6 Si0 1.658552 1_555
O6 Zn0 1.994329 1_556
O6 V0 2.076142 1_655
O7 Si0 1.658445 1_554
O7 V1 2.031702 1_455
O8 V0 2.029767 1_555
O8 Zn1 2.053766 1_555
O8 V1 2.099000 1_565
O9 V1 1.921143 1_555
O9 Zn0 1.938698 1_555
O9 V0 1.954090 1_555
