# generated using pymatgen
data_Mg2Ta2CrO8
_symmetry_space_group_name_H-M   'P 1'
_cell_length_a   5.21929306
_cell_length_b   6.05647959
_cell_length_c   10.15102840
_cell_angle_alpha   106.94092259
_cell_angle_beta   91.47626226
_cell_angle_gamma   90.19825278
_symmetry_Int_Tables_number   1
_chemical_formula_structural   Mg2Ta2CrO8
_chemical_formula_sum   'Mg4 Ta4 Cr2 O16'
_cell_volume   306.83310719
_cell_formula_units_Z   2
loop_
 _symmetry_equiv_pos_site_id
 _symmetry_equiv_pos_as_xyz
  1  'x, y, z'
loop_
 _atom_site_type_symbol
 _atom_site_label
 _atom_site_symmetry_multiplicity
 _atom_site_fract_x
 _atom_site_fract_y
 _atom_site_fract_z
 _atom_site_occupancy
  Mg  Mg0  1  0.75619400  0.41777400  0.54553300  1
  Mg  Mg1  1  0.74367700  0.87072900  0.45302100  1
  Mg  Mg2  1  0.24411500  0.58328600  0.45240000  1
  Mg  Mg3  1  0.25659500  0.13043800  0.54470700  1
  Ta  Ta0  1  0.73652100  0.28000100  0.23613700  1
  Ta  Ta1  1  0.76476400  0.04219700  0.76213300  1
  Ta  Ta2  1  0.26386800  0.72007600  0.76209900  1
  Ta  Ta3  1  0.23571800  0.95993600  0.23595500  1
  Cr  Cr0  1  0.24751500  0.34952800  0.99969100  1
  Cr  Cr1  1  0.74758600  0.65193700  0.99937800  1
  O  O0  1  0.06646300  0.18890100  0.14781600  1
  O  O1  1  0.43603300  0.03147500  0.84899100  1
  O  O2  1  0.93477100  0.81441300  0.84952300  1
  O  O3  1  0.56535400  0.96640400  0.14853100  1
  O  O4  1  0.57887100  0.42453900  0.11843400  1
  O  O5  1  0.91792000  0.30484800  0.87984200  1
  O  O6  1  0.41526900  0.57277800  0.88081300  1
  O  O7  1  0.07600500  0.70098300  0.11927700  1
  O  O8  1  0.44934200  0.29120200  0.37352100  1
  O  O9  1  0.05053000  0.91690600  0.62459100  1
  O  O10  1  0.94931400  0.08526000  0.37312100  1
  O  O11  1  0.55028400  0.70859500  0.62414500  1
  O  O12  1  0.37378100  0.83958000  0.38343900  1
  O  O13  1  0.12582000  0.45424900  0.61436700  1
  O  O14  1  0.62593500  0.16127200  0.61422900  1
  O  O15  1  0.87396900  0.54678100  0.38335100  1
loop_
_geom_bond_atom_site_label_1
_geom_bond_atom_site_label_2
_geom_bond_distance
_geom_bond_site_symmetry_2
Mg0 O14 2.002570 1_555
Mg0 O13 2.023965 1_655
Mg0 O11 2.032810 1_555
Mg0 O15 2.120643 1_555
Mg0 O8 2.295393 1_555
Mg0 O10 2.487084 1_555
Mg1 O15 2.009322 1_555
Mg1 O12 2.027622 1_555
Mg1 O10 2.036489 1_565
Mg1 O14 2.129118 1_565
Mg1 O9 2.290357 1_655
Mg1 O11 2.465379 1_555
Mg2 O12 2.001968 1_555
Mg2 O15 2.027158 1_455
Mg2 O8 2.037074 1_555
Mg2 O13 2.119646 1_555
Mg2 O11 2.290399 1_555
Mg2 O9 2.491115 1_555
Mg3 O13 2.009474 1_555
Mg3 O14 2.024729 1_555
Mg3 O9 2.033043 1_545
Mg3 O12 2.129694 1_545
Mg3 O10 2.292614 1_455
Mg3 O8 2.459477 1_555
Cr0 O5 2.051750 1_455
Cr0 O4 2.053849 1_556
Cr0 O0 2.240435 1_556
Cr0 O6 2.246803 1_555
Cr0 O7 2.317134 1_556
Cr0 O1 2.322119 1_555
Cr1 O7 2.045982 1_656
Cr1 O6 2.058437 1_555
Cr1 O4 2.269179 1_556
Cr1 O2 2.275755 1_555
Cr1 O3 2.287052 1_556
Cr1 O5 2.294280 1_555
O0 Ta0 1.967632 1_455
O0 Ta3 2.048089 1_545
O1 Ta1 1.958552 1_555
O1 Ta2 2.029866 1_545
O2 Ta2 1.963205 1_655
O2 Ta1 2.039265 1_565
O3 Ta3 1.961520 1_555
O3 Ta0 2.039430 1_565
O4 Ta0 1.853314 1_555
O5 Ta1 1.852417 1_555
O6 Ta2 1.858708 1_555
O7 Ta3 1.847954 1_555
O8 Ta0 2.061400 1_555
O8 Ta3 2.343076 1_545
O9 Ta1 2.060930 1_465
O9 Ta2 2.346941 1_555
O10 Ta3 2.061196 1_645
O10 Ta0 2.333114 1_555
O11 Ta2 2.062138 1_555
O11 Ta1 2.356192 1_565
O12 Ta3 1.968749 1_555
O13 Ta2 1.972138 1_555
O14 Ta1 1.969218 1_555
O15 Ta0 1.971814 1_555
