# generated using pymatgen
data_GdNbO4
_symmetry_space_group_name_H-M   'P 1'
_cell_length_a   5.14721437
_cell_length_b   5.38151002
_cell_length_c   6.62057913
_cell_angle_alpha   112.17430253
_cell_angle_beta   111.00263113
_cell_angle_gamma   94.27799425
_symmetry_Int_Tables_number   1
_chemical_formula_structural   GdNbO4
_chemical_formula_sum   'Gd2 Nb2 O8'
_cell_volume   153.80014841
_cell_formula_units_Z   2
loop_
 _symmetry_equiv_pos_site_id
 _symmetry_equiv_pos_as_xyz
  1  'x, y, z'
loop_
 _atom_site_type_symbol
 _atom_site_label
 _atom_site_symmetry_multiplicity
 _atom_site_fract_x
 _atom_site_fract_y
 _atom_site_fract_z
 _atom_site_occupancy
  Gd  Gd0  1  0.37887701  0.62887701  0.75775402  1
  Gd  Gd1  1  0.62112299  0.37112299  0.24224598  1
  Nb  Nb0  1  0.85640127  0.10640127  0.71280254  1
  Nb  Nb1  1  0.14359873  0.89359873  0.28719746  1
  O  O0  1  0.98887593  0.78670314  0.56353137  1
  O  O1  1  0.57465543  0.27682723  0.56353137  1
  O  O2  1  0.01112407  0.21329686  0.43646863  1
  O  O3  1  0.42534457  0.72317277  0.43646863  1
  O  O4  1  0.20724314  0.36877690  0.92061132  1
  O  O5  1  0.71336818  0.05183342  0.92061132  1
  O  O6  1  0.79275686  0.63122310  0.07938868  1
  O  O7  1  0.28663182  0.94816658  0.07938868  1
loop_
_geom_bond_atom_site_label_1
_geom_bond_atom_site_label_2
_geom_bond_distance
_geom_bond_site_symmetry_2
Gd0 O5 2.353669 1_565
Gd0 O4 2.353673 1_555
Gd0 O0 2.373400 1_455
Gd0 O1 2.373403 1_555
Gd0 O6 2.407651 1_556
Gd0 O7 2.407653 1_556
Gd0 O2 2.449613 1_555
Gd0 O3 2.449616 1_555
Gd1 O7 2.353669 1_545
Gd1 O6 2.353673 1_555
Gd1 O2 2.373400 1_655
Gd1 O3 2.373403 1_555
Gd1 O4 2.407651 1_554
Gd1 O5 2.407653 1_554
Gd1 O0 2.449613 1_555
Gd1 O1 2.449616 1_555
Nb0 O4 1.876141 1_655
Nb0 O5 1.876143 1_555
Nb0 O1 1.943245 1_555
Nb0 O0 1.943249 1_545
Nb0 O3 2.466307 1_545
Nb0 O2 2.466309 1_655
Nb1 O6 1.876141 1_455
Nb1 O7 1.876143 1_555
Nb1 O3 1.943245 1_555
Nb1 O2 1.943249 1_565
Nb1 O1 2.466307 1_565
Nb1 O0 2.466309 1_455
O0 O3 2.669077 1_655
O0 O3 2.669078 1_555
O1 O2 2.669077 1_655
O1 O2 2.669078 1_555
