# generated using pymatgen
data_Nb4O9
_symmetry_space_group_name_H-M   'P 1'
_cell_length_a   5.05807600
_cell_length_b   5.62157066
_cell_length_c   6.97231032
_cell_angle_alpha   105.17793384
_cell_angle_beta   109.58518509
_cell_angle_gamma   91.13484558
_symmetry_Int_Tables_number   1
_chemical_formula_structural   Nb4O9
_chemical_formula_sum   'Nb4 O9'
_cell_volume   179.00153773
_cell_formula_units_Z   1
loop_
 _symmetry_equiv_pos_site_id
 _symmetry_equiv_pos_as_xyz
  1  'x, y, z'
loop_
 _atom_site_type_symbol
 _atom_site_label
 _atom_site_symmetry_multiplicity
 _atom_site_fract_x
 _atom_site_fract_y
 _atom_site_fract_z
 _atom_site_occupancy
  Nb  Nb0  1  0.36940900  0.26306900  0.27874000  1
  Nb  Nb1  1  0.14937400  0.21372600  0.73258300  1
  Nb  Nb2  1  0.60821000  0.72626300  0.70039500  1
  Nb  Nb3  1  0.89108200  0.75839300  0.26828700  1
  O  O0  1  0.13307500  0.12680900  0.41048000  1
  O  O1  1  0.25718200  0.64478800  0.40845100  1
  O  O2  1  0.86846600  0.87598600  0.59548700  1
  O  O3  1  0.86952100  0.72627800  0.97928200  1
  O  O4  1  0.09896400  0.26029700  0.99997000  1
  O  O5  1  0.33022000  0.52218200  0.76881300  1
  O  O6  1  0.57365900  0.99396500  0.24201600  1
  O  O7  1  0.66223400  0.48134300  0.23695900  1
  O  O8  1  0.46259700  0.03491700  0.78922100  1
loop_
_geom_bond_atom_site_label_1
_geom_bond_atom_site_label_2
_geom_bond_distance
_geom_bond_site_symmetry_2
Nb0 O6 1.859524 1_545
Nb0 O4 1.962173 1_554
Nb0 O0 1.981842 1_555
Nb0 O7 2.046629 1_555
Nb0 O1 2.262979 1_555
Nb1 O5 1.860167 1_555
Nb1 O8 1.878262 1_555
Nb1 O4 1.917014 1_555
Nb1 O2 2.137664 1_445
Nb1 O0 2.142159 1_555
Nb2 O8 1.931423 1_565
Nb2 O3 1.950611 1_555
Nb2 O2 1.974931 1_555
Nb2 O5 2.047734 1_555
Nb2 O1 2.135946 1_555
Nb3 O7 1.842336 1_555
Nb3 O3 1.940682 1_554
Nb3 O1 1.988054 1_655
Nb3 O6 2.092641 1_555
Nb3 O0 2.186626 1_665
Nb3 O2 2.245631 1_555
O0 O6 2.678174 1_445
O0 O5 2.740557 1_555
O0 O1 2.791071 1_545
O1 O5 2.686832 1_555
O1 O7 2.759175 1_555
O2 O6 2.677413 1_555
O2 O7 2.741345 1_555
O3 O5 2.687303 1_555
