# generated using pymatgen
data_Sr4LiMn2Cu3(SO)4
_symmetry_space_group_name_H-M   'P 1'
_cell_length_a   5.83658239
_cell_length_b   6.28930186
_cell_length_c   8.98385463
_cell_angle_alpha   87.41358497
_cell_angle_beta   72.20211847
_cell_angle_gamma   93.19184604
_symmetry_Int_Tables_number   1
_chemical_formula_structural   Sr4LiMn2Cu3(SO)4
_chemical_formula_sum   'Sr4 Li1 Mn2 Cu3 S4 O4'
_cell_volume   312.83889418
_cell_formula_units_Z   1
loop_
 _symmetry_equiv_pos_site_id
 _symmetry_equiv_pos_as_xyz
  1  'x, y, z'
loop_
 _atom_site_type_symbol
 _atom_site_label
 _atom_site_symmetry_multiplicity
 _atom_site_fract_x
 _atom_site_fract_y
 _atom_site_fract_z
 _atom_site_occupancy
  Sr  Sr0  1  0.35604500  0.09887500  0.21428600  1
  Sr  Sr1  1  0.92480000  0.54110500  0.20554200  1
  Sr  Sr2  1  0.11255200  0.49706900  0.78651000  1
  Sr  Sr3  1  0.62144700  0.92246100  0.80433000  1
  Li  Li0  1  0.46532900  0.68279100  0.12973400  1
  Mn  Mn0  1  0.56093400  0.41451200  0.92504300  1
  Mn  Mn1  1  0.01300400  0.01784700  0.00036800  1
  Cu  Cu0  1  0.51245100  0.23687000  0.51551400  1
  Cu  Cu1  1  0.46313700  0.80693900  0.47617200  1
  Cu  Cu2  1  0.97189200  0.24424300  0.51682200  1
  S  S0  1  0.17770600  0.00725100  0.66577800  1
  S  S1  1  0.68450900  0.48845400  0.64355500  1
  S  S2  1  0.32790300  0.50452500  0.38311400  1
  S  S3  1  0.80376400  0.03153800  0.35172500  1
  O  O0  1  0.20658400  0.32028100  0.01999200  1
  O  O1  1  0.76714800  0.65923000  0.98483900  1
  O  O2  1  0.71888000  0.16233800  0.98222400  1
  O  O3  1  0.25462200  0.82200200  0.04802300  1
loop_
_geom_bond_atom_site_label_1
_geom_bond_atom_site_label_2
_geom_bond_distance
_geom_bond_site_symmetry_2
Li0 O3 1.852473 1_555
Li0 O1 1.861261 1_554
Li0 S2 2.373900 1_555
Li0 Mn0 2.509483 1_554
Li0 Sr0 2.810868 1_565
Mn0 O2 2.001975 1_555
Mn0 O0 2.023777 1_556
Mn0 O1 2.090368 1_555
Mn0 S1 2.423435 1_555
Mn1 O2 2.032436 1_454
Mn1 O3 2.050390 1_545
Mn1 O0 2.199620 1_555
Mn1 O1 2.637422 1_444
Mn1 S0 2.867538 1_554
Mn1 S3 3.023617 1_455
Cu0 S1 2.351342 1_555
Cu0 S3 2.368623 1_555
Cu0 S0 2.371206 1_555
Cu0 S2 2.492623 1_555
Cu0 Cu2 2.683011 1_555
Cu0 Cu1 2.753357 1_545
Cu0 Sr0 3.247152 1_555
Cu0 Sr2 3.371075 1_555
Cu1 S2 2.306330 1_555
Cu1 S3 2.320298 1_565
Cu1 S0 2.440632 1_565
Cu1 S1 3.024394 1_555
Cu1 Sr0 3.151856 1_565
Cu1 Sr2 3.366929 1_555
Cu2 S1 2.397091 1_555
Cu2 S3 2.423861 1_555
Cu2 S2 2.521541 1_655
Cu2 S0 2.541158 1_655
Cu2 Sr0 3.158706 1_655
Cu2 Sr2 3.238959 1_655
Cu2 Sr3 3.284581 1_545
Cu2 Sr1 3.381955 1_555
S0 Sr3 3.106654 1_445
S0 Sr3 3.256704 1_545
S0 Sr2 3.303726 1_545
S0 Sr2 3.315283 1_555
S1 Sr3 3.132912 1_555
S1 Sr2 3.137918 1_655
S1 Sr2 3.194043 1_555
S2 Sr0 3.013295 1_555
S2 Sr1 3.233399 1_455
S2 Sr1 3.348891 1_555
S2 Sr2 3.450977 1_555
S3 Sr0 3.076057 1_655
S3 Sr0 3.252838 1_555
S3 Sr1 3.360881 1_555
S3 Sr1 3.432039 1_545
O0 Sr1 2.489940 1_455
O0 Sr2 2.549212 1_554
O0 Sr0 2.567792 1_555
O1 Sr1 2.527540 1_556
O1 Sr2 2.544818 1_655
O1 Sr3 2.617500 1_555
O2 Sr3 2.414801 1_545
O2 Sr0 2.474316 1_556
O2 Sr2 3.075783 1_655
O3 Sr0 2.504847 1_565
O3 Sr1 2.561189 1_455
O3 Sr3 2.575891 1_554
O3 Sr2 3.437890 1_554
