# generated using pymatgen
data_Mg3As4W3O16
_symmetry_space_group_name_H-M   'P 1'
_cell_length_a   5.56425500
_cell_length_b   10.14137100
_cell_length_c   15.89090088
_cell_angle_alpha   74.14267335
_cell_angle_beta   90.00000000
_cell_angle_gamma   90.00000000
_symmetry_Int_Tables_number   1
_chemical_formula_structural   Mg3As4W3O16
_chemical_formula_sum   'Mg6 As8 W6 O32'
_cell_volume   862.58617693
_cell_formula_units_Z   2
loop_
 _symmetry_equiv_pos_site_id
 _symmetry_equiv_pos_as_xyz
  1  'x, y, z'
loop_
 _atom_site_type_symbol
 _atom_site_label
 _atom_site_symmetry_multiplicity
 _atom_site_fract_x
 _atom_site_fract_y
 _atom_site_fract_z
 _atom_site_occupancy
  Mg  Mg0  1  0.37715000  0.29422800  0.21938200  1
  Mg  Mg1  1  0.87715000  0.70577200  0.28061800  1
  Mg  Mg2  1  0.62285000  0.70577200  0.78061800  1
  Mg  Mg3  1  0.12285000  0.29422800  0.71938200  1
  Mg  Mg4  1  0.50000000  0.00000000  0.50000000  1
  Mg  Mg5  1  0.00000000  0.00000000  0.00000000  1
  As  As0  1  0.98115900  0.10822500  0.34612200  1
  As  As1  1  0.33043300  0.34436800  0.42221200  1
  As  As2  1  0.83043300  0.65563200  0.07778800  1
  As  As3  1  0.16956700  0.34436800  0.92221200  1
  As  As4  1  0.01884100  0.89177500  0.65387800  1
  As  As5  1  0.66956700  0.65563200  0.57778800  1
  As  As6  1  0.51884100  0.10822500  0.84612200  1
  As  As7  1  0.48115900  0.89177500  0.15387800  1
  W  W0  1  0.62173700  0.19517400  0.61472300  1
  W  W1  1  0.37826300  0.80482600  0.38527700  1
  W  W2  1  0.12173700  0.80482600  0.88527700  1
  W  W3  1  0.87826300  0.19517400  0.11472300  1
  W  W4  1  0.00000000  0.50000000  0.50000000  1
  W  W5  1  0.50000000  0.50000000  0.00000000  1
  O  O0  1  0.18045900  0.79717600  0.29389700  1
  O  O1  1  0.88889800  0.81013100  0.99328800  1
  O  O2  1  0.19643100  0.26601100  0.33732500  1
  O  O3  1  0.15405900  0.17885700  0.17704900  1
  O  O4  1  0.80356900  0.73398900  0.66267500  1
  O  O5  1  0.31954100  0.79717600  0.79389700  1
  O  O6  1  0.69643100  0.73398900  0.16267500  1
  O  O7  1  0.61838800  0.55152300  0.88499400  1
  O  O8  1  0.70255300  0.11129600  0.92920500  1
  O  O9  1  0.81954100  0.20282400  0.70610300  1
  O  O10  1  0.34594100  0.17885700  0.67704900  1
  O  O11  1  0.38161200  0.44847700  0.11500600  1
  O  O12  1  0.28119700  0.63799300  0.46110800  1
  O  O13  1  0.29744700  0.88870400  0.07079500  1
  O  O14  1  0.71156000  0.02208400  0.60480600  1
  O  O15  1  0.21156000  0.97791600  0.89519400  1
  O  O16  1  0.78119700  0.36200700  0.03889200  1
  O  O17  1  0.30356900  0.26601100  0.83732500  1
  O  O18  1  0.20255300  0.88870400  0.57079500  1
  O  O19  1  0.11838800  0.44847700  0.61500600  1
  O  O20  1  0.78844000  0.02208400  0.10480600  1
  O  O21  1  0.28844000  0.97791600  0.39519400  1
  O  O22  1  0.11110200  0.18986900  0.00671200  1
  O  O23  1  0.38889800  0.18986900  0.50671200  1
  O  O24  1  0.71880300  0.36200700  0.53889200  1
  O  O25  1  0.68045900  0.20282400  0.20610300  1
  O  O26  1  0.84594100  0.82114300  0.82295100  1
  O  O27  1  0.79744700  0.11129600  0.42920500  1
  O  O28  1  0.61110200  0.81013100  0.49328800  1
  O  O29  1  0.88161200  0.55152300  0.38499400  1
  O  O30  1  0.21880300  0.63799300  0.96110800  1
  O  O31  1  0.65405900  0.82114300  0.32295100  1
loop_
_geom_bond_atom_site_label_1
_geom_bond_atom_site_label_2
_geom_bond_distance
_geom_bond_site_symmetry_2
Mg0 O11 1.944424 1_555
Mg0 O3 1.947441 1_555
Mg0 O25 1.964427 1_555
Mg0 O2 2.076694 1_555
Mg1 O29 1.944424 1_555
Mg1 O31 1.947441 1_555
Mg1 O0 1.964427 1_655
Mg1 O6 2.076694 1_555
Mg2 O7 1.944424 1_555
Mg2 O26 1.947441 1_555
Mg2 O5 1.964427 1_555
Mg2 O4 2.076694 1_555
Mg3 O19 1.944424 1_555
Mg3 O10 1.947441 1_555
Mg3 O9 1.964427 1_455
Mg3 O17 2.076694 1_555
Mg4 O23 2.052670 1_555
Mg4 O28 2.052670 1_545
Mg4 O14 2.100833 1_555
Mg4 O21 2.100833 1_545
Mg4 O27 2.141241 1_555
Mg4 O18 2.141241 1_545
Mg5 O22 2.052670 1_555
Mg5 O1 2.052670 1_444
Mg5 O20 2.100833 1_455
Mg5 O15 2.100833 1_544
Mg5 O8 2.141241 1_454
Mg5 O13 2.141241 1_545
As0 O27 1.676744 1_555
As0 O2 1.972973 1_655
As0 O21 2.171336 1_645
As1 O23 1.792789 1_555
As1 O2 1.895474 1_555
As2 O1 1.792789 1_554
As2 O6 1.895474 1_555
As3 O22 1.792789 1_556
As3 O17 1.895474 1_555
As4 O18 1.676744 1_555
As4 O4 1.972973 1_455
As4 O14 2.171336 1_465
As5 O28 1.792789 1_555
As5 O4 1.895474 1_555
As6 O8 1.676744 1_555
As6 O17 1.972973 1_555
As6 O15 2.171336 1_545
As7 O13 1.676744 1_555
As7 O6 1.972973 1_555
As7 O20 2.171336 1_565
O0 W1 1.840543 1_555
O1 W2 2.162840 1_655
O3 W3 1.809347 1_455
O5 W2 1.840543 1_555
O7 W5 1.877511 1_556
O9 W0 1.840543 1_555
O10 W0 1.809347 1_555
O11 W5 1.877511 1_555
O12 W1 1.868741 1_555
O12 W4 2.077467 1_555
O14 W0 1.872733 1_555
O15 W2 1.872733 1_555
O16 W3 1.868741 1_555
O16 W5 2.077467 1_555
O19 W4 1.877511 1_555
O20 W3 1.872733 1_555
O21 W1 1.872733 1_555
O22 W3 2.162840 1_455
O23 W0 2.162840 1_555
O24 W0 1.868741 1_555
O24 W4 2.077467 1_655
O25 W3 1.840543 1_555
O26 W2 1.809347 1_655
O28 W1 2.162840 1_555
O29 W4 1.877511 1_655
O30 W2 1.868741 1_555
O30 W5 2.077467 1_556
O31 W1 1.809347 1_555
