# generated using pymatgen
data_Ca8Ti3Mn5O21
_symmetry_space_group_name_H-M   'P 1'
_cell_length_a   7.80688465
_cell_length_b   7.82315200
_cell_length_c   7.88049274
_cell_angle_alpha   90.00000000
_cell_angle_beta   90.17060831
_cell_angle_gamma   90.00000000
_symmetry_Int_Tables_number   1
_chemical_formula_structural   Ca8Ti3Mn5O21
_chemical_formula_sum   'Ca8 Ti3 Mn5 O21'
_cell_volume   481.29458857
_cell_formula_units_Z   1
loop_
 _symmetry_equiv_pos_site_id
 _symmetry_equiv_pos_as_xyz
  1  'x, y, z'
loop_
 _atom_site_type_symbol
 _atom_site_label
 _atom_site_symmetry_multiplicity
 _atom_site_fract_x
 _atom_site_fract_y
 _atom_site_fract_z
 _atom_site_occupancy
  Ca  Ca0  1  0.22871000  0.26618300  0.26316000  1
  Ca  Ca1  1  0.24776200  0.29094900  0.71502300  1
  Ca  Ca2  1  0.22871000  0.73381700  0.26316000  1
  Ca  Ca3  1  0.24776200  0.70905100  0.71502300  1
  Ca  Ca4  1  0.76341800  0.24907100  0.28329500  1
  Ca  Ca5  1  0.69699500  0.28435800  0.75375200  1
  Ca  Ca6  1  0.76341800  0.75092900  0.28329500  1
  Ca  Ca7  1  0.69699500  0.71564200  0.75375200  1
  Ti  Ti0  1  0.04429000  0.00000000  0.99234300  1
  Ti  Ti1  1  0.01602300  0.00000000  0.52716400  1
  Ti  Ti2  1  0.49394000  0.00000000  0.99415000  1
  Mn  Mn0  1  0.98570400  0.50000000  0.01561600  1
  Mn  Mn1  1  0.99091600  0.50000000  0.50834700  1
  Mn  Mn2  1  0.51225100  0.00000000  0.46912800  1
  Mn  Mn3  1  0.47792600  0.50000000  0.99489700  1
  Mn  Mn4  1  0.49488500  0.50000000  0.48350100  1
  O  O0  1  0.08433800  0.00000000  0.75913900  1
  O  O1  1  0.93991100  0.50000000  0.25669500  1
  O  O2  1  0.04656600  0.50000000  0.77158700  1
  O  O3  1  0.62450800  0.00000000  0.17741200  1
  O  O4  1  0.58726400  0.00000000  0.76901800  1
  O  O5  1  0.45396100  0.50000000  0.73754300  1
  O  O6  1  0.26000900  0.00000000  0.07687500  1
  O  O7  1  0.22710900  0.00000000  0.42017800  1
  O  O8  1  0.24275300  0.50000000  0.07585400  1
  O  O9  1  0.24580600  0.50000000  0.46125200  1
  O  O10  1  0.79168600  0.00000000  0.45730400  1
  O  O11  1  0.73218700  0.50000000  0.96321900  1
  O  O12  1  0.73912600  0.50000000  0.53853300  1
  O  O13  1  0.96134100  0.20042700  0.06610700  1
  O  O14  1  0.00845200  0.25147800  0.51108800  1
  O  O15  1  0.96134100  0.79957300  0.06610700  1
  O  O16  1  0.00845200  0.74852200  0.51108800  1
  O  O17  1  0.47650200  0.25213600  0.98031700  1
  O  O18  1  0.49623900  0.25749000  0.45238000  1
  O  O19  1  0.47650200  0.74786400  0.98031700  1
  O  O20  1  0.49623900  0.74251000  0.45238000  1
loop_
_geom_bond_atom_site_label_1
_geom_bond_atom_site_label_2
_geom_bond_distance
_geom_bond_site_symmetry_2
Ca0 O8 2.353225 1_555
Ca0 O9 2.408196 1_555
Ca0 O7 2.422334 1_555
Ca0 O6 2.559935 1_555
Ca0 O18 2.563535 1_555
Ca0 O14 2.609087 1_555
Ca0 O13 2.648329 1_455
Ca0 O1 2.903644 1_455
Ca0 O17 2.957730 1_554
Ca1 O5 2.301264 1_555
Ca1 O2 2.311853 1_555
Ca1 O14 2.480057 1_555
Ca1 O9 2.583422 1_555
Ca1 O0 2.632880 1_555
Ca1 O17 2.762184 1_555
Ca1 O18 2.852939 1_555
Ca2 O8 2.353225 1_555
Ca2 O9 2.408196 1_555
Ca2 O7 2.422334 1_565
Ca2 O6 2.559935 1_565
Ca2 O20 2.563535 1_555
Ca2 O16 2.609087 1_555
Ca2 O15 2.648329 1_455
Ca2 O1 2.903644 1_455
Ca2 O19 2.957730 1_554
Ca3 O5 2.301264 1_555
Ca3 O2 2.311853 1_555
Ca3 O16 2.480057 1_555
Ca3 O9 2.583422 1_555
Ca3 O0 2.632880 1_565
Ca3 O19 2.762184 1_555
Ca3 O20 2.852939 1_555
Ca4 O13 2.340404 1_555
Ca4 O3 2.379837 1_555
Ca4 O10 2.392495 1_555
Ca4 O1 2.407851 1_555
Ca4 O18 2.479331 1_555
Ca4 O14 2.619494 1_655
Ca4 O12 2.817367 1_555
Ca4 O11 3.204942 1_554
Ca4 O17 3.269048 1_554
Ca5 O11 2.375620 1_555
Ca5 O4 2.386983 1_555
Ca5 O12 2.415367 1_555
Ca5 O17 2.496547 1_555
Ca5 O5 2.541798 1_555
Ca5 O18 2.849353 1_555
Ca5 O14 3.108541 1_655
Ca5 O13 3.273966 1_556
Ca6 O15 2.340404 1_555
Ca6 O3 2.379837 1_565
Ca6 O10 2.392495 1_565
Ca6 O1 2.407851 1_555
Ca6 O20 2.479331 1_555
Ca6 O16 2.619494 1_655
Ca6 O12 2.817367 1_555
Ca6 O11 3.204942 1_554
Ca6 O19 3.269048 1_554
Ca7 O11 2.375620 1_555
Ca7 O4 2.386983 1_565
Ca7 O12 2.415367 1_555
Ca7 O19 2.496547 1_555
Ca7 O5 2.541798 1_555
Ca7 O20 2.849353 1_555
Ca7 O16 3.108541 1_655
Ca7 O15 3.273966 1_556
Mn0 O1 1.934211 1_555
Mn0 O2 1.982270 1_654
Mn0 O11 2.020588 1_554
Mn0 O8 2.060758 1_655
Mn0 O15 2.384834 1_555
Mn0 O13 2.384834 1_555
Mn1 O16 1.949155 1_655
Mn1 O14 1.949155 1_655
Mn1 O12 1.980740 1_555
Mn1 O1 2.021560 1_555
Mn1 O9 2.025297 1_655
Mn1 O2 2.118200 1_655
Mn2 O20 2.022545 1_545
Mn2 O18 2.022545 1_555
Mn2 O10 2.183783 1_555
Mn2 O7 2.258114 1_555
Mn2 O4 2.433065 1_555
Mn2 O3 2.462685 1_555
Mn3 O19 1.942509 1_555
Mn3 O17 1.942509 1_555
Mn3 O8 1.945450 1_556
Mn3 O11 2.001360 1_555
Mn3 O5 2.036133 1_555
Mn4 O18 1.913012 1_555
Mn4 O20 1.913012 1_555
Mn4 O9 1.951900 1_555
Mn4 O12 1.954199 1_555
Mn4 O5 2.028248 1_555
O0 Ti0 1.865085 1_555
O0 Ti1 1.902761 1_555
O3 Ti2 1.765209 1_554
O4 Ti2 1.919928 1_555
O6 Ti0 1.809213 1_554
O6 Ti2 1.940967 1_554
O7 Ti1 1.853308 1_555
O10 Ti1 1.834298 1_655
O10 O3 2.559551 1_555
O10 O14 2.628614 1_655
O10 O16 2.628614 1_645
O13 Ti0 1.793887 1_654
O14 Ti1 1.972300 1_555
O15 Ti0 1.793887 1_664
O16 Ti1 1.972300 1_565
O17 Ti2 1.980171 1_555
O17 O6 2.708131 1_556
O19 Ti2 1.980171 1_565
O19 O6 2.708131 1_566
