# generated using pymatgen
data_Nb3CrS6
_symmetry_space_group_name_H-M   'P 1'
_cell_length_a   5.80431450
_cell_length_b   5.80431445
_cell_length_c   12.22120952
_cell_angle_alpha   90.00000629
_cell_angle_beta   89.99999898
_cell_angle_gamma   119.99997752
_symmetry_Int_Tables_number   1
_chemical_formula_structural   Nb3CrS6
_chemical_formula_sum   'Nb6 Cr2 S12'
_cell_volume   356.57163197
_cell_formula_units_Z   2
loop_
 _symmetry_equiv_pos_site_id
 _symmetry_equiv_pos_as_xyz
  1  'x, y, z'
loop_
 _atom_site_type_symbol
 _atom_site_label
 _atom_site_symmetry_multiplicity
 _atom_site_fract_x
 _atom_site_fract_y
 _atom_site_fract_z
 _atom_site_occupancy
  Nb  Nb0  1  0.00000004  0.00000018  0.50002123  1
  Nb  Nb1  1  -0.00000027  -0.00000004  -0.00002094  1
  Nb  Nb2  1  0.33333314  0.66666663  0.99646330  1
  Nb  Nb3  1  0.66666639  0.33333339  0.00349124  1
  Nb  Nb4  1  0.66666669  0.33333358  0.49650904  1
  Nb  Nb5  1  0.33333333  0.66666683  0.50353694  1
  Cr  Cr0  1  0.33333325  0.66666660  0.25000004  1
  Cr  Cr1  1  0.66666655  0.33333337  0.75000012  1
  S  S0  1  0.33144291  0.33481485  0.37072733  1
  S  S1  1  0.66518519  -0.00337172  0.37072750  1
  S  S2  1  0.00337199  0.66855725  0.37072730  1
  S  S3  1  0.33482233  0.33144157  0.62930211  1
  S  S4  1  -0.00338078  0.66517791  0.62930198  1
  S  S5  1  0.66855859  0.00338107  0.62930209  1
  S  S6  1  0.66855833  0.66517781  0.87069821  1
  S  S7  1  0.33482190  0.00338065  0.87069836  1
  S  S8  1  -0.00338097  0.33144139  0.87069822  1
  S  S9  1  0.66518506  0.66855689  0.12927269  1
  S  S10  1  0.00337155  0.33481468  0.12927254  1
  S  S11  1  0.33144280  -0.00337188  0.12927269  1
loop_
_geom_bond_atom_site_label_1
_geom_bond_atom_site_label_2
_geom_bond_distance
_geom_bond_site_symmetry_2
Nb0 S4 2.497079 1_545
Nb0 S5 2.497080 1_455
Nb0 S3 2.497080 1_555
Nb0 S1 2.497165 1_455
Nb0 S0 2.497167 1_555
Nb0 S2 2.497167 1_545
Nb1 S7 2.497078 1_554
Nb1 S8 2.497079 1_554
Nb1 S6 2.497079 1_444
Nb1 S10 2.497163 1_555
Nb1 S11 2.497165 1_555
Nb1 S9 2.497165 1_445
Nb2 S7 2.482984 1_565
Nb2 S6 2.482985 1_555
Nb2 S8 2.482986 1_555
Nb2 S11 2.514667 1_566
Nb2 S10 2.514667 1_556
Nb2 S9 2.514668 1_556
Nb3 S9 2.483084 1_555
Nb3 S10 2.483085 1_655
Nb3 S11 2.483086 1_555
Nb3 S7 2.514502 1_554
Nb3 S6 2.514502 1_554
Nb3 S8 2.514503 1_654
Nb4 S1 2.483086 1_555
Nb4 S0 2.483087 1_555
Nb4 S2 2.483088 1_655
Nb4 S4 2.514502 1_655
Nb4 S3 2.514502 1_555
Nb4 S5 2.514502 1_555
Nb5 S4 2.482985 1_555
Nb5 S3 2.482987 1_555
Nb5 S5 2.482987 1_565
Nb5 S1 2.514668 1_565
Nb5 S2 2.514669 1_555
Nb5 S0 2.514669 1_555
Cr0 S2 2.421988 1_555
Cr0 S0 2.421989 1_555
Cr0 S9 2.421989 1_555
Cr0 S11 2.421990 1_565
Cr0 S1 2.421991 1_565
Cr0 S10 2.421992 1_555
Cr1 S5 2.421733 1_555
Cr1 S3 2.421733 1_555
Cr1 S8 2.421734 1_655
Cr1 S6 2.421734 1_555
Cr1 S4 2.421735 1_655
Cr1 S7 2.421737 1_555
S0 S2 3.349196 1_545
S0 S1 3.349196 1_455
S0 S1 3.377598 1_555
S0 S2 3.377600 1_655
S1 S2 3.349196 1_645
S1 S2 3.377600 1_655
S3 S4 3.349227 1_545
S3 S5 3.349227 1_455
S3 S4 3.377652 1_555
S3 S5 3.377653 1_565
S4 S5 3.349226 1_465
S4 S5 3.377652 1_565
S6 S7 3.349226 1_665
S6 S8 3.349226 1_665
S6 S7 3.377651 1_565
S6 S8 3.377652 1_555
S7 S8 3.349225 1_555
S7 S8 3.377652 1_545
S10 S11 3.349196 1_555
S10 S9 3.349197 1_445
S10 S9 3.377597 1_455
S10 S11 3.377599 1_455
S11 S9 3.349196 1_445
S11 S9 3.377599 1_555
