# generated using pymatgen
data_BaGaGe
_symmetry_space_group_name_H-M   'P 1'
_cell_length_a   8.69128721
_cell_length_b   8.69128721
_cell_length_c   41.17826662
_cell_angle_alpha   90.00000000
_cell_angle_beta   90.00000000
_cell_angle_gamma   120.00001284
_symmetry_Int_Tables_number   1
_chemical_formula_structural   BaGaGe
_chemical_formula_sum   'Ba32 Ga32 Ge32'
_cell_volume   2693.80925044
_cell_formula_units_Z   32
loop_
 _symmetry_equiv_pos_site_id
 _symmetry_equiv_pos_as_xyz
  1  'x, y, z'
loop_
 _atom_site_type_symbol
 _atom_site_label
 _atom_site_symmetry_multiplicity
 _atom_site_fract_x
 _atom_site_fract_y
 _atom_site_fract_z
 _atom_site_occupancy
  Ba  Ba0_0  1  0.00000000  0.00000000  0.25000000  1
  Ba  Ba0_1  1  0.00000000  0.00000000  0.75000000  1
  Ba  Ba0_2  1  0.00000000  0.50000000  0.25000000  1
  Ba  Ba0_3  1  0.00000000  0.50000000  0.75000000  1
  Ba  Ba0_4  1  0.50000000  0.00000000  0.25000000  1
  Ba  Ba0_5  1  0.50000000  0.00000000  0.75000000  1
  Ba  Ba0_6  1  0.50000000  0.50000000  0.25000000  1
  Ba  Ba0_7  1  0.50000000  0.50000000  0.75000000  1
  Ba  Ba1_0  1  0.00000000  0.00000000  0.00000000  1
  Ba  Ba1_1  1  0.00000000  0.00000000  0.50000000  1
  Ba  Ba1_2  1  0.00000000  0.50000000  0.00000000  1
  Ba  Ba1_3  1  0.00000000  0.50000000  0.50000000  1
  Ba  Ba1_4  1  0.50000000  0.00000000  0.00000000  1
  Ba  Ba1_5  1  0.50000000  0.00000000  0.50000000  1
  Ba  Ba1_6  1  0.50000000  0.50000000  0.00000000  1
  Ba  Ba1_7  1  0.50000000  0.50000000  0.50000000  1
  Ba  Ba2_0  1  0.00000000  0.00000000  0.12500000  1
  Ba  Ba2_1  1  0.00000000  0.00000000  0.62500000  1
  Ba  Ba2_2  1  0.00000000  0.50000000  0.12500000  1
  Ba  Ba2_3  1  0.00000000  0.50000000  0.62500000  1
  Ba  Ba2_4  1  0.50000000  0.00000000  0.12500000  1
  Ba  Ba2_5  1  0.50000000  0.00000000  0.62500000  1
  Ba  Ba2_6  1  0.50000000  0.50000000  0.12500000  1
  Ba  Ba2_7  1  0.50000000  0.50000000  0.62500000  1
  Ba  Ba3_0  1  0.00000000  0.00000000  0.37500000  1
  Ba  Ba3_1  1  0.00000000  0.00000000  0.87500000  1
  Ba  Ba3_2  1  0.00000000  0.50000000  0.37500000  1
  Ba  Ba3_3  1  0.00000000  0.50000000  0.87500000  1
  Ba  Ba3_4  1  0.50000000  0.00000000  0.37500000  1
  Ba  Ba3_5  1  0.50000000  0.00000000  0.87500000  1
  Ba  Ba3_6  1  0.50000000  0.50000000  0.37500000  1
  Ba  Ba3_7  1  0.50000000  0.50000000  0.87500000  1
  Ga  Ga0_0  1  0.16666650  0.33333350  0.18245096  1
  Ga  Ga0_1  1  0.16666650  0.33333350  0.68245096  1
  Ga  Ga0_2  1  0.16666650  0.83333350  0.18245096  1
  Ga  Ga0_3  1  0.16666650  0.83333350  0.68245096  1
  Ga  Ga0_4  1  0.66666650  0.33333350  0.18245096  1
  Ga  Ga0_5  1  0.66666650  0.33333350  0.68245096  1
  Ga  Ga0_6  1  0.66666650  0.83333350  0.18245096  1
  Ga  Ga0_7  1  0.66666650  0.83333350  0.68245096  1
  Ga  Ga1_0  1  0.33333350  0.16666650  0.31754904  1
  Ga  Ga1_1  1  0.33333350  0.16666650  0.81754904  1
  Ga  Ga1_2  1  0.33333350  0.66666650  0.31754904  1
  Ga  Ga1_3  1  0.33333350  0.66666650  0.81754904  1
  Ga  Ga1_4  1  0.83333350  0.16666650  0.31754904  1
  Ga  Ga1_5  1  0.83333350  0.16666650  0.81754904  1
  Ga  Ga1_6  1  0.83333350  0.66666650  0.31754904  1
  Ga  Ga1_7  1  0.83333350  0.66666650  0.81754904  1
  Ga  Ga2_0  1  0.33333350  0.16666650  0.43245096  1
  Ga  Ga2_1  1  0.33333350  0.16666650  0.93245096  1
  Ga  Ga2_2  1  0.33333350  0.66666650  0.43245096  1
  Ga  Ga2_3  1  0.33333350  0.66666650  0.93245096  1
  Ga  Ga2_4  1  0.83333350  0.16666650  0.43245096  1
  Ga  Ga2_5  1  0.83333350  0.16666650  0.93245096  1
  Ga  Ga2_6  1  0.83333350  0.66666650  0.43245096  1
  Ga  Ga2_7  1  0.83333350  0.66666650  0.93245096  1
  Ga  Ga3_0  1  0.16666650  0.33333350  0.06754904  1
  Ga  Ga3_1  1  0.16666650  0.33333350  0.56754904  1
  Ga  Ga3_2  1  0.16666650  0.83333350  0.06754904  1
  Ga  Ga3_3  1  0.16666650  0.83333350  0.56754904  1
  Ga  Ga3_4  1  0.66666650  0.33333350  0.06754904  1
  Ga  Ga3_5  1  0.66666650  0.33333350  0.56754904  1
  Ga  Ga3_6  1  0.66666650  0.83333350  0.06754904  1
  Ga  Ga3_7  1  0.66666650  0.83333350  0.56754904  1
  Ge  Ge0_0  1  0.16666650  0.33333350  0.44176438  1
  Ge  Ge0_1  1  0.16666650  0.33333350  0.94176438  1
  Ge  Ge0_2  1  0.16666650  0.83333350  0.44176438  1
  Ge  Ge0_3  1  0.16666650  0.83333350  0.94176438  1
  Ge  Ge0_4  1  0.66666650  0.33333350  0.44176438  1
  Ge  Ge0_5  1  0.66666650  0.33333350  0.94176438  1
  Ge  Ge0_6  1  0.66666650  0.83333350  0.44176438  1
  Ge  Ge0_7  1  0.66666650  0.83333350  0.94176438  1
  Ge  Ge1_0  1  0.33333350  0.16666650  0.05823562  1
  Ge  Ge1_1  1  0.33333350  0.16666650  0.55823562  1
  Ge  Ge1_2  1  0.33333350  0.66666650  0.05823562  1
  Ge  Ge1_3  1  0.33333350  0.66666650  0.55823562  1
  Ge  Ge1_4  1  0.83333350  0.16666650  0.05823562  1
  Ge  Ge1_5  1  0.83333350  0.16666650  0.55823562  1
  Ge  Ge1_6  1  0.83333350  0.66666650  0.05823562  1
  Ge  Ge1_7  1  0.83333350  0.66666650  0.55823562  1
  Ge  Ge2_0  1  0.33333350  0.16666650  0.19176438  1
  Ge  Ge2_1  1  0.33333350  0.16666650  0.69176438  1
  Ge  Ge2_2  1  0.33333350  0.66666650  0.19176438  1
  Ge  Ge2_3  1  0.33333350  0.66666650  0.69176438  1
  Ge  Ge2_4  1  0.83333350  0.16666650  0.19176438  1
  Ge  Ge2_5  1  0.83333350  0.16666650  0.69176438  1
  Ge  Ge2_6  1  0.83333350  0.66666650  0.19176438  1
  Ge  Ge2_7  1  0.83333350  0.66666650  0.69176438  1
  Ge  Ge3_0  1  0.16666650  0.33333350  0.30823562  1
  Ge  Ge3_1  1  0.16666650  0.33333350  0.80823562  1
  Ge  Ge3_2  1  0.16666650  0.83333350  0.30823562  1
  Ge  Ge3_3  1  0.16666650  0.83333350  0.80823562  1
  Ge  Ge3_4  1  0.66666650  0.33333350  0.30823562  1
  Ge  Ge3_5  1  0.66666650  0.33333350  0.80823562  1
  Ge  Ge3_6  1  0.66666650  0.83333350  0.30823562  1
  Ge  Ge3_7  1  0.66666650  0.83333350  0.80823562  1
loop_
_geom_bond_atom_site_label_1
_geom_bond_atom_site_label_2
_geom_bond_distance
_geom_bond_site_symmetry_2
Ba0_0 Ge2_4 3.470658 1_455
Ba0_0 Ge3_2 3.470658 1_545
Ba0_0 Ge3_6 3.470660 1_445
Ba0_0 Ge3_0 3.470660 1_555
Ba0_0 Ge2_0 3.470660 1_555
Ba0_0 Ge2_6 3.470660 1_445
Ba0_0 Ga1_4 3.745917 1_455
Ba0_0 Ga0_2 3.745917 1_545
Ba0_0 Ga0_6 3.745919 1_445
Ba0_0 Ga0_0 3.745919 1_555
Ba0_0 Ga1_0 3.745919 1_555
Ba0_0 Ga1_6 3.745919 1_445
Ba0_0 Ba0_6 4.345643 1_445
Ba0_0 Ba0_6 4.345643 1_555
Ba0_0 Ba0_2 4.345644 1_555
Ba0_0 Ba0_4 4.345644 1_555
Ba0_0 Ba0_4 4.345644 1_455
Ba0_0 Ba0_2 4.345644 1_545
Ba0_1 Ge2_5 3.470658 1_455
Ba0_1 Ge3_3 3.470658 1_545
Ba0_1 Ge3_7 3.470660 1_445
Ba0_1 Ge3_1 3.470660 1_555
Ba0_1 Ge2_1 3.470660 1_555
Ba0_1 Ge2_7 3.470660 1_445
Ba0_1 Ga1_5 3.745917 1_455
Ba0_1 Ga0_3 3.745917 1_545
Ba0_1 Ga0_7 3.745919 1_445
Ba0_1 Ga0_1 3.745919 1_555
Ba0_1 Ga1_1 3.745919 1_555
Ba0_1 Ga1_7 3.745919 1_445
Ba0_1 Ba0_7 4.345643 1_555
Ba0_1 Ba0_7 4.345643 1_445
Ba0_1 Ba0_3 4.345644 1_555
Ba0_1 Ba0_3 4.345644 1_545
Ba0_1 Ba0_5 4.345644 1_555
Ba0_1 Ba0_5 4.345644 1_455
Ba0_2 Ge3_0 3.470658 1_555
Ba0_2 Ge2_6 3.470658 1_455
Ba0_2 Ge3_2 3.470660 1_555
Ba0_2 Ge3_4 3.470660 1_455
Ba0_2 Ge2_4 3.470660 1_455
Ba0_2 Ge2_2 3.470660 1_555
Ba0_2 Ga0_0 3.745917 1_555
Ba0_2 Ga1_6 3.745917 1_455
Ba0_2 Ga0_2 3.745919 1_555
Ba0_2 Ga0_4 3.745919 1_455
Ba0_2 Ga1_2 3.745919 1_555
Ba0_2 Ga1_4 3.745919 1_455
Ba0_2 Ba0_4 4.345643 1_565
Ba0_2 Ba0_4 4.345643 1_455
Ba0_2 Ba0_6 4.345644 1_555
Ba0_2 Ba0_6 4.345644 1_455
Ba0_3 Ge3_1 3.470658 1_555
Ba0_3 Ge2_7 3.470658 1_455
Ba0_3 Ge3_3 3.470660 1_555
Ba0_3 Ge2_5 3.470660 1_455
Ba0_3 Ge3_5 3.470660 1_455
Ba0_3 Ge2_3 3.470660 1_555
Ba0_3 Ga1_7 3.745917 1_455
Ba0_3 Ga0_1 3.745917 1_555
Ba0_3 Ga0_3 3.745919 1_555
Ba0_3 Ga1_5 3.745919 1_455
Ba0_3 Ga1_3 3.745919 1_555
Ba0_3 Ga0_5 3.745919 1_455
Ba0_3 Ba0_5 4.345643 1_565
Ba0_3 Ba0_5 4.345643 1_455
Ba0_3 Ba0_7 4.345644 1_455
Ba0_3 Ba0_7 4.345644 1_555
Ba0_4 Ge2_0 3.470658 1_555
Ba0_4 Ge3_6 3.470658 1_545
Ba0_4 Ge3_2 3.470660 1_545
Ba0_4 Ge3_4 3.470660 1_555
Ba0_4 Ge2_4 3.470660 1_555
Ba0_4 Ge2_2 3.470660 1_545
Ba0_4 Ga1_0 3.745917 1_555
Ba0_4 Ga0_6 3.745917 1_545
Ba0_4 Ga0_2 3.745919 1_545
Ba0_4 Ga0_4 3.745919 1_555
Ba0_4 Ga1_4 3.745919 1_555
Ba0_4 Ga1_2 3.745919 1_545
Ba0_4 Ba0_6 4.345644 1_555
Ba0_4 Ba0_6 4.345644 1_545
Ba0_5 Ge2_1 3.470658 1_555
Ba0_5 Ge3_7 3.470658 1_545
Ba0_5 Ge3_3 3.470660 1_545
Ba0_5 Ge3_5 3.470660 1_555
Ba0_5 Ge2_5 3.470660 1_555
Ba0_5 Ge2_3 3.470660 1_545
Ba0_5 Ga1_1 3.745917 1_555
Ba0_5 Ga0_7 3.745917 1_545
Ba0_5 Ga0_3 3.745919 1_545
Ba0_5 Ga0_5 3.745919 1_555
Ba0_5 Ga1_5 3.745919 1_555
Ba0_5 Ga1_3 3.745919 1_545
Ba0_5 Ba0_7 4.345644 1_555
Ba0_5 Ba0_7 4.345644 1_545
Ba0_6 Ge3_4 3.470658 1_555
Ba0_6 Ge2_2 3.470658 1_555
Ba0_6 Ge3_6 3.470660 1_555
Ba0_6 Ge2_0 3.470660 1_555
Ba0_6 Ge2_6 3.470660 1_555
Ba0_6 Ge3_0 3.470660 1_555
Ba0_6 Ga0_4 3.745917 1_555
Ba0_6 Ga1_2 3.745917 1_555
Ba0_6 Ga0_6 3.745919 1_555
Ba0_6 Ga0_0 3.745919 1_555
Ba0_6 Ga1_6 3.745919 1_555
Ba0_6 Ga1_0 3.745919 1_555
Ba0_7 Ge2_3 3.470658 1_555
Ba0_7 Ge3_5 3.470658 1_555
Ba0_7 Ge3_7 3.470660 1_555
Ba0_7 Ge2_7 3.470660 1_555
Ba0_7 Ge2_1 3.470660 1_555
Ba0_7 Ge3_1 3.470660 1_555
Ba0_7 Ga1_3 3.745917 1_555
Ba0_7 Ga0_5 3.745917 1_555
Ba0_7 Ga0_7 3.745919 1_555
Ba0_7 Ga1_1 3.745919 1_555
Ba0_7 Ga1_7 3.745919 1_555
Ba0_7 Ga0_1 3.745919 1_555
Ba1_0 Ge1_4 3.470658 1_455
Ba1_0 Ge0_3 3.470658 1_544
Ba1_0 Ge0_7 3.470660 1_444
Ba1_0 Ge0_1 3.470660 1_554
Ba1_0 Ge1_0 3.470660 1_555
Ba1_0 Ge1_6 3.470660 1_445
Ba1_0 Ga2_5 3.745917 1_454
Ba1_0 Ga3_2 3.745917 1_545
Ba1_0 Ga2_1 3.745919 1_554
Ba1_0 Ga2_7 3.745919 1_444
Ba1_0 Ga3_6 3.745919 1_445
Ba1_0 Ga3_0 3.745919 1_555
Ba1_0 Ba1_6 4.345643 1_555
Ba1_0 Ba1_6 4.345643 1_445
Ba1_0 Ba1_2 4.345644 1_555
Ba1_0 Ba1_2 4.345644 1_545
Ba1_0 Ba1_4 4.345644 1_455
Ba1_0 Ba1_4 4.345644 1_555
Ba1_1 Ge1_5 3.470658 1_455
Ba1_1 Ge0_2 3.470658 1_545
Ba1_1 Ge0_6 3.470660 1_445
Ba1_1 Ge0_0 3.470660 1_555
Ba1_1 Ge1_1 3.470660 1_555
Ba1_1 Ge1_7 3.470660 1_445
Ba1_1 Ga2_4 3.745917 1_455
Ba1_1 Ga3_3 3.745917 1_545
Ba1_1 Ga2_0 3.745919 1_555
Ba1_1 Ga3_7 3.745919 1_445
Ba1_1 Ga2_6 3.745919 1_445
Ba1_1 Ga3_1 3.745919 1_555
Ba1_1 Ba1_7 4.345643 1_445
Ba1_1 Ba1_7 4.345643 1_555
Ba1_1 Ba1_3 4.345644 1_555
Ba1_1 Ba1_5 4.345644 1_455
Ba1_1 Ba1_3 4.345644 1_545
Ba1_1 Ba1_5 4.345644 1_555
Ba1_2 Ge0_1 3.470658 1_554
Ba1_2 Ge1_6 3.470658 1_455
Ba1_2 Ge0_3 3.470660 1_554
Ba1_2 Ge0_5 3.470660 1_454
Ba1_2 Ge1_4 3.470660 1_455
Ba1_2 Ge1_2 3.470660 1_555
Ba1_2 Ga2_7 3.745917 1_454
Ba1_2 Ga3_0 3.745917 1_555
Ba1_2 Ga2_5 3.745919 1_454
Ba1_2 Ga2_3 3.745919 1_554
Ba1_2 Ga3_2 3.745919 1_555
Ba1_2 Ga3_4 3.745919 1_455
Ba1_2 Ba1_4 4.345643 1_565
Ba1_2 Ba1_4 4.345643 1_455
Ba1_2 Ba1_6 4.345644 1_555
Ba1_2 Ba1_6 4.345644 1_455
Ba1_3 Ge0_0 3.470658 1_555
Ba1_3 Ge1_7 3.470658 1_455
Ba1_3 Ge0_2 3.470660 1_555
Ba1_3 Ge0_4 3.470660 1_455
Ba1_3 Ge1_5 3.470660 1_455
Ba1_3 Ge1_3 3.470660 1_555
Ba1_3 Ga2_6 3.745917 1_455
Ba1_3 Ga3_1 3.745917 1_555
Ba1_3 Ga2_2 3.745919 1_555
Ba1_3 Ga2_4 3.745919 1_455
Ba1_3 Ga3_3 3.745919 1_555
Ba1_3 Ga3_5 3.745919 1_455
Ba1_3 Ba1_5 4.345643 1_565
Ba1_3 Ba1_5 4.345643 1_455
Ba1_3 Ba1_7 4.345644 1_455
Ba1_3 Ba1_7 4.345644 1_555
Ba1_4 Ge1_0 3.470658 1_555
Ba1_4 Ge0_7 3.470658 1_544
Ba1_4 Ge0_3 3.470660 1_544
Ba1_4 Ge0_5 3.470660 1_554
Ba1_4 Ge1_4 3.470660 1_555
Ba1_4 Ge1_2 3.470660 1_545
Ba1_4 Ga2_1 3.745917 1_554
Ba1_4 Ga3_6 3.745917 1_545
Ba1_4 Ga3_2 3.745919 1_545
Ba1_4 Ga2_5 3.745919 1_554
Ba1_4 Ga2_3 3.745919 1_544
Ba1_4 Ga3_4 3.745919 1_555
Ba1_4 Ba1_6 4.345644 1_555
Ba1_4 Ba1_6 4.345644 1_545
Ba1_5 Ge1_1 3.470658 1_555
Ba1_5 Ge0_6 3.470658 1_545
Ba1_5 Ge0_2 3.470660 1_545
Ba1_5 Ge0_4 3.470660 1_555
Ba1_5 Ge1_5 3.470660 1_555
Ba1_5 Ge1_3 3.470660 1_545
Ba1_5 Ga2_0 3.745917 1_555
Ba1_5 Ga3_7 3.745917 1_545
Ba1_5 Ga2_4 3.745919 1_555
Ba1_5 Ga3_3 3.745919 1_545
Ba1_5 Ga3_5 3.745919 1_555
Ba1_5 Ga2_2 3.745919 1_545
Ba1_5 Ba1_7 4.345644 1_555
Ba1_5 Ba1_7 4.345644 1_545
Ba1_6 Ge0_5 3.470658 1_554
Ba1_6 Ge1_2 3.470658 1_555
Ba1_6 Ge0_7 3.470660 1_554
Ba1_6 Ge0_1 3.470660 1_554
Ba1_6 Ge1_6 3.470660 1_555
Ba1_6 Ge1_0 3.470660 1_555
Ba1_6 Ga2_3 3.745917 1_554
Ba1_6 Ga3_4 3.745917 1_555
Ba1_6 Ga2_1 3.745919 1_554
Ba1_6 Ga2_7 3.745919 1_554
Ba1_6 Ga3_6 3.745919 1_555
Ba1_6 Ga3_0 3.745919 1_555
Ba1_7 Ge0_4 3.470658 1_555
Ba1_7 Ge1_3 3.470658 1_555
Ba1_7 Ge0_6 3.470660 1_555
Ba1_7 Ge0_0 3.470660 1_555
Ba1_7 Ge1_1 3.470660 1_555
Ba1_7 Ge1_7 3.470660 1_555
Ba1_7 Ga2_2 3.745917 1_555
Ba1_7 Ga3_5 3.745917 1_555
Ba1_7 Ga2_6 3.745919 1_555
Ba1_7 Ga2_0 3.745919 1_555
Ba1_7 Ga3_7 3.745919 1_555
Ba1_7 Ga3_1 3.745919 1_555
Ba2_0 Ga3_2 3.448412 1_545
Ba2_0 Ga0_2 3.448412 1_545
Ba2_0 Ga3_6 3.448414 1_445
Ba2_0 Ga0_6 3.448414 1_445
Ba2_0 Ga3_0 3.448414 1_555
Ba2_0 Ga0_0 3.448414 1_555
Ba2_0 Ge1_4 3.721987 1_455
Ba2_0 Ge2_4 3.721987 1_455
Ba2_0 Ge1_0 3.721990 1_555
Ba2_0 Ge1_6 3.721990 1_445
Ba2_0 Ge2_0 3.721990 1_555
Ba2_0 Ge2_6 3.721990 1_445
Ba2_1 Ga3_3 3.448412 1_545
Ba2_1 Ga0_3 3.448412 1_545
Ba2_1 Ga3_7 3.448414 1_445
Ba2_1 Ga3_1 3.448414 1_555
Ba2_1 Ga0_7 3.448414 1_445
Ba2_1 Ga0_1 3.448414 1_555
Ba2_1 Ge1_5 3.721987 1_455
Ba2_1 Ge2_5 3.721987 1_455
Ba2_1 Ge1_1 3.721990 1_555
Ba2_1 Ge1_7 3.721990 1_445
Ba2_1 Ge2_1 3.721990 1_555
Ba2_1 Ge2_7 3.721990 1_445
Ba2_2 Ga3_0 3.448412 1_555
Ba2_2 Ga0_0 3.448412 1_555
Ba2_2 Ga3_2 3.448414 1_555
Ba2_2 Ga0_2 3.448414 1_555
Ba2_2 Ga3_4 3.448414 1_455
Ba2_2 Ga0_4 3.448414 1_455
Ba2_2 Ge1_6 3.721987 1_455
Ba2_2 Ge2_6 3.721987 1_455
Ba2_2 Ge1_4 3.721990 1_455
Ba2_2 Ge1_2 3.721990 1_555
Ba2_2 Ge2_4 3.721990 1_455
Ba2_2 Ge2_2 3.721990 1_555
Ba2_3 Ga3_1 3.448412 1_555
Ba2_3 Ga0_1 3.448412 1_555
Ba2_3 Ga3_3 3.448414 1_555
Ba2_3 Ga3_5 3.448414 1_455
Ba2_3 Ga0_3 3.448414 1_555
Ba2_3 Ga0_5 3.448414 1_455
Ba2_3 Ge1_7 3.721987 1_455
Ba2_3 Ge2_7 3.721987 1_455
Ba2_3 Ge1_3 3.721990 1_555
Ba2_3 Ge1_5 3.721990 1_455
Ba2_3 Ge2_3 3.721990 1_555
Ba2_3 Ge2_5 3.721990 1_455
Ba2_4 Ga3_6 3.448412 1_545
Ba2_4 Ga0_6 3.448412 1_545
Ba2_4 Ga3_2 3.448414 1_545
Ba2_4 Ga3_4 3.448414 1_555
Ba2_4 Ga0_2 3.448414 1_545
Ba2_4 Ga0_4 3.448414 1_555
Ba2_4 Ge1_0 3.721987 1_555
Ba2_4 Ge2_0 3.721987 1_555
Ba2_4 Ge1_4 3.721990 1_555
Ba2_4 Ge1_2 3.721990 1_545
Ba2_4 Ge2_4 3.721990 1_555
Ba2_4 Ge2_2 3.721990 1_545
Ba2_5 Ga3_7 3.448412 1_545
Ba2_5 Ga0_7 3.448412 1_545
Ba2_5 Ga3_3 3.448414 1_545
Ba2_5 Ga3_5 3.448414 1_555
Ba2_5 Ga0_3 3.448414 1_545
Ba2_5 Ga0_5 3.448414 1_555
Ba2_5 Ge1_1 3.721987 1_555
Ba2_5 Ge2_1 3.721987 1_555
Ba2_5 Ge1_5 3.721990 1_555
Ba2_5 Ge1_3 3.721990 1_545
Ba2_5 Ge2_5 3.721990 1_555
Ba2_5 Ge2_3 3.721990 1_545
Ba2_6 Ga3_4 3.448412 1_555
Ba2_6 Ga0_4 3.448412 1_555
Ba2_6 Ga3_6 3.448414 1_555
Ba2_6 Ga3_0 3.448414 1_555
Ba2_6 Ga0_6 3.448414 1_555
Ba2_6 Ga0_0 3.448414 1_555
Ba2_6 Ge1_2 3.721987 1_555
Ba2_6 Ge2_2 3.721987 1_555
Ba2_6 Ge1_0 3.721990 1_555
Ba2_6 Ge1_6 3.721990 1_555
Ba2_6 Ge2_0 3.721990 1_555
Ba2_6 Ge2_6 3.721990 1_555
Ba2_7 Ga3_5 3.448412 1_555
Ba2_7 Ga0_5 3.448412 1_555
Ba2_7 Ga3_7 3.448414 1_555
Ba2_7 Ga3_1 3.448414 1_555
Ba2_7 Ga0_7 3.448414 1_555
Ba2_7 Ga0_1 3.448414 1_555
Ba2_7 Ge1_3 3.721987 1_555
Ba2_7 Ge2_3 3.721987 1_555
Ba2_7 Ge1_7 3.721990 1_555
Ba2_7 Ge1_1 3.721990 1_555
Ba2_7 Ge2_1 3.721990 1_555
Ba2_7 Ge2_7 3.721990 1_555
Ba3_0 Ga2_4 3.448412 1_455
Ba3_0 Ga1_4 3.448412 1_455
Ba3_0 Ga1_0 3.448414 1_555
Ba3_0 Ga2_0 3.448414 1_555
Ba3_0 Ga1_6 3.448414 1_445
Ba3_0 Ga2_6 3.448414 1_445
Ba3_0 Ge3_2 3.721987 1_545
Ba3_0 Ge0_2 3.721987 1_545
Ba3_0 Ge3_6 3.721990 1_445
Ba3_0 Ge0_6 3.721990 1_445
Ba3_0 Ge3_0 3.721990 1_555
Ba3_0 Ge0_0 3.721990 1_555
Ba3_1 Ga2_5 3.448412 1_455
Ba3_1 Ga1_5 3.448412 1_455
Ba3_1 Ga2_1 3.448414 1_555
Ba3_1 Ga2_7 3.448414 1_445
Ba3_1 Ga1_1 3.448414 1_555
Ba3_1 Ga1_7 3.448414 1_445
Ba3_1 Ge0_3 3.721987 1_545
Ba3_1 Ge3_3 3.721987 1_545
Ba3_1 Ge0_7 3.721990 1_445
Ba3_1 Ge0_1 3.721990 1_555
Ba3_1 Ge3_7 3.721990 1_445
Ba3_1 Ge3_1 3.721990 1_555
Ba3_2 Ga2_6 3.448412 1_455
Ba3_2 Ga1_6 3.448412 1_455
Ba3_2 Ga2_2 3.448414 1_555
Ba3_2 Ga2_4 3.448414 1_455
Ba3_2 Ga1_2 3.448414 1_555
Ba3_2 Ga1_4 3.448414 1_455
Ba3_2 Ge3_0 3.721987 1_555
Ba3_2 Ge0_0 3.721987 1_555
Ba3_2 Ge3_2 3.721990 1_555
Ba3_2 Ge0_2 3.721990 1_555
Ba3_2 Ge0_4 3.721990 1_455
Ba3_2 Ge3_4 3.721990 1_455
Ba3_3 Ga2_7 3.448412 1_455
Ba3_3 Ga1_7 3.448412 1_455
Ba3_3 Ga2_5 3.448414 1_455
Ba3_3 Ga2_3 3.448414 1_555
Ba3_3 Ga1_5 3.448414 1_455
Ba3_3 Ga1_3 3.448414 1_555
Ba3_3 Ge0_1 3.721987 1_555
Ba3_3 Ge3_1 3.721987 1_555
Ba3_3 Ge0_3 3.721990 1_555
Ba3_3 Ge0_5 3.721990 1_455
Ba3_3 Ge3_3 3.721990 1_555
Ba3_3 Ge3_5 3.721990 1_455
Ba3_4 Ga1_0 3.448412 1_555
Ba3_4 Ga2_0 3.448412 1_555
Ba3_4 Ga1_4 3.448414 1_555
Ba3_4 Ga2_4 3.448414 1_555
Ba3_4 Ga2_2 3.448414 1_545
Ba3_4 Ga1_2 3.448414 1_545
Ba3_4 Ge0_6 3.721987 1_545
Ba3_4 Ge3_6 3.721987 1_545
Ba3_4 Ge0_2 3.721990 1_545
Ba3_4 Ge3_2 3.721990 1_545
Ba3_4 Ge0_4 3.721990 1_555
Ba3_4 Ge3_4 3.721990 1_555
Ba3_5 Ga2_1 3.448412 1_555
Ba3_5 Ga1_1 3.448412 1_555
Ba3_5 Ga2_5 3.448414 1_555
Ba3_5 Ga2_3 3.448414 1_545
Ba3_5 Ga1_5 3.448414 1_555
Ba3_5 Ga1_3 3.448414 1_545
Ba3_5 Ge0_7 3.721987 1_545
Ba3_5 Ge3_7 3.721987 1_545
Ba3_5 Ge0_3 3.721990 1_545
Ba3_5 Ge0_5 3.721990 1_555
Ba3_5 Ge3_3 3.721990 1_545
Ba3_5 Ge3_5 3.721990 1_555
Ba3_6 Ga1_2 3.448412 1_555
Ba3_6 Ga2_2 3.448412 1_555
Ba3_6 Ga1_0 3.448414 1_555
Ba3_6 Ga2_6 3.448414 1_555
Ba3_6 Ga1_6 3.448414 1_555
Ba3_6 Ga2_0 3.448414 1_555
Ba3_6 Ge3_4 3.721987 1_555
Ba3_6 Ge0_4 3.721987 1_555
Ba3_6 Ge3_6 3.721990 1_555
Ba3_6 Ge0_6 3.721990 1_555
Ba3_6 Ge3_0 3.721990 1_555
Ba3_6 Ge0_0 3.721990 1_555
Ba3_7 Ga2_3 3.448412 1_555
Ba3_7 Ga1_3 3.448412 1_555
Ba3_7 Ga2_1 3.448414 1_555
Ba3_7 Ga2_7 3.448414 1_555
Ba3_7 Ga1_7 3.448414 1_555
Ba3_7 Ga1_1 3.448414 1_555
Ba3_7 Ge0_5 3.721987 1_555
Ba3_7 Ge3_5 3.721987 1_555
Ba3_7 Ge0_7 3.721990 1_555
Ba3_7 Ge0_1 3.721990 1_555
Ba3_7 Ge3_7 3.721990 1_555
Ba3_7 Ge3_1 3.721990 1_555
Ga0_0 Ge2_2 2.538097 1_555
Ga0_0 Ge2_4 2.538097 1_455
Ga0_0 Ge2_0 2.538105 1_555
Ga0_1 Ge2_3 2.538097 1_555
Ga0_1 Ge2_5 2.538097 1_455
Ga0_1 Ge2_1 2.538105 1_555
Ga0_2 Ge2_6 2.538097 1_455
Ga0_2 Ge2_0 2.538097 1_565
Ga0_2 Ge2_2 2.538105 1_555
Ga0_3 Ge2_7 2.538097 1_455
Ga0_3 Ge2_1 2.538097 1_565
Ga0_3 Ge2_3 2.538105 1_555
Ga0_4 Ge2_6 2.538097 1_555
Ga0_4 Ge2_0 2.538097 1_555
Ga0_4 Ge2_4 2.538105 1_555
Ga0_5 Ge2_7 2.538097 1_555
Ga0_5 Ge2_1 2.538097 1_555
Ga0_5 Ge2_5 2.538105 1_555
Ga0_6 Ge2_2 2.538097 1_555
Ga0_6 Ge2_4 2.538097 1_565
Ga0_6 Ge2_6 2.538105 1_555
Ga0_7 Ge2_3 2.538097 1_555
Ga0_7 Ge2_5 2.538097 1_565
Ga0_7 Ge2_7 2.538105 1_555
Ga1_0 Ge3_4 2.538097 1_555
Ga1_0 Ge3_2 2.538097 1_545
Ga1_0 Ge3_0 2.538105 1_555
Ga1_1 Ge3_5 2.538097 1_555
Ga1_1 Ge3_3 2.538097 1_545
Ga1_1 Ge3_1 2.538105 1_555
Ga1_2 Ge3_0 2.538097 1_555
Ga1_2 Ge3_6 2.538097 1_555
Ga1_2 Ge3_2 2.538105 1_555
Ga1_3 Ge3_1 2.538097 1_555
Ga1_3 Ge3_7 2.538097 1_555
Ga1_3 Ge3_3 2.538105 1_555
Ga1_4 Ge3_0 2.538097 1_655
Ga1_4 Ge3_6 2.538097 1_545
Ga1_4 Ge3_4 2.538105 1_555
Ga1_5 Ge3_1 2.538097 1_655
Ga1_5 Ge3_7 2.538097 1_545
Ga1_5 Ge3_5 2.538105 1_555
Ga1_6 Ge3_4 2.538097 1_555
Ga1_6 Ge3_2 2.538097 1_655
Ga1_6 Ge3_6 2.538105 1_555
Ga1_7 Ge3_5 2.538097 1_555
Ga1_7 Ge3_3 2.538097 1_655
Ga1_7 Ge3_7 2.538105 1_555
Ga2_0 Ge0_4 2.538097 1_555
Ga2_0 Ge0_2 2.538097 1_545
Ga2_0 Ge0_0 2.538105 1_555
Ga2_1 Ge0_5 2.538097 1_555
Ga2_1 Ge0_3 2.538097 1_545
Ga2_1 Ge0_1 2.538105 1_555
Ga2_2 Ge0_0 2.538097 1_555
Ga2_2 Ge0_6 2.538097 1_555
Ga2_2 Ge0_2 2.538105 1_555
Ga2_3 Ge0_1 2.538097 1_555
Ga2_3 Ge0_7 2.538097 1_555
Ga2_3 Ge0_3 2.538105 1_555
Ga2_4 Ge0_0 2.538097 1_655
Ga2_4 Ge0_6 2.538097 1_545
Ga2_4 Ge0_4 2.538105 1_555
Ga2_5 Ge0_1 2.538097 1_655
Ga2_5 Ge0_7 2.538097 1_545
Ga2_5 Ge0_5 2.538105 1_555
Ga2_6 Ge0_4 2.538097 1_555
Ga2_6 Ge0_2 2.538097 1_655
Ga2_6 Ge0_6 2.538105 1_555
Ga2_7 Ge0_5 2.538097 1_555
Ga2_7 Ge0_3 2.538097 1_655
Ga2_7 Ge0_7 2.538105 1_555
Ga3_0 Ge1_2 2.538097 1_555
Ga3_0 Ge1_4 2.538097 1_455
Ga3_0 Ge1_0 2.538105 1_555
Ga3_1 Ge1_3 2.538097 1_555
Ga3_1 Ge1_5 2.538097 1_455
Ga3_1 Ge1_1 2.538105 1_555
Ga3_2 Ge1_6 2.538097 1_455
Ga3_2 Ge1_0 2.538097 1_565
Ga3_2 Ge1_2 2.538105 1_555
Ga3_3 Ge1_7 2.538097 1_455
Ga3_3 Ge1_1 2.538097 1_565
Ga3_3 Ge1_3 2.538105 1_555
Ga3_4 Ge1_6 2.538097 1_555
Ga3_4 Ge1_0 2.538097 1_555
Ga3_4 Ge1_4 2.538105 1_555
Ga3_5 Ge1_7 2.538097 1_555
Ga3_5 Ge1_1 2.538097 1_555
Ga3_5 Ge1_5 2.538105 1_555
Ga3_6 Ge1_2 2.538097 1_555
Ga3_6 Ge1_4 2.538097 1_565
Ga3_6 Ge1_6 2.538105 1_555
Ga3_7 Ge1_3 2.538097 1_555
Ga3_7 Ge1_5 2.538097 1_565
Ga3_7 Ge1_7 2.538105 1_555
