# generated using pymatgen
data_PmHoTl2
_symmetry_space_group_name_H-M   'P 1'
_cell_length_a   5.38559706
_cell_length_b   5.38559706
_cell_length_c   5.38559706
_cell_angle_alpha   60.00000000
_cell_angle_beta   60.00000000
_cell_angle_gamma   60.00000000
_symmetry_Int_Tables_number   1
_chemical_formula_structural   PmHoTl2
_chemical_formula_sum   'Pm1 Ho1 Tl2'
_cell_volume   110.45530346
_cell_formula_units_Z   1
loop_
 _symmetry_equiv_pos_site_id
 _symmetry_equiv_pos_as_xyz
  1  'x, y, z'
loop_
 _atom_site_type_symbol
 _atom_site_label
 _atom_site_symmetry_multiplicity
 _atom_site_fract_x
 _atom_site_fract_y
 _atom_site_fract_z
 _atom_site_occupancy
  Pm  Pm0  1  0.00000000  -0.00000000  -0.00000000  1
  Ho  Ho0  1  0.50000000  0.50000000  0.50000000  1
  Tl  Tl0  1  0.25000000  0.25000000  0.25000000  1
  Tl  Tl1  1  0.75000000  0.75000000  0.75000000  1
loop_
_geom_bond_atom_site_label_1
_geom_bond_atom_site_label_2
_geom_bond_distance
_geom_bond_site_symmetry_2
Pm0 Tl1 3.297991 1_445
Pm0 Tl1 3.297991 1_544
Pm0 Tl1 3.297991 1_444
Pm0 Tl0 3.297991 1_455
Pm0 Tl0 3.297991 1_545
Pm0 Tl0 3.297991 1_554
Pm0 Tl0 3.297991 1_555
Pm0 Tl1 3.297991 1_454
Ho0 Tl1 3.297991 1_545
Ho0 Tl0 3.297991 1_565
Ho0 Tl0 3.297991 1_556
Ho0 Tl0 3.297991 1_555
Ho0 Tl1 3.297991 1_455
Ho0 Tl1 3.297991 1_555
Ho0 Tl1 3.297991 1_554
Ho0 Tl0 3.297991 1_655
Ho0 Pm0 3.808192 1_566
Ho0 Pm0 3.808192 1_656
Ho0 Pm0 3.808192 1_556
Ho0 Pm0 3.808192 1_565
Ho0 Pm0 3.808192 1_665
Ho0 Pm0 3.808192 1_655
Tl0 Tl1 3.808192 1_445
Tl0 Tl1 3.808192 1_544
Tl0 Tl1 3.808192 1_454
Tl0 Tl1 3.808192 1_455
Tl0 Tl1 3.808192 1_545
Tl0 Tl1 3.808192 1_554
