# generated using pymatgen
data_KBaBiTeO6
_symmetry_space_group_name_H-M   'P 1'
_cell_length_a   6.04757400
_cell_length_b   6.07679300
_cell_length_c   8.58621212
_cell_angle_alpha   89.99057773
_cell_angle_beta   90.00000000
_cell_angle_gamma   90.00000000
_symmetry_Int_Tables_number   1
_chemical_formula_structural   KBaBiTeO6
_chemical_formula_sum   'K2 Ba2 Bi2 Te2 O12'
_cell_volume   315.54204901
_cell_formula_units_Z   2
loop_
 _symmetry_equiv_pos_site_id
 _symmetry_equiv_pos_as_xyz
  1  'x, y, z'
loop_
 _atom_site_type_symbol
 _atom_site_label
 _atom_site_symmetry_multiplicity
 _atom_site_fract_x
 _atom_site_fract_y
 _atom_site_fract_z
 _atom_site_occupancy
  K  K0  1  0.25000000  0.75634800  0.00060900  1
  K  K1  1  0.75000000  0.24365200  0.99939100  1
  Ba  Ba0  1  0.25000000  0.75441100  0.49979000  1
  Ba  Ba1  1  0.75000000  0.24558900  0.50021000  1
  Bi  Bi0  1  0.75000000  0.74775600  0.76509400  1
  Bi  Bi1  1  0.25000000  0.25224400  0.23490600  1
  Te  Te0  1  0.25000000  0.25207200  0.74516300  1
  Te  Te1  1  0.75000000  0.74792800  0.25483700  1
  O  O0  1  0.25000000  0.28938100  0.97029600  1
  O  O1  1  0.25000000  0.21935700  0.51369300  1
  O  O2  1  0.75000000  0.78064300  0.48630700  1
  O  O3  1  0.75000000  0.71061900  0.02970400  1
  O  O4  1  0.47978300  0.48073600  0.71909700  1
  O  O5  1  0.01930200  0.02394100  0.75283600  1
  O  O6  1  0.48069800  0.02394100  0.75283600  1
  O  O7  1  0.02021700  0.48073600  0.71909700  1
  O  O8  1  0.98069800  0.97605900  0.24716400  1
  O  O9  1  0.52021700  0.51926400  0.28090300  1
  O  O10  1  0.97978300  0.51926400  0.28090300  1
  O  O11  1  0.51930200  0.97605900  0.24716400  1
loop_
_geom_bond_atom_site_label_1
_geom_bond_atom_site_label_2
_geom_bond_distance
_geom_bond_site_symmetry_2
K0 O0 2.849616 1_554
K0 O11 2.986221 1_555
K0 O8 2.986221 1_455
K0 O6 3.019194 1_564
K0 O5 3.019194 1_564
K0 O3 3.046784 1_555
K0 O3 3.046784 1_455
K0 O9 3.246076 1_555
K0 O10 3.246076 1_455
K0 O0 3.249529 1_564
K0 O4 3.252685 1_554
K0 O7 3.252685 1_554
K1 O3 2.849616 1_556
K1 O5 2.986221 1_655
K1 O6 2.986221 1_555
K1 O8 3.019194 1_546
K1 O11 3.019194 1_546
K1 O0 3.046784 1_555
K1 O0 3.046784 1_655
K1 O7 3.246076 1_655
K1 O4 3.246076 1_555
K1 O3 3.249529 1_546
K1 O10 3.252685 1_556
K1 O9 3.252685 1_556
Ba0 O1 2.827921 1_565
Ba0 O4 2.870815 1_555
Ba0 O7 2.870815 1_555
Ba0 O9 2.871481 1_555
Ba0 O10 2.871481 1_455
Ba0 O11 3.028302 1_555
Ba0 O8 3.028302 1_455
Ba0 O2 3.030197 1_455
Ba0 O2 3.030197 1_555
Ba0 O6 3.057932 1_565
Ba0 O5 3.057932 1_565
Ba0 O1 3.253583 1_555
Ba1 O2 2.827921 1_545
Ba1 O10 2.870815 1_555
Ba1 O9 2.870815 1_555
Ba1 O7 2.871481 1_655
Ba1 O4 2.871481 1_555
Ba1 O5 3.028302 1_655
Ba1 O6 3.028302 1_555
Ba1 O1 3.030197 1_555
Ba1 O1 3.030197 1_655
Ba1 O8 3.057932 1_545
Ba1 O11 3.057932 1_545
Ba1 O2 3.253583 1_555
Bi0 O3 2.283141 1_556
Bi0 O7 2.336573 1_655
Bi0 O4 2.336573 1_555
Bi0 O5 2.340981 1_665
Bi0 O6 2.340981 1_565
Bi0 O2 2.402020 1_555
Bi1 O0 2.283141 1_554
Bi1 O9 2.336573 1_555
Bi1 O10 2.336573 1_455
Bi1 O11 2.340981 1_545
Bi1 O8 2.340981 1_445
Bi1 O1 2.402020 1_555
O0 Te0 1.946327 1_555
O1 Te0 1.997401 1_555
O1 O4 2.750503 1_555
O1 O7 2.750503 1_555
O1 O6 2.751730 1_555
O1 O5 2.751730 1_555
O2 Te1 1.997401 1_555
O2 O9 2.750503 1_555
O2 O8 2.751730 1_555
O3 Te1 1.946327 1_555
O4 Te0 1.977850 1_555
O4 O7 2.779259 1_555
O5 Te0 1.967900 1_555
O6 Te0 1.967900 1_555
O7 Te0 1.977850 1_555
O8 Te1 1.967900 1_555
O9 Te1 1.977850 1_555
O10 Te1 1.977850 1_555
O10 O2 2.750503 1_555
O10 O9 2.779259 1_555
O11 Te1 1.967900 1_555
O11 O2 2.751730 1_555
