# generated using pymatgen
data_Mg2Si3
_symmetry_space_group_name_H-M   'P 1'
_cell_length_a   4.40905700
_cell_length_b   5.47182722
_cell_length_c   8.31024639
_cell_angle_alpha   83.59447720
_cell_angle_beta   74.84996778
_cell_angle_gamma   67.82620712
_symmetry_Int_Tables_number   1
_chemical_formula_structural   Mg2Si3
_chemical_formula_sum   'Mg4 Si6'
_cell_volume   179.19064213
_cell_formula_units_Z   2
loop_
 _symmetry_equiv_pos_site_id
 _symmetry_equiv_pos_as_xyz
  1  'x, y, z'
loop_
 _atom_site_type_symbol
 _atom_site_label
 _atom_site_symmetry_multiplicity
 _atom_site_fract_x
 _atom_site_fract_y
 _atom_site_fract_z
 _atom_site_occupancy
  Mg  Mg0  1  0.63753900  0.70323600  0.02651700  1
  Mg  Mg1  1  0.36246100  0.29676400  0.97348300  1
  Mg  Mg2  1  0.69695100  0.98210700  0.63064700  1
  Mg  Mg3  1  0.30304900  0.01789300  0.36935300  1
  Si  Si0  1  0.38070000  0.59211000  0.64511700  1
  Si  Si1  1  0.61930000  0.40789000  0.35488300  1
  Si  Si2  1  0.92769500  0.40016500  0.72727900  1
  Si  Si3  1  0.07230500  0.59983500  0.27272100  1
  Si  Si4  1  0.10101700  0.96404800  0.84889400  1
  Si  Si5  1  0.89898300  0.03595200  0.15110600  1
loop_
_geom_bond_atom_site_label_1
_geom_bond_atom_site_label_2
_geom_bond_distance
_geom_bond_site_symmetry_2
Mg0 Si2 2.868194 1_554
Mg0 Si5 2.888550 1_565
Mg0 Si4 2.923364 1_654
Mg0 Si4 2.935677 1_554
Mg0 Si3 2.976230 1_555
Mg0 Si1 3.010640 1_555
Mg0 Mg1 3.024289 1_554
Mg0 Si3 3.025540 1_655
Mg0 Si5 3.028786 1_465
Mg0 Mg1 3.033060 1_564
Mg0 Mg1 3.077873 1_654
Mg0 Mg3 3.199707 1_565
Mg0 Mg2 3.457008 1_554
Mg1 Si3 2.868194 1_556
Mg1 Si4 2.888550 1_545
Mg1 Si5 2.923364 1_456
Mg1 Si5 2.935677 1_556
Mg1 Si2 2.976230 1_555
Mg1 Si0 3.010640 1_555
Mg1 Si2 3.025540 1_455
Mg1 Si4 3.028786 1_645
Mg1 Mg2 3.199707 1_545
Mg1 Mg3 3.457008 1_556
Mg2 Si4 2.805017 1_555
Mg2 Si4 2.826515 1_655
Mg2 Si0 2.934933 1_555
Mg2 Si0 2.988791 1_655
Mg2 Mg3 3.026839 1_665
Mg2 Si2 3.038206 1_555
Mg2 Mg3 3.064188 1_565
Mg2 Si1 3.068168 1_565
Mg2 Si2 3.083237 1_565
Mg2 Si0 3.096551 1_565
Mg2 Si2 3.242075 1_465
Mg2 Si3 3.487663 1_655
Mg3 Si5 2.805017 1_555
Mg3 Si5 2.826515 1_455
Mg3 Si1 2.934933 1_555
Mg3 Si1 2.988791 1_455
Mg3 Si3 3.038206 1_555
Mg3 Si0 3.068168 1_545
Mg3 Si3 3.083237 1_545
Mg3 Si1 3.096551 1_545
Mg3 Si3 3.242075 1_645
Mg3 Si2 3.487663 1_455
Si0 Si2 2.484846 1_555
Si0 Si2 2.503846 1_455
Si0 Si4 2.512654 1_555
Si0 Si1 2.521096 1_555
Si1 Si3 2.484846 1_555
Si1 Si3 2.503846 1_655
Si1 Si5 2.512654 1_555
Si2 Si4 2.406058 1_645
Si3 Si5 2.406058 1_465
Si4 Si5 2.458105 1_466
