# generated using pymatgen
data_TaIn3O7
_symmetry_space_group_name_H-M   'P 1'
_cell_length_a   6.29263300
_cell_length_b   6.31356398
_cell_length_c   7.49221906
_cell_angle_alpha   106.85681730
_cell_angle_beta   89.77262012
_cell_angle_gamma   98.12891264
_symmetry_Int_Tables_number   1
_chemical_formula_structural   TaIn3O7
_chemical_formula_sum   'Ta2 In6 O14'
_cell_volume   281.79050595
_cell_formula_units_Z   2
loop_
 _symmetry_equiv_pos_site_id
 _symmetry_equiv_pos_as_xyz
  1  'x, y, z'
loop_
 _atom_site_type_symbol
 _atom_site_label
 _atom_site_symmetry_multiplicity
 _atom_site_fract_x
 _atom_site_fract_y
 _atom_site_fract_z
 _atom_site_occupancy
  Ta  Ta0  1  0.00000000  0.00000000  0.00000000  1
  Ta  Ta1  1  0.00000000  0.00000000  0.50000000  1
  In  In0  1  0.73383500  0.46837800  0.11680100  1
  In  In1  1  0.73754800  0.45710600  0.61260000  1
  In  In2  1  0.52951000  0.99337400  0.75307700  1
  In  In3  1  0.47049000  0.00662600  0.24692300  1
  In  In4  1  0.26245200  0.54289400  0.38740000  1
  In  In5  1  0.26616500  0.53162200  0.88319900  1
  O  O0  1  0.70680400  0.05803800  0.47886900  1
  O  O1  1  0.90490000  0.67188900  0.95469900  1
  O  O2  1  0.70833000  0.08302700  0.05076100  1
  O  O3  1  0.93261400  0.64518800  0.38754500  1
  O  O4  1  0.91908000  0.95318800  0.73707300  1
  O  O5  1  0.55591000  0.34060600  0.83399900  1
  O  O6  1  0.52645200  0.35571300  0.33827700  1
  O  O7  1  0.47354800  0.64428700  0.66172300  1
  O  O8  1  0.44409000  0.65939400  0.16600100  1
  O  O9  1  0.08092000  0.04681200  0.26292700  1
  O  O10  1  0.06738600  0.35481200  0.61245500  1
  O  O11  1  0.29167000  0.91697300  0.94923900  1
  O  O12  1  0.09510000  0.32811100  0.04530100  1
  O  O13  1  0.29319600  0.94196200  0.52113100  1
loop_
_geom_bond_atom_site_label_1
_geom_bond_atom_site_label_2
_geom_bond_distance
_geom_bond_site_symmetry_2
In0 O1 2.188192 1_554
In0 O5 2.272837 1_554
In0 O3 2.288546 1_555
In0 O8 2.296355 1_555
In0 O6 2.316729 1_555
In0 O2 2.319874 1_555
In0 O12 2.554152 1_655
In1 O7 2.142412 1_555
In1 O5 2.248050 1_555
In1 O10 2.259132 1_655
In1 O6 2.327370 1_555
In1 O0 2.406038 1_555
In1 O3 2.548043 1_555
In1 O1 2.668156 1_555
In2 O5 2.080430 1_565
In2 O7 2.087477 1_555
In2 O11 2.195932 1_555
In2 O13 2.212108 1_555
In2 O2 2.380864 1_566
In2 O0 2.443655 1_565
In2 O4 2.498826 1_555
In3 O8 2.080430 1_545
In3 O6 2.087477 1_555
In3 O2 2.195932 1_555
In3 O0 2.212108 1_555
In3 O11 2.380864 1_544
In3 O13 2.443655 1_545
In3 O9 2.498826 1_555
In4 O6 2.142412 1_555
In4 O8 2.248050 1_555
In4 O3 2.259132 1_455
In4 O7 2.327370 1_555
In4 O13 2.406038 1_555
In4 O10 2.548043 1_555
In4 O12 2.668156 1_555
In5 O12 2.188192 1_556
In5 O8 2.272837 1_556
In5 O10 2.288546 1_555
In5 O5 2.296355 1_555
In5 O7 2.316729 1_555
In5 O11 2.319874 1_555
In5 O1 2.554152 1_455
O0 Ta1 1.946899 1_655
O0 O4 2.641621 1_545
O0 O13 2.645736 1_545
O0 O6 2.773160 1_555
O1 Ta0 2.001972 1_666
O1 O11 2.700050 1_655
O1 O4 2.730226 1_555
O1 O5 2.763151 1_555
O2 Ta0 1.984674 1_655
O2 O4 2.668259 1_544
O2 O6 2.702025 1_555
O3 Ta1 2.132472 1_665
O3 O4 2.781750 1_555
O3 O6 2.881657 1_555
O4 Ta1 1.938104 1_665
O4 Ta0 1.963393 1_666
O5 O7 2.707811 1_555
O6 O7 2.628172 1_555
O6 O8 2.707811 1_555
O9 Ta1 1.938104 1_555
O9 Ta0 1.963393 1_555
O10 Ta1 2.132472 1_555
O10 O9 2.781750 1_555
O10 O7 2.881657 1_555
O11 Ta0 1.984674 1_566
O11 O9 2.668259 1_566
O11 O7 2.702025 1_555
O11 O2 2.707022 1_566
O12 Ta0 2.001972 1_555
O12 O2 2.700050 1_455
O12 O9 2.730226 1_555
O12 O8 2.763151 1_555
O13 Ta1 1.946899 1_565
O13 O9 2.641621 1_565
O13 O7 2.773160 1_555
