# generated using pymatgen
data_TiWN3
_symmetry_space_group_name_H-M   'P 1'
_cell_length_a   5.38318786
_cell_length_b   8.07072508
_cell_length_c   9.44759355
_cell_angle_alpha   82.96032964
_cell_angle_beta   120.95766663
_cell_angle_gamma   109.21948432
_symmetry_Int_Tables_number   1
_chemical_formula_structural   TiWN3
_chemical_formula_sum   'Ti4 W4 N12'
_cell_volume   331.81749098
_cell_formula_units_Z   4
loop_
 _symmetry_equiv_pos_site_id
 _symmetry_equiv_pos_as_xyz
  1  'x, y, z'
loop_
 _atom_site_type_symbol
 _atom_site_label
 _atom_site_symmetry_multiplicity
 _atom_site_fract_x
 _atom_site_fract_y
 _atom_site_fract_z
 _atom_site_occupancy
  Ti  Ti0  1  0.24034000  0.25210100  0.28922400  1
  Ti  Ti1  1  0.75966000  0.74789900  0.71077600  1
  Ti  Ti2  1  0.16602800  0.90188400  0.48516200  1
  Ti  Ti3  1  0.83397200  0.09811600  0.51483800  1
  W  W0  1  0.05177900  0.90924700  0.14284100  1
  W  W1  1  0.94822100  0.09075300  0.85715900  1
  W  W2  1  0.96208100  0.54253200  0.34522000  1
  W  W3  1  0.03791900  0.45746800  0.65478000  1
  N  N0  1  0.41693700  0.00031800  0.32699900  1
  N  N1  1  0.58306300  0.99968200  0.67300100  1
  N  N2  1  0.04892000  0.86981500  0.94023100  1
  N  N3  1  0.95108000  0.13018500  0.05976900  1
  N  N4  1  0.84336700  0.74596000  0.24300600  1
  N  N5  1  0.15663300  0.25404000  0.75699400  1
  N  N6  1  0.29091400  0.64323600  0.57308600  1
  N  N7  1  0.70908600  0.35676400  0.42691400  1
  N  N8  1  0.11767800  0.45959600  0.25127000  1
  N  N9  1  0.88232200  0.54040400  0.74873000  1
  N  N10  1  0.91276300  0.87018400  0.57587500  1
  N  N11  1  0.08723700  0.12981600  0.42412500  1
loop_
_geom_bond_atom_site_label_1
_geom_bond_atom_site_label_2
_geom_bond_distance
_geom_bond_site_symmetry_2
N0 W0 1.809694 1_545
N0 Ti3 1.972350 1_555
N0 Ti2 2.401520 1_545
N0 Ti0 2.430117 1_555
N1 W1 1.809694 1_565
N1 Ti2 1.972350 1_555
N1 Ti3 2.401520 1_565
N1 Ti1 2.430117 1_555
N2 W0 1.970120 1_556
N2 W1 1.986209 1_465
N2 Ti1 2.033095 1_455
N3 W1 1.970120 1_554
N3 W0 1.986209 1_645
N3 Ti0 2.033095 1_655
N4 W2 1.924508 1_555
N4 W0 1.924609 1_655
N4 Ti2 2.238959 1_655
N5 W3 1.924508 1_555
N5 W1 1.924609 1_455
N5 Ti3 2.238959 1_455
N6 W2 1.997406 1_455
N6 W3 2.037602 1_555
N6 Ti1 2.064456 1_555
N6 Ti2 2.328933 1_555
N7 W3 1.997406 1_655
N7 W2 2.037602 1_555
N7 Ti0 2.064456 1_555
N7 Ti3 2.328933 1_555
N8 W2 1.793624 1_455
N8 Ti0 1.925158 1_555
N9 W3 1.793624 1_655
N9 Ti1 1.925158 1_555
N10 Ti1 1.874690 1_555
N10 Ti2 1.891410 1_655
N10 Ti3 1.974467 1_565
N11 Ti0 1.874690 1_555
N11 Ti3 1.891410 1_455
N11 Ti2 1.974467 1_545
