# generated using pymatgen
data_Pr2CdPd2
_symmetry_space_group_name_H-M   'P 1'
_cell_length_a   7.88856668
_cell_length_b   15.63824028
_cell_length_c   15.63824028
_cell_angle_alpha   90.00000000
_cell_angle_beta   90.00000000
_cell_angle_gamma   90.00000000
_symmetry_Int_Tables_number   1
_chemical_formula_structural   Pr2CdPd2
_chemical_formula_sum   'Pr32 Cd16 Pd32'
_cell_volume   1929.18494600
_cell_formula_units_Z   16
loop_
 _symmetry_equiv_pos_site_id
 _symmetry_equiv_pos_as_xyz
  1  'x, y, z'
loop_
 _atom_site_type_symbol
 _atom_site_label
 _atom_site_symmetry_multiplicity
 _atom_site_fract_x
 _atom_site_fract_y
 _atom_site_fract_z
 _atom_site_occupancy
  Pr  Pr0_0  1  0.25000000  0.41211341  0.16211341  1
  Pr  Pr0_1  1  0.25000000  0.41211341  0.66211341  1
  Pr  Pr0_2  1  0.25000000  0.91211341  0.16211341  1
  Pr  Pr0_3  1  0.25000000  0.91211341  0.66211341  1
  Pr  Pr0_4  1  0.75000000  0.41211341  0.16211341  1
  Pr  Pr0_5  1  0.75000000  0.41211341  0.66211341  1
  Pr  Pr0_6  1  0.75000000  0.91211341  0.16211341  1
  Pr  Pr0_7  1  0.75000000  0.91211341  0.66211341  1
  Pr  Pr1_0  1  0.25000000  0.33788660  0.41211341  1
  Pr  Pr1_1  1  0.25000000  0.33788660  0.91211341  1
  Pr  Pr1_2  1  0.25000000  0.83788660  0.41211341  1
  Pr  Pr1_3  1  0.25000000  0.83788660  0.91211341  1
  Pr  Pr1_4  1  0.75000000  0.33788660  0.41211341  1
  Pr  Pr1_5  1  0.75000000  0.33788660  0.91211341  1
  Pr  Pr1_6  1  0.75000000  0.83788660  0.41211341  1
  Pr  Pr1_7  1  0.75000000  0.83788660  0.91211341  1
  Pr  Pr2_0  1  0.25000000  0.16211341  0.08788659  1
  Pr  Pr2_1  1  0.25000000  0.16211341  0.58788660  1
  Pr  Pr2_2  1  0.25000000  0.66211341  0.08788659  1
  Pr  Pr2_3  1  0.25000000  0.66211341  0.58788660  1
  Pr  Pr2_4  1  0.75000000  0.16211341  0.08788659  1
  Pr  Pr2_5  1  0.75000000  0.16211341  0.58788660  1
  Pr  Pr2_6  1  0.75000000  0.66211341  0.08788659  1
  Pr  Pr2_7  1  0.75000000  0.66211341  0.58788660  1
  Pr  Pr3_0  1  0.25000000  0.08788659  0.33788660  1
  Pr  Pr3_1  1  0.25000000  0.08788659  0.83788660  1
  Pr  Pr3_2  1  0.25000000  0.58788660  0.33788660  1
  Pr  Pr3_3  1  0.25000000  0.58788660  0.83788660  1
  Pr  Pr3_4  1  0.75000000  0.08788659  0.33788660  1
  Pr  Pr3_5  1  0.75000000  0.08788659  0.83788660  1
  Pr  Pr3_6  1  0.75000000  0.58788660  0.33788660  1
  Pr  Pr3_7  1  0.75000000  0.58788660  0.83788660  1
  Cd  Cd0_0  1  0.00000000  0.00000000  0.00000000  1
  Cd  Cd0_1  1  0.00000000  0.00000000  0.50000000  1
  Cd  Cd0_2  1  0.00000000  0.50000000  0.00000000  1
  Cd  Cd0_3  1  0.00000000  0.50000000  0.50000000  1
  Cd  Cd0_4  1  0.50000000  0.00000000  0.00000000  1
  Cd  Cd0_5  1  0.50000000  0.00000000  0.50000000  1
  Cd  Cd0_6  1  0.50000000  0.50000000  0.00000000  1
  Cd  Cd0_7  1  0.50000000  0.50000000  0.50000000  1
  Cd  Cd1_0  1  0.00000000  0.25000000  0.25000000  1
  Cd  Cd1_1  1  0.00000000  0.25000000  0.75000000  1
  Cd  Cd1_2  1  0.00000000  0.75000000  0.25000000  1
  Cd  Cd1_3  1  0.00000000  0.75000000  0.75000000  1
  Cd  Cd1_4  1  0.50000000  0.25000000  0.25000000  1
  Cd  Cd1_5  1  0.50000000  0.25000000  0.75000000  1
  Cd  Cd1_6  1  0.50000000  0.75000000  0.25000000  1
  Cd  Cd1_7  1  0.50000000  0.75000000  0.75000000  1
  Pd  Pd0_0  1  0.00000000  0.06306892  0.18693109  1
  Pd  Pd0_1  1  0.00000000  0.06306892  0.68693109  1
  Pd  Pd0_2  1  0.00000000  0.56306892  0.18693109  1
  Pd  Pd0_3  1  0.00000000  0.56306892  0.68693109  1
  Pd  Pd0_4  1  0.50000000  0.06306892  0.18693109  1
  Pd  Pd0_5  1  0.50000000  0.06306892  0.68693109  1
  Pd  Pd0_6  1  0.50000000  0.56306892  0.18693109  1
  Pd  Pd0_7  1  0.50000000  0.56306892  0.68693109  1
  Pd  Pd1_0  1  0.00000000  0.18693109  0.43693108  1
  Pd  Pd1_1  1  0.00000000  0.18693109  0.93693108  1
  Pd  Pd1_2  1  0.00000000  0.68693109  0.43693108  1
  Pd  Pd1_3  1  0.00000000  0.68693109  0.93693108  1
  Pd  Pd1_4  1  0.50000000  0.18693109  0.43693108  1
  Pd  Pd1_5  1  0.50000000  0.18693109  0.93693108  1
  Pd  Pd1_6  1  0.50000000  0.68693109  0.43693108  1
  Pd  Pd1_7  1  0.50000000  0.68693109  0.93693108  1
  Pd  Pd2_0  1  0.00000000  0.31306892  0.06306892  1
  Pd  Pd2_1  1  0.00000000  0.31306892  0.56306892  1
  Pd  Pd2_2  1  0.00000000  0.81306892  0.06306892  1
  Pd  Pd2_3  1  0.00000000  0.81306892  0.56306892  1
  Pd  Pd2_4  1  0.50000000  0.31306892  0.06306892  1
  Pd  Pd2_5  1  0.50000000  0.31306892  0.56306892  1
  Pd  Pd2_6  1  0.50000000  0.81306892  0.06306892  1
  Pd  Pd2_7  1  0.50000000  0.81306892  0.56306892  1
  Pd  Pd3_0  1  0.00000000  0.43693108  0.31306892  1
  Pd  Pd3_1  1  0.00000000  0.43693108  0.81306892  1
  Pd  Pd3_2  1  0.00000000  0.93693108  0.31306892  1
  Pd  Pd3_3  1  0.00000000  0.93693108  0.81306892  1
  Pd  Pd3_4  1  0.50000000  0.43693108  0.31306892  1
  Pd  Pd3_5  1  0.50000000  0.43693108  0.81306892  1
  Pd  Pd3_6  1  0.50000000  0.93693108  0.31306892  1
  Pd  Pd3_7  1  0.50000000  0.93693108  0.81306892  1
loop_
_geom_bond_atom_site_label_1
_geom_bond_atom_site_label_2
_geom_bond_distance
_geom_bond_site_symmetry_2
Cd0_0 Pd3_3 3.085172 1_544
Cd0_0 Pd2_2 3.085172 1_545
Cd0_0 Pd1_1 3.085172 1_554
Cd0_0 Pd0_0 3.085172 1_555
Cd0_0 Pr1_7 3.493619 1_444
Cd0_0 Pr1_3 3.493619 1_544
Cd0_0 Pr3_1 3.493619 1_554
Cd0_0 Pr3_5 3.493619 1_454
Cd0_0 Pr0_2 3.493619 1_545
Cd0_0 Pr0_6 3.493619 1_445
Cd0_0 Pr2_0 3.493619 1_555
Cd0_0 Pr2_4 3.493619 1_455
Cd0_0 Cd0_4 3.944283 1_455
Cd0_0 Cd0_4 3.944283 1_555
Cd0_1 Pd2_3 3.085172 1_545
Cd0_1 Pd3_2 3.085172 1_545
Cd0_1 Pd1_0 3.085172 1_555
Cd0_1 Pd0_1 3.085172 1_555
Cd0_1 Pr1_2 3.493619 1_545
Cd0_1 Pr1_6 3.493619 1_445
Cd0_1 Pr3_4 3.493619 1_455
Cd0_1 Pr3_0 3.493619 1_555
Cd0_1 Pr0_7 3.493619 1_445
Cd0_1 Pr0_3 3.493619 1_545
Cd0_1 Pr2_1 3.493619 1_555
Cd0_1 Pr2_5 3.493619 1_455
Cd0_1 Cd0_5 3.944283 1_455
Cd0_1 Cd0_5 3.944283 1_555
Cd0_2 Pd2_0 3.085172 1_555
Cd0_2 Pd3_1 3.085172 1_554
Cd0_2 Pd0_2 3.085172 1_555
Cd0_2 Pd1_3 3.085172 1_554
Cd0_2 Pr1_5 3.493619 1_454
Cd0_2 Pr1_1 3.493619 1_554
Cd0_2 Pr3_7 3.493619 1_454
Cd0_2 Pr3_3 3.493619 1_554
Cd0_2 Pr2_6 3.493619 1_455
Cd0_2 Pr0_4 3.493619 1_455
Cd0_2 Pr0_0 3.493619 1_555
Cd0_2 Pr2_2 3.493619 1_555
Cd0_2 Cd0_6 3.944283 1_455
Cd0_2 Cd0_6 3.944283 1_555
Cd0_3 Pd2_1 3.085172 1_555
Cd0_3 Pd3_0 3.085172 1_555
Cd0_3 Pd0_3 3.085172 1_555
Cd0_3 Pd1_2 3.085172 1_555
Cd0_3 Pr1_0 3.493619 1_555
Cd0_3 Pr1_4 3.493619 1_455
Cd0_3 Pr3_6 3.493619 1_455
Cd0_3 Pr3_2 3.493619 1_555
Cd0_3 Pr0_1 3.493619 1_555
Cd0_3 Pr0_5 3.493619 1_455
Cd0_3 Pr2_7 3.493619 1_455
Cd0_3 Pr2_3 3.493619 1_555
Cd0_3 Cd0_7 3.944283 1_455
Cd0_3 Cd0_7 3.944283 1_555
Cd0_4 Pd3_7 3.085172 1_544
Cd0_4 Pd2_6 3.085172 1_545
Cd0_4 Pd1_5 3.085172 1_554
Cd0_4 Pd0_4 3.085172 1_555
Cd0_4 Pr1_7 3.493619 1_544
Cd0_4 Pr1_3 3.493619 1_544
Cd0_4 Pr3_5 3.493619 1_554
Cd0_4 Pr3_1 3.493619 1_554
Cd0_4 Pr0_2 3.493619 1_545
Cd0_4 Pr0_6 3.493619 1_545
Cd0_4 Pr2_0 3.493619 1_555
Cd0_4 Pr2_4 3.493619 1_555
Cd0_5 Pd2_7 3.085172 1_545
Cd0_5 Pd3_6 3.085172 1_545
Cd0_5 Pd1_4 3.085172 1_555
Cd0_5 Pd0_5 3.085172 1_555
Cd0_5 Pr1_2 3.493619 1_545
Cd0_5 Pr1_6 3.493619 1_545
Cd0_5 Pr3_4 3.493619 1_555
Cd0_5 Pr3_0 3.493619 1_555
Cd0_5 Pr0_7 3.493619 1_545
Cd0_5 Pr0_3 3.493619 1_545
Cd0_5 Pr2_1 3.493619 1_555
Cd0_5 Pr2_5 3.493619 1_555
Cd0_6 Pd2_4 3.085172 1_555
Cd0_6 Pd3_5 3.085172 1_554
Cd0_6 Pd0_6 3.085172 1_555
Cd0_6 Pd1_7 3.085172 1_554
Cd0_6 Pr1_1 3.493619 1_554
Cd0_6 Pr1_5 3.493619 1_554
Cd0_6 Pr3_3 3.493619 1_554
Cd0_6 Pr3_7 3.493619 1_554
Cd0_6 Pr0_4 3.493619 1_555
Cd0_6 Pr0_0 3.493619 1_555
Cd0_6 Pr2_2 3.493619 1_555
Cd0_6 Pr2_6 3.493619 1_555
Cd0_7 Pd2_5 3.085172 1_555
Cd0_7 Pd3_4 3.085172 1_555
Cd0_7 Pd0_7 3.085172 1_555
Cd0_7 Pd1_6 3.085172 1_555
Cd0_7 Pr1_0 3.493619 1_555
Cd0_7 Pr1_4 3.493619 1_555
Cd0_7 Pr3_2 3.493619 1_555
Cd0_7 Pr3_6 3.493619 1_555
Cd0_7 Pr0_5 3.493619 1_555
Cd0_7 Pr0_1 3.493619 1_555
Cd0_7 Pr2_3 3.493619 1_555
Cd0_7 Pr2_7 3.493619 1_555
Cd1_0 Pd2_0 3.085172 1_555
Cd1_0 Pd0_0 3.085172 1_555
Cd1_0 Pd1_0 3.085172 1_555
Cd1_0 Pd3_0 3.085172 1_555
Cd1_0 Pr2_0 3.493619 1_555
Cd1_0 Pr2_4 3.493619 1_455
Cd1_0 Pr0_4 3.493619 1_455
Cd1_0 Pr0_0 3.493619 1_555
Cd1_0 Pr3_4 3.493619 1_455
Cd1_0 Pr3_0 3.493619 1_555
Cd1_0 Pr1_0 3.493619 1_555
Cd1_0 Pr1_4 3.493619 1_455
Cd1_0 Cd1_4 3.944283 1_455
Cd1_0 Cd1_4 3.944283 1_555
Cd1_1 Pd1_1 3.085172 1_555
Cd1_1 Pd3_1 3.085172 1_555
Cd1_1 Pd0_1 3.085172 1_555
Cd1_1 Pd2_1 3.085172 1_555
Cd1_1 Pr2_5 3.493619 1_455
Cd1_1 Pr3_1 3.493619 1_555
Cd1_1 Pr3_5 3.493619 1_455
Cd1_1 Pr2_1 3.493619 1_555
Cd1_1 Pr1_5 3.493619 1_455
Cd1_1 Pr1_1 3.493619 1_555
Cd1_1 Pr0_5 3.493619 1_455
Cd1_1 Pr0_1 3.493619 1_555
Cd1_1 Cd1_5 3.944283 1_555
Cd1_1 Cd1_5 3.944283 1_455
Cd1_2 Pd3_2 3.085172 1_555
Cd1_2 Pd2_2 3.085172 1_555
Cd1_2 Pd1_2 3.085172 1_555
Cd1_2 Pd0_2 3.085172 1_555
Cd1_2 Pr0_2 3.493619 1_555
Cd1_2 Pr0_6 3.493619 1_455
Cd1_2 Pr2_6 3.493619 1_455
Cd1_2 Pr2_2 3.493619 1_555
Cd1_2 Pr1_6 3.493619 1_455
Cd1_2 Pr3_6 3.493619 1_455
Cd1_2 Pr3_2 3.493619 1_555
Cd1_2 Pr1_2 3.493619 1_555
Cd1_2 Cd1_6 3.944283 1_455
Cd1_2 Cd1_6 3.944283 1_555
Cd1_3 Pd3_3 3.085172 1_555
Cd1_3 Pd1_3 3.085172 1_555
Cd1_3 Pd2_3 3.085172 1_555
Cd1_3 Pd0_3 3.085172 1_555
Cd1_3 Pr2_7 3.493619 1_455
Cd1_3 Pr2_3 3.493619 1_555
Cd1_3 Pr3_3 3.493619 1_555
Cd1_3 Pr1_7 3.493619 1_455
Cd1_3 Pr3_7 3.493619 1_455
Cd1_3 Pr1_3 3.493619 1_555
Cd1_3 Pr0_7 3.493619 1_455
Cd1_3 Pr0_3 3.493619 1_555
Cd1_3 Cd1_7 3.944283 1_455
Cd1_3 Cd1_7 3.944283 1_555
Cd1_4 Pd1_4 3.085172 1_555
Cd1_4 Pd2_4 3.085172 1_555
Cd1_4 Pd0_4 3.085172 1_555
Cd1_4 Pd3_4 3.085172 1_555
Cd1_4 Pr2_4 3.493619 1_555
Cd1_4 Pr2_0 3.493619 1_555
Cd1_4 Pr0_0 3.493619 1_555
Cd1_4 Pr0_4 3.493619 1_555
Cd1_4 Pr3_0 3.493619 1_555
Cd1_4 Pr3_4 3.493619 1_555
Cd1_4 Pr1_0 3.493619 1_555
Cd1_4 Pr1_4 3.493619 1_555
Cd1_5 Pd1_5 3.085172 1_555
Cd1_5 Pd3_5 3.085172 1_555
Cd1_5 Pd0_5 3.085172 1_555
Cd1_5 Pd2_5 3.085172 1_555
Cd1_5 Pr2_5 3.493619 1_555
Cd1_5 Pr2_1 3.493619 1_555
Cd1_5 Pr3_1 3.493619 1_555
Cd1_5 Pr3_5 3.493619 1_555
Cd1_5 Pr1_1 3.493619 1_555
Cd1_5 Pr0_5 3.493619 1_555
Cd1_5 Pr1_5 3.493619 1_555
Cd1_5 Pr0_1 3.493619 1_555
Cd1_6 Pd3_6 3.085172 1_555
Cd1_6 Pd2_6 3.085172 1_555
Cd1_6 Pd1_6 3.085172 1_555
Cd1_6 Pd0_6 3.085172 1_555
Cd1_6 Pr0_2 3.493619 1_555
Cd1_6 Pr0_6 3.493619 1_555
Cd1_6 Pr2_2 3.493619 1_555
Cd1_6 Pr2_6 3.493619 1_555
Cd1_6 Pr1_6 3.493619 1_555
Cd1_6 Pr3_2 3.493619 1_555
Cd1_6 Pr3_6 3.493619 1_555
Cd1_6 Pr1_2 3.493619 1_555
Cd1_7 Pd3_7 3.085172 1_555
Cd1_7 Pd1_7 3.085172 1_555
Cd1_7 Pd2_7 3.085172 1_555
Cd1_7 Pd0_7 3.085172 1_555
Cd1_7 Pr1_7 3.493619 1_555
Cd1_7 Pr2_3 3.493619 1_555
Cd1_7 Pr3_3 3.493619 1_555
Cd1_7 Pr3_7 3.493619 1_555
Cd1_7 Pr0_7 3.493619 1_555
Cd1_7 Pr2_7 3.493619 1_555
Cd1_7 Pr1_3 3.493619 1_555
Cd1_7 Pr0_3 3.493619 1_555
Pd0_0 Pd3_2 2.789640 1_545
Pd0_0 Pr2_0 2.947441 1_555
Pd0_0 Pr2_4 2.947441 1_455
Pd0_0 Pr0_2 3.100447 1_545
Pd0_0 Pr0_6 3.100447 1_445
Pd0_0 Pr3_4 3.100447 1_455
Pd0_0 Pr3_0 3.100447 1_555
Pd0_1 Pd3_3 2.789640 1_545
Pd0_1 Pr2_1 2.947441 1_555
Pd0_1 Pr2_5 2.947441 1_455
Pd0_1 Pr0_7 3.100447 1_445
Pd0_1 Pr0_3 3.100447 1_545
Pd0_1 Pr3_1 3.100447 1_555
Pd0_1 Pr3_5 3.100447 1_455
Pd0_2 Pd3_0 2.789640 1_555
Pd0_2 Pr2_2 2.947441 1_555
Pd0_2 Pr2_6 2.947441 1_455
Pd0_2 Pr0_4 3.100447 1_455
Pd0_2 Pr0_0 3.100447 1_555
Pd0_2 Pr3_2 3.100447 1_555
Pd0_2 Pr3_6 3.100447 1_455
Pd0_3 Pd3_1 2.789640 1_555
Pd0_3 Pr2_7 2.947441 1_455
Pd0_3 Pr2_3 2.947441 1_555
Pd0_3 Pr0_5 3.100447 1_455
Pd0_3 Pr0_1 3.100447 1_555
Pd0_3 Pr3_7 3.100447 1_455
Pd0_3 Pr3_3 3.100447 1_555
Pd0_4 Pd3_6 2.789640 1_545
Pd0_4 Pr2_0 2.947441 1_555
Pd0_4 Pr2_4 2.947441 1_555
Pd0_4 Pr0_2 3.100447 1_545
Pd0_4 Pr0_6 3.100447 1_545
Pd0_4 Pr3_4 3.100447 1_555
Pd0_4 Pr3_0 3.100447 1_555
Pd0_5 Pd3_7 2.789640 1_545
Pd0_5 Pr2_1 2.947441 1_555
Pd0_5 Pr2_5 2.947441 1_555
Pd0_5 Pr0_7 3.100447 1_545
Pd0_5 Pr0_3 3.100447 1_545
Pd0_5 Pr3_5 3.100447 1_555
Pd0_5 Pr3_1 3.100447 1_555
Pd0_6 Pd3_4 2.789640 1_555
Pd0_6 Pr2_2 2.947441 1_555
Pd0_6 Pr2_6 2.947441 1_555
Pd0_6 Pr0_0 3.100447 1_555
Pd0_6 Pr0_4 3.100447 1_555
Pd0_6 Pr3_2 3.100447 1_555
Pd0_6 Pr3_6 3.100447 1_555
Pd0_7 Pd3_5 2.789640 1_555
Pd0_7 Pr2_7 2.947441 1_555
Pd0_7 Pr2_3 2.947441 1_555
Pd0_7 Pr0_5 3.100447 1_555
Pd0_7 Pr0_1 3.100447 1_555
Pd0_7 Pr3_7 3.100447 1_555
Pd0_7 Pr3_3 3.100447 1_555
Pd1_0 Pd2_1 2.789640 1_555
Pd1_0 Pr3_0 2.947441 1_555
Pd1_0 Pr3_4 2.947441 1_455
Pd1_0 Pr1_0 3.100447 1_555
Pd1_0 Pr1_4 3.100447 1_455
Pd1_0 Pr2_5 3.100447 1_455
Pd1_0 Pr2_1 3.100447 1_555
Pd1_1 Pd2_0 2.789640 1_556
Pd1_1 Pr3_1 2.947441 1_555
Pd1_1 Pr3_5 2.947441 1_455
Pd1_1 Pr1_1 3.100447 1_555
Pd1_1 Pr1_5 3.100447 1_455
Pd1_1 Pr2_4 3.100447 1_456
Pd1_1 Pr2_0 3.100447 1_556
Pd1_2 Pd2_3 2.789640 1_555
Pd1_2 Pr3_2 2.947441 1_555
Pd1_2 Pr3_6 2.947441 1_455
Pd1_2 Pr1_2 3.100447 1_555
Pd1_2 Pr2_3 3.100447 1_555
Pd1_2 Pr1_6 3.100447 1_455
Pd1_2 Pr2_7 3.100447 1_455
Pd1_3 Pd2_2 2.789640 1_556
Pd1_3 Pr3_7 2.947441 1_455
Pd1_3 Pr3_3 2.947441 1_555
Pd1_3 Pr1_3 3.100447 1_555
Pd1_3 Pr1_7 3.100447 1_455
Pd1_3 Pr2_6 3.100447 1_456
Pd1_3 Pr2_2 3.100447 1_556
Pd1_4 Pd2_5 2.789640 1_555
Pd1_4 Pr3_0 2.947441 1_555
Pd1_4 Pr3_4 2.947441 1_555
Pd1_4 Pr1_4 3.100447 1_555
Pd1_4 Pr1_0 3.100447 1_555
Pd1_4 Pr2_5 3.100447 1_555
Pd1_4 Pr2_1 3.100447 1_555
Pd1_5 Pd2_4 2.789640 1_556
Pd1_5 Pr3_1 2.947441 1_555
Pd1_5 Pr3_5 2.947441 1_555
Pd1_5 Pr1_1 3.100447 1_555
Pd1_5 Pr1_5 3.100447 1_555
Pd1_5 Pr2_4 3.100447 1_556
Pd1_5 Pr2_0 3.100447 1_556
Pd1_6 Pd2_7 2.789640 1_555
Pd1_6 Pr3_2 2.947441 1_555
Pd1_6 Pr3_6 2.947441 1_555
Pd1_6 Pr1_6 3.100447 1_555
Pd1_6 Pr1_2 3.100447 1_555
Pd1_6 Pr2_7 3.100447 1_555
Pd1_6 Pr2_3 3.100447 1_555
Pd1_7 Pd2_6 2.789640 1_556
Pd1_7 Pr3_7 2.947441 1_555
Pd1_7 Pr3_3 2.947441 1_555
Pd1_7 Pr1_3 3.100447 1_555
Pd1_7 Pr1_7 3.100447 1_555
Pd1_7 Pr2_2 3.100447 1_556
Pd1_7 Pr2_6 3.100447 1_556
Pd2_0 Pr0_4 2.947441 1_455
Pd2_0 Pr0_0 2.947441 1_555
Pd2_0 Pr1_1 3.100447 1_554
Pd2_0 Pr1_5 3.100447 1_454
Pd2_0 Pr2_0 3.100447 1_555
Pd2_0 Pr2_4 3.100447 1_455
Pd2_1 Pr0_5 2.947441 1_455
Pd2_1 Pr0_1 2.947441 1_555
Pd2_1 Pr2_1 3.100447 1_555
Pd2_1 Pr1_4 3.100447 1_455
Pd2_1 Pr2_5 3.100447 1_455
Pd2_1 Pr1_0 3.100447 1_555
Pd2_2 Pr0_2 2.947441 1_555
Pd2_2 Pr0_6 2.947441 1_455
Pd2_2 Pr1_3 3.100447 1_554
Pd2_2 Pr1_7 3.100447 1_454
Pd2_2 Pr2_6 3.100447 1_455
Pd2_2 Pr2_2 3.100447 1_555
Pd2_3 Pr0_7 2.947441 1_455
Pd2_3 Pr0_3 2.947441 1_555
Pd2_3 Pr1_6 3.100447 1_455
Pd2_3 Pr1_2 3.100447 1_555
Pd2_3 Pr2_7 3.100447 1_455
Pd2_3 Pr2_3 3.100447 1_555
Pd2_4 Pr0_0 2.947441 1_555
Pd2_4 Pr0_4 2.947441 1_555
Pd2_4 Pr1_1 3.100447 1_554
Pd2_4 Pr1_5 3.100447 1_554
Pd2_4 Pr2_0 3.100447 1_555
Pd2_4 Pr2_4 3.100447 1_555
Pd2_5 Pr0_5 2.947441 1_555
Pd2_5 Pr0_1 2.947441 1_555
Pd2_5 Pr2_1 3.100447 1_555
Pd2_5 Pr1_4 3.100447 1_555
Pd2_5 Pr2_5 3.100447 1_555
Pd2_5 Pr1_0 3.100447 1_555
Pd2_6 Pr0_2 2.947441 1_555
Pd2_6 Pr0_6 2.947441 1_555
Pd2_6 Pr1_3 3.100447 1_554
Pd2_6 Pr1_7 3.100447 1_554
Pd2_6 Pr2_2 3.100447 1_555
Pd2_6 Pr2_6 3.100447 1_555
Pd2_7 Pr0_7 2.947441 1_555
Pd2_7 Pr0_3 2.947441 1_555
Pd2_7 Pr1_6 3.100447 1_555
Pd2_7 Pr2_7 3.100447 1_555
Pd2_7 Pr1_2 3.100447 1_555
Pd2_7 Pr2_3 3.100447 1_555
Pd3_0 Pr1_4 2.947441 1_455
Pd3_0 Pr1_0 2.947441 1_555
Pd3_0 Pr0_4 3.100447 1_455
Pd3_0 Pr0_0 3.100447 1_555
Pd3_0 Pr3_2 3.100447 1_555
Pd3_0 Pr3_6 3.100447 1_455
Pd3_1 Pr1_5 2.947441 1_455
Pd3_1 Pr1_1 2.947441 1_555
Pd3_1 Pr0_5 3.100447 1_455
Pd3_1 Pr0_1 3.100447 1_555
Pd3_1 Pr3_3 3.100447 1_555
Pd3_1 Pr3_7 3.100447 1_455
Pd3_2 Pr1_6 2.947441 1_455
Pd3_2 Pr1_2 2.947441 1_555
Pd3_2 Pr0_2 3.100447 1_555
Pd3_2 Pr0_6 3.100447 1_455
Pd3_2 Pr3_4 3.100447 1_465
Pd3_2 Pr3_0 3.100447 1_565
Pd3_3 Pr1_7 2.947441 1_455
Pd3_3 Pr1_3 2.947441 1_555
Pd3_3 Pr0_7 3.100447 1_455
Pd3_3 Pr0_3 3.100447 1_555
Pd3_3 Pr3_1 3.100447 1_565
Pd3_3 Pr3_5 3.100447 1_465
Pd3_4 Pr1_4 2.947441 1_555
Pd3_4 Pr1_0 2.947441 1_555
Pd3_4 Pr0_4 3.100447 1_555
Pd3_4 Pr0_0 3.100447 1_555
Pd3_4 Pr3_2 3.100447 1_555
Pd3_4 Pr3_6 3.100447 1_555
Pd3_5 Pr1_5 2.947441 1_555
Pd3_5 Pr1_1 2.947441 1_555
Pd3_5 Pr0_5 3.100447 1_555
Pd3_5 Pr0_1 3.100447 1_555
Pd3_5 Pr3_3 3.100447 1_555
Pd3_5 Pr3_7 3.100447 1_555
Pd3_6 Pr1_6 2.947441 1_555
Pd3_6 Pr1_2 2.947441 1_555
Pd3_6 Pr0_6 3.100447 1_555
Pd3_6 Pr0_2 3.100447 1_555
Pd3_6 Pr3_0 3.100447 1_565
Pd3_6 Pr3_4 3.100447 1_565
Pd3_7 Pr1_3 2.947441 1_555
Pd3_7 Pr1_7 2.947441 1_555
Pd3_7 Pr0_3 3.100447 1_555
Pd3_7 Pr0_7 3.100447 1_555
Pd3_7 Pr3_5 3.100447 1_565
Pd3_7 Pr3_1 3.100447 1_565
