# generated using pymatgen
data_EuNpO3
_symmetry_space_group_name_H-M   'P 1'
_cell_length_a   5.94021533
_cell_length_b   6.13438638
_cell_length_c   8.55275324
_cell_angle_alpha   90.00000000
_cell_angle_beta   90.00000000
_cell_angle_gamma   90.00000000
_symmetry_Int_Tables_number   1
_chemical_formula_structural   EuNpO3
_chemical_formula_sum   'Eu4 Np4 O12'
_cell_volume   311.65870182
_cell_formula_units_Z   4
loop_
 _symmetry_equiv_pos_site_id
 _symmetry_equiv_pos_as_xyz
  1  'x, y, z'
loop_
 _atom_site_type_symbol
 _atom_site_label
 _atom_site_symmetry_multiplicity
 _atom_site_fract_x
 _atom_site_fract_y
 _atom_site_fract_z
 _atom_site_occupancy
  Eu  Eu0  1  0.01681510  0.44873915  0.25000000  1
  Eu  Eu1  1  0.98318490  0.55126085  0.75000000  1
  Eu  Eu2  1  0.51681510  0.05126085  0.75000000  1
  Eu  Eu3  1  0.48318490  0.94873915  0.25000000  1
  Np  Np0  1  -0.00000000  -0.00000000  0.00000000  1
  Np  Np1  1  0.50000000  0.50000000  0.00000000  1
  Np  Np2  1  -0.00000000  -0.00000000  0.50000000  1
  Np  Np3  1  0.50000000  0.50000000  0.50000000  1
  O  O0  1  0.30161715  0.20040718  0.06559072  1
  O  O1  1  0.69838285  0.79959282  0.93440928  1
  O  O2  1  0.80161715  0.29959282  0.93440928  1
  O  O3  1  0.69838285  0.79959282  0.56559072  1
  O  O4  1  0.19838285  0.70040718  0.06559072  1
  O  O5  1  0.30161715  0.20040718  0.43440928  1
  O  O6  1  0.19838285  0.70040718  0.43440928  1
  O  O7  1  0.80161715  0.29959282  0.56559072  1
  O  O8  1  0.62108988  0.55125267  0.25000000  1
  O  O9  1  0.37891012  0.44874733  0.75000000  1
  O  O10  1  0.12108988  0.94874733  0.75000000  1
  O  O11  1  0.87891012  0.05125267  0.25000000  1
loop_
_geom_bond_atom_site_label_1
_geom_bond_atom_site_label_2
_geom_bond_distance
_geom_bond_site_symmetry_2
Eu0 O8 2.433356 1_455
Eu0 O6 2.456474 1_555
Eu0 O4 2.456474 1_555
Eu0 O11 2.572265 1_455
Eu0 O5 2.769541 1_555
Eu0 O0 2.769541 1_555
Eu0 O7 3.123572 1_455
Eu0 O2 3.123572 1_454
Eu1 O9 2.433356 1_655
Eu1 O7 2.456474 1_555
Eu1 O2 2.456474 1_555
Eu1 O10 2.572265 1_655
Eu1 O3 2.769541 1_555
Eu1 O1 2.769541 1_555
Eu1 O6 3.123572 1_655
Eu1 O4 3.123572 1_656
Eu2 O10 2.433356 1_545
Eu2 O3 2.456474 1_545
Eu2 O1 2.456474 1_545
Eu2 O9 2.572265 1_555
Eu2 O7 2.769541 1_555
Eu2 O2 2.769541 1_555
Eu2 O5 3.123572 1_555
Eu2 O0 3.123572 1_556
Eu3 O11 2.433356 1_565
Eu3 O0 2.456474 1_565
Eu3 O5 2.456474 1_565
Eu3 O8 2.572265 1_555
Eu3 O4 2.769541 1_555
Eu3 O6 2.769541 1_555
Eu3 O1 3.123572 1_554
Eu3 O3 3.123572 1_555
Np0 O0 2.244136 1_555
Np0 O1 2.244136 1_444
Np0 O2 2.254105 1_454
Np0 O4 2.254105 1_545
Np0 O10 2.277738 1_544
Np0 O11 2.277738 1_455
Np1 O4 2.244136 1_555
Np1 O2 2.244136 1_554
Np1 O0 2.254105 1_555
Np1 O1 2.254105 1_554
Np1 O9 2.277738 1_554
Np1 O8 2.277738 1_555
Np2 O5 2.244136 1_555
Np2 O3 2.244136 1_445
Np2 O7 2.254105 1_455
Np2 O6 2.254105 1_545
Np2 O10 2.277738 1_545
Np2 O11 2.277738 1_455
Np3 O6 2.244136 1_555
Np3 O7 2.244136 1_555
Np3 O5 2.254105 1_555
Np3 O3 2.254105 1_555
Np3 O9 2.277738 1_555
Np3 O8 2.277738 1_555
