# generated using pymatgen
data_Er2(SeO4)3
_symmetry_space_group_name_H-M   'P 1'
_cell_length_a   6.55319143
_cell_length_b   7.04731700
_cell_length_c   7.04847127
_cell_angle_alpha   60.00542174
_cell_angle_beta   100.57103095
_cell_angle_gamma   90.00000000
_symmetry_Int_Tables_number   1
_chemical_formula_structural   Er2(SeO4)3
_chemical_formula_sum   'Er2 Se3 O12'
_cell_volume   275.52270917
_cell_formula_units_Z   1
loop_
 _symmetry_equiv_pos_site_id
 _symmetry_equiv_pos_as_xyz
  1  'x, y, z'
loop_
 _atom_site_type_symbol
 _atom_site_label
 _atom_site_symmetry_multiplicity
 _atom_site_fract_x
 _atom_site_fract_y
 _atom_site_fract_z
 _atom_site_occupancy
  Er  Er0  1  0.86224800  0.85322900  0.42098000  1
  Er  Er1  1  0.13775200  0.27420900  0.57902000  1
  Se  Se0  1  0.37086400  0.74360900  0.58478800  1
  Se  Se1  1  0.62913600  0.32839800  0.41521200  1
  Se  Se2  1  0.00000000  0.38110900  0.00000000  1
  O  O0  1  0.51363200  0.87630700  0.38753900  1
  O  O1  1  0.48636800  0.26384500  0.61246100  1
  O  O2  1  0.82603600  0.11046100  0.54012100  1
  O  O3  1  0.17396400  0.65058300  0.45987900  1
  O  O4  1  0.82895700  0.19646800  0.09373800  1
  O  O5  1  0.17104300  0.29020600  0.90626200  1
  O  O6  1  0.80638200  0.49645600  0.46657200  1
  O  O7  1  0.19361800  0.96302800  0.53342800  1
  O  O8  1  0.87696300  0.62419900  0.79442000  1
  O  O9  1  0.12303700  0.41861900  0.20558000  1
  O  O10  1  0.79629200  0.77549800  0.12827800  1
  O  O11  1  0.20370800  0.90377600  0.87172200  1
loop_
_geom_bond_atom_site_label_1
_geom_bond_atom_site_label_2
_geom_bond_distance
_geom_bond_site_symmetry_2
Er0 O0 2.250614 1_555
Er0 O8 2.280773 1_555
Er0 O4 2.335779 1_565
Er0 O10 2.355011 1_555
Er0 O2 2.375484 1_565
Er0 O3 2.385466 1_655
Er0 O6 2.407132 1_555
Er0 O7 2.433965 1_655
Er1 O1 2.250614 1_555
Er1 O9 2.280773 1_555
Er1 O5 2.335779 1_555
Er1 O11 2.355011 1_545
Er1 O3 2.375491 1_555
Er1 O2 2.385470 1_455
Er1 O7 2.407132 1_545
Er1 O6 2.433965 1_455
O0 Se0 1.691185 1_555
O1 Se1 1.691183 1_555
O2 Se1 1.740737 1_555
O3 Se0 1.740728 1_555
O4 Se2 1.672788 1_655
O5 Se2 1.672788 1_556
O6 Se1 1.776879 1_555
O7 Se0 1.776884 1_555
O8 Se2 1.665520 1_656
O9 Se2 1.665520 1_555
O10 O6 2.193401 1_555
O10 O3 2.860698 1_655
O10 O4 2.864164 1_565
O10 O9 3.067401 1_655
O11 O7 2.193401 1_555
O11 O2 2.860697 1_465
O11 O5 2.864164 1_565
O11 O8 3.067401 1_455
