# generated using pymatgen
data_VWO4
_symmetry_space_group_name_H-M   'P 1'
_cell_length_a   4.57686672
_cell_length_b   4.99970048
_cell_length_c   11.84935199
_cell_angle_alpha   90.56339633
_cell_angle_beta   89.97016731
_cell_angle_gamma   90.31446649
_symmetry_Int_Tables_number   1
_chemical_formula_structural   VWO4
_chemical_formula_sum   'V4 W4 O16'
_cell_volume   271.13105816
_cell_formula_units_Z   4
loop_
 _symmetry_equiv_pos_site_id
 _symmetry_equiv_pos_as_xyz
  1  'x, y, z'
loop_
 _atom_site_type_symbol
 _atom_site_label
 _atom_site_symmetry_multiplicity
 _atom_site_fract_x
 _atom_site_fract_y
 _atom_site_fract_z
 _atom_site_occupancy
  V  V0  1  0.50328800  0.25389100  0.93770800  1
  V  V1  1  0.00185500  0.24791100  0.43732600  1
  V  V2  1  0.00244100  0.74595600  0.56317600  1
  V  V3  1  0.50048100  0.75293400  0.06387400  1
  W  W0  1  0.00095300  0.75126000  0.82133200  1
  W  W1  1  0.49645700  0.75203800  0.32294000  1
  W  W2  1  0.50041300  0.24847000  0.67717200  1
  W  W3  1  0.99636700  0.24755300  0.17826200  1
  O  O0  1  0.26286200  0.07151800  0.81309900  1
  O  O1  1  0.77080300  0.41912000  0.30459000  1
  O  O2  1  0.73926400  0.43032600  0.81291000  1
  O  O3  1  0.77967400  0.91290300  0.69666700  1
  O  O4  1  0.22819700  0.07115200  0.30675200  1
  O  O5  1  0.27305800  0.57908100  0.19204500  1
  O  O6  1  0.22199700  0.58429200  0.69703300  1
  O  O7  1  0.72905000  0.92820800  0.18970400  1
  O  O8  1  0.24796300  0.59234700  0.93425800  1
  O  O9  1  0.75234400  0.90598200  0.43265900  1
  O  O10  1  0.75216900  0.91397400  0.93437400  1
  O  O11  1  0.76016700  0.41654300  0.56156900  1
  O  O12  1  0.24390500  0.57835500  0.43678300  1
  O  O13  1  0.25553600  0.09397800  0.06344400  1
  O  O14  1  0.23680300  0.07833400  0.56111900  1
  O  O15  1  0.74395300  0.42387600  0.06120500  1
loop_
_geom_bond_atom_site_label_1
_geom_bond_atom_site_label_2
_geom_bond_distance
_geom_bond_site_symmetry_2
O0 W0 1.998038 1_545
O0 V0 2.046126 1_555
O0 W2 2.138836 1_555
O0 O3 2.717608 1_445
O0 O10 2.783125 1_545
O0 O6 2.791030 1_545
O1 W3 2.006285 1_555
O1 V1 2.088774 1_655
O1 W1 2.099998 1_555
O1 O5 2.766224 1_555
O1 O5 2.774875 1_655
O1 O12 2.781393 1_655
O1 O7 2.800586 1_545
O2 W0 1.998754 1_655
O2 V0 2.035906 1_555
O2 W2 2.137964 1_555
O2 O6 2.712620 1_655
O2 O8 2.788143 1_555
O2 O3 2.795167 1_555
O3 W0 1.973566 1_655
O3 V2 2.054255 1_655
O3 W2 2.129147 1_565
O4 W1 2.029179 1_545
O4 V1 2.056584 1_555
O4 W3 2.064005 1_455
O4 O7 2.760314 1_445
O4 O9 2.766258 1_445
O4 O7 2.772069 1_545
O4 O5 2.807438 1_545
O5 V3 2.039592 1_555
O5 W1 2.040696 1_555
O5 W3 2.085588 1_455
O6 W0 1.968058 1_555
O6 V2 2.052960 1_555
O6 W2 2.124531 1_555
O7 W3 2.011750 1_565
O7 V3 2.012779 1_555
O7 W1 2.101631 1_555
O8 W0 1.931894 1_555
O8 V0 2.062488 1_555
O8 V3 2.075249 1_556
O9 W1 1.904281 1_555
O9 V1 2.050972 1_665
O9 V2 2.092463 1_655
O10 W0 1.933827 1_655
O10 V0 2.051152 1_565
O10 V3 2.083790 1_556
O10 O2 2.802186 1_555
O11 V2 1.980349 1_655
O11 W2 2.001474 1_555
O11 V1 2.021375 1_655
O12 W1 1.979963 1_555
O12 V1 1.984174 1_555
O12 V2 2.037232 1_555
O13 W3 1.958411 1_455
O13 V0 2.038751 1_554
O13 V3 2.045833 1_545
O13 O7 2.769387 1_545
O14 V2 1.973299 1_545
O14 W2 2.009411 1_555
O14 V1 2.015677 1_555
O14 O3 2.764932 1_445
O15 V3 1.992102 1_555
O15 V0 2.010954 1_554
O15 W3 2.018066 1_555
O15 O5 2.764416 1_555
