# generated using pymatgen
data_Ti3(Co10B3)2
_symmetry_space_group_name_H-M   'P 1'
_cell_length_a   7.42152266
_cell_length_b   7.42152266
_cell_length_c   7.42152266
_cell_angle_alpha   60.00000000
_cell_angle_beta   60.00000000
_cell_angle_gamma   60.00000000
_symmetry_Int_Tables_number   1
_chemical_formula_structural   Ti3(Co10B3)2
_chemical_formula_sum   'Ti3 Co20 B6'
_cell_volume   289.04406457
_cell_formula_units_Z   1
loop_
 _symmetry_equiv_pos_site_id
 _symmetry_equiv_pos_as_xyz
  1  'x, y, z'
loop_
 _atom_site_type_symbol
 _atom_site_label
 _atom_site_symmetry_multiplicity
 _atom_site_fract_x
 _atom_site_fract_y
 _atom_site_fract_z
 _atom_site_occupancy
  Ti  Ti0  1  0.00000000  0.00000000  0.00000000  1
  Ti  Ti1  1  0.25000000  0.25000000  0.25000000  1
  Ti  Ti2  1  0.75000000  0.75000000  0.75000000  1
  Co  Co0  1  0.85206600  0.38264500  0.38264500  1
  Co  Co1  1  0.38264500  0.85206600  0.38264500  1
  Co  Co2  1  0.38264500  0.38264500  0.85206600  1
  Co  Co3  1  0.38264500  0.38264500  0.38264500  1
  Co  Co4  1  0.14793400  0.61735500  0.61735500  1
  Co  Co5  1  0.61735500  0.14793400  0.61735500  1
  Co  Co6  1  0.61735500  0.61735500  0.14793400  1
  Co  Co7  1  0.61735500  0.61735500  0.61735500  1
  Co  Co8  1  0.65819000  0.00000000  0.00000000  1
  Co  Co9  1  0.65819000  0.00000000  0.34181000  1
  Co  Co10  1  0.65819000  0.34181000  0.00000000  1
  Co  Co11  1  0.00000000  0.65819000  0.34181000  1
  Co  Co12  1  0.00000000  0.65819000  0.00000000  1
  Co  Co13  1  0.34181000  0.65819000  0.00000000  1
  Co  Co14  1  0.00000000  0.34181000  0.65819000  1
  Co  Co15  1  0.34181000  0.00000000  0.65819000  1
  Co  Co16  1  0.00000000  0.00000000  0.65819000  1
  Co  Co17  1  0.34181000  0.00000000  0.00000000  1
  Co  Co18  1  0.00000000  0.34181000  0.00000000  1
  Co  Co19  1  0.00000000  0.00000000  0.34181000  1
  B  B0  1  0.72832800  0.27167200  0.27167200  1
  B  B1  1  0.72832800  0.27167200  0.72832800  1
  B  B2  1  0.72832800  0.72832800  0.27167200  1
  B  B3  1  0.27167200  0.72832800  0.72832800  1
  B  B4  1  0.27167200  0.72832800  0.27167200  1
  B  B5  1  0.27167200  0.27167200  0.72832800  1
loop_
_geom_bond_atom_site_label_1
_geom_bond_atom_site_label_2
_geom_bond_distance
_geom_bond_site_symmetry_2
Co0 Ti1 2.411340 1_655
Co0 Co7 2.463427 1_555
Co0 Co5 2.463437 1_555
Co0 Co6 2.463437 1_555
Co0 Co11 2.602265 1_655
Co0 Co14 2.602265 1_655
Co0 Co12 2.602268 1_655
Co0 Co16 2.602268 1_655
Co0 Co18 2.602272 1_655
Co0 Co19 2.602272 1_655
Co1 Ti1 2.411340 1_565
Co1 Co7 2.463427 1_555
Co1 Co4 2.463437 1_555
Co1 Co6 2.463437 1_555
Co1 Co15 2.602265 1_565
Co1 Co9 2.602265 1_565
Co1 Co8 2.602268 1_565
Co1 Co16 2.602268 1_565
Co1 Co17 2.602272 1_565
Co1 Co19 2.602272 1_565
Co2 Ti1 2.411340 1_556
Co2 Co7 2.463427 1_555
Co2 Co4 2.463437 1_555
Co2 Co5 2.463437 1_555
Co2 Co8 2.602268 1_556
Co3 Ti1 2.411346 1_555
Co3 Co5 2.463427 1_555
Co3 Co6 2.463427 1_555
Co3 Co4 2.463427 1_555
Co3 Co9 2.602270 1_555
Co4 Ti2 2.411340 1_455
Co5 Ti2 2.411340 1_545
Co5 Co9 2.602265 1_555
Co5 Co8 2.602272 1_556
Co6 Ti2 2.411340 1_554
Co6 Co8 2.602272 1_565
Co7 Ti2 2.411346 1_555
Co7 Co9 2.602270 1_565
Co8 Ti0 2.536751 1_655
Co8 Co9 2.536751 1_555
Co8 Ti2 2.874574 1_544
Co8 Ti1 2.874574 1_555
Co9 Ti0 2.536751 1_655
Co9 Ti2 2.874574 1_545
Co9 Ti1 2.874574 1_555
Co10 Co13 2.348021 1_555
Co10 Co14 2.536751 1_654
Co10 Co18 2.536751 1_655
Co10 Ti0 2.536751 1_655
Co10 Co8 2.536751 1_555
Co10 Co9 2.536751 1_555
Co10 Co6 2.602265 1_555
Co10 Co2 2.602265 1_554
Co10 Co3 2.602270 1_555
Co10 Co7 2.602270 1_554
Co10 Ti2 2.874574 1_554
Co10 Ti1 2.874574 1_555
Co11 Co14 2.348021 1_555
Co11 Co9 2.536751 1_465
Co11 Co19 2.536751 1_565
Co11 Ti0 2.536751 1_565
Co11 Co13 2.536751 1_555
Co11 Co12 2.536751 1_555
Co11 Co4 2.602265 1_555
Co11 Co3 2.602270 1_555
Co11 Co7 2.602270 1_455
Co11 Ti2 2.874574 1_455
Co11 Ti1 2.874574 1_555
Co12 Co18 2.348021 1_555
Co12 Ti0 2.536751 1_565
Co12 Co16 2.536751 1_564
Co12 Co8 2.536751 1_465
Co12 Co13 2.536751 1_555
Co12 Co2 2.602268 1_554
Co12 Co6 2.602272 1_455
Co12 Co4 2.602272 1_554
Co12 Ti2 2.874574 1_454
Co12 Ti1 2.874574 1_555
Co13 Co17 2.536751 1_565
Co13 Co15 2.536751 1_564
Co13 Ti0 2.536751 1_565
Co13 Co6 2.602265 1_555
Co13 Co2 2.602265 1_554
Co13 Co3 2.602270 1_555
Co13 Co7 2.602270 1_554
Co13 Ti2 2.874574 1_554
Co13 Ti1 2.874574 1_555
Co14 Co18 2.536751 1_556
Co14 Ti0 2.536751 1_556
Co14 Co16 2.536751 1_555
Co14 Co15 2.536751 1_555
Co14 Co4 2.602265 1_555
Co14 Co3 2.602270 1_555
Co14 Co7 2.602270 1_455
Co14 Ti2 2.874574 1_455
Co14 Ti1 2.874574 1_555
Co15 Co9 2.348021 1_555
Co15 Ti0 2.536751 1_556
Co15 Co17 2.536751 1_556
Co15 Co16 2.536751 1_555
Co15 Co5 2.602265 1_555
Co15 Co3 2.602270 1_555
Co15 Co7 2.602270 1_545
Co15 Ti2 2.874574 1_545
Co15 Ti1 2.874574 1_555
Co16 Co19 2.348021 1_555
Co16 Ti0 2.536751 1_556
Co16 Co8 2.536751 1_456
Co16 Co5 2.602272 1_455
Co16 Co4 2.602272 1_545
Co16 Ti1 2.874574 1_555
Co16 Ti2 2.874574 1_445
Co17 Co8 2.348021 1_555
Co17 Ti0 2.536751 1_555
Co17 Co18 2.536751 1_555
Co17 Co19 2.536751 1_555
Co17 Co6 2.602268 1_545
Co17 Co5 2.602268 1_554
Co17 Co2 2.602272 1_554
Co17 Ti1 2.874574 1_555
Co17 Ti2 2.874574 1_544
Co18 Ti0 2.536751 1_555
Co18 Co19 2.536751 1_555
Co18 Co4 2.602268 1_554
Co18 Co6 2.602268 1_455
Co18 Co2 2.602272 1_554
Co18 Ti2 2.874574 1_454
Co18 Ti1 2.874574 1_555
Co19 Co9 2.536751 1_455
Co19 Ti0 2.536751 1_555
Co19 Co4 2.602268 1_545
Co19 Co5 2.602268 1_455
Co19 Ti1 2.874574 1_555
Co19 Ti2 2.874574 1_445
B0 Co10 2.082329 1_555
B0 Co9 2.082329 1_555
B0 Co18 2.082329 1_655
B0 Co19 2.082329 1_655
B0 Co3 2.095431 1_555
B0 Co5 2.095431 1_555
B0 Co6 2.095431 1_555
B0 Co0 2.095437 1_555
B1 Co16 2.082329 1_655
B1 Co8 2.082329 1_556
B1 Co10 2.082329 1_556
B1 Co14 2.082329 1_655
B1 Co7 2.095431 1_555
B1 Co2 2.095431 1_555
B1 Co0 2.095431 1_555
B1 Co5 2.095437 1_555
B2 Co8 2.082329 1_565
B2 Co12 2.082329 1_655
B2 Co11 2.082329 1_655
B2 Co9 2.082329 1_565
B2 Co7 2.095431 1_555
B2 Co0 2.095431 1_555
B2 Co1 2.095431 1_555
B2 Co6 2.095437 1_555
B3 Co16 2.082329 1_565
B3 Co12 2.082329 1_556
B3 Co15 2.082329 1_565
B3 Co13 2.082329 1_556
B3 Co7 2.095431 1_555
B3 Co2 2.095431 1_555
B3 Co1 2.095431 1_555
B3 Co4 2.095437 1_555
B4 Co13 2.082329 1_555
B4 Co11 2.082329 1_555
B4 Co19 2.082329 1_565
B4 Co17 2.082329 1_565
B4 Co3 2.095431 1_555
B4 Co6 2.095431 1_555
B4 Co4 2.095431 1_555
B4 Co1 2.095437 1_555
B5 Co14 2.082329 1_555
B5 Co15 2.082329 1_555
B5 Co17 2.082329 1_556
B5 Co18 2.082329 1_556
B5 Co3 2.095431 1_555
B5 Co5 2.095431 1_555
B5 Co4 2.095431 1_555
B5 Co2 2.095437 1_555
