# generated using pymatgen
data_Rb2Zn5As4
_symmetry_space_group_name_H-M   'P 1'
_cell_length_a   6.82005383
_cell_length_b   6.82005383
_cell_length_c   11.74564140
_cell_angle_alpha   90.00000000
_cell_angle_beta   90.00000000
_cell_angle_gamma   117.26470828
_symmetry_Int_Tables_number   1
_chemical_formula_structural   Rb2Zn5As4
_chemical_formula_sum   'Rb4 Zn10 As8'
_cell_volume   485.62947632
_cell_formula_units_Z   2
loop_
 _symmetry_equiv_pos_site_id
 _symmetry_equiv_pos_as_xyz
  1  'x, y, z'
loop_
 _atom_site_type_symbol
 _atom_site_label
 _atom_site_symmetry_multiplicity
 _atom_site_fract_x
 _atom_site_fract_y
 _atom_site_fract_z
 _atom_site_occupancy
  Rb  Rb0  1  0.21690257  0.78309743  0.50000000  1
  Rb  Rb1  1  0.21690257  0.78309743  0.00000000  1
  Rb  Rb2  1  0.78309743  0.21690257  0.50000000  1
  Rb  Rb3  1  0.78309743  0.21690257  0.00000000  1
  Zn  Zn0  1  0.52826486  0.24032708  0.25000000  1
  Zn  Zn1  1  0.75967292  0.47173514  0.75000000  1
  Zn  Zn2  1  0.47173514  0.75967292  0.75000000  1
  Zn  Zn3  1  0.24032708  0.52826486  0.25000000  1
  Zn  Zn4  1  0.65447659  0.65447659  0.39177804  1
  Zn  Zn5  1  0.34552341  0.34552341  0.60822196  1
  Zn  Zn6  1  0.65447659  0.65447659  0.10822196  1
  Zn  Zn7  1  0.34552341  0.34552341  0.89177804  1
  Zn  Zn8  1  0.01043099  0.01043099  0.25000000  1
  Zn  Zn9  1  0.98956901  0.98956901  0.75000000  1
  As  As0  1  0.60168446  0.91378820  0.25000000  1
  As  As1  1  0.08621180  0.39831554  0.75000000  1
  As  As2  1  0.39831554  0.08621180  0.75000000  1
  As  As3  1  0.91378820  0.60168446  0.25000000  1
  As  As4  1  0.28123559  0.28123559  0.40051185  1
  As  As5  1  0.71876441  0.71876441  0.59948815  1
  As  As6  1  0.28123559  0.28123559  0.09948815  1
  As  As7  1  0.71876441  0.71876441  0.90051185  1
loop_
_geom_bond_atom_site_label_1
_geom_bond_atom_site_label_2
_geom_bond_distance
_geom_bond_site_symmetry_2
Rb0 Zn3 3.452964 1_555
Rb0 Zn2 3.452964 1_555
Rb0 Rb2 3.632772 1_565
Rb0 Rb2 3.632772 1_455
Rb0 Zn4 3.699951 1_555
Rb0 Zn5 3.699951 1_555
Rb0 Zn5 3.743748 1_565
Rb0 Zn4 3.743748 1_455
Rb0 Zn9 3.874209 1_455
Rb0 Zn8 3.874209 1_565
Rb1 Zn3 3.452964 1_555
Rb1 Zn2 3.452964 1_554
Rb1 Rb3 3.632772 1_565
Rb1 Rb3 3.632772 1_455
Rb1 Zn7 3.699951 1_554
Rb1 Zn6 3.699951 1_555
Rb1 Zn7 3.743748 1_564
Rb1 Zn6 3.743748 1_455
Rb1 Zn9 3.874209 1_454
Rb1 Zn8 3.874209 1_565
Rb2 Zn0 3.452964 1_555
Rb2 Zn1 3.452964 1_555
Rb2 Zn4 3.699951 1_555
Rb2 Zn5 3.699951 1_555
Rb2 Zn4 3.743748 1_545
Rb2 Zn5 3.743748 1_655
Rb2 Zn9 3.874209 1_545
Rb2 Zn8 3.874209 1_655
Rb3 Zn0 3.452964 1_555
Rb3 Zn1 3.452964 1_554
Rb3 Zn7 3.699951 1_554
Rb3 Zn6 3.699951 1_555
Rb3 Zn7 3.743748 1_654
Rb3 Zn6 3.743748 1_545
Rb3 Zn9 3.874209 1_544
Rb3 Zn8 3.874209 1_655
Zn0 Zn6 3.043756 1_555
Zn0 Zn4 3.043756 1_555
Zn0 Zn8 3.139684 1_555
Zn1 Zn5 3.043756 1_555
Zn1 Zn7 3.043756 1_555
Zn1 Zn9 3.139684 1_555
Zn2 Zn5 3.043756 1_555
Zn2 Zn7 3.043756 1_555
Zn2 Zn9 3.139684 1_555
Zn3 Zn6 3.043756 1_555
Zn3 Zn4 3.043756 1_555
Zn3 Zn8 3.139684 1_555
Zn4 Zn8 3.026608 1_665
Zn5 Zn9 3.026608 1_445
Zn6 Zn8 3.026608 1_665
Zn7 Zn9 3.026608 1_445
As0 Zn0 2.496396 1_565
As0 Zn8 2.553846 1_665
As0 Zn6 2.571735 1_555
As0 Zn4 2.571735 1_555
As0 Zn3 2.655178 1_555
As0 Rb2 3.476126 1_565
As0 Rb3 3.476126 1_565
As0 Rb0 3.763048 1_555
As0 Rb1 3.763048 1_555
As1 Zn1 2.496396 1_455
As1 Zn9 2.553846 1_445
As1 Zn5 2.571735 1_555
As1 Zn7 2.571735 1_555
As1 Zn2 2.655178 1_555
As1 Rb2 3.476126 1_455
As1 Rb3 3.476126 1_456
As1 Rb0 3.763048 1_555
As1 Rb1 3.763048 1_556
As2 Zn2 2.496396 1_545
As2 Zn9 2.553846 1_445
As2 Zn5 2.571735 1_555
As2 Zn7 2.571735 1_555
As2 Zn1 2.655178 1_555
As2 Rb0 3.476126 1_545
As2 Rb1 3.476126 1_546
As2 Rb3 3.763048 1_556
As2 Rb2 3.763048 1_555
As3 Zn3 2.496396 1_655
As3 Zn8 2.553846 1_665
As3 Zn6 2.571735 1_555
As3 Zn4 2.571735 1_555
As3 Zn0 2.655178 1_555
As3 Rb0 3.476126 1_655
As3 Rb1 3.476126 1_655
As3 Rb3 3.763048 1_555
As3 Rb2 3.763048 1_555
As4 Zn5 2.482020 1_555
As4 Zn3 2.544054 1_555
As4 Zn0 2.544054 1_555
As4 Zn8 2.611934 1_555
As4 Zn4 2.652015 1_555
As4 Rb0 3.425518 1_545
As4 Rb2 3.425518 1_455
As4 Rb0 3.827396 1_555
As4 Rb2 3.827396 1_555
As5 Zn4 2.482020 1_555
As5 Zn2 2.544054 1_555
As5 Zn1 2.544054 1_555
As5 Zn9 2.611934 1_555
As5 Zn5 2.652015 1_555
As5 Rb2 3.425518 1_565
As5 Rb0 3.425518 1_655
As5 Rb2 3.827396 1_555
As5 Rb0 3.827396 1_555
As6 Zn7 2.482020 1_554
As6 Zn3 2.544054 1_555
As6 Zn0 2.544054 1_555
As6 Zn8 2.611934 1_555
As6 Zn6 2.652015 1_555
As6 Rb1 3.425518 1_545
As6 Rb3 3.425518 1_455
As6 Rb1 3.827396 1_555
As6 Rb3 3.827396 1_555
As7 Zn6 2.482020 1_556
As7 Zn2 2.544054 1_555
As7 Zn1 2.544054 1_555
As7 Zn9 2.611934 1_555
As7 Zn7 2.652015 1_555
As7 Rb3 3.425518 1_566
As7 Rb1 3.425518 1_656
As7 Rb3 3.827396 1_556
As7 Rb1 3.827396 1_556
