# generated using pymatgen
data_Li9Co7O16
_symmetry_space_group_name_H-M   'P 1'
_cell_length_a   3.00844600
_cell_length_b   8.02061014
_cell_length_c   11.99190792
_cell_angle_alpha   88.96066609
_cell_angle_beta   88.64507040
_cell_angle_gamma   89.87160853
_symmetry_Int_Tables_number   1
_chemical_formula_structural   Li9Co7O16
_chemical_formula_sum   'Li9 Co7 O16'
_cell_volume   289.23063847
_cell_formula_units_Z   1
loop_
 _symmetry_equiv_pos_site_id
 _symmetry_equiv_pos_as_xyz
  1  'x, y, z'
loop_
 _atom_site_type_symbol
 _atom_site_label
 _atom_site_symmetry_multiplicity
 _atom_site_fract_x
 _atom_site_fract_y
 _atom_site_fract_z
 _atom_site_occupancy
  Li  Li0  1  0.00042700  0.75031500  0.87597600  1
  Li  Li1  1  0.49907600  0.00204100  0.24912100  1
  Li  Li2  1  0.00227400  0.24427100  0.62280000  1
  Li  Li3  1  0.50000000  0.50000000  0.00000000  1
  Li  Li4  1  0.99772600  0.75572900  0.37720000  1
  Li  Li5  1  0.50092400  0.99795900  0.75087900  1
  Li  Li6  1  0.99957300  0.24968500  0.12402400  1
  Li  Li7  1  0.50000000  0.50000000  0.50000000  1
  Li  Li8  1  0.50000000  0.00000000  0.50000000  1
  Co  Co0  1  0.00230300  0.75844600  0.61982600  1
  Co  Co1  1  0.99769700  0.24155400  0.38017400  1
  Co  Co2  1  0.50000000  0.00000000  0.00000000  1
  Co  Co3  1  0.50600600  0.50286200  0.74899200  1
  Co  Co4  1  0.99910600  0.74919100  0.12539300  1
  Co  Co5  1  0.00089400  0.25080900  0.87460700  1
  Co  Co6  1  0.49399400  0.49713800  0.25100800  1
  O  O0  1  0.54064600  0.74011800  0.74367800  1
  O  O1  1  0.99090800  0.99072000  0.11964000  1
  O  O2  1  0.53574300  0.25067800  0.48994900  1
  O  O3  1  0.00289300  0.49021200  0.87060900  1
  O  O4  1  0.49040200  0.74026500  0.24697700  1
  O  O5  1  0.00190800  0.97507400  0.62765300  1
  O  O6  1  0.49459800  0.24112500  0.99548800  1
  O  O7  1  0.98776500  0.48057600  0.36843000  1
  O  O8  1  0.50540200  0.75887500  0.00451200  1
  O  O9  1  0.99809200  0.02492600  0.37234700  1
  O  O10  1  0.50959800  0.25973500  0.75302300  1
  O  O11  1  0.99710700  0.50978800  0.12939100  1
  O  O12  1  0.46425700  0.74932200  0.51005100  1
  O  O13  1  0.00909200  0.00928000  0.88036000  1
  O  O14  1  0.45935400  0.25988200  0.25632200  1
  O  O15  1  0.01223500  0.51942400  0.63157000  1
loop_
_geom_bond_atom_site_label_1
_geom_bond_atom_site_label_2
_geom_bond_distance
_geom_bond_site_symmetry_2
Li0 O13 2.078913 1_565
Li0 O3 2.088335 1_555
Li0 O8 2.119742 1_456
Li0 O0 2.132135 1_455
Li0 O8 2.191709 1_556
Li0 O0 2.246598 1_555
Li1 O14 2.074468 1_555
Li1 O9 2.095759 1_455
Li1 O4 2.100455 1_545
Li1 O1 2.122362 1_545
Li1 O9 2.141754 1_555
Li1 O1 2.207807 1_445
Li2 O10 2.132527 1_455
Li2 O2 2.147809 1_455
Li2 O5 2.158855 1_545
Li2 O15 2.211608 1_555
Li2 O10 2.214520 1_555
Li2 O2 2.234492 1_555
Li3 O8 2.078131 1_555
Li3 O6 2.078131 1_554
Li3 O3 2.143730 1_654
Li3 O11 2.143730 1_455
Li3 O11 2.182895 1_555
Li3 O3 2.182895 1_554
Li4 O4 2.132527 1_655
Li4 O12 2.147809 1_655
Li4 O9 2.158855 1_565
Li4 O7 2.211608 1_555
Li4 O4 2.214520 1_555
Li4 O12 2.234492 1_555
Li5 O0 2.074468 1_555
Li5 O5 2.095759 1_655
Li5 O10 2.100455 1_565
Li5 O13 2.122362 1_565
Li5 O5 2.141754 1_555
Li5 O13 2.207807 1_665
Li6 O1 2.078913 1_545
Li6 O11 2.088335 1_555
Li6 O6 2.119742 1_654
Li6 O14 2.132135 1_655
Li6 O6 2.191709 1_554
Li6 O14 2.246598 1_555
Li7 O12 2.008013 1_555
Li7 O2 2.008013 1_555
Li7 O7 2.136669 1_555
Li7 O15 2.136669 1_555
Li7 O7 2.239063 1_455
Li7 O15 2.239063 1_655
Li8 O2 2.014976 1_555
Li8 O12 2.014976 1_545
Li8 O5 2.123802 1_545
Li8 O9 2.123802 1_555
Li8 O5 2.181782 1_645
Li8 O9 2.181782 1_455
Co0 O5 1.741718 1_555
Co0 O12 1.893742 1_555
Co0 O15 1.919936 1_555
Co0 O0 2.012932 1_455
Co0 O12 2.112635 1_455
Co0 O0 2.226048 1_555
Co1 O9 1.741718 1_555
Co1 O2 1.893742 1_555
Co1 O7 1.919936 1_555
Co1 O14 2.012932 1_655
Co1 O2 2.112635 1_655
Co1 O14 2.226048 1_555
Co2 O6 1.933788 1_554
Co2 O8 1.933788 1_545
Co2 O13 2.074219 1_654
Co2 O1 2.074219 1_445
Co2 O1 2.083488 1_545
Co2 O13 2.083488 1_554
Co3 O0 1.905851 1_555
Co3 O10 1.949761 1_555
Co3 O15 2.052450 1_655
Co3 O15 2.073244 1_555
Co3 O3 2.078259 1_555
Co3 O3 2.113986 1_655
Co4 O11 1.919906 1_555
Co4 O1 1.937310 1_555
Co4 O8 2.078319 1_655
Co4 O4 2.089088 1_555
Co4 O8 2.100152 1_555
Co4 O4 2.100764 1_655
Co5 O3 1.919906 1_555
Co5 O13 1.937310 1_555
Co5 O6 2.078319 1_455
Co5 O10 2.089088 1_555
Co5 O6 2.100152 1_555
Co5 O10 2.100764 1_455
Co6 O14 1.905851 1_555
Co6 O4 1.949761 1_555
Co6 O7 2.052450 1_455
Co6 O7 2.073244 1_555
Co6 O11 2.078259 1_555
Co6 O11 2.113986 1_455
