# generated using pymatgen
data_AlCr2N3
_symmetry_space_group_name_H-M   'P 1'
_cell_length_a   5.99739146
_cell_length_b   5.63795279
_cell_length_c   3.93820100
_cell_angle_alpha   90.00000000
_cell_angle_beta   90.00000000
_cell_angle_gamma   118.03648815
_symmetry_Int_Tables_number   1
_chemical_formula_structural   AlCr2N3
_chemical_formula_sum   'Al2 Cr4 N6'
_cell_volume   117.53561022
_cell_formula_units_Z   2
loop_
 _symmetry_equiv_pos_site_id
 _symmetry_equiv_pos_as_xyz
  1  'x, y, z'
loop_
 _atom_site_type_symbol
 _atom_site_label
 _atom_site_symmetry_multiplicity
 _atom_site_fract_x
 _atom_site_fract_y
 _atom_site_fract_z
 _atom_site_occupancy
  Al  Al0  1  0.00000000  0.66261800  0.42868500  1
  Al  Al1  1  0.00000000  0.33738200  0.92868500  1
  Cr  Cr0  1  0.36199400  0.33902000  0.42866600  1
  Cr  Cr1  1  0.63800600  0.97702500  0.42866600  1
  Cr  Cr2  1  0.63800600  0.66098000  0.92866600  1
  Cr  Cr3  1  0.36199400  0.02297500  0.92866600  1
  N  N0  1  0.31770500  0.33950400  0.92866100  1
  N  N1  1  0.68229500  0.02179700  0.92866100  1
  N  N2  1  0.68229500  0.66049600  0.42866100  1
  N  N3  1  0.31770500  0.97820300  0.42866100  1
  N  N4  1  0.00000000  0.68009300  0.92866000  1
  N  N5  1  0.00000000  0.31990700  0.42866000  1
loop_
_geom_bond_atom_site_label_1
_geom_bond_atom_site_label_2
_geom_bond_distance
_geom_bond_site_symmetry_2
Al0 N2 1.899807 1_455
Al0 N3 1.899812 1_555
Al0 N5 1.932188 1_555
Al0 N4 1.971465 1_555
Al0 N4 1.971662 1_554
Al1 N0 1.899807 1_555
Al1 N1 1.899812 1_455
Al1 N4 1.932188 1_555
Al1 N5 1.971465 1_556
Al1 N5 1.971662 1_555
Cr0 N3 1.923759 1_545
Cr0 N2 1.924093 1_555
Cr0 N0 1.987089 1_555
Cr0 N0 1.987128 1_554
Cr0 N5 2.122502 1_555
Cr1 N2 1.923765 1_555
Cr1 N3 1.924101 1_555
Cr1 N1 1.987088 1_565
Cr1 N1 1.987127 1_564
Cr1 N5 2.122504 1_665
Cr2 N1 1.923759 1_565
Cr2 N0 1.924093 1_555
Cr2 N2 1.987089 1_556
Cr2 N2 1.987128 1_555
Cr2 N4 2.122502 1_655
Cr3 N0 1.923765 1_555
Cr3 N1 1.924101 1_555
Cr3 N3 1.987088 1_546
Cr3 N3 1.987127 1_545
Cr3 N4 2.122504 1_545
