# generated using pymatgen
data_Na2FeO3
_symmetry_space_group_name_H-M   'P 1'
_cell_length_a   5.25617773
_cell_length_b   8.27594119
_cell_length_c   6.31225269
_cell_angle_alpha   76.00900531
_cell_angle_beta   74.14753992
_cell_angle_gamma   78.12653168
_symmetry_Int_Tables_number   1
_chemical_formula_structural   Na2FeO3
_chemical_formula_sum   'Na8 Fe4 O12'
_cell_volume   253.41590633
_cell_formula_units_Z   4
loop_
 _symmetry_equiv_pos_site_id
 _symmetry_equiv_pos_as_xyz
  1  'x, y, z'
loop_
 _atom_site_type_symbol
 _atom_site_label
 _atom_site_symmetry_multiplicity
 _atom_site_fract_x
 _atom_site_fract_y
 _atom_site_fract_z
 _atom_site_occupancy
  Na  Na0  1  0.50190169  0.50071588  -0.00181816  1
  Na  Na1  1  0.00407494  0.00075904  0.50058186  1
  Na  Na2  1  -0.00065253  0.00037462  0.00070234  1
  Na  Na3  1  0.49950457  0.49985151  0.49969681  1
  Na  Na4  1  0.98480805  0.32924330  0.17103953  1
  Na  Na5  1  0.48621317  0.82829769  0.67164028  1
  Na  Na6  1  0.01272047  0.67075103  0.82907803  1
  Na  Na7  1  0.51323837  0.17049281  0.32962183  1
  Fe  Fe0  1  0.50238626  0.83377691  0.16581236  1
  Fe  Fe1  1  -0.00042659  0.66684362  0.33316349  1
  Fe  Fe2  1  0.00224484  0.33420344  0.66572576  1
  Fe  Fe3  1  0.49966627  0.16657435  0.83354940  1
  O  O0  1  0.26789877  0.74943782  0.04749542  1
  O  O1  1  0.76807863  0.24919415  0.54766252  1
  O  O2  1  0.75754741  0.25942412  0.94349327  1
  O  O3  1  0.25822101  0.75929832  0.44358845  1
  O  O4  1  0.22834570  0.38522198  0.81964255  1
  O  O5  1  0.72856119  0.88477481  0.31978008  1
  O  O6  1  0.81171737  0.55547022  0.64359882  1
  O  O7  1  0.31233093  0.05552129  0.14383124  1
  O  O8  1  0.73876038  0.62806998  0.17209789  1
  O  O9  1  0.23956997  0.12827377  0.67290753  1
  O  O10  1  0.19145878  0.42167609  0.37343724  1
  O  O11  1  0.69182935  0.92175425  0.87366748  1
loop_
_geom_bond_atom_site_label_1
_geom_bond_atom_site_label_2
_geom_bond_distance
_geom_bond_site_symmetry_2
Na0 O2 2.210917 1_554
Na0 O0 2.214853 1_555
Na0 O6 2.385117 1_554
Na0 O8 2.390001 1_555
Na0 O4 2.494558 1_554
Na0 O10 2.505923 1_555
Na1 O3 2.212181 1_545
Na1 O1 2.213335 1_455
Na1 O9 2.378494 1_555
Na1 O7 2.391026 1_555
Na1 O11 2.500525 1_445
Na1 O5 2.515080 1_445
Na2 O7 2.247491 1_555
Na2 O9 2.249355 1_554
Na2 O5 2.249474 1_445
Na2 O11 2.252150 1_444
Na2 O2 2.257669 1_454
Na2 O0 2.262179 1_545
Na3 O8 2.247447 1_555
Na3 O6 2.248861 1_555
Na3 O10 2.249615 1_555
Na3 O4 2.251102 1_555
Na3 O3 2.258602 1_555
Na3 O1 2.261082 1_555
Na4 O4 2.229164 1_654
Na4 O10 2.229313 1_655
Na4 O2 2.333769 1_554
Na4 O1 2.336191 1_555
Na4 O8 2.544763 1_555
Na4 O7 2.558627 1_655
Na4 Na7 2.867134 1_555
Na5 O11 2.228533 1_555
Na5 O5 2.229674 1_555
Na5 O0 2.333144 1_556
Na5 O3 2.335787 1_555
Na5 O6 2.548492 1_555
Na5 O9 2.554113 1_565
Na5 Na6 2.870385 1_555
Na6 O8 2.241126 1_456
Na6 O6 2.242288 1_455
Na6 O4 2.408534 1_555
Na6 O11 2.412624 1_455
Na6 O0 2.434687 1_556
Na6 O3 2.436104 1_555
Na7 O9 2.241550 1_555
Na7 O7 2.241758 1_555
Na7 O5 2.409855 1_545
Na7 O10 2.415379 1_555
Na7 O1 2.431540 1_555
Na7 O2 2.437807 1_554
Fe0 O8 1.888733 1_555
Fe0 O11 1.888976 1_554
Fe0 O5 1.889973 1_555
Fe0 O7 1.892922 1_565
Fe0 O0 1.916505 1_555
Fe0 O3 1.917010 1_555
Fe1 O6 2.026935 1_455
Fe1 O8 2.028828 1_455
Fe1 O0 2.029591 1_555
Fe1 O3 2.030561 1_555
Fe1 O5 2.055254 1_455
Fe1 O10 2.060883 1_555
Fe2 O10 1.888166 1_555
Fe2 O4 1.889499 1_555
Fe2 O6 1.890444 1_455
Fe2 O9 1.892442 1_555
Fe2 O1 1.917351 1_455
Fe2 O2 1.918929 1_455
Fe3 O9 2.022072 1_555
Fe3 O7 2.024518 1_556
Fe3 O2 2.027259 1_555
Fe3 O1 2.030738 1_555
Fe3 O11 2.058879 1_545
Fe3 O4 2.060465 1_555
