# generated using pymatgen
data_Mn7GeO12
_symmetry_space_group_name_H-M   'P 1'
_cell_length_a   9.69185033
_cell_length_b   9.69185074
_cell_length_c   11.79282724
_cell_angle_alpha   114.26272633
_cell_angle_beta   114.26272512
_cell_angle_gamma   89.99999656
_symmetry_Int_Tables_number   1
_chemical_formula_structural   Mn7GeO12
_chemical_formula_sum   'Mn28 Ge4 O48'
_cell_volume   901.47682900
_cell_formula_units_Z   4
loop_
 _symmetry_equiv_pos_site_id
 _symmetry_equiv_pos_as_xyz
  1  'x, y, z'
loop_
 _atom_site_type_symbol
 _atom_site_label
 _atom_site_symmetry_multiplicity
 _atom_site_fract_x
 _atom_site_fract_y
 _atom_site_fract_z
 _atom_site_occupancy
  Mn  Mn0  1  0.78807500  0.25000000  0.50000000  1
  Mn  Mn1  1  0.87500000  0.62500000  0.75000000  1
  Mn  Mn2  1  0.00000000  0.00000000  0.00000000  1
  Mn  Mn3  1  0.21192500  0.75000000  0.50000000  1
  Mn  Mn4  1  0.62500000  0.87500000  0.25000000  1
  Mn  Mn5  1  0.35609800  0.60609800  0.25000000  1
  Mn  Mn6  1  0.75000000  0.78807500  0.00000000  1
  Mn  Mn7  1  0.25000000  0.71192500  0.00000000  1
  Mn  Mn8  1  0.12500000  0.37500000  0.25000000  1
  Mn  Mn9  1  0.10609800  0.85609800  0.75000000  1
  Mn  Mn10  1  0.14390200  0.35609800  0.75000000  1
  Mn  Mn11  1  0.50000000  0.00000000  0.50000000  1
  Mn  Mn12  1  0.00000000  0.50000000  0.50000000  1
  Mn  Mn13  1  0.71192500  0.75000000  0.50000000  1
  Mn  Mn14  1  0.39390200  0.10609800  0.25000000  1
  Mn  Mn15  1  0.25000000  0.21192500  0.00000000  1
  Mn  Mn16  1  0.60609800  0.89390200  0.75000000  1
  Mn  Mn17  1  0.00000000  0.00000000  0.50000000  1
  Mn  Mn18  1  0.64390200  0.39390200  0.75000000  1
  Mn  Mn19  1  0.00000000  0.50000000  0.00000000  1
  Mn  Mn20  1  0.50000000  0.50000000  0.50000000  1
  Mn  Mn21  1  0.85609800  0.64390200  0.25000000  1
  Mn  Mn22  1  0.28807500  0.25000000  0.50000000  1
  Mn  Mn23  1  0.89390200  0.14390200  0.25000000  1
  Mn  Mn24  1  0.37500000  0.12500000  0.75000000  1
  Mn  Mn25  1  0.75000000  0.28807500  0.00000000  1
  Mn  Mn26  1  0.50000000  0.50000000  0.00000000  1
  Mn  Mn27  1  0.50000000  0.00000000  0.00000000  1
  Ge  Ge0  1  0.12500000  0.87500000  0.25000000  1
  Ge  Ge1  1  0.87500000  0.12500000  0.75000000  1
  Ge  Ge2  1  0.37500000  0.62500000  0.75000000  1
  Ge  Ge3  1  0.62500000  0.37500000  0.25000000  1
  O  O0  1  0.37096500  0.29930500  0.38469100  1
  O  O1  1  0.94370400  0.15605200  0.64446600  1
  O  O2  1  0.08538600  0.51372600  0.88469100  1
  O  O3  1  0.29923800  0.01158600  0.35553400  1
  O  O4  1  0.01158600  0.05629600  0.85553400  1
  O  O5  1  0.91461400  0.48627400  0.11530900  1
  O  O6  1  0.15605200  0.70076200  0.14446600  1
  O  O7  1  0.65605200  0.44370400  0.14446600  1
  O  O8  1  0.87096500  0.08538600  0.38469100  1
  O  O9  1  0.70069500  0.98627400  0.11530900  1
  O  O10  1  0.34394800  0.55629600  0.85553400  1
  O  O11  1  0.70076200  0.98841400  0.64446600  1
  O  O12  1  0.98841400  0.94370400  0.14446600  1
  O  O13  1  0.59218400  0.09417000  0.88774600  1
  O  O14  1  0.20443700  0.40583000  0.11225400  1
  O  O15  1  0.90583000  0.70443700  0.61225400  1
  O  O16  1  0.12903500  0.91461400  0.61530900  1
  O  O17  1  0.98627400  0.41461400  0.61530900  1
  O  O18  1  0.79930500  0.87096500  0.88469100  1
  O  O19  1  0.09417000  0.29556300  0.38774600  1
  O  O20  1  0.40583000  0.90781600  0.61225400  1
  O  O21  1  0.79923800  0.34394800  0.35553400  1
  O  O22  1  0.48627400  0.20069500  0.61530900  1
  O  O23  1  0.79357600  0.79556300  0.38774600  1
  O  O24  1  0.20642400  0.20443700  0.61225400  1
  O  O25  1  0.51372600  0.79930500  0.38469100  1
  O  O26  1  0.70642400  0.40781600  0.61225400  1
  O  O27  1  0.62903500  0.70069500  0.61530900  1
  O  O28  1  0.05629600  0.84394800  0.35553400  1
  O  O29  1  0.59417000  0.09218400  0.38774600  1
  O  O30  1  0.29556300  0.29357600  0.88774600  1
  O  O31  1  0.20076200  0.65605200  0.64446600  1
  O  O32  1  0.48841400  0.20076200  0.14446600  1
  O  O33  1  0.51158600  0.79923800  0.85553400  1
  O  O34  1  0.90781600  0.20642400  0.11225400  1
  O  O35  1  0.40781600  0.90583000  0.11225400  1
  O  O36  1  0.44370400  0.48841400  0.64446600  1
  O  O37  1  0.79556300  0.59417000  0.88774600  1
  O  O38  1  0.55629600  0.51158600  0.35553400  1
  O  O39  1  0.29930500  0.01372600  0.88469100  1
  O  O40  1  0.29357600  0.59218400  0.38774600  1
  O  O41  1  0.70443700  0.70642400  0.11225400  1
  O  O42  1  0.20069500  0.12903500  0.11530900  1
  O  O43  1  0.01372600  0.58538600  0.38469100  1
  O  O44  1  0.84394800  0.29923800  0.85553400  1
  O  O45  1  0.09218400  0.79357600  0.88774600  1
  O  O46  1  0.41461400  0.62903500  0.11530900  1
  O  O47  1  0.58538600  0.37096500  0.88469100  1
loop_
_geom_bond_atom_site_label_1
_geom_bond_atom_site_label_2
_geom_bond_distance
_geom_bond_site_symmetry_2
Mn0 O26 1.978640 1_555
Mn0 O29 1.978640 1_555
Mn0 O8 2.038300 1_555
Mn0 O17 2.038301 1_555
Mn0 O21 2.273673 1_555
Mn0 O1 2.273673 1_555
Mn1 O37 2.178865 1_555
Mn1 O15 2.178866 1_555
Mn1 O45 2.178872 1_655
Mn1 O26 2.178872 1_555
Mn1 O17 2.567047 1_555
Mn1 O2 2.567047 1_655
Mn1 O27 2.567047 1_555
Mn1 O18 2.567047 1_555
Mn2 O42 1.903981 1_555
Mn2 O18 1.903981 1_444
Mn2 O12 2.033206 1_445
Mn2 O4 2.033206 1_554
Mn2 O34 2.312704 1_455
Mn2 O45 2.312704 1_544
Mn3 O40 1.978640 1_555
Mn3 O20 1.978640 1_555
Mn3 O16 2.038300 1_555
Mn3 O43 2.038301 1_555
Mn3 O31 2.273673 1_555
Mn3 O28 2.273673 1_555
Mn4 O41 2.178866 1_555
Mn4 O23 2.178866 1_555
Mn4 O35 2.178872 1_555
Mn4 O29 2.178872 1_565
Mn4 O25 2.567047 1_555
Mn4 O9 2.567047 1_555
Mn4 O8 2.567047 1_565
Mn4 O46 2.567047 1_555
Mn5 O46 1.981049 1_555
Mn5 O25 1.981049 1_555
Mn5 O40 2.003266 1_555
Mn5 O14 2.003270 1_555
Mn5 O6 2.259423 1_555
Mn5 O38 2.259423 1_555
Mn6 O41 1.978645 1_555
Mn6 O37 1.978645 1_554
Mn6 O18 2.038300 1_554
Mn6 O9 2.038301 1_555
Mn6 O33 2.273673 1_554
Mn6 O12 2.273673 1_555
Mn7 O45 1.978640 1_554
Mn7 O35 1.978640 1_555
Mn7 O46 2.038301 1_555
Mn7 O2 2.038301 1_554
Mn7 O6 2.273673 1_555
Mn7 O10 2.273673 1_554
Mn8 O14 2.178865 1_555
Mn8 O19 2.178866 1_555
Mn8 O34 2.178872 1_455
Mn8 O40 2.178872 1_555
Mn8 O43 2.567047 1_555
Mn8 O5 2.567047 1_455
Mn8 O0 2.567047 1_555
Mn8 O42 2.567047 1_555
Mn9 O16 1.981049 1_555
Mn9 O39 1.981049 1_565
Mn9 O45 2.003266 1_555
Mn9 O15 2.003270 1_455
Mn9 O31 2.259423 1_555
Mn9 O4 2.259423 1_565
Mn10 O2 1.981049 1_555
Mn10 O17 1.981049 1_455
Mn10 O24 2.003270 1_555
Mn10 O30 2.003270 1_555
Mn10 O1 2.259424 1_455
Mn10 O10 2.259424 1_555
Mn11 O22 1.903981 1_555
Mn11 O25 1.903981 1_545
Mn11 O3 2.033206 1_555
Mn11 O11 2.033206 1_545
Mn11 O20 2.312703 1_545
Mn11 O29 2.312703 1_555
Mn12 O43 1.903981 1_555
Mn12 O17 1.903981 1_455
Mn12 O31 2.033206 1_555
Mn12 O21 2.033206 1_455
Mn12 O15 2.312697 1_455
Mn12 O19 2.312697 1_555
Mn13 O23 1.978645 1_555
Mn13 O15 1.978645 1_555
Mn13 O27 2.038300 1_555
Mn13 O25 2.038301 1_555
Mn13 O11 2.273673 1_555
Mn13 O38 2.273673 1_555
Mn14 O42 1.981049 1_555
Mn14 O0 1.981049 1_555
Mn14 O29 2.003266 1_555
Mn14 O35 2.003266 1_545
Mn14 O3 2.259423 1_555
Mn14 O32 2.259423 1_555
Mn15 O30 1.978645 1_554
Mn15 O14 1.978645 1_555
Mn15 O42 2.038300 1_555
Mn15 O39 2.038301 1_554
Mn15 O32 2.273673 1_555
Mn15 O4 2.273673 1_554
Mn16 O18 1.981049 1_555
Mn16 O27 1.981049 1_555
Mn16 O20 2.003266 1_555
Mn16 O13 2.003266 1_565
Mn16 O11 2.259423 1_555
Mn16 O33 2.259423 1_555
Mn17 O8 1.903981 1_455
Mn17 O16 1.903981 1_545
Mn17 O1 2.033206 1_455
Mn17 O28 2.033206 1_545
Mn17 O24 2.312698 1_555
Mn17 O23 2.312698 1_445
Mn18 O47 1.981049 1_555
Mn18 O22 1.981049 1_555
Mn18 O26 2.003266 1_555
Mn18 O37 2.003270 1_555
Mn18 O44 2.259423 1_555
Mn18 O36 2.259423 1_555
Mn19 O2 1.903981 1_554
Mn19 O5 1.903981 1_455
Mn19 O6 2.033206 1_555
Mn19 O44 2.033206 1_454
Mn19 O14 2.312697 1_555
Mn19 O37 2.312697 1_454
Mn20 O27 1.903981 1_555
Mn20 O0 1.903981 1_555
Mn20 O36 2.033206 1_555
Mn20 O38 2.033206 1_555
Mn20 O40 2.312704 1_555
Mn20 O26 2.312704 1_555
Mn21 O5 1.981049 1_555
Mn21 O43 1.981049 1_655
Mn21 O23 2.003270 1_555
Mn21 O41 2.003270 1_555
Mn21 O28 2.259424 1_655
Mn21 O7 2.259424 1_555
Mn22 O24 1.978645 1_555
Mn22 O19 1.978645 1_555
Mn22 O0 2.038300 1_555
Mn22 O22 2.038301 1_555
Mn22 O3 2.273673 1_555
Mn22 O36 2.273673 1_555
Mn23 O8 1.981049 1_555
Mn23 O9 1.981049 1_545
Mn23 O34 2.003266 1_555
Mn23 O19 2.003270 1_655
Mn23 O21 2.259423 1_555
Mn23 O12 2.259423 1_545
Mn24 O30 2.178866 1_555
Mn24 O24 2.178866 1_555
Mn24 O13 2.178872 1_555
Mn24 O20 2.178872 1_545
Mn24 O22 2.567047 1_555
Mn24 O39 2.567047 1_555
Mn24 O16 2.567047 1_545
Mn24 O47 2.567047 1_555
Mn25 O34 1.978640 1_555
Mn25 O13 1.978640 1_554
Mn25 O47 2.038301 1_554
Mn25 O5 2.038301 1_555
Mn25 O44 2.273673 1_554
Mn25 O7 2.273673 1_555
Mn26 O47 1.903981 1_554
Mn26 O46 1.903981 1_555
Mn26 O7 2.033206 1_555
Mn26 O10 2.033206 1_554
Mn26 O41 2.312698 1_555
Mn26 O30 2.312698 1_554
Mn27 O39 1.903981 1_554
Mn27 O9 1.903981 1_545
Mn27 O32 2.033206 1_555
Mn27 O33 2.033206 1_544
Mn27 O35 2.312703 1_545
Mn27 O13 2.312703 1_554
Ge0 O28 1.752634 1_555
Ge0 O12 1.752634 1_455
Ge0 O6 1.752634 1_555
Ge0 O3 1.752634 1_565
Ge1 O1 1.752634 1_555
Ge1 O4 1.752634 1_655
Ge1 O44 1.752634 1_555
Ge1 O11 1.752634 1_545
Ge2 O10 1.752634 1_555
Ge2 O36 1.752634 1_555
Ge2 O31 1.752634 1_555
Ge2 O33 1.752634 1_555
Ge3 O7 1.752634 1_555
Ge3 O38 1.752634 1_555
Ge3 O21 1.752634 1_555
Ge3 O32 1.752634 1_555
O0 O42 2.630884 1_555
O8 O9 2.630884 1_545
O16 O39 2.630884 1_565
O17 O2 2.630884 1_655
O18 O27 2.630884 1_555
O22 O47 2.630884 1_555
O25 O46 2.630884 1_555
O43 O5 2.630884 1_455
