# generated using pymatgen
data_ErZn3
_symmetry_space_group_name_H-M   'P 1'
_cell_length_a   4.28645160
_cell_length_b   6.59723735
_cell_length_c   9.93013864
_cell_angle_alpha   90.00000000
_cell_angle_beta   90.00000000
_cell_angle_gamma   90.00000000
_symmetry_Int_Tables_number   1
_chemical_formula_structural   ErZn3
_chemical_formula_sum   'Er4 Zn12'
_cell_volume   280.81179481
_cell_formula_units_Z   4
loop_
 _symmetry_equiv_pos_site_id
 _symmetry_equiv_pos_as_xyz
  1  'x, y, z'
loop_
 _atom_site_type_symbol
 _atom_site_label
 _atom_site_symmetry_multiplicity
 _atom_site_fract_x
 _atom_site_fract_y
 _atom_site_fract_z
 _atom_site_occupancy
  Er  Er0  1  0.75000000  0.22030596  0.83758302  1
  Er  Er1  1  0.75000000  0.72030496  0.66241798  1
  Er  Er2  1  0.25000000  0.77969404  0.16241598  1
  Er  Er3  1  0.25000000  0.27969504  0.33758202  1
  Zn  Zn0  1  0.75000000  0.96312279  0.39690770  1
  Zn  Zn1  1  0.75000000  0.46312279  0.10309130  1
  Zn  Zn2  1  0.25000000  0.03687621  0.60309330  1
  Zn  Zn3  1  0.25000000  0.53687621  0.89690770  1
  Zn  Zn4  1  0.75000000  0.58145386  0.35277029  1
  Zn  Zn5  1  0.75000000  0.08145386  0.14722871  1
  Zn  Zn6  1  0.25000000  0.41854714  0.64723071  1
  Zn  Zn7  1  0.25000000  0.91854614  0.85277029  1
  Zn  Zn8  1  0.75000000  0.28114958  0.54371643  1
  Zn  Zn9  1  0.75000000  0.78114858  0.95628457  1
  Zn  Zn10  1  0.25000000  0.71885042  0.45628457  1
  Zn  Zn11  1  0.25000000  0.21885142  0.04371443  1
loop_
_geom_bond_atom_site_label_1
_geom_bond_atom_site_label_2
_geom_bond_distance
_geom_bond_site_symmetry_2
Er0 Zn7 2.929056 1_545
Er0 Zn7 2.929056 1_645
Er0 Zn8 2.945614 1_555
Er0 Zn11 2.963674 1_656
Er0 Zn11 2.963674 1_556
Er0 Zn3 3.049958 1_655
Er0 Zn3 3.049958 1_555
Er0 Zn1 3.085038 1_556
Er0 Zn9 3.127827 1_545
Er0 Zn6 3.142741 1_655
Er0 Zn6 3.142741 1_555
Er0 Zn5 3.208376 1_556
Er0 Zn2 3.388188 1_555
Er0 Zn2 3.388188 1_655
Er1 Zn6 2.929047 1_555
Er1 Zn6 2.929047 1_655
Er1 Zn9 2.945614 1_555
Er1 Zn10 2.963688 1_555
Er1 Zn10 2.963688 1_655
Er1 Zn2 3.049963 1_665
Er1 Zn2 3.049963 1_565
Er1 Zn0 3.085059 1_555
Er1 Zn8 3.127815 1_555
Er1 Zn7 3.142741 1_555
Er1 Zn7 3.142741 1_655
Er1 Zn4 3.208393 1_555
Er1 Zn3 3.388185 1_555
Er1 Zn3 3.388185 1_655
Er2 Zn5 2.929056 1_465
Er2 Zn5 2.929056 1_565
Er2 Zn10 2.945633 1_555
Er2 Zn9 2.963674 1_554
Er2 Zn9 2.963674 1_454
Er2 Zn1 3.049963 1_555
Er2 Zn1 3.049963 1_455
Er2 Zn3 3.085042 1_554
Er2 Zn11 3.127827 1_565
Er2 Zn4 3.142751 1_455
Er2 Zn4 3.142751 1_555
Er2 Zn7 3.208376 1_554
Er2 Zn0 3.388199 1_455
Er2 Zn0 3.388199 1_555
Er3 Zn4 2.929052 1_455
Er3 Zn4 2.929052 1_555
Er3 Zn11 2.945623 1_555
Er3 Zn8 2.963695 1_455
Er3 Zn8 2.963695 1_555
Er3 Zn0 3.049969 1_545
Er3 Zn0 3.049969 1_445
Er3 Zn2 3.085070 1_555
Er3 Zn10 3.127819 1_555
Er3 Zn5 3.142747 1_555
Er3 Zn5 3.142747 1_455
Er3 Zn6 3.208405 1_555
Er3 Zn1 3.388190 1_555
Er3 Zn1 3.388190 1_455
Zn0 Zn8 2.554856 1_565
Zn0 Zn4 2.555822 1_555
Zn0 Zn5 2.599344 1_565
Zn0 Zn10 2.745555 1_655
Zn0 Zn10 2.745555 1_555
Zn0 Zn2 3.003702 1_565
Zn0 Zn2 3.003702 1_665
Zn1 Zn9 2.554839 1_554
Zn1 Zn5 2.555822 1_555
Zn1 Zn4 2.599344 1_555
Zn1 Zn11 2.745552 1_555
Zn1 Zn11 2.745552 1_655
Zn1 Zn3 3.003688 1_654
Zn1 Zn3 3.003688 1_554
Zn2 Zn6 2.555835 1_555
Zn2 Zn7 2.599323 1_545
Zn2 Zn8 2.745559 1_555
Zn2 Zn8 2.745559 1_455
Zn3 Zn7 2.555828 1_555
Zn3 Zn6 2.599321 1_555
Zn3 Zn9 2.745555 1_455
Zn3 Zn9 2.745555 1_555
Zn4 Zn8 2.742325 1_555
Zn5 Zn9 2.742316 1_544
Zn6 Zn8 2.543946 1_455
Zn6 Zn8 2.543946 1_555
Zn7 Zn9 2.543946 1_455
Zn7 Zn9 2.543946 1_555
Zn10 Zn4 2.543943 1_455
Zn10 Zn4 2.543943 1_555
Zn10 Zn2 2.554850 1_565
Zn10 Zn6 2.742320 1_555
Zn11 Zn5 2.543946 1_455
Zn11 Zn5 2.543946 1_555
Zn11 Zn3 2.554833 1_554
Zn11 Zn7 2.742316 1_544
