# generated using pymatgen
data_Li5Fe3(CoO5)2
_symmetry_space_group_name_H-M   'P 1'
_cell_length_a   5.06787000
_cell_length_b   5.18634902
_cell_length_c   7.91874959
_cell_angle_alpha   107.83241005
_cell_angle_beta   100.98262989
_cell_angle_gamma   101.44069854
_symmetry_Int_Tables_number   1
_chemical_formula_structural   Li5Fe3(CoO5)2
_chemical_formula_sum   'Li5 Fe3 Co2 O10'
_cell_volume   187.02443458
_cell_formula_units_Z   1
loop_
 _symmetry_equiv_pos_site_id
 _symmetry_equiv_pos_as_xyz
  1  'x, y, z'
loop_
 _atom_site_type_symbol
 _atom_site_label
 _atom_site_symmetry_multiplicity
 _atom_site_fract_x
 _atom_site_fract_y
 _atom_site_fract_z
 _atom_site_occupancy
  Li  Li0  1  0.80032100  0.49957000  0.41311500  1
  Li  Li1  1  0.60579100  0.51330500  0.77244500  1
  Li  Li2  1  0.00000000  0.00000000  0.50000000  1
  Li  Li3  1  0.39420900  0.48669500  0.22755500  1
  Li  Li4  1  0.19967900  0.50043000  0.58688500  1
  Fe  Fe0  1  0.00000000  0.50000000  0.00000000  1
  Fe  Fe1  1  0.79891300  0.00095800  0.89256100  1
  Fe  Fe2  1  0.20108700  0.99904200  0.10743900  1
  Co  Co0  1  0.41653500  0.00893700  0.68267800  1
  Co  Co1  1  0.58346500  0.99106300  0.31732200  1
  O  O0  1  0.18464600  0.24855100  0.86372000  1
  O  O1  1  0.39267900  0.76590500  0.94877300  1
  O  O2  1  0.58914600  0.76803300  0.54581900  1
  O  O3  1  0.99227400  0.23886400  0.23495900  1
  O  O4  1  0.77927100  0.23366600  0.66382600  1
  O  O5  1  0.22072900  0.76633400  0.33617400  1
  O  O6  1  0.00772600  0.76113600  0.76504100  1
  O  O7  1  0.41085400  0.23196700  0.45418100  1
  O  O8  1  0.60732100  0.23409500  0.05122700  1
  O  O9  1  0.81535400  0.75144900  0.13628000  1
loop_
_geom_bond_atom_site_label_1
_geom_bond_atom_site_label_2
_geom_bond_distance
_geom_bond_site_symmetry_2
Li0 O2 2.076478 1_555
Li0 O3 2.154351 1_555
Li0 Li4 2.218374 1_655
Li0 Li3 2.265517 1_555
Li0 O7 2.315597 1_555
Li0 Li2 2.415089 1_665
Li0 O5 2.581904 1_655
Li0 O6 2.591183 1_655
Li0 O8 2.654397 1_555
Li0 O4 2.748438 1_555
Li1 O4 1.909474 1_555
Li1 O1 2.201801 1_555
Li1 O6 2.204025 1_655
Li1 Li4 2.265517 1_555
Li1 O7 2.384094 1_555
Li1 O2 2.532116 1_555
Li1 O0 2.645021 1_555
Li1 O9 2.662432 1_556
Li2 O5 2.128560 1_545
Li2 O4 2.128560 1_455
Li2 O2 2.340049 1_445
Li2 O7 2.340049 1_555
Li2 Li4 2.415089 1_555
Li2 O0 2.655847 1_555
Li2 O9 2.655847 1_445
Li2 O3 2.742545 1_455
Li2 O6 2.742545 1_545
Li3 O5 1.909474 1_555
Li3 O8 2.201801 1_555
Li3 O3 2.204025 1_455
Li3 O2 2.384094 1_555
Li3 O7 2.532116 1_555
Li3 O9 2.645021 1_555
Li3 O0 2.662432 1_554
Li4 O7 2.076478 1_555
Li4 O6 2.154351 1_555
Li4 O2 2.315597 1_555
Li4 O4 2.581904 1_455
Li4 O3 2.591183 1_455
Li4 O1 2.654397 1_555
Li4 O5 2.748438 1_555
Fe0 O0 1.935941 1_554
Fe0 O9 1.935941 1_455
Fe0 O8 2.363932 1_455
Fe0 O1 2.363932 1_554
Fe0 Fe1 2.394955 1_454
Fe0 Fe2 2.394955 1_555
Fe0 Li3 2.449935 1_555
Fe0 Li1 2.449935 1_454
Fe0 O5 2.499248 1_555
Fe0 O4 2.499248 1_454
Fe0 O6 2.616791 1_554
Fe0 O3 2.616791 1_455
Fe1 O6 1.961293 1_645
Fe1 O8 1.995874 1_556
Fe1 O0 2.208258 1_655
Fe1 Li1 2.334330 1_545
Fe1 O1 2.368241 1_545
Fe1 Fe2 2.397190 1_646
Fe1 O4 2.462757 1_555
Fe1 O3 2.508621 1_556
Fe1 O2 2.544699 1_545
Fe1 O9 2.630074 1_546
Fe2 O3 1.961293 1_465
Fe2 O1 1.995874 1_554
Fe2 O9 2.208258 1_455
Fe2 Li3 2.334330 1_565
Fe2 O8 2.368241 1_565
Fe2 O5 2.462757 1_555
Fe2 O6 2.508621 1_554
Fe2 O7 2.544699 1_565
Fe2 O0 2.630074 1_564
Co0 O2 1.861790 1_545
Co0 O4 2.030080 1_555
Co0 O0 2.260713 1_555
Co0 Li2 2.303789 1_555
Co0 Fe1 2.316462 1_555
Co0 Li1 2.423603 1_555
Co0 O7 2.426523 1_555
Co0 Li4 2.458823 1_545
Co0 O6 2.518202 1_545
Co0 O8 2.684297 1_556
Co0 O1 2.776090 1_545
Co1 O7 1.861790 1_565
Co1 O5 2.030080 1_555
Co1 O9 2.260713 1_555
Co1 Li2 2.303789 1_665
Co1 Fe2 2.316462 1_555
Co1 Li3 2.423603 1_555
Co1 O2 2.426523 1_555
Co1 Li0 2.458823 1_565
Co1 O3 2.518202 1_565
Co1 O1 2.684297 1_554
Co1 O8 2.776090 1_565
O0 O4 2.314144 1_455
O0 O6 2.329995 1_545
O0 O8 2.391394 1_556
O0 O1 2.502995 1_555
O1 O6 2.191056 1_555
O1 O8 2.268689 1_566
O1 O9 2.391394 1_556
O2 O4 2.232764 1_565
O2 O5 2.246244 1_555
O2 O6 2.485923 1_655
O2 O7 2.567218 1_555
O3 O8 2.191056 1_555
O3 O9 2.329995 1_545
O3 O7 2.485923 1_655
O3 O5 2.552184 1_655
O4 O7 2.246244 1_555
O4 O6 2.552184 1_655
O5 O7 2.232764 1_565
O5 O9 2.314144 1_455
O8 O9 2.502995 1_555
