# generated using pymatgen
data_TiO2
_symmetry_space_group_name_H-M   'P 1'
_cell_length_a   10.36447685
_cell_length_b   10.63076324
_cell_length_c   10.32659793
_cell_angle_alpha   93.99498590
_cell_angle_beta   88.82900312
_cell_angle_gamma   91.78792514
_symmetry_Int_Tables_number   1
_chemical_formula_structural   TiO2
_chemical_formula_sum   'Ti30 O60'
_cell_volume   1134.30070311
_cell_formula_units_Z   30
loop_
 _symmetry_equiv_pos_site_id
 _symmetry_equiv_pos_as_xyz
  1  'x, y, z'
loop_
 _atom_site_type_symbol
 _atom_site_label
 _atom_site_symmetry_multiplicity
 _atom_site_fract_x
 _atom_site_fract_y
 _atom_site_fract_z
 _atom_site_occupancy
  Ti  Ti0  1  0.23217200  0.16974800  0.30039400  1
  Ti  Ti1  1  0.78405200  0.06317400  0.49136600  1
  Ti  Ti2  1  0.49023700  0.73539400  0.58075000  1
  Ti  Ti3  1  0.80723600  0.76191200  0.22731100  1
  Ti  Ti4  1  0.32525600  0.47328600  0.14483600  1
  Ti  Ti5  1  0.50817000  0.24736900  0.24365500  1
  Ti  Ti6  1  0.03371400  0.56540000  0.30991000  1
  Ti  Ti7  1  0.58789900  0.57756100  0.99493300  1
  Ti  Ti8  1  0.74897300  0.46054900  0.71804700  1
  Ti  Ti9  1  0.54102600  0.25489200  0.50800300  1
  Ti  Ti10  1  0.40302300  0.03953800  0.99614400  1
  Ti  Ti11  1  0.00746600  0.34101700  0.55381100  1
  Ti  Ti12  1  0.09188800  0.44202500  0.80688300  1
  Ti  Ti13  1  0.06531700  0.88821900  0.68455400  1
  Ti  Ti14  1  0.11919800  0.20499400  0.00472100  1
  Ti  Ti15  1  0.32454000  0.68686200  0.89165700  1
  Ti  Ti16  1  0.83501900  0.31120200  0.31371100  1
  Ti  Ti17  1  0.22876300  0.16496900  0.59990900  1
  Ti  Ti18  1  0.54821600  0.17622400  0.76229800  1
  Ti  Ti19  1  0.58070000  0.52661400  0.32457600  1
  Ti  Ti20  1  0.90082800  0.06707900  0.15674000  1
  Ti  Ti21  1  0.78993500  0.73076500  0.52735600  1
  Ti  Ti22  1  0.85403200  0.06125100  0.81897600  1
  Ti  Ti23  1  0.28001200  0.87823200  0.42610100  1
  Ti  Ti24  1  0.01297100  0.77795200  0.93981100  1
  Ti  Ti25  1  0.65827700  0.27766400  0.00492900  1
  Ti  Ti26  1  0.21237100  0.87351700  0.12431400  1
  Ti  Ti27  1  0.20253000  0.63406200  0.61194100  1
  Ti  Ti28  1  0.87549600  0.53752600  0.05097900  1
  Ti  Ti29  1  0.68689600  0.78021700  0.84694900  1
  O  O0  1  0.97824600  0.92321200  0.84260800  1
  O  O1  1  0.21783800  0.79853800  0.27665200  1
  O  O2  1  0.80395400  0.91596400  0.15670000  1
  O  O3  1  0.64998400  0.20808400  0.35608300  1
  O  O4  1  0.40951800  0.75279300  0.75578000  1
  O  O5  1  0.40406400  0.20658000  0.64083600  1
  O  O6  1  0.79264600  0.21037800  0.13759100  1
  O  O7  1  0.24365700  0.55371200  0.78941300  1
  O  O8  1  0.70411300  0.62356400  0.15328800  1
  O  O9  1  0.53505900  0.13906400  0.09701600  1
  O  O10  1  0.48735700  0.03745000  0.83561600  1
  O  O11  1  0.14818300  0.24978300  0.45448500  1
  O  O12  1  0.63961500  0.58081000  0.82096900  1
  O  O13  1  0.22038100  0.03793100  0.43732800  1
  O  O14  1  0.61129300  0.66177000  0.44340400  1
  O  O15  1  0.25599600  0.11148600  0.95010500  1
  O  O16  1  0.90836700  0.38161700  0.73350900  1
  O  O17  1  0.05043700  0.92215600  0.07808200  1
  O  O18  1  0.76279700  0.89563300  0.43361400  1
  O  O19  1  0.73255800  0.94874300  0.86847200  1
  O  O20  1  0.50667500  0.39949000  0.41315500  1
  O  O21  1  0.40762600  0.18111100  0.38186000  1
  O  O22  1  0.93018800  0.80197200  0.60035400  1
  O  O23  1  0.17855900  0.72389500  0.00653000  1
  O  O24  1  0.63211500  0.11271300  0.58524200  1
  O  O25  1  0.99764400  0.55229600  0.91691000  1
  O  O26  1  0.44569400  0.86066600  0.48130100  1
  O  O27  1  0.12241100  0.27922000  0.69345400  1
  O  O28  1  0.32274600  0.30256400  0.20327700  1
  O  O29  1  0.57835300  0.74731600  0.98816400  1
  O  O30  1  0.92728700  0.43326200  0.16029500  1
  O  O31  1  0.96042800  0.14296200  0.95198400  1
  O  O32  1  0.15838300  0.35942200  0.95037200  1
  O  O33  1  0.08128900  0.49975800  0.62544800  1
  O  O34  1  0.12002200  0.75180500  0.77596700  1
  O  O35  1  0.88119200  0.67837900  0.36327600  1
  O  O36  1  0.73558200  0.43805900  0.96738900  1
  O  O37  1  0.08527400  0.17685300  0.18151300  1
  O  O38  1  0.51534700  0.29139300  0.90107100  1
  O  O39  1  0.89033000  0.09300300  0.32785500  1
  O  O40  1  0.73911500  0.44198700  0.33223000  1
  O  O41  1  0.17148400  0.03473900  0.68678400  1
  O  O42  1  0.94790000  0.69701700  0.13160700  1
  O  O43  1  0.61958300  0.35098500  0.65159600  1
  O  O44  1  0.98731700  0.41546400  0.38825100  1
  O  O45  1  0.72235500  0.18803000  0.84958800  1
  O  O46  1  0.88536000  0.05306700  0.64032800  1
  O  O47  1  0.36179100  0.87121200  0.00196100  1
  O  O48  1  0.83926900  0.72765200  0.90720600  1
  O  O49  1  0.42761300  0.57503800  0.24732900  1
  O  O50  1  0.19526900  0.81142100  0.56133100  1
  O  O51  1  0.79364900  0.56726300  0.60018800  1
  O  O52  1  0.13237900  0.61526600  0.43710000  1
  O  O53  1  0.40420400  0.55541500  0.98862600  1
  O  O54  1  0.56565700  0.38722100  0.14781000  1
  O  O55  1  0.65677400  0.78023500  0.66329900  1
  O  O56  1  0.85393400  0.26120800  0.49695100  1
  O  O57  1  0.29444600  0.03035100  0.18644900  1
  O  O58  1  0.36572900  0.60605000  0.55138100  1
  O  O59  1  0.17242900  0.52534200  0.18891800  1
loop_
_geom_bond_atom_site_label_1
_geom_bond_atom_site_label_2
_geom_bond_distance
_geom_bond_site_symmetry_2
O0 Ti13 1.868926 1_655
O0 Ti24 1.946062 1_655
O0 Ti22 2.012723 1_565
O0 O34 2.429858 1_655
O0 O31 2.533374 1_565
O0 O17 2.559600 1_656
O0 O19 2.575757 1_555
O0 O48 2.609398 1_555
O1 Ti26 1.815071 1_555
O1 Ti23 1.827344 1_555
O2 Ti3 1.840043 1_555
O2 Ti20 1.867653 1_565
O3 Ti9 1.959076 1_555
O3 Ti5 1.964266 1_555
O3 Ti16 2.229896 1_555
O3 Ti1 2.601619 1_555
O3 O56 2.615353 1_555
O3 O40 2.651376 1_555
O3 O6 2.673342 1_555
O4 Ti15 1.812127 1_555
O4 Ti2 1.975430 1_555
O5 Ti17 1.905419 1_555
O5 Ti18 2.018088 1_555
O5 Ti9 2.033113 1_555
O6 Ti20 1.942834 1_555
O6 Ti16 2.093108 1_555
O6 Ti25 2.145835 1_555
O7 Ti15 1.890776 1_555
O7 Ti12 1.954053 1_555
O7 Ti27 2.131390 1_555
O8 Ti3 1.915314 1_555
O8 Ti7 2.072776 1_554
O8 Ti28 2.235629 1_555
O8 Ti19 2.430305 1_555
O9 Ti5 1.859085 1_555
O9 Ti10 1.972715 1_554
O9 Ti25 2.175870 1_555
O10 Ti18 1.795994 1_555
O10 Ti10 1.857246 1_555
O11 Ti0 1.953120 1_555
O11 Ti11 2.002086 1_555
O11 Ti17 2.013103 1_555
O11 O13 2.389069 1_555
O11 O27 2.475818 1_555
O11 O44 2.597620 1_455
O12 Ti7 1.866518 1_555
O12 Ti8 1.975000 1_555
O12 Ti29 2.160366 1_555
O12 O36 2.460462 1_555
O13 Ti23 1.820110 1_545
O13 Ti0 2.058288 1_555
O13 Ti17 2.081554 1_555
O13 O21 2.510567 1_555
O13 O57 2.683491 1_555
O14 Ti19 1.847301 1_555
O14 Ti2 2.008059 1_555
O14 Ti21 2.147089 1_555
O15 Ti10 1.812787 1_555
O15 Ti14 1.814846 1_556
O15 O57 2.685882 1_556
O16 Ti8 1.890706 1_555
O16 Ti12 2.125884 1_655
O16 Ti11 2.126713 1_655
O16 O33 2.451086 1_655
O16 O27 2.515559 1_655
O17 Ti26 1.852967 1_555
O17 Ti24 2.054312 1_554
O17 Ti20 2.315383 1_465
O18 Ti1 1.846445 1_565
O18 Ti21 2.089586 1_555
O18 Ti3 2.519993 1_555
O19 Ti22 1.800502 1_565
O19 Ti29 1.838198 1_555
O19 O45 2.570388 1_565
O20 Ti19 1.824984 1_555
O20 Ti9 1.925417 1_555
O20 Ti5 2.298967 1_555
O20 O21 2.511605 1_555
O20 O40 2.570743 1_555
O21 Ti5 1.911133 1_555
O21 Ti0 2.015908 1_555
O21 Ti9 2.021698 1_555
O21 O3 2.530050 1_555
O21 O5 2.668795 1_555
O22 Ti21 1.775100 1_555
O22 Ti13 1.848448 1_655
O23 Ti15 1.936525 1_554
O23 Ti26 1.960938 1_555
O23 Ti24 1.978745 1_554
O23 O47 2.425389 1_555
O23 O34 2.508718 1_554
O23 O25 2.706013 1_454
O23 O42 2.710677 1_455
O24 Ti1 1.901360 1_555
O24 Ti9 2.024808 1_555
O24 Ti18 2.086778 1_555
O24 O43 2.584104 1_555
O24 O3 2.639490 1_555
O25 Ti12 1.860050 1_655
O25 Ti28 1.868270 1_556
O25 Ti24 2.394696 1_655
O25 O48 2.530474 1_555
O26 Ti2 1.813735 1_555
O26 Ti23 1.839417 1_555
O27 Ti17 1.870806 1_555
O27 Ti11 2.044850 1_555
O27 Ti12 2.050394 1_555
O28 Ti4 1.951357 1_555
O28 Ti0 1.989150 1_555
O28 Ti5 2.085370 1_555
O29 Ti7 1.816686 1_555
O29 Ti29 1.869213 1_555
O29 O8 2.616814 1_556
O30 Ti28 1.739906 1_555
O30 Ti6 2.290770 1_655
O30 Ti16 2.292434 1_555
O30 O44 2.468509 1_555
O30 O6 2.710382 1_555
O31 Ti14 1.832545 1_656
O31 Ti22 1.921726 1_555
O31 Ti20 2.378309 1_556
O31 O6 2.638464 1_556
O32 Ti14 1.803478 1_556
O32 Ti12 1.924187 1_555
O33 Ti27 1.882979 1_555
O33 Ti11 1.936257 1_555
O33 Ti12 2.017920 1_555
O33 O52 2.412746 1_555
O33 O7 2.439024 1_555
O34 Ti13 1.891971 1_555
O34 Ti24 2.011964 1_555
O34 Ti27 2.208906 1_555
O34 O50 2.452921 1_555
O34 O7 2.512455 1_555
O34 Ti15 2.589766 1_555
O35 Ti3 1.899392 1_555
O35 Ti21 1.977770 1_555
O35 Ti6 2.058114 1_655
O35 O42 2.496103 1_555
O36 Ti25 1.921937 1_556
O36 Ti28 1.947927 1_556
O36 Ti7 2.165229 1_555
O36 Ti8 2.602960 1_555
O36 O54 2.609965 1_556
O37 Ti14 1.894587 1_555
O37 Ti0 1.981756 1_555
O37 Ti20 2.218336 1_455
O37 O57 2.711917 1_555
O38 Ti18 1.852104 1_555
O38 Ti25 1.861808 1_556
O39 Ti20 1.770978 1_555
O39 Ti1 2.035131 1_555
O39 Ti16 2.421616 1_555
O39 O56 2.443160 1_555
O40 Ti16 1.731784 1_555
O40 Ti19 1.902314 1_555
O40 O54 2.667966 1_555
O41 Ti17 1.781562 1_555
O41 Ti13 1.877924 1_545
O42 Ti3 1.867361 1_555
O42 Ti28 1.969920 1_555
O42 Ti24 2.294463 1_654
O42 Ti6 2.577326 1_655
O43 Ti8 1.858694 1_555
O43 Ti9 1.921361 1_555
O43 Ti18 2.341192 1_555
O44 Ti6 1.882098 1_655
O44 Ti11 1.950997 1_655
O44 Ti16 2.033288 1_555
O44 O56 2.431440 1_555
O44 O52 2.590166 1_655
O45 Ti25 1.924913 1_556
O45 Ti22 1.953647 1_555
O45 Ti18 2.030371 1_555
O46 Ti22 1.863142 1_555
O46 Ti1 1.891142 1_555
O47 Ti10 1.831534 1_564
O47 Ti26 1.978240 1_555
O47 Ti15 2.224182 1_554
O47 O57 2.559112 1_565
O48 Ti29 1.826808 1_555
O48 Ti24 1.892117 1_655
O49 Ti4 1.797364 1_555
O49 Ti19 1.891760 1_555
O49 O54 2.630973 1_555
O49 O53 2.680502 1_554
O50 Ti23 1.809740 1_555
O50 Ti13 1.988377 1_555
O50 Ti27 1.995378 1_555
O50 O52 2.448602 1_555
O51 Ti8 1.766141 1_555
O51 Ti21 1.943149 1_555
O52 Ti6 1.725089 1_555
O52 Ti27 1.955190 1_555
O53 Ti7 1.912976 1_555
O53 Ti15 1.984415 1_555
O53 Ti4 2.032658 1_556
O53 O7 2.670966 1_555
O54 Ti5 1.915894 1_555
O54 Ti25 2.056074 1_555
O54 Ti19 2.274327 1_555
O54 Ti7 2.653478 1_554
O54 Ti4 2.682456 1_555
O55 Ti29 1.928304 1_555
O55 Ti2 1.971141 1_555
O55 Ti21 2.003831 1_555
O56 Ti11 1.865824 1_655
O56 Ti16 2.015759 1_555
O56 Ti1 2.202192 1_555
O57 Ti26 1.923501 1_545
O57 Ti0 1.944948 1_555
O57 Ti10 2.251101 1_554
O58 Ti27 1.817444 1_555
O58 Ti2 1.869526 1_555
O59 Ti4 1.735673 1_555
O59 Ti6 1.923561 1_555
