# generated using pymatgen
data_Li5Mn2CoO8
_symmetry_space_group_name_H-M   'P 1'
_cell_length_a   2.88821100
_cell_length_b   10.48982869
_cell_length_c   9.76685749
_cell_angle_alpha   73.25190896
_cell_angle_beta   89.62185165
_cell_angle_gamma   98.14048910
_symmetry_Int_Tables_number   1
_chemical_formula_structural   Li5Mn2CoO8
_chemical_formula_sum   'Li10 Mn4 Co2 O16'
_cell_volume   280.14684073
_cell_formula_units_Z   2
loop_
 _symmetry_equiv_pos_site_id
 _symmetry_equiv_pos_as_xyz
  1  'x, y, z'
loop_
 _atom_site_type_symbol
 _atom_site_label
 _atom_site_symmetry_multiplicity
 _atom_site_fract_x
 _atom_site_fract_y
 _atom_site_fract_z
 _atom_site_occupancy
  Li  Li0  1  0.62564000  0.25255700  0.87341300  1
  Li  Li1  1  0.12436100  0.24744400  0.37658500  1
  Li  Li2  1  0.56702900  0.13950500  0.18523100  1
  Li  Li3  1  0.06907300  0.14213600  0.68546200  1
  Li  Li4  1  0.18296600  0.36049800  0.06477200  1
  Li  Li5  1  0.68093400  0.35786100  0.56453600  1
  Li  Li6  1  0.81095400  0.62408900  0.93171700  1
  Li  Li7  1  0.31508500  0.62415900  0.43467700  1
  Li  Li8  1  0.43491800  0.87584500  0.81532100  1
  Li  Li9  1  0.93904800  0.87590700  0.31828300  1
  Mn  Mn0  1  0.50401500  0.00494300  0.50490800  1
  Mn  Mn1  1  0.24599700  0.49505900  0.74508300  1
  Mn  Mn2  1  0.00057400  0.01123600  0.00285600  1
  Mn  Mn3  1  0.74941200  0.48876100  0.24715400  1
  Co  Co0  1  0.87500600  0.75000100  0.62499600  1
  Co  Co1  1  0.37499800  0.75000000  0.12500100  1
  O  O0  1  0.08622600  0.17402600  0.03453600  1
  O  O1  1  0.58515800  0.16806600  0.53858500  1
  O  O2  1  0.66376300  0.32597700  0.21546900  1
  O  O3  1  0.16485200  0.33193400  0.71141200  1
  O  O4  1  0.72022800  0.44939100  0.88107500  1
  O  O5  1  0.22498700  0.44559500  0.38341600  1
  O  O6  1  0.02978700  0.05061200  0.36891800  1
  O  O7  1  0.52499300  0.05440300  0.86659200  1
  O  O8  1  0.34067600  0.68755100  0.76268400  1
  O  O9  1  0.86448500  0.68392700  0.26982800  1
  O  O10  1  0.88550100  0.81607000  0.98017800  1
  O  O11  1  0.40933600  0.81245100  0.48731000  1
  O  O12  1  0.96380500  0.93052800  0.64538000  1
  O  O13  1  0.46304100  0.94123000  0.14463700  1
  O  O14  1  0.28694100  0.55876600  0.10537200  1
  O  O15  1  0.78620900  0.56947400  0.60461300  1
loop_
_geom_bond_atom_site_label_1
_geom_bond_atom_site_label_2
_geom_bond_distance
_geom_bond_site_symmetry_2
Li0 O4 2.067129 1_555
Li0 O7 2.078092 1_555
Li0 O0 2.106957 1_556
Li0 O3 2.112607 1_655
Li0 O0 2.124971 1_656
Li0 O3 2.133143 1_555
Li1 O6 2.067124 1_555
Li1 O5 2.078093 1_555
Li1 O2 2.106892 1_555
Li1 O1 2.112584 1_455
Li1 O2 2.124957 1_455
Li1 O1 2.133157 1_555
Li2 O0 2.013937 1_655
Li2 O0 2.021874 1_555
Li2 O2 2.042229 1_555
Li2 O13 2.207527 1_545
Li2 O6 2.255023 1_555
Li2 O6 2.301067 1_655
Li3 O1 1.996423 1_555
Li3 O1 1.998630 1_455
Li3 O3 2.059225 1_555
Li3 O7 2.249746 1_455
Li3 O7 2.268513 1_555
Li3 O12 2.341828 1_445
Li4 O2 2.013963 1_455
Li4 O2 2.021875 1_555
Li4 O0 2.042221 1_555
Li4 O14 2.207482 1_555
Li4 O4 2.255125 1_554
Li4 O4 2.301095 1_454
Li5 O3 1.996416 1_555
Li5 O3 1.998629 1_655
Li5 O1 2.059198 1_555
Li5 O5 2.249633 1_655
Li5 O5 2.268501 1_555
Li5 O15 2.341857 1_555
Li6 O4 2.014859 1_555
Li6 O8 2.134073 1_655
Li6 O14 2.153914 1_556
Li6 O8 2.160058 1_555
Li6 O10 2.180334 1_555
Li6 O14 2.205417 1_656
Li7 O5 2.056953 1_555
Li7 O9 2.087112 1_455
Li7 O15 2.141668 1_455
Li7 O9 2.146161 1_555
Li7 O15 2.153478 1_555
Li7 O11 2.162020 1_555
Li8 O7 2.056942 1_565
Li8 O10 2.087145 1_555
Li8 O12 2.141724 1_555
Li8 O10 2.146244 1_455
Li8 O12 2.153487 1_455
Li8 O8 2.162060 1_555
Li9 O6 2.014895 1_665
Li9 O11 2.134015 1_555
Li9 O13 2.153816 1_655
Li9 O11 2.160027 1_655
Li9 O9 2.180294 1_555
Li9 O13 2.205396 1_555
Mn0 O1 1.817390 1_555
Mn0 O6 1.923594 1_655
Mn0 O6 1.926843 1_555
Mn0 O12 1.983832 1_445
Mn0 O12 1.988854 1_545
Mn0 O11 2.055672 1_545
Mn1 O3 1.817383 1_555
Mn1 O4 1.923600 1_455
Mn1 O4 1.926860 1_555
Mn1 O15 1.983825 1_555
Mn1 O15 1.988838 1_455
Mn1 O8 2.055682 1_555
Mn2 O0 1.805230 1_555
Mn2 O7 1.924113 1_554
Mn2 O7 1.927676 1_454
Mn2 O13 1.982368 1_445
Mn2 O13 1.989234 1_545
Mn2 O10 2.102474 1_444
Mn3 O2 1.805190 1_555
Mn3 O5 1.924115 1_555
Mn3 O5 1.927649 1_655
Mn3 O14 1.982365 1_655
Mn3 O14 1.989245 1_555
Mn3 O9 2.102459 1_555
Co0 O15 1.942138 1_555
Co0 O12 1.942142 1_555
Co0 O11 1.948782 1_655
Co0 O8 1.948794 1_555
Co0 O11 1.952461 1_555
Co0 O8 1.952472 1_655
Co1 O10 1.942450 1_554
Co1 O9 1.942496 1_455
Co1 O13 2.050186 1_555
Co1 O14 2.050201 1_555
Co1 O10 2.053947 1_454
Co1 O9 2.053957 1_555
