# generated using pymatgen
data_K2V2CoO7
_symmetry_space_group_name_H-M   'P 1'
_cell_length_a   5.71287500
_cell_length_b   8.58614000
_cell_length_c   8.58613400
_cell_angle_alpha   90.00022684
_cell_angle_beta   90.00320957
_cell_angle_gamma   90.00314276
_symmetry_Int_Tables_number   1
_chemical_formula_structural   K2V2CoO7
_chemical_formula_sum   'K4 V4 Co2 O14'
_cell_volume   421.16313379
_cell_formula_units_Z   2
loop_
 _symmetry_equiv_pos_site_id
 _symmetry_equiv_pos_as_xyz
  1  'x, y, z'
loop_
 _atom_site_type_symbol
 _atom_site_label
 _atom_site_symmetry_multiplicity
 _atom_site_fract_x
 _atom_site_fract_y
 _atom_site_fract_z
 _atom_site_occupancy
  K  K0  1  0.50883400  0.16222100  0.66222200  1
  K  K1  1  0.49111500  0.33775900  0.16222600  1
  K  K2  1  0.50892700  0.83775700  0.33775700  1
  K  K3  1  0.49111100  0.66222400  0.83775700  1
  V  V0  1  0.95033100  0.64241000  0.14240900  1
  V  V1  1  0.04977000  0.14238100  0.35765300  1
  V  V2  1  0.95014600  0.35768400  0.85768300  1
  V  V3  1  0.04977200  0.85765300  0.64238000  1
  Co  Co0  1  0.99999100  0.49998500  0.50004400  1
  Co  Co1  1  0.99999400  0.00004400  0.99998300  1
  O  O0  1  0.15673100  0.99990900  0.49991000  1
  O  O1  1  0.84328500  0.49997300  0.99997500  1
  O  O2  1  0.75563300  0.14503700  0.35492500  1
  O  O3  1  0.24424900  0.35491000  0.85491000  1
  O  O4  1  0.75563600  0.85492400  0.64503800  1
  O  O5  1  0.24449300  0.64502900  0.14502800  1
  O  O6  1  0.16880700  0.32170500  0.41080700  1
  O  O7  1  0.83108300  0.17827300  0.91072600  1
  O  O8  1  0.16878600  0.67823100  0.58934700  1
  O  O9  1  0.83131500  0.82174200  0.08926800  1
  O  O10  1  0.83131600  0.58927300  0.32174200  1
  O  O11  1  0.16881000  0.91080500  0.82170600  1
  O  O12  1  0.83108200  0.41072700  0.67827300  1
  O  O13  1  0.16878300  0.08934700  0.17823100  1
loop_
_geom_bond_atom_site_label_1
_geom_bond_atom_site_label_2
_geom_bond_distance
_geom_bond_site_symmetry_2
K0 O3 2.785623 1_555
K0 O0 2.816026 1_545
K0 O7 2.821403 1_555
K0 O12 2.821415 1_555
K0 O2 2.995290 1_555
K0 O4 2.995298 1_545
K0 O11 3.210654 1_545
K0 O6 3.210656 1_555
K1 O2 2.785547 1_555
K1 O1 2.815741 1_554
K1 O13 2.821109 1_555
K1 O6 2.822281 1_555
K1 O5 2.994609 1_555
K1 O3 2.995461 1_554
K1 O7 3.211089 1_554
K1 O10 3.211849 1_555
K2 O5 2.785364 1_555
K2 O0 2.815272 1_555
K2 O10 2.821945 1_555
K2 O9 2.821974 1_555
K2 O2 2.994760 1_565
K2 O4 2.994773 1_555
K2 O8 3.212270 1_555
K2 O13 3.212278 1_565
K3 O4 2.785561 1_555
K3 O1 2.815772 1_555
K3 O8 2.821068 1_555
K3 O11 2.822253 1_555
K3 O5 2.994604 1_556
K3 O3 2.995440 1_555
K3 O12 3.211075 1_555
K3 O9 3.211848 1_556
Co0 O8 1.964644 1_655
Co0 O10 1.964676 1_555
Co0 O12 1.964787 1_555
Co0 O6 1.964833 1_655
Co1 O13 1.964639 1_656
Co1 O9 1.964680 1_546
Co1 O7 1.964788 1_555
Co1 O11 1.964820 1_645
O0 V3 1.833483 1_555
O0 V1 1.833503 1_565
O1 V2 1.832504 1_555
O1 V0 1.834426 1_556
O2 V1 1.680686 1_655
O3 V2 1.680514 1_455
O4 V3 1.680681 1_655
O5 V0 1.680809 1_455
O6 V1 1.743924 1_555
O7 V2 1.744416 1_555
O8 V3 1.744430 1_555
O9 V0 1.743978 1_555
O10 V0 1.743975 1_555
O11 V3 1.743936 1_555
O12 V2 1.744409 1_555
O13 V1 1.744430 1_555
