# generated using pymatgen
data_ErMn2(Fe2Sn3)2
_symmetry_space_group_name_H-M   'P 1'
_cell_length_a   5.42473081
_cell_length_b   5.42983221
_cell_length_c   9.00768200
_cell_angle_alpha   90.00039713
_cell_angle_beta   90.00054381
_cell_angle_gamma   60.28175343
_symmetry_Int_Tables_number   1
_chemical_formula_structural   ErMn2(Fe2Sn3)2
_chemical_formula_sum   'Er1 Mn2 Fe4 Sn6'
_cell_volume   230.42750157
_cell_formula_units_Z   1
loop_
 _symmetry_equiv_pos_site_id
 _symmetry_equiv_pos_as_xyz
  1  'x, y, z'
loop_
 _atom_site_type_symbol
 _atom_site_label
 _atom_site_symmetry_multiplicity
 _atom_site_fract_x
 _atom_site_fract_y
 _atom_site_fract_z
 _atom_site_occupancy
  Er  Er0  1  0.99997800  0.99999500  0.00058400  1
  Mn  Mn0  1  0.49998800  0.00000300  0.24633700  1
  Mn  Mn1  1  0.99998600  0.50000300  0.24644100  1
  Fe  Fe0  1  0.49998600  0.50000200  0.24628300  1
  Fe  Fe1  1  0.49999500  0.99999900  0.75325600  1
  Fe  Fe2  1  0.99998400  0.50000600  0.75320500  1
  Fe  Fe3  1  0.49998600  0.49999900  0.75256300  1
  Sn  Sn0  1  0.99998600  0.00000400  0.33671400  1
  Sn  Sn1  1  0.99999100  0.99999100  0.66287300  1
  Sn  Sn2  1  0.66635600  0.66619800  0.50128300  1
  Sn  Sn3  1  0.33360800  0.33380500  0.50128300  1
  Sn  Sn4  1  0.66626300  0.66586400  0.99959000  1
  Sn  Sn5  1  0.33369200  0.33413200  0.99958700  1
loop_
_geom_bond_atom_site_label_1
_geom_bond_atom_site_label_2
_geom_bond_distance
_geom_bond_site_symmetry_2
Er0 Sn0 3.027752 1_565
Er0 Sn1 3.041993 1_554
Er0 Sn4 3.134534 1_554
Er0 Sn5 3.134558 1_664
Er0 Sn4 3.139119 1_654
Er0 Sn5 3.139124 1_564
Er0 Sn5 3.140052 1_654
Er0 Sn4 3.140080 1_564
Er0 Mn0 3.500991 1_565
Er0 Mn0 3.501076 1_665
Er0 Mn1 3.503564 1_555
Er0 Mn1 3.503641 1_565
Er0 Fe1 3.509926 1_554
Er0 Fe1 3.510117 1_654
Er0 Fe0 3.510670 1_655
Er0 Fe0 3.510675 1_565
Er0 Fe2 3.512214 1_554
Er0 Fe2 3.512355 1_564
Er0 Fe3 3.523883 1_564
Er0 Fe3 3.523908 1_654
Mn0 Sn4 2.724484 1_544
Mn0 Sn5 2.724486 1_554
Mn0 Mn1 2.725185 1_545
Mn0 Mn1 2.725196 1_455
Mn0 Sn3 2.784164 1_555
Mn0 Sn2 2.784179 1_545
Mn0 Sn0 2.831886 1_555
Mn0 Sn0 2.831916 1_455
Mn1 Sn5 2.723250 1_654
Mn1 Sn4 2.723256 1_554
Mn1 Sn3 2.782073 1_655
Mn1 Sn2 2.782112 1_555
Mn1 Sn0 2.834075 1_565
Mn1 Sn0 2.834076 1_555
Fe0 Mn1 2.712363 1_455
Fe0 Mn1 2.712368 1_555
Fe0 Sn4 2.714418 1_554
Fe0 Sn5 2.714483 1_554
Fe0 Mn0 2.714905 1_555
Fe0 Mn0 2.714927 1_565
Fe0 Sn2 2.777108 1_555
Fe0 Sn3 2.777157 1_555
Fe0 Sn0 2.844319 1_555
Fe0 Sn0 2.844333 1_465
Fe1 Fe3 2.714899 1_565
Fe1 Fe3 2.714947 1_555
Fe1 Sn5 2.721412 1_565
Fe1 Sn4 2.721446 1_555
Fe1 Fe2 2.725141 1_555
Fe1 Fe2 2.725239 1_465
Fe1 Sn2 2.762114 1_555
Fe1 Sn3 2.762134 1_565
Fe1 Sn1 2.831883 1_555
Fe1 Sn1 2.831951 1_455
Fe2 Fe3 2.712364 1_655
Fe2 Fe3 2.712380 1_555
Fe2 Sn5 2.719767 1_655
Fe2 Sn4 2.719842 1_555
Fe2 Sn2 2.760426 1_555
Fe2 Sn3 2.760434 1_655
Fe2 Sn1 2.834173 1_555
Fe2 Sn1 2.834282 1_545
Fe3 Sn4 2.716865 1_555
Fe3 Sn5 2.716918 1_555
Fe3 Sn3 2.749474 1_555
Fe3 Sn2 2.749490 1_555
Fe3 Sn1 2.842386 1_455
Fe3 Sn1 2.842458 1_545
Sn0 Sn1 2.937937 1_545
Sn0 Sn3 3.465567 1_655
Sn0 Sn2 3.465648 1_545
Sn0 Sn2 3.471861 1_645
Sn0 Sn3 3.471913 1_555
Sn0 Sn2 3.473765 1_555
Sn0 Sn3 3.473793 1_645
Sn1 Sn2 3.454196 1_555
Sn1 Sn3 3.454234 1_665
Sn1 Sn2 3.460486 1_655
Sn1 Sn3 3.460545 1_565
Sn1 Sn3 3.462365 1_655
Sn1 Sn2 3.462462 1_565
Sn2 Sn3 3.121823 1_555
Sn2 Sn3 3.143599 1_655
Sn2 Sn3 3.148222 1_565
Sn4 Sn5 3.117890 1_555
Sn4 Sn5 3.144422 1_655
Sn4 Sn5 3.151333 1_565
