# generated using pymatgen
data_CrGa7P8
_symmetry_space_group_name_H-M   'P 1'
_cell_length_a   5.48593900
_cell_length_b   5.48593900
_cell_length_c   10.98939200
_cell_angle_alpha   90.00000000
_cell_angle_beta   90.00000000
_cell_angle_gamma   90.00000000
_symmetry_Int_Tables_number   1
_chemical_formula_structural   CrGa7P8
_chemical_formula_sum   'Cr1 Ga7 P8'
_cell_volume   330.73154048
_cell_formula_units_Z   1
loop_
 _symmetry_equiv_pos_site_id
 _symmetry_equiv_pos_as_xyz
  1  'x, y, z'
loop_
 _atom_site_type_symbol
 _atom_site_label
 _atom_site_symmetry_multiplicity
 _atom_site_fract_x
 _atom_site_fract_y
 _atom_site_fract_z
 _atom_site_occupancy
  Cr  Cr0  1  0.00000000  0.00000000  0.00000000  1
  Ga  Ga0  1  0.50000000  0.50000000  0.00000000  1
  Ga  Ga1  1  0.50000000  0.50000000  0.50000000  1
  Ga  Ga2  1  0.00000000  0.00000000  0.50000000  1
  Ga  Ga3  1  0.50000000  0.00000000  0.75027400  1
  Ga  Ga4  1  0.00000000  0.50000000  0.24972600  1
  Ga  Ga5  1  0.50000000  0.00000000  0.24972600  1
  Ga  Ga6  1  0.00000000  0.50000000  0.75027400  1
  P  P0  1  0.75290000  0.24710000  0.87614400  1
  P  P1  1  0.24710000  0.75290000  0.87614400  1
  P  P2  1  0.75290000  0.75290000  0.12385600  1
  P  P3  1  0.24710000  0.24710000  0.12385600  1
  P  P4  1  0.75009800  0.24990200  0.37515800  1
  P  P5  1  0.24990200  0.75009800  0.37515800  1
  P  P6  1  0.75009800  0.75009800  0.62484200  1
  P  P7  1  0.24990200  0.24990200  0.62484200  1
loop_
_geom_bond_atom_site_label_1
_geom_bond_atom_site_label_2
_geom_bond_distance
_geom_bond_site_symmetry_2
Cr0 P3 2.351121 1_555
Cr0 P2 2.351121 1_445
Cr0 P0 2.351121 1_454
Cr0 P1 2.351121 1_544
Ga0 P3 2.387954 1_555
Ga0 P2 2.387954 1_555
Ga0 P1 2.387954 1_554
Ga0 P0 2.387954 1_554
Ga1 P6 2.376364 1_555
Ga1 P5 2.376364 1_555
Ga1 P4 2.376364 1_555
Ga1 P7 2.376364 1_555
Ga2 P7 2.375122 1_555
Ga2 P4 2.375122 1_455
Ga2 P5 2.375122 1_545
Ga2 P6 2.375122 1_445
Ga3 P7 2.379493 1_555
Ga3 P6 2.379493 1_545
Ga3 P0 2.382391 1_555
Ga3 P1 2.382391 1_545
Ga4 P5 2.379493 1_555
Ga4 P4 2.379493 1_455
Ga4 P3 2.382391 1_555
Ga4 P2 2.382391 1_455
Ga5 P4 2.379493 1_555
Ga5 P5 2.379493 1_545
Ga5 P3 2.382391 1_555
Ga5 P2 2.382391 1_545
Ga6 P6 2.379493 1_455
Ga6 P7 2.379493 1_555
Ga6 P1 2.382391 1_555
Ga6 P0 2.382391 1_455
