# generated using pymatgen
data_Ca2P3Pb3ClO12
_symmetry_space_group_name_H-M   'P 1'
_cell_length_a   9.84927511
_cell_length_b   9.84927511
_cell_length_c   7.08216976
_cell_angle_alpha   90.00000000
_cell_angle_beta   90.00000000
_cell_angle_gamma   119.99999427
_symmetry_Int_Tables_number   1
_chemical_formula_structural   Ca2P3Pb3ClO12
_chemical_formula_sum   'Ca4 P6 Pb6 Cl2 O24'
_cell_volume   594.98432703
_cell_formula_units_Z   2
loop_
 _symmetry_equiv_pos_site_id
 _symmetry_equiv_pos_as_xyz
  1  'x, y, z'
loop_
 _atom_site_type_symbol
 _atom_site_label
 _atom_site_symmetry_multiplicity
 _atom_site_fract_x
 _atom_site_fract_y
 _atom_site_fract_z
 _atom_site_occupancy
  Ca  Ca0  1  0.33333300  0.66666700  0.49425612  1
  Ca  Ca1  1  0.66666700  0.33333300  0.50574388  1
  Ca  Ca2  1  0.66666700  0.33333300  0.99425612  1
  Ca  Ca3  1  0.33333300  0.66666700  0.00574388  1
  P  P0  1  0.03449988  0.42199882  0.75000000  1
  P  P1  1  0.96550012  0.57800118  0.25000000  1
  P  P2  1  0.57800118  0.61250206  0.75000000  1
  P  P3  1  0.42199882  0.38749794  0.25000000  1
  P  P4  1  0.38749794  0.96550012  0.75000000  1
  P  P5  1  0.61250206  0.03449988  0.25000000  1
  Pb  Pb0  1  0.24697928  0.25786905  0.75000000  1
  Pb  Pb1  1  0.75302072  0.74213095  0.25000000  1
  Pb  Pb2  1  0.74213095  0.98911023  0.75000000  1
  Pb  Pb3  1  0.25786905  0.01088977  0.25000000  1
  Pb  Pb4  1  0.01088977  0.75302072  0.75000000  1
  Pb  Pb5  1  0.98911023  0.24697928  0.25000000  1
  Cl  Cl0  1  -0.00000000  -0.00000000  0.50000000  1
  Cl  Cl1  1  -0.00000000  -0.00000000  0.00000000  1
  O  O0  1  0.13866599  0.60428597  0.75000000  1
  O  O1  1  0.86133401  0.39571403  0.25000000  1
  O  O2  1  0.39571403  0.53438102  0.75000000  1
  O  O3  1  0.60428597  0.46561898  0.25000000  1
  O  O4  1  0.46561898  0.86133401  0.75000000  1
  O  O5  1  0.53438102  0.13866599  0.25000000  1
  O  O6  1  0.51189752  0.13986951  0.75000000  1
  O  O7  1  0.48810248  0.86013049  0.25000000  1
  O  O8  1  0.86013049  0.37202801  0.75000000  1
  O  O9  1  0.13986951  0.62797199  0.25000000  1
  O  O10  1  0.62797199  0.48810248  0.75000000  1
  O  O11  1  0.37202801  0.51189752  0.25000000  1
  O  O12  1  0.08457828  0.36558891  0.57448434  1
  O  O13  1  0.91542172  0.63441109  0.42551566  1
  O  O14  1  0.63441109  0.71898938  0.57448434  1
  O  O15  1  0.91542172  0.63441109  0.07448434  1
  O  O16  1  0.36558891  0.28101062  0.42551566  1
  O  O17  1  0.08457828  0.36558891  0.92551566  1
  O  O18  1  0.28101062  0.91542172  0.57448434  1
  O  O19  1  0.36558891  0.28101062  0.07448434  1
  O  O20  1  0.71898938  0.08457828  0.42551566  1
  O  O21  1  0.63441109  0.71898938  0.92551566  1
  O  O22  1  0.71898938  0.08457828  0.07448434  1
  O  O23  1  0.28101062  0.91542172  0.92551566  1
loop_
_geom_bond_atom_site_label_1
_geom_bond_atom_site_label_2
_geom_bond_distance
_geom_bond_site_symmetry_2
Ca0 O9 2.458110 1_555
Ca0 O7 2.458112 1_555
Ca0 O11 2.458116 1_555
Ca0 O2 2.481159 1_555
Ca0 O0 2.481159 1_555
Ca0 O4 2.481159 1_555
Ca0 O18 2.802460 1_555
Ca0 O12 2.802466 1_555
Ca0 O14 2.802469 1_555
Ca1 O8 2.458110 1_555
Ca1 O6 2.458112 1_555
Ca1 O10 2.458116 1_555
Ca1 O3 2.481159 1_555
Ca1 O1 2.481159 1_555
Ca1 O5 2.481159 1_555
Ca1 O20 2.802460 1_555
Ca1 O13 2.802466 1_555
Ca1 O16 2.802469 1_555
Ca2 O8 2.458110 1_555
Ca2 O6 2.458112 1_555
Ca2 O10 2.458116 1_555
Ca2 O3 2.481159 1_556
Ca2 O1 2.481159 1_556
Ca2 O5 2.481159 1_556
Ca2 O22 2.802460 1_556
Ca2 O15 2.802466 1_556
Ca2 O19 2.802469 1_556
Ca3 O9 2.458110 1_555
Ca3 O7 2.458112 1_555
Ca3 O11 2.458116 1_555
Ca3 O2 2.481159 1_554
Ca3 O0 2.481159 1_554
Ca3 O4 2.481159 1_554
Ca3 O23 2.802460 1_554
Ca3 O17 2.802466 1_554
Ca3 O21 2.802469 1_554
Cl0 Pb5 3.053623 1_455
Cl0 Pb4 3.053623 1_545
Cl0 Pb2 3.053623 1_445
Cl0 Pb3 3.053623 1_555
Cl0 Pb0 3.053623 1_555
Cl0 Pb1 3.053623 1_445
Cl0 O18 3.307309 1_545
Cl0 O20 3.307309 1_455
Cl0 O13 3.307309 1_445
Cl0 O12 3.307309 1_555
Cl0 O14 3.307309 1_445
Cl0 O16 3.307309 1_555
Cl0 Cl1 3.541085 1_555
Cl0 Cl1 3.541085 1_556
Cl1 Pb5 3.053623 1_455
Cl1 Pb4 3.053623 1_544
Cl1 Pb2 3.053623 1_444
Cl1 Pb3 3.053623 1_555
Cl1 Pb1 3.053623 1_445
Cl1 Pb0 3.053623 1_554
Cl1 O23 3.307309 1_544
Cl1 O22 3.307309 1_455
Cl1 O15 3.307309 1_445
Cl1 O17 3.307309 1_554
Cl1 O21 3.307309 1_444
Cl1 O19 3.307309 1_555
O0 P0 1.560140 1_555
O0 Pb4 2.360819 1_555
O1 P1 1.560140 1_555
O1 Pb5 2.360819 1_555
O2 P2 1.560140 1_555
O2 Pb0 2.360828 1_555
O3 P3 1.560140 1_555
O3 Pb1 2.360828 1_555
O4 P4 1.560140 1_555
O4 Pb2 2.360828 1_555
O5 P5 1.560140 1_555
O5 Pb3 2.360828 1_555
O6 P4 1.531822 1_545
O7 P5 1.531822 1_565
O8 P0 1.531820 1_655
O9 P1 1.531820 1_455
O10 P2 1.531829 1_555
O11 P3 1.531829 1_555
O12 P0 1.539850 1_555
O12 Pb5 2.536033 1_455
O12 Pb0 2.631789 1_555
O13 P1 1.539850 1_555
O13 Pb4 2.536033 1_655
O13 Pb1 2.631789 1_555
O14 P2 1.539845 1_555
O14 Pb1 2.536033 1_555
O14 Pb2 2.631790 1_555
O15 P1 1.539850 1_555
O15 Pb4 2.536033 1_654
O15 Pb1 2.631789 1_555
O16 P3 1.539845 1_555
O16 Pb0 2.536033 1_555
O16 Pb3 2.631790 1_555
O17 P0 1.539850 1_555
O17 Pb5 2.536033 1_456
O17 Pb0 2.631789 1_555
O18 P4 1.539845 1_555
O18 Pb3 2.536033 1_565
O18 Pb4 2.631790 1_555
O19 P3 1.539845 1_555
O19 Pb0 2.536033 1_554
O19 Pb3 2.631790 1_555
O20 P5 1.539845 1_555
O20 Pb2 2.536033 1_545
O20 Pb5 2.631790 1_555
O21 P2 1.539845 1_555
O21 Pb1 2.536033 1_556
O21 Pb2 2.631790 1_555
O22 P5 1.539845 1_555
O22 Pb2 2.536033 1_544
O22 Pb5 2.631790 1_555
O23 P4 1.539845 1_555
O23 Pb3 2.536033 1_566
O23 Pb4 2.631790 1_555
