# generated using pymatgen
data_Mg14TiNbO16
_symmetry_space_group_name_H-M   'P 1'
_cell_length_a   8.67254112
_cell_length_b   8.60349715
_cell_length_c   4.28750169
_cell_angle_alpha   90.00000000
_cell_angle_beta   90.00000000
_cell_angle_gamma   90.00000000
_symmetry_Int_Tables_number   1
_chemical_formula_structural   Mg14TiNbO16
_chemical_formula_sum   'Mg14 Ti1 Nb1 O16'
_cell_volume   319.90843489
_cell_formula_units_Z   1
loop_
 _symmetry_equiv_pos_site_id
 _symmetry_equiv_pos_as_xyz
  1  'x, y, z'
loop_
 _atom_site_type_symbol
 _atom_site_label
 _atom_site_symmetry_multiplicity
 _atom_site_fract_x
 _atom_site_fract_y
 _atom_site_fract_z
 _atom_site_occupancy
  Mg  Mg0  1  0.50000000  -0.00000000  0.00000000  1
  Mg  Mg1  1  0.50000000  0.50000000  0.00000000  1
  Mg  Mg2  1  0.00000000  0.24840863  0.50000000  1
  Mg  Mg3  1  0.00000000  0.75159137  0.50000000  1
  Mg  Mg4  1  0.50000000  0.25014221  0.50000000  1
  Mg  Mg5  1  0.50000000  0.74985779  0.50000000  1
  Mg  Mg6  1  0.25235562  -0.00000000  0.50000000  1
  Mg  Mg7  1  0.25397816  0.50000000  0.50000000  1
  Mg  Mg8  1  0.74764438  -0.00000000  0.50000000  1
  Mg  Mg9  1  0.74602184  0.50000000  0.50000000  1
  Mg  Mg10  1  0.25245226  0.24962582  0.00000000  1
  Mg  Mg11  1  0.25245226  0.75037418  -0.00000000  1
  Mg  Mg12  1  0.74754774  0.24962582  0.00000000  1
  Mg  Mg13  1  0.74754774  0.75037418  -0.00000000  1
  Ti  Ti0  1  0.00000000  -0.00000000  0.00000000  1
  Nb  Nb0  1  0.00000000  0.50000000  0.00000000  1
  O  O0  1  0.25650764  -0.00000000  0.00000000  1
  O  O1  1  0.26338660  0.50000000  0.00000000  1
  O  O2  1  0.74349236  -0.00000000  0.00000000  1
  O  O3  1  0.73661340  0.50000000  -0.00000000  1
  O  O4  1  0.24817823  0.25021730  0.50000000  1
  O  O5  1  0.24817823  0.74978270  0.50000000  1
  O  O6  1  0.75182177  0.25021730  0.50000000  1
  O  O7  1  0.75182177  0.74978270  0.50000000  1
  O  O8  1  0.00000000  -0.00000000  0.50000000  1
  O  O9  1  0.00000000  0.50000000  0.50000000  1
  O  O10  1  0.50000000  -0.00000000  0.50000000  1
  O  O11  1  0.50000000  0.50000000  0.50000000  1
  O  O12  1  0.00000000  0.24275453  0.00000000  1
  O  O13  1  0.00000000  0.75724547  -0.00000000  1
  O  O14  1  0.50000000  0.24911967  0.00000000  1
  O  O15  1  0.50000000  0.75088033  -0.00000000  1
loop_
_geom_bond_atom_site_label_1
_geom_bond_atom_site_label_2
_geom_bond_distance
_geom_bond_site_symmetry_2
Mg0 O2 2.111698 1_555
Mg0 O0 2.111698 1_555
Mg0 O14 2.143300 1_555
Mg0 O15 2.143300 1_545
Mg0 O10 2.143751 1_555
Mg0 O10 2.143751 1_554
Mg1 O3 2.052039 1_555
Mg1 O1 2.052039 1_555
Mg1 O11 2.143751 1_554
Mg1 O11 2.143751 1_555
Mg1 O15 2.158448 1_555
Mg1 O14 2.158448 1_555
Mg2 O8 2.137183 1_555
Mg2 O12 2.144303 1_555
Mg2 O12 2.144303 1_556
Mg2 O6 2.152392 1_455
Mg2 O4 2.152392 1_555
Mg2 O9 2.164566 1_555
Mg3 O8 2.137183 1_565
Mg3 O13 2.144303 1_555
Mg3 O13 2.144303 1_556
Mg3 O7 2.152392 1_455
Mg3 O5 2.152392 1_555
Mg3 O9 2.164566 1_555
Mg4 O14 2.143769 1_556
Mg4 O14 2.143769 1_555
Mg4 O11 2.149651 1_555
Mg4 O10 2.152098 1_555
Mg4 O4 2.183935 1_555
Mg4 O6 2.183935 1_555
Mg5 O15 2.143769 1_556
Mg5 O15 2.143769 1_555
Mg5 O11 2.149651 1_555
Mg5 O10 2.152098 1_565
Mg5 O5 2.183935 1_555
Mg5 O7 2.183935 1_555
Mg6 O0 2.144053 1_555
Mg6 O0 2.144053 1_556
Mg6 O10 2.147706 1_555
Mg6 O4 2.153049 1_555
Mg6 O5 2.153049 1_545
Mg6 O8 2.188564 1_555
Mg7 O11 2.133635 1_555
Mg7 O1 2.145303 1_555
Mg7 O1 2.145303 1_556
Mg7 O5 2.149593 1_555
Mg7 O4 2.149593 1_555
Mg7 O9 2.202636 1_555
Mg8 O2 2.144053 1_556
Mg8 O2 2.144053 1_555
Mg8 O10 2.147706 1_555
Mg8 O6 2.153049 1_555
Mg8 O7 2.153049 1_545
Mg8 O8 2.188564 1_655
Mg9 O11 2.133635 1_555
Mg9 O3 2.145303 1_556
Mg9 O3 2.145303 1_555
Mg9 O7 2.149593 1_555
Mg9 O6 2.149593 1_555
Mg9 O9 2.202636 1_655
Mg10 O4 2.144077 1_554
Mg10 O4 2.144077 1_555
Mg10 O14 2.146872 1_555
Mg10 O0 2.147943 1_555
Mg10 O1 2.156180 1_555
Mg10 O12 2.190201 1_555
Mg11 O5 2.144077 1_554
Mg11 O5 2.144077 1_555
Mg11 O15 2.146872 1_555
Mg11 O0 2.147943 1_565
Mg11 O1 2.156180 1_555
Mg11 O13 2.190201 1_555
Mg12 O6 2.144077 1_555
Mg12 O6 2.144077 1_554
Mg12 O14 2.146872 1_555
Mg12 O2 2.147943 1_555
Mg12 O3 2.156180 1_555
Mg12 O12 2.190201 1_655
Mg13 O7 2.144077 1_555
Mg13 O7 2.144077 1_554
Mg13 O15 2.146872 1_555
Mg13 O2 2.147943 1_565
Mg13 O3 2.156180 1_555
Mg13 O13 2.190201 1_655
Nb0 O9 2.143751 1_554
Nb0 O9 2.143751 1_555
Nb0 O12 2.213211 1_555
Nb0 O13 2.213211 1_555
Nb0 O1 2.284231 1_555
Nb0 O3 2.284231 1_455
O0 Ti0 2.224573 1_555
O2 Ti0 2.224573 1_655
O8 Ti0 2.143751 1_555
O8 Ti0 2.143751 1_556
O12 Ti0 2.088538 1_555
O13 Ti0 2.088538 1_565
