# generated using pymatgen
data_Li7Mn2(CoO4)3
_symmetry_space_group_name_H-M   'P 1'
_cell_length_a   2.98254400
_cell_length_b   7.79259353
_cell_length_c   10.11700523
_cell_angle_alpha   111.13890709
_cell_angle_beta   91.39000993
_cell_angle_gamma   97.92033607
_symmetry_Int_Tables_number   1
_chemical_formula_structural   Li7Mn2(CoO4)3
_chemical_formula_sum   'Li7 Mn2 Co3 O12'
_cell_volume   216.52507940
_cell_formula_units_Z   1
loop_
 _symmetry_equiv_pos_site_id
 _symmetry_equiv_pos_as_xyz
  1  'x, y, z'
loop_
 _atom_site_type_symbol
 _atom_site_label
 _atom_site_symmetry_multiplicity
 _atom_site_fract_x
 _atom_site_fract_y
 _atom_site_fract_z
 _atom_site_occupancy
  Li  Li0  1  0.17443700  0.33897900  0.92626100  1
  Li  Li1  1  0.83261900  0.66594500  0.58073700  1
  Li  Li2  1  0.50932000  0.01124700  0.25170900  1
  Li  Li3  1  0.82249500  0.66500500  0.08865000  1
  Li  Li4  1  0.49541400  0.99717700  0.74758100  1
  Li  Li5  1  0.16680000  0.32973900  0.40311000  1
  Li  Li6  1  0.65081200  0.32825700  0.17269400  1
  Mn  Mn0  1  0.99884900  0.01015300  0.00590500  1
  Mn  Mn1  1  0.67757900  0.32978100  0.66632600  1
  Co  Co0  1  0.31953400  0.65397300  0.32664100  1
  Co  Co1  1  0.34330000  0.66716000  0.82992700  1
  Co  Co2  1  0.99631700  0.99601100  0.49719300  1
  O  O0  1  0.54670200  0.14575200  0.96310300  1
  O  O1  1  0.29715800  0.50301200  0.63532800  1
  O  O2  1  0.94224500  0.83000500  0.30507800  1
  O  O3  1  0.26267900  0.52308800  0.14403500  1
  O  O4  1  0.91024600  0.83200200  0.80248200  1
  O  O5  1  0.61261600  0.16327500  0.46720200  1
  O  O6  1  0.77832000  0.50324300  0.86881900  1
  O  O7  1  0.38328800  0.83025900  0.52314200  1
  O  O8  1  0.06868600  0.15253400  0.19462600  1
  O  O9  1  0.43876300  0.84874800  0.03022300  1
  O  O10  1  0.05152400  0.15945400  0.69682800  1
  O  O11  1  0.72029800  0.51520200  0.37239900  1
loop_
_geom_bond_atom_site_label_1
_geom_bond_atom_site_label_2
_geom_bond_distance
_geom_bond_site_symmetry_2
Li0 O6 2.071721 1_455
Li0 O0 2.117640 1_555
Li0 O3 2.137692 1_556
Li0 O10 2.225897 1_555
Li0 O6 2.274239 1_555
Li0 O0 2.360766 1_455
Li1 O11 2.001557 1_555
Li1 O1 2.111247 1_555
Li1 O4 2.135258 1_555
Li1 O7 2.163674 1_655
Li1 O7 2.179033 1_555
Li1 O1 2.188648 1_655
Li2 O8 2.023213 1_555
Li2 O5 2.062861 1_555
Li2 O8 2.080425 1_655
Li2 O9 2.127434 1_545
Li2 O2 2.229858 1_545
Li2 O2 2.254514 1_445
Li3 O3 2.017919 1_655
Li3 O3 2.075635 1_555
Li3 O2 2.092858 1_555
Li3 O6 2.114383 1_554
Li3 O9 2.176851 1_555
Li3 O9 2.390781 1_655
Li4 O0 2.057274 1_565
Li4 O4 2.101721 1_555
Li4 O10 2.124208 1_565
Li4 O10 2.131993 1_665
Li4 O7 2.161624 1_555
Li4 O4 2.225949 1_455
Li5 O8 2.049216 1_555
Li5 O11 2.145165 1_555
Li5 O11 2.189274 1_455
Li5 O5 2.214253 1_455
Li5 O5 2.216154 1_555
Li5 O1 2.239821 1_555
Li6 O11 2.005204 1_555
Li6 O8 2.038067 1_655
Li6 O0 2.070399 1_554
Li6 O3 2.124804 1_555
Li6 O8 2.126356 1_555
Li6 O3 2.301966 1_655
Mn0 O8 1.819041 1_655
Mn0 O0 1.953726 1_554
Mn0 O0 1.965330 1_654
Mn0 O9 2.006573 1_645
Mn0 O4 2.011069 1_544
Mn0 O9 2.024128 1_545
Mn1 O10 1.946156 1_655
Mn1 O5 1.950879 1_555
Mn1 O1 1.979441 1_555
Mn1 O6 1.993790 1_555
Mn1 O1 2.231911 1_655
Mn1 O10 2.232454 1_555
Co0 O3 1.749315 1_555
Co0 O11 1.871600 1_555
Co0 O7 1.953295 1_555
Co0 O2 1.955727 1_455
Co0 O11 2.108680 1_455
Co0 O2 2.216320 1_555
Co1 O1 1.911315 1_555
Co1 O9 1.995619 1_556
Co1 O4 2.022990 1_455
Co1 O6 2.065020 1_555
Co1 O4 2.065879 1_555
Co1 O6 2.104134 1_455
Co2 O2 1.894985 1_555
Co2 O7 1.926147 1_655
Co2 O5 1.944252 1_565
Co2 O10 1.949156 1_665
Co2 O7 2.167316 1_555
Co2 O5 2.195847 1_665
