# generated using pymatgen
data_TiMnN2
_symmetry_space_group_name_H-M   'P 1'
_cell_length_a   5.99570400
_cell_length_b   7.10727600
_cell_length_c   4.12404000
_cell_angle_alpha   90.00000000
_cell_angle_beta   90.00000000
_cell_angle_gamma   90.00000000
_symmetry_Int_Tables_number   1
_chemical_formula_structural   TiMnN2
_chemical_formula_sum   'Ti4 Mn4 N8'
_cell_volume   175.73822436
_cell_formula_units_Z   4
loop_
 _symmetry_equiv_pos_site_id
 _symmetry_equiv_pos_as_xyz
  1  'x, y, z'
loop_
 _atom_site_type_symbol
 _atom_site_label
 _atom_site_symmetry_multiplicity
 _atom_site_fract_x
 _atom_site_fract_y
 _atom_site_fract_z
 _atom_site_occupancy
  Ti  Ti0  1  0.58973400  0.37424300  0.93525000  1
  Ti  Ti1  1  0.41026600  0.62575700  0.43525000  1
  Ti  Ti2  1  0.91026600  0.87424300  0.43525000  1
  Ti  Ti3  1  0.08973400  0.12575700  0.93525000  1
  Mn  Mn0  1  0.57125400  0.87223300  0.93524900  1
  Mn  Mn1  1  0.42874600  0.12776700  0.43524900  1
  Mn  Mn2  1  0.92874600  0.37223300  0.43524900  1
  Mn  Mn3  1  0.07125400  0.62776700  0.93524900  1
  N  N0  1  0.58246400  0.38274500  0.43525000  1
  N  N1  1  0.41753600  0.61725500  0.93525000  1
  N  N2  1  0.91753600  0.88274500  0.93525000  1
  N  N3  1  0.08246400  0.11725500  0.43525000  1
  N  N4  1  0.57558300  0.86835200  0.43525000  1
  N  N5  1  0.42441700  0.13164800  0.93525000  1
  N  N6  1  0.92441700  0.36835200  0.93525000  1
  N  N7  1  0.07558300  0.63164800  0.43525000  1
loop_
_geom_bond_atom_site_label_1
_geom_bond_atom_site_label_2
_geom_bond_distance
_geom_bond_site_symmetry_2
Mn0 N1 2.033101 1_555
Mn0 N5 2.043146 1_565
Mn0 N4 2.062364 1_555
Mn0 N4 2.062372 1_556
Mn0 N2 2.077548 1_555
Mn1 N0 2.033101 1_555
Mn1 N4 2.043146 1_545
Mn1 N5 2.062364 1_554
Mn1 N5 2.062372 1_555
Mn1 N3 2.077548 1_555
Mn2 N3 2.033101 1_655
Mn2 N7 2.043146 1_655
Mn2 N6 2.062364 1_554
Mn2 N6 2.062372 1_555
Mn2 N0 2.077548 1_555
Mn3 N2 2.033101 1_455
Mn3 N6 2.043146 1_455
Mn3 N7 2.062364 1_555
Mn3 N7 2.062372 1_556
Mn3 N1 2.077548 1_555
N0 Ti1 2.012215 1_555
N0 Ti0 2.063366 1_555
N0 Ti0 2.063366 1_554
N1 Ti0 2.012215 1_555
N1 Ti1 2.063366 1_556
N1 Ti1 2.063366 1_555
N2 Ti3 2.012215 1_665
N2 Ti2 2.063366 1_556
N2 Ti2 2.063366 1_555
N3 Ti2 2.012215 1_445
N3 Ti3 2.063366 1_555
N3 Ti3 2.063366 1_554
N4 Ti1 1.988791 1_555
N4 Ti2 2.007097 1_555
N5 Ti0 1.988791 1_555
N5 Ti3 2.007097 1_555
N6 Ti3 1.988791 1_655
N6 Ti0 2.007097 1_555
N7 Ti2 1.988791 1_455
N7 Ti1 2.007097 1_555
