# generated using pymatgen
data_DyNiGe3
_symmetry_space_group_name_H-M   'P 1'
_cell_length_a   10.92504750
_cell_length_b   10.92504750
_cell_length_c   4.07458642
_cell_angle_alpha   90.00000000
_cell_angle_beta   90.00000000
_cell_angle_gamma   158.59203979
_symmetry_Int_Tables_number   1
_chemical_formula_structural   DyNiGe3
_chemical_formula_sum   'Dy2 Ni2 Ge6'
_cell_volume   177.51308185
_cell_formula_units_Z   2
loop_
 _symmetry_equiv_pos_site_id
 _symmetry_equiv_pos_as_xyz
  1  'x, y, z'
loop_
 _atom_site_type_symbol
 _atom_site_label
 _atom_site_symmetry_multiplicity
 _atom_site_fract_x
 _atom_site_fract_y
 _atom_site_fract_z
 _atom_site_occupancy
  Dy  Dy0  1  0.16858293  0.83141707  0.50000000  1
  Dy  Dy1  1  0.83141707  0.16858293  0.50000000  1
  Ni  Ni0  1  0.38960210  0.61039790  0.00000000  1
  Ni  Ni1  1  0.61039790  0.38960210  -0.00000000  1
  Ge  Ge0  1  0.28367280  0.71632720  -0.00000000  1
  Ge  Ge1  1  0.71632720  0.28367280  -0.00000000  1
  Ge  Ge2  1  0.44264535  0.55735465  0.50000000  1
  Ge  Ge3  1  0.55735465  0.44264535  0.50000000  1
  Ge  Ge4  1  0.05746891  0.94253109  -0.00000000  1
  Ge  Ge5  1  0.94253109  0.05746891  0.00000000  1
loop_
_geom_bond_atom_site_label_1
_geom_bond_atom_site_label_2
_geom_bond_distance
_geom_bond_site_symmetry_2
Dy0 Ge1 3.052674 1_565
Dy0 Ge1 3.052674 1_566
Dy0 Ge1 3.052674 1_455
Dy0 Ge1 3.052674 1_456
Dy0 Ge3 3.133741 1_455
Dy0 Ge3 3.133741 1_565
Dy0 Ni1 3.135065 1_566
Dy0 Ni1 3.135065 1_565
Dy0 Ni1 3.135065 1_456
Dy0 Ni1 3.135065 1_455
Dy0 Ge4 3.137146 1_556
Dy0 Ge4 3.137146 1_555
Dy0 Ge0 3.202538 1_555
Dy0 Ge0 3.202538 1_556
Dy1 Ge0 3.052674 1_655
Dy1 Ge0 3.052674 1_656
Dy1 Ge0 3.052674 1_546
Dy1 Ge0 3.052674 1_545
Dy1 Ge2 3.133741 1_545
Dy1 Ge2 3.133741 1_655
Dy1 Ni0 3.135065 1_655
Dy1 Ni0 3.135065 1_656
Dy1 Ni0 3.135065 1_546
Dy1 Ni0 3.135065 1_545
Dy1 Ge5 3.137146 1_555
Dy1 Ge5 3.137146 1_556
Dy1 Ge1 3.202538 1_555
Dy1 Ge1 3.202538 1_556
Ge0 Ni0 2.274292 1_555
Ge0 Ge1 2.491613 1_565
Ge0 Ge1 2.491613 1_455
Ge1 Ni1 2.274292 1_555
Ge2 Ni0 2.333989 1_555
Ge2 Ni0 2.333989 1_556
Ge2 Ge3 2.462797 1_555
Ge2 Ge5 2.875425 1_565
Ge2 Ge5 2.875425 1_455
Ge2 Ge5 2.875425 1_566
Ge2 Ge5 2.875425 1_456
Ge3 Ni1 2.333989 1_555
Ge3 Ni1 2.333989 1_556
Ge3 Ge4 2.875425 1_655
Ge3 Ge4 2.875425 1_656
Ge3 Ge4 2.875425 1_545
Ge3 Ge4 2.875425 1_546
Ge4 Ni1 2.325696 1_565
Ge4 Ni1 2.325696 1_455
Ge4 Ge5 2.467704 1_465
Ge5 Ni0 2.325696 1_655
Ge5 Ni0 2.325696 1_545
