# generated using pymatgen
data_Ba3La2Ti2Nb2O15
_symmetry_space_group_name_H-M   'P 1'
_cell_length_a   5.72454801
_cell_length_b   5.72454801
_cell_length_c   11.75964000
_cell_angle_alpha   90.00000000
_cell_angle_beta   90.00000000
_cell_angle_gamma   120.00000007
_symmetry_Int_Tables_number   1
_chemical_formula_structural   Ba3La2Ti2Nb2O15
_chemical_formula_sum   'Ba3 La2 Ti2 Nb2 O15'
_cell_volume   333.73907785
_cell_formula_units_Z   1
loop_
 _symmetry_equiv_pos_site_id
 _symmetry_equiv_pos_as_xyz
  1  'x, y, z'
loop_
 _atom_site_type_symbol
 _atom_site_label
 _atom_site_symmetry_multiplicity
 _atom_site_fract_x
 _atom_site_fract_y
 _atom_site_fract_z
 _atom_site_occupancy
  Ba  Ba0  1  0.66666700  0.33333300  0.57610500  1
  Ba  Ba1  1  0.33333300  0.66666700  0.42389500  1
  Ba  Ba2  1  0.00000000  0.00000000  0.00000000  1
  La  La0  1  0.66666700  0.33333300  0.21280200  1
  La  La1  1  0.33333300  0.66666700  0.78719800  1
  Ti  Ti0  1  0.66666700  0.33333300  0.90340600  1
  Ti  Ti1  1  0.33333300  0.66666700  0.09659400  1
  Nb  Nb0  1  0.00000000  0.00000000  0.30529900  1
  Nb  Nb1  1  0.00000000  0.00000000  0.69470100  1
  O  O0  1  0.34344200  0.17172100  0.37870900  1
  O  O1  1  0.82827900  0.65655800  0.37870900  1
  O  O2  1  0.82827900  0.17172100  0.37870900  1
  O  O3  1  0.65655800  0.82827900  0.62129100  1
  O  O4  1  0.17172100  0.34344200  0.62129100  1
  O  O5  1  0.17172100  0.82827900  0.62129100  1
  O  O6  1  0.33846200  0.16923100  0.80862800  1
  O  O7  1  0.83076900  0.66153800  0.80862800  1
  O  O8  1  0.83076900  0.16923100  0.80862800  1
  O  O9  1  0.66153800  0.83076900  0.19137200  1
  O  O10  1  0.16923100  0.33846200  0.19137200  1
  O  O11  1  0.16923100  0.83076900  0.19137200  1
  O  O12  1  0.50000000  0.00000000  0.00000000  1
  O  O13  1  0.50000000  0.50000000  0.00000000  1
  O  O14  1  0.00000000  0.50000000  0.00000000  1
loop_
_geom_bond_atom_site_label_1
_geom_bond_atom_site_label_2
_geom_bond_distance
_geom_bond_site_symmetry_2
Ba0 O2 2.820674 1_555
Ba0 O1 2.820676 1_555
Ba0 O0 2.820676 1_555
Ba0 O4 2.911608 1_655
Ba0 O3 2.911608 1_545
Ba0 O5 2.911611 1_655
Ba0 O5 2.911611 1_545
Ba0 O3 2.911614 1_555
Ba0 O4 2.911614 1_555
Ba0 O8 3.181877 1_555
Ba0 O6 3.181880 1_555
Ba0 O7 3.181880 1_555
Ba1 O5 2.820674 1_555
Ba1 O3 2.820676 1_555
Ba1 O4 2.820676 1_555
Ba1 O0 2.911608 1_565
Ba1 O1 2.911608 1_455
Ba1 O2 2.911611 1_565
Ba1 O2 2.911611 1_455
Ba1 O1 2.911614 1_555
Ba1 O0 2.911614 1_555
Ba1 O11 3.181877 1_555
Ba1 O9 3.181880 1_555
Ba1 O10 3.181880 1_555
Ba2 O6 2.807160 1_554
Ba2 O10 2.807160 1_555
Ba2 O9 2.807160 1_445
Ba2 O7 2.807160 1_444
Ba2 O11 2.807160 1_545
Ba2 O8 2.807160 1_454
Ba2 O13 2.862274 1_555
Ba2 O13 2.862274 1_445
Ba2 O12 2.862274 1_555
Ba2 O12 2.862274 1_455
Ba2 O14 2.862274 1_545
Ba2 O14 2.862274 1_555
La0 O2 2.524711 1_555
La0 O1 2.524714 1_555
La0 O0 2.524714 1_555
La0 O9 2.873456 1_545
La0 O10 2.873456 1_655
La0 O11 2.873459 1_655
La0 O11 2.873459 1_545
La0 O10 2.873462 1_555
La0 O9 2.873462 1_555
La0 O14 2.998874 1_655
La0 O12 2.998874 1_555
La0 O13 2.998877 1_555
La1 O5 2.524711 1_555
La1 O3 2.524714 1_555
La1 O4 2.524714 1_555
La1 O7 2.873456 1_455
La1 O6 2.873456 1_565
La1 O8 2.873459 1_565
La1 O8 2.873459 1_455
La1 O6 2.873462 1_555
La1 O7 2.873462 1_555
La1 O12 2.998874 1_566
La1 O14 2.998874 1_556
La1 O13 2.998877 1_556
Nb0 O0 1.908994 1_555
Nb0 O1 1.908994 1_445
Nb0 O2 1.908994 1_455
Nb0 O9 2.147197 1_445
Nb0 O10 2.147197 1_555
Nb0 O11 2.147197 1_545
Nb1 O4 1.908994 1_555
Nb1 O3 1.908994 1_445
Nb1 O5 1.908994 1_545
Nb1 O7 2.147197 1_445
Nb1 O6 2.147197 1_555
Nb1 O8 2.147197 1_455
O6 Ti0 1.972238 1_555
O7 Ti0 1.972238 1_555
O8 Ti0 1.972234 1_555
O9 Ti1 1.972238 1_555
O10 Ti1 1.972238 1_555
O11 Ti1 1.972234 1_555
O12 Ti1 2.005283 1_545
O12 Ti0 2.005283 1_554
O13 Ti1 2.005287 1_555
O13 Ti0 2.005287 1_554
O14 Ti1 2.005283 1_555
O14 Ti0 2.005283 1_454
