# generated using pymatgen
data_K3Ag2(PO4)5
_symmetry_space_group_name_H-M   'P 1'
_cell_length_a   7.33575900
_cell_length_b   10.46399387
_cell_length_c   14.25313771
_cell_angle_alpha   100.96390245
_cell_angle_beta   88.84305869
_cell_angle_gamma   103.55482029
_symmetry_Int_Tables_number   1
_chemical_formula_structural   K3Ag2(PO4)5
_chemical_formula_sum   'K6 Ag4 P10 O40'
_cell_volume   1043.86041840
_cell_formula_units_Z   2
loop_
 _symmetry_equiv_pos_site_id
 _symmetry_equiv_pos_as_xyz
  1  'x, y, z'
loop_
 _atom_site_type_symbol
 _atom_site_label
 _atom_site_symmetry_multiplicity
 _atom_site_fract_x
 _atom_site_fract_y
 _atom_site_fract_z
 _atom_site_occupancy
  K  K0  1  0.59648800  0.95762200  0.11183700  1
  K  K1  1  0.40351200  0.04237800  0.88816300  1
  K  K2  1  0.34146800  0.36945300  0.74189300  1
  K  K3  1  0.65853200  0.63054700  0.25810700  1
  K  K4  1  0.23991200  0.78490900  0.47895100  1
  K  K5  1  0.76008800  0.21509100  0.52104900  1
  Ag  Ag0  1  0.69761800  0.53050800  0.94678400  1
  Ag  Ag1  1  0.30238200  0.46949200  0.05321600  1
  Ag  Ag2  1  0.20663400  0.15780600  0.13828500  1
  Ag  Ag3  1  0.79336600  0.84219400  0.86171500  1
  P  P0  1  0.68298600  0.32797200  0.09519700  1
  P  P1  1  0.31701400  0.67202800  0.90480300  1
  P  P2  1  0.06711600  0.80780200  0.03969000  1
  P  P3  1  0.93288400  0.19219800  0.96031000  1
  P  P4  1  0.81153700  0.26030900  0.78199700  1
  P  P5  1  0.18846300  0.73969100  0.21800300  1
  P  P6  1  0.80856000  0.50655000  0.72270400  1
  P  P7  1  0.19144000  0.49345000  0.27729600  1
  P  P8  1  0.15388400  0.72257200  0.72963900  1
  P  P9  1  0.84611600  0.27742800  0.27036100  1
  O  O0  1  0.35146200  0.53857900  0.91706300  1
  O  O1  1  0.64853800  0.46142100  0.08293700  1
  O  O2  1  0.13389000  0.68910400  0.96644100  1
  O  O3  1  0.86611000  0.31089600  0.03355900  1
  O  O4  1  0.75790000  0.36085200  0.20438800  1
  O  O5  1  0.24210000  0.63914800  0.79561200  1
  O  O6  1  0.47065500  0.79697100  0.92514400  1
  O  O7  1  0.52934500  0.20302900  0.07485600  1
  O  O8  1  0.87098600  0.80465100  0.00633300  1
  O  O9  1  0.12901400  0.19534900  0.99366700  1
  O  O10  1  0.78262200  0.06495400  0.94853200  1
  O  O11  1  0.21737800  0.93504600  0.05146800  1
  O  O12  1  0.96350000  0.25117300  0.86305300  1
  O  O13  1  0.03650000  0.74882700  0.13694700  1
  O  O14  1  0.62444600  0.26419300  0.82634700  1
  O  O15  1  0.37555400  0.73580700  0.17365300  1
  O  O16  1  0.16946900  0.83496500  0.30751600  1
  O  O17  1  0.83053100  0.16503500  0.69248400  1
  O  O18  1  0.07987600  0.58698600  0.23234200  1
  O  O19  1  0.92012400  0.41301400  0.76765800  1
  O  O20  1  0.72621600  0.58921700  0.80482000  1
  O  O21  1  0.27378400  0.41078300  0.19518000  1
  O  O22  1  0.67924200  0.42173900  0.64337000  1
  O  O23  1  0.32075800  0.57826100  0.35663000  1
  O  O24  1  0.09061300  0.83496500  0.79437900  1
  O  O25  1  0.90938700  0.16503500  0.20562100  1
  O  O26  1  0.71358000  0.24603300  0.34825200  1
  O  O27  1  0.28642000  0.75396700  0.65174800  1
  O  O28  1  0.97882100  0.60402400  0.67930000  1
  O  O29  1  0.02117900  0.39597600  0.32070000  1
  O  O30  1  0.31046500  0.11545300  0.25505400  1
  O  O31  1  0.68953500  0.88454700  0.74494600  1
  O  O32  1  0.74120200  0.87600100  0.44978700  1
  O  O33  1  0.25879800  0.12399900  0.55021300  1
  O  O34  1  0.83560000  0.91852400  0.37789200  1
  O  O35  1  0.16440000  0.08147600  0.62210800  1
  O  O36  1  0.60669500  0.47036000  0.41665500  1
  O  O37  1  0.39330500  0.52964000  0.58334500  1
  O  O38  1  0.83676500  0.85346900  0.51840200  1
  O  O39  1  0.16323500  0.14653100  0.48159800  1
loop_
_geom_bond_atom_site_label_1
_geom_bond_atom_site_label_2
_geom_bond_distance
_geom_bond_site_symmetry_2
K0 O15 2.783391 1_555
K0 O7 2.869315 1_565
K0 O11 2.870857 1_555
K0 O6 2.903275 1_554
K0 O25 2.907077 1_565
K0 O10 2.948011 1_564
K0 O8 3.057991 1_555
K0 O30 3.386134 1_565
K1 O14 2.783391 1_555
K1 O6 2.869315 1_545
K1 O10 2.870857 1_555
K1 O7 2.903275 1_556
K1 O24 2.907077 1_545
K1 O11 2.948011 1_546
K1 O9 3.057991 1_555
K1 O31 3.386134 1_545
K2 O0 2.763476 1_555
K2 O22 2.815527 1_555
K2 O14 2.940805 1_555
K2 O37 3.027922 1_555
K2 O5 3.033413 1_555
K2 O35 3.159184 1_555
K2 O20 3.214647 1_555
K2 O19 3.232193 1_455
K2 O33 3.331107 1_555
K2 O12 3.348564 1_455
K3 O1 2.763476 1_555
K3 O23 2.815527 1_555
K3 O15 2.940805 1_555
K3 O36 3.027922 1_555
K3 O4 3.033413 1_555
K3 O34 3.159184 1_555
K3 O21 3.214647 1_555
K3 O18 3.232193 1_655
K3 O32 3.331107 1_555
K3 O13 3.348564 1_655
K4 O27 2.583823 1_555
K4 O16 2.678939 1_555
K4 O23 2.681891 1_555
K4 O38 3.217289 1_455
K4 O33 3.470620 1_565
K4 O32 3.612496 1_555
K5 O26 2.583823 1_555
K5 O17 2.678939 1_555
K5 O22 2.681891 1_555
K5 O39 3.217289 1_655
K5 O32 3.470620 1_545
K5 O33 3.612496 1_555
Ag0 O1 2.191262 1_556
Ag0 O20 2.216072 1_555
Ag0 O0 2.606202 1_555
Ag0 O8 2.823860 1_556
Ag0 O14 2.918401 1_555
Ag1 O0 2.191262 1_554
Ag1 O21 2.216072 1_555
Ag1 O1 2.606202 1_555
Ag1 O9 2.823860 1_554
Ag1 O15 2.918401 1_555
Ag2 O30 2.009113 1_555
Ag2 O9 2.277633 1_554
Ag2 O25 2.376290 1_455
Ag2 O11 2.440451 1_545
Ag2 O7 2.489317 1_555
Ag2 O21 2.548726 1_555
Ag3 O31 2.009113 1_555
Ag3 O8 2.277633 1_556
Ag3 O24 2.376290 1_655
Ag3 O10 2.440451 1_565
Ag3 O6 2.489317 1_555
Ag3 O20 2.548726 1_555
O0 P1 1.518014 1_555
O1 P0 1.518014 1_555
O2 P1 1.616631 1_555
O2 P2 1.626014 1_556
O3 P0 1.616631 1_555
O3 P3 1.626014 1_554
O4 P0 1.607708 1_555
O4 P9 1.632984 1_555
O5 P1 1.607708 1_555
O5 P8 1.632984 1_555
O6 P1 1.497312 1_555
O7 P0 1.497312 1_555
O8 P2 1.515451 1_655
O9 P3 1.515451 1_455
O10 P3 1.500177 1_555
O11 P2 1.500177 1_555
O12 P3 1.612677 1_555
O12 P4 1.652433 1_555
O13 P2 1.612677 1_555
O13 P5 1.652433 1_555
O14 P4 1.505393 1_555
O15 P5 1.505393 1_555
O16 P5 1.488354 1_555
O17 P4 1.488354 1_555
O18 P7 1.635086 1_555
O18 P5 1.658491 1_555
O19 P6 1.635086 1_555
O19 P4 1.658491 1_555
O20 P6 1.521279 1_555
O21 P7 1.521279 1_555
O22 P6 1.494356 1_555
O22 O37 2.820745 1_555
O22 O36 3.435949 1_555
O23 P7 1.494356 1_555
O23 O36 2.820745 1_555
O23 O37 3.435949 1_555
O24 P8 1.508587 1_555
O25 P9 1.508587 1_555
O26 P9 1.493702 1_555
O26 O36 2.652689 1_555
O27 P8 1.493702 1_555
O27 O37 2.652689 1_555
O28 P6 1.610806 1_555
O28 P8 1.629333 1_655
O28 O37 3.501115 1_655
O29 P7 1.610806 1_555
O29 P9 1.629333 1_455
O29 O36 3.501115 1_455
O32 O38 1.302438 1_555
O32 O34 1.314511 1_555
O33 O39 1.302438 1_555
O33 O35 1.314511 1_555
O36 O37 2.867798 1_555
O36 O4 3.292176 1_555
O37 O5 3.292176 1_555
