# generated using pymatgen
data_Y2MgSe4
_symmetry_space_group_name_H-M   'P 1'
_cell_length_a   4.02311500
_cell_length_b   13.19433700
_cell_length_c   14.14745500
_cell_angle_alpha   90.00000000
_cell_angle_beta   90.00000000
_cell_angle_gamma   90.00000000
_symmetry_Int_Tables_number   1
_chemical_formula_structural   Y2MgSe4
_chemical_formula_sum   'Y8 Mg4 Se16'
_cell_volume   750.97994712
_cell_formula_units_Z   4
loop_
 _symmetry_equiv_pos_site_id
 _symmetry_equiv_pos_as_xyz
  1  'x, y, z'
loop_
 _atom_site_type_symbol
 _atom_site_label
 _atom_site_symmetry_multiplicity
 _atom_site_fract_x
 _atom_site_fract_y
 _atom_site_fract_z
 _atom_site_occupancy
  Y  Y0  1  0.25000000  0.11629100  0.07299200  1
  Y  Y1  1  0.75000000  0.88370900  0.92700800  1
  Y  Y2  1  0.75000000  0.38370900  0.57299200  1
  Y  Y3  1  0.25000000  0.61629100  0.42700800  1
  Y  Y4  1  0.25000000  0.14272300  0.70247200  1
  Y  Y5  1  0.75000000  0.85727700  0.29752800  1
  Y  Y6  1  0.75000000  0.35727700  0.20247200  1
  Y  Y7  1  0.25000000  0.64272300  0.79752800  1
  Mg  Mg0  1  0.75000000  0.10912800  0.45622600  1
  Mg  Mg1  1  0.25000000  0.89087200  0.54377400  1
  Mg  Mg2  1  0.25000000  0.39087200  0.95622600  1
  Mg  Mg3  1  0.75000000  0.60912800  0.04377400  1
  Se  Se0  1  0.75000000  0.00796300  0.61812500  1
  Se  Se1  1  0.25000000  0.99203700  0.38187500  1
  Se  Se2  1  0.25000000  0.49203700  0.11812500  1
  Se  Se3  1  0.75000000  0.50796300  0.88187500  1
  Se  Se4  1  0.25000000  0.02833700  0.88104400  1
  Se  Se5  1  0.75000000  0.97166300  0.11895600  1
  Se  Se6  1  0.75000000  0.47166300  0.38104400  1
  Se  Se7  1  0.25000000  0.52833700  0.61895600  1
  Se  Se8  1  0.25000000  0.22111200  0.24805500  1
  Se  Se9  1  0.75000000  0.77888800  0.75194500  1
  Se  Se10  1  0.75000000  0.27888800  0.74805500  1
  Se  Se11  1  0.25000000  0.72111200  0.25194500  1
  Se  Se12  1  0.75000000  0.26103900  0.01334000  1
  Se  Se13  1  0.25000000  0.73896100  0.98666000  1
  Se  Se14  1  0.25000000  0.23896100  0.51334000  1
  Se  Se15  1  0.75000000  0.76103900  0.48666000  1
loop_
_geom_bond_atom_site_label_1
_geom_bond_atom_site_label_2
_geom_bond_distance
_geom_bond_site_symmetry_2
Mg0 Se0 2.651020 1_555
Mg0 Se1 2.745841 1_645
Mg0 Se1 2.745841 1_545
Mg0 Se14 2.762939 1_655
Mg0 Se14 2.762939 1_555
Mg0 Se8 3.860451 1_655
Mg0 Se8 3.860451 1_555
Mg1 Se1 2.651020 1_555
Mg1 Se0 2.745841 1_465
Mg1 Se0 2.745841 1_565
Mg1 Se15 2.762939 1_455
Mg1 Se15 2.762939 1_555
Mg1 Se9 3.860451 1_455
Mg1 Se9 3.860451 1_555
Mg2 Se2 2.651020 1_556
Mg2 Se3 2.745841 1_455
Mg2 Se3 2.745841 1_555
Mg2 Se12 2.762939 1_456
Mg2 Se12 2.762939 1_556
Mg2 Se10 3.860451 1_455
Mg2 Se10 3.860451 1_555
Mg3 Se3 2.651020 1_554
Mg3 Se2 2.745841 1_555
Mg3 Se2 2.745841 1_655
Mg3 Se13 2.762939 1_554
Mg3 Se13 2.762939 1_654
Mg3 Se11 3.860451 1_555
Mg3 Se11 3.860451 1_655
Se0 Y4 2.938000 1_655
Se0 Y4 2.938000 1_555
Se0 Se9 3.566471 1_545
Se1 Y5 2.938000 1_555
Se1 Y5 2.938000 1_455
Se1 Se8 3.566471 1_565
Se2 Y6 2.938000 1_455
Se2 Y6 2.938000 1_555
Se3 Y7 2.938000 1_655
Se3 Y7 2.938000 1_555
Se4 Y1 2.847932 1_445
Se4 Y1 2.847932 1_545
Se4 Y4 2.942825 1_555
Se4 Y0 2.953151 1_556
Se5 Y0 2.847932 1_665
Se5 Y0 2.847932 1_565
Se5 Y5 2.942825 1_555
Se5 Y1 2.953151 1_554
Se6 Y3 2.847932 1_655
Se6 Y3 2.847932 1_555
Se6 Y6 2.942825 1_555
Se6 Y2 2.953151 1_555
Se7 Y2 2.847932 1_455
Se7 Y2 2.847932 1_555
Se7 Y7 2.942825 1_555
Se7 Y3 2.953151 1_555
Se8 Y6 2.773091 1_455
Se8 Y6 2.773091 1_555
Se8 Y0 2.836694 1_555
Se9 Y7 2.773091 1_655
Se9 Y7 2.773091 1_555
Se9 Y1 2.836694 1_555
Se10 Y4 2.773091 1_555
Se10 Y4 2.773091 1_655
Se10 Y2 2.836694 1_555
Se10 Se3 3.566471 1_555
Se10 Se12 3.760489 1_556
Se11 Y5 2.773091 1_555
Se11 Y5 2.773091 1_455
Se11 Y3 2.836694 1_555
Se11 Se2 3.566471 1_555
Se11 Se13 3.760489 1_554
Se12 Y0 2.899330 1_555
Se12 Y0 2.899330 1_655
Se12 Y6 2.961748 1_555
Se13 Y1 2.899330 1_555
Se13 Y1 2.899330 1_455
Se13 Y7 2.961748 1_555
Se14 Y2 2.899330 1_455
Se14 Y2 2.899330 1_555
Se14 Y4 2.961748 1_555
Se14 Se8 3.760489 1_555
Se15 Y3 2.899330 1_555
Se15 Y3 2.899330 1_655
Se15 Y5 2.961748 1_555
Se15 Se9 3.760489 1_555
