# generated using pymatgen
data_BaSnF4
_symmetry_space_group_name_H-M   'P 1'
_cell_length_a   7.41043185
_cell_length_b   7.41043185
_cell_length_c   7.41043143
_cell_angle_alpha   33.92572483
_cell_angle_beta   33.92572483
_cell_angle_gamma   33.92572847
_symmetry_Int_Tables_number   1
_chemical_formula_structural   BaSnF4
_chemical_formula_sum   'Ba1 Sn1 F4'
_cell_volume   112.97687033
_cell_formula_units_Z   1
loop_
 _symmetry_equiv_pos_site_id
 _symmetry_equiv_pos_as_xyz
  1  'x, y, z'
loop_
 _atom_site_type_symbol
 _atom_site_label
 _atom_site_symmetry_multiplicity
 _atom_site_fract_x
 _atom_site_fract_y
 _atom_site_fract_z
 _atom_site_occupancy
  Ba  Ba0  1  0.00000000  0.00000000  0.00000000  1
  Sn  Sn0  1  0.50000000  0.50000000  0.50000000  1
  F  F0  1  0.62010100  0.62010100  0.62010100  1
  F  F1  1  0.13000500  0.13000500  0.13000500  1
  F  F2  1  0.86999500  0.86999500  0.86999500  1
  F  F3  1  0.37989900  0.37989900  0.37989900  1
loop_
_geom_bond_atom_site_label_1
_geom_bond_atom_site_label_2
_geom_bond_distance
_geom_bond_site_symmetry_2
Ba0 F3 2.680001 1_554
Ba0 F0 2.680001 1_445
Ba0 F3 2.680002 1_545
Ba0 F0 2.680002 1_454
Ba0 F0 2.680002 1_544
Ba0 F3 2.680002 1_455
Ba0 F1 2.721235 1_555
Ba0 F2 2.721235 1_444
F0 Sn0 2.513927 1_555
F0 F2 3.046759 1_554
F0 F2 3.046760 1_455
F0 F2 3.046760 1_545
F0 F3 3.167418 1_556
F0 F3 3.167419 1_655
F0 F3 3.167419 1_565
F1 Sn0 2.611754 1_554
F1 Sn0 2.611754 1_455
F1 Sn0 2.611754 1_545
F1 F2 2.930518 1_445
F1 F2 2.930518 1_454
F1 F2 2.930518 1_544
F1 F3 3.046759 1_554
F1 F3 3.046760 1_455
F1 F3 3.046760 1_545
F2 Sn0 2.611754 1_556
F2 Sn0 2.611754 1_655
F2 Sn0 2.611754 1_565
F3 Sn0 2.513927 1_555
