# generated using pymatgen
data_Li3V2(OF)4
_symmetry_space_group_name_H-M   'P 1'
_cell_length_a   3.62046300
_cell_length_b   6.46396000
_cell_length_c   6.93538786
_cell_angle_alpha   66.84359405
_cell_angle_beta   90.00000000
_cell_angle_gamma   90.00000000
_symmetry_Int_Tables_number   1
_chemical_formula_structural   Li3V2(OF)4
_chemical_formula_sum   'Li3 V2 O4 F4'
_cell_volume   149.22942602
_cell_formula_units_Z   1
loop_
 _symmetry_equiv_pos_site_id
 _symmetry_equiv_pos_as_xyz
  1  'x, y, z'
loop_
 _atom_site_type_symbol
 _atom_site_label
 _atom_site_symmetry_multiplicity
 _atom_site_fract_x
 _atom_site_fract_y
 _atom_site_fract_z
 _atom_site_occupancy
  Li  Li0  1  0.50000000  0.36251600  0.36558000  1
  Li  Li1  1  0.00000000  0.62300300  0.57682100  1
  Li  Li2  1  0.50000000  0.64484400  0.84966700  1
  V  V0  1  0.00000000  0.13006900  0.78585700  1
  V  V1  1  0.50000000  0.88089000  0.21124900  1
  O  O0  1  0.50000000  0.07856700  0.86423300  1
  O  O1  1  0.50000000  0.69930000  0.46785700  1
  O  O2  1  0.00000000  0.30028100  0.53015300  1
  O  O3  1  0.00000000  0.91842900  0.14326200  1
  F  F0  1  0.50000000  0.14517100  0.25933000  1
  F  F1  1  0.50000000  0.62458900  0.12192200  1
  F  F2  1  0.00000000  0.40081800  0.85578000  1
  F  F3  1  0.00000000  0.84086600  0.74432700  1
loop_
_geom_bond_atom_site_label_1
_geom_bond_atom_site_label_2
_geom_bond_distance
_geom_bond_site_symmetry_2
Li0 O2 2.092939 1_555
Li0 O2 2.092939 1_655
Li0 O1 2.541018 1_555
Li1 O1 1.948881 1_555
Li1 O1 1.948881 1_455
Li1 O2 2.233255 1_555
Li2 O1 2.530361 1_555
O0 V0 1.881731 1_655
O0 V0 1.881731 1_555
O0 V1 2.237468 1_546
O1 V1 1.703552 1_555
O2 V0 1.679563 1_555
O3 V1 1.862300 1_555
O3 V1 1.862300 1_455
O3 V0 2.312727 1_564
F0 Li0 1.825098 1_555
F0 V1 1.864809 1_545
F1 Li2 1.840648 1_554
F1 Li0 1.863845 1_555
F1 V1 1.983871 1_555
F2 Li1 1.902724 1_555
F2 V0 1.991369 1_555
F2 Li2 2.390450 1_455
F2 Li2 2.390450 1_555
F3 V0 2.000269 1_565
F3 Li1 2.149295 1_555
F3 Li2 2.165206 1_455
F3 Li2 2.165206 1_555
F3 O0 2.708174 1_465
F3 O0 2.708174 1_565
F3 O2 2.748799 1_565
