# generated using pymatgen
data_Na(Mo2O3)2
_symmetry_space_group_name_H-M   'P 1'
_cell_length_a   8.03346300
_cell_length_b   7.66953300
_cell_length_c   7.66953300
_cell_angle_alpha   90.00000000
_cell_angle_beta   90.00000000
_cell_angle_gamma   90.00000000
_symmetry_Int_Tables_number   1
_chemical_formula_structural   Na(Mo2O3)2
_chemical_formula_sum   'Na2 Mo8 O12'
_cell_volume   472.54224327
_cell_formula_units_Z   2
loop_
 _symmetry_equiv_pos_site_id
 _symmetry_equiv_pos_as_xyz
  1  'x, y, z'
loop_
 _atom_site_type_symbol
 _atom_site_label
 _atom_site_symmetry_multiplicity
 _atom_site_fract_x
 _atom_site_fract_y
 _atom_site_fract_z
 _atom_site_occupancy
  Na  Na0  1  0.00000000  0.50000000  0.50000000  1
  Na  Na1  1  0.00000000  0.00000000  0.00000000  1
  Mo  Mo0  1  0.00000000  0.34491600  0.15508400  1
  Mo  Mo1  1  0.00000000  0.15508400  0.65508300  1
  Mo  Mo2  1  0.00000000  0.84491600  0.34491600  1
  Mo  Mo3  1  0.00000000  0.65508300  0.84491600  1
  Mo  Mo4  1  0.50000000  0.75595000  0.74404900  1
  Mo  Mo5  1  0.50000000  0.25595000  0.75595000  1
  Mo  Mo6  1  0.50000000  0.74404900  0.24405000  1
  Mo  Mo7  1  0.50000000  0.24405000  0.25595000  1
  O  O0  1  0.50000000  0.49576300  0.25025500  1
  O  O1  1  0.50000000  0.50423700  0.74974500  1
  O  O2  1  0.50000000  0.25025500  0.50423700  1
  O  O3  1  0.50000000  0.74974500  0.49576300  1
  O  O4  1  0.50000000  0.75025500  0.99576300  1
  O  O5  1  0.50000000  0.00423700  0.75025500  1
  O  O6  1  0.50000000  0.99576300  0.24974500  1
  O  O7  1  0.50000000  0.24974500  0.00423700  1
  O  O8  1  0.00000000  0.85901200  0.64098800  1
  O  O9  1  0.00000000  0.35901300  0.85901200  1
  O  O10  1  0.00000000  0.14098700  0.35901300  1
  O  O11  1  0.00000000  0.64098800  0.14098700  1
loop_
_geom_bond_atom_site_label_1
_geom_bond_atom_site_label_2
_geom_bond_distance
_geom_bond_site_symmetry_2
Na0 O9 2.958163 1_555
Na0 O8 2.958166 1_555
Na0 O10 2.958170 1_555
Na0 O11 2.958173 1_555
Na1 O11 2.958163 1_545
Na1 O8 2.958166 1_544
Na1 O10 2.958170 1_555
Na1 O9 2.958173 1_554
Mo0 O10 2.211887 1_555
Mo0 O11 2.273306 1_555
Mo0 O9 2.273306 1_554
Mo0 Na0 2.900444 1_555
Mo0 Na1 2.900444 1_555
Mo1 O9 2.211887 1_555
Mo1 O10 2.273291 1_555
Mo1 O8 2.273306 1_545
Mo1 Na0 2.900440 1_555
Mo1 Na1 2.900451 1_556
Mo2 O11 2.211881 1_555
Mo2 O10 2.273299 1_565
Mo2 O8 2.273306 1_555
Mo2 Na1 2.900444 1_565
Mo2 Na0 2.900444 1_555
Mo3 O8 2.211881 1_555
Mo3 O9 2.273291 1_555
Mo3 O11 2.273298 1_556
Mo3 Na0 2.900440 1_555
Mo3 Na1 2.900451 1_566
Mo4 O3 1.904832 1_555
Mo4 O5 1.904840 1_565
Mo4 O1 1.931015 1_555
Mo4 O4 1.931023 1_555
Mo5 O7 1.904840 1_556
Mo5 O1 1.904840 1_555
Mo5 O2 1.931015 1_555
Mo5 O5 1.931015 1_555
Mo6 O0 1.904832 1_555
Mo6 O4 1.904840 1_554
Mo6 O3 1.931015 1_555
Mo6 O6 1.931023 1_555
Mo7 O2 1.904840 1_555
Mo7 O6 1.904840 1_545
Mo7 O0 1.931015 1_555
Mo7 O7 1.931015 1_555
