# generated using pymatgen
data_Eu3Tc
_symmetry_space_group_name_H-M   'P 1'
_cell_length_a   5.44042301
_cell_length_b   5.44042301
_cell_length_c   5.44042301
_cell_angle_alpha   60.00000000
_cell_angle_beta   60.00000000
_cell_angle_gamma   60.00000000
_symmetry_Int_Tables_number   1
_chemical_formula_structural   Eu3Tc
_chemical_formula_sum   'Eu3 Tc1'
_cell_volume   113.86310102
_cell_formula_units_Z   1
loop_
 _symmetry_equiv_pos_site_id
 _symmetry_equiv_pos_as_xyz
  1  'x, y, z'
loop_
 _atom_site_type_symbol
 _atom_site_label
 _atom_site_symmetry_multiplicity
 _atom_site_fract_x
 _atom_site_fract_y
 _atom_site_fract_z
 _atom_site_occupancy
  Eu  Eu0  1  0.00000000  0.00000000  0.00000000  1
  Eu  Eu1  1  0.50000100  0.50000100  0.50000100  1
  Eu  Eu2  1  0.25000000  0.25000000  0.25000000  1
  Tc  Tc0  1  0.75000000  0.75000000  0.75000000  1
loop_
_geom_bond_atom_site_label_1
_geom_bond_atom_site_label_2
_geom_bond_distance
_geom_bond_site_symmetry_2
Eu0 Tc0 3.331565 1_454
Eu0 Eu2 3.331565 1_555
Eu0 Eu2 3.331565 1_545
Eu0 Tc0 3.331565 1_444
Eu0 Eu2 3.331565 1_554
Eu0 Tc0 3.331565 1_445
Eu0 Eu2 3.331565 1_455
Eu0 Tc0 3.331565 1_544
Eu0 Eu1 3.846952 1_544
Eu0 Eu1 3.846952 1_445
Eu0 Eu1 3.846952 1_454
Eu0 Eu1 3.846968 1_545
Eu0 Eu1 3.846968 1_554
Eu0 Eu1 3.846968 1_455
Eu1 Tc0 3.331552 1_555
Eu1 Eu2 3.331561 1_565
Eu1 Eu2 3.331561 1_556
Eu1 Eu2 3.331561 1_655
Eu1 Tc0 3.331570 1_554
Eu1 Tc0 3.331570 1_545
Eu1 Tc0 3.331570 1_455
Eu1 Eu2 3.331578 1_555
Eu2 Tc0 3.846960 1_545
Eu2 Tc0 3.846960 1_544
Eu2 Tc0 3.846960 1_445
Eu2 Tc0 3.846960 1_455
Eu2 Tc0 3.846960 1_554
Eu2 Tc0 3.846960 1_454
