# generated using pymatgen
data_MgAg4(RuO3)4
_symmetry_space_group_name_H-M   'P 1'
_cell_length_a   7.28377972
_cell_length_b   7.31942351
_cell_length_c   7.32911038
_cell_angle_alpha   60.04127233
_cell_angle_beta   89.97624621
_cell_angle_gamma   120.16168475
_symmetry_Int_Tables_number   1
_chemical_formula_structural   MgAg4(RuO3)4
_chemical_formula_sum   'Mg1 Ag4 Ru4 O12'
_cell_volume   275.73090865
_cell_formula_units_Z   1
loop_
 _symmetry_equiv_pos_site_id
 _symmetry_equiv_pos_as_xyz
  1  'x, y, z'
loop_
 _atom_site_type_symbol
 _atom_site_label
 _atom_site_symmetry_multiplicity
 _atom_site_fract_x
 _atom_site_fract_y
 _atom_site_fract_z
 _atom_site_occupancy
  Mg  Mg0  1  0.20722700  0.97365400  0.76014100  1
  Ag  Ag0  1  0.43481200  0.45663700  0.02142800  1
  Ag  Ag1  1  0.02598100  0.05765600  0.02655400  1
  Ag  Ag2  1  0.02613200  0.44199600  0.02649200  1
  Ag  Ag3  1  0.02762500  0.05882000  0.41018400  1
  Ru  Ru0  1  0.50778800  0.99994800  0.00787100  1
  Ru  Ru1  1  0.50973100  0.00140900  0.49168600  1
  Ru  Ru2  1  0.50973200  0.51665900  0.49168000  1
  Ru  Ru3  1  0.00047700  0.49993200  0.50054800  1
  O  O0  1  0.82172100  0.25183200  0.43357100  1
  O  O1  1  0.57061600  0.13518000  0.18249100  1
  O  O2  1  0.57060600  0.75281900  0.18239200  1
  O  O3  1  0.82321000  0.25314800  0.81677200  1
  O  O4  1  0.82166200  0.63618000  0.43356900  1
  O  O5  1  0.41919800  0.24137800  0.43646200  1
  O  O6  1  0.56428300  0.74770800  0.56883200  1
  O  O7  1  0.17829500  0.75381800  0.17070200  1
  O  O8  1  0.17711200  0.34391800  0.57653000  1
  O  O9  1  0.41523300  0.23732700  0.82247800  1
  O  O10  1  0.41516100  0.85554500  0.82242400  1
  O  O11  1  0.17710300  0.75665800  0.57645200  1
loop_
_geom_bond_atom_site_label_1
_geom_bond_atom_site_label_2
_geom_bond_distance
_geom_bond_site_symmetry_2
Mg0 O5 2.040899 1_565
Mg0 O10 2.042477 1_555
Mg0 O9 2.042490 1_565
Mg0 O8 2.481719 1_565
Mg0 O11 2.483728 1_555
Mg0 O7 2.551644 1_556
Ag0 O5 2.604054 1_555
Ag0 O9 2.613626 1_554
Ag0 O10 2.615293 1_554
Ag0 O6 2.711422 1_554
Ag0 O2 2.733190 1_555
Ag0 O1 2.733805 1_555
Ag0 Ag3 2.902038 1_555
Ag0 Ag1 2.923831 1_555
Ag0 Ag2 2.923900 1_555
Ag1 O9 2.508038 1_554
Ag1 O3 2.553628 1_454
Ag1 O4 2.611912 1_445
Ag1 O8 2.694000 1_554
Ag1 O2 2.701710 1_445
Ag1 O7 2.725156 1_545
Ag1 Ag2 2.812368 1_555
Ag1 Ag3 2.815943 1_555
Ag1 Mg0 2.818853 1_544
Ag2 O10 2.506890 1_554
Ag2 O3 2.555119 1_454
Ag2 O0 2.611865 1_455
Ag2 O11 2.694045 1_554
Ag2 O1 2.702559 1_455
Ag2 O7 2.724509 1_555
Ag2 Ag3 2.815607 1_555
Ag2 Mg0 2.818977 1_554
Ag3 O5 2.526861 1_555
Ag3 O0 2.577835 1_455
Ag3 O4 2.579990 1_445
Ag3 O8 2.699124 1_555
Ag3 O11 2.700161 1_545
Ag3 O6 2.748977 1_445
Ag3 Mg0 2.811384 1_545
O0 Ru1 1.933657 1_555
O0 Ru3 1.936176 1_655
O0 O8 2.684624 1_655
O0 O7 2.700715 1_655
O1 Ru1 1.907211 1_555
O1 Ru0 1.907245 1_545
O1 O3 2.720863 1_554
O1 O5 2.755025 1_555
O1 O9 2.772091 1_554
O2 Ru2 1.907484 1_555
O2 Ru0 1.907541 1_555
O2 O3 2.720483 1_564
O2 O5 2.754063 1_555
O3 Ru3 1.942694 1_655
O3 Ru0 1.949586 1_546
O3 O8 2.700620 1_655
O4 Ru2 1.933537 1_555
O4 Ru3 1.936152 1_655
O4 O7 2.700422 1_655
O5 Ru1 2.034161 1_555
O5 Ru2 2.034183 1_555
O5 O8 2.612333 1_555
O6 Ru2 1.902002 1_555
O6 Ru1 1.902322 1_565
O6 O9 2.752600 1_555
O7 Ru0 1.983723 1_555
O7 Ru3 2.016680 1_555
O7 O9 2.618121 1_564
O8 Ru2 1.997561 1_555
O8 Ru3 2.027612 1_555
O8 O9 2.612274 1_555
O9 Ru0 2.034569 1_546
O9 Ru2 2.040995 1_555
O10 Ru0 2.034353 1_556
O10 Ru1 2.040844 1_565
O10 O11 2.612482 1_555
O10 O7 2.617982 1_556
O10 O6 2.753577 1_555
O10 O2 2.772069 1_556
O11 Ru1 1.997709 1_565
O11 Ru3 2.027541 1_555
O11 O5 2.612604 1_565
O11 O4 2.684647 1_455
O11 O3 2.701083 1_455
