# generated using pymatgen
data_BaMnO3
_symmetry_space_group_name_H-M   'P 1'
_cell_length_a   4.88190519
_cell_length_b   5.72208317
_cell_length_c   9.90914985
_cell_angle_alpha   90.00017607
_cell_angle_beta   90.00024693
_cell_angle_gamma   90.00000629
_symmetry_Int_Tables_number   1
_chemical_formula_structural   BaMnO3
_chemical_formula_sum   'Ba4 Mn4 O12'
_cell_volume   276.80880654
_cell_formula_units_Z   4
loop_
 _symmetry_equiv_pos_site_id
 _symmetry_equiv_pos_as_xyz
  1  'x, y, z'
loop_
 _atom_site_type_symbol
 _atom_site_label
 _atom_site_symmetry_multiplicity
 _atom_site_fract_x
 _atom_site_fract_y
 _atom_site_fract_z
 _atom_site_occupancy
  Ba  Ba0  1  0.26817135  0.00000100  0.33333166  1
  Ba  Ba1  1  0.26817314  0.50000200  0.83333232  1
  Ba  Ba2  1  0.76817025  0.49999900  0.16666882  1
  Ba  Ba3  1  0.76816964  0.99999900  0.66666824  1
  Mn  Mn0  1  0.53377229  0.50000000  0.50001237  1
  Mn  Mn1  1  0.03378581  0.00000000  0.99998787  1
  Mn  Mn2  1  0.53375984  -0.00000000  0.00000654  1
  Mn  Mn3  1  0.03375502  0.50000000  0.49998795  1
  O  O0  1  0.28398149  0.49999800  0.35226200  1
  O  O1  1  0.28398227  0.99999800  0.85226291  1
  O  O2  1  0.28403990  0.77845743  0.07384299  1
  O  O3  1  0.28404038  0.27845543  0.57384329  1
  O  O4  1  0.28404090  0.22154257  0.07384299  1
  O  O5  1  0.28404138  0.72154457  0.57384429  1
  O  O6  1  0.78398133  0.00000200  0.14773898  1
  O  O7  1  0.78398105  0.50000200  0.64773814  1
  O  O8  1  0.78404055  0.72154372  0.42615757  1
  O  O9  1  0.78404042  0.22154620  0.92615724  1
  O  O10  1  0.78404155  0.27845628  0.42615657  1
  O  O11  1  0.78404142  0.77845480  0.92615524  1
loop_
_geom_bond_atom_site_label_1
_geom_bond_atom_site_label_2
_geom_bond_distance
_geom_bond_site_symmetry_2
Ba0 O3 2.867867 1_555
Ba0 O2 2.867868 1_545
Ba0 O4 2.867870 1_555
Ba0 O5 2.867890 1_545
Ba0 O0 2.868205 1_555
Ba0 O0 2.868241 1_545
Ba0 O6 2.994918 1_455
Ba0 O10 2.995135 1_455
Ba0 O8 2.995151 1_445
Ba0 O6 3.118206 1_555
Ba0 O10 3.118856 1_555
Ba0 O8 3.118864 1_545
Ba1 O2 2.867862 1_556
Ba1 O5 2.867867 1_555
Ba1 O3 2.867879 1_555
Ba1 O4 2.867883 1_556
Ba1 O1 2.868200 1_555
Ba1 O1 2.868247 1_545
Ba1 O7 2.994935 1_455
Ba1 O11 2.995129 1_455
Ba1 O9 2.995151 1_455
Ba1 O7 3.118207 1_555
Ba1 O11 3.118836 1_555
Ba1 O9 3.118849 1_555
Ba2 O9 2.867862 1_554
Ba2 O10 2.867865 1_555
Ba2 O8 2.867872 1_555
Ba2 O11 2.867897 1_554
Ba2 O6 2.868205 1_555
Ba2 O6 2.868241 1_565
Ba2 O0 2.994928 1_555
Ba2 O4 2.995133 1_555
Ba2 O2 2.995147 1_555
Ba2 O0 3.118201 1_655
Ba2 O4 3.118871 1_655
Ba2 O2 3.118875 1_655
Ba3 O11 2.867862 1_555
Ba3 O8 2.867863 1_555
Ba3 O9 2.867880 1_565
Ba3 O10 2.867886 1_565
Ba3 O7 2.868205 1_555
Ba3 O7 2.868241 1_565
Ba3 O1 2.994932 1_555
Ba3 O5 2.995117 1_555
Ba3 O3 2.995134 1_565
Ba3 O1 3.118215 1_655
Ba3 O5 3.118864 1_655
Ba3 O3 3.118871 1_665
Mn0 O5 1.904907 1_555
Mn0 O3 1.904909 1_555
Mn0 O0 1.905410 1_555
Mn0 O7 1.906529 1_555
Mn0 O8 1.906673 1_555
Mn0 O10 1.906677 1_555
Mn1 O11 1.904950 1_445
Mn1 O9 1.904952 1_455
Mn1 O6 1.905466 1_456
Mn1 O1 1.906493 1_545
Mn1 O4 1.906622 1_556
Mn1 O2 1.906622 1_546
Mn2 O4 1.904879 1_555
Mn2 O2 1.904885 1_545
Mn2 O1 1.905317 1_544
Mn2 O6 1.906620 1_555
Mn2 O9 1.906700 1_554
Mn2 O11 1.906704 1_544
Mn3 O10 1.904843 1_455
Mn3 O8 1.904845 1_455
Mn3 O7 1.905364 1_455
Mn3 O0 1.906594 1_555
Mn3 O3 1.906728 1_555
Mn3 O5 1.906732 1_555
