# generated using pymatgen
data_UFe5Si2Ni5
_symmetry_space_group_name_H-M   'P 1'
_cell_length_a   4.83730700
_cell_length_b   6.23803067
_cell_length_c   6.29635244
_cell_angle_alpha   83.96792459
_cell_angle_beta   112.52914050
_cell_angle_gamma   111.80821140
_symmetry_Int_Tables_number   1
_chemical_formula_structural   UFe5Si2Ni5
_chemical_formula_sum   'U1 Fe5 Si2 Ni5'
_cell_volume   162.78115597
_cell_formula_units_Z   1
loop_
 _symmetry_equiv_pos_site_id
 _symmetry_equiv_pos_as_xyz
  1  'x, y, z'
loop_
 _atom_site_type_symbol
 _atom_site_label
 _atom_site_symmetry_multiplicity
 _atom_site_fract_x
 _atom_site_fract_y
 _atom_site_fract_z
 _atom_site_occupancy
  U  U0  1  0.00000000  0.00000000  0.00000000  1
  Fe  Fe0  1  0.72083400  0.22471800  0.22173400  1
  Fe  Fe1  1  0.27916600  0.77528200  0.77826600  1
  Fe  Fe2  1  0.50139700  0.77747200  0.22046400  1
  Fe  Fe3  1  0.49860300  0.22252800  0.77953600  1
  Fe  Fe4  1  0.50000000  0.50000000  0.00000000  1
  Si  Si0  1  0.99531700  0.35074000  0.64593700  1
  Si  Si1  1  0.00468300  0.64926000  0.35406300  1
  Ni  Ni0  1  0.66871200  0.65687700  0.66026800  1
  Ni  Ni1  1  0.33128800  0.34312300  0.33973200  1
  Ni  Ni2  1  0.00000000  0.50000000  0.00000000  1
  Ni  Ni3  1  0.50000000  0.00000000  0.50000000  1
  Ni  Ni4  1  0.00000000  0.00000000  0.50000000  1
loop_
_geom_bond_atom_site_label_1
_geom_bond_atom_site_label_2
_geom_bond_distance
_geom_bond_site_symmetry_2
Fe0 Fe4 2.399031 1_555
Fe0 Ni4 2.436309 1_655
Fe0 Ni2 2.437103 1_655
Fe0 Ni3 2.445676 1_555
Fe0 Si0 2.542239 1_555
Fe0 Si1 2.545258 1_655
Fe0 Fe3 2.571237 1_554
Fe0 Ni1 2.575079 1_655
Fe0 Fe2 2.590049 1_545
Fe0 Ni1 2.621183 1_555
Fe0 U0 3.000059 1_655
Fe0 U0 3.020221 1_555
Fe1 Fe4 2.399031 1_556
Fe1 Ni4 2.436309 1_565
Fe1 Ni2 2.437103 1_556
Fe1 Ni3 2.445676 1_565
Fe1 Si1 2.542239 1_555
Fe1 Si0 2.545258 1_455
Fe1 Fe2 2.571237 1_556
Fe1 Ni0 2.575079 1_455
Fe1 Fe3 2.590049 1_565
Fe1 Ni0 2.621183 1_555
Fe1 U0 3.000059 1_566
Fe1 U0 3.020221 1_666
Fe2 Fe4 2.326360 1_555
Fe2 Ni3 2.356765 1_565
Fe2 Ni2 2.368807 1_555
Fe2 Ni4 2.369562 1_665
Fe2 Ni1 2.640393 1_555
Fe2 Si1 2.647694 1_655
Fe2 Si1 2.664604 1_555
Fe2 Ni0 2.680730 1_555
Fe2 U0 3.041876 1_565
Fe2 U0 3.056805 1_665
Fe3 Fe4 2.326360 1_556
Fe3 Ni3 2.356765 1_555
Fe3 Ni2 2.368807 1_656
Fe3 Ni4 2.369562 1_555
Fe3 Ni0 2.640393 1_555
Fe3 Si0 2.647694 1_455
Fe3 Si0 2.664604 1_555
Fe3 Ni1 2.680730 1_555
Fe3 U0 3.041876 1_656
Fe3 U0 3.056805 1_556
Fe4 Ni2 2.418654 1_655
Fe4 Ni2 2.418654 1_555
Fe4 Si1 2.524578 1_655
Fe4 Si0 2.524578 1_454
Fe4 Ni0 2.550244 1_554
Fe4 Ni1 2.550244 1_555
Fe4 U0 3.158017 1_555
Fe4 U0 3.158017 1_665
Si0 Si1 2.475666 1_655
Si0 U0 2.954716 1_656
Si1 U0 2.954716 1_565
Ni0 Ni2 2.489947 1_656
Ni0 Ni4 2.530710 1_665
Ni0 Ni3 2.545299 1_565
Ni0 Ni1 2.549554 1_555
Ni0 U0 2.740796 1_666
Ni0 Si0 2.922034 1_555
Ni0 Si1 2.972932 1_655
Ni0 Si1 3.032693 1_555
Ni0 Si0 3.074874 1_455
Ni1 Ni2 2.489947 1_555
Ni1 Ni4 2.530710 1_555
Ni1 Ni3 2.545299 1_555
Ni1 U0 2.740796 1_555
Ni1 Si1 2.922034 1_555
Ni1 Si0 2.972932 1_455
Ni1 Si0 3.032693 1_555
Ni1 Si1 3.074874 1_655
Ni2 Si1 2.493816 1_555
Ni2 Si0 2.493816 1_454
Ni2 U0 3.119015 1_565
Ni2 U0 3.119015 1_555
Ni3 Ni4 2.418654 1_555
Ni3 Ni4 2.418654 1_655
Ni3 Si0 2.492502 1_555
Ni3 Si1 2.492502 1_545
Ni3 U0 3.150551 1_555
Ni3 U0 3.150551 1_656
Ni4 Si0 2.471269 1_455
Ni4 Si1 2.471269 1_545
Ni4 U0 3.148176 1_556
Ni4 U0 3.148176 1_555
