# generated using pymatgen
data_Ca3SmMn4O12
_symmetry_space_group_name_H-M   'P 1'
_cell_length_a   7.66679200
_cell_length_b   5.36089900
_cell_length_c   5.45726299
_cell_angle_alpha   89.86128714
_cell_angle_beta   90.00000000
_cell_angle_gamma   90.00000000
_symmetry_Int_Tables_number   1
_chemical_formula_structural   Ca3SmMn4O12
_chemical_formula_sum   'Ca3 Sm1 Mn4 O12'
_cell_volume   224.29774994
_cell_formula_units_Z   1
loop_
 _symmetry_equiv_pos_site_id
 _symmetry_equiv_pos_as_xyz
  1  'x, y, z'
loop_
 _atom_site_type_symbol
 _atom_site_label
 _atom_site_symmetry_multiplicity
 _atom_site_fract_x
 _atom_site_fract_y
 _atom_site_fract_z
 _atom_site_occupancy
  Ca  Ca0  1  0.50000000  0.00718000  0.04615600  1
  Ca  Ca1  1  0.00000000  0.50575700  0.45593000  1
  Ca  Ca2  1  0.00000000  0.99409300  0.95726900  1
  Sm  Sm0  1  0.50000000  0.48786100  0.54982700  1
  Mn  Mn0  1  0.24717400  0.50172400  0.00235600  1
  Mn  Mn1  1  0.75291300  0.99802900  0.49973700  1
  Mn  Mn2  1  0.75282600  0.50172400  0.00235600  1
  Mn  Mn3  1  0.24708700  0.99802900  0.49973700  1
  O  O0  1  0.29581700  0.21138700  0.78770500  1
  O  O1  1  0.71138900  0.29596700  0.29485700  1
  O  O2  1  0.78911700  0.79798200  0.20385900  1
  O  O3  1  0.21633800  0.69927000  0.70076800  1
  O  O4  1  0.21088300  0.79798200  0.20385900  1
  O  O5  1  0.78366200  0.69927000  0.70076800  1
  O  O6  1  0.70418300  0.21138700  0.78770500  1
  O  O7  1  0.28861100  0.29596700  0.29485700  1
  O  O8  1  0.50000000  0.57408000  0.98576900  1
  O  O9  1  0.50000000  0.92377200  0.48143500  1
  O  O10  1  0.00000000  0.42477700  0.01929200  1
  O  O11  1  0.00000000  0.07376100  0.52576300  1
loop_
_geom_bond_atom_site_label_1
_geom_bond_atom_site_label_2
_geom_bond_distance
_geom_bond_site_symmetry_2
Ca0 O8 2.345866 1_544
Ca0 O6 2.372943 1_554
Ca0 O0 2.372943 1_554
Ca0 O9 2.416086 1_545
Ca0 O1 2.622140 1_555
Ca0 O7 2.622140 1_555
Ca0 O2 2.628128 1_545
Ca0 O4 2.628128 1_545
Ca1 O11 2.346123 1_555
Ca1 O3 2.370489 1_555
Ca1 O5 2.370489 1_455
Ca1 O10 2.423106 1_555
Ca1 O7 2.634095 1_555
Ca1 O1 2.634095 1_455
Ca1 O4 2.636308 1_555
Ca1 O2 2.636308 1_455
Ca1 O10 3.103873 1_556
Ca2 O10 2.334342 1_566
Ca2 O4 2.350192 1_556
Ca2 O2 2.350192 1_456
Ca2 O11 2.392241 1_565
Ca2 O3 2.686853 1_555
Ca2 O5 2.686853 1_455
Ca2 O6 2.711404 1_465
Ca2 O0 2.711404 1_565
Mn0 O10 1.941562 1_555
Mn0 O4 1.953848 1_555
Mn0 O7 1.963959 1_555
Mn0 O3 1.969210 1_554
Mn0 O8 1.978823 1_554
Mn0 O0 1.985622 1_554
Mn1 O11 1.942652 1_665
Mn1 O5 1.953414 1_555
Mn1 O2 1.960292 1_555
Mn1 O1 1.973300 1_565
Mn1 O6 1.981466 1_565
Mn1 O9 1.982040 1_555
Mn2 O10 1.941562 1_655
Mn2 O2 1.953848 1_555
Mn2 O1 1.963959 1_555
Mn2 O5 1.969210 1_554
Mn2 O8 1.978823 1_554
Mn2 O6 1.985622 1_554
Mn3 O11 1.942652 1_565
Mn3 O3 1.953414 1_555
Mn3 O4 1.960292 1_555
Mn3 O7 1.973300 1_565
Mn3 O0 1.981466 1_565
Mn3 O9 1.982040 1_555
O0 Sm0 2.514606 1_555
O1 Sm0 2.372318 1_555
O3 Sm0 2.587888 1_555
O5 Sm0 2.587888 1_555
O6 Sm0 2.514606 1_555
O7 Sm0 2.372318 1_555
O8 Sm0 2.424633 1_555
O9 Sm0 2.365600 1_555
