# generated using pymatgen
data_Tm5P12Ir19
_symmetry_space_group_name_H-M   'P 1'
_cell_length_a   12.62260373
_cell_length_b   12.62223034
_cell_length_c   3.94138141
_cell_angle_alpha   89.99999758
_cell_angle_beta   89.99999849
_cell_angle_gamma   119.99905427
_symmetry_Int_Tables_number   1
_chemical_formula_structural   Tm5P12Ir19
_chemical_formula_sum   'Tm5 P12 Ir19'
_cell_volume   543.83641420
_cell_formula_units_Z   1
loop_
 _symmetry_equiv_pos_site_id
 _symmetry_equiv_pos_as_xyz
  1  'x, y, z'
loop_
 _atom_site_type_symbol
 _atom_site_label
 _atom_site_symmetry_multiplicity
 _atom_site_fract_x
 _atom_site_fract_y
 _atom_site_fract_z
 _atom_site_occupancy
  Tm  Tm0  1  0.33332494  0.66667203  0.49999997  1
  Tm  Tm1  1  0.66668774  0.33332316  0.49999995  1
  Tm  Tm2  1  0.18188275  0.18190297  -0.00000004  1
  Tm  Tm3  1  0.81809890  0.00002538  0.00000004  1
  Tm  Tm4  1  0.00000181  0.81810188  -0.00000006  1
  P  P0  1  0.31218729  0.82921477  -0.00000001  1
  P  P1  1  0.17077157  0.48297800  -0.00000004  1
  P  P2  1  0.51702845  0.68779791  -0.00000003  1
  P  P3  1  0.82924683  0.31221401  0.00000009  1
  P  P4  1  0.48297760  0.17074859  0.00000001  1
  P  P5  1  0.68781342  0.51702923  -0.00000001  1
  P  P6  1  0.35475696  0.35478551  0.49999999  1
  P  P7  1  0.64523697  0.00001051  0.50000002  1
  P  P8  1  0.00000505  0.64520606  0.49999995  1
  P  P9  1  0.82236976  0.82236452  0.49999995  1
  P  P10  1  0.17763118  -0.00000855  0.50000002  1
  P  P11  1  0.00000182  0.17765780  0.49999998  1
  Ir  Ir0  1  0.19302443  0.81919782  0.50000008  1
  Ir  Ir1  1  0.18076921  0.37383416  0.49999996  1
  Ir  Ir2  1  0.62617596  0.80696353  0.49999997  1
  Ir  Ir3  1  0.81922493  0.19304672  0.50000014  1
  Ir  Ir4  1  0.37380400  0.18079102  0.50000005  1
  Ir  Ir5  1  0.80697450  0.62616631  0.49999999  1
  Ir  Ir6  1  0.13468407  0.63997808  0.00000008  1
  Ir  Ir7  1  0.35999893  0.49469675  -0.00000018  1
  Ir  Ir8  1  0.50526812  0.86527064  -0.00000001  1
  Ir  Ir9  1  0.64002218  0.13474312  0.00000004  1
  Ir  Ir10  1  0.49471501  0.35998709  0.00000008  1
  Ir  Ir11  1  0.86530730  0.50530838  0.00000001  1
  Ir  Ir12  1  0.53408245  0.53407207  0.49999991  1
  Ir  Ir13  1  0.46597159  0.00004988  0.49999995  1
  Ir  Ir14  1  0.99993839  0.46588606  0.50000012  1
  Ir  Ir15  1  0.71569938  0.71568901  -0.00000003  1
  Ir  Ir16  1  0.28431671  -0.00001330  0.00000012  1
  Ir  Ir17  1  0.00000278  0.28431123  -0.00000003  1
  Ir  Ir18  1  0.99999799  -0.00000233  0.49999993  1
loop_
_geom_bond_atom_site_label_1
_geom_bond_atom_site_label_2
_geom_bond_distance
_geom_bond_site_symmetry_2
P0 Tm0 2.951521 1_555
P0 Tm0 2.951521 1_554
P1 Tm0 2.951677 1_554
P1 Tm0 2.951678 1_555
P2 Tm0 2.951835 1_555
P2 Tm0 2.951835 1_554
P3 Tm1 2.951557 1_555
P3 Tm1 2.951558 1_554
P4 Tm1 2.951859 1_555
P4 Tm1 2.951859 1_554
P5 Tm1 2.951806 1_555
P5 Tm1 2.951807 1_554
P6 Tm2 2.940324 1_556
P6 Tm2 2.940324 1_555
P7 Tm3 2.940101 1_555
P7 Tm3 2.940101 1_556
P8 Tm4 2.940456 1_555
P8 Tm4 2.940456 1_556
P9 Tm4 3.005747 1_655
P9 Tm4 3.005748 1_656
P9 Tm3 3.006013 1_565
P9 Tm3 3.006013 1_566
P10 Tm4 3.005709 1_546
P10 Tm4 3.005709 1_545
P10 Tm2 3.005909 1_556
P10 Tm2 3.005909 1_555
P11 Tm2 3.005699 1_556
P11 Tm2 3.005699 1_555
P11 Tm3 3.005791 1_455
P11 Tm3 3.005791 1_456
Ir0 P8 2.325644 1_555
Ir0 P10 2.385111 1_565
Ir0 P0 2.443745 1_556
Ir0 P0 2.443745 1_555
Ir0 Ir16 2.790937 1_565
Ir0 Ir16 2.790937 1_566
Ir0 Ir6 2.806677 1_556
Ir0 Ir6 2.806677 1_555
Ir0 Ir13 3.035874 1_565
Ir0 Tm4 3.128320 1_556
Ir0 Tm4 3.128321 1_555
Ir0 Tm0 3.201894 1_555
Ir1 P6 2.325733 1_555
Ir1 P11 2.384954 1_555
Ir1 P1 2.443621 1_555
Ir1 P1 2.443621 1_556
Ir1 Ir17 2.790802 1_556
Ir1 Ir17 2.790802 1_555
Ir1 Ir7 2.806762 1_556
Ir1 Ir7 2.806763 1_555
Ir1 Ir14 3.035144 1_455
Ir1 Tm2 3.128396 1_556
Ir1 Tm2 3.128396 1_555
Ir1 Tm0 3.202031 1_555
Ir2 P7 2.325740 1_565
Ir2 P9 2.385231 1_555
Ir2 P2 2.443757 1_556
Ir2 P2 2.443757 1_555
Ir2 Ir8 2.806714 1_555
Ir2 Ir8 2.806714 1_556
Ir2 Tm3 3.128494 1_565
Ir2 Tm3 3.128495 1_566
Ir2 Tm0 3.202266 1_555
Ir3 P7 2.325732 1_555
Ir3 P11 2.384934 1_655
Ir3 P3 2.443735 1_556
Ir3 P3 2.443735 1_555
Ir3 Ir9 2.806645 1_556
Ir3 Ir9 2.806646 1_555
Ir3 Tm3 3.128105 1_556
Ir3 Tm3 3.128106 1_555
Ir3 Tm1 3.201766 1_555
Ir4 P6 2.325746 1_555
Ir4 P10 2.385119 1_555
Ir4 P4 2.444054 1_556
Ir4 P4 2.444054 1_555
Ir4 Tm2 3.128346 1_556
Ir4 Tm2 3.128346 1_555
Ir4 Tm1 3.202610 1_555
Ir5 P8 2.325721 1_655
Ir5 P9 2.385242 1_555
Ir5 P5 2.443708 1_556
Ir5 P5 2.443708 1_555
Ir5 Tm4 3.128386 1_656
Ir5 Tm4 3.128386 1_655
Ir5 Tm1 3.202083 1_555
Ir6 P1 2.244386 1_555
Ir6 P0 2.318152 1_555
Ir6 P8 2.624910 1_555
Ir6 P8 2.624911 1_554
Ir6 Tm0 3.072332 1_555
Ir6 Tm0 3.072333 1_554
Ir6 Tm4 3.430336 1_555
Ir7 P2 2.244670 1_555
Ir7 P1 2.318128 1_555
Ir7 P6 2.624858 1_554
Ir7 P6 2.624858 1_555
Ir7 Tm0 3.072429 1_554
Ir7 Tm0 3.072430 1_555
Ir7 Tm2 3.430218 1_555
Ir8 P0 2.244513 1_555
Ir8 P2 2.317890 1_555
Ir8 P7 2.625424 1_564
Ir8 P7 2.625424 1_565
Ir8 Ir9 2.945678 1_565
Ir8 Tm0 3.072056 1_555
Ir8 Tm0 3.072056 1_554
Ir8 Tm3 3.430653 1_565
Ir9 P4 2.244321 1_555
Ir9 P3 2.317893 1_555
Ir9 P7 2.625266 1_555
Ir9 P7 2.625266 1_554
Ir9 Tm1 3.071795 1_555
Ir9 Tm1 3.071796 1_554
Ir9 Tm3 3.430187 1_555
Ir10 P5 2.244729 1_555
Ir10 P4 2.318089 1_555
Ir10 P6 2.625442 1_555
Ir10 P6 2.625442 1_554
Ir10 Ir12 2.804815 1_555
Ir10 Ir12 2.804815 1_554
Ir10 Ir4 2.806592 1_555
Ir10 Ir4 2.806592 1_554
Ir10 Ir7 2.945169 1_555
Ir10 Tm1 3.072390 1_555
Ir10 Tm1 3.072391 1_554
Ir10 Tm2 3.430676 1_555
Ir11 P3 2.244586 1_555
Ir11 P5 2.317948 1_555
Ir11 P8 2.624942 1_655
Ir11 P8 2.624942 1_654
Ir11 Ir14 2.804417 1_554
Ir11 Ir14 2.804418 1_555
Ir11 Ir5 2.806444 1_555
Ir11 Ir5 2.806444 1_554
Ir11 Ir6 2.944719 1_655
Ir11 Tm1 3.072351 1_555
Ir11 Tm1 3.072352 1_554
Ir11 Tm4 3.430179 1_655
Ir12 P6 2.263308 1_555
Ir12 Ir7 2.804829 1_556
Ir12 Ir7 2.804829 1_555
Ir12 P2 2.848271 1_555
Ir12 P2 2.848272 1_556
Ir12 P5 2.848298 1_555
Ir12 P5 2.848299 1_556
Ir12 Ir15 3.023090 1_555
Ir12 Ir15 3.023091 1_556
Ir12 Ir2 3.035113 1_555
Ir12 Ir5 3.035220 1_555
Ir13 P7 2.263044 1_555
Ir13 Ir9 2.804588 1_555
Ir13 Ir9 2.804589 1_556
Ir13 Ir8 2.804927 1_545
Ir13 Ir8 2.804927 1_546
Ir13 P4 2.847719 1_555
Ir13 P4 2.847719 1_556
Ir13 P0 2.848823 1_545
Ir13 P0 2.848823 1_546
Ir13 Ir16 3.023152 1_555
Ir13 Ir16 3.023152 1_556
Ir13 Ir4 3.035147 1_555
Ir14 P8 2.262998 1_655
Ir14 Ir6 2.804961 1_656
Ir14 Ir6 2.804961 1_655
Ir14 P3 2.847649 1_556
Ir14 P3 2.847650 1_555
Ir14 P1 2.848658 1_656
Ir14 P1 2.848659 1_655
Ir14 Ir17 3.022944 1_656
Ir14 Ir17 3.022945 1_655
Ir14 Ir3 3.034454 1_555
Ir15 P5 2.351381 1_555
Ir15 P2 2.351574 1_555
Ir15 P9 2.386767 1_554
Ir15 P9 2.386767 1_555
Ir15 Ir5 2.791006 1_554
Ir15 Ir5 2.791006 1_555
Ir15 Ir2 2.791006 1_554
Ir15 Ir2 2.791006 1_555
Ir15 Tm4 3.148096 1_655
Ir15 Tm3 3.148418 1_565
Ir16 P0 2.351240 1_545
Ir16 P4 2.351409 1_555
Ir16 P10 2.386873 1_555
Ir16 P10 2.386874 1_554
Ir16 Ir4 2.791057 1_555
Ir16 Ir4 2.791057 1_554
Ir16 Tm4 3.148208 1_545
Ir16 Tm2 3.148514 1_555
Ir17 P3 2.351344 1_455
Ir17 P1 2.351467 1_555
Ir17 P11 2.386602 1_555
Ir17 P11 2.386602 1_554
Ir17 Ir3 2.790891 1_454
Ir17 Ir3 2.790892 1_455
Ir17 Tm2 3.147868 1_555
Ir17 Tm3 3.147891 1_455
Ir18 P9 2.242161 1_545
Ir18 P10 2.242233 1_655
Ir18 P11 2.242443 1_655
Ir18 Tm4 3.025728 1_646
Ir18 Tm4 3.025728 1_645
Ir18 Tm2 3.025753 1_655
Ir18 Tm2 3.025753 1_656
Ir18 Tm3 3.025925 1_555
Ir18 Tm3 3.025926 1_556
