# generated using pymatgen
data_TaInSe2
_symmetry_space_group_name_H-M   'P 1'
_cell_length_a   6.92483804
_cell_length_b   6.92483804
_cell_length_c   17.54148294
_cell_angle_alpha   90.00000000
_cell_angle_beta   90.00000000
_cell_angle_gamma   120.00002788
_symmetry_Int_Tables_number   1
_chemical_formula_structural   TaInSe2
_chemical_formula_sum   'Ta8 In8 Se16'
_cell_volume   728.47735440
_cell_formula_units_Z   8
loop_
 _symmetry_equiv_pos_site_id
 _symmetry_equiv_pos_as_xyz
  1  'x, y, z'
loop_
 _atom_site_type_symbol
 _atom_site_label
 _atom_site_symmetry_multiplicity
 _atom_site_fract_x
 _atom_site_fract_y
 _atom_site_fract_z
 _atom_site_occupancy
  Ta  Ta0_0  1  0.00000000  0.00000000  0.00000000  1
  Ta  Ta0_1  1  0.00000000  0.00000000  0.50000000  1
  Ta  Ta0_2  1  0.00000000  0.50000000  0.00000000  1
  Ta  Ta0_3  1  0.00000000  0.50000000  0.50000000  1
  Ta  Ta0_4  1  0.50000000  0.00000000  0.00000000  1
  Ta  Ta0_5  1  0.50000000  0.00000000  0.50000000  1
  Ta  Ta0_6  1  0.50000000  0.50000000  0.00000000  1
  Ta  Ta0_7  1  0.50000000  0.50000000  0.50000000  1
  In  In0_0  1  0.00000000  0.00000000  0.25000000  1
  In  In0_1  1  0.00000000  0.00000000  0.75000000  1
  In  In0_2  1  0.00000000  0.50000000  0.25000000  1
  In  In0_3  1  0.00000000  0.50000000  0.75000000  1
  In  In0_4  1  0.50000000  0.00000000  0.25000000  1
  In  In0_5  1  0.50000000  0.00000000  0.75000000  1
  In  In0_6  1  0.50000000  0.50000000  0.25000000  1
  In  In0_7  1  0.50000000  0.50000000  0.75000000  1
  Se  Se0_0  1  0.33333350  0.16666650  0.09489069  1
  Se  Se0_1  1  0.33333350  0.16666650  0.59489069  1
  Se  Se0_2  1  0.33333350  0.66666650  0.09489069  1
  Se  Se0_3  1  0.33333350  0.66666650  0.59489069  1
  Se  Se0_4  1  0.83333350  0.16666650  0.09489069  1
  Se  Se0_5  1  0.83333350  0.16666650  0.59489069  1
  Se  Se0_6  1  0.83333350  0.66666650  0.09489069  1
  Se  Se0_7  1  0.83333350  0.66666650  0.59489069  1
  Se  Se1_0  1  0.33333350  0.16666650  0.40510931  1
  Se  Se1_1  1  0.33333350  0.16666650  0.90510931  1
  Se  Se1_2  1  0.33333350  0.66666650  0.40510931  1
  Se  Se1_3  1  0.33333350  0.66666650  0.90510931  1
  Se  Se1_4  1  0.83333350  0.16666650  0.40510931  1
  Se  Se1_5  1  0.83333350  0.16666650  0.90510931  1
  Se  Se1_6  1  0.83333350  0.66666650  0.40510931  1
  Se  Se1_7  1  0.83333350  0.66666650  0.90510931  1
loop_
_geom_bond_atom_site_label_1
_geom_bond_atom_site_label_2
_geom_bond_distance
_geom_bond_site_symmetry_2
In0_0 Se1_4 3.376258 1_455
In0_0 Se0_4 3.376258 1_455
In0_0 Se0_0 3.376259 1_555
In0_0 Se1_0 3.376259 1_555
In0_0 Se0_6 3.376259 1_445
In0_0 Se1_6 3.376259 1_445
In0_0 In0_6 3.462418 1_445
In0_0 In0_6 3.462418 1_555
In0_0 In0_4 3.462419 1_555
In0_0 In0_4 3.462419 1_455
In0_0 In0_2 3.462419 1_545
In0_0 In0_2 3.462419 1_555
In0_1 Se1_5 3.376258 1_455
In0_1 Se0_5 3.376258 1_455
In0_1 Se1_1 3.376259 1_555
In0_1 Se0_7 3.376259 1_445
In0_1 Se0_1 3.376259 1_555
In0_1 Se1_7 3.376259 1_445
In0_1 In0_7 3.462418 1_445
In0_1 In0_7 3.462418 1_555
In0_1 In0_3 3.462419 1_555
In0_1 In0_5 3.462419 1_455
In0_1 In0_5 3.462419 1_555
In0_1 In0_3 3.462419 1_545
In0_2 Se0_6 3.376258 1_455
In0_2 Se1_6 3.376258 1_455
In0_2 Se0_2 3.376259 1_555
In0_2 Se1_2 3.376259 1_555
In0_2 Se0_4 3.376259 1_455
In0_2 Se1_4 3.376259 1_455
In0_2 In0_4 3.462418 1_565
In0_2 In0_4 3.462418 1_455
In0_2 In0_6 3.462419 1_455
In0_2 In0_6 3.462419 1_555
In0_3 Se0_7 3.376258 1_455
In0_3 Se1_7 3.376258 1_455
In0_3 Se1_5 3.376259 1_455
In0_3 Se0_3 3.376259 1_555
In0_3 Se0_5 3.376259 1_455
In0_3 Se1_3 3.376259 1_555
In0_3 In0_5 3.462418 1_455
In0_3 In0_5 3.462418 1_565
In0_3 In0_7 3.462419 1_455
In0_3 In0_7 3.462419 1_555
In0_4 Se1_0 3.376258 1_555
In0_4 Se0_0 3.376258 1_555
In0_4 Se0_2 3.376259 1_545
In0_4 Se1_2 3.376259 1_545
In0_4 Se0_4 3.376259 1_555
In0_4 Se1_4 3.376259 1_555
In0_4 In0_6 3.462419 1_545
In0_4 In0_6 3.462419 1_555
In0_5 Se0_1 3.376258 1_555
In0_5 Se1_1 3.376258 1_555
In0_5 Se1_3 3.376259 1_545
In0_5 Se0_3 3.376259 1_545
In0_5 Se0_5 3.376259 1_555
In0_5 Se1_5 3.376259 1_555
In0_5 In0_7 3.462419 1_555
In0_5 In0_7 3.462419 1_545
In0_6 Se0_2 3.376258 1_555
In0_6 Se1_2 3.376258 1_555
In0_6 Se0_0 3.376259 1_555
In0_6 Se1_0 3.376259 1_555
In0_6 Se1_6 3.376259 1_555
In0_6 Se0_6 3.376259 1_555
In0_7 Se0_3 3.376258 1_555
In0_7 Se1_3 3.376258 1_555
In0_7 Se1_1 3.376259 1_555
In0_7 Se0_7 3.376259 1_555
In0_7 Se0_1 3.376259 1_555
In0_7 Se1_7 3.376259 1_555
Se0_0 Ta0_4 2.601297 1_555
Se0_0 Ta0_0 2.601299 1_555
Se0_0 Ta0_6 2.601299 1_555
Se0_0 Se0_6 3.462418 1_445
Se0_0 Se0_6 3.462418 1_555
Se0_0 Se0_2 3.462419 1_545
Se0_0 Se0_4 3.462419 1_455
Se0_0 Se0_4 3.462419 1_555
Se0_0 Se0_2 3.462419 1_555
Se0_1 Ta0_5 2.601297 1_555
Se0_1 Ta0_7 2.601299 1_555
Se0_1 Ta0_1 2.601299 1_555
Se0_1 Se0_7 3.462418 1_445
Se0_1 Se0_7 3.462418 1_555
Se0_1 Se0_5 3.462419 1_455
Se0_1 Se0_3 3.462419 1_545
Se0_1 Se0_3 3.462419 1_555
Se0_1 Se0_5 3.462419 1_555
Se0_2 Ta0_6 2.601297 1_555
Se0_2 Ta0_4 2.601299 1_565
Se0_2 Ta0_2 2.601299 1_555
Se0_2 Se0_4 3.462418 1_565
Se0_2 Se0_4 3.462418 1_455
Se0_2 Se0_6 3.462419 1_455
Se0_2 Se0_6 3.462419 1_555
Se0_3 Ta0_7 2.601297 1_555
Se0_3 Ta0_3 2.601299 1_555
Se0_3 Ta0_5 2.601299 1_565
Se0_3 Se0_5 3.462418 1_455
Se0_3 Se0_5 3.462418 1_565
Se0_3 Se0_7 3.462419 1_455
Se0_3 Se0_7 3.462419 1_555
Se0_4 Ta0_0 2.601297 1_655
Se0_4 Ta0_2 2.601299 1_655
Se0_4 Ta0_4 2.601299 1_555
Se0_4 Se0_6 3.462419 1_545
Se0_4 Se0_6 3.462419 1_555
Se0_5 Ta0_1 2.601297 1_655
Se0_5 Ta0_3 2.601299 1_655
Se0_5 Ta0_5 2.601299 1_555
Se0_5 Se0_7 3.462419 1_545
Se0_5 Se0_7 3.462419 1_555
Se0_6 Ta0_2 2.601297 1_655
Se0_6 Ta0_6 2.601299 1_555
Se0_6 Ta0_0 2.601299 1_665
Se0_7 Ta0_3 2.601297 1_655
Se0_7 Ta0_7 2.601299 1_555
Se0_7 Ta0_1 2.601299 1_665
Se1_0 Ta0_5 2.601297 1_555
Se1_0 Ta0_1 2.601299 1_555
Se1_0 Ta0_7 2.601299 1_555
Se1_0 Se1_6 3.462418 1_445
Se1_0 Se1_6 3.462418 1_555
Se1_0 Se1_2 3.462419 1_545
Se1_0 Se1_4 3.462419 1_455
Se1_0 Se1_2 3.462419 1_555
Se1_0 Se1_4 3.462419 1_555
Se1_1 Ta0_4 2.601297 1_556
Se1_1 Ta0_0 2.601299 1_556
Se1_1 Ta0_6 2.601299 1_556
Se1_1 Se1_7 3.462418 1_445
Se1_1 Se1_7 3.462418 1_555
Se1_1 Se1_3 3.462419 1_545
Se1_1 Se1_5 3.462419 1_455
Se1_1 Se1_5 3.462419 1_555
Se1_1 Se1_3 3.462419 1_555
Se1_2 Ta0_7 2.601297 1_555
Se1_2 Ta0_5 2.601299 1_565
Se1_2 Ta0_3 2.601299 1_555
Se1_2 Se1_4 3.462418 1_455
Se1_2 Se1_4 3.462418 1_565
Se1_2 Se1_6 3.462419 1_455
Se1_2 Se1_6 3.462419 1_555
Se1_3 Ta0_6 2.601297 1_556
Se1_3 Ta0_2 2.601299 1_556
Se1_3 Ta0_4 2.601299 1_566
Se1_3 Se1_5 3.462418 1_565
Se1_3 Se1_5 3.462418 1_455
Se1_3 Se1_7 3.462419 1_455
Se1_3 Se1_7 3.462419 1_555
Se1_4 Ta0_1 2.601297 1_655
Se1_4 Ta0_5 2.601299 1_555
Se1_4 Ta0_3 2.601299 1_655
Se1_4 Se1_6 3.462419 1_555
Se1_4 Se1_6 3.462419 1_545
Se1_5 Ta0_0 2.601297 1_656
Se1_5 Ta0_4 2.601299 1_556
Se1_5 Ta0_2 2.601299 1_656
Se1_5 Se1_7 3.462419 1_555
Se1_5 Se1_7 3.462419 1_545
Se1_6 Ta0_3 2.601297 1_655
Se1_6 Ta0_1 2.601299 1_665
Se1_6 Ta0_7 2.601299 1_555
Se1_7 Ta0_2 2.601297 1_656
Se1_7 Ta0_6 2.601299 1_556
Se1_7 Ta0_0 2.601299 1_666
