# generated using pymatgen
data_NaTh3F13
_symmetry_space_group_name_H-M   'P 1'
_cell_length_a   8.37739758
_cell_length_b   8.37739758
_cell_length_c   16.87622400
_cell_angle_alpha   90.00000000
_cell_angle_beta   90.00000000
_cell_angle_gamma   119.99999668
_symmetry_Int_Tables_number   1
_chemical_formula_structural   NaTh3F13
_chemical_formula_sum   'Na4 Th12 F52'
_cell_volume   1025.70903559
_cell_formula_units_Z   4
loop_
 _symmetry_equiv_pos_site_id
 _symmetry_equiv_pos_as_xyz
  1  'x, y, z'
loop_
 _atom_site_type_symbol
 _atom_site_label
 _atom_site_symmetry_multiplicity
 _atom_site_fract_x
 _atom_site_fract_y
 _atom_site_fract_z
 _atom_site_occupancy
  Na  Na0  1  0.33333300  0.66666700  0.36980200  1
  Na  Na1  1  0.66666700  0.33333300  0.63019800  1
  Na  Na2  1  0.66666700  0.33333300  0.86980200  1
  Na  Na3  1  0.33333300  0.66666700  0.13019800  1
  Th  Th0  1  0.33250800  0.16625400  0.38667600  1
  Th  Th1  1  0.83374600  0.16625400  0.38667600  1
  Th  Th2  1  0.83374600  0.66749200  0.38667600  1
  Th  Th3  1  0.66749200  0.83374600  0.61332400  1
  Th  Th4  1  0.16625400  0.83374600  0.61332400  1
  Th  Th5  1  0.16625400  0.33250800  0.61332400  1
  Th  Th6  1  0.66749200  0.83374600  0.88667600  1
  Th  Th7  1  0.16625400  0.83374600  0.88667600  1
  Th  Th8  1  0.16625400  0.33250800  0.88667600  1
  Th  Th9  1  0.33250800  0.16625400  0.11332400  1
  Th  Th10  1  0.83374600  0.16625400  0.11332400  1
  Th  Th11  1  0.83374600  0.66749200  0.11332400  1
  F  F0  1  0.15714700  0.31429500  0.36077800  1
  F  F1  1  0.68570500  0.84285300  0.36077800  1
  F  F2  1  0.15714700  0.84285300  0.36077800  1
  F  F3  1  0.84285300  0.68570500  0.63922200  1
  F  F4  1  0.31429500  0.15714700  0.63922200  1
  F  F5  1  0.84285300  0.15714700  0.63922200  1
  F  F6  1  0.84285300  0.68570500  0.86077800  1
  F  F7  1  0.31429500  0.15714700  0.86077800  1
  F  F8  1  0.84285300  0.15714700  0.86077800  1
  F  F9  1  0.15714700  0.31429500  0.13922200  1
  F  F10  1  0.68570500  0.84285300  0.13922200  1
  F  F11  1  0.15714700  0.84285300  0.13922200  1
  F  F12  1  0.54088600  0.08177100  0.34053200  1
  F  F13  1  0.91822900  0.45911400  0.34053200  1
  F  F14  1  0.54088600  0.45911400  0.34053200  1
  F  F15  1  0.45911400  0.91822900  0.65946800  1
  F  F16  1  0.08177100  0.54088600  0.65946800  1
  F  F17  1  0.45911400  0.54088600  0.65946800  1
  F  F18  1  0.45911400  0.91822900  0.84053200  1
  F  F19  1  0.08177100  0.54088600  0.84053200  1
  F  F20  1  0.45911400  0.54088600  0.84053200  1
  F  F21  1  0.54088600  0.08177100  0.15946800  1
  F  F22  1  0.91822900  0.45911400  0.15946800  1
  F  F23  1  0.54088600  0.45911400  0.15946800  1
  F  F24  1  0.32693200  0.32693200  0.50000000  1
  F  F25  1  0.67306800  0.00000000  0.50000000  1
  F  F26  1  0.00000000  0.67306800  0.50000000  1
  F  F27  1  0.67306800  0.67306800  0.50000000  1
  F  F28  1  0.00000000  0.32693200  0.50000000  1
  F  F29  1  0.32693200  0.00000000  0.50000000  1
  F  F30  1  0.67306800  0.67306800  0.00000000  1
  F  F31  1  0.32693200  0.00000000  0.00000000  1
  F  F32  1  0.00000000  0.32693200  0.00000000  1
  F  F33  1  0.32693200  0.32693200  0.00000000  1
  F  F34  1  0.00000000  0.67306800  0.00000000  1
  F  F35  1  0.67306800  0.00000000  0.00000000  1
  F  F36  1  0.27618000  0.13809000  0.25000000  1
  F  F37  1  0.86191000  0.13809000  0.25000000  1
  F  F38  1  0.86191000  0.72382000  0.25000000  1
  F  F39  1  0.72382000  0.86191000  0.75000000  1
  F  F40  1  0.13809000  0.86191000  0.75000000  1
  F  F41  1  0.13809000  0.27618000  0.75000000  1
  F  F42  1  0.00000000  0.00000000  0.42165700  1
  F  F43  1  0.00000000  0.00000000  0.57834300  1
  F  F44  1  0.00000000  0.00000000  0.92165700  1
  F  F45  1  0.00000000  0.00000000  0.07834300  1
  F  F46  1  0.66666700  0.33333300  0.44829000  1
  F  F47  1  0.33333300  0.66666700  0.55171000  1
  F  F48  1  0.33333300  0.66666700  0.94829000  1
  F  F49  1  0.66666700  0.33333300  0.05171000  1
  F  F50  1  0.33333300  0.66666700  0.25000000  1
  F  F51  1  0.66666700  0.33333300  0.75000000  1
loop_
_geom_bond_atom_site_label_1
_geom_bond_atom_site_label_2
_geom_bond_distance
_geom_bond_site_symmetry_2
F0 Th1 2.389389 1_455
F0 Th0 2.389396 1_555
F0 F42 2.500996 1_555
F0 Na0 2.561005 1_555
F0 F28 2.721038 1_555
F0 F24 2.721043 1_555
F0 F13 2.832473 1_455
F0 F14 2.832489 1_555
F0 F37 2.853140 1_455
F0 F36 2.853145 1_555
F0 F50 3.167118 1_555
F1 Th1 2.389389 1_565
F1 Th2 2.389396 1_555
F1 F42 2.500996 1_665
F1 Na0 2.561005 1_555
F1 F25 2.721038 1_565
F1 F27 2.721043 1_555
F1 F12 2.832473 1_565
F1 F14 2.832489 1_555
F1 F37 2.853140 1_565
F1 F38 2.853145 1_555
F1 F50 3.167118 1_555
F2 Th0 2.389389 1_565
F2 Th2 2.389389 1_455
F2 F42 2.500989 1_565
F2 Na0 2.561005 1_555
F2 F26 2.721041 1_555
F2 F29 2.721041 1_565
F2 F38 2.853140 1_455
F2 F36 2.853140 1_565
F2 F50 3.167118 1_555
F3 Th4 2.389389 1_655
F3 Th3 2.389396 1_555
F3 F43 2.500996 1_665
F3 Na1 2.561005 1_555
F3 F40 2.853140 1_655
F3 F39 2.853145 1_555
F3 F51 3.167118 1_555
F4 Th4 2.389389 1_545
F4 Th5 2.389396 1_555
F4 F43 2.500996 1_555
F4 Na1 2.561005 1_555
F4 F40 2.853140 1_545
F4 F41 2.853145 1_555
F4 F51 3.167118 1_555
F5 Th5 2.389389 1_655
F5 Th3 2.389389 1_545
F5 Na1 2.561005 1_555
F5 F51 3.167118 1_555
F6 Th7 2.389389 1_655
F6 Th6 2.389396 1_555
F6 Na2 2.561005 1_555
F7 Th7 2.389389 1_545
F7 Th8 2.389396 1_555
F7 Na2 2.561005 1_555
F8 Th8 2.389389 1_655
F8 Th6 2.389389 1_545
F8 Na2 2.561005 1_555
F9 Th10 2.389389 1_455
F9 Th9 2.389396 1_555
F9 Na3 2.561005 1_555
F10 Th10 2.389389 1_565
F10 Th11 2.389396 1_555
F10 F45 2.500996 1_665
F10 Na3 2.561005 1_555
F10 F35 2.721038 1_565
F10 F30 2.721043 1_555
F10 F21 2.832473 1_565
F10 F23 2.832489 1_555
F10 F37 2.853140 1_565
F10 F38 2.853145 1_555
F10 F50 3.167118 1_555
F11 Th11 2.389389 1_455
F11 Th9 2.389389 1_565
F11 F45 2.500989 1_565
F11 Na3 2.561005 1_555
F11 F34 2.721041 1_555
F11 F31 2.721041 1_565
F11 F22 2.832486 1_455
F11 F21 2.832486 1_565
F11 F38 2.853140 1_455
F11 F36 2.853140 1_565
F11 F50 3.167118 1_555
F12 Th1 2.321668 1_555
F12 Th0 2.321675 1_555
F12 F46 2.576447 1_555
F12 F2 2.832486 1_545
F12 F37 2.919010 1_555
F12 F36 2.919017 1_555
F12 Na0 3.051838 1_545
F12 F21 3.055677 1_555
F12 F25 3.113949 1_555
F12 F29 3.113953 1_555
F12 F14 3.161152 1_555
F12 F13 3.161152 1_555
F13 Th1 2.321668 1_555
F13 Th2 2.321675 1_555
F13 F46 2.576447 1_555
F13 F2 2.832486 1_655
F13 F37 2.919010 1_555
F13 F38 2.919017 1_555
F13 Na0 3.051838 1_655
F13 F22 3.055677 1_555
F13 F28 3.113949 1_655
F13 F26 3.113953 1_655
F13 F14 3.161152 1_555
F14 Th0 2.321670 1_555
F14 Th2 2.321670 1_555
F14 F46 2.576447 1_555
F14 F36 2.919013 1_555
F14 F38 2.919013 1_555
F14 Na0 3.051852 1_555
F14 F23 3.055677 1_555
F14 F24 3.113953 1_555
F14 F27 3.113953 1_555
F15 Th4 2.321668 1_555
F15 Th3 2.321675 1_555
F15 F47 2.576447 1_555
F15 F4 2.832473 1_565
F15 F5 2.832486 1_565
F15 F40 2.919010 1_555
F15 F39 2.919017 1_555
F15 Na1 3.051838 1_565
F15 F18 3.055677 1_555
F15 F29 3.113949 1_565
F15 F25 3.113953 1_565
F15 F17 3.161152 1_555
F15 F16 3.161152 1_555
F16 Th4 2.321668 1_555
F16 Th5 2.321675 1_555
F16 F47 2.576447 1_555
F16 F3 2.832473 1_455
F16 F5 2.832486 1_455
F16 F40 2.919010 1_555
F16 F41 2.919017 1_555
F16 Na1 3.051838 1_455
F16 F19 3.055677 1_555
F16 F26 3.113949 1_555
F16 F28 3.113953 1_555
F16 F17 3.161152 1_555
F17 Th5 2.321670 1_555
F17 Th3 2.321670 1_555
F17 F47 2.576447 1_555
F17 F3 2.832489 1_555
F17 F4 2.832489 1_555
F17 F41 2.919013 1_555
F17 F39 2.919013 1_555
F17 Na1 3.051852 1_555
F17 F20 3.055677 1_555
F17 F24 3.113953 1_555
F17 F27 3.113953 1_555
F18 Th7 2.321668 1_555
F18 Th6 2.321675 1_555
F18 F48 2.576447 1_555
F18 F7 2.832473 1_565
F18 F8 2.832486 1_565
F18 F40 2.919010 1_555
F18 F39 2.919017 1_555
F18 Na2 3.051838 1_565
F18 F31 3.113949 1_566
F18 F35 3.113953 1_566
F18 F20 3.161152 1_555
F18 F19 3.161152 1_555
F19 Th7 2.321668 1_555
F19 Th8 2.321675 1_555
F19 F48 2.576447 1_555
F19 F6 2.832473 1_455
F19 F8 2.832486 1_455
F19 F40 2.919010 1_555
F19 F41 2.919017 1_555
F19 Na2 3.051838 1_455
F19 F34 3.113949 1_556
F19 F32 3.113953 1_556
F19 F20 3.161152 1_555
F20 Th8 2.321670 1_555
F20 Th6 2.321670 1_555
F20 F48 2.576447 1_555
F20 F6 2.832489 1_555
F20 F7 2.832489 1_555
F20 F41 2.919013 1_555
F20 F39 2.919013 1_555
F20 Na2 3.051852 1_555
F20 F33 3.113953 1_556
F20 F30 3.113953 1_556
F21 Th10 2.321668 1_555
F21 Th9 2.321675 1_555
F21 F49 2.576447 1_555
F21 F37 2.919010 1_555
F21 F36 2.919017 1_555
F21 Na3 3.051838 1_545
F21 F35 3.113949 1_555
F21 F31 3.113953 1_555
F21 F23 3.161152 1_555
F21 F22 3.161152 1_555
F22 Th10 2.321668 1_555
F22 Th11 2.321675 1_555
F22 F49 2.576447 1_555
F22 F9 2.832473 1_655
F22 F37 2.919010 1_555
F22 F38 2.919017 1_555
F22 Na3 3.051838 1_655
F22 F32 3.113949 1_655
F22 F34 3.113953 1_655
F22 F23 3.161152 1_555
F23 Th11 2.321670 1_555
F23 Th9 2.321670 1_555
F23 F49 2.576447 1_555
F23 F9 2.832489 1_555
F23 F36 2.919013 1_555
F23 F38 2.919013 1_555
F23 Na3 3.051852 1_555
F23 F33 3.113953 1_555
F23 F30 3.113953 1_555
F24 Th5 2.352558 1_555
F24 Th0 2.352558 1_555
F24 F4 2.721043 1_555
F24 F28 2.738839 1_555
F24 F29 2.738839 1_555
F24 F27 2.899719 1_555
F24 F46 2.951621 1_555
F24 F47 2.951621 1_555
F24 F43 3.041263 1_555
F24 F42 3.041263 1_555
F25 Th3 2.352558 1_545
F25 Th1 2.352558 1_555
F25 F5 2.721041 1_555
F25 F27 2.738839 1_545
F25 F28 2.738839 1_655
F25 F29 2.899719 1_555
F25 F46 2.951613 1_555
F25 F47 2.951617 1_545
F25 F43 3.041263 1_655
F25 F42 3.041263 1_655
F26 Th2 2.352558 1_455
F26 Th4 2.352558 1_555
F26 F3 2.721038 1_455
F26 F27 2.738839 1_455
F26 F29 2.738839 1_565
F26 F28 2.899719 1_555
F26 F47 2.951613 1_555
F26 F46 2.951617 1_455
F26 F43 3.041263 1_565
F26 F42 3.041263 1_565
F27 Th3 2.352558 1_555
F27 Th2 2.352558 1_555
F27 F3 2.721043 1_555
F27 F46 2.951621 1_555
F27 F47 2.951621 1_555
F27 F43 3.041263 1_665
F27 F42 3.041263 1_665
F28 Th5 2.352558 1_555
F28 Th1 2.352558 1_455
F28 F5 2.721041 1_455
F28 F46 2.951613 1_455
F28 F47 2.951617 1_555
F28 F43 3.041263 1_555
F28 F42 3.041263 1_555
F29 Th0 2.352558 1_555
F29 Th4 2.352558 1_545
F29 F4 2.721038 1_555
F29 F47 2.951613 1_545
F29 F46 2.951617 1_555
F29 F43 3.041263 1_555
F29 F42 3.041263 1_555
F30 Th11 2.352558 1_555
F30 Th6 2.352558 1_554
F30 F6 2.721043 1_554
F30 F35 2.738839 1_565
F30 F34 2.738839 1_655
F30 F33 2.899719 1_555
F30 F48 2.951621 1_554
F30 F49 2.951621 1_555
F30 F45 3.041263 1_665
F30 F44 3.041263 1_664
F31 Th9 2.352558 1_555
F31 Th7 2.352558 1_544
F31 F7 2.721038 1_554
F31 F33 2.738839 1_555
F31 F34 2.738839 1_545
F31 F35 2.899719 1_555
F31 F48 2.951613 1_544
F31 F49 2.951617 1_555
F31 F45 3.041263 1_555
F31 F44 3.041263 1_554
F32 Th8 2.352558 1_554
F32 Th10 2.352558 1_455
F32 F9 2.721038 1_555
F32 F8 2.721041 1_454
F32 F33 2.738839 1_555
F32 F35 2.738839 1_455
F32 F34 2.899719 1_555
F32 F49 2.951613 1_455
F32 F48 2.951617 1_554
F32 F45 3.041263 1_555
F32 F44 3.041263 1_554
F33 Th9 2.352558 1_555
F33 Th8 2.352558 1_554
F33 F9 2.721043 1_555
F33 F7 2.721043 1_554
F33 F48 2.951621 1_554
F33 F49 2.951621 1_555
F33 F45 3.041263 1_555
F33 F44 3.041263 1_554
F34 Th11 2.352558 1_455
F34 Th7 2.352558 1_554
F34 F6 2.721038 1_454
F34 F48 2.951613 1_554
F34 F49 2.951617 1_455
F34 F45 3.041263 1_565
F34 F44 3.041263 1_564
F35 Th6 2.352558 1_544
F35 Th10 2.352558 1_555
F35 F8 2.721041 1_554
F35 F49 2.951613 1_555
F35 F48 2.951617 1_544
F35 F45 3.041263 1_655
F35 F44 3.041263 1_654
F36 Th0 2.342497 1_555
F36 Th9 2.342497 1_555
F36 F9 2.853145 1_555
F37 Th1 2.342497 1_555
F37 Th10 2.342497 1_555
F37 F9 2.853140 1_655
F38 Th2 2.342497 1_555
F38 Th11 2.342497 1_555
F39 Th6 2.342497 1_555
F39 Th3 2.342497 1_555
F39 F8 2.853140 1_565
F39 F5 2.853140 1_565
F39 F6 2.853145 1_555
F40 Th7 2.342497 1_555
F40 Th4 2.342497 1_555
F40 F7 2.853140 1_565
F40 F6 2.853140 1_455
F41 Th8 2.342497 1_555
F41 Th5 2.342497 1_555
F41 F8 2.853140 1_455
F41 F5 2.853140 1_455
F41 F7 2.853145 1_555
F42 Th1 2.483543 1_455
F42 Th0 2.483543 1_555
F42 Th2 2.483543 1_445
F42 F43 2.644268 1_555
F43 Th4 2.483543 1_545
F43 Th5 2.483543 1_555
F43 Th3 2.483543 1_445
F43 F5 2.500989 1_455
F44 Th7 2.483543 1_545
F44 Th8 2.483543 1_555
F44 Th6 2.483543 1_445
F44 F8 2.500989 1_455
F44 F7 2.500996 1_555
F44 F6 2.500996 1_445
F44 F45 2.644268 1_556
F45 Th10 2.483543 1_455
F45 Th9 2.483543 1_555
F45 Th11 2.483543 1_445
F45 F9 2.500996 1_555
F46 Th1 2.637912 1_555
F46 Th2 2.637919 1_555
F46 Th0 2.637919 1_555
F46 Na1 3.069920 1_555
F47 Th4 2.637912 1_555
F47 Th3 2.637919 1_555
F47 Th5 2.637919 1_555
F47 Na0 3.069920 1_555
F48 Th7 2.637912 1_555
F48 Th6 2.637919 1_555
F48 Th8 2.637919 1_555
F48 Na3 3.069920 1_556
F49 Th10 2.637912 1_555
F49 Th11 2.637919 1_555
F49 Th9 2.637919 1_555
F49 Na2 3.069920 1_554
F50 Na0 2.021805 1_555
F50 Na3 2.021805 1_555
F50 F9 3.167118 1_555
F51 Na2 2.021805 1_555
F51 Na1 2.021805 1_555
F51 F8 3.167118 1_555
F51 F6 3.167118 1_555
F51 F7 3.167118 1_555
