# generated using pymatgen
data_La(As3Os)4
_symmetry_space_group_name_H-M   'P 1'
_cell_length_a   7.42633467
_cell_length_b   7.42633467
_cell_length_c   7.42633467
_cell_angle_alpha   109.47122063
_cell_angle_beta   109.47122063
_cell_angle_gamma   109.47122063
_symmetry_Int_Tables_number   1
_chemical_formula_structural   La(As3Os)4
_chemical_formula_sum   'La1 As12 Os4'
_cell_volume   315.28380257
_cell_formula_units_Z   1
loop_
 _symmetry_equiv_pos_site_id
 _symmetry_equiv_pos_as_xyz
  1  'x, y, z'
loop_
 _atom_site_type_symbol
 _atom_site_label
 _atom_site_symmetry_multiplicity
 _atom_site_fract_x
 _atom_site_fract_y
 _atom_site_fract_z
 _atom_site_occupancy
  La  La0  1  0.00000000  0.00000000  -0.00000000  1
  As  As0  1  0.34906459  0.19941675  0.85035216  1
  As  As1  1  0.65093541  0.80058325  0.14964784  1
  As  As2  1  0.65093541  0.50128757  0.85035216  1
  As  As3  1  0.34906459  0.49871243  0.14964784  1
  As  As4  1  0.19941675  0.85035216  0.34906459  1
  As  As5  1  0.80058325  0.14964784  0.65093541  1
  As  As6  1  0.50128757  0.85035216  0.65093541  1
  As  As7  1  0.49871243  0.14964784  0.34906459  1
  As  As8  1  0.85035216  0.34906459  0.19941675  1
  As  As9  1  0.14964784  0.65093541  0.80058325  1
  As  As10  1  0.85035216  0.65093541  0.50128757  1
  As  As11  1  0.14964784  0.34906459  0.49871243  1
  Os  Os0  1  -0.00000000  -0.00000000  0.50000000  1
  Os  Os1  1  0.50000000  0.00000000  -0.00000000  1
  Os  Os2  1  -0.00000000  0.50000000  -0.00000000  1
  Os  Os3  1  0.50000000  0.50000000  0.50000000  1
loop_
_geom_bond_atom_site_label_1
_geom_bond_atom_site_label_2
_geom_bond_distance
_geom_bond_site_symmetry_2
As0 Os1 2.461310 1_556
As0 Os0 2.461310 1_555
As0 As3 2.566518 1_556
As0 As2 2.588600 1_555
As0 La0 3.256774 1_556
As1 Os0 2.461310 1_665
As1 Os1 2.461310 1_565
As1 As2 2.566518 1_554
As1 As3 2.588600 1_555
As1 La0 3.256774 1_665
As2 Os3 2.461310 1_555
As2 Os2 2.461310 1_656
As2 La0 3.256774 1_666
As3 Os3 2.461310 1_555
As3 Os2 2.461310 1_555
As3 La0 3.256774 1_555
As4 Os0 2.461310 1_565
As4 Os2 2.461310 1_555
As4 As7 2.566518 1_565
As4 As6 2.588600 1_555
As4 La0 3.256774 1_565
As5 Os0 2.461310 1_655
As5 Os2 2.461310 1_656
As5 As6 2.566518 1_545
As5 As7 2.588600 1_555
As5 La0 3.256774 1_656
As6 Os3 2.461310 1_555
As6 Os1 2.461310 1_566
As6 La0 3.256774 1_666
As7 Os1 2.461310 1_555
As7 Os3 2.461310 1_555
As7 La0 3.256774 1_555
As8 Os1 2.461310 1_555
As8 Os2 2.461310 1_655
As8 La0 3.256774 1_655
As9 Os2 2.461310 1_556
As9 Os1 2.461310 1_566
As9 La0 3.256774 1_566
As10 Os3 2.461310 1_555
As10 Os0 2.461310 1_665
As10 As9 2.566518 1_655
As10 As8 2.588600 1_555
As10 La0 3.256774 1_666
As11 Os3 2.461310 1_555
As11 Os0 2.461310 1_555
As11 As8 2.566518 1_455
As11 As9 2.588600 1_555
As11 La0 3.256774 1_555
