# generated using pymatgen
data_Ba4RuN4
_symmetry_space_group_name_H-M   'P 1'
_cell_length_a   7.02839689
_cell_length_b   7.08947344
_cell_length_c   9.27457914
_cell_angle_alpha   74.16824152
_cell_angle_beta   82.43992488
_cell_angle_gamma   64.17221363
_symmetry_Int_Tables_number   1
_chemical_formula_structural   Ba4RuN4
_chemical_formula_sum   'Ba8 Ru2 N8'
_cell_volume   400.14500379
_cell_formula_units_Z   2
loop_
 _symmetry_equiv_pos_site_id
 _symmetry_equiv_pos_as_xyz
  1  'x, y, z'
loop_
 _atom_site_type_symbol
 _atom_site_label
 _atom_site_symmetry_multiplicity
 _atom_site_fract_x
 _atom_site_fract_y
 _atom_site_fract_z
 _atom_site_occupancy
  Ba  Ba0  1  0.82004700  0.61150800  0.13158500  1
  Ba  Ba1  1  0.17995300  0.38849200  0.86841500  1
  Ba  Ba2  1  0.70953500  0.21820600  0.96232900  1
  Ba  Ba3  1  0.29046500  0.78179400  0.03767100  1
  Ba  Ba4  1  0.73240700  0.52262100  0.56163500  1
  Ba  Ba5  1  0.26759300  0.47737900  0.43836500  1
  Ba  Ba6  1  0.22662000  0.93445100  0.63037800  1
  Ba  Ba7  1  0.77338000  0.06554900  0.36962200  1
  Ru  Ru0  1  0.75736200  0.86258400  0.74919100  1
  Ru  Ru1  1  0.24263800  0.13741600  0.25080900  1
  N  N0  1  0.97059600  0.72659200  0.60248200  1
  N  N1  1  0.02940400  0.27340800  0.39751800  1
  N  N2  1  0.96937000  0.83410200  0.88290000  1
  N  N3  1  0.03063000  0.16589800  0.11710000  1
  N  N4  1  0.67188700  0.63506000  0.84926500  1
  N  N5  1  0.32811300  0.36494000  0.15073500  1
  N  N6  1  0.44520400  0.86502500  0.33158200  1
  N  N7  1  0.55479600  0.13497500  0.66841800  1
loop_
_geom_bond_atom_site_label_1
_geom_bond_atom_site_label_2
_geom_bond_distance
_geom_bond_site_symmetry_2
Ba0 N2 2.780591 1_554
Ba0 N3 2.879917 1_655
Ba0 N4 2.880220 1_554
Ba0 N1 2.941058 1_655
Ba0 N6 3.165286 1_555
Ba0 N5 3.224438 1_655
Ba0 Ba3 3.526219 1_555
Ba0 Ba2 3.910679 1_564
Ba1 N3 2.780591 1_556
Ba1 N2 2.879917 1_455
Ba1 N5 2.880220 1_556
Ba1 N0 2.941058 1_455
Ba1 N7 3.165286 1_555
Ba1 N4 3.224438 1_455
Ba1 Ba2 3.526219 1_555
Ba1 Ba3 3.910679 1_546
Ba2 N3 2.669047 1_656
Ba2 N4 2.757542 1_555
Ba2 N2 2.774965 1_545
Ba2 N5 2.941328 1_556
Ba2 N7 3.343408 1_555
Ba3 N2 2.669047 1_454
Ba3 N5 2.757542 1_555
Ba3 N3 2.774965 1_565
Ba3 N4 2.941328 1_554
Ba3 N6 3.343408 1_555
Ba4 N1 2.685789 1_655
Ba4 N0 2.759032 1_555
Ba4 N4 2.915293 1_555
Ba4 N6 2.925304 1_555
Ba4 N7 3.357179 1_555
Ba4 Ba6 3.597735 1_555
Ba5 N0 2.685789 1_455
Ba5 N1 2.759032 1_555
Ba5 N5 2.915293 1_555
Ba5 N7 2.925304 1_555
Ba5 N6 3.357179 1_555
Ba5 Ba7 3.597735 1_555
Ba6 N1 2.722825 1_565
Ba6 N0 2.849117 1_455
Ba6 N2 2.890978 1_455
Ba6 N6 3.040912 1_555
Ba6 N7 3.287937 1_565
Ba6 N4 3.457319 1_555
Ba7 N0 2.722825 1_545
Ba7 N1 2.849117 1_655
Ba7 N3 2.890978 1_655
Ba7 N7 3.040912 1_555
Ba7 N6 3.287937 1_545
Ba7 N5 3.457319 1_555
N0 Ru0 1.986754 1_555
N1 Ru1 1.986754 1_555
N2 Ru0 1.971387 1_555
N3 Ru1 1.971387 1_555
N4 Ru0 1.924829 1_555
N5 Ru1 1.924829 1_555
N6 Ru1 1.847444 1_565
N7 Ru0 1.847444 1_545
