# generated using pymatgen
data_Li7Mn2(CoO4)3
_symmetry_space_group_name_H-M   'P 1'
_cell_length_a   8.76603500
_cell_length_b   5.06111600
_cell_length_c   5.14526096
_cell_angle_alpha   69.91328982
_cell_angle_beta   90.00000000
_cell_angle_gamma   90.00000000
_symmetry_Int_Tables_number   1
_chemical_formula_structural   Li7Mn2(CoO4)3
_chemical_formula_sum   'Li7 Mn2 Co3 O12'
_cell_volume   214.38921336
_cell_formula_units_Z   1
loop_
 _symmetry_equiv_pos_site_id
 _symmetry_equiv_pos_as_xyz
  1  'x, y, z'
loop_
 _atom_site_type_symbol
 _atom_site_label
 _atom_site_symmetry_multiplicity
 _atom_site_fract_x
 _atom_site_fract_y
 _atom_site_fract_z
 _atom_site_occupancy
  Li  Li0  1  0.15550500  0.00000000  0.50000000  1
  Li  Li1  1  0.00000000  0.50000000  0.50000000  1
  Li  Li2  1  0.84449500  0.00000000  0.50000000  1
  Li  Li3  1  0.67065000  0.50000000  0.50000000  1
  Li  Li4  1  0.50000000  0.00000000  0.50000000  1
  Li  Li5  1  0.32935000  0.50000000  0.50000000  1
  Li  Li6  1  0.00000000  0.00000000  0.00000000  1
  Mn  Mn0  1  0.33156300  0.00000000  0.00000000  1
  Mn  Mn1  1  0.66843700  0.00000000  0.00000000  1
  Co  Co0  1  0.15974000  0.50000000  0.00000000  1
  Co  Co1  1  0.84026000  0.50000000  0.00000000  1
  Co  Co2  1  0.50000000  0.50000000  0.00000000  1
  O  O0  1  0.18400700  0.75965800  0.23035500  1
  O  O1  1  0.00000000  0.27754800  0.23932400  1
  O  O2  1  0.81599300  0.75965800  0.23035500  1
  O  O3  1  0.66009100  0.25414500  0.21344200  1
  O  O4  1  0.50000000  0.77299500  0.23035400  1
  O  O5  1  0.33990900  0.25414500  0.21344200  1
  O  O6  1  0.18400700  0.24034200  0.76964500  1
  O  O7  1  0.00000000  0.72245200  0.76067600  1
  O  O8  1  0.81599300  0.24034200  0.76964500  1
  O  O9  1  0.66009100  0.74585500  0.78655800  1
  O  O10  1  0.50000000  0.22700500  0.76964600  1
  O  O11  1  0.33990900  0.74585500  0.78655800  1
loop_
_geom_bond_atom_site_label_1
_geom_bond_atom_site_label_2
_geom_bond_distance
_geom_bond_site_symmetry_2
Li0 O1 2.082359 1_555
Li0 O7 2.082359 1_545
Li0 O6 2.150840 1_555
Li0 O0 2.150840 1_545
Li0 O5 2.266880 1_555
Li0 O11 2.266880 1_545
Li1 O7 2.025764 1_555
Li1 O1 2.025764 1_555
Li1 O8 2.236363 1_455
Li1 O6 2.236363 1_555
Li1 O0 2.236363 1_555
Li1 O2 2.236363 1_455
Li2 O1 2.082359 1_655
Li2 O7 2.082359 1_645
Li2 O8 2.150840 1_555
Li2 O2 2.150840 1_545
Li2 O3 2.266880 1_555
Li2 O9 2.266880 1_545
Li3 O8 2.005691 1_555
Li3 O2 2.005691 1_555
Li3 O4 2.180585 1_555
Li3 O10 2.180585 1_555
Li3 O9 2.234037 1_555
Li3 O3 2.234037 1_555
Li4 O10 2.083200 1_555
Li4 O4 2.083200 1_545
Li4 O3 2.120172 1_555
Li4 O9 2.120172 1_545
Li4 O5 2.120172 1_555
Li4 O11 2.120172 1_545
Li5 O6 2.005691 1_555
Li5 O0 2.005691 1_555
Li5 O10 2.180585 1_555
Li5 O4 2.180585 1_555
Li5 O11 2.234037 1_555
Li5 O5 2.234037 1_555
Li6 O0 2.120360 1_545
Li6 O2 2.120360 1_445
Li6 O6 2.120360 1_554
Li6 O8 2.120360 1_454
Li6 O1 2.162781 1_555
Li6 O7 2.162781 1_544
Mn0 O0 1.888706 1_545
Mn0 O6 1.888706 1_554
Mn0 O5 1.958614 1_555
Mn0 O11 1.958614 1_544
Mn0 O4 1.992368 1_545
Mn0 O10 1.992368 1_554
Mn1 O2 1.888706 1_545
Mn1 O8 1.888706 1_554
Mn1 O3 1.958614 1_555
Mn1 O9 1.958614 1_544
Mn1 O10 1.992368 1_554
Mn1 O4 1.992368 1_545
Co0 O1 1.947406 1_555
Co0 O7 1.947406 1_554
Co0 O0 2.060809 1_555
Co0 O6 2.060809 1_554
Co0 O11 2.076085 1_554
Co0 O5 2.076085 1_555
Co1 O1 1.947406 1_655
Co1 O7 1.947406 1_654
Co1 O2 2.060809 1_555
Co1 O8 2.060809 1_554
Co1 O9 2.076085 1_554
Co1 O3 2.076085 1_555
Co2 O9 1.945548 1_554
Co2 O3 1.945548 1_555
Co2 O11 1.945548 1_554
Co2 O5 1.945548 1_555
Co2 O4 2.106796 1_555
Co2 O10 2.106796 1_554
