# generated using pymatgen
data_Nb2N3
_symmetry_space_group_name_H-M   'P 1'
_cell_length_a   3.01394272
_cell_length_b   8.19175301
_cell_length_c   8.30330112
_cell_angle_alpha   90.00000000
_cell_angle_beta   90.00000000
_cell_angle_gamma   90.00000000
_symmetry_Int_Tables_number   1
_chemical_formula_structural   Nb2N3
_chemical_formula_sum   'Nb8 N12'
_cell_volume   205.00414001
_cell_formula_units_Z   4
loop_
 _symmetry_equiv_pos_site_id
 _symmetry_equiv_pos_as_xyz
  1  'x, y, z'
loop_
 _atom_site_type_symbol
 _atom_site_label
 _atom_site_symmetry_multiplicity
 _atom_site_fract_x
 _atom_site_fract_y
 _atom_site_fract_z
 _atom_site_occupancy
  Nb  Nb0  1  0.25000000  0.18724323  0.47826195  1
  Nb  Nb1  1  0.25000000  0.31275677  0.97826195  1
  Nb  Nb2  1  0.75000000  0.81275677  0.52173805  1
  Nb  Nb3  1  0.75000000  0.68724323  0.02173805  1
  Nb  Nb4  1  0.25000000  0.99552424  0.80563984  1
  Nb  Nb5  1  0.25000000  0.50447576  0.30563984  1
  Nb  Nb6  1  0.75000000  0.00447576  0.19436016  1
  Nb  Nb7  1  0.75000000  0.49552424  0.69436016  1
  N  N0  1  0.25000000  0.62623223  0.54562515  1
  N  N1  1  0.25000000  0.87376777  0.04562515  1
  N  N2  1  0.75000000  0.37376777  0.45437485  1
  N  N3  1  0.75000000  0.12623223  0.95437485  1
  N  N4  1  0.25000000  0.95272518  0.37877164  1
  N  N5  1  0.25000000  0.54727482  0.87877164  1
  N  N6  1  0.75000000  0.04727482  0.62122836  1
  N  N7  1  0.75000000  0.45272518  0.12122836  1
  N  N8  1  0.25000000  0.29858760  0.72113622  1
  N  N9  1  0.25000000  0.20141240  0.22113622  1
  N  N10  1  0.75000000  0.70141240  0.27886378  1
  N  N11  1  0.75000000  0.79858760  0.77886378  1
loop_
_geom_bond_atom_site_label_1
_geom_bond_atom_site_label_2
_geom_bond_distance
_geom_bond_site_symmetry_2
N0 Nb2 2.155220 1_455
N0 Nb2 2.155220 1_555
N0 Nb7 2.223201 1_455
N0 Nb7 2.223201 1_555
N0 Nb5 2.228349 1_555
N0 N2 2.668743 1_455
N0 N2 2.668743 1_555
N1 Nb3 2.155220 1_555
N1 Nb3 2.155220 1_455
N1 Nb6 2.223201 1_465
N1 Nb6 2.223201 1_565
N1 Nb4 2.228349 1_554
N1 N3 2.668743 1_464
N1 N3 2.668743 1_564
N2 Nb0 2.155220 1_555
N2 Nb0 2.155220 1_655
N2 Nb5 2.223201 1_655
N2 Nb5 2.223201 1_555
N2 Nb7 2.228349 1_555
N3 Nb1 2.155220 1_555
N3 Nb1 2.155220 1_655
N3 Nb4 2.223201 1_545
N3 Nb4 2.223201 1_645
N3 Nb6 2.228349 1_556
N4 Nb0 2.091200 1_565
N4 Nb6 2.189823 1_465
N4 Nb6 2.189823 1_565
N4 Nb2 2.234908 1_455
N4 Nb2 2.234908 1_555
N4 N9 2.421430 1_565
N4 N6 2.631310 1_565
N4 N6 2.631310 1_465
N5 Nb1 2.091200 1_555
N5 Nb7 2.189823 1_555
N5 Nb7 2.189823 1_455
N5 Nb3 2.234908 1_456
N5 Nb3 2.234908 1_556
N5 N8 2.421430 1_555
N5 N7 2.631310 1_456
N5 N7 2.631310 1_556
N6 Nb2 2.091200 1_545
N6 Nb4 2.189823 1_645
N6 Nb4 2.189823 1_545
N6 Nb0 2.234908 1_555
N6 Nb0 2.234908 1_655
N6 N8 2.682789 1_655
N6 N8 2.682789 1_555
N7 Nb3 2.091200 1_555
N7 Nb5 2.189823 1_555
N7 Nb5 2.189823 1_655
N7 Nb1 2.234908 1_554
N7 Nb1 2.234908 1_654
N7 N9 2.682789 1_655
N7 N9 2.682789 1_555
N8 Nb1 2.138145 1_555
N8 Nb0 2.213334 1_555
N8 Nb7 2.218781 1_555
N8 Nb7 2.218781 1_455
N8 Nb4 2.579870 1_545
N9 Nb0 2.138145 1_555
N9 Nb1 2.213334 1_554
N9 Nb6 2.218781 1_555
N9 Nb6 2.218781 1_455
N9 Nb5 2.579870 1_555
N10 Nb3 2.138145 1_555
N10 Nb2 2.213334 1_555
N10 Nb5 2.218781 1_555
N10 Nb5 2.218781 1_655
N10 N7 2.421430 1_555
N10 Nb6 2.579870 1_565
N10 N4 2.682789 1_555
N10 N4 2.682789 1_655
N11 Nb2 2.138145 1_555
N11 Nb3 2.213334 1_556
N11 Nb4 2.218781 1_655
N11 Nb4 2.218781 1_555
N11 N6 2.421430 1_565
N11 Nb7 2.579870 1_555
N11 N5 2.682789 1_655
N11 N5 2.682789 1_555
