# generated using pymatgen
data_YB4W3
_symmetry_space_group_name_H-M   'P 1'
_cell_length_a   6.25729800
_cell_length_b   6.46041000
_cell_length_c   18.90343600
_cell_angle_alpha   90.00000000
_cell_angle_beta   90.00000000
_cell_angle_gamma   90.00000000
_symmetry_Int_Tables_number   1
_chemical_formula_structural   YB4W3
_chemical_formula_sum   'Y8 B32 W24'
_cell_volume   764.16592912
_cell_formula_units_Z   8
loop_
 _symmetry_equiv_pos_site_id
 _symmetry_equiv_pos_as_xyz
  1  'x, y, z'
loop_
 _atom_site_type_symbol
 _atom_site_label
 _atom_site_symmetry_multiplicity
 _atom_site_fract_x
 _atom_site_fract_y
 _atom_site_fract_z
 _atom_site_occupancy
  Y  Y0_0  1  0.12500000  0.00000000  0.07512150  1
  Y  Y0_1  1  0.12500000  0.00000000  0.57512150  1
  Y  Y0_2  1  0.12500000  0.50000000  0.07512150  1
  Y  Y0_3  1  0.12500000  0.50000000  0.57512150  1
  Y  Y0_4  1  0.62500000  0.00000000  0.07512150  1
  Y  Y0_5  1  0.62500000  0.00000000  0.57512150  1
  Y  Y0_6  1  0.62500000  0.50000000  0.07512150  1
  Y  Y0_7  1  0.62500000  0.50000000  0.57512150  1
  B  B0_0  1  0.12500000  0.00000000  0.23103500  1
  B  B0_1  1  0.12500000  0.00000000  0.73103500  1
  B  B0_2  1  0.12500000  0.50000000  0.23103500  1
  B  B0_3  1  0.12500000  0.50000000  0.73103500  1
  B  B0_4  1  0.62500000  0.00000000  0.23103500  1
  B  B0_5  1  0.62500000  0.00000000  0.73103500  1
  B  B0_6  1  0.62500000  0.50000000  0.23103500  1
  B  B0_7  1  0.62500000  0.50000000  0.73103500  1
  B  B1_0  1  0.12500000  0.25000000  0.45935350  1
  B  B1_1  1  0.12500000  0.25000000  0.95935350  1
  B  B1_2  1  0.12500000  0.75000000  0.45935350  1
  B  B1_3  1  0.12500000  0.75000000  0.95935350  1
  B  B1_4  1  0.62500000  0.25000000  0.45935350  1
  B  B1_5  1  0.62500000  0.25000000  0.95935350  1
  B  B1_6  1  0.62500000  0.75000000  0.45935350  1
  B  B1_7  1  0.62500000  0.75000000  0.95935350  1
  B  B2_0  1  0.37500000  0.25000000  0.00243650  1
  B  B2_1  1  0.37500000  0.25000000  0.50243650  1
  B  B2_2  1  0.37500000  0.75000000  0.00243650  1
  B  B2_3  1  0.37500000  0.75000000  0.50243650  1
  B  B2_4  1  0.87500000  0.25000000  0.00243650  1
  B  B2_5  1  0.87500000  0.25000000  0.50243650  1
  B  B2_6  1  0.87500000  0.75000000  0.00243650  1
  B  B2_7  1  0.87500000  0.75000000  0.50243650  1
  B  B3_0  1  0.37500000  0.00000000  0.28693200  1
  B  B3_1  1  0.37500000  0.00000000  0.78693200  1
  B  B3_2  1  0.37500000  0.50000000  0.28693200  1
  B  B3_3  1  0.37500000  0.50000000  0.78693200  1
  B  B3_4  1  0.87500000  0.00000000  0.28693200  1
  B  B3_5  1  0.87500000  0.00000000  0.78693200  1
  B  B3_6  1  0.87500000  0.50000000  0.28693200  1
  B  B3_7  1  0.87500000  0.50000000  0.78693200  1
  W  W0_0  1  0.12500000  0.25000000  0.32632150  1
  W  W0_1  1  0.12500000  0.25000000  0.82632150  1
  W  W0_2  1  0.12500000  0.75000000  0.32632150  1
  W  W0_3  1  0.12500000  0.75000000  0.82632150  1
  W  W0_4  1  0.62500000  0.25000000  0.32632150  1
  W  W0_5  1  0.62500000  0.25000000  0.82632150  1
  W  W0_6  1  0.62500000  0.75000000  0.32632150  1
  W  W0_7  1  0.62500000  0.75000000  0.82632150  1
  W  W1_0  1  0.37500000  0.25000000  0.19918700  1
  W  W1_1  1  0.37500000  0.25000000  0.69918700  1
  W  W1_2  1  0.37500000  0.75000000  0.19918700  1
  W  W1_3  1  0.37500000  0.75000000  0.69918700  1
  W  W1_4  1  0.87500000  0.25000000  0.19918700  1
  W  W1_5  1  0.87500000  0.25000000  0.69918700  1
  W  W1_6  1  0.87500000  0.75000000  0.19918700  1
  W  W1_7  1  0.87500000  0.75000000  0.69918700  1
  W  W2_0  1  0.37500000  0.00000000  0.41961300  1
  W  W2_1  1  0.37500000  0.00000000  0.91961300  1
  W  W2_2  1  0.37500000  0.50000000  0.41961300  1
  W  W2_3  1  0.37500000  0.50000000  0.91961300  1
  W  W2_4  1  0.87500000  0.00000000  0.41961300  1
  W  W2_5  1  0.87500000  0.00000000  0.91961300  1
  W  W2_6  1  0.87500000  0.50000000  0.41961300  1
  W  W2_7  1  0.87500000  0.50000000  0.91961300  1
loop_
_geom_bond_atom_site_label_1
_geom_bond_atom_site_label_2
_geom_bond_distance
_geom_bond_site_symmetry_2
Y0_0 Y0_4 3.128649 1_455
Y0_0 Y0_4 3.128649 1_555
Y0_0 Y0_2 3.230205 1_545
Y0_0 Y0_2 3.230205 1_555
Y0_1 Y0_5 3.128649 1_455
Y0_1 Y0_5 3.128649 1_555
Y0_1 Y0_3 3.230205 1_555
Y0_1 Y0_3 3.230205 1_545
Y0_2 Y0_6 3.128649 1_555
Y0_2 Y0_6 3.128649 1_455
Y0_3 Y0_7 3.128649 1_555
Y0_3 Y0_7 3.128649 1_455
Y0_4 Y0_6 3.230205 1_555
Y0_4 Y0_6 3.230205 1_545
Y0_5 Y0_7 3.230205 1_545
Y0_5 Y0_7 3.230205 1_555
B0_0 B3_4 1.887753 1_455
B0_0 B3_0 1.887753 1_555
B0_0 W1_4 2.327685 1_455
B0_0 W1_6 2.327685 1_445
B0_0 W1_2 2.327685 1_545
B0_0 W1_0 2.327685 1_555
B0_0 W0_0 2.419304 1_555
B0_0 W0_2 2.419304 1_545
B0_0 Y0_0 2.947301 1_555
B0_1 B3_5 1.887753 1_455
B0_1 B3_1 1.887753 1_555
B0_1 W1_5 2.327685 1_455
B0_1 W1_7 2.327685 1_445
B0_1 W1_3 2.327685 1_545
B0_1 W1_1 2.327685 1_555
B0_1 W0_1 2.419304 1_555
B0_1 W0_3 2.419304 1_545
B0_1 Y0_1 2.947301 1_555
B0_2 B3_6 1.887753 1_455
B0_2 B3_2 1.887753 1_555
B0_2 W1_4 2.327685 1_455
B0_2 W1_6 2.327685 1_455
B0_2 W1_2 2.327685 1_555
B0_2 W1_0 2.327685 1_555
B0_2 W0_0 2.419304 1_555
B0_2 W0_2 2.419304 1_555
B0_2 Y0_2 2.947301 1_555
B0_3 B3_7 1.887753 1_455
B0_3 B3_3 1.887753 1_555
B0_3 W1_7 2.327685 1_455
B0_3 W1_5 2.327685 1_455
B0_3 W1_1 2.327685 1_555
B0_3 W1_3 2.327685 1_555
B0_3 W0_3 2.419304 1_555
B0_3 W0_1 2.419304 1_555
B0_3 Y0_3 2.947301 1_555
B0_4 B3_0 1.887753 1_555
B0_4 B3_4 1.887753 1_555
B0_4 W1_2 2.327685 1_545
B0_4 W1_0 2.327685 1_555
B0_4 W1_6 2.327685 1_545
B0_4 W1_4 2.327685 1_555
B0_4 W0_6 2.419304 1_545
B0_4 W0_4 2.419304 1_555
B0_4 Y0_4 2.947301 1_555
B0_5 B3_1 1.887753 1_555
B0_5 B3_5 1.887753 1_555
B0_5 W1_3 2.327685 1_545
B0_5 W1_1 2.327685 1_555
B0_5 W1_7 2.327685 1_545
B0_5 W1_5 2.327685 1_555
B0_5 W0_7 2.419304 1_545
B0_5 W0_5 2.419304 1_555
B0_5 Y0_5 2.947301 1_555
B0_6 B3_2 1.887753 1_555
B0_6 B3_6 1.887753 1_555
B0_6 W1_0 2.327685 1_555
B0_6 W1_2 2.327685 1_555
B0_6 W1_6 2.327685 1_555
B0_6 W1_4 2.327685 1_555
B0_6 W0_6 2.419304 1_555
B0_6 W0_4 2.419304 1_555
B0_6 Y0_6 2.947301 1_555
B0_7 B3_3 1.887753 1_555
B0_7 B3_7 1.887753 1_555
B0_7 W1_3 2.327685 1_555
B0_7 W1_1 2.327685 1_555
B0_7 W1_7 2.327685 1_555
B0_7 W1_5 2.327685 1_555
B0_7 W0_7 2.419304 1_555
B0_7 W0_5 2.419304 1_555
B0_7 Y0_7 2.947301 1_555
B1_0 B2_5 1.763629 1_455
B1_0 B2_1 1.763629 1_555
B1_0 W2_6 2.370657 1_455
B1_0 W2_4 2.370657 1_455
B1_0 W2_2 2.370657 1_555
B1_0 W2_0 2.370657 1_555
B1_0 W0_0 2.514762 1_555
B1_0 Y0_1 2.719873 1_555
B1_0 Y0_3 2.719873 1_555
B1_1 B2_4 1.763629 1_456
B1_1 B2_0 1.763629 1_556
B1_1 W2_5 2.370657 1_455
B1_1 W2_7 2.370657 1_455
B1_1 W2_1 2.370657 1_555
B1_1 W2_3 2.370657 1_555
B1_1 W0_1 2.514762 1_555
B1_1 Y0_2 2.719873 1_556
B1_1 Y0_0 2.719873 1_556
B1_2 B2_7 1.763629 1_455
B1_2 B2_3 1.763629 1_555
B1_2 W2_6 2.370657 1_455
B1_2 W2_4 2.370657 1_465
B1_2 W2_0 2.370657 1_565
B1_2 W2_2 2.370657 1_555
B1_2 W0_2 2.514762 1_555
B1_2 Y0_1 2.719873 1_565
B1_2 Y0_3 2.719873 1_555
B1_3 B2_6 1.763629 1_456
B1_3 B2_2 1.763629 1_556
B1_3 W2_7 2.370657 1_455
B1_3 W2_5 2.370657 1_465
B1_3 W2_3 2.370657 1_555
B1_3 W2_1 2.370657 1_565
B1_3 W0_3 2.514762 1_555
B1_3 Y0_0 2.719873 1_566
B1_3 Y0_2 2.719873 1_556
B1_4 B2_1 1.763629 1_555
B1_4 B2_5 1.763629 1_555
B1_4 W2_2 2.370657 1_555
B1_4 W2_0 2.370657 1_555
B1_4 W2_6 2.370657 1_555
B1_4 W2_4 2.370657 1_555
B1_4 W0_4 2.514762 1_555
B1_4 Y0_5 2.719873 1_555
B1_4 Y0_7 2.719873 1_555
B1_5 B2_0 1.763629 1_556
B1_5 B2_4 1.763629 1_556
B1_5 W2_1 2.370657 1_555
B1_5 W2_3 2.370657 1_555
B1_5 W2_7 2.370657 1_555
B1_5 W2_5 2.370657 1_555
B1_5 W0_5 2.514762 1_555
B1_5 Y0_6 2.719873 1_556
B1_5 Y0_4 2.719873 1_556
B1_6 B2_3 1.763629 1_555
B1_6 B2_7 1.763629 1_555
B1_6 W2_2 2.370657 1_555
B1_6 W2_0 2.370657 1_565
B1_6 W2_6 2.370657 1_555
B1_6 W2_4 2.370657 1_565
B1_6 W0_6 2.514762 1_555
B1_6 Y0_5 2.719873 1_565
B1_6 Y0_7 2.719873 1_555
B1_7 B2_2 1.763629 1_556
B1_7 B2_6 1.763629 1_556
B1_7 W2_1 2.370657 1_565
B1_7 W2_3 2.370657 1_555
B1_7 W2_7 2.370657 1_555
B1_7 W2_5 2.370657 1_565
B1_7 W0_7 2.514762 1_555
B1_7 Y0_4 2.719873 1_566
B1_7 Y0_6 2.719873 1_556
B2_0 W2_3 2.249403 1_554
B2_0 W2_1 2.249403 1_554
B2_0 Y0_4 2.635058 1_555
B2_0 Y0_6 2.635058 1_555
B2_0 Y0_0 2.635058 1_555
B2_0 Y0_2 2.635058 1_555
B2_1 W2_0 2.249403 1_555
B2_1 W2_2 2.249403 1_555
B2_1 Y0_7 2.635058 1_555
B2_1 Y0_5 2.635058 1_555
B2_1 Y0_3 2.635058 1_555
B2_1 Y0_1 2.635058 1_555
B2_2 W2_3 2.249403 1_554
B2_2 W2_1 2.249403 1_564
B2_2 Y0_4 2.635058 1_565
B2_2 Y0_6 2.635058 1_555
B2_2 Y0_0 2.635058 1_565
B2_2 Y0_2 2.635058 1_555
B2_3 W2_0 2.249403 1_565
B2_3 W2_2 2.249403 1_555
B2_3 Y0_7 2.635058 1_555
B2_3 Y0_5 2.635058 1_565
B2_3 Y0_3 2.635058 1_555
B2_3 Y0_1 2.635058 1_565
B2_4 W2_7 2.249403 1_554
B2_4 W2_5 2.249403 1_554
B2_4 Y0_0 2.635058 1_655
B2_4 Y0_2 2.635058 1_655
B2_4 Y0_6 2.635058 1_555
B2_4 Y0_4 2.635058 1_555
B2_5 W2_6 2.249403 1_555
B2_5 W2_4 2.249403 1_555
B2_5 Y0_1 2.635058 1_655
B2_5 Y0_3 2.635058 1_655
B2_5 Y0_7 2.635058 1_555
B2_5 Y0_5 2.635058 1_555
B2_6 W2_7 2.249403 1_554
B2_6 W2_5 2.249403 1_564
B2_6 Y0_2 2.635058 1_655
B2_6 Y0_0 2.635058 1_665
B2_6 Y0_6 2.635058 1_555
B2_6 Y0_4 2.635058 1_565
B2_7 W2_4 2.249403 1_565
B2_7 W2_6 2.249403 1_555
B2_7 Y0_1 2.635058 1_665
B2_7 Y0_3 2.635058 1_655
B2_7 Y0_7 2.635058 1_555
B2_7 Y0_5 2.635058 1_565
B3_0 W1_2 2.315120 1_545
B3_0 W1_0 2.315120 1_555
B3_0 W0_6 2.368563 1_545
B3_0 W0_4 2.368563 1_555
B3_0 W0_0 2.368563 1_555
B3_0 W0_2 2.368563 1_545
B3_0 W2_0 2.508127 1_555
B3_1 W1_3 2.315120 1_545
B3_1 W1_1 2.315120 1_555
B3_1 W0_7 2.368563 1_545
B3_1 W0_5 2.368563 1_555
B3_1 W0_3 2.368563 1_545
B3_1 W0_1 2.368563 1_555
B3_1 W2_1 2.508127 1_555
B3_2 W1_2 2.315120 1_555
B3_2 W1_0 2.315120 1_555
B3_2 W0_4 2.368563 1_555
B3_2 W0_6 2.368563 1_555
B3_2 W0_2 2.368563 1_555
B3_2 W0_0 2.368563 1_555
B3_2 W2_2 2.508127 1_555
B3_3 W1_3 2.315120 1_555
B3_3 W1_1 2.315120 1_555
B3_3 W0_7 2.368563 1_555
B3_3 W0_5 2.368563 1_555
B3_3 W0_3 2.368563 1_555
B3_3 W0_1 2.368563 1_555
B3_3 W2_3 2.508127 1_555
B3_4 W1_4 2.315120 1_555
B3_4 W1_6 2.315120 1_545
B3_4 W0_0 2.368563 1_655
B3_4 W0_2 2.368563 1_645
B3_4 W0_6 2.368563 1_545
B3_4 W0_4 2.368563 1_555
B3_4 W2_4 2.508127 1_555
B3_5 W1_5 2.315120 1_555
B3_5 W1_7 2.315120 1_545
B3_5 W0_1 2.368563 1_655
B3_5 W0_3 2.368563 1_645
B3_5 W0_7 2.368563 1_545
B3_5 W0_5 2.368563 1_555
B3_5 W2_5 2.508127 1_555
B3_6 W1_6 2.315120 1_555
B3_6 W1_4 2.315120 1_555
B3_6 W0_2 2.368563 1_655
B3_6 W0_0 2.368563 1_655
B3_6 W0_6 2.368563 1_555
B3_6 W0_4 2.368563 1_555
B3_6 W2_6 2.508127 1_555
B3_7 W1_5 2.315120 1_555
B3_7 W1_7 2.315120 1_555
B3_7 W0_1 2.368563 1_655
B3_7 W0_3 2.368563 1_655
B3_7 W0_7 2.368563 1_555
B3_7 W0_5 2.368563 1_555
B3_7 W2_7 2.508127 1_555
W0_0 W2_6 2.857570 1_455
W0_0 W2_4 2.857570 1_455
W0_0 W2_0 2.857570 1_555
W0_0 W2_2 2.857570 1_555
W0_1 W2_5 2.857570 1_455
W0_1 W2_7 2.857570 1_455
W0_1 W2_3 2.857570 1_555
W0_1 W2_1 2.857570 1_555
W0_2 W2_6 2.857570 1_455
W0_2 W2_4 2.857570 1_465
W0_2 W2_2 2.857570 1_555
W0_2 W2_0 2.857570 1_565
W0_3 W2_7 2.857570 1_455
W0_3 W2_5 2.857570 1_465
W0_3 W2_3 2.857570 1_555
W0_3 W2_1 2.857570 1_565
W0_4 W2_2 2.857570 1_555
W0_4 W2_0 2.857570 1_555
W0_4 W2_6 2.857570 1_555
W0_4 W2_4 2.857570 1_555
W0_5 W2_1 2.857570 1_555
W0_5 W2_3 2.857570 1_555
W0_5 W2_5 2.857570 1_555
W0_5 W2_7 2.857570 1_555
W0_6 W2_0 2.857570 1_565
W0_6 W2_2 2.857570 1_555
W0_6 W2_4 2.857570 1_565
W0_6 W2_6 2.857570 1_555
W0_7 W2_1 2.857570 1_565
W0_7 W2_3 2.857570 1_555
W0_7 W2_7 2.857570 1_555
W0_7 W2_5 2.857570 1_565
W1_0 Y0_4 3.248989 1_555
W1_0 Y0_6 3.248989 1_555
W1_0 Y0_2 3.248989 1_555
W1_0 Y0_0 3.248989 1_555
W1_1 Y0_7 3.248989 1_555
W1_1 Y0_5 3.248989 1_555
W1_1 Y0_1 3.248989 1_555
W1_1 Y0_3 3.248989 1_555
W1_2 Y0_4 3.248989 1_565
W1_2 Y0_6 3.248989 1_555
W1_2 Y0_2 3.248989 1_555
W1_2 Y0_0 3.248989 1_565
W1_3 Y0_7 3.248989 1_555
W1_3 Y0_5 3.248989 1_565
W1_3 Y0_3 3.248989 1_555
W1_3 Y0_1 3.248989 1_565
W1_4 Y0_2 3.248989 1_655
W1_4 Y0_0 3.248989 1_655
W1_4 Y0_6 3.248989 1_555
W1_4 Y0_4 3.248989 1_555
W1_5 Y0_3 3.248989 1_655
W1_5 Y0_1 3.248989 1_655
W1_5 Y0_5 3.248989 1_555
W1_5 Y0_7 3.248989 1_555
W1_6 Y0_2 3.248989 1_655
W1_6 Y0_0 3.248989 1_665
W1_6 Y0_6 3.248989 1_555
W1_6 Y0_4 3.248989 1_565
W1_7 Y0_3 3.248989 1_655
W1_7 Y0_1 3.248989 1_665
W1_7 Y0_5 3.248989 1_565
W1_7 Y0_7 3.248989 1_555
