# generated using pymatgen
data_TiZn2WO6
_symmetry_space_group_name_H-M   'P 1'
_cell_length_a   5.58759523
_cell_length_b   5.58759523
_cell_length_c   5.58759534
_cell_angle_alpha   55.96371949
_cell_angle_beta   55.96371949
_cell_angle_gamma   55.96372106
_symmetry_Int_Tables_number   1
_chemical_formula_structural   TiZn2WO6
_chemical_formula_sum   'Ti1 Zn2 W1 O6'
_cell_volume   111.81912954
_cell_formula_units_Z   1
loop_
 _symmetry_equiv_pos_site_id
 _symmetry_equiv_pos_as_xyz
  1  'x, y, z'
loop_
 _atom_site_type_symbol
 _atom_site_label
 _atom_site_symmetry_multiplicity
 _atom_site_fract_x
 _atom_site_fract_y
 _atom_site_fract_z
 _atom_site_occupancy
  Ti  Ti0  1  0.51924300  0.51924300  0.51924300  1
  Zn  Zn0  1  0.78877000  0.78877000  0.78877000  1
  Zn  Zn1  1  0.30065500  0.30065500  0.30065500  1
  W  W0  1  0.01545000  0.01545000  0.01545000  1
  O  O0  1  0.13523700  0.73811900  0.40362000  1
  O  O1  1  0.88628500  0.26339400  0.62773800  1
  O  O2  1  0.40362000  0.13523700  0.73811900  1
  O  O3  1  0.26339400  0.62773800  0.88628500  1
  O  O4  1  0.73811900  0.40362000  0.13523700  1
  O  O5  1  0.62773800  0.88628500  0.26339400  1
loop_
_geom_bond_atom_site_label_1
_geom_bond_atom_site_label_2
_geom_bond_distance
_geom_bond_site_symmetry_2
O0 Zn0 1.965685 1_455
O0 Ti0 2.060762 1_555
O0 W0 2.062808 1_565
O0 Zn1 2.368568 1_555
O1 Ti0 1.938269 1_555
O1 Zn1 2.030029 1_655
O1 W0 2.098716 1_656
O1 Zn0 2.556791 1_545
O2 Zn0 1.965685 1_545
O2 Ti0 2.060762 1_555
O2 W0 2.062808 1_556
O2 Zn1 2.368568 1_555
O3 Ti0 1.938269 1_555
O3 Zn1 2.030029 1_556
O3 W0 2.098716 1_566
O3 Zn0 2.556791 1_455
O4 Zn0 1.965685 1_554
O4 Ti0 2.060762 1_555
O4 W0 2.062808 1_655
O4 Zn1 2.368568 1_555
O5 Ti0 1.938269 1_555
O5 Zn1 2.030029 1_565
O5 W0 2.098716 1_665
O5 Zn0 2.556791 1_554
