# generated using pymatgen
data_K(PRu)2
_symmetry_space_group_name_H-M   'P 1'
_cell_length_a   13.72804839
_cell_length_b   13.72804839
_cell_length_c   13.72804839
_cell_angle_alpha   145.91802082
_cell_angle_beta   145.91802082
_cell_angle_gamma   48.96854546
_symmetry_Int_Tables_number   1
_chemical_formula_structural   K(PRu)2
_chemical_formula_sum   'K8 P16 Ru16'
_cell_volume   808.84289615
_cell_formula_units_Z   8
loop_
 _symmetry_equiv_pos_site_id
 _symmetry_equiv_pos_as_xyz
  1  'x, y, z'
loop_
 _atom_site_type_symbol
 _atom_site_label
 _atom_site_symmetry_multiplicity
 _atom_site_fract_x
 _atom_site_fract_y
 _atom_site_fract_z
 _atom_site_occupancy
  K  K0_0  1  0.00000000  0.00000000  0.00000000  1
  K  K0_1  1  0.00000000  0.00000000  0.50000000  1
  K  K0_2  1  0.00000000  0.50000000  0.00000000  1
  K  K0_3  1  0.00000000  0.50000000  0.50000000  1
  K  K0_4  1  0.50000000  0.00000000  0.00000000  1
  K  K0_5  1  0.50000000  0.00000000  0.50000000  1
  K  K0_6  1  0.50000000  0.50000000  0.00000000  1
  K  K0_7  1  0.50000000  0.50000000  0.50000000  1
  P  P0_0  1  0.16936102  0.16936102  0.00000000  1
  P  P0_1  1  0.16936102  0.16936102  0.50000000  1
  P  P0_2  1  0.16936102  0.66936102  0.00000000  1
  P  P0_3  1  0.16936102  0.66936102  0.50000000  1
  P  P0_4  1  0.66936102  0.16936102  0.00000000  1
  P  P0_5  1  0.66936102  0.16936102  0.50000000  1
  P  P0_6  1  0.66936102  0.66936102  0.00000000  1
  P  P0_7  1  0.66936102  0.66936102  0.50000000  1
  P  P1_0  1  0.33063898  0.33063898  0.00000000  1
  P  P1_1  1  0.33063898  0.33063898  0.50000000  1
  P  P1_2  1  0.33063898  0.83063898  0.00000000  1
  P  P1_3  1  0.33063898  0.83063898  0.50000000  1
  P  P1_4  1  0.83063898  0.33063898  0.00000000  1
  P  P1_5  1  0.83063898  0.33063898  0.50000000  1
  P  P1_6  1  0.83063898  0.83063898  0.00000000  1
  P  P1_7  1  0.83063898  0.83063898  0.50000000  1
  Ru  Ru0_0  1  0.37500000  0.12500000  0.25000000  1
  Ru  Ru0_1  1  0.37500000  0.12500000  0.75000000  1
  Ru  Ru0_2  1  0.37500000  0.62500000  0.25000000  1
  Ru  Ru0_3  1  0.37500000  0.62500000  0.75000000  1
  Ru  Ru0_4  1  0.87500000  0.12500000  0.25000000  1
  Ru  Ru0_5  1  0.87500000  0.12500000  0.75000000  1
  Ru  Ru0_6  1  0.87500000  0.62500000  0.25000000  1
  Ru  Ru0_7  1  0.87500000  0.62500000  0.75000000  1
  Ru  Ru1_0  1  0.12500000  0.37500000  0.25000000  1
  Ru  Ru1_1  1  0.12500000  0.37500000  0.75000000  1
  Ru  Ru1_2  1  0.12500000  0.87500000  0.25000000  1
  Ru  Ru1_3  1  0.12500000  0.87500000  0.75000000  1
  Ru  Ru1_4  1  0.62500000  0.37500000  0.25000000  1
  Ru  Ru1_5  1  0.62500000  0.37500000  0.75000000  1
  Ru  Ru1_6  1  0.62500000  0.87500000  0.25000000  1
  Ru  Ru1_7  1  0.62500000  0.87500000  0.75000000  1
loop_
_geom_bond_atom_site_label_1
_geom_bond_atom_site_label_2
_geom_bond_distance
_geom_bond_site_symmetry_2
K0_0 P0_1 3.486053 1_555
K0_0 P1_1 3.486053 1_555
K0_0 P1_7 3.486053 1_444
K0_0 P1_2 3.486053 1_545
K0_0 P1_4 3.486053 1_455
K0_0 P0_7 3.486053 1_444
K0_0 P0_4 3.486053 1_455
K0_0 P0_2 3.486053 1_545
K0_0 Ru0_4 3.715085 1_455
K0_0 Ru0_0 3.715085 1_555
K0_0 Ru0_7 3.715085 1_444
K0_0 Ru0_5 3.715085 1_454
K0_0 Ru1_2 3.715085 1_545
K0_0 Ru1_0 3.715085 1_555
K0_0 Ru1_7 3.715085 1_444
K0_0 Ru1_3 3.715085 1_544
K0_0 K0_3 4.023084 1_555
K0_0 K0_5 4.023084 1_454
K0_0 K0_5 4.023084 1_555
K0_0 K0_3 4.023084 1_544
K0_1 P0_0 3.486053 1_556
K0_1 P0_5 3.486053 1_455
K0_1 P0_3 3.486053 1_545
K0_1 P1_6 3.486053 1_445
K0_1 P1_0 3.486053 1_556
K0_1 P1_5 3.486053 1_455
K0_1 P0_6 3.486053 1_445
K0_1 P1_3 3.486053 1_545
K0_1 Ru0_5 3.715085 1_455
K0_1 Ru0_4 3.715085 1_455
K0_1 Ru1_3 3.715085 1_545
K0_1 Ru1_2 3.715085 1_545
K0_1 Ru0_6 3.715085 1_445
K0_1 Ru1_6 3.715085 1_445
K0_1 Ru0_1 3.715085 1_555
K0_1 Ru1_1 3.715085 1_555
K0_1 K0_4 4.023084 1_455
K0_1 K0_2 4.023084 1_556
K0_1 K0_2 4.023084 1_545
K0_1 K0_4 4.023084 1_556
K0_2 P0_3 3.486053 1_555
K0_2 P0_0 3.486053 1_555
K0_2 P1_5 3.486053 1_454
K0_2 P0_6 3.486053 1_455
K0_2 P0_5 3.486053 1_454
K0_2 P1_3 3.486053 1_555
K0_2 P1_6 3.486053 1_455
K0_2 P1_0 3.486053 1_555
K0_2 Ru1_2 3.715085 1_555
K0_2 Ru0_5 3.715085 1_454
K0_2 Ru1_0 3.715085 1_555
K0_2 Ru0_7 3.715085 1_454
K0_2 Ru1_5 3.715085 1_454
K0_2 Ru0_6 3.715085 1_455
K0_2 Ru0_2 3.715085 1_555
K0_2 Ru1_1 3.715085 1_554
K0_2 K0_7 4.023084 1_555
K0_2 K0_7 4.023084 1_454
K0_3 P1_7 3.486053 1_455
K0_3 P1_4 3.486053 1_455
K0_3 P0_4 3.486053 1_455
K0_3 P1_1 3.486053 1_555
K0_3 P0_2 3.486053 1_556
K0_3 P0_7 3.486053 1_455
K0_3 P1_2 3.486053 1_556
K0_3 P0_1 3.486053 1_555
K0_3 Ru0_4 3.715085 1_455
K0_3 Ru1_0 3.715085 1_555
K0_3 Ru1_1 3.715085 1_555
K0_3 Ru1_4 3.715085 1_455
K0_3 Ru0_6 3.715085 1_455
K0_3 Ru1_3 3.715085 1_555
K0_3 Ru0_7 3.715085 1_455
K0_3 Ru0_3 3.715085 1_555
K0_3 K0_6 4.023084 1_455
K0_3 K0_6 4.023084 1_556
K0_4 P0_3 3.486053 1_544
K0_4 P0_5 3.486053 1_555
K0_4 P0_0 3.486053 1_555
K0_4 P0_6 3.486053 1_545
K0_4 P1_6 3.486053 1_545
K0_4 P1_3 3.486053 1_544
K0_4 P1_0 3.486053 1_555
K0_4 P1_5 3.486053 1_555
K0_4 Ru0_3 3.715085 1_544
K0_4 Ru1_7 3.715085 1_544
K0_4 Ru1_4 3.715085 1_555
K0_4 Ru0_0 3.715085 1_555
K0_4 Ru1_3 3.715085 1_544
K0_4 Ru0_1 3.715085 1_554
K0_4 Ru0_4 3.715085 1_555
K0_4 Ru1_6 3.715085 1_545
K0_4 K0_7 4.023084 1_544
K0_4 K0_7 4.023084 1_555
K0_5 P0_1 3.486053 1_555
K0_5 P1_1 3.486053 1_555
K0_5 P0_2 3.486053 1_545
K0_5 P1_4 3.486053 1_556
K0_5 P1_2 3.486053 1_545
K0_5 P0_7 3.486053 1_545
K0_5 P0_4 3.486053 1_556
K0_5 P1_7 3.486053 1_545
K0_5 Ru0_0 3.715085 1_555
K0_5 Ru1_2 3.715085 1_545
K0_5 Ru0_5 3.715085 1_555
K0_5 Ru0_1 3.715085 1_555
K0_5 Ru1_6 3.715085 1_545
K0_5 Ru0_2 3.715085 1_545
K0_5 Ru1_7 3.715085 1_545
K0_5 Ru1_5 3.715085 1_555
K0_5 K0_6 4.023084 1_545
K0_5 K0_6 4.023084 1_556
K0_6 P1_7 3.486053 1_555
K0_6 P0_2 3.486053 1_555
K0_6 P1_1 3.486053 1_554
K0_6 P1_4 3.486053 1_555
K0_6 P0_1 3.486053 1_554
K0_6 P1_2 3.486053 1_555
K0_6 P0_4 3.486053 1_555
K0_6 P0_7 3.486053 1_555
K0_6 Ru1_1 3.715085 1_554
K0_6 Ru1_4 3.715085 1_555
K0_6 Ru0_6 3.715085 1_555
K0_6 Ru0_1 3.715085 1_554
K0_6 Ru1_5 3.715085 1_554
K0_6 Ru1_6 3.715085 1_555
K0_6 Ru0_2 3.715085 1_555
K0_6 Ru0_3 3.715085 1_554
K0_7 P0_3 3.486053 1_555
K0_7 P1_3 3.486053 1_555
K0_7 P0_6 3.486053 1_556
K0_7 P0_0 3.486053 1_555
K0_7 P1_6 3.486053 1_556
K0_7 P1_0 3.486053 1_555
K0_7 P0_5 3.486053 1_555
K0_7 P1_5 3.486053 1_555
K0_7 Ru0_3 3.715085 1_555
K0_7 Ru0_0 3.715085 1_555
K0_7 Ru1_4 3.715085 1_555
K0_7 Ru0_7 3.715085 1_555
K0_7 Ru1_0 3.715085 1_555
K0_7 Ru1_7 3.715085 1_555
K0_7 Ru0_2 3.715085 1_555
K0_7 Ru1_5 3.715085 1_555
P0_0 Ru1_3 2.296730 1_544
P0_0 Ru1_0 2.296730 1_555
P0_0 Ru0_0 2.296730 1_555
P0_0 Ru0_5 2.296730 1_454
P0_1 Ru1_1 2.296730 1_555
P0_1 Ru0_1 2.296730 1_555
P0_1 Ru1_2 2.296730 1_545
P0_1 Ru0_4 2.296730 1_455
P0_2 Ru1_2 2.296730 1_555
P0_2 Ru1_1 2.296730 1_554
P0_2 Ru0_2 2.296730 1_555
P0_2 Ru0_7 2.296730 1_454
P0_3 Ru0_3 2.296730 1_555
P0_3 Ru1_3 2.296730 1_555
P0_3 Ru0_6 2.296730 1_455
P0_3 Ru1_0 2.296730 1_555
P0_4 Ru1_4 2.296730 1_555
P0_4 Ru0_4 2.296730 1_555
P0_4 Ru1_7 2.296730 1_544
P0_4 Ru0_1 2.296730 1_554
P0_5 Ru1_6 2.296730 1_545
P0_5 Ru0_5 2.296730 1_555
P0_5 Ru1_5 2.296730 1_555
P0_5 Ru0_0 2.296730 1_555
P0_6 Ru0_3 2.296730 1_554
P0_6 Ru1_5 2.296730 1_554
P0_6 Ru1_6 2.296730 1_555
P0_6 Ru0_6 2.296730 1_555
P0_7 Ru1_4 2.296730 1_555
P0_7 Ru0_7 2.296730 1_555
P0_7 Ru1_7 2.296730 1_555
P0_7 Ru0_2 2.296730 1_555
P1_0 Ru1_4 2.296730 1_555
P1_0 Ru0_2 2.296730 1_555
P1_0 Ru0_1 2.296730 1_554
P1_0 Ru1_1 2.296730 1_554
P1_1 Ru0_0 2.296730 1_555
P1_1 Ru1_0 2.296730 1_555
P1_1 Ru1_5 2.296730 1_555
P1_1 Ru0_3 2.296730 1_555
P1_2 Ru0_0 2.296730 1_565
P1_2 Ru1_6 2.296730 1_555
P1_2 Ru1_3 2.296730 1_554
P1_2 Ru0_3 2.296730 1_554
P1_3 Ru1_2 2.296730 1_555
P1_3 Ru0_1 2.296730 1_565
P1_3 Ru1_7 2.296730 1_555
P1_3 Ru0_2 2.296730 1_555
P1_4 Ru0_5 2.296730 1_554
P1_4 Ru1_0 2.296730 1_655
P1_4 Ru1_5 2.296730 1_554
P1_4 Ru0_6 2.296730 1_555
P1_5 Ru1_4 2.296730 1_555
P1_5 Ru0_4 2.296730 1_555
P1_5 Ru1_1 2.296730 1_655
P1_5 Ru0_7 2.296730 1_555
P1_6 Ru1_2 2.296730 1_655
P1_6 Ru1_7 2.296730 1_554
P1_6 Ru0_4 2.296730 1_565
P1_6 Ru0_7 2.296730 1_554
P1_7 Ru1_3 2.296730 1_655
P1_7 Ru0_5 2.296730 1_565
P1_7 Ru1_6 2.296730 1_555
P1_7 Ru0_6 2.296730 1_555
Ru0_0 Ru1_5 2.844750 1_555
Ru0_0 Ru1_3 2.844750 1_544
Ru0_0 Ru1_6 2.844750 1_545
Ru0_0 Ru1_0 2.844750 1_555
Ru0_1 Ru1_1 2.844750 1_555
Ru0_1 Ru1_4 2.844750 1_556
Ru0_1 Ru1_2 2.844750 1_545
Ru0_1 Ru1_7 2.844750 1_545
Ru0_2 Ru1_2 2.844750 1_555
Ru0_2 Ru1_1 2.844750 1_554
Ru0_2 Ru1_7 2.844750 1_555
Ru0_2 Ru1_4 2.844750 1_555
Ru0_3 Ru1_5 2.844750 1_555
Ru0_3 Ru1_6 2.844750 1_556
Ru0_3 Ru1_3 2.844750 1_555
Ru0_3 Ru1_0 2.844750 1_555
Ru0_4 Ru1_1 2.844750 1_655
Ru0_4 Ru1_2 2.844750 1_645
Ru0_4 Ru1_7 2.844750 1_544
Ru0_4 Ru1_4 2.844750 1_555
Ru0_5 Ru1_5 2.844750 1_555
Ru0_5 Ru1_3 2.844750 1_645
Ru0_5 Ru1_6 2.844750 1_545
Ru0_5 Ru1_0 2.844750 1_656
Ru0_6 Ru1_3 2.844750 1_655
Ru0_6 Ru1_5 2.844750 1_554
Ru0_6 Ru1_6 2.844750 1_555
Ru0_6 Ru1_0 2.844750 1_655
Ru0_7 Ru1_2 2.844750 1_656
Ru0_7 Ru1_1 2.844750 1_655
Ru0_7 Ru1_7 2.844750 1_555
Ru0_7 Ru1_4 2.844750 1_555
