# generated using pymatgen
data_Cs3IO
_symmetry_space_group_name_H-M   'P 1'
_cell_length_a   8.11543373
_cell_length_b   8.11543373
_cell_length_c   7.20733450
_cell_angle_alpha   90.00000000
_cell_angle_beta   90.00000000
_cell_angle_gamma   120.00000188
_symmetry_Int_Tables_number   1
_chemical_formula_structural   Cs3IO
_chemical_formula_sum   'Cs6 I2 O2'
_cell_volume   411.08229599
_cell_formula_units_Z   2
loop_
 _symmetry_equiv_pos_site_id
 _symmetry_equiv_pos_as_xyz
  1  'x, y, z'
loop_
 _atom_site_type_symbol
 _atom_site_label
 _atom_site_symmetry_multiplicity
 _atom_site_fract_x
 _atom_site_fract_y
 _atom_site_fract_z
 _atom_site_occupancy
  Cs  Cs0  1  0.15541656  0.31083312  0.25000000  1
  Cs  Cs1  1  0.84458344  0.68916688  0.75000000  1
  Cs  Cs2  1  0.68916688  0.84458344  0.25000000  1
  Cs  Cs3  1  0.31083312  0.15541656  0.75000000  1
  Cs  Cs4  1  0.15541656  0.84458344  0.25000000  1
  Cs  Cs5  1  0.84458344  0.15541656  0.75000000  1
  I  I0  1  0.33333300  0.66666700  0.75000000  1
  I  I1  1  0.66666700  0.33333300  0.25000000  1
  O  O0  1  -0.00000000  0.00000000  0.00000000  1
  O  O1  1  -0.00000000  0.00000000  0.50000000  1
loop_
_geom_bond_atom_site_label_1
_geom_bond_atom_site_label_2
_geom_bond_distance
_geom_bond_site_symmetry_2
Cs0 O0 2.831789 1_555
Cs0 O1 2.831789 1_555
Cs0 I1 4.060793 1_455
Cs0 I1 4.060801 1_555
Cs0 I0 4.386425 1_554
Cs0 I0 4.386425 1_555
Cs1 O0 2.831789 1_666
Cs1 O1 2.831789 1_665
Cs1 I0 4.060793 1_655
Cs1 I0 4.060801 1_555
Cs1 I1 4.386425 1_555
Cs1 I1 4.386425 1_556
Cs2 O1 2.831789 1_665
Cs2 O0 2.831789 1_665
Cs2 I1 4.060793 1_565
Cs2 I1 4.060801 1_555
Cs2 I0 4.386425 1_555
Cs2 I0 4.386425 1_554
Cs3 O0 2.831789 1_556
Cs3 O1 2.831789 1_555
Cs3 I0 4.060793 1_545
Cs3 I0 4.060801 1_555
Cs3 I1 4.386425 1_555
Cs3 I1 4.386425 1_556
Cs4 O1 2.831789 1_565
Cs4 O0 2.831789 1_565
Cs4 I1 4.060797 1_565
Cs4 I1 4.060797 1_455
Cs4 I0 4.386421 1_554
Cs4 I0 4.386421 1_555
Cs5 O0 2.831789 1_656
Cs5 O1 2.831789 1_655
Cs5 I0 4.060797 1_545
Cs5 I0 4.060797 1_655
Cs5 I1 4.386421 1_555
Cs5 I1 4.386421 1_556
