# generated using pymatgen
data_BaYCuAgO5
_symmetry_space_group_name_H-M   'P 1'
_cell_length_a   3.98234900
_cell_length_b   3.98234900
_cell_length_c   8.01243800
_cell_angle_alpha   90.00000000
_cell_angle_beta   90.00000000
_cell_angle_gamma   90.00000000
_symmetry_Int_Tables_number   1
_chemical_formula_structural   BaYCuAgO5
_chemical_formula_sum   'Ba1 Y1 Cu1 Ag1 O5'
_cell_volume   127.07008399
_cell_formula_units_Z   1
loop_
 _symmetry_equiv_pos_site_id
 _symmetry_equiv_pos_as_xyz
  1  'x, y, z'
loop_
 _atom_site_type_symbol
 _atom_site_label
 _atom_site_symmetry_multiplicity
 _atom_site_fract_x
 _atom_site_fract_y
 _atom_site_fract_z
 _atom_site_occupancy
  Ba  Ba0  1  0.50000000  0.50000000  0.99863600  1
  Y  Y0  1  0.50000000  0.50000000  0.45658000  1
  Cu  Cu0  1  0.00000000  0.00000000  0.23821000  1
  Ag  Ag0  1  0.00000000  0.00000000  0.69583900  1
  O  O0  1  0.50000000  0.00000000  0.62654000  1
  O  O1  1  0.00000000  0.50000000  0.62654000  1
  O  O2  1  0.50000000  0.00000000  0.27965400  1
  O  O3  1  0.00000000  0.50000000  0.27965400  1
  O  O4  1  0.00000000  0.00000000  0.98630000  1
loop_
_geom_bond_atom_site_label_1
_geom_bond_atom_site_label_2
_geom_bond_distance
_geom_bond_site_symmetry_2
Ba0 O4 2.817680 1_555
Ba0 O4 2.817680 1_655
Ba0 O4 2.817680 1_565
Ba0 O4 2.817680 1_665
Ba0 O2 3.005770 1_556
Ba0 O2 3.005770 1_566
Ba0 O3 3.005770 1_556
Ba0 O3 3.005770 1_656
Ba0 O0 3.585178 1_555
Ba0 O1 3.585178 1_555
Ba0 O0 3.585178 1_565
Ba0 O1 3.585178 1_655
Cu0 O4 2.018413 1_554
Cu0 O3 2.018674 1_555
Cu0 O2 2.018674 1_555
Cu0 O3 2.018674 1_545
Cu0 O2 2.018674 1_455
Ag0 O1 2.067144 1_555
Ag0 O1 2.067144 1_545
Ag0 O0 2.067144 1_455
Ag0 O0 2.067144 1_555
Ag0 O4 2.327301 1_555
O0 Y0 2.412314 1_545
O0 Y0 2.412314 1_555
O0 O2 2.779403 1_555
O1 Y0 2.412314 1_555
O1 Y0 2.412314 1_455
O1 O3 2.779403 1_555
O2 Y0 2.444257 1_545
O2 Y0 2.444257 1_555
O3 Y0 2.444257 1_555
O3 Y0 2.444257 1_455
