# generated using pymatgen
data_Sr10P6BrO24F
_symmetry_space_group_name_H-M   'P 1'
_cell_length_a   9.99359736
_cell_length_b   9.99359736
_cell_length_c   7.32550300
_cell_angle_alpha   90.00000000
_cell_angle_beta   90.00000000
_cell_angle_gamma   119.99999574
_symmetry_Int_Tables_number   1
_chemical_formula_structural   Sr10P6BrO24F
_chemical_formula_sum   'Sr10 P6 Br1 O24 F1'
_cell_volume   633.59508002
_cell_formula_units_Z   1
loop_
 _symmetry_equiv_pos_site_id
 _symmetry_equiv_pos_as_xyz
  1  'x, y, z'
loop_
 _atom_site_type_symbol
 _atom_site_label
 _atom_site_symmetry_multiplicity
 _atom_site_fract_x
 _atom_site_fract_y
 _atom_site_fract_z
 _atom_site_occupancy
  Sr  Sr0  1  0.66666700  0.33333300  0.49872700  1
  Sr  Sr1  1  0.33333300  0.66666700  0.99907400  1
  Sr  Sr2  1  0.33333300  0.66666700  0.49370900  1
  Sr  Sr3  1  0.66666700  0.33333300  0.00438100  1
  Sr  Sr4  1  0.73438200  0.72515200  0.74364500  1
  Sr  Sr5  1  0.27484800  0.00922900  0.74364500  1
  Sr  Sr6  1  0.99077100  0.26561800  0.74364500  1
  Sr  Sr7  1  0.23850400  0.24395300  0.25053100  1
  Sr  Sr8  1  0.75604700  0.99455100  0.25053100  1
  Sr  Sr9  1  0.00544900  0.76149600  0.25053100  1
  P  P0  1  0.03314200  0.63315500  0.75127800  1
  P  P1  1  0.36684500  0.39998700  0.75127800  1
  P  P2  1  0.60001300  0.96685800  0.75127800  1
  P  P3  1  0.96904500  0.37326400  0.25021600  1
  P  P4  1  0.62673600  0.59578100  0.25021600  1
  P  P5  1  0.40421900  0.03095500  0.25021600  1
  Br  Br0  1  0.00000000  0.00000000  0.91092400  1
  O  O0  1  0.07897300  0.74306100  0.58388900  1
  O  O1  1  0.25693900  0.33591200  0.58388900  1
  O  O2  1  0.66408800  0.92102700  0.58388900  1
  O  O3  1  0.91682900  0.26834500  0.07761100  1
  O  O4  1  0.73165500  0.64848500  0.07761100  1
  O  O5  1  0.35151500  0.08317100  0.07761100  1
  O  O6  1  0.91726600  0.26548800  0.42037800  1
  O  O7  1  0.73451200  0.65177800  0.42037800  1
  O  O8  1  0.34822200  0.08273400  0.42037800  1
  O  O9  1  0.08847900  0.72969800  0.92910200  1
  O  O10  1  0.27030200  0.35878100  0.92910200  1
  O  O11  1  0.64121900  0.91152100  0.92910200  1
  O  O12  1  0.12431600  0.54355900  0.73859800  1
  O  O13  1  0.45644100  0.58075700  0.73859800  1
  O  O14  1  0.41924300  0.87568400  0.73859800  1
  O  O15  1  0.88121800  0.46587100  0.25354800  1
  O  O16  1  0.53412900  0.41534700  0.25354800  1
  O  O17  1  0.58465300  0.11878200  0.25354800  1
  O  O18  1  0.85498400  0.51687900  0.75186700  1
  O  O19  1  0.48312100  0.33810500  0.75186700  1
  O  O20  1  0.66189500  0.14501600  0.75186700  1
  O  O21  1  0.14747300  0.48284600  0.25091900  1
  O  O22  1  0.51715400  0.66462800  0.25091900  1
  O  O23  1  0.33537200  0.85252700  0.25091900  1
  F  F0  1  0.00000000  0.00000000  0.33844200  1
loop_
_geom_bond_atom_site_label_1
_geom_bond_atom_site_label_2
_geom_bond_distance
_geom_bond_site_symmetry_2
Br0 Sr6 2.966682 1_455
Br0 Sr4 2.966687 1_445
Br0 Sr5 2.966691 1_555
Br0 F0 3.131784 1_556
Br0 O9 3.238069 1_545
Br0 O11 3.238069 1_445
Br0 O10 3.238069 1_555
Br0 O5 3.406241 1_556
Br0 O4 3.406244 1_446
Br0 O3 3.406250 1_456
Br0 Sr9 3.464535 1_546
Br0 Sr8 3.464535 1_446
Br0 Sr7 3.464535 1_556
O0 P0 1.554570 1_555
O0 Sr9 2.583144 1_555
O0 Sr5 2.658939 1_565
O0 Sr2 3.069455 1_555
O1 P1 1.554570 1_555
O1 Sr7 2.583144 1_555
O1 Sr6 2.658937 1_455
O1 Sr2 3.069465 1_555
O2 P2 1.554570 1_555
O2 Sr8 2.583144 1_555
O2 Sr4 2.658945 1_555
O2 Sr2 3.069462 1_555
O3 P3 1.556696 1_555
O3 Sr6 2.559713 1_554
O3 Sr8 2.697519 1_545
O3 Sr3 2.929734 1_555
O4 P4 1.556696 1_555
O4 Sr4 2.559708 1_554
O4 Sr9 2.697520 1_655
O4 Sr3 2.929753 1_555
O5 P5 1.556701 1_555
O5 Sr5 2.559710 1_554
O5 Sr7 2.697512 1_555
O5 Sr3 2.929747 1_555
O6 P3 1.557023 1_555
O6 Sr6 2.479218 1_555
O6 Sr8 2.666976 1_545
O6 Sr0 2.959574 1_555
O7 P4 1.557023 1_555
O7 Sr4 2.479215 1_555
O7 Sr9 2.666976 1_655
O7 Sr0 2.959584 1_555
O8 P5 1.557023 1_555
O8 Sr5 2.479216 1_555
O8 Sr7 2.666976 1_555
O8 Sr0 2.959581 1_555
O9 P0 1.549203 1_555
O9 Sr9 2.568551 1_556
O9 Sr5 2.813437 1_565
O9 Sr1 2.861566 1_555
O10 P1 1.549203 1_555
O10 Sr7 2.568551 1_556
O10 Sr6 2.813435 1_455
O10 Sr1 2.861575 1_555
O11 P2 1.549203 1_555
O11 Sr8 2.568551 1_556
O11 Sr4 2.813444 1_555
O11 Sr1 2.861572 1_555
O12 P0 1.567287 1_555
O12 Sr6 2.406394 1_455
O12 Sr2 2.554441 1_555
O12 Sr1 2.635883 1_555
O13 P1 1.567287 1_555
O13 Sr4 2.406393 1_555
O13 Sr2 2.554446 1_555
O13 Sr1 2.635888 1_555
O14 P2 1.567287 1_555
O14 Sr5 2.406385 1_565
O14 Sr2 2.554440 1_555
O14 Sr1 2.635882 1_555
O15 P3 1.561977 1_555
O15 Sr9 2.569474 1_655
O15 Sr0 2.595681 1_555
O15 Sr3 2.615980 1_555
O16 P4 1.561977 1_555
O16 Sr7 2.569474 1_555
O16 Sr0 2.595686 1_555
O16 Sr3 2.615986 1_555
O17 P5 1.561977 1_555
O17 Sr8 2.569474 1_545
O17 Sr0 2.595680 1_555
O17 Sr3 2.615979 1_555
O18 P0 1.565684 1_655
O18 Sr3 2.622225 1_556
O18 Sr0 2.625462 1_555
O18 Sr4 2.880462 1_555
O19 P1 1.565683 1_555
O19 Sr3 2.622228 1_556
O19 Sr0 2.625465 1_555
O19 Sr5 2.880470 1_555
O20 P2 1.565684 1_545
O20 Sr3 2.622221 1_556
O20 Sr0 2.625458 1_555
O20 Sr6 2.880471 1_555
O21 P3 1.557608 1_455
O21 Sr2 2.564334 1_555
O21 Sr1 2.610778 1_554
O21 Sr7 2.949436 1_555
O22 P4 1.557616 1_555
O22 Sr2 2.564334 1_555
O22 Sr1 2.610778 1_554
O22 Sr8 2.949430 1_555
O23 P5 1.557607 1_565
O23 Sr2 2.564334 1_555
O23 Sr1 2.610778 1_554
O23 Sr9 2.949427 1_555
F0 Sr9 2.495720 1_545
F0 Sr8 2.495720 1_445
F0 Sr7 2.495720 1_555
F0 O6 3.205764 1_455
F0 O8 3.205764 1_555
F0 O7 3.205764 1_445
