# generated using pymatgen
data_CuAg2(NO3)4
_symmetry_space_group_name_H-M   'P 1'
_cell_length_a   7.73557800
_cell_length_b   8.36669856
_cell_length_c   8.75110075
_cell_angle_alpha   65.55066640
_cell_angle_beta   86.82142712
_cell_angle_gamma   86.01054693
_symmetry_Int_Tables_number   1
_chemical_formula_structural   CuAg2(NO3)4
_chemical_formula_sum   'Cu2 Ag4 N8 O24'
_cell_volume   514.12242171
_cell_formula_units_Z   2
loop_
 _symmetry_equiv_pos_site_id
 _symmetry_equiv_pos_as_xyz
  1  'x, y, z'
loop_
 _atom_site_type_symbol
 _atom_site_label
 _atom_site_symmetry_multiplicity
 _atom_site_fract_x
 _atom_site_fract_y
 _atom_site_fract_z
 _atom_site_occupancy
  Cu  Cu0  1  0.50000000  0.50000000  0.00000000  1
  Cu  Cu1  1  0.00000000  0.00000000  0.50000000  1
  Ag  Ag0  1  0.93065300  0.76841500  0.00131600  1
  Ag  Ag1  1  0.06934700  0.23158500  0.99868400  1
  Ag  Ag2  1  0.54422500  0.27872200  0.53833700  1
  Ag  Ag3  1  0.45577500  0.72127800  0.46166300  1
  N  N0  1  0.72097800  0.35826100  0.82222000  1
  N  N1  1  0.27902200  0.64173900  0.17778000  1
  N  N2  1  0.59142000  0.84236100  0.79110000  1
  N  N3  1  0.40858000  0.15763900  0.20890000  1
  N  N4  1  0.19794600  0.08997300  0.70530700  1
  N  N5  1  0.80205400  0.91002700  0.29469300  1
  N  N6  1  0.89425900  0.36215100  0.31627400  1
  N  N7  1  0.10574100  0.63784900  0.68372600  1
  O  O0  1  0.71643100  0.36776000  0.96680900  1
  O  O1  1  0.28356900  0.63224000  0.03319100  1
  O  O2  1  0.59095400  0.41913600  0.73019300  1
  O  O3  1  0.40904600  0.58086400  0.26980700  1
  O  O4  1  0.85250400  0.28867000  0.78126600  1
  O  O5  1  0.14749600  0.71133000  0.21873400  1
  O  O6  1  0.64077100  0.71071100  0.93142900  1
  O  O7  1  0.35922900  0.28928900  0.06857100  1
  O  O8  1  0.67281700  0.97910000  0.74593300  1
  O  O9  1  0.32718300  0.02090000  0.25406700  1
  O  O10  1  0.46992600  0.82309400  0.71410800  1
  O  O11  1  0.53007400  0.17690600  0.28589200  1
  O  O12  1  0.06422200  0.99610100  0.72107400  1
  O  O13  1  0.93577800  0.00389900  0.27892600  1
  O  O14  1  0.25679600  0.17551400  0.55842500  1
  O  O15  1  0.74320400  0.82448600  0.44157500  1
  O  O16  1  0.25983400  0.09040100  0.83319200  1
  O  O17  1  0.74016600  0.90959900  0.16680800  1
  O  O18  1  0.84991400  0.22076900  0.44854200  1
  O  O19  1  0.15008600  0.77923100  0.55145800  1
  O  O20  1  0.03059400  0.35636800  0.23532500  1
  O  O21  1  0.96940600  0.64363200  0.76467500  1
  O  O22  1  0.79446000  0.49590800  0.28004500  1
  O  O23  1  0.20554000  0.50409200  0.71995500  1
loop_
_geom_bond_atom_site_label_1
_geom_bond_atom_site_label_2
_geom_bond_distance
_geom_bond_site_symmetry_2
Cu0 O6 1.993203 1_554
Cu0 O7 1.993203 1_555
Cu0 O0 2.016399 1_554
Cu0 O1 2.016399 1_555
Cu0 O3 2.756713 1_555
Cu0 O2 2.756713 1_554
Cu1 O18 2.008375 1_455
Cu1 O19 2.008375 1_545
Cu1 O12 2.010669 1_545
Cu1 O13 2.010669 1_455
Cu1 O14 2.739324 1_555
Cu1 O15 2.739324 1_445
Ag0 O5 2.480342 1_655
Ag0 O6 2.486494 1_554
Ag0 O17 2.569291 1_555
Ag0 O12 2.614682 1_654
Ag0 O21 2.673132 1_554
Ag0 O22 2.775540 1_555
Ag0 O1 2.866604 1_655
Ag0 O8 2.970537 1_554
Ag1 O4 2.480342 1_455
Ag1 O7 2.486494 1_556
Ag1 O16 2.569291 1_555
Ag1 O13 2.614682 1_456
Ag1 O20 2.673132 1_556
Ag1 O23 2.775540 1_555
Ag1 O0 2.866604 1_455
Ag1 O9 2.970537 1_556
Ag2 O14 2.412124 1_555
Ag2 O2 2.467555 1_555
Ag2 O18 2.528656 1_555
Ag2 O8 2.580259 1_545
Ag2 O11 2.686204 1_555
Ag2 O3 2.827257 1_555
Ag2 O22 2.960127 1_555
Ag3 O15 2.412124 1_555
Ag3 O3 2.467555 1_555
Ag3 O19 2.528656 1_555
Ag3 O9 2.580259 1_565
Ag3 O10 2.686204 1_555
Ag3 O2 2.827257 1_555
Ag3 O23 2.960127 1_555
N0 O4 1.245989 1_555
N0 O2 1.264375 1_555
N0 O0 1.298648 1_555
N1 O5 1.245989 1_555
N1 O3 1.264375 1_555
N1 O1 1.298648 1_555
N2 O10 1.242750 1_555
N2 O8 1.248947 1_555
N2 O6 1.319410 1_555
N3 O11 1.242750 1_555
N3 O9 1.248947 1_555
N3 O7 1.319410 1_555
N4 O16 1.242834 1_555
N4 O14 1.261190 1_555
N4 O12 1.308990 1_545
N5 O17 1.242834 1_555
N5 O15 1.261190 1_555
N5 O13 1.308990 1_565
N6 O20 1.246928 1_655
N6 O22 1.249851 1_555
N6 O18 1.317479 1_555
N7 O21 1.246928 1_455
N7 O23 1.249851 1_555
N7 O19 1.317479 1_555
