# generated using pymatgen
data_ZnCuF4
_symmetry_space_group_name_H-M   'P 1'
_cell_length_a   6.23164284
_cell_length_b   6.23164284
_cell_length_c   6.23164284
_cell_angle_alpha   131.23646968
_cell_angle_beta   130.85515000
_cell_angle_gamma   71.74074564
_symmetry_Int_Tables_number   1
_chemical_formula_structural   ZnCuF4
_chemical_formula_sum   'Zn2 Cu2 F8'
_cell_volume   134.65486522
_cell_formula_units_Z   2
loop_
 _symmetry_equiv_pos_site_id
 _symmetry_equiv_pos_as_xyz
  1  'x, y, z'
loop_
 _atom_site_type_symbol
 _atom_site_label
 _atom_site_symmetry_multiplicity
 _atom_site_fract_x
 _atom_site_fract_y
 _atom_site_fract_z
 _atom_site_occupancy
  Zn  Zn0  1  0.74610200  0.50000000  0.24610200  1
  Zn  Zn1  1  0.24610200  0.00000000  0.24610200  1
  Cu  Cu0  1  0.00267000  0.24743800  0.75010800  1
  Cu  Cu1  1  0.50267000  0.75256200  0.75523200  1
  F  F0  1  0.05036700  0.30606500  0.12421100  1
  F  F1  1  0.31814600  0.57384400  0.12421100  1
  F  F2  1  0.95181800  0.19022600  0.37558400  1
  F  F3  1  0.81814600  0.69393500  0.74430200  1
  F  F4  1  0.68535800  0.92376600  0.37558400  1
  F  F5  1  0.55036700  0.42615600  0.74430200  1
  F  F6  1  0.18535800  0.80977400  0.76159200  1
  F  F7  1  0.45181800  0.07623400  0.76159200  1
loop_
_geom_bond_atom_site_label_1
_geom_bond_atom_site_label_2
_geom_bond_distance
_geom_bond_site_symmetry_2
Cu0 F2 1.918549 1_455
Cu0 F4 1.918549 1_445
Cu0 F0 1.922321 1_556
Cu0 F1 1.922321 1_556
Cu0 F6 2.635291 1_545
Cu0 F7 2.635291 1_555
Cu0 F3 2.671844 1_455
Cu0 F5 2.671844 1_455
Cu1 F6 1.918549 1_555
Cu1 F7 1.918549 1_565
Cu1 F3 1.922321 1_555
Cu1 F5 1.922321 1_555
Cu1 F2 2.635291 1_566
Cu1 F4 2.635291 1_556
Cu1 F0 2.671844 1_555
Cu1 F1 2.671844 1_555
F0 Zn0 2.206971 1_455
F0 Zn1 2.223169 1_555
F0 F2 2.525705 1_455
F0 F6 2.649924 1_544
F0 F5 2.664028 1_454
F0 F5 2.664028 1_555
F0 F6 2.680214 1_555
F0 F1 2.704450 1_555
F1 Zn1 2.206971 1_565
F1 Zn0 2.223169 1_555
F1 F4 2.525705 1_555
F1 F7 2.649924 1_554
F1 F3 2.664028 1_454
F1 F3 2.664028 1_555
F1 F7 2.680214 1_565
F2 Zn1 2.175331 1_655
F2 Zn0 2.273843 1_555
F2 F3 2.649924 1_544
F2 F7 2.656926 1_655
F2 F7 2.656926 1_554
F2 F3 2.680214 1_555
F2 F4 2.691128 1_545
F3 Zn0 2.206971 1_555
F3 Zn1 2.223169 1_666
F3 F6 2.525705 1_655
F3 F5 2.704450 1_555
F4 Zn0 2.175331 1_555
F4 Zn1 2.273843 1_565
F4 F5 2.649924 1_554
F4 F6 2.656926 1_655
F4 F6 2.656926 1_554
F4 F5 2.680214 1_565
F5 Zn1 2.206971 1_555
F5 Zn0 2.223169 1_556
F5 F7 2.525705 1_555
F6 Zn1 2.175331 1_566
F6 Zn0 2.273843 1_455
F6 F7 2.691128 1_565
F7 Zn0 2.175331 1_556
F7 Zn1 2.273843 1_555
