# generated using pymatgen
data_Fe2P2N2Cl2(O2F)3
_symmetry_space_group_name_H-M   'P 1'
_cell_length_a   7.35876500
_cell_length_b   7.50356300
_cell_length_c   20.84197600
_cell_angle_alpha   90.00000000
_cell_angle_beta   90.00000000
_cell_angle_gamma   90.00000000
_symmetry_Int_Tables_number   1
_chemical_formula_structural   Fe2P2N2Cl2(O2F)3
_chemical_formula_sum   'Fe8 P8 N8 Cl8 O24 F12'
_cell_volume   1150.83048800
_cell_formula_units_Z   4
loop_
 _symmetry_equiv_pos_site_id
 _symmetry_equiv_pos_as_xyz
  1  'x, y, z'
loop_
 _atom_site_type_symbol
 _atom_site_label
 _atom_site_symmetry_multiplicity
 _atom_site_fract_x
 _atom_site_fract_y
 _atom_site_fract_z
 _atom_site_occupancy
  Fe  Fe0  1  0.69173700  0.26394300  0.07747500  1
  Fe  Fe1  1  0.30826300  0.73605700  0.57747500  1
  Fe  Fe2  1  0.80826300  0.26394300  0.57747500  1
  Fe  Fe3  1  0.19173700  0.73605700  0.07747500  1
  Fe  Fe4  1  0.50865000  0.99822300  0.32300600  1
  Fe  Fe5  1  0.49135000  0.00177700  0.82300600  1
  Fe  Fe6  1  0.99135000  0.99822300  0.82300600  1
  Fe  Fe7  1  0.00865000  0.00177700  0.32300600  1
  P  P0  1  0.26148000  0.75738600  0.42068500  1
  P  P1  1  0.73852000  0.24261400  0.92068500  1
  P  P2  1  0.23852000  0.75738600  0.92068500  1
  P  P3  1  0.76148000  0.24261400  0.42068500  1
  P  P4  1  0.74919400  0.26528100  0.23463600  1
  P  P5  1  0.25080600  0.73471900  0.73463600  1
  P  P6  1  0.75080600  0.26528100  0.73463600  1
  P  P7  1  0.24919400  0.73471900  0.23463600  1
  N  N0  1  0.23816100  0.20334000  0.97836000  1
  N  N1  1  0.76183900  0.79666000  0.47836000  1
  N  N2  1  0.26183900  0.20334000  0.47836000  1
  N  N3  1  0.73816100  0.79666000  0.97836000  1
  N  N4  1  0.24990600  0.23746300  0.17428200  1
  N  N5  1  0.75009400  0.76253700  0.67428200  1
  N  N6  1  0.25009400  0.23746300  0.67428200  1
  N  N7  1  0.74990600  0.76253700  0.17428200  1
  Cl  Cl0  1  0.00686000  0.50741900  0.05849100  1
  Cl  Cl1  1  0.99314000  0.49258100  0.55849100  1
  Cl  Cl2  1  0.49314000  0.50741900  0.55849100  1
  Cl  Cl3  1  0.50686000  0.49258100  0.05849100  1
  Cl  Cl4  1  0.02717300  0.98743100  0.09446300  1
  Cl  Cl5  1  0.97282700  0.01256900  0.59446300  1
  Cl  Cl6  1  0.47282700  0.98743100  0.59446300  1
  Cl  Cl7  1  0.52717300  0.01256900  0.09446300  1
  O  O0  1  0.58012400  0.15399900  0.24875300  1
  O  O1  1  0.41987600  0.84600100  0.74875300  1
  O  O2  1  0.91987600  0.15399900  0.74875300  1
  O  O3  1  0.08012400  0.84600100  0.24875300  1
  O  O4  1  0.92428700  0.19442100  0.26404800  1
  O  O5  1  0.07571300  0.80557900  0.76404800  1
  O  O6  1  0.57571300  0.19442100  0.76404800  1
  O  O7  1  0.42428700  0.80557900  0.26404800  1
  O  O8  1  0.43785200  0.84564800  0.39863400  1
  O  O9  1  0.56214800  0.15435200  0.89863400  1
  O  O10  1  0.06214800  0.84564800  0.89863400  1
  O  O11  1  0.93785200  0.15435200  0.39863400  1
  O  O12  1  0.59463400  0.19261800  0.38161000  1
  O  O13  1  0.40536600  0.80738200  0.88161000  1
  O  O14  1  0.90536600  0.19261800  0.88161000  1
  O  O15  1  0.09463400  0.80738200  0.38161000  1
  O  O16  1  0.27396000  0.69821600  0.16271700  1
  O  O17  1  0.72604000  0.30178400  0.66271700  1
  O  O18  1  0.22604000  0.69821600  0.66271700  1
  O  O19  1  0.77396000  0.30178400  0.16271700  1
  O  O20  1  0.77436700  0.21538100  0.99266600  1
  O  O21  1  0.22563300  0.78461900  0.49266600  1
  O  O22  1  0.72563300  0.21538100  0.49266600  1
  O  O23  1  0.27436700  0.78461900  0.99266600  1
  F  F0  1  0.21118600  0.55126100  0.91210700  1
  F  F1  1  0.78881400  0.44873900  0.41210700  1
  F  F2  1  0.28881400  0.55126100  0.41210700  1
  F  F3  1  0.71118600  0.44873900  0.91210700  1
  F  F4  1  0.75930300  0.89825100  0.32335700  1
  F  F5  1  0.24069700  0.10174900  0.82335700  1
  F  F6  1  0.74069700  0.89825100  0.82335700  1
  F  F7  1  0.25930300  0.10174900  0.32335700  1
  F  F8  1  0.21571100  0.54498100  0.26440100  1
  F  F9  1  0.78428900  0.45501900  0.76440100  1
  F  F10  1  0.28428900  0.54498100  0.76440100  1
  F  F11  1  0.71571100  0.45501900  0.26440100  1
loop_
_geom_bond_atom_site_label_1
_geom_bond_atom_site_label_2
_geom_bond_distance
_geom_bond_site_symmetry_2
Fe0 O19 1.898175 1_555
Fe0 O20 1.904435 1_554
Fe1 O18 1.898175 1_555
Fe1 O21 1.904435 1_555
Fe2 O17 1.898175 1_555
Fe2 O22 1.904435 1_555
Fe3 O16 1.898175 1_555
Fe3 O23 1.904435 1_554
Fe4 O7 1.996214 1_555
Fe4 O12 2.004970 1_565
Fe4 O0 2.009454 1_565
Fe4 O8 2.016592 1_555
Fe5 O6 1.996214 1_555
Fe5 O13 2.004970 1_545
Fe5 O1 2.009454 1_545
Fe5 O9 2.016592 1_555
Fe6 O5 1.996214 1_655
Fe6 O14 2.004970 1_565
Fe6 O2 2.009454 1_565
Fe6 O10 2.016592 1_655
Fe7 O4 1.996214 1_455
Fe7 O15 2.004970 1_545
Fe7 O3 2.009454 1_545
Fe7 O11 2.016592 1_455
N0 O9 2.929221 1_555
N0 O23 3.167242 1_545
N0 O14 3.173325 1_455
N0 O10 3.412093 1_545
N0 O20 3.427142 1_455
N1 O8 2.929221 1_555
N1 O22 3.167242 1_565
N1 O15 3.173325 1_655
N1 O11 3.412093 1_565
N1 O21 3.427142 1_655
N2 O11 2.929221 1_455
N2 O21 3.167242 1_545
N2 O12 3.173325 1_555
N2 O8 3.412093 1_545
N2 O22 3.427142 1_555
N3 O10 2.929221 1_655
N3 O20 3.167242 1_565
N3 O13 3.173325 1_555
N3 O9 3.412093 1_565
N3 O23 3.427142 1_555
N4 O0 2.950626 1_555
N4 O4 3.057144 1_455
N4 O16 3.470199 1_555
N4 O19 3.543680 1_455
N4 O3 3.549385 1_545
N5 O1 2.950626 1_555
N5 O5 3.057144 1_655
N5 O17 3.470199 1_555
N5 O18 3.543680 1_655
N5 O2 3.549385 1_565
N6 O2 2.950626 1_455
N6 O6 3.057144 1_555
N6 O18 3.470199 1_555
N6 O17 3.543680 1_555
N6 O1 3.549385 1_545
N7 O3 2.950626 1_655
N7 O7 3.057144 1_555
N7 O19 3.470199 1_555
N7 O16 3.543680 1_555
N7 O0 3.549385 1_565
Cl0 Fe3 2.225017 1_555
Cl0 Fe0 2.978527 1_455
Cl0 O20 3.100182 1_454
Cl0 N0 3.300356 1_554
Cl0 N3 3.377758 1_454
Cl0 N7 3.614411 1_455
Cl0 N4 3.622991 1_555
Cl1 Fe2 2.225017 1_555
Cl1 Fe1 2.978527 1_655
Cl1 O21 3.100182 1_655
Cl1 N1 3.300356 1_555
Cl1 N2 3.377758 1_655
Cl1 N6 3.614411 1_655
Cl1 N5 3.622991 1_555
Cl2 Fe1 2.225017 1_555
Cl2 Fe2 2.978527 1_555
Cl2 O22 3.100182 1_555
Cl2 N2 3.300356 1_555
Cl2 N1 3.377758 1_555
Cl2 N5 3.614411 1_555
Cl2 N6 3.622991 1_555
Cl3 Fe0 2.225017 1_555
Cl3 Fe3 2.978527 1_555
Cl3 O23 3.100182 1_554
Cl3 N3 3.300356 1_554
Cl3 N0 3.377758 1_554
Cl3 N4 3.614411 1_555
Cl3 N7 3.622991 1_555
Cl4 Fe3 2.269274 1_555
Cl4 N4 2.995636 1_565
Cl4 N7 3.127010 1_455
Cl4 N0 3.300120 1_564
Cl4 N3 3.525301 1_454
Cl5 Fe2 2.269274 1_555
Cl5 N5 2.995636 1_545
Cl5 N6 3.127010 1_655
Cl5 N1 3.300120 1_545
Cl5 N2 3.525301 1_655
Cl6 Fe1 2.269274 1_555
Cl6 N6 2.995636 1_565
Cl6 N5 3.127010 1_555
Cl6 N2 3.300120 1_565
Cl6 N1 3.525301 1_555
Cl7 Fe0 2.269274 1_555
Cl7 N7 2.995636 1_545
Cl7 N4 3.127010 1_555
Cl7 N3 3.300120 1_544
Cl7 N0 3.525301 1_554
O0 P4 1.526995 1_555
O1 P5 1.526995 1_555
O2 P6 1.526995 1_555
O3 P7 1.526995 1_555
O4 P4 1.522706 1_555
O5 P5 1.522706 1_555
O6 P6 1.522706 1_555
O7 P7 1.522706 1_555
O8 P0 1.527850 1_555
O9 P1 1.527850 1_555
O10 P2 1.527850 1_555
O11 P3 1.527850 1_555
O12 P3 1.520338 1_555
O13 P2 1.520338 1_555
O14 P1 1.520338 1_555
O15 P0 1.520338 1_555
O16 P7 1.534614 1_555
O17 P6 1.534614 1_555
O18 P5 1.534614 1_555
O19 P4 1.534614 1_555
O20 P1 1.536887 1_555
O21 P0 1.536887 1_555
O22 P3 1.536887 1_555
O23 P2 1.536887 1_555
F0 P2 1.569910 1_555
F0 N0 2.960002 1_555
F1 P3 1.569910 1_555
F1 N1 2.960002 1_555
F2 P0 1.569910 1_555
F2 N2 2.960002 1_555
F3 P1 1.569910 1_555
F3 N3 2.960002 1_555
F4 Fe4 1.991216 1_555
F4 Fe7 1.992561 1_665
F4 N7 3.270375 1_555
F4 N1 3.319340 1_555
F5 Fe5 1.991216 1_555
F5 Fe6 1.992561 1_445
F5 N6 3.270375 1_555
F5 N0 3.319340 1_555
F6 Fe6 1.991216 1_555
F6 Fe5 1.992561 1_565
F6 N5 3.270375 1_555
F6 N3 3.319340 1_555
F7 Fe7 1.991216 1_555
F7 Fe4 1.992561 1_545
F7 N4 3.270375 1_555
F7 N2 3.319340 1_555
F8 P7 1.572422 1_555
F8 N4 2.985907 1_555
F9 P6 1.572422 1_555
F9 N5 2.985907 1_555
F10 P5 1.572422 1_555
F10 N6 2.985907 1_555
F11 P4 1.572422 1_555
F11 N7 2.985907 1_555
