# generated using pymatgen
data_CoH18CN6ClO3
_symmetry_space_group_name_H-M   'P 1'
_cell_length_a   10.16182600
_cell_length_b   10.16182600
_cell_length_c   10.16182600
_cell_angle_alpha   90.00000000
_cell_angle_beta   90.00000000
_cell_angle_gamma   90.00000000
_symmetry_Int_Tables_number   1
_chemical_formula_structural   CoH18CN6ClO3
_chemical_formula_sum   'Co4 H72 C4 N24 Cl4 O12'
_cell_volume   1049.33766747
_cell_formula_units_Z   4
loop_
 _symmetry_equiv_pos_site_id
 _symmetry_equiv_pos_as_xyz
  1  'x, y, z'
loop_
 _atom_site_type_symbol
 _atom_site_label
 _atom_site_symmetry_multiplicity
 _atom_site_fract_x
 _atom_site_fract_y
 _atom_site_fract_z
 _atom_site_occupancy
  Co  Co0  1  0.99075500  0.99075500  0.99075500  1
  Co  Co1  1  0.00924500  0.49075500  0.50924500  1
  Co  Co2  1  0.49075500  0.50924500  0.00924500  1
  Co  Co3  1  0.50924500  0.00924500  0.49075500  1
  H  H0  1  0.54818200  0.95263300  0.73005700  1
  H  H1  1  0.26994300  0.04818200  0.54736700  1
  H  H2  1  0.45263300  0.76994300  0.45181800  1
  H  H3  1  0.04818200  0.54736700  0.26994300  1
  H  H4  1  0.76994300  0.45181800  0.45263300  1
  H  H5  1  0.95263300  0.73005700  0.54818200  1
  H  H6  1  0.45181800  0.45263300  0.76994300  1
  H  H7  1  0.73005700  0.54818200  0.95263300  1
  H  H8  1  0.54736700  0.26994300  0.04818200  1
  H  H9  1  0.95181800  0.04736700  0.23005700  1
  H  H10  1  0.23005700  0.95181800  0.04736700  1
  H  H11  1  0.04736700  0.23005700  0.95181800  1
  H  H12  1  0.11560600  0.71449600  0.53270800  1
  H  H13  1  0.46729200  0.61560600  0.78550400  1
  H  H14  1  0.21449600  0.96729200  0.88439400  1
  H  H15  1  0.61560600  0.78550400  0.46729200  1
  H  H16  1  0.96729200  0.88439400  0.21449600  1
  H  H17  1  0.71449600  0.53270800  0.11560600  1
  H  H18  1  0.88439400  0.21449600  0.96729200  1
  H  H19  1  0.53270800  0.11560600  0.71449600  1
  H  H20  1  0.78550400  0.46729200  0.61560600  1
  H  H21  1  0.38439400  0.28550400  0.03270800  1
  H  H22  1  0.03270800  0.38439400  0.28550400  1
  H  H23  1  0.28550400  0.03270800  0.38439400  1
  H  H24  1  0.52328200  0.78745900  0.60186900  1
  H  H25  1  0.39813100  0.02328200  0.71254100  1
  H  H26  1  0.28745900  0.89813100  0.47671800  1
  H  H27  1  0.02328200  0.71254100  0.39813100  1
  H  H28  1  0.89813100  0.47671800  0.28745900  1
  H  H29  1  0.78745900  0.60186900  0.52328200  1
  H  H30  1  0.47671800  0.28745900  0.89813100  1
  H  H31  1  0.60186900  0.52328200  0.78745900  1
  H  H32  1  0.71254100  0.39813100  0.02328200  1
  H  H33  1  0.97671800  0.21254100  0.10186900  1
  H  H34  1  0.10186900  0.97671800  0.21254100  1
  H  H35  1  0.21254100  0.10186900  0.97671800  1
  H  H36  1  0.08082400  0.78211000  0.89664500  1
  H  H37  1  0.10335500  0.58082400  0.71789000  1
  H  H38  1  0.28211000  0.60335500  0.91917600  1
  H  H39  1  0.58082400  0.71789000  0.10335500  1
  H  H40  1  0.60335500  0.91917600  0.28211000  1
  H  H41  1  0.78211000  0.89664500  0.08082400  1
  H  H42  1  0.91917600  0.28211000  0.60335500  1
  H  H43  1  0.89664500  0.08082400  0.78211000  1
  H  H44  1  0.71789000  0.10335500  0.58082400  1
  H  H45  1  0.41917600  0.21789000  0.39664500  1
  H  H46  1  0.39664500  0.41917600  0.21789000  1
  H  H47  1  0.21789000  0.39664500  0.41917600  1
  H  H48  1  0.92981500  0.74938400  0.94710400  1
  H  H49  1  0.05289600  0.42981500  0.75061600  1
  H  H50  1  0.24938400  0.55289600  0.07018500  1
  H  H51  1  0.42981500  0.75061600  0.05289600  1
  H  H52  1  0.55289600  0.07018500  0.24938400  1
  H  H53  1  0.74938400  0.94710400  0.92981500  1
  H  H54  1  0.07018500  0.24938400  0.55289600  1
  H  H55  1  0.94710400  0.92981500  0.74938400  1
  H  H56  1  0.75061600  0.05289600  0.42981500  1
  H  H57  1  0.57018500  0.25061600  0.44710400  1
  H  H58  1  0.44710400  0.57018500  0.25061600  1
  H  H59  1  0.25061600  0.44710400  0.57018500  1
  H  H60  1  0.94325400  0.55564200  0.74082700  1
  H  H61  1  0.25917300  0.44325400  0.94435800  1
  H  H62  1  0.05564200  0.75917300  0.05674600  1
  H  H63  1  0.44325400  0.94435800  0.25917300  1
  H  H64  1  0.75917300  0.05674600  0.05564200  1
  H  H65  1  0.55564200  0.74082700  0.94325400  1
  H  H66  1  0.05674600  0.05564200  0.75917300  1
  H  H67  1  0.74082700  0.94325400  0.55564200  1
  H  H68  1  0.94435800  0.25917300  0.44325400  1
  H  H69  1  0.55674600  0.44435800  0.24082700  1
  H  H70  1  0.24082700  0.55674600  0.44435800  1
  H  H71  1  0.44435800  0.24082700  0.55674600  1
  C  C0  1  0.75295400  0.75295400  0.75295400  1
  C  C1  1  0.24704600  0.25295400  0.74704600  1
  C  C2  1  0.25295400  0.74704600  0.24704600  1
  C  C3  1  0.74704600  0.24704600  0.25295400  1
  N  N0  1  0.52700700  0.81597100  0.50516200  1
  N  N1  1  0.49483800  0.02700700  0.68402900  1
  N  N2  1  0.31597100  0.99483800  0.47299300  1
  N  N3  1  0.02700700  0.68402900  0.49483800  1
  N  N4  1  0.99483800  0.47299300  0.31597100  1
  N  N5  1  0.81597100  0.50516200  0.52700700  1
  N  N6  1  0.47299300  0.31597100  0.99483800  1
  N  N7  1  0.50516200  0.52700700  0.81597100  1
  N  N8  1  0.68402900  0.49483800  0.02700700  1
  N  N9  1  0.97299300  0.18402900  0.00516200  1
  N  N10  1  0.00516200  0.97299300  0.18402900  1
  N  N11  1  0.18402900  0.00516200  0.97299300  1
  N  N12  1  0.01449300  0.79935400  0.97154100  1
  N  N13  1  0.02845900  0.51449300  0.70064600  1
  N  N14  1  0.29935400  0.52845900  0.98550700  1
  N  N15  1  0.51449300  0.70064600  0.02845900  1
  N  N16  1  0.52845900  0.98550700  0.29935400  1
  N  N17  1  0.79935400  0.97154100  0.01449300  1
  N  N18  1  0.98550700  0.29935400  0.52845900  1
  N  N19  1  0.97154100  0.01449300  0.79935400  1
  N  N20  1  0.70064600  0.02845900  0.51449300  1
  N  N21  1  0.48550700  0.20064600  0.47154100  1
  N  N22  1  0.47154100  0.48550700  0.20064600  1
  N  N23  1  0.20064600  0.47154100  0.48550700  1
  Cl  Cl0  1  0.25949800  0.75949800  0.74050200  1
  Cl  Cl1  1  0.75949800  0.74050200  0.25949800  1
  Cl  Cl2  1  0.74050200  0.25949800  0.75949800  1
  Cl  Cl3  1  0.24050200  0.24050200  0.24050200  1
  O  O0  1  0.79809400  0.64845300  0.81283200  1
  O  O1  1  0.18716800  0.29809400  0.85154700  1
  O  O2  1  0.14845300  0.68716800  0.20190600  1
  O  O3  1  0.29809400  0.85154700  0.18716800  1
  O  O4  1  0.68716800  0.20190600  0.14845300  1
  O  O5  1  0.64845300  0.81283200  0.79809400  1
  O  O6  1  0.20190600  0.14845300  0.68716800  1
  O  O7  1  0.81283200  0.79809400  0.64845300  1
  O  O8  1  0.85154700  0.18716800  0.29809400  1
  O  O9  1  0.70190600  0.35154700  0.31283200  1
  O  O10  1  0.31283200  0.70190600  0.35154700  1
  O  O11  1  0.35154700  0.31283200  0.70190600  1
loop_
_geom_bond_atom_site_label_1
_geom_bond_atom_site_label_2
_geom_bond_distance
_geom_bond_site_symmetry_2
Co0 N12 1.969587 1_655
Co0 N19 1.969587 1_565
Co0 N17 1.969587 1_556
Co0 N10 1.977719 1_656
Co0 N11 1.977719 1_665
Co0 N9 1.977719 1_566
Co1 N13 1.969587 1_555
Co1 N23 1.969587 1_555
Co1 N18 1.969587 1_455
Co1 N4 1.977719 1_455
Co1 N3 1.977719 1_555
Co1 N5 1.977719 1_455
Co2 N15 1.969587 1_555
Co2 N22 1.969587 1_555
Co2 N14 1.969587 1_554
Co2 N6 1.977719 1_554
Co2 N8 1.977719 1_555
Co2 N7 1.977719 1_554
Co3 N20 1.969587 1_555
Co3 N21 1.969587 1_555
Co3 N16 1.969587 1_545
Co3 N2 1.977719 1_545
Co3 N1 1.977719 1_555
Co3 N0 1.977719 1_545
H0 N1 1.041062 1_565
H1 N2 1.041062 1_545
H2 N0 1.041062 1_555
H3 N4 1.041062 1_455
H4 N5 1.041062 1_555
H5 N3 1.041062 1_655
H6 N7 1.041062 1_555
H7 N8 1.041062 1_556
H8 N6 1.041062 1_554
H9 N10 1.041062 1_645
H10 N11 1.041062 1_564
H11 N9 1.041062 1_456
H12 N3 1.026906 1_555
H13 N7 1.026906 1_555
H14 N11 1.026906 1_565
H15 N0 1.026906 1_555
H16 N10 1.026906 1_655
H17 N8 1.026906 1_555
H18 N9 1.026906 1_556
H19 N1 1.026906 1_555
H20 N5 1.026906 1_555
H21 N6 1.026906 1_554
H22 N4 1.026906 1_455
H23 N2 1.026906 1_545
H24 N0 1.025240 1_555
H25 N1 1.025240 1_555
H26 N2 1.025240 1_555
H27 N3 1.025240 1_555
H28 N4 1.025240 1_555
H29 N5 1.025240 1_555
H30 N6 1.025240 1_555
H31 N7 1.025240 1_555
H32 N8 1.025240 1_555
H33 N9 1.025240 1_555
H34 N10 1.025240 1_555
H35 N11 1.025240 1_555
H36 N12 1.031641 1_555
H37 N13 1.031641 1_555
H38 N14 1.031641 1_555
H39 N15 1.031641 1_555
H40 N16 1.031641 1_555
H41 N17 1.031641 1_555
H42 N18 1.031641 1_555
H43 N19 1.031641 1_555
H44 N20 1.031641 1_555
H45 N21 1.031641 1_555
H46 N22 1.031641 1_555
H47 N23 1.031641 1_555
H48 N12 1.029535 1_655
H49 N13 1.029535 1_555
H50 N14 1.029535 1_554
H51 N15 1.029535 1_555
H52 N16 1.029535 1_545
H53 N17 1.029535 1_556
H54 N18 1.029535 1_455
H55 N19 1.029535 1_565
H56 N20 1.029535 1_555
H57 N21 1.029535 1_555
H58 N22 1.029535 1_555
H59 N23 1.029535 1_555
H60 N13 1.044626 1_655
H61 N14 1.044626 1_555
H62 N12 1.044626 1_554
H63 N16 1.044626 1_555
H64 N17 1.044626 1_545
H65 N15 1.044626 1_556
H66 N19 1.044626 1_455
H67 N20 1.044626 1_565
H68 N18 1.044626 1_555
H69 N22 1.044626 1_555
H70 N23 1.044626 1_555
H71 N21 1.044626 1_555
C0 O0 1.307028 1_555
C0 O5 1.307028 1_555
C0 O7 1.307028 1_555
C1 O1 1.307028 1_555
C1 O6 1.307028 1_555
C1 O11 1.307028 1_555
C2 O3 1.307028 1_555
C2 O2 1.307028 1_555
C2 O10 1.307028 1_555
C3 O8 1.307028 1_555
C3 O4 1.307028 1_555
C3 O9 1.307028 1_555
Cl0 H36 2.422191 1_555
Cl0 H38 2.422191 1_555
Cl0 H37 2.422191 1_555
Cl0 H14 2.608809 1_555
Cl0 H13 2.608809 1_555
Cl0 H12 2.608809 1_555
Cl0 H25 3.041476 1_565
Cl0 H26 3.041476 1_555
Cl0 H24 3.041476 1_555
Cl1 H41 2.422191 1_555
Cl1 H40 2.422191 1_555
Cl1 H39 2.422191 1_555
Cl1 H16 2.608809 1_555
Cl1 H15 2.608809 1_555
Cl1 H17 2.608809 1_555
Cl1 H27 3.041476 1_655
Cl1 H28 3.041476 1_555
Cl1 H29 3.041476 1_555
Cl2 H43 2.422191 1_555
Cl2 H42 2.422191 1_555
Cl2 H44 2.422191 1_555
Cl2 H18 2.608809 1_555
Cl2 H20 2.608809 1_555
Cl2 H19 2.608809 1_555
Cl2 H32 3.041476 1_556
Cl2 H31 3.041476 1_555
Cl2 H30 3.041476 1_555
Cl3 H47 2.422191 1_555
Cl3 H45 2.422191 1_555
Cl3 H46 2.422191 1_555
Cl3 H21 2.608809 1_555
Cl3 H22 2.608809 1_555
Cl3 H23 2.608809 1_555
Cl3 H34 3.041476 1_545
Cl3 H35 3.041476 1_554
Cl3 H33 3.041476 1_455
