# generated using pymatgen
data_CdCBr3N
_symmetry_space_group_name_H-M   'P 1'
_cell_length_a   7.68127392
_cell_length_b   7.68127392
_cell_length_c   6.85076300
_cell_angle_alpha   90.00000000
_cell_angle_beta   90.00000000
_cell_angle_gamma   119.90592209
_symmetry_Int_Tables_number   1
_chemical_formula_structural   CdCBr3N
_chemical_formula_sum   'Cd2 C2 Br6 N2'
_cell_volume   350.38621163
_cell_formula_units_Z   2
loop_
 _symmetry_equiv_pos_site_id
 _symmetry_equiv_pos_as_xyz
  1  'x, y, z'
loop_
 _atom_site_type_symbol
 _atom_site_label
 _atom_site_symmetry_multiplicity
 _atom_site_fract_x
 _atom_site_fract_y
 _atom_site_fract_z
 _atom_site_occupancy
  Cd  Cd0  1  0.00028600  0.99971400  0.31888500  1
  Cd  Cd1  1  0.99971400  0.00028600  0.81888500  1
  C  C0  1  0.66325100  0.33674900  0.64203700  1
  C  C1  1  0.33674900  0.66325100  0.14203700  1
  Br  Br0  1  0.33463600  0.16773800  0.06603200  1
  Br  Br1  1  0.83226200  0.66536400  0.06603200  1
  Br  Br2  1  0.66536400  0.83226200  0.56603200  1
  Br  Br3  1  0.16773800  0.33463600  0.56603200  1
  Br  Br4  1  0.16700300  0.83299700  0.56750100  1
  Br  Br5  1  0.83299700  0.16700300  0.06750100  1
  N  N0  1  0.67434400  0.32565600  0.47121200  1
  N  N1  1  0.32565600  0.67434400  0.97121200  1
loop_
_geom_bond_atom_site_label_1
_geom_bond_atom_site_label_2
_geom_bond_distance
_geom_bond_site_symmetry_2
C0 N0 1.179542 1_555
C1 N1 1.179542 1_554
Br0 Cd1 2.799994 1_454
Br0 Cd0 2.820813 1_545
Br0 N0 3.581776 1_555
Br0 C0 3.636821 1_554
Br0 N1 3.811738 1_544
Br0 Br1 3.827836 1_555
Br0 Br5 3.830879 1_555
Br0 C1 3.833630 1_555
Br1 Cd1 2.799994 1_564
Br1 Cd0 2.820813 1_655
Br1 N0 3.581776 1_555
Br1 C0 3.636821 1_554
Br1 N1 3.811738 1_654
Br1 Br5 3.830879 1_555
Br1 C1 3.833630 1_555
Br2 Cd0 2.799994 1_655
Br2 Cd1 2.820813 1_565
Br2 N1 3.581776 1_555
Br2 C1 3.636821 1_555
Br2 N0 3.811738 1_565
Br2 Br3 3.827836 1_555
Br2 Br4 3.830879 1_555
Br2 C0 3.833630 1_555
Br3 Cd0 2.799994 1_545
Br3 Cd1 2.820813 1_455
Br3 N1 3.581776 1_555
Br3 C1 3.636821 1_555
Br3 N0 3.811738 1_455
Br3 Br4 3.830879 1_555
Br3 C0 3.833630 1_555
Br4 Cd0 2.795721 1_555
Br4 Cd1 2.813325 1_465
Br4 N1 3.478563 1_555
Br4 C1 3.686617 1_555
Br4 C0 3.880167 1_565
Br4 C0 3.880167 1_455
Br4 N0 3.903477 1_455
Br4 N0 3.903477 1_565
Br5 Cd1 2.795721 1_554
Br5 Cd0 2.813325 1_645
Br5 N0 3.478563 1_555
Br5 C0 3.686617 1_554
Br5 C1 3.880167 1_655
Br5 C1 3.880167 1_545
Br5 N1 3.903477 1_544
Br5 N1 3.903477 1_654
