# generated using pymatgen
data_NdSiPd
_symmetry_space_group_name_H-M   'P 1'
_cell_length_a   4.40750002
_cell_length_b   7.54913883
_cell_length_c   21.84516326
_cell_angle_alpha   90.00000000
_cell_angle_beta   90.00000000
_cell_angle_gamma   90.00000000
_symmetry_Int_Tables_number   1
_chemical_formula_structural   NdSiPd
_chemical_formula_sum   'Nd12 Si12 Pd12'
_cell_volume   726.85039352
_cell_formula_units_Z   12
loop_
 _symmetry_equiv_pos_site_id
 _symmetry_equiv_pos_as_xyz
  1  'x, y, z'
loop_
 _atom_site_type_symbol
 _atom_site_label
 _atom_site_symmetry_multiplicity
 _atom_site_fract_x
 _atom_site_fract_y
 _atom_site_fract_z
 _atom_site_occupancy
  Nd  Nd0  1  0.25000000  0.70583457  0.33257623  1
  Nd  Nd1  1  0.75000000  0.29416543  0.66742377  1
  Nd  Nd2  1  0.75000000  0.20583457  0.16742377  1
  Nd  Nd3  1  0.25000000  0.79416543  0.83257623  1
  Nd  Nd4  1  0.25000000  0.79605361  0.16610141  1
  Nd  Nd5  1  0.75000000  0.20394639  0.83389859  1
  Nd  Nd6  1  0.75000000  0.29605361  0.33389859  1
  Nd  Nd7  1  0.25000000  0.70394639  0.66610141  1
  Nd  Nd8  1  0.25000000  0.71259804  0.00196774  1
  Nd  Nd9  1  0.75000000  0.28740196  0.99803226  1
  Nd  Nd10  1  0.75000000  0.21259804  0.49803226  1
  Nd  Nd11  1  0.25000000  0.78740196  0.50196774  1
  Si  Si0  1  0.25000000  0.09253798  0.07109830  1
  Si  Si1  1  0.75000000  0.90746202  0.92890170  1
  Si  Si2  1  0.75000000  0.59253798  0.42890170  1
  Si  Si3  1  0.25000000  0.40746202  0.57109830  1
  Si  Si4  1  0.25000000  0.08579808  0.27281515  1
  Si  Si5  1  0.75000000  0.91420192  0.72718485  1
  Si  Si6  1  0.75000000  0.58579808  0.22718485  1
  Si  Si7  1  0.25000000  0.41420192  0.77281515  1
  Si  Si8  1  0.25000000  0.08568417  0.39359095  1
  Si  Si9  1  0.75000000  0.91431583  0.60640905  1
  Si  Si10  1  0.75000000  0.58568417  0.10640905  1
  Si  Si11  1  0.25000000  0.41431583  0.89359095  1
  Pd  Pd0  1  0.25000000  0.41823733  0.23695428  1
  Pd  Pd1  1  0.75000000  0.58176267  0.76304572  1
  Pd  Pd2  1  0.75000000  0.91823733  0.26304572  1
  Pd  Pd3  1  0.25000000  0.08176267  0.73695428  1
  Pd  Pd4  1  0.25000000  0.41833823  0.43581971  1
  Pd  Pd5  1  0.75000000  0.58166177  0.56418029  1
  Pd  Pd6  1  0.75000000  0.91833823  0.06418029  1
  Pd  Pd7  1  0.25000000  0.08166177  0.93581971  1
  Pd  Pd8  1  0.25000000  0.42060874  0.09427839  1
  Pd  Pd9  1  0.75000000  0.57939126  0.90572161  1
  Pd  Pd10  1  0.75000000  0.92060874  0.40572161  1
  Pd  Pd11  1  0.25000000  0.07939126  0.59427839  1
loop_
_geom_bond_atom_site_label_1
_geom_bond_atom_site_label_2
_geom_bond_distance
_geom_bond_site_symmetry_2
Nd0 Pd0 3.012828 1_555
Nd0 Pd2 3.120042 1_555
Nd0 Pd2 3.120042 1_455
Nd0 Pd4 3.130034 1_555
Nd0 Si4 3.151509 1_565
Nd0 Si8 3.162172 1_565
Nd0 Si2 3.164789 1_555
Nd0 Si2 3.164789 1_455
Nd0 Pd10 3.168362 1_455
Nd0 Pd10 3.168362 1_555
Nd0 Si6 3.313338 1_555
Nd0 Si6 3.313338 1_455
Nd1 Pd1 3.012828 1_555
Nd1 Pd3 3.120042 1_655
Nd1 Pd3 3.120042 1_555
Nd1 Pd5 3.130034 1_555
Nd1 Si5 3.151509 1_545
Nd1 Si9 3.162172 1_545
Nd1 Si3 3.164789 1_655
Nd1 Si3 3.164789 1_555
Nd1 Pd11 3.168362 1_655
Nd1 Pd11 3.168362 1_555
Nd1 Si7 3.313338 1_655
Nd1 Si7 3.313338 1_555
Nd2 Pd2 3.012828 1_545
Nd2 Pd0 3.120042 1_655
Nd2 Pd0 3.120042 1_555
Nd2 Pd6 3.130034 1_545
Nd2 Si6 3.151509 1_555
Nd2 Si10 3.162172 1_555
Nd2 Si0 3.164789 1_655
Nd2 Si0 3.164789 1_555
Nd2 Pd8 3.168362 1_555
Nd2 Pd8 3.168362 1_655
Nd2 Si4 3.313338 1_655
Nd2 Si4 3.313338 1_555
Nd3 Pd3 3.012828 1_565
Nd3 Pd1 3.120042 1_455
Nd3 Pd1 3.120042 1_555
Nd3 Pd7 3.130034 1_565
Nd3 Si7 3.151509 1_555
Nd3 Si11 3.162172 1_555
Nd3 Si1 3.164789 1_455
Nd3 Si1 3.164789 1_555
Nd3 Pd9 3.168362 1_555
Nd3 Pd9 3.168362 1_455
Nd3 Si5 3.313338 1_455
Nd3 Si5 3.313338 1_555
Nd4 Si10 3.013136 1_455
Nd4 Si10 3.013136 1_555
Nd4 Si6 3.025960 1_455
Nd4 Si6 3.025960 1_555
Nd4 Si0 3.052320 1_565
Nd4 Pd2 3.192527 1_455
Nd4 Pd2 3.192527 1_555
Nd4 Si4 3.196681 1_565
Nd4 Pd8 3.239582 1_555
Nd4 Pd0 3.245094 1_555
Nd4 Pd6 3.265875 1_455
Nd4 Pd6 3.265875 1_555
Nd4 Nd8 3.640457 1_555
Nd5 Si11 3.013136 1_555
Nd5 Si11 3.013136 1_655
Nd5 Si7 3.025960 1_655
Nd5 Si7 3.025960 1_555
Nd5 Si1 3.052320 1_545
Nd5 Pd3 3.192527 1_655
Nd5 Pd3 3.192527 1_555
Nd5 Si5 3.196681 1_545
Nd5 Pd9 3.239582 1_555
Nd5 Pd1 3.245094 1_555
Nd5 Pd7 3.265875 1_655
Nd5 Pd7 3.265875 1_555
Nd5 Nd9 3.640457 1_555
Nd6 Si8 3.013136 1_555
Nd6 Si8 3.013136 1_655
Nd6 Si4 3.025960 1_655
Nd6 Si4 3.025960 1_555
Nd6 Si2 3.052320 1_555
Nd6 Pd0 3.192527 1_655
Nd6 Pd0 3.192527 1_555
Nd6 Si6 3.196681 1_555
Nd6 Pd10 3.239582 1_545
Nd6 Pd2 3.245094 1_545
Nd6 Pd4 3.265875 1_555
Nd6 Pd4 3.265875 1_655
Nd7 Si9 3.013136 1_555
Nd7 Si9 3.013136 1_455
Nd7 Si5 3.025960 1_455
Nd7 Si5 3.025960 1_555
Nd7 Si3 3.052320 1_555
Nd7 Pd1 3.192527 1_455
Nd7 Pd1 3.192527 1_555
Nd7 Si7 3.196681 1_555
Nd7 Pd11 3.239582 1_565
Nd7 Pd3 3.245094 1_565
Nd7 Pd5 3.265875 1_455
Nd7 Pd5 3.265875 1_555
Nd8 Pd8 2.987513 1_555
Nd8 Pd6 3.019242 1_555
Nd8 Pd6 3.019242 1_455
Nd8 Si1 3.093247 1_554
Nd8 Si1 3.093247 1_454
Nd8 Pd7 3.138550 1_564
Nd8 Pd9 3.207538 1_454
Nd8 Pd9 3.207538 1_554
Nd8 Si0 3.241495 1_565
Nd8 Si11 3.267351 1_554
Nd8 Si10 3.313588 1_455
Nd8 Si10 3.313588 1_555
Nd9 Pd9 2.987513 1_555
Nd9 Pd7 3.019242 1_655
Nd9 Pd7 3.019242 1_555
Nd9 Si0 3.093247 1_556
Nd9 Si0 3.093247 1_656
Nd9 Pd6 3.138550 1_546
Nd9 Pd8 3.207538 1_556
Nd9 Pd8 3.207538 1_656
Nd9 Si1 3.241495 1_545
Nd9 Si10 3.267351 1_556
Nd9 Si11 3.313588 1_555
Nd9 Si11 3.313588 1_655
Nd10 Pd10 2.987513 1_545
Nd10 Pd4 3.019242 1_555
Nd10 Pd4 3.019242 1_655
Nd10 Si3 3.093247 1_655
Nd10 Si3 3.093247 1_555
Nd10 Pd5 3.138550 1_555
Nd10 Pd11 3.207538 1_555
Nd10 Pd11 3.207538 1_655
Nd10 Si2 3.241495 1_555
Nd10 Si9 3.267351 1_545
Nd10 Si8 3.313588 1_655
Nd10 Si8 3.313588 1_555
Nd10 Nd6 3.640457 1_555
Nd11 Pd11 2.987513 1_565
Nd11 Pd5 3.019242 1_455
Nd11 Pd5 3.019242 1_555
Nd11 Si2 3.093247 1_555
Nd11 Si2 3.093247 1_455
Nd11 Pd4 3.138550 1_555
Nd11 Pd10 3.207538 1_455
Nd11 Pd10 3.207538 1_555
Nd11 Si3 3.241495 1_555
Nd11 Si8 3.267351 1_565
Nd11 Si9 3.313588 1_555
Nd11 Si9 3.313588 1_455
Nd11 Nd7 3.640457 1_555
Si4 Si8 2.638367 1_555
Si5 Si9 2.638367 1_555
Si10 Si6 2.638367 1_555
Si11 Si7 2.638367 1_555
Pd0 Si6 2.549928 1_455
Pd0 Si6 2.549928 1_555
Pd0 Si4 2.629056 1_555
Pd0 Pd8 3.116830 1_555
Pd1 Si7 2.549928 1_655
Pd1 Si7 2.549928 1_555
Pd1 Si5 2.629056 1_555
Pd1 Pd9 3.116830 1_555
Pd2 Si4 2.549928 1_565
Pd2 Si4 2.549928 1_665
Pd2 Si6 2.629056 1_555
Pd3 Si5 2.549928 1_445
Pd3 Si5 2.549928 1_545
Pd3 Si7 2.629056 1_555
Pd4 Si2 2.570745 1_555
Pd4 Si2 2.570745 1_455
Pd4 Si8 2.675328 1_555
Pd4 Si3 2.956323 1_555
Pd5 Si3 2.570745 1_655
Pd5 Si3 2.570745 1_555
Pd5 Si9 2.675328 1_555
Pd5 Si2 2.956323 1_555
Pd6 Si0 2.570745 1_565
Pd6 Si0 2.570745 1_665
Pd6 Si10 2.675328 1_555
Pd6 Si1 2.956323 1_554
Pd7 Si1 2.570745 1_545
Pd7 Si1 2.570745 1_445
Pd7 Si11 2.675328 1_555
Pd7 Si0 2.956323 1_556
Pd8 Si0 2.527888 1_555
Pd8 Si10 2.545525 1_555
Pd8 Si10 2.545525 1_455
Pd9 Si1 2.527888 1_555
Pd9 Si11 2.545525 1_555
Pd9 Si11 2.545525 1_655
Pd10 Si2 2.527888 1_555
Pd10 Si8 2.545525 1_565
Pd10 Si8 2.545525 1_665
Pd10 Pd2 3.116830 1_555
Pd11 Si3 2.527888 1_555
Pd11 Si9 2.545525 1_445
Pd11 Si9 2.545525 1_545
Pd11 Pd3 3.116830 1_555
