# generated using pymatgen
data_Mg4Si3
_symmetry_space_group_name_H-M   'P 1'
_cell_length_a   5.67887600
_cell_length_b   6.32778290
_cell_length_c   8.48619588
_cell_angle_alpha   105.76372171
_cell_angle_beta   105.66067748
_cell_angle_gamma   100.27667509
_symmetry_Int_Tables_number   1
_chemical_formula_structural   Mg4Si3
_chemical_formula_sum   'Mg8 Si6'
_cell_volume   271.95800396
_cell_formula_units_Z   2
loop_
 _symmetry_equiv_pos_site_id
 _symmetry_equiv_pos_as_xyz
  1  'x, y, z'
loop_
 _atom_site_type_symbol
 _atom_site_label
 _atom_site_symmetry_multiplicity
 _atom_site_fract_x
 _atom_site_fract_y
 _atom_site_fract_z
 _atom_site_occupancy
  Mg  Mg0  1  0.10864100  0.27557300  0.78503800  1
  Mg  Mg1  1  0.63679600  0.10339800  0.04817800  1
  Mg  Mg2  1  0.62396900  0.43949500  0.51195000  1
  Mg  Mg3  1  0.08092900  0.45183600  0.41719800  1
  Mg  Mg4  1  0.55566800  0.62358400  0.14311400  1
  Mg  Mg5  1  0.53049200  0.94319800  0.62450800  1
  Mg  Mg6  1  0.16238200  0.94314400  0.30091300  1
  Mg  Mg7  1  0.01856200  0.79436400  0.88284600  1
  Si  Si0  1  0.42914600  0.65003400  0.78591400  1
  Si  Si1  1  0.65566800  0.37213700  0.82943700  1
  Si  Si2  1  0.24239800  0.24694400  0.14319800  1
  Si  Si3  1  0.97563900  0.85049000  0.55475300  1
  Si  Si4  1  0.00329700  0.51385500  0.09389700  1
  Si  Si5  1  0.72658300  0.04207800  0.37915400  1
loop_
_geom_bond_atom_site_label_1
_geom_bond_atom_site_label_2
_geom_bond_distance
_geom_bond_site_symmetry_2
Mg0 Si3 2.691997 1_445
Mg0 Si0 2.715094 1_555
Mg0 Si1 2.844548 1_455
Mg0 Si4 2.919292 1_556
Mg0 Si1 2.954891 1_555
Mg0 Si2 2.991603 1_556
Mg0 Mg5 3.259385 1_445
Mg0 Mg4 3.276047 1_556
Mg0 Si5 3.287985 1_455
Mg0 Mg7 3.327956 1_555
Mg0 Mg7 3.356969 1_545
Mg0 Mg3 3.563996 1_555
Mg1 Si2 2.791891 1_555
Mg1 Si1 2.847200 1_554
Mg1 Si5 2.861654 1_555
Mg1 Si4 2.883748 1_655
Mg1 Si0 2.912182 1_544
Mg1 Si2 3.208301 1_655
Mg1 Mg5 3.308797 1_544
Mg1 Mg4 3.316130 1_555
Mg1 Mg3 3.321074 1_655
Mg1 Mg4 3.333155 1_545
Mg1 Mg7 3.393961 1_544
Mg1 Mg7 3.486671 1_644
Mg2 Si5 2.696518 1_555
Mg2 Si1 2.804029 1_555
Mg2 Si3 2.850580 1_555
Mg2 Mg3 2.911203 1_655
Mg2 Si0 2.938681 1_555
Mg2 Mg3 2.990675 1_555
Mg2 Si2 3.049258 1_555
Mg2 Mg7 3.244551 1_655
Mg2 Mg5 3.252147 1_555
Mg2 Mg6 3.378598 1_545
Mg2 Mg4 3.576480 1_555
Mg3 Si3 2.720051 1_455
Mg3 Si2 2.804583 1_555
Mg3 Si4 2.805250 1_555
Mg3 Si5 2.865175 1_455
Mg3 Si0 2.986022 1_555
Mg3 Mg6 3.255892 1_545
Mg3 Mg5 3.324313 1_555
Mg4 Si5 2.667996 1_565
Mg4 Si2 2.708100 1_555
Mg4 Si4 2.857248 1_655
Mg4 Si1 2.962633 1_554
Mg4 Si4 2.975623 1_555
Mg4 Si0 2.979191 1_554
Mg4 Mg6 3.362323 1_655
Mg4 Si3 3.392268 1_555
Mg5 Si1 2.641248 1_565
Mg5 Si0 2.659689 1_555
Mg5 Si5 2.770881 1_565
Mg5 Si3 2.869380 1_555
Mg5 Si3 2.961043 1_455
Mg5 Mg6 2.968336 1_555
Mg5 Mg7 3.485417 1_655
Mg6 Si4 2.637445 1_555
Mg6 Si2 2.666078 1_565
Mg6 Si3 2.793989 1_455
Mg6 Si5 2.858627 1_465
Mg6 Si5 3.001417 1_565
Mg6 Mg7 3.238324 1_554
Mg7 Si4 2.849935 1_556
Mg7 Si3 2.852968 1_455
Mg7 Si0 2.886945 1_555
Mg7 Si2 2.906154 1_566
Mg7 Si1 2.909286 1_455
Mg7 Si0 3.119168 1_455
Si0 Si1 2.405606 1_555
Si1 Si4 2.370868 1_656
Si2 Si4 2.401415 1_555
Si3 Si5 2.479166 1_565
