# generated using pymatgen
data_CsSeO4
_symmetry_space_group_name_H-M   'P 1'
_cell_length_a   7.56978242
_cell_length_b   8.14526002
_cell_length_c   8.75601400
_cell_angle_alpha   90.00000000
_cell_angle_beta   90.00000000
_cell_angle_gamma   107.65915695
_symmetry_Int_Tables_number   1
_chemical_formula_structural   CsSeO4
_chemical_formula_sum   'Cs4 Se4 O16'
_cell_volume   514.43686434
_cell_formula_units_Z   4
loop_
 _symmetry_equiv_pos_site_id
 _symmetry_equiv_pos_as_xyz
  1  'x, y, z'
loop_
 _atom_site_type_symbol
 _atom_site_label
 _atom_site_symmetry_multiplicity
 _atom_site_fract_x
 _atom_site_fract_y
 _atom_site_fract_z
 _atom_site_occupancy
  Cs  Cs0  1  0.70544000  0.21203100  0.37341100  1
  Cs  Cs1  1  0.79456000  0.78796900  0.87341100  1
  Cs  Cs2  1  0.29456000  0.78796900  0.62658900  1
  Cs  Cs3  1  0.20544000  0.21203100  0.12658900  1
  Se  Se0  1  0.78182700  0.74127900  0.36273600  1
  Se  Se1  1  0.71817300  0.25872100  0.86273600  1
  Se  Se2  1  0.21817300  0.25872100  0.63726400  1
  Se  Se3  1  0.28182700  0.74127900  0.13726400  1
  O  O0  1  0.62008400  0.57146900  0.28070400  1
  O  O1  1  0.87991600  0.42853100  0.78070400  1
  O  O2  1  0.37991600  0.42853100  0.71929600  1
  O  O3  1  0.12008400  0.57146900  0.21929600  1
  O  O4  1  0.86703900  0.89795000  0.23946400  1
  O  O5  1  0.63296100  0.10205000  0.73946400  1
  O  O6  1  0.13296100  0.10205000  0.76053600  1
  O  O7  1  0.36703900  0.89795000  0.26053600  1
  O  O8  1  0.94731200  0.65303000  0.42688900  1
  O  O9  1  0.55268800  0.34697000  0.92688900  1
  O  O10  1  0.05268800  0.34697000  0.57311100  1
  O  O11  1  0.44731200  0.65303000  0.07311100  1
  O  O12  1  0.70111500  0.80865800  0.52014200  1
  O  O13  1  0.79888500  0.19134200  0.02014200  1
  O  O14  1  0.29888500  0.19134200  0.47985800  1
  O  O15  1  0.20111500  0.80865800  0.97985800  1
loop_
_geom_bond_atom_site_label_1
_geom_bond_atom_site_label_2
_geom_bond_distance
_geom_bond_site_symmetry_2
Cs0 O10 3.069562 1_655
Cs0 O14 3.170753 1_555
Cs0 O7 3.179232 1_545
Cs0 O13 3.188908 1_555
Cs0 O0 3.285669 1_555
Cs0 O5 3.328424 1_555
Cs0 O4 3.363832 1_545
Cs0 O12 3.518734 1_545
Cs0 O8 3.533297 1_555
Cs0 O3 3.830019 1_655
Cs1 O11 3.069562 1_556
Cs1 O15 3.170753 1_655
Cs1 O6 3.179232 1_665
Cs1 O12 3.188908 1_555
Cs1 O1 3.285669 1_555
Cs1 O4 3.328424 1_556
Cs1 O5 3.363832 1_565
Cs1 O13 3.518734 1_566
Cs1 O9 3.533297 1_555
Cs1 O2 3.830019 1_555
Cs2 O8 3.069562 1_455
Cs2 O12 3.170753 1_555
Cs2 O5 3.179232 1_565
Cs2 O15 3.188908 1_555
Cs2 O2 3.285669 1_555
Cs2 O7 3.328424 1_555
Cs2 O6 3.363832 1_565
Cs2 O14 3.518734 1_565
Cs2 O10 3.533297 1_555
Cs2 O1 3.830019 1_455
Cs3 O9 3.069562 1_554
Cs3 O13 3.170753 1_455
Cs3 O4 3.179232 1_445
Cs3 O14 3.188908 1_555
Cs3 O3 3.285669 1_555
Cs3 O6 3.328424 1_554
Cs3 O7 3.363832 1_545
Cs3 O15 3.518734 1_544
Cs3 O11 3.533297 1_555
Cs3 O0 3.830019 1_555
O0 Se0 1.703123 1_555
O1 Se1 1.703123 1_555
O2 Se2 1.703123 1_555
O3 Se3 1.703123 1_555
O4 Se0 1.646269 1_555
O5 Se1 1.646269 1_555
O6 Se2 1.646269 1_555
O7 Se3 1.646269 1_555
O8 Se0 1.716902 1_555
O9 Se1 1.716902 1_555
O10 Se2 1.716902 1_555
O11 Se3 1.716902 1_555
O12 Se0 1.666583 1_555
O13 Se1 1.666583 1_554
O14 Se2 1.666583 1_555
O15 Se3 1.666583 1_556
