# generated using pymatgen
data_ZnS
_symmetry_space_group_name_H-M   'P 1'
_cell_length_a   13.58836244
_cell_length_b   13.23923978
_cell_length_c   13.35079311
_cell_angle_alpha   80.58348602
_cell_angle_beta   92.06138488
_cell_angle_gamma   95.45443726
_symmetry_Int_Tables_number   1
_chemical_formula_structural   ZnS
_chemical_formula_sum   'Zn50 S50'
_cell_volume   2358.19957228
_cell_formula_units_Z   50
loop_
 _symmetry_equiv_pos_site_id
 _symmetry_equiv_pos_as_xyz
  1  'x, y, z'
loop_
 _atom_site_type_symbol
 _atom_site_label
 _atom_site_symmetry_multiplicity
 _atom_site_fract_x
 _atom_site_fract_y
 _atom_site_fract_z
 _atom_site_occupancy
  Zn  Zn0  1  0.91615227  0.10321159  0.65124068  1
  Zn  Zn1  1  0.22191378  0.45520661  0.65305490  1
  Zn  Zn2  1  0.85085213  0.12936214  0.03867842  1
  Zn  Zn3  1  0.64505379  0.48170831  0.57213832  1
  Zn  Zn4  1  0.11923207  0.88357776  0.77145003  1
  Zn  Zn5  1  0.44910091  0.08754190  0.28887398  1
  Zn  Zn6  1  0.83868031  0.55721930  0.33652296  1
  Zn  Zn7  1  0.44242342  0.92946067  0.22234350  1
  Zn  Zn8  1  0.55162076  0.55729328  0.82365715  1
  Zn  Zn9  1  0.68957899  0.95452598  0.12136705  1
  Zn  Zn10  1  0.86718394  0.37835966  0.53429296  1
  Zn  Zn11  1  0.43181050  0.99939937  0.85707130  1
  Zn  Zn12  1  0.10731382  0.69819151  0.20929718  1
  Zn  Zn13  1  0.95832873  0.23810044  0.83040179  1
  Zn  Zn14  1  0.55884871  0.72099236  0.47628013  1
  Zn  Zn15  1  0.50222384  0.69801378  0.04528581  1
  Zn  Zn16  1  0.16819105  0.69373342  0.88103339  1
  Zn  Zn17  1  0.14718663  0.87385107  0.35975640  1
  Zn  Zn18  1  0.25645744  0.25057508  0.14830647  1
  Zn  Zn19  1  0.30666233  0.53967317  0.20979094  1
  Zn  Zn20  1  0.08605796  0.29313020  0.97570777  1
  Zn  Zn21  1  0.24587426  0.11352084  0.93608490  1
  Zn  Zn22  1  0.62127229  0.28373770  0.46694542  1
  Zn  Zn23  1  0.59771376  0.86397078  0.76418786  1
  Zn  Zn24  1  0.41833643  0.65268786  0.61664858  1
  Zn  Zn25  1  0.95986209  0.70008674  0.95857139  1
  Zn  Zn26  1  0.48302182  0.02450892  0.55358309  1
  Zn  Zn27  1  0.55764695  0.49122676  0.27456364  1
  Zn  Zn28  1  0.82336845  0.26997999  0.29501533  1
  Zn  Zn29  1  0.35307949  0.25555969  0.86205701  1
  Zn  Zn30  1  0.01890916  0.77953870  0.50276950  1
  Zn  Zn31  1  0.71871838  0.90341830  0.62560711  1
  Zn  Zn32  1  0.05828755  0.13052152  0.22924870  1
  Zn  Zn33  1  0.53933246  0.30705301  0.09095331  1
  Zn  Zn34  1  0.75625599  0.36484758  0.91517473  1
  Zn  Zn35  1  0.26314488  0.81518322  0.04959678  1
  Zn  Zn36  1  0.67032165  0.91753621  0.37075020  1
  Zn  Zn37  1  0.14068697  0.22353784  0.63759640  1
  Zn  Zn38  1  0.15367021  0.73446958  0.68764988  1
  Zn  Zn39  1  0.93285985  0.40971173  0.10943297  1
  Zn  Zn40  1  0.72131736  0.73903899  0.75621765  1
  Zn  Zn41  1  0.65381491  0.72173954  0.22059041  1
  Zn  Zn42  1  0.39638862  0.38653318  0.46568041  1
  Zn  Zn43  1  0.26103779  0.71193256  0.40007630  1
  Zn  Zn44  1  0.09719763  0.38345524  0.28738236  1
  Zn  Zn45  1  0.23400860  0.53405549  0.93903720  1
  Zn  Zn46  1  0.87985076  0.92856301  0.21817746  1
  Zn  Zn47  1  0.97432517  0.42190044  0.86392105  1
  Zn  Zn48  1  0.08908632  0.61276347  0.46203000  1
  Zn  Zn49  1  0.95713461  0.83088293  0.65691557  1
  S  S0  1  0.54928157  0.84799261  0.12610077  1
  S  S1  1  0.52007262  0.27584904  0.83620568  1
  S  S2  1  0.22929250  0.99566240  0.45504227  1
  S  S3  1  0.68685769  0.33382272  0.17462590  1
  S  S4  1  0.23415674  0.34956207  0.53923431  1
  S  S5  1  0.13383538  0.13529044  0.05830220  1
  S  S6  1  0.96629788  0.74927597  0.12455171  1
  S  S7  1  0.83033648  0.47884358  0.77311702  1
  S  S8  1  0.79230862  0.20547408  0.88661321  1
  S  S9  1  0.11699180  0.57581625  0.64095162  1
  S  S10  1  0.11093876  0.82575316  0.95508209  1
  S  S11  1  0.56199129  0.71436132  0.87858659  1
  S  S12  1  0.19171775  0.40254563  0.06967135  1
  S  S13  1  0.61205947  0.59270918  0.13088791  1
  S  S14  1  0.92405781  0.55482145  0.48688190  1
  S  S15  1  0.74270213  0.03589980  0.25648656  1
  S  S16  1  0.53566804  0.02078479  0.73322921  1
  S  S17  1  0.00415207  0.53188417  0.98075730  1
  S  S18  1  0.41479781  0.50122562  0.72983718  1
  S  S19  1  0.57792031  0.38845341  0.91910769  1
  S  S20  1  0.68052580  0.48145539  0.39503369  1
  S  S21  1  0.61474720  0.62643432  0.64867568  1
  S  S22  1  0.13288209  0.07052873  0.76564210  1
  S  S23  1  0.85330003  0.72646171  0.23323478  1
  S  S24  1  0.41043411  0.19420651  0.13061691  1
  S  S25  1  0.87155817  0.97055325  0.56906024  1
  S  S26  1  0.40669127  0.63155881  0.44796642  1
  S  S27  1  0.78232760  0.23739630  0.46534430  1
  S  S28  1  0.76783318  0.43673813  0.06494121  1
  S  S29  1  0.88397513  0.72973703  0.79810219  1
  S  S30  1  0.29494759  0.43144889  0.82021154  1
  S  S31  1  0.98814089  0.06025387  0.82151219  1
  S  S32  1  0.34682304  0.97396700  0.99462149  1
  S  S33  1  0.92168292  0.22202101  0.15811394  1
  S  S34  1  0.98145717  0.27109211  0.64381595  1
  S  S35  1  0.17310104  0.23663002  0.30544793  1
  S  S36  1  0.30920924  0.78687470  0.61508710  1
  S  S37  1  0.69700014  0.74608896  0.38192561  1
  S  S38  1  0.76229535  0.38425773  0.67342612  1
  S  S39  1  0.31262055  0.94831295  0.58317723  1
  S  S40  1  0.40062129  0.41661307  0.29030443  1
  S  S41  1  0.24369643  0.82167467  0.23207948  1
  S  S42  1  0.16655992  0.55356193  0.30506898  1
  S  S43  1  0.33288793  0.65561481  0.06139844  1
  S  S44  1  0.57703234  0.89672456  0.51269223  1
  S  S45  1  0.01069538  0.96826395  0.31956752  1
  S  S46  1  0.52133189  0.34745126  0.57688516  1
  S  S47  1  0.93405791  0.42462472  0.27930155  1
  S  S48  1  0.48574597  0.16294325  0.42816237  1
  S  S49  1  0.83649088  0.95467321  0.04457545  1
loop_
_geom_bond_atom_site_label_1
_geom_bond_atom_site_label_2
_geom_bond_distance
_geom_bond_site_symmetry_2
Zn2 Zn9 3.122901 1_545
Zn4 Zn49 2.737003 1_455
Zn5 Zn7 2.396604 1_545
Zn13 Zn47 2.533296 1_555
Zn13 Zn20 2.699346 1_655
Zn14 Zn24 2.711075 1_555
Zn16 Zn45 2.375402 1_555
Zn16 Zn38 2.554126 1_555
Zn16 Zn4 2.818652 1_555
Zn16 Zn25 3.062187 1_455
Zn16 Zn35 3.145703 1_556
Zn17 Zn30 2.699726 1_555
Zn17 Zn43 2.733397 1_555
Zn20 Zn47 2.633519 1_455
Zn21 Zn29 2.368496 1_555
Zn23 Zn31 2.477670 1_555
Zn23 Zn40 2.483259 1_555
Zn27 Zn41 3.182836 1_555
Zn30 Zn49 2.468289 1_455
Zn30 Zn48 2.628857 1_555
Zn30 Zn38 3.033544 1_555
Zn31 Zn40 2.558602 1_555
Zn34 Zn47 3.061140 1_555
Zn38 Zn4 2.510710 1_555
Zn38 Zn49 3.054110 1_455
Zn41 Zn9 3.148792 1_555
Zn43 Zn48 2.658537 1_555
S0 Zn9 2.257436 1_555
S0 Zn7 2.410013 1_555
S0 Zn15 2.434265 1_555
S0 Zn41 2.456710 1_555
S1 S19 2.078445 1_555
S1 Zn29 2.291398 1_555
S2 S39 2.060640 1_555
S2 Zn17 2.385586 1_555
S3 Zn33 2.285918 1_555
S3 Zn28 2.525413 1_555
S4 Zn1 2.247436 1_555
S4 Zn37 2.263102 1_555
S4 Zn42 2.420104 1_555
S5 Zn20 2.335934 1_554
S5 Zn21 2.340789 1_554
S5 Zn32 2.525010 1_555
S5 Zn18 2.553898 1_555
S6 Zn12 2.291127 1_655
S6 Zn25 2.406181 1_554
S7 Zn47 2.382627 1_555
S7 Zn34 2.408316 1_555
S8 Zn2 2.266428 1_556
S8 Zn34 2.304486 1_555
S8 Zn13 2.381076 1_555
S9 Zn1 2.222674 1_555
S9 Zn38 2.292625 1_555
S9 Zn48 2.382628 1_555
S10 Zn16 2.348781 1_555
S10 Zn35 2.387240 1_556
S10 Zn4 2.449206 1_555
S10 Zn25 2.513307 1_455
S10 S6 3.033021 1_456
S11 Zn8 2.306010 1_555
S11 Zn23 2.317800 1_555
S11 Zn15 2.366128 1_556
S11 Zn40 2.721811 1_555
S12 Zn45 2.300363 1_554
S12 Zn18 2.345839 1_555
S12 Zn20 2.408973 1_554
S12 Zn19 3.097911 1_555
S12 Zn44 3.182510 1_555
S13 Zn27 2.258564 1_555
S13 Zn41 2.260669 1_555
S13 Zn15 2.286655 1_555
S14 Zn6 2.279307 1_555
S14 Zn48 2.317416 1_655
S14 Zn10 2.379896 1_555
S14 Zn30 3.164676 1_655
S15 Zn36 2.186972 1_545
S15 Zn9 2.308759 1_545
S15 Zn46 2.562022 1_545
S16 Zn11 2.178123 1_545
S16 Zn23 2.284456 1_545
S16 Zn26 2.472080 1_555
S17 Zn47 2.302866 1_455
S17 Zn39 2.327774 1_456
S17 Zn25 2.331314 1_455
S17 Zn16 3.115212 1_555
S17 Zn45 3.188947 1_555
S18 S30 2.109990 1_555
S18 Zn24 2.302663 1_555
S18 Zn8 2.334717 1_555
S18 Zn1 2.828262 1_555
S19 Zn33 2.422828 1_556
S19 Zn8 2.436241 1_555
S19 Zn34 2.476138 1_555
S20 Zn27 2.274059 1_555
S20 Zn6 2.385241 1_555
S20 Zn3 2.430644 1_555
S20 Zn22 2.693439 1_555
S21 Zn3 2.388719 1_555
S21 Zn8 2.515235 1_555
S21 Zn40 2.553696 1_555
S21 Zn14 2.560029 1_555
S21 Zn24 2.733550 1_555
S22 S31 2.112971 1_455
S22 Zn37 2.424102 1_555
S22 Zn4 2.453047 1_545
S22 Zn21 2.804603 1_555
S23 S6 2.117303 1_555
S23 Zn6 2.426018 1_555
S23 Zn46 2.641111 1_555
S23 Zn41 2.705270 1_555
S23 S37 3.015975 1_555
S24 Zn33 2.211481 1_555
S24 Zn18 2.319579 1_555
S24 Zn5 2.412320 1_555
S25 Zn0 2.244091 1_565
S25 Zn31 2.283750 1_555
S25 Zn49 2.397543 1_555
S26 Zn24 2.312372 1_555
S26 Zn14 2.333346 1_555
S26 Zn43 2.354781 1_555
S26 Zn42 3.203712 1_555
S27 Zn28 2.322240 1_555
S27 Zn22 2.330068 1_555
S27 Zn10 2.395092 1_555
S28 S3 2.095137 1_555
S28 Zn39 2.344477 1_555
S28 Zn34 2.345264 1_554
S29 Zn40 2.270105 1_555
S29 Zn49 2.321697 1_555
S29 Zn25 2.334545 1_555
S30 Zn1 2.394682 1_555
S30 Zn45 2.461965 1_555
S30 Zn29 2.500178 1_555
S31 Zn0 2.443519 1_555
S31 Zn13 2.449151 1_555
S32 Zn11 2.166962 1_555
S32 Zn35 2.313327 1_556
S32 Zn21 2.416234 1_565
S32 Zn7 3.248564 1_556
S33 Zn2 2.297620 1_555
S33 Zn32 2.395662 1_655
S33 Zn39 2.454997 1_555
S33 Zn28 2.499033 1_555
S34 Zn0 2.301426 1_555
S34 Zn37 2.318134 1_655
S34 Zn10 2.478390 1_555
S34 Zn13 2.483780 1_555
S35 Zn44 2.260613 1_555
S35 Zn32 2.319309 1_555
S35 Zn18 2.392268 1_555
S36 S39 2.106280 1_555
S36 Zn38 2.352752 1_555
S36 Zn24 2.416990 1_555
S36 Zn43 3.213462 1_555
S37 Zn14 2.266257 1_555
S37 Zn41 2.277741 1_555
S37 Zn36 2.312474 1_555
S38 S7 2.105022 1_555
S38 Zn3 2.386649 1_555
S38 Zn10 2.397291 1_555
S39 Zn26 2.454893 1_565
S40 Zn27 2.266355 1_555
S40 Zn19 2.272347 1_555
S40 Zn42 2.311778 1_555
S41 Zn12 2.397032 1_555
S41 Zn17 2.412658 1_555
S41 Zn35 2.476263 1_555
S41 Zn43 2.481484 1_555
S41 Zn7 2.928693 1_555
S42 Zn12 2.316739 1_555
S42 Zn19 2.365058 1_555
S42 Zn44 2.402176 1_555
S42 Zn48 2.639496 1_555
S42 Zn43 2.809732 1_555
S43 Zn19 2.315135 1_555
S43 Zn15 2.325190 1_555
S43 Zn35 2.376305 1_555
S43 Zn45 2.712068 1_554
S43 Zn16 3.238992 1_554
S44 Zn36 2.282452 1_555
S44 Zn26 2.356953 1_565
S44 Zn31 2.406161 1_555
S44 Zn14 2.441807 1_555
S45 Zn46 2.269751 1_455
S45 Zn32 2.330505 1_565
S45 Zn17 2.332346 1_555
S45 Zn30 3.204901 1_555
S46 Zn42 2.255816 1_555
S46 Zn3 2.322168 1_555
S46 Zn22 2.340182 1_555
S47 Zn39 2.307765 1_555
S47 Zn44 2.327270 1_655
S47 Zn28 2.407235 1_555
S47 Zn6 2.507486 1_555
S48 Zn5 2.269129 1_555
S48 Zn26 2.269711 1_555
S48 Zn22 2.420644 1_555
S49 Zn9 2.276428 1_555
S49 Zn2 2.291028 1_565
S49 Zn46 2.348787 1_555
