# generated using pymatgen
data_MnHO2
_symmetry_space_group_name_H-M   'P 1'
_cell_length_a   8.03548668
_cell_length_b   8.03548668
_cell_length_c   8.03548668
_cell_angle_alpha   91.94182176
_cell_angle_beta   91.94182176
_cell_angle_gamma   158.78523952
_symmetry_Int_Tables_number   1
_chemical_formula_structural   MnHO2
_chemical_formula_sum   'Mn4 H4 O8'
_cell_volume   184.54288605
_cell_formula_units_Z   4
loop_
 _symmetry_equiv_pos_site_id
 _symmetry_equiv_pos_as_xyz
  1  'x, y, z'
loop_
 _atom_site_type_symbol
 _atom_site_label
 _atom_site_symmetry_multiplicity
 _atom_site_fract_x
 _atom_site_fract_y
 _atom_site_fract_z
 _atom_site_occupancy
  Mn  Mn0  1  0.64492900  0.84862100  0.49354900  1
  Mn  Mn1  1  0.15137900  0.64492900  0.79630800  1
  Mn  Mn2  1  0.84862100  0.35507100  0.20369200  1
  Mn  Mn3  1  0.35507100  0.15137900  0.50645100  1
  H  H0  1  0.17121500  0.92074200  0.09195700  1
  H  H1  1  0.82878500  0.07925800  0.90804300  1
  H  H2  1  0.07925800  0.17121500  0.25047400  1
  H  H3  1  0.92074200  0.82878500  0.74952600  1
  O  O0  1  0.82817300  0.54351700  0.37169000  1
  O  O1  1  0.45648300  0.82817300  0.28465600  1
  O  O2  1  0.54351700  0.17182700  0.71534400  1
  O  O3  1  0.17182700  0.45648300  0.62831000  1
  O  O4  1  0.15051200  0.22174900  0.37226100  1
  O  O5  1  0.77825100  0.15051200  0.92876300  1
  O  O6  1  0.84948800  0.77825100  0.62773900  1
  O  O7  1  0.22174900  0.84948800  0.07123700  1
loop_
_geom_bond_atom_site_label_1
_geom_bond_atom_site_label_2
_geom_bond_distance
_geom_bond_site_symmetry_2
Mn0 O3 1.931241 1_665
Mn0 O3 1.931243 1_555
Mn0 O4 2.049392 1_665
Mn0 O4 2.049394 1_555
Mn0 O1 2.117235 1_555
Mn0 O6 2.416285 1_555
Mn1 O2 1.931238 1_565
Mn1 O2 1.931238 1_455
Mn1 O5 2.049397 1_455
Mn1 O5 2.049397 1_565
Mn1 O3 2.117241 1_555
Mn1 O7 2.416281 1_556
Mn2 O1 1.931238 1_655
Mn2 O1 1.931238 1_545
Mn2 O7 2.049397 1_655
Mn2 O7 2.049397 1_545
Mn2 O0 2.117241 1_555
Mn2 O5 2.416281 1_554
Mn3 O0 1.931241 1_445
Mn3 O0 1.931243 1_555
Mn3 O6 2.049392 1_445
Mn3 O6 2.049394 1_555
Mn3 O2 2.117235 1_555
Mn3 O4 2.416285 1_555
H0 O7 0.975724 1_555
H0 O0 2.672481 1_565
H0 O0 2.672481 1_455
H1 O5 0.975724 1_555
H1 O3 2.672481 1_655
H1 O3 2.672481 1_545
H2 O4 0.975717 1_555
H2 O1 2.672479 1_445
H2 O1 2.672481 1_555
H3 O6 0.975717 1_555
H3 O2 2.672479 1_665
H3 O2 2.672481 1_555
