# generated using pymatgen
data_TbMgS3
_symmetry_space_group_name_H-M   'P 1'
_cell_length_a   6.71402500
_cell_length_b   6.71402507
_cell_length_c   18.05552700
_cell_angle_alpha   90.00000000
_cell_angle_beta   90.00000000
_cell_angle_gamma   120.00000460
_symmetry_Int_Tables_number   1
_chemical_formula_structural   TbMgS3
_chemical_formula_sum   'Tb6 Mg6 S18'
_cell_volume   704.86621193
_cell_formula_units_Z   6
loop_
 _symmetry_equiv_pos_site_id
 _symmetry_equiv_pos_as_xyz
  1  'x, y, z'
loop_
 _atom_site_type_symbol
 _atom_site_label
 _atom_site_symmetry_multiplicity
 _atom_site_fract_x
 _atom_site_fract_y
 _atom_site_fract_z
 _atom_site_occupancy
  Tb  Tb0  1  0.00000000  0.00000000  0.34665400  1
  Tb  Tb1  1  0.00000000  0.00000000  0.65334700  1
  Tb  Tb2  1  0.66666700  0.33333300  0.67998700  1
  Tb  Tb3  1  0.66666700  0.33333300  0.98668000  1
  Tb  Tb4  1  0.33333300  0.66666700  0.01332100  1
  Tb  Tb5  1  0.33333300  0.66666700  0.32001400  1
  Mg  Mg0  1  0.00000000  0.00000000  0.15360400  1
  Mg  Mg1  1  0.00000000  0.00000000  0.84639600  1
  Mg  Mg2  1  0.66666700  0.33333300  0.48693700  1
  Mg  Mg3  1  0.66666700  0.33333300  0.17972900  1
  Mg  Mg4  1  0.33333300  0.66666700  0.82027100  1
  Mg  Mg5  1  0.33333300  0.66666700  0.51306300  1
  S  S0  1  0.98270300  0.34429300  0.57983700  1
  S  S1  1  0.01729700  0.65570700  0.42016300  1
  S  S2  1  0.65570700  0.63841000  0.57983700  1
  S  S3  1  0.34429300  0.36159000  0.42016300  1
  S  S4  1  0.36159000  0.01729700  0.57983700  1
  S  S5  1  0.63841000  0.98270300  0.42016300  1
  S  S6  1  0.64937000  0.67762600  0.91317000  1
  S  S7  1  0.68396400  0.98904000  0.75349600  1
  S  S8  1  0.32237400  0.97174300  0.91317000  1
  S  S9  1  0.01096000  0.69492300  0.75349600  1
  S  S10  1  0.02825700  0.35063000  0.91317000  1
  S  S11  1  0.30507700  0.31603600  0.75349600  1
  S  S12  1  0.31603600  0.01096000  0.24650400  1
  S  S13  1  0.35063000  0.32237400  0.08683000  1
  S  S14  1  0.98904000  0.30507700  0.24650400  1
  S  S15  1  0.67762600  0.02825700  0.08683000  1
  S  S16  1  0.69492300  0.68396400  0.24650400  1
  S  S17  1  0.97174300  0.64937000  0.08683000  1
loop_
_geom_bond_atom_site_label_1
_geom_bond_atom_site_label_2
_geom_bond_distance
_geom_bond_site_symmetry_2
Mg0 S17 2.566107 1_445
Mg0 S13 2.566110 1_555
Mg0 S15 2.566113 1_455
Mg0 S12 2.676781 1_555
Mg0 S16 2.676783 1_445
Mg0 S14 2.676786 1_455
Mg1 S10 2.566107 1_555
Mg1 S6 2.566110 1_445
Mg1 S8 2.566113 1_545
Mg1 S7 2.676781 1_445
Mg1 S11 2.676783 1_555
Mg1 S9 2.676786 1_545
Mg2 S5 2.566107 1_545
Mg2 S1 2.566110 1_655
Mg2 S3 2.566113 1_555
Mg2 S0 2.676781 1_555
Mg2 S4 2.676783 1_555
Mg2 S2 2.676786 1_555
Mg3 S14 2.566112 1_555
Mg3 S12 2.566119 1_555
Mg3 S16 2.566124 1_555
Mg3 S15 2.676767 1_555
Mg3 S17 2.676772 1_555
Mg3 S13 2.676777 1_555
Mg4 S9 2.566112 1_555
Mg4 S7 2.566119 1_555
Mg4 S11 2.566124 1_555
Mg4 S8 2.676767 1_555
Mg4 S10 2.676772 1_555
Mg4 S6 2.676777 1_555
Mg5 S4 2.566107 1_565
Mg5 S0 2.566110 1_455
Mg5 S2 2.566113 1_555
Mg5 S1 2.676781 1_555
Mg5 S5 2.676783 1_555
Mg5 S3 2.676786 1_555
S0 Tb1 2.717907 1_655
S0 Tb2 2.760694 1_555
S1 Tb0 2.717898 1_565
S1 Tb5 2.760682 1_555
S2 Tb1 2.717907 1_665
S2 Tb2 2.760699 1_555
S3 Tb0 2.717898 1_555
S3 Tb5 2.760687 1_555
S4 Tb1 2.717907 1_555
S4 Tb2 2.760696 1_555
S5 Tb0 2.717898 1_665
S5 Tb5 2.760684 1_555
S6 Tb3 2.717907 1_555
S6 Tb4 2.760713 1_556
S7 Tb2 2.717898 1_565
S7 Tb1 2.760682 1_665
S8 Tb3 2.717907 1_565
S8 Tb4 2.760703 1_556
S9 Tb2 2.717898 1_455
S9 Tb1 2.760687 1_565
S10 Tb3 2.717907 1_455
S10 Tb4 2.760708 1_556
S11 Tb2 2.717898 1_555
S11 Tb1 2.760684 1_555
S12 Tb5 2.717907 1_545
S12 Tb0 2.760694 1_555
S13 Tb4 2.717898 1_555
S13 Tb3 2.760701 1_554
S14 Tb5 2.717907 1_655
S14 Tb0 2.760699 1_655
S15 Tb4 2.717898 1_545
S15 Tb3 2.760691 1_554
S16 Tb5 2.717907 1_555
S16 Tb0 2.760696 1_665
S17 Tb4 2.717898 1_655
S17 Tb3 2.760696 1_554
