# generated using pymatgen
data_Fe2CoN2
_symmetry_space_group_name_H-M   'P 1'
_cell_length_a   2.83443600
_cell_length_b   2.82785100
_cell_length_c   11.65893900
_cell_angle_alpha   90.00000000
_cell_angle_beta   90.00000000
_cell_angle_gamma   90.00000000
_symmetry_Int_Tables_number   1
_chemical_formula_structural   Fe2CoN2
_chemical_formula_sum   'Fe4 Co2 N4'
_cell_volume   93.45062451
_cell_formula_units_Z   2
loop_
 _symmetry_equiv_pos_site_id
 _symmetry_equiv_pos_as_xyz
  1  'x, y, z'
loop_
 _atom_site_type_symbol
 _atom_site_label
 _atom_site_symmetry_multiplicity
 _atom_site_fract_x
 _atom_site_fract_y
 _atom_site_fract_z
 _atom_site_occupancy
  Fe  Fe0  1  0.75000000  0.74321900  0.09320400  1
  Fe  Fe1  1  0.75000000  0.74321900  0.40679600  1
  Fe  Fe2  1  0.25000000  0.25678100  0.90679600  1
  Fe  Fe3  1  0.25000000  0.25678100  0.59320400  1
  Co  Co0  1  0.75000000  0.74234300  0.75000000  1
  Co  Co1  1  0.25000000  0.25765700  0.25000000  1
  N  N0  1  0.75000000  0.75592200  0.59002100  1
  N  N1  1  0.75000000  0.75592200  0.90997900  1
  N  N2  1  0.25000000  0.24407800  0.40997900  1
  N  N3  1  0.25000000  0.24407800  0.09002100  1
loop_
_geom_bond_atom_site_label_1
_geom_bond_atom_site_label_2
_geom_bond_distance
_geom_bond_site_symmetry_2
Fe0 N3 2.000551 1_655
Fe0 N3 2.000551 1_555
Fe0 N3 2.003982 1_665
Fe0 N3 2.003982 1_565
Fe0 N1 2.136511 1_554
Fe1 N2 2.000551 1_555
Fe1 N2 2.000551 1_655
Fe1 N2 2.003982 1_665
Fe1 N2 2.003982 1_565
Fe1 N0 2.136511 1_555
Fe2 N1 2.000551 1_555
Fe2 N1 2.000551 1_455
Fe2 N1 2.003982 1_545
Fe2 N1 2.003982 1_445
Fe2 N3 2.136511 1_556
Fe3 N0 2.000551 1_555
Fe3 N0 2.000551 1_455
Fe3 N0 2.003982 1_445
Fe3 N0 2.003982 1_545
Fe3 N2 2.136511 1_555
Co0 N0 1.865581 1_555
Co0 N1 1.865581 1_555
Co0 Fe2 2.689937 1_555
Co0 Fe2 2.689937 1_655
Co0 Fe3 2.689937 1_655
Co0 Fe3 2.689937 1_555
Co1 N2 1.865581 1_555
Co1 N3 1.865581 1_555
Co1 Fe0 2.689937 1_555
Co1 Fe0 2.689937 1_455
Co1 Fe1 2.689937 1_455
Co1 Fe1 2.689937 1_555
