# generated using pymatgen
data_TaN
_symmetry_space_group_name_H-M   'P 1'
_cell_length_a   10.52629003
_cell_length_b   10.52629003
_cell_length_c   5.86257400
_cell_angle_alpha   90.00000000
_cell_angle_beta   90.00000000
_cell_angle_gamma   119.99998759
_symmetry_Int_Tables_number   1
_chemical_formula_structural   TaN
_chemical_formula_sum   'Ta24 N24'
_cell_volume   562.56108557
_cell_formula_units_Z   24
loop_
 _symmetry_equiv_pos_site_id
 _symmetry_equiv_pos_as_xyz
  1  'x, y, z'
loop_
 _atom_site_type_symbol
 _atom_site_label
 _atom_site_symmetry_multiplicity
 _atom_site_fract_x
 _atom_site_fract_y
 _atom_site_fract_z
 _atom_site_occupancy
  Ta  Ta0_0  1  0.00000000  0.00000000  0.00000000  1
  Ta  Ta0_1  1  0.00000000  0.00000000  0.50000000  1
  Ta  Ta0_2  1  0.00000000  0.50000000  0.00000000  1
  Ta  Ta0_3  1  0.00000000  0.50000000  0.50000000  1
  Ta  Ta0_4  1  0.50000000  0.00000000  0.00000000  1
  Ta  Ta0_5  1  0.50000000  0.00000000  0.50000000  1
  Ta  Ta0_6  1  0.50000000  0.50000000  0.00000000  1
  Ta  Ta0_7  1  0.50000000  0.50000000  0.50000000  1
  Ta  Ta1_0  1  0.16666650  0.33333350  0.25000000  1
  Ta  Ta1_1  1  0.16666650  0.33333350  0.75000000  1
  Ta  Ta1_2  1  0.16666650  0.83333350  0.25000000  1
  Ta  Ta1_3  1  0.16666650  0.83333350  0.75000000  1
  Ta  Ta1_4  1  0.66666650  0.33333350  0.25000000  1
  Ta  Ta1_5  1  0.66666650  0.33333350  0.75000000  1
  Ta  Ta1_6  1  0.66666650  0.83333350  0.25000000  1
  Ta  Ta1_7  1  0.66666650  0.83333350  0.75000000  1
  Ta  Ta2_0  1  0.33333350  0.16666650  0.25000000  1
  Ta  Ta2_1  1  0.33333350  0.16666650  0.75000000  1
  Ta  Ta2_2  1  0.33333350  0.66666650  0.25000000  1
  Ta  Ta2_3  1  0.33333350  0.66666650  0.75000000  1
  Ta  Ta2_4  1  0.83333350  0.16666650  0.25000000  1
  Ta  Ta2_5  1  0.83333350  0.16666650  0.75000000  1
  Ta  Ta2_6  1  0.83333350  0.66666650  0.25000000  1
  Ta  Ta2_7  1  0.83333350  0.66666650  0.75000000  1
  N  N0_0  1  0.25000000  0.00000000  0.00000000  1
  N  N0_1  1  0.25000000  0.00000000  0.50000000  1
  N  N0_2  1  0.25000000  0.50000000  0.00000000  1
  N  N0_3  1  0.25000000  0.50000000  0.50000000  1
  N  N0_4  1  0.75000000  0.00000000  0.00000000  1
  N  N0_5  1  0.75000000  0.00000000  0.50000000  1
  N  N0_6  1  0.75000000  0.50000000  0.00000000  1
  N  N0_7  1  0.75000000  0.50000000  0.50000000  1
  N  N1_0  1  0.25000000  0.25000000  0.00000000  1
  N  N1_1  1  0.25000000  0.25000000  0.50000000  1
  N  N1_2  1  0.25000000  0.75000000  0.00000000  1
  N  N1_3  1  0.25000000  0.75000000  0.50000000  1
  N  N1_4  1  0.75000000  0.25000000  0.00000000  1
  N  N1_5  1  0.75000000  0.25000000  0.50000000  1
  N  N1_6  1  0.75000000  0.75000000  0.00000000  1
  N  N1_7  1  0.75000000  0.75000000  0.50000000  1
  N  N2_0  1  0.00000000  0.25000000  0.00000000  1
  N  N2_1  1  0.00000000  0.25000000  0.50000000  1
  N  N2_2  1  0.00000000  0.75000000  0.00000000  1
  N  N2_3  1  0.00000000  0.75000000  0.50000000  1
  N  N2_4  1  0.50000000  0.25000000  0.00000000  1
  N  N2_5  1  0.50000000  0.25000000  0.50000000  1
  N  N2_6  1  0.50000000  0.75000000  0.00000000  1
  N  N2_7  1  0.50000000  0.75000000  0.50000000  1
loop_
_geom_bond_atom_site_label_1
_geom_bond_atom_site_label_2
_geom_bond_distance
_geom_bond_site_symmetry_2
Ta0_0 Ta0_1 2.931287 1_555
Ta0_0 Ta0_1 2.931287 1_554
Ta0_2 Ta0_3 2.931287 1_555
Ta0_2 Ta0_3 2.931287 1_554
Ta0_4 Ta0_5 2.931287 1_555
Ta0_4 Ta0_5 2.931287 1_554
Ta0_6 Ta0_7 2.931287 1_555
Ta0_6 Ta0_7 2.931287 1_554
N0_0 Ta2_0 2.111042 1_555
N0_0 Ta1_2 2.111042 1_545
N0_0 Ta2_1 2.111042 1_554
N0_0 Ta1_3 2.111042 1_544
N0_0 Ta0_4 2.631573 1_555
N0_0 Ta0_0 2.631573 1_555
N0_1 Ta1_3 2.111042 1_545
N0_1 Ta2_1 2.111042 1_555
N0_1 Ta2_0 2.111042 1_555
N0_1 Ta1_2 2.111042 1_545
N0_1 Ta0_1 2.631573 1_555
N0_1 Ta0_5 2.631573 1_555
N0_2 Ta2_2 2.111042 1_555
N0_2 Ta2_3 2.111042 1_554
N0_2 Ta1_0 2.111042 1_555
N0_2 Ta1_1 2.111042 1_554
N0_2 Ta0_2 2.631573 1_555
N0_2 Ta0_6 2.631573 1_555
N0_3 Ta2_3 2.111042 1_555
N0_3 Ta2_2 2.111042 1_555
N0_3 Ta1_0 2.111042 1_555
N0_3 Ta1_1 2.111042 1_555
N0_3 Ta0_7 2.631573 1_555
N0_3 Ta0_3 2.631573 1_555
N0_4 Ta2_4 2.111042 1_555
N0_4 Ta2_5 2.111042 1_554
N0_4 Ta1_6 2.111042 1_545
N0_4 Ta1_7 2.111042 1_544
N0_4 Ta0_0 2.631573 1_655
N0_4 Ta0_4 2.631573 1_555
N0_5 Ta2_4 2.111042 1_555
N0_5 Ta2_5 2.111042 1_555
N0_5 Ta1_6 2.111042 1_545
N0_5 Ta1_7 2.111042 1_545
N0_5 Ta0_5 2.631573 1_555
N0_5 Ta0_1 2.631573 1_655
N0_6 Ta2_6 2.111042 1_555
N0_6 Ta2_7 2.111042 1_554
N0_6 Ta1_4 2.111042 1_555
N0_6 Ta1_5 2.111042 1_554
N0_6 Ta0_2 2.631573 1_655
N0_6 Ta0_6 2.631573 1_555
N0_7 Ta2_7 2.111042 1_555
N0_7 Ta2_6 2.111042 1_555
N0_7 Ta1_4 2.111042 1_555
N0_7 Ta1_5 2.111042 1_555
N0_7 Ta0_7 2.631573 1_555
N0_7 Ta0_3 2.631573 1_655
N1_0 Ta2_0 2.111045 1_555
N1_0 Ta1_0 2.111045 1_555
N1_0 Ta1_1 2.111045 1_554
N1_0 Ta2_1 2.111045 1_554
N1_0 Ta0_6 2.631573 1_555
N1_0 Ta0_0 2.631573 1_555
N1_1 Ta2_1 2.111045 1_555
N1_1 Ta1_1 2.111045 1_555
N1_1 Ta2_0 2.111045 1_555
N1_1 Ta1_0 2.111045 1_555
N1_1 Ta0_1 2.631573 1_555
N1_1 Ta0_7 2.631573 1_555
N1_2 Ta1_2 2.111045 1_555
N1_2 Ta1_3 2.111045 1_554
N1_2 Ta2_2 2.111045 1_555
N1_2 Ta2_3 2.111045 1_554
N1_2 Ta0_4 2.631573 1_565
N1_2 Ta0_2 2.631573 1_555
N1_3 Ta1_2 2.111045 1_555
N1_3 Ta1_3 2.111045 1_555
N1_3 Ta2_3 2.111045 1_555
N1_3 Ta2_2 2.111045 1_555
N1_3 Ta0_3 2.631573 1_555
N1_3 Ta0_5 2.631573 1_565
N1_4 Ta2_4 2.111045 1_555
N1_4 Ta1_4 2.111045 1_555
N1_4 Ta2_5 2.111045 1_554
N1_4 Ta1_5 2.111045 1_554
N1_4 Ta0_2 2.631573 1_655
N1_4 Ta0_4 2.631573 1_555
N1_5 Ta2_4 2.111045 1_555
N1_5 Ta1_5 2.111045 1_555
N1_5 Ta1_4 2.111045 1_555
N1_5 Ta2_5 2.111045 1_555
N1_5 Ta0_3 2.631573 1_655
N1_5 Ta0_5 2.631573 1_555
N1_6 Ta1_6 2.111045 1_555
N1_6 Ta1_7 2.111045 1_554
N1_6 Ta2_6 2.111045 1_555
N1_6 Ta2_7 2.111045 1_554
N1_6 Ta0_6 2.631573 1_555
N1_6 Ta0_0 2.631573 1_665
N1_7 Ta1_6 2.111045 1_555
N1_7 Ta1_7 2.111045 1_555
N1_7 Ta2_7 2.111045 1_555
N1_7 Ta2_6 2.111045 1_555
N1_7 Ta0_1 2.631573 1_665
N1_7 Ta0_7 2.631573 1_555
N2_0 Ta2_4 2.111042 1_455
N2_0 Ta1_0 2.111042 1_555
N2_0 Ta2_5 2.111042 1_454
N2_0 Ta1_1 2.111042 1_554
N2_0 Ta0_2 2.631573 1_555
N2_0 Ta0_0 2.631573 1_555
N2_1 Ta2_4 2.111042 1_455
N2_1 Ta2_5 2.111042 1_455
N2_1 Ta1_0 2.111042 1_555
N2_1 Ta1_1 2.111042 1_555
N2_1 Ta0_1 2.631573 1_555
N2_1 Ta0_3 2.631573 1_555
N2_2 Ta2_6 2.111042 1_455
N2_2 Ta2_7 2.111042 1_454
N2_2 Ta1_2 2.111042 1_555
N2_2 Ta1_3 2.111042 1_554
N2_2 Ta0_2 2.631573 1_555
N2_2 Ta0_0 2.631573 1_565
N2_3 Ta2_7 2.111042 1_455
N2_3 Ta2_6 2.111042 1_455
N2_3 Ta1_3 2.111042 1_555
N2_3 Ta1_2 2.111042 1_555
N2_3 Ta0_1 2.631573 1_565
N2_3 Ta0_3 2.631573 1_555
N2_4 Ta1_4 2.111042 1_555
N2_4 Ta2_0 2.111042 1_555
N2_4 Ta1_5 2.111042 1_554
N2_4 Ta2_1 2.111042 1_554
N2_4 Ta0_4 2.631573 1_555
N2_4 Ta0_6 2.631573 1_555
N2_5 Ta1_4 2.111042 1_555
N2_5 Ta1_5 2.111042 1_555
N2_5 Ta2_1 2.111042 1_555
N2_5 Ta2_0 2.111042 1_555
N2_5 Ta0_7 2.631573 1_555
N2_5 Ta0_5 2.631573 1_555
N2_6 Ta2_2 2.111042 1_555
N2_6 Ta1_6 2.111042 1_555
N2_6 Ta2_3 2.111042 1_554
N2_6 Ta1_7 2.111042 1_554
N2_6 Ta0_4 2.631573 1_565
N2_6 Ta0_6 2.631573 1_555
N2_7 Ta2_3 2.111042 1_555
N2_7 Ta2_2 2.111042 1_555
N2_7 Ta1_6 2.111042 1_555
N2_7 Ta1_7 2.111042 1_555
N2_7 Ta0_7 2.631573 1_555
N2_7 Ta0_5 2.631573 1_565
