# generated using pymatgen
data_SbPd3
_symmetry_space_group_name_H-M   'P 1'
_cell_length_a   5.69873931
_cell_length_b   5.69873931
_cell_length_c   4.63683957
_cell_angle_alpha   90.00000000
_cell_angle_beta   90.00000000
_cell_angle_gamma   119.99998810
_symmetry_Int_Tables_number   1
_chemical_formula_structural   SbPd3
_chemical_formula_sum   'Sb2 Pd6'
_cell_volume   130.40983204
_cell_formula_units_Z   2
loop_
 _symmetry_equiv_pos_site_id
 _symmetry_equiv_pos_as_xyz
  1  'x, y, z'
loop_
 _atom_site_type_symbol
 _atom_site_label
 _atom_site_symmetry_multiplicity
 _atom_site_fract_x
 _atom_site_fract_y
 _atom_site_fract_z
 _atom_site_occupancy
  Sb  Sb0  1  0.33333300  0.66666700  0.75000000  1
  Sb  Sb1  1  0.66666700  0.33333300  0.25000000  1
  Pd  Pd0  1  0.16746930  0.33493859  0.25000000  1
  Pd  Pd1  1  0.66506141  0.83253070  0.25000000  1
  Pd  Pd2  1  0.16746930  0.83253070  0.25000000  1
  Pd  Pd3  1  0.83253070  0.66506141  0.75000000  1
  Pd  Pd4  1  0.33493859  0.16746930  0.75000000  1
  Pd  Pd5  1  0.83253070  0.16746930  0.75000000  1
loop_
_geom_bond_atom_site_label_1
_geom_bond_atom_site_label_2
_geom_bond_distance
_geom_bond_site_symmetry_2
Pd0 Pd2 2.835648 1_555
Pd0 Pd1 2.835648 1_555
Pd0 Sb0 2.838199 1_554
Pd0 Sb0 2.838199 1_555
Pd0 Pd4 2.847367 1_555
Pd0 Pd4 2.847367 1_554
Pd0 Pd5 2.847368 1_455
Pd0 Pd5 2.847368 1_454
Pd0 Sb1 2.849378 1_455
Pd0 Sb1 2.849383 1_555
Pd0 Pd2 2.863092 1_545
Pd0 Pd1 2.863092 1_445
Pd1 Pd2 2.835648 1_555
Pd1 Sb0 2.838199 1_554
Pd1 Sb0 2.838199 1_555
Pd1 Pd3 2.847367 1_555
Pd1 Pd3 2.847367 1_554
Pd1 Pd5 2.847368 1_565
Pd1 Pd5 2.847368 1_564
Pd1 Sb1 2.849378 1_565
Pd1 Sb1 2.849383 1_555
Pd1 Pd2 2.863092 1_655
Pd2 Sb0 2.838196 1_554
Pd2 Sb0 2.838196 1_555
Pd2 Pd4 2.847368 1_564
Pd2 Pd3 2.847368 1_455
Pd2 Pd3 2.847368 1_454
Pd2 Pd4 2.847368 1_565
Pd2 Sb1 2.849381 1_455
Pd2 Sb1 2.849381 1_565
Pd3 Pd5 2.835648 1_555
Pd3 Pd4 2.835648 1_555
Pd3 Sb1 2.838199 1_555
Pd3 Sb1 2.838199 1_556
Pd3 Sb0 2.849378 1_655
Pd3 Sb0 2.849383 1_555
Pd3 Pd5 2.863092 1_565
Pd3 Pd4 2.863092 1_665
Pd4 Pd5 2.835648 1_555
Pd4 Sb1 2.838199 1_555
Pd4 Sb1 2.838199 1_556
Pd4 Sb0 2.849378 1_545
Pd4 Sb0 2.849383 1_555
Pd4 Pd5 2.863092 1_455
Pd5 Sb1 2.838196 1_555
Pd5 Sb1 2.838196 1_556
Pd5 Sb0 2.849381 1_545
Pd5 Sb0 2.849381 1_655
