# generated using pymatgen
data_V2MoRh
_symmetry_space_group_name_H-M   'P 1'
_cell_length_a   8.82932770
_cell_length_b   9.17209574
_cell_length_c   9.17209566
_cell_angle_alpha   61.63013210
_cell_angle_beta   61.22870363
_cell_angle_gamma   61.22870636
_symmetry_Int_Tables_number   1
_chemical_formula_structural   V2MoRh
_chemical_formula_sum   'V2 Mo1 Rh1'
_cell_volume   541.29282395
_cell_formula_units_Z   1
loop_
 _symmetry_equiv_pos_site_id
 _symmetry_equiv_pos_as_xyz
  1  'x, y, z'
loop_
 _atom_site_type_symbol
 _atom_site_label
 _atom_site_symmetry_multiplicity
 _atom_site_fract_x
 _atom_site_fract_y
 _atom_site_fract_z
 _atom_site_occupancy
  V  V0  1  0.75476700  0.00000000  0.00000000  1
  V  V1  1  0.24523300  0.00000000  0.00000000  1
  Mo  Mo0  1  0.00000000  0.00000000  0.00000000  1
  Rh  Rh0  1  0.50000000  0.00000000  0.00000000  1
loop_
_geom_bond_atom_site_label_1
_geom_bond_atom_site_label_2
_geom_bond_distance
_geom_bond_site_symmetry_2
Mo0 V1 2.165243 1_555
Mo0 V0 2.165243 1_455
Rh0 V0 2.249421 1_555
Rh0 V1 2.249421 1_555
