# generated using pymatgen
data_La2Ti3CoO10
_symmetry_space_group_name_H-M   'P 1'
_cell_length_a   13.95917495
_cell_length_b   13.95917495
_cell_length_c   13.95917495
_cell_angle_alpha   164.21473097
_cell_angle_beta   164.21473097
_cell_angle_gamma   22.39550419
_symmetry_Int_Tables_number   1
_chemical_formula_structural   La2Ti3CoO10
_chemical_formula_sum   'La2 Ti3 Co1 O10'
_cell_volume   201.25270690
_cell_formula_units_Z   1
loop_
 _symmetry_equiv_pos_site_id
 _symmetry_equiv_pos_as_xyz
  1  'x, y, z'
loop_
 _atom_site_type_symbol
 _atom_site_label
 _atom_site_symmetry_multiplicity
 _atom_site_fract_x
 _atom_site_fract_y
 _atom_site_fract_z
 _atom_site_occupancy
  La  La0  1  0.57981700  0.57981700  0.00000000  1
  La  La1  1  0.42018300  0.42018300  0.00000000  1
  Ti  Ti0  1  0.84340200  0.84340200  0.00000000  1
  Ti  Ti1  1  0.15659800  0.15659800  0.00000000  1
  Ti  Ti2  1  0.00000000  0.00000000  0.00000000  1
  Co  Co0  1  0.25000000  0.75000000  0.50000000  1
  O  O0  1  0.77676200  0.77676200  0.00000000  1
  O  O1  1  0.22323800  0.22323800  0.00000000  1
  O  O2  1  0.92851600  0.92851600  0.00000000  1
  O  O3  1  0.07148400  0.07148400  0.00000000  1
  O  O4  1  0.35924100  0.85924100  0.50000000  1
  O  O5  1  0.86022200  0.36022200  0.50000000  1
  O  O6  1  0.63977800  0.13977800  0.50000000  1
  O  O7  1  0.14075900  0.64075900  0.50000000  1
  O  O8  1  0.49988600  0.99988600  0.50000000  1
  O  O9  1  0.00011400  0.50011400  0.50000000  1
loop_
_geom_bond_atom_site_label_1
_geom_bond_atom_site_label_2
_geom_bond_distance
_geom_bond_site_symmetry_2
La0 O6 2.524063 1_565
La0 O6 2.524063 1_554
La0 O7 2.541624 1_554
La0 O7 2.541624 1_655
La0 O3 2.720403 1_666
La0 O3 2.720403 1_554
La0 O3 2.720403 1_655
La0 O3 2.720403 1_565
La0 O9 2.904985 1_655
La0 O9 2.904985 1_554
La0 O8 2.909680 1_555
La0 O8 2.909680 1_544
La1 O5 2.524063 1_555
La1 O5 2.524063 1_454
La1 O4 2.541624 1_555
La1 O4 2.541624 1_544
La1 O2 2.720403 1_455
La1 O2 2.720403 1_556
La1 O2 2.720403 1_444
La1 O2 2.720403 1_545
La1 O8 2.904985 1_555
La1 O8 2.904985 1_544
La1 O9 2.909680 1_655
La1 O9 2.909680 1_554
Co0 O1 2.052179 1_555
Co0 O1 2.052179 1_566
Co0 O0 2.052179 1_455
Co0 O0 2.052179 1_556
O0 Ti0 1.825060 1_555
O1 Ti1 1.825060 1_555
O2 Ti2 1.957722 1_665
O2 Ti0 2.331005 1_555
O2 O5 2.678152 1_554
O2 O5 2.678152 1_565
O2 O4 2.696983 1_554
O2 O4 2.696983 1_655
O3 Ti2 1.957722 1_555
O3 Ti1 2.331005 1_555
O3 O6 2.678152 1_454
O3 O6 2.678152 1_555
O3 O7 2.696983 1_544
O3 O7 2.696983 1_555
O4 Ti0 1.965305 1_556
O4 Ti0 1.965305 1_455
O4 O5 2.710947 1_555
O4 O5 2.710947 1_566
O4 O5 2.710947 1_454
O4 O5 2.710947 1_465
O5 Ti0 1.971409 1_556
O5 Ti0 1.971409 1_545
O6 Ti1 1.971409 1_656
O6 Ti1 1.971409 1_555
O6 O7 2.710947 1_645
O6 O7 2.710947 1_544
O6 O7 2.710947 1_656
O6 O7 2.710947 1_555
O7 Ti1 1.965305 1_555
O7 Ti1 1.965305 1_566
O8 Ti2 1.916838 1_666
O8 Ti2 1.916838 1_565
O9 Ti2 1.916838 1_566
O9 Ti2 1.916838 1_555
