# generated using pymatgen
data_CaLaMn2O6
_symmetry_space_group_name_H-M   'P 1'
_cell_length_a   5.56587131
_cell_length_b   5.55841014
_cell_length_c   7.59380900
_cell_angle_alpha   90.00047937
_cell_angle_beta   90.00045566
_cell_angle_gamma   87.17310444
_symmetry_Int_Tables_number   1
_chemical_formula_structural   CaLaMn2O6
_chemical_formula_sum   'Ca2 La2 Mn4 O12'
_cell_volume   234.64678229
_cell_formula_units_Z   2
loop_
 _symmetry_equiv_pos_site_id
 _symmetry_equiv_pos_as_xyz
  1  'x, y, z'
loop_
 _atom_site_type_symbol
 _atom_site_label
 _atom_site_symmetry_multiplicity
 _atom_site_fract_x
 _atom_site_fract_y
 _atom_site_fract_z
 _atom_site_occupancy
  Ca  Ca0  1  0.46240100  0.98796800  0.74997200  1
  Ca  Ca1  1  0.53758200  0.01212200  0.24997900  1
  La  La0  1  0.96911300  0.50181000  0.74998500  1
  La  La1  1  0.03087000  0.49811200  0.24999100  1
  Mn  Mn0  1  0.50004000  0.50004600  0.00003800  1
  Mn  Mn1  1  0.00028200  0.99996300  0.00002200  1
  Mn  Mn2  1  0.49997800  0.49999100  0.50009600  1
  Mn  Mn3  1  0.00004700  0.99997700  0.49995400  1
  O  O0  1  0.02284200  0.06394700  0.74999400  1
  O  O1  1  0.97711600  0.93601100  0.24999200  1
  O  O2  1  0.50848700  0.41178300  0.75001000  1
  O  O3  1  0.49137300  0.58829900  0.25001300  1
  O  O4  1  0.71004300  0.76466700  0.54323800  1
  O  O5  1  0.28992000  0.23534200  0.04326300  1
  O  O6  1  0.28987300  0.23536400  0.45672900  1
  O  O7  1  0.71006300  0.76468900  0.95673300  1
  O  O8  1  0.78489100  0.28866600  0.46475000  1
  O  O9  1  0.21507500  0.71127200  0.96476900  1
  O  O10  1  0.21502400  0.71135900  0.53523400  1
  O  O11  1  0.78498100  0.28861100  0.03523700  1
loop_
_geom_bond_atom_site_label_1
_geom_bond_atom_site_label_2
_geom_bond_distance
_geom_bond_site_symmetry_2
Ca0 O2 2.382205 1_565
Ca0 O4 2.395045 1_555
Ca0 O7 2.395180 1_555
Ca0 O0 2.462102 1_565
Ca0 O10 2.669745 1_555
Ca0 O9 2.670184 1_555
Ca0 O6 2.764352 1_565
Ca0 O5 2.764496 1_566
Ca0 O0 3.168374 1_665
Ca1 O3 2.382356 1_545
Ca1 O5 2.394795 1_555
Ca1 O6 2.395169 1_555
Ca1 O1 2.462055 1_545
Ca1 O11 2.669458 1_555
Ca1 O8 2.669475 1_555
Ca1 O7 2.764378 1_544
Ca1 O4 2.764487 1_545
Ca1 O1 3.168646 1_445
La0 O0 2.437443 1_655
La0 O10 2.459021 1_655
La0 O9 2.459082 1_655
La0 O4 2.543821 1_555
La0 O7 2.543831 1_555
La0 O2 2.636275 1_555
La0 O8 2.695618 1_555
La0 O11 2.695689 1_556
La0 O2 3.019064 1_655
La1 O1 2.437652 1_455
La1 O11 2.458804 1_455
La1 O8 2.458994 1_455
La1 O6 2.543247 1_555
La1 O5 2.543407 1_555
La1 O3 2.635815 1_555
La1 O9 2.695570 1_554
La1 O10 2.695777 1_555
La1 O3 3.019843 1_455
Mn0 O9 1.944777 1_554
Mn0 O11 1.945254 1_555
Mn0 O7 1.951425 1_554
Mn0 O5 1.951932 1_555
Mn0 O3 1.960616 1_555
Mn0 O2 1.961005 1_554
Mn1 O1 1.936692 1_455
Mn1 O0 1.936905 1_564
Mn1 O9 1.971453 1_554
Mn1 O11 1.972829 1_465
Mn1 O5 2.150909 1_565
Mn1 O7 2.153110 1_454
Mn2 O8 1.944942 1_555
Mn2 O10 1.945038 1_555
Mn2 O4 1.951502 1_555
Mn2 O6 1.951718 1_555
Mn2 O2 1.960102 1_555
Mn2 O3 1.961489 1_555
Mn3 O1 1.936541 1_455
Mn3 O0 1.937069 1_565
Mn3 O10 1.971744 1_555
Mn3 O8 1.972540 1_465
Mn3 O6 2.151742 1_565
Mn3 O4 2.152307 1_455
