# generated using pymatgen
data_K2CoH12(SeO7)2
_symmetry_space_group_name_H-M   'P 1'
_cell_length_a   6.42597943
_cell_length_b   9.31666674
_cell_length_c   12.66903100
_cell_angle_alpha   90.00000000
_cell_angle_beta   90.00000000
_cell_angle_gamma   103.81333740
_symmetry_Int_Tables_number   1
_chemical_formula_structural   K2CoH12(SeO7)2
_chemical_formula_sum   'K4 Co2 H24 Se4 O28'
_cell_volume   736.54236387
_cell_formula_units_Z   2
loop_
 _symmetry_equiv_pos_site_id
 _symmetry_equiv_pos_as_xyz
  1  'x, y, z'
loop_
 _atom_site_type_symbol
 _atom_site_label
 _atom_site_symmetry_multiplicity
 _atom_site_fract_x
 _atom_site_fract_y
 _atom_site_fract_z
 _atom_site_occupancy
  K  K0  1  0.34678300  0.62930900  0.15014900  1
  K  K1  1  0.65321700  0.87069100  0.65014900  1
  K  K2  1  0.65321700  0.37069100  0.84985100  1
  K  K3  1  0.34678300  0.12930900  0.34985100  1
  Co  Co0  1  0.00000000  0.50000000  0.50000000  1
  Co  Co1  1  0.00000000  0.00000000  0.00000000  1
  H  H0  1  0.31480900  0.71073100  0.41279400  1
  H  H1  1  0.68519100  0.78926900  0.91279400  1
  H  H2  1  0.68519100  0.28926900  0.58720600  1
  H  H3  1  0.31480900  0.21073100  0.08720600  1
  H  H4  1  0.09501000  0.74362700  0.37207600  1
  H  H5  1  0.90499000  0.75637300  0.87207600  1
  H  H6  1  0.90499000  0.25637300  0.62792400  1
  H  H7  1  0.09501000  0.24362700  0.12792400  1
  H  H8  1  0.92560700  0.23435300  0.39884100  1
  H  H9  1  0.07439300  0.26564700  0.89884100  1
  H  H10  1  0.07439300  0.76564700  0.60115900  1
  H  H11  1  0.92560700  0.73435300  0.10115900  1
  H  H12  1  0.00189500  0.36212800  0.31453500  1
  H  H13  1  0.99810500  0.13787200  0.81453500  1
  H  H14  1  0.99810500  0.63787200  0.68546500  1
  H  H15  1  0.00189500  0.86212800  0.18546500  1
  H  H16  1  0.32161500  0.38851600  0.56074000  1
  H  H17  1  0.67838500  0.11148400  0.06074000  1
  H  H18  1  0.67838500  0.61148400  0.43926000  1
  H  H19  1  0.32161500  0.88851600  0.93926000  1
  H  H20  1  0.32857900  0.52585500  0.63771700  1
  H  H21  1  0.67142100  0.97414500  0.13771700  1
  H  H22  1  0.67142100  0.47414500  0.36228300  1
  H  H23  1  0.32857900  0.02585500  0.86228300  1
  Se  Se0  1  0.73081100  0.91039900  0.35839200  1
  Se  Se1  1  0.26918900  0.58960100  0.85839200  1
  Se  Se2  1  0.26918900  0.08960100  0.64160800  1
  Se  Se3  1  0.73081100  0.41039900  0.14160800  1
  O  O0  1  0.56974100  0.90362100  0.25329600  1
  O  O1  1  0.43025900  0.59637900  0.75329600  1
  O  O2  1  0.43025900  0.09637900  0.74670400  1
  O  O3  1  0.56974100  0.40362100  0.24670400  1
  O  O4  1  0.75402000  0.07115100  0.42129500  1
  O  O5  1  0.24598000  0.42884900  0.92129500  1
  O  O6  1  0.24598000  0.92884900  0.57870500  1
  O  O7  1  0.75402000  0.57115100  0.07870500  1
  O  O8  1  0.61190200  0.77496100  0.44159500  1
  O  O9  1  0.38809800  0.72503900  0.94159500  1
  O  O10  1  0.38809800  0.22503900  0.55840500  1
  O  O11  1  0.61190200  0.27496100  0.05840500  1
  O  O12  1  0.97271000  0.88832000  0.32062900  1
  O  O13  1  0.02729000  0.61168000  0.82062900  1
  O  O14  1  0.02729000  0.11168000  0.67937100  1
  O  O15  1  0.97271000  0.38832000  0.17937100  1
  O  O16  1  0.16881900  0.66363400  0.38799400  1
  O  O17  1  0.83118100  0.83636600  0.88799400  1
  O  O18  1  0.83118100  0.33636600  0.61200600  1
  O  O19  1  0.16881900  0.16363400  0.11200600  1
  O  O20  1  0.02713000  0.33275700  0.38817200  1
  O  O21  1  0.97287000  0.16724300  0.88817200  1
  O  O22  1  0.97287000  0.66724300  0.61182800  1
  O  O23  1  0.02713000  0.83275700  0.11182800  1
  O  O24  1  0.28351000  0.48591600  0.56604100  1
  O  O25  1  0.71649000  0.01408400  0.06604100  1
  O  O26  1  0.71649000  0.51408400  0.43395900  1
  O  O27  1  0.28351000  0.98591600  0.93395900  1
loop_
_geom_bond_atom_site_label_1
_geom_bond_atom_site_label_2
_geom_bond_distance
_geom_bond_site_symmetry_2
K0 O9 2.781002 1_554
K0 O15 2.894659 1_455
K0 O0 2.922900 1_555
K0 O7 2.939061 1_555
K0 O3 3.067373 1_555
K0 O23 3.147523 1_555
K0 O16 3.265651 1_555
K0 O5 3.425812 1_554
K1 O8 2.781002 1_555
K1 O14 2.894659 1_665
K1 O1 2.922900 1_555
K1 O6 2.939061 1_555
K1 O2 3.067373 1_565
K1 O22 3.147523 1_555
K1 O17 3.265651 1_555
K1 O4 3.425812 1_565
K2 O11 2.781002 1_556
K2 O13 2.894659 1_655
K2 O2 2.922900 1_555
K2 O5 2.939061 1_555
K2 O1 3.067373 1_555
K2 O21 3.147523 1_555
K2 O18 3.265651 1_555
K2 O7 3.425812 1_556
K3 O10 2.781002 1_555
K3 O12 2.894659 1_445
K3 O3 2.922900 1_555
K3 O4 2.939061 1_555
K3 O0 3.067373 1_545
K3 O20 3.147523 1_555
K3 O19 3.265651 1_555
K3 O6 3.425812 1_545
Co0 O26 2.037267 1_455
Co0 O24 2.037267 1_555
Co0 O22 2.143623 1_455
Co0 O20 2.143623 1_555
Co0 O18 2.173675 1_455
Co0 O16 2.173675 1_555
Co1 O25 2.037267 1_455
Co1 O27 2.037267 1_544
Co1 O23 2.143623 1_545
Co1 O21 2.143623 1_454
Co1 O19 2.173675 1_555
Co1 O17 2.173675 1_444
H0 O16 0.987305 1_555
H0 O8 1.894839 1_555
H1 O17 0.987305 1_555
H1 O9 1.894839 1_555
H2 O18 0.987305 1_555
H2 O10 1.894839 1_555
H3 O19 0.987305 1_555
H3 O11 1.894839 1_555
H4 O16 0.994908 1_555
H4 O12 1.834561 1_455
H5 O17 0.994908 1_555
H5 O13 1.834561 1_655
H6 O18 0.994908 1_555
H6 O14 1.834561 1_655
H7 O19 0.994908 1_555
H7 O15 1.834561 1_455
H8 O20 0.999393 1_655
H8 O4 1.675717 1_555
H8 K3 3.151630 1_655
H9 O21 0.999393 1_455
H9 O5 1.675717 1_555
H9 K2 3.151630 1_455
H10 O22 0.999393 1_455
H10 O6 1.675717 1_555
H10 K1 3.151630 1_455
H11 O23 0.999393 1_655
H11 O7 1.675717 1_555
H11 K0 3.151630 1_655
H12 O20 0.996335 1_555
H12 O15 1.746103 1_455
H13 O21 0.996335 1_555
H13 O14 1.746103 1_655
H14 O22 0.996335 1_555
H14 O13 1.746103 1_655
H15 O23 0.996335 1_555
H15 O12 1.746103 1_455
H16 O24 0.997008 1_555
H16 O10 1.677443 1_555
H17 O25 0.997008 1_555
H17 O11 1.677443 1_555
H18 O26 0.997008 1_555
H18 O8 1.677443 1_555
H19 O27 0.997008 1_555
H19 O9 1.677443 1_555
H20 O24 0.997725 1_555
H20 O1 1.672642 1_555
H21 O25 0.997725 1_565
H21 O0 1.672642 1_555
H22 O26 0.997725 1_555
H22 O3 1.672642 1_555
H23 O27 0.997725 1_545
H23 O2 1.672642 1_555
O0 Se0 1.678352 1_555
O1 Se1 1.678352 1_555
O2 Se2 1.678352 1_555
O3 Se3 1.678352 1_555
O4 Se0 1.671433 1_545
O5 Se1 1.671433 1_555
O6 Se2 1.671433 1_565
O7 Se3 1.671433 1_555
O8 Se0 1.681307 1_555
O9 Se1 1.681307 1_555
O10 Se2 1.681307 1_555
O11 Se3 1.681307 1_555
O12 Se0 1.685279 1_555
O13 Se1 1.685279 1_555
O14 Se2 1.685279 1_555
O15 Se3 1.685279 1_555
