# generated using pymatgen
data_K2Cr2Cu(PO7)2
_symmetry_space_group_name_H-M   'P 1'
_cell_length_a   7.17203900
_cell_length_b   8.90706600
_cell_length_c   9.86429157
_cell_angle_alpha   88.54818537
_cell_angle_beta   90.00000000
_cell_angle_gamma   90.00000000
_symmetry_Int_Tables_number   1
_chemical_formula_structural   K2Cr2Cu(PO7)2
_chemical_formula_sum   'K4 Cr4 Cu2 P4 O28'
_cell_volume   629.94665887
_cell_formula_units_Z   2
loop_
 _symmetry_equiv_pos_site_id
 _symmetry_equiv_pos_as_xyz
  1  'x, y, z'
loop_
 _atom_site_type_symbol
 _atom_site_label
 _atom_site_symmetry_multiplicity
 _atom_site_fract_x
 _atom_site_fract_y
 _atom_site_fract_z
 _atom_site_occupancy
  K  K0  1  0.63125800  0.32919700  0.69495200  1
  K  K1  1  0.13125800  0.17080300  0.30504800  1
  K  K2  1  0.36874200  0.67080300  0.30504800  1
  K  K3  1  0.86874200  0.82919700  0.69495200  1
  Cr  Cr0  1  0.62073100  0.11009300  0.34421900  1
  Cr  Cr1  1  0.12073100  0.38990700  0.65578100  1
  Cr  Cr2  1  0.37926900  0.88990700  0.65578100  1
  Cr  Cr3  1  0.87926900  0.61009300  0.34421900  1
  Cu  Cu0  1  0.50000000  0.00000000  0.00000000  1
  Cu  Cu1  1  0.00000000  0.50000000  0.00000000  1
  P  P0  1  0.63265000  0.31164400  0.09823300  1
  P  P1  1  0.13265000  0.18835600  0.90176700  1
  P  P2  1  0.36735000  0.68835600  0.90176700  1
  P  P3  1  0.86735000  0.81164400  0.09823300  1
  O  O0  1  0.74588600  0.22606700  0.21381100  1
  O  O1  1  0.24588600  0.27393300  0.78618900  1
  O  O2  1  0.25411400  0.77393300  0.78618900  1
  O  O3  1  0.75411400  0.72606700  0.21381100  1
  O  O4  1  0.50432300  0.21274700  0.44781900  1
  O  O5  1  0.00432300  0.28725300  0.55218100  1
  O  O6  1  0.49567700  0.78725300  0.55218100  1
  O  O7  1  0.99567700  0.71274700  0.44781900  1
  O  O8  1  0.52557000  0.99637300  0.73747200  1
  O  O9  1  0.02557000  0.50362700  0.26252800  1
  O  O10  1  0.47443000  0.00362700  0.26252800  1
  O  O11  1  0.97443000  0.49637300  0.73747200  1
  O  O12  1  0.77935600  0.01452100  0.42424300  1
  O  O13  1  0.27935600  0.48547900  0.57575700  1
  O  O14  1  0.22064400  0.98547900  0.57575700  1
  O  O15  1  0.72064400  0.51452100  0.42424300  1
  O  O16  1  0.95634600  0.12289100  0.84240700  1
  O  O17  1  0.45634600  0.37710900  0.15759300  1
  O  O18  1  0.04365400  0.87710900  0.15759300  1
  O  O19  1  0.54365400  0.62289100  0.84240700  1
  O  O20  1  0.58603600  0.20101700  0.98167000  1
  O  O21  1  0.08603600  0.29898300  0.01833000  1
  O  O22  1  0.41396400  0.79898300  0.01833000  1
  O  O23  1  0.91396400  0.70101700  0.98167000  1
  O  O24  1  0.75297000  0.43792200  0.03208000  1
  O  O25  1  0.25297000  0.06207800  0.96792000  1
  O  O26  1  0.24703000  0.56207800  0.96792000  1
  O  O27  1  0.74703000  0.93792200  0.03208000  1
loop_
_geom_bond_atom_site_label_1
_geom_bond_atom_site_label_2
_geom_bond_distance
_geom_bond_site_symmetry_2
K0 O4 2.824110 1_555
K0 O11 2.912482 1_555
K0 O1 2.944315 1_555
K0 O20 3.040424 1_555
K0 O5 3.051012 1_655
K0 O8 3.078254 1_545
K0 O19 3.089734 1_555
K0 O13 3.099525 1_555
K0 O15 3.169100 1_555
K0 O16 3.285277 1_555
K1 O5 2.824110 1_555
K1 O10 2.912482 1_555
K1 O0 2.944315 1_455
K1 O21 3.040424 1_555
K1 O4 3.051012 1_555
K1 O9 3.078254 1_555
K1 O18 3.089734 1_545
K1 O12 3.099525 1_455
K1 O14 3.169100 1_545
K1 O17 3.285277 1_555
K2 O6 2.824110 1_555
K2 O9 2.912482 1_555
K2 O3 2.944315 1_555
K2 O22 3.040424 1_555
K2 O7 3.051012 1_455
K2 O10 3.078254 1_565
K2 O17 3.089734 1_555
K2 O15 3.099525 1_555
K2 O13 3.169100 1_555
K2 O18 3.285277 1_555
K3 O7 2.824110 1_555
K3 O8 2.912482 1_555
K3 O2 2.944315 1_655
K3 O23 3.040424 1_555
K3 O6 3.051012 1_555
K3 O11 3.078254 1_555
K3 O16 3.089734 1_565
K3 O14 3.099525 1_655
K3 O12 3.169100 1_565
K3 O19 3.285277 1_555
Cr0 O12 1.614932 1_555
Cr0 O4 1.620114 1_555
Cr0 O10 1.639612 1_555
Cr0 O0 1.860168 1_555
Cr1 O13 1.614932 1_555
Cr1 O5 1.620114 1_555
Cr1 O11 1.639612 1_455
Cr1 O1 1.860168 1_555
Cr2 O14 1.614932 1_555
Cr2 O6 1.620114 1_555
Cr2 O8 1.639612 1_555
Cr2 O2 1.860168 1_555
Cr3 O15 1.614932 1_555
Cr3 O7 1.620114 1_555
Cr3 O9 1.639612 1_655
Cr3 O3 1.860168 1_555
Cu0 O25 1.880415 1_554
Cu0 O27 1.880415 1_545
Cu0 O20 1.898113 1_554
Cu0 O22 1.898113 1_545
Cu0 O8 2.597155 1_544
Cu0 O10 2.597155 1_555
Cu1 O26 1.880415 1_554
Cu1 O24 1.880415 1_455
Cu1 O21 1.898113 1_555
Cu1 O23 1.898113 1_454
Cu1 O9 2.597155 1_555
Cu1 O11 2.597155 1_454
O0 P0 1.579984 1_555
O1 P1 1.579984 1_555
O2 P2 1.579984 1_555
O3 P3 1.579984 1_555
O16 P1 1.516254 1_655
O17 P0 1.516254 1_555
O18 P3 1.516254 1_455
O19 P2 1.516254 1_555
O20 P0 1.569135 1_556
O21 P1 1.569135 1_554
O22 P2 1.569135 1_554
O23 P3 1.569135 1_556
O24 P0 1.548676 1_555
O25 P1 1.548676 1_555
O26 P2 1.548676 1_555
O27 P3 1.548676 1_555
