# generated using pymatgen
data_Li7Mn2(CoO4)3
_symmetry_space_group_name_H-M   'P 1'
_cell_length_a   5.11496000
_cell_length_b   5.88677947
_cell_length_c   7.69545712
_cell_angle_alpha   101.60103259
_cell_angle_beta   108.08629948
_cell_angle_gamma   90.61259434
_symmetry_Int_Tables_number   1
_chemical_formula_structural   Li7Mn2(CoO4)3
_chemical_formula_sum   'Li7 Mn2 Co3 O12'
_cell_volume   215.10014526
_cell_formula_units_Z   1
loop_
 _symmetry_equiv_pos_site_id
 _symmetry_equiv_pos_as_xyz
  1  'x, y, z'
loop_
 _atom_site_type_symbol
 _atom_site_label
 _atom_site_symmetry_multiplicity
 _atom_site_fract_x
 _atom_site_fract_y
 _atom_site_fract_z
 _atom_site_occupancy
  Li  Li0  1  0.49387600  0.07910400  0.83146300  1
  Li  Li1  1  0.50270600  0.26405500  0.49594000  1
  Li  Li2  1  0.48388900  0.58701900  0.82308000  1
  Li  Li3  1  0.49729400  0.73594500  0.50406000  1
  Li  Li4  1  0.50612400  0.92089600  0.16853700  1
  Li  Li5  1  0.51611100  0.41298100  0.17692000  1
  Li  Li6  1  0.00000000  0.50000000  0.50000000  1
  Mn  Mn0  1  0.99687800  0.83061500  0.82979400  1
  Mn  Mn1  1  0.00312200  0.16938500  0.17020600  1
  Co  Co0  1  0.00000000  0.00000000  0.50000000  1
  Co  Co1  1  0.99729600  0.33509800  0.82438500  1
  Co  Co2  1  0.00270400  0.66490200  0.17561500  1
  O  O0  1  0.78116800  0.88679300  0.00514700  1
  O  O1  1  0.76824400  0.02638600  0.67558600  1
  O  O2  1  0.78190700  0.36233200  0.00978800  1
  O  O3  1  0.76259100  0.55281600  0.68473400  1
  O  O4  1  0.77139300  0.72243600  0.32750100  1
  O  O5  1  0.77642800  0.20214500  0.32645000  1
  O  O6  1  0.22860700  0.27756400  0.67249900  1
  O  O7  1  0.23740900  0.44718400  0.31526600  1
  O  O8  1  0.22357200  0.79785500  0.67355000  1
  O  O9  1  0.23175600  0.97361400  0.32441400  1
  O  O10  1  0.21883200  0.11320700  0.99485300  1
  O  O11  1  0.21809300  0.63766800  0.99021200  1
loop_
_geom_bond_atom_site_label_1
_geom_bond_atom_site_label_2
_geom_bond_distance
_geom_bond_site_symmetry_2
Li0 O8 2.056245 1_545
Li0 O6 2.068936 1_555
Li0 O1 2.099886 1_555
Li0 O10 2.145526 1_555
Li0 O2 2.146053 1_556
Li0 O0 2.156875 1_546
Li1 O7 2.097466 1_555
Li1 O9 2.119467 1_545
Li1 O3 2.127597 1_555
Li1 O5 2.178947 1_555
Li1 O6 2.227038 1_555
Li1 O1 2.316494 1_555
Li2 O3 2.017037 1_555
Li2 O8 2.072654 1_555
Li2 O6 2.127677 1_555
Li2 O11 2.128746 1_555
Li2 O0 2.239368 1_556
Li2 O2 2.363282 1_556
Li3 O3 2.097466 1_555
Li3 O1 2.119467 1_565
Li3 O7 2.127597 1_555
Li3 O8 2.178947 1_555
Li3 O4 2.227038 1_555
Li3 O9 2.316494 1_555
Li4 O5 2.056245 1_565
Li4 O4 2.068936 1_555
Li4 O9 2.099886 1_555
Li4 O0 2.145526 1_555
Li4 O11 2.146053 1_554
Li4 O10 2.156875 1_564
Li5 O7 2.017037 1_555
Li5 O5 2.072654 1_555
Li5 O4 2.127677 1_555
Li5 O2 2.128746 1_555
Li5 O10 2.239368 1_554
Li5 O11 2.363282 1_554
Li6 O5 2.057391 1_455
Li6 O8 2.057391 1_555
Li6 O7 2.120009 1_555
Li6 O3 2.120009 1_455
Li6 O6 2.147585 1_555
Li6 O4 2.147585 1_455
Mn0 O8 1.898569 1_655
Mn0 O3 1.936450 1_555
Mn0 O11 1.954106 1_655
Mn0 O1 1.954798 1_565
Mn0 O10 1.970815 1_665
Mn0 O0 1.974955 1_556
Mn1 O5 1.898569 1_455
Mn1 O7 1.936450 1_555
Mn1 O2 1.954106 1_455
Mn1 O9 1.954798 1_545
Mn1 O0 1.970815 1_445
Mn1 O10 1.974955 1_554
Co0 O6 1.980475 1_555
Co0 O4 1.980475 1_445
Co0 O9 2.041859 1_545
Co0 O1 2.041859 1_455
Co0 O5 2.056085 1_455
Co0 O8 2.056085 1_545
Co1 O6 1.894389 1_655
Co1 O3 2.006142 1_555
Co1 O2 2.040308 1_556
Co1 O11 2.055349 1_655
Co1 O1 2.066647 1_555
Co1 O10 2.123440 1_655
Co2 O4 1.894389 1_455
Co2 O7 2.006142 1_555
Co2 O11 2.040308 1_554
Co2 O2 2.055349 1_455
Co2 O9 2.066647 1_555
Co2 O0 2.123440 1_455
