# generated using pymatgen
data_Ni8B3SbO15
_symmetry_space_group_name_H-M   'P 1'
_cell_length_a   6.21312800
_cell_length_b   8.15231555
_cell_length_c   11.19197617
_cell_angle_alpha   104.50360750
_cell_angle_beta   94.14661628
_cell_angle_gamma   102.16482310
_symmetry_Int_Tables_number   1
_chemical_formula_structural   Ni8B3SbO15
_chemical_formula_sum   'Ni16 B6 Sb2 O30'
_cell_volume   531.79321830
_cell_formula_units_Z   2
loop_
 _symmetry_equiv_pos_site_id
 _symmetry_equiv_pos_as_xyz
  1  'x, y, z'
loop_
 _atom_site_type_symbol
 _atom_site_label
 _atom_site_symmetry_multiplicity
 _atom_site_fract_x
 _atom_site_fract_y
 _atom_site_fract_z
 _atom_site_occupancy
  Ni  Ni0  1  0.54942800  0.32892000  0.71147200  1
  Ni  Ni1  1  0.88201600  0.66806600  0.71354400  1
  Ni  Ni2  1  0.21568000  0.99890200  0.71377700  1
  Ni  Ni3  1  0.78432000  0.00109800  0.28622300  1
  Ni  Ni4  1  0.11798400  0.33193400  0.28645600  1
  Ni  Ni5  1  0.45057200  0.67108000  0.28852800  1
  Ni  Ni6  1  0.16701100  0.16492100  0.49790600  1
  Ni  Ni7  1  0.50000000  0.50000000  0.50000000  1
  Ni  Ni8  1  0.83298900  0.83507900  0.50209400  1
  Ni  Ni9  1  0.50000000  0.00000000  0.50000000  1
  Ni  Ni10  1  0.83359100  0.33312500  0.49990500  1
  Ni  Ni11  1  0.16640900  0.66687500  0.50009500  1
  Ni  Ni12  1  0.50000000  0.00000000  0.00000000  1
  Ni  Ni13  1  0.83330100  0.32532500  0.99819500  1
  Ni  Ni14  1  0.16669900  0.67467500  0.00180500  1
  Ni  Ni15  1  0.00000000  0.00000000  0.00000000  1
  B  B0  1  0.27368400  0.98087200  0.23658300  1
  B  B1  1  0.60663300  0.31810300  0.24131500  1
  B  B2  1  0.93970200  0.65046200  0.24110300  1
  B  B3  1  0.72631600  0.01912800  0.76341700  1
  B  B4  1  0.06029800  0.34953800  0.75889700  1
  B  B5  1  0.39336700  0.68189700  0.75868500  1
  Sb  Sb0  1  0.67469700  0.67479900  0.00033200  1
  Sb  Sb1  1  0.32530300  0.32520100  0.99966800  1
  O  O0  1  0.56364600  0.07114400  0.70248700  1
  O  O1  1  0.89600600  0.40308300  0.70490100  1
  O  O2  1  0.23036800  0.73690600  0.70489200  1
  O  O3  1  0.43635400  0.92885600  0.29751300  1
  O  O4  1  0.76963200  0.26309400  0.29510800  1
  O  O5  1  0.10399400  0.59691700  0.29509900  1
  O  O6  1  0.24323600  0.92979200  0.10329000  1
  O  O7  1  0.57468800  0.26758800  0.10423100  1
  O  O8  1  0.90563800  0.59683700  0.10356700  1
  O  O9  1  0.75676400  0.07020800  0.89671000  1
  O  O10  1  0.09436200  0.40316300  0.89643300  1
  O  O11  1  0.42531200  0.73241200  0.89576900  1
  O  O12  1  0.13889800  0.07928100  0.29662000  1
  O  O13  1  0.47025100  0.41447200  0.29678700  1
  O  O14  1  0.80213200  0.74539600  0.29662600  1
  O  O15  1  0.86110200  0.92071900  0.70338000  1
  O  O16  1  0.19786800  0.25460400  0.70337400  1
  O  O17  1  0.52974900  0.58552800  0.70321300  1
  O  O18  1  0.50752700  0.26210400  0.52943000  1
  O  O19  1  0.84085400  0.59501800  0.53067500  1
  O  O20  1  0.17307100  0.92759100  0.53089000  1
  O  O21  1  0.82692900  0.07240900  0.46911000  1
  O  O22  1  0.15914600  0.40498200  0.46932500  1
  O  O23  1  0.49247300  0.73789600  0.47057000  1
  O  O24  1  0.58659500  0.41160700  0.90998300  1
  O  O25  1  0.91930300  0.73399600  0.90595000  1
  O  O26  1  0.26495100  0.07957500  0.90634000  1
  O  O27  1  0.73504900  0.92042500  0.09366000  1
  O  O28  1  0.08069700  0.26600400  0.09405000  1
  O  O29  1  0.41340500  0.58839300  0.09001700  1
loop_
_geom_bond_atom_site_label_1
_geom_bond_atom_site_label_2
_geom_bond_distance
_geom_bond_site_symmetry_2
Ni0 O18 1.955294 1_555
Ni0 O0 2.099469 1_555
Ni0 O1 2.122329 1_555
Ni0 O16 2.128972 1_555
Ni0 O24 2.133979 1_555
Ni0 O17 2.145405 1_555
Ni1 O19 1.964310 1_555
Ni1 O25 2.067692 1_555
Ni1 O15 2.121376 1_555
Ni1 O2 2.134099 1_655
Ni1 O17 2.135465 1_555
Ni1 O1 2.158511 1_555
Ni2 O20 1.964298 1_555
Ni2 O26 2.068999 1_565
Ni2 O2 2.134772 1_555
Ni2 O0 2.139402 1_565
Ni2 O16 2.141994 1_565
Ni2 O15 2.146430 1_455
Ni3 O21 1.964298 1_555
Ni3 O27 2.068999 1_545
Ni3 O4 2.134772 1_555
Ni3 O3 2.139402 1_545
Ni3 O14 2.141994 1_545
Ni3 O12 2.146430 1_655
Ni4 O22 1.964310 1_555
Ni4 O28 2.067692 1_555
Ni4 O12 2.121376 1_555
Ni4 O4 2.134099 1_455
Ni4 O13 2.135465 1_555
Ni4 O5 2.158511 1_555
Ni5 O23 1.955294 1_555
Ni5 O3 2.099469 1_555
Ni5 O5 2.122329 1_555
Ni5 O14 2.128972 1_555
Ni5 O29 2.133979 1_555
Ni5 O13 2.145405 1_555
Ni6 O21 2.060456 1_455
Ni6 O20 2.065803 1_545
Ni6 O18 2.067327 1_555
Ni6 O22 2.070355 1_555
Ni6 O12 2.167233 1_555
Ni6 O16 2.212344 1_555
Ni7 O23 2.056192 1_555
Ni7 O18 2.056192 1_555
Ni7 O19 2.067154 1_555
Ni7 O22 2.067154 1_555
Ni7 O17 2.187146 1_555
Ni7 O13 2.187146 1_555
Ni8 O20 2.060456 1_655
Ni8 O21 2.065803 1_565
Ni8 O23 2.067327 1_555
Ni8 O19 2.070355 1_555
Ni8 O15 2.167233 1_555
Ni8 O14 2.212344 1_555
Ni9 O18 2.068703 1_555
Ni9 O23 2.068703 1_545
Ni9 O21 2.071811 1_555
Ni9 O20 2.071811 1_545
Ni9 O0 2.178060 1_555
Ni9 O3 2.178060 1_545
Ni10 O21 2.057166 1_555
Ni10 O18 2.060800 1_555
Ni10 O22 2.062240 1_655
Ni10 O19 2.065884 1_555
Ni10 O4 2.203343 1_555
Ni10 O1 2.205046 1_555
Ni11 O20 2.057166 1_555
Ni11 O23 2.060800 1_555
Ni11 O19 2.062240 1_455
Ni11 O22 2.065884 1_555
Ni11 O2 2.203343 1_555
Ni11 O5 2.205046 1_555
Ni12 O26 2.042273 1_554
Ni12 O27 2.042273 1_545
Ni12 O9 2.102921 1_554
Ni12 O6 2.102921 1_545
Ni12 O7 2.134338 1_555
Ni12 O11 2.134338 1_544
Ni13 O28 2.020431 1_656
Ni13 O9 2.040493 1_555
Ni13 O24 2.098183 1_555
Ni13 O7 2.109155 1_556
Ni13 O10 2.127457 1_655
Ni13 O8 2.165354 1_556
Ni14 O25 2.020431 1_454
Ni14 O6 2.040493 1_555
Ni14 O29 2.098183 1_555
Ni14 O11 2.109155 1_554
Ni14 O8 2.127457 1_455
Ni14 O10 2.165354 1_554
Ni15 O26 2.090365 1_554
Ni15 O27 2.090365 1_445
Ni15 O28 2.093821 1_555
Ni15 O25 2.093821 1_444
Ni15 O9 2.095513 1_454
Ni15 O6 2.095513 1_545
B0 O12 1.375117 1_565
B0 O3 1.375548 1_555
B0 O6 1.431616 1_555
B1 O4 1.351911 1_555
B1 O13 1.353888 1_555
B1 O7 1.472388 1_555
B2 O5 1.352193 1_655
B2 O14 1.352931 1_555
B2 O8 1.477222 1_555
B3 O15 1.375117 1_545
B3 O0 1.375548 1_555
B3 O9 1.431616 1_555
B4 O1 1.352193 1_455
B4 O16 1.352931 1_555
B4 O10 1.477222 1_555
B5 O2 1.351911 1_555
B5 O17 1.353888 1_555
B5 O11 1.472388 1_555
O7 Sb1 2.076232 1_554
O8 Sb0 2.076092 1_555
O10 Sb1 2.076092 1_555
O11 Sb0 2.076232 1_556
O24 Sb1 2.060855 1_555
O24 Sb0 2.064963 1_556
O25 Sb0 1.958776 1_556
O26 Sb1 1.954636 1_555
O27 Sb0 1.954636 1_555
O28 Sb1 1.958776 1_554
O29 Sb0 2.060855 1_555
O29 Sb1 2.064963 1_554
