# generated using pymatgen
data_CeSbAu
_symmetry_space_group_name_H-M   'P 1'
_cell_length_a   4.64375633
_cell_length_b   4.64375633
_cell_length_c   17.01806600
_cell_angle_alpha   90.00000000
_cell_angle_beta   90.00000000
_cell_angle_gamma   120.00001004
_symmetry_Int_Tables_number   1
_chemical_formula_structural   CeSbAu
_chemical_formula_sum   'Ce4 Sb4 Au4'
_cell_volume   317.81883885
_cell_formula_units_Z   4
loop_
 _symmetry_equiv_pos_site_id
 _symmetry_equiv_pos_as_xyz
  1  'x, y, z'
loop_
 _atom_site_type_symbol
 _atom_site_label
 _atom_site_symmetry_multiplicity
 _atom_site_fract_x
 _atom_site_fract_y
 _atom_site_fract_z
 _atom_site_occupancy
  Ce  Ce0  1  -0.00000000  0.00000000  0.50002735  1
  Ce  Ce1  1  -0.00000000  0.00000000  0.99995981  1
  Ce  Ce2  1  -0.00000000  0.00000000  0.25085906  1
  Ce  Ce3  1  -0.00000000  0.00000000  0.74913822  1
  Sb  Sb0  1  0.33333300  0.66666700  0.38948698  1
  Sb  Sb1  1  0.66666700  0.33333300  0.61059283  1
  Sb  Sb2  1  0.66666700  0.33333300  0.88918167  1
  Sb  Sb3  1  0.33333300  0.66666700  0.11076532  1
  Au  Au0  1  0.66666700  0.33333300  0.33813490  1
  Au  Au1  1  0.33333300  0.66666700  0.66187407  1
  Au  Au2  1  0.33333300  0.66666700  0.83658015  1
  Au  Au3  1  0.66666700  0.33333300  0.16339764  1
loop_
_geom_bond_atom_site_label_1
_geom_bond_atom_site_label_2
_geom_bond_distance
_geom_bond_site_symmetry_2
Ce0 Sb0 3.275209 1_545
Ce0 Sb0 3.275212 1_445
Ce0 Sb0 3.275212 1_555
Ce0 Sb1 3.275455 1_455
Ce0 Sb1 3.275458 1_445
Ce0 Sb1 3.275458 1_555
Ce1 Sb2 3.277535 1_455
Ce1 Sb2 3.277538 1_555
Ce1 Sb2 3.277538 1_445
Ce1 Sb3 3.277803 1_546
Ce1 Sb3 3.277806 1_556
Ce1 Sb3 3.277806 1_446
Ce2 Sb0 3.571256 1_545
Ce2 Sb0 3.571259 1_555
Ce2 Sb0 3.571259 1_445
Ce2 Sb3 3.587784 1_545
Ce2 Sb3 3.587787 1_555
Ce2 Sb3 3.587787 1_445
Ce3 Sb1 3.570328 1_455
Ce3 Sb1 3.570331 1_445
Ce3 Sb1 3.570331 1_555
Ce3 Sb2 3.587215 1_455
Ce3 Sb2 3.587218 1_445
Ce3 Sb2 3.587218 1_555
Au0 Sb0 2.819905 1_545
Au0 Sb0 2.819905 1_655
Au0 Sb0 2.819913 1_555
Au0 Au3 2.973690 1_555
Au0 Ce2 3.064989 1_655
Au0 Ce2 3.064992 1_555
Au0 Ce2 3.064992 1_665
Au0 Ce0 3.844307 1_655
Au0 Ce0 3.844310 1_665
Au0 Ce0 3.844310 1_555
Au1 Sb1 2.819532 1_455
Au1 Sb1 2.819532 1_565
Au1 Sb1 2.819540 1_555
Au1 Au2 2.973160 1_555
Au1 Ce3 3.064893 1_565
Au1 Ce3 3.064896 1_555
Au1 Ce3 3.064896 1_665
Au1 Ce0 3.843750 1_565
Au1 Ce0 3.843752 1_665
Au1 Ce0 3.843752 1_555
Au2 Sb2 2.826567 1_455
Au2 Sb2 2.826567 1_565
Au2 Sb2 2.826575 1_555
Au2 Ce3 3.066360 1_565
Au2 Ce3 3.066363 1_555
Au2 Ce3 3.066363 1_665
Au3 Sb3 2.826733 1_545
Au3 Sb3 2.826733 1_655
Au3 Sb3 2.826741 1_555
Au3 Ce2 3.066521 1_655
Au3 Ce2 3.066524 1_555
Au3 Ce2 3.066524 1_665
