# generated using pymatgen
data_Al4Si19
_symmetry_space_group_name_H-M   'P 1'
_cell_length_a   10.33507000
_cell_length_b   10.39346746
_cell_length_c   10.47330371
_cell_angle_alpha   89.02456529
_cell_angle_beta   89.44426077
_cell_angle_gamma   89.37091979
_symmetry_Int_Tables_number   1
_chemical_formula_structural   Al4Si19
_chemical_formula_sum   'Al8 Si38'
_cell_volume   1124.73136267
_cell_formula_units_Z   2
loop_
 _symmetry_equiv_pos_site_id
 _symmetry_equiv_pos_as_xyz
  1  'x, y, z'
loop_
 _atom_site_type_symbol
 _atom_site_label
 _atom_site_symmetry_multiplicity
 _atom_site_fract_x
 _atom_site_fract_y
 _atom_site_fract_z
 _atom_site_occupancy
  Al  Al0  1  0.25758200  0.50220700  0.00115100  1
  Al  Al1  1  0.99965900  0.75354300  0.50645900  1
  Al  Al2  1  0.50344000  0.00179000  0.75066700  1
  Al  Al3  1  0.88187500  0.31058900  0.99677500  1
  Al  Al4  1  0.99810700  0.11931400  0.31179500  1
  Al  Al5  1  0.30607400  0.99685400  0.11804200  1
  Al  Al6  1  0.49937700  0.80971700  0.38568900  1
  Al  Al7  1  0.80789400  0.38027500  0.49704100  1
  Si  Si0  1  0.74369600  0.50833000  0.99865200  1
  Si  Si1  1  0.01183400  0.25073000  0.50725300  1
  Si  Si2  1  0.50405700  0.00944200  0.25242600  1
  Si  Si3  1  0.81499400  0.17515600  0.81240900  1
  Si  Si4  1  0.19018100  0.20431000  0.18048200  1
  Si  Si5  1  0.81546900  0.81296600  0.17720700  1
  Si  Si6  1  0.17977500  0.81577200  0.81648200  1
  Si  Si7  1  0.31869500  0.32499400  0.32049400  1
  Si  Si8  1  0.67842900  0.31456900  0.69205900  1
  Si  Si9  1  0.69244900  0.67740100  0.31280300  1
  Si  Si10  1  0.31602600  0.68135100  0.68623000  1
  Si  Si11  1  0.17200500  0.79971700  0.18326000  1
  Si  Si12  1  0.81723800  0.81865900  0.81376900  1
  Si  Si13  1  0.18645400  0.18186600  0.81459000  1
  Si  Si14  1  0.80384200  0.17767000  0.18096500  1
  Si  Si15  1  0.68246000  0.68575600  0.68641200  1
  Si  Si16  1  0.31051800  0.67427300  0.31880200  1
  Si  Si17  1  0.32240600  0.31807500  0.68540100  1
  Si  Si18  1  0.68037800  0.31388800  0.30966100  1
  Si  Si19  1  0.12023400  0.30717900  0.99189000  1
  Si  Si20  1  0.87689700  0.69347200  0.99501500  1
  Si  Si21  1  0.10567900  0.69173100  0.99625900  1
  Si  Si22  1  0.00258000  0.11829000  0.69404500  1
  Si  Si23  1  0.00045900  0.89060800  0.69585400  1
  Si  Si24  1  0.99337300  0.87884000  0.29648200  1
  Si  Si25  1  0.69726100  0.99693600  0.88934500  1
  Si  Si26  1  0.69068800  0.99702800  0.11592700  1
  Si  Si27  1  0.30007300  0.99459300  0.88255500  1
  Si  Si28  1  0.50015700  0.19758300  0.38206500  1
  Si  Si29  1  0.50215400  0.19900300  0.60964300  1
  Si  Si30  1  0.49700100  0.80257000  0.61912500  1
  Si  Si31  1  0.19733100  0.38241700  0.50639800  1
  Si  Si32  1  0.19489700  0.60961800  0.50650900  1
  Si  Si33  1  0.80152700  0.61923600  0.50164500  1
  Si  Si34  1  0.39222400  0.50251500  0.19685900  1
  Si  Si35  1  0.62120300  0.50205500  0.19122900  1
  Si  Si36  1  0.39162900  0.49757000  0.80328800  1
  Si  Si37  1  0.61971700  0.49954500  0.80889100  1
loop_
_geom_bond_atom_site_label_1
_geom_bond_atom_site_label_2
_geom_bond_distance
_geom_bond_site_symmetry_2
Al0 Si36 2.482378 1_554
Al0 Si34 2.488642 1_555
Al0 Si19 2.491132 1_554
Al0 Si21 2.505529 1_554
Al1 Si23 2.461894 1_655
Al1 Si33 2.492267 1_555
Al1 Si32 2.498576 1_655
Al1 Si24 2.537678 1_555
Al2 Si25 2.485238 1_545
Al2 Si27 2.504960 1_545
Al2 Si29 2.505944 1_555
Al2 Si30 2.508323 1_545
Al3 Si19 2.463370 1_655
Al3 Si14 2.486726 1_556
Al3 Si0 2.490003 1_555
Al3 Si3 2.515438 1_555
Al4 Si1 2.486240 1_655
Al4 Si14 2.504943 1_555
Al4 Si24 2.508265 1_545
Al4 Si4 2.560585 1_655
Al5 Si27 2.468226 1_554
Al5 Si2 2.500567 1_565
Al5 Si4 2.547064 1_565
Al5 Si11 2.565336 1_555
Al6 Si30 2.444603 1_555
Al6 Si2 2.482272 1_565
Al6 Si9 2.530130 1_555
Al6 Si16 2.530353 1_555
Al7 Si33 2.485059 1_555
Al7 Si18 2.486064 1_555
Al7 Si1 2.490781 1_655
Al7 Si8 2.519522 1_555
Si0 Si35 2.371224 1_556
Si0 Si20 2.377826 1_555
Si0 Si37 2.378687 1_555
Si1 Si31 2.367617 1_555
Si1 Si22 2.374601 1_555
Si2 Si26 2.393357 1_545
Si2 Si28 2.399259 1_555
Si3 Si8 2.368082 1_555
Si4 Si7 2.371652 1_555
Si5 Si9 2.356849 1_555
Si10 Si30 2.361294 1_555
Si10 Si36 2.380800 1_555
Si10 Si32 2.404159 1_555
Si10 Si6 2.404204 1_555
Si11 Si24 2.334133 1_455
Si11 Si21 2.383931 1_554
Si11 Si16 2.387427 1_555
Si12 Si25 2.361735 1_555
Si12 Si20 2.365889 1_555
Si12 Si23 2.371570 1_655
Si12 Si15 2.401773 1_555
Si13 Si27 2.364944 1_545
Si13 Si19 2.377180 1_555
Si13 Si22 2.396746 1_555
Si13 Si17 2.398058 1_555
Si14 Si18 2.332665 1_555
Si14 Si26 2.337479 1_545
Si15 Si30 2.364425 1_555
Si15 Si33 2.391163 1_555
Si15 Si37 2.395527 1_555
Si16 Si34 2.356816 1_555
Si16 Si32 2.381464 1_555
Si17 Si29 2.359356 1_555
Si17 Si31 2.370278 1_555
Si17 Si36 2.375178 1_555
Si18 Si28 2.344431 1_555
Si18 Si35 2.375543 1_555
Si19 Si4 2.346460 1_556
Si20 Si21 2.364509 1_655
Si20 Si5 2.372009 1_556
Si21 Si6 2.388457 1_555
Si22 Si3 2.365980 1_455
Si22 Si23 2.366499 1_545
Si23 Si6 2.369792 1_555
Si24 Si5 2.347599 1_555
Si25 Si3 2.353844 1_565
Si25 Si26 2.373392 1_556
Si26 Si5 2.377991 1_555
Si27 Si6 2.364347 1_555
Si28 Si7 2.372027 1_555
Si28 Si29 2.384081 1_555
Si29 Si8 2.370789 1_555
Si31 Si32 2.361284 1_555
Si31 Si7 2.386662 1_555
Si33 Si9 2.352786 1_555
Si34 Si7 2.364058 1_555
Si34 Si35 2.366631 1_555
Si35 Si9 2.368845 1_555
Si36 Si37 2.358928 1_555
Si37 Si8 2.366787 1_555
