# generated using pymatgen
data_CaAl2Si4O15
_symmetry_space_group_name_H-M   'P 1'
_cell_length_a   7.67673600
_cell_length_b   10.09634601
_cell_length_c   10.12993027
_cell_angle_alpha   83.01469799
_cell_angle_beta   73.87860616
_cell_angle_gamma   74.19104460
_symmetry_Int_Tables_number   1
_chemical_formula_structural   CaAl2Si4O15
_chemical_formula_sum   'Ca2 Al4 Si8 O30'
_cell_volume   724.83737549
_cell_formula_units_Z   2
loop_
 _symmetry_equiv_pos_site_id
 _symmetry_equiv_pos_as_xyz
  1  'x, y, z'
loop_
 _atom_site_type_symbol
 _atom_site_label
 _atom_site_symmetry_multiplicity
 _atom_site_fract_x
 _atom_site_fract_y
 _atom_site_fract_z
 _atom_site_occupancy
  Ca  Ca0  1  0.75453500  0.25877300  0.26282100  1
  Ca  Ca1  1  0.24546500  0.74122700  0.73717900  1
  Al  Al0  1  0.73668600  0.17953800  0.57161100  1
  Al  Al1  1  0.73956500  0.56928900  0.17890500  1
  Al  Al2  1  0.26331400  0.82046200  0.42838900  1
  Al  Al3  1  0.26043500  0.43071100  0.82109500  1
  Si  Si0  1  0.33110900  0.30041100  0.53460000  1
  Si  Si1  1  0.33364000  0.53325500  0.29973500  1
  Si  Si2  1  0.66889100  0.69958900  0.46540000  1
  Si  Si3  1  0.66636000  0.46674500  0.70026500  1
  Si  Si4  1  0.15941900  0.14376900  0.37838200  1
  Si  Si5  1  0.16047000  0.37775400  0.14353500  1
  Si  Si6  1  0.84058100  0.85623100  0.62161800  1
  Si  Si7  1  0.83953000  0.62224600  0.85646500  1
  O  O0  1  0.27538700  0.44725700  0.44710000  1
  O  O1  1  0.72461300  0.55274300  0.55290000  1
  O  O2  1  0.71943200  0.30390100  0.68139800  1
  O  O3  1  0.72544900  0.67791200  0.30323100  1
  O  O4  1  0.28056800  0.69609900  0.31860200  1
  O  O5  1  0.27455100  0.32208800  0.69676900  1
  O  O6  1  0.92915100  0.17312600  0.42040700  1
  O  O7  1  0.93069700  0.41874200  0.17413000  1
  O  O8  1  0.07084900  0.82687400  0.57959300  1
  O  O9  1  0.06930300  0.58125800  0.82587000  1
  O  O10  1  0.22220100  0.19443100  0.50171800  1
  O  O11  1  0.22505900  0.50097200  0.19369400  1
  O  O12  1  0.77779900  0.80556900  0.49828200  1
  O  O13  1  0.77494100  0.49902800  0.80630600  1
  O  O14  1  0.25676600  0.98379300  0.35113100  1
  O  O15  1  0.25824800  0.35224600  0.98329300  1
  O  O16  1  0.74323400  0.01620700  0.64886900  1
  O  O17  1  0.74175200  0.64775400  0.01670700  1
  O  O18  1  0.22068700  0.23457800  0.23481300  1
  O  O19  1  0.77931300  0.76542200  0.76518700  1
  O  O20  1  0.55915200  0.23540500  0.47850700  1
  O  O21  1  0.56177500  0.47451600  0.23529100  1
  O  O22  1  0.44084800  0.76459500  0.52149300  1
  O  O23  1  0.43822500  0.52548400  0.76470900  1
  O  O24  1  0.90260000  0.15703700  0.02350300  1
  O  O25  1  0.09740000  0.84296300  0.97649700  1
  O  O26  1  0.34338300  0.91572400  0.85414400  1
  O  O27  1  0.22230600  0.91046800  0.97227400  1
  O  O28  1  0.65661700  0.08427600  0.14585600  1
  O  O29  1  0.77769400  0.08953200  0.02772600  1
loop_
_geom_bond_atom_site_label_1
_geom_bond_atom_site_label_2
_geom_bond_distance
_geom_bond_site_symmetry_2
Ca0 O6 2.305203 1_555
Ca0 O20 2.307941 1_555
Ca0 O21 2.310262 1_555
Ca0 O7 2.325291 1_555
Ca0 O24 2.581354 1_555
Ca0 O28 2.607046 1_555
Ca1 O8 2.305203 1_555
Ca1 O22 2.307941 1_555
Ca1 O23 2.310262 1_555
Ca1 O9 2.325291 1_555
Ca1 O25 2.581354 1_555
Ca1 O26 2.607046 1_555
Al0 O16 1.731227 1_555
Al0 O2 1.731523 1_555
Al0 O20 1.797413 1_555
Al0 O6 1.802354 1_555
Al1 O3 1.730898 1_555
Al1 O17 1.732869 1_555
Al1 O7 1.796902 1_555
Al1 O21 1.802870 1_555
Al2 O14 1.731227 1_555
Al2 O4 1.731523 1_555
Al2 O22 1.797413 1_555
Al2 O8 1.802354 1_555
Al3 O5 1.730898 1_555
Al3 O15 1.732869 1_555
Al3 O9 1.796902 1_555
Al3 O23 1.802870 1_555
O0 Si1 1.645563 1_555
O0 Si0 1.646855 1_555
O1 Si3 1.645563 1_555
O1 Si2 1.646855 1_555
O2 Si3 1.604335 1_555
O3 Si2 1.604570 1_555
O4 Si1 1.604335 1_555
O5 Si0 1.604570 1_555
O6 Si4 1.649596 1_655
O7 Si5 1.645767 1_655
O8 Si6 1.649596 1_455
O9 Si7 1.645767 1_455
O10 Si4 1.636779 1_555
O10 Si0 1.638182 1_555
O11 Si5 1.637510 1_555
O11 Si1 1.638707 1_555
O12 Si6 1.636779 1_555
O12 Si2 1.638182 1_555
O13 Si7 1.637510 1_555
O13 Si3 1.638707 1_555
O14 Si4 1.606137 1_565
O15 Si5 1.607595 1_556
O16 Si6 1.606137 1_545
O17 Si7 1.607595 1_554
O18 Si5 1.645130 1_555
O18 Si4 1.645505 1_555
O19 Si7 1.645130 1_555
O19 Si6 1.645505 1_555
O20 Si0 1.652445 1_555
O21 Si1 1.654803 1_555
O22 Si2 1.652445 1_555
O23 Si3 1.654803 1_555
O24 O29 1.308429 1_555
O25 O27 1.308429 1_555
O26 O27 1.300942 1_555
O28 O29 1.300942 1_555
