# generated using pymatgen
data_HoGa6
_symmetry_space_group_name_H-M   'P 1'
_cell_length_a   5.90347074
_cell_length_b   5.90347074
_cell_length_c   7.49567778
_cell_angle_alpha   90.00000000
_cell_angle_beta   90.00000000
_cell_angle_gamma   90.00000000
_symmetry_Int_Tables_number   1
_chemical_formula_structural   HoGa6
_chemical_formula_sum   'Ho2 Ga12'
_cell_volume   261.23161729
_cell_formula_units_Z   2
loop_
 _symmetry_equiv_pos_site_id
 _symmetry_equiv_pos_as_xyz
  1  'x, y, z'
loop_
 _atom_site_type_symbol
 _atom_site_label
 _atom_site_symmetry_multiplicity
 _atom_site_fract_x
 _atom_site_fract_y
 _atom_site_fract_z
 _atom_site_occupancy
  Ho  Ho0  1  0.50000000  0.00000000  -0.00000000  1
  Ho  Ho1  1  0.00000000  0.50000000  -0.00000000  1
  Ga  Ga0  1  0.50000000  0.50000000  0.16076219  1
  Ga  Ga1  1  0.00000000  -0.00000000  0.16076219  1
  Ga  Ga2  1  0.00000000  0.00000000  0.83923781  1
  Ga  Ga3  1  0.50000000  0.50000000  0.83923781  1
  Ga  Ga4  1  0.81564872  0.68435128  0.34961787  1
  Ga  Ga5  1  0.31564872  0.81564872  0.34961787  1
  Ga  Ga6  1  0.68435128  0.18435128  0.34961787  1
  Ga  Ga7  1  0.18435128  0.31564872  0.34961787  1
  Ga  Ga8  1  0.68435128  0.81564872  0.65038213  1
  Ga  Ga9  1  0.18435128  0.68435128  0.65038213  1
  Ga  Ga10  1  0.81564872  0.31564872  0.65038213  1
  Ga  Ga11  1  0.31564872  0.18435128  0.65038213  1
loop_
_geom_bond_atom_site_label_1
_geom_bond_atom_site_label_2
_geom_bond_distance
_geom_bond_site_symmetry_2
Ga0 Ga3 2.410043 1_554
Ga0 Ga7 2.580832 1_555
Ga0 Ga6 2.580832 1_555
Ga0 Ga5 2.580832 1_555
Ga0 Ga4 2.580832 1_555
Ga0 Ho0 3.188231 1_555
Ga0 Ho1 3.188231 1_655
Ga0 Ho1 3.188231 1_555
Ga0 Ho0 3.188231 1_565
Ga1 Ga2 2.410043 1_554
Ga1 Ga7 2.580832 1_555
Ga1 Ga4 2.580832 1_445
Ga1 Ga5 2.580832 1_545
Ga1 Ga6 2.580832 1_455
Ga1 Ho0 3.188231 1_555
Ga1 Ho1 3.188231 1_555
Ga1 Ho1 3.188231 1_545
Ga1 Ho0 3.188231 1_455
Ga2 Ga8 2.580832 1_445
Ga2 Ga9 2.580832 1_545
Ga2 Ho1 3.188231 1_546
Ga2 Ho0 3.188231 1_456
Ga2 Ho0 3.188231 1_556
Ga2 Ho1 3.188231 1_556
Ga3 Ga8 2.580832 1_555
Ga3 Ga9 2.580832 1_555
Ga3 Ho1 3.188231 1_556
Ga3 Ho0 3.188231 1_566
Ga3 Ho1 3.188231 1_656
Ga3 Ho0 3.188231 1_556
Ga4 Ga8 2.506802 1_555
Ga4 Ho1 3.039163 1_655
Ga4 Ga6 3.051809 1_555
Ga4 Ga5 3.051809 1_555
Ga4 Ga6 3.051809 1_565
Ga4 Ga5 3.051809 1_655
Ga4 Ga7 3.078212 1_655
Ga4 Ga9 3.133713 1_655
Ga5 Ga9 2.506802 1_555
Ga5 Ho0 3.039163 1_565
Ga5 Ga7 3.051809 1_555
Ga5 Ga7 3.051809 1_565
Ga5 Ga6 3.078212 1_565
Ga5 Ga8 3.133713 1_555
Ga6 Ho0 3.039163 1_555
Ga6 Ga7 3.051809 1_555
Ga6 Ga7 3.051809 1_655
Ga6 Ga8 3.133713 1_545
Ga7 Ho1 3.039163 1_555
Ga7 Ga9 3.133713 1_555
Ga8 Ho0 3.039163 1_566
Ga8 Ga9 3.051809 1_655
Ga8 Ga9 3.051809 1_555
Ga9 Ho1 3.039163 1_556
Ga10 Ga6 2.506802 1_555
Ga10 Ga3 2.580832 1_555
Ga10 Ga2 2.580832 1_655
Ga10 Ho1 3.039163 1_656
Ga10 Ga8 3.051809 1_555
Ga10 Ga11 3.051809 1_555
Ga10 Ga8 3.051809 1_545
Ga10 Ga11 3.051809 1_655
Ga10 Ga9 3.078212 1_655
Ga10 Ga4 3.133713 1_555
Ga10 Ga7 3.133713 1_655
Ga11 Ga7 2.506802 1_555
Ga11 Ga3 2.580832 1_555
Ga11 Ga2 2.580832 1_555
Ga11 Ho0 3.039163 1_556
Ga11 Ga9 3.051809 1_555
Ga11 Ga9 3.051809 1_545
Ga11 Ga8 3.078212 1_545
Ga11 Ga6 3.133713 1_555
Ga11 Ga5 3.133713 1_545
