# generated using pymatgen
data_Ba8Dy3(Pt2O9)2
_symmetry_space_group_name_H-M   'P 1'
_cell_length_a   8.41185952
_cell_length_b   8.41185952
_cell_length_c   8.41185952
_cell_angle_alpha   90.00000000
_cell_angle_beta   90.00000000
_cell_angle_gamma   90.00000000
_symmetry_Int_Tables_number   1
_chemical_formula_structural   Ba8Dy3(Pt2O9)2
_chemical_formula_sum   'Ba8 Dy3 Pt4 O18'
_cell_volume   595.21796920
_cell_formula_units_Z   1
loop_
 _symmetry_equiv_pos_site_id
 _symmetry_equiv_pos_as_xyz
  1  'x, y, z'
loop_
 _atom_site_type_symbol
 _atom_site_label
 _atom_site_symmetry_multiplicity
 _atom_site_fract_x
 _atom_site_fract_y
 _atom_site_fract_z
 _atom_site_occupancy
  Ba  Ba0  1  0.23754551  0.23754551  0.23754551  1
  Ba  Ba1  1  0.76245449  0.76245449  0.76245449  1
  Ba  Ba2  1  0.76245449  0.76245449  0.23754551  1
  Ba  Ba3  1  0.76245449  0.23754551  0.76245449  1
  Ba  Ba4  1  0.23754551  0.23754551  0.76245449  1
  Ba  Ba5  1  0.23754551  0.76245449  0.23754551  1
  Ba  Ba6  1  0.23754551  0.76245449  0.76245449  1
  Ba  Ba7  1  0.76245449  0.23754551  0.23754551  1
  Dy  Dy0  1  0.50000000  -0.00000000  0.00000000  1
  Dy  Dy1  1  0.00000000  0.50000000  0.00000000  1
  Dy  Dy2  1  0.00000000  -0.00000000  0.50000000  1
  Pt  Pt0  1  0.00000000  -0.00000000  0.00000000  1
  Pt  Pt1  1  0.00000000  0.50000000  0.50000000  1
  Pt  Pt2  1  0.50000000  -0.00000000  0.50000000  1
  Pt  Pt3  1  0.50000000  0.50000000  0.00000000  1
  O  O0  1  0.23843895  0.00000000  0.00000000  1
  O  O1  1  0.76156105  -0.00000000  0.00000000  1
  O  O2  1  -0.00000000  0.23843895  0.00000000  1
  O  O3  1  0.00000000  0.76156105  0.00000000  1
  O  O4  1  0.00000000  0.00000000  0.23843895  1
  O  O5  1  -0.00000000  -0.00000000  0.76156105  1
  O  O6  1  0.26195640  0.50000000  0.00000000  1
  O  O7  1  0.73804360  0.50000000  0.00000000  1
  O  O8  1  0.00000000  0.26195640  0.50000000  1
  O  O9  1  0.50000000  0.26195640  0.00000000  1
  O  O10  1  -0.00000000  0.73804360  0.50000000  1
  O  O11  1  0.50000000  0.73804360  0.00000000  1
  O  O12  1  0.50000000  -0.00000000  0.26195640  1
  O  O13  1  0.26195640  -0.00000000  0.50000000  1
  O  O14  1  0.50000000  0.00000000  0.73804360  1
  O  O15  1  0.73804360  0.00000000  0.50000000  1
  O  O16  1  -0.00000000  0.50000000  0.26195640  1
  O  O17  1  0.00000000  0.50000000  0.73804360  1
loop_
_geom_bond_atom_site_label_1
_geom_bond_atom_site_label_2
_geom_bond_distance
_geom_bond_site_symmetry_2
Ba0 O4 2.825891 1_555
Ba0 O2 2.825891 1_555
Ba0 O0 2.825891 1_555
Ba0 O12 2.984801 1_555
Ba0 O6 2.984801 1_555
Ba0 O16 2.984801 1_555
Ba0 O9 2.984801 1_555
Ba0 O8 2.984801 1_555
Ba0 O13 2.984801 1_555
Ba1 O3 2.825891 1_656
Ba1 O1 2.825891 1_566
Ba1 O5 2.825891 1_665
Ba1 O10 2.984801 1_655
Ba1 O17 2.984801 1_655
Ba1 O14 2.984801 1_565
Ba1 O7 2.984801 1_556
Ba1 O15 2.984801 1_565
Ba1 O11 2.984801 1_556
Ba2 O1 2.825891 1_565
Ba2 O4 2.825891 1_665
Ba2 O3 2.825891 1_655
Ba2 O10 2.984801 1_655
Ba2 O7 2.984801 1_555
Ba2 O12 2.984801 1_565
Ba2 O15 2.984801 1_565
Ba2 O11 2.984801 1_555
Ba2 O16 2.984801 1_655
Ba3 O1 2.825891 1_556
Ba3 O5 2.825891 1_655
Ba3 O2 2.825891 1_656
Ba3 O9 2.984801 1_556
Ba3 O17 2.984801 1_655
Ba3 O8 2.984801 1_655
Ba3 O15 2.984801 1_555
Ba3 O7 2.984801 1_556
Ba3 O14 2.984801 1_555
Ba4 O2 2.825891 1_556
Ba4 O5 2.825891 1_555
Ba4 O0 2.825891 1_556
Ba4 O9 2.984801 1_556
Ba4 O8 2.984801 1_555
Ba4 O13 2.984801 1_555
Ba4 O17 2.984801 1_555
Ba4 O6 2.984801 1_556
Ba4 O14 2.984801 1_555
Ba5 O3 2.825891 1_555
Ba5 O0 2.825891 1_565
Ba5 O4 2.825891 1_565
Ba5 O6 2.984801 1_555
Ba5 O16 2.984801 1_555
Ba5 O12 2.984801 1_565
Ba5 O10 2.984801 1_555
Ba5 O11 2.984801 1_555
Ba5 O13 2.984801 1_565
Ba6 O0 2.825891 1_566
Ba6 O5 2.825891 1_565
Ba6 O3 2.825891 1_556
Ba6 O14 2.984801 1_565
Ba6 O6 2.984801 1_556
Ba6 O17 2.984801 1_555
Ba6 O10 2.984801 1_555
Ba6 O13 2.984801 1_565
Ba6 O11 2.984801 1_556
Ba7 O4 2.825891 1_655
Ba7 O1 2.825891 1_555
Ba7 O2 2.825891 1_655
Ba7 O12 2.984801 1_555
Ba7 O8 2.984801 1_655
Ba7 O15 2.984801 1_555
Ba7 O7 2.984801 1_555
Ba7 O9 2.984801 1_555
Ba7 O16 2.984801 1_655
Dy0 O1 2.200215 1_555
Dy0 O0 2.200215 1_555
Dy0 O14 2.203540 1_554
Dy0 O12 2.203540 1_555
Dy0 O9 2.203540 1_555
Dy0 O11 2.203540 1_545
Dy1 O3 2.200215 1_555
Dy1 O2 2.200215 1_555
Dy1 O17 2.203540 1_554
Dy1 O7 2.203540 1_455
Dy1 O16 2.203540 1_555
Dy1 O6 2.203540 1_555
Dy2 O4 2.200215 1_555
Dy2 O5 2.200215 1_555
Dy2 O13 2.203540 1_555
Dy2 O15 2.203540 1_455
Dy2 O10 2.203540 1_545
Dy2 O8 2.203540 1_555
O0 Pt0 2.005715 1_555
O1 Pt0 2.005715 1_655
O2 Pt0 2.005715 1_555
O3 Pt0 2.005715 1_565
O4 Pt0 2.005715 1_555
O5 Pt0 2.005715 1_556
O6 Pt3 2.002389 1_555
O7 Pt3 2.002389 1_555
O8 Pt1 2.002389 1_555
O9 Pt3 2.002389 1_555
O10 Pt1 2.002389 1_555
O11 Pt3 2.002389 1_555
O12 Pt2 2.002389 1_555
O13 Pt2 2.002389 1_555
O14 Pt2 2.002389 1_555
O15 Pt2 2.002389 1_555
O16 Pt1 2.002389 1_555
O17 Pt1 2.002389 1_555
