# generated using pymatgen
data_Tb2Mn3Sb3O14
_symmetry_space_group_name_H-M   'P 1'
_cell_length_a   7.19646180
_cell_length_b   7.19646180
_cell_length_c   7.29650282
_cell_angle_alpha   61.25747593
_cell_angle_beta   61.25747593
_cell_angle_gamma   61.59885216
_symmetry_Int_Tables_number   1
_chemical_formula_structural   Tb2Mn3Sb3O14
_chemical_formula_sum   'Tb2 Mn3 Sb3 O14'
_cell_volume   275.42677993
_cell_formula_units_Z   1
loop_
 _symmetry_equiv_pos_site_id
 _symmetry_equiv_pos_as_xyz
  1  'x, y, z'
loop_
 _atom_site_type_symbol
 _atom_site_label
 _atom_site_symmetry_multiplicity
 _atom_site_fract_x
 _atom_site_fract_y
 _atom_site_fract_z
 _atom_site_occupancy
  Tb  Tb0  1  0.50000000  0.00000000  0.00000000  1
  Tb  Tb1  1  0.00000000  0.50000000  0.00000000  1
  Mn  Mn0  1  0.50000000  0.50000000  0.50000000  1
  Mn  Mn1  1  0.00000000  0.00000000  0.00000000  1
  Mn  Mn2  1  0.00000000  0.00000000  0.50000000  1
  Sb  Sb0  1  0.50000000  0.50000000  0.00000000  1
  Sb  Sb1  1  0.00000000  0.50000000  0.50000000  1
  Sb  Sb2  1  0.50000000  0.00000000  0.50000000  1
  O  O0  1  0.88333700  0.88333700  0.86980200  1
  O  O1  1  0.11666300  0.11666300  0.13019800  1
  O  O2  1  0.59122700  0.59122700  0.14797800  1
  O  O3  1  0.17163200  0.17163200  0.57199700  1
  O  O4  1  0.17314800  0.57186200  0.58700100  1
  O  O5  1  0.57957200  0.17082000  0.17444100  1
  O  O6  1  0.17082000  0.57957200  0.17444100  1
  O  O7  1  0.57186200  0.17314800  0.58700100  1
  O  O8  1  0.40877300  0.40877300  0.85202200  1
  O  O9  1  0.82836800  0.82836800  0.42800300  1
  O  O10  1  0.82685200  0.42813800  0.41299900  1
  O  O11  1  0.42042800  0.82918000  0.82555900  1
  O  O12  1  0.82918000  0.42042800  0.82555900  1
  O  O13  1  0.42813800  0.82685200  0.41299900  1
loop_
_geom_bond_atom_site_label_1
_geom_bond_atom_site_label_2
_geom_bond_distance
_geom_bond_site_symmetry_2
Mn0 O10 1.981330 1_555
Mn0 O13 1.981330 1_555
Mn0 O4 1.981330 1_555
Mn0 O7 1.981330 1_555
Mn0 O8 2.150775 1_555
Mn0 O2 2.150775 1_555
Mn1 O1 2.125291 1_555
Mn1 O0 2.125291 1_444
Mn1 O11 2.558982 1_544
Mn1 O12 2.558982 1_454
Mn1 O6 2.558982 1_545
Mn1 O5 2.558982 1_455
Mn1 O9 2.614507 1_445
Mn1 O3 2.614507 1_554
Mn2 O0 2.236841 1_445
Mn2 O1 2.236841 1_555
Mn2 O3 2.454883 1_555
Mn2 O9 2.454883 1_445
Mn2 O13 2.583833 1_545
Mn2 O10 2.583833 1_455
Mn2 O4 2.583833 1_545
Mn2 O7 2.583833 1_455
O0 Tb0 2.293680 1_566
O0 Tb1 2.293680 1_656
O1 Tb0 2.293680 1_555
O1 Tb1 2.293680 1_555
O2 Sb0 1.949691 1_555
O2 Tb1 2.457707 1_655
O2 Tb0 2.457707 1_565
O3 Sb1 2.009800 1_555
O3 Sb2 2.009800 1_555
O4 Sb1 1.978016 1_555
O4 Tb1 2.530590 1_556
O4 O8 2.658887 1_555
O4 O9 2.694718 1_455
O5 Sb2 2.008681 1_555
O5 Sb0 2.017537 1_555
O5 Tb0 2.516858 1_555
O5 O8 2.623335 1_554
O5 O9 2.702841 1_545
O6 Sb1 2.008681 1_555
O6 Sb0 2.017537 1_555
O6 Tb1 2.516858 1_555
O6 O8 2.623335 1_554
O6 O9 2.702841 1_455
O7 Sb2 1.978016 1_555
O7 Tb0 2.530590 1_556
O7 O8 2.658887 1_555
O7 O9 2.694718 1_545
O8 Sb0 1.949691 1_556
O8 Tb0 2.457707 1_556
O8 Tb1 2.457707 1_556
O9 Sb2 2.009800 1_565
O9 Sb1 2.009800 1_655
O10 Sb1 1.978016 1_655
O10 Tb1 2.530590 1_655
O10 O6 2.634915 1_655
O10 O7 2.658670 1_555
O10 O2 2.658887 1_555
O10 O3 2.694718 1_655
O11 Sb2 2.008681 1_565
O11 Sb0 2.017537 1_556
O11 Tb0 2.516858 1_566
O11 O2 2.623335 1_556
O11 O7 2.634915 1_565
O11 O6 2.684672 1_556
O11 O3 2.702841 1_565
O12 Sb1 2.008681 1_655
O12 Sb0 2.017537 1_556
O12 Tb1 2.516858 1_656
O12 O2 2.623335 1_556
O12 O4 2.634915 1_655
O12 O5 2.684672 1_556
O12 O3 2.702841 1_655
O13 Sb2 1.978016 1_565
O13 Tb0 2.530590 1_565
O13 O5 2.634915 1_565
O13 O4 2.658670 1_555
O13 O2 2.658887 1_555
O13 O3 2.694718 1_565
