# generated using pymatgen
data_TaN
_symmetry_space_group_name_H-M   'P 1'
_cell_length_a   10.86666605
_cell_length_b   10.79950297
_cell_length_c   10.71306347
_cell_angle_alpha   91.35067303
_cell_angle_beta   92.80160402
_cell_angle_gamma   85.58013624
_symmetry_Int_Tables_number   1
_chemical_formula_structural   TaN
_chemical_formula_sum   'Ta50 N50'
_cell_volume   1251.74249832
_cell_formula_units_Z   50
loop_
 _symmetry_equiv_pos_site_id
 _symmetry_equiv_pos_as_xyz
  1  'x, y, z'
loop_
 _atom_site_type_symbol
 _atom_site_label
 _atom_site_symmetry_multiplicity
 _atom_site_fract_x
 _atom_site_fract_y
 _atom_site_fract_z
 _atom_site_occupancy
  Ta  Ta0  1  0.82817100  0.54503500  0.99825000  1
  Ta  Ta1  1  0.07608400  0.72604900  0.03020000  1
  Ta  Ta2  1  0.49440400  0.61821700  0.15155300  1
  Ta  Ta3  1  0.21655400  0.88593300  0.28159600  1
  Ta  Ta4  1  0.00519900  0.77234100  0.76297100  1
  Ta  Ta5  1  0.91125500  0.44473700  0.23968900  1
  Ta  Ta6  1  0.31104100  0.06136600  0.45252600  1
  Ta  Ta7  1  0.19126200  0.25008000  0.28515500  1
  Ta  Ta8  1  0.77420500  0.20185500  0.94937000  1
  Ta  Ta9  1  0.95231900  0.99826700  0.29446400  1
  Ta  Ta10  1  0.01017500  0.17745100  0.79446000  1
  Ta  Ta11  1  0.05395500  0.96295900  0.56458800  1
  Ta  Ta12  1  0.80707100  0.83588900  0.45774300  1
  Ta  Ta13  1  0.56013100  0.18616400  0.72419600  1
  Ta  Ta14  1  0.79213800  0.33023700  0.69499400  1
  Ta  Ta15  1  0.42181800  0.38659900  0.27758800  1
  Ta  Ta16  1  0.74181300  0.59747500  0.39906600  1
  Ta  Ta17  1  0.72157900  0.76025900  0.14714700  1
  Ta  Ta18  1  0.55926300  0.15284800  0.41696300  1
  Ta  Ta19  1  0.99880400  0.27561900  0.03959100  1
  Ta  Ta20  1  0.50905300  0.87005300  0.36835900  1
  Ta  Ta21  1  0.21418500  0.45566200  0.09145000  1
  Ta  Ta22  1  0.31365100  0.82110000  0.54510100  1
  Ta  Ta23  1  0.58883700  0.75823200  0.87583000  1
  Ta  Ta24  1  0.29063200  0.14245500  0.71806800  1
  Ta  Ta25  1  0.67350800  0.31979600  0.20573300  1
  Ta  Ta26  1  0.82171500  0.26534000  0.42480800  1
  Ta  Ta27  1  0.27907800  0.61633400  0.33827500  1
  Ta  Ta28  1  0.34965700  0.32591100  0.52356900  1
  Ta  Ta29  1  0.53907300  0.04817200  0.93207000  1
  Ta  Ta30  1  0.96761400  0.48952900  0.50935100  1
  Ta  Ta31  1  0.77716200  0.62840900  0.67906800  1
  Ta  Ta32  1  0.55189700  0.91702900  0.64892200  1
  Ta  Ta33  1  0.40042200  0.89071300  0.10641100  1
  Ta  Ta34  1  0.72089800  0.02921500  0.14187500  1
  Ta  Ta35  1  0.60064700  0.41235200  0.49783500  1
  Ta  Ta36  1  0.46380700  0.31566100  0.03136100  1
  Ta  Ta37  1  0.01505900  0.69681000  0.30519600  1
  Ta  Ta38  1  0.78762400  0.94300600  0.83654000  1
  Ta  Ta39  1  0.46965900  0.60791200  0.62118200  1
  Ta  Ta40  1  0.26767200  0.14153100  0.99887000  1
  Ta  Ta41  1  0.02292800  0.46089800  0.83415800  1
  Ta  Ta42  1  0.05154900  0.00502400  0.03182400  1
  Ta  Ta43  1  0.61233200  0.49743500  0.84494300  1
  Ta  Ta44  1  0.29275700  0.38803600  0.82158500  1
  Ta  Ta45  1  0.34446100  0.63755200  0.87140800  1
  Ta  Ta46  1  0.78919300  0.05855900  0.59190800  1
  Ta  Ta47  1  0.17477500  0.60915100  0.60160700  1
  Ta  Ta48  1  0.08328700  0.23547200  0.53701100  1
  Ta  Ta49  1  0.25770600  0.89860500  0.79234200  1
  N  N0  1  0.31818400  0.53516800  0.69790000  1
  N  N1  1  0.81434000  0.48667300  0.80767800  1
  N  N2  1  0.49766200  0.75671800  0.51606900  1
  N  N3  1  0.70431400  0.15780200  0.29874600  1
  N  N4  1  0.37372800  0.97455800  0.93176000  1
  N  N5  1  0.13955700  0.30325700  0.90897700  1
  N  N6  1  0.15220800  0.62114700  0.17570400  1
  N  N7  1  0.11096800  0.57501600  0.42506700  1
  N  N8  1  0.40559900  0.21165100  0.86219400  1
  N  N9  1  0.99262800  0.33209400  0.38889000  1
  N  N10  1  0.64611200  0.61456600  0.01127000  1
  N  N11  1  0.43262700  0.14287200  0.58626800  1
  N  N12  1  0.98774400  0.33818700  0.67964200  1
  N  N13  1  0.23149500  0.99395600  0.11398700  1
  N  N14  1  0.14702400  0.07606400  0.33449100  1
  N  N15  1  0.15072400  0.78975400  0.64259200  1
  N  N16  1  0.65897100  0.31069500  0.83028500  1
  N  N17  1  0.36822800  0.75126500  0.24095800  1
  N  N18  1  0.99235600  0.59838500  0.67455100  1
  N  N19  1  0.61734000  0.68504800  0.27269700  1
  N  N20  1  0.67296800  0.23103900  0.56292200  1
  N  N21  1  0.87428900  0.63272000  0.17623700  1
  N  N22  1  0.04194300  0.85942400  0.17562800  1
  N  N23  1  0.81547700  0.36373900  0.08200400  1
  N  N24  1  0.83328700  0.12367700  0.77759700  1
  N  N25  1  0.41536200  0.49071000  0.45479300  1
  N  N26  1  0.08203600  0.37661100  0.18199900  1
  N  N27  1  0.42082500  0.77994400  0.74822500  1
  N  N28  1  0.99440000  0.84475500  0.42237600  1
  N  N29  1  0.89575100  0.89507000  0.65259300  1
  N  N30  1  0.64892000  0.96545400  0.48341000  1
  N  N31  1  0.55461200  0.94744200  0.19441500  1
  N  N32  1  0.95943700  0.63978000  0.91906800  1
  N  N33  1  0.18219600  0.77627500  0.89818300  1
  N  N34  1  0.37743900  0.21525500  0.35841900  1
  N  N35  1  0.95489700  0.88320700  0.91917600  1
  N  N36  1  0.69082900  0.80020600  0.71937100  1
  N  N37  1  0.15351000  0.05844400  0.85486900  1
  N  N38  1  0.31316700  0.28082800  0.13780600  1
  N  N39  1  0.44509000  0.47038500  0.92437400  1
  N  N40  1  0.79875900  0.89716200  0.26873100  1
  N  N41  1  0.91197400  0.10801700  0.12305900  1
  N  N42  1  0.19424200  0.53243200  0.91626000  1
  N  N43  1  0.61332600  0.18270000  0.05882500  1
  N  N44  1  0.21952200  0.31239200  0.65417400  1
  N  N45  1  0.78643500  0.44982400  0.53753000  1
  N  N46  1  0.93520600  0.10393900  0.46770000  1
  N  N47  1  0.43342100  0.73397600  0.00468800  1
  N  N48  1  0.68469200  0.88966100  0.99275900  1
  N  N49  1  0.24133400  0.98785000  0.61928700  1
loop_
_geom_bond_atom_site_label_1
_geom_bond_atom_site_label_2
_geom_bond_distance
_geom_bond_site_symmetry_2
Ta3 Ta6 2.819470 1_565
Ta10 Ta19 2.813525 1_456
Ta12 Ta16 2.772890 1_555
Ta13 Ta29 2.737044 1_555
Ta15 Ta36 2.778819 1_555
Ta15 Ta27 2.900603 1_555
Ta15 Ta25 2.910147 1_555
Ta15 Ta21 2.999077 1_555
Ta15 Ta35 3.004187 1_555
Ta16 Ta30 2.848902 1_555
Ta16 Ta35 2.863707 1_555
Ta18 Ta35 2.974667 1_555
Ta19 Ta8 2.749236 1_554
Ta22 Ta6 2.797207 1_565
Ta22 Ta3 3.043136 1_555
Ta23 Ta43 2.821474 1_555
Ta25 Ta26 2.827976 1_555
Ta35 Ta39 2.796702 1_555
N0 Ta47 1.954709 1_555
N0 Ta39 2.089034 1_555
N0 Ta44 2.135316 1_555
N0 Ta45 2.158502 1_555
N1 Ta14 2.075548 1_555
N1 Ta31 2.086682 1_555
N1 Ta0 2.124136 1_555
N1 Ta43 2.244046 1_555
N1 Ta41 2.267004 1_655
N1 N32 2.601721 1_555
N2 Ta39 2.034057 1_555
N2 Ta20 2.037470 1_555
N2 Ta22 2.101149 1_555
N2 Ta32 2.308559 1_555
N3 Ta25 2.030981 1_555
N3 Ta18 2.074272 1_555
N3 Ta34 2.160144 1_555
N3 Ta26 2.187734 1_555
N4 Ta29 2.019848 1_565
N4 Ta33 2.095517 1_556
N4 Ta49 2.100177 1_555
N4 Ta40 2.190043 1_565
N5 Ta19 2.164660 1_456
N5 Ta41 2.186202 1_555
N5 Ta44 2.216750 1_555
N5 Ta10 2.318391 1_555
N5 Ta40 2.342975 1_555
N5 Ta21 2.662165 1_556
N6 Ta1 2.051906 1_555
N6 Ta21 2.063999 1_555
N6 Ta27 2.166836 1_555
N6 Ta37 2.185015 1_555
N7 Ta47 2.017907 1_555
N7 Ta37 2.050097 1_555
N7 Ta30 2.119616 1_455
N7 Ta27 2.170731 1_555
N8 Ta24 2.098610 1_555
N8 Ta36 2.201748 1_556
N8 Ta44 2.224480 1_555
N8 Ta13 2.287686 1_555
N8 Ta29 2.311394 1_555
N8 Ta40 2.324982 1_555
N9 Ta48 2.084274 1_655
N9 Ta26 2.099161 1_555
N9 Ta30 2.118882 1_555
N9 Ta5 2.145771 1_555
N9 Ta7 2.563594 1_655
N10 Ta0 2.071314 1_554
N10 Ta23 2.183789 1_554
N10 Ta43 2.193466 1_554
N10 Ta2 2.281946 1_555
N10 Ta17 2.289388 1_555
N10 N47 2.557102 1_555
N11 Ta13 2.046668 1_555
N11 Ta6 2.123222 1_555
N11 Ta24 2.142184 1_555
N11 Ta28 2.213648 1_555
N11 Ta18 2.339044 1_555
N11 Ta32 2.753892 1_545
N12 Ta48 2.130941 1_655
N12 Ta41 2.134324 1_655
N12 Ta10 2.142853 1_655
N12 Ta14 2.148372 1_555
N12 Ta30 2.468570 1_555
N12 N44 2.539905 1_655
N13 Ta33 2.077086 1_555
N13 Ta42 2.100807 1_565
N13 Ta40 2.109996 1_564
N13 Ta3 2.183563 1_555
N13 N4 2.543552 1_554
N13 N14 2.682715 1_565
N14 Ta7 2.062297 1_555
N14 Ta6 2.132228 1_555
N14 Ta3 2.203631 1_545
N14 Ta9 2.352585 1_445
N14 N46 2.760308 1_455
N14 Ta48 2.817376 1_555
N15 Ta47 1.989351 1_555
N15 Ta4 2.110893 1_555
N15 Ta22 2.151699 1_555
N15 Ta11 2.233293 1_555
N15 Ta49 2.290526 1_555
N16 Ta43 2.045461 1_555
N16 Ta8 2.065159 1_555
N16 Ta13 2.070086 1_555
N16 Ta14 2.122689 1_555
N17 Ta27 2.129969 1_555
N17 Ta2 2.149820 1_555
N17 Ta3 2.166111 1_555
N17 Ta33 2.168139 1_555
N17 Ta20 2.422026 1_555
N17 N6 2.876694 1_555
N18 Ta4 2.095145 1_655
N18 Ta30 2.119104 1_555
N18 Ta47 2.178275 1_655
N18 Ta41 2.286218 1_655
N18 Ta31 2.338641 1_555
N18 N32 2.683557 1_555
N19 Ta2 1.981126 1_555
N19 Ta17 2.023401 1_555
N19 Ta16 2.059354 1_555
N19 Ta20 2.466941 1_555
N20 Ta18 2.143478 1_555
N20 Ta35 2.170612 1_555
N20 Ta46 2.188040 1_555
N20 Ta14 2.188565 1_555
N20 Ta13 2.249794 1_555
N20 Ta26 2.300245 1_555
N21 Ta17 2.089354 1_555
N21 Ta37 2.153887 1_655
N21 Ta5 2.158127 1_555
N21 Ta0 2.162941 1_554
N21 Ta16 2.894669 1_555
N22 Ta1 2.123203 1_555
N22 Ta9 2.150285 1_455
N22 Ta3 2.197462 1_555
N22 Ta42 2.238743 1_565
N22 Ta37 2.308632 1_555
N22 N40 2.866492 1_455
N23 Ta5 2.144969 1_555
N23 Ta25 2.169013 1_555
N23 Ta0 2.189532 1_554
N23 Ta19 2.203785 1_555
N23 Ta8 2.284300 1_554
N24 Ta10 2.048861 1_655
N24 Ta8 2.114262 1_555
N24 Ta46 2.138750 1_555
N24 Ta38 2.165621 1_545
N24 Ta14 2.420726 1_555
N25 Ta28 2.128208 1_555
N25 Ta35 2.155842 1_555
N25 Ta15 2.184781 1_555
N25 Ta39 2.243557 1_555
N25 Ta27 2.276271 1_555
N26 Ta21 2.023896 1_555
N26 Ta7 2.047022 1_555
N26 Ta5 2.060964 1_455
N26 Ta19 2.067324 1_455
N26 N9 2.533851 1_455
N26 N6 2.807844 1_555
N27 Ta49 2.170432 1_555
N27 Ta23 2.227604 1_555
N27 Ta45 2.279088 1_555
N27 Ta39 2.320574 1_555
N27 Ta32 2.428896 1_555
N27 Ta22 2.450978 1_555
N27 N4 2.878022 1_555
N28 Ta37 2.014144 1_655
N28 Ta11 2.075760 1_655
N28 Ta12 2.098502 1_555
N28 Ta9 2.182747 1_555
N28 Ta3 2.975421 1_655
N29 Ta4 2.064692 1_655
N29 Ta46 2.132187 1_565
N29 Ta11 2.183389 1_655
N29 Ta12 2.351576 1_555
N29 Ta38 2.369912 1_555
N29 N36 2.657440 1_555
N30 Ta12 2.155086 1_555
N30 Ta46 2.166443 1_565
N30 Ta32 2.200125 1_555
N30 Ta20 2.211126 1_555
N30 Ta18 2.290802 1_565
N31 Ta33 2.012004 1_555
N31 Ta20 2.154881 1_555
N31 Ta34 2.175009 1_565
N31 Ta17 2.666651 1_555
N31 N48 2.674624 1_554
N31 N40 2.749420 1_555
N32 Ta1 1.968339 1_656
N32 Ta0 2.045815 1_555
N32 Ta41 2.192838 1_655
N32 Ta4 2.323174 1_655
N32 N35 2.625523 1_555
N32 N42 2.721255 1_655
N33 Ta1 1.978905 1_556
N33 Ta49 2.008218 1_555
N33 Ta45 2.248974 1_555
N33 Ta4 2.353028 1_555
N33 N42 2.637760 1_555
N34 Ta18 2.108317 1_555
N34 Ta28 2.132243 1_555
N34 Ta7 2.142878 1_555
N34 Ta6 2.152655 1_555
N34 Ta15 2.158803 1_555
N34 N38 2.533069 1_555
N35 Ta38 2.047813 1_555
N35 Ta42 2.074704 1_666
N35 Ta4 2.103992 1_655
N35 Ta1 2.372141 1_656
N36 Ta32 2.020032 1_555
N36 Ta31 2.059692 1_555
N36 Ta23 2.130302 1_555
N36 Ta38 2.256095 1_555
N37 Ta10 2.031938 1_555
N37 Ta49 2.104475 1_545
N37 Ta40 2.154822 1_555
N37 Ta42 2.347261 1_556
N37 Ta24 2.382397 1_555
N38 Ta36 2.102177 1_555
N38 Ta21 2.155811 1_555
N38 Ta7 2.157285 1_555
N38 Ta40 2.158705 1_554
N38 Ta15 2.212613 1_555
N39 Ta36 2.040150 1_556
N39 Ta43 2.087339 1_555
N39 Ta45 2.111935 1_555
N39 Ta44 2.178588 1_555
N40 Ta9 2.067459 1_555
N40 Ta34 2.095128 1_565
N40 Ta17 2.139967 1_555
N40 Ta12 2.140634 1_555
N41 Ta42 2.080036 1_655
N41 Ta9 2.216467 1_545
N41 Ta19 2.321219 1_555
N41 Ta34 2.323250 1_555
N41 Ta8 2.512641 1_554
N42 Ta21 2.064630 1_556
N42 Ta44 2.093031 1_555
N42 Ta45 2.138303 1_555
N42 Ta41 2.205811 1_555
N42 Ta1 2.670172 1_556
N43 Ta36 2.098070 1_555
N43 Ta34 2.138871 1_555
N43 Ta29 2.141574 1_554
N43 Ta8 2.177526 1_554
N43 Ta25 2.243991 1_555
N44 Ta28 2.052722 1_555
N44 Ta24 2.054915 1_555
N44 Ta44 2.099733 1_555
N44 Ta48 2.101407 1_555
N45 Ta30 2.084596 1_555
N45 Ta35 2.110553 1_555
N45 Ta14 2.144206 1_555
N45 Ta16 2.213629 1_555
N45 Ta26 2.321374 1_555
N45 Ta31 2.424060 1_555
N46 Ta26 2.102703 1_555
N46 Ta9 2.163893 1_545
N46 Ta11 2.168254 1_645
N46 Ta46 2.210277 1_555
N46 Ta48 2.311770 1_655
N47 Ta45 2.001930 1_554
N47 Ta33 2.009734 1_555
N47 Ta2 2.083415 1_555
N47 Ta23 2.267084 1_554
N48 Ta23 2.164547 1_555
N48 Ta38 2.170632 1_555
N48 Ta17 2.192497 1_556
N48 Ta34 2.212376 1_566
N48 Ta29 2.321954 1_565
N49 Ta24 2.047869 1_565
N49 Ta22 2.065817 1_555
N49 Ta49 2.103154 1_555
N49 Ta11 2.126498 1_555
N49 Ta6 2.165091 1_565
