# generated using pymatgen
data_CrO
_symmetry_space_group_name_H-M   'P 1'
_cell_length_a   3.09930201
_cell_length_b   6.62094796
_cell_length_c   6.37632104
_cell_angle_alpha   61.40931254
_cell_angle_beta   88.41399618
_cell_angle_gamma   113.52460888
_symmetry_Int_Tables_number   1
_chemical_formula_structural   CrO
_chemical_formula_sum   'Cr4 O4'
_cell_volume   101.37982725
_cell_formula_units_Z   4
loop_
 _symmetry_equiv_pos_site_id
 _symmetry_equiv_pos_as_xyz
  1  'x, y, z'
loop_
 _atom_site_type_symbol
 _atom_site_label
 _atom_site_symmetry_multiplicity
 _atom_site_fract_x
 _atom_site_fract_y
 _atom_site_fract_z
 _atom_site_occupancy
  Cr  Cr0  1  0.60051000  0.50052200  0.89990300  1
  Cr  Cr1  1  0.09975400  0.49977300  0.40003300  1
  Cr  Cr2  1  0.10023000  0.00019100  0.90022500  1
  Cr  Cr3  1  0.59985200  0.00006900  0.39988600  1
  O  O0  1  0.99529600  0.39292000  0.14601000  1
  O  O1  1  0.49497600  0.89260400  0.14634900  1
  O  O2  1  0.70452400  0.10685700  0.65396900  1
  O  O3  1  0.20475700  0.60716800  0.65362600  1
loop_
_geom_bond_atom_site_label_1
_geom_bond_atom_site_label_2
_geom_bond_distance
_geom_bond_site_symmetry_2
Cr0 O0 2.046655 1_456
Cr0 O3 2.047456 1_655
Cr0 O0 2.049233 1_556
Cr0 O3 2.050789 1_555
Cr1 O3 2.042307 1_555
Cr1 O0 2.042496 1_455
Cr1 O1 2.049902 1_555
Cr1 O2 2.050537 1_455
Cr2 O1 2.046849 1_446
Cr2 O2 2.047437 1_555
Cr2 O1 2.049184 1_546
Cr2 O2 2.050625 1_455
Cr3 O1 2.042254 1_545
Cr3 O2 2.042608 1_555
Cr3 O3 2.050236 1_545
Cr3 O0 2.050239 1_555
