# generated using pymatgen
data_Rb
_symmetry_space_group_name_H-M   'P 1'
_cell_length_a   10.05265642
_cell_length_b   10.06975259
_cell_length_c   10.70868731
_cell_angle_alpha   57.91731825
_cell_angle_beta   58.09785443
_cell_angle_gamma   64.16617902
_symmetry_Int_Tables_number   1
_chemical_formula_structural   Rb
_chemical_formula_sum   Rb8
_cell_volume   761.40018218
_cell_formula_units_Z   8
loop_
 _symmetry_equiv_pos_site_id
 _symmetry_equiv_pos_as_xyz
  1  'x, y, z'
loop_
 _atom_site_type_symbol
 _atom_site_label
 _atom_site_symmetry_multiplicity
 _atom_site_fract_x
 _atom_site_fract_y
 _atom_site_fract_z
 _atom_site_occupancy
  Rb  Rb0  1  0.50104615  0.62627985  0.12314141  1
  Rb  Rb1  1  0.00313380  0.13005511  0.12560951  1
  Rb  Rb2  1  0.49974529  0.13107938  0.61849854  1
  Rb  Rb3  1  0.50091447  0.12586522  0.12164243  1
  Rb  Rb4  1  0.49733264  0.63160661  0.62677706  1
  Rb  Rb5  1  0.00317270  0.62612290  0.62462445  1
  Rb  Rb6  1  0.99436119  0.12442168  0.63294041  1
  Rb  Rb7  1  0.99883178  0.62553425  0.13053919  1
loop_
_geom_bond_atom_site_label_1
_geom_bond_atom_site_label_2
_geom_bond_distance
_geom_bond_site_symmetry_2
Rb0 Rb2 4.988894 1_555
Rb0 Rb7 5.010415 1_455
Rb0 Rb3 5.021618 1_565
Rb0 Rb7 5.043079 1_555
Rb0 Rb5 5.047632 1_555
Rb0 Rb3 5.048174 1_555
Rb0 Rb5 5.049670 1_654
Rb0 Rb2 5.087129 1_564
Rb0 Rb4 5.306879 1_554
Rb0 Rb1 5.335251 1_655
Rb0 Rb1 5.353654 1_565
Rb0 Rb4 5.402265 1_555
Rb1 Rb3 4.963567 1_555
Rb1 Rb7 4.998762 1_455
Rb1 Rb2 5.024814 1_455
Rb1 Rb5 5.026535 1_554
Rb1 Rb5 5.049849 1_545
Rb1 Rb7 5.071419 1_445
Rb1 Rb2 5.073885 1_554
Rb1 Rb3 5.089850 1_455
Rb1 Rb6 5.353459 1_454
Rb1 Rb6 5.356997 1_455
Rb2 Rb4 4.993534 1_545
Rb2 Rb6 5.026176 1_555
Rb2 Rb6 5.029393 1_455
Rb2 Rb4 5.077180 1_555
Rb2 Rb5 5.299713 1_555
Rb2 Rb3 5.342530 1_555
Rb2 Rb3 5.366510 1_556
Rb2 Rb5 5.388922 1_645
Rb3 Rb6 4.957248 1_554
Rb3 Rb4 5.038270 1_545
Rb3 Rb4 5.039139 1_554
Rb3 Rb6 5.140125 1_455
Rb3 Rb7 5.335017 1_545
Rb3 Rb7 5.354300 1_455
Rb4 Rb5 5.004226 1_555
Rb4 Rb7 5.041768 1_555
Rb4 Rb5 5.049150 1_655
Rb4 Rb7 5.055881 1_456
Rb4 Rb6 5.321983 1_465
Rb4 Rb6 5.366896 1_555
Rb5 Rb6 5.027178 1_465
Rb5 Rb6 5.044037 1_455
Rb5 Rb7 5.317353 1_455
Rb5 Rb7 5.391610 1_456
Rb6 Rb7 5.025269 1_546
Rb6 Rb7 5.051032 1_555
