# generated using pymatgen
data_Rb2ReF6
_symmetry_space_group_name_H-M   'P 1'
_cell_length_a   6.02278263
_cell_length_b   6.02300027
_cell_length_c   4.70936199
_cell_angle_alpha   90.00070059
_cell_angle_beta   89.99962109
_cell_angle_gamma   120.00037858
_symmetry_Int_Tables_number   1
_chemical_formula_structural   Rb2ReF6
_chemical_formula_sum   'Rb2 Re1 F6'
_cell_volume   147.94528246
_cell_formula_units_Z   1
loop_
 _symmetry_equiv_pos_site_id
 _symmetry_equiv_pos_as_xyz
  1  'x, y, z'
loop_
 _atom_site_type_symbol
 _atom_site_label
 _atom_site_symmetry_multiplicity
 _atom_site_fract_x
 _atom_site_fract_y
 _atom_site_fract_z
 _atom_site_occupancy
  Rb  Rb0  1  0.33331828  0.66666654  0.29408994  1
  Rb  Rb1  1  0.66664924  0.33333177  0.70590151  1
  Re  Re0  1  -0.00002145  0.00001250  -0.00002111  1
  F  F0  1  0.84038696  0.15962540  0.22540728  1
  F  F1  1  0.15962917  0.84033785  0.77465919  1
  F  F2  1  0.84038719  0.68075153  0.22535148  1
  F  F3  1  0.15964370  0.31926541  0.77463007  1
  F  F4  1  0.31928277  0.15964111  0.22537291  1
  F  F5  1  0.68072413  0.84036689  0.77460772  1
loop_
_geom_bond_atom_site_label_1
_geom_bond_atom_site_label_2
_geom_bond_distance
_geom_bond_site_symmetry_2
F0 Re0 1.974619 1_655
F0 F3 2.698050 1_654
F0 F5 2.698163 1_544
F0 Rb1 2.899064 1_555
F0 Rb0 3.029562 1_655
F0 Rb0 3.029724 1_545
F0 Rb1 3.044661 1_554
F1 Re0 1.974875 1_566
F1 F2 2.697688 1_456
F1 F4 2.697989 1_566
F1 Rb0 2.899067 1_555
F1 Rb1 3.029630 1_455
F1 Rb1 3.029711 1_565
F1 Rb0 3.044117 1_556
F2 Re0 1.974762 1_665
F2 F5 2.698036 1_554
F2 Rb1 2.899234 1_555
F2 Rb0 3.029477 1_655
F2 Rb0 3.029785 1_555
F2 Rb1 3.044356 1_554
F3 Re0 1.974667 1_556
F3 F4 2.697984 1_556
F3 Rb0 2.899136 1_555
F3 Rb1 3.029455 1_555
F3 Rb1 3.029794 1_455
F3 Rb0 3.044336 1_556
F4 Re0 1.974947 1_555
F4 Rb1 2.898926 1_555
F4 Rb0 3.029679 1_545
F4 Rb0 3.029765 1_555
F4 Rb1 3.044247 1_554
F5 Re0 1.974671 1_666
F5 Rb0 2.899015 1_555
F5 Rb1 3.029705 1_555
F5 Rb1 3.029739 1_565
F5 Rb0 3.044410 1_556
