# generated using pymatgen
data_KNaMg6O7
_symmetry_space_group_name_H-M   'P 1'
_cell_length_a   4.24669700
_cell_length_b   4.24669700
_cell_length_c   10.98812200
_cell_angle_alpha   90.00000000
_cell_angle_beta   90.00000000
_cell_angle_gamma   90.00000000
_symmetry_Int_Tables_number   1
_chemical_formula_structural   KNaMg6O7
_chemical_formula_sum   'K1 Na1 Mg6 O7'
_cell_volume   198.16457648
_cell_formula_units_Z   1
loop_
 _symmetry_equiv_pos_site_id
 _symmetry_equiv_pos_as_xyz
  1  'x, y, z'
loop_
 _atom_site_type_symbol
 _atom_site_label
 _atom_site_symmetry_multiplicity
 _atom_site_fract_x
 _atom_site_fract_y
 _atom_site_fract_z
 _atom_site_occupancy
  K  K0  1  0.00000000  0.00000000  0.96412700  1
  Na  Na0  1  0.00000000  0.00000000  0.48476800  1
  Mg  Mg0  1  0.50000000  0.50000000  0.08239000  1
  Mg  Mg1  1  0.50000000  0.50000000  0.49428400  1
  Mg  Mg2  1  0.00000000  0.50000000  0.28095800  1
  Mg  Mg3  1  0.00000000  0.50000000  0.67318700  1
  Mg  Mg4  1  0.50000000  0.00000000  0.28095800  1
  Mg  Mg5  1  0.50000000  0.00000000  0.67318700  1
  O  O0  1  0.00000000  0.00000000  0.28372500  1
  O  O1  1  0.00000000  0.00000000  0.70653500  1
  O  O2  1  0.50000000  0.50000000  0.68039100  1
  O  O3  1  0.00000000  0.50000000  0.09778800  1
  O  O4  1  0.00000000  0.50000000  0.47495600  1
  O  O5  1  0.50000000  0.00000000  0.09778800  1
  O  O6  1  0.50000000  0.00000000  0.47495600  1
loop_
_geom_bond_atom_site_label_1
_geom_bond_atom_site_label_2
_geom_bond_distance
_geom_bond_site_symmetry_2
K0 O5 2.581790 1_456
K0 O5 2.581790 1_556
K0 O3 2.581790 1_546
K0 O3 2.581790 1_556
K0 O1 2.830452 1_555
Na0 O4 2.126084 1_555
Na0 O6 2.126084 1_455
Na0 O4 2.126084 1_545
Na0 O6 2.126084 1_555
Na0 O0 2.209085 1_555
Na0 O1 2.436803 1_555
Mg0 O5 2.130079 1_555
Mg0 O3 2.130079 1_655
Mg0 O5 2.130079 1_565
Mg0 O3 2.130079 1_555
Mg1 O2 2.044966 1_555
Mg1 O6 2.133943 1_555
Mg1 O6 2.133943 1_565
Mg1 O4 2.133943 1_555
Mg1 O4 2.133943 1_655
Mg2 O3 2.012694 1_555
Mg2 O0 2.123566 1_555
Mg2 O0 2.123566 1_565
Mg2 O4 2.131674 1_555
Mg3 O2 2.124824 1_455
Mg3 O2 2.124824 1_555
Mg3 O1 2.154735 1_555
Mg3 O1 2.154735 1_565
Mg3 O4 2.178186 1_555
Mg4 O5 2.012694 1_555
Mg4 O0 2.123566 1_555
Mg4 O0 2.123566 1_655
Mg4 O6 2.131674 1_555
Mg5 O2 2.124824 1_545
Mg5 O2 2.124824 1_555
Mg5 O1 2.154735 1_555
Mg5 O1 2.154735 1_655
Mg5 O6 2.178186 1_555
