# generated using pymatgen
data_ErNi4B
_symmetry_space_group_name_H-M   'P 1'
_cell_length_a   4.90776271
_cell_length_b   4.90776192
_cell_length_c   6.87171746
_cell_angle_alpha   90.00000000
_cell_angle_beta   90.00000000
_cell_angle_gamma   120.00000538
_symmetry_Int_Tables_number   1
_chemical_formula_structural   ErNi4B
_chemical_formula_sum   'Er2 Ni8 B2'
_cell_volume   143.33852989
_cell_formula_units_Z   2
loop_
 _symmetry_equiv_pos_site_id
 _symmetry_equiv_pos_as_xyz
  1  'x, y, z'
loop_
 _atom_site_type_symbol
 _atom_site_label
 _atom_site_symmetry_multiplicity
 _atom_site_fract_x
 _atom_site_fract_y
 _atom_site_fract_z
 _atom_site_occupancy
  Er  Er0  1  0.00000000  -0.00000000  0.50000000  1
  Er  Er1  1  0.00000000  -0.00000000  0.00000000  1
  Ni  Ni0  1  0.33333300  0.66666700  0.00000000  1
  Ni  Ni1  1  0.66666700  0.33333300  0.00000000  1
  Ni  Ni2  1  0.50000000  -0.00000000  0.29102227  1
  Ni  Ni3  1  0.50000000  0.50000000  0.29102227  1
  Ni  Ni4  1  0.00000000  0.50000000  0.29102227  1
  Ni  Ni5  1  0.50000000  -0.00000000  0.70897773  1
  Ni  Ni6  1  0.50000000  0.50000000  0.70897773  1
  Ni  Ni7  1  0.00000000  0.50000000  0.70897773  1
  B  B0  1  0.66666700  0.33333300  0.50000000  1
  B  B1  1  0.33333300  0.66666700  0.50000000  1
loop_
_geom_bond_atom_site_label_1
_geom_bond_atom_site_label_2
_geom_bond_distance
_geom_bond_site_symmetry_2
Er0 Ni6 2.843190 1_555
Er0 Ni3 2.843190 1_445
Er0 Ni6 2.843190 1_445
Er0 Ni3 2.843190 1_555
Er0 Ni7 2.843190 1_555
Er0 Ni4 2.843190 1_555
Er0 Ni4 2.843190 1_545
Er0 Ni7 2.843190 1_545
Er0 Ni5 2.843191 1_455
Er0 Ni2 2.843191 1_555
Er0 Ni2 2.843191 1_455
Er0 Ni5 2.843191 1_555
Er0 Er1 3.435859 1_555
Er0 Er1 3.435859 1_556
Er1 Ni0 2.833495 1_545
Er1 Ni1 2.833495 1_455
Er1 Ni0 2.833499 1_555
Er1 Ni1 2.833499 1_445
Er1 Ni0 2.833499 1_445
Er1 Ni1 2.833499 1_555
Er1 Ni3 3.165568 1_555
Er1 Ni6 3.165568 1_444
Er1 Ni3 3.165568 1_445
Er1 Ni6 3.165568 1_554
Er1 Ni4 3.165568 1_545
Er1 Ni7 3.165568 1_554
Er1 Ni7 3.165568 1_544
Er1 Ni4 3.165568 1_555
Er1 Ni5 3.165569 1_554
Er1 Ni5 3.165569 1_454
Er1 Ni2 3.165569 1_555
Er1 Ni2 3.165569 1_455
Ni0 Ni2 2.450809 1_565
Ni0 Ni5 2.450809 1_564
Ni0 Ni4 2.450809 1_555
Ni0 Ni7 2.450809 1_554
Ni0 Ni3 2.450811 1_555
Ni0 Ni6 2.450811 1_554
Ni0 Ni1 2.833495 1_565
Ni0 Ni1 2.833495 1_455
Ni0 Ni1 2.833504 1_555
Ni1 Ni5 2.450809 1_554
Ni1 Ni2 2.450809 1_555
Ni1 Ni4 2.450809 1_655
Ni1 Ni7 2.450809 1_654
Ni1 Ni3 2.450811 1_555
Ni1 Ni6 2.450811 1_554
Ni2 Ni4 2.453881 1_655
Ni2 Ni4 2.453881 1_545
Ni2 Ni3 2.453881 1_555
Ni2 Ni3 2.453881 1_545
Ni3 Ni4 2.453881 1_655
Ni3 Ni4 2.453881 1_555
Ni5 Ni7 2.453881 1_545
Ni5 Ni7 2.453881 1_655
Ni5 Ni6 2.453881 1_545
Ni5 Ni6 2.453881 1_555
Ni6 Ni7 2.453881 1_655
Ni6 Ni7 2.453881 1_555
B0 Ni5 2.017268 1_555
B0 Ni2 2.017268 1_555
B0 Ni7 2.017269 1_655
B0 Ni4 2.017269 1_655
B0 Ni6 2.017272 1_555
B0 Ni3 2.017272 1_555
B0 Er0 2.833495 1_655
B0 Er0 2.833499 1_665
B0 Er0 2.833499 1_555
B1 Ni5 2.017268 1_565
B1 Ni2 2.017268 1_565
B1 Ni7 2.017269 1_555
B1 Ni4 2.017269 1_555
B1 Ni3 2.017272 1_555
B1 Ni6 2.017272 1_555
B1 Er0 2.833495 1_565
B1 Er0 2.833499 1_555
B1 Er0 2.833499 1_665
