# generated using pymatgen
data_Mg14AlCr
_symmetry_space_group_name_H-M   'P 1'
_cell_length_a   6.26619628
_cell_length_b   6.25645934
_cell_length_c   10.28677842
_cell_angle_alpha   90.00000000
_cell_angle_beta   90.00000000
_cell_angle_gamma   119.94861645
_symmetry_Int_Tables_number   1
_chemical_formula_structural   Mg14AlCr
_chemical_formula_sum   'Mg14 Al1 Cr1'
_cell_volume   349.43569924
_cell_formula_units_Z   1
loop_
 _symmetry_equiv_pos_site_id
 _symmetry_equiv_pos_as_xyz
  1  'x, y, z'
loop_
 _atom_site_type_symbol
 _atom_site_label
 _atom_site_symmetry_multiplicity
 _atom_site_fract_x
 _atom_site_fract_y
 _atom_site_fract_z
 _atom_site_occupancy
  Mg  Mg0  1  0.16734908  0.33367404  0.62500000  1
  Mg  Mg1  1  0.16765583  0.83382742  0.62500000  1
  Mg  Mg2  1  0.66858299  0.33525369  0.12500000  1
  Mg  Mg3  1  0.66581370  0.33266383  0.62500000  1
  Mg  Mg4  1  0.66858299  0.83332830  0.12500000  1
  Mg  Mg5  1  0.66581370  0.83314887  0.62500000  1
  Mg  Mg6  1  0.32915406  0.16435730  0.36653677  1
  Mg  Mg7  1  0.32915406  0.16435730  0.88346323  1
  Mg  Mg8  1  0.32915406  0.66479776  0.36653677  1
  Mg  Mg9  1  0.32915406  0.66479776  0.88346323  1
  Mg  Mg10  1  0.83713701  0.16856900  0.37207841  1
  Mg  Mg11  1  0.83713701  0.16856900  0.87792159  1
  Mg  Mg12  1  0.83734955  0.66867528  0.37183246  1
  Mg  Mg13  1  0.83734955  0.66867528  0.87816754  1
  Al  Al0  1  0.16549121  0.33274510  0.12500000  1
  Cr  Cr0  1  0.16512115  0.83256008  0.12500000  1
loop_
_geom_bond_atom_site_label_1
_geom_bond_atom_site_label_2
_geom_bond_distance
_geom_bond_site_symmetry_2
Mg0 Mg5 3.126637 1_555
Mg0 Mg3 3.126637 1_555
Mg0 Mg1 3.128230 1_545
Mg0 Mg1 3.128230 1_555
Mg0 Mg5 3.139568 1_445
Mg0 Mg3 3.139569 1_455
Mg0 Mg10 3.159672 1_455
Mg0 Mg11 3.159672 1_455
Mg0 Mg6 3.208039 1_555
Mg0 Mg7 3.208039 1_555
Mg0 Mg8 3.208045 1_555
Mg0 Mg9 3.208045 1_555
Mg1 Mg3 3.123676 1_565
Mg1 Mg5 3.123677 1_555
Mg1 Mg3 3.142524 1_455
Mg1 Mg5 3.142524 1_455
Mg1 Mg12 3.162046 1_455
Mg1 Mg13 3.162046 1_455
Mg1 Mg8 3.206240 1_555
Mg1 Mg9 3.206240 1_555
Mg1 Mg6 3.206246 1_565
Mg1 Mg7 3.206246 1_565
Mg2 Mg7 3.093517 1_554
Mg2 Mg6 3.093517 1_555
Mg2 Mg4 3.116184 1_555
Mg2 Mg4 3.140276 1_545
Mg3 Mg5 3.125195 1_545
Mg3 Mg5 3.131264 1_555
Mg3 Mg6 3.226478 1_555
Mg3 Mg7 3.226478 1_555
Mg4 Mg9 3.093517 1_554
Mg4 Mg8 3.093517 1_555
Mg5 Mg8 3.226478 1_555
Mg5 Mg9 3.226478 1_555
Mg6 Mg8 3.125474 1_545
Mg6 Mg8 3.130985 1_555
Mg7 Mg9 3.125474 1_545
Mg7 Mg9 3.130985 1_555
Mg10 Mg8 3.096839 1_655
Mg10 Mg6 3.096839 1_655
Mg10 Mg2 3.124544 1_555
Mg10 Mg4 3.124550 1_545
Mg10 Mg12 3.128231 1_545
Mg10 Mg12 3.128231 1_555
Mg10 Mg8 3.170561 1_545
Mg10 Mg6 3.170561 1_555
Mg10 Mg3 3.174280 1_555
Mg10 Mg5 3.174286 1_545
Mg11 Mg9 3.096839 1_655
Mg11 Mg7 3.096839 1_655
Mg11 Mg2 3.124544 1_556
Mg11 Mg4 3.124550 1_546
Mg11 Mg13 3.128231 1_545
Mg11 Mg13 3.128231 1_555
Mg11 Mg9 3.170561 1_545
Mg11 Mg7 3.170561 1_555
Mg11 Mg3 3.174280 1_555
Mg11 Mg5 3.174286 1_545
Mg12 Mg6 3.094405 1_665
Mg12 Mg8 3.094405 1_655
Mg12 Mg4 3.116785 1_555
Mg12 Mg2 3.116792 1_555
Mg12 Mg6 3.172879 1_555
Mg12 Mg8 3.172879 1_555
Mg12 Mg5 3.178186 1_555
Mg12 Mg3 3.178192 1_555
Mg13 Mg7 3.094405 1_665
Mg13 Mg9 3.094405 1_655
Mg13 Mg4 3.116785 1_556
Mg13 Mg2 3.116792 1_556
Mg13 Mg7 3.172879 1_555
Mg13 Mg9 3.172879 1_555
Mg13 Mg5 3.178186 1_555
Mg13 Mg3 3.178192 1_555
Al0 Mg7 3.068189 1_554
Al0 Mg6 3.068189 1_555
Al0 Mg9 3.068195 1_554
Al0 Mg8 3.068195 1_555
Al0 Mg11 3.104562 1_454
Al0 Mg10 3.104562 1_455
Al0 Mg4 3.121589 1_445
Al0 Mg2 3.121589 1_455
Al0 Cr0 3.128230 1_545
Al0 Cr0 3.128230 1_555
Al0 Mg4 3.144666 1_555
Al0 Mg2 3.144666 1_555
Cr0 Mg9 3.067366 1_554
Cr0 Mg8 3.067366 1_555
Cr0 Mg7 3.067373 1_564
Cr0 Mg6 3.067373 1_565
Cr0 Mg13 3.100674 1_454
Cr0 Mg12 3.100674 1_455
Cr0 Mg2 3.113808 1_455
Cr0 Mg4 3.113808 1_455
Cr0 Mg2 3.152394 1_565
Cr0 Mg4 3.152394 1_555
