# generated using pymatgen
data_TaAsO5
_symmetry_space_group_name_H-M   'P 1'
_cell_length_a   5.51991689
_cell_length_b   11.68113377
_cell_length_c   6.88135014
_cell_angle_alpha   90.00000000
_cell_angle_beta   90.00000000
_cell_angle_gamma   90.00000000
_symmetry_Int_Tables_number   1
_chemical_formula_structural   TaAsO5
_chemical_formula_sum   'Ta4 As4 O20'
_cell_volume   443.70180215
_cell_formula_units_Z   4
loop_
 _symmetry_equiv_pos_site_id
 _symmetry_equiv_pos_as_xyz
  1  'x, y, z'
loop_
 _atom_site_type_symbol
 _atom_site_label
 _atom_site_symmetry_multiplicity
 _atom_site_fract_x
 _atom_site_fract_y
 _atom_site_fract_z
 _atom_site_occupancy
  Ta  Ta0  1  0.75000000  0.94116600  0.83907012  1
  Ta  Ta1  1  0.25000000  0.05883400  0.16092988  1
  Ta  Ta2  1  0.25000000  0.55883400  0.33907012  1
  Ta  Ta3  1  0.75000000  0.44116600  0.66092988  1
  As  As0  1  0.75000000  0.15406557  0.47229118  1
  As  As1  1  0.25000000  0.84593443  0.52770882  1
  As  As2  1  0.25000000  0.34593443  0.97229118  1
  As  As3  1  0.75000000  0.65406557  0.02770882  1
  O  O0  1  0.75000000  0.79553956  0.98281708  1
  O  O1  1  0.25000000  0.20446044  0.01718292  1
  O  O2  1  0.25000000  0.70446044  0.48281708  1
  O  O3  1  0.75000000  0.29553956  0.51718292  1
  O  O4  1  0.50150291  0.87738430  0.65174822  1
  O  O5  1  0.49849709  0.12261570  0.34825178  1
  O  O6  1  0.49849709  0.62261570  0.15174822  1
  O  O7  1  0.00150291  0.12261570  0.34825178  1
  O  O8  1  0.50150291  0.37738430  0.84825178  1
  O  O9  1  -0.00150291  0.87738430  0.65174822  1
  O  O10  1  -0.00150291  0.37738430  0.84825178  1
  O  O11  1  0.00150291  0.62261570  0.15174822  1
  O  O12  1  0.75000000  0.58638911  0.81215359  1
  O  O13  1  0.25000000  0.41361089  0.18784641  1
  O  O14  1  0.25000000  0.91361089  0.31215359  1
  O  O15  1  0.75000000  0.08638911  0.68784641  1
  O  O16  1  0.00000000  -0.00000000  -0.00000000  1
  O  O17  1  0.00000000  0.50000000  0.50000000  1
  O  O18  1  0.50000000  -0.00000000  -0.00000000  1
  O  O19  1  0.50000000  0.50000000  0.50000000  1
loop_
_geom_bond_atom_site_label_1
_geom_bond_atom_site_label_2
_geom_bond_distance
_geom_bond_site_symmetry_2
As0 O7 1.670578 1_655
As0 O5 1.670578 1_555
As0 O15 1.680822 1_555
As0 O3 1.681201 1_555
As1 O9 1.670578 1_555
As1 O4 1.670578 1_555
As1 O14 1.680822 1_555
As1 O2 1.681201 1_555
As2 O8 1.670578 1_555
As2 O10 1.670578 1_555
As2 O13 1.680822 1_556
As2 O1 1.681201 1_556
As3 O11 1.670578 1_655
As3 O6 1.670578 1_555
As3 O12 1.680822 1_554
As3 O0 1.681201 1_554
O0 Ta0 1.967776 1_555
O1 Ta1 1.967776 1_555
O2 Ta2 1.967776 1_555
O3 Ta3 1.967776 1_555
O4 Ta0 2.024400 1_555
O5 Ta1 2.024400 1_555
O6 Ta2 2.024400 1_555
O7 Ta1 2.024400 1_555
O8 Ta3 2.024400 1_555
O9 Ta0 2.024400 1_455
O10 Ta3 2.024400 1_455
O11 Ta2 2.024400 1_555
O12 Ta3 1.990118 1_555
O13 Ta2 1.990118 1_555
O14 Ta1 1.990118 1_565
O15 Ta0 1.990118 1_545
O16 Ta1 1.898162 1_555
O16 Ta0 1.898162 1_444
O17 Ta2 1.898162 1_555
O17 Ta3 1.898162 1_455
O18 Ta1 1.898162 1_555
O18 Ta0 1.898162 1_544
O19 Ta2 1.898162 1_555
O19 Ta3 1.898162 1_555
