# generated using pymatgen
data_RbHoSe2
_symmetry_space_group_name_H-M   'P 1'
_cell_length_a   16.59525216
_cell_length_b   16.59525216
_cell_length_c   16.59525279
_cell_angle_alpha   29.32957974
_cell_angle_beta   29.32957974
_cell_angle_gamma   29.32958321
_symmetry_Int_Tables_number   1
_chemical_formula_structural   RbHoSe2
_chemical_formula_sum   'Rb8 Ho8 Se16'
_cell_volume   970.39093749
_cell_formula_units_Z   8
loop_
 _symmetry_equiv_pos_site_id
 _symmetry_equiv_pos_as_xyz
  1  'x, y, z'
loop_
 _atom_site_type_symbol
 _atom_site_label
 _atom_site_symmetry_multiplicity
 _atom_site_fract_x
 _atom_site_fract_y
 _atom_site_fract_z
 _atom_site_occupancy
  Rb  Rb0_0  1  0.00000000  0.00000000  0.00000000  1
  Rb  Rb0_1  1  0.00000000  0.00000000  0.50000000  1
  Rb  Rb0_2  1  0.00000000  0.50000000  0.00000000  1
  Rb  Rb0_3  1  0.00000000  0.50000000  0.50000000  1
  Rb  Rb0_4  1  0.50000000  0.00000000  0.00000000  1
  Rb  Rb0_5  1  0.50000000  0.00000000  0.50000000  1
  Rb  Rb0_6  1  0.50000000  0.50000000  0.00000000  1
  Rb  Rb0_7  1  0.50000000  0.50000000  0.50000000  1
  Ho  Ho0_0  1  0.25000000  0.25000000  0.25000000  1
  Ho  Ho0_1  1  0.25000000  0.25000000  0.75000000  1
  Ho  Ho0_2  1  0.25000000  0.75000000  0.25000000  1
  Ho  Ho0_3  1  0.25000000  0.75000000  0.75000000  1
  Ho  Ho0_4  1  0.75000000  0.25000000  0.25000000  1
  Ho  Ho0_5  1  0.75000000  0.25000000  0.75000000  1
  Ho  Ho0_6  1  0.75000000  0.75000000  0.25000000  1
  Ho  Ho0_7  1  0.75000000  0.75000000  0.75000000  1
  Se  Se0_0  1  0.11579309  0.11579309  0.11579309  1
  Se  Se0_1  1  0.11579309  0.11579309  0.61579309  1
  Se  Se0_2  1  0.11579309  0.61579309  0.11579309  1
  Se  Se0_3  1  0.11579309  0.61579309  0.61579309  1
  Se  Se0_4  1  0.61579309  0.11579309  0.11579309  1
  Se  Se0_5  1  0.61579309  0.11579309  0.61579309  1
  Se  Se0_6  1  0.61579309  0.61579309  0.11579309  1
  Se  Se0_7  1  0.61579309  0.61579309  0.61579309  1
  Se  Se1_0  1  0.38420691  0.38420691  0.38420691  1
  Se  Se1_1  1  0.38420691  0.38420691  0.88420691  1
  Se  Se1_2  1  0.38420691  0.88420691  0.38420691  1
  Se  Se1_3  1  0.38420691  0.88420691  0.88420691  1
  Se  Se1_4  1  0.88420691  0.38420691  0.38420691  1
  Se  Se1_5  1  0.88420691  0.38420691  0.88420691  1
  Se  Se1_6  1  0.88420691  0.88420691  0.38420691  1
  Se  Se1_7  1  0.88420691  0.88420691  0.88420691  1
loop_
_geom_bond_atom_site_label_1
_geom_bond_atom_site_label_2
_geom_bond_distance
_geom_bond_site_symmetry_2
Rb0_0 Se0_2 3.427893 1_545
Rb0_0 Se0_4 3.427893 1_455
Rb0_0 Se1_3 3.427893 1_544
Rb0_0 Se1_5 3.427893 1_454
Rb0_0 Se0_1 3.427893 1_554
Rb0_0 Se1_6 3.427893 1_445
Rb0_0 Rb0_5 4.201312 1_455
Rb0_0 Rb0_3 4.201312 1_545
Rb0_0 Rb0_5 4.201312 1_554
Rb0_0 Rb0_3 4.201312 1_554
Rb0_0 Rb0_6 4.201312 1_455
Rb0_0 Rb0_6 4.201312 1_545
Rb0_1 Se0_3 3.427893 1_545
Rb0_1 Se1_2 3.427893 1_545
Rb0_1 Se0_5 3.427893 1_455
Rb0_1 Se1_4 3.427893 1_455
Rb0_1 Se0_0 3.427893 1_555
Rb0_1 Se1_7 3.427893 1_445
Rb0_1 Rb0_4 4.201312 1_555
Rb0_1 Rb0_4 4.201312 1_456
Rb0_1 Rb0_2 4.201312 1_555
Rb0_1 Rb0_2 4.201312 1_546
Rb0_1 Rb0_7 4.201312 1_545
Rb0_1 Rb0_7 4.201312 1_455
Rb0_2 Se0_6 3.427893 1_455
Rb0_2 Se0_0 3.427893 1_555
Rb0_2 Se1_1 3.427893 1_554
Rb0_2 Se1_7 3.427893 1_454
Rb0_2 Se0_3 3.427893 1_554
Rb0_2 Se1_4 3.427893 1_455
Rb0_2 Rb0_7 4.201312 1_554
Rb0_2 Rb0_7 4.201312 1_455
Rb0_2 Rb0_4 4.201312 1_465
Rb0_2 Rb0_4 4.201312 1_555
Rb0_3 Se0_7 3.427893 1_455
Rb0_3 Se0_1 3.427893 1_555
Rb0_3 Se1_0 3.427893 1_555
Rb0_3 Se1_6 3.427893 1_455
Rb0_3 Se0_2 3.427893 1_555
Rb0_3 Se1_5 3.427893 1_455
Rb0_3 Rb0_6 4.201312 1_555
Rb0_3 Rb0_6 4.201312 1_456
Rb0_3 Rb0_5 4.201312 1_555
Rb0_3 Rb0_5 4.201312 1_465
Rb0_4 Se0_6 3.427893 1_545
Rb0_4 Se0_0 3.427893 1_555
Rb0_4 Se1_1 3.427893 1_554
Rb0_4 Se1_7 3.427893 1_544
Rb0_4 Se0_5 3.427893 1_554
Rb0_4 Se1_2 3.427893 1_545
Rb0_4 Rb0_7 4.201312 1_554
Rb0_4 Rb0_7 4.201312 1_545
Rb0_5 Se0_7 3.427893 1_545
Rb0_5 Se1_0 3.427893 1_555
Rb0_5 Se0_1 3.427893 1_555
Rb0_5 Se1_6 3.427893 1_545
Rb0_5 Se0_4 3.427893 1_555
Rb0_5 Se1_3 3.427893 1_545
Rb0_5 Rb0_6 4.201312 1_546
Rb0_5 Rb0_6 4.201312 1_555
Rb0_6 Se0_2 3.427893 1_555
Rb0_6 Se0_4 3.427893 1_555
Rb0_6 Se1_3 3.427893 1_554
Rb0_6 Se1_5 3.427893 1_554
Rb0_6 Se0_7 3.427893 1_554
Rb0_6 Se1_0 3.427893 1_555
Rb0_7 Se0_3 3.427893 1_555
Rb0_7 Se0_5 3.427893 1_555
Rb0_7 Se1_2 3.427893 1_555
Rb0_7 Se1_4 3.427893 1_555
Rb0_7 Se0_6 3.427893 1_555
Rb0_7 Se1_1 3.427893 1_555
Ho0_0 Se1_4 2.876120 1_455
Ho0_0 Se1_2 2.876120 1_545
Ho0_0 Se0_4 2.876120 1_555
Ho0_0 Se0_2 2.876120 1_555
Ho0_0 Se1_1 2.876120 1_554
Ho0_0 Se0_1 2.876120 1_555
Ho0_1 Se1_5 2.876120 1_455
Ho0_1 Se1_3 2.876120 1_545
Ho0_1 Se0_5 2.876120 1_555
Ho0_1 Se0_3 2.876120 1_555
Ho0_1 Se1_0 2.876120 1_555
Ho0_1 Se0_0 2.876120 1_556
Ho0_2 Se1_6 2.876120 1_455
Ho0_2 Se1_0 2.876120 1_555
Ho0_2 Se0_0 2.876120 1_565
Ho0_2 Se0_6 2.876120 1_555
Ho0_2 Se1_3 2.876120 1_554
Ho0_2 Se0_3 2.876120 1_555
Ho0_3 Se1_7 2.876120 1_455
Ho0_3 Se0_1 2.876120 1_565
Ho0_3 Se0_7 2.876120 1_555
Ho0_3 Se1_1 2.876120 1_555
Ho0_3 Se0_2 2.876120 1_556
Ho0_3 Se1_2 2.876120 1_555
Ho0_4 Se0_0 2.876120 1_655
Ho0_4 Se1_6 2.876120 1_545
Ho0_4 Se0_6 2.876120 1_555
Ho0_4 Se1_0 2.876120 1_555
Ho0_4 Se0_5 2.876120 1_555
Ho0_4 Se1_5 2.876120 1_554
Ho0_5 Se1_7 2.876120 1_545
Ho0_5 Se0_1 2.876120 1_655
Ho0_5 Se0_7 2.876120 1_555
Ho0_5 Se1_1 2.876120 1_555
Ho0_5 Se0_4 2.876120 1_556
Ho0_5 Se1_4 2.876120 1_555
Ho0_6 Se0_4 2.876120 1_565
Ho0_6 Se0_2 2.876120 1_655
Ho0_6 Se1_4 2.876120 1_555
Ho0_6 Se1_2 2.876120 1_555
Ho0_6 Se0_7 2.876120 1_555
Ho0_6 Se1_7 2.876120 1_554
Ho0_7 Se0_5 2.876120 1_565
Ho0_7 Se1_5 2.876120 1_555
Ho0_7 Se1_3 2.876120 1_555
Ho0_7 Se0_3 2.876120 1_655
Ho0_7 Se0_6 2.876120 1_556
Ho0_7 Se1_6 2.876120 1_555
