# generated using pymatgen
data_AlGe3
_symmetry_space_group_name_H-M   'P 1'
_cell_length_a   5.39492933
_cell_length_b   5.39492933
_cell_length_c   5.39492933
_cell_angle_alpha   135.93413203
_cell_angle_beta   135.93413203
_cell_angle_gamma   64.08218457
_symmetry_Int_Tables_number   1
_chemical_formula_structural   AlGe3
_chemical_formula_sum   'Al1 Ge3'
_cell_volume   74.92530520
_cell_formula_units_Z   1
loop_
 _symmetry_equiv_pos_site_id
 _symmetry_equiv_pos_as_xyz
  1  'x, y, z'
loop_
 _atom_site_type_symbol
 _atom_site_label
 _atom_site_symmetry_multiplicity
 _atom_site_fract_x
 _atom_site_fract_y
 _atom_site_fract_z
 _atom_site_occupancy
  Al  Al0  1  0.00000000  0.00000000  0.00000000  1
  Ge  Ge0  1  0.75000000  0.25000000  0.50000000  1
  Ge  Ge1  1  0.25000000  0.75000000  0.50000000  1
  Ge  Ge2  1  0.50000000  0.50000000  0.00000000  1
loop_
_geom_bond_atom_site_label_1
_geom_bond_atom_site_label_2
_geom_bond_distance
_geom_bond_site_symmetry_2
Al0 Ge2 2.862158 1_545
Al0 Ge2 2.862158 1_455
Al0 Ge2 2.862158 1_556
Al0 Ge2 2.862158 1_444
Al0 Ge1 3.053572 1_444
Al0 Ge0 3.053572 1_555
Al0 Ge1 3.053572 1_555
Al0 Ge1 3.053572 1_544
Al0 Ge0 3.053572 1_454
Al0 Ge0 3.053572 1_444
Al0 Ge1 3.053572 1_545
Al0 Ge0 3.053572 1_455
Ge0 Ge1 2.862158 1_544
Ge0 Ge1 2.862158 1_656
Ge0 Ge1 2.862158 1_645
Ge0 Ge1 2.862158 1_555
Ge0 Ge2 3.053572 1_656
Ge0 Ge2 3.053572 1_545
Ge0 Ge2 3.053572 1_555
Ge0 Ge2 3.053572 1_556
Ge1 Ge2 3.053572 1_455
Ge1 Ge2 3.053572 1_566
Ge1 Ge2 3.053572 1_555
Ge1 Ge2 3.053572 1_556
