# generated using pymatgen
data_KCrO3F
_symmetry_space_group_name_H-M   'P 1'
_cell_length_a   5.63302600
_cell_length_b   5.63519736
_cell_length_c   7.70742470
_cell_angle_alpha   110.38240145
_cell_angle_beta   110.93857236
_cell_angle_gamma   90.02036547
_symmetry_Int_Tables_number   1
_chemical_formula_structural   KCrO3F
_chemical_formula_sum   'K2 Cr2 O6 F2'
_cell_volume   212.00728916
_cell_formula_units_Z   2
loop_
 _symmetry_equiv_pos_site_id
 _symmetry_equiv_pos_as_xyz
  1  'x, y, z'
loop_
 _atom_site_type_symbol
 _atom_site_label
 _atom_site_symmetry_multiplicity
 _atom_site_fract_x
 _atom_site_fract_y
 _atom_site_fract_z
 _atom_site_occupancy
  K  K0  1  0.75191300  0.25302100  0.50143400  1
  K  K1  1  0.50472000  0.50121800  0.00161700  1
  Cr  Cr0  1  0.25095800  0.74167500  0.49727600  1
  Cr  Cr1  1  0.99168400  0.99667900  0.99729800  1
  O  O0  1  0.40471600  0.58783600  0.63693100  1
  O  O1  1  0.84007600  0.15060900  0.85686100  1
  O  O2  1  0.01171400  0.70977500  0.86008500  1
  O  O3  1  0.40068800  0.76036200  0.35588400  1
  O  O4  1  0.96044200  0.59237000  0.36071400  1
  O  O5  1  0.83920400  0.98053000  0.13762900  1
  F  F0  1  0.23127800  0.06149700  0.64734000  1
  F  F1  1  0.31260700  0.16442600  0.14693000  1
loop_
_geom_bond_atom_site_label_1
_geom_bond_atom_site_label_2
_geom_bond_distance
_geom_bond_site_symmetry_2
K0 O1 2.865873 1_555
K0 O5 2.906696 1_545
K0 O2 2.925367 1_655
K0 O0 2.926674 1_555
K0 O4 2.926897 1_555
K0 O3 3.020032 1_545
K1 O0 2.877550 1_554
K1 O3 2.880674 1_555
K1 O4 2.905970 1_555
K1 O5 2.925205 1_555
K1 O1 2.947970 1_554
K1 O2 3.002278 1_554
Cr0 O0 1.626190 1_555
Cr0 O4 1.626306 1_455
Cr0 O3 1.626924 1_555
Cr0 F0 1.799432 1_565
Cr1 O2 1.624649 1_655
Cr1 O1 1.627028 1_565
Cr1 O5 1.627380 1_556
Cr1 F1 1.800257 1_666
F0 K1 2.871709 1_556
F0 K0 2.897945 1_455
F1 K0 2.838104 1_555
F1 K1 2.893600 1_555
