# generated using pymatgen
data_Y(CuSn)2
_symmetry_space_group_name_H-M   'P 1'
_cell_length_a   4.37491500
_cell_length_b   4.37491500
_cell_length_c   10.76643900
_cell_angle_alpha   90.00000000
_cell_angle_beta   90.00000000
_cell_angle_gamma   90.00000000
_symmetry_Int_Tables_number   1
_chemical_formula_structural   Y(CuSn)2
_chemical_formula_sum   'Y2 Cu4 Sn4'
_cell_volume   206.06836402
_cell_formula_units_Z   2
loop_
 _symmetry_equiv_pos_site_id
 _symmetry_equiv_pos_as_xyz
  1  'x, y, z'
loop_
 _atom_site_type_symbol
 _atom_site_label
 _atom_site_symmetry_multiplicity
 _atom_site_fract_x
 _atom_site_fract_y
 _atom_site_fract_z
 _atom_site_occupancy
  Y  Y0  1  0.00000000  0.50000000  0.23741500  1
  Y  Y1  1  0.50000000  0.00000000  0.76258500  1
  Cu  Cu0  1  0.00000000  0.00000000  0.00000000  1
  Cu  Cu1  1  0.50000000  0.50000000  0.00000000  1
  Cu  Cu2  1  0.00000000  0.50000000  0.63881900  1
  Cu  Cu3  1  0.50000000  0.00000000  0.36118100  1
  Sn  Sn0  1  0.00000000  0.00000000  0.50000000  1
  Sn  Sn1  1  0.50000000  0.50000000  0.50000000  1
  Sn  Sn2  1  0.00000000  0.50000000  0.86943900  1
  Sn  Sn3  1  0.50000000  0.00000000  0.13056100  1
loop_
_geom_bond_atom_site_label_1
_geom_bond_atom_site_label_2
_geom_bond_distance
_geom_bond_site_symmetry_2
Cu0 Sn3 2.600173 1_555
Cu0 Sn3 2.600173 1_455
Cu0 Sn2 2.600173 1_554
Cu0 Sn2 2.600173 1_544
Cu0 Cu1 3.093532 1_555
Cu0 Cu1 3.093532 1_545
Cu0 Cu1 3.093532 1_445
Cu0 Cu1 3.093532 1_455
Cu0 Y0 3.364326 1_545
Cu0 Y0 3.364326 1_555
Cu0 Y1 3.364326 1_454
Cu0 Y1 3.364326 1_554
Cu1 Sn3 2.600173 1_565
Cu1 Sn3 2.600173 1_555
Cu1 Sn2 2.600173 1_654
Cu1 Sn2 2.600173 1_554
Cu1 Y0 3.364326 1_655
Cu1 Y0 3.364326 1_555
Cu1 Y1 3.364326 1_564
Cu1 Y1 3.364326 1_554
Cu2 Sn2 2.482956 1_555
Cu2 Sn0 2.649294 1_555
Cu2 Sn1 2.649294 1_555
Cu2 Sn0 2.649294 1_565
Cu2 Sn1 2.649294 1_455
Cu2 Y1 3.368315 1_565
Cu2 Y1 3.368315 1_555
Cu2 Y1 3.368315 1_465
Cu2 Y1 3.368315 1_455
Cu3 Sn3 2.482956 1_555
Cu3 Sn0 2.649294 1_555
Cu3 Sn1 2.649294 1_555
Cu3 Sn0 2.649294 1_655
Cu3 Sn1 2.649294 1_545
Cu3 Y0 3.368315 1_545
Cu3 Y0 3.368315 1_655
Cu3 Y0 3.368315 1_555
Cu3 Y0 3.368315 1_645
Sn0 Sn1 3.093532 1_455
Sn0 Sn1 3.093532 1_445
Sn0 Sn1 3.093532 1_545
Sn0 Sn1 3.093532 1_555
Sn0 Y1 3.574562 1_455
Sn0 Y1 3.574562 1_555
Sn0 Y0 3.574562 1_545
Sn0 Y0 3.574562 1_555
Sn1 Y1 3.574562 1_565
Sn1 Y1 3.574562 1_555
Sn1 Y0 3.574562 1_655
Sn1 Y0 3.574562 1_555
Sn2 Y1 3.300522 1_565
Sn2 Y1 3.300522 1_465
Sn2 Y1 3.300522 1_555
Sn2 Y1 3.300522 1_455
Sn3 Y0 3.300522 1_655
Sn3 Y0 3.300522 1_645
Sn3 Y0 3.300522 1_555
Sn3 Y0 3.300522 1_545
