# generated using pymatgen
data_Ba4Cr2MoWO12
_symmetry_space_group_name_H-M   'P 1'
_cell_length_a   5.77032032
_cell_length_b   5.77001666
_cell_length_c   10.06267342
_cell_angle_alpha   73.43403046
_cell_angle_beta   73.44020654
_cell_angle_gamma   60.02717401
_symmetry_Int_Tables_number   1
_chemical_formula_structural   Ba4Cr2MoWO12
_chemical_formula_sum   'Ba4 Cr2 Mo1 W1 O12'
_cell_volume   274.04981798
_cell_formula_units_Z   1
loop_
 _symmetry_equiv_pos_site_id
 _symmetry_equiv_pos_as_xyz
  1  'x, y, z'
loop_
 _atom_site_type_symbol
 _atom_site_label
 _atom_site_symmetry_multiplicity
 _atom_site_fract_x
 _atom_site_fract_y
 _atom_site_fract_z
 _atom_site_occupancy
  Ba  Ba0  1  0.87716400  0.87714800  0.36842900  1
  Ba  Ba1  1  0.12284600  0.12284500  0.63159400  1
  Ba  Ba2  1  0.37281800  0.37286200  0.88176200  1
  Ba  Ba3  1  0.62717100  0.62714100  0.11821600  1
  Cr  Cr0  1  0.25115200  0.25110300  0.24678300  1
  Cr  Cr1  1  0.74889500  0.74888800  0.75324800  1
  Mo  Mo0  1  0.99995400  0.00000800  0.99996700  1
  W  W0  1  0.49993900  0.50001200  0.49997100  1
  O  O0  1  0.62183400  0.62183100  0.61878200  1
  O  O1  1  0.37819600  0.37817600  0.38124700  1
  O  O2  1  0.37826200  0.86207900  0.38137700  1
  O  O3  1  0.62175100  0.13788900  0.61864000  1
  O  O4  1  0.86209600  0.37823800  0.38139500  1
  O  O5  1  0.13793300  0.62176600  0.61861000  1
  O  O6  1  0.87641000  0.87643200  0.86936100  1
  O  O7  1  0.12358300  0.12355300  0.13061200  1
  O  O8  1  0.87651500  0.37857200  0.86889700  1
  O  O9  1  0.12348200  0.62145500  0.13109900  1
  O  O10  1  0.37852400  0.87655900  0.86889600  1
  O  O11  1  0.62147500  0.12344200  0.13111400  1
loop_
_geom_bond_atom_site_label_1
_geom_bond_atom_site_label_2
_geom_bond_distance
_geom_bond_site_symmetry_2
Ba0 O11 2.806645 1_565
Ba0 O9 2.807001 1_655
Ba0 O7 2.812504 1_665
Ba0 O4 2.888088 1_555
Ba0 O4 2.888191 1_565
Ba0 O2 2.888252 1_555
Ba0 O2 2.888317 1_655
Ba0 O1 2.889319 1_565
Ba0 O1 2.889320 1_655
Ba0 O5 2.932881 1_655
Ba0 O3 2.933284 1_565
Ba0 O0 2.936681 1_555
Ba1 O10 2.806500 1_545
Ba1 O8 2.806869 1_455
Ba1 O6 2.812295 1_445
Ba1 O5 2.888133 1_545
Ba1 O5 2.888163 1_555
Ba1 O3 2.888180 1_555
Ba1 O3 2.888388 1_455
Ba1 O0 2.889297 1_455
Ba1 O0 2.889330 1_545
Ba1 O4 2.932982 1_455
Ba1 O2 2.933409 1_545
Ba1 O1 2.936747 1_555
Ba2 O10 2.886739 1_545
Ba2 O8 2.886863 1_455
Ba2 O10 2.888473 1_555
Ba2 O6 2.888602 1_455
Ba2 O8 2.888652 1_555
Ba2 O6 2.888755 1_545
Ba2 O9 2.890502 1_556
Ba2 O11 2.890597 1_556
Ba2 O7 2.892804 1_556
Ba2 O5 2.973864 1_555
Ba2 O3 2.974059 1_555
Ba2 O0 2.976304 1_555
Ba3 O11 2.886861 1_565
Ba3 O9 2.887036 1_655
Ba3 O11 2.888377 1_555
Ba3 O9 2.888492 1_555
Ba3 O7 2.888663 1_655
Ba3 O7 2.888689 1_565
Ba3 O8 2.890277 1_554
Ba3 O10 2.890289 1_554
Ba3 O6 2.892793 1_554
Ba3 O4 2.974212 1_555
Ba3 O2 2.974311 1_555
Ba3 O1 2.976497 1_555
Cr0 O9 1.990397 1_555
Cr0 O11 1.990473 1_555
Cr0 O7 1.993107 1_555
Cr0 O1 2.138696 1_555
Cr0 O2 2.144410 1_545
Cr0 O4 2.144893 1_455
Cr1 O8 1.990111 1_555
Cr1 O10 1.990591 1_555
Cr1 O6 1.992392 1_555
Cr1 O0 2.138716 1_555
Cr1 O3 2.144378 1_565
Cr1 O5 2.144933 1_655
Mo0 O6 2.078511 1_545
Mo0 O7 2.079053 1_656
Mo0 O8 2.087165 1_555
Mo0 O9 2.087389 1_646
Mo0 O11 2.087427 1_556
Mo0 O10 2.087462 1_645
O0 W0 1.967410 1_555
O1 W0 1.966147 1_555
O2 W0 1.967721 1_555
O3 W0 1.968256 1_555
O4 W0 1.968269 1_555
O5 W0 1.967907 1_555
