# generated using pymatgen
data_Na2Zr(SiO4)2
_symmetry_space_group_name_H-M   'P 1'
_cell_length_a   5.44076552
_cell_length_b   5.44076552
_cell_length_c   13.32347941
_cell_angle_alpha   91.86618381
_cell_angle_beta   91.86618381
_cell_angle_gamma   118.92467266
_symmetry_Int_Tables_number   1
_chemical_formula_structural   Na2Zr(SiO4)2
_chemical_formula_sum   'Na4 Zr2 Si4 O16'
_cell_volume   344.49197938
_cell_formula_units_Z   2
loop_
 _symmetry_equiv_pos_site_id
 _symmetry_equiv_pos_as_xyz
  1  'x, y, z'
loop_
 _atom_site_type_symbol
 _atom_site_label
 _atom_site_symmetry_multiplicity
 _atom_site_fract_x
 _atom_site_fract_y
 _atom_site_fract_z
 _atom_site_occupancy
  Na  Na0  1  0.94103100  0.01485500  0.25488800  1
  Na  Na1  1  0.01485500  0.94103100  0.75488800  1
  Na  Na2  1  0.28372700  0.65248000  0.40273800  1
  Na  Na3  1  0.65248000  0.28372700  0.90273800  1
  Zr  Zr0  1  0.99599800  0.99797800  0.50785000  1
  Zr  Zr1  1  0.99797800  0.99599800  0.00785000  1
  Si  Si0  1  0.63283200  0.32307400  0.37335100  1
  Si  Si1  1  0.67927000  0.37129500  0.13506300  1
  Si  Si2  1  0.37129500  0.67927000  0.63506300  1
  Si  Si3  1  0.32307400  0.63283200  0.87335100  1
  O  O0  1  0.72816200  0.65238200  0.40419600  1
  O  O1  1  0.34823800  0.27001400  0.10338700  1
  O  O2  1  0.27001400  0.34823800  0.60338700  1
  O  O3  1  0.65238200  0.72816200  0.90419600  1
  O  O4  1  0.83933300  0.22425100  0.42952900  1
  O  O5  1  0.77748200  0.18217800  0.06746000  1
  O  O6  1  0.18217800  0.77748200  0.56746000  1
  O  O7  1  0.22425100  0.83933300  0.92952900  1
  O  O8  1  0.30010300  0.11626700  0.38922900  1
  O  O9  1  0.87926300  0.70265200  0.11588800  1
  O  O10  1  0.70265200  0.87926300  0.61588800  1
  O  O11  1  0.11626700  0.30010300  0.88922900  1
  O  O12  1  0.70363100  0.30492800  0.25352900  1
  O  O13  1  0.30492800  0.70363100  0.75352900  1
  O  O14  1  0.40121900  0.61315800  0.23359200  1
  O  O15  1  0.61315800  0.40121900  0.73359200  1
loop_
_geom_bond_atom_site_label_1
_geom_bond_atom_site_label_2
_geom_bond_distance
_geom_bond_site_symmetry_2
Na0 O9 2.372850 1_545
Na0 O8 2.447453 1_655
Na0 O12 2.476214 1_555
Na0 O14 2.679404 1_545
Na0 O0 2.717377 1_545
Na0 O4 2.745760 1_555
Na0 O1 2.899792 1_655
Na0 O5 2.939979 1_555
Na0 O14 3.027925 1_655
Na1 O10 2.372850 1_455
Na1 O11 2.447453 1_565
Na1 O13 2.476214 1_555
Na1 O15 2.679404 1_455
Na1 O3 2.717377 1_455
Na1 O7 2.745760 1_555
Na1 O2 2.899792 1_565
Na1 O6 2.939979 1_555
Na1 O15 3.027925 1_565
Na2 O14 2.393303 1_555
Na2 O0 2.417770 1_555
Na2 O6 2.435082 1_555
Na2 O4 2.462305 1_455
Na2 O8 2.494155 1_565
Na2 O8 2.961401 1_555
Na2 O0 3.023136 1_455
Na2 O4 3.115093 1_565
Na3 O15 2.393303 1_555
Na3 O3 2.417770 1_555
Na3 O5 2.435082 1_556
Na3 O7 2.462305 1_545
Na3 O11 2.494155 1_655
Na3 O11 2.961401 1_555
Na3 O3 3.023136 1_545
Na3 O7 3.115093 1_655
O0 Si0 1.639296 1_555
O0 Zr0 2.148402 1_555
O0 O14 2.777463 1_555
O1 Si1 1.643448 1_555
O1 Zr1 2.108241 1_445
O1 O14 2.411231 1_555
O2 Si2 1.643448 1_555
O2 Zr0 2.108241 1_445
O3 Si3 1.639296 1_555
O3 Zr1 2.148402 1_556
O4 Si0 1.633222 1_555
O4 Zr0 2.090901 1_545
O5 Si1 1.630445 1_555
O5 Zr1 2.069112 1_545
O6 Si2 1.630445 1_555
O6 Zr0 2.069112 1_455
O7 Si3 1.633222 1_555
O7 Zr1 2.090901 1_456
O8 Si0 1.630361 1_555
O8 Zr0 2.203656 1_445
O9 Si1 1.627883 1_555
O9 Zr1 2.061427 1_555
O10 Si2 1.627883 1_555
O10 Zr0 2.061427 1_555
O10 O15 2.924309 1_555
O11 Si3 1.630361 1_555
O11 Zr1 2.203656 1_446
O12 Si1 1.645911 1_555
O12 Si0 1.665335 1_555
O12 O14 2.873976 1_555
O12 O14 3.295408 1_545
O13 Si2 1.645911 1_555
O13 Si3 1.665335 1_555
O13 O15 2.873976 1_555
O13 O15 3.295408 1_455
O14 O9 2.924309 1_555
O15 O2 2.411231 1_555
O15 O3 2.777463 1_555
