# generated using pymatgen
data_CsSc(SeO3)2
_symmetry_space_group_name_H-M   'P 1'
_cell_length_a   5.71313200
_cell_length_b   7.25171400
_cell_length_c   17.77480600
_cell_angle_alpha   90.00000000
_cell_angle_beta   90.00000000
_cell_angle_gamma   90.00000000
_symmetry_Int_Tables_number   1
_chemical_formula_structural   CsSc(SeO3)2
_chemical_formula_sum   'Cs4 Sc4 Se8 O24'
_cell_volume   736.41020028
_cell_formula_units_Z   4
loop_
 _symmetry_equiv_pos_site_id
 _symmetry_equiv_pos_as_xyz
  1  'x, y, z'
loop_
 _atom_site_type_symbol
 _atom_site_label
 _atom_site_symmetry_multiplicity
 _atom_site_fract_x
 _atom_site_fract_y
 _atom_site_fract_z
 _atom_site_occupancy
  Cs  Cs0  1  0.75000000  0.12895600  0.10347100  1
  Cs  Cs1  1  0.75000000  0.37104400  0.60347100  1
  Cs  Cs2  1  0.25000000  0.87104400  0.89652900  1
  Cs  Cs3  1  0.25000000  0.62895600  0.39652900  1
  Sc  Sc0  1  0.75000000  0.35276800  0.87012400  1
  Sc  Sc1  1  0.75000000  0.14723200  0.37012400  1
  Sc  Sc2  1  0.25000000  0.64723200  0.12987600  1
  Sc  Sc3  1  0.25000000  0.85276800  0.62987600  1
  Se  Se0  1  0.25000000  0.42071200  0.74797300  1
  Se  Se1  1  0.25000000  0.07928800  0.24797300  1
  Se  Se2  1  0.75000000  0.57928800  0.25202700  1
  Se  Se3  1  0.75000000  0.92071200  0.75202700  1
  Se  Se4  1  0.25000000  0.39379000  0.96733700  1
  Se  Se5  1  0.25000000  0.10621000  0.46733700  1
  Se  Se6  1  0.75000000  0.60621000  0.03266300  1
  Se  Se7  1  0.75000000  0.89379000  0.53266300  1
  O  O0  1  0.25000000  0.60362800  0.68598700  1
  O  O1  1  0.25000000  0.89637200  0.18598700  1
  O  O2  1  0.75000000  0.39637200  0.31401300  1
  O  O3  1  0.75000000  0.10362800  0.81401300  1
  O  O4  1  0.48477200  0.47564400  0.80444100  1
  O  O5  1  0.01522800  0.02435600  0.30444100  1
  O  O6  1  0.98477200  0.52435600  0.19555900  1
  O  O7  1  0.51522800  0.97564400  0.69555900  1
  O  O8  1  0.51522800  0.52435600  0.19555900  1
  O  O9  1  0.98477200  0.97564400  0.69555900  1
  O  O10  1  0.01522800  0.47564400  0.80444100  1
  O  O11  1  0.48477200  0.02435600  0.30444100  1
  O  O12  1  0.25000000  0.39205500  0.06479700  1
  O  O13  1  0.25000000  0.10794500  0.56479700  1
  O  O14  1  0.75000000  0.60794500  0.93520300  1
  O  O15  1  0.75000000  0.89205500  0.43520300  1
  O  O16  1  0.48630800  0.25130100  0.94752700  1
  O  O17  1  0.01369200  0.24869900  0.44752700  1
  O  O18  1  0.98630800  0.74869900  0.05247300  1
  O  O19  1  0.51369200  0.75130100  0.55247300  1
  O  O20  1  0.51369200  0.74869900  0.05247300  1
  O  O21  1  0.98630800  0.75130100  0.55247300  1
  O  O22  1  0.01369200  0.25130100  0.94752700  1
  O  O23  1  0.48630800  0.24869900  0.44752700  1
loop_
_geom_bond_atom_site_label_1
_geom_bond_atom_site_label_2
_geom_bond_distance
_geom_bond_site_symmetry_2
Cs0 O18 3.201289 1_545
Cs0 O20 3.201289 1_545
Cs0 O22 3.277193 1_654
Cs0 O16 3.277193 1_554
Cs0 O12 3.503238 1_655
Cs0 O12 3.503238 1_555
Cs0 O8 3.563688 1_555
Cs0 O6 3.563688 1_555
Cs0 O1 3.627110 1_645
Cs0 O1 3.627110 1_545
Cs0 Se6 3.682657 1_555
Cs0 O5 3.953743 1_655
Cs0 O11 3.953743 1_555
Cs1 O21 3.201289 1_555
Cs1 O19 3.201289 1_555
Cs1 O17 3.277193 1_655
Cs1 O23 3.277193 1_555
Cs1 O13 3.503238 1_655
Cs1 O13 3.503238 1_555
Cs1 O7 3.563688 1_545
Cs1 O9 3.563688 1_545
Cs1 O0 3.627110 1_555
Cs1 O0 3.627110 1_655
Cs1 Se7 3.682657 1_545
Cs1 O10 3.953743 1_655
Cs1 O4 3.953743 1_555
Cs2 O16 3.201289 1_565
Cs2 O22 3.201289 1_565
Cs2 O20 3.277193 1_556
Cs2 O18 3.277193 1_456
Cs2 O14 3.503238 1_555
Cs2 O14 3.503238 1_455
Cs2 O4 3.563688 1_555
Cs2 O10 3.563688 1_555
Cs2 O3 3.627110 1_565
Cs2 O3 3.627110 1_465
Cs2 Se4 3.682657 1_555
Cs2 O9 3.953743 1_455
Cs2 O7 3.953743 1_555
Cs3 O23 3.201289 1_555
Cs3 O17 3.201289 1_555
Cs3 O19 3.277193 1_555
Cs3 O21 3.277193 1_455
Cs3 O15 3.503238 1_455
Cs3 O15 3.503238 1_555
Cs3 O11 3.563688 1_565
Cs3 O5 3.563688 1_565
Cs3 O2 3.627110 1_455
Cs3 O2 3.627110 1_555
Cs3 Se5 3.682657 1_565
Cs3 O8 3.953743 1_555
Cs3 O6 3.953743 1_455
O0 Se0 1.724361 1_555
O0 Sc3 2.063702 1_555
O1 Se1 1.724361 1_565
O1 Sc2 2.063702 1_555
O2 Se2 1.724361 1_555
O2 Sc1 2.063702 1_555
O3 Se3 1.724361 1_545
O3 Sc0 2.063702 1_555
O4 Se0 1.721962 1_555
O4 Sc0 2.110245 1_555
O5 Se1 1.721962 1_555
O5 Sc1 2.110245 1_455
O6 Se2 1.721962 1_555
O6 Sc2 2.110245 1_655
O7 Se3 1.721962 1_555
O7 Sc3 2.110245 1_555
O8 Se2 1.721962 1_555
O8 Sc2 2.110245 1_555
O9 Se3 1.721962 1_555
O9 Sc3 2.110245 1_655
O10 Se0 1.721962 1_555
O10 Sc0 2.110245 1_455
O11 Se1 1.721962 1_555
O11 Sc1 2.110245 1_555
O12 Se4 1.732378 1_554
O12 Sc2 2.182281 1_555
O13 Se5 1.732378 1_555
O13 Sc3 2.182281 1_545
O14 Se6 1.732378 1_556
O14 Sc0 2.182281 1_555
O15 Se7 1.732378 1_555
O15 Sc1 2.182281 1_565
O16 Se4 1.736184 1_555
O16 Sc0 2.168841 1_555
O17 Se5 1.736184 1_555
O17 Sc1 2.168841 1_455
O18 Se6 1.736184 1_555
O18 Sc2 2.168841 1_655
O19 Se7 1.736184 1_555
O19 Sc3 2.168841 1_555
O20 Se6 1.736184 1_555
O20 Sc2 2.168841 1_555
O21 Se7 1.736184 1_555
O21 Sc3 2.168841 1_655
O22 Se4 1.736184 1_555
O22 Sc0 2.168841 1_455
O23 Se5 1.736184 1_555
O23 Sc1 2.168841 1_555
