# generated using pymatgen
data_LiGeSbTe3
_symmetry_space_group_name_H-M   'P 1'
_cell_length_a   4.29119535
_cell_length_b   4.29119535
_cell_length_c   10.69915800
_cell_angle_alpha   90.00000000
_cell_angle_beta   90.00000000
_cell_angle_gamma   119.99999000
_symmetry_Int_Tables_number   1
_chemical_formula_structural   LiGeSbTe3
_chemical_formula_sum   'Li1 Ge1 Sb1 Te3'
_cell_volume   170.62271485
_cell_formula_units_Z   1
loop_
 _symmetry_equiv_pos_site_id
 _symmetry_equiv_pos_as_xyz
  1  'x, y, z'
loop_
 _atom_site_type_symbol
 _atom_site_label
 _atom_site_symmetry_multiplicity
 _atom_site_fract_x
 _atom_site_fract_y
 _atom_site_fract_z
 _atom_site_occupancy
  Li  Li0  1  0.33333300  0.66666700  0.66340900  1
  Ge  Ge0  1  0.66666700  0.33333300  0.35009500  1
  Sb  Sb0  1  0.00000000  0.00000000  0.99943100  1
  Te  Te0  1  0.66666700  0.33333300  0.82389000  1
  Te  Te1  1  0.33333300  0.66666700  0.16931400  1
  Te  Te2  1  0.00000000  0.00000000  0.49386000  1
loop_
_geom_bond_atom_site_label_1
_geom_bond_atom_site_label_2
_geom_bond_distance
_geom_bond_site_symmetry_2
Li0 Te0 3.014339 1_455
Li0 Te0 3.014339 1_565
Li0 Te0 3.014344 1_555
Li0 Te2 3.070638 1_565
Li0 Te2 3.070641 1_665
Li0 Te2 3.070641 1_555
Ge0 Te2 2.916171 1_655
Ge0 Te2 2.916175 1_555
Ge0 Te2 2.916175 1_665
Ge0 Te1 3.143128 1_545
Ge0 Te1 3.143128 1_655
Ge0 Te1 3.143134 1_555
Sb0 Te1 3.072750 1_546
Sb0 Te1 3.072754 1_556
Sb0 Te1 3.072754 1_446
Sb0 Te0 3.108942 1_455
Sb0 Te0 3.108945 1_445
Sb0 Te0 3.108945 1_555
