# generated using pymatgen
data_Ba2MnAl2CoF14
_symmetry_space_group_name_H-M   'P 1'
_cell_length_a   7.40386909
_cell_length_b   7.40386909
_cell_length_c   14.61814762
_cell_angle_alpha   88.60193438
_cell_angle_beta   88.60193438
_cell_angle_gamma   41.65966715
_symmetry_Int_Tables_number   1
_chemical_formula_structural   Ba2MnAl2CoF14
_chemical_formula_sum   'Ba4 Mn2 Al4 Co2 F28'
_cell_volume   532.46426296
_cell_formula_units_Z   2
loop_
 _symmetry_equiv_pos_site_id
 _symmetry_equiv_pos_as_xyz
  1  'x, y, z'
loop_
 _atom_site_type_symbol
 _atom_site_label
 _atom_site_symmetry_multiplicity
 _atom_site_fract_x
 _atom_site_fract_y
 _atom_site_fract_z
 _atom_site_occupancy
  Ba  Ba0  1  0.64294600  0.73509100  0.87956300  1
  Ba  Ba1  1  0.35705400  0.26490900  0.12043700  1
  Ba  Ba2  1  0.26490900  0.35705400  0.62043700  1
  Ba  Ba3  1  0.73509100  0.64294600  0.37956300  1
  Mn  Mn0  1  0.94309200  0.05690800  0.75000000  1
  Mn  Mn1  1  0.05690800  0.94309200  0.25000000  1
  Al  Al0  1  0.61638000  0.61930900  0.62435700  1
  Al  Al1  1  0.38362000  0.38069100  0.37564300  1
  Al  Al2  1  0.38069100  0.38362000  0.87564300  1
  Al  Al3  1  0.61930900  0.61638000  0.12435700  1
  Co  Co0  1  0.00000000  0.00000000  0.50000000  1
  Co  Co1  1  0.00000000  0.00000000  0.00000000  1
  F  F0  1  0.34037300  0.89490200  0.70022000  1
  F  F1  1  0.65962700  0.10509800  0.29978000  1
  F  F2  1  0.10509800  0.65962700  0.79978000  1
  F  F3  1  0.89490200  0.34037300  0.20022000  1
  F  F4  1  0.65864200  0.09390600  0.95236500  1
  F  F5  1  0.34135800  0.90609400  0.04763500  1
  F  F6  1  0.90609400  0.34135800  0.54763500  1
  F  F7  1  0.09390600  0.65864200  0.45236500  1
  F  F8  1  0.39545500  0.76545100  0.52402900  1
  F  F9  1  0.60454500  0.23454900  0.47597100  1
  F  F10  1  0.23454900  0.60454500  0.97597100  1
  F  F11  1  0.76545100  0.39545500  0.02402900  1
  F  F12  1  0.54110000  0.13495600  0.78212500  1
  F  F13  1  0.45890000  0.86504400  0.21787500  1
  F  F14  1  0.86504400  0.45890000  0.71787500  1
  F  F15  1  0.13495600  0.54110000  0.28212500  1
  F  F16  1  0.58531000  0.40890500  0.65779200  1
  F  F17  1  0.41469000  0.59109500  0.34220800  1
  F  F18  1  0.59109500  0.41469000  0.84220800  1
  F  F19  1  0.40890500  0.58531000  0.15779200  1
  F  F20  1  0.88173400  0.99830800  0.12437800  1
  F  F21  1  0.11826600  0.00169200  0.87562200  1
  F  F22  1  0.00169200  0.11826600  0.37562200  1
  F  F23  1  0.99830800  0.88173400  0.62437800  1
  F  F24  1  0.68135900  0.80151800  0.58794800  1
  F  F25  1  0.31864100  0.19848200  0.41205200  1
  F  F26  1  0.19848200  0.31864100  0.91205200  1
  F  F27  1  0.80151800  0.68135900  0.08794800  1
loop_
_geom_bond_atom_site_label_1
_geom_bond_atom_site_label_2
_geom_bond_distance
_geom_bond_site_symmetry_2
Ba0 F14 2.737488 1_555
Ba0 F18 2.739913 1_555
Ba0 F21 2.745558 1_565
Ba0 F26 2.779267 1_655
Ba0 F12 2.805921 1_565
Ba0 F11 2.834104 1_556
Ba0 F5 2.878387 1_556
Ba0 F26 2.915654 1_565
Ba0 F4 2.967999 1_565
Ba0 F0 3.076725 1_555
Ba0 F27 3.198982 1_556
Ba0 F2 3.218840 1_655
Ba1 F15 2.737488 1_555
Ba1 F19 2.739913 1_555
Ba1 F20 2.745558 1_545
Ba1 F27 2.779267 1_455
Ba1 F13 2.805921 1_545
Ba1 F10 2.834104 1_554
Ba1 F4 2.878387 1_554
Ba1 F27 2.915654 1_545
Ba1 F5 2.967999 1_545
Ba1 F1 3.076725 1_555
Ba1 F26 3.198982 1_554
Ba1 F3 3.218840 1_455
Ba2 F12 2.737488 1_555
Ba2 F16 2.739913 1_555
Ba2 F23 2.745558 1_455
Ba2 F24 2.779267 1_545
Ba2 F14 2.805921 1_455
Ba2 F9 2.834104 1_555
Ba2 F7 2.878387 1_555
Ba2 F24 2.915654 1_455
Ba2 F6 2.967999 1_455
Ba2 F2 3.076725 1_555
Ba2 F25 3.198982 1_555
Ba2 F0 3.218840 1_545
Ba3 F13 2.737488 1_555
Ba3 F17 2.739913 1_555
Ba3 F22 2.745558 1_655
Ba3 F25 2.779267 1_565
Ba3 F15 2.805921 1_655
Ba3 F8 2.834104 1_555
Ba3 F6 2.878387 1_555
Ba3 F25 2.915654 1_655
Ba3 F7 2.967999 1_655
Ba3 F3 3.076725 1_555
Ba3 F24 3.198982 1_555
Ba3 F1 3.218840 1_565
Al0 F16 1.792030 1_555
Al0 F24 1.804692 1_555
Al0 F0 1.827200 1_555
Al0 F8 1.841821 1_555
Al0 F14 1.856163 1_555
Al0 F6 1.869042 1_555
Al1 F17 1.792030 1_555
Al1 F25 1.804692 1_555
Al1 F1 1.827200 1_555
Al1 F9 1.841821 1_555
Al1 F15 1.856163 1_555
Al1 F7 1.869042 1_555
Al2 F18 1.792030 1_555
Al2 F26 1.804692 1_555
Al2 F2 1.827200 1_555
Al2 F10 1.841821 1_555
Al2 F12 1.856163 1_555
Al2 F4 1.869042 1_555
Al3 F19 1.792030 1_555
Al3 F27 1.804692 1_555
Al3 F3 1.827200 1_555
Al3 F11 1.841821 1_555
Al3 F13 1.856163 1_555
Al3 F5 1.869042 1_555
Co0 F23 2.002557 1_445
Co0 F22 2.002557 1_555
Co0 F8 2.033406 1_545
Co0 F9 2.033406 1_455
Co0 F6 2.189179 1_455
Co0 F7 2.189179 1_545
Co1 F20 2.002557 1_445
Co1 F21 2.002557 1_554
Co1 F11 2.033406 1_455
Co1 F10 2.033406 1_544
Co1 F5 2.189179 1_545
Co1 F4 2.189179 1_454
F0 Mn0 2.299249 1_465
F0 F14 2.616938 1_555
F0 F21 2.802521 1_565
F1 Mn1 2.299249 1_645
F1 F15 2.616938 1_555
F1 F20 2.802521 1_545
F2 Mn0 2.299249 1_465
F2 F23 2.802521 1_455
F3 Mn1 2.299249 1_645
F6 F8 2.558268 1_555
F7 F9 2.558268 1_555
F10 F26 2.525569 1_555
F10 F4 2.558268 1_555
F10 F21 2.758197 1_565
F11 F27 2.525569 1_555
F11 F5 2.558268 1_555
F11 F20 2.758197 1_545
F12 F26 2.574454 1_555
F12 F4 2.591600 1_555
F12 Mn0 2.605373 1_555
F12 F2 2.616938 1_555
F13 F27 2.574454 1_555
F13 F5 2.591600 1_555
F13 Mn1 2.605373 1_555
F13 F3 2.616938 1_555
F14 F24 2.574454 1_555
F14 F6 2.591600 1_555
F14 Mn0 2.605373 1_555
F15 F25 2.574454 1_555
F15 F7 2.591600 1_555
F15 Mn1 2.605373 1_555
F16 Mn0 2.305051 1_555
F16 F6 2.561611 1_555
F16 F23 2.647602 1_545
F17 Mn1 2.305051 1_555
F17 F7 2.561611 1_555
F17 F22 2.647602 1_565
F18 Mn0 2.305051 1_555
F18 F4 2.561611 1_555
F18 F21 2.647602 1_655
F19 Mn1 2.305051 1_555
F19 F5 2.561611 1_555
F19 F20 2.647602 1_455
F20 Mn1 2.123394 1_655
F20 F4 2.814417 1_564
F21 Mn0 2.123394 1_455
F21 F5 2.814417 1_546
F22 Mn1 2.123394 1_545
F22 F9 2.758197 1_455
F22 F3 2.802521 1_455
F22 F6 2.814417 1_455
F23 Mn0 2.123394 1_565
F23 F8 2.758197 1_655
F23 F7 2.814417 1_655
F24 F6 2.510556 1_555
F24 F8 2.525569 1_555
F25 F7 2.510556 1_555
F25 F9 2.525569 1_555
F26 F4 2.510556 1_555
F27 F5 2.510556 1_555
