# generated using pymatgen
data_ZrCrAgS4
_symmetry_space_group_name_H-M   'P 1'
_cell_length_a   28.15093041
_cell_length_b   7.20868400
_cell_length_c   12.38574661
_cell_angle_alpha   90.00000000
_cell_angle_beta   115.10753396
_cell_angle_gamma   90.00000000
_symmetry_Int_Tables_number   1
_chemical_formula_structural   ZrCrAgS4
_chemical_formula_sum   'Zr16 Cr16 Ag16 S64'
_cell_volume   2275.96525536
_cell_formula_units_Z   16
loop_
 _symmetry_equiv_pos_site_id
 _symmetry_equiv_pos_as_xyz
  1  'x, y, z'
loop_
 _atom_site_type_symbol
 _atom_site_label
 _atom_site_symmetry_multiplicity
 _atom_site_fract_x
 _atom_site_fract_y
 _atom_site_fract_z
 _atom_site_occupancy
  Zr  Zr0_0  1  0.37729400  0.00000000  0.37873100  1
  Zr  Zr0_1  1  0.37729400  0.00000000  0.87873100  1
  Zr  Zr0_2  1  0.37729400  0.50000000  0.37873100  1
  Zr  Zr0_3  1  0.37729400  0.50000000  0.87873100  1
  Zr  Zr0_4  1  0.87729400  0.00000000  0.37873100  1
  Zr  Zr0_5  1  0.87729400  0.00000000  0.87873100  1
  Zr  Zr0_6  1  0.87729400  0.50000000  0.37873100  1
  Zr  Zr0_7  1  0.87729400  0.50000000  0.87873100  1
  Zr  Zr1_0  1  0.37270600  0.25000000  0.12126900  1
  Zr  Zr1_1  1  0.37270600  0.25000000  0.62126900  1
  Zr  Zr1_2  1  0.37270600  0.75000000  0.12126900  1
  Zr  Zr1_3  1  0.37270600  0.75000000  0.62126900  1
  Zr  Zr1_4  1  0.87270600  0.25000000  0.12126900  1
  Zr  Zr1_5  1  0.87270600  0.25000000  0.62126900  1
  Zr  Zr1_6  1  0.87270600  0.75000000  0.12126900  1
  Zr  Zr1_7  1  0.87270600  0.75000000  0.62126900  1
  Cr  Cr0_0  1  0.12076700  0.00000000  0.11331950  1
  Cr  Cr0_1  1  0.12076700  0.00000000  0.61331950  1
  Cr  Cr0_2  1  0.12076700  0.50000000  0.11331950  1
  Cr  Cr0_3  1  0.12076700  0.50000000  0.61331950  1
  Cr  Cr0_4  1  0.62076700  0.00000000  0.11331950  1
  Cr  Cr0_5  1  0.62076700  0.00000000  0.61331950  1
  Cr  Cr0_6  1  0.62076700  0.50000000  0.11331950  1
  Cr  Cr0_7  1  0.62076700  0.50000000  0.61331950  1
  Cr  Cr1_0  1  0.12923300  0.25000000  0.38668050  1
  Cr  Cr1_1  1  0.12923300  0.25000000  0.88668050  1
  Cr  Cr1_2  1  0.12923300  0.75000000  0.38668050  1
  Cr  Cr1_3  1  0.12923300  0.75000000  0.88668050  1
  Cr  Cr1_4  1  0.62923300  0.25000000  0.38668050  1
  Cr  Cr1_5  1  0.62923300  0.25000000  0.88668050  1
  Cr  Cr1_6  1  0.62923300  0.75000000  0.38668050  1
  Cr  Cr1_7  1  0.62923300  0.75000000  0.88668050  1
  Ag  Ag0_0  1  0.00832000  0.25000000  0.25628250  1
  Ag  Ag0_1  1  0.00832000  0.25000000  0.75628250  1
  Ag  Ag0_2  1  0.00832000  0.75000000  0.25628250  1
  Ag  Ag0_3  1  0.00832000  0.75000000  0.75628250  1
  Ag  Ag0_4  1  0.50832000  0.25000000  0.25628250  1
  Ag  Ag0_5  1  0.50832000  0.25000000  0.75628250  1
  Ag  Ag0_6  1  0.50832000  0.75000000  0.25628250  1
  Ag  Ag0_7  1  0.50832000  0.75000000  0.75628250  1
  Ag  Ag1_0  1  0.24168000  0.00000000  0.24371750  1
  Ag  Ag1_1  1  0.24168000  0.00000000  0.74371750  1
  Ag  Ag1_2  1  0.24168000  0.50000000  0.24371750  1
  Ag  Ag1_3  1  0.24168000  0.50000000  0.74371750  1
  Ag  Ag1_4  1  0.74168000  0.00000000  0.24371750  1
  Ag  Ag1_5  1  0.74168000  0.00000000  0.74371750  1
  Ag  Ag1_6  1  0.74168000  0.50000000  0.24371750  1
  Ag  Ag1_7  1  0.74168000  0.50000000  0.74371750  1
  S  S0_0  1  0.07232750  0.25000000  0.48965200  1
  S  S0_1  1  0.07232750  0.25000000  0.98965200  1
  S  S0_2  1  0.07232750  0.75000000  0.48965200  1
  S  S0_3  1  0.07232750  0.75000000  0.98965200  1
  S  S0_4  1  0.57232750  0.25000000  0.48965200  1
  S  S0_5  1  0.57232750  0.25000000  0.98965200  1
  S  S0_6  1  0.57232750  0.75000000  0.48965200  1
  S  S0_7  1  0.57232750  0.75000000  0.98965200  1
  S  S1_0  1  0.43636050  0.25000000  0.01803850  1
  S  S1_1  1  0.43636050  0.25000000  0.51803850  1
  S  S1_2  1  0.43636050  0.75000000  0.01803850  1
  S  S1_3  1  0.43636050  0.75000000  0.51803850  1
  S  S1_4  1  0.93636050  0.25000000  0.01803850  1
  S  S1_5  1  0.93636050  0.25000000  0.51803850  1
  S  S1_6  1  0.93636050  0.75000000  0.01803850  1
  S  S1_7  1  0.93636050  0.75000000  0.51803850  1
  S  S2_0  1  0.31363950  0.00000000  0.48196150  1
  S  S2_1  1  0.31363950  0.00000000  0.98196150  1
  S  S2_2  1  0.31363950  0.50000000  0.48196150  1
  S  S2_3  1  0.31363950  0.50000000  0.98196150  1
  S  S2_4  1  0.81363950  0.00000000  0.48196150  1
  S  S2_5  1  0.81363950  0.00000000  0.98196150  1
  S  S2_6  1  0.81363950  0.50000000  0.48196150  1
  S  S2_7  1  0.81363950  0.50000000  0.98196150  1
  S  S3_0  1  0.17767250  0.00000000  0.01034800  1
  S  S3_1  1  0.17767250  0.00000000  0.51034800  1
  S  S3_2  1  0.17767250  0.50000000  0.01034800  1
  S  S3_3  1  0.17767250  0.50000000  0.51034800  1
  S  S3_4  1  0.67767250  0.00000000  0.01034800  1
  S  S3_5  1  0.67767250  0.00000000  0.51034800  1
  S  S3_6  1  0.67767250  0.50000000  0.01034800  1
  S  S3_7  1  0.67767250  0.50000000  0.51034800  1
  S  S4_0  1  0.07796850  0.00000000  0.24845200  1
  S  S4_1  1  0.07796850  0.00000000  0.74845200  1
  S  S4_2  1  0.07796850  0.50000000  0.24845200  1
  S  S4_3  1  0.07796850  0.50000000  0.74845200  1
  S  S4_4  1  0.57796850  0.00000000  0.24845200  1
  S  S4_5  1  0.57796850  0.00000000  0.74845200  1
  S  S4_6  1  0.57796850  0.50000000  0.24845200  1
  S  S4_7  1  0.57796850  0.50000000  0.74845200  1
  S  S5_0  1  0.43445750  0.00000000  0.26400450  1
  S  S5_1  1  0.43445750  0.00000000  0.76400450  1
  S  S5_2  1  0.43445750  0.50000000  0.26400450  1
  S  S5_3  1  0.43445750  0.50000000  0.76400450  1
  S  S5_4  1  0.93445750  0.00000000  0.26400450  1
  S  S5_5  1  0.93445750  0.00000000  0.76400450  1
  S  S5_6  1  0.93445750  0.50000000  0.26400450  1
  S  S5_7  1  0.93445750  0.50000000  0.76400450  1
  S  S6_0  1  0.31554250  0.25000000  0.23599550  1
  S  S6_1  1  0.31554250  0.25000000  0.73599550  1
  S  S6_2  1  0.31554250  0.75000000  0.23599550  1
  S  S6_3  1  0.31554250  0.75000000  0.73599550  1
  S  S6_4  1  0.81554250  0.25000000  0.23599550  1
  S  S6_5  1  0.81554250  0.25000000  0.73599550  1
  S  S6_6  1  0.81554250  0.75000000  0.23599550  1
  S  S6_7  1  0.81554250  0.75000000  0.73599550  1
  S  S7_0  1  0.17203150  0.25000000  0.25154800  1
  S  S7_1  1  0.17203150  0.25000000  0.75154800  1
  S  S7_2  1  0.17203150  0.75000000  0.25154800  1
  S  S7_3  1  0.17203150  0.75000000  0.75154800  1
  S  S7_4  1  0.67203150  0.25000000  0.25154800  1
  S  S7_5  1  0.67203150  0.25000000  0.75154800  1
  S  S7_6  1  0.67203150  0.75000000  0.25154800  1
  S  S7_7  1  0.67203150  0.75000000  0.75154800  1
loop_
_geom_bond_atom_site_label_1
_geom_bond_atom_site_label_2
_geom_bond_distance
_geom_bond_site_symmetry_2
Cr0_0 S0_3 2.383463 1_544
Cr0_0 S0_1 2.383463 1_554
Cr0_0 S3_0 2.434471 1_555
Cr0_0 S4_0 2.442173 1_555
Cr0_0 S7_2 2.482916 1_545
Cr0_0 S7_0 2.482916 1_555
Cr0_1 S0_2 2.383463 1_545
Cr0_1 S0_0 2.383463 1_555
Cr0_1 S3_1 2.434471 1_555
Cr0_1 S4_1 2.442173 1_555
Cr0_1 S7_3 2.482916 1_545
Cr0_1 S7_1 2.482916 1_555
Cr0_2 S0_1 2.383463 1_554
Cr0_2 S0_3 2.383463 1_554
Cr0_2 S3_2 2.434471 1_555
Cr0_2 S4_2 2.442173 1_555
Cr0_2 S7_0 2.482916 1_555
Cr0_2 S7_2 2.482916 1_555
Cr0_3 S0_0 2.383463 1_555
Cr0_3 S0_2 2.383463 1_555
Cr0_3 S3_3 2.434471 1_555
Cr0_3 S4_3 2.442173 1_555
Cr0_3 S7_1 2.482916 1_555
Cr0_3 S7_3 2.482916 1_555
Cr0_4 S0_7 2.383463 1_544
Cr0_4 S0_5 2.383463 1_554
Cr0_4 S3_4 2.434471 1_555
Cr0_4 S4_4 2.442173 1_555
Cr0_4 S7_6 2.482916 1_545
Cr0_4 S7_4 2.482916 1_555
Cr0_5 S0_6 2.383463 1_545
Cr0_5 S0_4 2.383463 1_555
Cr0_5 S3_5 2.434471 1_555
Cr0_5 S4_5 2.442173 1_555
Cr0_5 S7_7 2.482916 1_545
Cr0_5 S7_5 2.482916 1_555
Cr0_6 S0_5 2.383463 1_554
Cr0_6 S0_7 2.383463 1_554
Cr0_6 S3_6 2.434471 1_555
Cr0_6 S4_6 2.442173 1_555
Cr0_6 S7_4 2.482916 1_555
Cr0_6 S7_6 2.482916 1_555
Cr0_7 S0_4 2.383463 1_555
Cr0_7 S0_6 2.383463 1_555
Cr0_7 S3_7 2.434471 1_555
Cr0_7 S4_7 2.442173 1_555
Cr0_7 S7_5 2.482916 1_555
Cr0_7 S7_7 2.482916 1_555
Cr1_0 S3_1 2.383463 1_555
Cr1_0 S3_3 2.383463 1_555
Cr1_0 S0_0 2.434471 1_555
Cr1_0 S7_0 2.442173 1_555
Cr1_0 S4_2 2.482916 1_555
Cr1_0 S4_0 2.482916 1_555
Cr1_1 S3_2 2.383463 1_556
Cr1_1 S3_0 2.383463 1_556
Cr1_1 S0_1 2.434471 1_555
Cr1_1 S7_1 2.442173 1_555
Cr1_1 S4_3 2.482916 1_555
Cr1_1 S4_1 2.482916 1_555
Cr1_2 S3_1 2.383463 1_565
Cr1_2 S3_3 2.383463 1_555
Cr1_2 S0_2 2.434471 1_555
Cr1_2 S7_2 2.442173 1_555
Cr1_2 S4_0 2.482916 1_565
Cr1_2 S4_2 2.482916 1_555
Cr1_3 S3_0 2.383463 1_566
Cr1_3 S3_2 2.383463 1_556
Cr1_3 S0_3 2.434471 1_555
Cr1_3 S7_3 2.442173 1_555
Cr1_3 S4_1 2.482916 1_565
Cr1_3 S4_3 2.482916 1_555
Cr1_4 S3_5 2.383463 1_555
Cr1_4 S3_7 2.383463 1_555
Cr1_4 S0_4 2.434471 1_555
Cr1_4 S7_4 2.442173 1_555
Cr1_4 S4_6 2.482916 1_555
Cr1_4 S4_4 2.482916 1_555
Cr1_5 S3_6 2.383463 1_556
Cr1_5 S3_4 2.383463 1_556
Cr1_5 S0_5 2.434471 1_555
Cr1_5 S7_5 2.442173 1_555
Cr1_5 S4_5 2.482916 1_555
Cr1_5 S4_7 2.482916 1_555
Cr1_6 S3_5 2.383463 1_565
Cr1_6 S3_7 2.383463 1_555
Cr1_6 S0_6 2.434471 1_555
Cr1_6 S7_6 2.442173 1_555
Cr1_6 S4_4 2.482916 1_565
Cr1_6 S4_6 2.482916 1_555
Cr1_7 S3_4 2.383463 1_566
Cr1_7 S3_6 2.383463 1_556
Cr1_7 S0_7 2.434471 1_555
Cr1_7 S7_7 2.442173 1_555
Cr1_7 S4_5 2.482916 1_565
Cr1_7 S4_7 2.482916 1_555
Ag0_0 S0_0 2.679846 1_555
Ag0_0 S4_2 2.694964 1_555
Ag0_0 S4_0 2.694964 1_555
Ag0_0 S1_4 2.781757 1_455
Ag0_0 S5_6 2.783741 1_455
Ag0_0 S5_4 2.783741 1_455
Ag0_1 S0_1 2.679846 1_555
Ag0_1 S4_3 2.694964 1_555
Ag0_1 S4_1 2.694964 1_555
Ag0_1 S1_5 2.781757 1_455
Ag0_1 S5_5 2.783741 1_455
Ag0_1 S5_7 2.783741 1_455
Ag0_2 S0_2 2.679846 1_555
Ag0_2 S4_0 2.694964 1_565
Ag0_2 S4_2 2.694964 1_555
Ag0_2 S1_6 2.781757 1_455
Ag0_2 S5_4 2.783741 1_465
Ag0_2 S5_6 2.783741 1_455
Ag0_3 S0_3 2.679846 1_555
Ag0_3 S4_1 2.694964 1_565
Ag0_3 S4_3 2.694964 1_555
Ag0_3 S1_7 2.781757 1_455
Ag0_3 S5_5 2.783741 1_465
Ag0_3 S5_7 2.783741 1_455
Ag0_4 S0_4 2.679846 1_555
Ag0_4 S4_4 2.694964 1_555
Ag0_4 S4_6 2.694964 1_555
Ag0_4 S1_0 2.781757 1_555
Ag0_4 S5_0 2.783741 1_555
Ag0_4 S5_2 2.783741 1_555
Ag0_5 S0_5 2.679846 1_555
Ag0_5 S4_7 2.694964 1_555
Ag0_5 S4_5 2.694964 1_555
Ag0_5 S1_1 2.781757 1_555
Ag0_5 S5_1 2.783741 1_555
Ag0_5 S5_3 2.783741 1_555
Ag0_6 S0_6 2.679846 1_555
Ag0_6 S4_4 2.694964 1_565
Ag0_6 S4_6 2.694964 1_555
Ag0_6 S1_2 2.781757 1_555
Ag0_6 S5_0 2.783741 1_565
Ag0_6 S5_2 2.783741 1_555
Ag0_7 S0_7 2.679846 1_555
Ag0_7 S4_5 2.694964 1_565
Ag0_7 S4_7 2.694964 1_555
Ag0_7 S1_3 2.781757 1_555
Ag0_7 S5_1 2.783741 1_565
Ag0_7 S5_3 2.783741 1_555
Ag1_0 S3_0 2.679846 1_555
Ag1_0 S7_2 2.694964 1_545
Ag1_0 S7_0 2.694964 1_555
Ag1_0 S2_0 2.781757 1_555
Ag1_0 S6_2 2.783741 1_545
Ag1_0 S6_0 2.783741 1_555
Ag1_1 S3_1 2.679846 1_555
Ag1_1 S7_3 2.694964 1_545
Ag1_1 S7_1 2.694964 1_555
Ag1_1 S2_1 2.781757 1_555
Ag1_1 S6_3 2.783741 1_545
Ag1_1 S6_1 2.783741 1_555
Ag1_2 S3_2 2.679846 1_555
Ag1_2 S7_0 2.694964 1_555
Ag1_2 S7_2 2.694964 1_555
Ag1_2 S2_2 2.781757 1_555
Ag1_2 S6_0 2.783741 1_555
Ag1_2 S6_2 2.783741 1_555
Ag1_3 S3_3 2.679846 1_555
Ag1_3 S7_1 2.694964 1_555
Ag1_3 S7_3 2.694964 1_555
Ag1_3 S2_3 2.781757 1_555
Ag1_3 S6_1 2.783741 1_555
Ag1_3 S6_3 2.783741 1_555
Ag1_4 S3_4 2.679846 1_555
Ag1_4 S7_6 2.694964 1_545
Ag1_4 S7_4 2.694964 1_555
Ag1_4 S2_4 2.781757 1_555
Ag1_4 S6_6 2.783741 1_545
Ag1_4 S6_4 2.783741 1_555
Ag1_5 S3_5 2.679846 1_555
Ag1_5 S7_7 2.694964 1_545
Ag1_5 S7_5 2.694964 1_555
Ag1_5 S2_5 2.781757 1_555
Ag1_5 S6_7 2.783741 1_545
Ag1_5 S6_5 2.783741 1_555
Ag1_6 S3_6 2.679846 1_555
Ag1_6 S7_4 2.694964 1_555
Ag1_6 S7_6 2.694964 1_555
Ag1_6 S2_6 2.781757 1_555
Ag1_6 S6_4 2.783741 1_555
Ag1_6 S6_6 2.783741 1_555
Ag1_7 S3_7 2.679846 1_555
Ag1_7 S7_5 2.694964 1_555
Ag1_7 S7_7 2.694964 1_555
Ag1_7 S2_7 2.781757 1_555
Ag1_7 S6_5 2.783741 1_555
Ag1_7 S6_7 2.783741 1_555
S1_0 Zr0_3 2.560275 1_554
S1_0 Zr0_1 2.560275 1_554
S1_0 Zr1_0 2.605793 1_555
S1_0 S1_2 3.604342 1_545
S1_0 S1_2 3.604342 1_555
S1_0 S5_1 3.606589 1_554
S1_0 S5_3 3.606589 1_554
S1_1 Zr0_2 2.560275 1_555
S1_1 Zr0_0 2.560275 1_555
S1_1 Zr1_1 2.605793 1_555
S1_1 S1_3 3.604342 1_545
S1_1 S1_3 3.604342 1_555
S1_1 S5_0 3.606589 1_555
S1_1 S5_2 3.606589 1_555
S1_2 Zr0_1 2.560275 1_564
S1_2 Zr0_3 2.560275 1_554
S1_2 Zr1_2 2.605793 1_555
S1_2 S5_1 3.606589 1_564
S1_2 S5_3 3.606589 1_554
S1_3 Zr0_0 2.560275 1_565
S1_3 Zr0_2 2.560275 1_555
S1_3 Zr1_3 2.605793 1_555
S1_3 S5_0 3.606589 1_565
S1_3 S5_2 3.606589 1_555
S1_4 Zr0_7 2.560275 1_554
S1_4 Zr0_5 2.560275 1_554
S1_4 Zr1_4 2.605793 1_555
S1_4 S1_6 3.604342 1_545
S1_4 S1_6 3.604342 1_555
S1_4 S5_7 3.606589 1_554
S1_4 S5_5 3.606589 1_554
S1_5 Zr0_4 2.560275 1_555
S1_5 Zr0_6 2.560275 1_555
S1_5 Zr1_5 2.605793 1_555
S1_5 S1_7 3.604342 1_545
S1_5 S1_7 3.604342 1_555
S1_5 S5_6 3.606589 1_555
S1_5 S5_4 3.606589 1_555
S1_6 Zr0_5 2.560275 1_564
S1_6 Zr0_7 2.560275 1_554
S1_6 Zr1_6 2.605793 1_555
S1_6 S5_5 3.606589 1_564
S1_6 S5_7 3.606589 1_554
S1_7 Zr0_4 2.560275 1_565
S1_7 Zr0_6 2.560275 1_555
S1_7 Zr1_7 2.605793 1_555
S1_7 S5_4 3.606589 1_565
S1_7 S5_6 3.606589 1_555
S2_0 Zr1_3 2.560275 1_545
S2_0 Zr1_1 2.560275 1_555
S2_0 Zr0_0 2.605793 1_555
S2_0 S2_2 3.604342 1_555
S2_0 S2_2 3.604342 1_545
S2_0 S6_3 3.606589 1_545
S2_0 S6_1 3.606589 1_555
S2_1 Zr1_2 2.560275 1_546
S2_1 Zr1_0 2.560275 1_556
S2_1 Zr0_1 2.605793 1_555
S2_1 S2_3 3.604342 1_555
S2_1 S2_3 3.604342 1_545
S2_1 S6_2 3.606589 1_546
S2_1 S6_0 3.606589 1_556
S2_2 Zr1_1 2.560275 1_555
S2_2 Zr1_3 2.560275 1_555
S2_2 Zr0_2 2.605793 1_555
S2_2 S6_1 3.606589 1_555
S2_2 S6_3 3.606589 1_555
S2_3 Zr1_0 2.560275 1_556
S2_3 Zr1_2 2.560275 1_556
S2_3 Zr0_3 2.605793 1_555
S2_3 S6_0 3.606589 1_556
S2_3 S6_2 3.606589 1_556
S2_4 Zr1_7 2.560275 1_545
S2_4 Zr1_5 2.560275 1_555
S2_4 Zr0_4 2.605793 1_555
S2_4 S2_6 3.604342 1_555
S2_4 S2_6 3.604342 1_545
S2_4 S6_7 3.606589 1_545
S2_4 S6_5 3.606589 1_555
S2_5 Zr1_6 2.560275 1_546
S2_5 Zr1_4 2.560275 1_556
S2_5 Zr0_5 2.605793 1_555
S2_5 S2_7 3.604342 1_545
S2_5 S2_7 3.604342 1_555
S2_5 S6_6 3.606589 1_546
S2_5 S6_4 3.606589 1_556
S2_6 Zr1_5 2.560275 1_555
S2_6 Zr1_7 2.560275 1_555
S2_6 Zr0_6 2.605793 1_555
S2_6 S6_5 3.606589 1_555
S2_6 S6_7 3.606589 1_555
S2_7 Zr1_4 2.560275 1_556
S2_7 Zr1_6 2.560275 1_556
S2_7 Zr0_7 2.605793 1_555
S2_7 S6_4 3.606589 1_556
S2_7 S6_6 3.606589 1_556
S5_0 Zr0_0 2.559147 1_555
S5_0 Zr1_2 2.605204 1_545
S5_0 Zr1_0 2.605204 1_555
S5_1 Zr0_1 2.559147 1_555
S5_1 Zr1_3 2.605204 1_545
S5_1 Zr1_1 2.605204 1_555
S5_2 Zr0_2 2.559147 1_555
S5_2 Zr1_0 2.605204 1_555
S5_2 Zr1_2 2.605204 1_555
S5_3 Zr0_3 2.559147 1_555
S5_3 Zr1_1 2.605204 1_555
S5_3 Zr1_3 2.605204 1_555
S5_4 Zr0_4 2.559147 1_555
S5_4 Zr1_6 2.605204 1_545
S5_4 Zr1_4 2.605204 1_555
S5_5 Zr0_5 2.559147 1_555
S5_5 Zr1_7 2.605204 1_545
S5_5 Zr1_5 2.605204 1_555
S5_6 Zr0_6 2.559147 1_555
S5_6 Zr1_4 2.605204 1_555
S5_6 Zr1_6 2.605204 1_555
S5_7 Zr0_7 2.559147 1_555
S5_7 Zr1_5 2.605204 1_555
S5_7 Zr1_7 2.605204 1_555
S6_0 Zr1_0 2.559147 1_555
S6_0 Zr0_2 2.605204 1_555
S6_0 Zr0_0 2.605204 1_555
S6_1 Zr1_1 2.559147 1_555
S6_1 Zr0_3 2.605204 1_555
S6_1 Zr0_1 2.605204 1_555
S6_2 Zr1_2 2.559147 1_555
S6_2 Zr0_0 2.605204 1_565
S6_2 Zr0_2 2.605204 1_555
S6_3 Zr1_3 2.559147 1_555
S6_3 Zr0_1 2.605204 1_565
S6_3 Zr0_3 2.605204 1_555
S6_4 Zr1_4 2.559147 1_555
S6_4 Zr0_4 2.605204 1_555
S6_4 Zr0_6 2.605204 1_555
S6_5 Zr1_5 2.559147 1_555
S6_5 Zr0_7 2.605204 1_555
S6_5 Zr0_5 2.605204 1_555
S6_6 Zr1_6 2.559147 1_555
S6_6 Zr0_4 2.605204 1_565
S6_6 Zr0_6 2.605204 1_555
S6_7 Zr1_7 2.559147 1_555
S6_7 Zr0_5 2.605204 1_565
S6_7 Zr0_7 2.605204 1_555
