# generated using pymatgen
data_K2Pd3Se4
_symmetry_space_group_name_H-M   'P 1'
_cell_length_a   6.35779401
_cell_length_b   6.37251504
_cell_length_c   13.64665214
_cell_angle_alpha   83.32700763
_cell_angle_beta   76.52958412
_cell_angle_gamma   60.07639271
_symmetry_Int_Tables_number   1
_chemical_formula_structural   K2Pd3Se4
_chemical_formula_sum   'K4 Pd6 Se8'
_cell_volume   466.00777666
_cell_formula_units_Z   2
loop_
 _symmetry_equiv_pos_site_id
 _symmetry_equiv_pos_as_xyz
  1  'x, y, z'
loop_
 _atom_site_type_symbol
 _atom_site_label
 _atom_site_symmetry_multiplicity
 _atom_site_fract_x
 _atom_site_fract_y
 _atom_site_fract_z
 _atom_site_occupancy
  K  K0  1  0.30110822  0.25000000  0.39778457  1
  K  K1  1  0.44889178  0.25000000  0.10221543  1
  K  K2  1  0.69889178  0.75000000  0.60221543  1
  K  K3  1  0.55110822  0.75000000  0.89778457  1
  Pd  Pd0  1  0.37396154  0.75000000  0.25207693  1
  Pd  Pd1  1  0.12396154  0.25000000  0.75207693  1
  Pd  Pd2  1  0.62603846  0.25000000  0.74792307  1
  Pd  Pd3  1  0.12500000  0.75000000  0.75000000  1
  Pd  Pd4  1  0.87500000  0.25000000  0.25000000  1
  Pd  Pd5  1  0.87603846  0.75000000  0.24792307  1
  Se  Se0  1  0.34722279  0.41672014  0.62550676  1
  Se  Se1  1  0.02726945  0.08327986  0.62550676  1
  Se  Se2  1  0.23605807  0.41672014  0.87449324  1
  Se  Se3  1  0.11055031  0.91672014  0.12550676  1
  Se  Se4  1  0.65277721  0.58327986  0.37449324  1
  Se  Se5  1  0.88945069  0.08327986  0.87449324  1
  Se  Se6  1  0.76394193  0.58327986  0.12550676  1
  Se  Se7  1  0.97273055  0.91672014  0.37449324  1
loop_
_geom_bond_atom_site_label_1
_geom_bond_atom_site_label_2
_geom_bond_distance
_geom_bond_site_symmetry_2
K0 Se0 3.517775 1_555
K0 Se1 3.517780 1_555
K0 Se4 3.649875 1_455
K0 Se7 3.649875 1_545
K0 Se7 3.695491 1_455
K0 Se4 3.695491 1_545
K0 Se4 3.722937 1_555
K0 Se7 3.722937 1_445
K0 Pd0 3.727131 1_555
K0 Pd0 3.727133 1_545
K0 Pd4 3.735238 1_555
K0 Pd4 3.735243 1_455
K0 Pd5 3.756028 1_545
K0 Pd5 3.756030 1_455
K0 K1 3.922568 1_555
K0 K2 4.184837 1_545
K0 K2 4.184842 1_455
K1 Se2 3.517772 1_554
K1 Se5 3.517781 1_554
K1 Se3 3.649869 1_545
K1 Se6 3.649869 1_555
K1 Se6 3.695491 1_545
K1 Se3 3.695491 1_555
K1 Se3 3.722943 1_645
K1 Se6 3.722943 1_455
K1 Pd5 3.727131 1_455
K1 Pd5 3.727133 1_545
K1 Pd4 3.735238 1_455
K1 Pd4 3.735243 1_555
K1 Pd0 3.756027 1_545
K1 Pd0 3.756030 1_555
K1 K3 4.184837 1_544
K1 K3 4.184842 1_554
K2 Se4 3.517775 1_555
K2 Se7 3.517780 1_555
K2 Se0 3.649875 1_655
K2 Se1 3.649875 1_565
K2 Se1 3.695491 1_655
K2 Se0 3.695491 1_565
K2 Se0 3.722937 1_555
K2 Se1 3.722937 1_665
K2 Pd2 3.727131 1_555
K2 Pd2 3.727133 1_565
K2 Pd3 3.735238 1_555
K2 Pd3 3.735243 1_655
K2 Pd1 3.756028 1_565
K2 Pd1 3.756030 1_655
K2 K3 3.922568 1_555
K3 Se6 3.517772 1_556
K3 Se3 3.517778 1_556
K3 Se2 3.649869 1_555
K3 Se5 3.649875 1_565
K3 Se5 3.695491 1_555
K3 Se2 3.695491 1_565
K3 Se5 3.722938 1_465
K3 Se2 3.722943 1_655
K3 Pd1 3.727131 1_655
K3 Pd1 3.727133 1_565
K3 Pd3 3.735238 1_655
K3 Pd3 3.735243 1_555
K3 Pd2 3.756027 1_565
K3 Pd2 3.756030 1_555
Pd0 Se6 2.462284 1_555
Pd0 Se3 2.462288 1_555
Pd0 Se7 2.479928 1_455
Pd0 Se4 2.479932 1_555
Pd0 Pd5 3.179375 1_555
Pd0 Pd5 3.179375 1_455
Pd0 Pd4 3.186377 1_555
Pd0 Pd4 3.186377 1_465
Pd1 Se0 2.462288 1_555
Pd1 Se1 2.462292 1_555
Pd1 Se5 2.479928 1_455
Pd1 Se2 2.479936 1_555
Pd1 Pd2 3.179375 1_555
Pd1 Pd2 3.179375 1_455
Pd1 Pd3 3.186377 1_555
Pd1 Pd3 3.186377 1_545
Pd2 Se2 2.462284 1_555
Pd2 Se5 2.462292 1_555
Pd2 Se1 2.479928 1_655
Pd2 Se0 2.479932 1_555
Pd2 Pd3 3.186377 1_555
Pd2 Pd3 3.186377 1_645
Pd3 Se1 2.473800 1_565
Pd3 Se5 2.473800 1_465
Pd3 Se0 2.473801 1_555
Pd3 Se2 2.473801 1_555
Pd4 Se7 2.473800 1_545
Pd4 Se4 2.473801 1_555
Pd4 Se3 2.473801 1_645
Pd4 Se6 2.473801 1_555
Pd4 Pd5 3.186377 1_555
Pd4 Pd5 3.186377 1_545
Pd5 Se4 2.462288 1_555
Pd5 Se7 2.462292 1_555
Pd5 Se3 2.479932 1_655
Pd5 Se6 2.479936 1_555
