# generated using pymatgen
data_NaMg14Bi
_symmetry_space_group_name_H-M   'P 1'
_cell_length_a   6.50331866
_cell_length_b   6.50331811
_cell_length_c   10.58072663
_cell_angle_alpha   90.00000000
_cell_angle_beta   90.00000000
_cell_angle_gamma   120.00000281
_symmetry_Int_Tables_number   1
_chemical_formula_structural   NaMg14Bi
_chemical_formula_sum   'Na1 Mg14 Bi1'
_cell_volume   387.53965283
_cell_formula_units_Z   1
loop_
 _symmetry_equiv_pos_site_id
 _symmetry_equiv_pos_as_xyz
  1  'x, y, z'
loop_
 _atom_site_type_symbol
 _atom_site_label
 _atom_site_symmetry_multiplicity
 _atom_site_fract_x
 _atom_site_fract_y
 _atom_site_fract_z
 _atom_site_occupancy
  Na  Na0  1  0.16666700  0.33333300  0.12500000  1
  Mg  Mg0  1  0.16807993  0.83403946  0.12500000  1
  Mg  Mg1  1  0.16554712  0.83277306  0.62500000  1
  Mg  Mg2  1  0.66596054  0.33192007  0.12500000  1
  Mg  Mg3  1  0.66722694  0.33445288  0.62500000  1
  Mg  Mg4  1  0.66596054  0.83403946  0.12500000  1
  Mg  Mg5  1  0.66722694  0.83277306  0.62500000  1
  Mg  Mg6  1  0.33637843  0.16362157  0.37393734  1
  Mg  Mg7  1  0.33637843  0.16362157  0.87606266  1
  Mg  Mg8  1  0.33637843  0.67275786  0.37393734  1
  Mg  Mg9  1  0.33637843  0.67275786  0.87606266  1
  Mg  Mg10  1  0.82724214  0.16362157  0.37393734  1
  Mg  Mg11  1  0.82724214  0.16362157  0.87606266  1
  Mg  Mg12  1  0.83333300  0.66666700  0.37415681  1
  Mg  Mg13  1  0.83333300  0.66666700  0.87584319  1
  Bi  Bi0  1  0.16666700  0.33333300  0.62500000  1
loop_
_geom_bond_atom_site_label_1
_geom_bond_atom_site_label_2
_geom_bond_distance
_geom_bond_site_symmetry_2
Mg0 Mg9 3.222368 1_554
Mg0 Mg8 3.222368 1_555
Mg0 Mg6 3.222375 1_565
Mg0 Mg7 3.222375 1_564
Mg0 Mg2 3.237876 1_565
Mg0 Mg4 3.237876 1_555
Mg0 Mg12 3.241026 1_455
Mg0 Mg13 3.241026 1_454
Mg0 Na0 3.251669 1_555
Mg0 Na0 3.251669 1_565
Mg0 Mg2 3.265442 1_455
Mg0 Mg4 3.265442 1_455
Mg1 Mg3 3.240735 1_455
Mg1 Mg5 3.240735 1_455
Mg1 Mg8 3.244976 1_555
Mg1 Mg9 3.244976 1_555
Mg1 Mg6 3.244982 1_565
Mg1 Mg7 3.244982 1_565
Mg1 Mg12 3.247317 1_455
Mg1 Mg13 3.247317 1_455
Mg1 Mg3 3.262583 1_565
Mg1 Mg5 3.262584 1_555
Mg2 Mg7 3.222375 1_554
Mg2 Mg6 3.222375 1_555
Mg2 Mg4 3.237876 1_545
Mg2 Na0 3.251669 1_655
Mg2 Na0 3.251669 1_555
Mg2 Mg4 3.265442 1_555
Mg3 Mg5 3.240735 1_555
Mg3 Mg6 3.244983 1_555
Mg3 Mg7 3.244983 1_555
Mg3 Mg5 3.262583 1_545
Mg4 Mg9 3.222375 1_554
Mg4 Mg8 3.222375 1_555
Mg4 Na0 3.251669 1_555
Mg4 Na0 3.251669 1_665
Mg5 Mg9 3.244983 1_555
Mg5 Mg8 3.244983 1_555
Mg6 Mg8 3.192243 1_545
Mg6 Na0 3.254536 1_555
Mg6 Mg8 3.311075 1_555
Mg7 Mg9 3.192243 1_545
Mg7 Na0 3.254536 1_556
Mg7 Mg9 3.311075 1_555
Mg8 Na0 3.254543 1_555
Mg9 Na0 3.254543 1_556
Mg10 Mg8 3.192243 1_545
Mg10 Mg6 3.192243 1_555
Mg10 Mg2 3.222368 1_555
Mg10 Mg4 3.222375 1_545
Mg10 Mg3 3.244976 1_555
Mg10 Mg5 3.244983 1_545
Mg10 Mg12 3.251841 1_555
Mg10 Mg12 3.251841 1_545
Mg10 Na0 3.254543 1_655
Mg10 Mg8 3.311075 1_655
Mg10 Mg6 3.311076 1_655
Mg11 Mg9 3.192243 1_545
Mg11 Mg7 3.192243 1_555
Mg11 Mg2 3.222368 1_556
Mg11 Mg4 3.222375 1_546
Mg11 Mg3 3.244976 1_555
Mg11 Mg5 3.244983 1_545
Mg11 Mg13 3.251841 1_555
Mg11 Mg13 3.251841 1_545
Mg11 Na0 3.254543 1_656
Mg11 Mg9 3.311075 1_655
Mg11 Mg7 3.311076 1_655
Mg12 Mg4 3.241020 1_555
Mg12 Mg2 3.241026 1_555
Mg12 Mg5 3.247310 1_555
Mg12 Mg3 3.247317 1_555
Mg12 Mg6 3.251841 1_555
Mg12 Mg6 3.251841 1_665
Mg12 Mg8 3.251841 1_655
Mg12 Mg8 3.251841 1_555
Mg13 Mg4 3.241020 1_556
Mg13 Mg2 3.241026 1_556
Mg13 Mg5 3.247310 1_555
Mg13 Mg3 3.247317 1_555
Mg13 Mg7 3.251841 1_555
Mg13 Mg7 3.251841 1_665
Mg13 Mg9 3.251841 1_655
Mg13 Mg9 3.251841 1_555
Bi0 Mg5 3.251665 1_445
Bi0 Mg1 3.251665 1_545
Bi0 Mg1 3.251665 1_555
Bi0 Mg5 3.251665 1_555
Bi0 Mg3 3.251665 1_455
Bi0 Mg3 3.251665 1_555
Bi0 Mg7 3.272762 1_555
Bi0 Mg6 3.272762 1_555
Bi0 Mg8 3.272769 1_555
Bi0 Mg9 3.272769 1_555
Bi0 Mg11 3.272769 1_455
Bi0 Mg10 3.272769 1_455
