# generated using pymatgen
data_SmSbPd
_symmetry_space_group_name_H-M   'P 1'
_cell_length_a   4.61587448
_cell_length_b   4.61587448
_cell_length_c   7.59419511
_cell_angle_alpha   90.00000000
_cell_angle_beta   90.00000000
_cell_angle_gamma   119.99999544
_symmetry_Int_Tables_number   1
_chemical_formula_structural   SmSbPd
_chemical_formula_sum   'Sm2 Sb2 Pd2'
_cell_volume   140.12653524
_cell_formula_units_Z   2
loop_
 _symmetry_equiv_pos_site_id
 _symmetry_equiv_pos_as_xyz
  1  'x, y, z'
loop_
 _atom_site_type_symbol
 _atom_site_label
 _atom_site_symmetry_multiplicity
 _atom_site_fract_x
 _atom_site_fract_y
 _atom_site_fract_z
 _atom_site_occupancy
  Sm  Sm0  1  0.00000000  -0.00000000  0.98507129  1
  Sm  Sm1  1  0.00000000  0.00000000  0.48507129  1
  Sb  Sb0  1  0.66666700  0.33333300  0.71296969  1
  Sb  Sb1  1  0.33333300  0.66666700  0.21296969  1
  Pd  Pd0  1  0.66666700  0.33333300  0.31096003  1
  Pd  Pd1  1  0.33333300  0.66666700  0.81096003  1
loop_
_geom_bond_atom_site_label_1
_geom_bond_atom_site_label_2
_geom_bond_distance
_geom_bond_site_symmetry_2
Sb0 Sm1 3.177644 1_655
Sb0 Sm1 3.177648 1_665
Sb0 Sm1 3.177648 1_555
Sb0 Sm0 3.372249 1_655
Sb0 Sm0 3.372252 1_555
Sb0 Sm0 3.372252 1_665
Sb1 Sm0 3.177644 1_564
Sb1 Sm0 3.177648 1_664
Sb1 Sm0 3.177648 1_554
Sb1 Sm1 3.372249 1_565
Sb1 Sm1 3.372252 1_665
Sb1 Sm1 3.372252 1_555
Pd0 Sb1 2.766922 1_655
Pd0 Sb1 2.766922 1_545
Pd0 Sb1 2.766929 1_555
Pd0 Sm1 2.974960 1_655
Pd0 Sm1 2.974964 1_555
Pd0 Sm1 2.974964 1_665
Pd0 Sb0 3.052940 1_555
Pd0 Sm0 3.636898 1_654
Pd0 Sm0 3.636901 1_664
Pd0 Sm0 3.636901 1_554
Pd1 Sb0 2.766922 1_455
Pd1 Sb0 2.766922 1_565
Pd1 Sb0 2.766929 1_555
Pd1 Sm0 2.974960 1_565
Pd1 Sm0 2.974964 1_665
Pd1 Sm0 2.974964 1_555
Pd1 Sb1 3.052940 1_556
Pd1 Sm1 3.636898 1_565
Pd1 Sm1 3.636901 1_665
Pd1 Sm1 3.636901 1_555
