# generated using pymatgen
data_Mg3B2Rh5
_symmetry_space_group_name_H-M   'P 1'
_cell_length_a   18.84320870
_cell_length_b   18.84320870
_cell_length_c   5.87260686
_cell_angle_alpha   90.00000000
_cell_angle_beta   90.00000000
_cell_angle_gamma   90.00000000
_symmetry_Int_Tables_number   1
_chemical_formula_structural   Mg3B2Rh5
_chemical_formula_sum   'Mg48 B32 Rh80'
_cell_volume   2085.16604653
_cell_formula_units_Z   16
loop_
 _symmetry_equiv_pos_site_id
 _symmetry_equiv_pos_as_xyz
  1  'x, y, z'
loop_
 _atom_site_type_symbol
 _atom_site_label
 _atom_site_symmetry_multiplicity
 _atom_site_fract_x
 _atom_site_fract_y
 _atom_site_fract_z
 _atom_site_occupancy
  Mg  Mg0_0  1  0.33873080  0.08873080  0.00000000  1
  Mg  Mg0_1  1  0.33873080  0.08873080  0.50000000  1
  Mg  Mg0_2  1  0.33873080  0.58873080  0.00000000  1
  Mg  Mg0_3  1  0.33873080  0.58873080  0.50000000  1
  Mg  Mg0_4  1  0.83873080  0.08873080  0.00000000  1
  Mg  Mg0_5  1  0.83873080  0.08873080  0.50000000  1
  Mg  Mg0_6  1  0.83873080  0.58873080  0.00000000  1
  Mg  Mg0_7  1  0.83873080  0.58873080  0.50000000  1
  Mg  Mg1_0  1  0.16126920  0.41126920  0.00000000  1
  Mg  Mg1_1  1  0.16126920  0.41126920  0.50000000  1
  Mg  Mg1_2  1  0.16126920  0.91126920  0.00000000  1
  Mg  Mg1_3  1  0.16126920  0.91126920  0.50000000  1
  Mg  Mg1_4  1  0.66126920  0.41126920  0.00000000  1
  Mg  Mg1_5  1  0.66126920  0.41126920  0.50000000  1
  Mg  Mg1_6  1  0.66126920  0.91126920  0.00000000  1
  Mg  Mg1_7  1  0.66126920  0.91126920  0.50000000  1
  Mg  Mg2_0  1  0.08873080  0.16126920  0.00000000  1
  Mg  Mg2_1  1  0.08873080  0.16126920  0.50000000  1
  Mg  Mg2_2  1  0.08873080  0.66126920  0.00000000  1
  Mg  Mg2_3  1  0.08873080  0.66126920  0.50000000  1
  Mg  Mg2_4  1  0.58873080  0.16126920  0.00000000  1
  Mg  Mg2_5  1  0.58873080  0.16126920  0.50000000  1
  Mg  Mg2_6  1  0.58873080  0.66126920  0.00000000  1
  Mg  Mg2_7  1  0.58873080  0.66126920  0.50000000  1
  Mg  Mg3_0  1  0.41126920  0.33873080  0.00000000  1
  Mg  Mg3_1  1  0.41126920  0.33873080  0.50000000  1
  Mg  Mg3_2  1  0.41126920  0.83873080  0.00000000  1
  Mg  Mg3_3  1  0.41126920  0.83873080  0.50000000  1
  Mg  Mg3_4  1  0.91126920  0.33873080  0.00000000  1
  Mg  Mg3_5  1  0.91126920  0.33873080  0.50000000  1
  Mg  Mg3_6  1  0.91126920  0.83873080  0.00000000  1
  Mg  Mg3_7  1  0.91126920  0.83873080  0.50000000  1
  Mg  Mg4_0  1  0.00000000  0.00000000  0.00000000  1
  Mg  Mg4_1  1  0.00000000  0.00000000  0.50000000  1
  Mg  Mg4_2  1  0.00000000  0.50000000  0.00000000  1
  Mg  Mg4_3  1  0.00000000  0.50000000  0.50000000  1
  Mg  Mg4_4  1  0.50000000  0.00000000  0.00000000  1
  Mg  Mg4_5  1  0.50000000  0.00000000  0.50000000  1
  Mg  Mg4_6  1  0.50000000  0.50000000  0.00000000  1
  Mg  Mg4_7  1  0.50000000  0.50000000  0.50000000  1
  Mg  Mg5_0  1  0.25000000  0.25000000  0.00000000  1
  Mg  Mg5_1  1  0.25000000  0.25000000  0.50000000  1
  Mg  Mg5_2  1  0.25000000  0.75000000  0.00000000  1
  Mg  Mg5_3  1  0.25000000  0.75000000  0.50000000  1
  Mg  Mg5_4  1  0.75000000  0.25000000  0.00000000  1
  Mg  Mg5_5  1  0.75000000  0.25000000  0.50000000  1
  Mg  Mg5_6  1  0.75000000  0.75000000  0.00000000  1
  Mg  Mg5_7  1  0.75000000  0.75000000  0.50000000  1
  B  B0_0  1  0.06289083  0.31289083  0.00000000  1
  B  B0_1  1  0.06289083  0.31289083  0.50000000  1
  B  B0_2  1  0.06289083  0.81289083  0.00000000  1
  B  B0_3  1  0.06289083  0.81289083  0.50000000  1
  B  B0_4  1  0.56289083  0.31289083  0.00000000  1
  B  B0_5  1  0.56289083  0.31289083  0.50000000  1
  B  B0_6  1  0.56289083  0.81289083  0.00000000  1
  B  B0_7  1  0.56289083  0.81289083  0.50000000  1
  B  B1_0  1  0.43710917  0.18710917  0.00000000  1
  B  B1_1  1  0.43710917  0.18710917  0.50000000  1
  B  B1_2  1  0.43710917  0.68710917  0.00000000  1
  B  B1_3  1  0.43710917  0.68710917  0.50000000  1
  B  B1_4  1  0.93710917  0.18710917  0.00000000  1
  B  B1_5  1  0.93710917  0.18710917  0.50000000  1
  B  B1_6  1  0.93710917  0.68710917  0.00000000  1
  B  B1_7  1  0.93710917  0.68710917  0.50000000  1
  B  B2_0  1  0.31289083  0.43710917  0.00000000  1
  B  B2_1  1  0.31289083  0.43710917  0.50000000  1
  B  B2_2  1  0.31289083  0.93710917  0.00000000  1
  B  B2_3  1  0.31289083  0.93710917  0.50000000  1
  B  B2_4  1  0.81289083  0.43710917  0.00000000  1
  B  B2_5  1  0.81289083  0.43710917  0.50000000  1
  B  B2_6  1  0.81289083  0.93710917  0.00000000  1
  B  B2_7  1  0.81289083  0.93710917  0.50000000  1
  B  B3_0  1  0.18710917  0.06289083  0.00000000  1
  B  B3_1  1  0.18710917  0.06289083  0.50000000  1
  B  B3_2  1  0.18710917  0.56289083  0.00000000  1
  B  B3_3  1  0.18710917  0.56289083  0.50000000  1
  B  B3_4  1  0.68710917  0.06289083  0.00000000  1
  B  B3_5  1  0.68710917  0.06289083  0.50000000  1
  B  B3_6  1  0.68710917  0.56289083  0.00000000  1
  B  B3_7  1  0.68710917  0.56289083  0.50000000  1
  Rh  Rh0_0  1  0.25000000  0.00000000  0.25000000  1
  Rh  Rh0_1  1  0.25000000  0.00000000  0.75000000  1
  Rh  Rh0_2  1  0.25000000  0.50000000  0.25000000  1
  Rh  Rh0_3  1  0.25000000  0.50000000  0.75000000  1
  Rh  Rh0_4  1  0.75000000  0.00000000  0.25000000  1
  Rh  Rh0_5  1  0.75000000  0.00000000  0.75000000  1
  Rh  Rh0_6  1  0.75000000  0.50000000  0.25000000  1
  Rh  Rh0_7  1  0.75000000  0.50000000  0.75000000  1
  Rh  Rh1_0  1  0.00000000  0.25000000  0.25000000  1
  Rh  Rh1_1  1  0.00000000  0.25000000  0.75000000  1
  Rh  Rh1_2  1  0.00000000  0.75000000  0.25000000  1
  Rh  Rh1_3  1  0.00000000  0.75000000  0.75000000  1
  Rh  Rh1_4  1  0.50000000  0.25000000  0.25000000  1
  Rh  Rh1_5  1  0.50000000  0.25000000  0.75000000  1
  Rh  Rh1_6  1  0.50000000  0.75000000  0.25000000  1
  Rh  Rh1_7  1  0.50000000  0.75000000  0.75000000  1
  Rh  Rh2_0  1  0.11030652  0.03535096  0.25000000  1
  Rh  Rh2_1  1  0.11030652  0.03535096  0.75000000  1
  Rh  Rh2_2  1  0.11030652  0.53535096  0.25000000  1
  Rh  Rh2_3  1  0.11030652  0.53535096  0.75000000  1
  Rh  Rh2_4  1  0.61030652  0.03535096  0.25000000  1
  Rh  Rh2_5  1  0.61030652  0.03535096  0.75000000  1
  Rh  Rh2_6  1  0.61030652  0.53535096  0.25000000  1
  Rh  Rh2_7  1  0.61030652  0.53535096  0.75000000  1
  Rh  Rh3_0  1  0.38969348  0.46464905  0.25000000  1
  Rh  Rh3_1  1  0.38969348  0.46464905  0.75000000  1
  Rh  Rh3_2  1  0.38969348  0.96464905  0.25000000  1
  Rh  Rh3_3  1  0.38969348  0.96464905  0.75000000  1
  Rh  Rh3_4  1  0.88969348  0.46464905  0.25000000  1
  Rh  Rh3_5  1  0.88969348  0.46464905  0.75000000  1
  Rh  Rh3_6  1  0.88969348  0.96464905  0.25000000  1
  Rh  Rh3_7  1  0.88969348  0.96464905  0.75000000  1
  Rh  Rh4_0  1  0.03535096  0.38969348  0.25000000  1
  Rh  Rh4_1  1  0.03535096  0.38969348  0.75000000  1
  Rh  Rh4_2  1  0.03535096  0.88969348  0.25000000  1
  Rh  Rh4_3  1  0.03535096  0.88969348  0.75000000  1
  Rh  Rh4_4  1  0.53535096  0.38969348  0.25000000  1
  Rh  Rh4_5  1  0.53535096  0.38969348  0.75000000  1
  Rh  Rh4_6  1  0.53535096  0.88969348  0.25000000  1
  Rh  Rh4_7  1  0.53535096  0.88969348  0.75000000  1
  Rh  Rh5_0  1  0.36030652  0.21464905  0.25000000  1
  Rh  Rh5_1  1  0.36030652  0.21464905  0.75000000  1
  Rh  Rh5_2  1  0.36030652  0.71464905  0.25000000  1
  Rh  Rh5_3  1  0.36030652  0.71464905  0.75000000  1
  Rh  Rh5_4  1  0.86030652  0.21464905  0.25000000  1
  Rh  Rh5_5  1  0.86030652  0.21464905  0.75000000  1
  Rh  Rh5_6  1  0.86030652  0.71464905  0.25000000  1
  Rh  Rh5_7  1  0.86030652  0.71464905  0.75000000  1
  Rh  Rh6_0  1  0.46464905  0.11030652  0.25000000  1
  Rh  Rh6_1  1  0.46464905  0.11030652  0.75000000  1
  Rh  Rh6_2  1  0.46464905  0.61030652  0.25000000  1
  Rh  Rh6_3  1  0.46464905  0.61030652  0.75000000  1
  Rh  Rh6_4  1  0.96464905  0.11030652  0.25000000  1
  Rh  Rh6_5  1  0.96464905  0.11030652  0.75000000  1
  Rh  Rh6_6  1  0.96464905  0.61030652  0.25000000  1
  Rh  Rh6_7  1  0.96464905  0.61030652  0.75000000  1
  Rh  Rh7_0  1  0.13969348  0.28535096  0.25000000  1
  Rh  Rh7_1  1  0.13969348  0.28535096  0.75000000  1
  Rh  Rh7_2  1  0.13969348  0.78535095  0.25000000  1
  Rh  Rh7_3  1  0.13969348  0.78535095  0.75000000  1
  Rh  Rh7_4  1  0.63969348  0.28535096  0.25000000  1
  Rh  Rh7_5  1  0.63969348  0.28535096  0.75000000  1
  Rh  Rh7_6  1  0.63969348  0.78535095  0.25000000  1
  Rh  Rh7_7  1  0.63969348  0.78535095  0.75000000  1
  Rh  Rh8_0  1  0.28535096  0.36030652  0.25000000  1
  Rh  Rh8_1  1  0.28535096  0.36030652  0.75000000  1
  Rh  Rh8_2  1  0.28535096  0.86030652  0.25000000  1
  Rh  Rh8_3  1  0.28535096  0.86030652  0.75000000  1
  Rh  Rh8_4  1  0.78535095  0.36030652  0.25000000  1
  Rh  Rh8_5  1  0.78535095  0.36030652  0.75000000  1
  Rh  Rh8_6  1  0.78535095  0.86030652  0.25000000  1
  Rh  Rh8_7  1  0.78535095  0.86030652  0.75000000  1
  Rh  Rh9_0  1  0.21464905  0.13969348  0.25000000  1
  Rh  Rh9_1  1  0.21464905  0.13969348  0.75000000  1
  Rh  Rh9_2  1  0.21464905  0.63969348  0.25000000  1
  Rh  Rh9_3  1  0.21464905  0.63969348  0.75000000  1
  Rh  Rh9_4  1  0.71464905  0.13969348  0.25000000  1
  Rh  Rh9_5  1  0.71464905  0.13969348  0.75000000  1
  Rh  Rh9_6  1  0.71464905  0.63969348  0.25000000  1
  Rh  Rh9_7  1  0.71464905  0.63969348  0.75000000  1
loop_
_geom_bond_atom_site_label_1
_geom_bond_atom_site_label_2
_geom_bond_distance
_geom_bond_site_symmetry_2
Mg0_0 Rh0_0 2.783246 1_555
Mg0_0 Rh0_1 2.783246 1_554
Mg0_0 Rh5_0 2.819660 1_555
Mg0_0 Rh6_0 2.819660 1_555
Mg0_0 Rh6_1 2.819660 1_554
Mg0_0 Rh5_1 2.819660 1_554
Mg0_0 Rh3_2 2.923072 1_545
Mg0_0 Rh3_3 2.923072 1_544
Mg0_0 Rh9_0 2.923072 1_555
Mg0_0 Rh9_1 2.923072 1_554
Mg0_0 Mg0_1 2.936303 1_555
Mg0_0 Mg0_1 2.936303 1_554
Mg0_1 Rh0_1 2.783246 1_555
Mg0_1 Rh0_0 2.783246 1_555
Mg0_1 Rh5_0 2.819660 1_555
Mg0_1 Rh5_1 2.819660 1_555
Mg0_1 Rh6_0 2.819660 1_555
Mg0_1 Rh6_1 2.819660 1_555
Mg0_1 Rh3_2 2.923072 1_545
Mg0_1 Rh3_3 2.923072 1_545
Mg0_1 Rh9_0 2.923072 1_555
Mg0_1 Rh9_1 2.923072 1_555
Mg0_2 Rh0_2 2.783246 1_555
Mg0_2 Rh0_3 2.783246 1_554
Mg0_2 Rh6_2 2.819660 1_555
Mg0_2 Rh6_3 2.819660 1_554
Mg0_2 Rh5_2 2.819660 1_555
Mg0_2 Rh5_3 2.819660 1_554
Mg0_2 Rh3_0 2.923072 1_555
Mg0_2 Rh3_1 2.923072 1_554
Mg0_2 Rh9_2 2.923072 1_555
Mg0_2 Rh9_3 2.923072 1_554
Mg0_2 Mg0_3 2.936303 1_555
Mg0_2 Mg0_3 2.936303 1_554
Mg0_3 Rh0_3 2.783246 1_555
Mg0_3 Rh0_2 2.783246 1_555
Mg0_3 Rh6_3 2.819660 1_555
Mg0_3 Rh6_2 2.819660 1_555
Mg0_3 Rh5_2 2.819660 1_555
Mg0_3 Rh5_3 2.819660 1_555
Mg0_3 Rh3_0 2.923072 1_555
Mg0_3 Rh3_1 2.923072 1_555
Mg0_3 Rh9_2 2.923072 1_555
Mg0_3 Rh9_3 2.923072 1_555
Mg0_4 Rh0_4 2.783246 1_555
Mg0_4 Rh0_5 2.783246 1_554
Mg0_4 Rh5_4 2.819660 1_555
Mg0_4 Rh5_5 2.819660 1_554
Mg0_4 Rh6_4 2.819660 1_555
Mg0_4 Rh6_5 2.819660 1_554
Mg0_4 Rh9_4 2.923072 1_555
Mg0_4 Rh3_6 2.923072 1_545
Mg0_4 Rh3_7 2.923072 1_544
Mg0_4 Rh9_5 2.923072 1_554
Mg0_4 Mg0_5 2.936303 1_555
Mg0_4 Mg0_5 2.936303 1_554
Mg0_5 Rh0_4 2.783246 1_555
Mg0_5 Rh0_5 2.783246 1_555
Mg0_5 Rh5_4 2.819660 1_555
Mg0_5 Rh5_5 2.819660 1_555
Mg0_5 Rh6_4 2.819660 1_555
Mg0_5 Rh6_5 2.819660 1_555
Mg0_5 Rh9_5 2.923072 1_555
Mg0_5 Rh9_4 2.923072 1_555
Mg0_5 Rh3_6 2.923072 1_545
Mg0_5 Rh3_7 2.923072 1_545
Mg0_6 Rh0_6 2.783246 1_555
Mg0_6 Rh0_7 2.783246 1_554
Mg0_6 Rh5_6 2.819660 1_555
Mg0_6 Rh5_7 2.819660 1_554
Mg0_6 Rh6_6 2.819660 1_555
Mg0_6 Rh6_7 2.819660 1_554
Mg0_6 Rh9_6 2.923072 1_555
Mg0_6 Rh3_4 2.923072 1_555
Mg0_6 Rh9_7 2.923072 1_554
Mg0_6 Rh3_5 2.923072 1_554
Mg0_6 Mg0_7 2.936303 1_555
Mg0_6 Mg0_7 2.936303 1_554
Mg0_7 Rh0_7 2.783246 1_555
Mg0_7 Rh0_6 2.783246 1_555
Mg0_7 Rh5_7 2.819660 1_555
Mg0_7 Rh5_6 2.819660 1_555
Mg0_7 Rh6_6 2.819660 1_555
Mg0_7 Rh6_7 2.819660 1_555
Mg0_7 Rh9_6 2.923072 1_555
Mg0_7 Rh3_4 2.923072 1_555
Mg0_7 Rh3_5 2.923072 1_555
Mg0_7 Rh9_7 2.923072 1_555
Mg1_0 Rh0_2 2.783246 1_555
Mg1_0 Rh0_3 2.783246 1_554
Mg1_0 Rh7_0 2.819660 1_555
Mg1_0 Rh4_0 2.819660 1_555
Mg1_0 Rh4_1 2.819660 1_554
Mg1_0 Rh7_1 2.819660 1_554
Mg1_0 Rh8_0 2.923072 1_555
Mg1_0 Rh8_1 2.923072 1_554
Mg1_0 Rh2_2 2.923072 1_555
Mg1_0 Rh2_3 2.923072 1_554
Mg1_0 Mg1_1 2.936303 1_555
Mg1_0 Mg1_1 2.936303 1_554
Mg1_1 Rh0_2 2.783246 1_555
Mg1_1 Rh0_3 2.783246 1_555
Mg1_1 Rh7_0 2.819660 1_555
Mg1_1 Rh4_0 2.819660 1_555
Mg1_1 Rh7_1 2.819660 1_555
Mg1_1 Rh4_1 2.819660 1_555
Mg1_1 Rh8_1 2.923072 1_555
Mg1_1 Rh8_0 2.923072 1_555
Mg1_1 Rh2_2 2.923072 1_555
Mg1_1 Rh2_3 2.923072 1_555
Mg1_2 Rh0_0 2.783246 1_565
Mg1_2 Rh0_1 2.783246 1_564
Mg1_2 Rh4_2 2.819660 1_555
Mg1_2 Rh4_3 2.819660 1_554
Mg1_2 Rh7_2 2.819660 1_555
Mg1_2 Rh7_3 2.819660 1_554
Mg1_2 Rh2_0 2.923072 1_565
Mg1_2 Rh2_1 2.923072 1_564
Mg1_2 Rh8_2 2.923072 1_555
Mg1_2 Rh8_3 2.923072 1_554
Mg1_2 Mg1_3 2.936303 1_555
Mg1_2 Mg1_3 2.936303 1_554
Mg1_3 Rh0_0 2.783246 1_565
Mg1_3 Rh0_1 2.783246 1_565
Mg1_3 Rh4_2 2.819660 1_555
Mg1_3 Rh4_3 2.819660 1_555
Mg1_3 Rh7_3 2.819660 1_555
Mg1_3 Rh7_2 2.819660 1_555
Mg1_3 Rh2_0 2.923072 1_565
Mg1_3 Rh2_1 2.923072 1_565
Mg1_3 Rh8_3 2.923072 1_555
Mg1_3 Rh8_2 2.923072 1_555
Mg1_4 Rh0_6 2.783246 1_555
Mg1_4 Rh0_7 2.783246 1_554
Mg1_4 Rh4_4 2.819660 1_555
Mg1_4 Rh4_5 2.819660 1_554
Mg1_4 Rh7_4 2.819660 1_555
Mg1_4 Rh7_5 2.819660 1_554
Mg1_4 Rh8_4 2.923072 1_555
Mg1_4 Rh8_5 2.923072 1_554
Mg1_4 Rh2_6 2.923072 1_555
Mg1_4 Rh2_7 2.923072 1_554
Mg1_4 Mg1_5 2.936303 1_555
Mg1_4 Mg1_5 2.936303 1_554
Mg1_5 Rh0_7 2.783246 1_555
Mg1_5 Rh0_6 2.783246 1_555
Mg1_5 Rh4_5 2.819660 1_555
Mg1_5 Rh4_4 2.819660 1_555
Mg1_5 Rh7_4 2.819660 1_555
Mg1_5 Rh7_5 2.819660 1_555
Mg1_5 Rh8_4 2.923072 1_555
Mg1_5 Rh8_5 2.923072 1_555
Mg1_5 Rh2_6 2.923072 1_555
Mg1_5 Rh2_7 2.923072 1_555
Mg1_6 Rh0_4 2.783246 1_565
Mg1_6 Rh0_5 2.783246 1_564
Mg1_6 Rh4_6 2.819660 1_555
Mg1_6 Rh4_7 2.819660 1_554
Mg1_6 Rh7_6 2.819660 1_555
Mg1_6 Rh7_7 2.819660 1_554
Mg1_6 Rh2_4 2.923072 1_565
Mg1_6 Rh2_5 2.923072 1_564
Mg1_6 Rh8_6 2.923072 1_555
Mg1_6 Rh8_7 2.923072 1_554
Mg1_6 Mg1_7 2.936303 1_555
Mg1_6 Mg1_7 2.936303 1_554
Mg1_7 Rh0_5 2.783246 1_565
Mg1_7 Rh0_4 2.783246 1_565
Mg1_7 Rh4_6 2.819660 1_555
Mg1_7 Rh4_7 2.819660 1_555
Mg1_7 Rh7_7 2.819660 1_555
Mg1_7 Rh7_6 2.819660 1_555
Mg1_7 Rh2_4 2.923072 1_565
Mg1_7 Rh2_5 2.923072 1_565
Mg1_7 Rh8_7 2.923072 1_555
Mg1_7 Rh8_6 2.923072 1_555
Mg2_0 Rh1_0 2.783246 1_555
Mg2_0 Rh1_1 2.783246 1_554
Mg2_0 Rh2_0 2.819660 1_555
Mg2_0 Rh9_0 2.819660 1_555
Mg2_0 Rh2_1 2.819660 1_554
Mg2_0 Rh9_1 2.819660 1_554
Mg2_0 Rh6_4 2.923072 1_455
Mg2_0 Rh6_5 2.923072 1_454
Mg2_0 Rh7_0 2.923072 1_555
Mg2_0 Rh7_1 2.923072 1_554
Mg2_0 Mg2_1 2.936303 1_555
Mg2_0 Mg2_1 2.936303 1_554
Mg2_1 Rh1_0 2.783246 1_555
Mg2_1 Rh1_1 2.783246 1_555
Mg2_1 Rh2_0 2.819660 1_555
Mg2_1 Rh2_1 2.819660 1_555
Mg2_1 Rh9_0 2.819660 1_555
Mg2_1 Rh9_1 2.819660 1_555
Mg2_1 Rh6_4 2.923072 1_455
Mg2_1 Rh6_5 2.923072 1_455
Mg2_1 Rh7_1 2.923072 1_555
Mg2_1 Rh7_0 2.923072 1_555
Mg2_2 Rh1_2 2.783246 1_555
Mg2_2 Rh1_3 2.783246 1_554
Mg2_2 Rh2_2 2.819660 1_555
Mg2_2 Rh2_3 2.819660 1_554
Mg2_2 Rh9_2 2.819660 1_555
Mg2_2 Rh9_3 2.819660 1_554
Mg2_2 Rh6_7 2.923072 1_454
Mg2_2 Rh7_2 2.923072 1_555
Mg2_2 Rh6_6 2.923072 1_455
Mg2_2 Rh7_3 2.923072 1_554
Mg2_2 Mg2_3 2.936303 1_555
Mg2_2 Mg2_3 2.936303 1_554
Mg2_3 Rh1_2 2.783246 1_555
Mg2_3 Rh1_3 2.783246 1_555
Mg2_3 Rh2_2 2.819660 1_555
Mg2_3 Rh2_3 2.819660 1_555
Mg2_3 Rh9_3 2.819660 1_555
Mg2_3 Rh9_2 2.819660 1_555
Mg2_3 Rh7_2 2.923072 1_555
Mg2_3 Rh7_3 2.923072 1_555
Mg2_3 Rh6_7 2.923072 1_455
Mg2_3 Rh6_6 2.923072 1_455
Mg2_4 Rh1_4 2.783246 1_555
Mg2_4 Rh1_5 2.783246 1_554
Mg2_4 Rh2_4 2.819660 1_555
Mg2_4 Rh2_5 2.819660 1_554
Mg2_4 Rh9_4 2.819660 1_555
Mg2_4 Rh9_5 2.819660 1_554
Mg2_4 Rh6_0 2.923072 1_555
Mg2_4 Rh6_1 2.923072 1_554
Mg2_4 Rh7_4 2.923072 1_555
Mg2_4 Rh7_5 2.923072 1_554
Mg2_4 Mg2_5 2.936303 1_555
Mg2_4 Mg2_5 2.936303 1_554
Mg2_5 Rh1_5 2.783246 1_555
Mg2_5 Rh1_4 2.783246 1_555
Mg2_5 Rh2_5 2.819660 1_555
Mg2_5 Rh2_4 2.819660 1_555
Mg2_5 Rh9_4 2.819660 1_555
Mg2_5 Rh9_5 2.819660 1_555
Mg2_5 Rh6_0 2.923072 1_555
Mg2_5 Rh6_1 2.923072 1_555
Mg2_5 Rh7_5 2.923072 1_555
Mg2_5 Rh7_4 2.923072 1_555
Mg2_6 Rh1_6 2.783246 1_555
Mg2_6 Rh1_7 2.783246 1_554
Mg2_6 Rh2_6 2.819660 1_555
Mg2_6 Rh2_7 2.819660 1_554
Mg2_6 Rh9_6 2.819660 1_555
Mg2_6 Rh9_7 2.819660 1_554
Mg2_6 Rh6_2 2.923072 1_555
Mg2_6 Rh6_3 2.923072 1_554
Mg2_6 Rh7_6 2.923072 1_555
Mg2_6 Rh7_7 2.923072 1_554
Mg2_6 Mg2_7 2.936303 1_555
Mg2_6 Mg2_7 2.936303 1_554
Mg2_7 Rh1_6 2.783246 1_555
Mg2_7 Rh1_7 2.783246 1_555
Mg2_7 Rh2_7 2.819660 1_555
Mg2_7 Rh2_6 2.819660 1_555
Mg2_7 Rh9_7 2.819660 1_555
Mg2_7 Rh9_6 2.819660 1_555
Mg2_7 Rh6_3 2.923072 1_555
Mg2_7 Rh6_2 2.923072 1_555
Mg2_7 Rh7_7 2.923072 1_555
Mg2_7 Rh7_6 2.923072 1_555
Mg3_0 Rh1_4 2.783246 1_555
Mg3_0 Rh1_5 2.783246 1_554
Mg3_0 Rh3_0 2.819660 1_555
Mg3_0 Rh8_0 2.819660 1_555
Mg3_0 Rh8_1 2.819660 1_554
Mg3_0 Rh3_1 2.819660 1_554
Mg3_0 Rh4_4 2.923072 1_555
Mg3_0 Rh5_0 2.923072 1_555
Mg3_0 Rh5_1 2.923072 1_554
Mg3_0 Rh4_5 2.923072 1_554
Mg3_0 Mg3_1 2.936303 1_555
Mg3_0 Mg3_1 2.936303 1_554
Mg3_1 Rh1_4 2.783246 1_555
Mg3_1 Rh1_5 2.783246 1_555
Mg3_1 Rh3_0 2.819660 1_555
Mg3_1 Rh3_1 2.819660 1_555
Mg3_1 Rh8_0 2.819660 1_555
Mg3_1 Rh8_1 2.819660 1_555
Mg3_1 Rh5_1 2.923072 1_555
Mg3_1 Rh4_4 2.923072 1_555
Mg3_1 Rh5_0 2.923072 1_555
Mg3_1 Rh4_5 2.923072 1_555
Mg3_2 Rh1_6 2.783246 1_555
Mg3_2 Rh1_7 2.783246 1_554
Mg3_2 Rh8_2 2.819660 1_555
Mg3_2 Rh8_3 2.819660 1_554
Mg3_2 Rh3_2 2.819660 1_555
Mg3_2 Rh3_3 2.819660 1_554
Mg3_2 Rh5_2 2.923072 1_555
Mg3_2 Rh5_3 2.923072 1_554
Mg3_2 Rh4_6 2.923072 1_555
Mg3_2 Rh4_7 2.923072 1_554
Mg3_2 Mg3_3 2.936303 1_555
Mg3_2 Mg3_3 2.936303 1_554
Mg3_3 Rh1_6 2.783246 1_555
Mg3_3 Rh1_7 2.783246 1_555
Mg3_3 Rh8_2 2.819660 1_555
Mg3_3 Rh8_3 2.819660 1_555
Mg3_3 Rh3_2 2.819660 1_555
Mg3_3 Rh3_3 2.819660 1_555
Mg3_3 Rh5_2 2.923072 1_555
Mg3_3 Rh5_3 2.923072 1_555
Mg3_3 Rh4_7 2.923072 1_555
Mg3_3 Rh4_6 2.923072 1_555
Mg3_4 Rh1_0 2.783246 1_655
Mg3_4 Rh1_1 2.783246 1_654
Mg3_4 Rh3_4 2.819660 1_555
Mg3_4 Rh3_5 2.819660 1_554
Mg3_4 Rh8_4 2.819660 1_555
Mg3_4 Rh8_5 2.819660 1_554
Mg3_4 Rh4_1 2.923072 1_654
Mg3_4 Rh4_0 2.923072 1_655
Mg3_4 Rh5_4 2.923072 1_555
Mg3_4 Rh5_5 2.923072 1_554
Mg3_4 Mg3_5 2.936303 1_555
Mg3_4 Mg3_5 2.936303 1_554
Mg3_5 Rh1_0 2.783246 1_655
Mg3_5 Rh1_1 2.783246 1_655
Mg3_5 Rh3_5 2.819660 1_555
Mg3_5 Rh3_4 2.819660 1_555
Mg3_5 Rh8_5 2.819660 1_555
Mg3_5 Rh8_4 2.819660 1_555
Mg3_5 Rh4_0 2.923072 1_655
Mg3_5 Rh4_1 2.923072 1_655
Mg3_5 Rh5_5 2.923072 1_555
Mg3_5 Rh5_4 2.923072 1_555
Mg3_6 Rh1_2 2.783246 1_655
Mg3_6 Rh1_3 2.783246 1_654
Mg3_6 Rh8_6 2.819660 1_555
Mg3_6 Rh3_6 2.819660 1_555
Mg3_6 Rh8_7 2.819660 1_554
Mg3_6 Rh3_7 2.819660 1_554
Mg3_6 Rh5_6 2.923072 1_555
Mg3_6 Rh4_2 2.923072 1_655
Mg3_6 Rh4_3 2.923072 1_654
Mg3_6 Rh5_7 2.923072 1_554
Mg3_6 Mg3_7 2.936303 1_555
Mg3_6 Mg3_7 2.936303 1_554
Mg3_7 Rh1_2 2.783246 1_655
Mg3_7 Rh1_3 2.783246 1_655
Mg3_7 Rh8_6 2.819660 1_555
Mg3_7 Rh8_7 2.819660 1_555
Mg3_7 Rh3_7 2.819660 1_555
Mg3_7 Rh3_6 2.819660 1_555
Mg3_7 Rh5_6 2.923072 1_555
Mg3_7 Rh5_7 2.923072 1_555
Mg3_7 Rh4_2 2.923072 1_655
Mg3_7 Rh4_3 2.923072 1_655
Mg4_0 Rh3_6 2.630489 1_445
Mg4_0 Rh4_2 2.630489 1_545
Mg4_0 Rh3_7 2.630489 1_444
Mg4_0 Rh2_0 2.630489 1_555
Mg4_0 Rh4_3 2.630489 1_544
Mg4_0 Rh6_4 2.630489 1_455
Mg4_0 Rh6_5 2.630489 1_454
Mg4_0 Rh2_1 2.630489 1_554
Mg4_0 Mg4_1 2.936303 1_555
Mg4_0 Mg4_1 2.936303 1_554
Mg4_1 Rh3_7 2.630489 1_445
Mg4_1 Rh4_2 2.630489 1_545
Mg4_1 Rh3_6 2.630489 1_445
Mg4_1 Rh4_3 2.630489 1_545
Mg4_1 Rh2_0 2.630489 1_555
Mg4_1 Rh6_5 2.630489 1_455
Mg4_1 Rh2_1 2.630489 1_555
Mg4_1 Rh6_4 2.630489 1_455
Mg4_2 Rh3_4 2.630489 1_455
Mg4_2 Rh3_5 2.630489 1_454
Mg4_2 Rh2_2 2.630489 1_555
Mg4_2 Rh4_0 2.630489 1_555
Mg4_2 Rh6_6 2.630489 1_455
Mg4_2 Rh2_3 2.630489 1_554
Mg4_2 Rh4_1 2.630489 1_554
Mg4_2 Rh6_7 2.630489 1_454
Mg4_2 Mg4_3 2.936303 1_555
Mg4_2 Mg4_3 2.936303 1_554
Mg4_3 Rh3_4 2.630489 1_455
Mg4_3 Rh3_5 2.630489 1_455
Mg4_3 Rh4_1 2.630489 1_555
Mg4_3 Rh2_2 2.630489 1_555
Mg4_3 Rh4_0 2.630489 1_555
Mg4_3 Rh2_3 2.630489 1_555
Mg4_3 Rh6_7 2.630489 1_455
Mg4_3 Rh6_6 2.630489 1_455
Mg4_4 Rh3_2 2.630489 1_545
Mg4_4 Rh4_6 2.630489 1_545
Mg4_4 Rh6_0 2.630489 1_555
Mg4_4 Rh6_1 2.630489 1_554
Mg4_4 Rh4_7 2.630489 1_544
Mg4_4 Rh3_3 2.630489 1_544
Mg4_4 Rh2_4 2.630489 1_555
Mg4_4 Rh2_5 2.630489 1_554
Mg4_4 Mg4_5 2.936303 1_555
Mg4_4 Mg4_5 2.936303 1_554
Mg4_5 Rh4_6 2.630489 1_545
Mg4_5 Rh3_2 2.630489 1_545
Mg4_5 Rh3_3 2.630489 1_545
Mg4_5 Rh6_0 2.630489 1_555
Mg4_5 Rh4_7 2.630489 1_545
Mg4_5 Rh6_1 2.630489 1_555
Mg4_5 Rh2_5 2.630489 1_555
Mg4_5 Rh2_4 2.630489 1_555
Mg4_6 Rh3_0 2.630489 1_555
Mg4_6 Rh6_2 2.630489 1_555
Mg4_6 Rh3_1 2.630489 1_554
Mg4_6 Rh4_4 2.630489 1_555
Mg4_6 Rh6_3 2.630489 1_554
Mg4_6 Rh4_5 2.630489 1_554
Mg4_6 Rh2_6 2.630489 1_555
Mg4_6 Rh2_7 2.630489 1_554
Mg4_6 Mg4_7 2.936303 1_555
Mg4_6 Mg4_7 2.936303 1_554
Mg4_7 Rh3_0 2.630489 1_555
Mg4_7 Rh3_1 2.630489 1_555
Mg4_7 Rh6_2 2.630489 1_555
Mg4_7 Rh6_3 2.630489 1_555
Mg4_7 Rh4_4 2.630489 1_555
Mg4_7 Rh4_5 2.630489 1_555
Mg4_7 Rh2_6 2.630489 1_555
Mg4_7 Rh2_7 2.630489 1_555
Mg5_0 Rh9_0 2.630489 1_555
Mg5_0 Rh7_0 2.630489 1_555
Mg5_0 Rh7_1 2.630489 1_554
Mg5_0 Rh5_0 2.630489 1_555
Mg5_0 Rh9_1 2.630489 1_554
Mg5_0 Rh8_0 2.630489 1_555
Mg5_0 Rh8_1 2.630489 1_554
Mg5_0 Rh5_1 2.630489 1_554
Mg5_0 Mg5_1 2.936303 1_555
Mg5_0 Mg5_1 2.936303 1_554
Mg5_1 Rh9_0 2.630489 1_555
Mg5_1 Rh7_0 2.630489 1_555
Mg5_1 Rh9_1 2.630489 1_555
Mg5_1 Rh7_1 2.630489 1_555
Mg5_1 Rh8_1 2.630489 1_555
Mg5_1 Rh5_0 2.630489 1_555
Mg5_1 Rh5_1 2.630489 1_555
Mg5_1 Rh8_0 2.630489 1_555
Mg5_2 Rh9_2 2.630489 1_555
Mg5_2 Rh8_2 2.630489 1_555
Mg5_2 Rh8_3 2.630489 1_554
Mg5_2 Rh9_3 2.630489 1_554
Mg5_2 Rh5_2 2.630489 1_555
Mg5_2 Rh7_2 2.630489 1_555
Mg5_2 Rh7_3 2.630489 1_554
Mg5_2 Rh5_3 2.630489 1_554
Mg5_2 Mg5_3 2.936303 1_555
Mg5_2 Mg5_3 2.936303 1_554
Mg5_3 Rh8_3 2.630489 1_555
Mg5_3 Rh9_2 2.630489 1_555
Mg5_3 Rh8_2 2.630489 1_555
Mg5_3 Rh9_3 2.630489 1_555
Mg5_3 Rh5_3 2.630489 1_555
Mg5_3 Rh5_2 2.630489 1_555
Mg5_3 Rh7_2 2.630489 1_555
Mg5_3 Rh7_3 2.630489 1_555
Mg5_4 Rh7_4 2.630489 1_555
Mg5_4 Rh5_4 2.630489 1_555
Mg5_4 Rh7_5 2.630489 1_554
Mg5_4 Rh9_4 2.630489 1_555
Mg5_4 Rh5_5 2.630489 1_554
Mg5_4 Rh8_4 2.630489 1_555
Mg5_4 Rh9_5 2.630489 1_554
Mg5_4 Rh8_5 2.630489 1_554
Mg5_4 Mg5_5 2.936303 1_555
Mg5_4 Mg5_5 2.936303 1_554
Mg5_5 Rh5_5 2.630489 1_555
Mg5_5 Rh7_5 2.630489 1_555
Mg5_5 Rh7_4 2.630489 1_555
Mg5_5 Rh5_4 2.630489 1_555
Mg5_5 Rh8_5 2.630489 1_555
Mg5_5 Rh9_4 2.630489 1_555
Mg5_5 Rh9_5 2.630489 1_555
Mg5_5 Rh8_4 2.630489 1_555
Mg5_6 Rh8_6 2.630489 1_555
Mg5_6 Rh7_6 2.630489 1_555
Mg5_6 Rh5_6 2.630489 1_555
Mg5_6 Rh9_6 2.630489 1_555
Mg5_6 Rh7_7 2.630489 1_554
Mg5_6 Rh5_7 2.630489 1_554
Mg5_6 Rh8_7 2.630489 1_554
Mg5_6 Rh9_7 2.630489 1_554
Mg5_6 Mg5_7 2.936303 1_555
Mg5_6 Mg5_7 2.936303 1_554
Mg5_7 Rh8_6 2.630489 1_555
Mg5_7 Rh9_7 2.630489 1_555
Mg5_7 Rh8_7 2.630489 1_555
Mg5_7 Rh7_6 2.630489 1_555
Mg5_7 Rh5_6 2.630489 1_555
Mg5_7 Rh9_6 2.630489 1_555
Mg5_7 Rh7_7 2.630489 1_555
Mg5_7 Rh5_7 2.630489 1_555
B0_0 Rh4_0 2.125836 1_555
B0_0 Rh7_0 2.125836 1_555
B0_0 Rh4_1 2.125836 1_554
B0_0 Rh7_1 2.125836 1_554
B0_0 Rh1_0 2.228055 1_555
B0_0 Rh1_1 2.228055 1_554
B0_0 Mg1_0 2.621618 1_555
B0_0 Mg2_0 2.898231 1_555
B0_0 Mg3_4 2.898231 1_455
B0_1 Rh4_0 2.125836 1_555
B0_1 Rh4_1 2.125836 1_555
B0_1 Rh7_0 2.125836 1_555
B0_1 Rh7_1 2.125836 1_555
B0_1 Rh1_0 2.228055 1_555
B0_1 Rh1_1 2.228055 1_555
B0_1 Mg1_1 2.621618 1_555
B0_1 Mg2_1 2.898231 1_555
B0_1 Mg3_5 2.898231 1_455
B0_2 Rh4_2 2.125836 1_555
B0_2 Rh4_3 2.125836 1_554
B0_2 Rh7_2 2.125836 1_555
B0_2 Rh7_3 2.125836 1_554
B0_2 Rh1_2 2.228055 1_555
B0_2 Rh1_3 2.228055 1_554
B0_2 Mg1_2 2.621618 1_555
B0_2 Mg3_6 2.898231 1_455
B0_2 Mg2_2 2.898231 1_555
B0_3 Rh4_2 2.125836 1_555
B0_3 Rh4_3 2.125836 1_555
B0_3 Rh7_2 2.125836 1_555
B0_3 Rh7_3 2.125836 1_555
B0_3 Rh1_2 2.228055 1_555
B0_3 Rh1_3 2.228055 1_555
B0_3 Mg1_3 2.621618 1_555
B0_3 Mg3_7 2.898231 1_455
B0_3 Mg2_3 2.898231 1_555
B0_4 Rh7_4 2.125836 1_555
B0_4 Rh4_4 2.125836 1_555
B0_4 Rh7_5 2.125836 1_554
B0_4 Rh4_5 2.125836 1_554
B0_4 Rh1_4 2.228055 1_555
B0_4 Rh1_5 2.228055 1_554
B0_4 Mg1_4 2.621618 1_555
B0_4 Mg2_4 2.898231 1_555
B0_4 Mg3_0 2.898231 1_555
B0_5 Rh7_5 2.125836 1_555
B0_5 Rh4_5 2.125836 1_555
B0_5 Rh7_4 2.125836 1_555
B0_5 Rh4_4 2.125836 1_555
B0_5 Rh1_5 2.228055 1_555
B0_5 Rh1_4 2.228055 1_555
B0_5 Mg1_5 2.621618 1_555
B0_5 Mg2_5 2.898231 1_555
B0_5 Mg3_1 2.898231 1_555
B0_6 Rh4_6 2.125836 1_555
B0_6 Rh7_6 2.125836 1_555
B0_6 Rh4_7 2.125836 1_554
B0_6 Rh7_7 2.125836 1_554
B0_6 Rh1_6 2.228055 1_555
B0_6 Rh1_7 2.228055 1_554
B0_6 Mg1_6 2.621618 1_555
B0_6 Mg3_2 2.898231 1_555
B0_6 Mg2_6 2.898231 1_555
B0_7 Rh4_6 2.125836 1_555
B0_7 Rh4_7 2.125836 1_555
B0_7 Rh7_7 2.125836 1_555
B0_7 Rh7_6 2.125836 1_555
B0_7 Rh1_7 2.228055 1_555
B0_7 Rh1_6 2.228055 1_555
B0_7 Mg1_7 2.621618 1_555
B0_7 Mg2_7 2.898231 1_555
B0_7 Mg3_3 2.898231 1_555
B1_0 Rh5_0 2.125836 1_555
B1_0 Rh6_0 2.125836 1_555
B1_0 Rh5_1 2.125836 1_554
B1_0 Rh6_1 2.125836 1_554
B1_0 Rh1_4 2.228055 1_555
B1_0 Rh1_5 2.228055 1_554
B1_0 Mg0_0 2.621618 1_555
B1_0 Mg2_4 2.898231 1_555
B1_0 Mg3_0 2.898231 1_555
B1_1 Rh5_0 2.125836 1_555
B1_1 Rh5_1 2.125836 1_555
B1_1 Rh6_0 2.125836 1_555
B1_1 Rh6_1 2.125836 1_555
B1_1 Rh1_4 2.228055 1_555
B1_1 Rh1_5 2.228055 1_555
B1_1 Mg0_1 2.621618 1_555
B1_1 Mg2_5 2.898231 1_555
B1_1 Mg3_1 2.898231 1_555
B1_2 Rh5_2 2.125836 1_555
B1_2 Rh6_2 2.125836 1_555
B1_2 Rh6_3 2.125836 1_554
B1_2 Rh5_3 2.125836 1_554
B1_2 Rh1_6 2.228055 1_555
B1_2 Rh1_7 2.228055 1_554
B1_2 Mg0_2 2.621618 1_555
B1_2 Mg3_2 2.898231 1_555
B1_2 Mg2_6 2.898231 1_555
B1_3 Rh5_3 2.125836 1_555
B1_3 Rh5_2 2.125836 1_555
B1_3 Rh6_3 2.125836 1_555
B1_3 Rh6_2 2.125836 1_555
B1_3 Rh1_6 2.228055 1_555
B1_3 Rh1_7 2.228055 1_555
B1_3 Mg0_3 2.621618 1_555
B1_3 Mg3_3 2.898231 1_555
B1_3 Mg2_7 2.898231 1_555
B1_4 Rh6_4 2.125836 1_555
B1_4 Rh6_5 2.125836 1_554
B1_4 Rh5_4 2.125836 1_555
B1_4 Rh5_5 2.125836 1_554
B1_4 Rh1_0 2.228055 1_655
B1_4 Rh1_1 2.228055 1_654
B1_4 Mg0_4 2.621618 1_555
B1_4 Mg2_0 2.898231 1_655
B1_4 Mg3_4 2.898231 1_555
B1_5 Rh6_5 2.125836 1_555
B1_5 Rh6_4 2.125836 1_555
B1_5 Rh5_4 2.125836 1_555
B1_5 Rh5_5 2.125836 1_555
B1_5 Rh1_0 2.228055 1_655
B1_5 Rh1_1 2.228055 1_655
B1_5 Mg0_5 2.621618 1_555
B1_5 Mg2_1 2.898231 1_655
B1_5 Mg3_5 2.898231 1_555
B1_6 Rh6_6 2.125836 1_555
B1_6 Rh6_7 2.125836 1_554
B1_6 Rh5_6 2.125836 1_555
B1_6 Rh5_7 2.125836 1_554
B1_6 Rh1_2 2.228055 1_655
B1_6 Rh1_3 2.228055 1_654
B1_6 Mg0_6 2.621618 1_555
B1_6 Mg3_6 2.898231 1_555
B1_6 Mg2_2 2.898231 1_655
B1_7 Rh6_6 2.125836 1_555
B1_7 Rh6_7 2.125836 1_555
B1_7 Rh5_7 2.125836 1_555
B1_7 Rh5_6 2.125836 1_555
B1_7 Rh1_3 2.228055 1_655
B1_7 Rh1_2 2.228055 1_655
B1_7 Mg0_7 2.621618 1_555
B1_7 Mg2_3 2.898231 1_655
B1_7 Mg3_7 2.898231 1_555
B2_0 Rh8_0 2.125836 1_555
B2_0 Rh3_0 2.125836 1_555
B2_0 Rh3_1 2.125836 1_554
B2_0 Rh8_1 2.125836 1_554
B2_0 Rh0_2 2.228055 1_555
B2_0 Rh0_3 2.228055 1_554
B2_0 Mg3_0 2.621618 1_555
B2_0 Mg0_2 2.898231 1_555
B2_0 Mg1_0 2.898231 1_555
B2_1 Rh8_1 2.125836 1_555
B2_1 Rh8_0 2.125836 1_555
B2_1 Rh3_0 2.125836 1_555
B2_1 Rh3_1 2.125836 1_555
B2_1 Rh0_2 2.228055 1_555
B2_1 Rh0_3 2.228055 1_555
B2_1 Mg3_1 2.621618 1_555
B2_1 Mg1_1 2.898231 1_555
B2_1 Mg0_3 2.898231 1_555
B2_2 Rh3_2 2.125836 1_555
B2_2 Rh3_3 2.125836 1_554
B2_2 Rh8_2 2.125836 1_555
B2_2 Rh8_3 2.125836 1_554
B2_2 Rh0_0 2.228055 1_565
B2_2 Rh0_1 2.228055 1_564
B2_2 Mg3_2 2.621618 1_555
B2_2 Mg0_0 2.898231 1_565
B2_2 Mg1_2 2.898231 1_555
B2_3 Rh3_2 2.125836 1_555
B2_3 Rh3_3 2.125836 1_555
B2_3 Rh8_2 2.125836 1_555
B2_3 Rh8_3 2.125836 1_555
B2_3 Rh0_0 2.228055 1_565
B2_3 Rh0_1 2.228055 1_565
B2_3 Mg3_3 2.621618 1_555
B2_3 Mg0_1 2.898231 1_565
B2_3 Mg1_3 2.898231 1_555
B2_4 Rh3_4 2.125836 1_555
B2_4 Rh8_4 2.125836 1_555
B2_4 Rh3_5 2.125836 1_554
B2_4 Rh8_5 2.125836 1_554
B2_4 Rh0_6 2.228055 1_555
B2_4 Rh0_7 2.228055 1_554
B2_4 Mg3_4 2.621618 1_555
B2_4 Mg0_6 2.898231 1_555
B2_4 Mg1_4 2.898231 1_555
B2_5 Rh3_4 2.125836 1_555
B2_5 Rh3_5 2.125836 1_555
B2_5 Rh8_4 2.125836 1_555
B2_5 Rh8_5 2.125836 1_555
B2_5 Rh0_7 2.228055 1_555
B2_5 Rh0_6 2.228055 1_555
B2_5 Mg3_5 2.621618 1_555
B2_5 Mg0_7 2.898231 1_555
B2_5 Mg1_5 2.898231 1_555
B2_6 Rh3_6 2.125836 1_555
B2_6 Rh3_7 2.125836 1_554
B2_6 Rh8_6 2.125836 1_555
B2_6 Rh8_7 2.125836 1_554
B2_6 Rh0_4 2.228055 1_565
B2_6 Rh0_5 2.228055 1_564
B2_6 Mg3_6 2.621618 1_555
B2_6 Mg0_4 2.898231 1_565
B2_6 Mg1_6 2.898231 1_555
B2_7 Rh3_7 2.125836 1_555
B2_7 Rh3_6 2.125836 1_555
B2_7 Rh8_6 2.125836 1_555
B2_7 Rh8_7 2.125836 1_555
B2_7 Rh0_5 2.228055 1_565
B2_7 Rh0_4 2.228055 1_565
B2_7 Mg3_7 2.621618 1_555
B2_7 Mg0_5 2.898231 1_565
B2_7 Mg1_7 2.898231 1_555
B3_0 Rh2_0 2.125836 1_555
B3_0 Rh9_0 2.125836 1_555
B3_0 Rh2_1 2.125836 1_554
B3_0 Rh9_1 2.125836 1_554
B3_0 Rh0_0 2.228055 1_555
B3_0 Rh0_1 2.228055 1_554
B3_0 Mg2_0 2.621618 1_555
B3_0 Mg1_2 2.898231 1_545
B3_0 Mg0_0 2.898231 1_555
B3_1 Rh2_0 2.125836 1_555
B3_1 Rh2_1 2.125836 1_555
B3_1 Rh9_0 2.125836 1_555
B3_1 Rh9_1 2.125836 1_555
B3_1 Rh0_1 2.228055 1_555
B3_1 Rh0_0 2.228055 1_555
B3_1 Mg2_1 2.621618 1_555
B3_1 Mg1_3 2.898231 1_545
B3_1 Mg0_1 2.898231 1_555
B3_2 Rh9_2 2.125836 1_555
B3_2 Rh2_2 2.125836 1_555
B3_2 Rh9_3 2.125836 1_554
B3_2 Rh2_3 2.125836 1_554
B3_2 Rh0_2 2.228055 1_555
B3_2 Rh0_3 2.228055 1_554
B3_2 Mg2_2 2.621618 1_555
B3_2 Mg0_2 2.898231 1_555
B3_2 Mg1_0 2.898231 1_555
B3_3 Rh9_2 2.125836 1_555
B3_3 Rh9_3 2.125836 1_555
B3_3 Rh2_2 2.125836 1_555
B3_3 Rh2_3 2.125836 1_555
B3_3 Rh0_3 2.228055 1_555
B3_3 Rh0_2 2.228055 1_555
B3_3 Mg2_3 2.621618 1_555
B3_3 Mg0_3 2.898231 1_555
B3_3 Mg1_1 2.898231 1_555
B3_4 Rh2_4 2.125836 1_555
B3_4 Rh9_4 2.125836 1_555
B3_4 Rh2_5 2.125836 1_554
B3_4 Rh9_5 2.125836 1_554
B3_4 Rh0_4 2.228055 1_555
B3_4 Rh0_5 2.228055 1_554
B3_4 Mg2_4 2.621618 1_555
B3_4 Mg0_4 2.898231 1_555
B3_4 Mg1_6 2.898231 1_545
B3_5 Rh2_5 2.125836 1_555
B3_5 Rh2_4 2.125836 1_555
B3_5 Rh9_4 2.125836 1_555
B3_5 Rh9_5 2.125836 1_555
B3_5 Rh0_4 2.228055 1_555
B3_5 Rh0_5 2.228055 1_555
B3_5 Mg2_5 2.621618 1_555
B3_5 Mg0_5 2.898231 1_555
B3_5 Mg1_7 2.898231 1_545
B3_6 Rh9_6 2.125836 1_555
B3_6 Rh2_6 2.125836 1_555
B3_6 Rh9_7 2.125836 1_554
B3_6 Rh2_7 2.125836 1_554
B3_6 Rh0_6 2.228055 1_555
B3_6 Rh0_7 2.228055 1_554
B3_6 Mg2_6 2.621618 1_555
B3_6 Mg0_6 2.898231 1_555
B3_6 Mg1_4 2.898231 1_555
B3_7 Rh9_6 2.125836 1_555
B3_7 Rh2_6 2.125836 1_555
B3_7 Rh9_7 2.125836 1_555
B3_7 Rh2_7 2.125836 1_555
B3_7 Rh0_6 2.228055 1_555
B3_7 Rh0_7 2.228055 1_555
B3_7 Mg2_7 2.621618 1_555
B3_7 Mg0_7 2.898231 1_555
B3_7 Mg1_5 2.898231 1_555
Rh0_0 Rh3_2 2.715251 1_545
Rh0_0 Rh2_0 2.715251 1_555
Rh0_0 Rh9_0 2.715251 1_555
Rh0_0 Rh8_2 2.715251 1_545
Rh0_1 Rh3_3 2.715251 1_545
Rh0_1 Rh2_1 2.715251 1_555
Rh0_1 Rh9_1 2.715251 1_555
Rh0_1 Rh8_3 2.715251 1_545
Rh0_2 Rh3_0 2.715251 1_555
Rh0_2 Rh2_2 2.715251 1_555
Rh0_2 Rh8_0 2.715251 1_555
Rh0_2 Rh9_2 2.715251 1_555
Rh0_3 Rh3_1 2.715251 1_555
Rh0_3 Rh2_3 2.715251 1_555
Rh0_3 Rh8_1 2.715251 1_555
Rh0_3 Rh9_3 2.715251 1_555
Rh0_4 Rh2_4 2.715251 1_555
Rh0_4 Rh9_4 2.715251 1_555
Rh0_4 Rh8_6 2.715251 1_545
Rh0_4 Rh3_6 2.715251 1_545
Rh0_5 Rh2_5 2.715251 1_555
Rh0_5 Rh9_5 2.715251 1_555
Rh0_5 Rh3_7 2.715251 1_545
Rh0_5 Rh8_7 2.715251 1_545
Rh0_6 Rh2_6 2.715251 1_555
Rh0_6 Rh8_4 2.715251 1_555
Rh0_6 Rh3_4 2.715251 1_555
Rh0_6 Rh9_6 2.715251 1_555
Rh0_7 Rh2_7 2.715251 1_555
Rh0_7 Rh8_5 2.715251 1_555
Rh0_7 Rh3_5 2.715251 1_555
Rh0_7 Rh9_7 2.715251 1_555
Rh1_0 Rh4_0 2.715251 1_555
Rh1_0 Rh6_4 2.715251 1_455
Rh1_0 Rh5_4 2.715251 1_455
Rh1_0 Rh7_0 2.715251 1_555
Rh1_1 Rh6_5 2.715251 1_455
Rh1_1 Rh4_1 2.715251 1_555
Rh1_1 Rh7_1 2.715251 1_555
Rh1_1 Rh5_5 2.715251 1_455
Rh1_2 Rh6_6 2.715251 1_455
Rh1_2 Rh7_2 2.715251 1_555
Rh1_2 Rh5_6 2.715251 1_455
Rh1_2 Rh4_2 2.715251 1_555
Rh1_3 Rh6_7 2.715251 1_455
Rh1_3 Rh7_3 2.715251 1_555
Rh1_3 Rh5_7 2.715251 1_455
Rh1_3 Rh4_3 2.715251 1_555
Rh1_4 Rh6_0 2.715251 1_555
Rh1_4 Rh5_0 2.715251 1_555
Rh1_4 Rh4_4 2.715251 1_555
Rh1_4 Rh7_4 2.715251 1_555
Rh1_5 Rh5_1 2.715251 1_555
Rh1_5 Rh6_1 2.715251 1_555
Rh1_5 Rh4_5 2.715251 1_555
Rh1_5 Rh7_5 2.715251 1_555
Rh1_6 Rh6_2 2.715251 1_555
Rh1_6 Rh5_2 2.715251 1_555
Rh1_6 Rh7_6 2.715251 1_555
Rh1_6 Rh4_6 2.715251 1_555
Rh1_7 Rh6_3 2.715251 1_555
Rh1_7 Rh5_3 2.715251 1_555
Rh1_7 Rh7_7 2.715251 1_555
Rh1_7 Rh4_7 2.715251 1_555
