# generated using pymatgen
data_Na3YSi3(HO2)6
_symmetry_space_group_name_H-M   'P 1'
_cell_length_a   7.02964400
_cell_length_b   11.86001500
_cell_length_c   13.51651600
_cell_angle_alpha   90.00000000
_cell_angle_beta   90.00000000
_cell_angle_gamma   90.00000000
_symmetry_Int_Tables_number   1
_chemical_formula_structural   Na3YSi3(HO2)6
_chemical_formula_sum   'Na12 Y4 Si12 H24 O48'
_cell_volume   1126.89469106
_cell_formula_units_Z   4
loop_
 _symmetry_equiv_pos_site_id
 _symmetry_equiv_pos_as_xyz
  1  'x, y, z'
loop_
 _atom_site_type_symbol
 _atom_site_label
 _atom_site_symmetry_multiplicity
 _atom_site_fract_x
 _atom_site_fract_y
 _atom_site_fract_z
 _atom_site_occupancy
  Na  Na0  1  0.72660900  0.21150100  0.06116100  1
  Na  Na1  1  0.77339100  0.78849900  0.56116100  1
  Na  Na2  1  0.27339100  0.71150100  0.43883900  1
  Na  Na3  1  0.22660900  0.28849900  0.93883900  1
  Na  Na4  1  0.22121200  0.37834500  0.40210300  1
  Na  Na5  1  0.27878800  0.62165500  0.90210300  1
  Na  Na6  1  0.77878800  0.87834500  0.09789700  1
  Na  Na7  1  0.72121200  0.12165500  0.59789700  1
  Na  Na8  1  0.15194400  0.72873300  0.16299900  1
  Na  Na9  1  0.34805600  0.27126700  0.66299900  1
  Na  Na10  1  0.84805600  0.22873300  0.33700100  1
  Na  Na11  1  0.65194400  0.77126700  0.83700100  1
  Y  Y0  1  0.35605800  0.01292200  0.79937300  1
  Y  Y1  1  0.14394200  0.98707800  0.29937300  1
  Y  Y2  1  0.64394200  0.51292200  0.70062700  1
  Y  Y3  1  0.85605800  0.48707800  0.20062700  1
  Si  Si0  1  0.11428200  0.01430900  0.03535400  1
  Si  Si1  1  0.38571800  0.98569100  0.53535400  1
  Si  Si2  1  0.88571800  0.51430900  0.46464600  1
  Si  Si3  1  0.61428200  0.48569100  0.96464600  1
  Si  Si4  1  0.12295700  0.23769600  0.15650800  1
  Si  Si5  1  0.37704300  0.76230400  0.65650800  1
  Si  Si6  1  0.87704300  0.73769600  0.34349200  1
  Si  Si7  1  0.62295700  0.26230400  0.84349200  1
  Si  Si8  1  0.34949400  0.46016500  0.13955600  1
  Si  Si9  1  0.15050600  0.53983500  0.63955600  1
  Si  Si10  1  0.65050600  0.96016500  0.36044400  1
  Si  Si11  1  0.84949400  0.03983500  0.86044400  1
  H  H0  1  0.12417200  0.14632100  0.47093700  1
  H  H1  1  0.37582800  0.85367900  0.97093700  1
  H  H2  1  0.87582800  0.64632100  0.02906300  1
  H  H3  1  0.62417200  0.35367900  0.52906300  1
  H  H4  1  0.03855500  0.23660000  0.54416900  1
  H  H5  1  0.46144500  0.76340000  0.04416900  1
  H  H6  1  0.96144500  0.73660000  0.95583100  1
  H  H7  1  0.53855500  0.26340000  0.45583100  1
  H  H8  1  0.52611500  0.33434300  0.28167100  1
  H  H9  1  0.97388500  0.66565700  0.78167100  1
  H  H10  1  0.47388500  0.83434300  0.21832900  1
  H  H11  1  0.02611500  0.16565700  0.71832900  1
  H  H12  1  0.53166500  0.02601500  0.17160600  1
  H  H13  1  0.96833500  0.97398500  0.67160600  1
  H  H14  1  0.46833500  0.52601500  0.32839400  1
  H  H15  1  0.03166500  0.47398500  0.82839400  1
  H  H16  1  0.48346100  0.01971000  0.05537200  1
  H  H17  1  0.01653900  0.98029000  0.55537200  1
  H  H18  1  0.51653900  0.51971000  0.44462800  1
  H  H19  1  0.98346100  0.48029000  0.94462800  1
  H  H20  1  0.40282700  0.22088300  0.29679600  1
  H  H21  1  0.09717300  0.77911700  0.79679600  1
  H  H22  1  0.59717300  0.72088300  0.20320400  1
  H  H23  1  0.90282700  0.27911700  0.70320400  1
  O  O0  1  0.39927400  0.05731000  0.63674200  1
  O  O1  1  0.10072600  0.94269000  0.13674200  1
  O  O2  1  0.60072600  0.55731000  0.86325800  1
  O  O3  1  0.89927400  0.44269000  0.36325800  1
  O  O4  1  0.06546900  0.22350400  0.47300200  1
  O  O5  1  0.43453100  0.77649600  0.97300200  1
  O  O6  1  0.93453100  0.72350400  0.02699800  1
  O  O7  1  0.56546900  0.27649600  0.52699800  1
  O  O8  1  0.19831100  0.01147300  0.46792100  1
  O  O9  1  0.30168900  0.98852700  0.96792100  1
  O  O10  1  0.80168900  0.51147300  0.03207900  1
  O  O11  1  0.69831100  0.48852700  0.53207900  1
  O  O12  1  0.58368400  0.04174700  0.10409000  1
  O  O13  1  0.91631600  0.95825300  0.60409000  1
  O  O14  1  0.41631600  0.54174700  0.39591000  1
  O  O15  1  0.08368400  0.45825300  0.89591000  1
  O  O16  1  0.53158400  0.45510200  0.21464300  1
  O  O17  1  0.96841600  0.54489800  0.71464200  1
  O  O18  1  0.46841600  0.95510200  0.28535700  1
  O  O19  1  0.03158400  0.04489800  0.78535800  1
  O  O20  1  0.09898900  0.15330100  0.05800300  1
  O  O21  1  0.40101100  0.84669900  0.55800300  1
  O  O22  1  0.90101100  0.65330100  0.44199700  1
  O  O23  1  0.59898900  0.34669900  0.94199700  1
  O  O24  1  0.16653000  0.52971400  0.17791200  1
  O  O25  1  0.33347000  0.47028600  0.67791200  1
  O  O26  1  0.83347000  0.02971400  0.32208800  1
  O  O27  1  0.66653000  0.97028600  0.82208800  1
  O  O28  1  0.19233000  0.17092200  0.25504600  1
  O  O29  1  0.30767000  0.82907800  0.75504600  1
  O  O30  1  0.80767000  0.67092200  0.24495400  1
  O  O31  1  0.69233000  0.32907800  0.74495400  1
  O  O32  1  0.07961700  0.80098400  0.32566700  1
  O  O33  1  0.42038300  0.19901600  0.82566700  1
  O  O34  1  0.92038300  0.30098400  0.17433300  1
  O  O35  1  0.57961700  0.69901600  0.67433300  1
  O  O36  1  0.28809200  0.32615400  0.11538300  1
  O  O37  1  0.21190800  0.67384600  0.61538300  1
  O  O38  1  0.71190800  0.82615400  0.38461700  1
  O  O39  1  0.78809200  0.17384600  0.88461700  1
  O  O40  1  0.50926800  0.26710000  0.32652400  1
  O  O41  1  0.99073200  0.73290000  0.82652400  1
  O  O42  1  0.49073200  0.76710000  0.17347600  1
  O  O43  1  0.00926800  0.23290000  0.67347600  1
  O  O44  1  0.41832600  0.51180600  0.03053200  1
  O  O45  1  0.08167400  0.48819400  0.53053200  1
  O  O46  1  0.58167400  0.01180600  0.46946800  1
  O  O47  1  0.91832600  0.98819400  0.96946800  1
loop_
_geom_bond_atom_site_label_1
_geom_bond_atom_site_label_2
_geom_bond_distance
_geom_bond_site_symmetry_2
Na0 O34 2.306888 1_555
Na0 O12 2.323672 1_555
Na0 O23 2.443395 1_554
Na0 O39 2.465862 1_554
Na0 O20 2.707511 1_655
Na1 O35 2.306888 1_555
Na1 O13 2.323672 1_555
Na1 O22 2.443395 1_555
Na1 O38 2.465862 1_555
Na1 O21 2.707511 1_555
Na2 O32 2.306888 1_555
Na2 O14 2.323672 1_555
Na2 O21 2.443395 1_555
Na2 O37 2.465862 1_555
Na2 O22 2.707511 1_455
Na3 O33 2.306888 1_555
Na3 O15 2.323672 1_555
Na3 O20 2.443395 1_556
Na3 O36 2.465862 1_556
Na3 O23 2.707511 1_555
Na4 O4 2.342948 1_555
Na4 O14 2.375648 1_555
Na4 O45 2.381780 1_555
Na4 O3 2.445345 1_455
Na5 O5 2.342948 1_555
Na5 O15 2.375648 1_555
Na5 O44 2.381780 1_556
Na5 O2 2.445345 1_555
Na6 O6 2.342948 1_555
Na6 O12 2.375648 1_565
Na6 O47 2.381780 1_554
Na6 O1 2.445345 1_655
Na7 O7 2.342948 1_555
Na7 O13 2.375648 1_545
Na7 O46 2.381780 1_555
Na7 O0 2.445345 1_555
Na8 O24 2.371178 1_555
Na8 O6 2.391413 1_455
Na8 O32 2.413935 1_555
Na8 O42 2.428772 1_555
Na8 O1 2.587405 1_555
Na8 O30 2.748491 1_455
Na9 O25 2.371178 1_555
Na9 O7 2.391413 1_555
Na9 O33 2.413935 1_555
Na9 O43 2.428772 1_555
Na9 O0 2.587405 1_555
Na9 O31 2.748491 1_555
Na10 O26 2.371178 1_555
Na10 O4 2.391413 1_655
Na10 O34 2.413935 1_555
Na10 O40 2.428772 1_555
Na10 O3 2.587405 1_555
Na10 O28 2.748491 1_655
Na11 O27 2.371178 1_555
Na11 O5 2.391413 1_555
Na11 O35 2.413935 1_555
Na11 O41 2.428772 1_555
Na11 O2 2.587405 1_555
Na11 O29 2.748491 1_555
H0 O4 1.004495 1_555
H0 O8 1.682569 1_555
H1 O5 1.004495 1_555
H1 O9 1.682569 1_555
H2 O6 1.004495 1_555
H2 O10 1.682569 1_555
H3 O7 1.004495 1_555
H3 O11 1.682569 1_555
H4 O4 0.992587 1_555
H4 Na7 2.713364 1_455
H4 Na9 2.735400 1_555
H5 O5 0.992587 1_554
H5 Na6 2.713364 1_555
H5 Na8 2.735400 1_555
H6 O6 0.992587 1_556
H6 Na5 2.713364 1_655
H6 Na11 2.735400 1_555
H7 O7 0.992587 1_555
H7 Na4 2.713364 1_555
H7 Na10 2.735400 1_555
H8 O40 1.008753 1_555
H8 O16 1.695138 1_555
H8 Na4 2.741557 1_555
H9 O41 1.008753 1_555
H9 O17 1.695146 1_555
H9 Na5 2.741557 1_655
H10 O42 1.008753 1_555
H10 O18 1.695138 1_555
H10 Na6 2.741557 1_555
H11 O43 1.008753 1_555
H11 O19 1.695146 1_555
H11 Na7 2.741557 1_455
H12 O12 1.000667 1_555
H12 O18 1.808031 1_545
H13 O13 1.000667 1_555
H13 O19 1.808042 1_665
H14 O14 1.000667 1_555
H14 O16 1.808031 1_555
H15 O15 1.000667 1_555
H15 O17 1.808042 1_455
H16 O12 0.999146 1_555
H16 O9 1.779531 1_544
H17 O13 0.999146 1_455
H17 O8 1.779531 1_565
H18 O14 0.999146 1_555
H18 O11 1.779531 1_555
H19 O15 0.999146 1_655
H19 O10 1.779531 1_556
H20 O40 1.010830 1_555
H20 O28 1.690893 1_555
H20 Na4 2.672736 1_555
H21 O41 1.010830 1_455
H21 O29 1.690893 1_555
H21 Na5 2.672736 1_555
H22 O42 1.010830 1_555
H22 O30 1.690893 1_555
H22 Na6 2.672736 1_555
H23 O43 1.010830 1_655
H23 O31 1.690893 1_555
H23 Na7 2.672736 1_555
O0 Si1 1.615115 1_545
O0 Y0 2.280687 1_555
O1 Si0 1.615115 1_565
O1 Y1 2.280687 1_555
O2 Si3 1.615115 1_555
O2 Y2 2.280687 1_555
O3 Si2 1.615115 1_555
O3 Y3 2.280687 1_555
O8 Si1 1.630893 1_545
O8 Y1 2.328067 1_545
O9 Si0 1.630893 1_566
O9 Y0 2.328067 1_565
O10 Si3 1.630893 1_554
O10 Y3 2.328067 1_555
O11 Si2 1.630893 1_555
O11 Y2 2.328067 1_555
O16 Si8 1.634665 1_555
O16 Y3 2.319996 1_555
O17 Si9 1.634656 1_655
O17 Y2 2.319995 1_555
O18 Si10 1.634665 1_555
O18 Y1 2.319996 1_555
O19 Si11 1.634656 1_455
O19 Y0 2.319995 1_555
O20 Si4 1.674212 1_555
O20 Si0 1.680076 1_555
O21 Si5 1.674212 1_555
O21 Si1 1.680076 1_555
O22 Si6 1.674212 1_555
O22 Si2 1.680076 1_555
O23 Si7 1.674212 1_555
O23 Si3 1.680076 1_555
O24 Si8 1.613505 1_555
O24 Y3 2.261261 1_455
O25 Si9 1.613505 1_555
O25 Y2 2.261261 1_555
O26 Si10 1.613505 1_545
O26 Y1 2.261261 1_645
O27 Si11 1.613505 1_565
O27 Y0 2.261261 1_565
O28 Si4 1.624476 1_555
O28 Y1 2.286655 1_545
O29 Si5 1.624476 1_555
O29 Y0 2.286655 1_565
O30 Si6 1.624476 1_555
O30 Y3 2.286655 1_555
O31 Si7 1.624476 1_555
O31 Y2 2.286655 1_555
O32 Si6 1.627663 1_455
O32 Y1 2.280783 1_555
O33 Si7 1.627663 1_555
O33 Y0 2.280783 1_555
O34 Si4 1.627663 1_655
O34 Y3 2.280783 1_555
O35 Si5 1.627663 1_555
O35 Y2 2.280783 1_555
O36 Si4 1.660475 1_555
O36 Si8 1.679038 1_555
O37 Si5 1.660475 1_555
O37 Si9 1.679038 1_555
O38 Si6 1.660475 1_555
O38 Si10 1.679038 1_555
O39 Si7 1.660475 1_555
O39 Si11 1.679038 1_555
O44 Si8 1.667575 1_555
O44 Si3 1.669286 1_554
O45 Si9 1.667575 1_555
O45 Si2 1.669286 1_455
O46 Si10 1.667575 1_545
O46 Si1 1.669286 1_545
O47 Si11 1.667575 1_565
O47 Si0 1.669286 1_666
