# generated using pymatgen
data_Tb2ZnAg
_symmetry_space_group_name_H-M   'P 1'
_cell_length_a   7.20982428
_cell_length_b   7.20982428
_cell_length_c   14.25397572
_cell_angle_alpha   90.00000000
_cell_angle_beta   90.00000000
_cell_angle_gamma   90.00000000
_symmetry_Int_Tables_number   1
_chemical_formula_structural   Tb2ZnAg
_chemical_formula_sum   'Tb16 Zn8 Ag8'
_cell_volume   740.94398177
_cell_formula_units_Z   8
loop_
 _symmetry_equiv_pos_site_id
 _symmetry_equiv_pos_as_xyz
  1  'x, y, z'
loop_
 _atom_site_type_symbol
 _atom_site_label
 _atom_site_symmetry_multiplicity
 _atom_site_fract_x
 _atom_site_fract_y
 _atom_site_fract_z
 _atom_site_occupancy
  Tb  Tb0_0  1  0.25000000  0.25000000  0.12831202  1
  Tb  Tb0_1  1  0.25000000  0.25000000  0.62831202  1
  Tb  Tb0_2  1  0.25000000  0.75000000  0.12831202  1
  Tb  Tb0_3  1  0.25000000  0.75000000  0.62831202  1
  Tb  Tb0_4  1  0.75000000  0.25000000  0.12831202  1
  Tb  Tb0_5  1  0.75000000  0.25000000  0.62831202  1
  Tb  Tb0_6  1  0.75000000  0.75000000  0.12831202  1
  Tb  Tb0_7  1  0.75000000  0.75000000  0.62831202  1
  Tb  Tb1_0  1  0.25000000  0.25000000  0.37168798  1
  Tb  Tb1_1  1  0.25000000  0.25000000  0.87168798  1
  Tb  Tb1_2  1  0.25000000  0.75000000  0.37168798  1
  Tb  Tb1_3  1  0.25000000  0.75000000  0.87168798  1
  Tb  Tb1_4  1  0.75000000  0.25000000  0.37168798  1
  Tb  Tb1_5  1  0.75000000  0.25000000  0.87168798  1
  Tb  Tb1_6  1  0.75000000  0.75000000  0.37168798  1
  Tb  Tb1_7  1  0.75000000  0.75000000  0.87168798  1
  Zn  Zn0_0  1  0.00000000  0.00000000  0.25000000  1
  Zn  Zn0_1  1  0.00000000  0.00000000  0.75000000  1
  Zn  Zn0_2  1  0.00000000  0.50000000  0.25000000  1
  Zn  Zn0_3  1  0.00000000  0.50000000  0.75000000  1
  Zn  Zn0_4  1  0.50000000  0.00000000  0.25000000  1
  Zn  Zn0_5  1  0.50000000  0.00000000  0.75000000  1
  Zn  Zn0_6  1  0.50000000  0.50000000  0.25000000  1
  Zn  Zn0_7  1  0.50000000  0.50000000  0.75000000  1
  Ag  Ag0_0  1  0.00000000  0.00000000  0.00000000  1
  Ag  Ag0_1  1  0.00000000  0.00000000  0.50000000  1
  Ag  Ag0_2  1  0.00000000  0.50000000  0.00000000  1
  Ag  Ag0_3  1  0.00000000  0.50000000  0.50000000  1
  Ag  Ag0_4  1  0.50000000  0.00000000  0.00000000  1
  Ag  Ag0_5  1  0.50000000  0.00000000  0.50000000  1
  Ag  Ag0_6  1  0.50000000  0.50000000  0.00000000  1
  Ag  Ag0_7  1  0.50000000  0.50000000  0.50000000  1
loop_
_geom_bond_atom_site_label_1
_geom_bond_atom_site_label_2
_geom_bond_distance
_geom_bond_site_symmetry_2
Tb0_0 Zn0_2 3.083231 1_555
Tb0_0 Zn0_0 3.083231 1_555
Tb0_0 Zn0_6 3.083231 1_555
Tb0_0 Zn0_4 3.083231 1_555
Tb0_0 Tb1_0 3.469075 1_555
Tb0_0 Tb0_4 3.604912 1_455
Tb0_0 Tb0_2 3.604912 1_545
Tb0_0 Tb0_2 3.604912 1_555
Tb0_0 Tb0_4 3.604912 1_555
Tb0_0 Tb1_1 3.657913 1_554
Tb0_1 Zn0_7 3.083231 1_555
Tb0_1 Zn0_1 3.083231 1_555
Tb0_1 Zn0_5 3.083231 1_555
Tb0_1 Zn0_3 3.083231 1_555
Tb0_1 Tb1_1 3.469075 1_555
Tb0_1 Tb0_5 3.604912 1_455
Tb0_1 Tb0_3 3.604912 1_545
Tb0_1 Tb0_5 3.604912 1_555
Tb0_1 Tb0_3 3.604912 1_555
Tb0_1 Tb1_0 3.657913 1_555
Tb0_2 Zn0_4 3.083231 1_565
Tb0_2 Zn0_0 3.083231 1_565
Tb0_2 Zn0_6 3.083231 1_555
Tb0_2 Zn0_2 3.083231 1_555
Tb0_2 Tb1_2 3.469075 1_555
Tb0_2 Tb0_6 3.604912 1_455
Tb0_2 Tb0_6 3.604912 1_555
Tb0_2 Tb1_3 3.657913 1_554
Tb0_3 Zn0_5 3.083231 1_565
Tb0_3 Zn0_1 3.083231 1_565
Tb0_3 Zn0_7 3.083231 1_555
Tb0_3 Zn0_3 3.083231 1_555
Tb0_3 Tb1_3 3.469075 1_555
Tb0_3 Tb0_7 3.604912 1_455
Tb0_3 Tb0_7 3.604912 1_555
Tb0_3 Tb1_2 3.657913 1_555
Tb0_4 Zn0_2 3.083231 1_655
Tb0_4 Zn0_0 3.083231 1_655
Tb0_4 Zn0_4 3.083231 1_555
Tb0_4 Zn0_6 3.083231 1_555
Tb0_4 Tb1_4 3.469075 1_555
Tb0_4 Tb0_6 3.604912 1_545
Tb0_4 Tb0_6 3.604912 1_555
Tb0_4 Tb1_5 3.657913 1_554
Tb0_5 Zn0_3 3.083231 1_655
Tb0_5 Zn0_1 3.083231 1_655
Tb0_5 Zn0_7 3.083231 1_555
Tb0_5 Zn0_5 3.083231 1_555
Tb0_5 Tb1_5 3.469075 1_555
Tb0_5 Tb0_7 3.604912 1_545
Tb0_5 Tb0_7 3.604912 1_555
Tb0_5 Tb1_4 3.657913 1_555
Tb0_6 Zn0_0 3.083231 1_665
Tb0_6 Zn0_2 3.083231 1_655
Tb0_6 Zn0_4 3.083231 1_565
Tb0_6 Zn0_6 3.083231 1_555
Tb0_6 Tb1_6 3.469075 1_555
Tb0_6 Tb1_7 3.657913 1_554
Tb0_7 Zn0_1 3.083231 1_665
Tb0_7 Zn0_3 3.083231 1_655
Tb0_7 Zn0_5 3.083231 1_565
Tb0_7 Zn0_7 3.083231 1_555
Tb0_7 Tb1_7 3.469075 1_555
Tb0_7 Tb1_6 3.657913 1_555
Tb1_0 Zn0_0 3.083231 1_555
Tb1_0 Zn0_4 3.083231 1_555
Tb1_0 Zn0_6 3.083231 1_555
Tb1_0 Zn0_2 3.083231 1_555
Tb1_0 Tb1_4 3.604912 1_455
Tb1_0 Tb1_2 3.604912 1_545
Tb1_0 Tb1_4 3.604912 1_555
Tb1_0 Tb1_2 3.604912 1_555
Tb1_1 Zn0_7 3.083231 1_555
Tb1_1 Zn0_1 3.083231 1_555
Tb1_1 Zn0_5 3.083231 1_555
Tb1_1 Zn0_3 3.083231 1_555
Tb1_1 Tb1_3 3.604912 1_545
Tb1_1 Tb1_5 3.604912 1_455
Tb1_1 Tb1_5 3.604912 1_555
Tb1_1 Tb1_3 3.604912 1_555
Tb1_2 Zn0_4 3.083231 1_565
Tb1_2 Zn0_0 3.083231 1_565
Tb1_2 Zn0_6 3.083231 1_555
Tb1_2 Zn0_2 3.083231 1_555
Tb1_2 Tb1_6 3.604912 1_455
Tb1_2 Tb1_6 3.604912 1_555
Tb1_3 Zn0_5 3.083231 1_565
Tb1_3 Zn0_1 3.083231 1_565
Tb1_3 Zn0_7 3.083231 1_555
Tb1_3 Zn0_3 3.083231 1_555
Tb1_3 Tb1_7 3.604912 1_455
Tb1_3 Tb1_7 3.604912 1_555
Tb1_4 Zn0_2 3.083231 1_655
Tb1_4 Zn0_0 3.083231 1_655
Tb1_4 Zn0_4 3.083231 1_555
Tb1_4 Zn0_6 3.083231 1_555
Tb1_4 Tb1_6 3.604912 1_545
Tb1_4 Tb1_6 3.604912 1_555
Tb1_5 Zn0_1 3.083231 1_655
Tb1_5 Zn0_3 3.083231 1_655
Tb1_5 Zn0_7 3.083231 1_555
Tb1_5 Zn0_5 3.083231 1_555
Tb1_5 Tb1_7 3.604912 1_545
Tb1_5 Tb1_7 3.604912 1_555
Tb1_6 Zn0_0 3.083231 1_665
Tb1_6 Zn0_2 3.083231 1_655
Tb1_6 Zn0_4 3.083231 1_565
Tb1_6 Zn0_6 3.083231 1_555
Tb1_7 Zn0_1 3.083231 1_665
Tb1_7 Zn0_3 3.083231 1_655
Tb1_7 Zn0_5 3.083231 1_565
Tb1_7 Zn0_7 3.083231 1_555
Zn0_0 Zn0_4 3.604912 1_555
Zn0_0 Zn0_4 3.604912 1_455
Zn0_0 Zn0_2 3.604912 1_555
Zn0_0 Zn0_2 3.604912 1_545
Zn0_1 Zn0_5 3.604912 1_455
Zn0_1 Zn0_3 3.604912 1_545
Zn0_1 Zn0_5 3.604912 1_555
Zn0_1 Zn0_3 3.604912 1_555
Zn0_2 Zn0_6 3.604912 1_455
Zn0_2 Zn0_6 3.604912 1_555
Zn0_3 Zn0_7 3.604912 1_455
Zn0_3 Zn0_7 3.604912 1_555
Zn0_4 Zn0_6 3.604912 1_545
Zn0_4 Zn0_6 3.604912 1_555
Zn0_5 Zn0_7 3.604912 1_545
Zn0_5 Zn0_7 3.604912 1_555
Ag0_0 Tb1_7 3.137320 1_444
Ag0_0 Tb1_5 3.137320 1_454
Ag0_0 Tb1_3 3.137320 1_544
Ag0_0 Tb0_6 3.137320 1_445
Ag0_0 Tb0_2 3.137320 1_545
Ag0_0 Tb0_4 3.137320 1_455
Ag0_0 Tb1_1 3.137320 1_554
Ag0_0 Tb0_0 3.137320 1_555
Ag0_0 Zn0_0 3.563494 1_555
Ag0_0 Zn0_1 3.563494 1_554
Ag0_0 Ag0_4 3.604912 1_555
Ag0_0 Ag0_4 3.604912 1_455
Ag0_0 Ag0_2 3.604912 1_545
Ag0_0 Ag0_2 3.604912 1_555
Ag0_1 Tb1_6 3.137320 1_445
Ag0_1 Tb0_7 3.137320 1_445
Ag0_1 Tb1_2 3.137320 1_545
Ag0_1 Tb0_3 3.137320 1_545
Ag0_1 Tb1_4 3.137320 1_455
Ag0_1 Tb0_5 3.137320 1_455
Ag0_1 Tb0_1 3.137320 1_555
Ag0_1 Tb1_0 3.137320 1_555
Ag0_1 Zn0_1 3.563494 1_555
Ag0_1 Zn0_0 3.563494 1_555
Ag0_1 Ag0_5 3.604912 1_555
Ag0_1 Ag0_5 3.604912 1_455
Ag0_1 Ag0_3 3.604912 1_555
Ag0_1 Ag0_3 3.604912 1_545
Ag0_2 Tb1_5 3.137320 1_454
Ag0_2 Tb1_7 3.137320 1_454
Ag0_2 Tb0_4 3.137320 1_455
Ag0_2 Tb1_1 3.137320 1_554
Ag0_2 Tb0_0 3.137320 1_555
Ag0_2 Tb0_6 3.137320 1_455
Ag0_2 Tb1_3 3.137320 1_554
Ag0_2 Tb0_2 3.137320 1_555
Ag0_2 Zn0_2 3.563494 1_555
Ag0_2 Zn0_3 3.563494 1_554
Ag0_2 Ag0_6 3.604912 1_555
Ag0_2 Ag0_6 3.604912 1_455
Ag0_3 Tb1_4 3.137320 1_455
Ag0_3 Tb0_5 3.137320 1_455
Ag0_3 Tb0_1 3.137320 1_555
Ag0_3 Tb1_0 3.137320 1_555
Ag0_3 Tb1_6 3.137320 1_455
Ag0_3 Tb0_7 3.137320 1_455
Ag0_3 Tb0_3 3.137320 1_555
Ag0_3 Tb1_2 3.137320 1_555
Ag0_3 Zn0_2 3.563494 1_555
Ag0_3 Zn0_3 3.563494 1_555
Ag0_3 Ag0_7 3.604912 1_455
Ag0_3 Ag0_7 3.604912 1_555
Ag0_4 Tb1_3 3.137320 1_544
Ag0_4 Tb0_2 3.137320 1_545
Ag0_4 Tb1_1 3.137320 1_554
Ag0_4 Tb1_7 3.137320 1_544
Ag0_4 Tb0_0 3.137320 1_555
Ag0_4 Tb0_6 3.137320 1_545
Ag0_4 Tb0_4 3.137320 1_555
Ag0_4 Tb1_5 3.137320 1_554
Ag0_4 Zn0_5 3.563494 1_554
Ag0_4 Zn0_4 3.563494 1_555
Ag0_4 Ag0_6 3.604912 1_555
Ag0_4 Ag0_6 3.604912 1_545
Ag0_5 Tb1_2 3.137320 1_545
Ag0_5 Tb0_3 3.137320 1_545
Ag0_5 Tb0_1 3.137320 1_555
Ag0_5 Tb0_7 3.137320 1_545
Ag0_5 Tb1_6 3.137320 1_545
Ag0_5 Tb1_0 3.137320 1_555
Ag0_5 Tb0_5 3.137320 1_555
Ag0_5 Tb1_4 3.137320 1_555
Ag0_5 Zn0_4 3.563494 1_555
Ag0_5 Zn0_5 3.563494 1_555
Ag0_5 Ag0_7 3.604912 1_545
Ag0_5 Ag0_7 3.604912 1_555
Ag0_6 Tb1_1 3.137320 1_554
Ag0_6 Tb0_0 3.137320 1_555
Ag0_6 Tb1_3 3.137320 1_554
Ag0_6 Tb0_2 3.137320 1_555
Ag0_6 Tb0_4 3.137320 1_555
Ag0_6 Tb1_5 3.137320 1_554
Ag0_6 Tb1_7 3.137320 1_554
Ag0_6 Tb0_6 3.137320 1_555
Ag0_6 Zn0_6 3.563494 1_555
Ag0_6 Zn0_7 3.563494 1_554
Ag0_7 Tb0_1 3.137320 1_555
Ag0_7 Tb1_0 3.137320 1_555
Ag0_7 Tb0_5 3.137320 1_555
Ag0_7 Tb1_4 3.137320 1_555
Ag0_7 Tb0_3 3.137320 1_555
Ag0_7 Tb1_2 3.137320 1_555
Ag0_7 Tb0_7 3.137320 1_555
Ag0_7 Tb1_6 3.137320 1_555
Ag0_7 Zn0_6 3.563494 1_555
Ag0_7 Zn0_7 3.563494 1_555
