# generated using pymatgen
data_Lu2PbSe4
_symmetry_space_group_name_H-M   'P 1'
_cell_length_a   4.06911200
_cell_length_b   12.61166900
_cell_length_c   14.74890200
_cell_angle_alpha   90.00000000
_cell_angle_beta   90.00000000
_cell_angle_gamma   90.00000000
_symmetry_Int_Tables_number   1
_chemical_formula_structural   Lu2PbSe4
_chemical_formula_sum   'Lu8 Pb4 Se16'
_cell_volume   756.88848412
_cell_formula_units_Z   4
loop_
 _symmetry_equiv_pos_site_id
 _symmetry_equiv_pos_as_xyz
  1  'x, y, z'
loop_
 _atom_site_type_symbol
 _atom_site_label
 _atom_site_symmetry_multiplicity
 _atom_site_fract_x
 _atom_site_fract_y
 _atom_site_fract_z
 _atom_site_occupancy
  Lu  Lu0  1  0.25000000  0.43977000  0.38764200  1
  Lu  Lu1  1  0.25000000  0.93977000  0.11235800  1
  Lu  Lu2  1  0.75000000  0.56023000  0.61235800  1
  Lu  Lu3  1  0.75000000  0.06023000  0.88764200  1
  Lu  Lu4  1  0.25000000  0.41673200  0.90310200  1
  Lu  Lu5  1  0.25000000  0.91673200  0.59689800  1
  Lu  Lu6  1  0.75000000  0.58326800  0.09689800  1
  Lu  Lu7  1  0.75000000  0.08326800  0.40310200  1
  Pb  Pb0  1  0.25000000  0.75948900  0.33308100  1
  Pb  Pb1  1  0.25000000  0.25948900  0.16691900  1
  Pb  Pb2  1  0.75000000  0.24051100  0.66691900  1
  Pb  Pb3  1  0.75000000  0.74051100  0.83308100  1
  Se  Se0  1  0.25000000  0.20545000  0.83205200  1
  Se  Se1  1  0.25000000  0.70545000  0.66794800  1
  Se  Se2  1  0.75000000  0.79455000  0.16794800  1
  Se  Se3  1  0.75000000  0.29455000  0.33205200  1
  Se  Se4  1  0.25000000  0.12659300  0.53083700  1
  Se  Se5  1  0.25000000  0.62659300  0.96916300  1
  Se  Se6  1  0.75000000  0.87340700  0.46916300  1
  Se  Se7  1  0.75000000  0.37340700  0.03083700  1
  Se  Se8  1  0.25000000  0.02920800  0.28508100  1
  Se  Se9  1  0.25000000  0.52920800  0.21491900  1
  Se  Se10  1  0.75000000  0.97079200  0.71491900  1
  Se  Se11  1  0.75000000  0.47079200  0.78508100  1
  Se  Se12  1  0.25000000  0.41069500  0.57555400  1
  Se  Se13  1  0.25000000  0.91069500  0.92444600  1
  Se  Se14  1  0.75000000  0.58930500  0.42444600  1
  Se  Se15  1  0.75000000  0.08930500  0.07555400  1
loop_
_geom_bond_atom_site_label_1
_geom_bond_atom_site_label_2
_geom_bond_distance
_geom_bond_site_symmetry_2
Lu0 Se9 2.786023 1_555
Lu0 Se12 2.795648 1_555
Lu0 Se14 2.826771 1_455
Lu0 Se14 2.826771 1_555
Lu0 Se3 2.857606 1_555
Lu0 Se3 2.857606 1_455
Lu1 Se8 2.786023 1_565
Lu1 Se13 2.795648 1_554
Lu1 Se15 2.826771 1_565
Lu1 Se15 2.826771 1_465
Lu1 Se2 2.857606 1_455
Lu1 Se2 2.857606 1_555
Lu2 Se11 2.786023 1_555
Lu2 Se14 2.795648 1_555
Lu2 Se12 2.826771 1_655
Lu2 Se12 2.826771 1_555
Lu2 Se1 2.857606 1_655
Lu2 Se1 2.857606 1_555
Lu3 Se10 2.786023 1_545
Lu3 Se15 2.795648 1_556
Lu3 Se13 2.826771 1_645
Lu3 Se13 2.826771 1_545
Lu3 Se0 2.857606 1_555
Lu3 Se0 2.857606 1_655
Lu4 Se11 2.763009 1_555
Lu4 Se11 2.763009 1_455
Lu4 Se5 2.820341 1_555
Lu4 Se7 2.826171 1_456
Lu4 Se7 2.826171 1_556
Lu4 Se0 2.863269 1_555
Lu5 Se10 2.763009 1_555
Lu5 Se10 2.763009 1_455
Lu5 Se4 2.820341 1_565
Lu5 Se6 2.826171 1_555
Lu5 Se6 2.826171 1_455
Lu5 Se1 2.863269 1_555
Lu6 Se9 2.763009 1_655
Lu6 Se9 2.763009 1_555
Lu6 Se7 2.820341 1_555
Lu6 Se5 2.826171 1_554
Lu6 Se5 2.826171 1_654
Lu6 Se2 2.863269 1_555
Lu7 Se8 2.763009 1_555
Lu7 Se8 2.763009 1_655
Lu7 Se6 2.820341 1_545
Lu7 Se4 2.826171 1_655
Lu7 Se4 2.826171 1_555
Lu7 Se3 2.863269 1_555
Pb0 Se6 3.198719 1_455
Pb0 Se6 3.198719 1_555
Pb0 Se2 3.204177 1_555
Pb0 Se2 3.204177 1_455
Pb0 Se14 3.249906 1_555
Pb0 Se14 3.249906 1_455
Pb0 Se9 3.386997 1_555
Pb0 Se8 3.474495 1_565
Pb1 Se7 3.198719 1_455
Pb1 Se7 3.198719 1_555
Pb1 Se3 3.204177 1_555
Pb1 Se3 3.204177 1_455
Pb1 Se15 3.249906 1_555
Pb1 Se15 3.249906 1_455
Pb1 Se8 3.386997 1_555
Pb1 Se9 3.474495 1_555
Pb2 Se4 3.198719 1_655
Pb2 Se4 3.198719 1_555
Pb2 Se0 3.204177 1_555
Pb2 Se0 3.204177 1_655
Pb2 Se12 3.249906 1_555
Pb2 Se12 3.249906 1_655
Pb2 Se11 3.386997 1_555
Pb2 Se10 3.474495 1_545
Pb3 Se5 3.198719 1_555
Pb3 Se5 3.198719 1_655
Pb3 Se1 3.204177 1_555
Pb3 Se1 3.204177 1_655
Pb3 Se13 3.249906 1_655
Pb3 Se13 3.249906 1_555
Pb3 Se10 3.386997 1_555
Pb3 Se11 3.474495 1_555
Se12 Se4 3.643195 1_555
Se13 Se5 3.643195 1_555
Se14 Se6 3.643195 1_555
Se15 Se7 3.643195 1_555
