# generated using pymatgen
data_CaAgGe
_symmetry_space_group_name_H-M   'P 1'
_cell_length_a   5.83850522
_cell_length_b   5.83850522
_cell_length_c   7.35953957
_cell_angle_alpha   51.69706671
_cell_angle_beta   51.69706671
_cell_angle_gamma   46.12653792
_symmetry_Int_Tables_number   1
_chemical_formula_structural   CaAgGe
_chemical_formula_sum   'Ca2 Ag2 Ge2'
_cell_volume   133.65318861
_cell_formula_units_Z   2
loop_
 _symmetry_equiv_pos_site_id
 _symmetry_equiv_pos_as_xyz
  1  'x, y, z'
loop_
 _atom_site_type_symbol
 _atom_site_label
 _atom_site_symmetry_multiplicity
 _atom_site_fract_x
 _atom_site_fract_y
 _atom_site_fract_z
 _atom_site_occupancy
  Ca  Ca0  1  0.54251300  0.54251300  0.21233300  1
  Ca  Ca1  1  0.45748700  0.45748700  0.78766700  1
  Ag  Ag0  1  0.17459900  0.17459900  0.38213800  1
  Ag  Ag1  1  0.82540100  0.82540100  0.61786200  1
  Ge  Ge0  1  0.84616500  0.84616500  0.20241900  1
  Ge  Ge1  1  0.15383500  0.15383500  0.79758100  1
loop_
_geom_bond_atom_site_label_1
_geom_bond_atom_site_label_2
_geom_bond_distance
_geom_bond_site_symmetry_2
Ca0 Ge0 3.145485 1_545
Ca0 Ge0 3.145485 1_455
Ca0 Ge0 3.213646 1_555
Ca0 Ge1 3.325688 1_654
Ca0 Ge1 3.325688 1_564
Ca0 Ge1 3.428735 1_555
Ca0 Ca1 3.681240 1_555
Ca0 Ca1 3.801165 1_554
Ca1 Ge1 3.145485 1_655
Ca1 Ge1 3.145485 1_565
Ca1 Ge1 3.213646 1_555
Ca1 Ge0 3.325688 1_546
Ca1 Ge0 3.325688 1_456
Ca1 Ge0 3.428735 1_555
Ag0 Ge0 2.663382 1_545
Ag0 Ge0 2.663382 1_455
Ag0 Ag1 2.883684 1_445
Ag0 Ge1 2.911858 1_555
Ag0 Ca1 3.193750 1_455
Ag0 Ca1 3.193750 1_545
Ag0 Ca1 3.234625 1_554
Ag0 Ca0 3.245090 1_555
Ag0 Ca0 3.346085 1_455
Ag0 Ca0 3.346085 1_545
Ag1 Ge1 2.663382 1_565
Ag1 Ge1 2.663382 1_655
Ag1 Ge0 2.911858 1_555
Ag1 Ca0 3.193750 1_565
Ag1 Ca0 3.193750 1_655
Ag1 Ca0 3.234625 1_556
Ag1 Ca1 3.245090 1_555
Ag1 Ca1 3.346085 1_655
Ag1 Ca1 3.346085 1_565
Ge0 Ge1 2.556209 1_664
