# generated using pymatgen
data_CuGe3
_symmetry_space_group_name_H-M   'P 1'
_cell_length_a   4.34543826
_cell_length_b   4.34543826
_cell_length_c   8.93491600
_cell_angle_alpha   90.00000000
_cell_angle_beta   90.00000000
_cell_angle_gamma   120.00000397
_symmetry_Int_Tables_number   1
_chemical_formula_structural   CuGe3
_chemical_formula_sum   'Cu2 Ge6'
_cell_volume   146.11279757
_cell_formula_units_Z   2
loop_
 _symmetry_equiv_pos_site_id
 _symmetry_equiv_pos_as_xyz
  1  'x, y, z'
loop_
 _atom_site_type_symbol
 _atom_site_label
 _atom_site_symmetry_multiplicity
 _atom_site_fract_x
 _atom_site_fract_y
 _atom_site_fract_z
 _atom_site_occupancy
  Cu  Cu0  1  0.33333300  0.66666700  0.25000000  1
  Cu  Cu1  1  0.66666700  0.33333300  0.75000000  1
  Ge  Ge0  1  0.33333300  0.66666700  0.57561000  1
  Ge  Ge1  1  0.66666700  0.33333300  0.42439000  1
  Ge  Ge2  1  0.66666700  0.33333300  0.07561000  1
  Ge  Ge3  1  0.33333300  0.66666700  0.92439000  1
  Ge  Ge4  1  0.00000000  0.00000000  0.25000000  1
  Ge  Ge5  1  0.00000000  0.00000000  0.75000000  1
loop_
_geom_bond_atom_site_label_1
_geom_bond_atom_site_label_2
_geom_bond_distance
_geom_bond_site_symmetry_2
Cu0 Ge4 2.508837 1_565
Cu0 Ge4 2.508841 1_555
Cu0 Ge4 2.508841 1_665
Cu0 Ge3 2.909298 1_554
Cu0 Ge0 2.909298 1_555
Cu0 Ge2 2.953325 1_455
Cu0 Ge1 2.953325 1_455
Cu0 Ge2 2.953325 1_565
Cu0 Ge1 2.953325 1_565
Cu0 Ge2 2.953331 1_555
Cu0 Ge1 2.953331 1_555
Cu1 Ge5 2.508837 1_655
Cu1 Ge5 2.508841 1_665
Cu1 Ge5 2.508841 1_555
Cu1 Ge1 2.909298 1_555
Cu1 Ge2 2.909298 1_556
Cu1 Ge0 2.953325 1_545
Cu1 Ge0 2.953325 1_655
Cu1 Ge3 2.953325 1_545
Cu1 Ge3 2.953325 1_655
Cu1 Ge0 2.953331 1_555
Cu1 Ge3 2.953331 1_555
Ge0 Ge1 2.849533 1_455
Ge0 Ge1 2.849533 1_565
Ge0 Ge1 2.849540 1_555
Ge0 Ge5 2.953325 1_565
Ge0 Ge5 2.953328 1_665
Ge0 Ge5 2.953328 1_555
Ge0 Ge3 3.116320 1_555
Ge1 Ge4 2.953325 1_655
Ge1 Ge4 2.953328 1_555
Ge1 Ge4 2.953328 1_665
Ge1 Ge2 3.116320 1_555
Ge2 Ge3 2.849533 1_544
Ge2 Ge3 2.849533 1_654
Ge2 Ge3 2.849540 1_554
Ge2 Ge4 2.953325 1_655
Ge2 Ge4 2.953328 1_555
Ge2 Ge4 2.953328 1_665
Ge3 Ge5 2.953325 1_565
Ge3 Ge5 2.953328 1_665
Ge3 Ge5 2.953328 1_555
