# generated using pymatgen
data_K2MnV4O12
_symmetry_space_group_name_H-M   'P 1'
_cell_length_a   9.55658700
_cell_length_b   8.41777400
_cell_length_c   9.86466811
_cell_angle_alpha   56.16316164
_cell_angle_beta   90.00000000
_cell_angle_gamma   90.00000000
_symmetry_Int_Tables_number   1
_chemical_formula_structural   K2MnV4O12
_chemical_formula_sum   'K4 Mn2 V8 O24'
_cell_volume   659.15629929
_cell_formula_units_Z   2
loop_
 _symmetry_equiv_pos_site_id
 _symmetry_equiv_pos_as_xyz
  1  'x, y, z'
loop_
 _atom_site_type_symbol
 _atom_site_label
 _atom_site_symmetry_multiplicity
 _atom_site_fract_x
 _atom_site_fract_y
 _atom_site_fract_z
 _atom_site_occupancy
  K  K0  1  0.28912100  0.27305900  0.09550000  1
  K  K1  1  0.78912100  0.72694100  0.40450000  1
  K  K2  1  0.71087900  0.72694100  0.90450000  1
  K  K3  1  0.21087900  0.27305900  0.59550000  1
  Mn  Mn0  1  0.50000000  0.00000000  0.50000000  1
  Mn  Mn1  1  0.00000000  0.00000000  0.00000000  1
  V  V0  1  0.05755400  0.54422100  0.74791900  1
  V  V1  1  0.55755400  0.45577900  0.75208100  1
  V  V2  1  0.94244600  0.45577900  0.25208100  1
  V  V3  1  0.44244600  0.54422100  0.24791900  1
  V  V4  1  0.27399900  0.79114000  0.86774400  1
  V  V5  1  0.77399900  0.20886000  0.63225600  1
  V  V6  1  0.72600100  0.20886000  0.13225600  1
  V  V7  1  0.22600100  0.79114000  0.36774400  1
  O  O0  1  0.89442300  0.61041000  0.74857600  1
  O  O1  1  0.39442300  0.38959000  0.75142400  1
  O  O2  1  0.10557700  0.38959000  0.25142400  1
  O  O3  1  0.60557700  0.61041000  0.24857600  1
  O  O4  1  0.06923100  0.30230600  0.85329700  1
  O  O5  1  0.56923100  0.69769400  0.64670300  1
  O  O6  1  0.93076900  0.69769400  0.14670300  1
  O  O7  1  0.43076900  0.30230600  0.35329700  1
  O  O8  1  0.16724800  0.92621700  0.89976100  1
  O  O9  1  0.66724800  0.07378300  0.60023900  1
  O  O10  1  0.83275200  0.07378300  0.10023900  1
  O  O11  1  0.33275200  0.92621700  0.39976100  1
  O  O12  1  0.36402300  0.94387000  0.69528400  1
  O  O13  1  0.86402300  0.05613000  0.80471600  1
  O  O14  1  0.10423000  0.64715700  0.53357800  1
  O  O15  1  0.60423000  0.35284300  0.96642200  1
  O  O16  1  0.89577000  0.35284300  0.46642200  1
  O  O17  1  0.39577000  0.64715700  0.03357800  1
  O  O18  1  0.32603700  0.62746000  0.34234800  1
  O  O19  1  0.82603700  0.37254000  0.15765200  1
  O  O20  1  0.67396300  0.37254000  0.65765200  1
  O  O21  1  0.17396300  0.62746000  0.84234800  1
  O  O22  1  0.13597700  0.94387000  0.19528400  1
  O  O23  1  0.63597700  0.05613000  0.30471600  1
loop_
_geom_bond_atom_site_label_1
_geom_bond_atom_site_label_2
_geom_bond_distance
_geom_bond_site_symmetry_2
K0 O22 2.784214 1_545
K0 O11 2.819156 1_545
K0 O21 2.837353 1_554
K0 O2 2.843431 1_555
K0 O7 3.009578 1_555
K0 O17 3.030897 1_555
K0 O4 3.087059 1_554
K0 O1 3.128512 1_554
K0 O15 3.191919 1_554
K1 O23 2.784214 1_565
K1 O10 2.819156 1_565
K1 O20 2.837353 1_555
K1 O3 2.843431 1_555
K1 O6 3.009578 1_555
K1 O16 3.030897 1_555
K1 O5 3.087059 1_555
K1 O0 3.128512 1_555
K1 O14 3.191919 1_655
K2 O13 2.784214 1_565
K2 O9 2.819156 1_565
K2 O19 2.837353 1_556
K2 O0 2.843431 1_555
K2 O5 3.009578 1_555
K2 O15 3.030897 1_555
K2 O6 3.087059 1_556
K2 O3 3.128512 1_556
K2 O17 3.191919 1_556
K3 O12 2.784214 1_545
K3 O8 2.819156 1_545
K3 O18 2.837353 1_555
K3 O1 2.843431 1_555
K3 O4 3.009578 1_555
K3 O14 3.030897 1_555
K3 O7 3.087059 1_555
K3 O2 3.128512 1_555
K3 O16 3.191919 1_455
Mn0 O9 2.145251 1_555
Mn0 O11 2.145251 1_545
Mn0 O23 2.146924 1_555
Mn0 O12 2.146924 1_545
Mn0 O7 2.215063 1_555
Mn0 O5 2.215063 1_545
Mn1 O8 2.145251 1_544
Mn1 O10 2.145251 1_455
Mn1 O22 2.146924 1_545
Mn1 O13 2.146924 1_454
Mn1 O4 2.215063 1_554
Mn1 O6 2.215063 1_445
O0 V0 1.656774 1_655
O1 V1 1.656774 1_555
O2 V2 1.656774 1_455
O3 V3 1.656774 1_555
O4 V0 1.697780 1_555
O5 V1 1.697780 1_555
O6 V2 1.697780 1_555
O7 V3 1.697780 1_555
O8 V4 1.683249 1_555
O9 V5 1.683249 1_555
O10 V6 1.683249 1_555
O11 V7 1.683249 1_555
O12 V4 1.688642 1_555
O13 V5 1.688642 1_555
O14 V7 1.814190 1_555
O14 V0 1.838513 1_555
O15 V6 1.814190 1_556
O15 V1 1.838513 1_555
O16 V5 1.814190 1_555
O16 V2 1.838513 1_555
O17 V4 1.814190 1_554
O17 V3 1.838513 1_555
O18 V7 1.805409 1_555
O18 V3 1.822952 1_555
O19 V6 1.805409 1_555
O19 V2 1.822952 1_555
O20 V5 1.805409 1_555
O20 V1 1.822952 1_555
O21 V4 1.805409 1_555
O21 V0 1.822952 1_555
O22 V7 1.688642 1_555
O23 V6 1.688642 1_555
