# generated using pymatgen
data_CsKMg30O31
_symmetry_space_group_name_H-M   'P 1'
_cell_length_a   8.55303400
_cell_length_b   8.75299200
_cell_length_c   8.75741400
_cell_angle_alpha   90.00000000
_cell_angle_beta   90.00000000
_cell_angle_gamma   90.00000000
_symmetry_Int_Tables_number   1
_chemical_formula_structural   CsKMg30O31
_chemical_formula_sum   'Cs1 K1 Mg30 O31'
_cell_volume   655.62063048
_cell_formula_units_Z   1
loop_
 _symmetry_equiv_pos_site_id
 _symmetry_equiv_pos_as_xyz
  1  'x, y, z'
loop_
 _atom_site_type_symbol
 _atom_site_label
 _atom_site_symmetry_multiplicity
 _atom_site_fract_x
 _atom_site_fract_y
 _atom_site_fract_z
 _atom_site_occupancy
  Cs  Cs0  1  0.12648700  0.00000000  0.50000000  1
  K  K0  1  0.99421800  0.00000000  0.00000000  1
  Mg  Mg0  1  0.99509900  0.50000000  0.00000000  1
  Mg  Mg1  1  0.98813500  0.50000000  0.50000000  1
  Mg  Mg2  1  0.50166600  0.00000000  0.00000000  1
  Mg  Mg3  1  0.51609900  0.00000000  0.50000000  1
  Mg  Mg4  1  0.50146100  0.50000000  0.00000000  1
  Mg  Mg5  1  0.50576400  0.50000000  0.50000000  1
  Mg  Mg6  1  0.99508500  0.25387800  0.24913100  1
  Mg  Mg7  1  0.99508500  0.25387800  0.75086900  1
  Mg  Mg8  1  0.99508500  0.74612200  0.24913100  1
  Mg  Mg9  1  0.99508500  0.74612200  0.75086900  1
  Mg  Mg10  1  0.49830100  0.24917600  0.25107200  1
  Mg  Mg11  1  0.49830100  0.24917600  0.74892800  1
  Mg  Mg12  1  0.49830100  0.75082400  0.25107200  1
  Mg  Mg13  1  0.49830100  0.75082400  0.74892800  1
  Mg  Mg14  1  0.25138900  0.00000000  0.21770900  1
  Mg  Mg15  1  0.25138900  0.00000000  0.78229100  1
  Mg  Mg16  1  0.24763500  0.50000000  0.24350600  1
  Mg  Mg17  1  0.24763500  0.50000000  0.75649400  1
  Mg  Mg18  1  0.75293800  0.00000000  0.25608400  1
  Mg  Mg19  1  0.75293800  0.00000000  0.74391600  1
  Mg  Mg20  1  0.74726900  0.50000000  0.24931900  1
  Mg  Mg21  1  0.74726900  0.50000000  0.75068100  1
  Mg  Mg22  1  0.24896500  0.25948600  0.00000000  1
  Mg  Mg23  1  0.25092200  0.28310600  0.50000000  1
  Mg  Mg24  1  0.24896500  0.74051400  0.00000000  1
  Mg  Mg25  1  0.25092200  0.71689400  0.50000000  1
  Mg  Mg26  1  0.74640000  0.25032600  0.00000000  1
  Mg  Mg27  1  0.75686200  0.24392600  0.50000000  1
  Mg  Mg28  1  0.74640000  0.74967400  0.00000000  1
  Mg  Mg29  1  0.75686200  0.75607400  0.50000000  1
  O  O0  1  0.27466100  0.00000000  0.00000000  1
  O  O1  1  0.25514300  0.50000000  0.00000000  1
  O  O2  1  0.25691300  0.50000000  0.50000000  1
  O  O3  1  0.72293600  0.00000000  0.00000000  1
  O  O4  1  0.74222300  0.00000000  0.50000000  1
  O  O5  1  0.74374600  0.50000000  0.00000000  1
  O  O6  1  0.74297600  0.50000000  0.50000000  1
  O  O7  1  0.24719200  0.24766700  0.25214200  1
  O  O8  1  0.24719200  0.24766700  0.74785800  1
  O  O9  1  0.24719200  0.75233300  0.25214200  1
  O  O10  1  0.24719200  0.75233300  0.74785800  1
  O  O11  1  0.74622200  0.25089600  0.25055800  1
  O  O12  1  0.74622200  0.25089600  0.74944200  1
  O  O13  1  0.74622200  0.74910400  0.25055800  1
  O  O14  1  0.74622200  0.74910400  0.74944200  1
  O  O15  1  0.99316200  0.00000000  0.25946500  1
  O  O16  1  0.99316200  0.00000000  0.74053500  1
  O  O17  1  0.99942500  0.50000000  0.25092900  1
  O  O18  1  0.99942500  0.50000000  0.74907100  1
  O  O19  1  0.48927500  0.00000000  0.26105400  1
  O  O20  1  0.48927500  0.00000000  0.73894600  1
  O  O21  1  0.49613100  0.50000000  0.25241000  1
  O  O22  1  0.49613100  0.50000000  0.74759000  1
  O  O23  1  0.00078300  0.27462900  0.00000000  1
  O  O24  1  0.00001900  0.27385800  0.50000000  1
  O  O25  1  0.00078300  0.72537100  0.00000000  1
  O  O26  1  0.00001900  0.72614200  0.50000000  1
  O  O27  1  0.49612700  0.25384500  0.00000000  1
  O  O28  1  0.49033600  0.24537800  0.50000000  1
  O  O29  1  0.49612700  0.74615500  0.00000000  1
  O  O30  1  0.49033600  0.75462200  0.50000000  1
loop_
_geom_bond_atom_site_label_1
_geom_bond_atom_site_label_2
_geom_bond_distance
_geom_bond_site_symmetry_2
Cs0 O16 2.395319 1_455
Cs0 O15 2.395319 1_455
Cs0 O24 2.629833 1_555
Cs0 O26 2.629833 1_545
Cs0 Mg15 2.693087 1_555
Cs0 Mg14 2.693087 1_555
Cs0 Mg23 2.696912 1_555
Cs0 Mg25 2.696912 1_545
Cs0 Mg3 3.332365 1_555
K0 O15 2.272260 1_555
K0 O16 2.272260 1_554
K0 O3 2.320284 1_555
K0 O0 2.398639 1_655
K0 O23 2.404481 1_655
K0 O25 2.404481 1_645
Mg0 O25 1.973270 1_655
Mg0 O23 1.973270 1_655
Mg0 O5 2.149831 1_555
Mg0 O17 2.197801 1_555
Mg0 O18 2.197801 1_554
Mg0 O1 2.224165 1_655
Mg1 O26 1.982027 1_655
Mg1 O24 1.982027 1_655
Mg1 O6 2.096853 1_555
Mg1 O18 2.183354 1_555
Mg1 O17 2.183354 1_555
Mg1 O2 2.298867 1_655
Mg2 O3 1.892530 1_555
Mg2 O0 1.941581 1_555
Mg2 O29 2.222408 1_545
Mg2 O27 2.222408 1_555
Mg2 O19 2.288613 1_555
Mg2 O20 2.288613 1_554
Mg3 O4 1.934046 1_555
Mg3 O20 2.105089 1_555
Mg3 O19 2.105089 1_555
Mg3 O28 2.159066 1_555
Mg3 O30 2.159066 1_545
Mg4 O5 2.072272 1_555
Mg4 O1 2.106766 1_555
Mg4 O29 2.155076 1_555
Mg4 O27 2.155076 1_555
Mg4 O22 2.210929 1_554
Mg4 O21 2.210929 1_555
Mg5 O6 2.028882 1_555
Mg5 O2 2.128431 1_555
Mg5 O21 2.169813 1_555
Mg5 O22 2.169813 1_555
Mg5 O30 2.232607 1_555
Mg5 O28 2.232607 1_555
Mg6 O11 2.128730 1_555
Mg6 O17 2.154681 1_555
Mg6 O7 2.157126 1_655
Mg6 O23 2.189833 1_655
Mg6 O24 2.204317 1_655
Mg6 O15 2.224095 1_555
Mg7 O12 2.128730 1_555
Mg7 O18 2.154681 1_555
Mg7 O8 2.157126 1_655
Mg7 O23 2.189833 1_656
Mg7 O24 2.204317 1_655
Mg7 O16 2.224095 1_555
Mg8 O13 2.128730 1_555
Mg8 O17 2.154681 1_555
Mg8 O9 2.157126 1_655
Mg8 O25 2.189833 1_655
Mg8 O26 2.204317 1_655
Mg8 O15 2.224095 1_565
Mg9 O14 2.128730 1_555
Mg9 O18 2.154681 1_555
Mg9 O10 2.157126 1_655
Mg9 O25 2.189833 1_656
Mg9 O26 2.204317 1_655
Mg9 O16 2.224095 1_565
Mg10 O11 2.120535 1_555
Mg10 O7 2.147805 1_555
Mg10 O28 2.181283 1_555
Mg10 O19 2.184151 1_555
Mg10 O21 2.195570 1_555
Mg10 O27 2.199200 1_555
Mg11 O12 2.120535 1_555
Mg11 O8 2.147805 1_555
Mg11 O28 2.181283 1_555
Mg11 O20 2.184151 1_555
Mg11 O22 2.195570 1_555
Mg11 O27 2.199200 1_556
Mg12 O13 2.120535 1_555
Mg12 O9 2.147805 1_555
Mg12 O30 2.181283 1_555
Mg12 O19 2.184151 1_565
Mg12 O21 2.195570 1_555
Mg12 O29 2.199200 1_555
Mg13 O14 2.120535 1_555
Mg13 O10 2.147805 1_555
Mg13 O30 2.181283 1_555
Mg13 O20 2.184151 1_565
Mg13 O22 2.195570 1_555
Mg13 O29 2.199200 1_556
Mg14 O0 1.916930 1_555
Mg14 O19 2.069753 1_555
Mg14 O7 2.188993 1_555
Mg14 O9 2.188993 1_545
Mg14 O15 2.238691 1_455
Mg15 O0 1.916930 1_556
Mg15 O20 2.069753 1_555
Mg15 O8 2.188993 1_555
Mg15 O10 2.188993 1_545
Mg15 O16 2.238691 1_455
Mg16 O17 2.123944 1_455
Mg16 O21 2.126825 1_555
Mg16 O1 2.133450 1_555
Mg16 O9 2.209966 1_555
Mg16 O7 2.209966 1_555
Mg16 O2 2.247625 1_555
Mg17 O18 2.123944 1_455
Mg17 O22 2.126825 1_555
Mg17 O1 2.133450 1_556
Mg17 O10 2.209966 1_555
Mg17 O8 2.209966 1_555
Mg17 O2 2.247625 1_555
Mg18 O15 2.054857 1_555
Mg18 O4 2.138038 1_555
Mg18 O11 2.197375 1_555
Mg18 O13 2.197375 1_545
Mg18 O19 2.255539 1_555
Mg18 O3 2.257267 1_555
Mg19 O16 2.054857 1_555
Mg19 O4 2.138038 1_555
Mg19 O12 2.197375 1_555
Mg19 O14 2.197375 1_545
Mg19 O20 2.255539 1_555
Mg19 O3 2.257267 1_556
Mg20 O21 2.148162 1_555
Mg20 O17 2.156745 1_555
Mg20 O13 2.180451 1_555
Mg20 O11 2.180451 1_555
Mg20 O5 2.183598 1_555
Mg20 O6 2.195624 1_555
Mg21 O22 2.148162 1_555
Mg21 O18 2.156745 1_555
Mg21 O12 2.180451 1_555
Mg21 O14 2.180451 1_555
Mg21 O5 2.183598 1_556
Mg21 O6 2.195624 1_555
Mg22 O1 2.105880 1_555
Mg22 O27 2.114562 1_555
Mg22 O23 2.126843 1_555
Mg22 O7 2.210586 1_555
Mg22 O8 2.210586 1_554
Mg22 O0 2.281887 1_555
Mg23 O2 1.899163 1_555
Mg23 O28 2.074173 1_555
Mg23 O24 2.147508 1_555
Mg23 O8 2.192880 1_555
Mg23 O7 2.192880 1_555
Mg24 O1 2.105880 1_555
Mg24 O29 2.114562 1_555
Mg24 O25 2.126843 1_555
Mg24 O9 2.210586 1_555
Mg24 O10 2.210586 1_554
Mg24 O0 2.281887 1_565
Mg25 O2 1.899163 1_555
Mg25 O30 2.074173 1_555
Mg25 O26 2.147508 1_555
Mg25 O10 2.192880 1_555
Mg25 O9 2.192880 1_555
Mg26 O27 2.140815 1_555
Mg26 O5 2.185512 1_555
Mg26 O23 2.186121 1_655
Mg26 O11 2.194246 1_555
Mg26 O12 2.194246 1_554
Mg26 O3 2.200273 1_555
Mg27 O24 2.096168 1_655
Mg27 O4 2.138750 1_555
Mg27 O12 2.187213 1_555
Mg27 O11 2.187213 1_555
Mg27 O6 2.244558 1_555
Mg27 O28 2.279641 1_555
Mg28 O29 2.140815 1_555
Mg28 O5 2.185512 1_555
Mg28 O25 2.186121 1_655
Mg28 O13 2.194246 1_555
Mg28 O14 2.194246 1_554
Mg28 O3 2.200273 1_565
Mg29 O26 2.096168 1_655
Mg29 O4 2.138750 1_565
Mg29 O14 2.187213 1_555
Mg29 O13 2.187213 1_555
Mg29 O6 2.244558 1_555
Mg29 O30 2.279641 1_555
