# generated using pymatgen
data_Cs2BrCl
_symmetry_space_group_name_H-M   'P 1'
_cell_length_a   12.20189200
_cell_length_b   12.20189200
_cell_length_c   8.64093600
_cell_angle_alpha   90.00000000
_cell_angle_beta   90.00000000
_cell_angle_gamma   90.00000000
_symmetry_Int_Tables_number   1
_chemical_formula_structural   Cs2BrCl
_chemical_formula_sum   'Cs16 Br8 Cl8'
_cell_volume   1286.51585225
_cell_formula_units_Z   8
loop_
 _symmetry_equiv_pos_site_id
 _symmetry_equiv_pos_as_xyz
  1  'x, y, z'
loop_
 _atom_site_type_symbol
 _atom_site_label
 _atom_site_symmetry_multiplicity
 _atom_site_fract_x
 _atom_site_fract_y
 _atom_site_fract_z
 _atom_site_occupancy
  Cs  Cs0_0  1  0.25000000  0.00000000  0.00000000  1
  Cs  Cs0_1  1  0.25000000  0.00000000  0.50000000  1
  Cs  Cs0_2  1  0.25000000  0.50000000  0.00000000  1
  Cs  Cs0_3  1  0.25000000  0.50000000  0.50000000  1
  Cs  Cs0_4  1  0.75000000  0.00000000  0.00000000  1
  Cs  Cs0_5  1  0.75000000  0.00000000  0.50000000  1
  Cs  Cs0_6  1  0.75000000  0.50000000  0.00000000  1
  Cs  Cs0_7  1  0.75000000  0.50000000  0.50000000  1
  Cs  Cs1_0  1  0.00000000  0.25000000  0.00000000  1
  Cs  Cs1_1  1  0.00000000  0.25000000  0.50000000  1
  Cs  Cs1_2  1  0.00000000  0.75000000  0.00000000  1
  Cs  Cs1_3  1  0.00000000  0.75000000  0.50000000  1
  Cs  Cs1_4  1  0.50000000  0.25000000  0.00000000  1
  Cs  Cs1_5  1  0.50000000  0.25000000  0.50000000  1
  Cs  Cs1_6  1  0.50000000  0.75000000  0.00000000  1
  Cs  Cs1_7  1  0.50000000  0.75000000  0.50000000  1
  Br  Br0_0  1  0.00000000  0.00000000  0.25000000  1
  Br  Br0_1  1  0.00000000  0.00000000  0.75000000  1
  Br  Br0_2  1  0.00000000  0.50000000  0.25000000  1
  Br  Br0_3  1  0.00000000  0.50000000  0.75000000  1
  Br  Br0_4  1  0.50000000  0.00000000  0.25000000  1
  Br  Br0_5  1  0.50000000  0.00000000  0.75000000  1
  Br  Br0_6  1  0.50000000  0.50000000  0.25000000  1
  Br  Br0_7  1  0.50000000  0.50000000  0.75000000  1
  Cl  Cl0_0  1  0.25000000  0.25000000  0.25000000  1
  Cl  Cl0_1  1  0.25000000  0.25000000  0.75000000  1
  Cl  Cl0_2  1  0.25000000  0.75000000  0.25000000  1
  Cl  Cl0_3  1  0.25000000  0.75000000  0.75000000  1
  Cl  Cl0_4  1  0.75000000  0.25000000  0.25000000  1
  Cl  Cl0_5  1  0.75000000  0.25000000  0.75000000  1
  Cl  Cl0_6  1  0.75000000  0.75000000  0.25000000  1
  Cl  Cl0_7  1  0.75000000  0.75000000  0.75000000  1
loop_
_geom_bond_atom_site_label_1
_geom_bond_atom_site_label_2
_geom_bond_distance
_geom_bond_site_symmetry_2
Cs0_0 Cs1_4 4.314020 1_555
Cs0_0 Cs1_0 4.314020 1_555
Cs0_0 Cs1_2 4.314020 1_545
Cs0_0 Cs1_6 4.314020 1_545
Cs0_0 Cs0_1 4.320468 1_555
Cs0_0 Cs0_1 4.320468 1_554
Cs0_1 Cs1_7 4.314020 1_545
Cs0_1 Cs1_1 4.314020 1_555
Cs0_1 Cs1_5 4.314020 1_555
Cs0_1 Cs1_3 4.314020 1_545
Cs0_2 Cs1_4 4.314020 1_555
Cs0_2 Cs1_2 4.314020 1_555
Cs0_2 Cs1_6 4.314020 1_555
Cs0_2 Cs1_0 4.314020 1_555
Cs0_2 Cs0_3 4.320468 1_555
Cs0_2 Cs0_3 4.320468 1_554
Cs0_3 Cs1_7 4.314020 1_555
Cs0_3 Cs1_1 4.314020 1_555
Cs0_3 Cs1_5 4.314020 1_555
Cs0_3 Cs1_3 4.314020 1_555
Cs0_4 Cs1_2 4.314020 1_645
Cs0_4 Cs1_4 4.314020 1_555
Cs0_4 Cs1_0 4.314020 1_655
Cs0_4 Cs1_6 4.314020 1_545
Cs0_4 Cs0_5 4.320468 1_554
Cs0_4 Cs0_5 4.320468 1_555
Cs0_5 Cs1_7 4.314020 1_545
Cs0_5 Cs1_5 4.314020 1_555
Cs0_5 Cs1_3 4.314020 1_645
Cs0_5 Cs1_1 4.314020 1_655
Cs0_6 Cs1_0 4.314020 1_655
Cs0_6 Cs1_4 4.314020 1_555
Cs0_6 Cs1_2 4.314020 1_655
Cs0_6 Cs1_6 4.314020 1_555
Cs0_6 Cs0_7 4.320468 1_555
Cs0_6 Cs0_7 4.320468 1_554
Cs0_7 Cs1_7 4.314020 1_555
Cs0_7 Cs1_5 4.314020 1_555
Cs0_7 Cs1_3 4.314020 1_655
Cs0_7 Cs1_1 4.314020 1_655
Cs1_0 Cs1_1 4.320468 1_555
Cs1_0 Cs1_1 4.320468 1_554
Cs1_2 Cs1_3 4.320468 1_554
Cs1_2 Cs1_3 4.320468 1_555
Cs1_4 Cs1_5 4.320468 1_555
Cs1_4 Cs1_5 4.320468 1_554
Cs1_6 Cs1_7 4.320468 1_554
Cs1_6 Cs1_7 4.320468 1_555
Br0_0 Cs0_1 3.737913 1_555
Br0_0 Cs1_0 3.737913 1_555
Br0_0 Cs1_3 3.737913 1_545
Br0_0 Cs0_4 3.737913 1_455
Br0_0 Cs0_5 3.737913 1_455
Br0_0 Cs1_1 3.737913 1_555
Br0_0 Cs1_2 3.737913 1_545
Br0_0 Cs0_0 3.737913 1_555
Br0_0 Cl0_4 4.314020 1_455
Br0_0 Cl0_0 4.314020 1_555
Br0_0 Cl0_6 4.314020 1_445
Br0_0 Cl0_2 4.314020 1_545
Br0_0 Br0_1 4.320468 1_555
Br0_0 Br0_1 4.320468 1_554
Br0_1 Cs0_1 3.737913 1_555
Br0_1 Cs0_0 3.737913 1_556
Br0_1 Cs1_3 3.737913 1_545
Br0_1 Cs0_4 3.737913 1_456
Br0_1 Cs0_5 3.737913 1_455
Br0_1 Cs1_2 3.737913 1_546
Br0_1 Cs1_1 3.737913 1_555
Br0_1 Cs1_0 3.737913 1_556
Br0_1 Cl0_3 4.314020 1_545
Br0_1 Cl0_7 4.314020 1_445
Br0_1 Cl0_1 4.314020 1_555
Br0_1 Cl0_5 4.314020 1_455
Br0_2 Cs0_6 3.737913 1_455
Br0_2 Cs1_0 3.737913 1_555
Br0_2 Cs1_3 3.737913 1_555
Br0_2 Cs0_7 3.737913 1_455
Br0_2 Cs0_3 3.737913 1_555
Br0_2 Cs0_2 3.737913 1_555
Br0_2 Cs1_1 3.737913 1_555
Br0_2 Cs1_2 3.737913 1_555
Br0_2 Cl0_4 4.314020 1_455
Br0_2 Cl0_0 4.314020 1_555
Br0_2 Cl0_2 4.314020 1_555
Br0_2 Cl0_6 4.314020 1_455
Br0_2 Br0_3 4.320468 1_554
Br0_2 Br0_3 4.320468 1_555
Br0_3 Cs0_6 3.737913 1_456
Br0_3 Cs1_3 3.737913 1_555
Br0_3 Cs0_7 3.737913 1_455
Br0_3 Cs1_0 3.737913 1_556
Br0_3 Cs1_2 3.737913 1_556
Br0_3 Cs0_3 3.737913 1_555
Br0_3 Cs1_1 3.737913 1_555
Br0_3 Cs0_2 3.737913 1_556
Br0_3 Cl0_3 4.314020 1_555
Br0_3 Cl0_7 4.314020 1_455
Br0_3 Cl0_1 4.314020 1_555
Br0_3 Cl0_5 4.314020 1_455
Br0_4 Cs0_1 3.737913 1_555
Br0_4 Cs0_4 3.737913 1_555
Br0_4 Cs0_5 3.737913 1_555
Br0_4 Cs1_6 3.737913 1_545
Br0_4 Cs1_7 3.737913 1_545
Br0_4 Cs1_4 3.737913 1_555
Br0_4 Cs1_5 3.737913 1_555
Br0_4 Cs0_0 3.737913 1_555
Br0_4 Cl0_6 4.314020 1_545
Br0_4 Cl0_0 4.314020 1_555
Br0_4 Cl0_4 4.314020 1_555
Br0_4 Cl0_2 4.314020 1_545
Br0_4 Br0_5 4.320468 1_555
Br0_4 Br0_5 4.320468 1_554
Br0_5 Cs0_1 3.737913 1_555
Br0_5 Cs1_6 3.737913 1_546
Br0_5 Cs0_0 3.737913 1_556
Br0_5 Cs0_5 3.737913 1_555
Br0_5 Cs1_4 3.737913 1_556
Br0_5 Cs1_7 3.737913 1_545
Br0_5 Cs0_4 3.737913 1_556
Br0_5 Cs1_5 3.737913 1_555
Br0_5 Cl0_3 4.314020 1_545
Br0_5 Cl0_1 4.314020 1_555
Br0_5 Cl0_7 4.314020 1_545
Br0_5 Cl0_5 4.314020 1_555
Br0_6 Cs1_6 3.737913 1_555
Br0_6 Cs1_5 3.737913 1_555
Br0_6 Cs0_3 3.737913 1_555
Br0_6 Cs1_7 3.737913 1_555
Br0_6 Cs1_4 3.737913 1_555
Br0_6 Cs0_2 3.737913 1_555
Br0_6 Cs0_6 3.737913 1_555
Br0_6 Cs0_7 3.737913 1_555
Br0_6 Cl0_6 4.314020 1_555
Br0_6 Cl0_0 4.314020 1_555
Br0_6 Cl0_4 4.314020 1_555
Br0_6 Cl0_2 4.314020 1_555
Br0_6 Br0_7 4.320468 1_555
Br0_6 Br0_7 4.320468 1_554
Br0_7 Cs1_4 3.737913 1_556
Br0_7 Cs0_3 3.737913 1_555
Br0_7 Cs1_7 3.737913 1_555
Br0_7 Cs1_6 3.737913 1_556
Br0_7 Cs1_5 3.737913 1_555
Br0_7 Cs0_2 3.737913 1_556
Br0_7 Cs0_7 3.737913 1_555
Br0_7 Cs0_6 3.737913 1_556
Br0_7 Cl0_3 4.314020 1_555
Br0_7 Cl0_7 4.314020 1_555
Br0_7 Cl0_1 4.314020 1_555
Br0_7 Cl0_5 4.314020 1_555
Cl0_0 Cs0_1 3.737913 1_555
Cl0_0 Cs1_0 3.737913 1_555
Cl0_0 Cs0_3 3.737913 1_555
Cl0_0 Cs1_4 3.737913 1_555
Cl0_0 Cs0_2 3.737913 1_555
Cl0_0 Cs1_1 3.737913 1_555
Cl0_0 Cs1_5 3.737913 1_555
Cl0_0 Cs0_0 3.737913 1_555
Cl0_0 Cl0_1 4.320468 1_555
Cl0_0 Cl0_1 4.320468 1_554
Cl0_1 Cs0_1 3.737913 1_555
Cl0_1 Cs0_0 3.737913 1_556
Cl0_1 Cs1_4 3.737913 1_556
Cl0_1 Cs1_0 3.737913 1_556
Cl0_1 Cs0_3 3.737913 1_555
Cl0_1 Cs1_1 3.737913 1_555
Cl0_1 Cs1_5 3.737913 1_555
Cl0_1 Cs0_2 3.737913 1_556
Cl0_2 Cs1_6 3.737913 1_555
Cl0_2 Cs1_3 3.737913 1_555
Cl0_2 Cs0_3 3.737913 1_555
Cl0_2 Cs1_7 3.737913 1_555
Cl0_2 Cs0_0 3.737913 1_565
Cl0_2 Cs0_2 3.737913 1_555
Cl0_2 Cs1_2 3.737913 1_555
Cl0_2 Cs0_1 3.737913 1_565
Cl0_2 Cl0_3 4.320468 1_554
Cl0_2 Cl0_3 4.320468 1_555
Cl0_3 Cs1_3 3.737913 1_555
Cl0_3 Cs1_2 3.737913 1_556
Cl0_3 Cs0_3 3.737913 1_555
Cl0_3 Cs1_7 3.737913 1_555
Cl0_3 Cs1_6 3.737913 1_556
Cl0_3 Cs0_0 3.737913 1_566
Cl0_3 Cs0_2 3.737913 1_556
Cl0_3 Cs0_1 3.737913 1_565
Cl0_4 Cs0_4 3.737913 1_555
Cl0_4 Cs0_5 3.737913 1_555
Cl0_4 Cs1_1 3.737913 1_655
Cl0_4 Cs1_4 3.737913 1_555
Cl0_4 Cs0_6 3.737913 1_555
Cl0_4 Cs1_5 3.737913 1_555
Cl0_4 Cs1_0 3.737913 1_655
Cl0_4 Cs0_7 3.737913 1_555
Cl0_4 Cl0_5 4.320468 1_555
Cl0_4 Cl0_5 4.320468 1_554
Cl0_5 Cs1_0 3.737913 1_656
Cl0_5 Cs0_5 3.737913 1_555
Cl0_5 Cs1_4 3.737913 1_556
Cl0_5 Cs1_1 3.737913 1_655
Cl0_5 Cs0_4 3.737913 1_556
Cl0_5 Cs1_5 3.737913 1_555
Cl0_5 Cs0_7 3.737913 1_555
Cl0_5 Cs0_6 3.737913 1_556
Cl0_6 Cs1_6 3.737913 1_555
Cl0_6 Cs0_5 3.737913 1_565
Cl0_6 Cs1_7 3.737913 1_555
Cl0_6 Cs0_6 3.737913 1_555
Cl0_6 Cs1_3 3.737913 1_655
Cl0_6 Cs0_4 3.737913 1_565
Cl0_6 Cs0_7 3.737913 1_555
Cl0_6 Cs1_2 3.737913 1_655
Cl0_6 Cl0_7 4.320468 1_555
Cl0_6 Cl0_7 4.320468 1_554
Cl0_7 Cs0_4 3.737913 1_566
Cl0_7 Cs1_2 3.737913 1_656
Cl0_7 Cs0_5 3.737913 1_565
Cl0_7 Cs1_7 3.737913 1_555
Cl0_7 Cs1_6 3.737913 1_556
Cl0_7 Cs1_3 3.737913 1_655
Cl0_7 Cs0_7 3.737913 1_555
Cl0_7 Cs0_6 3.737913 1_556
