# generated using pymatgen
data_KGd(MoO4)2
_symmetry_space_group_name_H-M   'P 1'
_cell_length_a   5.37129989
_cell_length_b   7.04441809
_cell_length_c   10.84508371
_cell_angle_alpha   75.60960082
_cell_angle_beta   76.84248663
_cell_angle_gamma   67.58125603
_symmetry_Int_Tables_number   1
_chemical_formula_structural   KGd(MoO4)2
_chemical_formula_sum   'K2 Gd2 Mo4 O16'
_cell_volume   363.37061701
_cell_formula_units_Z   2
loop_
 _symmetry_equiv_pos_site_id
 _symmetry_equiv_pos_as_xyz
  1  'x, y, z'
loop_
 _atom_site_type_symbol
 _atom_site_label
 _atom_site_symmetry_multiplicity
 _atom_site_fract_x
 _atom_site_fract_y
 _atom_site_fract_z
 _atom_site_occupancy
  K  K0  1  0.11465300  0.69527900  0.55685800  1
  K  K1  1  0.88534700  0.30472100  0.44314200  1
  Gd  Gd0  1  0.87852200  0.81495800  0.93818200  1
  Gd  Gd1  1  0.12147800  0.18504200  0.06181800  1
  Mo  Mo0  1  0.61475700  0.42862400  0.83030800  1
  Mo  Mo1  1  0.38524300  0.57137600  0.16969200  1
  Mo  Mo2  1  0.36397500  0.06076900  0.71725700  1
  Mo  Mo3  1  0.63602500  0.93923100  0.28274300  1
  O  O0  1  0.82234500  0.41350300  0.68097200  1
  O  O1  1  0.17765500  0.58649700  0.31902800  1
  O  O2  1  0.53920900  0.18732800  0.91549300  1
  O  O3  1  0.46079100  0.81267200  0.08450700  1
  O  O4  1  0.80376000  0.48358400  0.93175400  1
  O  O5  1  0.19624000  0.51641600  0.06824600  1
  O  O6  1  0.30140400  0.64171200  0.80828200  1
  O  O7  1  0.69859600  0.35828800  0.19171800  1
  O  O8  1  0.69917600  0.87524100  0.75050000  1
  O  O9  1  0.30082400  0.12475900  0.24950000  1
  O  O10  1  0.11537300  0.05874900  0.87158500  1
  O  O11  1  0.88462700  0.94125100  0.12841500  1
  O  O12  1  0.40424100  0.30474100  0.65393200  1
  O  O13  1  0.59575900  0.69525900  0.34606800  1
  O  O14  1  0.25295800  0.99952200  0.59697600  1
  O  O15  1  0.74704200  0.00047800  0.40302400  1
loop_
_geom_bond_atom_site_label_1
_geom_bond_atom_site_label_2
_geom_bond_distance
_geom_bond_site_symmetry_2
K0 O12 2.671765 1_555
K0 O14 2.675738 1_555
K0 O1 2.782398 1_555
K0 O15 2.789867 1_465
K0 O8 2.833631 1_455
K0 O0 2.881648 1_455
K0 O6 3.004767 1_555
K0 O13 3.035509 1_555
K1 O13 2.671765 1_555
K1 O15 2.675738 1_555
K1 O0 2.782398 1_555
K1 O14 2.789867 1_645
K1 O9 2.833631 1_655
K1 O1 2.881648 1_655
K1 O7 3.004767 1_555
K1 O12 3.035509 1_555
Gd0 O8 2.324281 1_555
Gd0 O10 2.391883 1_665
Gd0 O6 2.432455 1_655
Gd0 O3 2.438613 1_556
Gd0 O11 2.452406 1_556
Gd0 O5 2.491738 1_656
Gd0 O4 2.534536 1_555
Gd0 O2 2.549483 1_565
Gd1 O9 2.324281 1_555
Gd1 O11 2.391883 1_445
Gd1 O7 2.432455 1_455
Gd1 O2 2.438613 1_554
Gd1 O10 2.452406 1_554
Gd1 O4 2.491738 1_454
Gd1 O5 2.534536 1_555
Gd1 O3 2.549483 1_545
Mo0 O0 1.746604 1_555
Mo0 O6 1.794691 1_555
Mo0 O4 1.846867 1_555
Mo0 O2 1.866100 1_555
Mo1 O1 1.746604 1_555
Mo1 O7 1.794691 1_555
Mo1 O5 1.846867 1_555
Mo1 O3 1.866100 1_555
Mo2 O14 1.753124 1_545
Mo2 O12 1.761071 1_555
Mo2 O8 1.829271 1_545
Mo2 O10 1.889374 1_555
Mo3 O15 1.753124 1_565
Mo3 O13 1.761071 1_555
Mo3 O9 1.829271 1_565
Mo3 O11 1.889374 1_555
