# generated using pymatgen
data_Ta24Al19
_symmetry_space_group_name_H-M   'P 1'
_cell_length_a   9.82709435
_cell_length_b   9.83234706
_cell_length_c   14.76504077
_cell_angle_alpha   90.00030582
_cell_angle_beta   100.22368334
_cell_angle_gamma   89.99967127
_symmetry_Int_Tables_number   1
_chemical_formula_structural   Ta24Al19
_chemical_formula_sum   'Ta48 Al38'
_cell_volume   1403.99661306
_cell_formula_units_Z   2
loop_
 _symmetry_equiv_pos_site_id
 _symmetry_equiv_pos_as_xyz
  1  'x, y, z'
loop_
 _atom_site_type_symbol
 _atom_site_label
 _atom_site_symmetry_multiplicity
 _atom_site_fract_x
 _atom_site_fract_y
 _atom_site_fract_z
 _atom_site_occupancy
  Ta  Ta0  1  0.08031783  0.90151083  0.18421028  1
  Ta  Ta1  1  0.91970365  0.09851514  0.81579303  1
  Ta  Ta2  1  0.41960681  0.40150582  0.31586072  1
  Ta  Ta3  1  0.58031913  0.59851041  0.68416708  1
  Ta  Ta4  1  0.47134032  0.86005721  0.01347085  1
  Ta  Ta5  1  0.52864084  0.13993133  0.98643093  1
  Ta  Ta6  1  0.02864296  0.35999820  0.48653942  1
  Ta  Ta7  1  0.97136862  0.64001296  0.51349023  1
  Ta  Ta8  1  0.77493747  0.94468694  0.09112388  1
  Ta  Ta9  1  0.22502550  0.05531212  0.90886398  1
  Ta  Ta10  1  0.72507695  0.44462372  0.40887805  1
  Ta  Ta11  1  0.27493324  0.55533538  0.59112944  1
  Ta  Ta12  1  0.23201036  0.57999119  0.41238664  1
  Ta  Ta13  1  0.76797854  0.42000274  0.58762332  1
  Ta  Ta14  1  0.26797350  0.07996414  0.08762904  1
  Ta  Ta15  1  0.73206266  0.92006569  0.91236226  1
  Ta  Ta16  1  0.92727255  0.42882659  0.14125385  1
  Ta  Ta17  1  0.07269983  0.57116595  0.85873950  1
  Ta  Ta18  1  0.57274348  0.92887830  0.35876429  1
  Ta  Ta19  1  0.42725825  0.07113164  0.64123437  1
  Ta  Ta20  1  0.68036970  0.65768076  0.02906805  1
  Ta  Ta21  1  0.31963737  0.34233752  0.97093362  1
  Ta  Ta22  1  0.81964703  0.15762991  0.47089045  1
  Ta  Ta23  1  0.18032162  0.84237460  0.52906760  1
  Ta  Ta24  1  0.41852587  0.56585383  0.14073230  1
  Ta  Ta25  1  0.58147173  0.43405624  0.85929890  1
  Ta  Ta26  1  0.08150995  0.06588877  0.35927854  1
  Ta  Ta27  1  0.91852108  0.93407063  0.64071733  1
  Ta  Ta28  1  0.94191364  0.72698111  0.02028166  1
  Ta  Ta29  1  0.05808391  0.27302729  0.97972640  1
  Ta  Ta30  1  0.55807920  0.22691748  0.47967748  1
  Ta  Ta31  1  0.44190227  0.77304804  0.52026389  1
  Ta  Ta32  1  0.20085669  0.79695815  0.02237080  1
  Ta  Ta33  1  0.79913655  0.20305688  0.97766005  1
  Ta  Ta34  1  0.29913082  0.29688233  0.47762113  1
  Ta  Ta35  1  0.70087039  0.70308723  0.52238047  1
  Ta  Ta36  1  0.01172478  0.15724244  0.16542073  1
  Ta  Ta37  1  0.98825053  0.84278134  0.83458029  1
  Ta  Ta38  1  0.48825215  0.65724087  0.33460904  1
  Ta  Ta39  1  0.51174418  0.34275807  0.66539331  1
  Ta  Ta40  1  0.81500056  0.98623468  0.27780947  1
  Ta  Ta41  1  0.18498820  0.01381387  0.72219490  1
  Ta  Ta42  1  0.68505663  0.48621119  0.22221285  1
  Ta  Ta43  1  0.31497785  0.51381396  0.77777408  1
  Ta  Ta44  1  0.16672796  0.62280080  0.21930398  1
  Ta  Ta45  1  0.83327020  0.37721632  0.78069928  1
  Ta  Ta46  1  0.33322616  0.12280912  0.28073620  1
  Ta  Ta47  1  0.66676775  0.87724176  0.71928403  1
  Al  Al0  1  0.14175414  0.53164008  0.04053989  1
  Al  Al1  1  0.85823685  0.46836207  0.95946296  1
  Al  Al2  1  0.35822279  0.03160372  0.45947733  1
  Al  Al3  1  0.64177625  0.96836281  0.54051987  1
  Al  Al4  1  0.95678106  0.52676210  0.32985970  1
  Al  Al5  1  0.04321756  0.47324076  0.67014382  1
  Al  Al6  1  0.54321228  0.02670883  0.17015000  1
  Al  Al7  1  0.45679340  0.97327158  0.82985908  1
  Al  Al8  1  0.61628842  0.76855256  0.18976876  1
  Al  Al9  1  0.38370177  0.23142171  0.81022087  1
  Al  Al10  1  0.88376229  0.26857572  0.31025781  1
  Al  Al11  1  0.11630651  0.73146079  0.68977465  1
  Al  Al12  1  0.87686803  0.70291772  0.18791416  1
  Al  Al13  1  0.12312729  0.29711734  0.81210110  1
  Al  Al14  1  0.62315111  0.20290023  0.31202515  1
  Al  Al15  1  0.37688361  0.79713913  0.68788816  1
  Al  Al16  1  0.00000795  0.00000989  0.00001766  1
  Al  Al17  1  0.49999780  0.49998375  0.49999393  1
  Al  Al18  1  0.76245281  0.70946094  0.35113476  1
  Al  Al19  1  0.23752668  0.29049912  0.64886092  1
  Al  Al20  1  0.73747628  0.20942347  0.14890106  1
  Al  Al21  1  0.26246067  0.79054073  0.85113903  1
  Al  Al22  1  0.28205367  0.84430146  0.34838771  1
  Al  Al23  1  0.71791836  0.15568220  0.65158104  1
  Al  Al24  1  0.21799919  0.34429860  0.15160434  1
  Al  Al25  1  0.78202557  0.65570947  0.84840820  1
  Al  Al26  1  0.03176210  0.78553971  0.35016776  1
  Al  Al27  1  0.96821273  0.21444848  0.64981426  1
  Al  Al28  1  0.46834636  0.28554382  0.14987158  1
  Al  Al29  1  0.53179599  0.71447223  0.85017277  1
  Al  Al30  1  0.88630568  0.89944148  0.45870620  1
  Al  Al31  1  0.11365598  0.10053955  0.54127774  1
  Al  Al32  1  0.61369169  0.39947178  0.04133238  1
  Al  Al33  1  0.38634603  0.60053336  0.95870673  1
  Al  Al34  1  0.14184262  0.33889493  0.31048244  1
  Al  Al35  1  0.85812335  0.66112505  0.68951903  1
  Al  Al36  1  0.35811385  0.83884716  0.18949917  1
  Al  Al37  1  0.64192600  0.16115514  0.81051699  1
loop_
_geom_bond_atom_site_label_1
_geom_bond_atom_site_label_2
_geom_bond_distance
_geom_bond_site_symmetry_2
Ta0 Ta36 2.605256 1_565
Ta0 Ta44 2.888426 1_555
Ta0 Ta32 3.028980 1_555
Ta0 Ta26 3.046829 1_565
Ta0 Ta14 3.073523 1_565
Ta0 Ta28 3.079683 1_455
Ta0 Ta8 3.100175 1_455
Ta0 Ta40 3.268168 1_455
Ta0 Ta46 3.418376 1_565
Ta1 Ta37 2.605166 1_545
Ta1 Ta45 2.888404 1_555
Ta1 Ta33 3.029440 1_555
Ta1 Ta27 3.047284 1_545
Ta1 Ta15 3.073302 1_545
Ta1 Ta29 3.079566 1_655
Ta1 Ta9 3.099638 1_655
Ta1 Ta41 3.267822 1_655
Ta1 Ta47 3.418325 1_545
Ta2 Ta38 2.605380 1_555
Ta2 Ta46 2.888288 1_555
Ta2 Ta34 3.027899 1_555
Ta2 Ta24 3.047602 1_555
Ta2 Ta30 3.079045 1_555
Ta2 Ta42 3.269676 1_555
Ta2 Ta44 3.418288 1_555
Ta3 Ta39 2.605401 1_555
Ta3 Ta47 2.888772 1_555
Ta3 Ta35 3.028468 1_555
Ta3 Ta31 3.079504 1_555
Ta3 Ta43 3.268382 1_555
Ta3 Ta45 3.418642 1_555
Ta4 Ta5 2.851109 1_564
Ta4 Ta8 3.113494 1_555
Ta4 Ta9 3.256253 1_564
Ta5 Ta9 3.113375 1_555
Ta5 Ta8 3.256509 1_546
Ta6 Ta7 2.852146 1_455
Ta10 Ta13 2.608956 1_555
Ta10 Ta42 2.744685 1_555
Ta10 Ta30 2.996173 1_555
Ta10 Ta22 3.059846 1_555
Ta10 Ta35 3.076492 1_555
Ta10 Ta2 3.100607 1_555
Ta10 Ta6 3.113229 1_655
Ta10 Ta38 3.175396 1_555
Ta10 Ta7 3.256915 1_555
Ta11 Ta12 2.608948 1_555
Ta11 Ta43 2.744283 1_555
Ta11 Ta31 2.996481 1_555
Ta11 Ta23 3.060539 1_555
Ta11 Ta34 3.076440 1_555
Ta11 Ta3 3.100029 1_555
Ta11 Ta7 3.113288 1_455
Ta11 Ta39 3.175031 1_555
Ta11 Ta6 3.256492 1_555
Ta12 Ta44 2.840244 1_555
Ta12 Ta34 2.980915 1_555
Ta12 Ta31 3.037830 1_555
Ta12 Ta38 3.043544 1_555
Ta12 Ta2 3.072819 1_555
Ta12 Ta23 3.192527 1_555
Ta12 Ta7 3.239526 1_455
Ta12 Ta6 3.263184 1_555
Ta13 Ta45 2.840120 1_555
Ta13 Ta35 2.980706 1_555
Ta13 Ta30 3.038457 1_555
Ta13 Ta39 3.043407 1_555
Ta13 Ta3 3.073517 1_555
Ta13 Ta22 3.192828 1_555
Ta13 Ta6 3.239515 1_655
Ta13 Ta7 3.263317 1_555
Ta14 Ta9 2.609261 1_554
Ta14 Ta46 2.840627 1_555
Ta14 Ta32 2.980061 1_545
Ta14 Ta29 3.038003 1_554
Ta14 Ta36 3.043774 1_555
Ta14 Ta21 3.192526 1_554
Ta14 Ta5 3.240495 1_554
Ta14 Ta4 3.262632 1_545
Ta15 Ta8 2.609196 1_556
Ta15 Ta47 2.840205 1_555
Ta15 Ta33 2.980022 1_565
Ta15 Ta28 3.038012 1_556
Ta15 Ta37 3.043179 1_555
Ta15 Ta20 3.192778 1_556
Ta15 Ta4 3.240246 1_556
Ta15 Ta5 3.262139 1_565
Ta16 Ta36 2.800269 1_655
Ta16 Ta42 2.902237 1_555
Ta16 Ta44 3.088730 1_655
Ta16 Ta29 3.282595 1_654
Ta17 Ta37 2.800546 1_455
Ta17 Ta43 2.902773 1_555
Ta17 Ta45 3.088370 1_455
Ta17 Ta28 3.282712 1_456
Ta18 Ta38 2.800866 1_555
Ta18 Ta40 2.902518 1_555
Ta18 Ta46 3.088804 1_565
Ta18 Ta31 3.282581 1_555
Ta19 Ta39 2.800753 1_555
Ta19 Ta41 2.902605 1_555
Ta19 Ta47 3.088577 1_545
Ta19 Ta30 3.282947 1_555
Ta20 Ta28 2.684309 1_555
Ta20 Ta4 2.839727 1_555
Ta20 Ta8 3.060111 1_555
Ta20 Ta42 3.306158 1_555
Ta21 Ta29 2.684445 1_555
Ta21 Ta5 2.839821 1_555
Ta21 Ta9 3.060444 1_555
Ta21 Ta43 3.306417 1_555
Ta22 Ta30 2.684499 1_555
Ta22 Ta6 2.839416 1_655
Ta22 Ta40 3.305014 1_545
Ta23 Ta31 2.684771 1_555
Ta23 Ta7 2.839121 1_455
Ta23 Ta41 3.305796 1_565
Ta24 Ta42 2.793259 1_555
Ta24 Ta38 2.962272 1_555
Ta24 Ta44 2.966689 1_555
Ta25 Ta43 2.793438 1_555
Ta25 Ta39 2.962402 1_555
Ta25 Ta45 2.966718 1_555
Ta25 Ta3 3.048094 1_555
Ta26 Ta40 2.793070 1_445
Ta26 Ta36 2.961956 1_555
Ta26 Ta46 2.965688 1_555
Ta27 Ta41 2.792992 1_665
Ta27 Ta37 2.961801 1_555
Ta27 Ta47 2.966042 1_555
Ta28 Ta32 2.630929 1_655
Ta28 Ta8 2.996301 1_555
Ta28 Ta37 3.076513 1_554
Ta29 Ta33 2.631007 1_455
Ta29 Ta9 2.996293 1_555
Ta29 Ta36 3.076429 1_556
Ta30 Ta34 2.631018 1_555
Ta30 Ta39 3.076838 1_555
Ta31 Ta35 2.631053 1_555
Ta31 Ta38 3.075935 1_555
Ta32 Ta4 2.755271 1_555
Ta32 Ta9 3.075591 1_564
Ta32 Ta37 3.193711 1_454
Ta33 Ta5 2.755029 1_555
Ta33 Ta8 3.075418 1_546
Ta33 Ta36 3.193279 1_656
Ta34 Ta6 2.755401 1_555
Ta34 Ta39 3.193615 1_555
Ta35 Ta7 2.755317 1_555
Ta35 Ta38 3.193590 1_555
Ta36 Ta8 3.174848 1_445
Ta36 Ta40 3.233737 1_445
Ta36 Ta46 3.329561 1_555
Ta37 Ta9 3.174565 1_665
Ta37 Ta41 3.233925 1_665
Ta37 Ta47 3.329334 1_555
Ta38 Ta42 3.234440 1_555
Ta38 Ta44 3.329709 1_555
Ta39 Ta43 3.234175 1_555
Ta39 Ta45 3.329747 1_555
Ta40 Ta8 2.744903 1_555
Ta41 Ta9 2.744601 1_555
Al0 Al24 2.491468 1_555
Al0 Ta17 2.677748 1_554
Al0 Ta32 2.696285 1_555
Al0 Ta28 2.725172 1_455
Al0 Ta44 2.756882 1_555
Al0 Ta29 2.772349 1_554
Al0 Ta21 2.866026 1_554
Al0 Ta24 2.875929 1_555
Al0 Al1 2.898073 1_454
Al0 Al33 2.954178 1_554
Al0 Ta16 2.964525 1_455
Al1 Al25 2.491364 1_555
Al1 Ta16 2.677613 1_556
Al1 Ta33 2.696214 1_555
Al1 Ta29 2.725172 1_655
Al1 Ta45 2.756834 1_555
Al1 Ta28 2.772442 1_556
Al1 Ta20 2.866014 1_556
Al1 Ta25 2.875834 1_555
Al1 Al32 2.954061 1_556
Al1 Ta17 2.964435 1_655
Al2 Al22 2.491264 1_545
Al2 Ta19 2.677121 1_555
Al2 Ta34 2.695824 1_555
Al2 Ta30 2.725122 1_555
Al2 Ta46 2.756696 1_555
Al2 Ta31 2.771748 1_545
Al2 Ta23 2.865585 1_545
Al2 Ta26 2.875547 1_555
Al2 Al3 2.898183 1_545
Al2 Al31 2.953779 1_555
Al2 Ta18 2.964515 1_545
Al3 Ta18 2.677036 1_555
Al3 Ta35 2.695792 1_555
Al3 Ta31 2.725235 1_555
Al3 Ta47 2.756751 1_555
Al3 Ta30 2.772004 1_565
Al3 Ta22 2.865897 1_565
Al3 Ta27 2.875817 1_555
Al3 Al30 2.953529 1_555
Al3 Ta19 2.964653 1_565
Al4 Ta12 2.811441 1_655
Al4 Ta6 2.821186 1_655
Al4 Ta10 2.853270 1_555
Al4 Ta42 2.882516 1_555
Al4 Ta7 2.910961 1_555
Al4 Ta16 2.911977 1_555
Al4 Ta44 3.001416 1_655
Al5 Ta13 2.811517 1_455
Al5 Ta7 2.820921 1_455
Al5 Ta11 2.853215 1_555
Al5 Ta43 2.882744 1_555
Al5 Ta6 2.910588 1_555
Al5 Ta17 2.911820 1_555
Al5 Ta45 3.001373 1_455
Al6 Al8 2.639817 1_545
Al6 Ta14 2.811545 1_555
Al6 Ta4 2.820539 1_545
Al6 Ta8 2.853178 1_545
Al6 Ta40 2.883002 1_545
Al6 Ta18 2.911746 1_545
Al6 Ta5 2.912089 1_554
Al6 Ta46 3.002195 1_555
Al7 Al9 2.639815 1_565
Al7 Ta15 2.811650 1_555
Al7 Ta5 2.819331 1_565
Al7 Ta9 2.853423 1_565
Al7 Ta41 2.883259 1_565
Al7 Ta4 2.910625 1_556
Al7 Ta19 2.911983 1_565
Al7 Ta47 3.001777 1_555
Al8 Ta20 2.783035 1_555
Al8 Ta24 2.788142 1_555
Al8 Ta42 2.877127 1_555
Al8 Ta4 2.880639 1_555
Al8 Ta38 2.882652 1_555
Al8 Ta8 2.890911 1_555
Al8 Ta40 3.030346 1_555
Al8 Ta18 3.045197 1_555
Al9 Ta21 2.783300 1_555
Al9 Ta25 2.787822 1_555
Al9 Ta43 2.877525 1_555
Al9 Ta5 2.879507 1_555
Al9 Ta39 2.882625 1_555
Al9 Ta9 2.890918 1_555
Al9 Ta41 3.029770 1_555
Al9 Ta19 3.044935 1_555
Al10 Al20 2.620131 1_555
Al10 Al34 2.628173 1_655
Al10 Al4 2.639949 1_555
Al10 Al14 2.645825 1_555
Al10 Ta22 2.782561 1_555
Al10 Ta26 2.787922 1_655
Al10 Ta40 2.877121 1_545
Al10 Ta6 2.879965 1_655
Al10 Ta36 2.882268 1_655
Al10 Ta10 2.890388 1_555
Al10 Ta42 3.030000 1_555
Al10 Ta16 3.044840 1_555
Al11 Al21 2.619563 1_555
Al11 Al35 2.629112 1_455
Al11 Al5 2.640467 1_555
Al11 Al15 2.645827 1_555
Al11 Ta23 2.783047 1_555
Al11 Ta27 2.787696 1_455
Al11 Ta41 2.877022 1_565
Al11 Ta7 2.880265 1_455
Al11 Ta37 2.882362 1_455
Al11 Ta11 2.890703 1_555
Al11 Ta43 3.029675 1_555
Al11 Ta17 3.044847 1_555
Al12 Al8 2.645654 1_555
Al12 Ta28 2.674382 1_555
Al12 Al26 2.724281 1_655
Al12 Al4 2.724866 1_555
Al12 Ta20 2.796371 1_555
Al12 Ta0 2.802128 1_655
Al12 Al18 2.835161 1_555
Al12 Ta16 2.846735 1_555
Al12 Ta8 2.861548 1_555
Al12 Ta44 2.912132 1_655
Al12 Ta42 2.947616 1_555
Al12 Ta40 3.190258 1_555
Al13 Al9 2.645820 1_555
Al13 Ta29 2.674294 1_555
Al13 Al5 2.724784 1_555
Al13 Al27 2.724882 1_455
Al13 Ta21 2.796263 1_555
Al13 Ta1 2.801980 1_455
Al13 Al19 2.835358 1_555
Al13 Ta17 2.846300 1_555
Al13 Ta9 2.861582 1_555
Al13 Ta45 2.912055 1_455
Al13 Ta43 2.947922 1_555
Al13 Ta41 3.190198 1_555
Al14 Ta30 2.674727 1_555
Al14 Al28 2.722841 1_555
Al14 Al6 2.724373 1_555
Al14 Ta22 2.796613 1_555
Al14 Ta2 2.803148 1_555
Al14 Al20 2.833361 1_555
Al14 Ta18 2.846428 1_545
Al14 Ta10 2.861564 1_555
Al14 Ta46 2.912700 1_555
Al14 Ta40 2.947206 1_545
Al14 Ta42 3.189773 1_555
Al15 Ta31 2.674179 1_555
Al15 Al29 2.724845 1_555
Al15 Al7 2.724977 1_555
Al15 Ta23 2.796437 1_555
Al15 Ta3 2.802292 1_555
Al15 Al21 2.835627 1_555
Al15 Ta19 2.845739 1_565
Al15 Ta11 2.861674 1_555
Al15 Ta47 2.912326 1_555
Al15 Ta41 2.947957 1_565
Al15 Ta43 3.190384 1_555
Al16 Ta29 2.771681 1_554
Al16 Ta28 2.771772 1_445
Al16 Ta32 2.785549 1_545
Al16 Ta33 2.785668 1_454
Al16 Ta15 2.831345 1_444
Al16 Ta14 2.831352 1_555
Al16 Ta9 2.837830 1_554
Al16 Ta8 2.837889 1_445
Al16 Ta0 2.862725 1_545
Al16 Ta1 2.863165 1_454
Al16 Ta36 2.875355 1_555
Al16 Ta37 2.875716 1_444
Al17 Ta31 2.772116 1_555
Al17 Ta30 2.772203 1_555
Al17 Ta34 2.786034 1_555
Al17 Ta35 2.786085 1_555
Al17 Ta13 2.831625 1_555
Al17 Ta12 2.831658 1_555
Al17 Ta10 2.838113 1_555
Al17 Ta11 2.838151 1_555
Al17 Ta2 2.861943 1_555
Al17 Ta3 2.862563 1_555
Al17 Ta38 2.875240 1_555
Al17 Ta39 2.875254 1_555
Al18 Al30 2.609036 1_555
Al18 Al8 2.619649 1_555
Al18 Al4 2.680554 1_555
Al18 Ta35 2.703037 1_555
Al18 Ta38 2.711204 1_555
Al18 Al26 2.752690 1_655
Al18 Ta10 2.784541 1_555
Al18 Ta18 2.866548 1_555
Al18 Ta42 2.916556 1_555
Al18 Ta7 2.946297 1_555
Al18 Ta40 3.007153 1_555
Al19 Al31 2.609043 1_555
Al19 Al9 2.619586 1_555
Al19 Al5 2.680726 1_555
Al19 Ta34 2.703037 1_555
Al19 Ta39 2.711430 1_555
Al19 Al27 2.752624 1_455
Al19 Ta11 2.784531 1_555
Al19 Ta19 2.866316 1_555
Al19 Ta43 2.917037 1_555
Al19 Ta6 2.945893 1_555
Al19 Ta41 3.006394 1_555
Al20 Al32 2.609254 1_555
Al20 Al6 2.680118 1_555
Al20 Ta33 2.703265 1_554
Al20 Ta36 2.711593 1_655
Al20 Al28 2.751106 1_555
Al20 Ta8 2.783924 1_545
Al20 Ta16 2.867062 1_555
Al20 Ta40 2.916175 1_545
Al20 Ta5 2.947130 1_554
Al20 Ta42 3.006887 1_555
Al21 Al33 2.609313 1_555
Al21 Al7 2.680831 1_555
Al21 Ta32 2.702928 1_556
Al21 Ta37 2.711286 1_455
Al21 Al29 2.752899 1_555
Al21 Ta9 2.783942 1_565
Al21 Ta17 2.866516 1_555
Al21 Ta41 2.917045 1_565
Al21 Ta4 2.946016 1_556
Al21 Ta43 3.006877 1_555
Al22 Al26 2.531263 1_555
Al22 Al36 2.586063 1_555
Al22 Ta38 2.770654 1_555
Al22 Ta31 2.825508 1_555
Al22 Ta12 2.837867 1_555
Al22 Ta0 2.901186 1_555
Al22 Ta18 2.952972 1_555
Al22 Ta26 2.961256 1_565
Al22 Ta44 2.982164 1_555
Al22 Ta46 2.987933 1_565
Al22 Ta23 3.010555 1_555
Al23 Al3 2.491086 1_545
Al23 Al27 2.531264 1_555
Al23 Al37 2.586438 1_555
Al23 Ta39 2.770677 1_555
Al23 Ta30 2.825750 1_555
Al23 Ta13 2.837776 1_555
Al23 Ta1 2.901730 1_555
Al23 Ta19 2.952673 1_555
Al23 Ta27 2.961754 1_545
Al23 Ta45 2.982764 1_555
Al23 Ta47 2.987556 1_545
Al23 Ta22 3.010689 1_555
Al24 Al28 2.531645 1_555
Al24 Al34 2.586332 1_555
Al24 Ta36 2.771311 1_555
Al24 Ta29 2.825830 1_554
Al24 Ta14 2.837786 1_555
Al24 Ta2 2.901340 1_555
Al24 Ta16 2.953221 1_455
Al24 Ta24 2.960881 1_555
Al24 Ta46 2.982237 1_555
Al24 Ta44 2.988349 1_555
Al24 Ta21 3.009977 1_554
Al25 Al29 2.530624 1_555
Al25 Al35 2.586231 1_555
Al25 Ta37 2.771086 1_555
Al25 Ta28 2.825672 1_556
Al25 Ta15 2.837842 1_555
Al25 Ta3 2.901683 1_555
Al25 Ta17 2.952805 1_655
Al25 Ta25 2.961818 1_555
Al25 Ta47 2.982560 1_555
Al25 Ta45 2.988258 1_555
Al25 Ta20 3.009911 1_556
Al26 Al30 2.584343 1_455
Al26 Al4 2.651106 1_455
Al26 Ta26 2.798570 1_565
Al26 Ta0 2.819094 1_555
Al26 Ta23 2.837607 1_555
Al26 Ta12 2.856429 1_555
Al26 Ta7 2.953450 1_455
Al26 Ta40 2.960563 1_455
Al26 Ta44 2.993755 1_555
Al27 Al31 2.584268 1_655
Al27 Al5 2.651325 1_655
Al27 Ta27 2.798754 1_545
Al27 Ta1 2.819079 1_555
Al27 Ta22 2.837894 1_555
Al27 Ta13 2.856299 1_555
Al27 Ta6 2.953085 1_655
Al27 Ta41 2.960334 1_655
Al27 Ta45 2.994006 1_555
Al28 Al32 2.583754 1_555
Al28 Al6 2.651323 1_555
Al28 Ta24 2.798314 1_555
Al28 Ta2 2.820051 1_555
Al28 Ta21 2.838516 1_554
Al28 Ta14 2.857498 1_555
Al28 Ta5 2.954993 1_554
Al28 Ta42 2.960002 1_555
Al28 Ta46 2.994607 1_555
Al29 Al33 2.584426 1_555
Al29 Al7 2.651366 1_555
Al29 Ta25 2.799101 1_555
Al29 Ta3 2.819581 1_555
Al29 Ta20 2.837518 1_556
Al29 Ta15 2.856778 1_555
Al29 Ta4 2.953616 1_556
Al29 Ta43 2.960835 1_555
Al29 Ta47 2.994234 1_555
Al30 Ta22 2.635860 1_565
Al30 Ta27 2.671378 1_555
Al30 Ta7 2.760357 1_555
Al30 Ta40 2.772880 1_555
Al30 Ta35 2.922356 1_555
Al30 Ta23 2.945632 1_655
Al30 Al31 3.069312 1_665
Al30 Ta26 3.084335 1_665
Al30 Ta18 3.184686 1_555
Al31 Ta23 2.635699 1_545
Al31 Ta26 2.671273 1_555
Al31 Ta6 2.760346 1_555
Al31 Ta41 2.772975 1_555
Al31 Ta34 2.922433 1_555
Al31 Ta22 2.945681 1_455
Al31 Ta27 3.084070 1_445
Al31 Ta19 3.185072 1_555
Al32 Ta20 2.636247 1_555
Al32 Ta25 2.671648 1_554
Al32 Ta5 2.761760 1_554
Al32 Ta42 2.772539 1_555
Al32 Ta33 2.922781 1_554
Al32 Ta21 2.946208 1_554
Al32 Al33 3.069257 1_554
Al32 Ta24 3.083468 1_555
Al32 Ta16 3.184689 1_555
Al33 Ta21 2.636139 1_555
Al33 Ta24 2.671675 1_556
Al33 Ta4 2.760985 1_556
Al33 Ta43 2.773189 1_555
Al33 Ta32 2.923090 1_556
Al33 Ta20 2.945857 1_556
Al33 Ta25 3.083754 1_555
Al33 Ta17 3.185466 1_555
Al34 Al4 2.643093 1_455
Al34 Ta34 2.701074 1_555
Al34 Ta2 2.785526 1_555
Al34 Ta12 2.862728 1_555
Al34 Ta26 2.868398 1_555
Al34 Ta36 2.905226 1_555
Al34 Ta46 2.921870 1_555
Al34 Ta6 3.010712 1_555
Al34 Ta16 3.098567 1_455
Al34 Ta44 3.127519 1_555
Al35 Al5 2.643431 1_655
Al35 Ta35 2.700855 1_555
Al35 Ta3 2.785974 1_555
Al35 Ta13 2.862833 1_555
Al35 Ta27 2.868025 1_555
Al35 Ta37 2.905273 1_555
Al35 Ta47 2.921980 1_555
Al35 Ta7 3.010566 1_555
Al35 Ta17 3.098596 1_655
Al35 Ta45 3.127507 1_555
Al36 Al8 2.628882 1_555
Al36 Al6 2.643233 1_565
Al36 Ta32 2.700638 1_555
Al36 Ta0 2.786131 1_555
Al36 Ta14 2.862607 1_565
Al36 Ta24 2.868338 1_555
Al36 Ta38 2.905483 1_555
Al36 Ta44 2.921852 1_555
Al36 Ta4 3.010532 1_555
Al36 Ta18 3.099530 1_555
Al36 Ta46 3.128384 1_565
Al37 Al9 2.629214 1_555
Al37 Al7 2.643597 1_545
Al37 Ta33 2.700646 1_555
Al37 Ta1 2.785931 1_555
Al37 Ta15 2.862202 1_545
Al37 Ta25 2.867658 1_555
Al37 Ta39 2.905730 1_555
Al37 Ta45 2.921733 1_555
Al37 Ta5 3.009275 1_555
Al37 Ta19 3.099887 1_555
Al37 Ta47 3.127861 1_545
