# generated using pymatgen
data_Fe3(PO8)2
_symmetry_space_group_name_H-M   'P 1'
_cell_length_a   7.89657473
_cell_length_b   7.89657473
_cell_length_c   4.76099043
_cell_angle_alpha   75.68117639
_cell_angle_beta   75.68117639
_cell_angle_gamma   92.85015197
_symmetry_Int_Tables_number   1
_chemical_formula_structural   Fe3(PO8)2
_chemical_formula_sum   'Fe3 P2 O16'
_cell_volume   276.76611523
_cell_formula_units_Z   1
loop_
 _symmetry_equiv_pos_site_id
 _symmetry_equiv_pos_as_xyz
  1  'x, y, z'
loop_
 _atom_site_type_symbol
 _atom_site_label
 _atom_site_symmetry_multiplicity
 _atom_site_fract_x
 _atom_site_fract_y
 _atom_site_fract_z
 _atom_site_occupancy
  Fe  Fe0  1  0.00000000  0.00000000  0.00000000  1
  Fe  Fe1  1  0.62936600  0.37063400  0.00000000  1
  Fe  Fe2  1  0.37063400  0.62936600  0.00000000  1
  P  P0  1  0.32741400  0.32741400  0.67517500  1
  P  P1  1  0.67258600  0.67258600  0.32482500  1
  O  O0  1  0.17865600  0.17865600  0.73899300  1
  O  O1  1  0.82134400  0.82134400  0.26100700  1
  O  O2  1  0.39407100  0.39407100  0.31537100  1
  O  O3  1  0.60592900  0.60592900  0.68462900  1
  O  O4  1  0.25625900  0.47902800  0.80493700  1
  O  O5  1  0.47902800  0.25625900  0.80493700  1
  O  O6  1  0.74374100  0.52097200  0.19506300  1
  O  O7  1  0.52097200  0.74374100  0.19506300  1
  O  O8  1  0.88732900  0.18190900  0.22874700  1
  O  O9  1  0.18190900  0.88732900  0.22874700  1
  O  O10  1  0.11267100  0.81809100  0.77125300  1
  O  O11  1  0.81809100  0.11267100  0.77125300  1
  O  O12  1  0.16244800  0.71707500  0.27596800  1
  O  O13  1  0.71707500  0.16244800  0.27596800  1
  O  O14  1  0.83755200  0.28292500  0.72403200  1
  O  O15  1  0.28292500  0.83755200  0.72403200  1
loop_
_geom_bond_atom_site_label_1
_geom_bond_atom_site_label_2
_geom_bond_distance
_geom_bond_site_symmetry_2
Fe0 O0 1.895394 1_554
Fe0 O1 1.895394 1_445
Fe0 O8 2.112506 1_455
Fe0 O9 2.112506 1_545
Fe0 O10 2.112506 1_544
Fe0 O11 2.112506 1_454
Fe1 O5 1.985225 1_554
Fe1 O6 1.985225 1_555
Fe1 O14 2.098458 1_554
Fe1 O13 2.098458 1_555
Fe1 O2 2.129006 1_555
Fe1 O3 2.129006 1_554
Fe2 O4 1.985225 1_554
Fe2 O7 1.985225 1_555
Fe2 O15 2.098458 1_554
Fe2 O12 2.098458 1_555
Fe2 O2 2.129006 1_555
Fe2 O3 2.129006 1_554
O0 P0 1.536799 1_555
O1 P1 1.536799 1_555
O2 P0 1.602815 1_555
O3 P1 1.602815 1_555
O4 P0 1.546543 1_555
O5 P0 1.546543 1_555
O6 P1 1.546543 1_555
O7 P1 1.546543 1_555
O10 O15 1.301727 1_555
O11 O14 1.301727 1_555
O12 O9 1.301727 1_555
O13 O8 1.301727 1_555
