# generated using pymatgen
data_CaFe(SiO3)2
_symmetry_space_group_name_H-M   'P 1'
_cell_length_a   5.47404700
_cell_length_b   9.84924100
_cell_length_c   19.04748300
_cell_angle_alpha   90.00000000
_cell_angle_beta   90.00000000
_cell_angle_gamma   90.00000000
_symmetry_Int_Tables_number   1
_chemical_formula_structural   CaFe(SiO3)2
_chemical_formula_sum   'Ca8 Fe8 Si16 O48'
_cell_volume   1026.94901065
_cell_formula_units_Z   8
loop_
 _symmetry_equiv_pos_site_id
 _symmetry_equiv_pos_as_xyz
  1  'x, y, z'
loop_
 _atom_site_type_symbol
 _atom_site_label
 _atom_site_symmetry_multiplicity
 _atom_site_fract_x
 _atom_site_fract_y
 _atom_site_fract_z
 _atom_site_occupancy
  Ca  Ca0  1  0.60932400  0.14470600  0.37809300  1
  Ca  Ca1  1  0.39067600  0.85529400  0.62190700  1
  Ca  Ca2  1  0.60932400  0.64470600  0.12190700  1
  Ca  Ca3  1  0.10932400  0.85529400  0.12190700  1
  Ca  Ca4  1  0.89067600  0.14470600  0.87809300  1
  Ca  Ca5  1  0.39067600  0.35529400  0.87809300  1
  Ca  Ca6  1  0.10932400  0.35529400  0.37809300  1
  Ca  Ca7  1  0.89067600  0.64470600  0.62190700  1
  Fe  Fe0  1  0.38643000  0.99474900  0.87312000  1
  Fe  Fe1  1  0.61357000  0.00525100  0.12688000  1
  Fe  Fe2  1  0.88643000  0.00525100  0.62688000  1
  Fe  Fe3  1  0.11357000  0.99474900  0.37312000  1
  Fe  Fe4  1  0.38643000  0.49474900  0.62688000  1
  Fe  Fe5  1  0.61357000  0.50525100  0.37312000  1
  Fe  Fe6  1  0.88643000  0.50525100  0.87312000  1
  Fe  Fe7  1  0.11357000  0.49474900  0.12688000  1
  Si  Si0  1  0.56328100  0.66701300  0.77432800  1
  Si  Si1  1  0.74714800  0.83037700  0.47421600  1
  Si  Si2  1  0.75285200  0.83037700  0.97421600  1
  Si  Si3  1  0.93671900  0.16701300  0.22567200  1
  Si  Si4  1  0.06328100  0.33298700  0.72567200  1
  Si  Si5  1  0.43671900  0.83298700  0.27432800  1
  Si  Si6  1  0.24714800  0.66962300  0.47421600  1
  Si  Si7  1  0.74714800  0.33037700  0.02578400  1
  Si  Si8  1  0.75285200  0.33037700  0.52578400  1
  Si  Si9  1  0.93671900  0.66701300  0.27432800  1
  Si  Si10  1  0.43671900  0.33298700  0.22567200  1
  Si  Si11  1  0.56328100  0.16701300  0.72567200  1
  Si  Si12  1  0.25285200  0.16962300  0.52578400  1
  Si  Si13  1  0.06328100  0.83298700  0.77432800  1
  Si  Si14  1  0.25285200  0.66962300  0.97421600  1
  Si  Si15  1  0.24714800  0.16962300  0.02578400  1
  O  O0  1  0.91494200  0.52229500  0.31525200  1
  O  O1  1  0.31604300  0.03414200  0.07005500  1
  O  O2  1  0.08505800  0.47770500  0.68474800  1
  O  O3  1  0.75094000  0.34543800  0.94009600  1
  O  O4  1  0.25094000  0.15456200  0.94009600  1
  O  O5  1  0.95989300  0.21423900  0.04643700  1
  O  O6  1  0.95250900  0.65717300  0.18875600  1
  O  O7  1  0.04749100  0.84282700  0.68875600  1
  O  O8  1  0.75094000  0.84543800  0.55990400  1
  O  O9  1  0.95250900  0.15717300  0.31124400  1
  O  O10  1  0.41494200  0.47770500  0.18474800  1
  O  O11  1  0.74906000  0.34543800  0.44009600  1
  O  O12  1  0.68395700  0.96585800  0.92994500  1
  O  O13  1  0.45250900  0.84282700  0.18875600  1
  O  O14  1  0.58505800  0.02229500  0.68474800  1
  O  O15  1  0.31604300  0.53414200  0.42994500  1
  O  O16  1  0.41494200  0.97770500  0.31525200  1
  O  O17  1  0.17999500  0.75446100  0.29978600  1
  O  O18  1  0.32000500  0.75446100  0.79978600  1
  O  O19  1  0.54010700  0.71423900  0.95356300  1
  O  O20  1  0.74906000  0.84543800  0.05990400  1
  O  O21  1  0.54749100  0.65717300  0.68875600  1
  O  O22  1  0.81604300  0.46585800  0.07005500  1
  O  O23  1  0.17999500  0.25446100  0.20021400  1
  O  O24  1  0.24906000  0.15456200  0.44009600  1
  O  O25  1  0.54749100  0.15717300  0.81124400  1
  O  O26  1  0.68395700  0.46585800  0.57005500  1
  O  O27  1  0.25094000  0.65456200  0.55990400  1
  O  O28  1  0.18395700  0.53414200  0.92994500  1
  O  O29  1  0.67999500  0.74553900  0.29978600  1
  O  O30  1  0.08505800  0.97770500  0.81525200  1
  O  O31  1  0.82000500  0.74553900  0.79978600  1
  O  O32  1  0.82000500  0.24553900  0.70021400  1
  O  O33  1  0.81604300  0.96585800  0.42994500  1
  O  O34  1  0.24906000  0.65456200  0.05990400  1
  O  O35  1  0.18395700  0.03414200  0.57005500  1
  O  O36  1  0.32000500  0.25446100  0.70021400  1
  O  O37  1  0.04010700  0.78576100  0.95356300  1
  O  O38  1  0.45989300  0.78576100  0.45356300  1
  O  O39  1  0.67999500  0.24553900  0.20021400  1
  O  O40  1  0.45989300  0.28576100  0.04643700  1
  O  O41  1  0.54010700  0.21423900  0.54643700  1
  O  O42  1  0.04010700  0.28576100  0.54643700  1
  O  O43  1  0.45250900  0.34282700  0.31124400  1
  O  O44  1  0.58505800  0.52229500  0.81525200  1
  O  O45  1  0.95989300  0.71423900  0.45356300  1
  O  O46  1  0.04749100  0.34282700  0.81124400  1
  O  O47  1  0.91494200  0.02229500  0.18474800  1
loop_
_geom_bond_atom_site_label_1
_geom_bond_atom_site_label_2
_geom_bond_distance
_geom_bond_site_symmetry_2
Ca0 O9 2.272787 1_555
Ca0 O16 2.295738 1_545
Ca0 O24 2.300733 1_555
Ca0 O33 2.314928 1_545
Ca0 O11 2.426649 1_555
Ca0 O43 2.483125 1_555
Ca1 O7 2.272787 1_555
Ca1 O14 2.295738 1_565
Ca1 O8 2.300733 1_555
Ca1 O35 2.314928 1_565
Ca1 O27 2.426649 1_555
Ca1 O21 2.483125 1_555
Ca2 O6 2.272787 1_555
Ca2 O10 2.295738 1_555
Ca2 O34 2.300733 1_555
Ca2 O22 2.314928 1_555
Ca2 O20 2.426649 1_555
Ca2 O13 2.483125 1_555
Ca3 O13 2.272787 1_555
Ca3 O47 2.295738 1_465
Ca3 O20 2.300733 1_455
Ca3 O1 2.314928 1_565
Ca3 O34 2.426649 1_555
Ca3 O6 2.483125 1_455
Ca4 O25 2.272787 1_555
Ca4 O30 2.295738 1_645
Ca4 O4 2.300733 1_655
Ca4 O12 2.314928 1_545
Ca4 O3 2.426649 1_555
Ca4 O46 2.483125 1_655
Ca5 O46 2.272787 1_555
Ca5 O44 2.295738 1_555
Ca5 O3 2.300733 1_555
Ca5 O28 2.314928 1_555
Ca5 O4 2.426649 1_555
Ca5 O25 2.483125 1_555
Ca6 O43 2.272787 1_555
Ca6 O0 2.295738 1_455
Ca6 O11 2.300733 1_455
Ca6 O15 2.314928 1_555
Ca6 O24 2.426649 1_555
Ca6 O9 2.483125 1_455
Ca7 O21 2.272787 1_555
Ca7 O2 2.295738 1_655
Ca7 O27 2.300733 1_655
Ca7 O26 2.314928 1_555
Ca7 O8 2.426649 1_555
Ca7 O7 2.483125 1_655
Fe0 O12 1.976130 1_555
Fe0 O30 1.991156 1_555
Fe0 O4 2.157580 1_565
Fe0 O25 2.173840 1_565
Fe1 O1 1.976130 1_555
Fe1 O47 1.991156 1_555
Fe1 O20 2.157580 1_545
Fe1 O13 2.173840 1_545
Fe2 O35 1.976130 1_655
Fe2 O14 1.991156 1_555
Fe2 O8 2.157580 1_545
Fe2 O7 2.173840 1_645
Fe3 O33 1.976130 1_455
Fe3 O16 1.991156 1_555
Fe3 O24 2.157580 1_565
Fe3 O9 2.173840 1_465
Fe4 O26 1.976130 1_555
Fe4 O2 1.991156 1_555
Fe4 O27 2.157580 1_555
Fe4 O21 2.173840 1_555
Fe5 O15 1.976130 1_555
Fe5 O0 1.991156 1_555
Fe5 O11 2.157580 1_555
Fe5 O43 2.173840 1_555
Fe6 O28 1.976130 1_655
Fe6 O44 1.991156 1_555
Fe6 O3 2.157580 1_555
Fe6 O46 2.173840 1_655
Fe7 O22 1.976130 1_455
Fe7 O10 1.991156 1_555
Fe7 O34 2.157580 1_555
Fe7 O6 2.173840 1_455
O0 Si9 1.628953 1_555
O1 Si15 1.622925 1_555
O2 Si4 1.628953 1_555
O3 Si7 1.638999 1_556
O4 Si15 1.638999 1_556
O5 Si7 1.679117 1_555
O5 Si15 1.679419 1_655
O6 Si9 1.635096 1_555
O7 Si13 1.635096 1_555
O8 Si1 1.638999 1_555
O9 Si3 1.635096 1_555
O10 Si10 1.628953 1_555
O11 Si8 1.638999 1_555
O12 Si2 1.622925 1_555
O13 Si5 1.635096 1_555
O14 Si11 1.628953 1_555
O15 Si6 1.622925 1_555
O16 Si5 1.628953 1_555
O17 Si9 1.658435 1_455
O17 Si5 1.675781 1_555
O18 Si0 1.658435 1_555
O18 Si13 1.675781 1_555
O19 Si2 1.679117 1_555
O19 Si14 1.679419 1_555
O20 Si2 1.638999 1_554
O21 Si0 1.635096 1_555
O22 Si7 1.622925 1_555
O23 Si3 1.658435 1_455
O23 Si10 1.675781 1_555
O24 Si12 1.638999 1_555
O25 Si11 1.635096 1_555
O26 Si8 1.622925 1_555
O27 Si6 1.638999 1_555
O28 Si14 1.622925 1_555
O29 Si5 1.658435 1_555
O29 Si9 1.675781 1_555
O30 Si13 1.628953 1_555
O31 Si13 1.658435 1_655
O31 Si0 1.675781 1_555
O32 Si4 1.658435 1_655
O32 Si11 1.675781 1_555
O33 Si1 1.622925 1_555
O34 Si14 1.638999 1_554
O35 Si12 1.622925 1_555
O36 Si11 1.658435 1_555
O36 Si4 1.675781 1_555
O37 Si14 1.679117 1_555
O37 Si2 1.679419 1_455
O38 Si6 1.679117 1_555
O38 Si1 1.679419 1_555
O39 Si10 1.658435 1_555
O39 Si3 1.675781 1_555
O40 Si15 1.679117 1_555
O40 Si7 1.679419 1_555
O41 Si8 1.679117 1_555
O41 Si12 1.679419 1_555
O42 Si12 1.679117 1_555
O42 Si8 1.679419 1_455
O43 Si10 1.635096 1_555
O44 Si0 1.628953 1_555
O45 Si1 1.679117 1_555
O45 Si6 1.679419 1_655
O46 Si4 1.635096 1_555
O47 Si3 1.628953 1_555
