# generated using pymatgen
data_SrNi3(P2O7)2
_symmetry_space_group_name_H-M   'P 1'
_cell_length_a   7.76731500
_cell_length_b   7.50633600
_cell_length_c   9.54997449
_cell_angle_alpha   67.73857548
_cell_angle_beta   90.00000000
_cell_angle_gamma   90.00000000
_symmetry_Int_Tables_number   1
_chemical_formula_structural   SrNi3(P2O7)2
_chemical_formula_sum   'Sr2 Ni6 P8 O28'
_cell_volume   515.30116231
_cell_formula_units_Z   2
loop_
 _symmetry_equiv_pos_site_id
 _symmetry_equiv_pos_as_xyz
  1  'x, y, z'
loop_
 _atom_site_type_symbol
 _atom_site_label
 _atom_site_symmetry_multiplicity
 _atom_site_fract_x
 _atom_site_fract_y
 _atom_site_fract_z
 _atom_site_occupancy
  Sr  Sr0  1  0.50000000  0.50000000  0.50000000  1
  Sr  Sr1  1  0.00000000  0.50000000  0.00000000  1
  Ni  Ni0  1  0.50000000  0.00000000  0.50000000  1
  Ni  Ni1  1  0.00000000  0.00000000  0.00000000  1
  Ni  Ni2  1  0.12607000  0.81568200  0.52478000  1
  Ni  Ni3  1  0.62607000  0.18431800  0.97522000  1
  Ni  Ni4  1  0.87393000  0.18431800  0.47522000  1
  Ni  Ni5  1  0.37393000  0.81568200  0.02478000  1
  P  P0  1  0.94173700  0.39630700  0.70128400  1
  P  P1  1  0.44173700  0.60369300  0.79871600  1
  P  P2  1  0.05826300  0.60369300  0.29871600  1
  P  P3  1  0.55826300  0.39630700  0.20128400  1
  P  P4  1  0.20297500  0.11075300  0.69307100  1
  P  P5  1  0.70297500  0.88924700  0.80692900  1
  P  P6  1  0.79702500  0.88924700  0.30692900  1
  P  P7  1  0.29702500  0.11075300  0.19307100  1
  O  O0  1  0.37502400  0.15554700  0.61069300  1
  O  O1  1  0.87502400  0.84445300  0.88930700  1
  O  O2  1  0.62497600  0.84445300  0.38930700  1
  O  O3  1  0.12497600  0.15554700  0.11069300  1
  O  O4  1  0.38354500  0.73133400  0.63442200  1
  O  O5  1  0.88354500  0.26866600  0.86557800  1
  O  O6  1  0.61645500  0.26866600  0.36557800  1
  O  O7  1  0.11645500  0.73133400  0.13442200  1
  O  O8  1  0.81935600  0.37523100  0.58394400  1
  O  O9  1  0.31935600  0.62476900  0.91605600  1
  O  O10  1  0.18064400  0.62476900  0.41605600  1
  O  O11  1  0.68064400  0.37523100  0.08394400  1
  O  O12  1  0.12835800  0.31785400  0.67700700  1
  O  O13  1  0.62835800  0.68214600  0.82299300  1
  O  O14  1  0.87164200  0.68214600  0.32299300  1
  O  O15  1  0.37164200  0.31785400  0.17700700  1
  O  O16  1  0.51892000  0.59961000  0.19278100  1
  O  O17  1  0.01892000  0.40039000  0.30721900  1
  O  O18  1  0.48108000  0.40039000  0.80721900  1
  O  O19  1  0.98108000  0.59961000  0.69278100  1
  O  O20  1  0.79041900  0.99907100  0.13484600  1
  O  O21  1  0.29041900  0.00092900  0.36515400  1
  O  O22  1  0.20958100  0.00092900  0.86515400  1
  O  O23  1  0.70958100  0.99907100  0.63484600  1
  O  O24  1  0.42511800  0.02587100  0.11234900  1
  O  O25  1  0.92511800  0.97412900  0.38765100  1
  O  O26  1  0.57488200  0.97412900  0.88765100  1
  O  O27  1  0.07488200  0.02587100  0.61234900  1
loop_
_geom_bond_atom_site_label_1
_geom_bond_atom_site_label_2
_geom_bond_distance
_geom_bond_site_symmetry_2
Ni0 O23 2.074032 1_545
Ni0 O21 2.074032 1_555
Ni0 O0 2.087639 1_555
Ni0 O2 2.087639 1_545
Ni0 O6 2.138155 1_555
Ni0 O4 2.138155 1_545
Ni1 O20 2.074032 1_445
Ni1 O22 2.074032 1_554
Ni1 O3 2.087639 1_555
Ni1 O1 2.087639 1_444
Ni1 O5 2.138155 1_454
Ni1 O7 2.138155 1_545
Ni2 O21 2.069045 1_565
Ni2 O27 2.084811 1_565
Ni2 O25 2.094214 1_455
Ni2 O10 2.106847 1_555
Ni2 O19 2.121649 1_455
Ni2 O4 2.234839 1_555
Ni3 O20 2.069045 1_546
Ni3 O26 2.084811 1_545
Ni3 O24 2.094214 1_556
Ni3 O11 2.106847 1_556
Ni3 O18 2.121649 1_555
Ni3 O5 2.234839 1_555
Ni4 O23 2.069045 1_545
Ni4 O25 2.084811 1_545
Ni4 O27 2.094214 1_655
Ni4 O8 2.106847 1_555
Ni4 O17 2.121649 1_655
Ni4 O6 2.234839 1_555
Ni5 O22 2.069045 1_564
Ni5 O24 2.084811 1_565
Ni5 O26 2.094214 1_554
Ni5 O9 2.106847 1_554
Ni5 O16 2.121649 1_555
Ni5 O7 2.234839 1_555
O0 P4 1.522301 1_555
O0 Sr0 2.583434 1_555
O1 P5 1.522301 1_555
O1 Sr1 2.583434 1_656
O2 P6 1.522301 1_555
O2 Sr0 2.583434 1_555
O3 P7 1.522301 1_555
O3 Sr1 2.583434 1_555
O4 P1 1.563671 1_555
O4 Sr0 2.677767 1_555
O5 P0 1.563671 1_555
O5 Sr1 2.677767 1_656
O6 P3 1.563671 1_555
O6 Sr0 2.677767 1_555
O7 P2 1.563671 1_555
O7 Sr1 2.677767 1_555
O8 P0 1.522717 1_555
O8 Sr0 2.665336 1_555
O9 P1 1.522717 1_555
O9 Sr1 2.665336 1_556
O10 P2 1.522717 1_555
O10 Sr0 2.665336 1_555
O11 P3 1.522717 1_555
O11 Sr1 2.665336 1_655
O12 P4 1.611035 1_555
O12 P0 1.614055 1_455
O13 P5 1.611035 1_555
O13 P1 1.614055 1_555
O14 P6 1.611035 1_555
O14 P2 1.614055 1_655
O15 P7 1.611035 1_555
O15 P3 1.614055 1_555
O16 P3 1.528054 1_555
O16 Sr0 2.743450 1_555
O17 P2 1.528054 1_555
O17 Sr1 2.743450 1_555
O18 P1 1.528054 1_555
O18 Sr0 2.743450 1_555
O19 P0 1.528054 1_555
O19 Sr1 2.743450 1_656
O20 P6 1.535086 1_555
O21 P7 1.535086 1_555
O22 P4 1.535086 1_555
O23 P5 1.535086 1_555
O24 P7 1.536975 1_555
O25 P6 1.536975 1_555
O26 P5 1.536975 1_555
O27 P4 1.536975 1_555
