# generated using pymatgen
data_LiErTlO2
_symmetry_space_group_name_H-M   'P 1'
_cell_length_a   6.74475917
_cell_length_b   19.27190365
_cell_length_c   6.74475992
_cell_angle_alpha   100.53040205
_cell_angle_beta   59.97373033
_cell_angle_gamma   100.53040605
_symmetry_Int_Tables_number   1
_chemical_formula_structural   LiErTlO2
_chemical_formula_sum   'Li8 Er8 Tl8 O16'
_cell_volume   741.96522176
_cell_formula_units_Z   8
loop_
 _symmetry_equiv_pos_site_id
 _symmetry_equiv_pos_as_xyz
  1  'x, y, z'
loop_
 _atom_site_type_symbol
 _atom_site_label
 _atom_site_symmetry_multiplicity
 _atom_site_fract_x
 _atom_site_fract_y
 _atom_site_fract_z
 _atom_site_occupancy
  Li  Li0_0  1  0.04873200  0.15127800  0.04873200  1
  Li  Li0_1  1  0.04873200  0.15127800  0.54873200  1
  Li  Li0_2  1  0.04873200  0.65127800  0.04873200  1
  Li  Li0_3  1  0.04873200  0.65127800  0.54873200  1
  Li  Li0_4  1  0.54873200  0.15127800  0.04873200  1
  Li  Li0_5  1  0.54873200  0.15127800  0.54873200  1
  Li  Li0_6  1  0.54873200  0.65127800  0.04873200  1
  Li  Li0_7  1  0.54873200  0.65127800  0.54873200  1
  Er  Er0_0  1  0.25710650  0.27274800  0.25710650  1
  Er  Er0_1  1  0.25710650  0.27274800  0.75710650  1
  Er  Er0_2  1  0.25710650  0.77274800  0.25710650  1
  Er  Er0_3  1  0.25710650  0.77274800  0.75710650  1
  Er  Er0_4  1  0.75710650  0.27274800  0.25710650  1
  Er  Er0_5  1  0.75710650  0.27274800  0.75710650  1
  Er  Er0_6  1  0.75710650  0.77274800  0.25710650  1
  Er  Er0_7  1  0.75710650  0.77274800  0.75710650  1
  Tl  Tl0_0  1  0.49262000  0.47426550  0.49262000  1
  Tl  Tl0_1  1  0.49262000  0.47426550  0.99262000  1
  Tl  Tl0_2  1  0.49262000  0.97426550  0.49262000  1
  Tl  Tl0_3  1  0.49262000  0.97426550  0.99262000  1
  Tl  Tl0_4  1  0.99262000  0.47426550  0.49262000  1
  Tl  Tl0_5  1  0.99262000  0.47426550  0.99262000  1
  Tl  Tl0_6  1  0.99262000  0.97426550  0.49262000  1
  Tl  Tl0_7  1  0.99262000  0.97426550  0.99262000  1
  O  O0_0  1  0.10742950  0.32150550  0.10742950  1
  O  O0_1  1  0.10742950  0.32150550  0.60742950  1
  O  O0_2  1  0.10742950  0.82150550  0.10742950  1
  O  O0_3  1  0.10742950  0.82150550  0.60742950  1
  O  O0_4  1  0.60742950  0.32150550  0.10742950  1
  O  O0_5  1  0.60742950  0.32150550  0.60742950  1
  O  O0_6  1  0.60742950  0.82150550  0.10742950  1
  O  O0_7  1  0.60742950  0.82150550  0.60742950  1
  O  O1_0  1  0.39768350  0.19686950  0.39768350  1
  O  O1_1  1  0.39768350  0.19686950  0.89768350  1
  O  O1_2  1  0.39768350  0.69686950  0.39768350  1
  O  O1_3  1  0.39768350  0.69686950  0.89768350  1
  O  O1_4  1  0.89768350  0.19686950  0.39768350  1
  O  O1_5  1  0.89768350  0.19686950  0.89768350  1
  O  O1_6  1  0.89768350  0.69686950  0.39768350  1
  O  O1_7  1  0.89768350  0.69686950  0.89768350  1
loop_
_geom_bond_atom_site_label_1
_geom_bond_atom_site_label_2
_geom_bond_distance
_geom_bond_site_symmetry_2
Li0_0 O1_1 2.126250 1_554
Li0_0 O1_4 2.126250 1_455
Li0_0 O1_5 2.130955 1_454
Li0_0 Tl0_7 3.335181 1_444
Li0_1 O1_0 2.126250 1_555
Li0_1 O1_5 2.126250 1_455
Li0_1 O1_4 2.130955 1_455
Li0_1 Tl0_6 3.335181 1_445
Li0_2 O1_3 2.126250 1_554
Li0_2 O1_6 2.126250 1_455
Li0_2 O1_7 2.130955 1_454
Li0_2 Tl0_5 3.335181 1_454
Li0_3 O1_2 2.126250 1_555
Li0_3 O1_7 2.126250 1_455
Li0_3 O1_6 2.130955 1_455
Li0_3 Tl0_4 3.335181 1_455
Li0_4 O1_5 2.126250 1_554
Li0_4 O1_0 2.126250 1_555
Li0_4 O1_1 2.130955 1_554
Li0_4 Tl0_3 3.335181 1_544
Li0_5 O1_4 2.126250 1_555
Li0_5 O1_1 2.126250 1_555
Li0_5 O1_0 2.130955 1_555
Li0_5 Tl0_2 3.335181 1_545
Li0_6 O1_7 2.126250 1_554
Li0_6 O1_2 2.126250 1_555
Li0_6 O1_3 2.130955 1_554
Li0_6 Tl0_1 3.335181 1_554
Li0_7 O1_6 2.126250 1_555
Li0_7 O1_3 2.126250 1_555
Li0_7 O1_2 2.130955 1_555
Li0_7 Tl0_0 3.335181 1_555
Er0_0 O0_4 2.152456 1_555
Er0_0 O0_1 2.152456 1_555
Er0_0 O0_0 2.152835 1_555
Er0_0 O1_4 2.413486 1_455
Er0_0 O1_1 2.413487 1_554
Er0_0 O1_0 2.418614 1_555
Er0_1 O0_5 2.152456 1_555
Er0_1 O0_0 2.152456 1_556
Er0_1 O0_1 2.152835 1_555
Er0_1 O1_5 2.413486 1_455
Er0_1 O1_0 2.413487 1_555
Er0_1 O1_1 2.418614 1_555
Er0_2 O0_6 2.152456 1_555
Er0_2 O0_3 2.152456 1_555
Er0_2 O0_2 2.152835 1_555
Er0_2 O1_6 2.413486 1_455
Er0_2 O1_3 2.413487 1_554
Er0_2 O1_2 2.418614 1_555
Er0_3 O0_7 2.152456 1_555
Er0_3 O0_2 2.152456 1_556
Er0_3 O0_3 2.152835 1_555
Er0_3 O1_7 2.413486 1_455
Er0_3 O1_2 2.413487 1_555
Er0_3 O1_3 2.418614 1_555
Er0_4 O0_0 2.152456 1_655
Er0_4 O0_5 2.152456 1_555
Er0_4 O0_4 2.152835 1_555
Er0_4 O1_0 2.413486 1_555
Er0_4 O1_5 2.413487 1_554
Er0_4 O1_4 2.418614 1_555
Er0_5 O0_1 2.152456 1_655
Er0_5 O0_4 2.152456 1_556
Er0_5 O0_5 2.152835 1_555
Er0_5 O1_1 2.413486 1_555
Er0_5 O1_4 2.413487 1_555
Er0_5 O1_5 2.418614 1_555
Er0_6 O0_2 2.152456 1_655
Er0_6 O0_7 2.152456 1_555
Er0_6 O0_6 2.152835 1_555
Er0_6 O1_2 2.413486 1_555
Er0_6 O1_7 2.413487 1_554
Er0_6 O1_6 2.418614 1_555
Er0_7 O0_3 2.152456 1_655
Er0_7 O0_6 2.152456 1_556
Er0_7 O0_7 2.152835 1_555
Er0_7 O1_3 2.413486 1_555
Er0_7 O1_6 2.413487 1_555
Er0_7 O1_7 2.418614 1_555
Tl0_0 Tl0_5 3.371041 1_554
Tl0_0 Tl0_5 3.371041 1_455
Tl0_0 Tl0_4 3.372380 1_555
Tl0_0 Tl0_4 3.372380 1_455
Tl0_0 Tl0_1 3.372380 1_554
Tl0_0 Tl0_1 3.372380 1_555
Tl0_1 Tl0_4 3.371041 1_555
Tl0_1 Tl0_4 3.371041 1_456
Tl0_1 Tl0_5 3.372380 1_555
Tl0_1 Tl0_5 3.372380 1_455
Tl0_2 Tl0_7 3.371041 1_554
Tl0_2 Tl0_7 3.371041 1_455
Tl0_2 Tl0_6 3.372380 1_555
Tl0_2 Tl0_6 3.372380 1_455
Tl0_2 Tl0_3 3.372380 1_555
Tl0_2 Tl0_3 3.372380 1_554
Tl0_3 Tl0_6 3.371041 1_555
Tl0_3 Tl0_6 3.371041 1_456
Tl0_3 Tl0_7 3.372380 1_555
Tl0_3 Tl0_7 3.372380 1_455
Tl0_4 Tl0_5 3.372380 1_555
Tl0_4 Tl0_5 3.372380 1_554
Tl0_6 Tl0_7 3.372380 1_554
Tl0_6 Tl0_7 3.372380 1_555
O0_0 Tl0_1 3.469949 1_554
O0_0 Tl0_4 3.469949 1_455
O0_0 Tl0_5 3.483233 1_454
O0_1 Tl0_0 3.469949 1_555
O0_1 Tl0_5 3.469949 1_455
O0_1 Tl0_4 3.483233 1_455
O0_2 Tl0_3 3.469949 1_554
O0_2 Tl0_6 3.469949 1_455
O0_2 Tl0_7 3.483233 1_454
O0_3 Tl0_2 3.469949 1_555
O0_3 Tl0_7 3.469949 1_455
O0_3 Tl0_6 3.483233 1_455
O0_4 Tl0_5 3.469949 1_554
O0_4 Tl0_0 3.469949 1_555
O0_4 Tl0_1 3.483233 1_554
O0_5 Tl0_4 3.469949 1_555
O0_5 Tl0_1 3.469949 1_555
O0_5 Tl0_0 3.483233 1_555
O0_6 Tl0_7 3.469949 1_554
O0_6 Tl0_2 3.469949 1_555
O0_6 Tl0_3 3.483233 1_554
O0_7 Tl0_6 3.469949 1_555
O0_7 Tl0_3 3.469949 1_555
O0_7 Tl0_2 3.483233 1_555
