# generated using pymatgen
data_Eu(AsPd)2
_symmetry_space_group_name_H-M   'P 1'
_cell_length_a   4.33471513
_cell_length_b   4.33487266
_cell_length_c   5.99684608
_cell_angle_alpha   111.11011310
_cell_angle_beta   111.08263573
_cell_angle_gamma   90.13060035
_symmetry_Int_Tables_number   1
_chemical_formula_structural   Eu(AsPd)2
_chemical_formula_sum   'Eu1 As2 Pd2'
_cell_volume   96.95313043
_cell_formula_units_Z   1
loop_
 _symmetry_equiv_pos_site_id
 _symmetry_equiv_pos_as_xyz
  1  'x, y, z'
loop_
 _atom_site_type_symbol
 _atom_site_label
 _atom_site_symmetry_multiplicity
 _atom_site_fract_x
 _atom_site_fract_y
 _atom_site_fract_z
 _atom_site_occupancy
  Eu  Eu0  1  0.00060636  0.99750470  0.99773531  1
  As  As0  1  0.37661123  0.37611504  0.75550099  1
  As  As1  1  0.62488874  0.61959779  0.23999193  1
  Pd  Pd0  1  0.74685691  0.24812913  0.49687996  1
  Pd  Pd1  1  0.25473276  0.74766434  0.49862481  1
loop_
_geom_bond_atom_site_label_1
_geom_bond_atom_site_label_2
_geom_bond_distance
_geom_bond_site_symmetry_2
Eu0 Pd1 3.357357 1_455
Eu0 Pd0 3.358492 1_566
Eu0 Pd0 3.370818 1_455
Eu0 Pd1 3.373016 1_556
Eu0 Pd1 3.373095 1_566
Eu0 Pd0 3.373663 1_466
Eu0 Pd1 3.374527 1_555
Eu0 Pd0 3.375008 1_465
As0 As1 2.500011 1_556
As0 Pd1 2.540027 1_555
As0 Pd1 2.541399 1_545
As0 Pd0 2.542406 1_555
As0 Pd0 2.548025 1_455
As0 Eu0 3.296780 1_545
As0 Eu0 3.305628 1_555
As0 Eu0 3.317158 1_655
As0 Eu0 3.321262 1_645
As1 Pd0 2.539780 1_555
As1 Pd0 2.541702 1_565
As1 Pd1 2.542129 1_555
As1 Pd1 2.548365 1_655
As1 Eu0 3.294077 1_654
As1 Eu0 3.306865 1_644
As1 Eu0 3.319945 1_544
As1 Eu0 3.320133 1_554
Pd0 Pd1 3.043119 1_555
Pd0 Pd1 3.044431 1_545
Pd0 Pd1 3.079143 1_655
Pd0 Pd1 3.094312 1_645
