# generated using pymatgen
data_In2Te3
_symmetry_space_group_name_H-M   'P 1'
_cell_length_a   4.47418300
_cell_length_b   6.44871662
_cell_length_c   7.76818910
_cell_angle_alpha   65.52297559
_cell_angle_beta   73.26287128
_cell_angle_gamma   90.00000000
_symmetry_Int_Tables_number   1
_chemical_formula_structural   In2Te3
_chemical_formula_sum   'In2 Te3'
_cell_volume   193.50901449
_cell_formula_units_Z   1
loop_
 _symmetry_equiv_pos_site_id
 _symmetry_equiv_pos_as_xyz
  1  'x, y, z'
loop_
 _atom_site_type_symbol
 _atom_site_label
 _atom_site_symmetry_multiplicity
 _atom_site_fract_x
 _atom_site_fract_y
 _atom_site_fract_z
 _atom_site_occupancy
  In  In0  1  0.50529700  0.74535100  0.98940600  1
  In  In1  1  0.82787400  0.06789000  0.34425300  1
  Te  Te0  1  0.01415400  0.03758800  0.97169100  1
  Te  Te1  1  0.66665300  0.63983600  0.66669500  1
  Te  Te2  1  0.31902200  0.34233500  0.36195600  1
loop_
_geom_bond_atom_site_label_1
_geom_bond_atom_site_label_2
_geom_bond_distance
_geom_bond_site_symmetry_2
In0 Te1 2.764010 1_555
In0 Te2 2.864027 1_556
In0 Te0 2.891120 1_665
In0 Te0 2.891123 1_565
In1 Te1 2.764768 1_545
In1 Te0 2.861499 1_654
In1 Te2 2.890649 1_655
In1 Te2 2.890652 1_555
