# generated using pymatgen
data_LiY2(FeO2)4
_symmetry_space_group_name_H-M   'P 1'
_cell_length_a   6.56988869
_cell_length_b   6.47084338
_cell_length_c   6.56388601
_cell_angle_alpha   59.75627494
_cell_angle_beta   58.58949122
_cell_angle_gamma   59.67672828
_symmetry_Int_Tables_number   1
_chemical_formula_structural   LiY2(FeO2)4
_chemical_formula_sum   'Li1 Y2 Fe4 O8'
_cell_volume   194.30536494
_cell_formula_units_Z   1
loop_
 _symmetry_equiv_pos_site_id
 _symmetry_equiv_pos_as_xyz
  1  'x, y, z'
loop_
 _atom_site_type_symbol
 _atom_site_label
 _atom_site_symmetry_multiplicity
 _atom_site_fract_x
 _atom_site_fract_y
 _atom_site_fract_z
 _atom_site_occupancy
  Li  Li0  1  0.87628700  0.87518800  0.87643300  1
  Y  Y0  1  0.62881100  0.62862900  0.62883600  1
  Y  Y1  1  0.36968800  0.36878600  0.36950900  1
  Fe  Fe0  1  0.01189600  0.46911800  0.01226700  1
  Fe  Fe1  1  0.01287900  0.00940500  0.01248700  1
  Fe  Fe2  1  0.46964100  0.00983400  0.00466700  1
  Fe  Fe3  1  0.00467900  0.01015200  0.46976900  1
  O  O0  1  0.21628800  0.76930400  0.77314500  1
  O  O1  1  0.23117200  0.23201900  0.78055600  1
  O  O2  1  0.22799000  0.78070700  0.22771000  1
  O  O3  1  0.23607800  0.23328500  0.23623400  1
  O  O4  1  0.77327700  0.76931100  0.21639700  1
  O  O5  1  0.78064900  0.23227000  0.23127400  1
  O  O6  1  0.77403800  0.21639900  0.77408500  1
  O  O7  1  0.76162600  0.77059400  0.76163000  1
loop_
_geom_bond_atom_site_label_1
_geom_bond_atom_site_label_2
_geom_bond_distance
_geom_bond_site_symmetry_2
Li0 O7 1.792672 1_555
Li0 O6 1.804447 1_565
Li0 O4 1.805799 1_556
Li0 O0 1.806319 1_655
Fe0 O3 2.094436 1_555
Fe0 O1 2.139497 1_554
Fe0 O5 2.139831 1_455
Fe0 Li0 2.144100 1_454
Fe0 O4 2.320290 1_455
Fe0 O0 2.324990 1_554
Fe0 O7 2.358680 1_454
Fe1 O2 2.011520 1_545
Fe1 O5 2.012610 1_455
Fe1 O1 2.012628 1_554
Fe1 Li0 2.181918 1_444
Fe1 O0 2.200396 1_544
Fe1 O4 2.204942 1_445
Fe1 O6 2.242944 1_454
Fe2 O3 2.073183 1_555
Fe2 O2 2.151668 1_545
Fe2 Li0 2.156282 1_544
Fe2 O1 2.163994 1_554
Fe2 O7 2.218264 1_544
Fe2 O6 2.362857 1_554
Fe2 O4 2.430845 1_545
Fe3 O3 2.074497 1_555
Fe3 O2 2.151359 1_545
Fe3 Li0 2.155917 1_445
Fe3 O5 2.163739 1_455
Fe3 O7 2.223107 1_445
Fe3 O6 2.357063 1_455
Fe3 O0 2.428695 1_545
O0 Y0 2.184666 1_555
O1 Y1 2.177051 1_555
O2 Y1 2.176259 1_555
O3 Y1 2.157513 1_555
O4 Y0 2.184057 1_555
O5 Y1 2.176928 1_555
O6 Y0 2.179702 1_555
O7 Y0 2.184912 1_555
