# generated using pymatgen
data_Sr4ZrN4
_symmetry_space_group_name_H-M   'P 1'
_cell_length_a   6.47418811
_cell_length_b   6.47078983
_cell_length_c   9.75904700
_cell_angle_alpha   71.14513059
_cell_angle_beta   80.41206137
_cell_angle_gamma   67.91867478
_symmetry_Int_Tables_number   1
_chemical_formula_structural   Sr4ZrN4
_chemical_formula_sum   'Sr8 Zr2 N8'
_cell_volume   358.04627880
_cell_formula_units_Z   2
loop_
 _symmetry_equiv_pos_site_id
 _symmetry_equiv_pos_as_xyz
  1  'x, y, z'
loop_
 _atom_site_type_symbol
 _atom_site_label
 _atom_site_symmetry_multiplicity
 _atom_site_fract_x
 _atom_site_fract_y
 _atom_site_fract_z
 _atom_site_occupancy
  Sr  Sr0  1  0.74200220  0.60735226  0.18314944  1
  Sr  Sr1  1  0.25799780  0.39264774  0.81685056  1
  Sr  Sr2  1  0.75240934  0.24167918  0.98638148  1
  Sr  Sr3  1  0.24759066  0.75832082  0.01361852  1
  Sr  Sr4  1  0.73380724  0.47672095  0.57354518  1
  Sr  Sr5  1  0.26619276  0.52327905  0.42645482  1
  Sr  Sr6  1  0.23762232  0.95264588  0.60293013  1
  Sr  Sr7  1  0.76237768  0.04735412  0.39706987  1
  Zr  Zr0  1  0.71764583  0.84543444  0.76003123  1
  Zr  Zr1  1  0.28235417  0.15456556  0.23996877  1
  N  N0  1  0.97518215  0.69927272  0.61975101  1
  N  N1  1  0.02481785  0.30072728  0.38024899  1
  N  N2  1  0.85591938  0.84908467  0.93726056  1
  N  N3  1  0.14408062  0.15091533  0.06273944  1
  N  N4  1  0.51744596  0.63606306  0.80282654  1
  N  N5  1  0.48255404  0.36393694  0.19717346  1
  N  N6  1  0.48008587  0.82670982  0.37244377  1
  N  N7  1  0.51991413  0.17329018  0.62755623  1
loop_
_geom_bond_atom_site_label_1
_geom_bond_atom_site_label_2
_geom_bond_distance
_geom_bond_site_symmetry_2
Sr4 Sr6 3.686227 1_645
Sr5 Sr7 3.686227 1_465
N0 Zr0 2.107027 1_555
N0 Sr1 2.638984 1_655
N0 Sr5 2.645080 1_655
N0 Sr4 2.658131 1_555
N0 Sr7 2.682256 1_565
N0 Sr6 2.725697 1_655
N1 Zr1 2.107027 1_555
N1 Sr0 2.638984 1_455
N1 Sr4 2.645080 1_455
N1 Sr5 2.658131 1_555
N1 Sr6 2.682256 1_545
N1 Sr7 2.725697 1_455
N2 Zr0 2.086031 1_555
N2 Sr2 2.555904 1_565
N2 Sr3 2.560695 1_656
N2 Sr0 2.569176 1_556
N3 Zr1 2.086031 1_555
N3 Sr3 2.555904 1_545
N3 Sr2 2.560695 1_454
N3 Sr1 2.569176 1_554
N4 Zr0 2.112831 1_555
N4 Sr3 2.593344 1_556
N4 Sr2 2.658907 1_555
N4 Sr6 2.662370 1_555
N4 Sr1 2.663518 1_555
N4 Sr4 2.719033 1_555
N5 Zr1 2.112831 1_555
N5 Sr2 2.593344 1_554
N5 Sr3 2.658907 1_555
N5 Sr7 2.662370 1_555
N5 Sr0 2.663518 1_555
N5 Sr5 2.719033 1_555
N6 Zr1 2.132511 1_565
N6 Sr4 2.661394 1_555
N6 Sr0 2.672909 1_555
N6 Sr5 2.680055 1_555
N6 Sr6 2.689691 1_555
N6 Sr7 2.786806 1_565
N7 Zr0 2.132511 1_545
N7 Sr5 2.661394 1_555
N7 Sr1 2.672909 1_555
N7 Sr4 2.680055 1_555
N7 Sr7 2.689691 1_555
N7 Sr6 2.786806 1_545
