# generated using pymatgen
data_Ba6Gd2Ga4O15
_symmetry_space_group_name_H-M   'P 1'
_cell_length_a   6.08680800
_cell_length_b   8.10382417
_cell_length_c   18.74471232
_cell_angle_alpha   91.09233311
_cell_angle_beta   90.00000000
_cell_angle_gamma   90.00000000
_symmetry_Int_Tables_number   1
_chemical_formula_structural   Ba6Gd2Ga4O15
_chemical_formula_sum   'Ba12 Gd4 Ga8 O30'
_cell_volume   924.44155868
_cell_formula_units_Z   2
loop_
 _symmetry_equiv_pos_site_id
 _symmetry_equiv_pos_as_xyz
  1  'x, y, z'
loop_
 _atom_site_type_symbol
 _atom_site_label
 _atom_site_symmetry_multiplicity
 _atom_site_fract_x
 _atom_site_fract_y
 _atom_site_fract_z
 _atom_site_occupancy
  Ba  Ba0  1  0.75668800  0.49833700  0.42102700  1
  Ba  Ba1  1  0.24331200  0.50166300  0.57897300  1
  Ba  Ba2  1  0.75668800  0.50166300  0.07897300  1
  Ba  Ba3  1  0.24331200  0.49833700  0.92102700  1
  Ba  Ba4  1  0.74235200  0.97029300  0.40993600  1
  Ba  Ba5  1  0.25764800  0.02970700  0.59006400  1
  Ba  Ba6  1  0.74235200  0.02970700  0.09006400  1
  Ba  Ba7  1  0.25764800  0.97029300  0.90993600  1
  Ba  Ba8  1  0.72312200  0.00000000  0.75000000  1
  Ba  Ba9  1  0.27687800  0.00000000  0.25000000  1
  Ba  Ba10  1  0.66614500  0.50000000  0.75000000  1
  Ba  Ba11  1  0.33385500  0.50000000  0.25000000  1
  Gd  Gd0  1  0.74414800  0.75142700  0.59022300  1
  Gd  Gd1  1  0.25585200  0.24857300  0.40977700  1
  Gd  Gd2  1  0.74414800  0.24857300  0.90977700  1
  Gd  Gd3  1  0.25585200  0.75142700  0.09022300  1
  Ga  Ga0  1  0.75297300  0.75354000  0.94047700  1
  Ga  Ga1  1  0.24702700  0.24646000  0.05952300  1
  Ga  Ga2  1  0.75297300  0.24646000  0.55952300  1
  Ga  Ga3  1  0.24702700  0.75354000  0.44047700  1
  Ga  Ga4  1  0.77657200  0.77049400  0.23511000  1
  Ga  Ga5  1  0.22342800  0.22950600  0.76489000  1
  Ga  Ga6  1  0.77657200  0.22950600  0.26489000  1
  Ga  Ga7  1  0.22342800  0.77049400  0.73511000  1
  O  O0  1  0.20922000  0.00000000  0.75000000  1
  O  O1  1  0.79078000  0.00000000  0.25000000  1
  O  O2  1  0.49809100  0.76527000  0.49949200  1
  O  O3  1  0.50190900  0.23473000  0.50050800  1
  O  O4  1  0.49809100  0.23473000  0.00050800  1
  O  O5  1  0.50190900  0.76527000  0.99949200  1
  O  O6  1  0.76046800  0.95136700  0.89004000  1
  O  O7  1  0.23953200  0.04863400  0.10996000  1
  O  O8  1  0.76046800  0.04863400  0.60996000  1
  O  O9  1  0.23953200  0.95136700  0.39004000  1
  O  O10  1  0.00031800  0.76293400  0.50279000  1
  O  O11  1  0.99968200  0.23706600  0.49721000  1
  O  O12  1  0.00031800  0.23706600  0.99721000  1
  O  O13  1  0.99968200  0.76293400  0.00279000  1
  O  O14  1  0.32468500  0.68989700  0.81922200  1
  O  O15  1  0.67531500  0.31010300  0.18077800  1
  O  O16  1  0.32468500  0.31010300  0.68077800  1
  O  O17  1  0.67531500  0.68989700  0.31922200  1
  O  O18  1  0.44589700  0.74734300  0.66513000  1
  O  O19  1  0.55410300  0.25265700  0.33487000  1
  O  O20  1  0.44589700  0.25265700  0.83487000  1
  O  O21  1  0.55410300  0.74734300  0.16513000  1
  O  O22  1  0.95424900  0.72636100  0.69250600  1
  O  O23  1  0.04575100  0.27363900  0.30749400  1
  O  O24  1  0.95424900  0.27363900  0.80749400  1
  O  O25  1  0.04575100  0.72636100  0.19250600  1
  O  O26  1  0.75669000  0.53453900  0.90657100  1
  O  O27  1  0.24331100  0.46546100  0.09342900  1
  O  O28  1  0.75669000  0.46546100  0.59342900  1
  O  O29  1  0.24331100  0.53453900  0.40657100  1
loop_
_geom_bond_atom_site_label_1
_geom_bond_atom_site_label_2
_geom_bond_distance
_geom_bond_site_symmetry_2
Ba0 O17 2.531748 1_555
Ba0 O19 2.823117 1_555
Ba0 O11 2.970706 1_555
Ba0 O29 2.989290 1_655
Ba0 O10 3.003417 1_655
Ba0 O2 3.032964 1_555
Ba0 O3 3.051131 1_555
Ba0 O29 3.150726 1_555
Ba0 O28 3.247647 1_555
Ba0 O23 3.285226 1_655
Ba1 O16 2.531748 1_555
Ba1 O18 2.823117 1_555
Ba1 O10 2.970706 1_555
Ba1 O28 2.989284 1_455
Ba1 O11 3.003417 1_455
Ba1 O3 3.032964 1_555
Ba1 O2 3.051131 1_555
Ba1 O28 3.150732 1_555
Ba1 O29 3.247647 1_555
Ba1 O22 3.285226 1_455
Ba2 O15 2.531748 1_555
Ba2 O21 2.823117 1_555
Ba2 O13 2.970706 1_555
Ba2 O27 2.989290 1_655
Ba2 O12 3.003417 1_654
Ba2 O4 3.032964 1_555
Ba2 O5 3.051131 1_554
Ba2 O27 3.150726 1_555
Ba2 O26 3.247647 1_554
Ba2 O25 3.285226 1_655
Ba3 O14 2.531748 1_555
Ba3 O20 2.823117 1_555
Ba3 O12 2.970706 1_555
Ba3 O26 2.989284 1_455
Ba3 O13 3.003417 1_456
Ba3 O5 3.032964 1_555
Ba3 O4 3.051131 1_556
Ba3 O26 3.150732 1_555
Ba3 O27 3.247647 1_556
Ba3 O24 3.285226 1_455
Ba4 O2 2.809866 1_555
Ba4 O17 2.841448 1_555
Ba4 O10 2.903476 1_655
Ba4 O19 2.941359 1_565
Ba4 O1 3.026565 1_565
Ba4 O9 3.052631 1_655
Ba4 O3 3.078602 1_565
Ba4 O9 3.086667 1_555
Ba4 O11 3.109420 1_565
Ba5 O3 2.809866 1_555
Ba5 O16 2.841448 1_555
Ba5 O11 2.903476 1_455
Ba5 O18 2.941359 1_545
Ba5 O0 3.026565 1_555
Ba5 O8 3.052631 1_455
Ba5 O2 3.078602 1_545
Ba5 O8 3.086667 1_555
Ba5 O10 3.109420 1_545
Ba6 O4 2.809866 1_555
Ba6 O15 2.841448 1_555
Ba6 O12 2.903476 1_654
Ba6 O21 2.941359 1_545
Ba6 O1 3.026565 1_555
Ba6 O7 3.052631 1_655
Ba6 O5 3.078602 1_544
Ba6 O7 3.086667 1_555
Ba6 O13 3.109420 1_545
Ba7 O5 2.809866 1_555
Ba7 O14 2.841448 1_555
Ba7 O13 2.903476 1_456
Ba7 O20 2.941359 1_565
Ba7 O0 3.026565 1_565
Ba7 O6 3.052631 1_455
Ba7 O4 3.078602 1_566
Ba7 O6 3.086667 1_555
Ba7 O12 3.109420 1_565
Ba8 O6 2.671539 1_545
Ba8 O8 2.671540 1_555
Ba8 O24 2.822570 1_555
Ba8 O22 2.822570 1_545
Ba8 O0 2.958785 1_655
Ba8 O20 3.073473 1_555
Ba8 O18 3.073473 1_545
Ba8 O0 3.128023 1_555
Ba9 O9 2.671539 1_545
Ba9 O7 2.671540 1_555
Ba9 O23 2.822570 1_555
Ba9 O25 2.822570 1_545
Ba9 O1 2.958785 1_455
Ba9 O19 3.073473 1_555
Ba9 O21 3.073473 1_545
Ba9 O1 3.128023 1_555
Ba10 O22 2.770749 1_555
Ba10 O24 2.770749 1_555
Ba10 O14 2.880180 1_555
Ba10 O16 2.880180 1_555
Ba10 O18 2.909875 1_555
Ba10 O20 2.909875 1_555
Ba10 O26 2.994040 1_555
Ba10 O28 2.994040 1_555
Ba11 O25 2.770749 1_555
Ba11 O23 2.770749 1_555
Ba11 O17 2.880180 1_555
Ba11 O15 2.880180 1_555
Ba11 O21 2.909875 1_555
Ba11 O19 2.909875 1_555
Ba11 O29 2.994039 1_555
Ba11 O27 2.994039 1_555
Gd0 O10 2.265352 1_655
Gd0 O2 2.270559 1_555
Gd0 O18 2.295661 1_555
Gd0 O22 2.316778 1_555
Gd0 O28 2.320598 1_555
Gd0 O8 2.431811 1_565
Gd1 O11 2.265352 1_455
Gd1 O3 2.270559 1_555
Gd1 O19 2.295661 1_555
Gd1 O23 2.316778 1_555
Gd1 O29 2.320598 1_555
Gd1 O9 2.431803 1_545
Gd2 O12 2.265352 1_655
Gd2 O4 2.270559 1_556
Gd2 O20 2.295661 1_555
Gd2 O24 2.316778 1_555
Gd2 O26 2.320598 1_555
Gd2 O6 2.431803 1_545
Gd3 O13 2.265352 1_455
Gd3 O5 2.270559 1_554
Gd3 O21 2.295661 1_555
Gd3 O25 2.316778 1_555
Gd3 O27 2.320598 1_555
Gd3 O7 2.431811 1_565
Ga0 O26 1.873810 1_555
Ga0 O6 1.877181 1_555
Ga0 O5 1.887876 1_555
Ga0 O13 1.903086 1_556
Ga1 O27 1.873809 1_555
Ga1 O7 1.877174 1_555
Ga1 O4 1.887876 1_555
Ga1 O12 1.903086 1_554
Ga2 O28 1.873810 1_555
Ga2 O8 1.877174 1_555
Ga2 O3 1.887876 1_555
Ga2 O11 1.903086 1_555
Ga3 O29 1.873809 1_555
Ga3 O9 1.877181 1_555
Ga3 O2 1.887876 1_555
Ga3 O10 1.903086 1_555
Ga4 O17 1.825258 1_555
Ga4 O25 1.854527 1_655
Ga4 O1 1.877426 1_565
Ga4 O21 1.892135 1_555
Ga5 O16 1.825258 1_555
Ga5 O24 1.854527 1_455
Ga5 O0 1.877426 1_555
Ga5 O20 1.892135 1_555
Ga6 O15 1.825258 1_555
Ga6 O23 1.854527 1_655
Ga6 O1 1.877426 1_555
Ga6 O19 1.892135 1_555
Ga7 O14 1.825258 1_555
Ga7 O22 1.854527 1_455
Ga7 O0 1.877426 1_565
Ga7 O18 1.892135 1_555
