# generated using pymatgen
data_Mg3Fe3(PO4)4
_symmetry_space_group_name_H-M   'P 1'
_cell_length_a   5.17710421
_cell_length_b   7.75010933
_cell_length_c   8.44690988
_cell_angle_alpha   89.90508168
_cell_angle_beta   89.89309486
_cell_angle_gamma   94.28534244
_symmetry_Int_Tables_number   1
_chemical_formula_structural   Mg3Fe3(PO4)4
_chemical_formula_sum   'Mg3 Fe3 P4 O16'
_cell_volume   337.96775827
_cell_formula_units_Z   1
loop_
 _symmetry_equiv_pos_site_id
 _symmetry_equiv_pos_as_xyz
  1  'x, y, z'
loop_
 _atom_site_type_symbol
 _atom_site_label
 _atom_site_symmetry_multiplicity
 _atom_site_fract_x
 _atom_site_fract_y
 _atom_site_fract_z
 _atom_site_occupancy
  Mg  Mg0  1  0.00033200  0.50108200  0.50055500  1
  Mg  Mg1  1  0.50152500  0.99856600  0.99891800  1
  Mg  Mg2  1  0.40994200  0.88937500  0.64622000  1
  Fe  Fe0  1  0.91228600  0.38428900  0.85368400  1
  Fe  Fe1  1  0.58548300  0.11480100  0.35435700  1
  Fe  Fe2  1  0.08649900  0.61853100  0.14694400  1
  P  P0  1  0.46624000  0.29911400  0.69227400  1
  P  P1  1  0.96844000  0.79999700  0.80436300  1
  P  P2  1  0.53160000  0.70060000  0.31082200  1
  P  P3  1  0.03248100  0.20008000  0.19202800  1
  O  O0  1  0.44775600  0.13915400  0.58139000  1
  O  O1  1  0.95167100  0.64393000  0.92116200  1
  O  O2  1  0.54340200  0.85495500  0.42826000  1
  O  O3  1  0.04902600  0.35885900  0.07907800  1
  O  O4  1  0.68202300  0.43429900  0.63656700  1
  O  O5  1  0.18914500  0.93521800  0.85546400  1
  O  O6  1  0.31715000  0.56168400  0.36142400  1
  O  O7  1  0.81744000  0.06369500  0.13752100  1
  O  O8  1  0.54917400  0.24254800  0.86193500  1
  O  O9  1  0.05825600  0.74003100  0.63766400  1
  O  O10  1  0.45047500  0.76103600  0.14202700  1
  O  O11  1  0.94857500  0.25665000  0.36144200  1
  O  O12  1  0.20025100  0.37860500  0.69230300  1
  O  O13  1  0.70196300  0.87832400  0.80179700  1
  O  O14  1  0.79964200  0.62361400  0.30939300  1
  O  O15  1  0.29922500  0.12096300  0.19240500  1
loop_
_geom_bond_atom_site_label_1
_geom_bond_atom_site_label_2
_geom_bond_distance
_geom_bond_site_symmetry_2
Mg0 O4 2.041310 1_455
Mg0 O6 2.041533 1_555
Mg0 O14 2.176533 1_455
Mg0 O12 2.177974 1_555
Mg0 O9 2.187717 1_555
Mg0 O11 2.230234 1_455
Mg1 O7 2.046007 1_566
Mg1 O5 2.053143 1_555
Mg1 O15 2.194333 1_566
Mg1 O10 2.199703 1_556
Mg1 O13 2.204736 1_555
Mg1 O8 2.212945 1_565
Mg2 O2 1.990624 1_555
Mg2 O0 2.006249 1_565
Mg2 O13 2.011545 1_555
Mg2 O9 2.084636 1_555
Mg2 O5 2.147569 1_555
Fe0 O12 2.021179 1_655
Fe0 O3 2.046801 1_656
Fe0 O1 2.087703 1_555
Fe0 O8 2.106211 1_555
Fe0 O4 2.238214 1_555
Fe1 O15 2.021856 1_555
Fe1 O0 2.058620 1_555
Fe1 O2 2.102961 1_545
Fe1 O11 2.106528 1_555
Fe1 O7 2.240306 1_555
Fe2 O14 2.022688 1_455
Fe2 O1 2.046337 1_454
Fe2 O3 2.088601 1_555
Fe2 O10 2.112054 1_555
Fe2 O6 2.232996 1_555
O0 P0 1.552338 1_555
O1 P1 1.556891 1_555
O2 P2 1.553083 1_555
O3 P3 1.553036 1_555
O4 P0 1.545498 1_555
O5 P1 1.553874 1_455
O6 P2 1.546764 1_555
O7 P3 1.548001 1_655
O8 P0 1.568021 1_555
O9 P1 1.564270 1_455
O10 P2 1.567831 1_555
O11 P3 1.567470 1_655
O12 P0 1.550030 1_555
O13 P1 1.548365 1_555
O14 P2 1.550966 1_555
O15 P3 1.552286 1_555
