# generated using pymatgen
data_Dy2Fe15Si2CN
_symmetry_space_group_name_H-M   'P 1'
_cell_length_a   6.45075500
_cell_length_b   6.46757084
_cell_length_c   6.47457429
_cell_angle_alpha   82.84190538
_cell_angle_beta   82.31335451
_cell_angle_gamma   82.68783856
_symmetry_Int_Tables_number   1
_chemical_formula_structural   Dy2Fe15Si2CN
_chemical_formula_sum   'Dy2 Fe15 Si2 C1 N1'
_cell_volume   263.92444277
_cell_formula_units_Z   1
loop_
 _symmetry_equiv_pos_site_id
 _symmetry_equiv_pos_as_xyz
  1  'x, y, z'
loop_
 _atom_site_type_symbol
 _atom_site_label
 _atom_site_symmetry_multiplicity
 _atom_site_fract_x
 _atom_site_fract_y
 _atom_site_fract_z
 _atom_site_occupancy
  Dy  Dy0  1  0.34034600  0.34287600  0.35021900  1
  Dy  Dy1  1  0.65965400  0.65712400  0.64978100  1
  Fe  Fe0  1  0.65390200  0.65786800  0.14742700  1
  Fe  Fe1  1  0.14881300  0.65808400  0.65437400  1
  Fe  Fe2  1  0.65572400  0.14569900  0.65742500  1
  Fe  Fe3  1  0.34609800  0.34213200  0.85257300  1
  Fe  Fe4  1  0.85118700  0.34191600  0.34562600  1
  Fe  Fe5  1  0.34427600  0.85430100  0.34257500  1
  Fe  Fe6  1  0.00000000  0.00000000  0.50000000  1
  Fe  Fe7  1  0.50000000  0.00000000  0.00000000  1
  Fe  Fe8  1  0.00000000  0.50000000  0.00000000  1
  Fe  Fe9  1  0.28409800  0.71729600  0.99779800  1
  Fe  Fe10  1  0.99844800  0.27988800  0.72112200  1
  Fe  Fe11  1  0.70705600  0.00124800  0.29210000  1
  Fe  Fe12  1  0.00155200  0.72011200  0.27887800  1
  Fe  Fe13  1  0.29294400  0.99875200  0.70790000  1
  Fe  Fe14  1  0.71590200  0.28270400  0.00220200  1
  Si  Si0  1  0.10132400  0.10097400  0.10062200  1
  Si  Si1  1  0.89867600  0.89902600  0.89937800  1
  C  C0  1  0.50000000  0.50000000  0.00000000  1
  N  N0  1  0.00000000  0.50000000  0.50000000  1
loop_
_geom_bond_atom_site_label_1
_geom_bond_atom_site_label_2
_geom_bond_distance
_geom_bond_site_symmetry_2
Dy0 N0 2.429284 1_555
Dy0 Fe13 3.018174 1_545
Dy0 Fe11 3.042693 1_555
Dy0 Fe1 3.044513 1_555
Dy0 Si0 3.057345 1_555
Dy0 Fe2 3.084046 1_555
Dy0 Fe0 3.104404 1_555
Dy0 Fe5 3.163268 1_545
Dy0 Fe3 3.257097 1_555
Dy0 Fe6 3.288171 1_555
Dy0 Fe4 3.290686 1_555
Dy0 Fe5 3.305153 1_555
Dy1 N0 2.429284 1_655
Dy1 Fe11 3.018174 1_565
Dy1 Fe13 3.042693 1_555
Dy1 Fe4 3.044513 1_555
Dy1 Si1 3.057345 1_555
Dy1 Fe5 3.084046 1_555
Dy1 Fe3 3.104404 1_555
Dy1 Fe2 3.163268 1_565
Dy1 Fe0 3.257097 1_555
Dy1 Fe6 3.288171 1_665
Dy1 Fe1 3.290686 1_555
Dy1 Fe2 3.305153 1_555
Fe0 Fe7 2.441514 1_565
Fe0 Fe8 2.455734 1_655
Fe0 Fe5 2.505750 1_555
Fe0 Fe4 2.561913 1_555
Fe0 Fe11 2.593310 1_565
Fe0 Fe12 2.596434 1_655
Fe0 Si1 2.613310 1_554
Fe1 N0 1.930558 1_555
Fe1 Fe6 2.444615 1_565
Fe1 Fe8 2.465666 1_556
Fe1 Fe5 2.522626 1_555
Fe1 Fe3 2.561913 1_555
Fe1 Fe13 2.576236 1_555
Fe1 Fe9 2.582378 1_555
Fe1 Si1 2.615254 1_455
Fe2 Fe7 2.437364 1_556
Fe2 Fe6 2.441332 1_655
Fe2 Fe3 2.505750 1_555
Fe2 Fe4 2.522626 1_555
Fe2 Si1 2.617812 1_545
Fe3 Fe7 2.441514 1_556
Fe3 Fe8 2.455734 1_556
Fe3 Si0 2.613310 1_556
Fe4 N0 1.930558 1_655
Fe4 Fe6 2.444615 1_655
Fe4 Fe8 2.465666 1_655
Fe4 Si0 2.615254 1_655
Fe5 Fe7 2.437364 1_565
Fe5 Fe6 2.441332 1_565
Fe5 Fe9 2.594468 1_554
Fe5 Si0 2.617812 1_565
Fe6 Si1 2.603028 1_445
Fe6 Si0 2.603028 1_555
Fe7 Fe9 2.437826 1_544
Fe7 Si1 2.587504 1_544
Fe7 Si0 2.587504 1_555
Fe8 Fe9 2.444894 1_554
Fe8 Si0 2.603332 1_555
Fe8 Si1 2.603332 1_454
Fe9 Si0 2.729098 1_566
Fe9 Si1 2.731726 1_455
Fe10 N0 1.888983 1_655
Fe10 Fe14 2.397239 1_556
Fe10 Fe8 2.436395 1_656
Fe10 Fe6 2.442132 1_655
Fe10 Fe13 2.457312 1_645
Fe10 Fe2 2.575379 1_555
Fe10 Fe3 2.596434 1_655
Fe10 Si1 2.703739 1_545
Fe10 Si0 2.710881 1_656
Fe11 Fe14 2.446666 1_555
Fe11 Fe12 2.457312 1_645
Fe11 Fe7 2.458270 1_555
Fe11 Fe6 2.461062 1_655
Fe11 Fe4 2.576236 1_555
Fe11 Fe5 2.602068 1_545
Fe11 Fe2 2.615276 1_555
Fe11 Si0 2.792182 1_655
Fe11 Si1 2.792939 1_544
Fe12 N0 1.888983 1_555
Fe12 Fe9 2.397239 1_554
Fe12 Fe8 2.436395 1_555
Fe12 Fe6 2.442132 1_565
Fe12 Fe5 2.575379 1_555
Fe12 Si0 2.703739 1_565
Fe12 Si1 2.710881 1_454
Fe13 Fe9 2.446666 1_555
Fe13 Fe7 2.458270 1_566
Fe13 Fe6 2.461062 1_565
Fe13 Fe3 2.593310 1_565
Fe13 Fe2 2.602068 1_565
Fe13 Fe5 2.615276 1_555
Fe13 Si1 2.792182 1_455
Fe13 Si0 2.792939 1_566
Fe14 Fe7 2.437826 1_555
Fe14 Fe8 2.444894 1_655
Fe14 Fe4 2.582378 1_555
Fe14 Fe2 2.594468 1_554
Fe14 Si1 2.729098 1_544
Fe14 Si0 2.731726 1_655
Si0 Si1 2.535133 1_444
C0 Fe14 1.848532 1_555
C0 Fe9 1.848532 1_554
C0 Fe0 1.921885 1_555
C0 Fe3 1.921885 1_554
C0 Dy0 2.510464 1_555
C0 Dy1 2.510464 1_554
