# generated using pymatgen
data_UF3
_symmetry_space_group_name_H-M   'P 1'
_cell_length_a   7.12852789
_cell_length_b   7.12278987
_cell_length_c   7.33946661
_cell_angle_alpha   90.00000000
_cell_angle_beta   90.00000000
_cell_angle_gamma   119.97337022
_symmetry_Int_Tables_number   1
_chemical_formula_structural   UF3
_chemical_formula_sum   'U6 F18'
_cell_volume   322.82086150
_cell_formula_units_Z   6
loop_
 _symmetry_equiv_pos_site_id
 _symmetry_equiv_pos_as_xyz
  1  'x, y, z'
loop_
 _atom_site_type_symbol
 _atom_site_label
 _atom_site_symmetry_multiplicity
 _atom_site_fract_x
 _atom_site_fract_y
 _atom_site_fract_z
 _atom_site_occupancy
  U  U0  1  0.32755516  0.99914264  0.74812838  1
  U  U1  1  0.32755516  0.32841252  0.24812838  1
  U  U2  1  -0.00000000  0.67529659  0.25208081  1
  U  U3  1  0.00000000  0.32470341  0.75208081  1
  U  U4  1  0.67244484  0.67158748  0.74812838  1
  U  U5  1  0.67244484  0.00085736  0.24812838  1
  F  F0  1  0.63027878  0.00568814  0.91647929  1
  F  F1  1  0.63027878  0.62459165  0.41647929  1
  F  F2  1  -0.00000000  0.37520918  0.41853788  1
  F  F3  1  0.00000000  0.62479082  0.91853788  1
  F  F4  1  0.36972122  0.37540835  0.91647929  1
  F  F5  1  0.36972122  0.99431186  0.41647929  1
  F  F6  1  -0.00000000  0.00014413  0.32570684  1
  F  F7  1  0.00000000  0.99985587  0.82570684  1
  F  F8  1  0.33517338  0.66763623  0.19791150  1
  F  F9  1  0.66482662  0.33236377  0.69791150  1
  F  F10  1  0.33517338  0.66753815  0.69791150  1
  F  F11  1  0.66482662  0.33246185  0.19791150  1
  F  F12  1  0.28118196  0.00159767  0.08065265  1
  F  F13  1  0.28118196  0.27958429  0.58065265  1
  F  F14  1  -0.00000000  0.71811639  0.58343284  1
  F  F15  1  0.00000000  0.28188361  0.08343284  1
  F  F16  1  0.71881804  0.72041571  0.08065265  1
  F  F17  1  0.71881804  0.99840233  0.58065265  1
loop_
_geom_bond_atom_site_label_1
_geom_bond_atom_site_label_2
_geom_bond_distance
_geom_bond_site_symmetry_2
F0 U5 2.454963 1_556
F0 U0 2.466823 1_545
F0 F17 2.551266 1_545
F0 F15 2.671548 1_656
F0 F16 2.694521 1_546
F0 F9 2.734159 1_555
F0 F7 2.738831 1_645
F0 F12 2.751937 1_556
F0 U3 2.753438 1_655
F0 F10 2.781590 1_545
F0 U4 2.827527 1_545
F0 F11 3.028513 1_556
F0 F8 3.070591 1_546
F1 U4 2.454963 1_555
F1 U1 2.466827 1_555
F1 F16 2.551265 1_555
F1 F14 2.671550 1_655
F1 F17 2.694515 1_555
F1 F11 2.734171 1_555
F1 F6 2.738827 1_665
F1 F13 2.751940 1_555
F1 U2 2.753441 1_655
F1 F8 2.781590 1_555
F1 U5 2.827520 1_565
F1 F9 3.028523 1_555
F1 F10 3.070591 1_555
F2 U2 2.461971 1_555
F2 U3 2.474318 1_555
F2 F6 2.757023 1_555
F2 F8 2.774275 1_555
F2 U1 2.811624 1_555
F2 U5 2.811624 1_455
F2 F9 3.045922 1_455
F3 U3 2.461971 1_555
F3 U2 2.474318 1_556
F3 F7 2.757023 1_555
F3 F9 2.774275 1_455
F3 U4 2.811624 1_455
F3 U0 2.811624 1_555
F3 F8 3.045922 1_556
F4 U1 2.454963 1_556
F4 U4 2.466827 1_555
F4 F7 2.738827 1_545
F4 U3 2.753441 1_555
F4 F9 2.781590 1_555
F4 U0 2.827520 1_545
F4 F8 3.028523 1_556
F5 U0 2.454963 1_555
F5 U5 2.466823 1_565
F5 F8 2.734159 1_555
F5 F6 2.738831 1_565
F5 U2 2.753438 1_555
F5 U1 2.827527 1_565
F5 F9 3.070591 1_565
F6 U2 2.376083 1_545
F6 U5 2.405876 1_455
F6 U1 2.405876 1_555
F7 U3 2.376083 1_565
F7 U0 2.405876 1_555
F7 U4 2.405876 1_455
F8 U1 2.417808 1_555
F8 U5 2.418219 1_565
F8 U2 2.449495 1_555
F9 U4 2.417808 1_555
F9 U0 2.418219 1_545
F9 U3 2.449495 1_655
F10 U0 2.417801 1_555
F10 U4 2.418222 1_555
F10 U3 2.449499 1_555
F10 F17 2.708124 1_555
F10 F14 2.721127 1_555
F10 F13 2.731668 1_555
F10 F4 2.734171 1_555
F10 F3 2.774273 1_555
F10 F5 3.028513 1_555
F10 F2 3.045924 1_555
F11 U5 2.417801 1_555
F11 U1 2.418222 1_555
F11 U2 2.449499 1_655
F11 F12 2.708124 1_555
F11 F15 2.721127 1_655
F11 F16 2.731668 1_555
F11 F2 2.774273 1_655
F11 F5 2.781590 1_545
F11 F3 3.045924 1_654
F11 F4 3.070591 1_554
F12 U0 2.464071 1_544
F12 U1 2.504012 1_555
F12 U2 2.519454 1_545
F12 F5 2.551266 1_545
F12 F6 2.689217 1_555
F12 F4 2.694515 1_554
F12 F3 2.694706 1_544
F12 F8 2.731662 1_545
F12 F7 2.737561 1_544
F13 U1 2.464071 1_555
F13 U0 2.504012 1_545
F13 U3 2.519454 1_555
F13 F4 2.551265 1_555
F13 F7 2.689217 1_545
F13 F5 2.694521 1_545
F13 F2 2.694706 1_555
F13 F9 2.708126 1_555
F13 F6 2.737562 1_555
F14 U2 2.450998 1_555
F14 U4 2.499982 1_455
F14 U0 2.499982 1_555
F14 F3 2.547740 1_555
F14 F5 2.671548 1_555
F14 F7 2.681229 1_555
F14 F9 2.721131 1_455
F14 F2 2.725853 1_555
F14 F6 2.759242 1_565
F15 U3 2.450998 1_554
F15 U1 2.499982 1_555
F15 U5 2.499982 1_455
F15 F2 2.547740 1_555
F15 F4 2.671550 1_554
F15 F6 2.681229 1_555
F15 F8 2.721131 1_555
F15 F3 2.725853 1_554
F15 F7 2.759242 1_544
F16 U4 2.464071 1_554
F16 U5 2.504012 1_565
F16 U2 2.519454 1_655
F16 F6 2.689217 1_665
F16 F3 2.694706 1_654
F16 F8 2.708126 1_555
F16 F7 2.737562 1_654
F16 F4 2.751940 1_554
F17 U5 2.464071 1_565
F17 U4 2.504012 1_555
F17 U3 2.519454 1_665
F17 F7 2.689217 1_655
F17 F2 2.694706 1_665
F17 F9 2.731662 1_565
F17 F6 2.737561 1_665
F17 F5 2.751937 1_555
