# generated using pymatgen
data_KNaW2O5
_symmetry_space_group_name_H-M   'P 1'
_cell_length_a   11.64515372
_cell_length_b   11.75922715
_cell_length_c   17.54608300
_cell_angle_alpha   109.36880796
_cell_angle_beta   109.21147199
_cell_angle_gamma   89.96725738
_symmetry_Int_Tables_number   1
_chemical_formula_structural   KNaW2O5
_chemical_formula_sum   'K16 Na16 W32 O80'
_cell_volume   2124.55383463
_cell_formula_units_Z   16
loop_
 _symmetry_equiv_pos_site_id
 _symmetry_equiv_pos_as_xyz
  1  'x, y, z'
loop_
 _atom_site_type_symbol
 _atom_site_label
 _atom_site_symmetry_multiplicity
 _atom_site_fract_x
 _atom_site_fract_y
 _atom_site_fract_z
 _atom_site_occupancy
  K  K0  1  0.30518753  0.06743018  0.10870280  1
  K  K1  1  0.30213146  0.56016126  0.10647285  1
  K  K2  1  0.80544207  0.06266153  0.11015151  1
  K  K3  1  0.80368409  0.56116951  0.10808618  1
  K  K4  1  0.20159085  0.93475659  0.39344896  1
  K  K5  1  0.19163518  0.92772354  0.88159762  1
  K  K6  1  0.70288573  0.43767373  0.39700822  1
  K  K7  1  0.69191863  0.42807515  0.88384699  1
  K  K8  1  0.70129152  0.93370456  0.39432926  1
  K  K9  1  0.05844554  0.29338238  0.10977520  1
  K  K10  1  0.05307131  0.79111509  0.10554639  1
  K  K11  1  0.55376871  0.29100246  0.10800999  1
  K  K12  1  0.55337370  0.79413829  0.10495940  1
  K  K13  1  0.45247230  0.71315018  0.39536399  1
  K  K14  1  0.43942734  0.70618562  0.88170047  1
  K  K15  1  0.94087341  0.70385820  0.88130845  1
  Na  Na0  1  0.29944947  0.07086905  0.60443562  1
  Na  Na1  1  0.30163758  0.56347233  0.60052986  1
  Na  Na2  1  0.80362422  0.06696955  0.60393065  1
  Na  Na3  1  0.79838370  0.56841294  0.60182366  1
  Na  Na4  1  0.20403761  0.43962369  0.40613351  1
  Na  Na5  1  0.19867233  0.43483781  0.89682589  1
  Na  Na6  1  0.69703936  0.93420683  0.89540570  1
  Na  Na7  1  0.05208872  0.28274771  0.60407142  1
  Na  Na8  1  0.05059860  0.78697537  0.60089194  1
  Na  Na9  1  0.55110156  0.28567518  0.60288930  1
  Na  Na10  1  0.55322914  0.78587088  0.60272202  1
  Na  Na11  1  0.45636466  0.21626661  0.40839162  1
  Na  Na12  1  0.44838154  0.21061362  0.89635983  1
  Na  Na13  1  0.95356803  0.21864453  0.40646645  1
  Na  Na14  1  0.94691446  0.21131384  0.89574286  1
  Na  Na15  1  0.95105281  0.71751328  0.40399386  1
  W  W0  1  0.00567930  0.99820134  0.99591366  1
  W  W1  1  0.01590720  0.00209351  0.50407979  1
  W  W2  1  0.00248332  0.49545626  0.99480736  1
  W  W3  1  0.01496131  0.50242907  0.50226854  1
  W  W4  1  0.50355264  0.99773625  0.99379345  1
  W  W5  1  0.51460364  0.00607841  0.50640450  1
  W  W6  1  0.50460932  0.49567363  0.99482932  1
  W  W7  1  0.51591359  0.50165216  0.50660817  1
  W  W8  1  0.25469041  0.24919457  0.99551252  1
  W  W9  1  0.26466818  0.25462118  0.50573478  1
  W  W10  1  0.25271685  0.74431478  0.99291454  1
  W  W11  1  0.26459074  0.74963173  0.50368110  1
  W  W12  1  0.75553058  0.24387973  0.99350078  1
  W  W13  1  0.76833925  0.25198063  0.50620172  1
  W  W14  1  0.75302850  0.74765225  0.99395733  1
  W  W15  1  0.76503053  0.75297322  0.50614573  1
  W  W16  1  0.09923564  0.10896529  0.25984112  1
  W  W17  1  0.08773343  0.09807107  0.74800916  1
  W  W18  1  0.09600249  0.59298972  0.25646953  1
  W  W19  1  0.08743732  0.58189856  0.73793412  1
  W  W20  1  0.59721249  0.10167950  0.25770522  1
  W  W21  1  0.58475763  0.08833866  0.74658996  1
  W  W22  1  0.59807076  0.59216578  0.25008145  1
  W  W23  1  0.58710997  0.58844303  0.74258615  1
  W  W24  1  0.34680564  0.40407350  0.26008864  1
  W  W25  1  0.33627259  0.40027895  0.74838405  1
  W  W26  1  0.34817806  0.91245280  0.24898386  1
  W  W27  1  0.33621221  0.90794288  0.73897308  1
  W  W28  1  0.85540845  0.40451108  0.25250052  1
  W  W29  1  0.84130550  0.39937124  0.74336694  1
  W  W30  1  0.85222220  0.90853538  0.25117686  1
  W  W31  1  0.83383234  0.91188474  0.74608854  1
  O  O0  1  0.13031492  0.12455716  0.49022950  1
  O  O1  1  0.12318520  0.12132917  0.98525382  1
  O  O2  1  0.12869050  0.61598489  0.48317526  1
  O  O3  1  0.12280885  0.61293907  0.98272350  1
  O  O4  1  0.63303470  0.12553117  0.49470314  1
  O  O5  1  0.62315902  0.11522104  0.98100542  1
  O  O6  1  0.63221212  0.62236036  0.49352750  1
  O  O7  1  0.62278165  0.61778265  0.98460545  1
  O  O8  1  0.13146274  0.37639634  0.00239228  1
  O  O9  1  0.14832622  0.38811777  0.52214608  1
  O  O10  1  0.13396242  0.87513632  0.00526388  1
  O  O11  1  0.14624427  0.88098096  0.51969267  1
  O  O12  1  0.63272761  0.37325297  0.00436347  1
  O  O13  1  0.64845691  0.38461216  0.52343354  1
  O  O14  1  0.63369127  0.87755416  0.00300817  1
  O  O15  1  0.64882314  0.88787826  0.52546598  1
  O  O16  1  0.38205997  0.12298823  0.48917400  1
  O  O17  1  0.37415138  0.11892010  0.98231794  1
  O  O18  1  0.38092861  0.61661631  0.49264900  1
  O  O19  1  0.37111069  0.61275579  0.98318935  1
  O  O20  1  0.88368693  0.11992788  0.48818683  1
  O  O21  1  0.87409797  0.11524188  0.98236439  1
  O  O22  1  0.88423698  0.62250117  0.49175161  1
  O  O23  1  0.87250899  0.61619297  0.98510614  1
  O  O24  1  0.38264073  0.37703594  0.00284785  1
  O  O25  1  0.39788163  0.38560320  0.52127749  1
  O  O26  1  0.38189123  0.87718405  0.00426328  1
  O  O27  1  0.39904851  0.89054679  0.52622130  1
  O  O28  1  0.88507136  0.37572238  0.00572553  1
  O  O29  1  0.90017157  0.38586704  0.52169302  1
  O  O30  1  0.88079901  0.87804204  0.00335746  1
  O  O31  1  0.89791796  0.88611070  0.52140038  1
  O  O32  1  0.07341963  0.08166981  0.13761029  1
  O  O33  1  0.09214821  0.10599880  0.63915316  1
  O  O34  1  0.06997707  0.58319481  0.13977321  1
  O  O35  1  0.09170843  0.61253918  0.63842540  1
  O  O36  1  0.57133180  0.07980428  0.13605681  1
  O  O37  1  0.58685955  0.11015503  0.64233659  1
  O  O38  1  0.57435881  0.58884149  0.13481770  1
  O  O39  1  0.59537739  0.61245387  0.64028582  1
  O  O40  1  0.44704986  0.39147656  0.36775874  1
  O  O41  1  0.43953649  0.39381287  0.85739297  1
  O  O42  1  0.44841677  0.91657794  0.36510598  1
  O  O43  1  0.44080049  0.91455228  0.85418091  1
  O  O44  1  0.95450146  0.39442795  0.36480370  1
  O  O45  1  0.93545548  0.39848735  0.85673877  1
  O  O46  1  0.94771375  0.89950102  0.36497236  1
  O  O47  1  0.94340048  0.91286532  0.85757358  1
  O  O48  1  0.32485002  0.30905362  0.13872904  1
  O  O49  1  0.33922574  0.28211701  0.64018744  1
  O  O50  1  0.32524461  0.79790904  0.13766987  1
  O  O51  1  0.33744603  0.77613922  0.63937567  1
  O  O52  1  0.83013308  0.29651974  0.13686749  1
  O  O53  1  0.85110693  0.27671859  0.64020093  1
  O  O54  1  0.82864472  0.79846811  0.13779344  1
  O  O55  1  0.83801227  0.78582459  0.64279307  1
  O  O56  1  0.20126246  0.22685223  0.36741691  1
  O  O57  1  0.18929319  0.21211483  0.85748547  1
  O  O58  1  0.20742726  0.70546407  0.36644846  1
  O  O59  1  0.18680875  0.69048139  0.85427271  1
  O  O60  1  0.70498935  0.21051865  0.36768577  1
  O  O61  1  0.70121399  0.19592718  0.85579983  1
  O  O62  1  0.69954988  0.70122021  0.36667820  1
  O  O63  1  0.68182924  0.70576997  0.85543790  1
  O  O64  1  0.44386895  0.07832782  0.27334648  1
  O  O65  1  0.41868720  0.06988122  0.75040236  1
  O  O66  1  0.44041459  0.54430443  0.25056373  1
  O  O67  1  0.41871843  0.53920547  0.73014457  1
  O  O68  1  0.94793064  0.07353307  0.27608650  1
  O  O69  1  0.92316579  0.06551800  0.74994216  1
  O  O70  1  0.93972978  0.56960965  0.27018743  1
  O  O71  1  0.91812629  0.54222679  0.72778488  1
  O  O72  1  0.19228021  0.45018553  0.27315753  1
  O  O73  1  0.17211392  0.43224862  0.75127225  1
  O  O74  1  0.18774363  0.95658972  0.24739559  1
  O  O75  1  0.16693705  0.93973452  0.72855077  1
  O  O76  1  0.69672054  0.45102263  0.25398438  1
  O  O77  1  0.67268093  0.43531318  0.73167902  1
  O  O78  1  0.69175505  0.95459283  0.24811005  1
  O  O79  1  0.66650355  0.93398619  0.74699396  1
loop_
_geom_bond_atom_site_label_1
_geom_bond_atom_site_label_2
_geom_bond_distance
_geom_bond_site_symmetry_2
K0 O10 2.698951 1_545
K0 O48 2.707667 1_555
K0 O1 2.733739 1_554
K0 O26 2.741617 1_545
K0 O64 2.766647 1_555
K0 O17 2.827071 1_554
K0 O32 2.900661 1_555
K0 O36 2.971931 1_555
K1 O66 2.579316 1_555
K1 O8 2.636927 1_555
K1 O50 2.660266 1_555
K1 O24 2.710087 1_555
K1 O3 2.714566 1_554
K1 O19 2.781802 1_554
K1 O34 2.942326 1_555
K1 O38 3.043546 1_555
K1 O48 3.180975 1_555
K2 O52 2.630973 1_555
K2 O14 2.662471 1_545
K2 O30 2.715903 1_545
K2 O5 2.790089 1_554
K2 O68 2.796513 1_555
K2 O21 2.854589 1_554
K2 O36 2.904100 1_555
K2 O32 2.993388 1_655
K2 O54 3.297290 1_545
K3 O54 2.660683 1_555
K3 O12 2.666756 1_555
K3 O28 2.720203 1_555
K3 O70 2.730739 1_555
K3 O7 2.743467 1_554
K3 O23 2.789629 1_554
K3 O38 2.860017 1_555
K3 O34 2.960284 1_655
K3 O52 3.312685 1_555
K4 O58 2.583178 1_555
K4 O74 2.612197 1_555
K4 O0 2.639225 1_565
K4 O16 2.711731 1_565
K4 O11 2.755177 1_555
K4 O46 2.837939 1_455
K4 O27 2.874264 1_555
K4 O42 3.069897 1_555
K5 O75 2.656527 1_555
K5 O59 2.666679 1_555
K5 O1 2.707757 1_565
K5 O10 2.718694 1_556
K5 O17 2.755642 1_565
K5 O26 2.757354 1_556
K5 O47 2.777470 1_455
K5 O43 3.089202 1_555
K6 O76 2.543645 1_555
K6 O60 2.548940 1_555
K6 O6 2.595696 1_555
K6 O22 2.691753 1_555
K6 O13 2.748751 1_555
K6 O29 2.830215 1_555
K6 O40 2.871428 1_555
K6 O44 3.171867 1_555
K7 O61 2.617208 1_555
K7 O77 2.634985 1_555
K7 O7 2.658755 1_555
K7 O12 2.688154 1_556
K7 O23 2.722531 1_555
K7 O28 2.778046 1_556
K7 O41 2.827576 1_555
K7 O45 3.027735 1_555
K8 O62 2.612178 1_555
K8 O78 2.623985 1_555
K8 O4 2.665706 1_565
K8 O20 2.707434 1_565
K8 O15 2.775980 1_555
K8 O42 2.813111 1_555
K8 O31 2.827312 1_555
K8 O46 3.081540 1_555
K9 O28 2.662951 1_455
K9 O32 2.686426 1_555
K9 O8 2.738837 1_555
K9 O1 2.754198 1_554
K9 O72 2.757502 1_555
K9 O21 2.781177 1_454
K9 O52 2.848897 1_455
K9 O48 2.969474 1_555
K9 O34 3.267038 1_555
K10 O74 2.581238 1_555
K10 O30 2.670294 1_455
K10 O10 2.684142 1_555
K10 O34 2.696836 1_555
K10 O23 2.704720 1_454
K10 O3 2.801530 1_554
K10 O54 2.845763 1_455
K10 O50 3.027298 1_555
K11 O76 2.621632 1_555
K11 O36 2.682491 1_555
K11 O24 2.686163 1_555
K11 O17 2.709710 1_554
K11 O12 2.712269 1_555
K11 O5 2.831857 1_554
K11 O48 2.882900 1_555
K11 O52 3.086115 1_555
K12 O78 2.581079 1_555
K12 O26 2.623611 1_555
K12 O38 2.629866 1_555
K12 O14 2.702402 1_555
K12 O19 2.759937 1_554
K12 O7 2.762245 1_554
K12 O50 2.894014 1_555
K12 O54 3.061952 1_555
K13 O42 2.613859 1_555
K13 O66 2.614669 1_555
K13 O18 2.668095 1_555
K13 O6 2.707776 1_555
K13 O58 2.724998 1_555
K13 O27 2.787839 1_555
K13 O15 2.849588 1_555
K13 O62 3.075287 1_555
K14 O43 2.650835 1_555
K14 O67 2.664624 1_555
K14 O26 2.682421 1_556
K14 O19 2.691096 1_555
K14 O7 2.757733 1_555
K14 O14 2.774941 1_556
K14 O59 2.815981 1_555
K14 O63 3.005852 1_555
K15 O47 2.627157 1_555
K15 O71 2.659678 1_555
K15 O23 2.685869 1_555
K15 O30 2.710280 1_556
K15 O3 2.752527 1_655
K15 O10 2.779216 1_656
K15 O63 2.900347 1_555
K15 O59 3.048950 1_655
Na0 O49 2.356981 1_555
Na0 O65 2.483334 1_555
Na0 O11 2.537002 1_545
Na0 O0 2.556102 1_555
Na0 O27 2.615231 1_545
Na0 O33 2.677519 1_555
Na0 O16 2.737584 1_555
Na0 O37 3.192308 1_555
Na1 O67 2.345605 1_555
Na1 O51 2.361352 1_555
Na1 O9 2.416218 1_555
Na1 O25 2.580391 1_555
Na1 O18 2.600324 1_555
Na1 O2 2.605800 1_555
Na1 O35 2.750464 1_555
Na2 O53 2.350133 1_555
Na2 O15 2.455216 1_545
Na2 O69 2.486674 1_555
Na2 O4 2.542019 1_555
Na2 O31 2.612819 1_545
Na2 O20 2.732595 1_555
Na2 O37 2.823985 1_555
Na3 O71 2.312274 1_555
Na3 O55 2.414518 1_555
Na3 O13 2.462437 1_555
Na3 O6 2.477086 1_555
Na3 O29 2.661143 1_555
Na3 O39 2.670029 1_555
Na3 O22 2.687081 1_555
Na4 O72 2.336661 1_555
Na4 O56 2.362397 1_555
Na4 O2 2.411875 1_555
Na4 O9 2.572661 1_555
Na4 O18 2.594377 1_555
Na4 O25 2.725639 1_555
Na4 O44 2.758952 1_455
Na5 O73 2.459183 1_555
Na5 O57 2.469696 1_555
Na5 O3 2.493735 1_555
Na5 O8 2.512925 1_556
Na5 O19 2.570050 1_555
Na5 O24 2.593543 1_556
Na5 O45 2.907938 1_455
Na5 O41 3.103733 1_555
Na6 O5 2.500931 1_565
Na6 O79 2.508709 1_555
Na6 O14 2.510776 1_556
Na6 O63 2.531469 1_555
Na6 O30 2.600731 1_556
Na6 O21 2.625150 1_565
Na6 O43 2.819570 1_555
Na6 O47 3.142653 1_555
Na7 O33 2.361124 1_555
Na7 O29 2.483268 1_455
Na7 O73 2.516014 1_555
Na7 O20 2.538471 1_455
Na7 O53 2.625091 1_455
Na7 O0 2.647842 1_555
Na7 O9 2.664729 1_555
Na7 O49 3.192323 1_555
Na8 O75 2.327288 1_555
Na8 O35 2.357514 1_555
Na8 O31 2.430984 1_455
Na8 O22 2.503416 1_455
Na8 O11 2.565698 1_555
Na8 O2 2.759614 1_555
Na8 O55 2.806019 1_455
Na9 O77 2.338187 1_555
Na9 O37 2.381047 1_555
Na9 O25 2.459101 1_555
Na9 O16 2.530524 1_555
Na9 O13 2.588440 1_555
Na9 O4 2.622748 1_555
Na9 O49 2.756570 1_555
Na10 O39 2.347621 1_555
Na10 O27 2.459241 1_555
Na10 O79 2.462162 1_555
Na10 O15 2.566851 1_555
Na10 O18 2.573304 1_555
Na10 O6 2.632109 1_555
Na10 O51 2.802447 1_555
Na10 O55 3.155663 1_555
Na11 O64 2.343250 1_555
Na11 O40 2.384996 1_555
Na11 O16 2.408408 1_555
Na11 O25 2.573374 1_555
Na11 O4 2.585233 1_555
Na11 O13 2.716662 1_555
Na11 O56 2.830340 1_555
Na12 O65 2.454301 1_555
Na12 O41 2.459549 1_555
Na12 O17 2.474336 1_555
Na12 O24 2.534030 1_556
Na12 O5 2.592237 1_555
Na12 O12 2.603995 1_556
Na12 O57 2.867430 1_555
Na13 O68 2.336985 1_555
Na13 O44 2.411401 1_555
Na13 O20 2.436964 1_555
Na13 O29 2.555370 1_555
Na13 O0 2.589537 1_655
Na13 O60 2.740901 1_555
Na13 O9 2.743666 1_655
Na14 O69 2.487189 1_555
Na14 O45 2.503863 1_555
Na14 O21 2.508684 1_555
Na14 O28 2.533522 1_556
Na14 O1 2.603478 1_655
Na14 O8 2.614834 1_656
Na14 O61 2.703200 1_555
Na14 O57 3.109428 1_655
Na15 O70 2.375385 1_555
Na15 O46 2.450368 1_555
Na15 O22 2.480985 1_555
Na15 O31 2.585662 1_555
Na15 O2 2.615488 1_655
Na15 O11 2.713434 1_655
Na15 O62 2.774643 1_555
O0 W9 2.075503 1_555
O0 W1 2.086934 1_555
O1 W8 2.068838 1_555
O1 W0 2.086658 1_545
O2 W3 2.059150 1_555
O2 W11 2.087327 1_555
O3 W2 2.075794 1_555
O3 W10 2.085328 1_555
O4 W5 2.072960 1_555
O4 W13 2.080588 1_555
O5 W12 2.067228 1_555
O5 W4 2.076644 1_545
O6 W7 2.079541 1_555
O6 W15 2.086163 1_555
O7 W6 2.079263 1_555
O7 W14 2.081422 1_555
O8 W2 2.055104 1_554
O8 W8 2.074366 1_554
O9 W3 2.071868 1_555
O9 W9 2.082609 1_555
O10 W10 2.073554 1_554
O10 W0 2.084836 1_554
O11 W11 2.080503 1_555
O11 W1 2.095171 1_565
O12 W6 2.078296 1_554
O12 W12 2.092941 1_554
O13 W7 2.081083 1_555
O13 W13 2.106032 1_555
O14 W14 2.066832 1_554
O14 W4 2.075563 1_554
O15 W15 2.098942 1_555
O15 W5 2.109176 1_565
O16 W9 2.076033 1_555
O16 W5 2.080845 1_555
O17 W8 2.076042 1_555
O17 W4 2.080907 1_545
O18 W11 2.070943 1_555
O18 W7 2.079027 1_555
O19 W10 2.073782 1_555
O19 W6 2.080675 1_555
O20 W13 2.065669 1_555
O20 W1 2.083220 1_655
O21 W12 2.052299 1_555
O21 W0 2.067248 1_645
O22 W15 2.077505 1_555
O22 W3 2.081003 1_655
O23 W2 2.079401 1_655
O23 W14 2.080917 1_555
O24 W8 2.060253 1_554
O24 W6 2.060924 1_554
O25 W7 2.070196 1_555
O25 W9 2.073387 1_555
O26 W10 2.083950 1_554
O26 W4 2.096874 1_554
O27 W5 2.097792 1_565
O27 W11 2.124769 1_555
O28 W2 2.059623 1_654
O28 W12 2.072302 1_554
O29 W13 2.086569 1_555
O29 W3 2.096091 1_655
O30 W14 2.065281 1_554
O30 W0 2.092409 1_654
O31 W15 2.090381 1_555
O31 W1 2.095772 1_665
O32 W16 1.977931 1_555
O32 W0 2.204200 1_544
O33 W17 1.960141 1_555
O33 W1 2.143314 1_555
O34 W18 1.932058 1_555
O34 W2 2.257564 1_554
O35 W19 1.911863 1_555
O35 W3 2.174184 1_555
O36 W20 1.981272 1_555
O36 W4 2.211690 1_544
O37 W21 1.937336 1_555
O37 W5 2.153763 1_555
O38 W22 1.935985 1_555
O38 W6 2.190043 1_554
O39 W23 1.939286 1_555
O39 W7 2.145067 1_555
O40 W24 1.920352 1_555
O40 W7 2.208805 1_555
O41 W25 1.921683 1_555
O41 W6 2.169487 1_555
O42 W26 1.971187 1_555
O42 W5 2.204759 1_565
O43 W27 1.962472 1_555
O43 W4 2.173703 1_555
O44 W28 1.971506 1_555
O44 W3 2.185826 1_655
O45 W29 1.933287 1_555
O45 W2 2.168547 1_655
O46 W30 1.978353 1_555
O46 W1 2.194508 1_665
O47 W31 1.948604 1_555
O47 W0 2.156738 1_655
O48 W24 1.977879 1_555
O48 W8 2.225727 1_554
O49 W25 1.956818 1_555
O49 W9 2.137802 1_555
O50 W26 1.900645 1_555
O50 W10 2.255807 1_554
O51 W27 1.917362 1_555
O51 W11 2.159710 1_555
O52 W28 1.927217 1_555
O52 W12 2.235023 1_554
O53 W29 1.942677 1_555
O53 W13 2.144028 1_555
O54 W30 1.908258 1_555
O54 W14 2.244902 1_554
O55 W31 1.939227 1_555
O55 W15 2.159890 1_555
O56 W16 1.920034 1_555
O56 W9 2.199350 1_555
O57 W17 1.919643 1_555
O57 W8 2.172906 1_555
O58 W18 1.953952 1_555
O58 W11 2.151009 1_555
O59 W19 1.963312 1_555
O59 W10 2.158203 1_555
O60 W20 1.925316 1_555
O60 W13 2.173316 1_555
O61 W21 1.948163 1_555
O61 W12 2.155602 1_555
O62 W22 1.974055 1_555
O62 W15 2.173671 1_555
O63 W23 1.947634 1_555
O63 W14 2.171980 1_555
O64 W20 1.926798 1_555
O64 W26 2.089283 1_545
O65 W21 1.971512 1_555
O65 W27 2.052055 1_545
O66 W22 1.924067 1_555
O66 W24 2.059175 1_555
O67 W23 1.965690 1_555
O67 W25 2.060065 1_555
O68 W16 1.941528 1_655
O68 W30 2.077782 1_545
O69 W17 1.967882 1_655
O69 W31 2.055593 1_545
O70 W18 1.943707 1_655
O70 W28 2.057100 1_555
O71 W19 1.962559 1_655
O71 W29 2.040669 1_555
O72 W24 1.942338 1_555
O72 W18 2.066552 1_555
O73 W25 1.961788 1_555
O73 W19 2.059905 1_555
O74 W26 1.932578 1_555
O74 W16 2.051121 1_565
O75 W27 1.966275 1_555
O75 W17 2.053687 1_565
O76 W28 1.932818 1_555
O76 W22 2.024986 1_555
O77 W29 1.966765 1_555
O77 W23 2.041315 1_555
O78 W30 1.933942 1_555
O78 W20 2.039296 1_565
O79 W31 1.970222 1_555
O79 W21 2.050080 1_565
