# generated using pymatgen
data_As12S13
_symmetry_space_group_name_H-M   'P 1'
_cell_length_a   7.93453575
_cell_length_b   9.94696037
_cell_length_c   27.88110292
_cell_angle_alpha   84.81811205
_cell_angle_beta   52.61877386
_cell_angle_gamma   84.64643789
_symmetry_Int_Tables_number   1
_chemical_formula_structural   As12S13
_chemical_formula_sum   'As24 S26'
_cell_volume   1739.34424510
_cell_formula_units_Z   2
loop_
 _symmetry_equiv_pos_site_id
 _symmetry_equiv_pos_as_xyz
  1  'x, y, z'
loop_
 _atom_site_type_symbol
 _atom_site_label
 _atom_site_symmetry_multiplicity
 _atom_site_fract_x
 _atom_site_fract_y
 _atom_site_fract_z
 _atom_site_occupancy
  As  As0  1  0.13903669  0.70218718  0.99439659  1
  As  As1  1  0.81103469  0.40687297  0.17206348  1
  As  As2  1  0.16727349  0.46107909  0.52846803  1
  As  As3  1  0.54918201  0.29933034  0.28506743  1
  As  As4  1  0.25334415  0.27729603  0.81884330  1
  As  As5  1  0.83406808  0.74557961  0.10143595  1
  As  As6  1  0.44088370  0.31099446  0.65835263  1
  As  As7  1  0.57494150  0.59544863  0.37737736  1
  As  As8  1  0.53498143  0.40409016  0.91941541  1
  As  As9  1  0.63502219  0.83635736  0.33523796  1
  As  As10  1  0.56463574  0.54674868  0.26045681  1
  As  As11  1  0.63978369  0.84634006  0.68165186  1
  As  As12  1  0.80868543  0.60413553  0.59641690  1
  As  As13  1  0.51010614  0.90957223  0.58205877  1
  As  As14  1  0.88794784  0.80819128  0.51668216  1
  As  As15  1  0.76798895  0.98664741  0.07335693  1
  As  As16  1  0.32839092  0.49000235  0.57805729  1
  As  As17  1  0.96551495  0.42359463  0.89880912  1
  As  As18  1  0.14960335  0.33056363  0.99001003  1
  As  As19  1  0.36736249  0.28102237  0.23980162  1
  As  As20  1  0.34660757  0.56269876  0.68608380  1
  As  As21  1  0.92297408  0.04239039  0.37174822  1
  As  As22  1  0.91839508  0.47875565  0.23375469  1
  As  As23  1  0.77894664  0.99644324  0.72313651  1
  S  S0  1  0.20668191  0.13849688  0.03007370  1
  S  S1  1  0.27719490  0.50031301  0.01591984  1
  S  S2  1  0.08140792  -0.00915338  0.41113428  1
  S  S3  1  0.14641840  0.32313393  0.39013094  1
  S  S4  1  0.03061931  0.87173469  0.71290546  1
  S  S5  1  -0.01973166  0.47790568  0.74364365  1
  S  S6  1  0.41078297  0.04875221  0.23084162  1
  S  S7  1  0.41961154  0.02108451  0.15690724  1
  S  S8  1  0.71420630  0.27011903  0.94531044  1
  S  S9  1  0.52648789  0.10802515  0.52960832  1
  S  S10  1  0.55745805  0.07095430  0.45416223  1
  S  S11  1  0.36223301  0.64781386  0.47902158  1
  S  S12  1  0.29108269  0.16861754  0.74391656  1
  S  S13  1  0.34656140  0.11152525  0.86352788  1
  S  S14  1  0.81082162  0.64608945  0.03432906  1
  S  S15  1  0.36966162  0.58906640  0.76419068  1
  S  S16  1  0.44219730  0.93933764  0.81829508  1
  S  S17  1  0.52647164  0.41957704  0.76982958  1
  S  S18  1  0.85660606  0.71385343  0.34803298  1
  S  S19  1  0.02423361  0.29760164  0.34735239  1
  S  S20  1  0.07125385  0.69039917  0.19651281  1
  S  S21  1  0.91993651  0.69968928  0.64297910  1
  S  S22  1  0.12232663  0.35667613  0.67026048  1
  S  S23  1  0.77990820  0.96936576  0.58529134  1
  S  S24  1  0.82079090  0.82504921  0.22895696  1
  S  S25  1  0.90846963  0.10083114  0.10848488  1
loop_
_geom_bond_atom_site_label_1
_geom_bond_atom_site_label_2
_geom_bond_distance
_geom_bond_site_symmetry_2
As0 S14 2.229644 1_456
As0 S1 2.400906 1_556
As0 As5 2.493454 1_456
As1 As10 2.468439 1_555
As1 As22 2.512026 1_555
As1 As3 2.691704 1_555
As1 As19 3.138325 1_555
As1 S25 3.446532 1_555
As2 S11 2.286431 1_555
As3 S3 2.732567 1_555
As4 S17 2.279022 1_555
As4 S12 2.282616 1_555
As4 S13 2.310490 1_555
As5 S14 2.302529 1_555
As6 S12 2.317418 1_555
As6 S22 2.345092 1_555
As7 S18 2.268945 1_555
As7 S11 2.333673 1_555
As7 As9 2.524769 1_555
As8 S8 2.244685 1_555
As8 S1 2.399326 1_556
As9 S18 2.233053 1_555
As9 S24 2.385754 1_555
As10 As22 2.467746 1_555
As10 As3 2.488331 1_555
As10 S24 3.317944 1_555
As10 As7 3.388869 1_555
As10 As19 3.451027 1_555
As11 S21 2.236173 1_555
As11 S23 2.446367 1_555
As11 As23 2.637548 1_555
As12 S21 2.266901 1_555
As12 As2 2.625972 1_655
As12 As14 2.680106 1_555
As12 As20 2.971276 1_555
As13 S9 2.312522 1_565
As13 S23 2.329430 1_555
As13 As14 2.541641 1_555
As14 S23 2.295796 1_555
As14 S2 2.896024 1_665
As15 S25 2.292252 1_565
As15 S7 2.309433 1_565
As15 As5 2.561713 1_555
As16 S22 2.392875 1_555
As16 As2 2.432138 1_555
As16 S11 2.925061 1_555
As16 As6 3.223158 1_555
As16 S21 3.229196 1_455
As16 As20 3.249127 1_555
As17 S8 2.249223 1_555
As17 As4 2.467287 1_655
As17 As8 3.123748 1_555
As18 S0 2.273786 1_556
As18 S1 2.413522 1_556
As18 As8 2.570690 1_555
As19 S6 2.317367 1_555
As19 As3 2.451228 1_555
As19 S19 2.554204 1_555
As20 S15 2.332482 1_555
As20 S5 2.506944 1_555
As20 As6 2.593022 1_555
As21 S2 2.122090 1_655
As21 S10 2.375752 1_555
As21 S19 2.637740 1_655
As22 S20 2.352348 1_655
As22 As3 3.039674 1_555
As23 S4 2.125512 1_655
As23 S16 2.429882 1_555
S0 S25 2.062753 1_455
S6 S7 2.062388 1_555
S10 S9 2.028968 1_555
S13 S16 2.021245 1_545
S15 S17 2.052627 1_555
S19 S3 1.982838 1_555
S20 S24 2.025070 1_455
S22 S5 2.074256 1_555
