# generated using pymatgen
data_Eu3Al2O7
_symmetry_space_group_name_H-M   'P 1'
_cell_length_a   10.19792930
_cell_length_b   10.19792930
_cell_length_c   10.19792930
_cell_angle_alpha   159.02545795
_cell_angle_beta   159.02545795
_cell_angle_gamma   29.83299317
_symmetry_Int_Tables_number   1
_chemical_formula_structural   Eu3Al2O7
_chemical_formula_sum   'Eu3 Al2 O7'
_cell_volume   135.81043569
_cell_formula_units_Z   1
loop_
 _symmetry_equiv_pos_site_id
 _symmetry_equiv_pos_as_xyz
  1  'x, y, z'
loop_
 _atom_site_type_symbol
 _atom_site_label
 _atom_site_symmetry_multiplicity
 _atom_site_fract_x
 _atom_site_fract_y
 _atom_site_fract_z
 _atom_site_occupancy
  Eu  Eu0  1  0.31750998  0.31750998  -0.00000000  1
  Eu  Eu1  1  0.68249002  0.68249002  0.00000000  1
  Eu  Eu2  1  0.50000000  0.50000000  0.00000000  1
  Al  Al0  1  0.09549692  0.09549692  -0.00000000  1
  Al  Al1  1  0.90450308  0.90450308  0.00000000  1
  O  O0  1  0.59740233  0.09740233  0.50000000  1
  O  O1  1  0.40259767  0.90259767  0.50000000  1
  O  O2  1  0.09740233  0.59740233  0.50000000  1
  O  O3  1  0.90259767  0.40259767  0.50000000  1
  O  O4  1  0.19819605  0.19819605  -0.00000000  1
  O  O5  1  0.80180395  0.80180395  0.00000000  1
  O  O6  1  -0.00000000  -0.00000000  0.00000000  1
loop_
_geom_bond_atom_site_label_1
_geom_bond_atom_site_label_2
_geom_bond_distance
_geom_bond_site_symmetry_2
Eu0 O4 2.351506 1_555
Eu0 O3 2.501529 1_555
Eu0 O1 2.501529 1_544
Eu0 O1 2.501529 1_555
Eu0 O3 2.501529 1_454
Eu0 O5 2.643247 1_556
Eu0 O5 2.643247 1_455
Eu0 O5 2.643247 1_444
Eu0 O5 2.643247 1_545
Eu1 O5 2.351506 1_555
Eu1 O2 2.501529 1_554
Eu1 O0 2.501529 1_554
Eu1 O2 2.501529 1_655
Eu1 O0 2.501529 1_565
Eu1 O4 2.643247 1_554
Eu1 O4 2.643247 1_565
Eu1 O4 2.643247 1_666
Eu1 O4 2.643247 1_655
Eu2 O6 2.625059 1_655
Eu2 O6 2.625059 1_666
Eu2 O6 2.625059 1_554
Eu2 O6 2.625059 1_565
Eu2 O3 2.670311 1_454
Eu2 O2 2.670311 1_655
Eu2 O0 2.670311 1_565
Eu2 O1 2.670311 1_544
Eu2 O2 2.670311 1_554
Eu2 O3 2.670311 1_555
Eu2 O1 2.670311 1_555
Eu2 O0 2.670311 1_554
Al0 O0 1.856577 1_555
Al0 O2 1.856577 1_544
Al0 O0 1.856577 1_454
Al0 O2 1.856577 1_555
Al0 O6 1.882107 1_555
Al0 O4 2.024052 1_555
Al1 O1 1.856577 1_655
Al1 O1 1.856577 1_554
Al1 O3 1.856577 1_565
Al1 O3 1.856577 1_554
Al1 O6 1.882107 1_665
Al1 O5 2.024052 1_555
