# generated using pymatgen
data_TiZnSnO4
_symmetry_space_group_name_H-M   'P 1'
_cell_length_a   5.28660100
_cell_length_b   8.75810400
_cell_length_c   19.98922600
_cell_angle_alpha   90.00000000
_cell_angle_beta   90.00000000
_cell_angle_gamma   90.00000000
_symmetry_Int_Tables_number   1
_chemical_formula_structural   TiZnSnO4
_chemical_formula_sum   'Ti8 Zn8 Sn8 O32'
_cell_volume   925.51318461
_cell_formula_units_Z   8
loop_
 _symmetry_equiv_pos_site_id
 _symmetry_equiv_pos_as_xyz
  1  'x, y, z'
loop_
 _atom_site_type_symbol
 _atom_site_label
 _atom_site_symmetry_multiplicity
 _atom_site_fract_x
 _atom_site_fract_y
 _atom_site_fract_z
 _atom_site_occupancy
  Ti  Ti0  1  0.72876900  0.69788100  0.32410900  1
  Ti  Ti1  1  0.22876900  0.30211900  0.67589100  1
  Ti  Ti2  1  0.22876900  0.80211900  0.82410900  1
  Ti  Ti3  1  0.72876900  0.19788100  0.17589100  1
  Ti  Ti4  1  0.20634800  0.23181200  0.42738700  1
  Ti  Ti5  1  0.70634800  0.76818800  0.57261300  1
  Ti  Ti6  1  0.70634800  0.26818800  0.92738700  1
  Ti  Ti7  1  0.20634800  0.73181200  0.07261300  1
  Zn  Zn0  1  0.70580600  0.31567000  0.34278900  1
  Zn  Zn1  1  0.20580600  0.68433000  0.65721100  1
  Zn  Zn2  1  0.20580600  0.18433000  0.84278900  1
  Zn  Zn3  1  0.70580600  0.81567000  0.15721100  1
  Zn  Zn4  1  0.71310000  0.00638300  0.44483600  1
  Zn  Zn5  1  0.21310000  0.99361700  0.55516400  1
  Zn  Zn6  1  0.21310000  0.49361700  0.94483600  1
  Zn  Zn7  1  0.71310000  0.50638300  0.05516400  1
  Sn  Sn0  1  0.24048500  0.57375300  0.22809100  1
  Sn  Sn1  1  0.74048500  0.42624700  0.77190900  1
  Sn  Sn2  1  0.74048500  0.92624700  0.72809100  1
  Sn  Sn3  1  0.24048500  0.07375300  0.27190900  1
  Sn  Sn4  1  0.32920200  0.62550400  0.44370200  1
  Sn  Sn5  1  0.82920200  0.37449600  0.55629800  1
  Sn  Sn6  1  0.82920200  0.87449600  0.94370200  1
  Sn  Sn7  1  0.32920200  0.12550400  0.05629800  1
  O  O0  1  0.57268800  0.71925300  0.23994800  1
  O  O1  1  0.07268800  0.28074700  0.76005200  1
  O  O2  1  0.07268800  0.78074700  0.73994800  1
  O  O3  1  0.57268800  0.21925300  0.26005200  1
  O  O4  1  0.65942400  0.85159500  0.37909100  1
  O  O5  1  0.15942400  0.14840500  0.62090900  1
  O  O6  1  0.15942400  0.64840500  0.87909100  1
  O  O7  1  0.65942400  0.35159500  0.12090900  1
  O  O8  1  0.57815900  0.52471000  0.36380600  1
  O  O9  1  0.07815900  0.47529000  0.63619400  1
  O  O10  1  0.07815900  0.97529000  0.86380600  1
  O  O11  1  0.57815900  0.02471000  0.13619400  1
  O  O12  1  0.06339100  0.66322800  0.31355900  1
  O  O13  1  0.56339100  0.33677200  0.68644100  1
  O  O14  1  0.56339100  0.83677200  0.81355900  1
  O  O15  1  0.06339100  0.16322800  0.18644100  1
  O  O16  1  0.06717300  0.24757300  0.34275700  1
  O  O17  1  0.56717300  0.75242700  0.65724300  1
  O  O18  1  0.56717300  0.25242700  0.84275700  1
  O  O19  1  0.06717300  0.74757300  0.15724300  1
  O  O20  1  0.06310900  0.06934000  0.46950600  1
  O  O21  1  0.56310900  0.93066000  0.53049400  1
  O  O22  1  0.56310900  0.43066000  0.96950600  1
  O  O23  1  0.06310900  0.56934000  0.03049400  1
  O  O24  1  0.13500200  0.40727400  0.47555700  1
  O  O25  1  0.63500200  0.59272600  0.52444300  1
  O  O26  1  0.63500200  0.09272600  0.97555700  1
  O  O27  1  0.13500200  0.90727400  0.02444300  1
  O  O28  1  0.54834200  0.20302000  0.42027700  1
  O  O29  1  0.04834200  0.79698000  0.57972300  1
  O  O30  1  0.04834200  0.29698000  0.92027700  1
  O  O31  1  0.54834200  0.70302000  0.07972300  1
loop_
_geom_bond_atom_site_label_1
_geom_bond_atom_site_label_2
_geom_bond_distance
_geom_bond_site_symmetry_2
O0 Ti0 1.883100 1_555
O0 Zn3 1.985832 1_555
O0 Sn0 2.182739 1_555
O1 Ti1 1.883100 1_555
O1 Zn2 1.985832 1_555
O1 Sn1 2.182739 1_455
O2 Ti2 1.883100 1_555
O2 Zn1 1.985832 1_555
O2 Sn2 2.182739 1_455
O3 Ti3 1.883100 1_555
O3 Zn0 1.985832 1_555
O3 Sn3 2.182739 1_555
O4 Ti0 1.776139 1_555
O4 Zn4 1.909295 1_565
O4 Sn4 2.938808 1_555
O5 Ti1 1.776139 1_555
O5 Zn5 1.909295 1_545
O5 Sn5 2.938808 1_455
O6 Ti2 1.776139 1_555
O6 Zn6 1.909295 1_555
O6 Sn6 2.938808 1_455
O7 Ti3 1.776139 1_555
O7 Zn7 1.909295 1_555
O7 Sn7 2.938808 1_555
O8 Ti0 1.887815 1_555
O8 Zn0 1.995916 1_555
O8 Sn4 2.249908 1_555
O9 Ti1 1.887815 1_555
O9 Zn1 1.995916 1_555
O9 Sn5 2.249908 1_455
O10 Ti2 1.887815 1_555
O10 Zn2 1.995916 1_565
O10 Sn6 2.249908 1_455
O11 Ti3 1.887815 1_555
O11 Zn3 1.995916 1_545
O11 Sn7 2.249908 1_555
O12 Ti0 1.807205 1_455
O12 Sn0 2.099848 1_555
O12 Sn4 2.975135 1_555
O13 Ti1 1.807205 1_555
O13 Sn1 2.099848 1_555
O13 Sn5 2.975135 1_555
O14 Ti2 1.807205 1_555
O14 Sn2 2.099848 1_555
O14 Sn6 2.975135 1_555
O15 Ti3 1.807205 1_455
O15 Sn3 2.099848 1_555
O15 Sn7 2.975135 1_555
O16 Ti4 1.849922 1_555
O16 Zn0 2.001333 1_455
O16 Sn3 2.272134 1_555
O17 Ti5 1.849922 1_555
O17 Zn1 2.001333 1_555
O17 Sn2 2.272134 1_555
O18 Ti6 1.849922 1_555
O18 Zn2 2.001333 1_555
O18 Sn1 2.272134 1_555
O19 Ti7 1.849922 1_555
O19 Zn3 2.001333 1_455
O19 Sn0 2.272134 1_555
O20 Ti4 1.818527 1_555
O20 Zn4 1.992744 1_455
O20 Zn5 2.000084 1_545
O21 Ti5 1.818527 1_555
O21 Zn5 1.992744 1_555
O21 Zn4 2.000084 1_565
O22 Ti6 1.818527 1_555
O22 Zn6 1.992744 1_555
O22 Zn7 2.000084 1_556
O23 Ti7 1.818527 1_555
O23 Zn7 1.992744 1_455
O23 Zn6 2.000084 1_554
O24 Ti4 1.852267 1_555
O24 Sn4 2.261080 1_555
O24 Sn5 2.302342 1_455
O25 Ti5 1.852267 1_555
O25 Sn5 2.261080 1_555
O25 Sn4 2.302342 1_555
O26 Ti6 1.852267 1_555
O26 Sn6 2.261080 1_545
O26 Sn7 2.302342 1_556
O27 Ti7 1.852267 1_555
O27 Sn7 2.261080 1_565
O27 Sn6 2.302342 1_454
O28 Ti4 1.831010 1_555
O28 Zn4 1.991360 1_555
O28 Zn0 2.016314 1_555
O29 Ti5 1.831010 1_455
O29 Zn5 1.991360 1_555
O29 Zn1 2.016314 1_555
O30 Ti6 1.831010 1_455
O30 Zn6 1.991360 1_555
O30 Zn2 2.016314 1_555
O31 Ti7 1.831010 1_555
O31 Zn7 1.991360 1_555
O31 Zn3 2.016314 1_555
