# generated using pymatgen
data_CsUCuS3
_symmetry_space_group_name_H-M   'P 1'
_cell_length_a   16.01011629
_cell_length_b   16.01011629
_cell_length_c   20.65752600
_cell_angle_alpha   90.00000000
_cell_angle_beta   90.00000000
_cell_angle_gamma   151.06300532
_symmetry_Int_Tables_number   1
_chemical_formula_structural   CsUCuS3
_chemical_formula_sum   'Cs16 U16 Cu16 S48'
_cell_volume   2561.98055084
_cell_formula_units_Z   16
loop_
 _symmetry_equiv_pos_site_id
 _symmetry_equiv_pos_as_xyz
  1  'x, y, z'
loop_
 _atom_site_type_symbol
 _atom_site_label
 _atom_site_symmetry_multiplicity
 _atom_site_fract_x
 _atom_site_fract_y
 _atom_site_fract_z
 _atom_site_occupancy
  Cs  Cs0_0  1  0.37026250  0.12973750  0.12500000  1
  Cs  Cs0_1  1  0.37026250  0.12973750  0.62500000  1
  Cs  Cs0_2  1  0.37026250  0.62973750  0.12500000  1
  Cs  Cs0_3  1  0.37026250  0.62973750  0.62500000  1
  Cs  Cs0_4  1  0.87026250  0.12973750  0.12500000  1
  Cs  Cs0_5  1  0.87026250  0.12973750  0.62500000  1
  Cs  Cs0_6  1  0.87026250  0.62973750  0.12500000  1
  Cs  Cs0_7  1  0.87026250  0.62973750  0.62500000  1
  Cs  Cs1_0  1  0.12973750  0.37026250  0.37500000  1
  Cs  Cs1_1  1  0.12973750  0.37026250  0.87500000  1
  Cs  Cs1_2  1  0.12973750  0.87026250  0.37500000  1
  Cs  Cs1_3  1  0.12973750  0.87026250  0.87500000  1
  Cs  Cs1_4  1  0.62973750  0.37026250  0.37500000  1
  Cs  Cs1_5  1  0.62973750  0.37026250  0.87500000  1
  Cs  Cs1_6  1  0.62973750  0.87026250  0.37500000  1
  Cs  Cs1_7  1  0.62973750  0.87026250  0.87500000  1
  U  U0_0  1  0.00000000  0.00000000  0.25000000  1
  U  U0_1  1  0.00000000  0.00000000  0.75000000  1
  U  U0_2  1  0.00000000  0.50000000  0.25000000  1
  U  U0_3  1  0.00000000  0.50000000  0.75000000  1
  U  U0_4  1  0.50000000  0.00000000  0.25000000  1
  U  U0_5  1  0.50000000  0.00000000  0.75000000  1
  U  U0_6  1  0.50000000  0.50000000  0.25000000  1
  U  U0_7  1  0.50000000  0.50000000  0.75000000  1
  U  U1_0  1  0.00000000  0.00000000  0.00000000  1
  U  U1_1  1  0.00000000  0.00000000  0.50000000  1
  U  U1_2  1  0.00000000  0.50000000  0.00000000  1
  U  U1_3  1  0.00000000  0.50000000  0.50000000  1
  U  U1_4  1  0.50000000  0.00000000  0.00000000  1
  U  U1_5  1  0.50000000  0.00000000  0.50000000  1
  U  U1_6  1  0.50000000  0.50000000  0.00000000  1
  U  U1_7  1  0.50000000  0.50000000  0.50000000  1
  Cu  Cu0_0  1  0.26689300  0.23310700  0.37500000  1
  Cu  Cu0_1  1  0.26689300  0.23310700  0.87500000  1
  Cu  Cu0_2  1  0.26689300  0.73310700  0.37500000  1
  Cu  Cu0_3  1  0.26689300  0.73310700  0.87500000  1
  Cu  Cu0_4  1  0.76689300  0.23310700  0.37500000  1
  Cu  Cu0_5  1  0.76689300  0.23310700  0.87500000  1
  Cu  Cu0_6  1  0.76689300  0.73310700  0.37500000  1
  Cu  Cu0_7  1  0.76689300  0.73310700  0.87500000  1
  Cu  Cu1_0  1  0.23310700  0.26689300  0.12500000  1
  Cu  Cu1_1  1  0.23310700  0.26689300  0.62500000  1
  Cu  Cu1_2  1  0.23310700  0.76689300  0.12500000  1
  Cu  Cu1_3  1  0.23310700  0.76689300  0.62500000  1
  Cu  Cu1_4  1  0.73310700  0.26689300  0.12500000  1
  Cu  Cu1_5  1  0.73310700  0.26689300  0.62500000  1
  Cu  Cu1_6  1  0.73310700  0.76689300  0.12500000  1
  Cu  Cu1_7  1  0.73310700  0.76689300  0.62500000  1
  S  S0_0  1  0.30592900  0.19407100  0.27957650  1
  S  S0_1  1  0.30592900  0.19407100  0.77957650  1
  S  S0_2  1  0.30592900  0.69407100  0.27957650  1
  S  S0_3  1  0.30592900  0.69407100  0.77957650  1
  S  S0_4  1  0.80592900  0.19407100  0.27957650  1
  S  S0_5  1  0.80592900  0.19407100  0.77957650  1
  S  S0_6  1  0.80592900  0.69407100  0.27957650  1
  S  S0_7  1  0.80592900  0.69407100  0.77957650  1
  S  S1_0  1  0.19407100  0.30592900  0.22042350  1
  S  S1_1  1  0.19407100  0.30592900  0.72042350  1
  S  S1_2  1  0.19407100  0.80592900  0.22042350  1
  S  S1_3  1  0.19407100  0.80592900  0.72042350  1
  S  S1_4  1  0.69407100  0.30592900  0.22042350  1
  S  S1_5  1  0.69407100  0.30592900  0.72042350  1
  S  S1_6  1  0.69407100  0.80592900  0.22042350  1
  S  S1_7  1  0.69407100  0.80592900  0.72042350  1
  S  S2_0  1  0.19407100  0.30592900  0.02957650  1
  S  S2_1  1  0.19407100  0.30592900  0.52957650  1
  S  S2_2  1  0.19407100  0.80592900  0.02957650  1
  S  S2_3  1  0.19407100  0.80592900  0.52957650  1
  S  S2_4  1  0.69407100  0.30592900  0.02957650  1
  S  S2_5  1  0.69407100  0.30592900  0.52957650  1
  S  S2_6  1  0.69407100  0.80592900  0.02957650  1
  S  S2_7  1  0.69407100  0.80592900  0.52957650  1
  S  S3_0  1  0.47409400  0.02590600  0.37500000  1
  S  S3_1  1  0.47409400  0.02590600  0.87500000  1
  S  S3_2  1  0.47409400  0.52590600  0.37500000  1
  S  S3_3  1  0.47409400  0.52590600  0.87500000  1
  S  S3_4  1  0.97409400  0.02590600  0.37500000  1
  S  S3_5  1  0.97409400  0.02590600  0.87500000  1
  S  S3_6  1  0.97409400  0.52590600  0.37500000  1
  S  S3_7  1  0.97409400  0.52590600  0.87500000  1
  S  S4_0  1  0.02590600  0.47409400  0.12500000  1
  S  S4_1  1  0.02590600  0.47409400  0.62500000  1
  S  S4_2  1  0.02590600  0.97409400  0.12500000  1
  S  S4_3  1  0.02590600  0.97409400  0.62500000  1
  S  S4_4  1  0.52590600  0.47409400  0.12500000  1
  S  S4_5  1  0.52590600  0.47409400  0.62500000  1
  S  S4_6  1  0.52590600  0.97409400  0.12500000  1
  S  S4_7  1  0.52590600  0.97409400  0.62500000  1
  S  S5_0  1  0.30592900  0.19407100  0.47042350  1
  S  S5_1  1  0.30592900  0.19407100  0.97042350  1
  S  S5_2  1  0.30592900  0.69407100  0.47042350  1
  S  S5_3  1  0.30592900  0.69407100  0.97042350  1
  S  S5_4  1  0.80592900  0.19407100  0.47042350  1
  S  S5_5  1  0.80592900  0.19407100  0.97042350  1
  S  S5_6  1  0.80592900  0.69407100  0.47042350  1
  S  S5_7  1  0.80592900  0.69407100  0.97042350  1
loop_
_geom_bond_atom_site_label_1
_geom_bond_atom_site_label_2
_geom_bond_distance
_geom_bond_site_symmetry_2
Cs0_0 S4_2 3.543827 1_545
Cs0_0 S4_4 3.543827 1_555
Cs0_0 S1_4 3.622525 1_555
Cs0_0 S1_2 3.622525 1_545
Cs0_0 S2_2 3.622525 1_545
Cs0_0 S2_4 3.622525 1_555
Cs0_0 S0_0 3.764959 1_555
Cs0_0 S5_1 3.764959 1_554
Cs0_0 Cs0_6 4.000090 1_555
Cs0_0 Cs0_6 4.000090 1_445
Cs0_1 S4_3 3.543827 1_545
Cs0_1 S4_5 3.543827 1_555
Cs0_1 S1_5 3.622525 1_555
Cs0_1 S1_3 3.622525 1_545
Cs0_1 S2_3 3.622525 1_545
Cs0_1 S2_5 3.622525 1_555
Cs0_1 S0_1 3.764959 1_555
Cs0_1 S5_0 3.764959 1_555
Cs0_1 Cs0_7 4.000090 1_555
Cs0_1 Cs0_7 4.000090 1_445
Cs0_2 S4_6 3.543827 1_555
Cs0_2 S4_0 3.543827 1_555
Cs0_2 S1_0 3.622525 1_555
Cs0_2 S2_0 3.622525 1_555
Cs0_2 S1_6 3.622525 1_555
Cs0_2 S2_6 3.622525 1_555
Cs0_2 S5_3 3.764959 1_554
Cs0_2 S0_2 3.764959 1_555
Cs0_2 Cs0_4 4.000090 1_455
Cs0_2 Cs0_4 4.000090 1_565
Cs0_3 S4_7 3.543827 1_555
Cs0_3 S4_1 3.543827 1_555
Cs0_3 S1_1 3.622525 1_555
Cs0_3 S1_7 3.622525 1_555
Cs0_3 S2_1 3.622525 1_555
Cs0_3 S2_7 3.622525 1_555
Cs0_3 S0_3 3.764959 1_555
Cs0_3 S5_2 3.764959 1_555
Cs0_3 Cs0_5 4.000090 1_565
Cs0_3 Cs0_5 4.000090 1_455
Cs0_4 S4_0 3.543827 1_655
Cs0_4 S4_6 3.543827 1_545
Cs0_4 S1_6 3.622525 1_545
Cs0_4 S2_6 3.622525 1_545
Cs0_4 S1_0 3.622525 1_655
Cs0_4 S2_0 3.622525 1_655
Cs0_4 S0_4 3.764959 1_555
Cs0_4 S5_5 3.764959 1_554
Cs0_5 S4_1 3.543827 1_655
Cs0_5 S4_7 3.543827 1_545
Cs0_5 S1_7 3.622525 1_545
Cs0_5 S2_7 3.622525 1_545
Cs0_5 S1_1 3.622525 1_655
Cs0_5 S2_1 3.622525 1_655
Cs0_5 S0_5 3.764959 1_555
Cs0_5 S5_4 3.764959 1_555
Cs0_6 S4_2 3.543827 1_655
Cs0_6 S4_4 3.543827 1_555
Cs0_6 S1_4 3.622525 1_555
Cs0_6 S2_4 3.622525 1_555
Cs0_6 S1_2 3.622525 1_655
Cs0_6 S2_2 3.622525 1_655
Cs0_6 S5_7 3.764959 1_554
Cs0_6 S0_6 3.764959 1_555
Cs0_7 S4_3 3.543827 1_655
Cs0_7 S4_5 3.543827 1_555
Cs0_7 S1_5 3.622525 1_555
Cs0_7 S2_5 3.622525 1_555
Cs0_7 S1_3 3.622525 1_655
Cs0_7 S2_3 3.622525 1_655
Cs0_7 S0_7 3.764959 1_555
Cs0_7 S5_6 3.764959 1_555
Cs1_0 S3_4 3.543827 1_455
Cs1_0 S3_2 3.543827 1_555
Cs1_0 S0_4 3.622525 1_455
Cs1_0 S0_2 3.622525 1_555
Cs1_0 S5_4 3.622525 1_455
Cs1_0 S5_2 3.622525 1_555
Cs1_0 S1_0 3.764959 1_555
Cs1_0 S2_1 3.764959 1_555
Cs1_0 Cs1_6 4.000090 1_445
Cs1_0 Cs1_6 4.000090 1_555
Cs1_1 S3_5 3.543827 1_455
Cs1_1 S3_3 3.543827 1_555
Cs1_1 S5_5 3.622525 1_455
Cs1_1 S5_3 3.622525 1_555
Cs1_1 S0_3 3.622525 1_555
Cs1_1 S0_5 3.622525 1_455
Cs1_1 S2_0 3.764959 1_556
Cs1_1 S1_1 3.764959 1_555
Cs1_1 Cs1_7 4.000090 1_445
Cs1_1 Cs1_7 4.000090 1_555
Cs1_2 S3_0 3.543827 1_565
Cs1_2 S3_6 3.543827 1_455
Cs1_2 S0_6 3.622525 1_455
Cs1_2 S0_0 3.622525 1_565
Cs1_2 S5_6 3.622525 1_455
Cs1_2 S5_0 3.622525 1_565
Cs1_2 S1_2 3.764959 1_555
Cs1_2 S2_3 3.764959 1_555
Cs1_2 Cs1_4 4.000090 1_455
Cs1_2 Cs1_4 4.000090 1_565
Cs1_3 S3_1 3.543827 1_565
Cs1_3 S3_7 3.543827 1_455
Cs1_3 S5_7 3.622525 1_455
Cs1_3 S0_7 3.622525 1_455
Cs1_3 S5_1 3.622525 1_565
Cs1_3 S0_1 3.622525 1_565
Cs1_3 S2_2 3.764959 1_556
Cs1_3 S1_3 3.764959 1_555
Cs1_3 Cs1_5 4.000090 1_455
Cs1_3 Cs1_5 4.000090 1_565
Cs1_4 S3_6 3.543827 1_555
Cs1_4 S3_0 3.543827 1_555
Cs1_4 S0_0 3.622525 1_555
Cs1_4 S0_6 3.622525 1_555
Cs1_4 S5_0 3.622525 1_555
Cs1_4 S5_6 3.622525 1_555
Cs1_4 S1_4 3.764959 1_555
Cs1_4 S2_5 3.764959 1_555
Cs1_5 S3_7 3.543827 1_555
Cs1_5 S3_1 3.543827 1_555
Cs1_5 S5_1 3.622525 1_555
Cs1_5 S5_7 3.622525 1_555
Cs1_5 S0_1 3.622525 1_555
Cs1_5 S0_7 3.622525 1_555
Cs1_5 S2_4 3.764959 1_556
Cs1_5 S1_5 3.764959 1_555
Cs1_6 S3_4 3.543827 1_565
Cs1_6 S3_2 3.543827 1_555
Cs1_6 S0_2 3.622525 1_555
Cs1_6 S0_4 3.622525 1_565
Cs1_6 S5_2 3.622525 1_555
Cs1_6 S5_4 3.622525 1_565
Cs1_6 S1_6 3.764959 1_555
Cs1_6 S2_7 3.764959 1_555
Cs1_7 S3_5 3.543827 1_565
Cs1_7 S3_3 3.543827 1_555
Cs1_7 S5_3 3.622525 1_555
Cs1_7 S0_3 3.622525 1_555
Cs1_7 S5_5 3.622525 1_565
Cs1_7 S0_5 3.622525 1_565
Cs1_7 S2_6 3.764959 1_556
Cs1_7 S1_7 3.764959 1_555
Cu0_0 S0_0 2.313117 1_555
Cu0_0 S5_0 2.313117 1_555
Cu0_0 S3_2 2.400215 1_555
Cu0_0 S3_4 2.400215 1_455
Cu0_1 S5_1 2.313117 1_555
Cu0_1 S0_1 2.313117 1_555
Cu0_1 S3_3 2.400215 1_555
Cu0_1 S3_5 2.400215 1_455
Cu0_2 S0_2 2.313117 1_555
Cu0_2 S5_2 2.313117 1_555
Cu0_2 S3_6 2.400215 1_455
Cu0_2 S3_0 2.400215 1_565
Cu0_3 S5_3 2.313117 1_555
Cu0_3 S0_3 2.313117 1_555
Cu0_3 S3_7 2.400215 1_455
Cu0_3 S3_1 2.400215 1_565
Cu0_4 S0_4 2.313117 1_555
Cu0_4 S5_4 2.313117 1_555
Cu0_4 S3_6 2.400215 1_555
Cu0_4 S3_0 2.400215 1_555
Cu0_5 S5_5 2.313117 1_555
Cu0_5 S0_5 2.313117 1_555
Cu0_5 S3_7 2.400215 1_555
Cu0_5 S3_1 2.400215 1_555
Cu0_6 S0_6 2.313117 1_555
Cu0_6 S5_6 2.313117 1_555
Cu0_6 S3_4 2.400215 1_565
Cu0_6 S3_2 2.400215 1_555
Cu0_7 S5_7 2.313117 1_555
Cu0_7 S0_7 2.313117 1_555
Cu0_7 S3_5 2.400215 1_565
Cu0_7 S3_3 2.400215 1_555
Cu1_0 S1_0 2.313117 1_555
Cu1_0 S2_0 2.313117 1_555
Cu1_0 S4_4 2.400215 1_555
Cu1_0 S4_2 2.400215 1_545
Cu1_1 S1_1 2.313117 1_555
Cu1_1 S2_1 2.313117 1_555
Cu1_1 S4_5 2.400215 1_555
Cu1_1 S4_3 2.400215 1_545
Cu1_2 S1_2 2.313117 1_555
Cu1_2 S2_2 2.313117 1_555
Cu1_2 S4_6 2.400215 1_555
Cu1_2 S4_0 2.400215 1_555
Cu1_3 S1_3 2.313117 1_555
Cu1_3 S2_3 2.313117 1_555
Cu1_3 S4_7 2.400215 1_555
Cu1_3 S4_1 2.400215 1_555
Cu1_4 S1_4 2.313117 1_555
Cu1_4 S2_4 2.313117 1_555
Cu1_4 S4_6 2.400215 1_545
Cu1_4 S4_0 2.400215 1_655
Cu1_5 S1_5 2.313117 1_555
Cu1_5 S2_5 2.313117 1_555
Cu1_5 S4_7 2.400215 1_545
Cu1_5 S4_1 2.400215 1_655
Cu1_6 S1_6 2.313117 1_555
Cu1_6 S2_6 2.313117 1_555
Cu1_6 S4_2 2.400215 1_655
Cu1_6 S4_4 2.400215 1_555
Cu1_7 S1_7 2.313117 1_555
Cu1_7 S2_7 2.313117 1_555
Cu1_7 S4_3 2.400215 1_655
Cu1_7 S4_5 2.400215 1_555
S0_0 U0_0 2.716698 1_555
S0_0 U0_6 2.716698 1_555
S0_1 U0_7 2.716698 1_555
S0_1 U0_1 2.716698 1_555
S0_2 U0_4 2.716698 1_565
S0_2 U0_2 2.716698 1_555
S0_3 U0_5 2.716698 1_565
S0_3 U0_3 2.716698 1_555
S0_4 U0_4 2.716698 1_555
S0_4 U0_2 2.716698 1_655
S0_5 U0_3 2.716698 1_655
S0_5 U0_5 2.716698 1_555
S0_6 U0_6 2.716698 1_555
S0_6 U0_0 2.716698 1_665
S0_7 U0_7 2.716698 1_555
S0_7 U0_1 2.716698 1_665
S1_0 U0_0 2.716698 1_555
S1_0 U0_6 2.716698 1_555
S1_1 U0_7 2.716698 1_555
S1_1 U0_1 2.716698 1_555
S1_2 U0_4 2.716698 1_565
S1_2 U0_2 2.716698 1_555
S1_3 U0_5 2.716698 1_565
S1_3 U0_3 2.716698 1_555
S1_4 U0_4 2.716698 1_555
S1_4 U0_2 2.716698 1_655
S1_5 U0_3 2.716698 1_655
S1_5 U0_5 2.716698 1_555
S1_6 U0_6 2.716698 1_555
S1_6 U0_0 2.716698 1_665
S1_7 U0_7 2.716698 1_555
S1_7 U0_1 2.716698 1_665
S2_0 U1_6 2.716698 1_555
S2_0 U1_0 2.716698 1_555
S2_1 U1_1 2.716698 1_555
S2_1 U1_7 2.716698 1_555
S2_2 U1_4 2.716698 1_565
S2_2 U1_2 2.716698 1_555
S2_3 U1_5 2.716698 1_565
S2_3 U1_3 2.716698 1_555
S2_4 U1_2 2.716698 1_655
S2_4 U1_4 2.716698 1_555
S2_5 U1_3 2.716698 1_655
S2_5 U1_5 2.716698 1_555
S2_6 U1_6 2.716698 1_555
S2_6 U1_0 2.716698 1_665
S2_7 U1_1 2.716698 1_665
S2_7 U1_7 2.716698 1_555
S3_0 U0_4 2.704229 1_555
S3_0 U1_5 2.704229 1_555
S3_1 U1_4 2.704229 1_556
S3_1 U0_5 2.704229 1_555
S3_2 U0_6 2.704229 1_555
S3_2 U1_7 2.704229 1_555
S3_3 U1_6 2.704229 1_556
S3_3 U0_7 2.704229 1_555
S3_4 U0_0 2.704229 1_655
S3_4 U1_1 2.704229 1_655
S3_5 U1_0 2.704229 1_656
S3_5 U0_1 2.704229 1_655
S3_6 U0_2 2.704229 1_655
S3_6 U1_3 2.704229 1_655
S3_7 U1_2 2.704229 1_656
S3_7 U0_3 2.704229 1_655
S4_0 U0_2 2.704229 1_555
S4_0 U1_2 2.704229 1_555
S4_1 U0_3 2.704229 1_555
S4_1 U1_3 2.704229 1_555
S4_2 U1_0 2.704229 1_565
S4_2 U0_0 2.704229 1_565
S4_3 U0_1 2.704229 1_565
S4_3 U1_1 2.704229 1_565
S4_4 U0_6 2.704229 1_555
S4_4 U1_6 2.704229 1_555
S4_5 U0_7 2.704229 1_555
S4_5 U1_7 2.704229 1_555
S4_6 U0_4 2.704229 1_565
S4_6 U1_4 2.704229 1_565
S4_7 U0_5 2.704229 1_565
S4_7 U1_5 2.704229 1_565
S5_0 U1_1 2.716698 1_555
S5_0 U1_7 2.716698 1_555
S5_1 U1_0 2.716698 1_556
S5_1 U1_6 2.716698 1_556
S5_2 U1_5 2.716698 1_565
S5_2 U1_3 2.716698 1_555
S5_3 U1_4 2.716698 1_566
S5_3 U1_2 2.716698 1_556
S5_4 U1_3 2.716698 1_655
S5_4 U1_5 2.716698 1_555
S5_5 U1_4 2.716698 1_556
S5_5 U1_2 2.716698 1_656
S5_6 U1_1 2.716698 1_665
S5_6 U1_7 2.716698 1_555
S5_7 U1_0 2.716698 1_666
S5_7 U1_6 2.716698 1_556
