# generated using pymatgen
data_Sr3(CrN2)2
_symmetry_space_group_name_H-M   'P 1'
_cell_length_a   7.12515590
_cell_length_b   8.68255610
_cell_length_c   5.60442184
_cell_angle_alpha   89.99999286
_cell_angle_beta   93.44383189
_cell_angle_gamma   127.53810011
_symmetry_Int_Tables_number   1
_chemical_formula_structural   Sr3(CrN2)2
_chemical_formula_sum   'Sr6 Cr4 N8'
_cell_volume   274.13716992
_cell_formula_units_Z   2
loop_
 _symmetry_equiv_pos_site_id
 _symmetry_equiv_pos_as_xyz
  1  'x, y, z'
loop_
 _atom_site_type_symbol
 _atom_site_label
 _atom_site_symmetry_multiplicity
 _atom_site_fract_x
 _atom_site_fract_y
 _atom_site_fract_z
 _atom_site_occupancy
  Sr  Sr0  1  0.24552600  0.99287400  0.05206600  1
  Sr  Sr1  1  0.75447400  0.74734700  0.44793400  1
  Sr  Sr2  1  0.75447400  0.00712600  0.94793400  1
  Sr  Sr3  1  0.24552600  0.25265300  0.55206600  1
  Sr  Sr4  1  0.00000000  0.60200000  0.75000000  1
  Sr  Sr5  1  0.00000000  0.39800000  0.25000000  1
  Cr  Cr0  1  0.58392100  0.16579300  0.57760100  1
  Cr  Cr1  1  0.41607900  0.58187300  0.92239900  1
  Cr  Cr2  1  0.41607900  0.83420700  0.42239900  1
  Cr  Cr3  1  0.58392100  0.41812700  0.07760100  1
  N  N0  1  0.25927700  0.94478700  0.52356100  1
  N  N1  1  0.74072300  0.68551000  0.97643900  1
  N  N2  1  0.74072300  0.05521300  0.47643900  1
  N  N3  1  0.25927700  0.31449000  0.02356100  1
  N  N4  1  0.64294800  0.27500500  0.88656700  1
  N  N5  1  0.35705200  0.63205800  0.61343300  1
  N  N6  1  0.35705200  0.72499500  0.11343300  1
  N  N7  1  0.64294800  0.36794200  0.38656700  1
loop_
_geom_bond_atom_site_label_1
_geom_bond_atom_site_label_2
_geom_bond_distance
_geom_bond_site_symmetry_2
Sr0 Sr4 3.139028 1_554
Sr0 Sr2 3.588862 1_464
Sr1 Sr4 3.139021 1_655
Sr1 Sr3 3.588873 1_665
Sr2 Sr5 3.139028 1_656
Sr3 Sr5 3.139021 1_555
Sr4 Sr5 3.315069 1_556
Sr4 Sr5 3.315069 1_555
Cr0 N4 1.871076 1_555
Cr0 N7 1.886353 1_555
Cr0 N0 1.905641 1_545
Cr0 N2 1.968433 1_555
Cr0 Sr3 2.928672 1_555
Cr0 Sr2 3.069100 1_555
Cr1 N5 1.871076 1_555
Cr1 N6 1.886354 1_556
Cr1 N1 1.905643 1_555
Cr1 N3 1.968440 1_556
Cr1 Sr2 2.928659 1_565
Cr1 Sr3 3.069101 1_555
Cr2 N6 1.871076 1_555
Cr2 N5 1.886353 1_555
Cr2 N2 1.905641 1_565
Cr2 N0 1.968433 1_555
Cr2 Sr1 2.928672 1_555
Cr2 Sr0 3.069100 1_555
Cr3 N7 1.871076 1_555
Cr3 N4 1.886354 1_554
Cr3 N3 1.905643 1_555
Cr3 N1 1.968440 1_554
Cr3 Sr0 2.928659 1_545
Cr3 Sr1 3.069101 1_555
N0 Sr0 2.680530 1_555
N0 Sr4 2.731859 1_555
N0 Sr3 2.738872 1_565
N0 Sr1 2.891118 1_455
N0 Sr0 3.006971 1_556
N1 Sr1 2.680529 1_556
N1 Sr4 2.731859 1_655
N1 Sr2 2.738863 1_565
N1 Sr0 2.891119 1_656
N1 Sr1 3.006969 1_555
N2 Sr2 2.680530 1_555
N2 Sr5 2.731859 1_655
N2 Sr1 2.738872 1_545
N2 Sr3 2.891118 1_655
N2 Sr2 3.006971 1_554
N3 Sr3 2.680529 1_554
N3 Sr5 2.731859 1_555
N3 Sr0 2.738863 1_545
N3 Sr2 2.891119 1_454
N3 Sr3 3.006969 1_555
N4 Sr4 2.559491 1_655
N4 Sr0 2.596578 1_546
N4 Sr5 2.797877 1_656
N4 Sr2 2.894618 1_555
N4 Sr3 3.203616 1_555
N5 Sr4 2.559487 1_555
N5 Sr1 2.596583 1_555
N5 Sr5 2.797879 1_555
N5 Sr3 2.894618 1_555
N5 Sr2 3.203608 1_565
N6 Sr5 2.559491 1_555
N6 Sr2 2.596578 1_564
N6 Sr4 2.797877 1_554
N6 Sr0 2.894618 1_555
N6 Sr1 3.203616 1_555
N7 Sr5 2.559487 1_655
N7 Sr3 2.596583 1_555
N7 Sr4 2.797879 1_655
N7 Sr1 2.894618 1_555
N7 Sr0 3.203608 1_545
