# generated using pymatgen
data_SrCaTi2(GeO5)2
_symmetry_space_group_name_H-M   'P 1'
_cell_length_a   9.06532100
_cell_length_b   6.82132700
_cell_length_c   7.30368264
_cell_angle_alpha   65.96491966
_cell_angle_beta   90.00000000
_cell_angle_gamma   90.00000000
_symmetry_Int_Tables_number   1
_chemical_formula_structural   SrCaTi2(GeO5)2
_chemical_formula_sum   'Sr2 Ca2 Ti4 Ge4 O20'
_cell_volume   412.48259385
_cell_formula_units_Z   2
loop_
 _symmetry_equiv_pos_site_id
 _symmetry_equiv_pos_as_xyz
  1  'x, y, z'
loop_
 _atom_site_type_symbol
 _atom_site_label
 _atom_site_symmetry_multiplicity
 _atom_site_fract_x
 _atom_site_fract_y
 _atom_site_fract_z
 _atom_site_occupancy
  Sr  Sr0  1  0.07765400  0.74925800  0.49277000  1
  Sr  Sr1  1  0.57765400  0.25074200  0.50723000  1
  Ca  Ca0  1  0.92447400  0.24995900  0.00489800  1
  Ca  Ca1  1  0.42447400  0.75004100  0.99510200  1
  Ti  Ti0  1  0.24658100  0.24649100  0.76669600  1
  Ti  Ti1  1  0.74658100  0.75350900  0.23330400  1
  Ti  Ti2  1  0.75218300  0.74432300  0.74041200  1
  Ti  Ti3  1  0.25218300  0.25567700  0.25958800  1
  Ge  Ge0  1  0.06625000  0.75230800  0.99505700  1
  Ge  Ge1  1  0.56625000  0.24769200  0.00494300  1
  Ge  Ge2  1  0.93517600  0.24807600  0.50410600  1
  Ge  Ge3  1  0.43517600  0.75192400  0.49589400  1
  O  O0  1  0.31558200  0.95023200  0.32819100  1
  O  O1  1  0.81558200  0.04976800  0.67180900  1
  O  O2  1  0.69282400  0.06020800  0.17164500  1
  O  O3  1  0.19282400  0.93979200  0.82835500  1
  O  O4  1  0.18175500  0.24664600  0.00010000  1
  O  O5  1  0.68175500  0.75335400  0.99990000  1
  O  O6  1  0.80631400  0.75256500  0.50090200  1
  O  O7  1  0.30631400  0.24743500  0.49909800  1
  O  O8  1  0.04056900  0.34340300  0.65512300  1
  O  O9  1  0.54056900  0.65659700  0.34487700  1
  O  O10  1  0.95640600  0.64020500  0.86027600  1
  O  O11  1  0.45640600  0.35979500  0.13972400  1
  O  O12  1  0.19249600  0.56453700  0.16279000  1
  O  O13  1  0.69249600  0.43546300  0.83721000  1
  O  O14  1  0.81556100  0.44864900  0.33708700  1
  O  O15  1  0.31556100  0.55135100  0.66291300  1
  O  O16  1  0.45532200  0.14005000  0.86621800  1
  O  O17  1  0.95532200  0.85995000  0.13378200  1
  O  O18  1  0.54085200  0.84252700  0.65177800  1
  O  O19  1  0.04085200  0.15747300  0.34822200  1
loop_
_geom_bond_atom_site_label_1
_geom_bond_atom_site_label_2
_geom_bond_distance
_geom_bond_site_symmetry_2
Ca0 O4 2.332846 1_655
Ca0 O10 2.448523 1_554
Ca0 O17 2.449886 1_545
Ca0 O13 2.502234 1_554
Ca0 O2 2.506869 1_555
Ca0 O19 2.551491 1_655
Ca0 O8 2.591078 1_654
Ca1 O5 2.332846 1_555
Ca1 O11 2.448523 1_556
Ca1 O16 2.449886 1_565
Ca1 O12 2.502234 1_556
Ca1 O3 2.506869 1_555
Ca1 O18 2.551491 1_555
Ca1 O9 2.591078 1_556
Ge0 O10 1.777229 1_455
Ge0 O3 1.779372 1_555
Ge0 O12 1.781279 1_556
Ge0 O17 1.784088 1_456
Ge1 O11 1.777229 1_555
Ge1 O2 1.779372 1_555
Ge1 O13 1.781279 1_554
Ge1 O16 1.784088 1_554
Ge2 O8 1.771008 1_655
Ge2 O1 1.776466 1_555
Ge2 O19 1.780206 1_655
Ge2 O14 1.782196 1_555
Ge3 O9 1.771008 1_555
Ge3 O0 1.776466 1_555
Ge3 O18 1.780206 1_555
Ge3 O15 1.782196 1_555
O0 Ti3 2.017946 1_565
O0 Sr0 2.575678 1_555
O1 Ti2 2.017946 1_545
O1 Sr1 2.575678 1_555
O2 Ti1 2.012382 1_545
O2 Sr1 3.373665 1_555
O3 Ti0 2.012382 1_565
O3 Sr0 3.373665 1_555
O4 Ti0 1.803567 1_554
O4 Ti3 2.024444 1_555
O5 Ti1 1.803567 1_556
O5 Ti2 2.024444 1_555
O6 Ti2 1.795527 1_555
O6 Ti1 2.025559 1_555
O6 Sr0 2.460826 1_655
O7 Ti3 1.795527 1_555
O7 Ti0 2.025559 1_555
O7 Sr1 2.460826 1_555
O8 Ti0 2.037165 1_555
O8 Sr0 2.551349 1_555
O9 Ti1 2.037165 1_555
O9 Sr1 2.551349 1_555
O10 Ti2 2.047396 1_555
O10 Sr0 2.709179 1_655
O11 Ti3 2.047396 1_555
O11 Sr1 2.709179 1_555
O12 Ti3 2.004499 1_555
O12 Sr0 3.309642 1_555
O13 Ti2 2.004499 1_555
O13 Sr1 3.309642 1_555
O14 Ti1 2.001520 1_555
O14 Sr1 2.579053 1_555
O15 Ti0 2.001520 1_555
O15 Sr0 2.579053 1_555
O16 Ti0 2.050958 1_555
O16 Sr1 2.657409 1_555
O17 Ti1 2.050958 1_555
O17 Sr0 2.657409 1_655
O18 Ti2 2.045675 1_555
O18 Sr1 2.566124 1_565
O19 Ti3 2.045675 1_555
O19 Sr0 2.566124 1_545
