# generated using pymatgen
data_V3(Bi4O11)2
_symmetry_space_group_name_H-M   'P 1'
_cell_length_a   5.61994541
_cell_length_b   8.54042812
_cell_length_c   10.98179459
_cell_angle_alpha   88.85144643
_cell_angle_beta   87.11835376
_cell_angle_gamma   113.40154430
_symmetry_Int_Tables_number   1
_chemical_formula_structural   V3(Bi4O11)2
_chemical_formula_sum   'V3 Bi8 O22'
_cell_volume   482.66173949
_cell_formula_units_Z   1
loop_
 _symmetry_equiv_pos_site_id
 _symmetry_equiv_pos_as_xyz
  1  'x, y, z'
loop_
 _atom_site_type_symbol
 _atom_site_label
 _atom_site_symmetry_multiplicity
 _atom_site_fract_x
 _atom_site_fract_y
 _atom_site_fract_z
 _atom_site_occupancy
  V  V0  1  0.11678800  0.96958600  0.26064800  1
  V  V1  1  0.50000000  0.00000000  0.00000000  1
  V  V2  1  0.88321200  0.03041400  0.73935200  1
  Bi  Bi0  1  0.13414200  0.31631300  0.02380600  1
  Bi  Bi1  1  0.08562200  0.32115300  0.47728500  1
  Bi  Bi2  1  0.33311200  0.63757500  0.75535800  1
  Bi  Bi3  1  0.40380100  0.68640000  0.24578700  1
  Bi  Bi4  1  0.59619900  0.31360000  0.75421300  1
  Bi  Bi5  1  0.66688800  0.36242500  0.24464200  1
  Bi  Bi6  1  0.86585800  0.68368700  0.97619400  1
  Bi  Bi7  1  0.91437800  0.67884700  0.52271500  1
  O  O0  1  0.02872800  0.51328100  0.13322400  1
  O  O1  1  0.05724800  0.54859300  0.38211500  1
  O  O2  1  0.23227500  0.19843100  0.24019800  1
  O  O3  1  0.27750000  0.78195000  0.61778900  1
  O  O4  1  0.31124300  0.83166000  0.88830200  1
  O  O5  1  0.19865500  0.12799000  0.68505000  1
  O  O6  1  0.19012200  0.88497800  0.12043100  1
  O  O7  1  0.27558500  0.90950900  0.36649200  1
  O  O8  1  0.64677900  0.85748500  0.05569100  1
  O  O9  1  0.48595200  0.49620500  0.63618600  1
  O  O10  1  0.46096600  0.49373400  0.88327700  1
  O  O11  1  0.53903400  0.50626600  0.11672300  1
  O  O12  1  0.51404800  0.50379500  0.36381400  1
  O  O13  1  0.35322100  0.14251500  0.94430900  1
  O  O14  1  0.80987800  0.11502200  0.87956900  1
  O  O15  1  0.80134500  0.87201000  0.31495000  1
  O  O16  1  0.68875700  0.16834000  0.11169800  1
  O  O17  1  0.72250000  0.21805000  0.38221100  1
  O  O18  1  0.76772500  0.80156900  0.75980200  1
  O  O19  1  0.72441500  0.09049100  0.63350800  1
  O  O20  1  0.94275200  0.45140700  0.61788500  1
  O  O21  1  0.97127200  0.48671900  0.86677600  1
loop_
_geom_bond_atom_site_label_1
_geom_bond_atom_site_label_2
_geom_bond_distance
_geom_bond_site_symmetry_2
Bi0 O0 2.329305 1_555
Bi0 O10 2.337034 1_554
Bi0 O13 2.424203 1_554
Bi0 O16 2.447326 1_455
Bi0 O11 2.493652 1_555
Bi0 O14 2.587691 1_454
Bi0 O21 2.654406 1_454
Bi0 O2 2.727962 1_555
Bi1 O17 2.203116 1_455
Bi1 O20 2.218094 1_455
Bi1 O1 2.252156 1_555
Bi1 O12 2.533807 1_555
Bi1 O19 2.698628 1_455
Bi1 O9 2.858222 1_555
Bi1 O2 3.022672 1_555
Bi1 O5 3.026241 1_555
Bi2 O3 2.044338 1_555
Bi2 O9 2.163880 1_555
Bi2 O10 2.175382 1_555
Bi2 O21 2.213082 1_455
Bi2 O4 2.266039 1_555
Bi2 O18 2.286297 1_555
Bi2 O20 2.697858 1_455
Bi3 O1 2.288039 1_555
Bi3 O12 2.294177 1_555
Bi3 O15 2.342413 1_555
Bi3 O11 2.420970 1_555
Bi3 O0 2.452936 1_555
Bi3 O8 2.522664 1_555
Bi3 O7 2.646300 1_555
Bi3 O6 2.811369 1_555
Bi4 O20 2.288039 1_555
Bi4 O9 2.294177 1_555
Bi4 O5 2.342413 1_555
Bi4 O10 2.420970 1_555
Bi4 O21 2.452936 1_555
Bi4 O13 2.522664 1_555
Bi4 O19 2.646300 1_555
Bi4 O14 2.811369 1_555
Bi5 O17 2.044338 1_555
Bi5 O12 2.163880 1_555
Bi5 O11 2.175382 1_555
Bi5 O0 2.213082 1_655
Bi5 O16 2.266039 1_555
Bi5 O2 2.286297 1_555
Bi5 O1 2.697858 1_655
Bi6 O21 2.329305 1_555
Bi6 O11 2.337034 1_556
Bi6 O8 2.424203 1_556
Bi6 O4 2.447326 1_655
Bi6 O10 2.493652 1_555
Bi6 O6 2.587691 1_656
Bi6 O0 2.654406 1_656
Bi6 O18 2.727962 1_555
Bi7 O3 2.203116 1_655
Bi7 O1 2.218094 1_655
Bi7 O20 2.252156 1_555
Bi7 O9 2.533807 1_555
Bi7 O7 2.698628 1_655
Bi7 O12 2.858222 1_555
Bi7 O18 3.022672 1_555
Bi7 O15 3.026241 1_555
O0 O11 2.744054 1_455
O0 O1 2.761540 1_555
O0 O16 2.826169 1_455
O0 O11 2.888926 1_555
O0 O6 2.932869 1_555
O0 O21 2.963288 1_454
O1 O20 2.669998 1_455
O1 O17 2.699901 1_455
O1 O12 2.740191 1_555
O1 O7 2.826548 1_555
O1 O12 2.939912 1_455
O2 V0 1.803225 1_545
O4 V1 1.920155 1_566
O4 O8 2.649150 1_556
O4 O6 2.699511 1_556
O5 V2 1.700903 1_455
O5 O9 2.931909 1_555
O6 V0 1.811197 1_555
O6 V1 2.025921 1_565
O7 V0 1.689637 1_555
O8 V1 1.831480 1_565
O10 O11 2.619746 1_556
O10 O9 2.709299 1_555
O10 O21 2.744054 1_455
O10 O18 2.782871 1_555
O10 O13 2.872120 1_555
O10 O21 2.888926 1_555
O11 O12 2.709299 1_555
O11 O2 2.782871 1_555
O11 O8 2.872120 1_555
O12 O2 2.868700 1_555
O12 O15 2.931909 1_555
O12 O9 2.985401 1_555
O13 V1 1.831480 1_556
O13 O16 2.649150 1_556
O13 O4 2.657939 1_545
O14 V2 1.811197 1_555
O14 V1 2.025921 1_556
O14 O16 2.699511 1_556
O14 O21 2.932869 1_555
O15 V0 1.700903 1_655
O16 V1 1.920155 1_555
O16 O8 2.657939 1_545
O17 O7 2.843643 1_545
O18 V2 1.803225 1_565
O18 O9 2.868700 1_555
O19 V2 1.689637 1_555
O19 O20 2.826548 1_555
O19 O3 2.843643 1_545
O20 O3 2.699901 1_655
O20 O9 2.740191 1_555
O20 O21 2.761540 1_555
O20 O9 2.939912 1_655
O21 O4 2.826169 1_655
