# generated using pymatgen
data_V2Cr2Fe
_symmetry_space_group_name_H-M   'P 1'
_cell_length_a   20.88186220
_cell_length_b   20.68414206
_cell_length_c   5.02811926
_cell_angle_alpha   85.29448470
_cell_angle_beta   80.82031739
_cell_angle_gamma   13.88519791
_symmetry_Int_Tables_number   1
_chemical_formula_structural   V2Cr2Fe
_chemical_formula_sum   'V16 Cr16 Fe8'
_cell_volume   489.57950361
_cell_formula_units_Z   8
loop_
 _symmetry_equiv_pos_site_id
 _symmetry_equiv_pos_as_xyz
  1  'x, y, z'
loop_
 _atom_site_type_symbol
 _atom_site_label
 _atom_site_symmetry_multiplicity
 _atom_site_fract_x
 _atom_site_fract_y
 _atom_site_fract_z
 _atom_site_occupancy
  V  V0_0  1  0.39856950  0.39856950  0.10143050  1
  V  V0_1  1  0.39856950  0.39856950  0.60143050  1
  V  V0_2  1  0.39856950  0.89856950  0.10143050  1
  V  V0_3  1  0.39856950  0.89856950  0.60143050  1
  V  V0_4  1  0.89856950  0.39856950  0.10143050  1
  V  V0_5  1  0.89856950  0.39856950  0.60143050  1
  V  V0_6  1  0.89856950  0.89856950  0.10143050  1
  V  V0_7  1  0.89856950  0.89856950  0.60143050  1
  V  V1_0  1  0.20183050  0.20183050  0.29816950  1
  V  V1_1  1  0.20183050  0.20183050  0.79816950  1
  V  V1_2  1  0.20183050  0.70183050  0.29816950  1
  V  V1_3  1  0.20183050  0.70183050  0.79816950  1
  V  V1_4  1  0.70183050  0.20183050  0.29816950  1
  V  V1_5  1  0.70183050  0.20183050  0.79816950  1
  V  V1_6  1  0.70183050  0.70183050  0.29816950  1
  V  V1_7  1  0.70183050  0.70183050  0.79816950  1
  Cr  Cr0_0  1  0.29992750  0.29992750  0.20007250  1
  Cr  Cr0_1  1  0.29992750  0.29992750  0.70007250  1
  Cr  Cr0_2  1  0.29992750  0.79992750  0.20007250  1
  Cr  Cr0_3  1  0.29992750  0.79992750  0.70007250  1
  Cr  Cr0_4  1  0.79992750  0.29992750  0.20007250  1
  Cr  Cr0_5  1  0.79992750  0.29992750  0.70007250  1
  Cr  Cr0_6  1  0.79992750  0.79992750  0.20007250  1
  Cr  Cr0_7  1  0.79992750  0.79992750  0.70007250  1
  Cr  Cr1_0  1  0.09795950  0.09795950  0.40204050  1
  Cr  Cr1_1  1  0.09795950  0.09795950  0.90204050  1
  Cr  Cr1_2  1  0.09795950  0.59795950  0.40204050  1
  Cr  Cr1_3  1  0.09795950  0.59795950  0.90204050  1
  Cr  Cr1_4  1  0.59795950  0.09795950  0.40204050  1
  Cr  Cr1_5  1  0.59795950  0.09795950  0.90204050  1
  Cr  Cr1_6  1  0.59795950  0.59795950  0.40204050  1
  Cr  Cr1_7  1  0.59795950  0.59795950  0.90204050  1
  Fe  Fe0_0  1  0.00171300  0.00171300  0.49828700  1
  Fe  Fe0_1  1  0.00171300  0.00171300  0.99828700  1
  Fe  Fe0_2  1  0.00171300  0.50171300  0.49828700  1
  Fe  Fe0_3  1  0.00171300  0.50171300  0.99828700  1
  Fe  Fe0_4  1  0.50171300  0.00171300  0.49828700  1
  Fe  Fe0_5  1  0.50171300  0.00171300  0.99828700  1
  Fe  Fe0_6  1  0.50171300  0.50171300  0.49828700  1
  Fe  Fe0_7  1  0.50171300  0.50171300  0.99828700  1
loop_
_geom_bond_atom_site_label_1
_geom_bond_atom_site_label_2
_geom_bond_distance
_geom_bond_site_symmetry_2
V0_0 V0_6 2.514060 1_545
V0_0 V0_1 2.514060 1_555
V0_0 V0_6 2.514060 1_455
V0_0 V0_1 2.514060 1_554
V0_0 V1_5 2.625021 1_554
V0_0 V1_2 2.625021 1_555
V0_0 V0_7 2.920920 1_544
V0_0 V0_7 2.920920 1_455
V0_0 V1_3 2.990877 1_554
V0_0 V1_4 2.990877 1_555
V0_1 V0_7 2.514060 1_455
V0_1 V0_7 2.514060 1_545
V0_1 V1_4 2.625021 1_555
V0_1 V1_3 2.625021 1_555
V0_1 V0_6 2.920920 1_456
V0_1 V0_6 2.920920 1_545
V0_1 V1_2 2.990877 1_555
V0_1 V1_5 2.990877 1_555
V0_2 V0_4 2.514060 1_555
V0_2 V0_3 2.514060 1_554
V0_2 V0_4 2.514060 1_465
V0_2 V0_3 2.514060 1_555
V0_2 V1_7 2.625021 1_554
V0_2 V1_0 2.625021 1_565
V0_2 V0_5 2.920920 1_554
V0_2 V0_5 2.920920 1_465
V0_2 V1_1 2.990877 1_564
V0_2 V1_6 2.990877 1_555
V0_3 V0_5 2.514060 1_465
V0_3 V0_5 2.514060 1_555
V0_3 V1_6 2.625021 1_555
V0_3 V1_1 2.625021 1_565
V0_3 V0_4 2.920920 1_466
V0_3 V0_4 2.920920 1_555
V0_3 V1_0 2.990877 1_565
V0_3 V1_7 2.990877 1_555
V0_4 V0_5 2.514060 1_554
V0_4 V0_5 2.514060 1_555
V0_4 V1_6 2.625021 1_555
V0_4 V1_1 2.625021 1_654
V0_4 V1_7 2.990877 1_554
V0_4 V1_0 2.990877 1_655
V0_5 V1_0 2.625021 1_655
V0_5 V1_7 2.625021 1_555
V0_5 V1_6 2.990877 1_555
V0_5 V1_1 2.990877 1_655
V0_6 V0_7 2.514060 1_554
V0_6 V0_7 2.514060 1_555
V0_6 V1_3 2.625021 1_654
V0_6 V1_4 2.625021 1_565
V0_6 V1_5 2.990877 1_564
V0_6 V1_2 2.990877 1_655
V0_7 V1_5 2.625021 1_565
V0_7 V1_2 2.625021 1_655
V0_7 V1_4 2.990877 1_565
V0_7 V1_3 2.990877 1_655
V1_0 V1_1 2.514060 1_555
V1_0 V1_6 2.514060 1_545
V1_0 V1_1 2.514060 1_554
V1_0 V1_6 2.514060 1_455
V1_0 V1_7 2.920920 1_455
V1_0 V1_7 2.920920 1_544
V1_1 V1_7 2.514060 1_455
V1_1 V1_7 2.514060 1_545
V1_1 V1_6 2.920920 1_456
V1_1 V1_6 2.920920 1_545
V1_2 V1_3 2.514060 1_555
V1_2 V1_4 2.514060 1_465
V1_2 V1_4 2.514060 1_555
V1_2 V1_3 2.514060 1_554
V1_2 V1_5 2.920920 1_465
V1_2 V1_5 2.920920 1_554
V1_3 V1_5 2.514060 1_465
V1_3 V1_5 2.514060 1_555
V1_3 V1_4 2.920920 1_466
V1_3 V1_4 2.920920 1_555
V1_4 V1_5 2.514060 1_555
V1_4 V1_5 2.514060 1_554
V1_6 V1_7 2.514060 1_554
V1_6 V1_7 2.514060 1_555
Cr0_0 Cr1_2 2.449976 1_555
Cr0_0 Cr1_5 2.449976 1_554
Cr0_0 Fe0_5 2.455981 1_554
Cr0_0 Fe0_2 2.455981 1_555
Cr0_0 Cr0_6 2.514060 1_545
Cr0_0 Cr0_1 2.514060 1_554
Cr0_0 Cr0_1 2.514060 1_555
Cr0_0 Cr0_6 2.514060 1_455
Cr0_0 Cr1_4 2.838484 1_555
Cr0_0 Cr1_3 2.838484 1_554
Cr0_0 Fe0_4 2.843669 1_555
Cr0_0 Fe0_3 2.843669 1_554
Cr0_1 Cr1_3 2.449976 1_555
Cr0_1 Cr1_4 2.449976 1_555
Cr0_1 Fe0_4 2.455981 1_555
Cr0_1 Fe0_3 2.455981 1_555
Cr0_1 Cr0_7 2.514060 1_455
Cr0_1 Cr0_7 2.514060 1_545
Cr0_1 Cr1_5 2.838484 1_555
Cr0_1 Cr1_2 2.838484 1_555
Cr0_1 Fe0_5 2.843669 1_555
Cr0_1 Fe0_2 2.843669 1_555
Cr0_2 Cr1_0 2.449976 1_565
Cr0_2 Cr1_7 2.449976 1_554
Cr0_2 Fe0_0 2.455981 1_565
Cr0_2 Fe0_7 2.455981 1_554
Cr0_2 Cr0_4 2.514060 1_555
Cr0_2 Cr0_3 2.514060 1_555
Cr0_2 Cr0_4 2.514060 1_465
Cr0_2 Cr0_3 2.514060 1_554
Cr0_2 Cr1_6 2.838484 1_555
Cr0_2 Cr1_1 2.838484 1_564
Cr0_2 Fe0_1 2.843669 1_564
Cr0_2 Fe0_6 2.843669 1_555
Cr0_3 Cr1_1 2.449976 1_565
Cr0_3 Cr1_6 2.449976 1_555
Cr0_3 Fe0_1 2.455981 1_565
Cr0_3 Fe0_6 2.455981 1_555
Cr0_3 Cr0_5 2.514060 1_465
Cr0_3 Cr0_5 2.514060 1_555
Cr0_3 Cr1_7 2.838484 1_555
Cr0_3 Cr1_0 2.838484 1_565
Cr0_3 Fe0_7 2.843669 1_555
Cr0_3 Fe0_0 2.843669 1_565
Cr0_4 Cr1_6 2.449976 1_555
Cr0_4 Cr1_1 2.449976 1_654
Cr0_4 Fe0_1 2.455981 1_654
Cr0_4 Fe0_6 2.455981 1_555
Cr0_4 Cr0_5 2.514060 1_554
Cr0_4 Cr0_5 2.514060 1_555
Cr0_4 Cr1_0 2.838484 1_655
Cr0_4 Cr1_7 2.838484 1_554
Cr0_4 Fe0_0 2.843669 1_655
Cr0_4 Fe0_7 2.843669 1_554
Cr0_5 Cr1_7 2.449976 1_555
Cr0_5 Cr1_0 2.449976 1_655
Cr0_5 Fe0_0 2.455981 1_655
Cr0_5 Fe0_7 2.455981 1_555
Cr0_5 Cr1_1 2.838484 1_655
Cr0_5 Cr1_6 2.838484 1_555
Cr0_5 Fe0_1 2.843669 1_655
Cr0_5 Fe0_6 2.843669 1_555
Cr0_6 Cr1_4 2.449976 1_565
Cr0_6 Cr1_3 2.449976 1_654
Cr0_6 Fe0_3 2.455981 1_654
Cr0_6 Fe0_4 2.455981 1_565
Cr0_6 Cr0_7 2.514060 1_554
Cr0_6 Cr0_7 2.514060 1_555
Cr0_6 Cr1_2 2.838484 1_655
Cr0_6 Cr1_5 2.838484 1_564
Cr0_6 Fe0_2 2.843669 1_655
Cr0_6 Fe0_5 2.843669 1_564
Cr0_7 Cr1_5 2.449976 1_565
Cr0_7 Cr1_2 2.449976 1_655
Cr0_7 Fe0_2 2.455981 1_655
Cr0_7 Fe0_5 2.455981 1_565
Cr0_7 Cr1_3 2.838484 1_655
Cr0_7 Cr1_4 2.838484 1_565
Cr0_7 Fe0_3 2.843669 1_655
Cr0_7 Fe0_4 2.843669 1_565
Cr1_0 Cr1_1 2.514060 1_554
Cr1_0 Cr1_6 2.514060 1_545
Cr1_0 Cr1_1 2.514060 1_555
Cr1_0 Cr1_6 2.514060 1_455
Cr1_0 V0_5 2.535527 1_455
Cr1_0 V0_2 2.535527 1_545
Cr1_0 V0_3 2.912646 1_545
Cr1_0 V0_4 2.912646 1_455
Cr1_0 Cr1_7 2.920920 1_544
Cr1_0 Cr1_7 2.920920 1_455
Cr1_1 Cr1_7 2.514060 1_455
Cr1_1 Cr1_7 2.514060 1_545
Cr1_1 V0_3 2.535527 1_545
Cr1_1 V0_4 2.535527 1_456
Cr1_1 V0_5 2.912646 1_455
Cr1_1 V0_2 2.912646 1_546
Cr1_1 Cr1_6 2.920920 1_545
Cr1_1 Cr1_6 2.920920 1_456
Cr1_2 Cr1_4 2.514060 1_555
Cr1_2 Cr1_3 2.514060 1_555
Cr1_2 Cr1_3 2.514060 1_554
Cr1_2 Cr1_4 2.514060 1_465
Cr1_2 V0_7 2.535527 1_455
Cr1_2 V0_0 2.535527 1_555
Cr1_2 V0_6 2.912646 1_455
Cr1_2 V0_1 2.912646 1_555
Cr1_2 Cr1_5 2.920920 1_465
Cr1_2 Cr1_5 2.920920 1_554
Cr1_3 Cr1_5 2.514060 1_465
Cr1_3 Cr1_5 2.514060 1_555
Cr1_3 V0_6 2.535527 1_456
Cr1_3 V0_1 2.535527 1_555
Cr1_3 V0_7 2.912646 1_455
Cr1_3 V0_0 2.912646 1_556
Cr1_3 Cr1_4 2.920920 1_466
Cr1_3 Cr1_4 2.920920 1_555
Cr1_4 Cr1_5 2.514060 1_554
Cr1_4 Cr1_5 2.514060 1_555
Cr1_4 V0_6 2.535527 1_545
Cr1_4 V0_1 2.535527 1_555
Cr1_4 V0_0 2.912646 1_555
Cr1_4 V0_7 2.912646 1_545
Cr1_5 V0_7 2.535527 1_545
Cr1_5 V0_0 2.535527 1_556
Cr1_5 V0_6 2.912646 1_546
Cr1_5 V0_1 2.912646 1_555
Cr1_6 Cr1_7 2.514060 1_554
Cr1_6 Cr1_7 2.514060 1_555
Cr1_6 V0_3 2.535527 1_555
Cr1_6 V0_4 2.535527 1_555
Cr1_6 V0_2 2.912646 1_555
Cr1_6 V0_5 2.912646 1_555
Cr1_7 V0_2 2.535527 1_556
Cr1_7 V0_5 2.535527 1_555
Cr1_7 V0_3 2.912646 1_555
Cr1_7 V0_4 2.912646 1_556
Fe0_0 V1_2 2.511231 1_545
Fe0_0 V1_5 2.511231 1_455
Fe0_0 Fe0_1 2.514060 1_554
Fe0_0 Fe0_6 2.514060 1_545
Fe0_0 Fe0_6 2.514060 1_455
Fe0_0 Fe0_1 2.514060 1_555
Fe0_0 V1_4 2.891520 1_455
Fe0_0 V1_3 2.891520 1_545
Fe0_0 Fe0_7 2.920920 1_455
Fe0_0 Fe0_7 2.920920 1_544
Fe0_1 V1_4 2.511231 1_456
Fe0_1 V1_3 2.511231 1_545
Fe0_1 Fe0_7 2.514060 1_455
Fe0_1 Fe0_7 2.514060 1_545
Fe0_1 V1_2 2.891520 1_546
Fe0_1 V1_5 2.891520 1_455
Fe0_1 Fe0_6 2.920920 1_456
Fe0_1 Fe0_6 2.920920 1_545
Fe0_2 V1_0 2.511231 1_555
Fe0_2 V1_7 2.511231 1_455
Fe0_2 Fe0_4 2.514060 1_555
Fe0_2 Fe0_3 2.514060 1_554
Fe0_2 Fe0_3 2.514060 1_555
Fe0_2 Fe0_4 2.514060 1_465
Fe0_2 V1_1 2.891520 1_555
Fe0_2 V1_6 2.891520 1_455
Fe0_2 Fe0_5 2.920920 1_465
Fe0_2 Fe0_5 2.920920 1_554
Fe0_3 V1_1 2.511231 1_555
Fe0_3 V1_6 2.511231 1_456
Fe0_3 Fe0_5 2.514060 1_465
Fe0_3 Fe0_5 2.514060 1_555
Fe0_3 V1_0 2.891520 1_556
Fe0_3 V1_7 2.891520 1_455
Fe0_3 Fe0_4 2.920920 1_555
Fe0_3 Fe0_4 2.920920 1_466
Fe0_4 V1_1 2.511231 1_555
Fe0_4 V1_6 2.511231 1_545
Fe0_4 Fe0_5 2.514060 1_554
Fe0_4 Fe0_5 2.514060 1_555
Fe0_4 V1_0 2.891520 1_555
Fe0_4 V1_7 2.891520 1_545
Fe0_5 V1_0 2.511231 1_556
Fe0_5 V1_7 2.511231 1_545
Fe0_5 V1_1 2.891520 1_555
Fe0_5 V1_6 2.891520 1_546
Fe0_6 V1_3 2.511231 1_555
Fe0_6 V1_4 2.511231 1_555
Fe0_6 Fe0_7 2.514060 1_554
Fe0_6 Fe0_7 2.514060 1_555
Fe0_6 V1_2 2.891520 1_555
Fe0_6 V1_5 2.891520 1_555
Fe0_7 V1_2 2.511231 1_556
Fe0_7 V1_5 2.511231 1_555
Fe0_7 V1_4 2.891520 1_556
Fe0_7 V1_3 2.891520 1_555
