# generated using pymatgen
data_VH9(NF)3
_symmetry_space_group_name_H-M   'P 1'
_cell_length_a   5.81080722
_cell_length_b   9.54507200
_cell_length_c   10.70349591
_cell_angle_alpha   90.00000000
_cell_angle_beta   89.98123755
_cell_angle_gamma   90.00000000
_symmetry_Int_Tables_number   1
_chemical_formula_structural   VH9(NF)3
_chemical_formula_sum   'V4 H36 N12 F12'
_cell_volume   593.66480156
_cell_formula_units_Z   4
loop_
 _symmetry_equiv_pos_site_id
 _symmetry_equiv_pos_as_xyz
  1  'x, y, z'
loop_
 _atom_site_type_symbol
 _atom_site_label
 _atom_site_symmetry_multiplicity
 _atom_site_fract_x
 _atom_site_fract_y
 _atom_site_fract_z
 _atom_site_occupancy
  V  V0  1  0.73802800  0.26800000  0.75849900  1
  V  V1  1  0.26197200  0.76800000  0.74150100  1
  V  V2  1  0.26197200  0.73200000  0.24150100  1
  V  V3  1  0.73802800  0.23200000  0.25849900  1
  H  H0  1  0.99043000  0.05929900  0.86214400  1
  H  H1  1  0.00957000  0.55929900  0.63785600  1
  H  H2  1  0.00957000  0.94070100  0.13785600  1
  H  H3  1  0.99043000  0.44070100  0.36214400  1
  H  H4  1  0.95955800  0.17476900  0.97405700  1
  H  H5  1  0.04044200  0.67476900  0.52594300  1
  H  H6  1  0.04044200  0.82523100  0.02594300  1
  H  H7  1  0.95955800  0.32523100  0.47405700  1
  H  H8  1  0.15688400  0.19851200  0.86645100  1
  H  H9  1  0.84311600  0.69851200  0.63354900  1
  H  H10  1  0.84311600  0.80148800  0.13354900  1
  H  H11  1  0.15688400  0.30148800  0.36645100  1
  H  H12  1  0.60917700  0.51642200  0.86037000  1
  H  H13  1  0.39082300  0.01642200  0.63963000  1
  H  H14  1  0.39082300  0.48357800  0.13963000  1
  H  H15  1  0.60917700  0.98357800  0.36037000  1
  H  H16  1  0.89593300  0.50839500  0.86190800  1
  H  H17  1  0.10406700  0.00839500  0.63809200  1
  H  H18  1  0.10406700  0.49160500  0.13809200  1
  H  H19  1  0.89593300  0.99160500  0.36190800  1
  H  H20  1  0.74297900  0.42787700  0.97197100  1
  H  H21  1  0.25702100  0.92787700  0.52802900  1
  H  H22  1  0.25702100  0.57212300  0.02802900  1
  H  H23  1  0.74297900  0.07212300  0.47197100  1
  H  H24  1  0.31969900  0.35509100  0.66448600  1
  H  H25  1  0.68030100  0.85509100  0.83551400  1
  H  H26  1  0.68030100  0.64490900  0.33551400  1
  H  H27  1  0.31969900  0.14490900  0.16448600  1
  H  H28  1  0.50752200  0.47917100  0.63618700  1
  H  H29  1  0.49247800  0.97917100  0.86381300  1
  H  H30  1  0.49247800  0.52082900  0.36381300  1
  H  H31  1  0.50752200  0.02082900  0.13618700  1
  H  H32  1  0.50156900  0.33771700  0.54754600  1
  H  H33  1  0.49843100  0.83771700  0.95245400  1
  H  H34  1  0.49843100  0.66228300  0.45245400  1
  H  H35  1  0.50156900  0.16228300  0.04754600  1
  N  N0  1  0.98984100  0.16547500  0.87981800  1
  N  N1  1  0.01015900  0.66547500  0.62018200  1
  N  N2  1  0.01015900  0.83452500  0.12018200  1
  N  N3  1  0.98984100  0.33452500  0.37981800  1
  N  N4  1  0.74816000  0.45257800  0.87821900  1
  N  N5  1  0.25184000  0.95257800  0.62178100  1
  N  N6  1  0.25184000  0.54742200  0.12178100  1
  N  N7  1  0.74816000  0.04742200  0.37821900  1
  N  N8  1  0.48784900  0.37203100  0.63837400  1
  N  N9  1  0.51215100  0.87203100  0.86162600  1
  N  N10  1  0.51215100  0.62796900  0.36162600  1
  N  N11  1  0.48784900  0.12796900  0.13837400  1
  F  F0  1  0.49514300  0.19590100  0.86597600  1
  F  F1  1  0.50485700  0.69590100  0.63402400  1
  F  F2  1  0.50485700  0.80409900  0.13402400  1
  F  F3  1  0.49514300  0.30409900  0.36597600  1
  F  F4  1  0.72761500  0.10630800  0.64787900  1
  F  F5  1  0.27238500  0.60630800  0.85212100  1
  F  F6  1  0.27238500  0.89369200  0.35212100  1
  F  F7  1  0.72761500  0.39369200  0.14787900  1
  F  F8  1  0.98361700  0.35728300  0.66387900  1
  F  F9  1  0.01638300  0.85728300  0.83612100  1
  F  F10  1  0.01638300  0.64271700  0.33612100  1
  F  F11  1  0.98361700  0.14271700  0.16387900  1
loop_
_geom_bond_atom_site_label_1
_geom_bond_atom_site_label_2
_geom_bond_distance
_geom_bond_site_symmetry_2
H0 N0 1.030968 1_555
H1 N1 1.030968 1_555
H2 N2 1.030968 1_555
H3 N3 1.030968 1_555
H4 N0 1.027700 1_555
H5 N1 1.027700 1_555
H6 N2 1.027700 1_555
H7 N3 1.027700 1_555
H8 N0 1.030529 1_455
H9 N1 1.030529 1_655
H10 N2 1.030529 1_655
H11 N3 1.030529 1_455
H12 N4 1.029653 1_555
H13 N5 1.029653 1_545
H14 N6 1.029653 1_555
H15 N7 1.029653 1_565
H16 N4 1.025459 1_555
H17 N5 1.025459 1_545
H18 N6 1.025459 1_555
H19 N7 1.025459 1_565
H20 N4 1.031230 1_555
H21 N5 1.031230 1_555
H22 N6 1.031230 1_555
H23 N7 1.031230 1_555
H24 N8 1.028970 1_555
H25 N9 1.028970 1_555
H26 N10 1.028970 1_555
H27 N11 1.028970 1_555
H28 N8 1.029294 1_555
H29 N9 1.029294 1_555
H30 N10 1.029294 1_555
H31 N11 1.029294 1_555
H32 N8 1.028936 1_555
H33 N9 1.028936 1_555
H34 N10 1.028936 1_555
H35 N11 1.028936 1_555
N0 V0 2.187734 1_555
N1 V1 2.187734 1_555
N2 V2 2.187734 1_555
N3 V3 2.187734 1_555
N4 V0 2.179343 1_555
N5 V1 2.179343 1_555
N6 V2 2.179343 1_555
N7 V3 2.179343 1_555
N8 V0 2.180316 1_555
N9 V1 2.180316 1_555
N10 V2 2.180316 1_555
N11 V3 2.180316 1_555
F0 V0 1.946239 1_555
F0 H8 1.965721 1_555
F0 H35 1.970113 1_556
F0 H29 2.068891 1_545
F1 V1 1.946239 1_555
F1 H9 1.965721 1_555
F1 H34 1.970113 1_555
F1 H28 2.068891 1_555
F2 V2 1.946239 1_555
F2 H10 1.965721 1_555
F2 H33 1.970113 1_554
F2 H31 2.068891 1_565
F3 V3 1.946239 1_555
F3 H11 1.965721 1_555
F3 H32 1.970113 1_555
F3 H30 2.068891 1_555
F4 H23 1.912951 1_555
F4 V0 1.946170 1_555
F4 H13 2.138691 1_555
F4 H17 2.381048 1_655
F5 H22 1.912951 1_556
F5 V1 1.946170 1_555
F5 H12 2.138691 1_555
F5 H16 2.381048 1_455
F6 H21 1.912951 1_555
F6 V2 1.946170 1_555
F6 H15 2.138691 1_555
F6 H19 2.381048 1_455
F7 H20 1.912951 1_554
F7 V3 1.946170 1_555
F7 H14 2.138691 1_555
F7 H18 2.381048 1_655
F8 V0 1.946161 1_555
F8 H24 1.953033 1_655
F8 H1 1.954092 1_655
F8 H7 2.059460 1_555
F8 H16 2.613821 1_555
F9 V1 1.946161 1_555
F9 H25 1.953033 1_455
F9 H0 1.954092 1_465
F9 H6 2.059460 1_556
F9 H17 2.613821 1_565
F10 V2 1.946161 1_555
F10 H26 1.953033 1_455
F10 H3 1.954092 1_455
F10 H5 2.059460 1_555
F10 H18 2.613821 1_555
F11 V3 1.946161 1_555
F11 H27 1.953033 1_655
F11 H2 1.954092 1_645
F11 H4 2.059460 1_554
F11 H19 2.613821 1_545
