# generated using pymatgen
data_TiCu3
_symmetry_space_group_name_H-M   'P 1'
_cell_length_a   4.27789499
_cell_length_b   4.37877117
_cell_length_c   5.37824493
_cell_angle_alpha   90.00000000
_cell_angle_beta   90.00000000
_cell_angle_gamma   90.00000000
_symmetry_Int_Tables_number   1
_chemical_formula_structural   TiCu3
_chemical_formula_sum   'Ti2 Cu6'
_cell_volume   100.74487125
_cell_formula_units_Z   2
loop_
 _symmetry_equiv_pos_site_id
 _symmetry_equiv_pos_as_xyz
  1  'x, y, z'
loop_
 _atom_site_type_symbol
 _atom_site_label
 _atom_site_symmetry_multiplicity
 _atom_site_fract_x
 _atom_site_fract_y
 _atom_site_fract_z
 _atom_site_occupancy
  Ti  Ti0  1  0.75000000  0.33958062  0.75000000  1
  Ti  Ti1  1  0.25000000  0.66041938  0.25000000  1
  Cu  Cu0  1  0.25000000  0.16739927  0.99686688  1
  Cu  Cu1  1  0.75000000  0.83260073  0.00313312  1
  Cu  Cu2  1  0.75000000  0.31817077  0.25000000  1
  Cu  Cu3  1  0.25000000  0.68182923  0.75000000  1
  Cu  Cu4  1  0.75000000  0.83260073  0.49686688  1
  Cu  Cu5  1  0.25000000  0.16739927  0.50313312  1
loop_
_geom_bond_atom_site_label_1
_geom_bond_atom_site_label_2
_geom_bond_distance
_geom_bond_site_symmetry_2
Cu0 Cu3 2.506699 1_545
Cu0 Ti1 2.552245 1_556
Cu0 Cu1 2.593339 1_546
Cu0 Cu1 2.593339 1_446
Cu0 Ti1 2.604154 1_546
Cu0 Cu3 2.614745 1_555
Cu0 Cu2 2.619999 1_456
Cu0 Cu2 2.619999 1_556
Cu0 Ti0 2.627992 1_555
Cu0 Ti0 2.627992 1_455
Cu0 Cu5 2.655421 1_555
Cu0 Cu5 2.722824 1_556
Cu1 Cu2 2.506699 1_565
Cu1 Ti0 2.552245 1_554
Cu1 Ti0 2.604154 1_564
Cu1 Cu2 2.614745 1_555
Cu1 Cu3 2.619999 1_654
Cu1 Cu3 2.619999 1_554
Cu1 Ti1 2.627992 1_655
Cu1 Ti1 2.627992 1_555
Cu1 Cu4 2.655421 1_555
Cu1 Cu4 2.722824 1_554
Cu2 Cu4 2.506699 1_545
Cu2 Ti1 2.611701 1_555
Cu2 Ti1 2.611701 1_655
Cu2 Cu4 2.614745 1_555
Cu2 Cu5 2.619999 1_555
Cu2 Cu5 2.619999 1_655
Cu2 Ti0 2.690756 1_554
Cu2 Ti0 2.690756 1_555
Cu3 Cu5 2.506699 1_565
Cu3 Ti0 2.611701 1_555
Cu3 Ti0 2.611701 1_455
Cu3 Cu5 2.614745 1_555
Cu3 Cu4 2.619999 1_555
Cu3 Cu4 2.619999 1_455
Cu3 Ti1 2.690756 1_555
Cu3 Ti1 2.690756 1_556
Cu4 Ti0 2.552245 1_555
Cu4 Cu5 2.593339 1_665
Cu4 Cu5 2.593339 1_565
Cu4 Ti0 2.604154 1_565
Cu4 Ti1 2.627992 1_655
Cu4 Ti1 2.627992 1_555
Cu5 Ti1 2.552245 1_555
Cu5 Ti1 2.604154 1_545
Cu5 Ti0 2.627992 1_555
Cu5 Ti0 2.627992 1_455
