# generated using pymatgen
data_K4PdPt(NO2)8
_symmetry_space_group_name_H-M   'P 1'
_cell_length_a   12.95841400
_cell_length_b   7.90730500
_cell_length_c   9.52911712
_cell_angle_alpha   83.78726566
_cell_angle_beta   90.00000000
_cell_angle_gamma   90.00000000
_symmetry_Int_Tables_number   1
_chemical_formula_structural   K4PdPt(NO2)8
_chemical_formula_sum   'K8 Pd2 Pt2 N16 O32'
_cell_volume   970.67724153
_cell_formula_units_Z   2
loop_
 _symmetry_equiv_pos_site_id
 _symmetry_equiv_pos_as_xyz
  1  'x, y, z'
loop_
 _atom_site_type_symbol
 _atom_site_label
 _atom_site_symmetry_multiplicity
 _atom_site_fract_x
 _atom_site_fract_y
 _atom_site_fract_z
 _atom_site_occupancy
  K  K0  1  0.65647800  0.08267900  0.18490000  1
  K  K1  1  0.15647800  0.41732100  0.81510000  1
  K  K2  1  0.34352200  0.91732100  0.81510000  1
  K  K3  1  0.84352200  0.58267900  0.18490000  1
  K  K4  1  0.81941000  0.35150600  0.65517200  1
  K  K5  1  0.31941000  0.14849400  0.34482800  1
  K  K6  1  0.18059000  0.64849400  0.34482800  1
  K  K7  1  0.68059000  0.85150600  0.65517200  1
  Pd  Pd0  1  0.50000000  0.50000000  0.50000000  1
  Pd  Pd1  1  0.00000000  0.00000000  0.50000000  1
  Pt  Pt0  1  0.00000000  0.00000000  0.00000000  1
  Pt  Pt1  1  0.50000000  0.50000000  0.00000000  1
  N  N0  1  0.52370000  0.24659200  0.58202300  1
  N  N1  1  0.02370000  0.25340800  0.41797700  1
  N  N2  1  0.47630000  0.75340800  0.41797700  1
  N  N3  1  0.97630000  0.74659200  0.58202300  1
  N  N4  1  0.93218400  0.23109900  0.01192000  1
  N  N5  1  0.43218400  0.26890100  0.98808000  1
  N  N6  1  0.06781600  0.76890100  0.98808000  1
  N  N7  1  0.56781600  0.73109900  0.01192000  1
  N  N8  1  0.63837800  0.48916200  0.39462300  1
  N  N9  1  0.13837800  0.01083800  0.60537700  1
  N  N10  1  0.36162200  0.51083800  0.60537700  1
  N  N11  1  0.86162200  0.98916200  0.39462300  1
  N  N12  1  0.12743500  0.06765400  0.10873600  1
  N  N13  1  0.62743500  0.43234600  0.89126400  1
  N  N14  1  0.87256500  0.93234600  0.89126400  1
  N  N15  1  0.37256500  0.56765400  0.10873600  1
  O  O0  1  0.64999600  0.39827300  0.29666900  1
  O  O1  1  0.14999600  0.10172700  0.70333100  1
  O  O2  1  0.35000400  0.60172700  0.70333100  1
  O  O3  1  0.85000400  0.89827300  0.29666900  1
  O  O4  1  0.61136300  0.20041400  0.62540900  1
  O  O5  1  0.11136300  0.29958600  0.37459100  1
  O  O6  1  0.38863700  0.79958600  0.37459100  1
  O  O7  1  0.88863700  0.70041400  0.62540900  1
  O  O8  1  0.17394400  0.20365200  0.07101300  1
  O  O9  1  0.67394400  0.29634800  0.92898700  1
  O  O10  1  0.82605600  0.79634800  0.92898700  1
  O  O11  1  0.32605600  0.70365200  0.07101300  1
  O  O12  1  0.87191700  0.25072600  0.11135800  1
  O  O13  1  0.37191700  0.24927400  0.88864200  1
  O  O14  1  0.12808300  0.74927400  0.88864200  1
  O  O15  1  0.62808300  0.75072600  0.11135800  1
  O  O16  1  0.94992900  0.35174800  0.91854600  1
  O  O17  1  0.44992900  0.14825200  0.08145400  1
  O  O18  1  0.05007100  0.64825200  0.08145400  1
  O  O19  1  0.55007100  0.85174800  0.91854600  1
  O  O20  1  0.45133800  0.14125800  0.58649400  1
  O  O21  1  0.95133800  0.35874200  0.41350600  1
  O  O22  1  0.54866200  0.85874200  0.41350600  1
  O  O23  1  0.04866200  0.64125800  0.58649400  1
  O  O24  1  0.71279000  0.57408800  0.43409200  1
  O  O25  1  0.21279000  0.92591200  0.56590800  1
  O  O26  1  0.28721000  0.42591200  0.56590800  1
  O  O27  1  0.78721000  0.07408800  0.43409200  1
  O  O28  1  0.15948000  0.97182900  0.21315400  1
  O  O29  1  0.65948000  0.52817100  0.78684600  1
  O  O30  1  0.84052000  0.02817100  0.78684600  1
  O  O31  1  0.34052000  0.47182900  0.21315400  1
loop_
_geom_bond_atom_site_label_1
_geom_bond_atom_site_label_2
_geom_bond_distance
_geom_bond_site_symmetry_2
K0 O15 2.813270 1_545
K0 O0 2.818543 1_555
K0 O9 2.821509 1_554
K0 O17 2.879901 1_555
K0 O27 2.911741 1_555
K0 O22 2.999676 1_545
K0 O3 3.035365 1_545
K0 O12 3.138330 1_555
K1 O14 2.813270 1_555
K1 O1 2.818543 1_555
K1 O8 2.821509 1_556
K1 O16 2.879901 1_455
K1 O26 2.911741 1_555
K1 O23 2.999676 1_555
K1 O2 3.035365 1_555
K1 O13 3.138330 1_555
K2 O13 2.813270 1_565
K2 O2 2.818543 1_555
K2 O11 2.821509 1_556
K2 O19 2.879901 1_555
K2 O25 2.911741 1_555
K2 O20 2.999676 1_565
K2 O1 3.035365 1_565
K2 O14 3.138330 1_555
K3 O12 2.813270 1_555
K3 O3 2.818543 1_555
K3 O10 2.821509 1_554
K3 O18 2.879901 1_655
K3 O24 2.911741 1_555
K3 O21 2.999676 1_555
K3 O0 3.035365 1_555
K3 O15 3.138330 1_555
K4 O30 2.737081 1_555
K4 O29 2.863599 1_555
K4 O21 2.863667 1_555
K4 O7 2.885735 1_555
K4 O24 2.939765 1_555
K4 O4 2.974786 1_555
K4 O16 3.026600 1_555
K4 O9 3.210168 1_555
K4 O27 3.228704 1_555
K5 O31 2.737081 1_555
K5 O28 2.863599 1_545
K5 O20 2.863667 1_555
K5 O6 2.885735 1_545
K5 O25 2.939765 1_545
K5 O5 2.974786 1_555
K5 O17 3.026600 1_555
K5 O8 3.210168 1_555
K5 O26 3.228704 1_555
K6 O28 2.737081 1_555
K6 O31 2.863599 1_555
K6 O23 2.863667 1_555
K6 O5 2.885735 1_555
K6 O26 2.939765 1_555
K6 O6 2.974786 1_555
K6 O18 3.026600 1_555
K6 O11 3.210168 1_555
K6 O25 3.228704 1_555
K7 O29 2.737081 1_555
K7 O30 2.863599 1_565
K7 O22 2.863667 1_555
K7 O4 2.885735 1_565
K7 O27 2.939765 1_565
K7 O7 2.974786 1_555
K7 O19 3.026600 1_555
K7 O10 3.210168 1_555
K7 O24 3.228704 1_555
N0 O4 1.249806 1_555
N0 O20 1.251857 1_555
N0 Pd0 2.093170 1_555
N1 O5 1.249806 1_555
N1 O21 1.251857 1_455
N1 Pd1 2.093170 1_555
N2 O6 1.249806 1_555
N2 O22 1.251857 1_555
N2 Pd0 2.093170 1_555
N3 O7 1.249806 1_555
N3 O23 1.251857 1_655
N3 Pd1 2.093170 1_665
N4 O12 1.250474 1_555
N4 O16 1.253386 1_554
N4 Pt0 2.041905 1_655
N5 O13 1.250474 1_555
N5 O17 1.253386 1_556
N5 Pt1 2.041905 1_556
N6 O14 1.250474 1_555
N6 O18 1.253386 1_556
N6 Pt0 2.041905 1_566
N7 O15 1.250474 1_555
N7 O19 1.253386 1_554
N7 Pt1 2.041905 1_555
N8 O0 1.247251 1_555
N8 O24 1.255739 1_555
N8 Pd0 2.061482 1_555
N9 O1 1.247251 1_555
N9 O25 1.255739 1_545
N9 Pd1 2.061482 1_555
N10 O2 1.247251 1_555
N10 O26 1.255739 1_555
N10 Pd0 2.061482 1_555
N11 O3 1.247251 1_555
N11 O27 1.255739 1_565
N11 Pd1 2.061482 1_665
N12 O8 1.251084 1_555
N12 O28 1.254366 1_545
N12 Pt0 2.051038 1_555
N13 O9 1.251084 1_555
N13 O29 1.254366 1_555
N13 Pt1 2.051038 1_556
N14 O10 1.251084 1_555
N14 O30 1.254366 1_565
N14 Pt0 2.051038 1_666
N15 O11 1.251084 1_555
N15 O31 1.254366 1_555
N15 Pt1 2.051038 1_555
