# generated using pymatgen
data_KUVO6
_symmetry_space_group_name_H-M   'P 1'
_cell_length_a   6.76766289
_cell_length_b   8.10639800
_cell_length_c   14.69813624
_cell_angle_alpha   90.00000000
_cell_angle_beta   89.03939596
_cell_angle_gamma   90.00000000
_symmetry_Int_Tables_number   1
_chemical_formula_structural   KUVO6
_chemical_formula_sum   'K4 U4 V4 O24'
_cell_volume   806.24654830
_cell_formula_units_Z   4
loop_
 _symmetry_equiv_pos_site_id
 _symmetry_equiv_pos_as_xyz
  1  'x, y, z'
loop_
 _atom_site_type_symbol
 _atom_site_label
 _atom_site_symmetry_multiplicity
 _atom_site_fract_x
 _atom_site_fract_y
 _atom_site_fract_z
 _atom_site_occupancy
  K  K0  1  0.52171400  0.83440500  0.73505500  1
  K  K1  1  0.52171400  0.66559500  0.23505500  1
  K  K2  1  0.47828600  0.16559500  0.26494500  1
  K  K3  1  0.47828600  0.33440500  0.76494500  1
  U  U0  1  0.98884500  0.56467200  0.71935500  1
  U  U1  1  0.98884500  0.93532800  0.21935500  1
  U  U2  1  0.01115500  0.43532800  0.28064500  1
  U  U3  1  0.01115500  0.06467200  0.78064500  1
  V  V0  1  0.81410100  0.50824800  0.96462000  1
  V  V1  1  0.18589900  0.49175200  0.03538000  1
  V  V2  1  0.18589900  0.00824800  0.53538000  1
  V  V3  1  0.81410100  0.99175200  0.46462000  1
  O  O0  1  0.06949500  0.18824200  0.24002700  1
  O  O1  1  0.42187800  0.00143700  0.46526000  1
  O  O2  1  0.93050500  0.68824200  0.25997300  1
  O  O3  1  0.80513400  0.98336900  0.34621400  1
  O  O4  1  0.25013100  0.03327400  0.83859000  1
  O  O5  1  0.19486600  0.01663100  0.65378600  1
  O  O6  1  0.42187800  0.49856300  0.96526000  1
  O  O7  1  0.80513400  0.51663100  0.84621400  1
  O  O8  1  0.06949500  0.31175800  0.74002700  1
  O  O9  1  0.99949000  0.65471900  0.01022900  1
  O  O10  1  0.25064400  0.89684300  0.25073100  1
  O  O11  1  0.25013100  0.46672600  0.33859000  1
  O  O12  1  0.74986900  0.53327400  0.66141000  1
  O  O13  1  0.19486600  0.48336900  0.15378600  1
  O  O14  1  0.57812200  0.50143700  0.03474000  1
  O  O15  1  0.00051000  0.15471900  0.48977100  1
  O  O16  1  0.00051000  0.34528100  0.98977100  1
  O  O17  1  0.25064400  0.60315700  0.75073100  1
  O  O18  1  0.57812200  0.99856300  0.53474000  1
  O  O19  1  0.74986900  0.96672600  0.16141000  1
  O  O20  1  0.74935600  0.39684300  0.24926900  1
  O  O21  1  0.74935600  0.10315700  0.74926900  1
  O  O22  1  0.93050500  0.81175800  0.75997300  1
  O  O23  1  0.99949000  0.84528100  0.51022900  1
loop_
_geom_bond_atom_site_label_1
_geom_bond_atom_site_label_2
_geom_bond_distance
_geom_bond_site_symmetry_2
K0 O17 2.630290 1_555
K0 O21 2.678478 1_565
K0 O22 2.802796 1_555
K0 O4 2.863405 1_565
K0 O5 2.930951 1_565
K0 O12 3.075504 1_555
K0 O18 3.247698 1_555
K1 O10 2.630290 1_555
K1 O20 2.678478 1_555
K1 O2 2.802796 1_555
K1 O11 2.863405 1_555
K1 O13 2.930951 1_555
K1 O19 3.075504 1_555
K1 O14 3.247698 1_555
K2 O20 2.630290 1_555
K2 O10 2.678478 1_545
K2 O0 2.802796 1_555
K2 O19 2.863405 1_545
K2 O3 2.930951 1_545
K2 O11 3.075504 1_555
K2 O1 3.247698 1_555
K3 O21 2.630290 1_555
K3 O17 2.678478 1_555
K3 O8 2.802796 1_555
K3 O12 2.863405 1_555
K3 O7 2.930951 1_555
K3 O4 3.075504 1_555
K3 O6 3.247698 1_555
O0 U2 2.125164 1_555
O0 U1 2.144574 1_445
O0 O10 2.667238 1_545
O0 O20 2.749945 1_455
O0 O13 2.830947 1_555
O0 O3 2.881218 1_445
O1 O18 1.482485 1_545
O1 V2 1.886944 1_555
O2 U1 2.125164 1_555
O2 U2 2.144574 1_655
O2 O20 2.667238 1_555
O2 O3 2.830947 1_555
O3 V3 1.743746 1_555
O3 U1 2.257524 1_555
O4 U3 1.857962 1_555
O5 V2 1.743746 1_555
O5 U3 2.257524 1_555
O5 O8 2.830947 1_555
O6 V1 1.886944 1_556
O7 V0 1.743746 1_555
O7 U0 2.257524 1_555
O7 O8 2.881218 1_655
O8 U3 2.125164 1_555
O8 U0 2.144574 1_455
O9 V0 1.860523 1_554
O9 V1 1.867900 1_655
O10 U1 1.864554 1_455
O10 O2 2.749945 1_455
O11 U2 1.857962 1_555
O12 U0 1.857962 1_555
O13 V1 1.743746 1_555
O13 U2 2.257524 1_555
O13 O2 2.881218 1_455
O14 O6 1.482485 1_554
O14 V0 1.886944 1_554
O15 V2 1.860523 1_555
O15 V3 1.867900 1_445
O16 V1 1.860523 1_556
O16 V0 1.867900 1_455
O17 U0 1.864554 1_455
O17 O8 2.667238 1_555
O17 O22 2.749945 1_455
O18 V3 1.886944 1_555
O19 U1 1.857962 1_555
O20 U2 1.864554 1_655
O21 U3 1.864554 1_655
O21 O22 2.667238 1_545
O21 O8 2.749945 1_655
O22 U0 2.125164 1_555
O22 U3 2.144574 1_665
O22 O7 2.830947 1_555
O22 O5 2.881218 1_665
O23 V3 1.860523 1_555
O23 V2 1.867900 1_665
