# generated using pymatgen
data_Nb2SiTe4
_symmetry_space_group_name_H-M   'P 1'
_cell_length_a   4.65436428
_cell_length_b   6.28764790
_cell_length_c   7.67358385
_cell_angle_alpha   98.82046368
_cell_angle_beta   71.79487255
_cell_angle_gamma   94.66002373
_symmetry_Int_Tables_number   1
_chemical_formula_structural   Nb2SiTe4
_chemical_formula_sum   'Nb2 Si1 Te4'
_cell_volume   210.67068821
_cell_formula_units_Z   1
loop_
 _symmetry_equiv_pos_site_id
 _symmetry_equiv_pos_as_xyz
  1  'x, y, z'
loop_
 _atom_site_type_symbol
 _atom_site_label
 _atom_site_symmetry_multiplicity
 _atom_site_fract_x
 _atom_site_fract_y
 _atom_site_fract_z
 _atom_site_occupancy
  Nb  Nb0  1  0.24653400  0.86062100  0.00017400  1
  Nb  Nb1  1  0.75346600  0.13937900  0.99982600  1
  Si  Si0  1  0.50000000  0.50000000  0.00000000  1
  Te  Te0  1  0.61315700  0.83065900  0.24983400  1
  Te  Te1  1  0.86300100  0.75121800  0.74987600  1
  Te  Te2  1  0.38684300  0.16934100  0.75016600  1
  Te  Te3  1  0.13699800  0.24878200  0.25012400  1
loop_
_geom_bond_atom_site_label_1
_geom_bond_atom_site_label_2
_geom_bond_distance
_geom_bond_site_symmetry_2
Nb0 Si0 2.639289 1_555
Nb0 Nb1 2.822163 1_564
Nb0 Te2 2.833401 1_564
Nb0 Te3 2.837410 1_565
Nb0 Te0 2.970370 1_555
Nb0 Te1 2.977740 1_554
Nb0 Te1 2.981011 1_454
Nb0 Te0 2.981240 1_455
Nb0 Nb1 2.999595 1_464
Nb1 Si0 2.639289 1_556
Nb1 Te0 2.833401 1_546
Nb1 Te1 2.837410 1_545
Nb1 Te2 2.970370 1_555
Nb1 Te3 2.977744 1_556
Nb1 Te3 2.981007 1_656
Nb1 Te2 2.981240 1_655
Si0 Te1 2.739229 1_554
Si0 Te3 2.739230 1_555
Si0 Te0 2.739686 1_555
Si0 Te2 2.739686 1_554
Te0 Te3 3.437489 1_665
Te0 Te3 3.572837 1_565
Te1 Te2 3.437492 1_665
Te1 Te2 3.572834 1_565
