# generated using pymatgen
data_Nd6Fe13Ge
_symmetry_space_group_name_H-M   'P 1'
_cell_length_a   8.02182900
_cell_length_b   8.02182900
_cell_length_c   12.86465358
_cell_angle_alpha   108.16640922
_cell_angle_beta   108.16640922
_cell_angle_gamma   90.00000000
_symmetry_Int_Tables_number   1
_chemical_formula_structural   Nd6Fe13Ge
_chemical_formula_sum   'Nd12 Fe26 Ge2'
_cell_volume   743.02200071
_cell_formula_units_Z   2
loop_
 _symmetry_equiv_pos_site_id
 _symmetry_equiv_pos_as_xyz
  1  'x, y, z'
loop_
 _atom_site_type_symbol
 _atom_site_label
 _atom_site_symmetry_multiplicity
 _atom_site_fract_x
 _atom_site_fract_y
 _atom_site_fract_z
 _atom_site_occupancy
  Nd  Nd0  1  0.39163000  0.39163000  0.78326000  1
  Nd  Nd1  1  0.89163000  0.89163000  0.78326000  1
  Nd  Nd2  1  0.60837000  0.60837000  0.21674000  1
  Nd  Nd3  1  0.10837000  0.10837000  0.21674000  1
  Nd  Nd4  1  0.97725200  0.47725200  0.62257100  1
  Nd  Nd5  1  0.64531900  0.14531900  0.62257100  1
  Nd  Nd6  1  0.14531900  0.97725200  0.62257100  1
  Nd  Nd7  1  0.47725200  0.64531900  0.62257100  1
  Nd  Nd8  1  0.02274800  0.52274800  0.37742900  1
  Nd  Nd9  1  0.35468100  0.85468100  0.37742900  1
  Nd  Nd10  1  0.85468100  0.02274800  0.37742900  1
  Nd  Nd11  1  0.52274800  0.35468100  0.37742900  1
  Fe  Fe0  1  0.70898400  0.56509900  0.00000000  1
  Fe  Fe1  1  0.29101600  0.43490100  0.00000000  1
  Fe  Fe2  1  0.79101600  0.06509900  0.00000000  1
  Fe  Fe3  1  0.20898400  0.93490100  0.00000000  1
  Fe  Fe4  1  0.56509900  0.29101600  0.00000000  1
  Fe  Fe5  1  0.43490100  0.70898400  0.00000000  1
  Fe  Fe6  1  0.06509900  0.20898400  0.00000000  1
  Fe  Fe7  1  0.93490100  0.79101600  0.00000000  1
  Fe  Fe8  1  0.11897000  0.61897000  0.87930200  1
  Fe  Fe9  1  0.76033300  0.26033300  0.87930200  1
  Fe  Fe10  1  0.26033300  0.11897000  0.87930200  1
  Fe  Fe11  1  0.61897000  0.76033300  0.87930200  1
  Fe  Fe12  1  0.88103000  0.38103000  0.12069800  1
  Fe  Fe13  1  0.23966700  0.73966700  0.12069800  1
  Fe  Fe14  1  0.73966700  0.88103000  0.12069800  1
  Fe  Fe15  1  0.38103000  0.23966700  0.12069800  1
  Fe  Fe16  1  0.29128800  0.79128800  0.80934600  1
  Fe  Fe17  1  0.51805800  0.01805800  0.80934600  1
  Fe  Fe18  1  0.01805800  0.29128800  0.80934600  1
  Fe  Fe19  1  0.79128800  0.51805800  0.80934600  1
  Fe  Fe20  1  0.70871200  0.20871200  0.19065400  1
  Fe  Fe21  1  0.48194200  0.98194200  0.19065400  1
  Fe  Fe22  1  0.98194200  0.70871200  0.19065400  1
  Fe  Fe23  1  0.20871200  0.48194200  0.19065400  1
  Fe  Fe24  1  0.00000000  0.50000000  0.00000000  1
  Fe  Fe25  1  0.50000000  0.00000000  0.00000000  1
  Ge  Ge0  1  0.25000000  0.25000000  0.50000000  1
  Ge  Ge1  1  0.75000000  0.75000000  0.50000000  1
loop_
_geom_bond_atom_site_label_1
_geom_bond_atom_site_label_2
_geom_bond_distance
_geom_bond_site_symmetry_2
Nd0 Nd6 3.520669 1_545
Nd0 Nd4 3.520669 1_455
Nd0 Nd5 3.520669 1_555
Nd0 Nd7 3.520669 1_555
Nd1 Nd7 3.520669 1_555
Nd1 Nd4 3.520669 1_555
Nd1 Nd5 3.520669 1_565
Nd1 Nd6 3.520669 1_655
Nd2 Nd8 3.520669 1_655
Nd2 Nd9 3.520669 1_555
Nd3 Nd8 3.520669 1_555
Nd3 Nd9 3.520669 1_545
Nd4 Nd8 3.412827 1_655
Nd4 Nd5 3.765640 1_555
Nd5 Nd9 3.412827 1_545
Nd6 Nd7 3.765640 1_555
Nd6 Nd8 3.886142 1_555
Nd6 Nd9 3.886142 1_555
Nd7 Nd8 3.886142 1_555
Nd7 Nd9 3.886142 1_555
Nd8 Nd9 3.765640 1_555
Nd10 Nd6 3.412827 1_645
Nd10 Nd2 3.520669 1_545
Nd10 Nd3 3.520669 1_655
Nd10 Nd11 3.765640 1_555
Nd10 Nd4 3.886142 1_555
Nd10 Nd5 3.886142 1_555
Nd11 Nd7 3.412827 1_555
Nd11 Nd3 3.520669 1_555
Nd11 Nd2 3.520669 1_555
Nd11 Nd4 3.886142 1_555
Nd11 Nd5 3.886142 1_555
Fe0 Fe24 2.392176 1_655
Fe0 Fe4 2.483198 1_555
Fe0 Fe5 2.483198 1_555
Fe0 Fe14 2.490455 1_555
Fe0 Fe11 2.490461 1_554
Fe0 Fe7 2.562933 1_555
Fe0 Fe9 2.566975 1_554
Fe0 Fe12 2.566978 1_555
Fe0 Fe22 2.650783 1_555
Fe0 Fe19 2.650783 1_554
Fe0 Nd0 3.057158 1_554
Fe0 Nd2 3.057158 1_555
Fe1 Fe24 2.392176 1_555
Fe1 Fe5 2.483198 1_555
Fe1 Fe4 2.483198 1_555
Fe1 Fe10 2.490455 1_554
Fe1 Fe15 2.490461 1_555
Fe1 Fe6 2.562933 1_555
Fe1 Fe13 2.566975 1_555
Fe1 Fe8 2.566978 1_554
Fe1 Fe18 2.650783 1_554
Fe1 Fe23 2.650783 1_555
Fe1 Nd2 3.057158 1_555
Fe1 Nd0 3.057158 1_554
Fe2 Fe25 2.392176 1_555
Fe2 Fe6 2.483198 1_655
Fe2 Fe7 2.483198 1_545
Fe2 Fe9 2.490462 1_554
Fe2 Fe4 2.562933 1_555
Fe2 Fe20 2.650783 1_555
Fe2 Nd3 3.057158 1_655
Fe2 Nd1 3.057158 1_544
Fe3 Fe7 2.483198 1_455
Fe3 Fe6 2.483198 1_565
Fe3 Fe8 2.490454 1_554
Fe3 Fe5 2.562933 1_555
Fe3 Nd1 3.057158 1_454
Fe3 Nd3 3.057158 1_565
Fe4 Fe9 2.490462 1_554
Fe4 Nd2 3.057158 1_555
Fe4 Nd0 3.057158 1_554
Fe5 Fe8 2.490454 1_554
Fe5 Nd0 3.057158 1_554
Fe5 Nd2 3.057158 1_555
Fe6 Fe9 2.566975 1_454
Fe6 Nd1 3.057158 1_444
Fe6 Nd3 3.057158 1_555
Fe7 Fe8 2.566978 1_654
Fe7 Nd3 3.057158 1_665
Fe7 Nd1 3.057158 1_554
Fe8 Nd4 2.968243 1_455
Fe8 Nd1 3.149042 1_455
Fe8 Nd0 3.149042 1_555
Fe9 Nd5 2.968242 1_555
Fe9 Nd0 3.149045 1_555
Fe9 Nd1 3.149045 1_545
Fe10 Fe25 2.465891 1_556
Fe10 Fe18 2.486548 1_555
Fe10 Fe6 2.490461 1_556
Fe10 Fe17 2.538776 1_555
Fe10 Fe16 2.538782 1_545
Fe10 Fe4 2.566972 1_556
Fe10 Fe3 2.566981 1_546
Fe10 Fe15 2.787308 1_556
Fe10 Nd6 2.968243 1_545
Fe10 Nd0 3.149039 1_555
Fe10 Nd1 3.149049 1_445
Fe11 Fe25 2.465891 1_566
Fe11 Fe19 2.486548 1_555
Fe11 Fe7 2.490455 1_556
Fe11 Fe17 2.538776 1_565
Fe11 Fe16 2.538782 1_555
Fe11 Fe2 2.566972 1_566
Fe11 Fe5 2.566981 1_556
Fe11 Fe14 2.787308 1_556
Fe11 Nd7 2.968243 1_555
Fe11 Nd1 3.149039 1_555
Fe11 Nd0 3.149049 1_555
Fe12 Fe24 2.465896 1_655
Fe12 Fe20 2.486543 1_555
Fe12 Fe4 2.490454 1_555
Fe12 Fe2 2.490454 1_555
Fe12 Fe23 2.538783 1_655
Fe12 Fe22 2.538783 1_555
Fe12 Fe6 2.566978 1_655
Fe12 Fe9 2.787308 1_554
Fe12 Nd8 2.968243 1_655
Fe12 Nd3 3.149042 1_655
Fe12 Nd2 3.149042 1_555
Fe13 Fe24 2.465886 1_555
Fe13 Fe21 2.486554 1_555
Fe13 Fe5 2.490462 1_555
Fe13 Fe3 2.490462 1_555
Fe13 Fe22 2.538774 1_455
Fe13 Fe23 2.538774 1_555
Fe13 Fe7 2.566975 1_455
Fe13 Fe8 2.787308 1_554
Fe13 Nd9 2.968242 1_555
Fe13 Nd2 3.149045 1_555
Fe13 Nd3 3.149045 1_565
Fe14 Fe25 2.465891 1_565
Fe14 Fe22 2.486548 1_555
Fe14 Fe7 2.490461 1_555
Fe14 Fe21 2.538776 1_555
Fe14 Fe20 2.538782 1_565
Fe14 Fe5 2.566972 1_555
Fe14 Fe2 2.566981 1_565
Fe14 Nd10 2.968243 1_565
Fe14 Nd2 3.149039 1_555
Fe14 Nd3 3.149049 1_665
Fe15 Fe25 2.465891 1_555
Fe15 Fe23 2.486548 1_555
Fe15 Fe6 2.490455 1_555
Fe15 Fe21 2.538776 1_545
Fe15 Fe20 2.538782 1_555
Fe15 Fe3 2.566972 1_545
Fe15 Fe4 2.566981 1_555
Fe15 Nd11 2.968243 1_555
Fe15 Nd3 3.149039 1_555
Fe15 Nd2 3.149049 1_555
Fe16 Fe8 2.486543 1_555
Fe16 Fe25 2.549663 1_566
Fe16 Fe17 2.572610 1_565
Fe16 Fe3 2.650783 1_556
Fe16 Fe5 2.650783 1_556
Fe16 Nd7 3.138567 1_555
Fe16 Nd6 3.138567 1_555
Fe16 Nd1 3.245989 1_455
Fe16 Nd0 3.245989 1_555
Fe16 Nd4 3.304064 1_455
Fe17 Fe9 2.486554 1_555
Fe17 Fe25 2.549664 1_556
Fe17 Fe2 2.650783 1_556
Fe17 Fe4 2.650783 1_556
Fe17 Nd7 3.138567 1_545
Fe17 Nd6 3.138567 1_545
Fe17 Nd1 3.245989 1_545
Fe17 Nd0 3.245989 1_555
Fe17 Nd5 3.304065 1_555
Fe18 Fe9 2.538774 1_455
Fe18 Fe8 2.538783 1_555
Fe18 Fe24 2.549663 1_556
Fe18 Fe19 2.572610 1_455
Fe18 Fe6 2.650783 1_556
Fe18 Nd5 3.138567 1_455
Fe18 Nd4 3.138567 1_455
Fe18 Nd1 3.245989 1_445
Fe18 Nd0 3.245989 1_555
Fe18 Nd6 3.304064 1_545
Fe19 Fe9 2.538774 1_555
Fe19 Fe8 2.538783 1_655
Fe19 Fe24 2.549663 1_656
Fe19 Fe7 2.650783 1_556
Fe19 Nd5 3.138567 1_555
Fe19 Nd4 3.138567 1_555
Fe19 Nd0 3.245989 1_555
Fe19 Nd1 3.245989 1_555
Fe19 Nd7 3.304064 1_555
Fe20 Fe25 2.549663 1_555
Fe20 Fe21 2.572610 1_545
Fe20 Fe4 2.650783 1_555
Fe20 Nd10 3.138567 1_555
Fe20 Nd11 3.138567 1_555
Fe20 Nd3 3.245989 1_655
Fe20 Nd2 3.245989 1_555
Fe20 Nd8 3.304064 1_655
Fe21 Fe25 2.549664 1_565
Fe21 Fe3 2.650783 1_555
Fe21 Fe5 2.650783 1_555
Fe21 Nd11 3.138567 1_565
Fe21 Nd10 3.138567 1_565
Fe21 Nd2 3.245989 1_555
Fe21 Nd3 3.245989 1_565
Fe21 Nd9 3.304065 1_555
Fe22 Fe24 2.549663 1_655
Fe22 Fe23 2.572610 1_655
Fe22 Fe7 2.650783 1_555
Fe22 Nd9 3.138567 1_655
Fe22 Nd8 3.138567 1_655
Fe22 Nd3 3.245989 1_665
Fe22 Nd2 3.245989 1_555
Fe22 Nd10 3.304064 1_565
Fe23 Fe24 2.549663 1_555
Fe23 Fe6 2.650783 1_555
Fe23 Nd9 3.138567 1_555
Fe23 Nd8 3.138567 1_555
Fe23 Nd2 3.245989 1_555
Fe23 Nd3 3.245989 1_555
Fe23 Nd11 3.304064 1_555
Fe24 Fe7 2.392176 1_455
Fe24 Fe6 2.392176 1_555
Fe24 Fe9 2.465886 1_454
Fe24 Fe8 2.465896 1_554
Fe25 Fe3 2.392176 1_545
Fe25 Fe4 2.392176 1_555
Fe25 Fe5 2.392176 1_545
Ge0 Nd3 3.270696 1_555
Ge0 Nd0 3.270696 1_555
Ge0 Nd7 3.309919 1_555
Ge0 Nd10 3.309919 1_455
Ge0 Nd5 3.309919 1_555
Ge0 Nd9 3.309919 1_545
Ge0 Nd4 3.309919 1_455
Ge0 Nd8 3.309919 1_555
Ge0 Nd6 3.309919 1_545
Ge0 Nd11 3.309919 1_555
Ge1 Nd2 3.270696 1_555
Ge1 Nd1 3.270696 1_555
Ge1 Nd6 3.309919 1_655
Ge1 Nd11 3.309919 1_555
Ge1 Nd5 3.309919 1_565
Ge1 Nd9 3.309919 1_555
Ge1 Nd8 3.309919 1_655
Ge1 Nd4 3.309919 1_555
Ge1 Nd10 3.309919 1_565
Ge1 Nd7 3.309919 1_555
