# generated using pymatgen
data_Rb2LaI5
_symmetry_space_group_name_H-M   'P 1'
_cell_length_a   9.36586979
_cell_length_b   10.12849541
_cell_length_c   14.82060997
_cell_angle_alpha   90.00000000
_cell_angle_beta   90.00000000
_cell_angle_gamma   90.00000000
_symmetry_Int_Tables_number   1
_chemical_formula_structural   Rb2LaI5
_chemical_formula_sum   'Rb8 La4 I20'
_cell_volume   1405.91521031
_cell_formula_units_Z   4
loop_
 _symmetry_equiv_pos_site_id
 _symmetry_equiv_pos_as_xyz
  1  'x, y, z'
loop_
 _atom_site_type_symbol
 _atom_site_label
 _atom_site_symmetry_multiplicity
 _atom_site_fract_x
 _atom_site_fract_y
 _atom_site_fract_z
 _atom_site_occupancy
  Rb  Rb0  1  0.94075566  0.00377757  0.82741411  1
  Rb  Rb1  1  0.05924434  0.99622243  0.17258589  1
  Rb  Rb2  1  0.44075566  0.99622243  0.67258589  1
  Rb  Rb3  1  0.05924434  0.50377757  0.17258589  1
  Rb  Rb4  1  0.55924434  0.00377757  0.32741411  1
  Rb  Rb5  1  0.94075566  0.49622243  0.82741411  1
  Rb  Rb6  1  0.55924434  0.49622243  0.32741411  1
  Rb  Rb7  1  0.44075566  0.50377757  0.67258589  1
  La  La0  1  0.92194982  0.75000000  0.50523232  1
  La  La1  1  0.07805018  0.25000000  0.49476768  1
  La  La2  1  0.42194982  0.25000000  0.99476768  1
  La  La3  1  0.57805018  0.75000000  0.00523232  1
  I  I0  1  0.12567636  0.75000000  0.68093885  1
  I  I1  1  0.87432364  0.25000000  0.31906115  1
  I  I2  1  0.62567636  0.25000000  0.81906115  1
  I  I3  1  0.37432364  0.75000000  0.18093885  1
  I  I4  1  0.83105302  0.04508065  0.57488253  1
  I  I5  1  0.16894698  0.95491935  0.42511747  1
  I  I6  1  0.33105302  0.95491935  0.92511747  1
  I  I7  1  0.16894698  0.54508065  0.42511747  1
  I  I8  1  0.66894698  0.04508065  0.07488253  1
  I  I9  1  0.83105302  0.45491935  0.57488253  1
  I  I10  1  0.66894698  0.45491935  0.07488253  1
  I  I11  1  0.33105302  0.54508065  0.92511747  1
  I  I12  1  0.57183943  0.75000000  0.50819667  1
  I  I13  1  0.42816057  0.25000000  0.49180333  1
  I  I14  1  0.07183943  0.25000000  0.99180333  1
  I  I15  1  0.92816057  0.75000000  0.00819667  1
  I  I16  1  0.65897496  0.75000000  0.79394408  1
  I  I17  1  0.34102504  0.25000000  0.20605592  1
  I  I18  1  0.15897496  0.25000000  0.70605592  1
  I  I19  1  0.84102504  0.75000000  0.29394408  1
loop_
_geom_bond_atom_site_label_1
_geom_bond_atom_site_label_2
_geom_bond_distance
_geom_bond_site_symmetry_2
I0 La0 3.228309 1_455
I0 Rb0 3.784060 1_465
I0 Rb5 3.784060 1_455
I0 Rb7 3.865621 1_555
I0 Rb2 3.865621 1_555
I0 I7 4.341311 1_555
I0 I5 4.341311 1_555
I0 I11 4.593913 1_555
I0 I6 4.593913 1_555
I1 La1 3.228309 1_655
I1 Rb1 3.784060 1_645
I1 Rb3 3.784060 1_655
I1 Rb4 3.865621 1_555
I1 Rb6 3.865621 1_555
I1 I4 4.341311 1_555
I1 I9 4.341311 1_555
I1 I10 4.593913 1_555
I1 I8 4.593913 1_555
I2 La2 3.228309 1_555
I2 Rb7 3.784060 1_555
I2 Rb2 3.784060 1_545
I2 Rb5 3.865621 1_555
I2 Rb0 3.865621 1_555
I2 I8 4.341311 1_556
I2 I4 4.593913 1_555
I2 I9 4.593913 1_555
I3 La3 3.228309 1_555
I3 Rb6 3.784060 1_555
I3 Rb4 3.784060 1_565
I3 Rb1 3.865621 1_555
I3 Rb3 3.865621 1_555
I3 I6 4.341311 1_554
I3 I7 4.593913 1_555
I3 I5 4.593913 1_555
I4 La0 3.274566 1_545
I4 La1 3.327035 1_655
I4 Rb0 3.903623 1_555
I4 Rb2 3.962846 1_545
I4 I5 3.971868 1_645
I4 I9 4.151049 1_555
I4 Rb4 4.484111 1_555
I5 La1 3.274566 1_565
I5 La0 3.327035 1_455
I5 Rb1 3.903623 1_555
I5 Rb4 3.962846 1_565
I5 I7 4.151049 1_555
I5 Rb2 4.484111 1_555
I6 La2 3.274566 1_565
I6 La3 3.327035 1_556
I6 Rb2 3.903623 1_555
I6 Rb0 3.962846 1_465
I6 I8 3.971868 1_566
I6 Rb1 4.484111 1_556
I7 La1 3.274566 1_555
I7 La0 3.327035 1_455
I7 Rb3 3.903623 1_555
I7 Rb6 3.962846 1_555
I7 I9 3.971868 1_455
I7 Rb7 4.484111 1_555
I8 La3 3.274566 1_545
I8 La2 3.327035 1_554
I8 Rb4 3.903623 1_555
I8 Rb1 3.962846 1_645
I8 Rb0 4.484111 1_554
I9 La0 3.274566 1_555
I9 La1 3.327035 1_655
I9 Rb5 3.903623 1_555
I9 Rb7 3.962846 1_555
I9 Rb6 4.484111 1_555
I10 La3 3.274566 1_555
I10 La2 3.327035 1_554
I10 Rb6 3.903623 1_555
I10 Rb3 3.962846 1_655
I10 I11 3.971868 1_554
I10 I15 3.975333 1_555
I10 I8 4.151049 1_555
I10 I17 4.185682 1_555
I10 I2 4.341311 1_554
I10 I14 4.479141 1_654
I10 Rb5 4.484111 1_554
I11 La2 3.274566 1_555
I11 La3 3.327035 1_556
I11 Rb7 3.903623 1_555
I11 Rb5 3.962846 1_455
I11 I14 3.975333 1_555
I11 I6 4.151049 1_555
I11 I16 4.185682 1_555
I11 I3 4.341311 1_556
I11 I15 4.479141 1_456
I11 Rb3 4.484111 1_556
I12 La0 3.279383 1_555
I12 Rb7 3.696272 1_555
I12 Rb2 3.696272 1_555
I12 Rb6 3.714766 1_555
I12 Rb4 3.714766 1_565
I12 I9 3.975333 1_555
I12 I4 3.975333 1_565
I12 I19 4.054517 1_555
I12 I16 4.312868 1_555
I12 I5 4.479141 1_555
I12 I7 4.479141 1_555
I13 La1 3.279383 1_555
I13 Rb4 3.696272 1_555
I13 Rb6 3.696272 1_555
I13 Rb7 3.714766 1_555
I13 Rb2 3.714766 1_545
I13 I5 3.975333 1_545
I13 I7 3.975333 1_555
I13 I18 4.054517 1_555
I13 I17 4.312868 1_555
I13 I4 4.479141 1_555
I13 I9 4.479141 1_555
I14 La2 3.279383 1_555
I14 Rb5 3.696272 1_455
I14 Rb0 3.696272 1_455
I14 Rb1 3.714766 1_546
I14 Rb3 3.714766 1_556
I14 I6 3.975333 1_545
I14 I17 4.054517 1_556
I14 I18 4.312868 1_555
I14 I8 4.479141 1_456
I15 La3 3.279383 1_555
I15 Rb1 3.696272 1_655
I15 Rb3 3.696272 1_655
I15 Rb0 3.714766 1_564
I15 Rb5 3.714766 1_554
I15 I8 3.975333 1_565
I15 I16 4.054517 1_554
I15 I19 4.312868 1_555
I15 I6 4.479141 1_654
I16 La3 3.221840 1_556
I16 Rb7 3.692086 1_555
I16 Rb2 3.692086 1_555
I16 Rb0 3.717244 1_565
I16 Rb5 3.717244 1_555
I16 I6 4.185682 1_555
I17 La2 3.221840 1_554
I17 Rb4 3.692086 1_555
I17 Rb6 3.692086 1_555
I17 Rb1 3.717244 1_545
I17 Rb3 3.717244 1_555
I17 I8 4.185682 1_555
I18 La1 3.221840 1_555
I18 Rb0 3.692086 1_455
I18 Rb5 3.692086 1_455
I18 Rb7 3.717244 1_555
I18 Rb2 3.717244 1_545
I18 I4 4.185682 1_455
I18 I9 4.185682 1_455
I19 La0 3.221840 1_555
I19 Rb1 3.692086 1_655
I19 Rb3 3.692086 1_655
I19 Rb6 3.717244 1_555
I19 Rb4 3.717244 1_565
I19 I7 4.185682 1_655
I19 I5 4.185682 1_655
