# generated using pymatgen
data_Sr5CaCu4(BiO2)4
_symmetry_space_group_name_H-M   'P 1'
_cell_length_a   5.66389200
_cell_length_b   5.68662200
_cell_length_c   14.65068388
_cell_angle_alpha   79.26545921
_cell_angle_beta   90.00000000
_cell_angle_gamma   90.00000000
_symmetry_Int_Tables_number   1
_chemical_formula_structural   Sr5CaCu4(BiO2)4
_chemical_formula_sum   'Sr5 Ca1 Cu4 Bi4 O8'
_cell_volume   463.61778259
_cell_formula_units_Z   1
loop_
 _symmetry_equiv_pos_site_id
 _symmetry_equiv_pos_as_xyz
  1  'x, y, z'
loop_
 _atom_site_type_symbol
 _atom_site_label
 _atom_site_symmetry_multiplicity
 _atom_site_fract_x
 _atom_site_fract_y
 _atom_site_fract_z
 _atom_site_occupancy
  Sr  Sr0  1  0.50000000  0.39322400  0.72242700  1
  Sr  Sr1  1  0.50000000  0.60677600  0.27757300  1
  Sr  Sr2  1  0.00000000  0.11000700  0.27827800  1
  Sr  Sr3  1  0.00000000  0.88999300  0.72172200  1
  Sr  Sr4  1  0.00000000  0.00000000  0.50000000  1
  Ca  Ca0  1  0.50000000  0.50000000  0.50000000  1
  Cu  Cu0  1  0.00000000  0.44377000  0.61505500  1
  Cu  Cu1  1  0.00000000  0.55623000  0.38494500  1
  Cu  Cu2  1  0.50000000  0.05468200  0.38495900  1
  Cu  Cu3  1  0.50000000  0.94531800  0.61504100  1
  Bi  Bi0  1  0.00000000  0.20458300  0.91107400  1
  Bi  Bi1  1  0.00000000  0.79541700  0.08892600  1
  Bi  Bi2  1  0.50000000  0.11481400  0.08836600  1
  Bi  Bi3  1  0.50000000  0.88518600  0.91163400  1
  O  O0  1  0.74748600  0.19373500  0.62107000  1
  O  O1  1  0.74748600  0.80626500  0.37893000  1
  O  O2  1  0.25251400  0.80626500  0.37893000  1
  O  O3  1  0.25251400  0.19373500  0.62107000  1
  O  O4  1  0.25418200  0.69061300  0.61577500  1
  O  O5  1  0.25418200  0.30938700  0.38422500  1
  O  O6  1  0.74581800  0.30938700  0.38422500  1
  O  O7  1  0.74581800  0.69061300  0.61577500  1
loop_
_geom_bond_atom_site_label_1
_geom_bond_atom_site_label_2
_geom_bond_distance
_geom_bond_site_symmetry_2
Ca0 O7 2.583666 1_555
Ca0 O4 2.583666 1_555
Ca0 O6 2.583666 1_555
Ca0 O5 2.583666 1_555
Ca0 O1 2.644525 1_555
Ca0 O2 2.644525 1_555
Ca0 O3 2.644525 1_555
Ca0 O0 2.644525 1_555
Cu0 O0 2.007054 1_455
Cu0 O3 2.007054 1_555
Cu0 O4 2.012120 1_555
Cu0 O7 2.012120 1_455
Cu1 O2 2.007054 1_555
Cu1 O1 2.007054 1_455
Cu1 O5 2.012120 1_555
Cu1 O6 2.012120 1_455
Cu2 O1 2.003680 1_545
Cu2 O2 2.003680 1_545
Cu2 O6 2.007653 1_555
Cu2 O5 2.007653 1_555
Cu3 O0 2.003680 1_565
Cu3 O3 2.003680 1_565
Cu3 O7 2.007653 1_555
Cu3 O4 2.007653 1_555
Bi0 Bi1 3.153540 1_546
Bi0 Bi3 3.363531 1_445
Bi0 Bi3 3.363531 1_545
Bi0 Sr3 3.570003 1_545
Bi0 Bi2 3.812258 1_456
Bi0 Bi2 3.812258 1_556
Bi0 Sr0 3.962935 1_455
Bi0 Sr0 3.962935 1_555
Bi0 Sr3 4.342780 1_555
Bi1 Bi2 3.363531 1_465
Bi1 Bi2 3.363531 1_565
Bi1 Sr2 3.570003 1_565
Bi1 Bi3 3.812258 1_454
Bi1 Bi3 3.812258 1_554
Bi1 Sr1 3.962935 1_455
Bi1 Sr1 3.962935 1_555
Bi1 Sr2 4.342780 1_555
Bi2 Bi3 3.109473 1_544
Bi2 Sr1 3.612093 1_545
Bi2 Sr2 3.966579 1_555
Bi2 Sr2 3.966579 1_655
Bi2 Sr1 4.289464 1_555
Bi3 Sr0 3.612093 1_565
Bi3 Sr3 3.966579 1_555
Bi3 Sr3 3.966579 1_655
Bi3 Sr0 4.289464 1_555
O0 Sr0 2.466651 1_555
O0 Sr3 2.500927 1_645
O0 Sr4 2.670846 1_655
O1 Sr1 2.466651 1_555
O1 Sr2 2.500927 1_665
O1 Sr4 2.670846 1_665
O2 Sr1 2.466651 1_555
O2 Sr2 2.500927 1_565
O2 Sr4 2.670846 1_565
O3 Sr0 2.466651 1_555
O3 Sr3 2.500927 1_545
O3 Sr4 2.670846 1_555
O4 Sr0 2.501107 1_555
O4 Sr3 2.534367 1_555
O4 Sr4 2.633127 1_565
O5 Sr1 2.501107 1_555
O5 Sr2 2.534367 1_555
O5 Sr4 2.633127 1_555
O6 Sr1 2.501107 1_555
O6 Sr2 2.534367 1_655
O6 Sr4 2.633127 1_655
O7 Sr0 2.501107 1_555
O7 Sr3 2.534367 1_655
O7 Sr4 2.633127 1_665
