# generated using pymatgen
data_DyGa3(BO3)4
_symmetry_space_group_name_H-M   'P 1'
_cell_length_a   6.05903114
_cell_length_b   6.05903114
_cell_length_c   6.05903067
_cell_angle_alpha   104.04828848
_cell_angle_beta   104.04828848
_cell_angle_gamma   104.04828196
_symmetry_Int_Tables_number   1
_chemical_formula_structural   DyGa3(BO3)4
_chemical_formula_sum   'Dy1 Ga3 B4 O12'
_cell_volume   198.28559255
_cell_formula_units_Z   1
loop_
 _symmetry_equiv_pos_site_id
 _symmetry_equiv_pos_as_xyz
  1  'x, y, z'
loop_
 _atom_site_type_symbol
 _atom_site_label
 _atom_site_symmetry_multiplicity
 _atom_site_fract_x
 _atom_site_fract_y
 _atom_site_fract_z
 _atom_site_occupancy
  Dy  Dy0  1  0.50000000  0.50000000  0.50000000  1
  Ga  Ga0  1  0.04778700  0.95221300  0.50000000  1
  Ga  Ga1  1  0.95221300  0.50000000  0.04778700  1
  Ga  Ga2  1  0.50000000  0.04778700  0.95221300  1
  B  B0  1  0.45037400  0.54962600  0.00000000  1
  B  B1  1  0.54962600  0.00000000  0.45037400  1
  B  B2  1  0.00000000  0.45037400  0.54962600  1
  B  B3  1  0.00000000  0.00000000  0.00000000  1
  O  O0  1  0.29346600  0.52456800  0.13071900  1
  O  O1  1  0.52456800  0.13071900  0.29346600  1
  O  O2  1  0.70653400  0.86928100  0.47543200  1
  O  O3  1  0.13071900  0.29346600  0.52456800  1
  O  O4  1  0.47543200  0.70653400  0.86928100  1
  O  O5  1  0.86928100  0.47543200  0.70653400  1
  O  O6  1  0.85500700  0.14499300  0.00000000  1
  O  O7  1  0.14499300  0.00000000  0.85500700  1
  O  O8  1  0.00000000  0.85500700  0.14499300  1
  O  O9  1  0.59493100  0.40506900  0.00000000  1
  O  O10  1  0.40506900  0.00000000  0.59493100  1
  O  O11  1  0.00000000  0.59493100  0.40506900  1
loop_
_geom_bond_atom_site_label_1
_geom_bond_atom_site_label_2
_geom_bond_distance
_geom_bond_site_symmetry_2
Dy0 O0 2.342497 1_555
Dy0 O4 2.342497 1_555
Dy0 O1 2.342497 1_555
Dy0 O5 2.342497 1_555
Dy0 O3 2.342497 1_555
Dy0 O2 2.342497 1_555
Ga0 O2 1.964623 1_455
Ga0 O3 1.964623 1_565
Ga0 O7 2.014280 1_565
Ga0 O8 2.014280 1_555
Ga0 O10 2.027637 1_565
Ga0 O11 2.027637 1_555
Ga1 O5 1.964622 1_554
Ga1 O0 1.964623 1_655
Ga1 O8 2.014280 1_655
Ga1 O6 2.014280 1_555
Ga1 O11 2.027637 1_655
Ga1 O9 2.027637 1_555
Ga2 O1 1.964622 1_556
Ga2 O4 1.964623 1_545
Ga2 O7 2.014280 1_555
Ga2 O6 2.014280 1_556
Ga2 O10 2.027637 1_555
Ga2 O9 2.027637 1_556
B0 O9 1.380853 1_555
B0 O4 1.381333 1_554
B0 O0 1.381333 1_555
B1 O10 1.380853 1_555
B1 O1 1.381333 1_555
B1 O2 1.381333 1_545
B2 O11 1.380853 1_555
B2 O5 1.381333 1_455
B2 O3 1.381333 1_555
B3 O6 1.385018 1_455
B3 O8 1.385018 1_545
B3 O7 1.385018 1_554
