# generated using pymatgen
data_LaHSe2O7
_symmetry_space_group_name_H-M   'P 1'
_cell_length_a   7.48898200
_cell_length_b   8.85775760
_cell_length_c   9.74816763
_cell_angle_alpha   103.82284073
_cell_angle_beta   90.00000000
_cell_angle_gamma   90.00000000
_symmetry_Int_Tables_number   1
_chemical_formula_structural   LaHSe2O7
_chemical_formula_sum   'La4 H4 Se8 O28'
_cell_volume   627.92285403
_cell_formula_units_Z   4
loop_
 _symmetry_equiv_pos_site_id
 _symmetry_equiv_pos_as_xyz
  1  'x, y, z'
loop_
 _atom_site_type_symbol
 _atom_site_label
 _atom_site_symmetry_multiplicity
 _atom_site_fract_x
 _atom_site_fract_y
 _atom_site_fract_z
 _atom_site_occupancy
  La  La0  1  0.60986700  0.72660600  0.70955200  1
  La  La1  1  0.10986700  0.27339400  0.29044800  1
  La  La2  1  0.78501200  0.26991300  0.72764400  1
  La  La3  1  0.28501200  0.73008700  0.27235600  1
  H  H0  1  0.64046600  0.94483700  0.21927400  1
  H  H1  1  0.14046600  0.05516300  0.78072600  1
  H  H2  1  0.44298200  0.24451600  0.98621600  1
  H  H3  1  0.94298200  0.75548400  0.01378400  1
  Se  Se0  1  0.61403300  0.43781300  0.39918800  1
  Se  Se1  1  0.11403300  0.56218700  0.60081200  1
  Se  Se2  1  0.17544700  0.48211200  0.97933900  1
  Se  Se3  1  0.67544700  0.51788800  0.02066100  1
  Se  Se4  1  0.94801700  0.98969100  0.95441000  1
  Se  Se5  1  0.44801700  0.01030900  0.04559000  1
  Se  Se6  1  0.81588700  0.94291200  0.40728100  1
  Se  Se7  1  0.31588700  0.05708800  0.59271900  1
  O  O0  1  0.75099300  0.92803100  0.56489500  1
  O  O1  1  0.25099300  0.07196900  0.43510500  1
  O  O2  1  0.96127800  0.81708300  0.32179300  1
  O  O3  1  0.46127800  0.18291700  0.67820700  1
  O  O4  1  0.78442000  0.02590700  0.84374400  1
  O  O5  1  0.28442000  0.97409300  0.15625600  1
  O  O6  1  0.65988600  0.54453500  0.84695800  1
  O  O7  1  0.15988600  0.45546500  0.15304200  1
  O  O8  1  0.95167500  0.68344000  0.67260600  1
  O  O9  1  0.45167500  0.31656000  0.32739400  1
  O  O10  1  0.61997400  0.32418400  0.96474400  1
  O  O11  1  0.11997400  0.67581600  0.03525600  1
  O  O12  1  0.42451800  0.87314000  0.89271900  1
  O  O13  1  0.92451800  0.12686000  0.10728100  1
  O  O14  1  0.65360100  0.42928100  0.56849400  1
  O  O15  1  0.15360100  0.57071900  0.43150600  1
  O  O16  1  0.98610700  0.39266600  0.89726800  1
  O  O17  1  0.48610700  0.60733400  0.10273200  1
  O  O18  1  0.29915000  0.59208900  0.69629600  1
  O  O19  1  0.79915000  0.40791100  0.30370400  1
  O  O20  1  0.61443800  0.90808800  0.30507800  1
  O  O21  1  0.11443800  0.09191200  0.69492200  1
  O  O22  1  0.54894700  0.62571400  0.42524000  1
  O  O23  1  0.04894700  0.37428600  0.57476000  1
  O  O24  1  0.36305100  0.87155900  0.58002100  1
  O  O25  1  0.86305100  0.12844100  0.41997900  1
  O  O26  1  0.83845300  0.82708400  0.99927000  1
  O  O27  1  0.33845300  0.17291600  0.00073000  1
loop_
_geom_bond_atom_site_label_1
_geom_bond_atom_site_label_2
_geom_bond_distance
_geom_bond_site_symmetry_2
La0 O6 2.359582 1_555
La0 O12 2.385832 1_555
La0 O8 2.600510 1_555
La0 O18 2.603374 1_555
La0 O14 2.683957 1_555
La0 O24 2.726576 1_555
La0 O0 2.736970 1_555
La0 O22 2.739451 1_555
La0 O4 2.965027 1_565
La1 O7 2.359582 1_555
La1 O13 2.385832 1_455
La1 O9 2.600510 1_555
La1 O19 2.603374 1_455
La1 O15 2.683957 1_555
La1 O25 2.726576 1_455
La1 O1 2.736970 1_555
La1 O23 2.739451 1_555
La1 O5 2.965027 1_545
La2 O16 2.307663 1_555
La2 O14 2.532718 1_555
La2 O3 2.554702 1_555
La2 O10 2.563171 1_555
La2 O6 2.606946 1_555
La2 O4 2.668555 1_555
La2 O23 2.764269 1_655
La2 O21 2.904099 1_655
La2 O25 3.018446 1_555
La2 O0 3.075191 1_545
La3 O17 2.307663 1_555
La3 O15 2.532718 1_555
La3 O2 2.554702 1_455
La3 O11 2.563171 1_555
La3 O7 2.606946 1_555
La3 O5 2.668555 1_555
La3 O22 2.764269 1_555
La3 O20 2.904099 1_555
La3 O24 3.018446 1_555
La3 O1 3.075191 1_565
H0 O20 0.986749 1_555
H1 O21 0.986749 1_555
H2 O27 1.038232 1_556
H2 O10 1.539253 1_555
H3 O26 1.038232 1_554
H3 O11 1.539253 1_655
O0 Se6 1.646513 1_555
O1 Se7 1.646513 1_555
O2 Se6 1.636596 1_555
O3 Se7 1.636596 1_555
O4 Se4 1.712634 1_545
O5 Se5 1.712634 1_565
O6 Se3 1.768471 1_556
O7 Se2 1.768471 1_554
O8 Se1 1.662097 1_655
O9 Se0 1.662097 1_555
O10 Se3 1.722416 1_556
O11 Se2 1.722416 1_554
O12 Se5 1.691970 1_566
O13 Se4 1.691970 1_544
O14 Se0 1.696177 1_555
O15 Se1 1.696177 1_555
O16 Se2 1.724971 1_655
O17 Se3 1.724971 1_555
O18 Se1 1.655494 1_555
O19 Se0 1.655494 1_555
O20 Se6 1.793576 1_555
O21 Se7 1.793576 1_555
O22 Se0 1.694187 1_555
O23 Se1 1.694187 1_555
O24 Se7 1.656365 1_565
O25 Se6 1.656365 1_545
O26 Se4 1.800007 1_555
O27 Se5 1.800007 1_555
