# generated using pymatgen
data_Bi4(TeSe)3
_symmetry_space_group_name_H-M   'P 1'
_cell_length_a   10.77668119
_cell_length_b   10.77668119
_cell_length_c   7.41467891
_cell_angle_alpha   83.36944366
_cell_angle_beta   83.36944366
_cell_angle_gamma   22.93308009
_symmetry_Int_Tables_number   1
_chemical_formula_structural   Bi4(TeSe)3
_chemical_formula_sum   'Bi4 Te3 Se3'
_cell_volume   333.20239670
_cell_formula_units_Z   1
loop_
 _symmetry_equiv_pos_site_id
 _symmetry_equiv_pos_as_xyz
  1  'x, y, z'
loop_
 _atom_site_type_symbol
 _atom_site_label
 _atom_site_symmetry_multiplicity
 _atom_site_fract_x
 _atom_site_fract_y
 _atom_site_fract_z
 _atom_site_occupancy
  Bi  Bi0  1  0.09014900  0.09014900  0.29915158  1
  Bi  Bi1  1  0.59140165  0.59140165  0.80858399  1
  Bi  Bi2  1  0.41285727  0.41285727  0.19629732  1
  Bi  Bi3  1  0.91059730  0.91059730  0.69574589  1
  Te  Te0  1  0.17502705  0.17502705  0.60875547  1
  Te  Te1  1  0.82736249  0.82736249  0.38853180  1
  Te  Te2  1  0.32689511  0.32689511  0.89346365  1
  Se  Se0  1  0.00101824  0.00101824  0.99928446  1
  Se  Se1  1  0.50219137  0.50219137  0.49854477  1
  Se  Se2  1  0.66250153  0.66250153  0.11164307  1
loop_
_geom_bond_atom_site_label_1
_geom_bond_atom_site_label_2
_geom_bond_distance
_geom_bond_site_symmetry_2
Bi0 Se2 2.890974 1_545
Bi0 Se2 2.890974 1_455
Bi0 Te0 3.074759 1_555
Bi0 Se0 3.078090 1_554
Bi0 Se1 3.095185 1_455
Bi0 Se1 3.095185 1_545
Bi1 Se2 2.846083 1_556
Bi1 Te0 3.047719 1_655
Bi1 Te0 3.047719 1_565
Bi1 Se0 3.098050 1_655
Bi1 Se0 3.098050 1_565
Bi1 Se1 3.139493 1_555
Bi2 Te1 3.045676 1_455
Bi2 Te1 3.045676 1_545
Bi2 Te2 3.049547 1_554
Bi2 Se0 3.090391 1_564
Bi2 Se0 3.090391 1_654
Bi2 Se1 3.095113 1_555
Bi3 Te1 3.037059 1_555
Bi3 Te2 3.042062 1_565
Bi3 Te2 3.042062 1_655
Bi3 Se0 3.118706 1_665
Bi3 Se1 3.131190 1_655
Bi3 Se1 3.131190 1_565
Te0 Te2 4.042647 1_555
Te0 Te1 4.046257 1_545
Te0 Te1 4.046257 1_455
Se2 Te2 4.235728 1_564
Se2 Te2 4.235728 1_654
Se2 Te1 4.245784 1_555
