# generated using pymatgen
data_KSNO4
_symmetry_space_group_name_H-M   'P 1'
_cell_length_a   5.63765800
_cell_length_b   7.41544400
_cell_length_c   12.39325900
_cell_angle_alpha   90.00000000
_cell_angle_beta   90.00000000
_cell_angle_gamma   90.00000000
_symmetry_Int_Tables_number   1
_chemical_formula_structural   KSNO4
_chemical_formula_sum   'K4 S4 N4 O16'
_cell_volume   518.10932868
_cell_formula_units_Z   4
loop_
 _symmetry_equiv_pos_site_id
 _symmetry_equiv_pos_as_xyz
  1  'x, y, z'
loop_
 _atom_site_type_symbol
 _atom_site_label
 _atom_site_symmetry_multiplicity
 _atom_site_fract_x
 _atom_site_fract_y
 _atom_site_fract_z
 _atom_site_occupancy
  K  K0  1  0.97947600  0.81244100  0.84268100  1
  K  K1  1  0.47947600  0.68755900  0.15731900  1
  K  K2  1  0.02052400  0.31244100  0.65731900  1
  K  K3  1  0.52052400  0.18755900  0.34268100  1
  S  S0  1  0.46816200  0.99539200  0.64454300  1
  S  S1  1  0.96816200  0.50460800  0.35545700  1
  S  S2  1  0.53183800  0.49539200  0.85545700  1
  S  S3  1  0.03183800  0.00460800  0.14454300  1
  N  N0  1  0.38822600  0.76393000  0.58349400  1
  N  N1  1  0.88822600  0.73607000  0.41650600  1
  N  N2  1  0.61177400  0.26393000  0.91650600  1
  N  N3  1  0.11177400  0.23607000  0.08349400  1
  O  O0  1  0.22129100  0.69718600  0.62774700  1
  O  O1  1  0.72129100  0.80281400  0.37225300  1
  O  O2  1  0.77870900  0.19718600  0.87225300  1
  O  O3  1  0.27870900  0.30281400  0.12774700  1
  O  O4  1  0.32341400  0.01899100  0.74231100  1
  O  O5  1  0.82341400  0.48100900  0.25768900  1
  O  O6  1  0.67658600  0.51899100  0.75768900  1
  O  O7  1  0.17658600  0.98100900  0.24231100  1
  O  O8  1  0.72487000  0.98330500  0.66320400  1
  O  O9  1  0.22487000  0.51669500  0.33679600  1
  O  O10  1  0.27513000  0.48330500  0.83679600  1
  O  O11  1  0.77513000  0.01669500  0.16320400  1
  O  O12  1  0.40081600  0.11809500  0.55596400  1
  O  O13  1  0.90081600  0.38190500  0.44403600  1
  O  O14  1  0.59918400  0.61809500  0.94403600  1
  O  O15  1  0.09918400  0.88190500  0.05596400  1
loop_
_geom_bond_atom_site_label_1
_geom_bond_atom_site_label_2
_geom_bond_distance
_geom_bond_site_symmetry_2
K0 O4 2.766412 1_665
K0 O15 2.776269 1_656
K0 O14 2.872513 1_555
K0 O8 2.934829 1_555
K0 O10 2.956433 1_655
K0 O6 2.959833 1_555
K0 O2 3.091171 1_565
K0 O0 3.111982 1_655
K1 O5 2.766412 1_555
K1 O14 2.776269 1_554
K1 O15 2.872513 1_555
K1 O9 2.934829 1_555
K1 O11 2.956433 1_565
K1 O7 2.959833 1_555
K1 O3 3.091171 1_555
K1 O1 3.111982 1_555
K2 O6 2.766412 1_455
K2 O13 2.776269 1_455
K2 O12 2.872513 1_555
K2 O10 2.934829 1_555
K2 O8 2.956433 1_445
K2 O4 2.959833 1_555
K2 O0 3.091171 1_555
K2 O2 3.111982 1_455
K3 O7 2.766412 1_545
K3 O12 2.776269 1_555
K3 O13 2.872513 1_555
K3 O11 2.934829 1_555
K3 O9 2.956433 1_555
K3 O5 2.959833 1_555
K3 O1 3.091171 1_545
K3 O3 3.111982 1_555
N0 O0 1.196436 1_555
N0 S0 1.929127 1_555
N1 O1 1.196436 1_555
N1 S1 1.929127 1_555
N2 O2 1.196436 1_555
N2 S2 1.929127 1_555
N3 O3 1.196436 1_555
N3 S3 1.929127 1_555
O4 S0 1.471283 1_545
O5 S1 1.471283 1_555
O6 S2 1.471283 1_555
O7 S3 1.471283 1_565
O8 S0 1.468332 1_555
O9 S1 1.468332 1_455
O10 S2 1.468332 1_555
O11 S3 1.468332 1_655
O12 S0 1.475531 1_545
O13 S1 1.475531 1_555
O14 S2 1.475531 1_555
O15 S3 1.475531 1_565
