# generated using pymatgen
data_K4SnSe4
_symmetry_space_group_name_H-M   'P 1'
_cell_length_a   8.35884494
_cell_length_b   10.30176987
_cell_length_c   14.77403316
_cell_angle_alpha   90.00000000
_cell_angle_beta   90.00000000
_cell_angle_gamma   90.00000000
_symmetry_Int_Tables_number   1
_chemical_formula_structural   K4SnSe4
_chemical_formula_sum   'K16 Sn4 Se16'
_cell_volume   1272.20524699
_cell_formula_units_Z   4
loop_
 _symmetry_equiv_pos_site_id
 _symmetry_equiv_pos_as_xyz
  1  'x, y, z'
loop_
 _atom_site_type_symbol
 _atom_site_label
 _atom_site_symmetry_multiplicity
 _atom_site_fract_x
 _atom_site_fract_y
 _atom_site_fract_z
 _atom_site_occupancy
  K  K0  1  -0.00000000  0.00000000  -0.00000000  1
  K  K1  1  0.50000000  0.00000000  0.50000000  1
  K  K2  1  -0.00000000  0.50000000  -0.00000000  1
  K  K3  1  0.50000000  0.50000000  0.50000000  1
  K  K4  1  0.98659335  0.75000000  0.42316486  1
  K  K5  1  0.48659335  0.25000000  0.07683514  1
  K  K6  1  0.01340665  0.25000000  0.57683514  1
  K  K7  1  0.51340665  0.75000000  0.92316486  1
  K  K8  1  0.84272619  0.04915640  0.27212699  1
  K  K9  1  0.34272619  0.95084360  0.22787301  1
  K  K10  1  0.15727381  0.54915640  0.72787301  1
  K  K11  1  0.65727381  0.45084360  0.77212699  1
  K  K12  1  0.15727381  0.95084360  0.72787301  1
  K  K13  1  0.65727381  0.04915640  0.77212699  1
  K  K14  1  0.84272619  0.45084360  0.27212699  1
  K  K15  1  0.34272619  0.54915640  0.22787301  1
  Sn  Sn0  1  0.76103839  0.75000000  0.66606637  1
  Sn  Sn1  1  0.23896161  0.25000000  0.33393363  1
  Sn  Sn2  1  0.73896161  0.75000000  0.16606637  1
  Sn  Sn3  1  0.26103839  0.25000000  0.83393363  1
  Se  Se0  1  0.95665552  0.25000000  0.82595684  1
  Se  Se1  1  0.54334448  0.25000000  0.32595684  1
  Se  Se2  1  0.45665552  0.75000000  0.67404316  1
  Se  Se3  1  0.04334448  0.75000000  0.17404316  1
  Se  Se4  1  0.64446815  0.54943013  0.08487640  1
  Se  Se5  1  0.14446815  0.45056987  0.41512360  1
  Se  Se6  1  0.35553185  0.04943013  0.91512360  1
  Se  Se7  1  0.85553185  0.95056987  0.58487640  1
  Se  Se8  1  0.35553185  0.45056987  0.91512360  1
  Se  Se9  1  0.85553185  0.54943013  0.58487640  1
  Se  Se10  1  0.64446815  0.95056987  0.08487640  1
  Se  Se11  1  0.14446815  0.04943013  0.41512360  1
  Se  Se12  1  0.62154250  0.75000000  0.32622878  1
  Se  Se13  1  0.12154250  0.25000000  0.17377122  1
  Se  Se14  1  0.37845750  0.25000000  0.67377122  1
  Se  Se15  1  0.87845750  0.75000000  0.82622878  1
loop_
_geom_bond_atom_site_label_1
_geom_bond_atom_site_label_2
_geom_bond_distance
_geom_bond_site_symmetry_2
K0 Se10 3.265508 1_445
K0 Se6 3.265508 1_554
K0 Se0 3.657302 1_454
K0 Se3 3.657302 1_545
K0 Se13 3.775726 1_555
K0 Se15 3.775726 1_444
K1 Se7 3.265508 1_545
K1 Se11 3.265508 1_555
K1 Se2 3.657302 1_545
K1 Se1 3.657302 1_555
K1 Se12 3.775726 1_545
K1 Se14 3.775726 1_555
K2 Se4 3.265508 1_455
K2 Se8 3.265508 1_554
K2 Se0 3.657302 1_454
K2 Se3 3.657302 1_555
K2 Se15 3.775726 1_454
K2 Se13 3.775726 1_555
K3 Se9 3.265508 1_555
K3 Se5 3.265508 1_555
K3 Se2 3.657302 1_555
K3 Se1 3.657302 1_555
K3 Se12 3.775726 1_555
K3 Se14 3.775726 1_555
K4 Se9 3.343263 1_555
K4 Se7 3.343263 1_555
K4 Se11 3.357190 1_665
K4 Se5 3.357190 1_655
K4 Se12 3.370768 1_555
K4 Se3 3.710977 1_655
K4 K8 3.990391 1_565
K5 Se8 3.343263 1_554
K5 Se6 3.343263 1_554
K5 Se4 3.357190 1_555
K5 Se10 3.357190 1_545
K5 Se13 3.370768 1_555
K5 Se1 3.710977 1_555
K5 K9 3.990391 1_545
K6 Se11 3.343263 1_555
K6 Se5 3.343263 1_555
K6 Se9 3.357190 1_455
K6 Se7 3.357190 1_445
K6 Se14 3.370768 1_555
K6 Se0 3.710977 1_455
K7 Se4 3.343263 1_556
K7 Se10 3.343263 1_556
K7 Se6 3.357190 1_565
K7 Se8 3.357190 1_555
K7 Se15 3.370768 1_555
K7 Se2 3.710977 1_555
K8 Se11 3.290107 1_655
K8 Se1 3.343031 1_555
K8 Se10 3.380982 1_545
K8 Se13 3.438618 1_655
K8 Sn2 3.564457 1_545
K8 Se12 3.681689 1_545
K8 Se3 3.796015 1_645
K9 Se10 3.290107 1_555
K9 Se3 3.343031 1_555
K9 Se11 3.380982 1_565
K9 Se12 3.438618 1_555
K9 Sn1 3.564457 1_565
K9 Se13 3.681689 1_565
K9 Se1 3.796015 1_565
K10 Se9 3.290107 1_455
K10 Se2 3.343031 1_555
K10 Se8 3.380982 1_555
K10 Se15 3.438618 1_455
K10 Sn3 3.564457 1_555
K10 Se14 3.681689 1_555
K10 Se0 3.796015 1_455
K10 K6 3.990391 1_555
K10 K12 4.138089 1_555
K11 Se8 3.290107 1_555
K11 Se0 3.343031 1_555
K11 Se9 3.380982 1_555
K11 Se14 3.438618 1_555
K11 Sn0 3.564457 1_555
K11 Se15 3.681689 1_555
K11 Se2 3.796015 1_555
K11 K7 3.990391 1_555
K11 K13 4.138089 1_555
K12 Se7 3.290107 1_455
K12 Se2 3.343031 1_555
K12 Se6 3.380982 1_565
K12 Se15 3.438618 1_455
K12 Sn3 3.564457 1_565
K12 Se14 3.681689 1_565
K12 Se0 3.796015 1_465
K12 K6 3.990391 1_565
K13 Se6 3.290107 1_555
K13 Se0 3.343031 1_555
K13 Se7 3.380982 1_545
K13 Se14 3.438618 1_555
K13 Sn0 3.564457 1_545
K13 Se15 3.681689 1_545
K13 Se2 3.796015 1_545
K13 K7 3.990391 1_545
K14 Se5 3.290107 1_655
K14 Se1 3.343031 1_555
K14 Se4 3.380982 1_555
K14 Se13 3.438618 1_655
K14 Sn2 3.564457 1_555
K14 Se12 3.681689 1_555
K14 Se3 3.796015 1_655
K14 K4 3.990391 1_555
K14 K8 4.138089 1_555
K15 Se4 3.290107 1_555
K15 Se3 3.343031 1_555
K15 Se5 3.380982 1_555
K15 Se12 3.438618 1_555
K15 Sn1 3.564457 1_555
K15 Se13 3.681689 1_555
K15 Se1 3.796015 1_555
K15 K5 3.990391 1_555
K15 K9 4.138089 1_555
Se0 Sn3 2.547017 1_655
Se1 Sn1 2.547017 1_555
Se2 Sn0 2.547017 1_555
Se3 Sn2 2.547017 1_455
Se4 Sn2 2.516340 1_555
Se5 Sn1 2.516340 1_555
Se6 Sn3 2.516340 1_555
Se7 Sn0 2.516340 1_555
Se8 Sn3 2.516340 1_555
Se9 Sn0 2.516340 1_555
Se10 Sn2 2.516340 1_555
Se11 Sn1 2.516340 1_555
Se12 Sn2 2.561725 1_555
Se13 Sn1 2.561725 1_555
Se14 Sn3 2.561725 1_555
Se15 Sn0 2.561725 1_555
