# generated using pymatgen
data_Li2CrCoO4
_symmetry_space_group_name_H-M   'P 1'
_cell_length_a   5.97388537
_cell_length_b   5.88256804
_cell_length_c   5.97399367
_cell_angle_alpha   120.64642369
_cell_angle_beta   90.74332057
_cell_angle_gamma   59.35511551
_symmetry_Int_Tables_number   1
_chemical_formula_structural   Li2CrCoO4
_chemical_formula_sum   'Li4 Cr2 Co2 O8'
_cell_volume   146.49462557
_cell_formula_units_Z   2
loop_
 _symmetry_equiv_pos_site_id
 _symmetry_equiv_pos_as_xyz
  1  'x, y, z'
loop_
 _atom_site_type_symbol
 _atom_site_label
 _atom_site_symmetry_multiplicity
 _atom_site_fract_x
 _atom_site_fract_y
 _atom_site_fract_z
 _atom_site_occupancy
  Li  Li0  1  0.49787900  0.00391700  0.50242500  1
  Li  Li1  1  0.99853100  0.50339900  0.00301200  1
  Li  Li2  1  0.99787000  0.50464500  0.50304000  1
  Li  Li3  1  0.99780300  0.00422700  0.50261000  1
  Cr  Cr0  1  0.99698400  0.00528100  0.00384600  1
  Cr  Cr1  1  0.49692600  0.50555400  0.50385600  1
  Co  Co0  1  0.49766800  0.00445600  0.00324200  1
  Co  Co1  1  0.49773000  0.50433000  0.00302100  1
  O  O0  1  0.75083200  0.01333600  0.24183600  1
  O  O1  1  0.25915700  0.51318300  0.74980100  1
  O  O2  1  0.73500200  0.49758500  0.25777000  1
  O  O3  1  0.24287600  0.99777800  0.76600400  1
  O  O4  1  0.27166300  0.48180300  0.24626700  1
  O  O5  1  0.74048300  0.02784400  0.77726100  1
  O  O6  1  0.25458200  0.98165800  0.22914000  1
  O  O7  1  0.72353200  0.52796900  0.76036500  1
loop_
_geom_bond_atom_site_label_1
_geom_bond_atom_site_label_2
_geom_bond_distance
_geom_bond_site_symmetry_2
Li0 O2 2.080583 1_545
Li0 O1 2.092457 1_555
Li0 O6 2.170138 1_545
Li0 O5 2.174074 1_555
Li0 O0 2.223589 1_555
Li0 O3 2.231063 1_545
Li1 O3 2.077607 1_644
Li1 O0 2.095266 1_565
Li1 O4 2.169246 1_655
Li1 O7 2.175024 1_554
Li1 O1 2.226393 1_654
Li1 O2 2.228438 1_555
Li2 O1 2.134661 1_655
Li2 O2 2.135271 1_555
Li2 O6 2.148827 1_645
Li2 O5 2.149732 1_565
Li2 O4 2.162689 1_655
Li2 O7 2.165403 1_555
Li3 O0 2.133405 1_555
Li3 O3 2.136646 1_645
Li3 O4 2.146582 1_645
Li3 O7 2.151904 1_555
Li3 O6 2.162400 1_645
Li3 O5 2.165579 1_555
Cr0 O1 2.024102 1_644
Cr0 O2 2.024810 1_555
Cr0 O0 2.024963 1_555
Cr0 O3 2.025510 1_644
Cr0 O6 2.029236 1_645
Cr0 O5 2.029748 1_554
Cr1 O0 2.024487 1_555
Cr1 O3 2.024578 1_555
Cr1 O1 2.024913 1_555
Cr1 O2 2.025395 1_555
Cr1 O4 2.029084 1_555
Cr1 O7 2.029850 1_555
Co0 O7 1.957442 1_544
Co0 O4 1.960990 1_555
Co0 O0 2.066482 1_555
Co0 O3 2.067649 1_544
Co0 O6 2.093288 1_545
Co0 O5 2.095031 1_554
Co1 O5 1.957444 1_554
Co1 O6 1.960906 1_555
Co1 O1 2.066642 1_554
Co1 O2 2.067617 1_555
Co1 O4 2.093497 1_555
Co1 O7 2.094705 1_554
