# generated using pymatgen
data_KAlBr4
_symmetry_space_group_name_H-M   'P 1'
_cell_length_a   7.54788484
_cell_length_b   8.67820379
_cell_length_c   13.32001408
_cell_angle_alpha   74.81699377
_cell_angle_beta   90.00000000
_cell_angle_gamma   90.00000000
_symmetry_Int_Tables_number   1
_chemical_formula_structural   KAlBr4
_chemical_formula_sum   'K4 Al4 Br16'
_cell_volume   842.03376461
_cell_formula_units_Z   4
loop_
 _symmetry_equiv_pos_site_id
 _symmetry_equiv_pos_as_xyz
  1  'x, y, z'
loop_
 _atom_site_type_symbol
 _atom_site_label
 _atom_site_symmetry_multiplicity
 _atom_site_fract_x
 _atom_site_fract_y
 _atom_site_fract_z
 _atom_site_occupancy
  K  K0  1  0.89662785  -0.00000000  0.75000000  1
  K  K1  1  0.10337215  -0.00000000  0.25000000  1
  K  K2  1  0.36305244  0.50000000  0.75000000  1
  K  K3  1  0.63694756  0.50000000  0.25000000  1
  Al  Al0  1  0.78500073  0.71080024  0.54909562  1
  Al  Al1  1  0.21499927  0.28919976  0.45090438  1
  Al  Al2  1  0.78500073  0.28919976  0.95090438  1
  Al  Al3  1  0.21499927  0.71080024  0.04909562  1
  Br  Br0  1  0.24606042  0.79074488  0.86980245  1
  Br  Br1  1  0.75393958  0.20925512  0.13019755  1
  Br  Br2  1  0.24606042  0.20925512  0.63019755  1
  Br  Br3  1  0.75393958  0.79074488  0.36980245  1
  Br  Br4  1  0.58303885  0.84759693  0.62461689  1
  Br  Br5  1  0.41696115  0.15240307  0.37538311  1
  Br  Br6  1  0.58303885  0.15240307  0.87538311  1
  Br  Br7  1  0.41696115  0.84759693  0.12461689  1
  Br  Br8  1  0.72810534  0.44180033  0.60646041  1
  Br  Br9  1  0.27189466  0.55819967  0.39353959  1
  Br  Br10  1  0.72810534  0.55819967  0.89353959  1
  Br  Br11  1  0.27189466  0.44180033  0.10646041  1
  Br  Br12  1  0.93336709  0.77443707  0.09410902  1
  Br  Br13  1  0.06663291  0.22556293  0.90589098  1
  Br  Br14  1  0.93336709  0.22556293  0.40589098  1
  Br  Br15  1  0.06663291  0.77443707  0.59410902  1
loop_
_geom_bond_atom_site_label_1
_geom_bond_atom_site_label_2
_geom_bond_distance
_geom_bond_site_symmetry_2
Al0 Br8 2.298592 1_555
Al0 Br15 2.314441 1_655
Al0 Br4 2.317440 1_555
Al0 Br3 2.317726 1_555
Al1 Br9 2.298592 1_555
Al1 Br14 2.314441 1_455
Al1 Br5 2.317440 1_555
Al1 Br2 2.317726 1_555
Al2 Br10 2.298592 1_555
Al2 Br13 2.314441 1_655
Al2 Br6 2.317440 1_555
Al2 Br1 2.317726 1_556
Al3 Br11 2.298592 1_555
Al3 Br12 2.314441 1_455
Al3 Br7 2.317440 1_555
Al3 Br0 2.317726 1_554
Br0 K0 3.358952 1_465
Br0 K2 3.435335 1_555
Br1 K1 3.358952 1_655
Br1 K3 3.435335 1_555
Br2 K0 3.358952 1_455
Br2 K2 3.435335 1_555
Br3 K1 3.358952 1_665
Br3 K3 3.435335 1_555
Br4 K0 3.361230 1_565
Br4 K2 3.465080 1_555
Br5 K1 3.361230 1_555
Br5 K3 3.465080 1_555
Br6 K0 3.361230 1_555
Br6 K2 3.465080 1_555
Br7 K1 3.361230 1_565
Br7 K3 3.465080 1_555
Br8 K2 3.465338 1_555
Br8 K0 4.016661 1_555
Br9 K3 3.465338 1_555
Br9 K1 4.016661 1_565
Br10 K2 3.465338 1_555
Br10 K0 4.016661 1_565
Br11 K3 3.465338 1_555
Br11 K1 4.016661 1_555
Br12 K1 3.452404 1_665
Br12 K3 3.521239 1_555
Br13 K0 3.452404 1_455
Br13 K2 3.521239 1_555
Br14 K1 3.452404 1_655
Br14 K3 3.521239 1_555
Br15 K0 3.452404 1_465
Br15 K2 3.521239 1_555
