# generated using pymatgen
data_HoBi2C
_symmetry_space_group_name_H-M   'P 1'
_cell_length_a   11.51215400
_cell_length_b   11.51215400
_cell_length_c   5.63520400
_cell_angle_alpha   90.00000000
_cell_angle_beta   90.00000000
_cell_angle_gamma   90.00000000
_symmetry_Int_Tables_number   1
_chemical_formula_structural   HoBi2C
_chemical_formula_sum   'Ho8 Bi16 C8'
_cell_volume   746.83183763
_cell_formula_units_Z   8
loop_
 _symmetry_equiv_pos_site_id
 _symmetry_equiv_pos_as_xyz
  1  'x, y, z'
loop_
 _atom_site_type_symbol
 _atom_site_label
 _atom_site_symmetry_multiplicity
 _atom_site_fract_x
 _atom_site_fract_y
 _atom_site_fract_z
 _atom_site_occupancy
  Ho  Ho0  1  0.16428200  0.66428200  0.25000000  1
  Ho  Ho1  1  0.83571800  0.33571800  0.75000000  1
  Ho  Ho2  1  0.83571800  0.33571800  0.25000000  1
  Ho  Ho3  1  0.33571800  0.16428200  0.75000000  1
  Ho  Ho4  1  0.16428200  0.66428200  0.75000000  1
  Ho  Ho5  1  0.66428200  0.83571800  0.25000000  1
  Ho  Ho6  1  0.66428200  0.83571800  0.75000000  1
  Ho  Ho7  1  0.33571800  0.16428200  0.25000000  1
  Bi  Bi0  1  0.10824900  0.39147600  0.00000000  1
  Bi  Bi1  1  0.89175100  0.60852400  0.00000000  1
  Bi  Bi2  1  0.60852400  0.10824900  0.50000000  1
  Bi  Bi3  1  0.39175100  0.89147600  0.00000000  1
  Bi  Bi4  1  0.39147600  0.89175100  0.50000000  1
  Bi  Bi5  1  0.60824900  0.10852400  0.00000000  1
  Bi  Bi6  1  0.89147600  0.60824900  0.50000000  1
  Bi  Bi7  1  0.10852400  0.39175100  0.50000000  1
  Bi  Bi8  1  0.93567700  0.12214500  0.00000000  1
  Bi  Bi9  1  0.06432300  0.87785500  0.00000000  1
  Bi  Bi10  1  0.87785500  0.93567700  0.50000000  1
  Bi  Bi11  1  0.56432300  0.62214500  0.00000000  1
  Bi  Bi12  1  0.12214500  0.06432300  0.50000000  1
  Bi  Bi13  1  0.43567700  0.37785500  0.00000000  1
  Bi  Bi14  1  0.62214500  0.43567700  0.50000000  1
  Bi  Bi15  1  0.37785500  0.56432300  0.50000000  1
  C  C0  1  0.35405400  0.57549000  0.00000000  1
  C  C1  1  0.64594600  0.42451000  0.00000000  1
  C  C2  1  0.42451000  0.35405400  0.50000000  1
  C  C3  1  0.14594600  0.07549000  0.00000000  1
  C  C4  1  0.57549000  0.64594600  0.50000000  1
  C  C5  1  0.85405400  0.92451000  0.00000000  1
  C  C6  1  0.07549000  0.85405400  0.50000000  1
  C  C7  1  0.92451000  0.14594600  0.50000000  1
loop_
_geom_bond_atom_site_label_1
_geom_bond_atom_site_label_2
_geom_bond_distance
_geom_bond_site_symmetry_2
Ho0 Ho4 2.817602 1_555
Ho0 Ho4 2.817602 1_554
Ho1 Ho2 2.817602 1_555
Ho1 Ho2 2.817602 1_556
Ho3 Ho7 2.817602 1_555
Ho3 Ho7 2.817602 1_556
Ho5 Ho6 2.817602 1_555
Ho5 Ho6 2.817602 1_554
Bi0 Bi7 2.817606 1_555
Bi0 Bi7 2.817606 1_554
Bi0 Ho2 3.498592 1_455
Bi0 Ho1 3.498592 1_454
Bi0 Ho0 3.502013 1_555
Bi0 Ho4 3.502013 1_554
Bi0 Bi1 3.529207 1_455
Bi0 C0 3.534836 1_555
Bi0 C3 3.663474 1_555
Bi0 Bi8 3.682455 1_455
Bi0 Bi13 3.772662 1_555
Bi1 Bi6 2.817606 1_555
Bi1 Bi6 2.817606 1_554
Bi1 Ho4 3.498592 1_654
Bi1 Ho0 3.498592 1_655
Bi1 Ho1 3.502013 1_554
Bi1 Ho2 3.502013 1_555
Bi1 C1 3.534836 1_555
Bi1 C5 3.663474 1_555
Bi1 Bi9 3.682455 1_655
Bi1 Bi11 3.772662 1_555
Bi2 Bi5 2.817606 1_556
Bi2 Bi5 2.817606 1_555
Bi2 Ho5 3.498592 1_545
Bi2 Ho6 3.498592 1_545
Bi2 Ho3 3.502013 1_555
Bi2 Ho7 3.502013 1_555
Bi2 Bi4 3.529207 1_545
Bi2 C2 3.534836 1_555
Bi2 C7 3.663474 1_555
Bi3 Bi4 2.817606 1_555
Bi3 Bi4 2.817606 1_554
Bi3 Ho6 3.498592 1_554
Bi3 Ho5 3.498592 1_555
Bi3 Ho7 3.502013 1_565
Bi3 Ho3 3.502013 1_564
Bi3 Bi5 3.529207 1_565
Bi3 C3 3.534836 1_565
Bi3 C0 3.663474 1_555
Bi3 Bi9 3.772662 1_555
Bi4 Ho3 3.498592 1_565
Bi4 Ho7 3.498592 1_565
Bi4 Ho5 3.502013 1_555
Bi4 Ho6 3.502013 1_555
Bi4 C4 3.534836 1_555
Bi4 C6 3.663474 1_555
Bi5 Ho3 3.498592 1_554
Bi5 Ho7 3.498592 1_555
Bi5 Ho5 3.502013 1_545
Bi5 Ho6 3.502013 1_544
Bi5 C5 3.534836 1_545
Bi5 C1 3.663474 1_555
Bi5 Bi8 3.772662 1_555
Bi6 Ho2 3.498592 1_555
Bi6 Ho1 3.498592 1_555
Bi6 Ho0 3.502013 1_655
Bi6 Ho4 3.502013 1_655
Bi6 Bi7 3.529207 1_655
Bi6 C6 3.534836 1_655
Bi6 C4 3.663474 1_555
Bi7 Ho0 3.498592 1_555
Bi7 Ho4 3.498592 1_555
Bi7 Ho1 3.502013 1_455
Bi7 Ho2 3.502013 1_455
Bi7 C7 3.534836 1_455
Bi7 C2 3.663474 1_555
Bi8 C5 2.461607 1_545
Bi8 C3 2.479520 1_655
Bi8 C7 2.833811 1_555
Bi8 C7 2.833811 1_554
Bi8 Ho1 3.058441 1_554
Bi8 Ho2 3.058441 1_555
Bi9 C3 2.461607 1_565
Bi9 C5 2.479520 1_455
Bi9 C6 2.833811 1_555
Bi9 C6 2.833811 1_554
Bi9 Ho4 3.058441 1_554
Bi9 Ho0 3.058441 1_555
Bi10 C6 2.461607 1_655
Bi10 C7 2.479520 1_565
Bi10 C5 2.833811 1_555
Bi10 C5 2.833811 1_556
Bi10 Ho6 3.058441 1_555
Bi10 Ho5 3.058441 1_555
Bi10 Bi2 3.682455 1_565
Bi10 Bi6 3.772662 1_555
Bi11 C1 2.461607 1_555
Bi11 C0 2.479520 1_555
Bi11 C4 2.833811 1_555
Bi11 C4 2.833811 1_554
Bi11 Ho6 3.058441 1_554
Bi11 Ho5 3.058441 1_555
Bi11 Bi3 3.682455 1_555
Bi12 C7 2.461607 1_455
Bi12 C6 2.479520 1_545
Bi12 C3 2.833811 1_555
Bi12 C3 2.833811 1_556
Bi12 Ho7 3.058441 1_555
Bi12 Ho3 3.058441 1_555
Bi12 Bi4 3.682455 1_545
Bi12 Bi7 3.772662 1_555
Bi13 C0 2.461607 1_555
Bi13 C1 2.479520 1_555
Bi13 C2 2.833811 1_555
Bi13 C2 2.833811 1_554
Bi13 Ho7 3.058441 1_555
Bi13 Ho3 3.058441 1_554
Bi13 Bi5 3.682455 1_555
Bi14 C2 2.461607 1_555
Bi14 C4 2.479520 1_555
Bi14 C1 2.833811 1_556
Bi14 C1 2.833811 1_555
Bi14 Ho1 3.058441 1_555
Bi14 Ho2 3.058441 1_555
Bi14 Bi6 3.682455 1_555
Bi14 Bi2 3.772662 1_555
Bi15 C4 2.461607 1_555
Bi15 C2 2.479520 1_555
Bi15 C0 2.833811 1_555
Bi15 C0 2.833811 1_556
Bi15 Ho0 3.058441 1_555
Bi15 Ho4 3.058441 1_555
Bi15 Bi7 3.682455 1_555
Bi15 Bi4 3.772662 1_555
C0 Ho0 2.793284 1_555
C0 Ho4 2.793284 1_554
C1 Ho2 2.793284 1_555
C1 Ho1 2.793284 1_554
C2 Ho3 2.793284 1_555
C2 Ho7 2.793284 1_555
C3 Ho3 2.793284 1_554
C3 Ho7 2.793284 1_555
C4 Ho6 2.793284 1_555
C4 Ho5 2.793284 1_555
C5 Ho5 2.793284 1_555
C5 Ho6 2.793284 1_554
C6 Ho0 2.793284 1_555
C6 Ho4 2.793284 1_555
C7 Ho2 2.793284 1_555
C7 Ho1 2.793284 1_555
