# generated using pymatgen
data_Li6Mn(FeO3)2
_symmetry_space_group_name_H-M   'P 1'
_cell_length_a   3.22782973
_cell_length_b   14.79897173
_cell_length_c   6.15918735
_cell_angle_alpha   82.97141390
_cell_angle_beta   105.32870388
_cell_angle_gamma   94.87326260
_symmetry_Int_Tables_number   1
_chemical_formula_structural   Li6Mn(FeO3)2
_chemical_formula_sum   'Li12 Mn2 Fe4 O12'
_cell_volume   281.19091111
_cell_formula_units_Z   2
loop_
 _symmetry_equiv_pos_site_id
 _symmetry_equiv_pos_as_xyz
  1  'x, y, z'
loop_
 _atom_site_type_symbol
 _atom_site_label
 _atom_site_symmetry_multiplicity
 _atom_site_fract_x
 _atom_site_fract_y
 _atom_site_fract_z
 _atom_site_occupancy
  Li  Li0  1  0.98998900  0.29996500  0.68627200  1
  Li  Li1  1  0.99414200  0.80254600  0.18659900  1
  Li  Li2  1  0.63781600  0.31248900  0.96144300  1
  Li  Li3  1  0.63510700  0.81068600  0.46264100  1
  Li  Li4  1  0.96654900  0.14260300  0.79589700  1
  Li  Li5  1  0.97873600  0.64571900  0.29640400  1
  Li  Li6  1  0.66321700  0.46994300  0.85206700  1
  Li  Li7  1  0.65420300  0.96771300  0.35120900  1
  Li  Li8  1  0.33205900  0.13448400  0.51597500  1
  Li  Li9  1  0.33181300  0.63348000  0.01729900  1
  Li  Li10  1  0.30072800  0.47872700  0.13107300  1
  Li  Li11  1  0.29755700  0.97997800  0.62981800  1
  Mn  Mn0  1  0.31488900  0.80732700  0.82453800  1
  Mn  Mn1  1  0.31364700  0.30665400  0.32326600  1
  Fe  Fe0  1  0.98663300  0.47274000  0.49509100  1
  Fe  Fe1  1  0.65012000  0.63902400  0.65806000  1
  Fe  Fe2  1  0.97977000  0.97342200  0.98967100  1
  Fe  Fe3  1  0.64674200  0.13974900  0.15233100  1
  O  O0  1  0.48908900  0.37805400  0.63745500  1
  O  O1  1  0.50296300  0.87602100  0.14171700  1
  O  O2  1  0.13740100  0.23522600  0.00692900  1
  O  O3  1  0.12682700  0.73722100  0.50733200  1
  O  O4  1  0.84071900  0.20860200  0.47075200  1
  O  O5  1  0.83749300  0.70740800  0.96794200  1
  O  O6  1  0.79118300  0.40385200  0.17522400  1
  O  O7  1  0.79115600  0.90600800  0.67993300  1
  O  O8  1  0.15330600  0.04283400  0.29743700  1
  O  O9  1  0.17337700  0.54320900  0.80854000  1
  O  O10  1  0.45629100  0.06994300  0.84077500  1
  O  O11  1  0.48264800  0.56985400  0.35316100  1
loop_
_geom_bond_atom_site_label_1
_geom_bond_atom_site_label_2
_geom_bond_distance
_geom_bond_site_symmetry_2
Li0 O4 1.952621 1_555
Li0 O0 1.968756 1_655
Li0 O0 2.003847 1_555
Li0 O2 2.040198 1_656
Li0 Li2 2.308745 1_555
Li0 Li2 2.327371 1_655
Li0 Li4 2.344605 1_555
Li0 Mn1 2.678913 1_555
Li0 Mn1 2.695060 1_655
Li1 O1 1.939073 1_555
Li1 O1 1.954291 1_655
Li1 O5 2.008672 1_554
Li1 O3 2.043549 1_655
Li1 Li3 2.309463 1_655
Li1 Li3 2.315994 1_555
Li1 Li5 2.336746 1_555
Li2 O6 1.945319 1_556
Li2 O2 1.960100 1_556
Li2 O2 1.995571 1_656
Li2 O0 2.062223 1_555
Li2 Li6 2.345797 1_555
Li2 Mn1 2.673427 1_656
Li2 Mn1 2.690564 1_556
Li3 O3 1.940596 1_655
Li3 O3 1.952424 1_555
Li3 O7 2.004932 1_555
Li3 O1 2.044620 1_555
Li3 Li7 2.341534 1_555
Li4 O10 1.927860 1_655
Li4 O2 1.949631 1_656
Li4 O10 1.952539 1_555
Li4 O4 2.070780 1_555
Li4 Li8 2.307239 1_555
Li4 Li8 2.351404 1_655
Li5 O3 1.934471 1_655
Li5 O11 1.959921 1_555
Li5 O11 1.985434 1_655
Li5 O5 2.065222 1_554
Li5 Li9 2.331080 1_655
Li5 Li9 2.337180 1_555
Li6 O9 1.934802 1_555
Li6 O9 1.953986 1_655
Li6 O0 1.956942 1_555
Li6 O6 2.060685 1_556
Li7 O1 1.930649 1_555
Li7 O8 1.956700 1_665
Li7 O8 1.972775 1_565
Li7 O7 2.066760 1_555
Li8 O4 1.945050 1_455
Li8 O4 1.958948 1_555
Li8 O8 1.971674 1_555
Li8 O10 2.061173 1_555
Li8 Mn1 2.674443 1_555
Li9 O9 1.912091 1_554
Li9 O5 1.947820 1_454
Li9 O5 1.957335 1_554
Li9 O11 2.114619 1_555
Li10 O6 1.950561 1_555
Li10 O6 1.964682 1_455
Li10 O11 1.981622 1_555
Li10 O9 2.048638 1_554
Li10 Li6 2.311711 1_454
Li10 Li9 2.313320 1_555
Li10 Li6 2.341490 1_554
Li10 Mn1 2.672436 1_555
Li11 O10 1.918029 1_565
Li11 O7 1.945683 1_555
Li11 O7 1.960992 1_455
Li11 O8 2.092049 1_565
Li11 Li8 2.310396 1_565
Li11 Li7 2.327691 1_455
Li11 Li7 2.336458 1_555
Mn0 O1 2.229927 1_556
Mn0 O3 2.241422 1_555
Mn0 O7 2.255859 1_455
Mn0 O5 2.264655 1_555
Mn0 O7 2.305088 1_555
Mn0 O5 2.313882 1_455
Mn1 O0 2.236368 1_555
Mn1 O6 2.241135 1_455
Mn1 O2 2.247893 1_555
Mn1 O4 2.259414 1_555
Mn1 O4 2.301151 1_455
Mn1 O6 2.306908 1_555
Fe0 O0 2.167094 1_655
Fe0 O11 2.194080 1_555
Fe0 O9 2.224578 1_655
Fe0 O6 2.245846 1_555
Fe0 O0 2.317986 1_555
Fe0 O11 2.331228 1_655
Fe1 O11 2.169423 1_555
Fe1 O5 2.188879 1_555
Fe1 O9 2.231578 1_655
Fe1 O3 2.254897 1_555
Fe1 O9 2.302043 1_555
Fe1 O3 2.320894 1_655
Fe1 Li6 2.636341 1_555
Fe1 Li5 2.664249 1_455
Fe1 Li9 2.664816 1_556
Fe1 Li3 2.673306 1_555
Fe1 Li9 2.675121 1_656
Fe1 Li5 2.697049 1_555
Fe2 O7 2.180353 1_555
Fe2 O8 2.186229 1_666
Fe2 O10 2.237563 1_565
Fe2 O1 2.248060 1_656
Fe2 O10 2.301987 1_665
Fe2 O1 2.319086 1_556
Fe2 Li4 2.637180 1_565
Fe2 Li11 2.665808 1_655
Fe2 Li1 2.666016 1_556
Fe2 Li7 2.669652 1_656
Fe2 Li11 2.678462 1_555
Fe2 Li7 2.691862 1_556
Fe3 O2 2.192714 1_555
Fe3 O8 2.200338 1_655
Fe3 O10 2.209290 1_554
Fe3 O4 2.237876 1_555
Fe3 O2 2.316636 1_655
Fe3 O8 2.333105 1_555
