# generated using pymatgen
data_Rb2MnSb2
_symmetry_space_group_name_H-M   'P 1'
_cell_length_a   7.31540400
_cell_length_b   7.31540400
_cell_length_c   33.01050600
_cell_angle_alpha   90.00000000
_cell_angle_beta   90.00000000
_cell_angle_gamma   90.00000000
_symmetry_Int_Tables_number   1
_chemical_formula_structural   Rb2MnSb2
_chemical_formula_sum   'Rb16 Mn8 Sb16'
_cell_volume   1766.56170756
_cell_formula_units_Z   8
loop_
 _symmetry_equiv_pos_site_id
 _symmetry_equiv_pos_as_xyz
  1  'x, y, z'
loop_
 _atom_site_type_symbol
 _atom_site_label
 _atom_site_symmetry_multiplicity
 _atom_site_fract_x
 _atom_site_fract_y
 _atom_site_fract_z
 _atom_site_occupancy
  Rb  Rb0_0  1  0.25000000  0.25000000  0.31847250  1
  Rb  Rb0_1  1  0.25000000  0.25000000  0.81847250  1
  Rb  Rb0_2  1  0.25000000  0.75000000  0.31847250  1
  Rb  Rb0_3  1  0.25000000  0.75000000  0.81847250  1
  Rb  Rb0_4  1  0.75000000  0.25000000  0.31847250  1
  Rb  Rb0_5  1  0.75000000  0.25000000  0.81847250  1
  Rb  Rb0_6  1  0.75000000  0.75000000  0.31847250  1
  Rb  Rb0_7  1  0.75000000  0.75000000  0.81847250  1
  Rb  Rb1_0  1  0.25000000  0.25000000  0.18152750  1
  Rb  Rb1_1  1  0.25000000  0.25000000  0.68152750  1
  Rb  Rb1_2  1  0.25000000  0.75000000  0.18152750  1
  Rb  Rb1_3  1  0.25000000  0.75000000  0.68152750  1
  Rb  Rb1_4  1  0.75000000  0.25000000  0.18152750  1
  Rb  Rb1_5  1  0.75000000  0.25000000  0.68152750  1
  Rb  Rb1_6  1  0.75000000  0.75000000  0.18152750  1
  Rb  Rb1_7  1  0.75000000  0.75000000  0.68152750  1
  Mn  Mn0_0  1  0.25000000  0.25000000  0.00000000  1
  Mn  Mn0_1  1  0.25000000  0.25000000  0.50000000  1
  Mn  Mn0_2  1  0.25000000  0.75000000  0.00000000  1
  Mn  Mn0_3  1  0.25000000  0.75000000  0.50000000  1
  Mn  Mn0_4  1  0.75000000  0.25000000  0.00000000  1
  Mn  Mn0_5  1  0.75000000  0.25000000  0.50000000  1
  Mn  Mn0_6  1  0.75000000  0.75000000  0.00000000  1
  Mn  Mn0_7  1  0.75000000  0.75000000  0.50000000  1
  Sb  Sb0_0  1  0.25000000  0.25000000  0.07803300  1
  Sb  Sb0_1  1  0.25000000  0.25000000  0.57803300  1
  Sb  Sb0_2  1  0.25000000  0.75000000  0.07803300  1
  Sb  Sb0_3  1  0.25000000  0.75000000  0.57803300  1
  Sb  Sb0_4  1  0.75000000  0.25000000  0.07803300  1
  Sb  Sb0_5  1  0.75000000  0.25000000  0.57803300  1
  Sb  Sb0_6  1  0.75000000  0.75000000  0.07803300  1
  Sb  Sb0_7  1  0.75000000  0.75000000  0.57803300  1
  Sb  Sb1_0  1  0.25000000  0.25000000  0.42196700  1
  Sb  Sb1_1  1  0.25000000  0.25000000  0.92196700  1
  Sb  Sb1_2  1  0.25000000  0.75000000  0.42196700  1
  Sb  Sb1_3  1  0.25000000  0.75000000  0.92196700  1
  Sb  Sb1_4  1  0.75000000  0.25000000  0.42196700  1
  Sb  Sb1_5  1  0.75000000  0.25000000  0.92196700  1
  Sb  Sb1_6  1  0.75000000  0.75000000  0.42196700  1
  Sb  Sb1_7  1  0.75000000  0.75000000  0.92196700  1
loop_
_geom_bond_atom_site_label_1
_geom_bond_atom_site_label_2
_geom_bond_distance
_geom_bond_site_symmetry_2
Rb0_0 Sb1_0 3.416406 1_555
Rb0_0 Rb0_2 3.657702 1_545
Rb0_0 Rb0_2 3.657702 1_555
Rb0_0 Rb0_4 3.657702 1_455
Rb0_0 Rb0_4 3.657702 1_555
Rb0_0 Rb1_0 4.520624 1_555
Rb0_1 Sb1_1 3.416406 1_555
Rb0_1 Rb0_3 3.657702 1_545
Rb0_1 Rb0_3 3.657702 1_555
Rb0_1 Rb0_5 3.657702 1_455
Rb0_1 Rb0_5 3.657702 1_555
Rb0_1 Rb1_1 4.520624 1_555
Rb0_2 Sb1_2 3.416406 1_555
Rb0_2 Rb0_6 3.657702 1_455
Rb0_2 Rb0_6 3.657702 1_555
Rb0_2 Rb1_2 4.520624 1_555
Rb0_3 Sb1_3 3.416406 1_555
Rb0_3 Rb0_7 3.657702 1_555
Rb0_3 Rb0_7 3.657702 1_455
Rb0_3 Rb1_3 4.520624 1_555
Rb0_4 Sb1_4 3.416406 1_555
Rb0_4 Rb0_6 3.657702 1_545
Rb0_4 Rb0_6 3.657702 1_555
Rb0_4 Rb1_4 4.520624 1_555
Rb0_5 Sb1_5 3.416406 1_555
Rb0_5 Rb0_7 3.657702 1_545
Rb0_5 Rb0_7 3.657702 1_555
Rb0_5 Rb1_5 4.520624 1_555
Rb0_6 Sb1_6 3.416406 1_555
Rb0_6 Rb1_6 4.520624 1_555
Rb0_7 Sb1_7 3.416406 1_555
Rb0_7 Rb1_7 4.520624 1_555
Rb1_0 Sb0_0 3.416406 1_555
Rb1_0 Rb1_4 3.657702 1_555
Rb1_0 Rb1_2 3.657702 1_545
Rb1_0 Rb1_2 3.657702 1_555
Rb1_0 Rb1_4 3.657702 1_455
Rb1_1 Sb0_1 3.416406 1_555
Rb1_1 Rb1_3 3.657702 1_545
Rb1_1 Rb1_3 3.657702 1_555
Rb1_1 Rb1_5 3.657702 1_455
Rb1_1 Rb1_5 3.657702 1_555
Rb1_2 Sb0_2 3.416406 1_555
Rb1_2 Rb1_6 3.657702 1_455
Rb1_2 Rb1_6 3.657702 1_555
Rb1_3 Sb0_3 3.416406 1_555
Rb1_3 Rb1_7 3.657702 1_555
Rb1_3 Rb1_7 3.657702 1_455
Rb1_4 Sb0_4 3.416406 1_555
Rb1_4 Rb1_6 3.657702 1_545
Rb1_4 Rb1_6 3.657702 1_555
Rb1_5 Sb0_5 3.416406 1_555
Rb1_5 Rb1_7 3.657702 1_545
Rb1_5 Rb1_7 3.657702 1_555
Rb1_6 Sb0_6 3.416406 1_555
Rb1_7 Sb0_7 3.416406 1_555
Mn0_0 Sb0_0 2.575909 1_555
Mn0_0 Sb1_1 2.575909 1_554
Mn0_1 Sb0_1 2.575909 1_555
Mn0_1 Sb1_0 2.575909 1_555
Mn0_2 Sb0_2 2.575909 1_555
Mn0_2 Sb1_3 2.575909 1_554
Mn0_3 Sb0_3 2.575909 1_555
Mn0_3 Sb1_2 2.575909 1_555
Mn0_4 Sb0_4 2.575909 1_555
Mn0_4 Sb1_5 2.575909 1_554
Mn0_5 Sb0_5 2.575909 1_555
Mn0_5 Sb1_4 2.575909 1_555
Mn0_6 Sb0_6 2.575909 1_555
Mn0_6 Sb1_7 2.575909 1_554
Mn0_7 Sb0_7 2.575909 1_555
Mn0_7 Sb1_6 2.575909 1_555
