# generated using pymatgen
data_MgSi
_symmetry_space_group_name_H-M   'P 1'
_cell_length_a   4.70831000
_cell_length_b   5.60167916
_cell_length_c   8.73086707
_cell_angle_alpha   80.35353079
_cell_angle_beta   81.08214353
_cell_angle_gamma   77.04780706
_symmetry_Int_Tables_number   1
_chemical_formula_structural   MgSi
_chemical_formula_sum   'Mg6 Si6'
_cell_volume   219.58036077
_cell_formula_units_Z   6
loop_
 _symmetry_equiv_pos_site_id
 _symmetry_equiv_pos_as_xyz
  1  'x, y, z'
loop_
 _atom_site_type_symbol
 _atom_site_label
 _atom_site_symmetry_multiplicity
 _atom_site_fract_x
 _atom_site_fract_y
 _atom_site_fract_z
 _atom_site_occupancy
  Mg  Mg0  1  0.59500100  0.10504800  0.93881900  1
  Mg  Mg1  1  0.62025900  0.76730900  0.25073800  1
  Mg  Mg2  1  0.05446300  0.02689800  0.42409800  1
  Mg  Mg3  1  0.58584800  0.45841200  0.56892100  1
  Mg  Mg4  1  0.05143600  0.39721800  0.08902600  1
  Mg  Mg5  1  0.09310800  0.26731900  0.74041400  1
  Si  Si0  1  0.06548100  0.76178600  0.76349900  1
  Si  Si1  1  0.13081800  0.52507400  0.40129000  1
  Si  Si2  1  0.56476600  0.60902500  0.89363200  1
  Si  Si3  1  0.12515600  0.88944600  0.02474600  1
  Si  Si4  1  0.57544400  0.93114900  0.64374000  1
  Si  Si5  1  0.53827000  0.26136500  0.26095600  1
loop_
_geom_bond_atom_site_label_1
_geom_bond_atom_site_label_2
_geom_bond_distance
_geom_bond_site_symmetry_2
Mg0 Si3 2.679116 1_646
Mg0 Si3 2.700859 1_546
Mg0 Si2 2.758603 1_555
Mg0 Si2 2.908336 1_545
Mg0 Mg5 2.914704 1_655
Mg0 Si4 2.923958 1_545
Mg0 Mg4 2.957943 1_556
Mg0 Si0 2.995508 1_645
Mg0 Mg5 3.031425 1_555
Mg0 Si5 3.039086 1_556
Mg0 Mg1 3.046765 1_546
Mg1 Si5 2.722026 1_565
Mg1 Si1 2.875288 1_655
Mg1 Si5 2.929903 1_555
Mg1 Mg4 2.935695 1_655
Mg1 Si1 2.957080 1_555
Mg1 Si3 2.972343 1_655
Mg1 Mg3 3.018749 1_555
Mg1 Mg2 3.041883 1_565
Mg1 Si3 3.170791 1_555
Mg1 Mg2 3.408002 1_665
Mg1 Si2 3.443583 1_554
Mg2 Si1 2.789861 1_545
Mg2 Si4 2.812197 1_445
Mg2 Si1 2.863173 1_555
Mg2 Si5 2.941262 1_555
Mg2 Si5 2.945517 1_455
Mg2 Si0 3.086644 1_545
Mg2 Mg3 3.174644 1_455
Mg2 Si4 3.241287 1_545
Mg2 Mg4 3.290534 1_555
Mg2 Mg5 3.314524 1_555
Mg3 Si1 2.702182 1_555
Mg3 Si1 2.819096 1_655
Mg3 Si4 2.820164 1_555
Mg3 Mg5 2.875608 1_555
Mg3 Mg5 2.918451 1_655
Mg3 Si4 2.925911 1_545
Mg3 Si2 3.071766 1_555
Mg3 Si0 3.096353 1_555
Mg3 Si5 3.128966 1_555
Mg4 Si3 2.808591 1_555
Mg4 Si5 2.826149 1_455
Mg4 Si5 2.826379 1_555
Mg4 Si3 2.925395 1_545
Mg4 Si2 2.980500 1_454
Mg4 Si1 3.029169 1_555
Mg4 Si2 3.080311 1_554
Mg4 Si0 3.210875 1_554
Mg4 Mg5 3.213267 1_554
Mg5 Si4 2.727133 1_545
Mg5 Si0 2.783351 1_555
Mg5 Si0 2.835937 1_545
Mg5 Si3 2.979570 1_546
Mg5 Si2 3.055072 1_455
Mg5 Si1 3.066281 1_555
Si0 Si3 2.574547 1_556
Si0 Si4 2.598266 1_455
Si0 Si2 2.673918 1_555
Si0 Si2 2.707232 1_455
Si0 Si4 2.769256 1_555
Si1 Si5 2.443589 1_555
Si2 Si3 2.544136 1_556
Si2 Si4 2.589579 1_555
Si2 Si5 3.461960 1_556
