# generated using pymatgen
data_CsMnH5(SO5)2
_symmetry_space_group_name_H-M   'P 1'
_cell_length_a   4.86305724
_cell_length_b   5.98443283
_cell_length_c   8.77713585
_cell_angle_alpha   104.21347921
_cell_angle_beta   95.92559047
_cell_angle_gamma   94.39694936
_symmetry_Int_Tables_number   1
_chemical_formula_structural   CsMnH5(SO5)2
_chemical_formula_sum   'Cs1 Mn1 H5 S2 O10'
_cell_volume   244.91280903
_cell_formula_units_Z   1
loop_
 _symmetry_equiv_pos_site_id
 _symmetry_equiv_pos_as_xyz
  1  'x, y, z'
loop_
 _atom_site_type_symbol
 _atom_site_label
 _atom_site_symmetry_multiplicity
 _atom_site_fract_x
 _atom_site_fract_y
 _atom_site_fract_z
 _atom_site_occupancy
  Cs  Cs0  1  0.99899800  0.00460800  0.49450400  1
  Mn  Mn0  1  0.00042000  0.00617000  0.00628800  1
  H  H0  1  0.65049900  0.27214200  0.84620900  1
  H  H1  1  0.35018700  0.72614700  0.15640400  1
  H  H2  1  0.96462500  0.34974500  0.83607400  1
  H  H3  1  0.03309100  0.64731200  0.16410300  1
  H  H4  1  0.50015800  0.53091000  0.51749500  1
  S  S0  1  0.43196100  0.68725500  0.76824500  1
  S  S1  1  0.56785900  0.31709600  0.23783000  1
  O  O0  1  0.27060800  0.88563500  0.81760400  1
  O  O1  1  0.72969200  0.11558300  0.18569100  1
  O  O2  1  0.27982700  0.45947000  0.75308700  1
  O  O3  1  0.72380100  0.54106100  0.24173100  1
  O  O4  1  0.69880300  0.71624300  0.87050800  1
  O  O5  1  0.30476100  0.28727800  0.12818400  1
  O  O6  1  0.49550800  0.69751300  0.59781000  1
  O  O7  1  0.50333000  0.31581200  0.40250100  1
  O  O8  1  0.83592500  0.21898400  0.84442500  1
  O  O9  1  0.16294600  0.77603400  0.15230600  1
loop_
_geom_bond_atom_site_label_1
_geom_bond_atom_site_label_2
_geom_bond_distance
_geom_bond_site_symmetry_2
Cs0 O1 3.128485 1_555
Cs0 H3 3.180867 1_645
Cs0 O9 3.189359 1_645
Cs0 O2 3.190950 1_655
Cs0 O3 3.194389 1_545
Cs0 H2 3.224539 1_555
Cs0 O8 3.229807 1_555
Cs0 O7 3.253131 1_655
Cs0 O0 3.264381 1_645
Cs0 O6 3.283524 1_545
Cs0 O7 3.309961 1_555
Cs0 O6 3.328120 1_645
Mn0 O5 2.138371 1_555
Mn0 O1 2.166909 1_455
Mn0 O4 2.194440 1_444
Mn0 O9 2.233507 1_545
Mn0 O0 2.235492 1_544
Mn0 O8 2.256181 1_454
H0 O8 0.979301 1_555
H1 O9 0.979665 1_555
H2 O8 0.985895 1_555
H2 O2 1.903264 1_655
H3 O9 0.990449 1_555
H3 O3 1.846227 1_455
H4 O6 1.073829 1_555
H4 O7 1.429752 1_555
O0 S0 1.474202 1_555
O1 S1 1.493978 1_555
O2 S0 1.469439 1_555
O3 S1 1.479507 1_555
O4 S0 1.472483 1_555
O5 S1 1.490455 1_555
O6 S0 1.573124 1_555
O7 S1 1.512043 1_555
