# generated using pymatgen
data_SrCr7N10
_symmetry_space_group_name_H-M   'P 1'
_cell_length_a   7.09448701
_cell_length_b   6.85983400
_cell_length_c   10.27249127
_cell_angle_alpha   90.00000000
_cell_angle_beta   104.52593524
_cell_angle_gamma   90.00000000
_symmetry_Int_Tables_number   1
_chemical_formula_structural   SrCr7N10
_chemical_formula_sum   'Sr2 Cr14 N20'
_cell_volume   483.95066210
_cell_formula_units_Z   2
loop_
 _symmetry_equiv_pos_site_id
 _symmetry_equiv_pos_as_xyz
  1  'x, y, z'
loop_
 _atom_site_type_symbol
 _atom_site_label
 _atom_site_symmetry_multiplicity
 _atom_site_fract_x
 _atom_site_fract_y
 _atom_site_fract_z
 _atom_site_occupancy
  Sr  Sr0  1  0.90968700  0.03066400  0.60943200  1
  Sr  Sr1  1  0.90968700  0.96933600  0.10943200  1
  Cr  Cr0  1  0.54466400  0.01639600  0.83247500  1
  Cr  Cr1  1  0.54466400  0.98360400  0.33247500  1
  Cr  Cr2  1  0.35994800  0.02098600  0.01507300  1
  Cr  Cr3  1  0.35994800  0.97901400  0.51507300  1
  Cr  Cr4  1  0.09689200  0.41441000  0.07523500  1
  Cr  Cr5  1  0.09689200  0.58559000  0.57523500  1
  Cr  Cr6  1  0.68048300  0.38710300  0.97630700  1
  Cr  Cr7  1  0.68048300  0.61289700  0.47630700  1
  Cr  Cr8  1  0.86598500  0.65201800  0.81366700  1
  Cr  Cr9  1  0.86598500  0.34798200  0.31366700  1
  Cr  Cr10  1  0.31345000  0.61446900  0.90071200  1
  Cr  Cr11  1  0.31345000  0.38553100  0.40071200  1
  Cr  Cr12  1  0.46110000  0.38057700  0.69383700  1
  Cr  Cr13  1  0.46110000  0.61942300  0.19383700  1
  N  N0  1  0.75778600  0.88331900  0.83624800  1
  N  N1  1  0.75778600  0.11668100  0.33624800  1
  N  N2  1  0.56891400  0.15327800  0.99250100  1
  N  N3  1  0.56891400  0.84672200  0.49250100  1
  N  N4  1  0.34824700  0.86695200  0.86483000  1
  N  N5  1  0.34824700  0.13304800  0.36483000  1
  N  N6  1  0.17340700  0.18330900  0.02464800  1
  N  N7  1  0.17340700  0.81669100  0.52464800  1
  N  N8  1  0.25127700  0.49648300  0.73415900  1
  N  N9  1  0.25127700  0.50351700  0.23415900  1
  N  N10  1  0.42778600  0.12148700  0.66870300  1
  N  N11  1  0.42778600  0.87851300  0.16870300  1
  N  N12  1  0.88190100  0.36127700  0.13752400  1
  N  N13  1  0.88190100  0.63872300  0.63752400  1
  N  N14  1  0.07955400  0.60469200  0.94886700  1
  N  N15  1  0.07955400  0.39530800  0.44886700  1
  N  N16  1  0.68845000  0.46631800  0.80476600  1
  N  N17  1  0.68845000  0.53368200  0.30476600  1
  N  N18  1  0.53277000  0.54972100  0.04031400  1
  N  N19  1  0.53277000  0.45027900  0.54031400  1
loop_
_geom_bond_atom_site_label_1
_geom_bond_atom_site_label_2
_geom_bond_distance
_geom_bond_site_symmetry_2
Cr0 N0 1.758290 1_545
Cr0 N4 1.826344 1_545
Cr0 N10 1.826958 1_555
Cr0 N2 1.863256 1_555
Cr1 N1 1.758290 1_565
Cr1 N5 1.826344 1_565
Cr1 N11 1.826958 1_555
Cr1 N3 1.863256 1_555
Cr2 N6 1.751084 1_555
Cr2 N2 1.802106 1_554
Cr2 N11 1.815602 1_545
Cr2 N4 1.855025 1_544
Cr3 N7 1.751084 1_555
Cr3 N3 1.802106 1_555
Cr3 N10 1.815602 1_565
Cr3 N5 1.855025 1_565
Cr4 N6 1.794279 1_555
Cr4 N14 1.823170 1_554
Cr4 N9 1.827980 1_555
Cr4 N12 1.832549 1_455
Cr5 N7 1.794279 1_555
Cr5 N15 1.823170 1_555
Cr5 N8 1.827980 1_555
Cr5 N13 1.832549 1_455
Cr6 N18 1.766515 1_556
Cr6 N2 1.814678 1_555
Cr6 N16 1.858394 1_555
Cr6 N12 1.904955 1_556
Cr7 N19 1.766515 1_555
Cr7 N3 1.814678 1_555
Cr7 N17 1.858394 1_555
Cr7 N13 1.904955 1_555
Cr8 N16 1.777562 1_555
Cr8 N0 1.802758 1_555
Cr8 N14 1.809527 1_655
Cr8 N13 1.843254 1_555
Cr9 N17 1.777562 1_555
Cr9 N1 1.802758 1_555
Cr9 N15 1.809527 1_655
Cr9 N12 1.843254 1_555
Cr10 N4 1.800624 1_555
Cr10 N8 1.843445 1_555
Cr10 N14 1.847831 1_555
Cr10 N18 1.885605 1_556
Cr11 N5 1.800624 1_555
Cr11 N9 1.843445 1_555
Cr11 N15 1.847831 1_555
Cr11 N19 1.885605 1_555
Cr12 N10 1.802985 1_555
Cr12 N16 1.823184 1_555
Cr12 N8 1.824537 1_555
Cr12 N19 1.837535 1_555
Cr13 N11 1.802985 1_555
Cr13 N17 1.823184 1_555
Cr13 N9 1.824537 1_555
Cr13 N18 1.837535 1_555
N0 Sr1 2.804938 1_556
N0 Sr0 2.978472 1_565
N1 Sr0 2.804938 1_555
N1 Sr1 2.978472 1_545
N2 Sr1 2.724534 1_546
N3 Sr0 2.724534 1_565
N4 Sr0 3.705416 1_465
N5 Sr1 3.705416 1_445
N6 Sr1 2.689040 1_445
N7 Sr0 2.689040 1_465
N10 Sr0 3.625826 1_455
N10 Sr0 3.673085 1_555
N11 Sr1 3.625826 1_455
N11 Sr1 3.673085 1_555
N12 Sr1 2.716525 1_545
N13 Sr0 2.716525 1_565
N14 Sr1 3.380377 1_456
N15 Sr0 3.380377 1_455
