# generated using pymatgen
data_Ga3NO3
_symmetry_space_group_name_H-M   'P 1'
_cell_length_a   6.14003400
_cell_length_b   8.39461720
_cell_length_c   8.40039800
_cell_angle_alpha   119.74400972
_cell_angle_beta   90.54667280
_cell_angle_gamma   90.29358473
_symmetry_Int_Tables_number   1
_chemical_formula_structural   Ga3NO3
_chemical_formula_sum   'Ga12 N4 O12'
_cell_volume   375.89704352
_cell_formula_units_Z   4
loop_
 _symmetry_equiv_pos_site_id
 _symmetry_equiv_pos_as_xyz
  1  'x, y, z'
loop_
 _atom_site_type_symbol
 _atom_site_label
 _atom_site_symmetry_multiplicity
 _atom_site_fract_x
 _atom_site_fract_y
 _atom_site_fract_z
 _atom_site_occupancy
  Ga  Ga0  1  0.98478600  0.74891900  0.92113100  1
  Ga  Ga1  1  0.67971500  0.43744600  0.93188000  1
  Ga  Ga2  1  0.69951800  0.49173400  0.57592200  1
  Ga  Ga3  1  0.99140700  0.08969100  0.83494300  1
  Ga  Ga4  1  0.48851800  0.92119000  0.75281200  1
  Ga  Ga5  1  0.68485600  0.08310500  0.50333600  1
  Ga  Ga6  1  0.98291400  0.17692900  0.26272100  1
  Ga  Ga7  1  0.19984300  0.91392900  0.41978400  1
  Ga  Ga8  1  0.19293300  0.57128700  0.48610900  1
  Ga  Ga9  1  0.50220600  0.83179900  0.09269800  1
  Ga  Ga10  1  0.20350800  0.50148900  0.07215900  1
  Ga  Ga11  1  0.50038800  0.26061200  0.17255700  1
  N  N0  1  0.45927400  0.96042900  0.34416800  1
  N  N1  1  0.73057900  0.67632600  0.97886200  1
  N  N2  1  0.74039200  0.32338600  0.32792500  1
  N  N3  1  0.44827100  0.35651800  0.01711700  1
  O  O0  1  0.23493400  0.68260800  0.00021100  1
  O  O1  1  0.96150200  0.34230100  0.95380000  1
  O  O2  1  0.97359400  0.62724600  0.65792900  1
  O  O3  1  0.65805900  0.33230600  0.67102400  1
  O  O4  1  0.48457100  0.99917000  0.99982100  1
  O  O5  1  0.00251500  0.00626000  0.00500600  1
  O  O6  1  0.22269600  0.97770800  0.67447500  1
  O  O7  1  0.73693500  0.00246900  0.68469400  1
  O  O8  1  0.24014700  0.32066000  0.32763400  1
  O  O9  1  0.96680300  0.04351500  0.39365500  1
  O  O10  1  0.46572400  0.66052800  0.61212900  1
  O  O11  1  0.12901300  0.66054200  0.32550000  1
loop_
_geom_bond_atom_site_label_1
_geom_bond_atom_site_label_2
_geom_bond_distance
_geom_bond_site_symmetry_2
Ga0 N1 1.827760 1_555
Ga0 O0 1.861833 1_656
Ga0 O5 1.913352 1_666
Ga0 O2 1.921476 1_555
Ga1 N1 1.865606 1_555
Ga1 N3 1.867047 1_556
Ga1 O3 1.916407 1_555
Ga1 O1 1.954323 1_555
Ga2 N2 1.868824 1_555
Ga2 O3 1.885597 1_555
Ga2 O10 1.939716 1_555
Ga2 O2 1.944543 1_555
Ga3 O1 1.853113 1_555
Ga3 O6 1.873601 1_645
Ga3 O5 1.878160 1_656
Ga3 O7 1.898447 1_555
Ga4 O4 1.840643 1_555
Ga4 O7 1.874266 1_565
Ga4 O6 1.902450 1_555
Ga4 O10 1.905794 1_555
Ga5 N0 1.830440 1_545
Ga5 O3 1.863214 1_555
Ga5 O9 1.920622 1_555
Ga5 O7 1.974242 1_555
Ga6 N2 1.842577 1_555
Ga6 O8 1.886509 1_655
Ga6 O5 1.919128 1_655
Ga6 O9 1.922786 1_555
Ga7 N0 1.830902 1_555
Ga7 O9 1.877716 1_465
Ga7 O11 1.911344 1_555
Ga7 O6 1.934092 1_555
Ga8 O2 1.867749 1_455
Ga8 O8 1.875424 1_555
Ga8 O11 1.879276 1_555
Ga8 O10 1.911472 1_555
Ga9 N1 1.841194 1_554
Ga9 N0 1.856903 1_555
Ga9 O4 1.918896 1_554
Ga9 O0 1.963243 1_555
Ga10 N3 1.851230 1_555
Ga10 O1 1.901417 1_454
Ga10 O0 1.904007 1_555
Ga10 O11 1.930384 1_555
Ga11 N2 1.850840 1_555
Ga11 N3 1.869053 1_555
Ga11 O4 1.940847 1_544
Ga11 O8 1.975041 1_555
