# generated using pymatgen
data_LiMnO
_symmetry_space_group_name_H-M   'P 1'
_cell_length_a   8.70462800
_cell_length_b   8.70462800
_cell_length_c   6.63303600
_cell_angle_alpha   90.00000000
_cell_angle_beta   90.00000000
_cell_angle_gamma   90.00000000
_symmetry_Int_Tables_number   1
_chemical_formula_structural   LiMnO
_chemical_formula_sum   'Li1 Mn1 O1'
_cell_volume   502.58877673
_cell_formula_units_Z   1
loop_
 _symmetry_equiv_pos_site_id
 _symmetry_equiv_pos_as_xyz
  1  'x, y, z'
loop_
 _atom_site_type_symbol
 _atom_site_label
 _atom_site_symmetry_multiplicity
 _atom_site_fract_x
 _atom_site_fract_y
 _atom_site_fract_z
 _atom_site_occupancy
  Li  Li0  1  0.00000000  0.00000000  0.03357200  1
  Mn  Mn0  1  0.00000000  0.00000000  0.56325100  1
  O  O0  1  0.00000000  0.00000000  0.29117800  1
loop_
_geom_bond_atom_site_label_1
_geom_bond_atom_site_label_2
_geom_bond_distance
_geom_bond_site_symmetry_2
Li0 O0 1.708710 1_555
Mn0 O0 1.804670 1_555
