# generated using pymatgen
data_K3V2(S2O9)2
_symmetry_space_group_name_H-M   'P 1'
_cell_length_a   5.02693913
_cell_length_b   9.29095100
_cell_length_c   18.47015800
_cell_angle_alpha   90.00000000
_cell_angle_beta   90.00000000
_cell_angle_gamma   89.85040440
_symmetry_Int_Tables_number   1
_chemical_formula_structural   K3V2(S2O9)2
_chemical_formula_sum   'K6 V4 S8 O36'
_cell_volume   862.64662347
_cell_formula_units_Z   2
loop_
 _symmetry_equiv_pos_site_id
 _symmetry_equiv_pos_as_xyz
  1  'x, y, z'
loop_
 _atom_site_type_symbol
 _atom_site_label
 _atom_site_symmetry_multiplicity
 _atom_site_fract_x
 _atom_site_fract_y
 _atom_site_fract_z
 _atom_site_occupancy
  K  K0  1  0.73631300  0.91510300  0.11667600  1
  K  K1  1  0.23679900  0.41519000  0.37980900  1
  K  K2  1  0.25054600  0.25002000  0.99816400  1
  K  K3  1  0.26368700  0.08489700  0.61667600  1
  K  K4  1  0.74945400  0.74998000  0.49816400  1
  K  K5  1  0.76320100  0.58481000  0.87980900  1
  V  V0  1  0.24290500  0.95815500  0.81569900  1
  V  V1  1  0.75709500  0.04184500  0.31569900  1
  V  V2  1  0.25870200  0.54118700  0.18080000  1
  V  V3  1  0.74129800  0.45881300  0.68080000  1
  S  S0  1  0.74951900  0.86738600  0.70944000  1
  S  S1  1  0.25048100  0.13261400  0.20944000  1
  S  S2  1  0.24813000  0.36762800  0.78702500  1
  S  S3  1  0.76406500  0.49946700  0.07465700  1
  S  S4  1  0.75187000  0.63237200  0.28702500  1
  S  S5  1  0.73714000  0.00018400  0.92188900  1
  S  S6  1  0.23593500  0.50053300  0.57465700  1
  S  S7  1  0.26286000  0.99981600  0.42188900  1
  O  O0  1  0.97382600  0.55147700  0.60812300  1
  O  O1  1  0.26199000  0.70283600  0.15149500  1
  O  O2  1  0.21431000  0.38835900  0.86482300  1
  O  O3  1  0.72858400  0.41710800  0.00785200  1
  O  O4  1  0.55053100  0.45209900  0.12829700  1
  O  O5  1  0.04985400  0.95304600  0.36786900  1
  O  O6  1  0.71522200  0.88830300  0.63162300  1
  O  O7  1  0.44946900  0.54790100  0.62829700  1
  O  O8  1  0.01472300  0.93651800  0.72925500  1
  O  O9  1  0.78569000  0.61164100  0.36482300  1
  O  O10  1  0.73882700  0.84561900  0.93185400  1
  O  O11  1  0.54033800  0.95858800  0.74776200  1
  O  O12  1  0.77375600  0.08308800  0.98852100  1
  O  O13  1  0.27141600  0.58289200  0.50785200  1
  O  O14  1  0.51236400  0.43748800  0.76708200  1
  O  O15  1  0.28477800  0.11169700  0.13162300  1
  O  O16  1  0.76054400  0.78087000  0.26163200  1
  O  O17  1  0.22624400  0.91691200  0.48852100  1
  O  O18  1  0.52550900  0.94900600  0.38855200  1
  O  O19  1  0.73801000  0.29716400  0.65149500  1
  O  O20  1  0.48763600  0.56251200  0.26708200  1
  O  O21  1  0.23794300  0.34588100  0.56506400  1
  O  O22  1  0.95014600  0.04695400  0.86786900  1
  O  O23  1  0.24022000  0.79647100  0.84496300  1
  O  O24  1  0.98527700  0.06348200  0.22925500  1
  O  O25  1  0.23945600  0.21913000  0.76163200  1
  O  O26  1  0.76205700  0.65411900  0.06506400  1
  O  O27  1  0.03819200  0.45839100  0.74888500  1
  O  O28  1  0.96180800  0.54160900  0.24888500  1
  O  O29  1  0.47449100  0.05099400  0.88855200  1
  O  O30  1  0.73974200  0.71889900  0.73483700  1
  O  O31  1  0.45966200  0.04141200  0.24776200  1
  O  O32  1  0.75978000  0.20352900  0.34496300  1
  O  O33  1  0.26025800  0.28110100  0.23483700  1
  O  O34  1  0.02617400  0.44852300  0.10812300  1
  O  O35  1  0.26117300  0.15438100  0.43185400  1
loop_
_geom_bond_atom_site_label_1
_geom_bond_atom_site_label_2
_geom_bond_distance
_geom_bond_site_symmetry_2
K0 O26 2.608344 1_555
K0 O24 2.792762 1_565
K0 O12 2.841789 1_564
K0 O15 2.922842 1_565
K0 O16 2.955958 1_555
K0 O31 3.027347 1_565
K0 O1 3.164317 1_555
K0 O15 3.322707 1_665
K0 O1 3.355422 1_655
K0 O10 3.474215 1_554
K1 O35 2.609453 1_555
K1 O20 2.794204 1_555
K1 O13 2.837695 1_555
K1 O9 2.920423 1_455
K1 O33 2.955509 1_555
K1 O28 3.021531 1_455
K1 O32 3.171159 1_455
K1 O9 3.323815 1_555
K1 O32 3.341571 1_555
K2 O2 2.783790 1_555
K2 O15 2.785021 1_556
K2 O12 2.863778 1_455
K2 O3 2.869878 1_556
K2 O29 2.962193 1_555
K2 O34 2.964368 1_556
K2 O3 3.050478 1_456
K2 O12 3.055086 1_555
K3 O21 2.608344 1_555
K3 O8 2.792762 1_545
K3 O17 2.841789 1_545
K3 O6 2.922842 1_545
K3 O25 2.955958 1_555
K3 O11 3.027347 1_545
K3 O19 3.164317 1_555
K3 O6 3.322707 1_445
K3 O19 3.355422 1_455
K3 O35 3.474215 1_555
K4 O9 2.783790 1_555
K4 O6 2.785021 1_555
K4 O17 2.863778 1_655
K4 O13 2.869878 1_555
K4 O18 2.962193 1_555
K4 O0 2.964368 1_555
K4 O13 3.050478 1_655
K4 O17 3.055086 1_555
K5 O10 2.609453 1_555
K5 O14 2.794204 1_555
K5 O3 2.837695 1_556
K5 O2 2.920423 1_655
K5 O30 2.955509 1_555
K5 O27 3.021531 1_655
K5 O23 3.171159 1_655
K5 O2 3.323815 1_555
K5 O23 3.341571 1_555
O0 S6 1.529357 1_655
O0 V3 1.978566 1_555
O1 V2 1.596558 1_555
O2 S2 1.459668 1_555
O3 S3 1.463063 1_555
O4 S3 1.526417 1_555
O4 V2 1.941975 1_555
O5 S7 1.527520 1_555
O5 V1 1.941308 1_465
O6 S0 1.460523 1_555
O7 S6 1.526417 1_555
O7 V3 1.941975 1_555
O8 S0 1.525876 1_455
O8 V0 1.976511 1_555
O9 S4 1.459668 1_555
O10 S5 1.447806 1_565
O11 S0 1.523185 1_555
O11 V0 1.951959 1_555
O12 S5 1.463744 1_555
O13 S6 1.463063 1_555
O14 S2 1.525064 1_555
O14 V3 1.975998 1_555
O15 S1 1.460523 1_555
O16 S4 1.457987 1_555
O17 S7 1.463744 1_555
O18 S7 1.530353 1_555
O18 V1 1.978687 1_565
O19 V3 1.596558 1_555
O20 S4 1.525064 1_555
O20 V2 1.975998 1_555
O21 S6 1.447757 1_555
O22 S5 1.527520 1_555
O22 V0 1.941308 1_645
O23 V0 1.596571 1_555
O24 S1 1.525876 1_655
O24 V1 1.976511 1_555
O25 S2 1.457987 1_555
O26 S3 1.447757 1_555
O27 S2 1.521996 1_555
O27 V3 1.951629 1_455
O28 S4 1.521996 1_555
O28 V2 1.951629 1_655
O29 S5 1.530353 1_555
O29 V0 1.978687 1_545
O30 S0 1.458104 1_555
O31 S1 1.523185 1_555
O31 V1 1.951959 1_555
O32 V1 1.596571 1_555
O33 S1 1.458104 1_555
O34 S3 1.529357 1_455
O34 V2 1.978566 1_555
O35 S7 1.447806 1_545
