# generated using pymatgen
data_Li3Sn11Pd4
_symmetry_space_group_name_H-M   'P 1'
_cell_length_a   6.68858977
_cell_length_b   6.68858977
_cell_length_c   8.44536933
_cell_angle_alpha   90.00000000
_cell_angle_beta   90.00000000
_cell_angle_gamma   90.76010274
_symmetry_Int_Tables_number   1
_chemical_formula_structural   Li3Sn11Pd4
_chemical_formula_sum   'Li3 Sn11 Pd4'
_cell_volume   377.78920932
_cell_formula_units_Z   1
loop_
 _symmetry_equiv_pos_site_id
 _symmetry_equiv_pos_as_xyz
  1  'x, y, z'
loop_
 _atom_site_type_symbol
 _atom_site_label
 _atom_site_symmetry_multiplicity
 _atom_site_fract_x
 _atom_site_fract_y
 _atom_site_fract_z
 _atom_site_occupancy
  Li  Li0  1  0.49978677  0.99325625  0.50000000  1
  Li  Li1  1  0.99325625  0.49978677  0.50000000  1
  Li  Li2  1  0.32445018  0.32445018  -0.00000000  1
  Sn  Sn0  1  0.16641687  0.16641687  0.68295699  1
  Sn  Sn1  1  0.84985200  0.84985200  0.67952415  1
  Sn  Sn2  1  0.65061044  0.34191408  0.68327497  1
  Sn  Sn3  1  0.34191408  0.65061044  0.68327497  1
  Sn  Sn4  1  0.84985200  0.84985200  0.32047585  1
  Sn  Sn5  1  0.16641687  0.16641687  0.31704301  1
  Sn  Sn6  1  0.34191408  0.65061044  0.31672503  1
  Sn  Sn7  1  0.65061044  0.34191408  0.31672503  1
  Sn  Sn8  1  0.65648623  0.65648623  -0.00000000  1
  Sn  Sn9  1  0.83727056  0.17034934  -0.00000000  1
  Sn  Sn10  1  0.17034934  0.83727056  -0.00000000  1
  Pd  Pd0  1  0.50528248  0.99512298  0.81633190  1
  Pd  Pd1  1  0.99512298  0.50528248  0.81633190  1
  Pd  Pd2  1  0.50528248  0.99512298  0.18366810  1
  Pd  Pd3  1  0.99512298  0.50528248  0.18366810  1
loop_
_geom_bond_atom_site_label_1
_geom_bond_atom_site_label_2
_geom_bond_distance
_geom_bond_site_symmetry_2
Li0 Pd2 2.671819 1_555
Li0 Pd0 2.671819 1_555
Li0 Sn6 2.949407 1_555
Li0 Sn3 2.949407 1_555
Li0 Sn4 2.959840 1_555
Li0 Sn1 2.959840 1_555
Li0 Sn0 2.961300 1_565
Li0 Sn5 2.961300 1_565
Li0 Sn7 2.964688 1_565
Li0 Sn2 2.964688 1_565
Li1 Pd3 2.671819 1_555
Li1 Pd1 2.671819 1_555
Li1 Sn7 2.949407 1_555
Li1 Sn2 2.949407 1_555
Li1 Sn4 2.959840 1_555
Li1 Sn1 2.959840 1_555
Li1 Sn5 2.961300 1_655
Li1 Sn0 2.961300 1_655
Li1 Sn6 2.964688 1_655
Li1 Sn3 2.964688 1_655
Li2 Pd3 2.965080 1_455
Li2 Pd2 2.965080 1_545
Li2 Pd1 2.965080 1_454
Li2 Pd0 2.965080 1_544
Li2 Sn0 3.061730 1_554
Li2 Sn5 3.061730 1_555
Li2 Sn8 3.119858 1_555
Li2 Sn10 3.404612 1_545
Li2 Sn9 3.404612 1_455
Li2 Sn3 3.452670 1_554
Li2 Sn2 3.452670 1_554
Li2 Sn6 3.452670 1_555
Li2 Sn7 3.452670 1_555
Li2 Sn10 3.594633 1_555
Li2 Sn9 3.594633 1_555
Sn0 Sn1 2.974630 1_445
Sn0 Sn5 3.090279 1_555
Sn0 Sn3 3.430068 1_555
Sn0 Sn2 3.430068 1_555
Sn0 Sn9 3.466726 1_456
Sn0 Sn10 3.466726 1_546
Sn1 Sn4 3.032296 1_555
Sn1 Sn8 3.259822 1_556
Sn1 Sn10 3.454353 1_656
Sn1 Sn9 3.454353 1_566
Sn2 Sn3 2.939292 1_555
Sn2 Sn7 3.095650 1_555
Sn2 Sn9 3.173080 1_556
Sn2 Sn8 3.403120 1_556
Sn3 Sn6 3.095650 1_555
Sn3 Sn8 3.403120 1_556
Sn4 Sn5 2.974630 1_665
Sn4 Sn8 3.259822 1_555
Sn4 Sn9 3.454353 1_565
Sn5 Sn6 3.430068 1_555
Sn5 Sn7 3.430068 1_555
Sn5 Sn9 3.466726 1_455
Sn6 Sn7 2.939292 1_555
Sn6 Sn8 3.403120 1_555
Sn7 Sn9 3.173080 1_555
Sn7 Sn8 3.403120 1_555
Sn8 Sn9 3.484131 1_555
Sn8 Sn9 3.628358 1_565
Sn10 Sn9 3.171453 1_465
Sn10 Sn3 3.173080 1_554
Sn10 Sn6 3.173080 1_555
Sn10 Sn4 3.454353 1_455
Sn10 Sn5 3.466726 1_565
Sn10 Sn8 3.484131 1_555
Sn10 Sn8 3.628358 1_455
Pd0 Sn2 2.743730 1_565
Pd0 Sn1 2.765869 1_555
Pd0 Sn3 2.774841 1_555
Pd0 Sn0 2.790611 1_565
Pd0 Sn10 2.911471 1_556
Pd0 Sn8 2.935962 1_556
Pd0 Sn9 2.939624 1_566
Pd0 Pd2 3.102290 1_556
Pd1 Sn3 2.743730 1_655
Pd1 Sn1 2.765869 1_555
Pd1 Sn2 2.774841 1_555
Pd1 Sn0 2.790611 1_655
Pd1 Sn9 2.911471 1_556
Pd1 Sn8 2.935962 1_556
Pd1 Sn10 2.939624 1_656
Pd1 Pd3 3.102290 1_556
Pd2 Sn7 2.743730 1_565
Pd2 Sn4 2.765869 1_555
Pd2 Sn6 2.774841 1_555
Pd2 Sn5 2.790611 1_565
Pd2 Sn10 2.911471 1_555
Pd2 Sn8 2.935962 1_555
Pd2 Sn9 2.939624 1_565
Pd3 Sn6 2.743730 1_655
Pd3 Sn4 2.765869 1_555
Pd3 Sn7 2.774841 1_555
Pd3 Sn5 2.790611 1_655
Pd3 Sn9 2.911471 1_555
Pd3 Sn8 2.935962 1_555
Pd3 Sn10 2.939624 1_655
