# generated using pymatgen
data_Cs2TaAgI6
_symmetry_space_group_name_H-M   'P 1'
_cell_length_a   8.37764417
_cell_length_b   8.37764417
_cell_length_c   8.37764417
_cell_angle_alpha   60.00000000
_cell_angle_beta   60.00000000
_cell_angle_gamma   60.00000000
_symmetry_Int_Tables_number   1
_chemical_formula_structural   Cs2TaAgI6
_chemical_formula_sum   'Cs2 Ta1 Ag1 I6'
_cell_volume   415.76768603
_cell_formula_units_Z   1
loop_
 _symmetry_equiv_pos_site_id
 _symmetry_equiv_pos_as_xyz
  1  'x, y, z'
loop_
 _atom_site_type_symbol
 _atom_site_label
 _atom_site_symmetry_multiplicity
 _atom_site_fract_x
 _atom_site_fract_y
 _atom_site_fract_z
 _atom_site_occupancy
  Cs  Cs0  1  0.25000000  0.25000000  0.25000000  1
  Cs  Cs1  1  0.75000000  0.75000000  0.75000000  1
  Ta  Ta0  1  0.50000000  0.50000000  0.50000000  1
  Ag  Ag0  1  0.00000000  0.00000000  0.00000000  1
  I  I0  1  0.25861900  0.25861900  0.74138100  1
  I  I1  1  0.25861900  0.74138100  0.74138100  1
  I  I2  1  0.74138100  0.74138100  0.25861900  1
  I  I3  1  0.25861900  0.74138100  0.25861900  1
  I  I4  1  0.74138100  0.25861900  0.74138100  1
  I  I5  1  0.74138100  0.25861900  0.25861900  1
loop_
_geom_bond_atom_site_label_1
_geom_bond_atom_site_label_2
_geom_bond_distance
_geom_bond_site_symmetry_2
Cs0 I0 4.190067 1_555
Cs0 I1 4.190067 1_545
Cs0 I5 4.190067 1_555
Cs0 I2 4.190067 1_545
Cs0 I2 4.190067 1_455
Cs0 I4 4.190067 1_554
Cs0 I1 4.190067 1_554
Cs0 I3 4.190067 1_555
Cs0 I4 4.190067 1_455
Cs0 I0 4.190067 1_554
Cs0 I5 4.190067 1_455
Cs0 I3 4.190067 1_545
Cs1 I1 4.190067 1_655
Cs1 I4 4.190067 1_565
Cs1 I5 4.190067 1_565
Cs1 I2 4.190067 1_556
Cs1 I0 4.190067 1_565
Cs1 I0 4.190067 1_655
Cs1 I3 4.190067 1_655
Cs1 I5 4.190067 1_556
Cs1 I4 4.190067 1_555
Cs1 I2 4.190067 1_555
Cs1 I3 4.190067 1_556
Cs1 I1 4.190067 1_555
Ag0 I3 3.064060 1_545
Ag0 I5 3.064060 1_455
Ag0 I0 3.064060 1_554
Ag0 I2 3.064060 1_445
Ag0 I4 3.064060 1_454
Ag0 I1 3.064060 1_544
I0 Ta0 2.859829 1_555
I1 Ta0 2.859829 1_555
I2 Ta0 2.859829 1_555
I3 Ta0 2.859829 1_555
I4 Ta0 2.859829 1_555
I5 Ta0 2.859829 1_555
