# generated using pymatgen
data_RbRe
_symmetry_space_group_name_H-M   'P 1'
_cell_length_a   5.88078400
_cell_length_b   5.88078400
_cell_length_c   6.68138559
_cell_angle_alpha   116.10944234
_cell_angle_beta   116.10944234
_cell_angle_gamma   90.00000000
_symmetry_Int_Tables_number   1
_chemical_formula_structural   RbRe
_chemical_formula_sum   'Rb4 Re4'
_cell_volume   180.85978112
_cell_formula_units_Z   4
loop_
 _symmetry_equiv_pos_site_id
 _symmetry_equiv_pos_as_xyz
  1  'x, y, z'
loop_
 _atom_site_type_symbol
 _atom_site_label
 _atom_site_symmetry_multiplicity
 _atom_site_fract_x
 _atom_site_fract_y
 _atom_site_fract_z
 _atom_site_occupancy
  Rb  Rb0  1  0.12500000  0.37500000  0.25000000  1
  Rb  Rb1  1  0.12500000  0.87500000  0.25000000  1
  Rb  Rb2  1  0.12500000  0.87500000  0.75000000  1
  Rb  Rb3  1  0.62500000  0.87500000  0.75000000  1
  Re  Re0  1  0.62500000  0.87500000  0.25000000  1
  Re  Re1  1  0.62500000  0.37500000  0.25000000  1
  Re  Re2  1  0.62500000  0.37500000  0.75000000  1
  Re  Re3  1  0.12500000  0.37500000  0.75000000  1
loop_
_geom_bond_atom_site_label_1
_geom_bond_atom_site_label_2
_geom_bond_distance
_geom_bond_site_symmetry_2
Rb0 Re1 2.940392 1_455
Rb0 Rb1 2.940392 1_555
Rb0 Re1 2.940392 1_555
Rb0 Rb1 2.940392 1_545
Rb0 Rb2 3.340693 1_544
Rb0 Re2 3.340693 1_454
Rb0 Rb2 3.340693 1_555
Rb0 Re3 3.340693 1_554
Rb0 Rb3 3.340693 1_444
Rb0 Rb3 3.340693 1_555
Rb0 Re3 3.340693 1_555
Rb0 Re2 3.340693 1_555
Rb1 Re0 2.940392 1_455
Rb1 Re0 2.940392 1_555
Rb1 Re2 3.340693 1_454
Rb1 Rb2 3.340693 1_555
Rb1 Re3 3.340693 1_554
Rb1 Rb3 3.340693 1_454
Rb1 Re2 3.340693 1_565
Rb1 Rb3 3.340693 1_555
Rb1 Rb2 3.340693 1_554
Rb1 Re3 3.340693 1_565
Rb2 Rb3 2.940392 1_455
Rb2 Re3 2.940392 1_565
Rb2 Rb3 2.940392 1_555
Rb2 Re3 2.940392 1_555
Rb2 Re1 3.340693 1_566
Rb2 Re0 3.340693 1_455
Rb2 Re0 3.340693 1_556
Rb2 Re1 3.340693 1_455
Rb3 Re2 2.940392 1_565
Rb3 Re2 2.940392 1_555
Rb3 Re1 3.340693 1_555
Rb3 Re1 3.340693 1_566
Rb3 Re0 3.340693 1_555
Rb3 Re0 3.340693 1_556
Re0 Re1 2.940392 1_555
Re0 Re1 2.940392 1_565
Re0 Re3 3.340693 1_665
Re0 Re3 3.340693 1_554
Re0 Re2 3.340693 1_565
Re0 Re2 3.340693 1_554
Re1 Re3 3.340693 1_554
Re1 Re2 3.340693 1_554
Re1 Re2 3.340693 1_555
Re1 Re3 3.340693 1_655
Re2 Re3 2.940392 1_555
Re2 Re3 2.940392 1_655
