# generated using pymatgen
data_YB2Mo
_symmetry_space_group_name_H-M   'P 1'
_cell_length_a   10.75723764
_cell_length_b   10.75723764
_cell_length_c   6.28437200
_cell_angle_alpha   90.00000000
_cell_angle_beta   90.00000000
_cell_angle_gamma   143.76265806
_symmetry_Int_Tables_number   1
_chemical_formula_structural   YB2Mo
_chemical_formula_sum   'Y8 B16 Mo8'
_cell_volume   429.88024852
_cell_formula_units_Z   8
loop_
 _symmetry_equiv_pos_site_id
 _symmetry_equiv_pos_as_xyz
  1  'x, y, z'
loop_
 _atom_site_type_symbol
 _atom_site_label
 _atom_site_symmetry_multiplicity
 _atom_site_fract_x
 _atom_site_fract_y
 _atom_site_fract_z
 _atom_site_occupancy
  Y  Y0_0  1  0.42140600  0.07859400  0.00000000  1
  Y  Y0_1  1  0.42140600  0.07859400  0.50000000  1
  Y  Y0_2  1  0.42140600  0.57859400  0.00000000  1
  Y  Y0_3  1  0.42140600  0.57859400  0.50000000  1
  Y  Y0_4  1  0.92140600  0.07859400  0.00000000  1
  Y  Y0_5  1  0.92140600  0.07859400  0.50000000  1
  Y  Y0_6  1  0.92140600  0.57859400  0.00000000  1
  Y  Y0_7  1  0.92140600  0.57859400  0.50000000  1
  B  B0_0  1  0.23834800  0.26165200  0.25000000  1
  B  B0_1  1  0.23834800  0.26165200  0.75000000  1
  B  B0_2  1  0.23834800  0.76165200  0.25000000  1
  B  B0_3  1  0.23834800  0.76165200  0.75000000  1
  B  B0_4  1  0.73834800  0.26165200  0.25000000  1
  B  B0_5  1  0.73834800  0.26165200  0.75000000  1
  B  B0_6  1  0.73834800  0.76165200  0.25000000  1
  B  B0_7  1  0.73834800  0.76165200  0.75000000  1
  B  B1_0  1  0.27962750  0.22037250  0.00000000  1
  B  B1_1  1  0.27962750  0.22037250  0.50000000  1
  B  B1_2  1  0.27962750  0.72037250  0.00000000  1
  B  B1_3  1  0.27962750  0.72037250  0.50000000  1
  B  B1_4  1  0.77962750  0.22037250  0.00000000  1
  B  B1_5  1  0.77962750  0.22037250  0.50000000  1
  B  B1_6  1  0.77962750  0.72037250  0.00000000  1
  B  B1_7  1  0.77962750  0.72037250  0.50000000  1
  Mo  Mo0_0  1  0.06061850  0.43938150  0.25000000  1
  Mo  Mo0_1  1  0.06061850  0.43938150  0.75000000  1
  Mo  Mo0_2  1  0.06061850  0.93938150  0.25000000  1
  Mo  Mo0_3  1  0.06061850  0.93938150  0.75000000  1
  Mo  Mo0_4  1  0.56061850  0.43938150  0.25000000  1
  Mo  Mo0_5  1  0.56061850  0.43938150  0.75000000  1
  Mo  Mo0_6  1  0.56061850  0.93938150  0.25000000  1
  Mo  Mo0_7  1  0.56061850  0.93938150  0.75000000  1
loop_
_geom_bond_atom_site_label_1
_geom_bond_atom_site_label_2
_geom_bond_distance
_geom_bond_site_symmetry_2
Y0_0 Y0_1 3.142186 1_555
Y0_0 Y0_1 3.142186 1_554
Y0_0 Y0_6 3.345352 1_445
Y0_0 Y0_6 3.345352 1_555
Y0_1 Y0_7 3.345352 1_555
Y0_1 Y0_7 3.345352 1_445
Y0_2 Y0_3 3.142186 1_555
Y0_2 Y0_3 3.142186 1_554
Y0_2 Y0_4 3.345352 1_565
Y0_2 Y0_4 3.345352 1_455
Y0_3 Y0_5 3.345352 1_565
Y0_3 Y0_5 3.345352 1_455
Y0_4 Y0_5 3.142186 1_555
Y0_4 Y0_5 3.142186 1_554
Y0_6 Y0_7 3.142186 1_555
Y0_6 Y0_7 3.142186 1_554
B0_0 B1_0 1.783476 1_555
B0_0 B1_1 1.783476 1_555
B0_0 Mo0_2 2.231956 1_545
B0_0 Mo0_4 2.231956 1_555
B0_0 Y0_5 2.672043 1_455
B0_0 Y0_4 2.672043 1_455
B0_0 Y0_2 2.672043 1_555
B0_0 Y0_3 2.672043 1_555
B0_1 B1_1 1.783476 1_555
B0_1 B1_0 1.783476 1_556
B0_1 Mo0_3 2.231956 1_545
B0_1 Mo0_5 2.231956 1_555
B0_1 Y0_5 2.672043 1_455
B0_1 Y0_4 2.672043 1_456
B0_1 Y0_3 2.672043 1_555
B0_1 Y0_2 2.672043 1_556
B0_2 B1_2 1.783476 1_555
B0_2 B1_3 1.783476 1_555
B0_2 Mo0_0 2.231956 1_555
B0_2 Mo0_6 2.231956 1_555
B0_2 Y0_6 2.672043 1_455
B0_2 Y0_7 2.672043 1_455
B0_2 Y0_0 2.672043 1_565
B0_2 Y0_1 2.672043 1_565
B0_3 B1_3 1.783476 1_555
B0_3 B1_2 1.783476 1_556
B0_3 Mo0_1 2.231956 1_555
B0_3 Mo0_7 2.231956 1_555
B0_3 Y0_7 2.672043 1_455
B0_3 Y0_6 2.672043 1_456
B0_3 Y0_1 2.672043 1_565
B0_3 Y0_0 2.672043 1_566
B0_4 B1_5 1.783476 1_555
B0_4 B1_4 1.783476 1_555
B0_4 Mo0_6 2.231956 1_545
B0_4 Mo0_0 2.231956 1_655
B0_4 Y0_1 2.672043 1_555
B0_4 Y0_0 2.672043 1_555
B0_4 Y0_6 2.672043 1_555
B0_4 Y0_7 2.672043 1_555
B0_5 B1_5 1.783476 1_555
B0_5 B1_4 1.783476 1_556
B0_5 Mo0_7 2.231956 1_545
B0_5 Mo0_1 2.231956 1_655
B0_5 Y0_1 2.672043 1_555
B0_5 Y0_0 2.672043 1_556
B0_5 Y0_7 2.672043 1_555
B0_5 Y0_6 2.672043 1_556
B0_6 B1_7 1.783476 1_555
B0_6 B1_6 1.783476 1_555
B0_6 Mo0_4 2.231956 1_555
B0_6 Mo0_2 2.231956 1_655
B0_6 Y0_3 2.672043 1_555
B0_6 Y0_2 2.672043 1_555
B0_6 Y0_4 2.672043 1_565
B0_6 Y0_5 2.672043 1_565
B0_7 B1_7 1.783476 1_555
B0_7 B1_6 1.783476 1_556
B0_7 Mo0_5 2.231956 1_555
B0_7 Mo0_3 2.231956 1_655
B0_7 Y0_3 2.672043 1_555
B0_7 Y0_2 2.672043 1_556
B0_7 Y0_5 2.672043 1_565
B0_7 Y0_4 2.672043 1_566
B1_0 Mo0_2 2.380703 1_545
B1_0 Mo0_4 2.380703 1_555
B1_0 Mo0_5 2.380703 1_554
B1_0 Mo0_3 2.380703 1_544
B1_0 Y0_2 2.773927 1_555
B1_0 Y0_4 2.773927 1_455
B1_0 Y0_0 2.899040 1_555
B1_1 Mo0_5 2.380703 1_555
B1_1 Mo0_3 2.380703 1_545
B1_1 Mo0_2 2.380703 1_545
B1_1 Mo0_4 2.380703 1_555
B1_1 Y0_3 2.773927 1_555
B1_1 Y0_5 2.773927 1_455
B1_1 Y0_1 2.899040 1_555
B1_2 Mo0_0 2.380703 1_555
B1_2 Mo0_1 2.380703 1_554
B1_2 Mo0_6 2.380703 1_555
B1_2 Mo0_7 2.380703 1_554
B1_2 Y0_6 2.773927 1_455
B1_2 Y0_0 2.773927 1_565
B1_2 Y0_2 2.899040 1_555
B1_3 Mo0_1 2.380703 1_555
B1_3 Mo0_0 2.380703 1_555
B1_3 Mo0_7 2.380703 1_555
B1_3 Mo0_6 2.380703 1_555
B1_3 Y0_7 2.773927 1_455
B1_3 Y0_1 2.773927 1_565
B1_3 Y0_3 2.899040 1_555
B1_4 Mo0_0 2.380703 1_655
B1_4 Mo0_1 2.380703 1_654
B1_4 Mo0_6 2.380703 1_545
B1_4 Mo0_7 2.380703 1_544
B1_4 Y0_0 2.773927 1_555
B1_4 Y0_6 2.773927 1_555
B1_4 Y0_4 2.899040 1_555
B1_5 Mo0_1 2.380703 1_655
B1_5 Mo0_0 2.380703 1_655
B1_5 Mo0_7 2.380703 1_545
B1_5 Mo0_6 2.380703 1_545
B1_5 Y0_1 2.773927 1_555
B1_5 Y0_7 2.773927 1_555
B1_5 Y0_5 2.899040 1_555
B1_6 Mo0_4 2.380703 1_555
B1_6 Mo0_2 2.380703 1_655
B1_6 Mo0_5 2.380703 1_554
B1_6 Mo0_3 2.380703 1_654
B1_6 Y0_4 2.773927 1_565
B1_6 Y0_2 2.773927 1_555
B1_6 Y0_6 2.899040 1_555
B1_7 Mo0_5 2.380703 1_555
B1_7 Mo0_4 2.380703 1_555
B1_7 Mo0_3 2.380703 1_655
B1_7 Mo0_2 2.380703 1_655
B1_7 Y0_5 2.773927 1_565
B1_7 Y0_3 2.773927 1_555
B1_7 Y0_7 2.899040 1_555
Mo0_0 Y0_5 3.224588 1_455
Mo0_0 Y0_4 3.224588 1_455
Mo0_0 Y0_2 3.224588 1_555
Mo0_0 Y0_3 3.224588 1_555
Mo0_1 Y0_5 3.224588 1_455
Mo0_1 Y0_3 3.224588 1_555
Mo0_1 Y0_4 3.224588 1_456
Mo0_1 Y0_2 3.224588 1_556
Mo0_2 Y0_6 3.224588 1_455
Mo0_2 Y0_7 3.224588 1_455
Mo0_2 Y0_0 3.224588 1_565
Mo0_2 Y0_1 3.224588 1_565
Mo0_3 Y0_7 3.224588 1_455
Mo0_3 Y0_1 3.224588 1_565
Mo0_3 Y0_6 3.224588 1_456
Mo0_3 Y0_0 3.224588 1_566
Mo0_4 Y0_7 3.224588 1_555
Mo0_4 Y0_1 3.224588 1_555
Mo0_4 Y0_0 3.224588 1_555
Mo0_4 Y0_6 3.224588 1_555
Mo0_5 Y0_7 3.224588 1_555
Mo0_5 Y0_1 3.224588 1_555
Mo0_5 Y0_6 3.224588 1_556
Mo0_5 Y0_0 3.224588 1_556
Mo0_6 Y0_3 3.224588 1_555
Mo0_6 Y0_4 3.224588 1_565
Mo0_6 Y0_2 3.224588 1_555
Mo0_6 Y0_5 3.224588 1_565
Mo0_7 Y0_3 3.224588 1_555
Mo0_7 Y0_5 3.224588 1_565
Mo0_7 Y0_2 3.224588 1_556
Mo0_7 Y0_4 3.224588 1_566
