# generated using pymatgen
data_HfNi
_symmetry_space_group_name_H-M   'P 1'
_cell_length_a   6.40372024
_cell_length_b   8.06978688
_cell_length_c   10.34200657
_cell_angle_alpha   90.00000000
_cell_angle_beta   71.96502597
_cell_angle_gamma   90.00000000
_symmetry_Int_Tables_number   1
_chemical_formula_structural   HfNi
_chemical_formula_sum   'Hf16 Ni16'
_cell_volume   508.18205560
_cell_formula_units_Z   16
loop_
 _symmetry_equiv_pos_site_id
 _symmetry_equiv_pos_as_xyz
  1  'x, y, z'
loop_
 _atom_site_type_symbol
 _atom_site_label
 _atom_site_symmetry_multiplicity
 _atom_site_fract_x
 _atom_site_fract_y
 _atom_site_fract_z
 _atom_site_occupancy
  Hf  Hf0_0  1  0.06949330  0.37500000  0.36101390  1
  Hf  Hf0_1  1  0.06949330  0.37500000  0.86101390  1
  Hf  Hf0_2  1  0.06949330  0.87500000  0.36101390  1
  Hf  Hf0_3  1  0.06949330  0.87500000  0.86101390  1
  Hf  Hf0_4  1  0.56949330  0.37500000  0.36101390  1
  Hf  Hf0_5  1  0.56949330  0.37500000  0.86101390  1
  Hf  Hf0_6  1  0.56949330  0.87500000  0.36101390  1
  Hf  Hf0_7  1  0.56949330  0.87500000  0.86101390  1
  Hf  Hf1_0  1  0.43050670  0.12500000  0.13898610  1
  Hf  Hf1_1  1  0.43050670  0.12500000  0.63898610  1
  Hf  Hf1_2  1  0.43050670  0.62500000  0.13898610  1
  Hf  Hf1_3  1  0.43050670  0.62500000  0.63898610  1
  Hf  Hf1_4  1  0.93050670  0.12500000  0.13898610  1
  Hf  Hf1_5  1  0.93050670  0.12500000  0.63898610  1
  Hf  Hf1_6  1  0.93050670  0.62500000  0.13898610  1
  Hf  Hf1_7  1  0.93050670  0.62500000  0.63898610  1
  Ni  Ni0_0  1  0.20787274  0.37500000  0.08425401  1
  Ni  Ni0_1  1  0.20787274  0.37500000  0.58425401  1
  Ni  Ni0_2  1  0.20787274  0.87500000  0.08425401  1
  Ni  Ni0_3  1  0.20787274  0.87500000  0.58425401  1
  Ni  Ni0_4  1  0.70787274  0.37500000  0.08425401  1
  Ni  Ni0_5  1  0.70787274  0.37500000  0.58425401  1
  Ni  Ni0_6  1  0.70787274  0.87500000  0.08425401  1
  Ni  Ni0_7  1  0.70787274  0.87500000  0.58425401  1
  Ni  Ni1_0  1  0.29212725  0.12500000  0.41574599  1
  Ni  Ni1_1  1  0.29212726  0.12500000  0.91574599  1
  Ni  Ni1_2  1  0.29212725  0.62500000  0.41574599  1
  Ni  Ni1_3  1  0.29212726  0.62500000  0.91574599  1
  Ni  Ni1_4  1  0.79212725  0.12500000  0.41574599  1
  Ni  Ni1_5  1  0.79212725  0.12500000  0.91574599  1
  Ni  Ni1_6  1  0.79212725  0.62500000  0.41574599  1
  Ni  Ni1_7  1  0.79212725  0.62500000  0.91574599  1
loop_
_geom_bond_atom_site_label_1
_geom_bond_atom_site_label_2
_geom_bond_distance
_geom_bond_site_symmetry_2
Hf0_0 Ni1_0 2.631114 1_555
Hf0_0 Ni1_2 2.631114 1_555
Hf0_0 Ni1_6 2.631114 1_455
Hf0_0 Ni1_4 2.631114 1_455
Hf0_0 Ni0_1 2.717054 1_555
Hf0_0 Ni0_5 2.717058 1_455
Hf0_0 Ni0_0 2.721624 1_555
Hf0_0 Hf0_4 3.201860 1_555
Hf0_0 Hf0_4 3.201860 1_455
Hf0_1 Ni1_3 2.631114 1_555
Hf0_1 Ni1_1 2.631114 1_555
Hf0_1 Ni1_5 2.631114 1_455
Hf0_1 Ni1_7 2.631114 1_455
Hf0_1 Ni0_0 2.717054 1_556
Hf0_1 Ni0_4 2.717058 1_456
Hf0_1 Ni0_1 2.721624 1_555
Hf0_1 Hf0_5 3.201860 1_455
Hf0_1 Hf0_5 3.201860 1_555
Hf0_2 Ni1_2 2.631114 1_555
Hf0_2 Ni1_0 2.631114 1_565
Hf0_2 Ni1_4 2.631114 1_465
Hf0_2 Ni1_6 2.631114 1_455
Hf0_2 Ni0_3 2.717054 1_555
Hf0_2 Ni0_7 2.717058 1_455
Hf0_2 Ni0_2 2.721624 1_555
Hf0_2 Hf0_6 3.201860 1_555
Hf0_2 Hf0_6 3.201860 1_455
Hf0_3 Ni1_1 2.631114 1_565
Hf0_3 Ni1_3 2.631114 1_555
Hf0_3 Ni1_5 2.631114 1_465
Hf0_3 Ni1_7 2.631114 1_455
Hf0_3 Ni0_2 2.717054 1_556
Hf0_3 Ni0_6 2.717058 1_456
Hf0_3 Ni0_3 2.721624 1_555
Hf0_3 Hf0_7 3.201860 1_455
Hf0_3 Hf0_7 3.201860 1_555
Hf0_4 Ni1_6 2.631114 1_555
Hf0_4 Ni1_4 2.631114 1_555
Hf0_4 Ni1_2 2.631114 1_555
Hf0_4 Ni1_0 2.631114 1_555
Hf0_4 Ni0_5 2.717054 1_555
Hf0_4 Ni0_1 2.717058 1_555
Hf0_4 Ni0_4 2.721624 1_555
Hf0_5 Ni1_7 2.631114 1_555
Hf0_5 Ni1_5 2.631114 1_555
Hf0_5 Ni1_3 2.631114 1_555
Hf0_5 Ni1_1 2.631114 1_555
Hf0_5 Ni0_4 2.717054 1_556
Hf0_5 Ni0_0 2.717058 1_556
Hf0_5 Ni0_5 2.721624 1_555
Hf0_6 Ni1_4 2.631114 1_565
Hf0_6 Ni1_6 2.631114 1_555
Hf0_6 Ni1_2 2.631114 1_555
Hf0_6 Ni1_0 2.631114 1_565
Hf0_6 Ni0_7 2.717054 1_555
Hf0_6 Ni0_3 2.717058 1_555
Hf0_6 Ni0_6 2.721624 1_555
Hf0_7 Ni1_7 2.631114 1_555
Hf0_7 Ni1_5 2.631114 1_565
Hf0_7 Ni1_3 2.631114 1_555
Hf0_7 Ni1_1 2.631114 1_565
Hf0_7 Ni0_6 2.717054 1_556
Hf0_7 Ni0_2 2.717058 1_556
Hf0_7 Ni0_7 2.721624 1_555
Hf1_0 Ni0_2 2.631114 1_545
Hf1_0 Ni0_0 2.631114 1_555
Hf1_0 Ni0_6 2.631114 1_545
Hf1_0 Ni0_4 2.631114 1_555
Hf1_0 Ni1_1 2.717054 1_554
Hf1_0 Ni1_5 2.717058 1_554
Hf1_0 Ni1_0 2.721624 1_555
Hf1_0 Hf1_4 3.201860 1_455
Hf1_0 Hf1_4 3.201860 1_555
Hf1_1 Ni0_3 2.631114 1_545
Hf1_1 Ni0_1 2.631114 1_555
Hf1_1 Ni0_5 2.631114 1_555
Hf1_1 Ni0_7 2.631114 1_545
Hf1_1 Ni1_0 2.717054 1_555
Hf1_1 Ni1_4 2.717058 1_555
Hf1_1 Ni1_1 2.721624 1_555
Hf1_1 Hf1_5 3.201860 1_455
Hf1_1 Hf1_5 3.201860 1_555
Hf1_2 Ni0_2 2.631114 1_555
Hf1_2 Ni0_0 2.631114 1_555
Hf1_2 Ni0_6 2.631114 1_555
Hf1_2 Ni0_4 2.631114 1_555
Hf1_2 Ni1_3 2.717054 1_554
Hf1_2 Ni1_7 2.717058 1_554
Hf1_2 Ni1_2 2.721624 1_555
Hf1_2 Hf1_6 3.201860 1_455
Hf1_2 Hf1_6 3.201860 1_555
Hf1_3 Ni0_3 2.631114 1_555
Hf1_3 Ni0_1 2.631114 1_555
Hf1_3 Ni0_7 2.631114 1_555
Hf1_3 Ni0_5 2.631114 1_555
Hf1_3 Ni1_2 2.717054 1_555
Hf1_3 Ni1_6 2.717058 1_555
Hf1_3 Ni1_3 2.721624 1_555
Hf1_3 Hf1_7 3.201860 1_455
Hf1_3 Hf1_7 3.201860 1_555
Hf1_4 Ni0_6 2.631114 1_545
Hf1_4 Ni0_4 2.631114 1_555
Hf1_4 Ni0_0 2.631114 1_655
Hf1_4 Ni0_2 2.631114 1_645
Hf1_4 Ni1_5 2.717054 1_554
Hf1_4 Ni1_1 2.717058 1_654
Hf1_4 Ni1_4 2.721624 1_555
Hf1_5 Ni0_5 2.631114 1_555
Hf1_5 Ni0_7 2.631114 1_545
Hf1_5 Ni0_1 2.631114 1_655
Hf1_5 Ni0_3 2.631114 1_645
Hf1_5 Ni1_4 2.717054 1_555
Hf1_5 Ni1_0 2.717058 1_655
Hf1_5 Ni1_5 2.721624 1_555
Hf1_6 Ni0_4 2.631114 1_555
Hf1_6 Ni0_6 2.631114 1_555
Hf1_6 Ni0_0 2.631114 1_655
Hf1_6 Ni0_2 2.631114 1_655
Hf1_6 Ni1_7 2.717054 1_554
Hf1_6 Ni1_3 2.717058 1_654
Hf1_6 Ni1_6 2.721624 1_555
Hf1_7 Ni0_5 2.631114 1_555
Hf1_7 Ni0_7 2.631114 1_555
Hf1_7 Ni0_1 2.631114 1_655
Hf1_7 Ni0_3 2.631114 1_655
Hf1_7 Ni1_6 2.717054 1_555
Hf1_7 Ni1_2 2.717058 1_655
Hf1_7 Ni1_7 2.721624 1_555
Ni0_0 Ni1_3 2.610753 1_554
Ni0_0 Ni1_1 2.610753 1_554
Ni0_1 Ni1_2 2.610753 1_555
Ni0_1 Ni1_0 2.610753 1_555
Ni0_2 Ni1_1 2.610753 1_564
Ni0_2 Ni1_3 2.610753 1_554
Ni0_3 Ni1_2 2.610753 1_555
Ni0_3 Ni1_0 2.610753 1_565
Ni0_4 Ni1_5 2.610753 1_554
Ni0_4 Ni1_7 2.610753 1_554
Ni0_5 Ni1_6 2.610753 1_555
Ni0_5 Ni1_4 2.610753 1_555
Ni0_6 Ni1_7 2.610753 1_554
Ni0_6 Ni1_5 2.610753 1_564
Ni0_7 Ni1_4 2.610753 1_565
Ni0_7 Ni1_6 2.610753 1_555
