# generated using pymatgen
data_U3Ni2O9F16
_symmetry_space_group_name_H-M   'P 1'
_cell_length_a   8.07900720
_cell_length_b   8.07900769
_cell_length_c   16.14786700
_cell_angle_alpha   90.00000000
_cell_angle_beta   90.00000000
_cell_angle_gamma   120.44252313
_symmetry_Int_Tables_number   1
_chemical_formula_structural   U3Ni2O9F16
_chemical_formula_sum   'U6 Ni4 O18 F32'
_cell_volume   908.67358273
_cell_formula_units_Z   2
loop_
 _symmetry_equiv_pos_site_id
 _symmetry_equiv_pos_as_xyz
  1  'x, y, z'
loop_
 _atom_site_type_symbol
 _atom_site_label
 _atom_site_symmetry_multiplicity
 _atom_site_fract_x
 _atom_site_fract_y
 _atom_site_fract_z
 _atom_site_occupancy
  U  U0  1  0.50559200  0.49440800  0.75000000  1
  U  U1  1  0.50782900  0.00598300  0.75000000  1
  U  U2  1  0.99401700  0.49217100  0.75000000  1
  U  U3  1  0.49440800  0.50559200  0.25000000  1
  U  U4  1  0.49217100  0.99401700  0.25000000  1
  U  U5  1  0.00598300  0.50782900  0.25000000  1
  Ni  Ni0  1  0.33396900  0.66603100  0.96104300  1
  Ni  Ni1  1  0.66603100  0.33396900  0.03895700  1
  Ni  Ni2  1  0.66603100  0.33396900  0.46104300  1
  Ni  Ni3  1  0.33396900  0.66603100  0.53895700  1
  O  O0  1  0.21370100  0.41966400  0.01076700  1
  O  O1  1  0.58033600  0.78629900  0.01076700  1
  O  O2  1  0.21147300  0.78852700  0.01109800  1
  O  O3  1  0.78629900  0.58033600  0.98923300  1
  O  O4  1  0.41966400  0.21370100  0.98923300  1
  O  O5  1  0.78852700  0.21147300  0.98890200  1
  O  O6  1  0.78629900  0.58033600  0.51076700  1
  O  O7  1  0.41966400  0.21370100  0.51076700  1
  O  O8  1  0.78852700  0.21147300  0.51109800  1
  O  O9  1  0.21370100  0.41966400  0.48923300  1
  O  O10  1  0.58033600  0.78629900  0.48923300  1
  O  O11  1  0.21147300  0.78852700  0.48890200  1
  O  O12  1  0.97936400  0.02063600  0.81909200  1
  O  O13  1  0.02063600  0.97936400  0.18090800  1
  O  O14  1  0.02063600  0.97936400  0.31909200  1
  O  O15  1  0.97936400  0.02063600  0.68090800  1
  O  O16  1  0.02416900  0.97583100  0.75000000  1
  O  O17  1  0.97583100  0.02416900  0.25000000  1
  F  F0  1  0.17084500  0.34045700  0.75000000  1
  F  F1  1  0.65954300  0.82915500  0.75000000  1
  F  F2  1  0.18110000  0.81890000  0.75000000  1
  F  F3  1  0.82915500  0.65954300  0.25000000  1
  F  F4  1  0.34045700  0.17084500  0.25000000  1
  F  F5  1  0.81890000  0.18110000  0.25000000  1
  F  F6  1  0.33788900  0.66211100  0.75000000  1
  F  F7  1  0.66211100  0.33788900  0.25000000  1
  F  F8  1  0.77966900  0.55789800  0.82224800  1
  F  F9  1  0.44210200  0.22033100  0.82224800  1
  F  F10  1  0.77783600  0.22216400  0.82289700  1
  F  F11  1  0.22033100  0.44210200  0.17775200  1
  F  F12  1  0.55789800  0.77966900  0.17775200  1
  F  F13  1  0.22216400  0.77783600  0.17710300  1
  F  F14  1  0.22033100  0.44210200  0.32224800  1
  F  F15  1  0.55789800  0.77966900  0.32224800  1
  F  F16  1  0.22216400  0.77783600  0.32289700  1
  F  F17  1  0.77966900  0.55789800  0.67775200  1
  F  F18  1  0.44210200  0.22033100  0.67775200  1
  F  F19  1  0.77783600  0.22216400  0.67710300  1
  F  F20  1  0.45407100  0.54592900  0.87345100  1
  F  F21  1  0.45458100  0.90885700  0.87406000  1
  F  F22  1  0.09114300  0.54541900  0.87406000  1
  F  F23  1  0.54592900  0.45407100  0.12654900  1
  F  F24  1  0.54541900  0.09114300  0.12594000  1
  F  F25  1  0.90885700  0.45458100  0.12594000  1
  F  F26  1  0.54592900  0.45407100  0.37345100  1
  F  F27  1  0.54541900  0.09114300  0.37406000  1
  F  F28  1  0.90885700  0.45458100  0.37406000  1
  F  F29  1  0.45407100  0.54592900  0.62654900  1
  F  F30  1  0.45458100  0.90885700  0.62594000  1
  F  F31  1  0.09114300  0.54541900  0.62594000  1
loop_
_geom_bond_atom_site_label_1
_geom_bond_atom_site_label_2
_geom_bond_distance
_geom_bond_site_symmetry_2
Ni0 O1 1.894919 1_556
Ni0 O0 1.894920 1_556
Ni0 O2 1.898576 1_556
Ni1 O4 1.894919 1_554
Ni1 O3 1.894920 1_554
Ni1 O5 1.898576 1_554
Ni2 O7 1.894919 1_555
Ni2 O6 1.894920 1_555
Ni2 O8 1.898576 1_555
Ni3 O10 1.894919 1_555
Ni3 O9 1.894920 1_555
Ni3 O11 1.898576 1_555
O12 O16 1.280468 1_645
O13 O17 1.280468 1_465
O14 O17 1.280468 1_465
O15 O16 1.280468 1_645
F0 F6 2.240632 1_555
F0 U2 2.305996 1_455
F0 U0 2.335014 1_555
F0 O12 2.502723 1_455
F0 O15 2.502723 1_455
F0 O16 2.558256 1_545
F0 F29 2.848901 1_555
F0 F20 2.848901 1_555
F0 F31 2.872334 1_555
F0 F22 2.872334 1_555
F0 F9 3.043153 1_555
F0 F18 3.043153 1_555
F0 F19 3.050483 1_455
F0 F10 3.050483 1_455
F1 F6 2.240632 1_555
F1 U1 2.305996 1_565
F1 U0 2.335015 1_555
F1 O12 2.502723 1_565
F1 O15 2.502723 1_565
F1 O16 2.558256 1_655
F1 F29 2.848901 1_555
F1 F20 2.848901 1_555
F1 F30 2.872334 1_555
F1 F21 2.872334 1_555
F1 F17 3.043154 1_555
F1 F8 3.043154 1_555
F1 F10 3.050484 1_565
F1 F19 3.050484 1_565
F2 F6 2.198863 1_555
F2 O16 2.200855 1_555
F2 U1 2.282381 1_565
F2 U2 2.282381 1_455
F2 F30 2.792118 1_555
F2 F21 2.792118 1_555
F2 F31 2.792118 1_555
F2 F22 2.792118 1_555
F2 F8 3.065225 1_455
F2 F9 3.065225 1_565
F3 F7 2.240632 1_555
F3 U5 2.305996 1_655
F3 U3 2.335014 1_555
F3 O14 2.502723 1_655
F3 O13 2.502723 1_655
F3 O17 2.558256 1_565
F4 F7 2.240632 1_555
F4 U4 2.305996 1_545
F4 U3 2.335015 1_555
F4 O14 2.502723 1_545
F4 O13 2.502723 1_545
F4 O17 2.558256 1_455
F5 F7 2.198863 1_555
F5 O17 2.200855 1_555
F5 U4 2.282381 1_545
F5 U5 2.282381 1_655
F6 U0 2.351925 1_555
F6 U2 2.395394 1_455
F6 U1 2.395394 1_565
F7 U3 2.351925 1_555
F7 U5 2.395394 1_655
F7 U4 2.395394 1_545
F8 U0 2.318670 1_555
F8 U2 2.360874 1_555
F8 O3 2.701248 1_555
F8 F9 2.708944 1_555
F8 O12 3.235685 1_565
F9 U0 2.318670 1_555
F9 U1 2.360875 1_555
F9 O4 2.701248 1_555
F9 O12 3.235685 1_455
F10 U1 2.309490 1_555
F10 U2 2.309490 1_555
F10 F19 2.354262 1_555
F10 O5 2.684816 1_555
F10 F21 2.685376 1_545
F10 F22 2.685376 1_655
F10 F9 2.704945 1_555
F10 F8 2.704945 1_555
F10 O12 2.826966 1_555
F11 U3 2.318670 1_555
F11 F14 2.333302 1_555
F11 U5 2.360874 1_555
F11 O0 2.701248 1_555
F11 F25 2.701761 1_455
F11 F13 2.704945 1_555
F11 F12 2.708944 1_555
F11 F23 2.711973 1_555
F11 F4 3.043154 1_555
F11 F5 3.065225 1_455
F11 O13 3.235685 1_545
F12 U3 2.318670 1_555
F12 F15 2.333302 1_555
F12 U4 2.360875 1_555
F12 O1 2.701248 1_555
F12 F24 2.701761 1_565
F12 F13 2.704945 1_555
F12 F23 2.711973 1_555
F12 F3 3.043153 1_555
F12 F5 3.065225 1_565
F12 O13 3.235685 1_655
F13 U4 2.309490 1_555
F13 U5 2.309490 1_555
F13 F16 2.354262 1_555
F13 O2 2.684816 1_555
F13 F24 2.685376 1_565
F13 F25 2.685376 1_455
F13 O13 2.826966 1_555
F13 F3 3.050483 1_455
F13 F4 3.050484 1_565
F14 U3 2.318670 1_555
F14 U5 2.360874 1_555
F14 O9 2.701248 1_555
F14 F28 2.701761 1_455
F14 F16 2.704945 1_555
F14 F15 2.708944 1_555
F14 F26 2.711973 1_555
F14 F4 3.043154 1_555
F14 F5 3.065225 1_455
F14 O14 3.235685 1_545
F15 U3 2.318670 1_555
F15 U4 2.360875 1_555
F15 O10 2.701248 1_555
F15 F27 2.701761 1_565
F15 F16 2.704945 1_555
F15 F26 2.711973 1_555
F15 F3 3.043153 1_555
F15 F5 3.065225 1_565
F15 O14 3.235685 1_655
F16 U4 2.309490 1_555
F16 U5 2.309490 1_555
F16 O11 2.684816 1_555
F16 F27 2.685376 1_565
F16 F28 2.685376 1_455
F16 O14 2.826966 1_555
F16 F3 3.050483 1_455
F16 F4 3.050484 1_565
F17 U0 2.318670 1_555
F17 F8 2.333302 1_555
F17 U2 2.360874 1_555
F17 O6 2.701248 1_555
F17 F31 2.701761 1_655
F17 F19 2.704945 1_555
F17 F18 2.708944 1_555
F17 F29 2.711973 1_555
F17 F2 3.065225 1_655
F17 O15 3.235685 1_565
F18 U0 2.318670 1_555
F18 F9 2.333302 1_555
F18 U1 2.360875 1_555
F18 O7 2.701248 1_555
F18 F30 2.701761 1_545
F18 F19 2.704945 1_555
F18 F29 2.711973 1_555
F18 F2 3.065225 1_545
F18 O15 3.235685 1_455
F19 U1 2.309490 1_555
F19 U2 2.309490 1_555
F19 O8 2.684816 1_555
F19 F30 2.685376 1_545
F19 F31 2.685376 1_655
F19 O15 2.826966 1_555
F20 U0 2.120377 1_555
F20 Ni0 2.199463 1_555
F20 F6 2.574644 1_555
F20 F8 2.711973 1_555
F20 F9 2.711973 1_555
F20 O0 2.778676 1_556
F20 O1 2.778676 1_556
F20 F22 2.930029 1_555
F20 F21 2.930029 1_555
F21 U1 2.114698 1_565
F21 Ni0 2.198607 1_555
F21 F6 2.640356 1_555
F21 F9 2.701761 1_565
F21 O2 2.786502 1_556
F21 O1 2.811612 1_556
F21 F22 2.916557 1_555
F22 U2 2.114698 1_455
F22 Ni0 2.198607 1_555
F22 F6 2.640356 1_555
F22 F8 2.701761 1_455
F22 O2 2.786502 1_556
F22 O0 2.811612 1_556
F23 U3 2.120377 1_555
F23 Ni1 2.199463 1_555
F23 F7 2.574644 1_555
F23 O3 2.778676 1_554
F23 O4 2.778676 1_554
F23 F3 2.848901 1_555
F23 F4 2.848901 1_555
F23 F25 2.930029 1_555
F23 F24 2.930029 1_555
F24 U4 2.114698 1_545
F24 Ni1 2.198607 1_555
F24 F7 2.640356 1_555
F24 O5 2.786502 1_554
F24 F5 2.792118 1_555
F24 O4 2.811612 1_554
F24 F4 2.872334 1_555
F24 F25 2.916557 1_555
F25 U5 2.114698 1_655
F25 Ni1 2.198607 1_555
F25 F7 2.640356 1_555
F25 O5 2.786502 1_554
F25 F5 2.792118 1_555
F25 O3 2.811612 1_554
F25 F3 2.872334 1_555
F26 U3 2.120377 1_555
F26 Ni2 2.199463 1_555
F26 F7 2.574644 1_555
F26 O6 2.778676 1_555
F26 O7 2.778676 1_555
F26 F3 2.848901 1_555
F26 F4 2.848901 1_555
F26 F28 2.930029 1_555
F26 F27 2.930029 1_555
F27 U4 2.114698 1_545
F27 Ni2 2.198607 1_555
F27 F7 2.640356 1_555
F27 O8 2.786502 1_555
F27 F5 2.792118 1_555
F27 O7 2.811612 1_555
F27 F4 2.872334 1_555
F27 F28 2.916557 1_555
F28 U5 2.114698 1_655
F28 Ni2 2.198607 1_555
F28 F7 2.640356 1_555
F28 O8 2.786502 1_555
F28 F5 2.792118 1_555
F28 O6 2.811612 1_555
F28 F3 2.872334 1_555
F29 U0 2.120377 1_555
F29 Ni3 2.199463 1_555
F29 F6 2.574644 1_555
F29 O9 2.778676 1_555
F29 O10 2.778676 1_555
F29 F31 2.930029 1_555
F29 F30 2.930029 1_555
F30 U1 2.114698 1_565
F30 Ni3 2.198607 1_555
F30 F6 2.640356 1_555
F30 O11 2.786502 1_555
F30 O10 2.811612 1_555
F30 F31 2.916557 1_555
F31 U2 2.114698 1_455
F31 Ni3 2.198607 1_555
F31 F6 2.640356 1_555
F31 O11 2.786502 1_555
F31 O9 2.811612 1_555
