# generated using pymatgen
data_LiFeP
_symmetry_space_group_name_H-M   'P 1'
_cell_length_a   9.22407038
_cell_length_b   9.22407038
_cell_length_c   9.22407038
_cell_angle_alpha   144.03422848
_cell_angle_beta   144.03422848
_cell_angle_gamma   51.77611192
_symmetry_Int_Tables_number   1
_chemical_formula_structural   LiFeP
_chemical_formula_sum   'Li8 Fe8 P8'
_cell_volume   269.19479198
_cell_formula_units_Z   8
loop_
 _symmetry_equiv_pos_site_id
 _symmetry_equiv_pos_as_xyz
  1  'x, y, z'
loop_
 _atom_site_type_symbol
 _atom_site_label
 _atom_site_symmetry_multiplicity
 _atom_site_fract_x
 _atom_site_fract_y
 _atom_site_fract_z
 _atom_site_occupancy
  Li  Li0_0  1  0.26547150  0.26547150  0.00000000  1
  Li  Li0_1  1  0.26547150  0.26547150  0.50000000  1
  Li  Li0_2  1  0.26547150  0.76547150  0.00000000  1
  Li  Li0_3  1  0.26547150  0.76547150  0.50000000  1
  Li  Li0_4  1  0.76547150  0.26547150  0.00000000  1
  Li  Li0_5  1  0.76547150  0.26547150  0.50000000  1
  Li  Li0_6  1  0.76547150  0.76547150  0.00000000  1
  Li  Li0_7  1  0.76547150  0.76547150  0.50000000  1
  Fe  Fe0_0  1  0.11311300  0.11311300  0.00000000  1
  Fe  Fe0_1  1  0.11311300  0.11311300  0.50000000  1
  Fe  Fe0_2  1  0.11311300  0.61311300  0.00000000  1
  Fe  Fe0_3  1  0.11311300  0.61311300  0.50000000  1
  Fe  Fe0_4  1  0.61311300  0.11311300  0.00000000  1
  Fe  Fe0_5  1  0.61311300  0.11311300  0.50000000  1
  Fe  Fe0_6  1  0.61311300  0.61311300  0.00000000  1
  Fe  Fe0_7  1  0.61311300  0.61311300  0.50000000  1
  P  P0_0  1  0.42421550  0.42421550  0.00000000  1
  P  P0_1  1  0.42421550  0.42421550  0.50000000  1
  P  P0_2  1  0.42421550  0.92421550  0.00000000  1
  P  P0_3  1  0.42421550  0.92421550  0.50000000  1
  P  P0_4  1  0.92421550  0.42421550  0.00000000  1
  P  P0_5  1  0.92421550  0.42421550  0.50000000  1
  P  P0_6  1  0.92421550  0.92421550  0.00000000  1
  P  P0_7  1  0.92421550  0.92421550  0.50000000  1
loop_
_geom_bond_atom_site_label_1
_geom_bond_atom_site_label_2
_geom_bond_distance
_geom_bond_site_symmetry_2
Li0_0 P0_4 2.519684 1_455
Li0_0 P0_7 2.519684 1_444
Li0_0 P0_2 2.519684 1_545
Li0_0 P0_1 2.519684 1_555
Li0_0 P0_0 2.634650 1_555
Li0_0 Li0_3 2.847774 1_544
Li0_0 Li0_3 2.847774 1_555
Li0_0 Li0_5 2.847774 1_555
Li0_0 Li0_5 2.847774 1_454
Li0_1 P0_5 2.519684 1_455
Li0_1 P0_6 2.519684 1_445
Li0_1 P0_0 2.519684 1_556
Li0_1 P0_3 2.519684 1_545
Li0_1 P0_1 2.634650 1_555
Li0_1 Li0_2 2.847774 1_545
Li0_1 Li0_4 2.847774 1_455
Li0_1 Li0_4 2.847774 1_556
Li0_1 Li0_2 2.847774 1_556
Li0_2 P0_6 2.519684 1_455
Li0_2 P0_5 2.519684 1_454
Li0_2 P0_3 2.519684 1_555
Li0_2 P0_0 2.519684 1_555
Li0_2 P0_2 2.634650 1_555
Li0_2 Li0_7 2.847774 1_454
Li0_2 Li0_7 2.847774 1_555
Li0_3 P0_4 2.519684 1_455
Li0_3 P0_2 2.519684 1_556
Li0_3 P0_7 2.519684 1_455
Li0_3 P0_1 2.519684 1_555
Li0_3 P0_3 2.634650 1_555
Li0_3 Li0_6 2.847774 1_455
Li0_3 Li0_6 2.847774 1_556
Li0_4 P0_3 2.519684 1_544
Li0_4 P0_0 2.519684 1_555
Li0_4 P0_6 2.519684 1_545
Li0_4 P0_5 2.519684 1_555
Li0_4 P0_4 2.634650 1_555
Li0_4 Li0_7 2.847774 1_544
Li0_4 Li0_7 2.847774 1_555
Li0_5 P0_4 2.519684 1_556
Li0_5 P0_1 2.519684 1_555
Li0_5 P0_2 2.519684 1_545
Li0_5 P0_7 2.519684 1_545
Li0_5 P0_5 2.634650 1_555
Li0_5 Li0_6 2.847774 1_545
Li0_5 Li0_6 2.847774 1_556
Li0_6 P0_2 2.519684 1_555
Li0_6 P0_4 2.519684 1_555
Li0_6 P0_1 2.519684 1_554
Li0_6 P0_7 2.519684 1_555
Li0_6 P0_6 2.634650 1_555
Li0_7 P0_3 2.519684 1_555
Li0_7 P0_0 2.519684 1_555
Li0_7 P0_6 2.519684 1_556
Li0_7 P0_5 2.519684 1_555
Li0_7 P0_7 2.634650 1_555
Fe0_0 P0_1 2.254623 1_555
Fe0_0 P0_7 2.254623 1_444
Fe0_0 P0_4 2.254623 1_455
Fe0_0 P0_2 2.254623 1_545
Fe0_0 Li0_0 2.528671 1_555
Fe0_0 Li0_4 2.584775 1_455
Fe0_0 Li0_2 2.584775 1_545
Fe0_0 Li0_7 2.584775 1_444
Fe0_0 Li0_1 2.584775 1_555
Fe0_1 P0_6 2.254623 1_445
Fe0_1 P0_0 2.254623 1_556
Fe0_1 P0_5 2.254623 1_455
Fe0_1 P0_3 2.254623 1_545
Fe0_1 Li0_1 2.528671 1_555
Fe0_1 Li0_3 2.584775 1_545
Fe0_1 Li0_6 2.584775 1_445
Fe0_1 Li0_0 2.584775 1_556
Fe0_1 Li0_5 2.584775 1_455
Fe0_2 P0_6 2.254623 1_455
Fe0_2 P0_5 2.254623 1_454
Fe0_2 P0_3 2.254623 1_555
Fe0_2 P0_0 2.254623 1_555
Fe0_2 Li0_2 2.528671 1_555
Fe0_2 Li0_6 2.584775 1_455
Fe0_2 Li0_3 2.584775 1_555
Fe0_2 Li0_0 2.584775 1_555
Fe0_2 Li0_5 2.584775 1_454
Fe0_3 P0_1 2.254623 1_555
Fe0_3 P0_4 2.254623 1_455
Fe0_3 P0_2 2.254623 1_556
Fe0_3 P0_7 2.254623 1_455
Fe0_3 Li0_3 2.528671 1_555
Fe0_3 Li0_4 2.584775 1_455
Fe0_3 Li0_7 2.584775 1_455
Fe0_3 Li0_2 2.584775 1_556
Fe0_3 Li0_1 2.584775 1_555
Fe0_4 P0_6 2.254623 1_545
Fe0_4 P0_5 2.254623 1_555
Fe0_4 P0_3 2.254623 1_544
Fe0_4 P0_0 2.254623 1_555
Fe0_4 Li0_4 2.528671 1_555
Fe0_4 Li0_5 2.584775 1_555
Fe0_4 Li0_6 2.584775 1_545
Fe0_4 Li0_0 2.584775 1_555
Fe0_4 Li0_3 2.584775 1_544
Fe0_5 P0_1 2.254623 1_555
Fe0_5 P0_4 2.254623 1_556
Fe0_5 P0_2 2.254623 1_545
Fe0_5 P0_7 2.254623 1_545
Fe0_5 Li0_5 2.528671 1_555
Fe0_5 Li0_2 2.584775 1_545
Fe0_5 Li0_7 2.584775 1_545
Fe0_5 Li0_4 2.584775 1_556
Fe0_5 Li0_1 2.584775 1_555
Fe0_6 P0_4 2.254623 1_555
Fe0_6 P0_7 2.254623 1_555
Fe0_6 P0_2 2.254623 1_555
Fe0_6 P0_1 2.254623 1_554
Fe0_6 Li0_6 2.528671 1_555
Fe0_6 Li0_7 2.584775 1_555
Fe0_6 Li0_4 2.584775 1_555
Fe0_6 Li0_2 2.584775 1_555
Fe0_6 Li0_1 2.584775 1_554
Fe0_7 P0_3 2.254623 1_555
Fe0_7 P0_0 2.254623 1_555
Fe0_7 P0_6 2.254623 1_556
Fe0_7 P0_5 2.254623 1_555
Fe0_7 Li0_7 2.528671 1_555
Fe0_7 Li0_0 2.584775 1_555
Fe0_7 Li0_3 2.584775 1_555
Fe0_7 Li0_5 2.584775 1_555
Fe0_7 Li0_6 2.584775 1_556
