# generated using pymatgen
data_Y9Er3Al20O48
_symmetry_space_group_name_H-M   'P 1'
_cell_length_a   10.50106368
_cell_length_b   10.50106368
_cell_length_c   12.12198348
_cell_angle_alpha   54.74414315
_cell_angle_beta   54.74414315
_cell_angle_gamma   70.52642792
_symmetry_Int_Tables_number   1
_chemical_formula_structural   Y9Er3Al20O48
_chemical_formula_sum   'Y9 Er3 Al20 O48'
_cell_volume   891.33395480
_cell_formula_units_Z   1
loop_
 _symmetry_equiv_pos_site_id
 _symmetry_equiv_pos_as_xyz
  1  'x, y, z'
loop_
 _atom_site_type_symbol
 _atom_site_label
 _atom_site_symmetry_multiplicity
 _atom_site_fract_x
 _atom_site_fract_y
 _atom_site_fract_z
 _atom_site_occupancy
  Y  Y0  1  0.62486600  0.37513400  0.00000000  1
  Y  Y1  1  0.62504200  0.12482600  0.87486200  1
  Y  Y2  1  0.87517400  0.37495800  0.12513800  1
  Y  Y3  1  0.75003100  0.74996300  0.37504300  1
  Y  Y4  1  0.25003700  0.24996900  0.62495700  1
  Y  Y5  1  0.12507300  0.87492700  0.00000000  1
  Y  Y6  1  0.37493000  0.62507000  0.50000000  1
  Y  Y7  1  0.37495500  0.87498300  0.62503500  1
  Y  Y8  1  0.12501700  0.62504500  0.37496500  1
  Er  Er0  1  0.24967700  0.24992100  0.12529000  1
  Er  Er1  1  0.75007900  0.75032300  0.87471000  1
  Er  Er2  1  0.87516200  0.12483800  0.50000000  1
  Al  Al0  1  0.24961600  0.24985600  0.37461800  1
  Al  Al1  1  0.75014400  0.75038400  0.62538200  1
  Al  Al2  1  0.62556500  0.37443500  0.50000000  1
  Al  Al3  1  0.87492900  0.12507100  0.00000000  1
  Al  Al4  1  0.37519600  0.87516500  0.12479000  1
  Al  Al5  1  0.12483500  0.62480400  0.87521000  1
  Al  Al6  1  0.75001200  0.75006400  0.12440800  1
  Al  Al7  1  0.24993600  0.24998800  0.87559200  1
  Al  Al8  1  0.37516300  0.62483700  0.00000000  1
  Al  Al9  1  0.12425400  0.87574600  0.50000000  1
  Al  Al10  1  0.62524800  0.12500300  0.37511800  1
  Al  Al11  1  0.87499700  0.37475200  0.62488200  1
  Al  Al12  1  0.00016200  0.00038200  0.25029800  1
  Al  Al13  1  0.49966100  0.49970800  0.75055100  1
  Al  Al14  1  0.99961800  0.99983800  0.74970200  1
  Al  Al15  1  0.50029200  0.50033900  0.24944900  1
  Al  Al16  1  0.00027500  0.49922800  0.25008900  1
  Al  Al17  1  0.50077200  0.99972500  0.74991100  1
  Al  Al18  1  0.49955800  0.00031600  0.24984500  1
  Al  Al19  1  0.99968400  0.50044200  0.75015500  1
  O  O0  1  0.09850800  0.29877300  0.33106200  1
  O  O1  1  0.40040600  0.20023300  0.22935100  1
  O  O2  1  0.70122700  0.90149200  0.66893800  1
  O  O3  1  0.79976700  0.59959400  0.77064900  1
  O  O4  1  0.62002700  0.17955700  0.65059400  1
  O  O5  1  0.82044300  0.37997300  0.34940600  1
  O  O6  1  0.68018700  0.11818200  0.05006100  1
  O  O7  1  0.88181800  0.31981300  0.94993900  1
  O  O8  1  0.41726300  0.02071400  0.13161600  1
  O  O9  1  0.52071300  0.91741000  0.93030600  1
  O  O10  1  0.08259000  0.47928700  0.06969400  1
  O  O11  1  0.97928600  0.58273700  0.86838400  1
  O  O12  1  0.90129200  0.69953300  0.16840800  1
  O  O13  1  0.59858700  0.80024600  0.26944400  1
  O  O14  1  0.30046700  0.09870800  0.83159200  1
  O  O15  1  0.19975400  0.40141300  0.73055600  1
  O  O16  1  0.38185000  0.81980400  0.84853300  1
  O  O17  1  0.18019600  0.61815000  0.15146700  1
  O  O18  1  0.31959100  0.88178600  0.44995700  1
  O  O19  1  0.11821400  0.68040900  0.55004300  1
  O  O20  1  0.58147700  0.98050800  0.36817800  1
  O  O21  1  0.48037600  0.08138100  0.57003700  1
  O  O22  1  0.91861900  0.51962400  0.42996300  1
  O  O23  1  0.01949200  0.41852300  0.63182200  1
  O  O24  1  0.91855700  0.98054200  0.15143100  1
  O  O25  1  0.01945800  0.08144300  0.84856900  1
  O  O26  1  0.58152200  0.51935900  0.55038700  1
  O  O27  1  0.48064100  0.41847800  0.44961300  1
  O  O28  1  0.59866000  0.69983800  0.63196900  1
  O  O29  1  0.90143200  0.80021600  0.43028100  1
  O  O30  1  0.19978400  0.09856800  0.56971900  1
  O  O31  1  0.30016200  0.40134000  0.36803100  1
  O  O32  1  0.11822100  0.81984700  0.83147300  1
  O  O33  1  0.31984800  0.61828100  0.73025900  1
  O  O34  1  0.18015300  0.88177900  0.16852700  1
  O  O35  1  0.38171900  0.68015200  0.26974100  1
  O  O36  1  0.08099600  0.02162300  0.34867900  1
  O  O37  1  0.97837700  0.91900400  0.65132100  1
  O  O38  1  0.41739200  0.47926200  0.95104500  1
  O  O39  1  0.52073800  0.58260800  0.04895500  1
  O  O40  1  0.40062400  0.29977900  0.87004600  1
  O  O41  1  0.09943800  0.20012200  0.07053700  1
  O  O42  1  0.79987800  0.90056200  0.92946300  1
  O  O43  1  0.70022100  0.59937600  0.12995400  1
  O  O44  1  0.88174600  0.18028200  0.66722900  1
  O  O45  1  0.68029600  0.38169100  0.76969900  1
  O  O46  1  0.81971800  0.11825400  0.33277100  1
  O  O47  1  0.61830900  0.31970400  0.23030100  1
loop_
_geom_bond_atom_site_label_1
_geom_bond_atom_site_label_2
_geom_bond_distance
_geom_bond_site_symmetry_2
Er0 O41 2.315743 1_555
Er0 O1 2.315869 1_555
Er0 O0 2.316899 1_555
Er0 O40 2.319731 1_554
Er0 O10 2.451025 1_555
Er0 O8 2.452484 1_555
Er0 O36 2.452974 1_555
Er0 O38 2.454399 1_554
Er1 O42 2.315743 1_555
Er1 O3 2.315869 1_555
Er1 O2 2.316899 1_555
Er1 O43 2.319731 1_556
Er1 O9 2.451025 1_555
Er1 O11 2.452484 1_555
Er1 O37 2.452974 1_555
Er1 O39 2.454399 1_556
Er2 O37 2.316775 1_545
Er2 O36 2.316775 1_655
Er2 O4 2.319248 1_555
Er2 O5 2.319248 1_555
Er2 O46 2.450362 1_555
Er2 O44 2.450362 1_555
Er2 O2 2.454346 1_545
Er2 O0 2.454346 1_655
Al0 O1 1.780418 1_555
Al0 O0 1.780783 1_555
Al0 O30 1.782972 1_555
Al0 O31 1.784929 1_555
Al1 O3 1.780418 1_555
Al1 O2 1.780783 1_555
Al1 O29 1.782972 1_555
Al1 O28 1.784929 1_555
Al2 O4 1.779808 1_555
Al2 O5 1.779808 1_555
Al2 O27 1.783455 1_555
Al2 O26 1.783455 1_555
Al3 O7 1.780673 1_554
Al3 O6 1.780673 1_555
Al3 O24 1.781547 1_545
Al3 O25 1.781547 1_654
Al4 O34 1.781830 1_555
Al4 O9 1.781979 1_554
Al4 O8 1.782253 1_565
Al4 O35 1.782449 1_555
Al5 O32 1.781830 1_555
Al5 O10 1.781979 1_556
Al5 O11 1.782253 1_455
Al5 O33 1.782449 1_555
Al6 O42 1.779854 1_554
Al6 O43 1.780474 1_555
Al6 O12 1.783006 1_555
Al6 O13 1.783430 1_555
Al7 O41 1.779854 1_556
Al7 O40 1.780474 1_555
Al7 O14 1.783006 1_555
Al7 O15 1.783430 1_555
Al8 O17 1.781875 1_555
Al8 O16 1.781875 1_554
Al8 O39 1.782475 1_555
Al8 O38 1.782475 1_554
Al9 O37 1.780930 1_455
Al9 O36 1.780930 1_565
Al9 O19 1.784776 1_555
Al9 O18 1.784776 1_555
Al10 O47 1.781019 1_555
Al10 O21 1.781128 1_555
Al10 O46 1.781619 1_555
Al10 O20 1.782617 1_545
Al11 O45 1.781019 1_555
Al11 O22 1.781128 1_555
Al11 O44 1.781619 1_555
Al11 O23 1.782617 1_655
Al12 O41 1.947672 1_555
Al12 O36 1.947952 1_555
Al12 O34 1.949088 1_545
Al12 O46 1.949331 1_455
Al12 O29 1.949491 1_445
Al12 O24 1.951154 1_445
Al13 O33 1.947131 1_555
Al13 O40 1.947659 1_555
Al13 O38 1.948468 1_555
Al13 O45 1.948501 1_555
Al13 O26 1.949659 1_555
Al13 O28 1.951320 1_555
Al14 O42 1.947672 1_555
Al14 O37 1.947952 1_555
Al14 O32 1.949088 1_655
Al14 O44 1.949331 1_565
Al14 O30 1.949491 1_665
Al14 O25 1.951154 1_665
Al15 O35 1.947131 1_555
Al15 O43 1.947659 1_555
Al15 O39 1.948468 1_555
Al15 O47 1.948501 1_555
Al15 O27 1.949659 1_555
Al15 O31 1.951320 1_555
Al16 O22 1.947729 1_455
Al16 O0 1.947916 1_555
Al16 O5 1.948179 1_455
Al16 O10 1.949016 1_555
Al16 O17 1.949469 1_555
Al16 O12 1.952226 1_455
Al17 O21 1.947729 1_565
Al17 O2 1.947916 1_555
Al17 O4 1.948179 1_565
Al17 O9 1.949016 1_555
Al17 O16 1.949469 1_555
Al17 O14 1.952226 1_565
Al18 O1 1.947353 1_555
Al18 O18 1.948171 1_545
Al18 O6 1.948463 1_555
Al18 O8 1.949019 1_555
Al18 O20 1.949782 1_545
Al18 O13 1.950416 1_545
Al19 O3 1.947353 1_555
Al19 O19 1.948171 1_655
Al19 O7 1.948463 1_555
Al19 O11 1.949019 1_555
Al19 O23 1.949782 1_655
Al19 O15 1.950416 1_655
O1 Y0 2.466720 1_555
O3 Y0 2.466720 1_556
O4 Y1 2.462731 1_555
O5 Y2 2.462731 1_555
O6 Y0 2.336220 1_555
O6 Y1 2.464213 1_554
O7 Y0 2.336220 1_556
O7 Y2 2.464213 1_556
O8 Y1 2.337780 1_554
O9 Y1 2.333885 1_565
O10 Y2 2.333885 1_455
O11 Y2 2.337780 1_556
O12 Y3 2.335579 1_555
O12 Y5 2.467555 1_655
O13 Y3 2.335911 1_555
O13 Y6 2.465450 1_555
O14 Y4 2.335579 1_555
O14 Y5 2.467555 1_546
O15 Y4 2.335911 1_555
O15 Y6 2.465450 1_555
O16 Y5 2.334040 1_556
O16 Y7 2.463158 1_555
O17 Y5 2.334040 1_555
O17 Y8 2.463158 1_555
O18 Y6 2.333995 1_555
O18 Y7 2.463524 1_555
O19 Y6 2.333995 1_555
O19 Y8 2.463524 1_555
O20 Y7 2.334406 1_555
O20 Y3 2.466027 1_555
O21 Y7 2.333920 1_545
O21 Y4 2.464651 1_555
O22 Y8 2.333920 1_655
O22 Y3 2.464651 1_555
O23 Y8 2.334406 1_555
O23 Y4 2.466027 1_555
O24 Y5 2.335289 1_655
O24 Y3 2.466612 1_555
O25 Y5 2.335289 1_546
O25 Y4 2.466612 1_555
O26 Y6 2.335186 1_555
O26 Y3 2.466968 1_555
O27 Y6 2.335186 1_555
O27 Y4 2.466968 1_555
O28 Y3 2.335298 1_555
O28 Y7 2.465155 1_555
O29 Y3 2.334705 1_555
O29 Y8 2.464288 1_655
O30 Y4 2.334705 1_555
O30 Y7 2.464288 1_545
O31 Y4 2.335298 1_555
O31 Y8 2.465155 1_555
O32 Y7 2.333503 1_555
O32 Y5 2.464678 1_556
O33 Y7 2.333844 1_555
O33 Y6 2.462589 1_555
O34 Y8 2.333503 1_555
O34 Y5 2.464678 1_555
O35 Y8 2.333844 1_555
O35 Y6 2.462589 1_555
O38 Y0 2.334444 1_556
O39 Y0 2.334444 1_555
O40 Y1 2.465901 1_555
O41 Y2 2.464852 1_455
O42 Y1 2.464852 1_565
O43 Y2 2.465901 1_555
O44 Y1 2.337188 1_555
O45 Y1 2.336109 1_555
O45 Y0 2.462926 1_556
O46 Y2 2.337188 1_555
O47 Y2 2.336109 1_555
O47 Y0 2.462926 1_555
