# generated using pymatgen
data_Ca2O3
_symmetry_space_group_name_H-M   'P 1'
_cell_length_a   9.47412000
_cell_length_b   9.48594773
_cell_length_c   9.48781643
_cell_angle_alpha   101.56888193
_cell_angle_beta   113.55062259
_cell_angle_gamma   113.42229205
_symmetry_Int_Tables_number   1
_chemical_formula_structural   Ca2O3
_chemical_formula_sum   'Ca16 O24'
_cell_volume   648.49610021
_cell_formula_units_Z   8
loop_
 _symmetry_equiv_pos_site_id
 _symmetry_equiv_pos_as_xyz
  1  'x, y, z'
loop_
 _atom_site_type_symbol
 _atom_site_label
 _atom_site_symmetry_multiplicity
 _atom_site_fract_x
 _atom_site_fract_y
 _atom_site_fract_z
 _atom_site_occupancy
  Ca  Ca0  1  0.21621200  0.46698200  0.24547300  1
  Ca  Ca1  1  0.97613800  0.75186900  0.22877000  1
  Ca  Ca2  1  0.78088100  0.53235900  0.74708300  1
  Ca  Ca3  1  0.25179500  0.23144900  0.48016500  1
  Ca  Ca4  1  0.71927900  0.96923700  0.25295100  1
  Ca  Ca5  1  0.74817600  0.76937300  0.51929700  1
  Ca  Ca6  1  0.25046200  0.73326100  0.98501600  1
  Ca  Ca7  1  0.74733500  0.26797800  0.01965900  1
  Ca  Ca8  1  0.28107200  0.02663400  0.74872600  1
  Ca  Ca9  1  0.52493000  0.24833700  0.27167700  1
  Ca  Ca10  1  0.47383600  0.75249400  0.72452100  1
  Ca  Ca11  1  0.02701000  0.25099500  0.77972900  1
  Ca  Ca12  1  0.99533600  0.49415800  0.49565200  1
  Ca  Ca13  1  0.99563200  0.99851200  0.99849300  1
  Ca  Ca14  1  0.50644000  0.50404800  0.00297000  1
  Ca  Ca15  1  0.50361900  0.00256600  0.50210900  1
  O  O0  1  0.26024800  0.24029100  0.23475500  1
  O  O1  1  0.97498000  0.00404500  0.24488200  1
  O  O2  1  0.52941800  0.02195000  0.76259300  1
  O  O3  1  0.46645800  0.72241800  0.47041500  1
  O  O4  1  0.02478900  0.76371200  0.00893100  1
  O  O5  1  0.75749300  0.51982900  0.48901100  1
  O  O6  1  0.74184200  0.73297500  0.26394000  1
  O  O7  1  0.75138200  0.50435400  0.97273800  1
  O  O8  1  0.97036600  0.23200000  0.99270800  1
  O  O9  1  0.76059200  0.22721600  0.25772800  1
  O  O10  1  0.50128400  0.74188500  0.97797900  1
  O  O11  1  0.77007700  0.03008200  0.52586300  1
  O  O12  1  0.52822200  0.27265500  0.52806100  1
  O  O13  1  0.23855900  0.97653400  0.47966900  1
  O  O14  1  0.02932000  0.00056000  0.75496300  1
  O  O15  1  0.26129700  0.26440600  0.74309000  1
  O  O16  1  0.26241500  0.50528600  0.02734300  1
  O  O17  1  0.23598100  0.76388400  0.74378900  1
  O  O18  1  0.48367100  0.25565300  0.01243700  1
  O  O19  1  0.99886300  0.47608800  0.73893400  1
  O  O20  1  0.24543500  0.48290500  0.50612600  1
  O  O21  1  0.00478200  0.52539100  0.26156000  1
  O  O22  1  0.73379100  0.75619200  0.76138600  1
  O  O23  1  0.47058400  0.97944300  0.23881000  1
loop_
_geom_bond_atom_site_label_1
_geom_bond_atom_site_label_2
_geom_bond_distance
_geom_bond_site_symmetry_2
Ca0 O3 2.315657 1_555
Ca0 O8 2.325853 1_454
Ca0 O21 2.331414 1_555
Ca0 O0 2.338367 1_555
Ca0 O20 2.342033 1_555
Ca0 O16 2.346463 1_555
Ca1 O6 2.317404 1_555
Ca1 O4 2.323077 1_655
Ca1 O13 2.326609 1_655
Ca1 O21 2.334521 1_655
Ca1 O7 2.356260 1_554
Ca1 O1 2.370928 1_565
Ca2 O7 2.319418 1_555
Ca2 O12 2.323929 1_555
Ca2 O22 2.326289 1_555
Ca2 O5 2.342508 1_555
Ca2 O4 2.349888 1_656
Ca2 O19 2.354429 1_555
Ca3 O12 2.319878 1_555
Ca3 O1 2.325302 1_455
Ca3 O13 2.370000 1_545
Ca3 O20 2.375799 1_555
Ca3 O0 2.378428 1_555
Ca3 O15 2.411256 1_555
Ca4 O9 2.307329 1_565
Ca4 O11 2.335236 1_565
Ca4 O1 2.346491 1_565
Ca4 O23 2.347943 1_555
Ca4 O6 2.352911 1_555
Ca4 O10 2.370513 1_554
Ca5 O3 2.349477 1_555
Ca5 O6 2.350426 1_555
Ca5 O14 2.352367 1_665
Ca5 O5 2.367990 1_555
Ca5 O22 2.379439 1_555
Ca5 O11 2.383892 1_565
Ca6 O16 2.314616 1_556
Ca6 O17 2.321391 1_555
Ca6 O23 2.336819 1_556
Ca6 O4 2.357662 1_556
Ca6 O10 2.373281 1_555
Ca6 O19 2.393636 1_455
Ca7 O9 2.330122 1_555
Ca7 O2 2.349508 1_554
Ca7 O7 2.360721 1_554
Ca7 O8 2.369982 1_554
Ca7 O21 2.392268 1_655
Ca7 O18 2.426131 1_555
Ca8 O18 2.308892 1_556
Ca8 O2 2.322351 1_555
Ca8 O14 2.324473 1_555
Ca8 O13 2.333295 1_545
Ca8 O17 2.342563 1_545
Ca8 O15 2.345532 1_555
Ca9 O23 2.318848 1_545
Ca9 O5 2.338221 1_555
Ca9 O18 2.351398 1_555
Ca9 O0 2.356243 1_555
Ca9 O9 2.371431 1_555
Ca9 O12 2.383264 1_555
Ca10 O2 2.312735 1_565
Ca10 O20 2.325509 1_555
Ca10 O22 2.329632 1_555
Ca10 O3 2.339309 1_555
Ca10 O10 2.340680 1_555
Ca10 O17 2.374459 1_555
Ca11 O8 2.310726 1_455
Ca11 O11 2.313677 1_455
Ca11 O15 2.339612 1_555
Ca11 O19 2.341317 1_455
Ca11 O14 2.349634 1_555
Ca11 O16 2.361137 1_556
Ca12 O21 2.330325 1_655
Ca12 O19 2.336657 1_555
Ca12 O5 2.338761 1_555
Ca12 O20 2.377566 1_655
Ca12 O9 2.381634 1_555
Ca12 O17 2.438058 1_655
Ca13 O8 2.329303 1_565
Ca13 O22 2.330544 1_555
Ca13 O0 2.333663 1_666
Ca13 O4 2.367009 1_656
Ca13 O1 2.414604 1_566
Ca13 O14 2.458323 1_665
Ca14 O18 2.302792 1_555
Ca14 O6 2.323930 1_555
Ca14 O10 2.332715 1_554
Ca14 O15 2.370561 1_554
Ca14 O16 2.417916 1_555
Ca14 O7 2.448349 1_554
Ca15 O13 2.339049 1_545
Ca15 O23 2.342558 1_545
Ca15 O11 2.343010 1_555
Ca15 O2 2.345371 1_555
Ca15 O12 2.430102 1_555
Ca15 O3 2.475395 1_545
O0 O8 2.745620 1_454
O0 O12 2.770529 1_555
O0 O1 2.795445 1_455
O1 O6 2.741096 1_545
O1 O13 2.751771 1_645
O2 O8 3.246235 1_555
O4 O7 2.600827 1_454
O5 O6 3.222915 1_555
O10 O17 2.727333 1_555
O10 O16 2.758382 1_556
O10 O6 2.804690 1_556
O11 O14 2.712995 1_655
O11 O23 2.813456 1_545
O11 O3 2.927355 1_545
O12 O5 2.701030 1_555
O12 O13 2.824842 1_545
O13 O2 2.768753 1_565
O14 O15 2.654227 1_555
O14 O22 2.872212 1_445
O15 O18 2.626387 1_556
O16 O19 2.735926 1_454
O16 O8 2.777303 1_454
O17 O19 2.737322 1_455
O17 O2 2.787691 1_565
O18 O9 2.882247 1_555
O18 O7 2.916037 1_554
O19 O5 2.799993 1_555
O20 O3 2.599048 1_555
O20 O21 2.760954 1_555
O21 O7 2.730418 1_454
O21 O9 2.836033 1_455
O22 O3 2.747986 1_555
O22 O4 2.779230 1_656
O23 O9 2.721811 1_565
