# generated using pymatgen
data_K2Th(AsO4)2
_symmetry_space_group_name_H-M   'P 1'
_cell_length_a   11.57747800
_cell_length_b   7.91285300
_cell_length_c   10.09522154
_cell_angle_alpha   63.48198631
_cell_angle_beta   90.00000000
_cell_angle_gamma   90.00000000
_symmetry_Int_Tables_number   1
_chemical_formula_structural   K2Th(AsO4)2
_chemical_formula_sum   'K8 Th4 As8 O32'
_cell_volume   827.53428478
_cell_formula_units_Z   4
loop_
 _symmetry_equiv_pos_site_id
 _symmetry_equiv_pos_as_xyz
  1  'x, y, z'
loop_
 _atom_site_type_symbol
 _atom_site_label
 _atom_site_symmetry_multiplicity
 _atom_site_fract_x
 _atom_site_fract_y
 _atom_site_fract_z
 _atom_site_occupancy
  K  K0  1  0.62573800  0.14589700  0.95626900  1
  K  K1  1  0.87426200  0.14589700  0.45626900  1
  K  K2  1  0.37426200  0.85410300  0.04373100  1
  K  K3  1  0.12573800  0.85410300  0.54373100  1
  K  K4  1  0.88025500  0.33621000  0.04832900  1
  K  K5  1  0.61974500  0.33621000  0.54832900  1
  K  K6  1  0.11974500  0.66379000  0.95167100  1
  K  K7  1  0.38025500  0.66379000  0.45167100  1
  Th  Th0  1  0.63682800  0.74410200  0.78136700  1
  Th  Th1  1  0.86317200  0.74410200  0.28136700  1
  Th  Th2  1  0.36317200  0.25589800  0.21863300  1
  Th  Th3  1  0.13682800  0.25589800  0.71863300  1
  As  As0  1  0.86138500  0.93572500  0.85466800  1
  As  As1  1  0.63861500  0.93572500  0.35466800  1
  As  As2  1  0.13861500  0.06427500  0.14533200  1
  As  As3  1  0.36138500  0.06427500  0.64533200  1
  As  As4  1  0.63185500  0.53430500  0.14108600  1
  As  As5  1  0.86814500  0.53430500  0.64108600  1
  As  As6  1  0.36814500  0.46569500  0.85891400  1
  As  As7  1  0.13185500  0.46569500  0.35891400  1
  O  O0  1  0.76117300  0.50480400  0.23345300  1
  O  O1  1  0.73882700  0.50480400  0.73345300  1
  O  O2  1  0.23882700  0.49519600  0.76654700  1
  O  O3  1  0.26117300  0.49519600  0.26654700  1
  O  O4  1  0.85893300  0.94736200  0.02091900  1
  O  O5  1  0.64106700  0.94736200  0.52091900  1
  O  O6  1  0.14106700  0.05263800  0.97908100  1
  O  O7  1  0.35893300  0.05263800  0.47908100  1
  O  O8  1  0.84254800  0.70791900  0.87820900  1
  O  O9  1  0.65745200  0.70791900  0.37820900  1
  O  O10  1  0.15745200  0.29208100  0.12179100  1
  O  O11  1  0.34254800  0.29208100  0.62179100  1
  O  O12  1  0.73932900  0.03943400  0.75109400  1
  O  O13  1  0.76067100  0.03943400  0.25109400  1
  O  O14  1  0.26067100  0.96056600  0.24890600  1
  O  O15  1  0.23932900  0.96056600  0.74890600  1
  O  O16  1  0.60541000  0.76847500  0.02198900  1
  O  O17  1  0.89459000  0.76847500  0.52198900  1
  O  O18  1  0.39459000  0.23152500  0.97801100  1
  O  O19  1  0.10541000  0.23152500  0.47801100  1
  O  O20  1  0.63920400  0.44555400  0.01255800  1
  O  O21  1  0.86079600  0.44555400  0.51255800  1
  O  O22  1  0.36079600  0.55444600  0.98744200  1
  O  O23  1  0.13920400  0.55444600  0.48744200  1
  O  O24  1  0.98584300  0.02893600  0.75598700  1
  O  O25  1  0.51415700  0.02893600  0.25598700  1
  O  O26  1  0.01415700  0.97106400  0.24401300  1
  O  O27  1  0.48584300  0.97106400  0.74401300  1
  O  O28  1  0.51996000  0.42568900  0.26366800  1
  O  O29  1  0.98004000  0.42568900  0.76366800  1
  O  O30  1  0.48004000  0.57431100  0.73633200  1
  O  O31  1  0.01996000  0.57431100  0.23633200  1
loop_
_geom_bond_atom_site_label_1
_geom_bond_atom_site_label_2
_geom_bond_distance
_geom_bond_site_symmetry_2
K0 O20 2.678190 1_556
K0 O16 2.765021 1_546
K0 O18 2.793141 1_555
K0 O12 2.878806 1_555
K0 O1 3.022420 1_555
K0 O25 3.029818 1_556
K0 O4 3.044232 1_546
K0 O13 3.125645 1_556
K0 O27 3.431560 1_545
K1 O21 2.678190 1_555
K1 O17 2.765021 1_545
K1 O19 2.793141 1_655
K1 O13 2.878806 1_555
K1 O0 3.022420 1_555
K1 O24 3.029818 1_555
K1 O5 3.044232 1_545
K1 O12 3.125645 1_555
K1 O26 3.431560 1_645
K2 O22 2.678190 1_554
K2 O18 2.765021 1_564
K2 O16 2.793141 1_555
K2 O14 2.878806 1_555
K2 O3 3.022420 1_555
K2 O27 3.029818 1_554
K2 O6 3.044232 1_564
K2 O15 3.125645 1_554
K2 O25 3.431560 1_565
K3 O23 2.678190 1_555
K3 O19 2.765021 1_565
K3 O17 2.793141 1_455
K3 O15 2.878806 1_555
K3 O2 3.022420 1_555
K3 O26 3.029818 1_555
K3 O7 3.044232 1_565
K3 O14 3.125645 1_555
K3 O24 3.431560 1_465
K4 O8 2.698243 1_554
K4 O13 2.707237 1_555
K4 O29 2.877027 1_554
K4 O20 2.896268 1_555
K4 O0 3.065847 1_555
K4 O26 3.091478 1_645
K4 O4 3.219483 1_545
K4 O10 3.277181 1_655
K4 O1 3.283051 1_554
K4 O31 3.600133 1_655
K5 O9 2.698243 1_555
K5 O12 2.707237 1_555
K5 O28 2.877027 1_555
K5 O21 2.896268 1_555
K5 O1 3.065847 1_555
K5 O27 3.091478 1_545
K5 O5 3.219483 1_545
K5 O11 3.277181 1_555
K5 O0 3.283051 1_555
K5 O30 3.600133 1_555
K6 O10 2.698243 1_556
K6 O15 2.707237 1_555
K6 O31 2.877027 1_556
K6 O22 2.896268 1_555
K6 O2 3.065847 1_555
K6 O24 3.091478 1_465
K6 O6 3.219483 1_565
K6 O8 3.277181 1_455
K6 O3 3.283051 1_556
K6 O29 3.600133 1_455
K7 O11 2.698243 1_555
K7 O14 2.707237 1_555
K7 O30 2.877027 1_555
K7 O23 2.896268 1_555
K7 O3 3.065847 1_555
K7 O25 3.091478 1_565
K7 O7 3.219483 1_565
K7 O9 3.277181 1_555
K7 O2 3.283051 1_555
K7 O28 3.600133 1_555
As0 O24 1.719458 1_565
As0 O4 1.721660 1_556
As0 O8 1.723617 1_555
As0 O12 1.731291 1_565
As1 O25 1.719458 1_565
As1 O5 1.721660 1_555
As1 O9 1.723617 1_555
As1 O13 1.731291 1_565
As2 O26 1.719458 1_545
As2 O6 1.721660 1_554
As2 O10 1.723617 1_555
As2 O14 1.731291 1_545
As3 O27 1.719458 1_545
As3 O7 1.721660 1_555
As3 O11 1.723617 1_555
As3 O15 1.731291 1_545
As4 O0 1.723702 1_555
As4 O16 1.727243 1_555
As4 O20 1.731374 1_555
As4 O28 1.731633 1_555
As5 O1 1.723702 1_555
As5 O17 1.727243 1_555
As5 O21 1.731374 1_555
As5 O29 1.731633 1_555
As6 O2 1.723702 1_555
As6 O18 1.727243 1_555
As6 O22 1.731374 1_555
As6 O30 1.731633 1_555
As7 O3 1.723702 1_555
As7 O19 1.727243 1_555
As7 O23 1.731374 1_555
As7 O31 1.731633 1_555
O0 Th1 2.455971 1_555
O1 Th0 2.455971 1_555
O2 Th3 2.455971 1_555
O3 Th2 2.455971 1_555
O4 Th1 2.392944 1_555
O5 Th0 2.392944 1_555
O6 Th3 2.392944 1_555
O7 Th2 2.392944 1_555
O8 Th0 2.541730 1_555
O9 Th1 2.541730 1_555
O10 Th2 2.541730 1_555
O11 Th3 2.541730 1_555
O12 Th0 2.514977 1_545
O13 Th1 2.514977 1_545
O14 Th2 2.514977 1_565
O15 Th3 2.514977 1_565
O16 Th0 2.547258 1_554
O17 Th1 2.547258 1_555
O18 Th2 2.547258 1_556
O19 Th3 2.547258 1_555
O20 Th0 2.470897 1_554
O21 Th1 2.470897 1_555
O22 Th2 2.470897 1_556
O23 Th3 2.470897 1_555
O24 Th3 2.412130 1_655
O25 Th2 2.412130 1_555
O26 Th1 2.412130 1_455
O27 Th0 2.412130 1_555
O28 Th2 2.419131 1_555
O29 Th3 2.419131 1_655
O30 Th0 2.419131 1_555
O31 Th1 2.419131 1_455
