# generated using pymatgen
data_CsSnN
_symmetry_space_group_name_H-M   'P 1'
_cell_length_a   7.18340000
_cell_length_b   7.18340097
_cell_length_c   26.70710400
_cell_angle_alpha   90.00000000
_cell_angle_beta   90.00000000
_cell_angle_gamma   119.99999556
_symmetry_Int_Tables_number   1
_chemical_formula_structural   CsSnN
_chemical_formula_sum   'Cs16 Sn16 N16'
_cell_volume   1193.48676623
_cell_formula_units_Z   16
loop_
 _symmetry_equiv_pos_site_id
 _symmetry_equiv_pos_as_xyz
  1  'x, y, z'
loop_
 _atom_site_type_symbol
 _atom_site_label
 _atom_site_symmetry_multiplicity
 _atom_site_fract_x
 _atom_site_fract_y
 _atom_site_fract_z
 _atom_site_occupancy
  Cs  Cs0_0  1  0.33333450  0.16666900  0.37527600  1
  Cs  Cs0_1  1  0.33333450  0.16666900  0.87527600  1
  Cs  Cs0_2  1  0.33333450  0.66666900  0.37527600  1
  Cs  Cs0_3  1  0.33333450  0.66666900  0.87527600  1
  Cs  Cs0_4  1  0.83333450  0.16666900  0.37527600  1
  Cs  Cs0_5  1  0.83333450  0.16666900  0.87527600  1
  Cs  Cs0_6  1  0.83333450  0.66666900  0.37527600  1
  Cs  Cs0_7  1  0.83333450  0.66666900  0.87527600  1
  Cs  Cs1_0  1  0.16666550  0.33333100  0.12527600  1
  Cs  Cs1_1  1  0.16666550  0.33333100  0.62527600  1
  Cs  Cs1_2  1  0.16666550  0.83333100  0.12527600  1
  Cs  Cs1_3  1  0.16666550  0.83333100  0.62527600  1
  Cs  Cs1_4  1  0.66666550  0.33333100  0.12527600  1
  Cs  Cs1_5  1  0.66666550  0.33333100  0.62527600  1
  Cs  Cs1_6  1  0.66666550  0.83333100  0.12527600  1
  Cs  Cs1_7  1  0.66666550  0.83333100  0.62527600  1
  Sn  Sn0_0  1  0.49999850  0.49999700  0.25436250  1
  Sn  Sn0_1  1  0.49999850  0.49999700  0.75436250  1
  Sn  Sn0_2  1  0.49999850  0.99999700  0.25436250  1
  Sn  Sn0_3  1  0.49999850  0.99999700  0.75436250  1
  Sn  Sn0_4  1  0.99999850  0.49999700  0.25436250  1
  Sn  Sn0_5  1  0.99999850  0.49999700  0.75436250  1
  Sn  Sn0_6  1  0.99999850  0.99999700  0.25436250  1
  Sn  Sn0_7  1  0.99999850  0.99999700  0.75436250  1
  Sn  Sn1_0  1  0.00000150  0.00000300  0.00436250  1
  Sn  Sn1_1  1  0.00000150  0.00000300  0.50436250  1
  Sn  Sn1_2  1  0.00000150  0.50000300  0.00436250  1
  Sn  Sn1_3  1  0.00000150  0.50000300  0.50436250  1
  Sn  Sn1_4  1  0.50000150  0.00000300  0.00436250  1
  Sn  Sn1_5  1  0.50000150  0.00000300  0.50436250  1
  Sn  Sn1_6  1  0.50000150  0.50000300  0.00436250  1
  Sn  Sn1_7  1  0.50000150  0.50000300  0.50436250  1
  N  N0_0  1  0.16666550  0.33333100  0.29268100  1
  N  N0_1  1  0.16666550  0.33333100  0.79268100  1
  N  N0_2  1  0.16666550  0.83333100  0.29268100  1
  N  N0_3  1  0.16666550  0.83333100  0.79268100  1
  N  N0_4  1  0.66666550  0.33333100  0.29268100  1
  N  N0_5  1  0.66666550  0.33333100  0.79268100  1
  N  N0_6  1  0.66666550  0.83333100  0.29268100  1
  N  N0_7  1  0.66666550  0.83333100  0.79268100  1
  N  N1_0  1  0.33333450  0.16666900  0.04268100  1
  N  N1_1  1  0.33333450  0.16666900  0.54268100  1
  N  N1_2  1  0.33333450  0.66666900  0.04268100  1
  N  N1_3  1  0.33333450  0.66666900  0.54268100  1
  N  N1_4  1  0.83333450  0.16666900  0.04268100  1
  N  N1_5  1  0.83333450  0.16666900  0.54268100  1
  N  N1_6  1  0.83333450  0.66666900  0.04268100  1
  N  N1_7  1  0.83333450  0.66666900  0.54268100  1
loop_
_geom_bond_atom_site_label_1
_geom_bond_atom_site_label_2
_geom_bond_distance
_geom_bond_site_symmetry_2
Cs0_0 N0_4 3.027527 1_555
Cs0_0 N0_0 3.027527 1_555
Cs0_0 N0_2 3.027557 1_545
Cs0_0 Cs0_4 3.591700 1_555
Cs0_0 Cs0_4 3.591700 1_455
Cs0_0 Cs0_6 3.591700 1_555
Cs0_0 Cs0_6 3.591700 1_445
Cs0_0 Cs0_2 3.591700 1_545
Cs0_0 Cs0_2 3.591700 1_555
Cs0_0 Sn1_5 4.023125 1_555
Cs0_0 Sn1_1 4.023125 1_555
Cs0_0 Sn1_7 4.023128 1_555
Cs0_1 N0_5 3.027527 1_555
Cs0_1 N0_1 3.027527 1_555
Cs0_1 N0_3 3.027557 1_545
Cs0_1 Cs0_5 3.591700 1_555
Cs0_1 Cs0_5 3.591700 1_455
Cs0_1 Cs0_7 3.591700 1_555
Cs0_1 Cs0_7 3.591700 1_445
Cs0_1 Cs0_3 3.591700 1_545
Cs0_1 Cs0_3 3.591700 1_555
Cs0_1 Sn1_4 4.023125 1_556
Cs0_1 Sn1_0 4.023125 1_556
Cs0_1 Sn1_6 4.023128 1_556
Cs0_2 N0_6 3.027527 1_555
Cs0_2 N0_2 3.027527 1_555
Cs0_2 N0_0 3.027557 1_555
Cs0_2 Cs0_6 3.591700 1_555
Cs0_2 Cs0_6 3.591700 1_455
Cs0_2 Cs0_4 3.591700 1_455
Cs0_2 Cs0_4 3.591700 1_565
Cs0_2 Sn1_7 4.023125 1_555
Cs0_2 Sn1_3 4.023125 1_555
Cs0_2 Sn1_5 4.023128 1_565
Cs0_3 N0_7 3.027527 1_555
Cs0_3 N0_3 3.027527 1_555
Cs0_3 N0_1 3.027557 1_555
Cs0_3 Cs0_7 3.591700 1_555
Cs0_3 Cs0_7 3.591700 1_455
Cs0_3 Cs0_5 3.591700 1_455
Cs0_3 Cs0_5 3.591700 1_565
Cs0_3 Sn1_6 4.023125 1_556
Cs0_3 Sn1_2 4.023125 1_556
Cs0_3 Sn1_4 4.023128 1_566
Cs0_4 N0_0 3.027527 1_655
Cs0_4 N0_4 3.027527 1_555
Cs0_4 N0_6 3.027557 1_545
Cs0_4 Cs0_6 3.591700 1_545
Cs0_4 Cs0_6 3.591700 1_555
Cs0_4 Sn1_1 4.023125 1_655
Cs0_4 Sn1_5 4.023125 1_555
Cs0_4 Sn1_3 4.023128 1_655
Cs0_5 N0_1 3.027527 1_655
Cs0_5 N0_5 3.027527 1_555
Cs0_5 N0_7 3.027557 1_545
Cs0_5 Cs0_7 3.591700 1_555
Cs0_5 Cs0_7 3.591700 1_545
Cs0_5 Sn1_4 4.023125 1_556
Cs0_5 Sn1_0 4.023125 1_656
Cs0_5 Sn1_2 4.023128 1_656
Cs0_6 N0_2 3.027527 1_655
Cs0_6 N0_6 3.027527 1_555
Cs0_6 N0_4 3.027557 1_555
Cs0_6 Sn1_3 4.023125 1_655
Cs0_6 Sn1_7 4.023125 1_555
Cs0_6 Sn1_1 4.023128 1_665
Cs0_7 N0_3 3.027527 1_655
Cs0_7 N0_7 3.027527 1_555
Cs0_7 N0_5 3.027557 1_555
Cs0_7 Sn1_2 4.023125 1_656
Cs0_7 Sn1_6 4.023125 1_556
Cs0_7 Sn1_0 4.023128 1_666
Cs1_0 N1_4 3.027527 1_455
Cs1_0 N1_0 3.027527 1_555
Cs1_0 N1_2 3.027557 1_555
Cs1_0 Cs1_4 3.591700 1_555
Cs1_0 Cs1_4 3.591700 1_455
Cs1_0 Cs1_2 3.591700 1_545
Cs1_0 Cs1_6 3.591700 1_445
Cs1_0 Cs1_6 3.591700 1_555
Cs1_0 Cs1_2 3.591700 1_555
Cs1_0 Sn0_0 4.023125 1_555
Cs1_0 Sn0_4 4.023125 1_455
Cs1_0 Sn0_6 4.023128 1_445
Cs1_1 N1_5 3.027527 1_455
Cs1_1 N1_1 3.027527 1_555
Cs1_1 N1_3 3.027557 1_555
Cs1_1 Cs1_5 3.591700 1_555
Cs1_1 Cs1_5 3.591700 1_455
Cs1_1 Cs1_7 3.591700 1_445
Cs1_1 Cs1_7 3.591700 1_555
Cs1_1 Cs1_3 3.591700 1_545
Cs1_1 Cs1_3 3.591700 1_555
Cs1_1 Sn0_1 4.023125 1_555
Cs1_1 Sn0_5 4.023125 1_455
Cs1_1 Sn0_7 4.023128 1_445
Cs1_2 N1_6 3.027527 1_455
Cs1_2 N1_2 3.027527 1_555
Cs1_2 N1_0 3.027557 1_565
Cs1_2 Cs1_6 3.591700 1_455
Cs1_2 Cs1_6 3.591700 1_555
Cs1_2 Cs1_4 3.591700 1_565
Cs1_2 Cs1_4 3.591700 1_455
Cs1_2 Sn0_2 4.023125 1_555
Cs1_2 Sn0_6 4.023125 1_455
Cs1_2 Sn0_4 4.023128 1_455
Cs1_3 N1_7 3.027527 1_455
Cs1_3 N1_3 3.027527 1_555
Cs1_3 N1_1 3.027557 1_565
Cs1_3 Cs1_7 3.591700 1_555
Cs1_3 Cs1_7 3.591700 1_455
Cs1_3 Cs1_5 3.591700 1_565
Cs1_3 Cs1_5 3.591700 1_455
Cs1_3 Sn0_3 4.023125 1_555
Cs1_3 Sn0_7 4.023125 1_455
Cs1_3 Sn0_5 4.023128 1_455
Cs1_4 N1_0 3.027527 1_555
Cs1_4 N1_4 3.027527 1_555
Cs1_4 N1_6 3.027557 1_555
Cs1_4 Cs1_6 3.591700 1_545
Cs1_4 Cs1_6 3.591700 1_555
Cs1_4 Sn0_4 4.023125 1_555
Cs1_4 Sn0_0 4.023125 1_555
Cs1_4 Sn0_2 4.023128 1_545
Cs1_5 N1_1 3.027527 1_555
Cs1_5 N1_5 3.027527 1_555
Cs1_5 N1_7 3.027557 1_555
Cs1_5 Cs1_7 3.591700 1_545
Cs1_5 Cs1_7 3.591700 1_555
Cs1_5 Sn0_5 4.023125 1_555
Cs1_5 Sn0_1 4.023125 1_555
Cs1_5 Sn0_3 4.023128 1_545
Cs1_6 N1_2 3.027527 1_555
Cs1_6 N1_6 3.027527 1_555
Cs1_6 N1_4 3.027557 1_565
Cs1_6 Sn0_6 4.023125 1_555
Cs1_6 Sn0_2 4.023125 1_555
Cs1_6 Sn0_0 4.023128 1_555
Cs1_7 N1_3 3.027527 1_555
Cs1_7 N1_7 3.027527 1_555
Cs1_7 N1_5 3.027557 1_565
Cs1_7 Sn0_7 4.023125 1_555
Cs1_7 Sn0_3 4.023125 1_555
Cs1_7 Sn0_1 4.023128 1_555
N0_0 Sn0_0 2.312443 1_555
N0_0 Sn0_4 2.312443 1_455
N0_0 Sn0_6 2.312449 1_445
N0_1 Sn0_1 2.312443 1_555
N0_1 Sn0_5 2.312443 1_455
N0_1 Sn0_7 2.312449 1_445
N0_2 Sn0_2 2.312443 1_555
N0_2 Sn0_6 2.312443 1_455
N0_2 Sn0_4 2.312449 1_455
N0_3 Sn0_3 2.312443 1_555
N0_3 Sn0_7 2.312443 1_455
N0_3 Sn0_5 2.312449 1_455
N0_4 Sn0_4 2.312443 1_555
N0_4 Sn0_0 2.312443 1_555
N0_4 Sn0_2 2.312449 1_545
N0_5 Sn0_5 2.312443 1_555
N0_5 Sn0_1 2.312443 1_555
N0_5 Sn0_3 2.312449 1_545
N0_6 Sn0_6 2.312443 1_555
N0_6 Sn0_2 2.312443 1_555
N0_6 Sn0_0 2.312449 1_555
N0_7 Sn0_7 2.312443 1_555
N0_7 Sn0_3 2.312443 1_555
N0_7 Sn0_1 2.312449 1_555
N1_0 Sn1_4 2.312443 1_555
N1_0 Sn1_0 2.312443 1_555
N1_0 Sn1_6 2.312449 1_555
N1_1 Sn1_5 2.312443 1_555
N1_1 Sn1_1 2.312443 1_555
N1_1 Sn1_7 2.312449 1_555
N1_2 Sn1_6 2.312443 1_555
N1_2 Sn1_2 2.312443 1_555
N1_2 Sn1_4 2.312449 1_565
N1_3 Sn1_7 2.312443 1_555
N1_3 Sn1_3 2.312443 1_555
N1_3 Sn1_5 2.312449 1_565
N1_4 Sn1_0 2.312443 1_655
N1_4 Sn1_4 2.312443 1_555
N1_4 Sn1_2 2.312449 1_655
N1_5 Sn1_1 2.312443 1_655
N1_5 Sn1_5 2.312443 1_555
N1_5 Sn1_3 2.312449 1_655
N1_6 Sn1_2 2.312443 1_655
N1_6 Sn1_6 2.312443 1_555
N1_6 Sn1_0 2.312449 1_665
N1_7 Sn1_3 2.312443 1_655
N1_7 Sn1_7 2.312443 1_555
N1_7 Sn1_1 2.312449 1_665
