# generated using pymatgen
data_ZnCuNiP2O9
_symmetry_space_group_name_H-M   'P 1'
_cell_length_a   6.21301503
_cell_length_b   7.15267219
_cell_length_c   14.23760126
_cell_angle_alpha   90.02293101
_cell_angle_beta   89.99280434
_cell_angle_gamma   90.00844591
_symmetry_Int_Tables_number   1
_chemical_formula_structural   ZnCuNiP2O9
_chemical_formula_sum   'Zn4 Cu4 Ni4 P8 O36'
_cell_volume   632.71409422
_cell_formula_units_Z   4
loop_
 _symmetry_equiv_pos_site_id
 _symmetry_equiv_pos_as_xyz
  1  'x, y, z'
loop_
 _atom_site_type_symbol
 _atom_site_label
 _atom_site_symmetry_multiplicity
 _atom_site_fract_x
 _atom_site_fract_y
 _atom_site_fract_z
 _atom_site_occupancy
  Zn  Zn0  1  0.75001500  0.88356100  0.77792700  1
  Zn  Zn1  1  0.74999300  0.61599800  0.27681500  1
  Zn  Zn2  1  0.24995900  0.11655200  0.22208200  1
  Zn  Zn3  1  0.25000400  0.38315400  0.72288900  1
  Cu  Cu0  1  0.75008600  0.35482300  0.87898900  1
  Cu  Cu1  1  0.24994600  0.64555900  0.12116400  1
  Cu  Cu2  1  0.25016100  0.85544500  0.62168500  1
  Cu  Cu3  1  0.74982800  0.14477000  0.37836600  1
  Ni  Ni0  1  0.50000300  0.00020900  0.00028000  1
  Ni  Ni1  1  0.49999400  0.49993700  0.50007600  1
  Ni  Ni2  1  0.00005600  0.49993900  0.50010500  1
  Ni  Ni3  1  0.99996100  0.00016900  0.00029200  1
  P  P0  1  0.25004700  0.36379000  0.93060800  1
  P  P1  1  0.74997300  0.63630100  0.06959000  1
  P  P2  1  0.75005600  0.86434900  0.56970100  1
  P  P3  1  0.24993700  0.13563600  0.43020300  1
  P  P4  1  0.75002700  0.38590400  0.69808600  1
  P  P5  1  0.24995700  0.61409300  0.30189800  1
  P  P6  1  0.24997100  0.88518300  0.80220100  1
  P  P7  1  0.74999900  0.11511200  0.19786900  1
  O  O0  1  0.03790100  0.60782000  0.35990500  1
  O  O1  1  0.53773800  0.39182500  0.63996800  1
  O  O2  1  0.96219900  0.10816800  0.14004600  1
  O  O3  1  0.46211300  0.89207600  0.86003400  1
  O  O4  1  0.96231300  0.39188900  0.63993600  1
  O  O5  1  0.46203900  0.60786000  0.35986100  1
  O  O6  1  0.03782300  0.89199900  0.86004900  1
  O  O7  1  0.53780400  0.10814300  0.14006100  1
  O  O8  1  0.25008400  0.32807500  0.48035800  1
  O  O9  1  0.74994900  0.67164900  0.51967600  1
  O  O10  1  0.74996700  0.82857000  0.01994600  1
  O  O11  1  0.24994200  0.17163700  0.98045300  1
  O  O12  1  0.75005300  0.13410900  0.94839000  1
  O  O13  1  0.24996300  0.86428500  0.05118100  1
  O  O14  1  0.25027600  0.63740500  0.54905600  1
  O  O15  1  0.74975800  0.36238600  0.45101100  1
  O  O16  1  0.75009500  0.20404200  0.75939000  1
  O  O17  1  0.24991600  0.79574200  0.24010400  1
  O  O18  1  0.25000800  0.70279300  0.74079200  1
  O  O19  1  0.74997500  0.29756300  0.25923300  1
  O  O20  1  0.43563300  0.12820000  0.35657800  1
  O  O21  1  0.93599900  0.87167900  0.64319300  1
  O  O22  1  0.56431200  0.62850800  0.14309500  1
  O  O23  1  0.06436800  0.37177700  0.85707600  1
  O  O24  1  0.56426900  0.87183400  0.64330000  1
  O  O25  1  0.06409500  0.12836600  0.35667800  1
  O  O26  1  0.43585900  0.37162200  0.85713300  1
  O  O27  1  0.93553100  0.62854400  0.14314000  1
  O  O28  1  0.75005500  0.95431200  0.27348000  1
  O  O29  1  0.24991500  0.04617100  0.72661300  1
  O  O30  1  0.24994400  0.45364600  0.22590600  1
  O  O31  1  0.75000500  0.54713900  0.77345100  1
  O  O32  1  0.74993600  0.02139100  0.50024700  1
  O  O33  1  0.24999800  0.97818700  0.49954900  1
  O  O34  1  0.25006000  0.52185100  0.00002200  1
  O  O35  1  0.75013100  0.47825300  0.00026200  1
loop_
_geom_bond_atom_site_label_1
_geom_bond_atom_site_label_2
_geom_bond_distance
_geom_bond_site_symmetry_2
Cu0 O12 1.862760 1_555
Cu0 O35 1.938939 1_556
Cu0 O26 1.980653 1_555
Cu0 O23 1.981072 1_655
Cu0 O16 2.015242 1_555
Cu0 O31 2.037569 1_555
Cu1 O13 1.855161 1_555
Cu1 O34 1.938185 1_555
Cu1 O22 1.981782 1_555
Cu1 O27 1.982055 1_455
Cu1 O17 2.005029 1_555
Cu1 O30 2.027269 1_555
Cu2 O14 1.870895 1_555
Cu2 O33 1.948293 1_555
Cu2 O21 1.979149 1_455
Cu2 O24 1.979162 1_555
Cu2 O18 2.017274 1_555
Cu2 O29 2.022677 1_565
Cu3 O15 1.868495 1_555
Cu3 O32 1.947115 1_555
Cu3 O20 1.980156 1_555
Cu3 O25 1.980262 1_655
Cu3 O19 2.018131 1_555
Cu3 O28 2.020943 1_545
Ni0 O12 1.968878 1_554
Ni0 O13 1.970690 1_545
Ni0 O11 1.999475 1_554
Ni0 O10 1.999610 1_545
Ni0 O7 2.147250 1_555
Ni0 O3 2.153957 1_544
Ni1 O14 1.964663 1_555
Ni1 O15 1.965615 1_555
Ni1 O9 1.999337 1_555
Ni1 O8 2.000014 1_555
Ni1 O1 2.149732 1_555
Ni1 O5 2.153652 1_555
Ni2 O14 1.966883 1_555
Ni2 O15 1.968299 1_455
Ni2 O9 2.000231 1_455
Ni2 O8 2.000876 1_555
Ni2 O4 2.148687 1_455
Ni2 O0 2.153192 1_555
Ni3 O12 1.968755 1_554
Ni3 O13 1.970669 1_645
Ni3 O11 1.998952 1_654
Ni3 O10 1.999219 1_545
Ni3 O2 2.147005 1_555
Ni3 O6 2.153964 1_644
O0 P5 1.555524 1_555
O0 Zn1 2.145520 1_455
O1 P4 1.557705 1_555
O1 Zn3 2.143130 1_555
O2 P7 1.555031 1_555
O2 Zn2 2.136511 1_655
O3 P6 1.554953 1_555
O3 Zn0 2.137598 1_555
O4 P4 1.557757 1_555
O4 Zn3 2.143434 1_655
O5 P5 1.555507 1_555
O5 Zn1 2.145143 1_555
O6 P6 1.554917 1_555
O6 Zn0 2.137441 1_455
O7 P7 1.555061 1_555
O7 Zn2 2.136611 1_555
O8 P3 1.550405 1_555
O9 P2 1.551213 1_555
O10 P1 1.546492 1_555
O10 O12 2.411590 1_564
O11 P0 1.547066 1_555
O11 O13 2.418414 1_546
O12 O35 2.569669 1_556
O13 O34 2.555048 1_555
O14 O8 2.418730 1_555
O14 O33 2.537641 1_555
O15 O9 2.418102 1_555
O15 O32 2.538035 1_555
O16 P4 1.566782 1_555
O16 Zn0 2.307544 1_545
O17 P5 1.569420 1_555
O17 Zn2 2.309052 1_565
O18 P6 1.570170 1_555
O18 Zn3 2.300337 1_555
O19 P7 1.570177 1_555
O19 Zn1 2.291276 1_555
O20 P3 1.559619 1_555
O20 Zn2 2.237178 1_555
O21 P2 1.559641 1_555
O21 Zn0 2.240899 1_555
O22 P1 1.558417 1_555
O22 Zn1 2.228062 1_555
O23 P0 1.559015 1_555
O23 Zn3 2.233029 1_555
O24 P2 1.559800 1_555
O24 Zn0 2.239026 1_555
O25 P3 1.559477 1_555
O25 Zn2 2.238814 1_555
O26 P0 1.558835 1_555
O26 Zn3 2.234727 1_555
O27 P1 1.558571 1_555
O27 Zn1 2.226804 1_555
O28 P7 1.575668 1_565
O28 Zn1 2.420334 1_555
O29 P6 1.576426 1_545
O29 Zn3 2.410933 1_555
O30 P5 1.576912 1_555
O30 Zn2 2.411716 1_555
O31 P4 1.574924 1_555
O31 Zn0 2.407134 1_555
O32 P2 1.496819 1_545
O33 P3 1.497991 1_565
O34 P0 1.501327 1_554
O35 P1 1.500452 1_555
