# generated using pymatgen
data_Li9Mn2Co5O16
_symmetry_space_group_name_H-M   'P 1'
_cell_length_a   4.99871000
_cell_length_b   5.95275327
_cell_length_c   9.81268553
_cell_angle_alpha   99.28283710
_cell_angle_beta   93.52700849
_cell_angle_gamma   90.56484787
_symmetry_Int_Tables_number   1
_chemical_formula_structural   Li9Mn2Co5O16
_chemical_formula_sum   'Li9 Mn2 Co5 O16'
_cell_volume   287.55947614
_cell_formula_units_Z   1
loop_
 _symmetry_equiv_pos_site_id
 _symmetry_equiv_pos_as_xyz
  1  'x, y, z'
loop_
 _atom_site_type_symbol
 _atom_site_label
 _atom_site_symmetry_multiplicity
 _atom_site_fract_x
 _atom_site_fract_y
 _atom_site_fract_z
 _atom_site_occupancy
  Li  Li0  1  0.86574500  0.81557500  0.24902800  1
  Li  Li1  1  0.12999500  0.68689600  0.74941400  1
  Li  Li2  1  0.37800500  0.56147900  0.24445800  1
  Li  Li3  1  0.86863000  0.31576000  0.24838700  1
  Li  Li4  1  0.13044400  0.18637200  0.75182700  1
  Li  Li5  1  0.37136300  0.05937600  0.24395400  1
  Li  Li6  1  0.63034400  0.92935900  0.75587300  1
  Li  Li7  1  0.62543900  0.44143400  0.75708400  1
  Li  Li8  1  0.49971500  0.74862300  0.00002100  1
  Mn  Mn0  1  0.99977900  0.00012300  0.00014400  1
  Mn  Mn1  1  0.25055700  0.87432500  0.49771700  1
  Co  Co0  1  0.74664200  0.62522600  0.50450600  1
  Co  Co1  1  0.00116600  0.51178600  0.99989100  1
  Co  Co2  1  0.24909200  0.37480900  0.49973500  1
  Co  Co3  1  0.50041000  0.24505000  0.99992000  1
  Co  Co4  1  0.75283200  0.12641700  0.49808700  1
  O  O0  1  0.68671400  0.04851400  0.10744300  1
  O  O1  1  0.94650800  0.90579000  0.61399800  1
  O  O2  1  0.15701400  0.79705000  0.11544100  1
  O  O3  1  0.68653100  0.50141400  0.10724600  1
  O  O4  1  0.94935300  0.40388700  0.61801100  1
  O  O5  1  0.19311300  0.26930200  0.11099100  1
  O  O6  1  0.44109100  0.14402200  0.61145500  1
  O  O7  1  0.45690700  0.64357800  0.62459200  1
  O  O8  1  0.05799200  0.60385900  0.38629300  1
  O  O9  1  0.31689400  0.44479100  0.89414100  1
  O  O10  1  0.55034200  0.34947600  0.38552100  1
  O  O11  1  0.03906900  0.10933700  0.37815900  1
  O  O12  1  0.31118500  0.99162300  0.89139300  1
  O  O13  1  0.55600200  0.84176300  0.38179100  1
  O  O14  1  0.84278200  0.73383400  0.88475000  1
  O  O15  1  0.80834500  0.20915100  0.88872600  1
loop_
_geom_bond_atom_site_label_1
_geom_bond_atom_site_label_2
_geom_bond_distance
_geom_bond_site_symmetry_2
Li0 O2 2.010394 1_655
Li0 O13 2.075136 1_555
Li0 O11 2.129405 1_665
Li0 O8 2.176775 1_655
Li0 O0 2.268671 1_565
Li0 O3 2.282482 1_555
Li1 O14 2.006411 1_455
Li1 O7 2.095188 1_555
Li1 O4 2.107620 1_455
Li1 O1 2.176469 1_455
Li1 O12 2.246957 1_555
Li1 O9 2.343145 1_555
Li2 O3 2.104807 1_555
Li2 O13 2.118795 1_555
Li2 O5 2.163086 1_555
Li2 O10 2.165429 1_555
Li2 O8 2.174442 1_555
Li2 O2 2.284887 1_555
Li3 O11 2.061388 1_655
Li3 O3 2.080049 1_555
Li3 O0 2.092229 1_555
Li3 O10 2.136592 1_555
Li3 O5 2.163950 1_655
Li3 O8 2.174868 1_655
Li4 O9 2.074543 1_555
Li4 O12 2.101528 1_545
Li4 O6 2.128617 1_555
Li4 O1 2.133586 1_445
Li4 O15 2.151042 1_455
Li4 O4 2.155356 1_455
Li5 O2 2.083806 1_545
Li5 O5 2.112519 1_555
Li5 O0 2.125392 1_555
Li5 O11 2.175842 1_555
Li5 O10 2.180602 1_555
Li5 O13 2.189641 1_545
Li6 O15 2.095893 1_565
Li6 O14 2.101344 1_555
Li6 O7 2.105149 1_555
Li6 O12 2.136518 1_555
Li6 O1 2.160464 1_555
Li6 O6 2.231406 1_565
Li7 O7 2.058611 1_555
Li7 O9 2.105961 1_555
Li7 O4 2.171304 1_555
Li7 O14 2.207066 1_555
Li7 O15 2.207342 1_555
Li7 O6 2.239472 1_555
Li8 O0 2.100126 1_565
Li8 O9 2.104788 1_554
Li8 O14 2.106549 1_554
Li8 O2 2.107972 1_555
Li8 O12 2.125436 1_554
Li8 O3 2.133157 1_555
Mn0 O14 1.922972 1_544
Mn0 O2 1.926035 1_645
Mn0 O12 1.937254 1_644
Mn0 O0 1.937603 1_555
Mn0 O5 1.990594 1_655
Mn0 O15 1.998232 1_554
Mn1 O1 1.948594 1_455
Mn1 O13 1.952227 1_555
Mn1 O8 1.996547 1_555
Mn1 O6 1.997793 1_565
Mn1 O11 2.203891 1_565
Mn1 O7 2.218626 1_555
Co0 O7 1.915627 1_555
Co0 O8 1.990577 1_655
Co0 O1 2.048892 1_555
Co0 O10 2.056565 1_555
Co0 O4 2.089067 1_555
Co0 O13 2.098431 1_555
Co1 O9 1.951171 1_555
Co1 O3 1.951941 1_456
Co1 O2 2.005034 1_556
Co1 O14 2.010692 1_455
Co1 O15 2.137003 1_455
Co1 O5 2.144517 1_556
Co2 O10 1.924586 1_555
Co2 O4 1.943232 1_455
Co2 O11 2.056132 1_555
Co2 O7 2.078021 1_555
Co2 O6 2.095885 1_555
Co2 O8 2.096483 1_555
Co3 O12 1.906372 1_545
Co3 O9 1.906611 1_555
Co3 O3 1.906976 1_556
Co3 O0 1.909987 1_556
Co3 O5 1.930777 1_556
Co3 O15 1.934806 1_555
Co4 O11 1.901028 1_655
Co4 O6 1.963599 1_555
Co4 O4 2.068012 1_555
Co4 O1 2.080220 1_545
Co4 O13 2.084879 1_545
Co4 O10 2.090410 1_555
