# generated using pymatgen
data_KSb2P(SO6)2
_symmetry_space_group_name_H-M   'P 1'
_cell_length_a   5.23113900
_cell_length_b   8.15758326
_cell_length_c   12.87105469
_cell_angle_alpha   82.32080972
_cell_angle_beta   87.86533539
_cell_angle_gamma   86.73897011
_symmetry_Int_Tables_number   1
_chemical_formula_structural   KSb2P(SO6)2
_chemical_formula_sum   'K2 Sb4 P2 S4 O24'
_cell_volume   543.20110564
_cell_formula_units_Z   2
loop_
 _symmetry_equiv_pos_site_id
 _symmetry_equiv_pos_as_xyz
  1  'x, y, z'
loop_
 _atom_site_type_symbol
 _atom_site_label
 _atom_site_symmetry_multiplicity
 _atom_site_fract_x
 _atom_site_fract_y
 _atom_site_fract_z
 _atom_site_occupancy
  K  K0  1  0.72712600  0.83823700  0.14933600  1
  K  K1  1  0.27287400  0.16176300  0.85066400  1
  Sb  Sb0  1  0.78031800  0.73675400  0.46306000  1
  Sb  Sb1  1  0.21968200  0.26324600  0.53694000  1
  Sb  Sb2  1  0.18631100  0.30261300  0.16998800  1
  Sb  Sb3  1  0.81368900  0.69738700  0.83001200  1
  P  P0  1  0.26557900  0.96754300  0.35785300  1
  P  P1  1  0.73442100  0.03245700  0.64214700  1
  S  S0  1  0.70637500  0.39103100  0.33985500  1
  S  S1  1  0.29362500  0.60896900  0.66014500  1
  S  S2  1  0.74096600  0.28425100  0.02036500  1
  S  S3  1  0.25903400  0.71574900  0.97963500  1
  O  O0  1  0.43182300  0.39250000  0.31453400  1
  O  O1  1  0.56817700  0.60750000  0.68546600  1
  O  O2  1  0.81278000  0.55684100  0.31143900  1
  O  O3  1  0.18722000  0.44315900  0.68856100  1
  O  O4  1  0.73508500  0.33359800  0.45388800  1
  O  O5  1  0.26491500  0.66640200  0.54611200  1
  O  O6  1  0.85396800  0.26711700  0.27913000  1
  O  O7  1  0.14603200  0.73288300  0.72087000  1
  O  O8  1  0.76931700  0.28449700  0.90720000  1
  O  O9  1  0.23068300  0.71550300  0.09280000  1
  O  O10  1  0.74729300  0.44703700  0.05695700  1
  O  O11  1  0.25270700  0.55296300  0.94304300  1
  O  O12  1  0.50288400  0.19641600  0.06056900  1
  O  O13  1  0.49711600  0.80358400  0.93943100  1
  O  O14  1  0.96749800  0.17301400  0.07217700  1
  O  O15  1  0.03250200  0.82698600  0.92782300  1
  O  O16  1  0.25031900  0.06616000  0.45132400  1
  O  O17  1  0.74968100  0.93384000  0.54867600  1
  O  O18  1  0.02512900  0.86427200  0.35746000  1
  O  O19  1  0.97487100  0.13572800  0.64254000  1
  O  O20  1  0.51253100  0.85227900  0.36118800  1
  O  O21  1  0.48746900  0.14772100  0.63881200  1
  O  O22  1  0.28591800  0.07278100  0.24834400  1
  O  O23  1  0.71408200  0.92721900  0.75165600  1
loop_
_geom_bond_atom_site_label_1
_geom_bond_atom_site_label_2
_geom_bond_distance
_geom_bond_site_symmetry_2
K0 O9 2.867523 1_655
K0 O2 2.914788 1_555
K0 O20 2.923923 1_555
K0 O9 2.984537 1_555
K0 O13 3.051522 1_554
K0 O14 3.098130 1_565
K0 O12 3.168038 1_565
K0 O18 3.186205 1_655
K0 O15 3.225380 1_654
K0 O22 3.246808 1_565
K0 O10 3.546177 1_555
K1 O8 2.867523 1_455
K1 O3 2.914788 1_555
K1 O21 2.923923 1_555
K1 O8 2.984537 1_555
K1 O12 3.051522 1_556
K1 O15 3.098130 1_545
K1 O13 3.168038 1_545
K1 O19 3.186205 1_455
K1 O14 3.225380 1_456
K1 O23 3.246808 1_545
K1 O11 3.546177 1_555
O0 S0 1.483562 1_555
O0 Sb2 2.509613 1_555
O1 S1 1.483562 1_555
O1 Sb3 2.509613 1_555
O2 S0 1.487085 1_555
O2 Sb0 2.589150 1_555
O3 S1 1.487085 1_555
O3 Sb1 2.589150 1_555
O4 S0 1.490274 1_555
O4 Sb1 2.787589 1_655
O5 S1 1.490274 1_555
O5 Sb0 2.787589 1_455
O6 S0 1.518615 1_555
O6 Sb2 2.201443 1_655
O7 S1 1.518615 1_555
O7 Sb3 2.201443 1_455
O8 S2 1.458323 1_556
O9 S3 1.458323 1_554
O10 S2 1.469575 1_555
O10 Sb2 2.874330 1_655
O11 S3 1.469575 1_555
O11 Sb3 2.874330 1_455
O12 S2 1.512191 1_555
O12 Sb2 2.337834 1_555
O13 S3 1.512191 1_555
O13 Sb3 2.337834 1_555
O14 S2 1.564361 1_555
O14 Sb2 2.147916 1_655
O15 S3 1.564361 1_555
O15 Sb3 2.147916 1_455
O16 P0 1.531382 1_545
O16 Sb1 2.062978 1_555
O17 P1 1.531382 1_565
O17 Sb0 2.062978 1_555
O18 P0 1.553716 1_555
O18 Sb0 2.052692 1_455
O19 P1 1.553716 1_555
O19 Sb1 2.052692 1_655
O20 P0 1.552405 1_555
O20 Sb0 2.055748 1_555
O21 P1 1.552405 1_555
O21 Sb1 2.055748 1_555
O22 P0 1.552687 1_545
O22 Sb2 2.055831 1_555
O23 P1 1.552687 1_565
O23 Sb3 2.055831 1_555
