# generated using pymatgen
data_SbSO2F7
_symmetry_space_group_name_H-M   'P 1'
_cell_length_a   5.21878800
_cell_length_b   8.28937800
_cell_length_c   19.03424027
_cell_angle_alpha   90.00000000
_cell_angle_beta   90.52671015
_cell_angle_gamma   90.00000000
_symmetry_Int_Tables_number   1
_chemical_formula_structural   SbSO2F7
_chemical_formula_sum   'Sb4 S4 O8 F28'
_cell_volume   823.39608054
_cell_formula_units_Z   4
loop_
 _symmetry_equiv_pos_site_id
 _symmetry_equiv_pos_as_xyz
  1  'x, y, z'
loop_
 _atom_site_type_symbol
 _atom_site_label
 _atom_site_symmetry_multiplicity
 _atom_site_fract_x
 _atom_site_fract_y
 _atom_site_fract_z
 _atom_site_occupancy
  Sb  Sb0  1  0.89868800  0.59633800  0.86315900  1
  Sb  Sb1  1  0.10131200  0.09633800  0.63684100  1
  Sb  Sb2  1  0.10131200  0.40366200  0.13684100  1
  Sb  Sb3  1  0.89868800  0.90366200  0.36315900  1
  S  S0  1  0.48614700  0.63617800  0.62224700  1
  S  S1  1  0.51385300  0.13617800  0.87775300  1
  S  S2  1  0.51385300  0.36382200  0.37775300  1
  S  S3  1  0.48614700  0.86382200  0.12224700  1
  O  O0  1  0.45089900  0.66810400  0.54988200  1
  O  O1  1  0.54910100  0.16810400  0.95011800  1
  O  O2  1  0.54910100  0.33189600  0.45011800  1
  O  O3  1  0.45089900  0.83189600  0.04988200  1
  O  O4  1  0.38758200  0.50203900  0.65926300  1
  O  O5  1  0.61241800  0.00203900  0.84073700  1
  O  O6  1  0.61241800  0.49796100  0.34073700  1
  O  O7  1  0.38758200  0.99796100  0.15926300  1
  F  F0  1  0.09941000  0.49325500  0.79387900  1
  F  F1  1  0.90059000  0.99325500  0.70612100  1
  F  F2  1  0.90059000  0.50674500  0.20612100  1
  F  F3  1  0.09941000  0.00674500  0.29387900  1
  F  F4  1  0.61843300  0.62060800  0.92456300  1
  F  F5  1  0.38156700  0.12060800  0.57543700  1
  F  F6  1  0.38156700  0.37939200  0.07543700  1
  F  F7  1  0.61843300  0.87939200  0.42456300  1
  F  F8  1  0.03917100  0.44782600  0.92849600  1
  F  F9  1  0.96082900  0.94782600  0.57150400  1
  F  F10  1  0.96082900  0.55217400  0.07150400  1
  F  F11  1  0.03917100  0.05217400  0.42849600  1
  F  F12  1  0.59896800  0.29514300  0.83552600  1
  F  F13  1  0.40103200  0.79514300  0.66447400  1
  F  F14  1  0.40103200  0.70485700  0.16447400  1
  F  F15  1  0.59896800  0.20485700  0.33552600  1
  F  F16  1  0.67566300  0.65740400  0.78885300  1
  F  F17  1  0.32433700  0.15740400  0.71114700  1
  F  F18  1  0.32433700  0.34259600  0.21114700  1
  F  F19  1  0.67566300  0.84259600  0.28885300  1
  F  F20  1  0.08814100  0.78438600  0.88012700  1
  F  F21  1  0.91185900  0.28438600  0.61987300  1
  F  F22  1  0.91185900  0.21561400  0.11987300  1
  F  F23  1  0.08814100  0.71561400  0.38012700  1
  F  F24  1  0.77895300  0.65376400  0.64067400  1
  F  F25  1  0.22104700  0.15376400  0.85932600  1
  F  F26  1  0.22104700  0.34623600  0.35932600  1
  F  F27  1  0.77895300  0.84623600  0.14067400  1
loop_
_geom_bond_atom_site_label_1
_geom_bond_atom_site_label_2
_geom_bond_distance
_geom_bond_site_symmetry_2
O0 S0 1.412970 1_555
O1 S1 1.412970 1_555
O2 S2 1.412970 1_555
O3 S3 1.412970 1_555
O4 S0 1.415651 1_555
O5 S1 1.415651 1_555
O6 S2 1.415651 1_555
O7 S3 1.415651 1_555
F0 Sb0 1.895209 1_455
F0 F16 2.597545 1_455
F0 F8 2.611704 1_555
F1 Sb1 1.895209 1_665
F1 F17 2.597545 1_665
F1 F9 2.611704 1_555
F2 Sb2 1.895209 1_655
F3 Sb3 1.895209 1_445
F4 Sb0 1.891328 1_555
F4 F8 2.622064 1_655
F5 Sb1 1.891328 1_555
F5 F9 2.622064 1_445
F6 Sb2 1.891328 1_555
F7 Sb3 1.891328 1_555
F8 Sb0 1.892862 1_455
F9 Sb1 1.892862 1_665
F10 Sb2 1.892862 1_655
F10 F2 2.611704 1_555
F10 F6 2.622064 1_655
F11 Sb3 1.892862 1_445
F11 F3 2.611704 1_555
F11 F7 2.622064 1_445
F12 S1 1.608195 1_555
F13 S0 1.608195 1_555
F14 S3 1.608195 1_555
F15 S2 1.608195 1_555
F16 Sb0 1.892377 1_555
F16 F4 2.620881 1_555
F17 Sb1 1.892377 1_555
F17 F5 2.620881 1_555
F18 Sb2 1.892377 1_555
F18 F2 2.597545 1_455
F18 F6 2.620881 1_555
F19 Sb3 1.892377 1_555
F19 F3 2.597545 1_665
F19 F7 2.620881 1_555
F20 Sb0 1.872394 1_455
F21 Sb1 1.872394 1_655
F22 Sb2 1.872394 1_655
F23 Sb3 1.872394 1_455
F24 S0 1.571459 1_555
F25 S1 1.571459 1_555
F26 S2 1.571459 1_555
F27 S3 1.571459 1_555
