# generated using pymatgen
data_Pr5S8
_symmetry_space_group_name_H-M   'P 1'
_cell_length_a   8.44730408
_cell_length_b   8.44730408
_cell_length_c   8.44730408
_cell_angle_alpha   60.00000000
_cell_angle_beta   60.00000000
_cell_angle_gamma   60.00000000
_symmetry_Int_Tables_number   1
_chemical_formula_structural   Pr5S8
_chemical_formula_sum   'Pr5 S8'
_cell_volume   426.22545821
_cell_formula_units_Z   1
loop_
 _symmetry_equiv_pos_site_id
 _symmetry_equiv_pos_as_xyz
  1  'x, y, z'
loop_
 _atom_site_type_symbol
 _atom_site_label
 _atom_site_symmetry_multiplicity
 _atom_site_fract_x
 _atom_site_fract_y
 _atom_site_fract_z
 _atom_site_occupancy
  Pr  Pr0  1  0.61387000  0.12871000  0.12871000  1
  Pr  Pr1  1  0.12871000  0.61387000  0.12871000  1
  Pr  Pr2  1  0.12871000  0.12871000  0.61387000  1
  Pr  Pr3  1  0.12871000  0.12871000  0.12871000  1
  Pr  Pr4  1  0.75000000  0.75000000  0.75000000  1
  S  S0  1  0.35007300  0.88330900  0.88330900  1
  S  S1  1  0.88330900  0.35007300  0.88330900  1
  S  S2  1  0.88330900  0.88330900  0.35007300  1
  S  S3  1  0.88330900  0.88330900  0.88330900  1
  S  S4  1  0.91140800  0.36286400  0.36286400  1
  S  S5  1  0.36286400  0.91140800  0.36286400  1
  S  S6  1  0.36286400  0.36286400  0.91140800  1
  S  S7  1  0.36286400  0.36286400  0.36286400  1
loop_
_geom_bond_atom_site_label_1
_geom_bond_atom_site_label_2
_geom_bond_distance
_geom_bond_site_symmetry_2
Pr0 S7 2.800892 1_555
Pr0 S6 2.800892 1_554
Pr0 S5 2.800892 1_545
Pr0 S1 2.938656 1_554
Pr0 S2 2.938656 1_545
Pr0 S3 2.938656 1_544
Pr1 S7 2.800892 1_555
Pr1 S4 2.800892 1_455
Pr1 S6 2.800892 1_554
Pr1 S0 2.938656 1_554
Pr1 S2 2.938656 1_455
Pr1 S3 2.938656 1_454
Pr2 S7 2.800892 1_555
Pr2 S5 2.800892 1_545
Pr2 S4 2.800892 1_455
Pr2 S1 2.938656 1_455
Pr2 S0 2.938656 1_545
Pr2 S3 2.938656 1_445
Pr3 S6 2.800892 1_554
Pr3 S5 2.800892 1_545
Pr3 S4 2.800892 1_455
Pr3 S2 2.938656 1_445
Pr3 S1 2.938656 1_454
Pr3 S0 2.938656 1_544
Pr4 S3 2.758374 1_555
Pr4 S2 2.758374 1_555
Pr4 S0 2.758374 1_555
Pr4 S1 2.758374 1_555
