# generated using pymatgen
data_K2P2H4O7
_symmetry_space_group_name_H-M   'P 1'
_cell_length_a   7.83688900
_cell_length_b   10.18344283
_cell_length_c   10.37658468
_cell_angle_alpha   93.40981959
_cell_angle_beta   90.00000000
_cell_angle_gamma   90.00000000
_symmetry_Int_Tables_number   1
_chemical_formula_structural   K2P2H4O7
_chemical_formula_sum   'K8 P8 H16 O28'
_cell_volume   826.65295847
_cell_formula_units_Z   4
loop_
 _symmetry_equiv_pos_site_id
 _symmetry_equiv_pos_as_xyz
  1  'x, y, z'
loop_
 _atom_site_type_symbol
 _atom_site_label
 _atom_site_symmetry_multiplicity
 _atom_site_fract_x
 _atom_site_fract_y
 _atom_site_fract_z
 _atom_site_occupancy
  K  K0  1  0.77722200  0.92760500  0.89314000  1
  K  K1  1  0.72277800  0.42760500  0.39314000  1
  K  K2  1  0.22277800  0.07239500  0.10686000  1
  K  K3  1  0.27722200  0.57239500  0.60686000  1
  K  K4  1  0.99435100  0.27514900  0.77258300  1
  K  K5  1  0.50564900  0.77514900  0.27258300  1
  K  K6  1  0.00564900  0.72485100  0.22741700  1
  K  K7  1  0.49435100  0.22485100  0.72741700  1
  P  P0  1  0.74445900  0.08393500  0.20931800  1
  P  P1  1  0.75554100  0.58393500  0.70931800  1
  P  P2  1  0.25554100  0.91606500  0.79068200  1
  P  P3  1  0.24445900  0.41606500  0.29068200  1
  P  P4  1  0.75370800  0.24284200  0.07325700  1
  P  P5  1  0.74629200  0.74284200  0.57325700  1
  P  P6  1  0.24629200  0.75715800  0.92674300  1
  P  P7  1  0.25370800  0.25715800  0.42674300  1
  H  H0  1  0.95650700  0.14740900  0.34609700  1
  H  H1  1  0.54349300  0.64740900  0.84609700  1
  H  H2  1  0.04349300  0.85259100  0.65390300  1
  H  H3  1  0.45650700  0.35259100  0.15390300  1
  H  H4  1  0.98962400  0.34881000  0.14239200  1
  H  H5  1  0.51037600  0.84881000  0.64239200  1
  H  H6  1  0.01037600  0.65119000  0.85760800  1
  H  H7  1  0.48962400  0.15119000  0.35760800  1
  H  H8  1  0.30414700  0.47190900  0.88293200  1
  H  H9  1  0.19585300  0.97190900  0.38293200  1
  H  H10  1  0.69585300  0.52809100  0.11706800  1
  H  H11  1  0.80414700  0.02809100  0.61706800  1
  H  H12  1  0.28035500  0.36290400  0.97890900  1
  H  H13  1  0.21964500  0.86290400  0.47890900  1
  H  H14  1  0.71964500  0.63709600  0.02109100  1
  H  H15  1  0.78035500  0.13709600  0.52109100  1
  O  O0  1  0.85452200  0.97129200  0.15587400  1
  O  O1  1  0.64547800  0.47129200  0.65587400  1
  O  O2  1  0.14547800  0.02870800  0.84412600  1
  O  O3  1  0.35452200  0.52870800  0.34412600  1
  O  O4  1  0.55762900  0.05701200  0.23990800  1
  O  O5  1  0.94237100  0.55701200  0.73990800  1
  O  O6  1  0.44237100  0.94298800  0.76009200  1
  O  O7  1  0.05762900  0.44298800  0.26009200  1
  O  O8  1  0.82521300  0.15254400  0.34067600  1
  O  O9  1  0.67478700  0.65254400  0.84067600  1
  O  O10  1  0.17478700  0.84745600  0.65932400  1
  O  O11  1  0.32521300  0.34745600  0.15932400  1
  O  O12  1  0.70456600  0.18795900  0.94013400  1
  O  O13  1  0.79543400  0.68795900  0.44013400  1
  O  O14  1  0.29543400  0.81204100  0.05986600  1
  O  O15  1  0.20456600  0.31204100  0.55986600  1
  O  O16  1  0.65196400  0.35925900  0.13538000  1
  O  O17  1  0.84803600  0.85925900  0.63538000  1
  O  O18  1  0.34803600  0.64074100  0.86462000  1
  O  O19  1  0.15196400  0.14074100  0.36462000  1
  O  O20  1  0.95202400  0.28345100  0.06869700  1
  O  O21  1  0.54797600  0.78345100  0.56869700  1
  O  O22  1  0.04797600  0.71654900  0.93130300  1
  O  O23  1  0.45202400  0.21654900  0.43130300  1
  O  O24  1  0.28238600  0.37645900  0.88585400  1
  O  O25  1  0.21761400  0.87645900  0.38585400  1
  O  O26  1  0.71761400  0.62354100  0.11414600  1
  O  O27  1  0.78238600  0.12354100  0.61414600  1
loop_
_geom_bond_atom_site_label_1
_geom_bond_atom_site_label_2
_geom_bond_distance
_geom_bond_site_symmetry_2
K0 O12 2.727197 1_565
K0 O17 2.779353 1_555
K0 O0 2.802363 1_556
K0 O9 2.933496 1_555
K0 O6 2.973660 1_555
K0 O22 3.062643 1_655
K0 O2 3.116068 1_665
K1 O13 2.727197 1_555
K1 O16 2.779353 1_555
K1 O1 2.802363 1_555
K1 O8 2.933496 1_555
K1 O7 2.973660 1_655
K1 O23 3.062643 1_555
K1 O3 3.116068 1_555
K2 O14 2.727197 1_545
K2 O19 2.779353 1_555
K2 O2 2.802363 1_554
K2 O11 2.933496 1_555
K2 O4 2.973660 1_555
K2 O20 3.062643 1_455
K2 O0 3.116068 1_445
K3 O15 2.727197 1_555
K3 O18 2.779353 1_555
K3 O3 2.802363 1_555
K3 O10 2.933496 1_555
K3 O5 2.973660 1_455
K3 O21 3.062643 1_555
K3 O1 3.116068 1_555
K4 O24 2.719744 1_655
K4 O27 2.746621 1_555
K4 O15 2.797478 1_655
K4 O2 2.910952 1_655
K4 O5 2.938621 1_555
K4 O12 3.025267 1_555
K4 O20 3.086660 1_556
K4 O1 3.635822 1_555
K5 O25 2.719744 1_555
K5 O26 2.746621 1_555
K5 O14 2.797478 1_555
K5 O3 2.910952 1_555
K5 O4 2.938621 1_565
K5 O13 3.025267 1_555
K5 O21 3.086660 1_555
K5 O0 3.635822 1_555
K6 O26 2.719744 1_455
K6 O25 2.746621 1_555
K6 O13 2.797478 1_455
K6 O0 2.910952 1_455
K6 O7 2.938621 1_555
K6 O14 3.025267 1_555
K6 O22 3.086660 1_554
K6 O3 3.635822 1_555
K7 O27 2.719744 1_555
K7 O24 2.746621 1_555
K7 O12 2.797478 1_555
K7 O1 2.910952 1_555
K7 O6 2.938621 1_545
K7 O15 3.025267 1_555
K7 O23 3.086660 1_555
K7 O2 3.635822 1_555
H0 O8 1.031968 1_555
H0 O19 1.545781 1_655
H1 O9 1.031968 1_555
H1 O18 1.545781 1_555
H2 O10 1.031968 1_555
H2 O17 1.545781 1_455
H3 O11 1.031968 1_555
H3 O16 1.545781 1_555
H4 O20 1.026669 1_555
H4 O7 1.598787 1_655
H5 O21 1.026669 1_555
H5 O6 1.598787 1_555
H6 O22 1.026669 1_555
H6 O5 1.598787 1_455
H7 O23 1.026669 1_555
H7 O4 1.598787 1_555
H8 O24 0.989096 1_555
H8 O18 1.774608 1_555
H8 K3 3.105926 1_555
H9 O25 0.989096 1_555
H9 O19 1.774608 1_565
H9 K2 3.105926 1_565
H10 O26 0.989096 1_555
H10 O16 1.774608 1_555
H10 K1 3.105926 1_555
H11 O27 0.989096 1_555
H11 O17 1.774608 1_545
H11 K0 3.105926 1_545
H12 O24 0.983632 1_555
H12 K2 3.344493 1_556
H13 O25 0.983632 1_555
H13 K3 3.344493 1_555
H14 O26 0.983632 1_555
H14 K0 3.344493 1_554
H15 O27 0.983632 1_555
H15 K1 3.344493 1_555
O0 P0 1.513833 1_565
O1 P1 1.513833 1_555
O2 P2 1.513833 1_545
O3 P3 1.513833 1_555
O4 P0 1.526453 1_555
O5 P1 1.526453 1_555
O6 P2 1.526453 1_555
O7 P3 1.526453 1_555
O8 P0 1.622737 1_555
O9 P1 1.622737 1_555
O10 P2 1.622737 1_555
O11 P3 1.622737 1_555
O12 P4 1.508976 1_556
O13 P5 1.508976 1_555
O14 P6 1.508976 1_554
O15 P7 1.508976 1_555
O16 P4 1.538142 1_555
O17 P5 1.538142 1_555
O18 P6 1.538142 1_555
O19 P7 1.538142 1_555
O20 P4 1.609676 1_555
O21 P5 1.609676 1_555
O22 P6 1.609676 1_555
O23 P7 1.609676 1_555
