# generated using pymatgen
data_Li9Mn7O16
_symmetry_space_group_name_H-M   'P 1'
_cell_length_a   6.47606100
_cell_length_b   6.53306613
_cell_length_c   8.05343354
_cell_angle_alpha   87.42641163
_cell_angle_beta   112.84789517
_cell_angle_gamma   107.69903251
_symmetry_Int_Tables_number   1
_chemical_formula_structural   Li9Mn7O16
_chemical_formula_sum   'Li9 Mn7 O16'
_cell_volume   298.09257172
_cell_formula_units_Z   1
loop_
 _symmetry_equiv_pos_site_id
 _symmetry_equiv_pos_as_xyz
  1  'x, y, z'
loop_
 _atom_site_type_symbol
 _atom_site_label
 _atom_site_symmetry_multiplicity
 _atom_site_fract_x
 _atom_site_fract_y
 _atom_site_fract_z
 _atom_site_occupancy
  Li  Li0  1  0.62467700  0.18843100  0.43832200  1
  Li  Li1  1  0.64203500  0.68488400  0.94331300  1
  Li  Li2  1  0.88730800  0.07358200  0.83286600  1
  Li  Li3  1  0.88039600  0.56714400  0.31344700  1
  Li  Li4  1  0.11269200  0.92641800  0.16713400  1
  Li  Li5  1  0.11960400  0.43285600  0.68655300  1
  Li  Li6  1  0.37532300  0.81156900  0.56167800  1
  Li  Li7  1  0.35796500  0.31511600  0.05668700  1
  Li  Li8  1  0.00000000  0.50000000  0.00000000  1
  Mn  Mn0  1  0.75337300  0.12497400  0.12260900  1
  Mn  Mn1  1  0.24662700  0.87502600  0.87739100  1
  Mn  Mn2  1  0.75426400  0.62435100  0.63133600  1
  Mn  Mn3  1  0.00000000  0.00000000  0.50000000  1
  Mn  Mn4  1  0.24573600  0.37564900  0.36866400  1
  Mn  Mn5  1  0.49457000  0.74724000  0.24318500  1
  Mn  Mn6  1  0.50543000  0.25276000  0.75681500  1
  O  O0  1  0.46062400  0.02398300  0.17081600  1
  O  O1  1  0.46052300  0.52483000  0.66949100  1
  O  O2  1  0.68153900  0.88095700  0.50422600  1
  O  O3  1  0.66799200  0.37285200  0.00483400  1
  O  O4  1  0.95088200  0.78907900  0.89899800  1
  O  O5  1  0.95648300  0.27736900  0.41547000  1
  O  O6  1  0.20924800  0.65595400  0.28993600  1
  O  O7  1  0.20578500  0.15614500  0.78703100  1
  O  O8  1  0.79075200  0.34404600  0.71006400  1
  O  O9  1  0.79421500  0.84385500  0.21296900  1
  O  O10  1  0.04911800  0.21092100  0.10100200  1
  O  O11  1  0.04351700  0.72263100  0.58453000  1
  O  O12  1  0.31846100  0.11904300  0.49577400  1
  O  O13  1  0.33200800  0.62714800  0.99516600  1
  O  O14  1  0.53937600  0.97601700  0.82918400  1
  O  O15  1  0.53947700  0.47517000  0.33050900  1
loop_
_geom_bond_atom_site_label_1
_geom_bond_atom_site_label_2
_geom_bond_distance
_geom_bond_site_symmetry_2
Li0 O12 2.121145 1_555
Li0 O5 2.127709 1_555
Li0 O2 2.157455 1_545
Li0 O0 2.158833 1_555
Li0 O15 2.162841 1_555
Li0 O8 2.164897 1_555
Li1 O4 2.072646 1_555
Li1 O3 2.117144 1_556
Li1 O13 2.127021 1_555
Li1 O9 2.164288 1_556
Li1 O1 2.187412 1_555
Li1 O14 2.245371 1_555
Li2 O4 2.028286 1_545
Li2 O10 2.100301 1_656
Li2 O8 2.127407 1_555
Li2 O14 2.135590 1_545
Li2 O7 2.139608 1_655
Li2 O2 2.627717 1_545
Li3 O9 2.089427 1_555
Li3 O6 2.111855 1_655
Li3 O5 2.148228 1_555
Li3 O11 2.160942 1_655
Li3 O15 2.162386 1_555
Li3 O3 2.499449 1_555
Li4 O10 2.028286 1_565
Li4 O4 2.100301 1_454
Li4 O6 2.127407 1_555
Li4 O0 2.135590 1_565
Li4 O9 2.139608 1_455
Li4 O12 2.627717 1_565
Li5 O7 2.089427 1_555
Li5 O8 2.111855 1_455
Li5 O11 2.148228 1_555
Li5 O5 2.160942 1_455
Li5 O1 2.162386 1_555
Li5 O13 2.499449 1_555
Li6 O2 2.121145 1_555
Li6 O11 2.127709 1_555
Li6 O12 2.157455 1_565
Li6 O14 2.158833 1_555
Li6 O1 2.162841 1_555
Li6 O6 2.164897 1_555
Li7 O10 2.072646 1_555
Li7 O13 2.117144 1_554
Li7 O3 2.127021 1_555
Li7 O7 2.164288 1_554
Li7 O15 2.187412 1_555
Li7 O0 2.245371 1_555
Li8 O13 2.071378 1_554
Li8 O3 2.071378 1_455
Li8 O10 2.087082 1_555
Li8 O4 2.087082 1_454
Li8 O6 2.289866 1_555
Li8 O8 2.289866 1_454
Mn0 O10 1.899984 1_655
Mn0 O3 1.956290 1_555
Mn0 O0 1.992069 1_555
Mn0 O9 1.999592 1_545
Mn0 O5 2.299897 1_555
Mn0 O14 2.301101 1_544
Mn1 O4 1.899984 1_455
Mn1 O13 1.956290 1_555
Mn1 O14 1.992069 1_555
Mn1 O7 1.999592 1_565
Mn1 O11 2.299897 1_555
Mn1 O0 2.301101 1_566
Mn2 O1 1.954430 1_555
Mn2 O8 1.963111 1_555
Mn2 O11 1.964332 1_655
Mn2 O2 2.007902 1_555
Mn2 O4 2.160955 1_555
Mn2 O15 2.350509 1_555
Mn3 O5 1.969058 1_455
Mn3 O11 1.969058 1_545
Mn3 O2 1.984002 1_445
Mn3 O12 1.984002 1_555
Mn3 O7 2.270005 1_555
Mn3 O9 2.270005 1_445
Mn4 O15 1.954430 1_555
Mn4 O6 1.963111 1_555
Mn4 O5 1.964332 1_455
Mn4 O12 2.007902 1_555
Mn4 O10 2.160955 1_555
Mn4 O1 2.350509 1_555
Mn5 O0 1.924666 1_565
Mn5 O13 1.928479 1_554
Mn5 O6 1.939513 1_555
Mn5 O15 1.944660 1_555
Mn5 O9 1.957397 1_555
Mn5 O2 2.047884 1_555
Mn6 O14 1.924666 1_545
Mn6 O3 1.928479 1_556
Mn6 O8 1.939513 1_555
Mn6 O1 1.944660 1_555
Mn6 O7 1.957397 1_555
Mn6 O12 2.047884 1_555
