# generated using pymatgen
data_Cs2Sb
_symmetry_space_group_name_H-M   'P 1'
_cell_length_a   6.44204108
_cell_length_b   11.28236038
_cell_length_c   16.34290767
_cell_angle_alpha   90.00000000
_cell_angle_beta   90.00000000
_cell_angle_gamma   90.00000000
_symmetry_Int_Tables_number   1
_chemical_formula_structural   Cs2Sb
_chemical_formula_sum   'Cs16 Sb8'
_cell_volume   1187.82588424
_cell_formula_units_Z   8
loop_
 _symmetry_equiv_pos_site_id
 _symmetry_equiv_pos_as_xyz
  1  'x, y, z'
loop_
 _atom_site_type_symbol
 _atom_site_label
 _atom_site_symmetry_multiplicity
 _atom_site_fract_x
 _atom_site_fract_y
 _atom_site_fract_z
 _atom_site_occupancy
  Cs  Cs0  1  0.25000000  0.26086198  0.74415204  1
  Cs  Cs1  1  0.25000000  0.23913802  0.24415204  1
  Cs  Cs2  1  0.75000000  0.73913802  0.25584796  1
  Cs  Cs3  1  0.75000000  0.76086198  0.75584796  1
  Cs  Cs4  1  0.75000000  0.09404893  0.70871892  1
  Cs  Cs5  1  0.75000000  0.40595107  0.20871892  1
  Cs  Cs6  1  0.25000000  0.90595107  0.29128108  1
  Cs  Cs7  1  0.25000000  0.59404893  0.79128108  1
  Cs  Cs8  1  0.75000000  0.08623821  0.94234490  1
  Cs  Cs9  1  0.75000000  0.41376179  0.44234490  1
  Cs  Cs10  1  0.25000000  0.91376179  0.05765510  1
  Cs  Cs11  1  0.25000000  0.58623821  0.55765510  1
  Cs  Cs12  1  0.25000000  0.33348090  0.99178445  1
  Cs  Cs13  1  0.25000000  0.16651910  0.49178445  1
  Cs  Cs14  1  0.75000000  0.66651910  0.00821555  1
  Cs  Cs15  1  0.75000000  0.83348090  0.50821555  1
  Sb  Sb0  1  0.25000000  0.90987481  0.65489400  1
  Sb  Sb1  1  0.25000000  0.59012519  0.15489400  1
  Sb  Sb2  1  0.75000000  0.09012519  0.34510600  1
  Sb  Sb3  1  0.75000000  0.40987481  0.84510600  1
  Sb  Sb4  1  0.75000000  0.43668979  0.66663730  1
  Sb  Sb5  1  0.75000000  0.06331021  0.16663730  1
  Sb  Sb6  1  0.25000000  0.56331021  0.33336270  1
  Sb  Sb7  1  0.25000000  0.93668979  0.83336270  1
loop_
_geom_bond_atom_site_label_1
_geom_bond_atom_site_label_2
_geom_bond_distance
_geom_bond_site_symmetry_2
Cs0 Cs4 3.775235 1_455
Cs0 Cs4 3.775235 1_555
Cs0 Cs7 3.837231 1_555
Cs0 Sb7 3.937312 1_545
Cs0 Sb4 3.989370 1_455
Cs0 Sb4 3.989370 1_555
Cs0 Sb3 3.990435 1_555
Cs0 Sb3 3.990435 1_455
Cs0 Cs12 4.129135 1_555
Cs0 Sb0 4.220098 1_545
Cs0 Cs13 4.259555 1_555
Cs0 Cs11 4.771377 1_555
Cs1 Cs5 3.775235 1_555
Cs1 Cs5 3.775235 1_455
Cs1 Cs6 3.837231 1_545
Cs1 Sb6 3.937312 1_555
Cs1 Sb5 3.989370 1_455
Cs1 Sb5 3.989370 1_555
Cs1 Sb2 3.990435 1_455
Cs1 Sb2 3.990435 1_555
Cs1 Cs13 4.129135 1_555
Cs1 Sb1 4.220098 1_555
Cs1 Cs12 4.259555 1_554
Cs1 Cs10 4.771377 1_545
Cs2 Cs6 3.775235 1_555
Cs2 Cs6 3.775235 1_655
Cs2 Cs5 3.837231 1_555
Cs2 Sb5 3.937312 1_565
Cs2 Sb6 3.989370 1_555
Cs2 Sb6 3.989370 1_655
Cs2 Sb1 3.990435 1_655
Cs2 Sb1 3.990435 1_555
Cs2 Sb2 4.220098 1_565
Cs2 Cs9 4.771377 1_555
Cs3 Cs7 3.775235 1_655
Cs3 Cs7 3.775235 1_555
Cs3 Cs4 3.837231 1_565
Cs3 Sb4 3.937312 1_555
Cs3 Sb7 3.989370 1_655
Cs3 Sb7 3.989370 1_555
Cs3 Sb0 3.990435 1_555
Cs3 Sb0 3.990435 1_655
Cs3 Sb3 4.220098 1_555
Cs3 Cs8 4.771377 1_565
Cs4 Cs8 3.819145 1_555
Cs4 Sb4 3.926496 1_555
Cs4 Sb0 3.932749 1_645
Cs4 Sb0 3.932749 1_545
Cs4 Sb3 4.202987 1_555
Cs4 Sb7 4.204342 1_545
Cs4 Sb7 4.204342 1_645
Cs5 Cs9 3.819145 1_555
Cs5 Sb5 3.926496 1_555
Cs5 Sb1 3.932749 1_555
Cs5 Sb1 3.932749 1_655
Cs5 Sb2 4.202987 1_555
Cs5 Sb6 4.204342 1_555
Cs5 Sb6 4.204342 1_655
Cs6 Sb6 3.926496 1_555
Cs6 Sb2 3.932749 1_465
Cs6 Sb2 3.932749 1_565
Cs6 Sb1 4.202987 1_555
Cs6 Sb5 4.204342 1_565
Cs6 Sb5 4.204342 1_465
Cs7 Sb7 3.926496 1_555
Cs7 Sb3 3.932749 1_455
Cs7 Sb3 3.932749 1_555
Cs7 Sb0 4.202987 1_555
Cs7 Sb4 4.204342 1_455
Cs7 Sb4 4.204342 1_555
Cs8 Sb5 3.674706 1_556
Cs8 Sb3 3.982218 1_555
Cs8 Sb7 4.048961 1_645
Cs8 Sb7 4.048961 1_545
Cs9 Sb4 3.674706 1_555
Cs9 Sb2 3.982218 1_555
Cs9 Sb6 4.048961 1_555
Cs9 Sb6 4.048961 1_655
Cs10 Sb7 3.674706 1_554
Cs10 Cs6 3.819145 1_555
Cs10 Sb1 3.982218 1_555
Cs10 Sb5 4.048961 1_465
Cs10 Sb5 4.048961 1_565
Cs10 Cs8 4.208683 1_464
Cs10 Cs8 4.208683 1_564
Cs10 Cs14 4.336937 1_555
Cs10 Cs14 4.336937 1_455
Cs10 Cs12 4.856245 1_564
Cs11 Sb6 3.674706 1_555
Cs11 Cs7 3.819145 1_555
Cs11 Sb0 3.982218 1_555
Cs11 Sb4 4.048961 1_455
Cs11 Sb4 4.048961 1_555
Cs11 Cs9 4.208683 1_555
Cs11 Cs9 4.208683 1_455
Cs11 Cs15 4.336937 1_555
Cs11 Cs15 4.336937 1_455
Cs11 Cs13 4.856245 1_555
Cs12 Sb1 3.935747 1_556
Cs12 Sb3 4.106603 1_455
Cs12 Sb3 4.106603 1_555
Cs12 Cs8 4.336937 1_455
Cs12 Cs8 4.336937 1_555
Cs12 Cs7 4.402275 1_555
Cs12 Cs5 4.859314 1_456
Cs12 Cs5 4.859314 1_556
Cs13 Sb0 3.935747 1_545
Cs13 Sb2 4.106603 1_455
Cs13 Sb2 4.106603 1_555
Cs13 Cs9 4.336937 1_455
Cs13 Cs9 4.336937 1_555
Cs13 Cs6 4.402275 1_545
Cs13 Cs4 4.859314 1_555
Cs13 Cs4 4.859314 1_455
Cs14 Sb3 3.935747 1_554
Cs14 Sb1 4.106603 1_655
Cs14 Sb1 4.106603 1_555
Cs14 Cs2 4.129135 1_555
Cs14 Cs3 4.259555 1_554
Cs14 Cs5 4.402275 1_555
Cs14 Cs8 4.856245 1_564
Cs14 Cs7 4.859314 1_654
Cs14 Cs7 4.859314 1_554
Cs15 Sb2 3.935747 1_565
Cs15 Sb0 4.106603 1_555
Cs15 Sb0 4.106603 1_655
Cs15 Cs3 4.129135 1_555
Cs15 Cs2 4.259555 1_555
Cs15 Cs4 4.402275 1_565
Cs15 Cs9 4.856245 1_555
Cs15 Cs6 4.859314 1_555
Cs15 Cs6 4.859314 1_655
Sb0 Sb7 2.932346 1_555
Sb1 Sb6 2.932346 1_555
Sb2 Sb5 2.932346 1_555
Sb3 Sb4 2.932346 1_555
