# generated using pymatgen
data_Na2CuO2
_symmetry_space_group_name_H-M   'P 1'
_cell_length_a   5.89672200
_cell_length_b   11.36216200
_cell_length_c   16.55493168
_cell_angle_alpha   70.65272213
_cell_angle_beta   90.00000000
_cell_angle_gamma   90.00000000
_symmetry_Int_Tables_number   1
_chemical_formula_structural   Na2CuO2
_chemical_formula_sum   'Na32 Cu16 O32'
_cell_volume   1046.53503607
_cell_formula_units_Z   16
loop_
 _symmetry_equiv_pos_site_id
 _symmetry_equiv_pos_as_xyz
  1  'x, y, z'
loop_
 _atom_site_type_symbol
 _atom_site_label
 _atom_site_symmetry_multiplicity
 _atom_site_fract_x
 _atom_site_fract_y
 _atom_site_fract_z
 _atom_site_occupancy
  Na  Na0_0  1  0.12500000  0.30772800  0.06014400  1
  Na  Na0_1  1  0.12500000  0.30772800  0.56014400  1
  Na  Na0_2  1  0.12500000  0.80772800  0.06014400  1
  Na  Na0_3  1  0.12500000  0.80772800  0.56014400  1
  Na  Na0_4  1  0.62500000  0.30772800  0.06014400  1
  Na  Na0_5  1  0.62500000  0.30772800  0.56014400  1
  Na  Na0_6  1  0.62500000  0.80772800  0.06014400  1
  Na  Na0_7  1  0.62500000  0.80772800  0.56014400  1
  Na  Na1_0  1  0.37500000  0.19227200  0.43985600  1
  Na  Na1_1  1  0.37500000  0.19227200  0.93985600  1
  Na  Na1_2  1  0.37500000  0.69227200  0.43985600  1
  Na  Na1_3  1  0.37500000  0.69227200  0.93985600  1
  Na  Na1_4  1  0.87500000  0.19227200  0.43985600  1
  Na  Na1_5  1  0.87500000  0.19227200  0.93985600  1
  Na  Na1_6  1  0.87500000  0.69227200  0.43985600  1
  Na  Na1_7  1  0.87500000  0.69227200  0.93985600  1
  Na  Na2_0  1  0.12500000  0.34024850  0.27888300  1
  Na  Na2_1  1  0.12500000  0.34024850  0.77888300  1
  Na  Na2_2  1  0.12500000  0.84024850  0.27888300  1
  Na  Na2_3  1  0.12500000  0.84024850  0.77888300  1
  Na  Na2_4  1  0.62500000  0.34024850  0.27888300  1
  Na  Na2_5  1  0.62500000  0.34024850  0.77888300  1
  Na  Na2_6  1  0.62500000  0.84024850  0.27888300  1
  Na  Na2_7  1  0.62500000  0.84024850  0.77888300  1
  Na  Na3_0  1  0.37500000  0.15975150  0.22111700  1
  Na  Na3_1  1  0.37500000  0.15975150  0.72111700  1
  Na  Na3_2  1  0.37500000  0.65975150  0.22111700  1
  Na  Na3_3  1  0.37500000  0.65975150  0.72111700  1
  Na  Na3_4  1  0.87500000  0.15975150  0.22111700  1
  Na  Na3_5  1  0.87500000  0.15975150  0.72111700  1
  Na  Na3_6  1  0.87500000  0.65975150  0.22111700  1
  Na  Na3_7  1  0.87500000  0.65975150  0.72111700  1
  Cu  Cu0_0  1  0.12500000  0.01248650  0.11969950  1
  Cu  Cu0_1  1  0.12500000  0.01248650  0.61969950  1
  Cu  Cu0_2  1  0.12500000  0.51248650  0.11969950  1
  Cu  Cu0_3  1  0.12500000  0.51248650  0.61969950  1
  Cu  Cu0_4  1  0.62500000  0.01248650  0.11969950  1
  Cu  Cu0_5  1  0.62500000  0.01248650  0.61969950  1
  Cu  Cu0_6  1  0.62500000  0.51248650  0.11969950  1
  Cu  Cu0_7  1  0.62500000  0.51248650  0.61969950  1
  Cu  Cu1_0  1  0.37500000  0.48751350  0.38030050  1
  Cu  Cu1_1  1  0.37500000  0.48751350  0.88030050  1
  Cu  Cu1_2  1  0.37500000  0.98751350  0.38030050  1
  Cu  Cu1_3  1  0.37500000  0.98751350  0.88030050  1
  Cu  Cu1_4  1  0.87500000  0.48751350  0.38030050  1
  Cu  Cu1_5  1  0.87500000  0.48751350  0.88030050  1
  Cu  Cu1_6  1  0.87500000  0.98751350  0.38030050  1
  Cu  Cu1_7  1  0.87500000  0.98751350  0.88030050  1
  O  O0_0  1  0.37500000  0.38419300  0.15883600  1
  O  O0_1  1  0.37500000  0.38419300  0.65883600  1
  O  O0_2  1  0.37500000  0.88419300  0.15883600  1
  O  O0_3  1  0.37500000  0.88419300  0.65883600  1
  O  O0_4  1  0.87500000  0.38419300  0.15883600  1
  O  O0_5  1  0.87500000  0.38419300  0.65883600  1
  O  O0_6  1  0.87500000  0.88419300  0.15883600  1
  O  O0_7  1  0.87500000  0.88419300  0.65883600  1
  O  O1_0  1  0.12500000  0.11580700  0.34116400  1
  O  O1_1  1  0.12500000  0.11580700  0.84116400  1
  O  O1_2  1  0.12500000  0.61580700  0.34116400  1
  O  O1_3  1  0.12500000  0.61580700  0.84116400  1
  O  O1_4  1  0.62500000  0.11580700  0.34116400  1
  O  O1_5  1  0.62500000  0.11580700  0.84116400  1
  O  O1_6  1  0.62500000  0.61580700  0.34116400  1
  O  O1_7  1  0.62500000  0.61580700  0.84116400  1
  O  O2_0  1  0.37500000  0.13426550  0.08872150  1
  O  O2_1  1  0.37500000  0.13426550  0.58872150  1
  O  O2_2  1  0.37500000  0.63426550  0.08872150  1
  O  O2_3  1  0.37500000  0.63426550  0.58872150  1
  O  O2_4  1  0.87500000  0.13426550  0.08872150  1
  O  O2_5  1  0.87500000  0.13426550  0.58872150  1
  O  O2_6  1  0.87500000  0.63426550  0.08872150  1
  O  O2_7  1  0.87500000  0.63426550  0.58872150  1
  O  O3_0  1  0.12500000  0.36573450  0.41127850  1
  O  O3_1  1  0.12500000  0.36573450  0.91127850  1
  O  O3_2  1  0.12500000  0.86573450  0.41127850  1
  O  O3_3  1  0.12500000  0.86573450  0.91127850  1
  O  O3_4  1  0.62500000  0.36573450  0.41127850  1
  O  O3_5  1  0.62500000  0.36573450  0.91127850  1
  O  O3_6  1  0.62500000  0.86573450  0.41127850  1
  O  O3_7  1  0.62500000  0.86573450  0.91127850  1
loop_
_geom_bond_atom_site_label_1
_geom_bond_atom_site_label_2
_geom_bond_distance
_geom_bond_site_symmetry_2
Na0_0 O3_1 2.330605 1_554
Na0_0 O2_4 2.379852 1_455
Na0_0 O2_0 2.379852 1_555
Na0_0 O0_4 2.556952 1_455
Na0_0 O0_0 2.556952 1_555
Na0_0 Na0_4 2.948361 1_455
Na0_0 Na0_4 2.948361 1_555
Na0_1 O3_0 2.330605 1_555
Na0_1 O2_5 2.379852 1_455
Na0_1 O2_1 2.379852 1_555
Na0_1 O0_5 2.556952 1_455
Na0_1 O0_1 2.556952 1_555
Na0_1 Na0_5 2.948361 1_455
Na0_1 Na0_5 2.948361 1_555
Na0_2 O3_3 2.330605 1_554
Na0_2 O2_6 2.379852 1_455
Na0_2 O2_2 2.379852 1_555
Na0_2 O0_6 2.556952 1_455
Na0_2 O0_2 2.556952 1_555
Na0_2 Na0_6 2.948361 1_555
Na0_2 Na0_6 2.948361 1_455
Na0_3 O3_2 2.330605 1_555
Na0_3 O2_7 2.379852 1_455
Na0_3 O2_3 2.379852 1_555
Na0_3 O0_7 2.556952 1_455
Na0_3 O0_3 2.556952 1_555
Na0_3 Na0_7 2.948361 1_555
Na0_3 Na0_7 2.948361 1_455
Na0_4 O3_5 2.330605 1_554
Na0_4 O2_0 2.379852 1_555
Na0_4 O2_4 2.379852 1_555
Na0_4 O0_0 2.556952 1_555
Na0_4 O0_4 2.556952 1_555
Na0_5 O3_4 2.330605 1_555
Na0_5 O2_1 2.379852 1_555
Na0_5 O2_5 2.379852 1_555
Na0_5 O0_1 2.556952 1_555
Na0_5 O0_5 2.556952 1_555
Na0_6 O3_7 2.330605 1_554
Na0_6 O2_2 2.379852 1_555
Na0_6 O2_6 2.379852 1_555
Na0_6 O0_2 2.556952 1_555
Na0_6 O0_6 2.556952 1_555
Na0_7 O3_6 2.330605 1_555
Na0_7 O2_3 2.379852 1_555
Na0_7 O2_7 2.379852 1_555
Na0_7 O0_3 2.556952 1_555
Na0_7 O0_7 2.556952 1_555
Na1_0 O2_1 2.330605 1_555
Na1_0 O3_0 2.379852 1_555
Na1_0 O3_4 2.379852 1_555
Na1_0 O1_0 2.556952 1_555
Na1_0 O1_4 2.556952 1_555
Na1_0 Na1_4 2.948361 1_455
Na1_0 Na1_4 2.948361 1_555
Na1_1 O2_0 2.330605 1_556
Na1_1 O3_1 2.379852 1_555
Na1_1 O3_5 2.379852 1_555
Na1_1 O1_5 2.556952 1_555
Na1_1 O1_1 2.556952 1_555
Na1_1 Na1_5 2.948361 1_455
Na1_1 Na1_5 2.948361 1_555
Na1_2 O2_3 2.330605 1_555
Na1_2 O3_6 2.379852 1_555
Na1_2 O3_2 2.379852 1_555
Na1_2 O1_2 2.556952 1_555
Na1_2 O1_6 2.556952 1_555
Na1_2 Na1_6 2.948361 1_455
Na1_2 Na1_6 2.948361 1_555
Na1_3 O2_2 2.330605 1_556
Na1_3 O3_7 2.379852 1_555
Na1_3 O3_3 2.379852 1_555
Na1_3 O1_3 2.556952 1_555
Na1_3 O1_7 2.556952 1_555
Na1_3 Na1_7 2.948361 1_455
Na1_3 Na1_7 2.948361 1_555
Na1_4 O2_5 2.330605 1_555
Na1_4 O3_0 2.379852 1_655
Na1_4 O3_4 2.379852 1_555
Na1_4 O1_0 2.556952 1_655
Na1_4 O1_4 2.556952 1_555
Na1_5 O2_4 2.330605 1_556
Na1_5 O3_1 2.379852 1_655
Na1_5 O3_5 2.379852 1_555
Na1_5 O1_1 2.556952 1_655
Na1_5 O1_5 2.556952 1_555
Na1_6 O2_7 2.330605 1_555
Na1_6 O3_2 2.379852 1_655
Na1_6 O3_6 2.379852 1_555
Na1_6 O1_2 2.556952 1_655
Na1_6 O1_6 2.556952 1_555
Na1_7 O2_6 2.330605 1_556
Na1_7 O3_3 2.379852 1_655
Na1_7 O3_7 2.379852 1_555
Na1_7 O1_3 2.556952 1_655
Na1_7 O1_7 2.556952 1_555
Na2_0 O3_0 2.303991 1_555
Na2_0 O0_4 2.390537 1_455
Na2_0 O0_0 2.390537 1_555
Na2_0 O1_0 2.413324 1_555
Na2_0 Na3_4 2.931409 1_455
Na2_0 Na3_0 2.931409 1_555
Na2_0 Na2_4 2.948361 1_455
Na2_0 Na2_4 2.948361 1_555
Na2_1 O3_1 2.303991 1_555
Na2_1 O0_5 2.390537 1_455
Na2_1 O0_1 2.390537 1_555
Na2_1 O1_1 2.413324 1_555
Na2_1 Na3_5 2.931409 1_455
Na2_1 Na3_1 2.931409 1_555
Na2_1 Na2_5 2.948361 1_455
Na2_1 Na2_5 2.948361 1_555
Na2_2 O3_2 2.303991 1_555
Na2_2 O0_6 2.390537 1_455
Na2_2 O0_2 2.390537 1_555
Na2_2 O1_2 2.413324 1_555
Na2_2 Na3_6 2.931409 1_455
Na2_2 Na3_2 2.931409 1_555
Na2_2 Na2_6 2.948361 1_555
Na2_2 Na2_6 2.948361 1_455
Na2_3 O3_3 2.303991 1_555
Na2_3 O0_7 2.390537 1_455
Na2_3 O0_3 2.390537 1_555
Na2_3 O1_3 2.413324 1_555
Na2_3 Na3_7 2.931409 1_455
Na2_3 Na3_3 2.931409 1_555
Na2_3 Na2_7 2.948361 1_455
Na2_3 Na2_7 2.948361 1_555
Na2_4 O3_4 2.303991 1_555
Na2_4 O0_0 2.390537 1_555
Na2_4 O0_4 2.390537 1_555
Na2_4 O1_4 2.413324 1_555
Na2_4 Na3_0 2.931409 1_555
Na2_4 Na3_4 2.931409 1_555
Na2_5 O3_5 2.303991 1_555
Na2_5 O0_1 2.390537 1_555
Na2_5 O0_5 2.390537 1_555
Na2_5 O1_5 2.413324 1_555
Na2_5 Na3_1 2.931409 1_555
Na2_5 Na3_5 2.931409 1_555
Na2_6 O3_6 2.303991 1_555
Na2_6 O0_2 2.390537 1_555
Na2_6 O0_6 2.390537 1_555
Na2_6 O1_6 2.413324 1_555
Na2_6 Na3_2 2.931409 1_555
Na2_6 Na3_6 2.931409 1_555
Na2_7 O3_7 2.303991 1_555
Na2_7 O0_3 2.390537 1_555
Na2_7 O0_7 2.390537 1_555
Na2_7 O1_7 2.413324 1_555
Na2_7 Na3_3 2.931409 1_555
Na2_7 Na3_7 2.931409 1_555
Na3_0 O2_0 2.303991 1_555
Na3_0 O1_0 2.390537 1_555
Na3_0 O1_4 2.390537 1_555
Na3_0 O0_0 2.413324 1_555
Na3_0 Na3_4 2.948361 1_455
Na3_0 Na3_4 2.948361 1_555
Na3_1 O2_1 2.303991 1_555
Na3_1 O1_5 2.390537 1_555
Na3_1 O1_1 2.390537 1_555
Na3_1 O0_1 2.413324 1_555
Na3_1 Na3_5 2.948361 1_455
Na3_1 Na3_5 2.948361 1_555
Na3_2 O2_2 2.303991 1_555
Na3_2 O1_2 2.390537 1_555
Na3_2 O1_6 2.390537 1_555
Na3_2 O0_2 2.413324 1_555
Na3_2 Na3_6 2.948361 1_455
Na3_2 Na3_6 2.948361 1_555
Na3_3 O2_3 2.303991 1_555
Na3_3 O1_7 2.390537 1_555
Na3_3 O1_3 2.390537 1_555
Na3_3 O0_3 2.413324 1_555
Na3_3 Na3_7 2.948361 1_455
Na3_3 Na3_7 2.948361 1_555
Na3_4 O2_4 2.303991 1_555
Na3_4 O1_0 2.390537 1_655
Na3_4 O1_4 2.390537 1_555
Na3_4 O0_4 2.413324 1_555
Na3_5 O2_5 2.303991 1_555
Na3_5 O1_1 2.390537 1_655
Na3_5 O1_5 2.390537 1_555
Na3_5 O0_5 2.413324 1_555
Na3_6 O2_6 2.303991 1_555
Na3_6 O1_2 2.390537 1_655
Na3_6 O1_6 2.390537 1_555
Na3_6 O0_6 2.413324 1_555
Na3_7 O2_7 2.303991 1_555
Na3_7 O1_3 2.390537 1_655
Na3_7 O1_7 2.390537 1_555
Na3_7 O0_7 2.413324 1_555
Cu0_0 O2_4 1.969921 1_455
Cu0_0 O2_0 1.969921 1_555
Cu0_0 O0_6 2.022888 1_445
Cu0_0 O0_2 2.022888 1_545
Cu0_0 Na2_2 2.712451 1_545
Cu0_0 Na0_2 2.811494 1_545
Cu0_1 O2_5 1.969921 1_455
Cu0_1 O2_1 1.969921 1_555
Cu0_1 O0_7 2.022888 1_445
Cu0_1 O0_3 2.022888 1_545
Cu0_1 Na2_3 2.712451 1_545
Cu0_1 Na0_3 2.811494 1_545
Cu0_2 O2_6 1.969921 1_455
Cu0_2 O2_2 1.969921 1_555
Cu0_2 O0_4 2.022888 1_455
Cu0_2 O0_0 2.022888 1_555
Cu0_2 Na2_0 2.712451 1_555
Cu0_2 Na0_0 2.811494 1_555
Cu0_3 O2_7 1.969921 1_455
Cu0_3 O2_3 1.969921 1_555
Cu0_3 O0_5 2.022888 1_455
Cu0_3 O0_1 2.022888 1_555
Cu0_3 Na2_1 2.712451 1_555
Cu0_3 Na0_1 2.811494 1_555
Cu0_4 O2_0 1.969921 1_555
Cu0_4 O2_4 1.969921 1_555
Cu0_4 O0_2 2.022888 1_545
Cu0_4 O0_6 2.022888 1_545
Cu0_4 Na2_6 2.712451 1_545
Cu0_4 Na0_6 2.811494 1_545
Cu0_5 O2_1 1.969921 1_555
Cu0_5 O2_5 1.969921 1_555
Cu0_5 O0_3 2.022888 1_545
Cu0_5 O0_7 2.022888 1_545
Cu0_5 Na2_7 2.712451 1_545
Cu0_5 Na0_7 2.811494 1_545
Cu0_6 O2_2 1.969921 1_555
Cu0_6 O2_6 1.969921 1_555
Cu0_6 O0_0 2.022888 1_555
Cu0_6 O0_4 2.022888 1_555
Cu0_6 Na2_4 2.712451 1_555
Cu0_6 Na0_4 2.811494 1_555
Cu0_7 O2_3 1.969921 1_555
Cu0_7 O2_7 1.969921 1_555
Cu0_7 O0_1 2.022888 1_555
Cu0_7 O0_5 2.022888 1_555
Cu0_7 Na2_5 2.712451 1_555
Cu0_7 Na0_5 2.811494 1_555
Cu1_0 O3_0 1.969921 1_555
Cu1_0 O3_4 1.969921 1_555
Cu1_0 O1_6 2.022888 1_555
Cu1_0 O1_2 2.022888 1_555
Cu1_0 Na3_2 2.712451 1_555
Cu1_0 Na1_2 2.811494 1_555
Cu1_1 O3_1 1.969921 1_555
Cu1_1 O3_5 1.969921 1_555
Cu1_1 O1_3 2.022888 1_555
Cu1_1 O1_7 2.022888 1_555
Cu1_1 Na3_3 2.712451 1_555
Cu1_1 Na1_3 2.811494 1_555
Cu1_2 O3_2 1.969921 1_555
Cu1_2 O3_6 1.969921 1_555
Cu1_2 O1_0 2.022888 1_565
Cu1_2 O1_4 2.022888 1_565
Cu1_2 Na3_0 2.712451 1_565
Cu1_2 Na1_0 2.811494 1_565
Cu1_3 O3_3 1.969921 1_555
Cu1_3 O3_7 1.969921 1_555
Cu1_3 O1_1 2.022888 1_565
Cu1_3 O1_5 2.022888 1_565
Cu1_3 Na3_1 2.712451 1_565
Cu1_3 Na1_1 2.811494 1_565
Cu1_4 O3_0 1.969921 1_655
Cu1_4 O3_4 1.969921 1_555
Cu1_4 O1_2 2.022888 1_655
Cu1_4 O1_6 2.022888 1_555
Cu1_4 Na3_6 2.712451 1_555
Cu1_4 Na1_6 2.811494 1_555
Cu1_5 O3_1 1.969921 1_655
Cu1_5 O3_5 1.969921 1_555
Cu1_5 O1_3 2.022888 1_655
Cu1_5 O1_7 2.022888 1_555
Cu1_5 Na3_7 2.712451 1_555
Cu1_5 Na1_7 2.811494 1_555
Cu1_6 O3_2 1.969921 1_655
Cu1_6 O3_6 1.969921 1_555
Cu1_6 O1_0 2.022888 1_665
Cu1_6 O1_4 2.022888 1_565
Cu1_6 Na3_4 2.712451 1_565
Cu1_6 Na1_4 2.811494 1_565
Cu1_7 O3_3 1.969921 1_655
Cu1_7 O3_7 1.969921 1_555
Cu1_7 O1_1 2.022888 1_665
Cu1_7 O1_5 2.022888 1_565
Cu1_7 Na3_5 2.712451 1_565
Cu1_7 Na1_5 2.811494 1_565
