# generated using pymatgen
data_FeMo2H7O11
_symmetry_space_group_name_H-M   'P 1'
_cell_length_a   5.86658777
_cell_length_b   7.87423550
_cell_length_c   12.09792604
_cell_angle_alpha   106.21452103
_cell_angle_beta   96.70740301
_cell_angle_gamma   72.23284399
_symmetry_Int_Tables_number   1
_chemical_formula_structural   FeMo2H7O11
_chemical_formula_sum   'Fe2 Mo4 H14 O22'
_cell_volume   510.73248132
_cell_formula_units_Z   2
loop_
 _symmetry_equiv_pos_site_id
 _symmetry_equiv_pos_as_xyz
  1  'x, y, z'
loop_
 _atom_site_type_symbol
 _atom_site_label
 _atom_site_symmetry_multiplicity
 _atom_site_fract_x
 _atom_site_fract_y
 _atom_site_fract_z
 _atom_site_occupancy
  Fe  Fe0  1  0.25764800  0.48533100  0.23794000  1
  Fe  Fe1  1  0.75809000  0.48547600  0.73815300  1
  Mo  Mo0  1  0.63178800  0.78336700  0.28300900  1
  Mo  Mo1  1  0.13179800  0.78338200  0.78279400  1
  Mo  Mo2  1  0.87765400  0.20633900  0.21107400  1
  Mo  Mo3  1  0.37779300  0.20633100  0.71106300  1
  H  H0  1  0.65943700  0.35050300  0.89525000  1
  H  H1  1  0.15902800  0.35050600  0.39515500  1
  H  H2  1  0.94176900  0.29428200  0.89923600  1
  H  H3  1  0.44141800  0.29465300  0.39942100  1
  H  H4  1  0.34608800  0.63392200  0.08673200  1
  H  H5  1  0.84617300  0.63378500  0.58666000  1
  H  H6  1  0.08036000  0.72907400  0.11605100  1
  H  H7  1  0.58050900  0.72908100  0.61605800  1
  H  H8  1  0.81679100  0.02235900  0.46458600  1
  H  H9  1  0.31640200  0.02268300  0.96451000  1
  H  H10  1  0.48025900  0.13540400  0.06584000  1
  H  H11  1  0.98075700  0.13523300  0.56594700  1
  H  H12  1  0.50249500  0.91714200  0.06166800  1
  H  H13  1  0.00327700  0.91679800  0.56157500  1
  O  O0  1  0.79915800  0.39528500  0.89012300  1
  O  O1  1  0.29864300  0.39527900  0.38992100  1
  O  O2  1  0.20002500  0.60406000  0.09840200  1
  O  O3  1  0.70007200  0.60401300  0.59840400  1
  O  O4  1  0.08980500  0.00847100  0.87811000  1
  O  O5  1  0.59108100  0.00781100  0.37894900  1
  O  O6  1  0.95738200  0.96459100  0.15867400  1
  O  O7  1  0.45796000  0.96455100  0.65870300  1
  O  O8  1  0.47371400  0.01173200  0.01206800  1
  O  O9  1  0.97427200  0.01156100  0.51217000  1
  O  O10  1  0.44529500  0.66286400  0.31914000  1
  O  O11  1  0.94535400  0.66308800  0.81926200  1
  O  O12  1  0.94293800  0.65525000  0.29619700  1
  O  O13  1  0.44304700  0.65532000  0.79629500  1
  O  O14  1  0.58147400  0.29794800  0.65800600  1
  O  O15  1  0.08146700  0.29783900  0.15797900  1
  O  O16  1  0.05642500  0.29905100  0.66680600  1
  O  O17  1  0.55632500  0.29908200  0.16681400  1
  O  O18  1  0.54919900  0.79068800  0.13691300  1
  O  O19  1  0.04986300  0.78962500  0.63653900  1
  O  O20  1  0.41350300  0.26513900  0.86192200  1
  O  O21  1  0.91346400  0.26509800  0.36188200  1
loop_
_geom_bond_atom_site_label_1
_geom_bond_atom_site_label_2
_geom_bond_distance
_geom_bond_site_symmetry_2
Fe0 O12 1.991324 1_455
Fe0 O17 2.010133 1_555
Fe0 O10 2.012650 1_555
Fe0 O15 2.020849 1_555
Fe0 O2 2.096012 1_555
Fe0 O1 2.112355 1_555
Fe1 O13 1.992264 1_555
Fe1 O16 2.010082 1_655
Fe1 O11 2.011272 1_555
Fe1 O14 2.023279 1_555
Fe1 O3 2.097241 1_555
Fe1 O0 2.112785 1_555
Mo0 O5 1.785839 1_565
Mo0 O18 1.789357 1_555
Mo0 O10 1.807026 1_555
Mo0 O12 1.809204 1_555
Mo1 O4 1.786136 1_565
Mo1 O19 1.788760 1_555
Mo1 O11 1.807395 1_455
Mo1 O13 1.810047 1_555
Mo2 O21 1.756484 1_555
Mo2 O6 1.759605 1_545
Mo2 O15 1.823461 1_655
Mo2 O17 1.875115 1_555
Mo3 O20 1.757028 1_555
Mo3 O7 1.759733 1_545
Mo3 O14 1.823220 1_555
Mo3 O16 1.875271 1_555
H0 O0 1.000284 1_555
H0 O20 1.732244 1_555
H1 O1 0.999991 1_555
H1 O21 1.730420 1_455
H2 O0 0.982847 1_555
H2 O4 2.102922 1_655
H3 O1 0.982821 1_555
H3 O5 2.112317 1_555
H4 O2 0.989574 1_555
H4 O18 1.903247 1_555
H5 O3 0.989681 1_555
H5 O19 1.900221 1_655
H6 O2 1.001663 1_555
H6 O6 1.721025 1_455
H7 O3 1.001711 1_555
H7 O7 1.720403 1_555
H8 O9 1.023389 1_555
H8 O5 1.595518 1_555
H9 O8 1.022392 1_556
H9 O4 1.604102 1_555
H10 O8 1.017933 1_555
H10 O17 1.642223 1_555
H10 O15 2.517676 1_555
H11 O9 1.017866 1_555
H11 O16 1.641276 1_655
H11 O14 2.519882 1_555
H12 O8 1.045238 1_565
H12 O18 1.475347 1_555
H13 O9 1.044422 1_465
H13 O19 1.477233 1_555
