# generated using pymatgen
data_ScC2
_symmetry_space_group_name_H-M   'P 1'
_cell_length_a   5.44006097
_cell_length_b   5.44006097
_cell_length_c   9.03106423
_cell_angle_alpha   72.47114657
_cell_angle_beta   90.00000000
_cell_angle_gamma   120.00000000
_symmetry_Int_Tables_number   1
_chemical_formula_structural   ScC2
_chemical_formula_sum   'Sc8 C16'
_cell_volume   217.01198071
_cell_formula_units_Z   8
loop_
 _symmetry_equiv_pos_site_id
 _symmetry_equiv_pos_as_xyz
  1  'x, y, z'
loop_
 _atom_site_type_symbol
 _atom_site_label
 _atom_site_symmetry_multiplicity
 _atom_site_fract_x
 _atom_site_fract_y
 _atom_site_fract_z
 _atom_site_occupancy
  Sc  Sc0_0  1  0.00000000  0.00000000  0.00000000  1
  Sc  Sc0_1  1  0.00000000  0.00000000  0.50000000  1
  Sc  Sc0_2  1  0.00000000  0.50000000  0.00000000  1
  Sc  Sc0_3  1  0.00000000  0.50000000  0.50000000  1
  Sc  Sc0_4  1  0.50000000  0.00000000  0.00000000  1
  Sc  Sc0_5  1  0.50000000  0.00000000  0.50000000  1
  Sc  Sc0_6  1  0.50000000  0.50000000  0.00000000  1
  Sc  Sc0_7  1  0.50000000  0.50000000  0.50000000  1
  C  C0_0  1  0.09208500  0.18417000  0.22374500  1
  C  C0_1  1  0.09208500  0.18417000  0.72374500  1
  C  C0_2  1  0.09208500  0.68417000  0.22374500  1
  C  C0_3  1  0.09208500  0.68417000  0.72374500  1
  C  C0_4  1  0.59208500  0.18417000  0.22374500  1
  C  C0_5  1  0.59208500  0.18417000  0.72374500  1
  C  C0_6  1  0.59208500  0.68417000  0.22374500  1
  C  C0_7  1  0.59208500  0.68417000  0.72374500  1
  C  C1_0  1  0.40791500  0.31583000  0.27625500  1
  C  C1_1  1  0.40791500  0.31583000  0.77625500  1
  C  C1_2  1  0.40791500  0.81583000  0.27625500  1
  C  C1_3  1  0.40791500  0.81583000  0.77625500  1
  C  C1_4  1  0.90791500  0.31583000  0.27625500  1
  C  C1_5  1  0.90791500  0.31583000  0.77625500  1
  C  C1_6  1  0.90791500  0.81583000  0.27625500  1
  C  C1_7  1  0.90791500  0.81583000  0.77625500  1
loop_
_geom_bond_atom_site_label_1
_geom_bond_atom_site_label_2
_geom_bond_distance
_geom_bond_site_symmetry_2
Sc0_0 Sc0_4 2.720030 1_455
Sc0_0 Sc0_2 2.720030 1_545
Sc0_0 Sc0_6 2.720030 1_445
Sc0_0 Sc0_2 2.720030 1_555
Sc0_0 Sc0_6 2.720030 1_555
Sc0_0 Sc0_4 2.720030 1_555
Sc0_1 Sc0_5 2.720030 1_455
Sc0_1 Sc0_3 2.720030 1_545
Sc0_1 Sc0_3 2.720030 1_555
Sc0_1 Sc0_7 2.720030 1_445
Sc0_1 Sc0_7 2.720030 1_555
Sc0_1 Sc0_5 2.720030 1_555
Sc0_2 Sc0_4 2.720030 1_455
Sc0_2 Sc0_6 2.720030 1_555
Sc0_2 Sc0_6 2.720030 1_455
Sc0_2 Sc0_4 2.720030 1_565
Sc0_3 Sc0_5 2.720030 1_455
Sc0_3 Sc0_7 2.720030 1_455
Sc0_3 Sc0_7 2.720030 1_555
Sc0_3 Sc0_5 2.720030 1_565
Sc0_4 Sc0_6 2.720030 1_545
Sc0_4 Sc0_6 2.720030 1_555
Sc0_5 Sc0_7 2.720030 1_545
Sc0_5 Sc0_7 2.720030 1_555
C0_0 C1_6 1.632138 1_445
C0_0 C1_0 1.632138 1_555
C0_0 C1_4 1.632138 1_455
C0_0 Sc0_1 2.339137 1_555
C0_0 Sc0_6 2.460770 1_555
C0_0 Sc0_2 2.460770 1_555
C0_0 Sc0_0 2.460770 1_555
C0_1 C1_7 1.632138 1_445
C0_1 C1_5 1.632138 1_455
C0_1 C1_1 1.632138 1_555
C0_1 Sc0_0 2.339137 1_556
C0_1 Sc0_1 2.460770 1_555
C0_1 Sc0_3 2.460770 1_555
C0_1 Sc0_7 2.460770 1_555
C0_2 C1_6 1.632138 1_455
C0_2 C1_2 1.632138 1_555
C0_2 C1_4 1.632138 1_455
C0_2 Sc0_3 2.339137 1_555
C0_2 Sc0_0 2.460770 1_565
C0_2 Sc0_4 2.460770 1_565
C0_2 Sc0_2 2.460770 1_555
C0_3 C1_7 1.632138 1_455
C0_3 C1_3 1.632138 1_555
C0_3 C1_5 1.632138 1_455
C0_3 Sc0_2 2.339137 1_556
C0_3 Sc0_1 2.460770 1_565
C0_3 Sc0_5 2.460770 1_565
C0_3 Sc0_3 2.460770 1_555
C0_4 C1_2 1.632138 1_545
C0_4 C1_4 1.632138 1_555
C0_4 C1_0 1.632138 1_555
C0_4 Sc0_5 2.339137 1_555
C0_4 Sc0_4 2.460770 1_555
C0_4 Sc0_2 2.460770 1_655
C0_4 Sc0_6 2.460770 1_555
C0_5 C1_3 1.632138 1_545
C0_5 C1_5 1.632138 1_555
C0_5 C1_1 1.632138 1_555
C0_5 Sc0_4 2.339137 1_556
C0_5 Sc0_5 2.460770 1_555
C0_5 Sc0_3 2.460770 1_655
C0_5 Sc0_7 2.460770 1_555
C0_6 C1_6 1.632138 1_555
C0_6 C1_0 1.632138 1_555
C0_6 C1_2 1.632138 1_555
C0_6 Sc0_7 2.339137 1_555
C0_6 Sc0_0 2.460770 1_665
C0_6 Sc0_4 2.460770 1_565
C0_6 Sc0_6 2.460770 1_555
C0_7 C1_7 1.632138 1_555
C0_7 C1_1 1.632138 1_555
C0_7 C1_3 1.632138 1_555
C0_7 Sc0_6 2.339137 1_556
C0_7 Sc0_1 2.460770 1_665
C0_7 Sc0_5 2.460770 1_565
C0_7 Sc0_7 2.460770 1_555
C1_0 Sc0_6 2.339137 1_555
C1_0 Sc0_7 2.460770 1_555
C1_0 Sc0_1 2.460770 1_555
C1_0 Sc0_5 2.460770 1_555
C1_1 Sc0_7 2.339137 1_555
C1_1 Sc0_6 2.460770 1_556
C1_1 Sc0_0 2.460770 1_556
C1_1 Sc0_4 2.460770 1_556
C1_2 Sc0_4 2.339137 1_565
C1_2 Sc0_5 2.460770 1_565
C1_2 Sc0_7 2.460770 1_555
C1_2 Sc0_3 2.460770 1_555
C1_3 Sc0_5 2.339137 1_565
C1_3 Sc0_4 2.460770 1_566
C1_3 Sc0_6 2.460770 1_556
C1_3 Sc0_2 2.460770 1_556
C1_4 Sc0_2 2.339137 1_655
C1_4 Sc0_3 2.460770 1_655
C1_4 Sc0_5 2.460770 1_555
C1_4 Sc0_1 2.460770 1_655
C1_5 Sc0_3 2.339137 1_655
C1_5 Sc0_2 2.460770 1_656
C1_5 Sc0_0 2.460770 1_656
C1_5 Sc0_4 2.460770 1_556
C1_6 Sc0_0 2.339137 1_665
C1_6 Sc0_3 2.460770 1_655
C1_6 Sc0_7 2.460770 1_555
C1_6 Sc0_1 2.460770 1_665
C1_7 Sc0_1 2.339137 1_665
C1_7 Sc0_0 2.460770 1_666
C1_7 Sc0_2 2.460770 1_656
C1_7 Sc0_6 2.460770 1_556
