# generated using pymatgen
data_Nd2SeOF2
_symmetry_space_group_name_H-M   'P 1'
_cell_length_a   13.92576316
_cell_length_b   13.92576316
_cell_length_c   3.90812700
_cell_angle_alpha   90.00000000
_cell_angle_beta   90.00000000
_cell_angle_gamma   120.00000552
_symmetry_Int_Tables_number   1
_chemical_formula_structural   Nd2SeOF2
_chemical_formula_sum   'Nd12 Se6 O6 F12'
_cell_volume   656.35271394
_cell_formula_units_Z   6
loop_
 _symmetry_equiv_pos_site_id
 _symmetry_equiv_pos_as_xyz
  1  'x, y, z'
loop_
 _atom_site_type_symbol
 _atom_site_label
 _atom_site_symmetry_multiplicity
 _atom_site_fract_x
 _atom_site_fract_y
 _atom_site_fract_z
 _atom_site_occupancy
  Nd  Nd0  1  0.60292600  0.48433100  0.75000000  1
  Nd  Nd1  1  0.51566900  0.11859500  0.75000000  1
  Nd  Nd2  1  0.88140500  0.39707400  0.75000000  1
  Nd  Nd3  1  0.39707400  0.51566900  0.25000000  1
  Nd  Nd4  1  0.48433100  0.88140500  0.25000000  1
  Nd  Nd5  1  0.11859500  0.60292600  0.25000000  1
  Nd  Nd6  1  0.94498100  0.71027500  0.75000000  1
  Nd  Nd7  1  0.28972500  0.23470600  0.75000000  1
  Nd  Nd8  1  0.76529400  0.05501900  0.75000000  1
  Nd  Nd9  1  0.05501900  0.28972500  0.25000000  1
  Nd  Nd10  1  0.71027500  0.76529400  0.25000000  1
  Nd  Nd11  1  0.23470600  0.94498100  0.25000000  1
  Se  Se0  1  0.28186700  0.79467700  0.75000000  1
  Se  Se1  1  0.20532300  0.48718900  0.75000000  1
  Se  Se2  1  0.51281100  0.71813300  0.75000000  1
  Se  Se3  1  0.71813300  0.20532300  0.25000000  1
  Se  Se4  1  0.79467700  0.51281100  0.25000000  1
  Se  Se5  1  0.48718900  0.28186700  0.25000000  1
  O  O0  1  0.01490900  0.58727600  0.75000000  1
  O  O1  1  0.41272400  0.42763300  0.75000000  1
  O  O2  1  0.57236700  0.98509100  0.75000000  1
  O  O3  1  0.98509100  0.41272400  0.25000000  1
  O  O4  1  0.58727600  0.57236700  0.25000000  1
  O  O5  1  0.42763300  0.01490900  0.25000000  1
  F  F0  1  0.10871500  0.89803100  0.75000000  1
  F  F1  1  0.10196900  0.21068400  0.75000000  1
  F  F2  1  0.78931600  0.89128500  0.75000000  1
  F  F3  1  0.89128500  0.10196900  0.25000000  1
  F  F4  1  0.89803100  0.78931600  0.25000000  1
  F  F5  1  0.21068400  0.10871500  0.25000000  1
  F  F6  1  0.75176900  0.68397600  0.75000000  1
  F  F7  1  0.31602400  0.06779300  0.75000000  1
  F  F8  1  0.93220700  0.24823100  0.75000000  1
  F  F9  1  0.24823100  0.31602400  0.25000000  1
  F  F10  1  0.68397600  0.93220700  0.25000000  1
  F  F11  1  0.06779300  0.75176900  0.25000000  1
loop_
_geom_bond_atom_site_label_1
_geom_bond_atom_site_label_2
_geom_bond_distance
_geom_bond_site_symmetry_2
Nd0 O1 2.355364 1_555
Nd0 O4 2.374036 1_556
Nd0 O4 2.374036 1_555
Nd0 Se5 3.133880 1_556
Nd0 Se5 3.133880 1_555
Nd0 Se4 3.169701 1_556
Nd0 Se4 3.169701 1_555
Nd1 O2 2.355365 1_545
Nd1 O5 2.374036 1_556
Nd1 O5 2.374036 1_555
Nd1 Se3 3.133879 1_556
Nd1 Se3 3.133879 1_555
Nd1 Se5 3.169712 1_556
Nd1 Se5 3.169712 1_555
Nd2 O0 2.355364 1_655
Nd2 O3 2.374036 1_555
Nd2 O3 2.374036 1_556
Nd2 Se4 3.133889 1_556
Nd2 Se4 3.133889 1_555
Nd2 Se3 3.169705 1_556
Nd2 Se3 3.169705 1_555
Nd3 O4 2.355364 1_555
Nd3 O1 2.374036 1_554
Nd3 O1 2.374036 1_555
Nd3 Se2 3.133880 1_554
Nd3 Se2 3.133880 1_555
Nd3 Se1 3.169701 1_554
Nd3 Se1 3.169701 1_555
Nd4 O5 2.355365 1_565
Nd4 O2 2.374036 1_554
Nd4 O2 2.374036 1_555
Nd4 Se0 3.133879 1_554
Nd4 Se0 3.133879 1_555
Nd4 Se2 3.169712 1_555
Nd4 Se2 3.169712 1_554
Nd5 O3 2.355364 1_455
Nd5 O0 2.374036 1_554
Nd5 O0 2.374036 1_555
Nd5 Se1 3.133889 1_554
Nd5 Se1 3.133889 1_555
Nd5 Se0 3.169705 1_554
Nd5 Se0 3.169705 1_555
Nd6 O0 2.355873 1_655
Nd6 Se4 3.163123 1_556
Nd6 Se4 3.163123 1_555
Nd7 O1 2.355873 1_555
Nd7 Se5 3.163120 1_555
Nd7 Se5 3.163120 1_556
Nd8 O2 2.355873 1_545
Nd8 Se3 3.163131 1_556
Nd8 Se3 3.163131 1_555
Nd9 O3 2.355873 1_455
Nd9 Se1 3.163123 1_554
Nd9 Se1 3.163123 1_555
Nd10 O4 2.355873 1_555
Nd10 Se2 3.163120 1_555
Nd10 Se2 3.163120 1_554
Nd11 O5 2.355873 1_565
Nd11 Se0 3.163131 1_555
Nd11 Se0 3.163131 1_554
Se0 Se1 3.861016 1_555
Se0 Se2 3.861017 1_555
Se1 Se2 3.861016 1_555
Se3 Se4 3.861016 1_555
Se3 Se5 3.861017 1_555
Se4 Se5 3.861016 1_555
O0 Se4 3.334553 1_456
O0 Se4 3.334553 1_455
O0 Se0 3.380101 1_555
O1 Se5 3.334543 1_556
O1 Se5 3.334543 1_555
O1 Se1 3.380092 1_555
O2 Se3 3.334551 1_566
O2 Se3 3.334551 1_565
O2 Se2 3.380105 1_555
O3 Se1 3.334553 1_654
O3 Se1 3.334553 1_655
O3 Se3 3.380101 1_555
O4 Se2 3.334543 1_555
O4 Se2 3.334543 1_554
O4 Se4 3.380092 1_555
O5 Se0 3.334551 1_544
O5 Se0 3.334551 1_545
O5 Se5 3.380105 1_555
F0 Nd6 2.464470 1_455
F0 Nd11 2.485367 1_556
F0 Nd11 2.485367 1_555
F0 F7 2.664263 1_565
F0 F11 2.670392 1_555
F0 F11 2.670392 1_556
F0 F4 3.205706 1_455
F0 F4 3.205706 1_456
F0 F5 3.205706 1_566
F0 F5 3.205706 1_565
F0 Se0 3.369909 1_555
F1 Nd7 2.464470 1_555
F1 Nd9 2.485367 1_555
F1 Nd9 2.485367 1_556
F1 F8 2.664263 1_455
F1 F9 2.670392 1_556
F1 F9 2.670392 1_555
F1 F3 3.205706 1_455
F1 F3 3.205706 1_456
F1 F5 3.205706 1_556
F1 F5 3.205706 1_555
F1 Se1 3.369895 1_555
F2 Nd8 2.464471 1_565
F2 Nd10 2.485367 1_555
F2 Nd10 2.485367 1_556
F2 F6 2.664263 1_555
F2 F3 3.205706 1_566
F2 F3 3.205706 1_565
F2 F4 3.205706 1_555
F2 F4 3.205706 1_556
F2 Se2 3.369897 1_555
F3 Nd9 2.464470 1_655
F3 Nd8 2.485367 1_554
F3 Nd8 2.485367 1_555
F3 F8 2.670392 1_554
F3 F8 2.670392 1_555
F3 Se3 3.369909 1_555
F4 Nd10 2.464470 1_555
F4 Nd6 2.485367 1_555
F4 Nd6 2.485367 1_554
F4 F6 2.670392 1_554
F4 F6 2.670392 1_555
F4 Se4 3.369895 1_555
F5 Nd11 2.464471 1_545
F5 Nd7 2.485367 1_554
F5 Nd7 2.485367 1_555
F5 F9 2.664263 1_555
F5 F7 2.670392 1_555
F5 F7 2.670392 1_554
F5 Se5 3.369897 1_555
F6 Nd10 2.467584 1_555
F6 Nd10 2.467584 1_556
F6 Nd0 2.502634 1_555
F6 Nd6 2.527487 1_555
F6 O4 2.814428 1_556
F6 O4 2.814428 1_555
F6 Se4 3.358755 1_555
F6 Se4 3.358755 1_556
F7 Nd11 2.467584 1_545
F7 Nd11 2.467584 1_546
F7 Nd1 2.502634 1_555
F7 Nd7 2.527487 1_555
F7 O5 2.814428 1_556
F7 O5 2.814428 1_555
F7 Se5 3.358762 1_555
F7 Se5 3.358762 1_556
F8 Nd9 2.467584 1_655
F8 Nd9 2.467584 1_656
F8 Nd2 2.502635 1_555
F8 Nd8 2.527487 1_555
F8 O3 2.814428 1_555
F8 O3 2.814428 1_556
F8 Se3 3.358766 1_556
F8 Se3 3.358766 1_555
F9 Nd7 2.467584 1_555
F9 Nd7 2.467584 1_554
F9 Nd3 2.502634 1_555
F9 Nd9 2.527487 1_555
F9 O1 2.814428 1_555
F9 O1 2.814428 1_554
F9 Se1 3.358755 1_555
F9 Se1 3.358755 1_554
F10 Nd8 2.467584 1_564
F10 Nd8 2.467584 1_565
F10 Nd4 2.502634 1_555
F10 Nd10 2.527487 1_555
F10 F3 2.664263 1_565
F10 F2 2.670392 1_555
F10 F2 2.670392 1_554
F10 O2 2.814428 1_554
F10 O2 2.814428 1_555
F10 Se2 3.358762 1_554
F10 Se2 3.358762 1_555
F11 Nd6 2.467584 1_454
F11 Nd6 2.467584 1_455
F11 Nd5 2.502635 1_555
F11 Nd11 2.527487 1_555
F11 F4 2.664263 1_455
F11 O0 2.814428 1_555
F11 O0 2.814428 1_554
F11 Se0 3.358766 1_554
F11 Se0 3.358766 1_555
