# generated using pymatgen
data_CsKC2
_symmetry_space_group_name_H-M   'P 1'
_cell_length_a   5.89163400
_cell_length_b   8.21703900
_cell_length_c   9.21621600
_cell_angle_alpha   90.00000000
_cell_angle_beta   90.00000000
_cell_angle_gamma   90.00000000
_symmetry_Int_Tables_number   1
_chemical_formula_structural   CsKC2
_chemical_formula_sum   'Cs4 K4 C8'
_cell_volume   446.17347996
_cell_formula_units_Z   4
loop_
 _symmetry_equiv_pos_site_id
 _symmetry_equiv_pos_as_xyz
  1  'x, y, z'
loop_
 _atom_site_type_symbol
 _atom_site_label
 _atom_site_symmetry_multiplicity
 _atom_site_fract_x
 _atom_site_fract_y
 _atom_site_fract_z
 _atom_site_occupancy
  Cs  Cs0  1  0.75000000  0.01396000  0.67985100  1
  Cs  Cs1  1  0.75000000  0.51396000  0.82014900  1
  Cs  Cs2  1  0.25000000  0.98604000  0.32014900  1
  Cs  Cs3  1  0.25000000  0.48604000  0.17985100  1
  K  K0  1  0.75000000  0.64426500  0.41985000  1
  K  K1  1  0.75000000  0.14426500  0.08015000  1
  K  K2  1  0.25000000  0.35573500  0.58015000  1
  K  K3  1  0.25000000  0.85573500  0.91985000  1
  C  C0  1  0.85749000  0.27331800  0.39040000  1
  C  C1  1  0.64251000  0.77331800  0.10960000  1
  C  C2  1  0.35749000  0.72668200  0.60960000  1
  C  C3  1  0.14251000  0.22668200  0.89040000  1
  C  C4  1  0.14251000  0.72668200  0.60960000  1
  C  C5  1  0.35749000  0.22668200  0.89040000  1
  C  C6  1  0.64251000  0.27331800  0.39040000  1
  C  C7  1  0.85749000  0.77331800  0.10960000  1
loop_
_geom_bond_atom_site_label_1
_geom_bond_atom_site_label_2
_geom_bond_distance
_geom_bond_site_symmetry_2
Cs0 K1 3.841478 1_556
Cs0 K0 3.869123 1_545
Cs0 K3 3.906486 1_645
Cs0 K3 3.906486 1_545
Cs1 K0 3.841478 1_555
Cs1 K1 3.869123 1_556
Cs1 K2 3.906486 1_655
Cs1 K2 3.906486 1_555
Cs2 K3 3.841478 1_554
Cs2 K2 3.869123 1_565
Cs2 K1 3.906486 1_565
Cs2 K1 3.906486 1_465
Cs3 K2 3.841478 1_555
Cs3 K3 3.869123 1_554
Cs3 K0 3.906486 1_455
Cs3 K0 3.906486 1_555
C0 C6 1.266583 1_555
C0 K2 2.977352 1_655
C0 K1 3.114699 1_555
C0 K0 3.124989 1_555
C0 Cs2 3.367384 1_645
C0 Cs0 3.472636 1_555
C0 Cs3 3.488336 1_655
C1 C7 1.266583 1_555
C1 K3 2.977352 1_554
C1 K0 3.114699 1_555
C1 K1 3.124989 1_565
C1 Cs3 3.367384 1_555
C1 Cs1 3.472636 1_554
C1 Cs2 3.488336 1_555
C2 C4 1.266583 1_555
C2 K0 2.977352 1_555
C2 K3 3.114699 1_555
C2 K2 3.124989 1_555
C2 Cs0 3.367384 1_565
C2 Cs2 3.472636 1_555
C2 Cs1 3.488336 1_555
C3 C5 1.266583 1_555
C3 K1 2.977352 1_456
C3 K2 3.114699 1_555
C3 K3 3.124989 1_545
C3 Cs1 3.367384 1_455
C3 Cs3 3.472636 1_556
C3 Cs0 3.488336 1_455
C4 K0 2.977352 1_455
C4 K3 3.114699 1_555
C4 K2 3.124989 1_555
C4 Cs0 3.367384 1_465
C4 Cs2 3.472636 1_555
C4 Cs1 3.488336 1_455
C5 K1 2.977352 1_556
C5 K2 3.114699 1_555
C5 K3 3.124989 1_545
C5 Cs1 3.367384 1_555
C5 Cs3 3.472636 1_556
C5 Cs0 3.488336 1_555
C6 K2 2.977352 1_555
C6 K1 3.114699 1_555
C6 K0 3.124989 1_555
C6 Cs2 3.367384 1_545
C6 Cs0 3.472636 1_555
C6 Cs3 3.488336 1_555
C7 K3 2.977352 1_654
C7 K0 3.114699 1_555
C7 K1 3.124989 1_565
C7 Cs3 3.367384 1_655
C7 Cs1 3.472636 1_554
C7 Cs2 3.488336 1_655
