# generated using pymatgen
data_EuBPt4
_symmetry_space_group_name_H-M   'P 1'
_cell_length_a   5.50128419
_cell_length_b   5.50068031
_cell_length_c   7.57860179
_cell_angle_alpha   90.00000000
_cell_angle_beta   90.00000000
_cell_angle_gamma   120.00191113
_symmetry_Int_Tables_number   1
_chemical_formula_structural   EuBPt4
_chemical_formula_sum   'Eu2 B2 Pt8'
_cell_volume   198.60576106
_cell_formula_units_Z   2
loop_
 _symmetry_equiv_pos_site_id
 _symmetry_equiv_pos_as_xyz
  1  'x, y, z'
loop_
 _atom_site_type_symbol
 _atom_site_label
 _atom_site_symmetry_multiplicity
 _atom_site_fract_x
 _atom_site_fract_y
 _atom_site_fract_z
 _atom_site_occupancy
  Eu  Eu0  1  0.00000000  -0.00000000  0.50000000  1
  Eu  Eu1  1  0.00000000  -0.00000000  0.00000000  1
  B  B0  1  0.66666235  0.33331213  0.50000000  1
  B  B1  1  0.33333765  0.66668787  0.50000000  1
  Pt  Pt0  1  0.50000000  0.50000000  0.69888580  1
  Pt  Pt1  1  0.50000000  -0.00000000  0.69895588  1
  Pt  Pt2  1  0.00000000  0.50000000  0.69888523  1
  Pt  Pt3  1  0.50000000  0.50000000  0.30111420  1
  Pt  Pt4  1  0.50000000  -0.00000000  0.30104412  1
  Pt  Pt5  1  0.00000000  0.50000000  0.30111477  1
  Pt  Pt6  1  0.66665122  0.33332771  -0.00000000  1
  Pt  Pt7  1  0.33334878  0.66667229  0.00000000  1
loop_
_geom_bond_atom_site_label_1
_geom_bond_atom_site_label_2
_geom_bond_distance
_geom_bond_site_symmetry_2
Eu0 Pt2 3.136278 1_555
Eu0 Pt5 3.136278 1_545
Eu0 Pt2 3.136278 1_545
Eu0 Pt5 3.136278 1_555
Eu0 Pt0 3.136343 1_445
Eu0 Pt3 3.136343 1_445
Eu0 Pt0 3.136343 1_555
Eu0 Pt3 3.136343 1_555
Eu0 Pt1 3.136800 1_555
Eu0 Pt4 3.136800 1_455
Eu0 Pt1 3.136800 1_455
Eu0 Pt4 3.136800 1_555
Eu0 Eu1 3.789301 1_555
Eu0 Eu1 3.789301 1_556
Eu1 Pt6 3.175785 1_445
Eu1 Pt7 3.175785 1_555
Eu1 Pt7 3.176033 1_445
Eu1 Pt6 3.176033 1_555
Eu1 Pt7 3.176071 1_545
Eu1 Pt6 3.176071 1_455
Eu1 Pt4 3.573688 1_555
Eu1 Pt1 3.573688 1_454
Eu1 Pt4 3.573688 1_455
Eu1 Pt1 3.573688 1_554
Eu1 Pt2 3.573797 1_554
Eu1 Pt2 3.573797 1_544
Eu1 Pt5 3.573797 1_545
Eu1 Pt5 3.573797 1_555
Eu1 Pt3 3.573850 1_445
Eu1 Pt0 3.573850 1_554
Eu1 Pt0 3.573850 1_444
Eu1 Pt3 3.573850 1_555
B0 Pt5 2.189486 1_655
B0 Pt2 2.189486 1_655
B0 Pt0 2.189502 1_555
B0 Pt3 2.189502 1_555
B0 Pt4 2.189640 1_555
B0 Pt1 2.189640 1_555
B0 Eu0 3.175859 1_665
B0 Eu0 3.175944 1_655
B0 Eu0 3.176086 1_555
B1 Pt5 2.189486 1_555
B1 Pt2 2.189486 1_555
B1 Pt0 2.189502 1_555
B1 Pt3 2.189502 1_555
B1 Pt4 2.189640 1_565
B1 Pt1 2.189640 1_565
B1 Eu0 3.175859 1_555
B1 Eu0 3.175944 1_565
B1 Eu0 3.176086 1_665
Pt0 Pt1 2.750340 1_555
Pt0 Pt1 2.750340 1_565
Pt0 Pt2 2.750642 1_555
Pt0 Pt2 2.750642 1_655
Pt0 Pt6 2.780156 1_556
Pt0 Pt7 2.780156 1_556
Pt1 Pt2 2.750412 1_655
Pt1 Pt2 2.750412 1_545
Pt1 Pt6 2.779656 1_556
Pt1 Pt7 2.779656 1_546
Pt2 Pt6 2.780252 1_456
Pt2 Pt7 2.780252 1_556
Pt3 Pt4 2.750340 1_565
Pt3 Pt4 2.750340 1_555
Pt3 Pt5 2.750642 1_555
Pt3 Pt5 2.750642 1_655
Pt3 Pt6 2.780156 1_555
Pt3 Pt7 2.780156 1_555
Pt4 Pt5 2.750412 1_655
Pt4 Pt5 2.750412 1_545
Pt4 Pt7 2.779656 1_545
Pt4 Pt6 2.779656 1_555
Pt5 Pt7 2.780252 1_555
Pt5 Pt6 2.780252 1_455
Pt6 Pt7 3.175705 1_545
Pt6 Pt7 3.175931 1_555
Pt6 Pt7 3.176254 1_655
