# generated using pymatgen
data_DyNbO4
_symmetry_space_group_name_H-M   'P 1'
_cell_length_a   5.69764830
_cell_length_b   5.69764830
_cell_length_c   5.69764830
_cell_angle_alpha   118.66592527
_cell_angle_beta   118.66592527
_cell_angle_gamma   92.32664640
_symmetry_Int_Tables_number   1
_chemical_formula_structural   DyNbO4
_chemical_formula_sum   'Dy2 Nb2 O8'
_cell_volume   133.30760360
_cell_formula_units_Z   2
loop_
 _symmetry_equiv_pos_site_id
 _symmetry_equiv_pos_as_xyz
  1  'x, y, z'
loop_
 _atom_site_type_symbol
 _atom_site_label
 _atom_site_symmetry_multiplicity
 _atom_site_fract_x
 _atom_site_fract_y
 _atom_site_fract_z
 _atom_site_occupancy
  Dy  Dy0  1  0.00000000  0.00000000  0.00000000  1
  Dy  Dy1  1  0.75000000  0.25000000  0.50000000  1
  Nb  Nb0  1  0.50000000  0.50000000  0.00000000  1
  Nb  Nb1  1  0.25000000  0.75000000  0.50000000  1
  O  O0  1  0.34941100  0.13522300  0.52752100  1
  O  O1  1  0.60770200  0.82188900  0.47247900  1
  O  O2  1  0.88522300  0.85770200  0.28581200  1
  O  O3  1  0.57188900  0.59941100  0.71418800  1
  O  O4  1  0.40058900  0.11477700  0.97247900  1
  O  O5  1  0.14229800  0.42811100  0.02752100  1
  O  O6  1  0.86477700  0.39229800  0.21418800  1
  O  O7  1  0.17811100  0.65058900  0.78581200  1
loop_
_geom_bond_atom_site_label_1
_geom_bond_atom_site_label_2
_geom_bond_distance
_geom_bond_site_symmetry_2
Dy0 O1 2.346016 1_444
Dy0 O0 2.346017 1_555
Dy0 O6 2.346017 1_455
Dy0 O7 2.346021 1_544
Dy0 O4 2.445859 1_554
Dy0 O2 2.445859 1_445
Dy0 O3 2.445863 1_444
Dy0 O5 2.445864 1_555
Dy1 O5 2.346016 1_656
Dy1 O4 2.346017 1_554
Dy1 O2 2.346017 1_545
Dy1 O3 2.346021 1_555
Dy1 O6 2.445859 1_555
Dy1 O0 2.445859 1_555
Dy1 O7 2.445863 1_655
Dy1 O1 2.445864 1_545
Nb0 O7 2.138713 1_554
Nb0 O1 2.138715 1_555
Nb0 O6 2.138716 1_555
Nb0 O0 2.138716 1_554
Nb0 O3 2.155571 1_554
Nb0 O5 2.155573 1_555
Nb0 O2 2.155574 1_555
Nb0 O4 2.155574 1_554
Nb1 O3 2.138713 1_555
Nb1 O5 2.138715 1_555
Nb1 O4 2.138716 1_565
Nb1 O2 2.138716 1_455
Nb1 O7 2.155571 1_555
Nb1 O1 2.155573 1_555
Nb1 O0 2.155574 1_565
Nb1 O6 2.155574 1_455
O0 O3 2.338482 1_555
O0 O2 2.338484 1_445
O0 O1 2.360136 1_545
O0 O4 2.470379 1_555
O1 O3 2.338481 1_555
O1 O2 2.338486 1_555
O1 O5 2.470375 1_555
O2 O3 2.360133 1_554
O2 O6 2.470379 1_555
O3 O7 2.470368 1_555
O4 O7 2.338482 1_545
O4 O6 2.338484 1_556
O4 O5 2.360136 1_556
O5 O7 2.338481 1_554
O5 O6 2.338486 1_455
O6 O7 2.360133 1_655
