# generated using pymatgen
data_LiAlSiO5
_symmetry_space_group_name_H-M   'P 1'
_cell_length_a   5.04672300
_cell_length_b   8.27041100
_cell_length_c   10.47051700
_cell_angle_alpha   90.00000000
_cell_angle_beta   90.00000000
_cell_angle_gamma   90.00000000
_symmetry_Int_Tables_number   1
_chemical_formula_structural   LiAlSiO5
_chemical_formula_sum   'Li4 Al4 Si4 O20'
_cell_volume   437.02339543
_cell_formula_units_Z   4
loop_
 _symmetry_equiv_pos_site_id
 _symmetry_equiv_pos_as_xyz
  1  'x, y, z'
loop_
 _atom_site_type_symbol
 _atom_site_label
 _atom_site_symmetry_multiplicity
 _atom_site_fract_x
 _atom_site_fract_y
 _atom_site_fract_z
 _atom_site_occupancy
  Li  Li0  1  0.74500600  0.18857200  0.68854900  1
  Li  Li1  1  0.24500600  0.81142800  0.31145100  1
  Li  Li2  1  0.24500600  0.68857200  0.81145100  1
  Li  Li3  1  0.74500600  0.31142800  0.18854900  1
  Al  Al0  1  0.74955500  0.58153100  0.65957200  1
  Al  Al1  1  0.24955400  0.41846900  0.34042800  1
  Al  Al2  1  0.24955400  0.08153100  0.84042800  1
  Al  Al3  1  0.74955500  0.91846900  0.15957200  1
  Si  Si0  1  0.75014100  0.87424100  0.85465700  1
  Si  Si1  1  0.25014100  0.12575900  0.14534300  1
  Si  Si2  1  0.25014100  0.37424100  0.64534300  1
  Si  Si3  1  0.75014100  0.62575900  0.35465700  1
  O  O0  1  0.80136900  0.65787500  0.50561000  1
  O  O1  1  0.30136900  0.34212500  0.49439000  1
  O  O2  1  0.30136900  0.15787500  0.99439000  1
  O  O3  1  0.80136900  0.84212500  0.00561000  1
  O  O4  1  0.86564300  0.71967500  0.77437200  1
  O  O5  1  0.36564300  0.28032500  0.22562800  1
  O  O6  1  0.36564300  0.21967500  0.72562800  1
  O  O7  1  0.86564300  0.78032500  0.27437200  1
  O  O8  1  0.41082700  0.53845600  0.69047600  1
  O  O9  1  0.91082700  0.46154400  0.30952400  1
  O  O10  1  0.91082700  0.03845600  0.80952400  1
  O  O11  1  0.41082700  0.96154400  0.19047600  1
  O  O12  1  0.93291300  0.39877300  0.67735600  1
  O  O13  1  0.43291300  0.60122700  0.32264400  1
  O  O14  1  0.43291300  0.89877300  0.82264400  1
  O  O15  1  0.93291300  0.10122700  0.17735600  1
  O  O16  1  0.23714400  0.58900100  0.99033400  1
  O  O17  1  0.73714400  0.41099900  0.00966600  1
  O  O18  1  0.73714400  0.08900100  0.50966600  1
  O  O19  1  0.23714400  0.91099900  0.49033400  1
loop_
_geom_bond_atom_site_label_1
_geom_bond_atom_site_label_2
_geom_bond_distance
_geom_bond_site_symmetry_2
Li0 O10 1.961161 1_555
Li0 O6 1.970371 1_555
Li0 O12 1.983744 1_555
Li0 O18 2.046420 1_555
Li1 O11 1.961161 1_555
Li1 O7 1.970371 1_455
Li1 O13 1.983744 1_555
Li1 O19 2.046420 1_555
Li2 O8 1.961161 1_555
Li2 O4 1.970371 1_455
Li2 O14 1.983744 1_555
Li2 O16 2.046420 1_555
Li3 O9 1.961161 1_555
Li3 O5 1.970371 1_555
Li3 O15 1.983744 1_555
Li3 O17 2.046420 1_555
Al0 O0 1.750937 1_555
Al0 O4 1.758807 1_555
Al0 O8 1.775920 1_555
Al0 O12 1.782005 1_555
Al1 O1 1.750938 1_555
Al1 O5 1.758808 1_555
Al1 O9 1.775915 1_455
Al1 O13 1.782008 1_555
Al2 O2 1.750938 1_555
Al2 O6 1.758808 1_555
Al2 O10 1.775915 1_455
Al2 O14 1.782008 1_545
Al3 O3 1.750937 1_555
Al3 O7 1.758807 1_555
Al3 O11 1.775920 1_555
Al3 O15 1.782005 1_565
O0 Si3 1.623437 1_555
O1 Si2 1.623437 1_555
O2 Si1 1.623437 1_556
O3 Si0 1.623437 1_554
O4 Si0 1.637237 1_555
O5 Si1 1.637237 1_555
O6 Si2 1.637237 1_555
O7 Si3 1.637237 1_555
O8 Si2 1.650892 1_555
O9 Si3 1.650892 1_555
O10 Si0 1.650892 1_545
O11 Si1 1.650892 1_565
O12 Si2 1.648210 1_655
O13 Si3 1.648210 1_555
O14 Si0 1.648210 1_555
O15 Si1 1.648210 1_655
