# generated using pymatgen
data_Ho7(TeAu)2
_symmetry_space_group_name_H-M   'P 1'
_cell_length_a   18.66069520
_cell_length_b   18.66069520
_cell_length_c   34.25565199
_cell_angle_alpha   76.08088231
_cell_angle_beta   76.08088231
_cell_angle_gamma   24.73424670
_symmetry_Int_Tables_number   1
_chemical_formula_structural   Ho7(TeAu)2
_chemical_formula_sum   'Ho112 Te32 Au32'
_cell_volume   4837.31465950
_cell_formula_units_Z   16
loop_
 _symmetry_equiv_pos_site_id
 _symmetry_equiv_pos_as_xyz
  1  'x, y, z'
loop_
 _atom_site_type_symbol
 _atom_site_label
 _atom_site_symmetry_multiplicity
 _atom_site_fract_x
 _atom_site_fract_y
 _atom_site_fract_z
 _atom_site_occupancy
  Ho  Ho0_0  1  0.00050000  0.00050000  0.33361600  1
  Ho  Ho0_1  1  0.00050000  0.00050000  0.83361600  1
  Ho  Ho0_2  1  0.00050000  0.50050000  0.33361600  1
  Ho  Ho0_3  1  0.00050000  0.50050000  0.83361600  1
  Ho  Ho0_4  1  0.50050000  0.00050000  0.33361600  1
  Ho  Ho0_5  1  0.50050000  0.00050000  0.83361600  1
  Ho  Ho0_6  1  0.50050000  0.50050000  0.33361600  1
  Ho  Ho0_7  1  0.50050000  0.50050000  0.83361600  1
  Ho  Ho1_0  1  0.49950000  0.49950000  0.16638400  1
  Ho  Ho1_1  1  0.49950000  0.49950000  0.66638400  1
  Ho  Ho1_2  1  0.49950000  0.99950000  0.16638400  1
  Ho  Ho1_3  1  0.49950000  0.99950000  0.66638400  1
  Ho  Ho1_4  1  0.99950000  0.49950000  0.16638400  1
  Ho  Ho1_5  1  0.99950000  0.49950000  0.66638400  1
  Ho  Ho1_6  1  0.99950000  0.99950000  0.16638400  1
  Ho  Ho1_7  1  0.99950000  0.99950000  0.66638400  1
  Ho  Ho2_0  1  0.08773300  0.08773300  0.23417950  1
  Ho  Ho2_1  1  0.08773300  0.08773300  0.73417950  1
  Ho  Ho2_2  1  0.08773300  0.58773300  0.23417950  1
  Ho  Ho2_3  1  0.08773300  0.58773300  0.73417950  1
  Ho  Ho2_4  1  0.58773300  0.08773300  0.23417950  1
  Ho  Ho2_5  1  0.58773300  0.08773300  0.73417950  1
  Ho  Ho2_6  1  0.58773300  0.58773300  0.23417950  1
  Ho  Ho2_7  1  0.58773300  0.58773300  0.73417950  1
  Ho  Ho3_0  1  0.41226700  0.41226700  0.26582050  1
  Ho  Ho3_1  1  0.41226700  0.41226700  0.76582050  1
  Ho  Ho3_2  1  0.41226700  0.91226700  0.26582050  1
  Ho  Ho3_3  1  0.41226700  0.91226700  0.76582050  1
  Ho  Ho3_4  1  0.91226700  0.41226700  0.26582050  1
  Ho  Ho3_5  1  0.91226700  0.41226700  0.76582050  1
  Ho  Ho3_6  1  0.91226700  0.91226700  0.26582050  1
  Ho  Ho3_7  1  0.91226700  0.91226700  0.76582050  1
  Ho  Ho4_0  1  0.09571350  0.09571350  0.34017850  1
  Ho  Ho4_1  1  0.09571350  0.09571350  0.84017850  1
  Ho  Ho4_2  1  0.09571350  0.59571350  0.34017850  1
  Ho  Ho4_3  1  0.09571350  0.59571350  0.84017850  1
  Ho  Ho4_4  1  0.59571350  0.09571350  0.34017850  1
  Ho  Ho4_5  1  0.59571350  0.09571350  0.84017850  1
  Ho  Ho4_6  1  0.59571350  0.59571350  0.34017850  1
  Ho  Ho4_7  1  0.59571350  0.59571350  0.84017850  1
  Ho  Ho5_0  1  0.40428650  0.40428650  0.15982150  1
  Ho  Ho5_1  1  0.40428650  0.40428650  0.65982150  1
  Ho  Ho5_2  1  0.40428650  0.90428650  0.15982150  1
  Ho  Ho5_3  1  0.40428650  0.90428650  0.65982150  1
  Ho  Ho5_4  1  0.90428650  0.40428650  0.15982150  1
  Ho  Ho5_5  1  0.90428650  0.40428650  0.65982150  1
  Ho  Ho5_6  1  0.90428650  0.90428650  0.15982150  1
  Ho  Ho5_7  1  0.90428650  0.90428650  0.65982150  1
  Ho  Ho6_0  1  0.16908850  0.16908850  0.49027950  1
  Ho  Ho6_1  1  0.16908850  0.16908850  0.99027950  1
  Ho  Ho6_2  1  0.16908850  0.66908850  0.49027950  1
  Ho  Ho6_3  1  0.16908850  0.66908850  0.99027950  1
  Ho  Ho6_4  1  0.66908850  0.16908850  0.49027950  1
  Ho  Ho6_5  1  0.66908850  0.16908850  0.99027950  1
  Ho  Ho6_6  1  0.66908850  0.66908850  0.49027950  1
  Ho  Ho6_7  1  0.66908850  0.66908850  0.99027950  1
  Ho  Ho7_0  1  0.33091150  0.33091150  0.00972050  1
  Ho  Ho7_1  1  0.33091150  0.33091150  0.50972050  1
  Ho  Ho7_2  1  0.33091150  0.83091150  0.00972050  1
  Ho  Ho7_3  1  0.33091150  0.83091150  0.50972050  1
  Ho  Ho7_4  1  0.83091150  0.33091150  0.00972050  1
  Ho  Ho7_5  1  0.83091150  0.33091150  0.50972050  1
  Ho  Ho7_6  1  0.83091150  0.83091150  0.00972050  1
  Ho  Ho7_7  1  0.83091150  0.83091150  0.50972050  1
  Ho  Ho8_0  1  0.28710400  0.28710400  0.41459100  1
  Ho  Ho8_1  1  0.28710400  0.28710400  0.91459100  1
  Ho  Ho8_2  1  0.28710400  0.78710400  0.41459100  1
  Ho  Ho8_3  1  0.28710400  0.78710400  0.91459100  1
  Ho  Ho8_4  1  0.78710400  0.28710400  0.41459100  1
  Ho  Ho8_5  1  0.78710400  0.28710400  0.91459100  1
  Ho  Ho8_6  1  0.78710400  0.78710400  0.41459100  1
  Ho  Ho8_7  1  0.78710400  0.78710400  0.91459100  1
  Ho  Ho9_0  1  0.21289600  0.21289600  0.08540900  1
  Ho  Ho9_1  1  0.21289600  0.21289600  0.58540900  1
  Ho  Ho9_2  1  0.21289600  0.71289600  0.08540900  1
  Ho  Ho9_3  1  0.21289600  0.71289600  0.58540900  1
  Ho  Ho9_4  1  0.71289600  0.21289600  0.08540900  1
  Ho  Ho9_5  1  0.71289600  0.21289600  0.58540900  1
  Ho  Ho9_6  1  0.71289600  0.71289600  0.08540900  1
  Ho  Ho9_7  1  0.71289600  0.71289600  0.58540900  1
  Ho  Ho10_0  1  0.39032650  0.39032650  0.40272350  1
  Ho  Ho10_1  1  0.39032650  0.39032650  0.90272350  1
  Ho  Ho10_2  1  0.39032650  0.89032650  0.40272350  1
  Ho  Ho10_3  1  0.39032650  0.89032650  0.90272350  1
  Ho  Ho10_4  1  0.89032650  0.39032650  0.40272350  1
  Ho  Ho10_5  1  0.89032650  0.39032650  0.90272350  1
  Ho  Ho10_6  1  0.89032650  0.89032650  0.40272350  1
  Ho  Ho10_7  1  0.89032650  0.89032650  0.90272350  1
  Ho  Ho11_0  1  0.10967350  0.10967350  0.09727650  1
  Ho  Ho11_1  1  0.10967350  0.10967350  0.59727650  1
  Ho  Ho11_2  1  0.10967350  0.60967350  0.09727650  1
  Ho  Ho11_3  1  0.10967350  0.60967350  0.59727650  1
  Ho  Ho11_4  1  0.60967350  0.10967350  0.09727650  1
  Ho  Ho11_5  1  0.60967350  0.10967350  0.59727650  1
  Ho  Ho11_6  1  0.60967350  0.60967350  0.09727650  1
  Ho  Ho11_7  1  0.60967350  0.60967350  0.59727650  1
  Ho  Ho12_0  1  0.25000000  0.25000000  0.25000000  1
  Ho  Ho12_1  1  0.25000000  0.25000000  0.75000000  1
  Ho  Ho12_2  1  0.25000000  0.75000000  0.25000000  1
  Ho  Ho12_3  1  0.25000000  0.75000000  0.75000000  1
  Ho  Ho12_4  1  0.75000000  0.25000000  0.25000000  1
  Ho  Ho12_5  1  0.75000000  0.25000000  0.75000000  1
  Ho  Ho12_6  1  0.75000000  0.75000000  0.25000000  1
  Ho  Ho12_7  1  0.75000000  0.75000000  0.75000000  1
  Ho  Ho13_0  1  0.00000000  0.00000000  0.00000000  1
  Ho  Ho13_1  1  0.00000000  0.00000000  0.50000000  1
  Ho  Ho13_2  1  1.00000000  0.50000000  0.00000000  1
  Ho  Ho13_3  1  1.00000000  0.50000000  0.50000000  1
  Ho  Ho13_4  1  0.50000000  0.00000000  0.00000000  1
  Ho  Ho13_5  1  0.50000000  0.00000000  0.50000000  1
  Ho  Ho13_6  1  0.50000000  0.50000000  0.00000000  1
  Ho  Ho13_7  1  0.50000000  0.50000000  0.50000000  1
  Te  Te0_0  1  0.18306950  0.18306950  0.33116400  1
  Te  Te0_1  1  0.18306950  0.18306950  0.83116400  1
  Te  Te0_2  1  0.18306950  0.68306950  0.33116400  1
  Te  Te0_3  1  0.18306950  0.68306950  0.83116400  1
  Te  Te0_4  1  0.68306950  0.18306950  0.33116400  1
  Te  Te0_5  1  0.68306950  0.18306950  0.83116400  1
  Te  Te0_6  1  0.68306950  0.68306950  0.33116400  1
  Te  Te0_7  1  0.68306950  0.68306950  0.83116400  1
  Te  Te1_0  1  0.31693050  0.31693050  0.16883600  1
  Te  Te1_1  1  0.31693050  0.31693050  0.66883600  1
  Te  Te1_2  1  0.31693050  0.81693050  0.16883600  1
  Te  Te1_3  1  0.31693050  0.81693050  0.66883600  1
  Te  Te1_4  1  0.81693050  0.31693050  0.16883600  1
  Te  Te1_5  1  0.81693050  0.31693050  0.66883600  1
  Te  Te1_6  1  0.81693050  0.81693050  0.16883600  1
  Te  Te1_7  1  0.81693050  0.81693050  0.66883600  1
  Te  Te2_0  1  0.03270450  0.03270450  0.07489650  1
  Te  Te2_1  1  0.03270450  0.03270450  0.57489650  1
  Te  Te2_2  1  0.03270450  0.53270450  0.07489650  1
  Te  Te2_3  1  0.03270450  0.53270450  0.57489650  1
  Te  Te2_4  1  0.53270450  0.03270450  0.07489650  1
  Te  Te2_5  1  0.53270450  0.03270450  0.57489650  1
  Te  Te2_6  1  0.53270450  0.53270450  0.07489650  1
  Te  Te2_7  1  0.53270450  0.53270450  0.57489650  1
  Te  Te3_0  1  0.46729550  0.46729550  0.42510350  1
  Te  Te3_1  1  0.46729550  0.46729550  0.92510350  1
  Te  Te3_2  1  0.46729550  0.96729550  0.42510350  1
  Te  Te3_3  1  0.46729550  0.96729550  0.92510350  1
  Te  Te3_4  1  0.96729550  0.46729550  0.42510350  1
  Te  Te3_5  1  0.96729550  0.46729550  0.92510350  1
  Te  Te3_6  1  0.96729550  0.96729550  0.42510350  1
  Te  Te3_7  1  0.96729550  0.96729550  0.92510350  1
  Au  Au0_0  1  0.08511600  0.08511600  0.44446700  1
  Au  Au0_1  1  0.08511600  0.08511600  0.94446700  1
  Au  Au0_2  1  0.08511600  0.58511600  0.44446700  1
  Au  Au0_3  1  0.08511600  0.58511600  0.94446700  1
  Au  Au0_4  1  0.58511600  0.08511600  0.44446700  1
  Au  Au0_5  1  0.58511600  0.08511600  0.94446700  1
  Au  Au0_6  1  0.58511600  0.58511600  0.44446700  1
  Au  Au0_7  1  0.58511600  0.58511600  0.94446700  1
  Au  Au1_0  1  0.41488400  0.41488400  0.05553300  1
  Au  Au1_1  1  0.41488400  0.41488400  0.55553300  1
  Au  Au1_2  1  0.41488400  0.91488400  0.05553300  1
  Au  Au1_3  1  0.41488400  0.91488400  0.55553300  1
  Au  Au1_4  1  0.91488400  0.41488400  0.05553300  1
  Au  Au1_5  1  0.91488400  0.41488400  0.55553300  1
  Au  Au1_6  1  0.91488400  0.91488400  0.05553300  1
  Au  Au1_7  1  0.91488400  0.91488400  0.55553300  1
  Au  Au2_0  1  0.19062800  0.19062800  0.19983000  1
  Au  Au2_1  1  0.19062800  0.19062800  0.69983000  1
  Au  Au2_2  1  0.19062800  0.69062800  0.19983000  1
  Au  Au2_3  1  0.19062800  0.69062800  0.69983000  1
  Au  Au2_4  1  0.69062800  0.19062800  0.19983000  1
  Au  Au2_5  1  0.69062800  0.19062800  0.69983000  1
  Au  Au2_6  1  0.69062800  0.69062800  0.19983000  1
  Au  Au2_7  1  0.69062800  0.69062800  0.69983000  1
  Au  Au3_0  1  0.30937200  0.30937200  0.30017000  1
  Au  Au3_1  1  0.30937200  0.30937200  0.80017000  1
  Au  Au3_2  1  0.30937200  0.80937200  0.30017000  1
  Au  Au3_3  1  0.30937200  0.80937200  0.80017000  1
  Au  Au3_4  1  0.80937200  0.30937200  0.30017000  1
  Au  Au3_5  1  0.80937200  0.30937200  0.80017000  1
  Au  Au3_6  1  0.80937200  0.80937200  0.30017000  1
  Au  Au3_7  1  0.80937200  0.80937200  0.80017000  1
loop_
_geom_bond_atom_site_label_1
_geom_bond_atom_site_label_2
_geom_bond_distance
_geom_bond_site_symmetry_2
Ho0_0 Te3_6 3.068961 1_445
Ho0_0 Te0_4 3.185094 1_455
Ho0_0 Te0_2 3.185094 1_545
Ho0_0 Ho12_2 3.496239 1_545
Ho0_0 Ho12_4 3.496239 1_455
Ho0_0 Ho4_0 3.533128 1_555
Ho0_0 Ho8_2 3.910410 1_545
Ho0_0 Ho8_4 3.910410 1_455
Ho0_1 Te3_7 3.068961 1_445
Ho0_1 Te0_5 3.185094 1_455
Ho0_1 Te0_3 3.185094 1_545
Ho0_1 Ho12_5 3.496239 1_455
Ho0_1 Ho12_3 3.496239 1_545
Ho0_1 Ho4_1 3.533128 1_555
Ho0_1 Ho8_3 3.910410 1_545
Ho0_1 Ho8_5 3.910410 1_455
Ho0_2 Te3_4 3.068961 1_455
Ho0_2 Te0_0 3.185094 1_555
Ho0_2 Te0_6 3.185094 1_455
Ho0_2 Ho12_0 3.496239 1_555
Ho0_2 Ho12_6 3.496239 1_455
Ho0_2 Ho4_2 3.533128 1_555
Ho0_2 Ho8_6 3.910410 1_455
Ho0_2 Ho8_0 3.910410 1_555
Ho0_3 Te3_5 3.068961 1_455
Ho0_3 Te0_1 3.185094 1_555
Ho0_3 Te0_7 3.185094 1_455
Ho0_3 Ho12_1 3.496239 1_555
Ho0_3 Ho12_7 3.496239 1_455
Ho0_3 Ho4_3 3.533128 1_555
Ho0_3 Ho8_7 3.910410 1_455
Ho0_3 Ho8_1 3.910410 1_555
Ho0_4 Te3_2 3.068961 1_545
Ho0_4 Te0_0 3.185094 1_555
Ho0_4 Te0_6 3.185094 1_545
Ho0_4 Ho12_0 3.496239 1_555
Ho0_4 Ho12_6 3.496239 1_545
Ho0_4 Ho4_4 3.533128 1_555
Ho0_4 Ho8_6 3.910410 1_545
Ho0_4 Ho8_0 3.910410 1_555
Ho0_5 Te3_3 3.068961 1_545
Ho0_5 Te0_1 3.185094 1_555
Ho0_5 Te0_7 3.185094 1_545
Ho0_5 Ho12_7 3.496239 1_545
Ho0_5 Ho12_1 3.496239 1_555
Ho0_5 Ho4_5 3.533128 1_555
Ho0_5 Ho8_7 3.910410 1_545
Ho0_5 Ho8_1 3.910410 1_555
Ho0_6 Te3_0 3.068961 1_555
Ho0_6 Te0_4 3.185094 1_555
Ho0_6 Te0_2 3.185094 1_555
Ho0_6 Ho12_4 3.496239 1_555
Ho0_6 Ho12_2 3.496239 1_555
Ho0_6 Ho4_6 3.533128 1_555
Ho0_6 Ho8_2 3.910410 1_555
Ho0_6 Ho8_4 3.910410 1_555
Ho0_7 Te3_1 3.068961 1_555
Ho0_7 Te0_5 3.185094 1_555
Ho0_7 Te0_3 3.185094 1_555
Ho0_7 Ho12_5 3.496239 1_555
Ho0_7 Ho12_3 3.496239 1_555
Ho0_7 Ho4_7 3.533128 1_555
Ho0_7 Ho8_3 3.910410 1_555
Ho0_7 Ho8_5 3.910410 1_555
Ho1_0 Te2_6 3.068961 1_555
Ho1_0 Te1_2 3.185094 1_555
Ho1_0 Te1_4 3.185094 1_555
Ho1_0 Ho5_0 3.533128 1_555
Ho1_0 Ho9_4 3.910410 1_555
Ho1_0 Ho9_2 3.910410 1_555
Ho1_1 Te2_7 3.068961 1_555
Ho1_1 Te1_3 3.185094 1_555
Ho1_1 Te1_5 3.185094 1_555
Ho1_1 Ho5_1 3.533128 1_555
Ho1_1 Ho9_5 3.910410 1_555
Ho1_1 Ho9_3 3.910410 1_555
Ho1_2 Te2_4 3.068961 1_565
Ho1_2 Te1_6 3.185094 1_555
Ho1_2 Te1_0 3.185094 1_565
Ho1_2 Ho5_2 3.533128 1_555
Ho1_2 Ho9_0 3.910410 1_565
Ho1_2 Ho9_6 3.910410 1_555
Ho1_3 Te2_5 3.068961 1_565
Ho1_3 Te1_7 3.185094 1_555
Ho1_3 Te1_1 3.185094 1_565
Ho1_3 Ho5_3 3.533128 1_555
Ho1_3 Ho9_1 3.910410 1_565
Ho1_3 Ho9_7 3.910410 1_555
Ho1_4 Te2_2 3.068961 1_655
Ho1_4 Te1_6 3.185094 1_555
Ho1_4 Te1_0 3.185094 1_655
Ho1_4 Ho5_4 3.533128 1_555
Ho1_4 Ho9_0 3.910410 1_655
Ho1_4 Ho9_6 3.910410 1_555
Ho1_5 Te2_3 3.068961 1_655
Ho1_5 Te1_7 3.185094 1_555
Ho1_5 Te1_1 3.185094 1_655
Ho1_5 Ho5_5 3.533128 1_555
Ho1_5 Ho9_1 3.910410 1_655
Ho1_5 Ho9_7 3.910410 1_555
Ho1_6 Te2_0 3.068961 1_665
Ho1_6 Te1_2 3.185094 1_655
Ho1_6 Te1_4 3.185094 1_565
Ho1_6 Ho5_6 3.533128 1_555
Ho1_6 Ho9_4 3.910410 1_565
Ho1_6 Ho9_2 3.910410 1_655
Ho1_7 Te2_1 3.068961 1_665
Ho1_7 Te1_3 3.185094 1_655
Ho1_7 Te1_5 3.185094 1_565
Ho1_7 Ho5_7 3.533128 1_555
Ho1_7 Ho9_5 3.910410 1_565
Ho1_7 Ho9_3 3.910410 1_655
Ho2_0 Te1_4 3.227207 1_455
Ho2_0 Te1_2 3.227207 1_545
Ho2_0 Ho5_2 3.650228 1_545
Ho2_0 Ho5_4 3.650228 1_455
Ho2_0 Ho3_2 3.741877 1_545
Ho2_0 Ho3_4 3.741877 1_455
Ho2_1 Te1_5 3.227207 1_455
Ho2_1 Te1_3 3.227207 1_545
Ho2_1 Ho5_3 3.650228 1_545
Ho2_1 Ho5_5 3.650228 1_455
Ho2_1 Ho3_3 3.741877 1_545
Ho2_1 Ho3_5 3.741877 1_455
Ho2_2 Te1_0 3.227207 1_555
Ho2_2 Te1_6 3.227207 1_455
Ho2_2 Ho5_6 3.650228 1_455
Ho2_2 Ho5_0 3.650228 1_555
Ho2_2 Ho3_6 3.741877 1_455
Ho2_2 Ho3_0 3.741877 1_555
Ho2_3 Te1_1 3.227207 1_555
Ho2_3 Te1_7 3.227207 1_455
Ho2_3 Ho5_1 3.650228 1_555
Ho2_3 Ho5_7 3.650228 1_455
Ho2_3 Ho3_7 3.741877 1_455
Ho2_3 Ho3_1 3.741877 1_555
Ho2_4 Te1_0 3.227207 1_555
Ho2_4 Te1_6 3.227207 1_545
Ho2_4 Ho5_6 3.650228 1_545
Ho2_4 Ho5_0 3.650228 1_555
Ho2_4 Ho3_6 3.741877 1_545
Ho2_4 Ho3_0 3.741877 1_555
Ho2_5 Te1_1 3.227207 1_555
Ho2_5 Te1_7 3.227207 1_545
Ho2_5 Ho5_1 3.650228 1_555
Ho2_5 Ho5_7 3.650228 1_545
Ho2_5 Ho3_7 3.741877 1_545
Ho2_5 Ho3_1 3.741877 1_555
Ho2_6 Te1_4 3.227207 1_555
Ho2_6 Te1_2 3.227207 1_555
Ho2_6 Ho5_2 3.650228 1_555
Ho2_6 Ho5_4 3.650228 1_555
Ho2_6 Ho3_2 3.741877 1_555
Ho2_6 Ho3_4 3.741877 1_555
Ho2_7 Te1_5 3.227207 1_555
Ho2_7 Te1_3 3.227207 1_555
Ho2_7 Ho5_3 3.650228 1_555
Ho2_7 Ho5_5 3.650228 1_555
Ho2_7 Ho3_3 3.741877 1_555
Ho2_7 Ho3_5 3.741877 1_555
Ho3_0 Te0_2 3.227207 1_555
Ho3_0 Te0_4 3.227207 1_555
Ho3_0 Ho4_4 3.650228 1_555
Ho3_0 Ho4_2 3.650228 1_555
Ho3_1 Te0_3 3.227207 1_555
Ho3_1 Te0_5 3.227207 1_555
Ho3_1 Ho4_5 3.650228 1_555
Ho3_1 Ho4_3 3.650228 1_555
Ho3_2 Te0_6 3.227207 1_555
Ho3_2 Te0_0 3.227207 1_565
Ho3_2 Ho4_0 3.650228 1_565
Ho3_2 Ho4_6 3.650228 1_555
Ho3_3 Te0_7 3.227207 1_555
Ho3_3 Te0_1 3.227207 1_565
Ho3_3 Ho4_1 3.650228 1_565
Ho3_3 Ho4_7 3.650228 1_555
Ho3_4 Te0_6 3.227207 1_555
Ho3_4 Te0_0 3.227207 1_655
Ho3_4 Ho4_0 3.650228 1_655
Ho3_4 Ho4_6 3.650228 1_555
Ho3_5 Te0_7 3.227207 1_555
Ho3_5 Te0_1 3.227207 1_655
Ho3_5 Ho4_1 3.650228 1_655
Ho3_5 Ho4_7 3.650228 1_555
Ho3_6 Te0_4 3.227207 1_565
Ho3_6 Te0_2 3.227207 1_655
Ho3_6 Ho4_4 3.650228 1_565
Ho3_6 Ho4_2 3.650228 1_655
Ho3_7 Te0_3 3.227207 1_655
Ho3_7 Te0_5 3.227207 1_565
Ho3_7 Ho4_5 3.650228 1_565
Ho3_7 Ho4_3 3.650228 1_655
Ho4_0 Te0_0 3.122922 1_555
Ho4_0 Ho8_4 3.517617 1_455
Ho4_0 Ho8_2 3.517617 1_545
Ho4_1 Te0_1 3.122922 1_555
Ho4_1 Ho8_5 3.517617 1_455
Ho4_1 Ho8_3 3.517617 1_545
Ho4_2 Te0_2 3.122922 1_555
Ho4_2 Ho8_0 3.517617 1_555
Ho4_2 Ho8_6 3.517617 1_455
Ho4_3 Te0_3 3.122922 1_555
Ho4_3 Ho8_1 3.517617 1_555
Ho4_3 Ho8_7 3.517617 1_455
Ho4_4 Te0_4 3.122922 1_555
Ho4_4 Ho8_0 3.517617 1_555
Ho4_4 Ho8_6 3.517617 1_545
Ho4_5 Te0_5 3.122922 1_555
Ho4_5 Ho8_1 3.517617 1_555
Ho4_5 Ho8_7 3.517617 1_545
Ho4_6 Te0_6 3.122922 1_555
Ho4_6 Ho8_4 3.517617 1_555
Ho4_6 Ho8_2 3.517617 1_555
Ho4_7 Te0_7 3.122922 1_555
Ho4_7 Ho8_5 3.517617 1_555
Ho4_7 Ho8_3 3.517617 1_555
Ho5_0 Te1_0 3.122922 1_555
Ho5_0 Ho9_2 3.517617 1_555
Ho5_0 Ho9_4 3.517617 1_555
Ho5_1 Te1_1 3.122922 1_555
Ho5_1 Ho9_3 3.517617 1_555
Ho5_1 Ho9_5 3.517617 1_555
Ho5_2 Te1_2 3.122922 1_555
Ho5_2 Ho9_6 3.517617 1_555
Ho5_2 Ho9_0 3.517617 1_565
Ho5_3 Te1_3 3.122922 1_555
Ho5_3 Ho9_7 3.517617 1_555
Ho5_3 Ho9_1 3.517617 1_565
Ho5_4 Te1_4 3.122922 1_555
Ho5_4 Ho9_6 3.517617 1_555
Ho5_4 Ho9_0 3.517617 1_655
Ho5_5 Te1_5 3.122922 1_555
Ho5_5 Ho9_7 3.517617 1_555
Ho5_5 Ho9_1 3.517617 1_655
Ho5_6 Te1_6 3.122922 1_555
Ho5_6 Ho9_2 3.517617 1_655
Ho5_6 Ho9_4 3.517617 1_565
Ho5_7 Te1_7 3.122922 1_555
Ho5_7 Ho9_3 3.517617 1_655
Ho5_7 Ho9_5 3.517617 1_565
Ho6_0 Te3_2 3.183387 1_545
Ho6_0 Te3_4 3.183387 1_455
Ho6_0 Ho7_5 3.703456 1_455
Ho6_0 Ho7_3 3.703456 1_545
Ho6_1 Te3_3 3.183387 1_545
Ho6_1 Te3_5 3.183387 1_455
Ho6_1 Ho7_4 3.703456 1_456
Ho6_1 Ho7_2 3.703456 1_546
Ho6_2 Te3_6 3.183387 1_455
Ho6_2 Te3_0 3.183387 1_555
Ho6_2 Ho7_1 3.703456 1_555
Ho6_2 Ho7_7 3.703456 1_455
Ho6_3 Te3_7 3.183387 1_455
Ho6_3 Te3_1 3.183387 1_555
Ho6_3 Ho7_0 3.703456 1_556
Ho6_3 Ho7_6 3.703456 1_456
Ho6_4 Te3_6 3.183387 1_545
Ho6_4 Te3_0 3.183387 1_555
Ho6_4 Ho7_1 3.703456 1_555
Ho6_4 Ho7_7 3.703456 1_545
Ho6_5 Te3_7 3.183387 1_545
Ho6_5 Te3_1 3.183387 1_555
Ho6_5 Ho7_0 3.703456 1_556
Ho6_5 Ho7_6 3.703456 1_546
Ho6_6 Te3_2 3.183387 1_555
Ho6_6 Te3_4 3.183387 1_555
Ho6_6 Ho7_5 3.703456 1_555
Ho6_6 Ho7_3 3.703456 1_555
Ho6_7 Te3_3 3.183387 1_555
Ho6_7 Te3_5 3.183387 1_555
Ho6_7 Ho7_4 3.703456 1_556
Ho6_7 Ho7_2 3.703456 1_556
Ho7_0 Te2_4 3.183387 1_555
Ho7_0 Te2_2 3.183387 1_555
Ho7_1 Te2_5 3.183387 1_555
Ho7_1 Te2_3 3.183387 1_555
Ho7_2 Te2_0 3.183387 1_565
Ho7_2 Te2_6 3.183387 1_555
Ho7_3 Te2_1 3.183387 1_565
Ho7_3 Te2_7 3.183387 1_555
Ho7_4 Te2_0 3.183387 1_655
Ho7_4 Te2_6 3.183387 1_555
Ho7_5 Te2_7 3.183387 1_555
Ho7_5 Te2_1 3.183387 1_655
Ho7_6 Te2_4 3.183387 1_565
Ho7_6 Te2_2 3.183387 1_655
Ho7_7 Te2_5 3.183387 1_565
Ho7_7 Te2_3 3.183387 1_655
Ho8_0 Te3_4 3.185607 1_455
Ho8_0 Te3_2 3.185607 1_545
Ho8_1 Te3_5 3.185607 1_455
Ho8_1 Te3_3 3.185607 1_545
Ho8_2 Te3_0 3.185607 1_555
Ho8_2 Te3_6 3.185607 1_455
Ho8_3 Te3_1 3.185607 1_555
Ho8_3 Te3_7 3.185607 1_455
Ho8_4 Te3_0 3.185607 1_555
Ho8_4 Te3_6 3.185607 1_545
Ho8_5 Te3_1 3.185607 1_555
Ho8_5 Te3_7 3.185607 1_545
Ho8_6 Te3_4 3.185607 1_555
Ho8_6 Te3_2 3.185607 1_555
Ho8_7 Te3_5 3.185607 1_555
Ho8_7 Te3_3 3.185607 1_555
Ho9_0 Te2_2 3.185607 1_555
Ho9_0 Te2_4 3.185607 1_555
Ho9_1 Te2_3 3.185607 1_555
Ho9_1 Te2_5 3.185607 1_555
Ho9_2 Te2_6 3.185607 1_555
Ho9_2 Te2_0 3.185607 1_565
Ho9_3 Te2_7 3.185607 1_555
Ho9_3 Te2_1 3.185607 1_565
Ho9_4 Te2_6 3.185607 1_555
Ho9_4 Te2_0 3.185607 1_655
Ho9_5 Te2_1 3.185607 1_655
Ho9_5 Te2_7 3.185607 1_555
Ho9_6 Te2_4 3.185607 1_565
Ho9_6 Te2_2 3.185607 1_655
Ho9_7 Te2_5 3.185607 1_565
Ho9_7 Te2_3 3.185607 1_655
Ho10_0 Te3_0 3.085532 1_555
Ho10_0 Te0_2 3.247918 1_555
Ho10_0 Te0_4 3.247918 1_555
Ho10_0 Ho4_4 3.597927 1_555
Ho10_0 Ho4_2 3.597927 1_555
Ho10_0 Ho6_2 3.954413 1_555
Ho10_0 Ho6_4 3.954413 1_555
Ho10_1 Te3_1 3.085532 1_555
Ho10_1 Te0_3 3.247918 1_555
Ho10_1 Te0_5 3.247918 1_555
Ho10_1 Ho4_5 3.597927 1_555
Ho10_1 Ho4_3 3.597927 1_555
Ho10_1 Ho6_3 3.954413 1_555
Ho10_1 Ho6_5 3.954413 1_555
Ho10_2 Te3_2 3.085532 1_555
Ho10_2 Te0_6 3.247918 1_555
Ho10_2 Te0_0 3.247918 1_565
Ho10_2 Ho4_0 3.597927 1_565
Ho10_2 Ho4_6 3.597927 1_555
Ho10_2 Ho6_6 3.954413 1_555
Ho10_2 Ho6_0 3.954413 1_565
Ho10_3 Te3_3 3.085532 1_555
Ho10_3 Te0_7 3.247918 1_555
Ho10_3 Te0_1 3.247918 1_565
Ho10_3 Ho4_1 3.597927 1_565
Ho10_3 Ho4_7 3.597927 1_555
Ho10_3 Ho6_1 3.954413 1_565
Ho10_3 Ho6_7 3.954413 1_555
Ho10_4 Te3_4 3.085532 1_555
Ho10_4 Te0_6 3.247918 1_555
Ho10_4 Te0_0 3.247918 1_655
Ho10_4 Ho4_0 3.597927 1_655
Ho10_4 Ho4_6 3.597927 1_555
Ho10_4 Ho6_6 3.954413 1_555
Ho10_4 Ho6_0 3.954413 1_655
Ho10_5 Te3_5 3.085532 1_555
Ho10_5 Te0_7 3.247918 1_555
Ho10_5 Te0_1 3.247918 1_655
Ho10_5 Ho4_1 3.597927 1_655
Ho10_5 Ho4_7 3.597927 1_555
Ho10_5 Ho6_1 3.954413 1_655
Ho10_5 Ho6_7 3.954413 1_555
Ho10_6 Te3_6 3.085532 1_555
Ho10_6 Te0_4 3.247918 1_565
Ho10_6 Te0_2 3.247918 1_655
Ho10_6 Ho4_4 3.597927 1_565
Ho10_6 Ho4_2 3.597927 1_655
Ho10_6 Ho6_4 3.954413 1_565
Ho10_6 Ho6_2 3.954413 1_655
Ho10_7 Te3_7 3.085532 1_555
Ho10_7 Te0_3 3.247918 1_655
Ho10_7 Te0_5 3.247918 1_565
Ho10_7 Ho4_5 3.597927 1_565
Ho10_7 Ho4_3 3.597927 1_655
Ho10_7 Ho6_3 3.954413 1_655
Ho10_7 Ho6_5 3.954413 1_565
Ho11_0 Te2_0 3.085532 1_555
Ho11_0 Te1_4 3.247918 1_455
Ho11_0 Te1_2 3.247918 1_545
Ho11_0 Ho5_2 3.597927 1_545
Ho11_0 Ho5_4 3.597927 1_455
Ho11_0 Ho7_4 3.954413 1_455
Ho11_0 Ho7_2 3.954413 1_545
Ho11_1 Te2_1 3.085532 1_555
Ho11_1 Te1_5 3.247918 1_455
Ho11_1 Te1_3 3.247918 1_545
Ho11_1 Ho5_3 3.597927 1_545
Ho11_1 Ho5_5 3.597927 1_455
Ho11_1 Ho7_5 3.954413 1_455
Ho11_1 Ho7_3 3.954413 1_545
Ho11_2 Te2_2 3.085532 1_555
Ho11_2 Te1_0 3.247918 1_555
Ho11_2 Te1_6 3.247918 1_455
Ho11_2 Ho5_6 3.597927 1_455
Ho11_2 Ho5_0 3.597927 1_555
Ho11_2 Ho7_0 3.954413 1_555
Ho11_2 Ho7_6 3.954413 1_455
Ho11_3 Te2_3 3.085532 1_555
Ho11_3 Te1_1 3.247918 1_555
Ho11_3 Te1_7 3.247918 1_455
Ho11_3 Ho5_1 3.597927 1_555
Ho11_3 Ho5_7 3.597927 1_455
Ho11_3 Ho7_1 3.954413 1_555
Ho11_3 Ho7_7 3.954413 1_455
Ho11_4 Te2_4 3.085532 1_555
Ho11_4 Te1_0 3.247918 1_555
Ho11_4 Te1_6 3.247918 1_545
Ho11_4 Ho5_6 3.597927 1_545
Ho11_4 Ho5_0 3.597927 1_555
Ho11_4 Ho7_0 3.954413 1_555
Ho11_4 Ho7_6 3.954413 1_545
Ho11_5 Te2_5 3.085532 1_555
Ho11_5 Te1_1 3.247918 1_555
Ho11_5 Te1_7 3.247918 1_545
Ho11_5 Ho5_7 3.597927 1_545
Ho11_5 Ho5_1 3.597927 1_555
Ho11_5 Ho7_1 3.954413 1_555
Ho11_5 Ho7_7 3.954413 1_545
Ho11_6 Te2_6 3.085532 1_555
Ho11_6 Te1_4 3.247918 1_555
Ho11_6 Te1_2 3.247918 1_555
Ho11_6 Ho5_2 3.597927 1_555
Ho11_6 Ho5_4 3.597927 1_555
Ho11_6 Ho7_4 3.954413 1_555
Ho11_6 Ho7_2 3.954413 1_555
Ho11_7 Te2_7 3.085532 1_555
Ho11_7 Te1_5 3.247918 1_555
Ho11_7 Te1_3 3.247918 1_555
Ho11_7 Ho5_3 3.597927 1_555
Ho11_7 Ho5_5 3.597927 1_555
Ho11_7 Ho7_5 3.954413 1_555
Ho11_7 Ho7_3 3.954413 1_555
Ho12_0 Te0_0 3.215958 1_555
Ho12_0 Te1_0 3.215958 1_555
Ho12_0 Ho1_4 3.496239 1_455
Ho12_0 Ho1_2 3.496239 1_545
Ho12_0 Ho2_2 3.696304 1_555
Ho12_0 Ho2_4 3.696304 1_555
Ho12_0 Ho3_4 3.696304 1_455
Ho12_0 Ho3_2 3.696304 1_545
Ho12_0 Ho12_6 3.996652 1_545
Ho12_0 Ho12_6 3.996652 1_455
Ho12_1 Te0_1 3.215958 1_555
Ho12_1 Te1_1 3.215958 1_555
Ho12_1 Ho1_5 3.496239 1_455
Ho12_1 Ho1_3 3.496239 1_545
Ho12_1 Ho2_3 3.696304 1_555
Ho12_1 Ho2_5 3.696304 1_555
Ho12_1 Ho3_5 3.696304 1_455
Ho12_1 Ho3_3 3.696304 1_545
Ho12_1 Ho12_7 3.996652 1_545
Ho12_1 Ho12_7 3.996652 1_455
Ho12_2 Te0_2 3.215958 1_555
Ho12_2 Te1_2 3.215958 1_555
Ho12_2 Ho1_0 3.496239 1_555
Ho12_2 Ho1_6 3.496239 1_455
Ho12_2 Ho2_6 3.696304 1_555
Ho12_2 Ho2_0 3.696304 1_565
Ho12_2 Ho3_0 3.696304 1_555
Ho12_2 Ho3_6 3.696304 1_455
Ho12_2 Ho12_4 3.996652 1_465
Ho12_2 Ho12_4 3.996652 1_555
Ho12_3 Te0_3 3.215958 1_555
Ho12_3 Te1_3 3.215958 1_555
Ho12_3 Ho1_1 3.496239 1_555
Ho12_3 Ho1_7 3.496239 1_455
Ho12_3 Ho2_7 3.696304 1_555
Ho12_3 Ho2_1 3.696304 1_565
Ho12_3 Ho3_1 3.696304 1_555
Ho12_3 Ho3_7 3.696304 1_455
Ho12_3 Ho12_5 3.996652 1_555
Ho12_3 Ho12_5 3.996652 1_465
Ho12_4 Te0_4 3.215958 1_555
Ho12_4 Te1_4 3.215958 1_555
Ho12_4 Ho1_6 3.496239 1_545
Ho12_4 Ho1_0 3.496239 1_555
Ho12_4 Ho2_0 3.696304 1_655
Ho12_4 Ho2_6 3.696304 1_555
Ho12_4 Ho3_0 3.696304 1_555
Ho12_4 Ho3_6 3.696304 1_545
Ho12_5 Te0_5 3.215958 1_555
Ho12_5 Te1_5 3.215958 1_555
Ho12_5 Ho1_1 3.496239 1_555
Ho12_5 Ho1_7 3.496239 1_545
Ho12_5 Ho2_7 3.696304 1_555
Ho12_5 Ho2_1 3.696304 1_655
Ho12_5 Ho3_1 3.696304 1_555
Ho12_5 Ho3_7 3.696304 1_545
Ho12_6 Te0_6 3.215958 1_555
Ho12_6 Te1_6 3.215958 1_555
Ho12_6 Ho1_4 3.496239 1_555
Ho12_6 Ho1_2 3.496239 1_555
Ho12_6 Ho2_2 3.696304 1_655
Ho12_6 Ho2_4 3.696304 1_565
Ho12_6 Ho3_4 3.696304 1_555
Ho12_6 Ho3_2 3.696304 1_555
Ho12_7 Te0_7 3.215958 1_555
Ho12_7 Te1_7 3.215958 1_555
Ho12_7 Ho1_5 3.496239 1_555
Ho12_7 Ho1_3 3.496239 1_555
Ho12_7 Ho2_3 3.696304 1_655
Ho12_7 Ho2_5 3.696304 1_565
Ho12_7 Ho3_5 3.696304 1_555
Ho12_7 Ho3_3 3.696304 1_555
Ho13_0 Te2_0 3.083913 1_555
Ho13_0 Te3_7 3.083913 1_444
Ho13_0 Ho8_3 3.526147 1_544
Ho13_0 Ho8_5 3.526147 1_454
Ho13_0 Ho9_4 3.526147 1_455
Ho13_0 Ho9_2 3.526147 1_545
Ho13_0 Ho7_2 3.645329 1_545
Ho13_0 Ho7_4 3.645329 1_455
Ho13_0 Ho6_5 3.645329 1_454
Ho13_0 Ho6_3 3.645329 1_544
Ho13_0 Ho13_6 3.996652 1_455
Ho13_0 Ho13_6 3.996652 1_545
Ho13_1 Te2_1 3.083913 1_555
Ho13_1 Te3_6 3.083913 1_445
Ho13_1 Ho8_2 3.526147 1_545
Ho13_1 Ho8_4 3.526147 1_455
Ho13_1 Ho9_5 3.526147 1_455
Ho13_1 Ho9_3 3.526147 1_545
Ho13_1 Ho7_3 3.645329 1_545
Ho13_1 Ho7_5 3.645329 1_455
Ho13_1 Ho6_4 3.645329 1_455
Ho13_1 Ho6_2 3.645329 1_545
Ho13_1 Ho13_7 3.996652 1_545
Ho13_1 Ho13_7 3.996652 1_455
Ho13_2 Te2_2 3.083913 1_655
Ho13_2 Te3_5 3.083913 1_554
Ho13_2 Ho8_1 3.526147 1_654
Ho13_2 Ho8_7 3.526147 1_554
Ho13_2 Ho9_0 3.526147 1_655
Ho13_2 Ho9_6 3.526147 1_555
Ho13_2 Ho7_6 3.645329 1_555
Ho13_2 Ho7_0 3.645329 1_655
Ho13_2 Ho6_7 3.645329 1_554
Ho13_2 Ho6_1 3.645329 1_654
Ho13_2 Ho13_4 3.996652 1_565
Ho13_2 Ho13_4 3.996652 1_655
Ho13_3 Te2_3 3.083913 1_655
Ho13_3 Te3_4 3.083913 1_555
Ho13_3 Ho8_6 3.526147 1_555
Ho13_3 Ho8_0 3.526147 1_655
Ho13_3 Ho9_1 3.526147 1_655
Ho13_3 Ho9_7 3.526147 1_555
Ho13_3 Ho7_7 3.645329 1_555
Ho13_3 Ho7_1 3.645329 1_655
Ho13_3 Ho6_0 3.645329 1_655
Ho13_3 Ho6_6 3.645329 1_555
Ho13_3 Ho13_5 3.996652 1_565
Ho13_3 Ho13_5 3.996652 1_655
Ho13_4 Te2_4 3.083913 1_555
Ho13_4 Te3_3 3.083913 1_544
Ho13_4 Ho8_7 3.526147 1_544
Ho13_4 Ho8_1 3.526147 1_554
Ho13_4 Ho9_0 3.526147 1_555
Ho13_4 Ho9_6 3.526147 1_545
Ho13_4 Ho7_6 3.645329 1_545
Ho13_4 Ho7_0 3.645329 1_555
Ho13_4 Ho6_7 3.645329 1_544
Ho13_4 Ho6_1 3.645329 1_554
Ho13_5 Te2_5 3.083913 1_555
Ho13_5 Te3_2 3.083913 1_545
Ho13_5 Ho8_6 3.526147 1_545
Ho13_5 Ho8_0 3.526147 1_555
Ho13_5 Ho9_7 3.526147 1_545
Ho13_5 Ho9_1 3.526147 1_555
Ho13_5 Ho7_7 3.645329 1_545
Ho13_5 Ho7_1 3.645329 1_555
Ho13_5 Ho6_0 3.645329 1_555
Ho13_5 Ho6_6 3.645329 1_545
Ho13_6 Te2_6 3.083913 1_555
Ho13_6 Te3_1 3.083913 1_554
Ho13_6 Ho8_3 3.526147 1_554
Ho13_6 Ho8_5 3.526147 1_554
Ho13_6 Ho9_4 3.526147 1_555
Ho13_6 Ho9_2 3.526147 1_555
Ho13_6 Ho7_2 3.645329 1_555
Ho13_6 Ho7_4 3.645329 1_555
Ho13_6 Ho6_5 3.645329 1_554
Ho13_6 Ho6_3 3.645329 1_554
Ho13_7 Te2_7 3.083913 1_555
Ho13_7 Te3_0 3.083913 1_555
Ho13_7 Ho8_2 3.526147 1_555
Ho13_7 Ho8_4 3.526147 1_555
Ho13_7 Ho9_5 3.526147 1_555
Ho13_7 Ho9_3 3.526147 1_555
Ho13_7 Ho7_3 3.645329 1_555
Ho13_7 Ho7_5 3.645329 1_555
Ho13_7 Ho6_2 3.645329 1_555
Ho13_7 Ho6_4 3.645329 1_555
Au0_0 Ho10_2 2.944749 1_545
Au0_0 Ho10_4 2.944749 1_455
Au0_0 Ho7_3 2.973991 1_545
Au0_0 Ho7_5 2.973991 1_455
Au0_0 Ho8_4 2.997749 1_455
Au0_0 Ho8_2 2.997749 1_545
Au0_0 Ho13_1 3.215542 1_555
Au0_0 Ho4_0 3.497431 1_555
Au0_0 Ho6_0 3.768322 1_555
Au0_1 Ho10_3 2.944749 1_545
Au0_1 Ho10_5 2.944749 1_455
Au0_1 Ho7_2 2.973991 1_546
Au0_1 Ho7_4 2.973991 1_456
Au0_1 Ho8_5 2.997749 1_455
Au0_1 Ho8_3 2.997749 1_545
Au0_1 Ho13_0 3.215542 1_556
Au0_1 Ho4_1 3.497431 1_555
Au0_1 Ho6_1 3.768322 1_555
Au0_2 Ho10_6 2.944749 1_455
Au0_2 Ho10_0 2.944749 1_555
Au0_2 Ho7_7 2.973991 1_455
Au0_2 Ho7_1 2.973991 1_555
Au0_2 Ho8_0 2.997749 1_555
Au0_2 Ho8_6 2.997749 1_455
Au0_2 Ho13_3 3.215542 1_455
Au0_2 Ho4_2 3.497431 1_555
Au0_2 Ho6_2 3.768322 1_555
Au0_3 Ho10_7 2.944749 1_455
Au0_3 Ho10_1 2.944749 1_555
Au0_3 Ho7_6 2.973991 1_456
Au0_3 Ho7_0 2.973991 1_556
Au0_3 Ho8_1 2.997749 1_555
Au0_3 Ho8_7 2.997749 1_455
Au0_3 Ho13_2 3.215542 1_456
Au0_3 Ho4_3 3.497431 1_555
Au0_3 Ho6_3 3.768322 1_555
Au0_4 Ho10_6 2.944749 1_545
Au0_4 Ho10_0 2.944749 1_555
Au0_4 Ho7_7 2.973991 1_545
Au0_4 Ho7_1 2.973991 1_555
Au0_4 Ho8_0 2.997749 1_555
Au0_4 Ho8_6 2.997749 1_545
Au0_4 Ho13_5 3.215542 1_555
Au0_4 Ho4_4 3.497431 1_555
Au0_4 Ho6_4 3.768322 1_555
Au0_5 Ho10_7 2.944749 1_545
Au0_5 Ho10_1 2.944749 1_555
Au0_5 Ho7_6 2.973991 1_546
Au0_5 Ho7_0 2.973991 1_556
Au0_5 Ho8_1 2.997749 1_555
Au0_5 Ho8_7 2.997749 1_545
Au0_5 Ho13_4 3.215542 1_556
Au0_5 Ho4_5 3.497431 1_555
Au0_5 Ho6_5 3.768322 1_555
Au0_6 Ho10_4 2.944749 1_555
Au0_6 Ho10_2 2.944749 1_555
Au0_6 Ho7_5 2.973991 1_555
Au0_6 Ho7_3 2.973991 1_555
Au0_6 Ho8_4 2.997749 1_555
Au0_6 Ho8_2 2.997749 1_555
Au0_6 Ho13_7 3.215542 1_555
Au0_6 Ho4_6 3.497431 1_555
Au0_6 Ho6_6 3.768322 1_555
Au0_7 Ho10_3 2.944749 1_555
Au0_7 Ho10_5 2.944749 1_555
Au0_7 Ho7_4 2.973991 1_556
Au0_7 Ho7_2 2.973991 1_556
Au0_7 Ho8_5 2.997749 1_555
Au0_7 Ho8_3 2.997749 1_555
Au0_7 Ho13_6 3.215542 1_556
Au0_7 Ho4_7 3.497431 1_555
Au0_7 Ho6_7 3.768322 1_555
Au1_0 Ho11_4 2.944749 1_555
Au1_0 Ho11_2 2.944749 1_555
Au1_0 Ho6_5 2.973991 1_554
Au1_0 Ho6_3 2.973991 1_554
Au1_0 Ho9_2 2.997749 1_555
Au1_0 Ho9_4 2.997749 1_555
Au1_0 Ho13_6 3.215542 1_555
Au1_0 Ho5_0 3.497431 1_555
Au1_0 Ho7_0 3.768322 1_555
Au1_1 Ho11_5 2.944749 1_555
Au1_1 Ho11_3 2.944749 1_555
Au1_1 Ho6_4 2.973991 1_555
Au1_1 Ho6_2 2.973991 1_555
Au1_1 Ho9_3 2.997749 1_555
Au1_1 Ho9_5 2.997749 1_555
Au1_1 Ho13_7 3.215542 1_555
Au1_1 Ho5_1 3.497431 1_555
Au1_1 Ho7_1 3.768322 1_555
Au1_2 Ho11_0 2.944749 1_565
Au1_2 Ho11_6 2.944749 1_555
Au1_2 Ho6_7 2.973991 1_554
Au1_2 Ho6_1 2.973991 1_564
Au1_2 Ho9_6 2.997749 1_555
Au1_2 Ho9_0 2.997749 1_565
Au1_2 Ho13_4 3.215542 1_565
Au1_2 Ho5_2 3.497431 1_555
Au1_2 Ho7_2 3.768322 1_555
Au1_3 Ho11_1 2.944749 1_565
Au1_3 Ho11_7 2.944749 1_555
Au1_3 Ho6_0 2.973991 1_565
Au1_3 Ho6_6 2.973991 1_555
Au1_3 Ho9_7 2.997749 1_555
Au1_3 Ho9_1 2.997749 1_565
Au1_3 Ho13_5 3.215542 1_565
Au1_3 Ho5_3 3.497431 1_555
Au1_3 Ho7_3 3.768322 1_555
Au1_4 Ho11_0 2.944749 1_655
Au1_4 Ho11_6 2.944749 1_555
Au1_4 Ho6_1 2.973991 1_654
Au1_4 Ho6_7 2.973991 1_554
Au1_4 Ho9_6 2.997749 1_555
Au1_4 Ho9_0 2.997749 1_655
Au1_4 Ho13_2 3.215542 1_555
Au1_4 Ho5_4 3.497431 1_555
Au1_4 Ho7_4 3.768322 1_555
Au1_5 Ho11_1 2.944749 1_655
Au1_5 Ho11_7 2.944749 1_555
Au1_5 Ho6_0 2.973991 1_655
Au1_5 Ho6_6 2.973991 1_555
Au1_5 Ho9_7 2.997749 1_555
Au1_5 Ho9_1 2.997749 1_655
Au1_5 Ho13_3 3.215542 1_555
Au1_5 Ho5_5 3.497431 1_555
Au1_5 Ho7_5 3.768322 1_555
Au1_6 Ho11_4 2.944749 1_565
Au1_6 Ho11_2 2.944749 1_655
Au1_6 Ho6_5 2.973991 1_564
Au1_6 Ho6_3 2.973991 1_654
Au1_6 Ho9_2 2.997749 1_655
Au1_6 Ho9_4 2.997749 1_565
Au1_6 Ho13_0 3.215542 1_665
Au1_6 Ho5_6 3.497431 1_555
Au1_6 Ho7_6 3.768322 1_555
Au1_7 Ho11_5 2.944749 1_565
Au1_7 Ho11_3 2.944749 1_655
Au1_7 Ho6_4 2.973991 1_565
Au1_7 Ho6_2 2.973991 1_655
Au1_7 Ho9_3 2.997749 1_655
Au1_7 Ho9_5 2.997749 1_565
Au1_7 Ho13_1 3.215542 1_665
Au1_7 Ho5_7 3.497431 1_555
Au1_7 Ho7_7 3.768322 1_555
Au2_0 Ho5_4 2.919098 1_455
Au2_0 Ho5_2 2.919098 1_545
Au2_0 Ho1_2 2.949752 1_545
Au2_0 Ho1_4 2.949752 1_455
Au2_0 Ho3_2 3.003532 1_545
Au2_0 Ho3_4 3.003532 1_455
Au2_0 Ho12_0 3.077414 1_555
Au2_0 Ho2_0 3.644335 1_555
Au2_0 Ho9_0 3.801951 1_555
Au2_1 Ho5_5 2.919098 1_455
Au2_1 Ho5_3 2.919098 1_545
Au2_1 Ho1_3 2.949752 1_545
Au2_1 Ho1_5 2.949752 1_455
Au2_1 Ho3_5 3.003532 1_455
Au2_1 Ho3_3 3.003532 1_545
Au2_1 Ho12_1 3.077414 1_555
Au2_1 Ho2_1 3.644335 1_555
Au2_1 Ho9_1 3.801951 1_555
Au2_2 Ho5_0 2.919098 1_555
Au2_2 Ho5_6 2.919098 1_455
Au2_2 Ho1_6 2.949752 1_455
Au2_2 Ho1_0 2.949752 1_555
Au2_2 Ho3_0 3.003532 1_555
Au2_2 Ho3_6 3.003532 1_455
Au2_2 Ho12_2 3.077414 1_555
Au2_2 Ho2_2 3.644335 1_555
Au2_2 Ho9_2 3.801951 1_555
Au2_3 Ho5_7 2.919098 1_455
Au2_3 Ho5_1 2.919098 1_555
Au2_3 Ho1_7 2.949752 1_455
Au2_3 Ho1_1 2.949752 1_555
Au2_3 Ho3_1 3.003532 1_555
Au2_3 Ho3_7 3.003532 1_455
Au2_3 Ho12_3 3.077414 1_555
Au2_3 Ho2_3 3.644335 1_555
Au2_3 Ho9_3 3.801951 1_555
Au2_4 Ho5_0 2.919098 1_555
Au2_4 Ho5_6 2.919098 1_545
Au2_4 Ho1_6 2.949752 1_545
Au2_4 Ho1_0 2.949752 1_555
Au2_4 Ho3_0 3.003532 1_555
Au2_4 Ho3_6 3.003532 1_545
Au2_4 Ho12_4 3.077414 1_555
Au2_4 Ho2_4 3.644335 1_555
Au2_4 Ho9_4 3.801951 1_555
Au2_5 Ho5_7 2.919098 1_545
Au2_5 Ho5_1 2.919098 1_555
Au2_5 Ho1_7 2.949752 1_545
Au2_5 Ho1_1 2.949752 1_555
Au2_5 Ho3_7 3.003532 1_545
Au2_5 Ho3_1 3.003532 1_555
Au2_5 Ho12_5 3.077414 1_555
Au2_5 Ho2_5 3.644335 1_555
Au2_5 Ho9_5 3.801951 1_555
Au2_6 Ho5_4 2.919098 1_555
Au2_6 Ho5_2 2.919098 1_555
Au2_6 Ho1_2 2.949752 1_555
Au2_6 Ho1_4 2.949752 1_555
Au2_6 Ho3_4 3.003532 1_555
Au2_6 Ho3_2 3.003532 1_555
Au2_6 Ho12_6 3.077414 1_555
Au2_6 Ho2_6 3.644335 1_555
Au2_6 Ho9_6 3.801951 1_555
Au2_7 Ho5_5 2.919098 1_555
Au2_7 Ho5_3 2.919098 1_555
Au2_7 Ho1_3 2.949752 1_555
Au2_7 Ho1_5 2.949752 1_555
Au2_7 Ho3_5 3.003532 1_555
Au2_7 Ho3_3 3.003532 1_555
Au2_7 Ho12_7 3.077414 1_555
Au2_7 Ho2_7 3.644335 1_555
Au2_7 Ho9_7 3.801951 1_555
Au3_0 Ho4_2 2.919098 1_555
Au3_0 Ho4_4 2.919098 1_555
Au3_0 Ho0_4 2.949752 1_555
Au3_0 Ho0_2 2.949752 1_555
Au3_0 Ho2_2 3.003532 1_555
Au3_0 Ho2_4 3.003532 1_555
Au3_0 Ho12_0 3.077414 1_555
Au3_0 Ho3_0 3.644335 1_555
Au3_0 Ho8_0 3.801951 1_555
Au3_1 Ho4_3 2.919098 1_555
Au3_1 Ho4_5 2.919098 1_555
Au3_1 Ho0_5 2.949752 1_555
Au3_1 Ho0_3 2.949752 1_555
Au3_1 Ho2_3 3.003532 1_555
Au3_1 Ho2_5 3.003532 1_555
Au3_1 Ho12_1 3.077414 1_555
Au3_1 Ho3_1 3.644335 1_555
Au3_1 Ho8_1 3.801951 1_555
Au3_2 Ho4_6 2.919098 1_555
Au3_2 Ho4_0 2.919098 1_565
Au3_2 Ho0_6 2.949752 1_555
Au3_2 Ho0_0 2.949752 1_565
Au3_2 Ho2_6 3.003532 1_555
Au3_2 Ho2_0 3.003532 1_565
Au3_2 Ho12_2 3.077414 1_555
Au3_2 Ho3_2 3.644335 1_555
Au3_2 Ho8_2 3.801951 1_555
Au3_3 Ho4_7 2.919098 1_555
Au3_3 Ho4_1 2.919098 1_565
Au3_3 Ho0_7 2.949752 1_555
Au3_3 Ho0_1 2.949752 1_565
Au3_3 Ho2_7 3.003532 1_555
Au3_3 Ho2_1 3.003532 1_565
Au3_3 Ho12_3 3.077414 1_555
Au3_3 Ho3_3 3.644335 1_555
Au3_3 Ho8_3 3.801951 1_555
Au3_4 Ho4_6 2.919098 1_555
Au3_4 Ho4_0 2.919098 1_655
Au3_4 Ho0_6 2.949752 1_555
Au3_4 Ho0_0 2.949752 1_655
Au3_4 Ho2_0 3.003532 1_655
Au3_4 Ho2_6 3.003532 1_555
Au3_4 Ho12_4 3.077414 1_555
Au3_4 Ho3_4 3.644335 1_555
Au3_4 Ho8_4 3.801951 1_555
Au3_5 Ho4_7 2.919098 1_555
Au3_5 Ho4_1 2.919098 1_655
Au3_5 Ho0_7 2.949752 1_555
Au3_5 Ho0_1 2.949752 1_655
Au3_5 Ho2_7 3.003532 1_555
Au3_5 Ho2_1 3.003532 1_655
Au3_5 Ho12_5 3.077414 1_555
Au3_5 Ho3_5 3.644335 1_555
Au3_5 Ho8_5 3.801951 1_555
Au3_6 Ho4_2 2.919098 1_655
Au3_6 Ho4_4 2.919098 1_565
Au3_6 Ho0_4 2.949752 1_565
Au3_6 Ho0_2 2.949752 1_655
Au3_6 Ho2_2 3.003532 1_655
Au3_6 Ho2_4 3.003532 1_565
Au3_6 Ho12_6 3.077414 1_555
Au3_6 Ho3_6 3.644335 1_555
Au3_6 Ho8_6 3.801951 1_555
Au3_7 Ho4_3 2.919098 1_655
Au3_7 Ho4_5 2.919098 1_565
Au3_7 Ho0_5 2.949752 1_565
Au3_7 Ho0_3 2.949752 1_655
Au3_7 Ho2_3 3.003532 1_655
Au3_7 Ho2_5 3.003532 1_565
Au3_7 Ho12_7 3.077414 1_555
Au3_7 Ho3_7 3.644335 1_555
Au3_7 Ho8_7 3.801951 1_555
