# generated using pymatgen
data_Sr2CoO4
_symmetry_space_group_name_H-M   'P 1'
_cell_length_a   5.47838678
_cell_length_b   5.47841185
_cell_length_c   13.21861830
_cell_angle_alpha   101.81688387
_cell_angle_beta   101.81686472
_cell_angle_gamma   90.66250995
_symmetry_Int_Tables_number   1
_chemical_formula_structural   Sr2CoO4
_chemical_formula_sum   'Sr8 Co4 O16'
_cell_volume   379.49800492
_cell_formula_units_Z   4
loop_
 _symmetry_equiv_pos_site_id
 _symmetry_equiv_pos_as_xyz
  1  'x, y, z'
loop_
 _atom_site_type_symbol
 _atom_site_label
 _atom_site_symmetry_multiplicity
 _atom_site_fract_x
 _atom_site_fract_y
 _atom_site_fract_z
 _atom_site_occupancy
  Sr  Sr0  1  0.06945300  0.57354600  0.14340600  1
  Sr  Sr1  1  0.56943500  0.07352600  0.14340600  1
  Sr  Sr2  1  0.32355900  0.31942100  0.64339500  1
  Sr  Sr3  1  0.82354400  0.81940700  0.64339200  1
  Sr  Sr4  1  0.68058200  0.67644400  0.35660500  1
  Sr  Sr5  1  0.18059700  0.17645900  0.35660800  1
  Sr  Sr6  1  0.92647200  0.43056200  0.85659500  1
  Sr  Sr7  1  0.42645100  0.93054500  0.85659400  1
  Co  Co0  1  0.48697000  0.51300700  0.00000000  1
  Co  Co1  1  0.26306200  0.73696200  0.50000000  1
  Co  Co2  1  0.98699700  0.01297900  0.00000000  1
  Co  Co3  1  0.76303800  0.23698600  0.50000000  1
  O  O0  1  0.16786400  0.67384500  0.34133400  1
  O  O1  1  0.66787400  0.17384600  0.34134400  1
  O  O2  1  0.42377500  0.41778900  0.84130800  1
  O  O3  1  0.92377500  0.91780000  0.84132200  1
  O  O4  1  0.58221700  0.57623100  0.15869200  1
  O  O5  1  0.08220600  0.07623100  0.15867800  1
  O  O6  1  0.82614800  0.33212000  0.65865600  1
  O  O7  1  0.32614900  0.83212900  0.65866600  1
  O  O8  1  0.25753000  0.24244800  0.00000000  1
  O  O9  1  0.75755800  0.74247600  0.00000000  1
  O  O10  1  0.49240200  0.00761100  0.50000000  1
  O  O11  1  0.99238200  0.50759200  0.50000100  1
  O  O12  1  0.25327400  0.74673600  0.00000000  1
  O  O13  1  0.75326900  0.24674100  0.00000000  1
  O  O14  1  0.49670400  0.50328600  0.50000000  1
  O  O15  1  0.99671400  0.00327700  0.50000000  1
loop_
_geom_bond_atom_site_label_1
_geom_bond_atom_site_label_2
_geom_bond_distance
_geom_bond_site_symmetry_2
Co0 O12 1.821156 1_555
Co0 O8 1.932326 1_555
Co0 O9 1.932547 1_555
Co0 O4 2.010592 1_555
Co0 O2 2.010592 1_554
Co0 O13 2.074950 1_555
Co1 O14 1.820739 1_555
Co1 O10 1.932349 1_565
Co1 O11 1.932586 1_455
Co1 O0 2.010278 1_555
Co1 O7 2.010278 1_555
Co1 O15 2.075332 1_465
Co2 O13 1.821409 1_555
Co2 O9 1.932089 1_545
Co2 O8 1.932318 1_655
Co2 O5 2.010400 1_655
Co2 O3 2.010400 1_544
Co2 O12 2.074775 1_645
Co3 O15 1.821000 1_555
Co3 O11 1.932180 1_555
Co3 O10 1.932416 1_555
Co3 O1 2.010138 1_555
Co3 O6 2.010139 1_555
Co3 O14 2.075219 1_555
O0 Sr0 2.502883 1_555
O0 Sr4 2.718031 1_455
O0 Sr5 2.718388 1_565
O0 Sr5 2.773912 1_555
O0 Sr4 2.774231 1_555
O1 Sr1 2.503010 1_555
O1 Sr5 2.717978 1_555
O1 Sr4 2.718324 1_555
O1 Sr4 2.773950 1_545
O1 Sr5 2.774270 1_655
O2 Sr2 2.502693 1_555
O2 Sr7 2.717890 1_545
O2 Sr6 2.718805 1_555
O2 Sr6 2.773496 1_455
O2 Sr7 2.774416 1_555
O3 Sr3 2.502908 1_555
O3 Sr6 2.717811 1_555
O3 Sr7 2.718718 1_655
O3 Sr7 2.773555 1_555
O3 Sr6 2.774469 1_565
O4 Sr4 2.502693 1_555
O4 Sr0 2.717834 1_655
O4 Sr1 2.718863 1_555
O4 Sr1 2.773463 1_565
O4 Sr0 2.774446 1_555
O5 Sr5 2.502908 1_555
O5 Sr1 2.717746 1_555
O5 Sr0 2.718779 1_545
O5 Sr0 2.773519 1_555
O5 Sr1 2.774507 1_455
O6 Sr6 2.503023 1_555
O6 Sr3 2.718045 1_555
O6 Sr2 2.718263 1_555
O6 Sr2 2.773985 1_655
O6 Sr3 2.774229 1_545
O7 Sr7 2.502883 1_555
O7 Sr2 2.718098 1_565
O7 Sr3 2.718326 1_455
O7 Sr3 2.773947 1_555
O7 Sr2 2.774190 1_555
O8 Sr7 2.607293 1_544
O8 Sr1 2.607300 1_555
O8 Sr6 2.716623 1_454
O8 Sr0 2.716642 1_555
O9 Sr0 2.607295 1_655
O9 Sr6 2.607295 1_554
O9 Sr1 2.716636 1_565
O9 Sr7 2.716643 1_554
O10 Sr5 2.606690 1_555
O10 Sr2 2.606717 1_555
O10 Sr3 2.717018 1_545
O10 Sr4 2.717048 1_545
O11 Sr3 2.606682 1_555
O11 Sr4 2.606722 1_555
O11 Sr5 2.717034 1_655
O11 Sr2 2.717041 1_655
O12 Sr1 2.644264 1_565
O12 Sr6 2.644328 1_454
O12 Sr7 2.646472 1_554
O12 Sr0 2.646542 1_555
O13 Sr0 2.644370 1_655
O13 Sr7 2.644440 1_544
O13 Sr6 2.646566 1_554
O13 Sr1 2.646648 1_555
O14 Sr5 2.644140 1_555
O14 Sr3 2.644215 1_555
O14 Sr2 2.646419 1_555
O14 Sr4 2.646491 1_555
O15 Sr4 2.644243 1_545
O15 Sr2 2.644310 1_655
O15 Sr3 2.646467 1_545
O15 Sr5 2.646537 1_655
