# generated using pymatgen
data_Y3(CuSi)4
_symmetry_space_group_name_H-M   'P 1'
_cell_length_a   7.87269077
_cell_length_b   7.87269077
_cell_length_c   7.87269077
_cell_angle_alpha   149.46969574
_cell_angle_beta   130.84297859
_cell_angle_gamma   58.97922428
_symmetry_Int_Tables_number   1
_chemical_formula_structural   Y3(CuSi)4
_chemical_formula_sum   'Y3 Cu4 Si4'
_cell_volume   186.04998885
_cell_formula_units_Z   1
loop_
 _symmetry_equiv_pos_site_id
 _symmetry_equiv_pos_as_xyz
  1  'x, y, z'
loop_
 _atom_site_type_symbol
 _atom_site_label
 _atom_site_symmetry_multiplicity
 _atom_site_fract_x
 _atom_site_fract_y
 _atom_site_fract_z
 _atom_site_occupancy
  Y  Y0  1  0.37098800  0.87098800  0.50000000  1
  Y  Y1  1  0.62901200  0.12901200  0.50000000  1
  Y  Y2  1  0.00000000  0.00000000  0.00000000  1
  Cu  Cu0  1  0.64110900  0.33126900  0.30984000  1
  Cu  Cu1  1  0.35889100  0.66873100  0.69016000  1
  Cu  Cu2  1  0.02142900  0.33126900  0.69016000  1
  Cu  Cu3  1  0.97857100  0.66873100  0.30984000  1
  Si  Si0  1  0.21625200  0.21625200  0.00000000  1
  Si  Si1  1  0.78374800  0.78374800  0.00000000  1
  Si  Si2  1  0.68375600  0.50000000  0.18375600  1
  Si  Si3  1  0.31624400  0.50000000  0.81624400  1
loop_
_geom_bond_atom_site_label_1
_geom_bond_atom_site_label_2
_geom_bond_distance
_geom_bond_site_symmetry_2
Y0 Y1 3.536345 1_565
Cu0 Si2 2.455543 1_555
Cu0 Cu2 2.490765 1_655
Cu0 Si1 2.504307 1_556
Cu0 Si1 2.504307 1_545
Cu0 Si0 2.569534 1_555
Cu0 Y0 2.951322 1_555
Cu0 Y0 2.951322 1_544
Cu0 Y1 3.038936 1_555
Cu0 Y2 3.345924 1_666
Cu0 Y2 3.345924 1_655
Cu1 Si3 2.455543 1_555
Cu1 Cu3 2.490765 1_455
Cu1 Si0 2.504307 1_566
Cu1 Si0 2.504307 1_555
Cu1 Si1 2.569534 1_556
Cu1 Y1 2.951322 1_566
Cu1 Y1 2.951322 1_555
Cu1 Y0 3.038936 1_555
Cu1 Y2 3.345924 1_566
Cu1 Y2 3.345924 1_555
Cu2 Si3 2.455543 1_555
Cu2 Si1 2.504307 1_445
Cu2 Si1 2.504307 1_456
Cu2 Si0 2.569534 1_556
Cu2 Y0 2.951322 1_545
Cu2 Y0 2.951322 1_556
Cu2 Y1 3.038936 1_455
Cu2 Y2 3.345924 1_566
Cu2 Y2 3.345924 1_555
Cu3 Si2 2.455543 1_555
Cu3 Si0 2.504307 1_655
Cu3 Si0 2.504307 1_666
Cu3 Si1 2.569534 1_555
Cu3 Y1 2.951322 1_554
Cu3 Y1 2.951322 1_565
Cu3 Y0 3.038936 1_655
Cu3 Y2 3.345924 1_655
Cu3 Y2 3.345924 1_666
Si0 Y2 2.963839 1_555
Si0 Y0 2.965449 1_555
Si0 Y0 2.965449 1_544
Si1 Y2 2.963839 1_665
Si1 Y1 2.965449 1_554
Si1 Y1 2.965449 1_565
Si2 Si3 2.406884 1_554
Si2 Y2 2.930177 1_666
Si2 Y2 2.930177 1_655
Si2 Y0 2.978438 1_555
Si2 Y0 2.978438 1_544
Si2 Y1 2.978438 1_565
Si2 Y1 2.978438 1_554
Si3 Y2 2.930177 1_566
Si3 Y2 2.930177 1_555
Si3 Y0 2.978438 1_556
Si3 Y0 2.978438 1_545
Si3 Y1 2.978438 1_566
Si3 Y1 2.978438 1_555
