# generated using pymatgen
data_TaTe4Rh
_symmetry_space_group_name_H-M   'P 1'
_cell_length_a   7.56482400
_cell_length_b   25.58140600
_cell_length_c   27.13951800
_cell_angle_alpha   90.00000000
_cell_angle_beta   90.00000000
_cell_angle_gamma   90.00000000
_symmetry_Int_Tables_number   1
_chemical_formula_structural   TaTe4Rh
_chemical_formula_sum   'Ta32 Te128 Rh32'
_cell_volume   5252.00788038
_cell_formula_units_Z   32
loop_
 _symmetry_equiv_pos_site_id
 _symmetry_equiv_pos_as_xyz
  1  'x, y, z'
loop_
 _atom_site_type_symbol
 _atom_site_label
 _atom_site_symmetry_multiplicity
 _atom_site_fract_x
 _atom_site_fract_y
 _atom_site_fract_z
 _atom_site_occupancy
  Ta  Ta0_0  1  0.25000000  0.47349200  0.25186400  1
  Ta  Ta0_1  1  0.25000000  0.47349200  0.75186400  1
  Ta  Ta0_2  1  0.25000000  0.97349200  0.25186400  1
  Ta  Ta0_3  1  0.25000000  0.97349200  0.75186400  1
  Ta  Ta0_4  1  0.75000000  0.47349200  0.25186400  1
  Ta  Ta0_5  1  0.75000000  0.47349200  0.75186400  1
  Ta  Ta0_6  1  0.75000000  0.97349200  0.25186400  1
  Ta  Ta0_7  1  0.75000000  0.97349200  0.75186400  1
  Ta  Ta1_0  1  0.00000000  0.02650800  0.00186400  1
  Ta  Ta1_1  1  0.00000000  0.02650800  0.50186400  1
  Ta  Ta1_2  1  0.00000000  0.52650800  0.00186400  1
  Ta  Ta1_3  1  0.00000000  0.52650800  0.50186400  1
  Ta  Ta1_4  1  0.50000000  0.02650800  0.00186400  1
  Ta  Ta1_5  1  0.50000000  0.02650800  0.50186400  1
  Ta  Ta1_6  1  0.50000000  0.52650800  0.00186400  1
  Ta  Ta1_7  1  0.50000000  0.52650800  0.50186400  1
  Ta  Ta2_0  1  0.25000000  0.36578550  0.49587150  1
  Ta  Ta2_1  1  0.25000000  0.36578550  0.99587150  1
  Ta  Ta2_2  1  0.25000000  0.86578550  0.49587150  1
  Ta  Ta2_3  1  0.25000000  0.86578550  0.99587150  1
  Ta  Ta2_4  1  0.75000000  0.36578550  0.49587150  1
  Ta  Ta2_5  1  0.75000000  0.36578550  0.99587150  1
  Ta  Ta2_6  1  0.75000000  0.86578550  0.49587150  1
  Ta  Ta2_7  1  0.75000000  0.86578550  0.99587150  1
  Ta  Ta3_0  1  0.00000000  0.13421450  0.24587150  1
  Ta  Ta3_1  1  0.00000000  0.13421450  0.74587150  1
  Ta  Ta3_2  1  0.00000000  0.63421450  0.24587150  1
  Ta  Ta3_3  1  0.00000000  0.63421450  0.74587150  1
  Ta  Ta3_4  1  0.50000000  0.13421450  0.24587150  1
  Ta  Ta3_5  1  0.50000000  0.13421450  0.74587150  1
  Ta  Ta3_6  1  0.50000000  0.63421450  0.24587150  1
  Ta  Ta3_7  1  0.50000000  0.63421450  0.74587150  1
  Te  Te0_0  1  0.25000000  0.46677400  0.44631400  1
  Te  Te0_1  1  0.25000000  0.46677400  0.94631400  1
  Te  Te0_2  1  0.25000000  0.96677400  0.44631400  1
  Te  Te0_3  1  0.25000000  0.96677400  0.94631400  1
  Te  Te0_4  1  0.75000000  0.46677400  0.44631400  1
  Te  Te0_5  1  0.75000000  0.46677400  0.94631400  1
  Te  Te0_6  1  0.75000000  0.96677400  0.44631400  1
  Te  Te0_7  1  0.75000000  0.96677400  0.94631400  1
  Te  Te1_0  1  0.00000000  0.03322600  0.19631400  1
  Te  Te1_1  1  0.00000000  0.03322600  0.69631400  1
  Te  Te1_2  1  0.00000000  0.53322600  0.19631400  1
  Te  Te1_3  1  0.00000000  0.53322600  0.69631400  1
  Te  Te1_4  1  0.50000000  0.03322600  0.19631400  1
  Te  Te1_5  1  0.50000000  0.03322600  0.69631400  1
  Te  Te1_6  1  0.50000000  0.53322600  0.19631400  1
  Te  Te1_7  1  0.50000000  0.53322600  0.69631400  1
  Te  Te2_0  1  0.25000000  0.40421900  0.17815200  1
  Te  Te2_1  1  0.25000000  0.40421900  0.67815200  1
  Te  Te2_2  1  0.25000000  0.90421900  0.17815200  1
  Te  Te2_3  1  0.25000000  0.90421900  0.67815200  1
  Te  Te2_4  1  0.75000000  0.40421900  0.17815200  1
  Te  Te2_5  1  0.75000000  0.40421900  0.67815200  1
  Te  Te2_6  1  0.75000000  0.90421900  0.17815200  1
  Te  Te2_7  1  0.75000000  0.90421900  0.67815200  1
  Te  Te3_0  1  0.00000000  0.09578100  0.42815200  1
  Te  Te3_1  1  0.00000000  0.09578100  0.92815200  1
  Te  Te3_2  1  0.00000000  0.59578100  0.42815200  1
  Te  Te3_3  1  0.00000000  0.59578100  0.92815200  1
  Te  Te3_4  1  0.50000000  0.09578100  0.42815200  1
  Te  Te3_5  1  0.50000000  0.09578100  0.92815200  1
  Te  Te3_6  1  0.50000000  0.59578100  0.42815200  1
  Te  Te3_7  1  0.50000000  0.59578100  0.92815200  1
  Te  Te4_0  1  0.25000000  0.32642200  0.29573700  1
  Te  Te4_1  1  0.25000000  0.32642200  0.79573700  1
  Te  Te4_2  1  0.25000000  0.82642200  0.29573700  1
  Te  Te4_3  1  0.25000000  0.82642200  0.79573700  1
  Te  Te4_4  1  0.75000000  0.32642200  0.29573700  1
  Te  Te4_5  1  0.75000000  0.32642200  0.79573700  1
  Te  Te4_6  1  0.75000000  0.82642200  0.29573700  1
  Te  Te4_7  1  0.75000000  0.82642200  0.79573700  1
  Te  Te5_0  1  0.00000000  0.17357800  0.04573700  1
  Te  Te5_1  1  0.00000000  0.17357800  0.54573700  1
  Te  Te5_2  1  0.00000000  0.67357800  0.04573700  1
  Te  Te5_3  1  0.00000000  0.67357800  0.54573700  1
  Te  Te5_4  1  0.50000000  0.17357800  0.04573700  1
  Te  Te5_5  1  0.50000000  0.17357800  0.54573700  1
  Te  Te5_6  1  0.50000000  0.67357800  0.04573700  1
  Te  Te5_7  1  0.50000000  0.67357800  0.54573700  1
  Te  Te6_0  1  0.25000000  0.29468800  0.06788000  1
  Te  Te6_1  1  0.25000000  0.29468800  0.56788000  1
  Te  Te6_2  1  0.25000000  0.79468800  0.06788000  1
  Te  Te6_3  1  0.25000000  0.79468800  0.56788000  1
  Te  Te6_4  1  0.75000000  0.29468800  0.06788000  1
  Te  Te6_5  1  0.75000000  0.29468800  0.56788000  1
  Te  Te6_6  1  0.75000000  0.79468800  0.06788000  1
  Te  Te6_7  1  0.75000000  0.79468800  0.56788000  1
  Te  Te7_0  1  0.00000000  0.20531200  0.31788000  1
  Te  Te7_1  1  0.00000000  0.20531200  0.81788000  1
  Te  Te7_2  1  0.00000000  0.70531200  0.31788000  1
  Te  Te7_3  1  0.00000000  0.70531200  0.81788000  1
  Te  Te7_4  1  0.50000000  0.20531200  0.31788000  1
  Te  Te7_5  1  0.50000000  0.20531200  0.81788000  1
  Te  Te7_6  1  0.50000000  0.70531200  0.31788000  1
  Te  Te7_7  1  0.50000000  0.70531200  0.81788000  1
  Te  Te8_0  1  0.25000000  0.21734600  0.44996350  1
  Te  Te8_1  1  0.25000000  0.21734600  0.94996350  1
  Te  Te8_2  1  0.25000000  0.71734600  0.44996350  1
  Te  Te8_3  1  0.25000000  0.71734600  0.94996350  1
  Te  Te8_4  1  0.75000000  0.21734600  0.44996350  1
  Te  Te8_5  1  0.75000000  0.21734600  0.94996350  1
  Te  Te8_6  1  0.75000000  0.71734600  0.44996350  1
  Te  Te8_7  1  0.75000000  0.71734600  0.94996350  1
  Te  Te9_0  1  0.00000000  0.28265400  0.19996350  1
  Te  Te9_1  1  0.00000000  0.28265400  0.69996350  1
  Te  Te9_2  1  0.00000000  0.78265400  0.19996350  1
  Te  Te9_3  1  0.00000000  0.78265400  0.69996350  1
  Te  Te9_4  1  0.50000000  0.28265400  0.19996350  1
  Te  Te9_5  1  0.50000000  0.28265400  0.69996350  1
  Te  Te9_6  1  0.50000000  0.78265400  0.19996350  1
  Te  Te9_7  1  0.50000000  0.78265400  0.69996350  1
  Te  Te10_0  1  0.25000000  0.16214350  0.17508050  1
  Te  Te10_1  1  0.25000000  0.16214350  0.67508050  1
  Te  Te10_2  1  0.25000000  0.66214350  0.17508050  1
  Te  Te10_3  1  0.25000000  0.66214350  0.67508050  1
  Te  Te10_4  1  0.75000000  0.16214350  0.17508050  1
  Te  Te10_5  1  0.75000000  0.16214350  0.67508050  1
  Te  Te10_6  1  0.75000000  0.66214350  0.17508050  1
  Te  Te10_7  1  0.75000000  0.66214350  0.67508050  1
  Te  Te11_0  1  0.00000000  0.33785650  0.42508050  1
  Te  Te11_1  1  0.00000000  0.33785650  0.92508050  1
  Te  Te11_2  1  0.00000000  0.83785650  0.42508050  1
  Te  Te11_3  1  0.00000000  0.83785650  0.92508050  1
  Te  Te11_4  1  0.50000000  0.33785650  0.42508050  1
  Te  Te11_5  1  0.50000000  0.33785650  0.92508050  1
  Te  Te11_6  1  0.50000000  0.83785650  0.42508050  1
  Te  Te11_7  1  0.50000000  0.83785650  0.92508050  1
  Te  Te12_0  1  0.25000000  0.07510350  0.30285650  1
  Te  Te12_1  1  0.25000000  0.07510350  0.80285650  1
  Te  Te12_2  1  0.25000000  0.57510350  0.30285650  1
  Te  Te12_3  1  0.25000000  0.57510350  0.80285650  1
  Te  Te12_4  1  0.75000000  0.07510350  0.30285650  1
  Te  Te12_5  1  0.75000000  0.07510350  0.80285650  1
  Te  Te12_6  1  0.75000000  0.57510350  0.30285650  1
  Te  Te12_7  1  0.75000000  0.57510350  0.80285650  1
  Te  Te13_0  1  0.00000000  0.42489650  0.05285650  1
  Te  Te13_1  1  0.00000000  0.42489650  0.55285650  1
  Te  Te13_2  1  0.00000000  0.92489650  0.05285650  1
  Te  Te13_3  1  0.00000000  0.92489650  0.55285650  1
  Te  Te13_4  1  0.50000000  0.42489650  0.05285650  1
  Te  Te13_5  1  0.50000000  0.42489650  0.55285650  1
  Te  Te13_6  1  0.50000000  0.92489650  0.05285650  1
  Te  Te13_7  1  0.50000000  0.92489650  0.55285650  1
  Te  Te14_0  1  0.25000000  0.05461100  0.07238350  1
  Te  Te14_1  1  0.25000000  0.05461100  0.57238350  1
  Te  Te14_2  1  0.25000000  0.55461100  0.07238350  1
  Te  Te14_3  1  0.25000000  0.55461100  0.57238350  1
  Te  Te14_4  1  0.75000000  0.05461100  0.07238350  1
  Te  Te14_5  1  0.75000000  0.05461100  0.57238350  1
  Te  Te14_6  1  0.75000000  0.55461100  0.07238350  1
  Te  Te14_7  1  0.75000000  0.55461100  0.57238350  1
  Te  Te15_0  1  0.00000000  0.44538900  0.32238350  1
  Te  Te15_1  1  0.00000000  0.44538900  0.82238350  1
  Te  Te15_2  1  0.00000000  0.94538900  0.32238350  1
  Te  Te15_3  1  0.00000000  0.94538900  0.82238350  1
  Te  Te15_4  1  0.50000000  0.44538900  0.32238350  1
  Te  Te15_5  1  0.50000000  0.44538900  0.82238350  1
  Te  Te15_6  1  0.50000000  0.94538900  0.32238350  1
  Te  Te15_7  1  0.50000000  0.94538900  0.82238350  1
  Rh  Rh0_0  1  0.25000000  0.23230550  0.24969150  1
  Rh  Rh0_1  1  0.25000000  0.23230550  0.74969150  1
  Rh  Rh0_2  1  0.25000000  0.73230550  0.24969150  1
  Rh  Rh0_3  1  0.25000000  0.73230550  0.74969150  1
  Rh  Rh0_4  1  0.75000000  0.23230550  0.24969150  1
  Rh  Rh0_5  1  0.75000000  0.23230550  0.74969150  1
  Rh  Rh0_6  1  0.75000000  0.73230550  0.24969150  1
  Rh  Rh0_7  1  0.75000000  0.73230550  0.74969150  1
  Rh  Rh1_0  1  0.00000000  0.26769450  0.49969150  1
  Rh  Rh1_1  1  0.00000000  0.26769450  0.99969150  1
  Rh  Rh1_2  1  0.00000000  0.76769450  0.49969150  1
  Rh  Rh1_3  1  0.00000000  0.76769450  0.99969150  1
  Rh  Rh1_4  1  0.50000000  0.26769450  0.49969150  1
  Rh  Rh1_5  1  0.50000000  0.26769450  0.99969150  1
  Rh  Rh1_6  1  0.50000000  0.76769450  0.49969150  1
  Rh  Rh1_7  1  0.50000000  0.76769450  0.99969150  1
  Rh  Rh2_0  1  0.25000000  0.12312250  0.49620600  1
  Rh  Rh2_1  1  0.25000000  0.12312250  0.99620600  1
  Rh  Rh2_2  1  0.25000000  0.62312250  0.49620600  1
  Rh  Rh2_3  1  0.25000000  0.62312250  0.99620600  1
  Rh  Rh2_4  1  0.75000000  0.12312250  0.49620600  1
  Rh  Rh2_5  1  0.75000000  0.12312250  0.99620600  1
  Rh  Rh2_6  1  0.75000000  0.62312250  0.49620600  1
  Rh  Rh2_7  1  0.75000000  0.62312250  0.99620600  1
  Rh  Rh3_0  1  0.00000000  0.37687750  0.24620600  1
  Rh  Rh3_1  1  0.00000000  0.37687750  0.74620600  1
  Rh  Rh3_2  1  0.00000000  0.87687750  0.24620600  1
  Rh  Rh3_3  1  0.00000000  0.87687750  0.74620600  1
  Rh  Rh3_4  1  0.50000000  0.37687750  0.24620600  1
  Rh  Rh3_5  1  0.50000000  0.37687750  0.74620600  1
  Rh  Rh3_6  1  0.50000000  0.87687750  0.24620600  1
  Rh  Rh3_7  1  0.50000000  0.87687750  0.74620600  1
loop_
_geom_bond_atom_site_label_1
_geom_bond_atom_site_label_2
_geom_bond_distance
_geom_bond_site_symmetry_2
Ta0_0 Te2_0 2.672522 1_555
Ta0_0 Te15_4 2.785027 1_555
Ta0_0 Te15_0 2.785027 1_555
Ta0_0 Te1_6 2.860865 1_555
Ta0_0 Te1_2 2.860865 1_555
Ta0_0 Te12_2 2.944811 1_555
Ta0_1 Te2_1 2.672522 1_555
Ta0_1 Te15_5 2.785027 1_555
Ta0_1 Te15_1 2.785027 1_555
Ta0_1 Te1_3 2.860865 1_555
Ta0_1 Te1_7 2.860865 1_555
Ta0_1 Te12_3 2.944811 1_555
Ta0_2 Te2_2 2.672522 1_555
Ta0_2 Te15_2 2.785027 1_555
Ta0_2 Te15_6 2.785027 1_555
Ta0_2 Te1_0 2.860865 1_565
Ta0_2 Te1_4 2.860865 1_565
Ta0_2 Te12_0 2.944811 1_565
Ta0_3 Te2_3 2.672522 1_555
Ta0_3 Te15_7 2.785027 1_555
Ta0_3 Te15_3 2.785027 1_555
Ta0_3 Te1_1 2.860865 1_565
Ta0_3 Te1_5 2.860865 1_565
Ta0_3 Te12_1 2.944811 1_565
Ta0_4 Te2_4 2.672522 1_555
Ta0_4 Te15_4 2.785027 1_555
Ta0_4 Te15_0 2.785027 1_655
Ta0_4 Te1_6 2.860865 1_555
Ta0_4 Te1_2 2.860865 1_655
Ta0_4 Te12_6 2.944811 1_555
Ta0_5 Te2_5 2.672522 1_555
Ta0_5 Te15_5 2.785027 1_555
Ta0_5 Te15_1 2.785027 1_655
Ta0_5 Te1_7 2.860865 1_555
Ta0_5 Te1_3 2.860865 1_655
Ta0_5 Te12_7 2.944811 1_555
Ta0_6 Te2_6 2.672522 1_555
Ta0_6 Te15_6 2.785027 1_555
Ta0_6 Te15_2 2.785027 1_655
Ta0_6 Te1_4 2.860865 1_565
Ta0_6 Te1_0 2.860865 1_665
Ta0_6 Te12_4 2.944811 1_565
Ta0_7 Te2_7 2.672522 1_555
Ta0_7 Te15_7 2.785027 1_555
Ta0_7 Te15_3 2.785027 1_655
Ta0_7 Te1_5 2.860865 1_565
Ta0_7 Te1_1 2.860865 1_665
Ta0_7 Te12_5 2.944811 1_565
Ta1_0 Te3_1 2.672522 1_554
Ta1_0 Te14_0 2.785027 1_555
Ta1_0 Te14_4 2.785027 1_455
Ta1_0 Te0_3 2.860865 1_544
Ta1_0 Te0_7 2.860865 1_444
Ta1_0 Te13_2 2.944811 1_545
Ta1_1 Te3_0 2.672522 1_555
Ta1_1 Te14_1 2.785027 1_555
Ta1_1 Te14_5 2.785027 1_455
Ta1_1 Te0_2 2.860865 1_545
Ta1_1 Te0_6 2.860865 1_445
Ta1_1 Te13_3 2.944811 1_545
Ta1_2 Te3_3 2.672522 1_554
Ta1_2 Te14_2 2.785027 1_555
Ta1_2 Te14_6 2.785027 1_455
Ta1_2 Te0_1 2.860865 1_554
Ta1_2 Te0_5 2.860865 1_454
Ta1_2 Te13_0 2.944811 1_555
Ta1_3 Te3_2 2.672522 1_555
Ta1_3 Te14_3 2.785027 1_555
Ta1_3 Te14_7 2.785027 1_455
Ta1_3 Te0_0 2.860865 1_555
Ta1_3 Te0_4 2.860865 1_455
Ta1_3 Te13_1 2.944811 1_555
Ta1_4 Te3_5 2.672522 1_554
Ta1_4 Te14_4 2.785027 1_555
Ta1_4 Te14_0 2.785027 1_555
Ta1_4 Te0_7 2.860865 1_544
Ta1_4 Te0_3 2.860865 1_544
Ta1_4 Te13_6 2.944811 1_545
Ta1_5 Te3_4 2.672522 1_555
Ta1_5 Te14_5 2.785027 1_555
Ta1_5 Te14_1 2.785027 1_555
Ta1_5 Te0_6 2.860865 1_545
Ta1_5 Te0_2 2.860865 1_545
Ta1_5 Te13_7 2.944811 1_545
Ta1_6 Te3_7 2.672522 1_554
Ta1_6 Te14_6 2.785027 1_555
Ta1_6 Te14_2 2.785027 1_555
Ta1_6 Te0_5 2.860865 1_554
Ta1_6 Te0_1 2.860865 1_554
Ta1_6 Te13_4 2.944811 1_555
Ta1_7 Te3_6 2.672522 1_555
Ta1_7 Te14_7 2.785027 1_555
Ta1_7 Te14_3 2.785027 1_555
Ta1_7 Te0_4 2.860865 1_555
Ta1_7 Te0_0 2.860865 1_555
Ta1_7 Te13_5 2.944811 1_555
Ta2_0 Te6_1 2.669669 1_555
Ta2_0 Te11_0 2.788953 1_555
Ta2_0 Te11_4 2.788953 1_555
Ta2_0 Te13_1 2.873158 1_555
Ta2_0 Te13_5 2.873158 1_555
Ta2_0 Te0_0 2.912565 1_555
Ta2_1 Te6_0 2.669669 1_556
Ta2_1 Te11_1 2.788953 1_555
Ta2_1 Te11_5 2.788953 1_555
Ta2_1 Te13_0 2.873158 1_556
Ta2_1 Te13_4 2.873158 1_556
Ta2_1 Te0_1 2.912565 1_555
Ta2_2 Te6_3 2.669669 1_555
Ta2_2 Te11_6 2.788953 1_555
Ta2_2 Te11_2 2.788953 1_555
Ta2_2 Te13_3 2.873158 1_555
Ta2_2 Te13_7 2.873158 1_555
Ta2_2 Te0_2 2.912565 1_555
Ta2_3 Te6_2 2.669669 1_556
Ta2_3 Te11_7 2.788953 1_555
Ta2_3 Te11_3 2.788953 1_555
Ta2_3 Te13_2 2.873158 1_556
Ta2_3 Te13_6 2.873158 1_556
Ta2_3 Te0_3 2.912565 1_555
Ta2_4 Te6_5 2.669669 1_555
Ta2_4 Te11_4 2.788953 1_555
Ta2_4 Te11_0 2.788953 1_655
Ta2_4 Te13_5 2.873158 1_555
Ta2_4 Te13_1 2.873158 1_655
Ta2_4 Te0_4 2.912565 1_555
Ta2_5 Te6_4 2.669669 1_556
Ta2_5 Te11_5 2.788953 1_555
Ta2_5 Te11_1 2.788953 1_655
Ta2_5 Te13_4 2.873158 1_556
Ta2_5 Te13_0 2.873158 1_656
Ta2_5 Te0_5 2.912565 1_555
Ta2_6 Te6_7 2.669669 1_555
Ta2_6 Te11_6 2.788953 1_555
Ta2_6 Te11_2 2.788953 1_655
Ta2_6 Te13_7 2.873158 1_555
Ta2_6 Te13_3 2.873158 1_655
Ta2_6 Te0_6 2.912565 1_555
Ta2_7 Te6_6 2.669669 1_556
Ta2_7 Te11_7 2.788953 1_555
Ta2_7 Te11_3 2.788953 1_655
Ta2_7 Te13_6 2.873158 1_556
Ta2_7 Te13_2 2.873158 1_656
Ta2_7 Te0_7 2.912565 1_555
Ta3_0 Te7_0 2.669669 1_555
Ta3_0 Te10_0 2.788953 1_555
Ta3_0 Te10_4 2.788953 1_455
Ta3_0 Te12_0 2.873158 1_555
Ta3_0 Te12_4 2.873158 1_455
Ta3_0 Te1_0 2.912565 1_555
Ta3_1 Te7_1 2.669669 1_555
Ta3_1 Te10_1 2.788953 1_555
Ta3_1 Te10_5 2.788953 1_455
Ta3_1 Te12_1 2.873158 1_555
Ta3_1 Te12_5 2.873158 1_455
Ta3_1 Te1_1 2.912565 1_555
Ta3_2 Te7_2 2.669669 1_555
Ta3_2 Te10_2 2.788953 1_555
Ta3_2 Te10_6 2.788953 1_455
Ta3_2 Te12_2 2.873158 1_555
Ta3_2 Te12_6 2.873158 1_455
Ta3_2 Te1_2 2.912565 1_555
Ta3_3 Te7_3 2.669669 1_555
Ta3_3 Te10_3 2.788953 1_555
Ta3_3 Te10_7 2.788953 1_455
Ta3_3 Te12_3 2.873158 1_555
Ta3_3 Te12_7 2.873158 1_455
Ta3_3 Te1_3 2.912565 1_555
Ta3_4 Te7_4 2.669669 1_555
Ta3_4 Te10_4 2.788953 1_555
Ta3_4 Te10_0 2.788953 1_555
Ta3_4 Te12_4 2.873158 1_555
Ta3_4 Te12_0 2.873158 1_555
Ta3_4 Te1_4 2.912565 1_555
Ta3_5 Te7_5 2.669669 1_555
Ta3_5 Te10_5 2.788953 1_555
Ta3_5 Te10_1 2.788953 1_555
Ta3_5 Te12_5 2.873158 1_555
Ta3_5 Te12_1 2.873158 1_555
Ta3_5 Te1_5 2.912565 1_555
Ta3_6 Te7_6 2.669669 1_555
Ta3_6 Te10_6 2.788953 1_555
Ta3_6 Te10_2 2.788953 1_555
Ta3_6 Te12_6 2.873158 1_555
Ta3_6 Te12_2 2.873158 1_555
Ta3_6 Te1_6 2.912565 1_555
Ta3_7 Te7_7 2.669669 1_555
Ta3_7 Te10_7 2.788953 1_555
Ta3_7 Te10_3 2.788953 1_555
Ta3_7 Te12_7 2.873158 1_555
Ta3_7 Te12_3 2.873158 1_555
Ta3_7 Te1_7 2.912565 1_555
Te0_0 Te0_4 3.782412 1_555
Te0_0 Te0_4 3.782412 1_455
Te0_0 Te3_2 3.835467 1_555
Te0_0 Te3_6 3.835467 1_555
Te0_0 Te11_0 3.845104 1_555
Te0_0 Te11_4 3.845104 1_555
Te0_0 Te15_4 3.897241 1_555
Te0_0 Te15_0 3.897241 1_555
Te0_1 Te0_5 3.782412 1_555
Te0_1 Te0_5 3.782412 1_455
Te0_1 Te3_3 3.835467 1_555
Te0_1 Te3_7 3.835467 1_555
Te0_1 Te11_1 3.845104 1_555
Te0_1 Te11_5 3.845104 1_555
Te0_1 Te15_1 3.897241 1_555
Te0_1 Te15_5 3.897241 1_555
Te0_2 Te0_6 3.782412 1_555
Te0_2 Te0_6 3.782412 1_455
Te0_2 Te3_0 3.835467 1_565
Te0_2 Te3_4 3.835467 1_565
Te0_2 Te11_2 3.845104 1_555
Te0_2 Te11_6 3.845104 1_555
Te0_2 Te15_6 3.897241 1_555
Te0_2 Te15_2 3.897241 1_555
Te0_3 Te0_7 3.782412 1_555
Te0_3 Te0_7 3.782412 1_455
Te0_3 Te3_1 3.835467 1_565
Te0_3 Te3_5 3.835467 1_565
Te0_3 Te11_3 3.845104 1_555
Te0_3 Te11_7 3.845104 1_555
Te0_3 Te15_7 3.897241 1_555
Te0_3 Te15_3 3.897241 1_555
Te0_4 Te3_6 3.835467 1_555
Te0_4 Te3_2 3.835467 1_655
Te0_4 Te11_4 3.845104 1_555
Te0_4 Te11_0 3.845104 1_655
Te0_4 Te15_4 3.897241 1_555
Te0_4 Te15_0 3.897241 1_655
Te0_5 Te3_7 3.835467 1_555
Te0_5 Te3_3 3.835467 1_655
Te0_5 Te11_5 3.845104 1_555
Te0_5 Te11_1 3.845104 1_655
Te0_5 Te15_5 3.897241 1_555
Te0_5 Te15_1 3.897241 1_655
Te0_6 Te3_4 3.835467 1_565
Te0_6 Te3_0 3.835467 1_665
Te0_6 Te11_6 3.845104 1_555
Te0_6 Te11_2 3.845104 1_655
Te0_6 Te15_6 3.897241 1_555
Te0_6 Te15_2 3.897241 1_655
Te0_7 Te3_5 3.835467 1_565
Te0_7 Te3_1 3.835467 1_665
Te0_7 Te11_7 3.845104 1_555
Te0_7 Te11_3 3.845104 1_655
Te0_7 Te15_7 3.897241 1_555
Te0_7 Te15_3 3.897241 1_655
Te1_0 Te1_4 3.782412 1_455
Te1_0 Te1_4 3.782412 1_555
Te1_0 Te2_2 3.835467 1_545
Te1_0 Te2_6 3.835467 1_445
Te1_1 Te1_5 3.782412 1_455
Te1_1 Te1_5 3.782412 1_555
Te1_1 Te2_3 3.835467 1_545
Te1_1 Te2_7 3.835467 1_445
Te1_2 Te1_6 3.782412 1_555
Te1_2 Te1_6 3.782412 1_455
Te1_2 Te2_0 3.835467 1_555
Te1_2 Te2_4 3.835467 1_455
Te1_3 Te1_7 3.782412 1_555
Te1_3 Te1_7 3.782412 1_455
Te1_3 Te2_1 3.835467 1_555
Te1_3 Te2_5 3.835467 1_455
Te1_4 Te2_6 3.835467 1_545
Te1_4 Te2_2 3.835467 1_545
Te1_5 Te2_7 3.835467 1_545
Te1_5 Te2_3 3.835467 1_545
Te1_6 Te2_4 3.835467 1_555
Te1_6 Te2_0 3.835467 1_555
Te1_7 Te2_5 3.835467 1_555
Te1_7 Te2_1 3.835467 1_555
Te2_0 Te9_4 3.687540 1_555
Te2_0 Te9_0 3.687540 1_555
Te2_1 Te9_1 3.687540 1_555
Te2_1 Te9_5 3.687540 1_555
Te2_2 Te9_2 3.687540 1_555
Te2_2 Te9_6 3.687540 1_555
Te2_3 Te9_7 3.687540 1_555
Te2_3 Te9_3 3.687540 1_555
Te2_4 Te9_4 3.687540 1_555
Te2_4 Te9_0 3.687540 1_655
Te2_5 Te9_5 3.687540 1_555
Te2_5 Te9_1 3.687540 1_655
Te2_6 Te9_6 3.687540 1_555
Te2_6 Te9_2 3.687540 1_655
Te2_7 Te9_7 3.687540 1_555
Te2_7 Te9_3 3.687540 1_655
Te3_0 Te8_0 3.687540 1_555
Te3_0 Te8_4 3.687540 1_455
Te3_1 Te8_1 3.687540 1_555
Te3_1 Te8_5 3.687540 1_455
Te3_2 Te8_2 3.687540 1_555
Te3_2 Te8_6 3.687540 1_455
Te3_3 Te8_3 3.687540 1_555
Te3_3 Te8_7 3.687540 1_455
Te3_4 Te8_4 3.687540 1_555
Te3_4 Te8_0 3.687540 1_555
Te3_5 Te8_5 3.687540 1_555
Te3_5 Te8_1 3.687540 1_555
Te3_6 Te8_6 3.687540 1_555
Te3_6 Te8_2 3.687540 1_555
Te3_7 Te8_7 3.687540 1_555
Te3_7 Te8_3 3.687540 1_555
Te4_0 Te7_4 3.679188 1_555
Te4_0 Te7_0 3.679188 1_555
Te4_1 Te7_5 3.679188 1_555
Te4_1 Te7_1 3.679188 1_555
Te4_2 Te7_2 3.679188 1_555
Te4_2 Te7_6 3.679188 1_555
Te4_3 Te7_3 3.679188 1_555
Te4_3 Te7_7 3.679188 1_555
Te4_4 Te7_4 3.679188 1_555
Te4_4 Te7_0 3.679188 1_655
Te4_5 Te7_5 3.679188 1_555
Te4_5 Te7_1 3.679188 1_655
Te4_6 Te7_6 3.679188 1_555
Te4_6 Te7_2 3.679188 1_655
Te4_7 Te7_7 3.679188 1_555
Te4_7 Te7_3 3.679188 1_655
Te5_0 Te6_0 3.679188 1_555
Te5_0 Te6_4 3.679188 1_455
Te5_1 Te6_1 3.679188 1_555
Te5_1 Te6_5 3.679188 1_455
Te5_2 Te6_2 3.679188 1_555
Te5_2 Te6_6 3.679188 1_455
Te5_3 Te6_3 3.679188 1_555
Te5_3 Te6_7 3.679188 1_455
Te5_4 Te6_4 3.679188 1_555
Te5_4 Te6_0 3.679188 1_555
Te5_5 Te6_5 3.679188 1_555
Te5_5 Te6_1 3.679188 1_555
Te5_6 Te6_6 3.679188 1_555
Te5_6 Te6_2 3.679188 1_555
Te5_7 Te6_7 3.679188 1_555
Te5_7 Te6_3 3.679188 1_555
Te10_0 Te9_4 3.679203 1_555
Te10_0 Te9_0 3.679203 1_555
Te10_0 Te10_4 3.782412 1_555
Te10_0 Te10_4 3.782412 1_455
Te10_0 Te1_4 3.845104 1_555
Te10_0 Te1_0 3.845104 1_555
Te10_1 Te9_5 3.679203 1_555
Te10_1 Te9_1 3.679203 1_555
Te10_1 Te10_5 3.782412 1_555
Te10_1 Te10_5 3.782412 1_455
Te10_1 Te1_1 3.845104 1_555
Te10_1 Te1_5 3.845104 1_555
Te10_2 Te9_6 3.679203 1_555
Te10_2 Te9_2 3.679203 1_555
Te10_2 Te10_6 3.782412 1_555
Te10_2 Te10_6 3.782412 1_455
Te10_2 Te1_2 3.845104 1_555
Te10_2 Te1_6 3.845104 1_555
Te10_3 Te9_7 3.679203 1_555
Te10_3 Te9_3 3.679203 1_555
Te10_3 Te10_7 3.782412 1_555
Te10_3 Te10_7 3.782412 1_455
Te10_3 Te1_3 3.845104 1_555
Te10_3 Te1_7 3.845104 1_555
Te10_4 Te9_4 3.679203 1_555
Te10_4 Te9_0 3.679203 1_655
Te10_4 Te1_4 3.845104 1_555
Te10_4 Te1_0 3.845104 1_655
Te10_5 Te9_5 3.679203 1_555
Te10_5 Te9_1 3.679203 1_655
Te10_5 Te1_5 3.845104 1_555
Te10_5 Te1_1 3.845104 1_655
Te10_6 Te9_6 3.679203 1_555
Te10_6 Te9_2 3.679203 1_655
Te10_6 Te1_6 3.845104 1_555
Te10_6 Te1_2 3.845104 1_655
Te10_7 Te9_7 3.679203 1_555
Te10_7 Te9_3 3.679203 1_655
Te10_7 Te1_7 3.845104 1_555
Te10_7 Te1_3 3.845104 1_655
Te11_0 Te8_0 3.679203 1_555
Te11_0 Te8_4 3.679203 1_455
Te11_0 Te11_4 3.782412 1_455
Te11_0 Te11_4 3.782412 1_555
Te11_1 Te8_1 3.679203 1_555
Te11_1 Te8_5 3.679203 1_455
Te11_1 Te11_5 3.782412 1_455
Te11_1 Te11_5 3.782412 1_555
Te11_2 Te8_2 3.679203 1_555
Te11_2 Te8_6 3.679203 1_455
Te11_2 Te11_6 3.782412 1_555
Te11_2 Te11_6 3.782412 1_455
Te11_3 Te8_3 3.679203 1_555
Te11_3 Te8_7 3.679203 1_455
Te11_3 Te11_7 3.782412 1_555
Te11_3 Te11_7 3.782412 1_455
Te11_4 Te8_4 3.679203 1_555
Te11_4 Te8_0 3.679203 1_555
Te11_5 Te8_5 3.679203 1_555
Te11_5 Te8_1 3.679203 1_555
Te11_6 Te8_6 3.679203 1_555
Te11_6 Te8_2 3.679203 1_555
Te11_7 Te8_7 3.679203 1_555
Te11_7 Te8_3 3.679203 1_555
Te12_0 Te12_4 3.782412 1_555
Te12_0 Te12_4 3.782412 1_455
Te12_0 Te7_0 3.852001 1_555
Te12_0 Te7_4 3.852001 1_555
Te12_0 Te15_2 3.855968 1_545
Te12_0 Te15_6 3.855968 1_545
Te12_0 Te3_0 3.926778 1_555
Te12_0 Te3_4 3.926778 1_555
Te12_1 Te12_5 3.782412 1_555
Te12_1 Te12_5 3.782412 1_455
Te12_1 Te7_5 3.852001 1_555
Te12_1 Te7_1 3.852001 1_555
Te12_1 Te15_7 3.855968 1_545
Te12_1 Te15_3 3.855968 1_545
Te12_1 Te3_5 3.926778 1_555
Te12_1 Te3_1 3.926778 1_555
Te12_2 Te12_6 3.782412 1_555
Te12_2 Te12_6 3.782412 1_455
Te12_2 Te7_6 3.852001 1_555
Te12_2 Te7_2 3.852001 1_555
Te12_2 Te15_0 3.855968 1_555
Te12_2 Te15_4 3.855968 1_555
Te12_2 Te3_6 3.926778 1_555
Te12_2 Te3_2 3.926778 1_555
Te12_3 Te12_7 3.782412 1_555
Te12_3 Te12_7 3.782412 1_455
Te12_3 Te7_3 3.852001 1_555
Te12_3 Te7_7 3.852001 1_555
Te12_3 Te15_1 3.855968 1_555
Te12_3 Te15_5 3.855968 1_555
Te12_3 Te3_7 3.926778 1_555
Te12_3 Te3_3 3.926778 1_555
Te12_4 Te7_4 3.852001 1_555
Te12_4 Te7_0 3.852001 1_655
Te12_4 Te15_6 3.855968 1_545
Te12_4 Te15_2 3.855968 1_645
Te12_4 Te3_4 3.926778 1_555
Te12_4 Te3_0 3.926778 1_655
Te12_5 Te7_5 3.852001 1_555
Te12_5 Te7_1 3.852001 1_655
Te12_5 Te15_7 3.855968 1_545
Te12_5 Te15_3 3.855968 1_645
Te12_5 Te3_5 3.926778 1_555
Te12_5 Te3_1 3.926778 1_655
Te12_6 Te7_6 3.852001 1_555
Te12_6 Te7_2 3.852001 1_655
Te12_6 Te15_4 3.855968 1_555
Te12_6 Te15_0 3.855968 1_655
Te12_6 Te3_6 3.926778 1_555
Te12_6 Te3_2 3.926778 1_655
Te12_7 Te7_7 3.852001 1_555
Te12_7 Te7_3 3.852001 1_655
Te12_7 Te15_5 3.855968 1_555
Te12_7 Te15_1 3.855968 1_655
Te12_7 Te3_7 3.926778 1_555
Te12_7 Te3_3 3.926778 1_655
Te13_0 Te13_4 3.782412 1_555
Te13_0 Te13_4 3.782412 1_455
Te13_0 Te6_0 3.852001 1_555
Te13_0 Te6_4 3.852001 1_455
Te13_0 Te14_2 3.855968 1_555
Te13_0 Te14_6 3.855968 1_455
Te13_0 Te2_0 3.926778 1_555
Te13_0 Te2_4 3.926778 1_455
Te13_1 Te13_5 3.782412 1_455
Te13_1 Te13_5 3.782412 1_555
Te13_1 Te6_1 3.852001 1_555
Te13_1 Te6_5 3.852001 1_455
Te13_1 Te14_3 3.855968 1_555
Te13_1 Te14_7 3.855968 1_455
Te13_1 Te2_1 3.926778 1_555
Te13_1 Te2_5 3.926778 1_455
Te13_2 Te13_6 3.782412 1_455
Te13_2 Te13_6 3.782412 1_555
Te13_2 Te6_2 3.852001 1_555
Te13_2 Te6_6 3.852001 1_455
Te13_2 Te14_0 3.855968 1_565
Te13_2 Te14_4 3.855968 1_465
Te13_2 Te2_2 3.926778 1_555
Te13_2 Te2_6 3.926778 1_455
Te13_3 Te13_7 3.782412 1_555
Te13_3 Te13_7 3.782412 1_455
Te13_3 Te6_3 3.852001 1_555
Te13_3 Te6_7 3.852001 1_455
Te13_3 Te14_1 3.855968 1_565
Te13_3 Te14_5 3.855968 1_465
Te13_3 Te2_3 3.926778 1_555
Te13_3 Te2_7 3.926778 1_455
Te13_4 Te6_4 3.852001 1_555
Te13_4 Te6_0 3.852001 1_555
Te13_4 Te14_6 3.855968 1_555
Te13_4 Te14_2 3.855968 1_555
Te13_4 Te2_4 3.926778 1_555
Te13_4 Te2_0 3.926778 1_555
Te13_5 Te6_5 3.852001 1_555
Te13_5 Te6_1 3.852001 1_555
Te13_5 Te14_7 3.855968 1_555
Te13_5 Te14_3 3.855968 1_555
Te13_5 Te2_5 3.926778 1_555
Te13_5 Te2_1 3.926778 1_555
Te13_6 Te6_6 3.852001 1_555
Te13_6 Te6_2 3.852001 1_555
Te13_6 Te14_4 3.855968 1_565
Te13_6 Te14_0 3.855968 1_565
Te13_6 Te2_6 3.926778 1_555
Te13_6 Te2_2 3.926778 1_555
Te13_7 Te6_7 3.852001 1_555
Te13_7 Te6_3 3.852001 1_555
Te13_7 Te14_5 3.855968 1_565
Te13_7 Te14_1 3.855968 1_565
Te13_7 Te2_7 3.926778 1_555
Te13_7 Te2_3 3.926778 1_555
Te14_0 Te5_0 3.655349 1_555
Te14_0 Te5_4 3.655349 1_555
Te14_0 Te14_4 3.782412 1_555
Te14_0 Te14_4 3.782412 1_455
Te14_0 Te1_4 3.897241 1_555
Te14_0 Te1_0 3.897241 1_555
Te14_1 Te5_1 3.655349 1_555
Te14_1 Te5_5 3.655349 1_555
Te14_1 Te14_5 3.782412 1_555
Te14_1 Te14_5 3.782412 1_455
Te14_1 Te1_1 3.897241 1_555
Te14_1 Te1_5 3.897241 1_555
Te14_2 Te5_2 3.655349 1_555
Te14_2 Te5_6 3.655349 1_555
Te14_2 Te14_6 3.782412 1_555
Te14_2 Te14_6 3.782412 1_455
Te14_2 Te1_6 3.897241 1_555
Te14_2 Te1_2 3.897241 1_555
Te14_3 Te5_3 3.655349 1_555
Te14_3 Te5_7 3.655349 1_555
Te14_3 Te14_7 3.782412 1_555
Te14_3 Te14_7 3.782412 1_455
Te14_3 Te1_3 3.897241 1_555
Te14_3 Te1_7 3.897241 1_555
Te14_4 Te5_4 3.655349 1_555
Te14_4 Te5_0 3.655349 1_655
Te14_4 Te1_4 3.897241 1_555
Te14_4 Te1_0 3.897241 1_655
Te14_5 Te5_5 3.655349 1_555
Te14_5 Te5_1 3.655349 1_655
Te14_5 Te1_5 3.897241 1_555
Te14_5 Te1_1 3.897241 1_655
Te14_6 Te5_6 3.655349 1_555
Te14_6 Te5_2 3.655349 1_655
Te14_6 Te1_6 3.897241 1_555
Te14_6 Te1_2 3.897241 1_655
Te14_7 Te5_7 3.655349 1_555
Te14_7 Te5_3 3.655349 1_655
Te14_7 Te1_7 3.897241 1_555
Te14_7 Te1_3 3.897241 1_655
Te15_0 Te4_0 3.655349 1_555
Te15_0 Te4_4 3.655349 1_455
Te15_0 Te15_4 3.782412 1_455
Te15_0 Te15_4 3.782412 1_555
Te15_1 Te4_1 3.655349 1_555
Te15_1 Te4_5 3.655349 1_455
Te15_1 Te15_5 3.782412 1_455
Te15_1 Te15_5 3.782412 1_555
Te15_2 Te4_2 3.655349 1_555
Te15_2 Te4_6 3.655349 1_455
Te15_2 Te15_6 3.782412 1_455
Te15_2 Te15_6 3.782412 1_555
Te15_3 Te4_3 3.655349 1_555
Te15_3 Te4_7 3.655349 1_455
Te15_3 Te15_7 3.782412 1_455
Te15_3 Te15_7 3.782412 1_555
Te15_4 Te4_4 3.655349 1_555
Te15_4 Te4_0 3.655349 1_555
Te15_5 Te4_5 3.655349 1_555
Te15_5 Te4_1 3.655349 1_555
Te15_6 Te4_6 3.655349 1_555
Te15_6 Te4_2 3.655349 1_555
Te15_7 Te4_7 3.655349 1_555
Te15_7 Te4_3 3.655349 1_555
Rh0_0 Te9_4 2.656496 1_555
Rh0_0 Te9_0 2.656496 1_555
Rh0_0 Te10_0 2.705865 1_555
Rh0_0 Te4_0 2.712623 1_555
Rh0_0 Te7_0 2.734634 1_555
Rh0_0 Te7_4 2.734634 1_555
Rh0_0 Ta3_4 3.143887 1_555
Rh0_0 Ta3_0 3.143887 1_555
Rh0_1 Te9_1 2.656496 1_555
Rh0_1 Te9_5 2.656496 1_555
Rh0_1 Te10_1 2.705865 1_555
Rh0_1 Te4_1 2.712623 1_555
Rh0_1 Te7_5 2.734634 1_555
Rh0_1 Te7_1 2.734634 1_555
Rh0_1 Ta3_1 3.143887 1_555
Rh0_1 Ta3_5 3.143887 1_555
Rh0_2 Te9_6 2.656496 1_555
Rh0_2 Te9_2 2.656496 1_555
Rh0_2 Te10_2 2.705865 1_555
Rh0_2 Te4_2 2.712623 1_555
Rh0_2 Te7_6 2.734634 1_555
Rh0_2 Te7_2 2.734634 1_555
Rh0_2 Ta3_2 3.143887 1_555
Rh0_2 Ta3_6 3.143887 1_555
Rh0_3 Te9_7 2.656496 1_555
Rh0_3 Te9_3 2.656496 1_555
Rh0_3 Te10_3 2.705865 1_555
Rh0_3 Te4_3 2.712623 1_555
Rh0_3 Te7_3 2.734634 1_555
Rh0_3 Te7_7 2.734634 1_555
Rh0_3 Ta3_7 3.143887 1_555
Rh0_3 Ta3_3 3.143887 1_555
Rh0_4 Te9_4 2.656496 1_555
Rh0_4 Te9_0 2.656496 1_655
Rh0_4 Te10_4 2.705865 1_555
Rh0_4 Te4_4 2.712623 1_555
Rh0_4 Te7_4 2.734634 1_555
Rh0_4 Te7_0 2.734634 1_655
Rh0_4 Ta3_4 3.143887 1_555
Rh0_4 Ta3_0 3.143887 1_655
Rh0_5 Te9_5 2.656496 1_555
Rh0_5 Te9_1 2.656496 1_655
Rh0_5 Te10_5 2.705865 1_555
Rh0_5 Te4_5 2.712623 1_555
Rh0_5 Te7_5 2.734634 1_555
Rh0_5 Te7_1 2.734634 1_655
Rh0_5 Ta3_5 3.143887 1_555
Rh0_5 Ta3_1 3.143887 1_655
Rh0_6 Te9_6 2.656496 1_555
Rh0_6 Te9_2 2.656496 1_655
Rh0_6 Te10_6 2.705865 1_555
Rh0_6 Te4_6 2.712623 1_555
Rh0_6 Te7_6 2.734634 1_555
Rh0_6 Te7_2 2.734634 1_655
Rh0_6 Ta3_6 3.143887 1_555
Rh0_6 Ta3_2 3.143887 1_655
Rh0_7 Te9_7 2.656496 1_555
Rh0_7 Te9_3 2.656496 1_655
Rh0_7 Te10_7 2.705865 1_555
Rh0_7 Te4_7 2.712623 1_555
Rh0_7 Te7_7 2.734634 1_555
Rh0_7 Te7_3 2.734634 1_655
Rh0_7 Ta3_7 3.143887 1_555
Rh0_7 Ta3_3 3.143887 1_655
Rh1_0 Te8_0 2.656496 1_555
Rh1_0 Te8_4 2.656496 1_455
Rh1_0 Te11_0 2.705865 1_555
Rh1_0 Te5_1 2.712623 1_555
Rh1_0 Te6_1 2.734634 1_555
Rh1_0 Te6_5 2.734634 1_455
Rh1_0 Ta2_0 3.143887 1_555
Rh1_0 Ta2_4 3.143887 1_455
Rh1_1 Te8_1 2.656496 1_555
Rh1_1 Te8_5 2.656496 1_455
Rh1_1 Te11_1 2.705865 1_555
Rh1_1 Te5_0 2.712623 1_556
Rh1_1 Te6_0 2.734634 1_556
Rh1_1 Te6_4 2.734634 1_456
Rh1_1 Ta2_1 3.143887 1_555
Rh1_1 Ta2_5 3.143887 1_455
Rh1_2 Te8_2 2.656496 1_555
Rh1_2 Te8_6 2.656496 1_455
Rh1_2 Te11_2 2.705865 1_555
Rh1_2 Te5_3 2.712623 1_555
Rh1_2 Te6_3 2.734634 1_555
Rh1_2 Te6_7 2.734634 1_455
Rh1_2 Ta2_2 3.143887 1_555
Rh1_2 Ta2_6 3.143887 1_455
Rh1_3 Te8_3 2.656496 1_555
Rh1_3 Te8_7 2.656496 1_455
Rh1_3 Te11_3 2.705865 1_555
Rh1_3 Te5_2 2.712623 1_556
Rh1_3 Te6_2 2.734634 1_556
Rh1_3 Te6_6 2.734634 1_456
Rh1_3 Ta2_3 3.143887 1_555
Rh1_3 Ta2_7 3.143887 1_455
Rh1_4 Te8_4 2.656496 1_555
Rh1_4 Te8_0 2.656496 1_555
Rh1_4 Te11_4 2.705865 1_555
Rh1_4 Te5_5 2.712623 1_555
Rh1_4 Te6_5 2.734634 1_555
Rh1_4 Te6_1 2.734634 1_555
Rh1_4 Ta2_4 3.143887 1_555
Rh1_4 Ta2_0 3.143887 1_555
Rh1_5 Te8_5 2.656496 1_555
Rh1_5 Te8_1 2.656496 1_555
Rh1_5 Te11_5 2.705865 1_555
Rh1_5 Te5_4 2.712623 1_556
Rh1_5 Te6_4 2.734634 1_556
Rh1_5 Te6_0 2.734634 1_556
Rh1_5 Ta2_5 3.143887 1_555
Rh1_5 Ta2_1 3.143887 1_555
Rh1_6 Te8_6 2.656496 1_555
Rh1_6 Te8_2 2.656496 1_555
Rh1_6 Te11_6 2.705865 1_555
Rh1_6 Te5_7 2.712623 1_555
Rh1_6 Te6_7 2.734634 1_555
Rh1_6 Te6_3 2.734634 1_555
Rh1_6 Ta2_2 3.143887 1_555
Rh1_6 Ta2_6 3.143887 1_555
Rh1_7 Te8_7 2.656496 1_555
Rh1_7 Te8_3 2.656496 1_555
Rh1_7 Te11_7 2.705865 1_555
Rh1_7 Te5_6 2.712623 1_556
Rh1_7 Te6_6 2.734634 1_556
Rh1_7 Te6_2 2.734634 1_556
Rh1_7 Ta2_7 3.143887 1_555
Rh1_7 Ta2_3 3.143887 1_555
Rh2_0 Te5_1 2.655113 1_555
Rh2_0 Te5_5 2.655113 1_555
Rh2_0 Te14_1 2.710333 1_555
Rh2_0 Te8_0 2.717518 1_555
Rh2_0 Te3_0 2.734429 1_555
Rh2_0 Te3_4 2.734429 1_555
Rh2_0 Ta1_1 3.115882 1_555
Rh2_0 Ta1_5 3.115882 1_555
Rh2_1 Te5_0 2.655113 1_556
Rh2_1 Te5_4 2.655113 1_556
Rh2_1 Te14_0 2.710333 1_556
Rh2_1 Te8_1 2.717518 1_555
Rh2_1 Te3_1 2.734429 1_555
Rh2_1 Te3_5 2.734429 1_555
Rh2_1 Ta1_4 3.115882 1_556
Rh2_1 Ta1_0 3.115882 1_556
Rh2_2 Te5_7 2.655113 1_555
Rh2_2 Te5_3 2.655113 1_555
Rh2_2 Te14_3 2.710333 1_555
Rh2_2 Te8_2 2.717518 1_555
Rh2_2 Te3_6 2.734429 1_555
Rh2_2 Te3_2 2.734429 1_555
Rh2_2 Ta1_3 3.115882 1_555
Rh2_2 Ta1_7 3.115882 1_555
Rh2_3 Te5_2 2.655113 1_556
Rh2_3 Te5_6 2.655113 1_556
Rh2_3 Te14_2 2.710333 1_556
Rh2_3 Te8_3 2.717518 1_555
Rh2_3 Te3_7 2.734429 1_555
Rh2_3 Te3_3 2.734429 1_555
Rh2_3 Ta1_2 3.115882 1_556
Rh2_3 Ta1_6 3.115882 1_556
Rh2_4 Te5_5 2.655113 1_555
Rh2_4 Te5_1 2.655113 1_655
Rh2_4 Te14_5 2.710333 1_555
Rh2_4 Te8_4 2.717518 1_555
Rh2_4 Te3_4 2.734429 1_555
Rh2_4 Te3_0 2.734429 1_655
Rh2_4 Ta1_5 3.115882 1_555
Rh2_4 Ta1_1 3.115882 1_655
Rh2_5 Te5_4 2.655113 1_556
Rh2_5 Te5_0 2.655113 1_656
Rh2_5 Te14_4 2.710333 1_556
Rh2_5 Te8_5 2.717518 1_555
Rh2_5 Te3_5 2.734429 1_555
Rh2_5 Te3_1 2.734429 1_655
Rh2_5 Ta1_4 3.115882 1_556
Rh2_5 Ta1_0 3.115882 1_656
Rh2_6 Te5_7 2.655113 1_555
Rh2_6 Te5_3 2.655113 1_655
Rh2_6 Te14_7 2.710333 1_555
Rh2_6 Te8_6 2.717518 1_555
Rh2_6 Te3_6 2.734429 1_555
Rh2_6 Te3_2 2.734429 1_655
Rh2_6 Ta1_7 3.115882 1_555
Rh2_6 Ta1_3 3.115882 1_655
Rh2_7 Te5_6 2.655113 1_556
Rh2_7 Te5_2 2.655113 1_656
Rh2_7 Te14_6 2.710333 1_556
Rh2_7 Te8_7 2.717518 1_555
Rh2_7 Te3_7 2.734429 1_555
Rh2_7 Te3_3 2.734429 1_655
Rh2_7 Ta1_6 3.115882 1_556
Rh2_7 Ta1_2 3.115882 1_656
Rh3_0 Te4_0 2.655113 1_555
Rh3_0 Te4_4 2.655113 1_455
Rh3_0 Te15_0 2.710333 1_555
Rh3_0 Te9_0 2.717518 1_555
Rh3_0 Te2_0 2.734429 1_555
Rh3_0 Te2_4 2.734429 1_455
Rh3_0 Ta0_0 3.115882 1_555
Rh3_0 Ta0_4 3.115882 1_455
Rh3_1 Te4_1 2.655113 1_555
Rh3_1 Te4_5 2.655113 1_455
Rh3_1 Te15_1 2.710333 1_555
Rh3_1 Te9_1 2.717518 1_555
Rh3_1 Te2_1 2.734429 1_555
Rh3_1 Te2_5 2.734429 1_455
Rh3_1 Ta0_1 3.115882 1_555
Rh3_1 Ta0_5 3.115882 1_455
Rh3_2 Te4_2 2.655113 1_555
Rh3_2 Te4_6 2.655113 1_455
Rh3_2 Te15_2 2.710333 1_555
Rh3_2 Te9_2 2.717518 1_555
Rh3_2 Te2_2 2.734429 1_555
Rh3_2 Te2_6 2.734429 1_455
Rh3_2 Ta0_2 3.115882 1_555
Rh3_2 Ta0_6 3.115882 1_455
Rh3_3 Te4_3 2.655113 1_555
Rh3_3 Te4_7 2.655113 1_455
Rh3_3 Te15_3 2.710333 1_555
Rh3_3 Te9_3 2.717518 1_555
Rh3_3 Te2_3 2.734429 1_555
Rh3_3 Te2_7 2.734429 1_455
Rh3_3 Ta0_3 3.115882 1_555
Rh3_3 Ta0_7 3.115882 1_455
Rh3_4 Te4_4 2.655113 1_555
Rh3_4 Te4_0 2.655113 1_555
Rh3_4 Te15_4 2.710333 1_555
Rh3_4 Te9_4 2.717518 1_555
Rh3_4 Te2_4 2.734429 1_555
Rh3_4 Te2_0 2.734429 1_555
Rh3_4 Ta0_4 3.115882 1_555
Rh3_4 Ta0_0 3.115882 1_555
Rh3_5 Te4_5 2.655113 1_555
Rh3_5 Te4_1 2.655113 1_555
Rh3_5 Te15_5 2.710333 1_555
Rh3_5 Te9_5 2.717518 1_555
Rh3_5 Te2_5 2.734429 1_555
Rh3_5 Te2_1 2.734429 1_555
Rh3_5 Ta0_5 3.115882 1_555
Rh3_5 Ta0_1 3.115882 1_555
Rh3_6 Te4_6 2.655113 1_555
Rh3_6 Te4_2 2.655113 1_555
Rh3_6 Te15_6 2.710333 1_555
Rh3_6 Te9_6 2.717518 1_555
Rh3_6 Te2_6 2.734429 1_555
Rh3_6 Te2_2 2.734429 1_555
Rh3_6 Ta0_6 3.115882 1_555
Rh3_6 Ta0_2 3.115882 1_555
Rh3_7 Te4_7 2.655113 1_555
Rh3_7 Te4_3 2.655113 1_555
Rh3_7 Te15_7 2.710333 1_555
Rh3_7 Te9_7 2.717518 1_555
Rh3_7 Te2_7 2.734429 1_555
Rh3_7 Te2_3 2.734429 1_555
Rh3_7 Ta0_7 3.115882 1_555
Rh3_7 Ta0_3 3.115882 1_555
