# generated using pymatgen
data_Li6Mn2N3
_symmetry_space_group_name_H-M   'P 1'
_cell_length_a   3.74546700
_cell_length_b   6.44662413
_cell_length_c   6.44662445
_cell_angle_alpha   59.57122945
_cell_angle_beta   90.00000000
_cell_angle_gamma   90.00000000
_symmetry_Int_Tables_number   1
_chemical_formula_structural   Li6Mn2N3
_chemical_formula_sum   'Li6 Mn2 N3'
_cell_volume   134.21735115
_cell_formula_units_Z   1
loop_
 _symmetry_equiv_pos_site_id
 _symmetry_equiv_pos_as_xyz
  1  'x, y, z'
loop_
 _atom_site_type_symbol
 _atom_site_label
 _atom_site_symmetry_multiplicity
 _atom_site_fract_x
 _atom_site_fract_y
 _atom_site_fract_z
 _atom_site_occupancy
  Li  Li0  1  0.50000000  0.28732800  0.71267200  1
  Li  Li1  1  0.50000000  0.73987200  0.01459500  1
  Li  Li2  1  0.50000000  0.98540500  0.26012800  1
  Li  Li3  1  0.50000000  0.66675900  0.65999700  1
  Li  Li4  1  0.50000000  0.34000300  0.33324100  1
  Li  Li5  1  0.00000000  0.63020300  0.36979700  1
  Mn  Mn0  1  0.00000000  0.36498300  0.00334900  1
  Mn  Mn1  1  0.00000000  0.99665100  0.63501700  1
  N  N0  1  0.50000000  0.62801200  0.37198800  1
  N  N1  1  0.50000000  0.36149900  0.00061600  1
  N  N2  1  0.50000000  0.99938400  0.63850100  1
loop_
_geom_bond_atom_site_label_1
_geom_bond_atom_site_label_2
_geom_bond_distance
_geom_bond_site_symmetry_2
Li0 N2 2.138554 1_545
Li0 N1 2.138554 1_556
Li0 N0 2.182013 1_555
Li0 Li3 2.292838 1_555
Li0 Li4 2.292838 1_555
Li0 Mn1 2.866952 1_545
Li0 Mn1 2.866952 1_645
Li0 Mn0 2.866952 1_656
Li0 Mn0 2.866952 1_556
Li0 Li5 2.886130 1_655
Li0 Li5 2.886130 1_555
Li1 N0 2.036025 1_555
Li1 N2 2.137422 1_554
Li1 Li4 2.345419 1_555
Li1 N1 2.486085 1_555
Li1 Li3 2.557176 1_554
Li1 Li2 2.747496 1_555
Li1 Li5 2.758723 1_555
Li1 Li5 2.758723 1_655
Li1 Mn1 2.851682 1_554
Li1 Mn1 2.851682 1_654
Li2 N0 2.036025 1_555
Li2 N1 2.137422 1_565
Li2 Li3 2.345419 1_555
Li2 N2 2.486085 1_555
Li2 Li4 2.557176 1_565
Li2 Li5 2.758722 1_655
Li2 Li5 2.758722 1_555
Li2 Mn0 2.851682 1_565
Li2 Mn0 2.851682 1_665
Li3 N0 1.994856 1_555
Li3 N2 2.077563 1_555
Li3 N1 2.077802 1_556
Li3 Li5 2.740289 1_555
Li3 Li5 2.740289 1_655
Li3 Mn1 2.776503 1_655
Li3 Mn1 2.776503 1_555
Li3 Mn0 2.798111 1_656
Li3 Mn0 2.798111 1_556
Li4 N0 1.994856 1_555
Li4 N1 2.077563 1_555
Li4 N2 2.077802 1_545
Li4 Li5 2.740289 1_555
Li4 Li5 2.740289 1_655
Li4 Mn0 2.776503 1_655
Li4 Mn0 2.776503 1_555
Li4 Mn1 2.798111 1_545
Li4 Mn1 2.798111 1_645
Li5 N0 1.872786 1_555
Li5 N0 1.872786 1_455
Mn0 N1 1.873058 1_455
Mn0 N1 1.873058 1_555
Mn1 N2 1.873058 1_455
Mn1 N2 1.873058 1_555
