# generated using pymatgen
data_Mn2ZnO4
_symmetry_space_group_name_H-M   'P 1'
_cell_length_a   5.17625000
_cell_length_b   6.08793700
_cell_length_c   10.30830300
_cell_angle_alpha   90.00000000
_cell_angle_beta   90.00000000
_cell_angle_gamma   90.00000000
_symmetry_Int_Tables_number   1
_chemical_formula_structural   Mn2ZnO4
_chemical_formula_sum   'Mn8 Zn4 O16'
_cell_volume   324.84229395
_cell_formula_units_Z   4
loop_
 _symmetry_equiv_pos_site_id
 _symmetry_equiv_pos_as_xyz
  1  'x, y, z'
loop_
 _atom_site_type_symbol
 _atom_site_label
 _atom_site_symmetry_multiplicity
 _atom_site_fract_x
 _atom_site_fract_y
 _atom_site_fract_z
 _atom_site_occupancy
  Mn  Mn0  1  0.98694000  0.50000000  0.26417000  1
  Mn  Mn1  1  0.98694000  0.50000000  0.73583000  1
  Mn  Mn2  1  0.01306000  0.00000000  0.23583000  1
  Mn  Mn3  1  0.01306000  0.00000000  0.76417000  1
  Mn  Mn4  1  0.50000000  0.25000000  0.25000000  1
  Mn  Mn5  1  0.50000000  0.75000000  0.75000000  1
  Mn  Mn6  1  0.50000000  0.75000000  0.25000000  1
  Mn  Mn7  1  0.50000000  0.25000000  0.75000000  1
  Zn  Zn0  1  0.66427000  0.00000000  0.00000000  1
  Zn  Zn1  1  0.33573000  0.50000000  0.50000000  1
  Zn  Zn2  1  0.99423600  0.00000000  0.50000000  1
  Zn  Zn3  1  0.00576400  0.50000000  0.00000000  1
  O  O0  1  0.64237400  0.50000000  0.34819600  1
  O  O1  1  0.64237400  0.50000000  0.65180400  1
  O  O2  1  0.35762600  0.00000000  0.15180400  1
  O  O3  1  0.35762600  0.00000000  0.84819600  1
  O  O4  1  0.26484300  0.50000000  0.14779200  1
  O  O5  1  0.26484300  0.50000000  0.85220800  1
  O  O6  1  0.73515700  0.00000000  0.35220800  1
  O  O7  1  0.73515700  0.00000000  0.64779200  1
  O  O8  1  0.81196100  0.24852900  0.13719400  1
  O  O9  1  0.81196100  0.75147100  0.86280600  1
  O  O10  1  0.18803900  0.74852900  0.36280600  1
  O  O11  1  0.18803900  0.25147100  0.63719400  1
  O  O12  1  0.18803900  0.25147100  0.36280600  1
  O  O13  1  0.18803900  0.74852900  0.63719400  1
  O  O14  1  0.81196100  0.75147100  0.13719400  1
  O  O15  1  0.81196100  0.24852900  0.86280600  1
loop_
_geom_bond_atom_site_label_1
_geom_bond_atom_site_label_2
_geom_bond_distance
_geom_bond_site_symmetry_2
Mn0 O4 1.873086 1_655
Mn0 O0 1.982758 1_555
Mn0 O12 2.099198 1_655
Mn0 O10 2.099198 1_655
Mn0 O14 2.208477 1_555
Mn0 O8 2.208477 1_555
Mn1 O5 1.873086 1_655
Mn1 O1 1.982758 1_555
Mn1 O13 2.099198 1_655
Mn1 O11 2.099198 1_655
Mn1 O9 2.208477 1_555
Mn1 O15 2.208477 1_555
Mn2 O6 1.873086 1_455
Mn2 O2 1.982758 1_555
Mn2 O14 2.099198 1_445
Mn2 O8 2.099198 1_455
Mn2 O10 2.208477 1_545
Mn2 O12 2.208477 1_555
Mn3 O7 1.873086 1_455
Mn3 O3 1.982758 1_555
Mn3 O15 2.099198 1_455
Mn3 O9 2.099198 1_445
Mn3 O13 2.208477 1_545
Mn3 O11 2.208477 1_555
Mn4 O0 1.970830 1_555
Mn4 O2 1.970830 1_555
Mn4 O12 1.989928 1_555
Mn4 O8 1.989928 1_555
Mn4 O6 2.215433 1_555
Mn4 O4 2.215433 1_555
Mn5 O3 1.970830 1_565
Mn5 O1 1.970830 1_555
Mn5 O9 1.989928 1_555
Mn5 O13 1.989928 1_555
Mn5 O5 2.215433 1_555
Mn5 O7 2.215433 1_565
Mn6 O2 1.970830 1_565
Mn6 O0 1.970830 1_555
Mn6 O10 1.989928 1_555
Mn6 O14 1.989928 1_555
Mn6 O6 2.215433 1_565
Mn6 O4 2.215433 1_555
Mn7 O3 1.970830 1_555
Mn7 O1 1.970830 1_555
Mn7 O15 1.989928 1_555
Mn7 O11 1.989928 1_555
Mn7 O5 2.215433 1_555
Mn7 O7 2.215433 1_555
O0 Zn1 2.228933 1_555
O1 Zn1 2.228933 1_555
O2 Zn0 2.228933 1_555
O3 Zn0 2.228933 1_556
O4 Zn3 2.029641 1_555
O5 Zn3 2.029641 1_556
O6 Zn2 2.029641 1_555
O7 Zn2 2.029641 1_555
O8 Zn0 2.207660 1_555
O8 Zn3 2.313050 1_655
O9 Zn0 2.207660 1_566
O9 Zn3 2.313050 1_656
O10 Zn1 2.207660 1_555
O10 Zn2 2.313050 1_465
O11 Zn1 2.207660 1_555
O11 Zn2 2.313050 1_455
O12 Zn1 2.207660 1_555
O12 Zn2 2.313050 1_455
O13 Zn1 2.207660 1_555
O13 Zn2 2.313050 1_465
O14 Zn0 2.207660 1_565
O14 Zn3 2.313050 1_655
O15 Zn0 2.207660 1_556
O15 Zn3 2.313050 1_656
