# generated using pymatgen
data_SmP5O14
_symmetry_space_group_name_H-M   'P 1'
_cell_length_a   8.94419476
_cell_length_b   8.76334030
_cell_length_c   12.97521037
_cell_angle_alpha   89.63303277
_cell_angle_beta   90.00000000
_cell_angle_gamma   90.00000000
_symmetry_Int_Tables_number   1
_chemical_formula_structural   SmP5O14
_chemical_formula_sum   'Sm4 P20 O56'
_cell_volume   1016.98939465
_cell_formula_units_Z   4
loop_
 _symmetry_equiv_pos_site_id
 _symmetry_equiv_pos_as_xyz
  1  'x, y, z'
loop_
 _atom_site_type_symbol
 _atom_site_label
 _atom_site_symmetry_multiplicity
 _atom_site_fract_x
 _atom_site_fract_y
 _atom_site_fract_z
 _atom_site_occupancy
  Sm  Sm0  1  0.30848426  0.72263354  0.49906114  1
  Sm  Sm1  1  0.80848426  0.27736646  0.00093886  1
  Sm  Sm2  1  0.69151574  0.27736646  0.50093886  1
  Sm  Sm3  1  0.19151574  0.72263354  0.99906114  1
  P  P0  1  0.00190343  0.99525764  0.17227011  1
  P  P1  1  0.50190343  0.00474236  0.32772989  1
  P  P2  1  0.99809657  0.00474236  0.82772989  1
  P  P3  1  0.49809657  0.99525764  0.67227011  1
  P  P4  1  0.00400258  0.49433417  0.20309317  1
  P  P5  1  0.50400258  0.50566583  0.29690683  1
  P  P6  1  0.99599742  0.50566583  0.79690683  1
  P  P7  1  0.49599742  0.49433417  0.70309317  1
  P  P8  1  0.95122850  0.75772719  0.33504050  1
  P  P9  1  0.45122850  0.24227281  0.16495950  1
  P  P10  1  0.04877150  0.24227281  0.66495950  1
  P  P11  1  0.54877150  0.75772719  0.83504050  1
  P  P12  1  0.05174748  0.22920964  0.33589745  1
  P  P13  1  0.55174748  0.77079036  0.16410255  1
  P  P14  1  0.94825252  0.77079036  0.66410255  1
  P  P15  1  0.44825252  0.22920964  0.83589745  1
  P  P16  1  0.25563918  0.31501271  0.50009457  1
  P  P17  1  0.75563918  0.68498729  0.99990543  1
  P  P18  1  0.74436082  0.68498729  0.49990543  1
  P  P19  1  0.24436082  0.31501271  0.00009457  1
  O  O0  1  0.12247564  0.92066200  0.11419635  1
  O  O1  1  0.62247564  0.07933800  0.38580365  1
  O  O2  1  0.87752436  0.07933800  0.88580365  1
  O  O3  1  0.37752436  0.92066200  0.61419635  1
  O  O4  1  0.11744186  0.58646620  0.14904208  1
  O  O5  1  0.61744186  0.41353380  0.35095792  1
  O  O6  1  0.88255814  0.41353380  0.85095792  1
  O  O7  1  0.38255814  0.58646620  0.64904208  1
  O  O8  1  0.88304733  0.08305151  0.12081193  1
  O  O9  1  0.38304733  0.91694849  0.37918807  1
  O  O10  1  0.11695267  0.91694849  0.87918807  1
  O  O11  1  0.61695267  0.08305151  0.62081193  1
  O  O12  1  0.88341458  0.41227203  0.14983465  1
  O  O13  1  0.38341458  0.58772797  0.35016535  1
  O  O14  1  0.11658542  0.58772797  0.85016535  1
  O  O15  1  0.61658542  0.41227203  0.64983465  1
  O  O16  1  0.91889709  0.87139723  0.24532670  1
  O  O17  1  0.41889709  0.12860277  0.25467330  1
  O  O18  1  0.08110291  0.12860277  0.75467330  1
  O  O19  1  0.08224278  0.09653008  0.25979720  1
  O  O20  1  0.58110291  0.87139723  0.74532670  1
  O  O21  1  0.42409292  0.40367181  0.21080680  1
  O  O22  1  0.07590708  0.40367181  0.71080680  1
  O  O23  1  0.57590708  0.59632819  0.78919320  1
  O  O24  1  0.18689774  0.46824098  0.49630072  1
  O  O25  1  0.68689774  0.53175902  0.00369928  1
  O  O26  1  0.81310226  0.53175902  0.50369928  1
  O  O27  1  0.31310226  0.46824098  0.99630072  1
  O  O28  1  0.08167499  0.29111464  0.99954530  1
  O  O29  1  0.58167499  0.70888536  0.50045470  1
  O  O30  1  0.91832501  0.70888536  0.00045470  1
  O  O31  1  0.41832501  0.29111464  0.49954530  1
  O  O32  1  0.31227132  0.20920702  0.90987416  1
  O  O33  1  0.81227132  0.79079298  0.59012584  1
  O  O34  1  0.68772868  0.79079298  0.09012584  1
  O  O35  1  0.18772868  0.20920702  0.40987416  1
  O  O36  1  0.40729629  0.77864478  0.88954166  1
  O  O37  1  0.90729629  0.22135522  0.61045834  1
  O  O38  1  0.59270371  0.22135522  0.11045834  1
  O  O39  1  0.09270371  0.77864478  0.38954166  1
  O  O40  1  0.59469121  0.23057803  0.88560771  1
  O  O41  1  0.09469121  0.76942197  0.61439229  1
  O  O42  1  0.40530879  0.76942197  0.11439229  1
  O  O43  1  0.90530879  0.23057803  0.38560771  1
  O  O44  1  0.30791850  0.22022397  0.09813667  1
  O  O45  1  0.80791850  0.77977603  0.40186333  1
  O  O46  1  0.69208150  0.77977603  0.90186333  1
  O  O47  1  0.19208150  0.22022397  0.59813667  1
  O  O48  1  0.40468671  0.37719542  0.77504602  1
  O  O49  1  0.90468671  0.62280458  0.72495398  1
  O  O50  1  0.59531329  0.62280458  0.22495398  1
  O  O51  1  0.09531329  0.37719542  0.27504602  1
  O  O52  1  0.41775722  0.09653008  0.75979720  1
  O  O53  1  0.91775722  0.90346992  0.74020280  1
  O  O54  1  0.58224278  0.90346992  0.24020280  1
  O  O55  1  0.92409292  0.59632819  0.28919320  1
loop_
_geom_bond_atom_site_label_1
_geom_bond_atom_site_label_2
_geom_bond_distance
_geom_bond_site_symmetry_2
O0 P0 1.471199 1_555
O0 Sm3 2.378624 1_554
O1 P1 1.471199 1_555
O1 Sm2 2.378624 1_555
O2 P2 1.471199 1_555
O2 Sm1 2.378624 1_556
O3 P3 1.471199 1_555
O3 Sm0 2.378624 1_555
O4 P4 1.471711 1_555
O4 Sm3 2.370690 1_554
O5 P5 1.471711 1_555
O5 Sm2 2.370690 1_555
O6 P6 1.471711 1_555
O6 Sm1 2.370690 1_556
O7 P7 1.471711 1_555
O7 Sm0 2.370690 1_555
O8 P0 1.470125 1_645
O8 Sm1 2.393686 1_555
O9 P1 1.470125 1_565
O9 Sm0 2.393686 1_555
O10 P2 1.470125 1_465
O10 Sm3 2.393686 1_555
O11 P3 1.470125 1_545
O11 Sm2 2.393686 1_555
O12 P4 1.471176 1_655
O12 Sm1 2.368230 1_555
O13 P5 1.471176 1_555
O13 Sm0 2.368230 1_555
O14 P6 1.471176 1_455
O14 Sm3 2.368230 1_555
O15 P7 1.471176 1_555
O15 Sm2 2.368230 1_555
O16 P8 1.554371 1_555
O16 P0 1.617015 1_655
O17 P9 1.554371 1_555
O17 P1 1.617015 1_555
O18 P10 1.554371 1_555
O18 P2 1.617015 1_455
O19 P12 1.554350 1_555
O19 P0 1.614515 1_545
O20 P11 1.554371 1_555
O20 P3 1.617015 1_555
O21 P9 1.556944 1_555
O21 P5 1.603303 1_555
O22 P10 1.556944 1_555
O22 P6 1.603303 1_455
O23 P11 1.556944 1_555
O23 P7 1.603303 1_555
O24 P16 1.477393 1_555
O24 Sm0 2.480898 1_555
O25 P17 1.477393 1_554
O25 Sm1 2.480898 1_555
O26 P18 1.477393 1_555
O26 Sm2 2.480898 1_555
O27 P19 1.477393 1_556
O27 Sm3 2.480898 1_555
O28 P19 1.470111 1_556
O28 Sm1 2.446501 1_456
O29 P18 1.470111 1_555
O29 Sm0 2.446501 1_555
O30 P17 1.470111 1_554
O30 Sm3 2.446501 1_654
O31 P16 1.470111 1_555
O31 Sm2 2.446501 1_555
O32 P15 1.558574 1_555
O32 P19 1.616458 1_556
O33 P14 1.558574 1_555
O33 P18 1.616458 1_555
O34 P13 1.558574 1_555
O34 P17 1.616458 1_554
O35 P12 1.558574 1_555
O35 P16 1.616458 1_555
O36 P11 1.461689 1_555
O36 Sm3 2.444623 1_555
O37 P10 1.461689 1_655
O37 Sm2 2.444623 1_555
O38 P9 1.461689 1_555
O38 Sm1 2.444623 1_555
O39 P8 1.461689 1_455
O39 Sm0 2.444623 1_555
O40 P15 1.460063 1_555
O40 Sm1 2.464115 1_556
O41 P14 1.460063 1_455
O41 Sm0 2.464115 1_555
O42 P13 1.460063 1_555
O42 Sm3 2.464115 1_554
O43 P12 1.460063 1_655
O43 Sm2 2.464115 1_555
O44 P9 1.560202 1_555
O44 P19 1.617996 1_555
O45 P8 1.560202 1_555
O45 P18 1.617996 1_555
O46 P11 1.560202 1_555
O46 P17 1.617996 1_555
O47 P10 1.560202 1_555
O47 P16 1.617996 1_555
O48 P15 1.563312 1_555
O48 P7 1.606268 1_555
O49 P14 1.563312 1_555
O49 P6 1.606268 1_555
O50 P13 1.563312 1_555
O50 P5 1.606268 1_555
O51 P12 1.563312 1_555
O51 P4 1.606268 1_555
O52 P15 1.554350 1_555
O52 P3 1.614515 1_545
O53 P14 1.554350 1_555
O53 P2 1.614515 1_565
O54 P13 1.554350 1_555
O54 P1 1.614515 1_565
O55 P8 1.556944 1_555
O55 P4 1.603303 1_655
