# generated using pymatgen
data_Sr2CoO4
_symmetry_space_group_name_H-M   'P 1'
_cell_length_a   5.49380595
_cell_length_b   8.78286117
_cell_length_c   8.78389152
_cell_angle_alpha   89.58014662
_cell_angle_beta   71.25624625
_cell_angle_gamma   108.74794026
_symmetry_Int_Tables_number   1
_chemical_formula_structural   Sr2CoO4
_chemical_formula_sum   'Sr8 Co4 O16'
_cell_volume   377.15894624
_cell_formula_units_Z   4
loop_
 _symmetry_equiv_pos_site_id
 _symmetry_equiv_pos_as_xyz
  1  'x, y, z'
loop_
 _atom_site_type_symbol
 _atom_site_label
 _atom_site_symmetry_multiplicity
 _atom_site_fract_x
 _atom_site_fract_y
 _atom_site_fract_z
 _atom_site_occupancy
  Sr  Sr0  1  0.24973100  0.39533900  0.89074700  1
  Sr  Sr1  1  0.00054200  0.64415000  0.64330400  1
  Sr  Sr2  1  0.75159000  0.89003800  0.39519000  1
  Sr  Sr3  1  0.49939700  0.14079800  0.14146700  1
  Sr  Sr4  1  0.00057500  0.35666000  0.35576400  1
  Sr  Sr5  1  0.75167600  0.60496100  0.10995300  1
  Sr  Sr6  1  0.49899900  0.85827700  0.85950000  1
  Sr  Sr7  1  0.24977700  0.10924200  0.60453000  1
  Co  Co0  1  0.50113100  0.49972800  0.50022900  1
  Co  Co1  1  0.25171800  0.75126200  0.24888200  1
  Co  Co2  1  0.00178300  0.00050500  0.99943200  1
  Co  Co3  1  0.75103600  0.24815400  0.75168200  1
  O  O0  1  0.25063200  0.58939000  0.09213600  1
  O  O1  1  0.99960600  0.84998200  0.84691000  1
  O  O2  1  0.74822900  0.09131300  0.59093400  1
  O  O3  1  0.49950000  0.33961900  0.33972800  1
  O  O4  1  0.00038600  0.15356600  0.14961400  1
  O  O5  1  0.74809700  0.40886300  0.90874700  1
  O  O6  1  0.49952700  0.66030300  0.66029900  1
  O  O7  1  0.25060000  0.90759900  0.41105500  1
  O  O8  1  0.87534100  0.12072500  0.87891600  1
  O  O9  1  0.61147000  0.38523800  0.61474300  1
  O  O10  1  0.38764600  0.61401500  0.38585700  1
  O  O11  1  0.12359400  0.88120900  0.11948700  1
  O  O12  1  0.39718500  0.13585300  0.86383400  1
  O  O13  1  0.09153100  0.36879400  0.63119800  1
  O  O14  1  0.90569800  0.63142600  0.36852200  1
  O  O15  1  0.60300200  0.86299100  0.13733600  1
loop_
_geom_bond_atom_site_label_1
_geom_bond_atom_site_label_2
_geom_bond_distance
_geom_bond_site_symmetry_2
Co0 O9 1.777426 1_555
Co0 O10 1.787618 1_555
Co0 O3 1.998549 1_555
Co0 O6 1.998768 1_555
Co0 O14 2.071624 1_555
Co0 O13 2.088792 1_555
Co1 O15 1.789064 1_555
Co1 O14 1.799894 1_455
Co1 O7 1.985723 1_555
Co1 O0 1.986320 1_555
Co1 O11 2.025199 1_555
Co1 O10 2.143159 1_555
Co2 O11 1.883024 1_546
Co2 O1 1.889146 1_445
Co2 O4 1.890396 1_556
Co2 O8 1.909379 1_455
Co2 O12 2.051106 1_555
Co2 O15 2.073134 1_446
Co3 O13 1.783003 1_655
Co3 O12 1.801353 1_555
Co3 O2 1.979987 1_555
Co3 O5 1.981120 1_555
Co3 O8 1.982795 1_555
Co3 O9 2.156219 1_555
O0 Sr0 2.465445 1_554
O0 Sr4 2.740222 1_555
O0 Sr5 2.742768 1_455
O0 Sr5 2.766840 1_555
O0 Sr6 2.771392 1_554
O1 Sr1 2.552285 1_655
O1 Sr6 2.741312 1_555
O1 Sr6 2.758864 1_655
O1 Sr7 2.764668 1_665
O1 Sr5 2.800939 1_556
O2 Sr2 2.475236 1_545
O2 Sr7 2.750305 1_655
O2 Sr7 2.757747 1_555
O2 Sr4 2.762695 1_655
O2 Sr6 2.771447 1_545
O3 Sr3 2.475212 1_555
O3 Sr7 2.735371 1_555
O3 Sr5 2.735442 1_555
O3 Sr4 2.751580 1_555
O3 Sr4 2.757692 1_655
O4 Sr4 2.551098 1_555
O4 Sr3 2.742508 1_455
O4 Sr3 2.757717 1_555
O4 Sr0 2.759274 1_554
O4 Sr2 2.806564 1_445
O5 Sr5 2.476992 1_556
O5 Sr0 2.750389 1_655
O5 Sr0 2.757677 1_555
O5 Sr1 2.763910 1_655
O5 Sr3 2.766819 1_556
O6 Sr6 2.475800 1_555
O6 Sr2 2.733909 1_555
O6 Sr0 2.736636 1_555
O6 Sr1 2.751472 1_555
O6 Sr1 2.757863 1_655
O7 Sr7 2.463527 1_565
O7 Sr1 2.736657 1_555
O7 Sr2 2.744608 1_455
O7 Sr2 2.765011 1_555
O7 Sr3 2.778486 1_565
O8 Sr6 2.604986 1_545
O8 Sr3 2.606590 1_556
O8 Sr7 2.645997 1_655
O8 Sr0 2.647779 1_655
O9 Sr7 2.618004 1_555
O9 Sr0 2.618215 1_555
O9 Sr1 2.651668 1_655
O9 Sr4 2.652466 1_655
O10 Sr5 2.620976 1_555
O10 Sr2 2.621832 1_555
O10 Sr4 2.642190 1_555
O10 Sr1 2.643197 1_555
O11 Sr3 2.595137 1_565
O11 Sr6 2.599264 1_554
O11 Sr2 2.640350 1_455
O11 Sr5 2.644770 1_455
O12 Sr7 2.640064 1_555
O12 Sr0 2.641529 1_555
O12 Sr6 2.668701 1_545
O12 Sr3 2.670283 1_556
O13 Sr1 2.618514 1_555
O13 Sr4 2.619345 1_555
O13 Sr7 2.675479 1_555
O13 Sr0 2.675521 1_555
O14 Sr4 2.623533 1_655
O14 Sr1 2.623832 1_655
O14 Sr5 2.654241 1_555
O14 Sr2 2.654655 1_555
O15 Sr2 2.631413 1_555
O15 Sr5 2.632953 1_555
O15 Sr3 2.675695 1_565
O15 Sr6 2.677043 1_554
