# generated using pymatgen
data_SrCa7Mn6Al2O21
_symmetry_space_group_name_H-M   'P 1'
_cell_length_a   10.92501429
_cell_length_b   15.39578849
_cell_length_c   10.84568399
_cell_angle_alpha   89.75993092
_cell_angle_beta   90.41802582
_cell_angle_gamma   90.30107510
_symmetry_Int_Tables_number   1
_chemical_formula_structural   SrCa7Mn6Al2O21
_chemical_formula_sum   'Sr4 Ca28 Mn24 Al8 O84'
_cell_volume   1824.14601087
_cell_formula_units_Z   4
loop_
 _symmetry_equiv_pos_site_id
 _symmetry_equiv_pos_as_xyz
  1  'x, y, z'
loop_
 _atom_site_type_symbol
 _atom_site_label
 _atom_site_symmetry_multiplicity
 _atom_site_fract_x
 _atom_site_fract_y
 _atom_site_fract_z
 _atom_site_occupancy
  Sr  Sr0  1  0.00238851  0.13116691  0.49208001  1
  Sr  Sr1  1  0.49871261  0.35869321  0.01050125  1
  Sr  Sr2  1  0.22990843  0.37212353  0.26113245  1
  Sr  Sr3  1  0.25583086  0.12629944  0.24811894  1
  Ca  Ca0  1  0.01177634  0.11970519  0.99826808  1
  Ca  Ca1  1  0.01000362  0.61910403  0.51072881  1
  Ca  Ca2  1  0.01946896  0.61914296  0.99774435  1
  Ca  Ca3  1  0.52537722  0.12996113  0.51165550  1
  Ca  Ca4  1  0.52232694  0.12088393  0.97418337  1
  Ca  Ca5  1  0.52906845  0.62407814  0.49508346  1
  Ca  Ca6  1  0.53902184  0.62784137  0.00649872  1
  Ca  Ca7  1  0.49320535  0.38216887  0.51287221  1
  Ca  Ca8  1  0.50009236  0.87160760  0.97967124  1
  Ca  Ca9  1  0.49046722  0.87386968  0.49685549  1
  Ca  Ca10  1  0.97567562  0.38868770  0.00588745  1
  Ca  Ca11  1  0.99012981  0.39355431  0.49944902  1
  Ca  Ca12  1  0.97682717  0.87707506  0.00142159  1
  Ca  Ca13  1  0.97935040  0.86744646  0.52393719  1
  Ca  Ca14  1  0.23705843  0.38425615  0.74004417  1
  Ca  Ca15  1  0.24202965  0.88647313  0.24937414  1
  Ca  Ca16  1  0.23330727  0.88583309  0.75646671  1
  Ca  Ca17  1  0.73453169  0.39903831  0.25752764  1
  Ca  Ca18  1  0.72402188  0.38569651  0.74771406  1
  Ca  Ca19  1  0.73902984  0.86373913  0.24314870  1
  Ca  Ca20  1  0.72838918  0.87261514  0.75034962  1
  Ca  Ca21  1  0.28444914  0.12058477  0.74530391  1
  Ca  Ca22  1  0.26491332  0.61524131  0.26706407  1
  Ca  Ca23  1  0.23930158  0.62105711  0.73099126  1
  Ca  Ca24  1  0.71461130  0.12495321  0.24173396  1
  Ca  Ca25  1  0.73676991  0.11373592  0.75040506  1
  Ca  Ca26  1  0.77919361  0.62718488  0.25681935  1
  Ca  Ca27  1  0.78100878  0.62808931  0.76237915  1
  Mn  Mn0  1  0.00618636  0.98663237  0.25177630  1
  Mn  Mn1  1  0.99694249  0.99464412  0.76162514  1
  Mn  Mn2  1  0.99730538  0.50266789  0.25101229  1
  Mn  Mn3  1  0.00456568  0.50190776  0.75544972  1
  Mn  Mn4  1  0.49849272  0.50321912  0.24509685  1
  Mn  Mn5  1  0.50177440  0.50457066  0.74135547  1
  Mn  Mn6  1  0.25383176  0.00167606  0.00089971  1
  Mn  Mn7  1  0.24949635  0.50139872  0.50066143  1
  Mn  Mn8  1  0.74869412  0.99744660  -0.00067595  1
  Mn  Mn9  1  0.73594457  0.99631177  0.51614432  1
  Mn  Mn10  1  0.75040361  0.50242977  0.00134758  1
  Mn  Mn11  1  0.75373825  0.50166924  0.50102874  1
  Mn  Mn12  1  0.26600208  0.73646312  0.99110110  1
  Mn  Mn13  1  0.24554391  0.75845314  0.48101557  1
  Mn  Mn14  1  0.77427049  0.24166227  0.98121534  1
  Mn  Mn15  1  0.75687257  0.25068514  0.49245833  1
  Mn  Mn16  1  0.75869079  0.74962227  0.00390062  1
  Mn  Mn17  1  0.75749602  0.74814996  0.50718202  1
  Mn  Mn18  1  0.99353020  0.26167087  0.74917024  1
  Mn  Mn19  1  0.00393927  0.74842959  0.26045136  1
  Mn  Mn20  1  0.00786119  0.75112880  0.76007057  1
  Mn  Mn21  1  0.50721218  0.25085819  0.74789082  1
  Mn  Mn22  1  0.51000687  0.74612387  0.25988043  1
  Mn  Mn23  1  0.50660636  0.74497638  0.75327410  1
  Al  Al0  1  0.50589029  0.97977017  0.22610050  1
  Al  Al1  1  0.48599173  0.99224242  0.74317827  1
  Al  Al2  1  0.22554158  0.00030421  0.51948688  1
  Al  Al3  1  0.23559844  0.49571093  0.02064237  1
  Al  Al4  1  0.24508493  0.25268215  0.94549813  1
  Al  Al5  1  0.27813424  0.24196954  0.49920200  1
  Al  Al6  1  0.96958003  0.26287379  0.25526069  1
  Al  Al7  1  0.50708550  0.26317695  0.28157629  1
  O  O0  1  0.13114516  0.77945767  0.61815204  1
  O  O1  1  0.52922683  0.21636055  0.13858791  1
  O  O2  1  0.62711065  0.27543273  0.62021772  1
  O  O3  1  0.60613331  0.76773391  0.10850379  1
  O  O4  1  0.60151843  0.76894476  0.60596525  1
  O  O5  1  0.37808830  0.23316738  0.36834585  1
  O  O6  1  0.39203655  0.22794423  0.88318876  1
  O  O7  1  0.40741426  0.73433356  0.40450804  1
  O  O8  1  0.41629005  0.72709859  0.90833460  1
  O  O9  1  0.86078232  0.21098356  0.35062696  1
  O  O10  1  0.89789044  0.19088950  0.84422904  1
  O  O11  1  0.90600412  0.73124177  0.41474348  1
  O  O12  1  0.90771967  0.73074463  0.90593668  1
  O  O13  1  0.10757136  0.22508164  0.31447208  1
  O  O14  1  0.15359933  0.23713103  0.80666790  1
  O  O15  1  0.17346046  0.74708574  0.29817167  1
  O  O16  1  0.14888467  0.72758779  0.86135522  1
  O  O17  1  0.62904555  0.23218655  0.37585792  1
  O  O18  1  0.64057591  0.23379331  0.86395683  1
  O  O19  1  0.66296097  0.73136142  0.36053387  1
  O  O20  1  0.65874318  0.73735229  0.85962444  1
  O  O21  1  0.37943480  0.26200589  0.62784227  1
  O  O22  1  0.91917583  0.24774204  0.09938950  1
  O  O23  1  0.90661370  0.26211418  0.59716185  1
  O  O24  1  0.87127967  0.77294409  0.14513583  1
  O  O25  1  0.86110969  0.77468511  0.65447514  1
  O  O26  1  0.36434257  0.47895219  0.12555320  1
  O  O27  1  0.36008607  0.47983373  0.63853818  1
  O  O28  1  0.36305110  0.00450395  0.15719247  1
  O  O29  1  0.34975296  0.99788156  0.63527580  1
  O  O30  1  0.85620067  0.48665748  0.14415097  1
  O  O31  1  0.86113108  0.48195778  0.64305930  1
  O  O32  1  0.85181137  0.99650078  0.17475358  1
  O  O33  1  0.85708738  0.98928177  0.65449481  1
  O  O34  1  0.12979164  0.01972172  0.36871598  1
  O  O35  1  0.14632602  0.02564290  0.85799915  1
  O  O36  1  0.13962844  0.50686875  0.35750045  1
  O  O37  1  0.17970321  0.51290426  0.86467280  1
  O  O38  1  0.57170690  0.03698468  0.34990367  1
  O  O39  1  0.64117759  0.00049158  0.85768571  1
  O  O40  1  0.64277428  0.52367521  0.34991974  1
  O  O41  1  0.63525558  0.52534458  0.85841538  1
  O  O42  1  0.39198517  0.01196052  0.88913042  1
  O  O43  1  0.39137227  0.50943039  0.38948694  1
  O  O44  1  0.89895793  0.00963827  0.90991741  1
  O  O45  1  0.89527464  0.52448815  0.39119547  1
  O  O46  1  0.89649517  0.51724108  0.89821905  1
  O  O47  1  0.10120208  0.47983732  0.11291765  1
  O  O48  1  0.11360315  0.49147335  0.61394299  1
  O  O49  1  0.11052393  0.99221984  0.10735605  1
  O  O50  1  0.09427776  0.98751526  0.61500790  1
  O  O51  1  0.60941085  0.48424063  0.10619820  1
  O  O52  1  0.61541725  0.48296609  0.60057703  1
  O  O53  1  0.60986299  0.98103674  0.10326342  1
  O  O54  1  0.59330815  0.97758015  0.61532207  1
  O  O55  1  0.98268936  0.37709078  0.27967603  1
  O  O56  1  0.01359582  0.38055008  0.78807040  1
  O  O57  1  0.01127747  0.87136780  0.30136755  1
  O  O58  1  0.02224950  0.86951864  0.79918527  1
  O  O59  1  0.50897853  0.37738697  0.27745382  1
  O  O60  1  0.50091528  0.37922651  0.78523092  1
  O  O61  1  0.49115508  0.87065142  0.27594020  1
  O  O62  1  0.46640872  0.86825128  0.76471673  1
  O  O63  1  0.51084052  0.12432592  0.72435071  1
  O  O64  1  0.47870143  0.62653397  0.21230092  1
  O  O65  1  0.46564972  0.62711997  0.70939056  1
  O  O66  1  0.99982296  0.62631432  0.21320149  1
  O  O67  1  0.00198816  0.62656558  0.72183876  1
  O  O68  1  0.20507341  0.17008451  0.04534829  1
  O  O69  1  0.23186504  0.13138655  0.52633000  1
  O  O70  1  0.24015756  0.62220238  0.04966915  1
  O  O71  1  0.23055047  0.63697854  0.51400801  1
  O  O72  1  0.73874343  0.12167616  0.02770364  1
  O  O73  1  0.74399598  0.11825816  0.53116056  1
  O  O74  1  0.74999247  0.62857293  0.04019157  1
  O  O75  1  0.74682215  0.62694946  0.54828454  1
  O  O76  1  0.20752071  0.34558687  0.49755999  1
  O  O77  1  0.24584074  0.36339602  0.98881426  1
  O  O78  1  0.27268000  0.88955948  0.46339959  1
  O  O79  1  0.27119191  0.85712326  0.01745321  1
  O  O80  1  0.76597926  0.37896031  0.46209286  1
  O  O81  1  0.76100649  0.36718080  0.97295300  1
  O  O82  1  0.76369501  0.88113032  0.45879991  1
  O  O83  1  0.76442371  0.87497109  0.97308645  1
loop_
_geom_bond_atom_site_label_1
_geom_bond_atom_site_label_2
_geom_bond_distance
_geom_bond_site_symmetry_2
Ca0 O44 2.298551 1_455
Ca0 O68 2.300497 1_556
Ca0 O10 2.347101 1_455
Ca0 O22 2.483402 1_456
Ca0 O49 2.529854 1_546
Ca0 O35 2.577946 1_555
Ca1 O67 2.295324 1_555
Ca1 O11 2.311622 1_455
Ca1 O45 2.312276 1_455
Ca1 O71 2.423725 1_555
Ca1 O48 2.526209 1_555
Ca1 O36 2.799504 1_555
Ca1 O75 2.910116 1_455
Ca1 O0 3.028380 1_555
Ca2 O46 2.324288 1_455
Ca2 O12 2.328975 1_455
Ca2 O66 2.351282 1_456
Ca2 O70 2.472171 1_556
Ca2 O47 2.634178 1_556
Ca2 O16 2.638127 1_555
Ca2 O37 2.812377 1_555
Ca2 O74 2.987505 1_456
Ca3 O63 2.314674 1_555
Ca3 O38 2.329043 1_555
Ca3 O73 2.403864 1_555
Ca3 O17 2.432094 1_555
Ca3 O54 2.702363 1_545
Ca3 O5 2.738530 1_555
Ca3 O2 2.759441 1_555
Ca3 O21 2.889250 1_555
Ca3 O29 3.096399 1_545
Ca3 O69 3.211926 1_555
Ca4 O1 2.316163 1_556
Ca4 O42 2.378984 1_555
Ca4 O6 2.389028 1_555
Ca4 O72 2.430429 1_556
Ca4 O18 2.470105 1_555
Ca4 O39 2.605155 1_555
Ca4 O63 2.711904 1_555
Ca4 O53 2.736232 1_546
Ca4 O28 3.188388 1_556
Ca5 O7 2.367180 1_555
Ca5 O65 2.430924 1_555
Ca5 O75 2.444059 1_555
Ca5 O40 2.545672 1_555
Ca5 O43 2.579554 1_555
Ca5 O52 2.627520 1_555
Ca5 O19 2.642523 1_555
Ca5 O4 2.652763 1_555
Ca6 O8 2.292085 1_554
Ca6 O74 2.330987 1_555
Ca6 O64 2.331899 1_555
Ca6 O41 2.497649 1_554
Ca6 O3 2.528182 1_555
Ca6 O51 2.575682 1_555
Ca6 O20 2.659998 1_554
Ca7 O52 2.251177 1_555
Ca7 O2 2.486030 1_555
Ca7 O27 2.510505 1_555
Ca7 O21 2.549780 1_555
Ca7 O59 2.561728 1_555
Ca7 O43 2.616587 1_555
Ca7 O80 3.035165 1_555
Ca7 O5 3.045025 1_555
Ca8 O62 2.358278 1_555
Ca8 O3 2.414358 1_556
Ca8 O53 2.459184 1_556
Ca8 O8 2.523761 1_555
Ca8 O79 2.545520 1_556
Ca8 O42 2.649637 1_565
Ca8 O39 2.835331 1_565
Ca8 O83 2.889414 1_555
Ca8 O20 3.010790 1_555
Ca9 O54 2.332364 1_555
Ca9 O4 2.337832 1_555
Ca9 O61 2.396765 1_555
Ca9 O78 2.417421 1_555
Ca9 O7 2.534912 1_555
Ca9 O29 2.889795 1_555
Ca9 O62 2.919793 1_555
Ca9 O82 3.017824 1_555
Ca9 O38 3.098086 1_565
Ca10 O47 2.273252 1_655
Ca10 O81 2.391253 1_554
Ca10 O56 2.405295 1_654
Ca10 O46 2.452134 1_554
Ca10 O22 2.468761 1_555
Ca10 O30 2.509113 1_555
Ca10 O55 2.974493 1_555
Ca10 O77 2.986346 1_654
Ca11 O48 2.367318 1_655
Ca11 O55 2.398826 1_555
Ca11 O23 2.455074 1_555
Ca11 O80 2.488371 1_555
Ca11 O76 2.491121 1_655
Ca11 O31 2.516847 1_555
Ca11 O45 2.549571 1_555
Ca11 O36 2.839979 1_655
Ca12 O58 2.255966 1_654
Ca12 O83 2.338621 1_554
Ca12 O44 2.421348 1_564
Ca12 O24 2.513002 1_555
Ca12 O49 2.561543 1_655
Ca12 O12 2.590018 1_554
Ca12 O32 2.978744 1_555
Ca13 O0 2.369950 1_655
Ca13 O25 2.388103 1_555
Ca13 O50 2.437632 1_655
Ca13 O57 2.441959 1_655
Ca13 O82 2.464562 1_555
Ca13 O11 2.535989 1_555
Ca13 O33 2.717316 1_555
Ca14 O27 2.273995 1_555
Ca14 O37 2.488061 1_555
Ca14 O56 2.500303 1_555
Ca14 O48 2.528232 1_555
Ca14 O14 2.541336 1_555
Ca14 O76 2.715455 1_555
Ca14 O77 2.716851 1_555
Ca14 O21 2.742327 1_555
Ca14 O60 2.921849 1_555
Ca15 O15 2.329351 1_555
Ca15 O78 2.343505 1_555
Ca15 O28 2.455322 1_565
Ca15 O79 2.579798 1_555
Ca15 O57 2.596314 1_555
Ca15 O49 2.656769 1_555
Ca15 O34 2.731165 1_565
Ca15 O61 2.746804 1_555
Ca16 O58 2.367072 1_555
Ca16 O0 2.480967 1_555
Ca16 O29 2.510832 1_555
Ca16 O62 2.563270 1_555
Ca16 O35 2.608724 1_565
Ca16 O50 2.661289 1_555
Ca16 O16 2.837051 1_555
Ca16 O79 2.890188 1_556
Ca16 O42 2.966109 1_565
Ca17 O30 2.256040 1_555
Ca17 O80 2.262795 1_555
Ca17 O40 2.396273 1_555
Ca17 O59 2.495695 1_555
Ca17 O51 2.500217 1_555
Ca17 O55 2.742540 1_555
Ca17 O17 3.088172 1_555
Ca17 O81 3.142822 1_554
Ca18 O31 2.390788 1_555
Ca18 O2 2.427822 1_555
Ca18 O60 2.475519 1_555
Ca18 O52 2.483552 1_555
Ca18 O81 2.488596 1_555
Ca18 O41 2.658002 1_555
Ca18 O18 2.803494 1_555
Ca18 O56 3.191920 1_655
Ca18 O23 3.221644 1_555
Ca19 O24 2.286405 1_555
Ca19 O82 2.368539 1_555
Ca19 O32 2.494073 1_555
Ca19 O3 2.527812 1_555
Ca19 O19 2.537926 1_555
Ca19 O61 2.736542 1_555
Ca19 O53 2.743522 1_555
Ca19 O83 2.948402 1_554
Ca19 O57 3.037853 1_655
Ca20 O25 2.348395 1_555
Ca20 O83 2.445153 1_555
Ca20 O39 2.488800 1_565
Ca20 O33 2.502617 1_555
Ca20 O20 2.509201 1_555
Ca20 O4 2.624287 1_555
Ca20 O54 2.628260 1_555
Ca20 O62 2.867933 1_555
Ca21 O29 2.355263 1_545
Ca21 O14 2.399364 1_555
Ca21 O35 2.428235 1_555
Ca21 O69 2.444530 1_555
Ca21 O63 2.485742 1_555
Ca21 O6 2.514878 1_555
Ca21 O42 2.565605 1_555
Ca21 O21 2.722629 1_555
Ca22 O15 2.294414 1_555
Ca22 O36 2.366687 1_555
Ca22 O70 2.373335 1_555
Ca22 O64 2.419362 1_555
Ca22 O43 2.510819 1_555
Ca22 O71 2.729395 1_555
Ca22 O7 2.822525 1_555
Ca22 O26 2.830825 1_555
Ca22 O66 2.955923 1_455
Ca23 O37 2.297992 1_555
Ca23 O71 2.366332 1_555
Ca23 O16 2.392003 1_555
Ca23 O65 2.486858 1_555
Ca23 O67 2.595646 1_555
Ca23 O48 2.728476 1_555
Ca23 O27 2.746231 1_555
Ca23 O0 2.970753 1_555
Ca23 O8 3.168998 1_555
Ca24 O72 2.338923 1_555
Ca24 O38 2.374705 1_555
Ca24 O9 2.379629 1_555
Ca24 O17 2.402439 1_555
Ca24 O32 2.597028 1_545
Ca24 O1 2.705103 1_555
Ca24 O53 2.906982 1_545
Ca25 O39 2.337907 1_555
Ca25 O10 2.346683 1_555
Ca25 O73 2.380457 1_555
Ca25 O18 2.469012 1_555
Ca25 O63 2.488476 1_555
Ca25 O33 2.558187 1_545
Ca25 O44 2.943304 1_555
Ca26 O19 2.346827 1_555
Ca26 O74 2.368752 1_555
Ca26 O40 2.400818 1_555
Ca26 O66 2.459863 1_555
Ca26 O45 2.491381 1_555
Ca26 O30 2.634035 1_555
Ca26 O11 2.717460 1_555
Ca26 O24 2.736145 1_555
Ca27 O75 2.349280 1_555
Ca27 O20 2.405289 1_555
Ca27 O67 2.457320 1_655
Ca27 O41 2.471156 1_555
Ca27 O46 2.578626 1_555
Ca27 O12 2.608554 1_555
Ca27 O25 2.683524 1_555
Ca27 O31 2.750308 1_555
Mn0 O57 1.853145 1_555
Mn0 O32 1.883198 1_455
Mn0 O34 1.914375 1_565
Mn0 O49 1.945264 1_555
Mn1 O33 1.914404 1_555
Mn1 O50 1.923234 1_655
Mn1 O44 1.953659 1_565
Mn1 O58 1.987663 1_655
Mn1 O35 1.988689 1_665
Mn2 O47 1.920559 1_655
Mn2 O45 1.923510 1_555
Mn2 O36 1.931084 1_655
Mn2 O30 1.937208 1_555
Mn2 O66 1.945719 1_555
Mn2 O55 1.962769 1_555
Mn3 O56 1.903076 1_555
Mn3 O67 1.952328 1_555
Mn3 O48 1.957300 1_555
Mn3 O46 1.969777 1_455
Mn3 O31 2.001488 1_455
Mn3 O37 2.249036 1_555
Mn4 O64 1.942992 1_555
Mn4 O40 1.961622 1_555
Mn4 O51 1.963984 1_555
Mn4 O43 1.964761 1_555
Mn4 O59 1.971142 1_555
Mn4 O26 1.984721 1_555
Mn5 O27 1.938262 1_555
Mn5 O41 1.952496 1_555
Mn5 O65 1.958595 1_555
Mn5 O60 1.985631 1_555
Mn5 O52 2.004887 1_555
Mn6 O42 1.948123 1_554
Mn6 O49 1.956548 1_545
Mn6 O35 1.972525 1_554
Mn6 O28 2.066302 1_555
Mn6 O79 2.240907 1_545
Mn6 O68 2.695811 1_555
Mn7 O48 1.938981 1_555
Mn7 O27 1.944166 1_555
Mn7 O36 1.957400 1_555
Mn7 O43 1.973741 1_555
Mn7 O71 2.104369 1_555
Mn7 O76 2.440243 1_555
Mn8 O53 1.911447 1_555
Mn8 O83 1.916934 1_554
Mn8 O44 1.920659 1_564
Mn8 O39 1.927531 1_564
Mn8 O72 1.942228 1_565
Mn8 O32 2.204109 1_555
Mn9 O73 1.886727 1_565
Mn9 O82 1.908138 1_555
Mn9 O54 1.919803 1_555
Mn9 O33 1.996501 1_555
Mn9 O38 2.611044 1_565
Mn10 O51 1.939748 1_555
Mn10 O30 1.940973 1_555
Mn10 O46 1.967361 1_554
Mn10 O74 1.989002 1_555
Mn10 O41 2.020334 1_554
Mn10 O81 2.110097 1_554
Mn11 O52 1.883834 1_555
Mn11 O80 1.943053 1_555
Mn11 O31 1.953202 1_555
Mn11 O45 1.987734 1_555
Mn11 O75 1.999748 1_555
Mn11 O40 2.059373 1_555
Mn12 O79 1.881196 1_556
Mn12 O8 1.883477 1_555
Mn12 O70 1.888333 1_556
Mn12 O16 1.899863 1_555
Mn13 O71 1.909067 1_555
Mn13 O0 1.978427 1_555
Mn13 O7 1.996167 1_555
Mn13 O78 2.046945 1_555
Mn13 O15 2.135891 1_555
Mn14 O18 1.933325 1_555
Mn14 O81 1.940289 1_555
Mn14 O72 1.950596 1_556
Mn14 O22 2.031622 1_556
Mn14 O10 2.166208 1_555
Mn15 O17 1.898333 1_555
Mn15 O23 1.992058 1_555
Mn15 O80 2.002883 1_555
Mn15 O9 2.017230 1_555
Mn15 O2 2.028215 1_555
Mn15 O73 2.084091 1_555
Mn16 O74 1.905172 1_555
Mn16 O20 1.910992 1_554
Mn16 O83 1.957943 1_554
Mn16 O12 1.974081 1_554
Mn16 O24 1.990169 1_555
Mn16 O3 2.043971 1_555
Mn17 O19 1.907835 1_555
Mn17 O75 1.919816 1_555
Mn17 O11 1.932771 1_555
Mn17 O25 1.993612 1_555
Mn17 O4 2.046801 1_555
Mn17 O82 2.112246 1_555
Mn18 O10 1.826614 1_555
Mn18 O56 1.891226 1_655
Mn18 O14 1.891779 1_655
Mn18 O23 1.896535 1_555
Mn19 O15 1.893952 1_555
Mn19 O24 1.944858 1_455
Mn19 O57 1.946974 1_555
Mn19 O66 1.950926 1_455
Mn19 O11 2.008612 1_455
Mn20 O58 1.878677 1_555
Mn20 O16 1.920834 1_555
Mn20 O12 1.953381 1_455
Mn20 O67 1.964382 1_555
Mn20 O25 1.997354 1_455
Mn20 O0 2.095687 1_555
Mn21 O21 1.909853 1_555
Mn21 O18 1.936745 1_555
Mn21 O2 1.947622 1_555
Mn21 O63 1.966427 1_555
Mn21 O6 1.969507 1_555
Mn21 O60 2.020685 1_555
Mn22 O61 1.938010 1_555
Mn22 O7 1.941852 1_555
Mn22 O64 1.942158 1_555
Mn22 O3 1.981398 1_555
Mn22 O19 2.002745 1_555
Mn23 O65 1.927360 1_555
Mn23 O4 1.943993 1_555
Mn23 O62 1.954960 1_555
Mn23 O8 1.973593 1_555
Mn23 O20 2.019830 1_555
Al0 O38 1.756428 1_565
Al0 O53 1.757038 1_555
Al0 O28 1.767940 1_565
Al0 O61 1.769525 1_555
Al1 O54 1.837822 1_555
Al1 O29 1.888793 1_555
Al1 O42 1.919295 1_565
Al1 O62 1.933158 1_555
Al1 O63 2.059652 1_565
Al1 O39 2.097908 1_565
Al2 O50 1.784817 1_545
Al2 O29 1.842607 1_545
Al2 O78 1.888060 1_545
Al2 O34 1.957494 1_555
Al2 O69 2.020591 1_555
Al3 O47 1.797992 1_555
Al3 O37 1.813103 1_554
Al3 O26 1.821417 1_555
Al3 O70 1.974331 1_555
Al3 O77 2.071299 1_554
Al4 O68 1.723508 1_556
Al4 O77 1.769942 1_555
Al4 O6 1.789867 1_555
Al4 O14 1.817138 1_555
Al5 O76 1.775624 1_555
Al5 O69 1.797099 1_555
Al5 O21 1.801114 1_555
Al5 O5 1.802999 1_555
Al6 O13 1.736558 1_655
Al6 O9 1.766882 1_555
Al6 O55 1.784241 1_555
Al6 O22 1.789907 1_555
Al7 O1 1.731966 1_555
Al7 O17 1.741061 1_555
Al7 O59 1.758751 1_555
Al7 O5 1.758996 1_555
O1 Sr1 2.611185 1_555
O5 Sr3 2.482096 1_555
O5 Sr2 2.921934 1_555
O6 Sr1 2.700386 1_556
O9 Sr0 2.495314 1_655
O12 O16 2.682926 1_655
O12 O24 2.709757 1_556
O13 Sr3 2.346578 1_555
O13 Sr0 2.667047 1_555
O13 Sr2 2.685965 1_555
O18 Sr1 2.952748 1_556
O23 Sr0 2.552829 1_655
O26 Sr2 2.647682 1_555
O26 Sr1 2.686018 1_555
O26 O51 2.687898 1_555
O27 O65 2.652680 1_555
O28 Sr3 2.432329 1_555
O30 O55 2.624826 1_555
O33 Sr0 3.219726 1_665
O34 Sr3 2.506743 1_555
O34 Sr0 2.596714 1_555
O36 Sr2 2.534463 1_555
O43 Sr2 3.077013 1_555
O47 Sr2 2.698234 1_555
O49 Sr3 3.011411 1_565
O50 Sr0 2.766898 1_565
O51 Sr1 2.499974 1_555
O55 Sr2 2.711315 1_655
O59 Sr1 2.912041 1_555
O59 Sr2 3.053360 1_555
O60 Sr1 2.462539 1_556
O68 Sr3 2.360519 1_555
O69 Sr0 2.531709 1_555
O69 Sr3 3.032004 1_555
O73 Sr0 2.863391 1_655
O76 Sr2 2.607926 1_555
O77 Sr1 2.772212 1_556
O77 Sr2 2.963520 1_556
O81 Sr1 2.899487 1_556
