# generated using pymatgen
data_Sm4Mg(Mo2O7)2
_symmetry_space_group_name_H-M   'P 1'
_cell_length_a   7.60336457
_cell_length_b   7.62955286
_cell_length_c   7.60386334
_cell_angle_alpha   59.88477011
_cell_angle_beta   59.53220380
_cell_angle_gamma   59.89483098
_symmetry_Int_Tables_number   1
_chemical_formula_structural   Sm4Mg(Mo2O7)2
_chemical_formula_sum   'Sm4 Mg1 Mo4 O14'
_cell_volume   310.27368300
_cell_formula_units_Z   1
loop_
 _symmetry_equiv_pos_site_id
 _symmetry_equiv_pos_as_xyz
  1  'x, y, z'
loop_
 _atom_site_type_symbol
 _atom_site_label
 _atom_site_symmetry_multiplicity
 _atom_site_fract_x
 _atom_site_fract_y
 _atom_site_fract_z
 _atom_site_occupancy
  Sm  Sm0  1  0.49842000  0.00456500  0.49726300  1
  Sm  Sm1  1  0.49731000  0.49953900  0.49856900  1
  Sm  Sm2  1  0.49082900  0.50449400  0.00054100  1
  Sm  Sm3  1  0.00048800  0.50441900  0.49053400  1
  Mg  Mg0  1  0.13225400  0.11780900  0.13212700  1
  Mo  Mo0  1  0.99145700  0.99511800  0.99122600  1
  Mo  Mo1  1  0.98728800  0.99074000  0.53113400  1
  Mo  Mo2  1  0.53123400  0.99078100  0.98729500  1
  Mo  Mo3  1  0.99130400  0.52217900  0.99140000  1
  O  O0  1  0.64624400  0.10385400  0.64625400  1
  O  O1  1  0.07951300  0.65432600  0.66821800  1
  O  O2  1  0.93149800  0.33179100  0.32304000  1
  O  O3  1  0.66831400  0.65443400  0.07950200  1
  O  O4  1  0.37238700  0.37750500  0.37253300  1
  O  O5  1  0.93236200  0.31748000  0.93261300  1
  O  O6  1  0.07926900  0.09786700  0.66839300  1
  O  O7  1  0.32315900  0.91368100  0.93135900  1
  O  O8  1  0.32340300  0.33206900  0.93069300  1
  O  O9  1  0.08753600  0.66263800  0.08729500  1
  O  O10  1  0.62422000  0.62573600  0.62425000  1
  O  O11  1  0.33757500  0.91239400  0.33760000  1
  O  O12  1  0.93078900  0.91366400  0.32342300  1
  O  O13  1  0.66814600  0.09791700  0.07973700  1
loop_
_geom_bond_atom_site_label_1
_geom_bond_atom_site_label_2
_geom_bond_distance
_geom_bond_site_symmetry_2
Mg0 O5 2.151423 1_454
Mg0 O2 2.175739 1_455
Mg0 O7 2.175739 1_544
Mg0 O8 2.178056 1_554
Mg0 O12 2.179122 1_445
Mg0 O11 2.212765 1_545
Mg0 Mo2 2.467479 1_544
Mg0 Mo1 2.467577 1_445
Mo0 O6 2.004534 1_665
Mo0 O13 2.007197 1_566
Mo0 O9 2.079593 1_656
Mo0 O5 2.108094 1_565
Mo0 O7 2.121687 1_655
Mo0 O12 2.123738 1_556
Mo1 O6 2.101456 1_665
Mo1 O1 2.101688 1_655
Mo1 O0 2.108630 1_565
Mo1 O2 2.212732 1_565
Mo1 O12 2.213225 1_555
Mo1 O11 2.219760 1_655
Mo2 O3 2.101337 1_556
Mo2 O13 2.101934 1_566
Mo2 O0 2.108537 1_565
Mo2 O7 2.212900 1_555
Mo2 O8 2.213559 1_565
Mo2 O11 2.219980 1_556
Mo3 O3 2.005492 1_556
Mo3 O1 2.006482 1_655
Mo3 O9 2.080204 1_656
Mo3 O5 2.108461 1_555
Mo3 O2 2.121300 1_556
Mo3 O8 2.123341 1_655
O0 Sm1 2.472921 1_555
O0 Sm0 2.475331 1_555
O0 O8 2.800432 1_555
O0 O12 2.802043 1_545
O0 O2 2.803183 1_555
O0 O7 2.803225 1_545
O0 O4 2.949559 1_555
O1 Sm3 2.560833 1_555
O1 Sm1 2.599913 1_555
O1 O5 2.705023 1_455
O1 O12 2.761122 1_455
O1 O8 2.778920 1_555
O1 O11 2.820097 1_555
O2 Sm3 2.585681 1_655
O2 O9 2.701760 1_655
O2 Sm1 2.706499 1_555
O2 O6 2.760624 1_655
O2 O3 2.781223 1_555
O3 Sm2 2.559272 1_555
O3 Sm1 2.608076 1_555
O3 O5 2.704980 1_554
O3 O7 2.761001 1_554
O4 Sm3 2.300132 1_555
O4 Sm2 2.300556 1_555
O4 Sm0 2.322125 1_555
O4 Sm1 2.322331 1_555
O5 O6 2.704871 1_655
O5 Sm2 2.783663 1_556
O5 Sm3 2.786851 1_655
O6 Sm3 2.560693 1_555
O6 Sm0 2.608605 1_555
O6 O7 2.781751 1_545
O7 Sm2 2.586077 1_556
O7 O9 2.700586 1_556
O7 Sm0 2.705818 1_565
O8 Sm2 2.588433 1_556
O8 Sm1 2.693214 1_555
O8 O9 2.702914 1_556
O9 Sm3 2.515149 1_555
O9 Sm2 2.515849 1_555
O10 Sm3 2.326657 1_655
O10 Sm2 2.326685 1_556
O10 Sm1 2.358383 1_555
O10 Sm0 2.358765 1_565
O10 O11 3.088085 1_555
O11 Sm0 2.586360 1_565
O11 Sm1 2.587657 1_555
O11 O13 2.819874 1_565
O11 O3 2.820459 1_555
O11 O6 2.821425 1_565
O12 Sm3 2.585770 1_655
O12 Sm0 2.694728 1_565
O12 O9 2.702417 1_655
O12 O13 2.778476 1_565
O13 Sm2 2.560489 1_555
O13 Sm0 2.598109 1_555
O13 O5 2.703668 1_554
O13 O8 2.762224 1_554
