# generated using pymatgen
data_Mg2Si3
_symmetry_space_group_name_H-M   'P 1'
_cell_length_a   12.08289179
_cell_length_b   12.08289179
_cell_length_c   35.99530265
_cell_angle_alpha   85.27716389
_cell_angle_beta   85.27716389
_cell_angle_gamma   34.40144578
_symmetry_Int_Tables_number   1
_chemical_formula_structural   Mg2Si3
_chemical_formula_sum   'Mg64 Si96'
_cell_volume   2958.06368273
_cell_formula_units_Z   32
loop_
 _symmetry_equiv_pos_site_id
 _symmetry_equiv_pos_as_xyz
  1  'x, y, z'
loop_
 _atom_site_type_symbol
 _atom_site_label
 _atom_site_symmetry_multiplicity
 _atom_site_fract_x
 _atom_site_fract_y
 _atom_site_fract_z
 _atom_site_occupancy
  Mg  Mg0_0  1  0.45709100  0.45709100  0.39845050  1
  Mg  Mg0_1  1  0.45709100  0.45709100  0.89845050  1
  Mg  Mg0_2  1  0.45709100  0.95709100  0.39845050  1
  Mg  Mg0_3  1  0.45709100  0.95709100  0.89845050  1
  Mg  Mg0_4  1  0.95709100  0.45709100  0.39845050  1
  Mg  Mg0_5  1  0.95709100  0.45709100  0.89845050  1
  Mg  Mg0_6  1  0.95709100  0.95709100  0.39845050  1
  Mg  Mg0_7  1  0.95709100  0.95709100  0.89845050  1
  Mg  Mg1_0  1  0.49152500  0.49152500  0.10485250  1
  Mg  Mg1_1  1  0.49152500  0.49152500  0.60485250  1
  Mg  Mg1_2  1  0.49152500  0.99152500  0.10485250  1
  Mg  Mg1_3  1  0.49152500  0.99152500  0.60485250  1
  Mg  Mg1_4  1  0.99152500  0.49152500  0.10485250  1
  Mg  Mg1_5  1  0.99152500  0.49152500  0.60485250  1
  Mg  Mg1_6  1  0.99152500  0.99152500  0.10485250  1
  Mg  Mg1_7  1  0.99152500  0.99152500  0.60485250  1
  Mg  Mg2_0  1  0.26476550  0.26476550  0.47592600  1
  Mg  Mg2_1  1  0.26476550  0.26476550  0.97592600  1
  Mg  Mg2_2  1  0.26476550  0.76476550  0.47592600  1
  Mg  Mg2_3  1  0.26476550  0.76476550  0.97592600  1
  Mg  Mg2_4  1  0.76476550  0.26476550  0.47592600  1
  Mg  Mg2_5  1  0.76476550  0.26476550  0.97592600  1
  Mg  Mg2_6  1  0.76476550  0.76476550  0.47592600  1
  Mg  Mg2_7  1  0.76476550  0.76476550  0.97592600  1
  Mg  Mg3_0  1  0.43143500  0.43143500  0.03046900  1
  Mg  Mg3_1  1  0.43143500  0.43143500  0.53046900  1
  Mg  Mg3_2  1  0.43143500  0.93143500  0.03046900  1
  Mg  Mg3_3  1  0.43143500  0.93143500  0.53046900  1
  Mg  Mg3_4  1  0.93143500  0.43143500  0.03046900  1
  Mg  Mg3_5  1  0.93143500  0.43143500  0.53046900  1
  Mg  Mg3_6  1  0.93143500  0.93143500  0.03046900  1
  Mg  Mg3_7  1  0.93143500  0.93143500  0.53046900  1
  Mg  Mg4_0  1  0.33147050  0.33147050  0.14813700  1
  Mg  Mg4_1  1  0.33147050  0.33147050  0.64813700  1
  Mg  Mg4_2  1  0.33147050  0.83147050  0.14813700  1
  Mg  Mg4_3  1  0.33147050  0.83147050  0.64813700  1
  Mg  Mg4_4  1  0.83147050  0.33147050  0.14813700  1
  Mg  Mg4_5  1  0.83147050  0.33147050  0.64813700  1
  Mg  Mg4_6  1  0.83147050  0.83147050  0.14813700  1
  Mg  Mg4_7  1  0.83147050  0.83147050  0.64813700  1
  Mg  Mg5_0  1  0.12599200  0.12599200  0.34661500  1
  Mg  Mg5_1  1  0.12599200  0.12599200  0.84661500  1
  Mg  Mg5_2  1  0.12599200  0.62599200  0.34661500  1
  Mg  Mg5_3  1  0.12599200  0.62599200  0.84661500  1
  Mg  Mg5_4  1  0.62599200  0.12599200  0.34661500  1
  Mg  Mg5_5  1  0.62599200  0.12599200  0.84661500  1
  Mg  Mg5_6  1  0.62599200  0.62599200  0.34661500  1
  Mg  Mg5_7  1  0.62599200  0.62599200  0.84661500  1
  Mg  Mg6_0  1  0.39249900  0.39249900  0.22191500  1
  Mg  Mg6_1  1  0.39249900  0.39249900  0.72191500  1
  Mg  Mg6_2  1  0.39249900  0.89249900  0.22191500  1
  Mg  Mg6_3  1  0.39249900  0.89249900  0.72191500  1
  Mg  Mg6_4  1  0.89249900  0.39249900  0.22191500  1
  Mg  Mg6_5  1  0.89249900  0.39249900  0.72191500  1
  Mg  Mg6_6  1  0.89249900  0.89249900  0.22191500  1
  Mg  Mg6_7  1  0.89249900  0.89249900  0.72191500  1
  Mg  Mg7_0  1  0.06347600  0.06347600  0.27536600  1
  Mg  Mg7_1  1  0.06347600  0.06347600  0.77536600  1
  Mg  Mg7_2  1  0.06347600  0.56347600  0.27536600  1
  Mg  Mg7_3  1  0.06347600  0.56347600  0.77536600  1
  Mg  Mg7_4  1  0.56347600  0.06347600  0.27536600  1
  Mg  Mg7_5  1  0.56347600  0.06347600  0.77536600  1
  Mg  Mg7_6  1  0.56347600  0.56347600  0.27536600  1
  Mg  Mg7_7  1  0.56347600  0.56347600  0.77536600  1
  Si  Si0_0  1  0.13525450  0.13525450  0.48313500  1
  Si  Si0_1  1  0.13525450  0.13525450  0.98313500  1
  Si  Si0_2  1  0.13525450  0.63525450  0.48313500  1
  Si  Si0_3  1  0.13525450  0.63525450  0.98313500  1
  Si  Si0_4  1  0.63525450  0.13525450  0.48313500  1
  Si  Si0_5  1  0.63525450  0.13525450  0.98313500  1
  Si  Si0_6  1  0.63525450  0.63525450  0.48313500  1
  Si  Si0_7  1  0.63525450  0.63525450  0.98313500  1
  Si  Si1_0  1  0.05186250  0.05186250  0.02869500  1
  Si  Si1_1  1  0.05186250  0.05186250  0.52869500  1
  Si  Si1_2  1  0.05186250  0.55186250  0.02869500  1
  Si  Si1_3  1  0.05186250  0.55186250  0.52869500  1
  Si  Si1_4  1  0.55186250  0.05186250  0.02869500  1
  Si  Si1_5  1  0.55186250  0.05186250  0.52869500  1
  Si  Si1_6  1  0.55186250  0.55186250  0.02869500  1
  Si  Si1_7  1  0.55186250  0.55186250  0.52869500  1
  Si  Si2_0  1  0.11458700  0.11458700  0.42082250  1
  Si  Si2_1  1  0.11458700  0.11458700  0.92082250  1
  Si  Si2_2  1  0.11458700  0.61458700  0.42082250  1
  Si  Si2_3  1  0.11458700  0.61458700  0.92082250  1
  Si  Si2_4  1  0.61458700  0.11458700  0.42082250  1
  Si  Si2_5  1  0.61458700  0.11458700  0.92082250  1
  Si  Si2_6  1  0.61458700  0.61458700  0.42082250  1
  Si  Si2_7  1  0.61458700  0.61458700  0.92082250  1
  Si  Si3_0  1  0.32611850  0.32611850  0.07308000  1
  Si  Si3_1  1  0.32611850  0.32611850  0.57308000  1
  Si  Si3_2  1  0.32611850  0.82611850  0.07308000  1
  Si  Si3_3  1  0.32611850  0.82611850  0.57308000  1
  Si  Si3_4  1  0.82611850  0.32611850  0.07308000  1
  Si  Si3_5  1  0.82611850  0.32611850  0.57308000  1
  Si  Si3_6  1  0.82611850  0.82611850  0.07308000  1
  Si  Si3_7  1  0.82611850  0.82611850  0.57308000  1
  Si  Si4_0  1  0.17610000  0.17610000  0.15910300  1
  Si  Si4_1  1  0.17610000  0.17610000  0.65910300  1
  Si  Si4_2  1  0.17610000  0.67610000  0.15910300  1
  Si  Si4_3  1  0.17610000  0.67610000  0.65910300  1
  Si  Si4_4  1  0.67610000  0.17610000  0.15910300  1
  Si  Si4_5  1  0.67610000  0.17610000  0.65910300  1
  Si  Si4_6  1  0.67610000  0.67610000  0.15910300  1
  Si  Si4_7  1  0.67610000  0.67610000  0.65910300  1
  Si  Si5_0  1  0.28026100  0.28026100  0.33843400  1
  Si  Si5_1  1  0.28026100  0.28026100  0.83843400  1
  Si  Si5_2  1  0.28026100  0.78026100  0.33843400  1
  Si  Si5_3  1  0.28026100  0.78026100  0.83843400  1
  Si  Si5_4  1  0.78026100  0.28026100  0.33843400  1
  Si  Si5_5  1  0.78026100  0.28026100  0.83843400  1
  Si  Si5_6  1  0.78026100  0.78026100  0.33843400  1
  Si  Si5_7  1  0.78026100  0.78026100  0.83843400  1
  Si  Si6_0  1  0.26916950  0.26916950  0.22426400  1
  Si  Si6_1  1  0.26916950  0.26916950  0.72426400  1
  Si  Si6_2  1  0.26916950  0.76916950  0.22426400  1
  Si  Si6_3  1  0.26916950  0.76916950  0.72426400  1
  Si  Si6_4  1  0.76916950  0.26916950  0.22426400  1
  Si  Si6_5  1  0.76916950  0.26916950  0.72426400  1
  Si  Si6_6  1  0.76916950  0.76916950  0.22426400  1
  Si  Si6_7  1  0.76916950  0.76916950  0.72426400  1
  Si  Si7_0  1  0.18762450  0.18762450  0.27409450  1
  Si  Si7_1  1  0.18762450  0.18762450  0.77409450  1
  Si  Si7_2  1  0.18762450  0.68762450  0.27409450  1
  Si  Si7_3  1  0.18762450  0.68762450  0.77409450  1
  Si  Si7_4  1  0.68762450  0.18762450  0.27409450  1
  Si  Si7_5  1  0.68762450  0.18762450  0.77409450  1
  Si  Si7_6  1  0.68762450  0.68762450  0.27409450  1
  Si  Si7_7  1  0.68762450  0.68762450  0.77409450  1
  Si  Si8_0  1  0.49728650  0.49728650  0.18023300  1
  Si  Si8_1  1  0.49728650  0.49728650  0.68023300  1
  Si  Si8_2  1  0.49728650  0.99728650  0.18023300  1
  Si  Si8_3  1  0.49728650  0.99728650  0.68023300  1
  Si  Si8_4  1  0.99728650  0.49728650  0.18023300  1
  Si  Si8_5  1  0.99728650  0.49728650  0.68023300  1
  Si  Si8_6  1  0.99728650  0.99728650  0.18023300  1
  Si  Si8_7  1  0.99728650  0.99728650  0.68023300  1
  Si  Si9_0  1  0.46087600  0.46087600  0.31948100  1
  Si  Si9_1  1  0.46087600  0.46087600  0.81948100  1
  Si  Si9_2  1  0.46087600  0.96087600  0.31948100  1
  Si  Si9_3  1  0.46087600  0.96087600  0.81948100  1
  Si  Si9_4  1  0.96087600  0.46087600  0.31948100  1
  Si  Si9_5  1  0.96087600  0.46087600  0.81948100  1
  Si  Si9_6  1  0.96087600  0.96087600  0.31948100  1
  Si  Si9_7  1  0.96087600  0.96087600  0.81948100  1
  Si  Si10_0  1  0.30353900  0.30353900  0.40337200  1
  Si  Si10_1  1  0.30353900  0.30353900  0.90337200  1
  Si  Si10_2  1  0.30353900  0.80353900  0.40337200  1
  Si  Si10_3  1  0.30353900  0.80353900  0.90337200  1
  Si  Si10_4  1  0.80353900  0.30353900  0.40337200  1
  Si  Si10_5  1  0.80353900  0.30353900  0.90337200  1
  Si  Si10_6  1  0.80353900  0.80353900  0.40337200  1
  Si  Si10_7  1  0.80353900  0.80353900  0.90337200  1
  Si  Si11_0  1  0.14667700  0.14667700  0.09357000  1
  Si  Si11_1  1  0.14667700  0.14667700  0.59357000  1
  Si  Si11_2  1  0.14667700  0.64667700  0.09357000  1
  Si  Si11_3  1  0.14667700  0.64667700  0.59357000  1
  Si  Si11_4  1  0.64667700  0.14667700  0.09357000  1
  Si  Si11_5  1  0.64667700  0.14667700  0.59357000  1
  Si  Si11_6  1  0.64667700  0.64667700  0.09357000  1
  Si  Si11_7  1  0.64667700  0.64667700  0.59357000  1
loop_
_geom_bond_atom_site_label_1
_geom_bond_atom_site_label_2
_geom_bond_distance
_geom_bond_site_symmetry_2
Mg0_0 Si9_0 2.836336 1_555
Mg0_0 Si2_4 2.846763 1_555
Mg0_0 Si2_2 2.846763 1_555
Mg0_0 Si10_2 2.872025 1_555
Mg0_0 Si10_4 2.872025 1_555
Mg0_0 Si5_2 3.175363 1_555
Mg0_0 Si5_4 3.175363 1_555
Mg0_0 Mg5_4 3.283346 1_555
Mg0_0 Mg5_2 3.283346 1_555
Mg0_0 Mg2_2 3.658103 1_555
Mg0_0 Mg2_4 3.658103 1_555
Mg0_1 Si9_1 2.836336 1_555
Mg0_1 Si2_5 2.846763 1_555
Mg0_1 Si2_3 2.846763 1_555
Mg0_1 Si10_3 2.872025 1_555
Mg0_1 Si10_5 2.872025 1_555
Mg0_1 Si5_5 3.175363 1_555
Mg0_1 Si5_3 3.175363 1_555
Mg0_1 Mg5_5 3.283346 1_555
Mg0_1 Mg5_3 3.283346 1_555
Mg0_1 Mg2_3 3.658103 1_555
Mg0_1 Mg2_5 3.658103 1_555
Mg0_2 Si9_2 2.836336 1_555
Mg0_2 Si2_0 2.846763 1_565
Mg0_2 Si2_6 2.846763 1_555
Mg0_2 Si10_6 2.872025 1_555
Mg0_2 Si10_0 2.872025 1_565
Mg0_2 Si5_0 3.175363 1_565
Mg0_2 Si5_6 3.175363 1_555
Mg0_2 Mg5_0 3.283346 1_565
Mg0_2 Mg5_6 3.283346 1_555
Mg0_2 Mg2_6 3.658103 1_555
Mg0_2 Mg2_0 3.658103 1_565
Mg0_3 Si9_3 2.836336 1_555
Mg0_3 Si2_1 2.846763 1_565
Mg0_3 Si2_7 2.846763 1_555
Mg0_3 Si10_7 2.872025 1_555
Mg0_3 Si10_1 2.872025 1_565
Mg0_3 Si5_1 3.175363 1_565
Mg0_3 Si5_7 3.175363 1_555
Mg0_3 Mg5_1 3.283346 1_565
Mg0_3 Mg5_7 3.283346 1_555
Mg0_3 Mg2_7 3.658103 1_555
Mg0_3 Mg2_1 3.658103 1_565
Mg0_4 Si9_4 2.836336 1_555
Mg0_4 Si2_0 2.846763 1_655
Mg0_4 Si2_6 2.846763 1_555
Mg0_4 Si10_6 2.872025 1_555
Mg0_4 Si10_0 2.872025 1_655
Mg0_4 Si5_0 3.175363 1_655
Mg0_4 Si5_6 3.175363 1_555
Mg0_4 Mg5_0 3.283346 1_655
Mg0_4 Mg5_6 3.283346 1_555
Mg0_4 Mg2_6 3.658103 1_555
Mg0_4 Mg2_0 3.658103 1_655
Mg0_5 Si9_5 2.836336 1_555
Mg0_5 Si2_1 2.846763 1_655
Mg0_5 Si2_7 2.846763 1_555
Mg0_5 Si10_1 2.872025 1_655
Mg0_5 Si10_7 2.872025 1_555
Mg0_5 Si5_1 3.175363 1_655
Mg0_5 Si5_7 3.175363 1_555
Mg0_5 Mg5_1 3.283346 1_655
Mg0_5 Mg5_7 3.283346 1_555
Mg0_5 Mg2_7 3.658103 1_555
Mg0_5 Mg2_1 3.658103 1_655
Mg0_6 Si9_6 2.836336 1_555
Mg0_6 Si2_4 2.846763 1_565
Mg0_6 Si2_2 2.846763 1_655
Mg0_6 Si10_2 2.872025 1_655
Mg0_6 Si10_4 2.872025 1_565
Mg0_6 Si5_4 3.175363 1_565
Mg0_6 Si5_2 3.175363 1_655
Mg0_6 Mg5_4 3.283346 1_565
Mg0_6 Mg5_2 3.283346 1_655
Mg0_6 Mg2_2 3.658103 1_655
Mg0_6 Mg2_4 3.658103 1_565
Mg0_7 Si9_7 2.836336 1_555
Mg0_7 Si2_5 2.846763 1_565
Mg0_7 Si2_3 2.846763 1_655
Mg0_7 Si10_3 2.872025 1_655
Mg0_7 Si10_5 2.872025 1_565
Mg0_7 Si5_5 3.175363 1_565
Mg0_7 Si5_3 3.175363 1_655
Mg0_7 Mg5_5 3.283346 1_565
Mg0_7 Mg5_3 3.283346 1_655
Mg0_7 Mg2_3 3.658103 1_655
Mg0_7 Mg2_5 3.658103 1_565
Mg1_0 Si8_0 2.728028 1_555
Mg1_0 Si3_2 2.815741 1_555
Mg1_0 Si3_4 2.815741 1_555
Mg1_0 Si11_4 2.881711 1_555
Mg1_0 Si11_2 2.881711 1_555
Mg1_0 Si4_4 2.962742 1_555
Mg1_0 Si4_2 2.962742 1_555
Mg1_0 Si1_6 2.965927 1_555
Mg1_0 Mg3_0 3.119819 1_555
Mg1_0 Mg4_2 3.238580 1_555
Mg1_0 Mg4_4 3.238580 1_555
Mg1_1 Si8_1 2.728028 1_555
Mg1_1 Si3_3 2.815741 1_555
Mg1_1 Si3_5 2.815741 1_555
Mg1_1 Si11_5 2.881711 1_555
Mg1_1 Si11_3 2.881711 1_555
Mg1_1 Si4_5 2.962742 1_555
Mg1_1 Si4_3 2.962742 1_555
Mg1_1 Si1_7 2.965927 1_555
Mg1_1 Mg3_1 3.119819 1_555
Mg1_1 Mg4_3 3.238580 1_555
Mg1_1 Mg4_5 3.238580 1_555
Mg1_2 Si8_2 2.728028 1_555
Mg1_2 Si3_6 2.815741 1_555
Mg1_2 Si3_0 2.815741 1_565
Mg1_2 Si11_0 2.881711 1_565
Mg1_2 Si11_6 2.881711 1_555
Mg1_2 Si4_0 2.962742 1_565
Mg1_2 Si4_6 2.962742 1_555
Mg1_2 Si1_4 2.965927 1_565
Mg1_2 Mg3_2 3.119819 1_555
Mg1_2 Mg4_6 3.238580 1_555
Mg1_2 Mg4_0 3.238580 1_565
Mg1_3 Si8_3 2.728028 1_555
Mg1_3 Si3_1 2.815741 1_565
Mg1_3 Si3_7 2.815741 1_555
Mg1_3 Si11_7 2.881711 1_555
Mg1_3 Si11_1 2.881711 1_565
Mg1_3 Si4_1 2.962742 1_565
Mg1_3 Si4_7 2.962742 1_555
Mg1_3 Si1_5 2.965927 1_565
Mg1_3 Mg3_3 3.119819 1_555
Mg1_3 Mg4_7 3.238580 1_555
Mg1_3 Mg4_1 3.238580 1_565
Mg1_4 Si8_4 2.728028 1_555
Mg1_4 Si3_0 2.815741 1_655
Mg1_4 Si3_6 2.815741 1_555
Mg1_4 Si11_0 2.881711 1_655
Mg1_4 Si11_6 2.881711 1_555
Mg1_4 Si4_0 2.962742 1_655
Mg1_4 Si4_6 2.962742 1_555
Mg1_4 Si1_2 2.965927 1_655
Mg1_4 Mg3_4 3.119819 1_555
Mg1_4 Mg4_6 3.238580 1_555
Mg1_4 Mg4_0 3.238580 1_655
Mg1_5 Si8_5 2.728028 1_555
Mg1_5 Si3_1 2.815741 1_655
Mg1_5 Si3_7 2.815741 1_555
Mg1_5 Si11_7 2.881711 1_555
Mg1_5 Si11_1 2.881711 1_655
Mg1_5 Si4_7 2.962742 1_555
Mg1_5 Si4_1 2.962742 1_655
Mg1_5 Si1_3 2.965927 1_655
Mg1_5 Mg3_5 3.119819 1_555
Mg1_5 Mg4_7 3.238580 1_555
Mg1_5 Mg4_1 3.238580 1_655
Mg1_6 Si8_6 2.728028 1_555
Mg1_6 Si3_2 2.815741 1_655
Mg1_6 Si3_4 2.815741 1_565
Mg1_6 Si11_4 2.881711 1_565
Mg1_6 Si11_2 2.881711 1_655
Mg1_6 Si4_4 2.962742 1_565
Mg1_6 Si4_2 2.962742 1_655
Mg1_6 Si1_0 2.965927 1_665
Mg1_6 Mg3_6 3.119819 1_555
Mg1_6 Mg4_2 3.238580 1_655
Mg1_6 Mg4_4 3.238580 1_565
Mg1_7 Si8_7 2.728028 1_555
Mg1_7 Si3_3 2.815741 1_655
Mg1_7 Si3_5 2.815741 1_565
Mg1_7 Si11_5 2.881711 1_565
Mg1_7 Si11_3 2.881711 1_655
Mg1_7 Si4_3 2.962742 1_655
Mg1_7 Si4_5 2.962742 1_565
Mg1_7 Si1_1 2.965927 1_665
Mg1_7 Mg3_7 3.119819 1_555
Mg1_7 Mg4_3 3.238580 1_655
Mg1_7 Mg4_5 3.238580 1_565
Mg2_0 Si10_0 2.686762 1_555
Mg2_0 Si1_3 2.795266 1_555
Mg2_0 Si1_5 2.795266 1_555
Mg2_0 Si0_0 2.978631 1_555
Mg2_0 Mg3_5 3.177402 1_455
Mg2_0 Mg3_3 3.177402 1_545
Mg2_0 Si0_2 3.334706 1_555
Mg2_0 Si0_4 3.334706 1_555
Mg2_0 Mg2_6 3.573154 1_455
Mg2_0 Mg2_6 3.573154 1_545
Mg2_1 Si10_1 2.686762 1_555
Mg2_1 Si1_2 2.795266 1_556
Mg2_1 Si1_4 2.795266 1_556
Mg2_1 Si0_1 2.978631 1_555
Mg2_1 Mg3_4 3.177402 1_456
Mg2_1 Mg3_2 3.177402 1_546
Mg2_1 Si0_3 3.334706 1_555
Mg2_1 Si0_5 3.334706 1_555
Mg2_1 Mg2_7 3.573154 1_545
Mg2_1 Mg2_7 3.573154 1_455
Mg2_2 Si10_2 2.686762 1_555
Mg2_2 Si1_1 2.795266 1_565
Mg2_2 Si1_7 2.795266 1_555
Mg2_2 Si0_2 2.978631 1_555
Mg2_2 Mg3_1 3.177402 1_555
Mg2_2 Mg3_7 3.177402 1_455
Mg2_2 Si0_0 3.334706 1_565
Mg2_2 Si0_6 3.334706 1_555
Mg2_2 Mg2_4 3.573154 1_465
Mg2_2 Mg2_4 3.573154 1_555
Mg2_3 Si10_3 2.686762 1_555
Mg2_3 Si1_6 2.795266 1_556
Mg2_3 Si1_0 2.795266 1_566
Mg2_3 Si0_3 2.978631 1_555
Mg2_3 Mg3_0 3.177402 1_556
Mg2_3 Mg3_6 3.177402 1_456
Mg2_3 Si0_7 3.334706 1_555
Mg2_3 Si0_1 3.334706 1_565
Mg2_3 Mg2_5 3.573154 1_465
Mg2_3 Mg2_5 3.573154 1_555
Mg2_4 Si10_4 2.686762 1_555
Mg2_4 Si1_7 2.795266 1_555
Mg2_4 Si1_1 2.795266 1_655
Mg2_4 Si0_4 2.978631 1_555
Mg2_4 Mg3_1 3.177402 1_555
Mg2_4 Mg3_7 3.177402 1_545
Mg2_4 Si0_6 3.334706 1_555
Mg2_4 Si0_0 3.334706 1_655
Mg2_5 Si10_5 2.686762 1_555
Mg2_5 Si1_6 2.795266 1_556
Mg2_5 Si1_0 2.795266 1_656
Mg2_5 Si0_5 2.978631 1_555
Mg2_5 Mg3_0 3.177402 1_556
Mg2_5 Mg3_6 3.177402 1_546
Mg2_5 Si0_7 3.334706 1_555
Mg2_5 Si0_1 3.334706 1_655
Mg2_6 Si10_6 2.686762 1_555
Mg2_6 Si1_3 2.795266 1_655
Mg2_6 Si1_5 2.795266 1_565
Mg2_6 Si0_6 2.978631 1_555
Mg2_6 Mg3_5 3.177402 1_555
Mg2_6 Mg3_3 3.177402 1_555
Mg2_6 Si0_2 3.334706 1_655
Mg2_6 Si0_4 3.334706 1_565
Mg2_7 Si10_7 2.686762 1_555
Mg2_7 Si1_4 2.795266 1_566
Mg2_7 Si1_2 2.795266 1_656
Mg2_7 Si0_7 2.978631 1_555
Mg2_7 Mg3_4 3.177402 1_556
Mg2_7 Mg3_2 3.177402 1_556
Mg2_7 Si0_3 3.334706 1_655
Mg2_7 Si0_5 3.334706 1_565
Mg3_0 Si0_5 2.746711 1_554
Mg3_0 Si0_3 2.746711 1_554
Mg3_0 Si3_0 2.760541 1_555
Mg3_0 Si1_6 2.775290 1_555
Mg3_0 Si11_2 2.946269 1_555
Mg3_0 Si11_4 2.946269 1_555
Mg3_1 Si0_4 2.746711 1_555
Mg3_1 Si0_2 2.746711 1_555
Mg3_1 Si3_1 2.760541 1_555
Mg3_1 Si1_7 2.775290 1_555
Mg3_1 Si11_5 2.946269 1_555
Mg3_1 Si11_3 2.946269 1_555
Mg3_2 Si0_1 2.746711 1_564
Mg3_2 Si0_7 2.746711 1_554
Mg3_2 Si3_2 2.760541 1_555
Mg3_2 Si1_4 2.775290 1_565
Mg3_2 Si11_0 2.946269 1_565
Mg3_2 Si11_6 2.946269 1_555
Mg3_3 Si0_6 2.746711 1_555
Mg3_3 Si0_0 2.746711 1_565
Mg3_3 Si3_3 2.760541 1_555
Mg3_3 Si1_5 2.775290 1_565
Mg3_3 Si11_7 2.946269 1_555
Mg3_3 Si11_1 2.946269 1_565
Mg3_4 Si0_1 2.746711 1_654
Mg3_4 Si0_7 2.746711 1_554
Mg3_4 Si3_4 2.760541 1_555
Mg3_4 Si1_2 2.775290 1_655
Mg3_4 Si11_6 2.946269 1_555
Mg3_4 Si11_0 2.946269 1_655
Mg3_5 Si0_6 2.746711 1_555
Mg3_5 Si0_0 2.746711 1_655
Mg3_5 Si3_5 2.760541 1_555
Mg3_5 Si1_3 2.775290 1_655
Mg3_5 Si11_7 2.946269 1_555
Mg3_5 Si11_1 2.946269 1_655
Mg3_6 Si0_5 2.746711 1_564
Mg3_6 Si0_3 2.746711 1_654
Mg3_6 Si3_6 2.760541 1_555
Mg3_6 Si1_0 2.775290 1_665
Mg3_6 Si11_4 2.946269 1_565
Mg3_6 Si11_2 2.946269 1_655
Mg3_7 Si0_4 2.746711 1_565
Mg3_7 Si0_2 2.746711 1_655
Mg3_7 Si3_7 2.760541 1_555
Mg3_7 Si1_1 2.775290 1_665
Mg3_7 Si11_5 2.946269 1_565
Mg3_7 Si11_3 2.946269 1_655
Mg4_0 Si3_0 2.715140 1_555
Mg4_0 Si8_4 2.813592 1_455
Mg4_0 Si8_2 2.813592 1_545
Mg4_0 Si4_2 2.875487 1_555
Mg4_0 Si4_4 2.875487 1_555
Mg4_0 Si11_2 2.967490 1_555
Mg4_0 Si11_4 2.967490 1_555
Mg4_0 Si6_0 2.982932 1_555
Mg4_0 Mg6_0 3.111642 1_555
Mg4_1 Si3_1 2.715140 1_555
Mg4_1 Si8_5 2.813592 1_455
Mg4_1 Si8_3 2.813592 1_545
Mg4_1 Si4_3 2.875487 1_555
Mg4_1 Si4_5 2.875487 1_555
Mg4_1 Si11_3 2.967490 1_555
Mg4_1 Si11_5 2.967490 1_555
Mg4_1 Si6_1 2.982932 1_555
Mg4_1 Mg6_1 3.111642 1_555
Mg4_2 Si3_2 2.715140 1_555
Mg4_2 Si8_0 2.813592 1_555
Mg4_2 Si8_6 2.813592 1_455
Mg4_2 Si4_0 2.875487 1_565
Mg4_2 Si4_6 2.875487 1_555
Mg4_2 Si11_6 2.967490 1_555
Mg4_2 Si11_0 2.967490 1_565
Mg4_2 Si6_2 2.982932 1_555
Mg4_2 Mg6_2 3.111642 1_555
Mg4_3 Si3_3 2.715140 1_555
Mg4_3 Si8_1 2.813592 1_555
Mg4_3 Si8_7 2.813592 1_455
Mg4_3 Si4_1 2.875487 1_565
Mg4_3 Si4_7 2.875487 1_555
Mg4_3 Si11_1 2.967490 1_565
Mg4_3 Si11_7 2.967490 1_555
Mg4_3 Si6_3 2.982932 1_555
Mg4_3 Mg6_3 3.111642 1_555
Mg4_4 Si3_4 2.715140 1_555
Mg4_4 Si8_0 2.813592 1_555
Mg4_4 Si8_6 2.813592 1_545
Mg4_4 Si4_0 2.875487 1_655
Mg4_4 Si4_6 2.875487 1_555
Mg4_4 Si11_6 2.967490 1_555
Mg4_4 Si11_0 2.967490 1_655
Mg4_4 Si6_4 2.982932 1_555
Mg4_4 Mg6_4 3.111642 1_555
Mg4_5 Si3_5 2.715140 1_555
Mg4_5 Si8_1 2.813592 1_555
Mg4_5 Si8_7 2.813592 1_545
Mg4_5 Si4_1 2.875487 1_655
Mg4_5 Si4_7 2.875487 1_555
Mg4_5 Si11_1 2.967490 1_655
Mg4_5 Si11_7 2.967490 1_555
Mg4_5 Si6_5 2.982932 1_555
Mg4_5 Mg6_5 3.111642 1_555
Mg4_6 Si3_6 2.715140 1_555
Mg4_6 Si8_4 2.813592 1_555
Mg4_6 Si8_2 2.813592 1_555
Mg4_6 Si4_4 2.875487 1_565
Mg4_6 Si4_2 2.875487 1_655
Mg4_6 Si11_2 2.967490 1_655
Mg4_6 Si11_4 2.967490 1_565
Mg4_6 Si6_6 2.982932 1_555
Mg4_6 Mg6_6 3.111642 1_555
Mg4_7 Si3_7 2.715140 1_555
Mg4_7 Si8_5 2.813592 1_555
Mg4_7 Si8_3 2.813592 1_555
Mg4_7 Si4_5 2.875487 1_565
Mg4_7 Si4_3 2.875487 1_655
Mg4_7 Si11_5 2.967490 1_565
Mg4_7 Si11_3 2.967490 1_655
Mg4_7 Si6_7 2.982932 1_555
Mg4_7 Mg6_7 3.111642 1_555
Mg5_0 Si2_0 2.661387 1_555
Mg5_0 Si9_2 2.766891 1_545
Mg5_0 Si9_4 2.766891 1_455
Mg5_0 Si7_0 2.863260 1_555
Mg5_0 Si5_4 2.876564 1_455
Mg5_0 Si5_2 2.876564 1_545
Mg5_0 Mg7_0 3.049280 1_555
Mg5_0 Si10_4 3.094207 1_455
Mg5_0 Si10_2 3.094207 1_545
Mg5_1 Si2_1 2.661387 1_555
Mg5_1 Si9_3 2.766891 1_545
Mg5_1 Si9_5 2.766891 1_455
Mg5_1 Si7_1 2.863260 1_555
Mg5_1 Si5_3 2.876564 1_545
Mg5_1 Si5_5 2.876564 1_455
Mg5_1 Mg7_1 3.049280 1_555
Mg5_1 Si10_3 3.094207 1_545
Mg5_1 Si10_5 3.094207 1_455
Mg5_2 Si2_2 2.661387 1_555
Mg5_2 Si9_6 2.766891 1_455
Mg5_2 Si9_0 2.766891 1_555
Mg5_2 Si7_2 2.863260 1_555
Mg5_2 Si5_6 2.876564 1_455
Mg5_2 Si5_0 2.876564 1_555
Mg5_2 Mg7_2 3.049280 1_555
Mg5_2 Si10_0 3.094207 1_555
Mg5_2 Si10_6 3.094207 1_455
Mg5_3 Si2_3 2.661387 1_555
Mg5_3 Si9_7 2.766891 1_455
Mg5_3 Si9_1 2.766891 1_555
Mg5_3 Si7_3 2.863260 1_555
Mg5_3 Si5_1 2.876564 1_555
Mg5_3 Si5_7 2.876564 1_455
Mg5_3 Mg7_3 3.049280 1_555
Mg5_3 Si10_7 3.094207 1_455
Mg5_3 Si10_1 3.094207 1_555
Mg5_4 Si2_4 2.661387 1_555
Mg5_4 Si9_6 2.766891 1_545
Mg5_4 Si9_0 2.766891 1_555
Mg5_4 Si7_4 2.863260 1_555
Mg5_4 Si5_6 2.876564 1_545
Mg5_4 Si5_0 2.876564 1_555
Mg5_4 Mg7_4 3.049280 1_555
Mg5_4 Si10_0 3.094207 1_555
Mg5_4 Si10_6 3.094207 1_545
Mg5_5 Si2_5 2.661387 1_555
Mg5_5 Si9_7 2.766891 1_545
Mg5_5 Si9_1 2.766891 1_555
Mg5_5 Si7_5 2.863260 1_555
Mg5_5 Si5_7 2.876564 1_545
Mg5_5 Si5_1 2.876564 1_555
Mg5_5 Mg7_5 3.049280 1_555
Mg5_5 Si10_7 3.094207 1_545
Mg5_5 Si10_1 3.094207 1_555
Mg5_6 Si2_6 2.661387 1_555
Mg5_6 Si9_2 2.766891 1_555
Mg5_6 Si9_4 2.766891 1_555
Mg5_6 Si7_6 2.863260 1_555
Mg5_6 Si5_4 2.876564 1_555
Mg5_6 Si5_2 2.876564 1_555
Mg5_6 Mg7_6 3.049280 1_555
Mg5_6 Si10_4 3.094207 1_555
Mg5_6 Si10_2 3.094207 1_555
Mg5_7 Si2_7 2.661387 1_555
Mg5_7 Si9_5 2.766891 1_555
Mg5_7 Si9_3 2.766891 1_555
Mg5_7 Si7_7 2.863260 1_555
Mg5_7 Si5_3 2.876564 1_555
Mg5_7 Si5_5 2.876564 1_555
Mg5_7 Mg7_7 3.049280 1_555
Mg5_7 Si10_5 3.094207 1_555
Mg5_7 Si10_3 3.094207 1_555
Mg6_0 Si8_0 2.734422 1_555
Mg6_0 Si6_0 2.841018 1_555
Mg6_0 Si7_2 2.853422 1_555
Mg6_0 Si7_4 2.853422 1_555
Mg6_0 Si4_2 2.933096 1_555
Mg6_0 Si4_4 2.933096 1_555
Mg6_0 Mg7_4 3.101034 1_555
Mg6_0 Mg7_2 3.101034 1_555
Mg6_0 Mg6_6 3.573154 1_545
Mg6_0 Mg6_6 3.573154 1_455
Mg6_1 Si8_1 2.734422 1_555
Mg6_1 Si6_1 2.841018 1_555
Mg6_1 Si7_3 2.853422 1_555
Mg6_1 Si7_5 2.853422 1_555
Mg6_1 Si4_3 2.933096 1_555
Mg6_1 Si4_5 2.933096 1_555
Mg6_1 Mg7_5 3.101034 1_555
Mg6_1 Mg7_3 3.101034 1_555
Mg6_1 Mg6_7 3.573154 1_545
Mg6_1 Mg6_7 3.573154 1_455
Mg6_2 Si8_2 2.734422 1_555
Mg6_2 Si6_2 2.841018 1_555
Mg6_2 Si7_6 2.853422 1_555
Mg6_2 Si7_0 2.853422 1_565
Mg6_2 Si4_0 2.933096 1_565
Mg6_2 Si4_6 2.933096 1_555
Mg6_2 Mg7_0 3.101034 1_565
Mg6_2 Mg7_6 3.101034 1_555
Mg6_2 Mg6_4 3.573154 1_465
Mg6_2 Mg6_4 3.573154 1_555
Mg6_3 Si8_3 2.734422 1_555
Mg6_3 Si6_3 2.841018 1_555
Mg6_3 Si7_7 2.853422 1_555
Mg6_3 Si7_1 2.853422 1_565
Mg6_3 Si4_1 2.933096 1_565
Mg6_3 Si4_7 2.933096 1_555
Mg6_3 Mg7_1 3.101034 1_565
Mg6_3 Mg7_7 3.101034 1_555
Mg6_3 Mg6_5 3.573154 1_465
Mg6_3 Mg6_5 3.573154 1_555
Mg6_4 Si8_4 2.734422 1_555
Mg6_4 Si6_4 2.841018 1_555
Mg6_4 Si7_6 2.853422 1_555
Mg6_4 Si7_0 2.853422 1_655
Mg6_4 Si4_0 2.933096 1_655
Mg6_4 Si4_6 2.933096 1_555
Mg6_4 Mg7_0 3.101034 1_655
Mg6_4 Mg7_6 3.101034 1_555
Mg6_5 Si8_5 2.734422 1_555
Mg6_5 Si6_5 2.841018 1_555
Mg6_5 Si7_7 2.853422 1_555
Mg6_5 Si7_1 2.853422 1_655
Mg6_5 Si4_1 2.933096 1_655
Mg6_5 Si4_7 2.933096 1_555
Mg6_5 Mg7_1 3.101034 1_655
Mg6_5 Mg7_7 3.101034 1_555
Mg6_6 Si8_6 2.734422 1_555
Mg6_6 Si6_6 2.841018 1_555
Mg6_6 Si7_2 2.853422 1_655
Mg6_6 Si7_4 2.853422 1_565
Mg6_6 Si4_4 2.933096 1_565
Mg6_6 Si4_2 2.933096 1_655
Mg6_6 Mg7_4 3.101034 1_565
Mg6_6 Mg7_2 3.101034 1_655
Mg6_7 Si8_7 2.734422 1_555
Mg6_7 Si6_7 2.841018 1_555
Mg6_7 Si7_3 2.853422 1_655
Mg6_7 Si7_5 2.853422 1_565
Mg6_7 Si4_5 2.933096 1_565
Mg6_7 Si4_3 2.933096 1_655
Mg6_7 Mg7_5 3.101034 1_565
Mg6_7 Mg7_3 3.101034 1_655
Mg7_0 Si9_6 2.735520 1_445
Mg7_0 Si6_4 2.818835 1_455
Mg7_0 Si6_2 2.818835 1_545
Mg7_0 Si7_0 2.862382 1_555
Mg7_0 Si5_4 2.938251 1_455
Mg7_0 Si5_2 2.938251 1_545
Mg7_1 Si9_7 2.735520 1_445
Mg7_1 Si6_3 2.818835 1_545
Mg7_1 Si6_5 2.818835 1_455
Mg7_1 Si7_1 2.862382 1_555
Mg7_1 Si5_3 2.938251 1_545
Mg7_1 Si5_5 2.938251 1_455
Mg7_2 Si9_4 2.735520 1_455
Mg7_2 Si6_6 2.818835 1_455
Mg7_2 Si6_0 2.818835 1_555
Mg7_2 Si7_2 2.862382 1_555
Mg7_2 Si5_6 2.938251 1_455
Mg7_2 Si5_0 2.938251 1_555
Mg7_3 Si9_5 2.735520 1_455
Mg7_3 Si6_1 2.818835 1_555
Mg7_3 Si6_7 2.818835 1_455
Mg7_3 Si7_3 2.862382 1_555
Mg7_3 Si5_1 2.938251 1_555
Mg7_3 Si5_7 2.938251 1_455
Mg7_4 Si9_2 2.735520 1_545
Mg7_4 Si6_6 2.818835 1_545
Mg7_4 Si6_0 2.818835 1_555
Mg7_4 Si7_4 2.862382 1_555
Mg7_4 Si5_6 2.938251 1_545
Mg7_4 Si5_0 2.938251 1_555
Mg7_5 Si9_3 2.735520 1_545
Mg7_5 Si6_7 2.818835 1_545
Mg7_5 Si6_1 2.818835 1_555
Mg7_5 Si7_5 2.862382 1_555
Mg7_5 Si5_7 2.938251 1_545
Mg7_5 Si5_1 2.938251 1_555
Mg7_6 Si9_0 2.735520 1_555
Mg7_6 Si6_4 2.818835 1_555
Mg7_6 Si6_2 2.818835 1_555
Mg7_6 Si7_6 2.862382 1_555
Mg7_6 Si5_4 2.938251 1_555
Mg7_6 Si5_2 2.938251 1_555
Mg7_7 Si9_1 2.735520 1_555
Mg7_7 Si6_5 2.818835 1_555
Mg7_7 Si6_3 2.818835 1_555
Mg7_7 Si7_7 2.862382 1_555
Mg7_7 Si5_5 2.938251 1_555
Mg7_7 Si5_3 2.938251 1_555
Si0_0 Si2_0 2.333015 1_555
Si0_0 Si1_1 2.418929 1_555
Si0_1 Si2_1 2.333015 1_555
Si0_1 Si1_0 2.418929 1_556
Si0_2 Si2_2 2.333015 1_555
Si0_2 Si1_3 2.418929 1_555
Si0_3 Si2_3 2.333015 1_555
Si0_3 Si1_2 2.418929 1_556
Si0_4 Si2_4 2.333015 1_555
Si0_4 Si1_5 2.418929 1_555
Si0_5 Si2_5 2.333015 1_555
Si0_5 Si1_4 2.418929 1_556
Si0_6 Si2_6 2.333015 1_555
Si0_6 Si1_7 2.418929 1_555
Si0_7 Si2_7 2.333015 1_555
Si0_7 Si1_6 2.418929 1_556
Si1_0 Si3_2 2.492409 1_545
Si1_0 Si3_4 2.492409 1_455
Si1_1 Si3_3 2.492409 1_545
Si1_1 Si3_5 2.492409 1_455
Si1_2 Si3_0 2.492409 1_555
Si1_2 Si3_6 2.492409 1_455
Si1_3 Si3_1 2.492409 1_555
Si1_3 Si3_7 2.492409 1_455
Si1_4 Si3_0 2.492409 1_555
Si1_4 Si3_6 2.492409 1_545
Si1_5 Si3_7 2.492409 1_545
Si1_5 Si3_1 2.492409 1_555
Si1_6 Si3_2 2.492409 1_555
Si1_6 Si3_4 2.492409 1_555
Si1_7 Si3_3 2.492409 1_555
Si1_7 Si3_5 2.492409 1_555
Si4_0 Si8_2 2.585799 1_545
Si4_0 Si8_4 2.585799 1_455
Si4_1 Si8_3 2.585799 1_545
Si4_1 Si8_5 2.585799 1_455
Si4_2 Si8_6 2.585799 1_455
Si4_2 Si8_0 2.585799 1_555
Si4_3 Si8_7 2.585799 1_455
Si4_3 Si8_1 2.585799 1_555
Si4_4 Si8_6 2.585799 1_545
Si4_4 Si8_0 2.585799 1_555
Si4_5 Si8_7 2.585799 1_545
Si4_5 Si8_1 2.585799 1_555
Si4_6 Si8_2 2.585799 1_555
Si4_6 Si8_4 2.585799 1_555
Si4_7 Si8_3 2.585799 1_555
Si4_7 Si8_5 2.585799 1_555
Si5_0 Si9_4 2.532045 1_455
Si5_0 Si9_2 2.532045 1_545
Si5_1 Si9_3 2.532045 1_545
Si5_1 Si9_5 2.532045 1_455
Si5_2 Si9_6 2.532045 1_455
Si5_2 Si9_0 2.532045 1_555
Si5_3 Si9_7 2.532045 1_455
Si5_3 Si9_1 2.532045 1_555
Si5_4 Si9_6 2.532045 1_545
Si5_4 Si9_0 2.532045 1_555
Si5_5 Si9_1 2.532045 1_555
Si5_5 Si9_7 2.532045 1_545
Si5_6 Si9_4 2.532045 1_555
Si5_6 Si9_2 2.532045 1_555
Si5_7 Si9_5 2.532045 1_555
Si5_7 Si9_3 2.532045 1_555
Si6_0 Si8_2 2.469212 1_545
Si6_0 Si8_4 2.469212 1_455
Si6_0 Si7_0 2.485729 1_555
Si6_1 Si8_5 2.469212 1_455
Si6_1 Si8_3 2.469212 1_545
Si6_1 Si7_1 2.485729 1_555
Si6_2 Si8_0 2.469212 1_555
Si6_2 Si8_6 2.469212 1_455
Si6_2 Si7_2 2.485729 1_555
Si6_3 Si8_1 2.469212 1_555
Si6_3 Si8_7 2.469212 1_455
Si6_3 Si7_3 2.485729 1_555
Si6_4 Si8_6 2.469212 1_545
Si6_4 Si8_0 2.469212 1_555
Si6_4 Si7_4 2.485729 1_555
Si6_5 Si8_1 2.469212 1_555
Si6_5 Si8_7 2.469212 1_545
Si6_5 Si7_5 2.485729 1_555
Si6_6 Si8_4 2.469212 1_555
Si6_6 Si8_2 2.469212 1_555
Si6_6 Si7_6 2.485729 1_555
Si6_7 Si8_5 2.469212 1_555
Si6_7 Si8_3 2.469212 1_555
Si6_7 Si7_7 2.485729 1_555
Si7_0 Si9_2 2.510002 1_545
Si7_0 Si9_4 2.510002 1_455
Si7_1 Si9_3 2.510002 1_545
Si7_1 Si9_5 2.510002 1_455
Si7_2 Si9_6 2.510002 1_455
Si7_2 Si9_0 2.510002 1_555
Si7_3 Si9_7 2.510002 1_455
Si7_3 Si9_1 2.510002 1_555
Si7_4 Si9_0 2.510002 1_555
Si7_4 Si9_6 2.510002 1_545
Si7_5 Si9_7 2.510002 1_545
Si7_5 Si9_1 2.510002 1_555
Si7_6 Si9_2 2.510002 1_555
Si7_6 Si9_4 2.510002 1_555
Si7_7 Si9_5 2.510002 1_555
Si7_7 Si9_3 2.510002 1_555
Si10_0 Si2_2 2.392720 1_555
Si10_0 Si2_4 2.392720 1_555
Si10_0 Si5_0 2.443159 1_555
Si10_1 Si2_3 2.392720 1_555
Si10_1 Si2_5 2.392720 1_555
Si10_1 Si5_1 2.443159 1_555
Si10_2 Si2_6 2.392720 1_555
Si10_2 Si2_0 2.392720 1_565
Si10_2 Si5_2 2.443159 1_555
Si10_3 Si2_7 2.392720 1_555
Si10_3 Si2_1 2.392720 1_565
Si10_3 Si5_3 2.443159 1_555
Si10_4 Si2_6 2.392720 1_555
Si10_4 Si2_0 2.392720 1_655
Si10_4 Si5_4 2.443159 1_555
Si10_5 Si2_7 2.392720 1_555
Si10_5 Si2_1 2.392720 1_655
Si10_5 Si5_5 2.443159 1_555
Si10_6 Si2_2 2.392720 1_655
Si10_6 Si2_4 2.392720 1_565
Si10_6 Si5_6 2.443159 1_555
Si10_7 Si2_5 2.392720 1_565
Si10_7 Si2_3 2.392720 1_655
Si10_7 Si5_7 2.443159 1_555
Si11_0 Si4_0 2.510351 1_555
Si11_0 Si3_4 2.568275 1_455
Si11_0 Si3_2 2.568275 1_545
Si11_1 Si4_1 2.510351 1_555
Si11_1 Si3_5 2.568275 1_455
Si11_1 Si3_3 2.568275 1_545
Si11_2 Si4_2 2.510351 1_555
Si11_2 Si3_6 2.568275 1_455
Si11_2 Si3_0 2.568275 1_555
Si11_3 Si4_3 2.510351 1_555
Si11_3 Si3_7 2.568275 1_455
Si11_3 Si3_1 2.568275 1_555
Si11_4 Si4_4 2.510351 1_555
Si11_4 Si3_6 2.568275 1_545
Si11_4 Si3_0 2.568275 1_555
Si11_5 Si4_5 2.510351 1_555
Si11_5 Si3_7 2.568275 1_545
Si11_5 Si3_1 2.568275 1_555
Si11_6 Si4_6 2.510351 1_555
Si11_6 Si3_4 2.568275 1_555
Si11_6 Si3_2 2.568275 1_555
Si11_7 Si4_7 2.510351 1_555
Si11_7 Si3_5 2.568275 1_555
Si11_7 Si3_3 2.568275 1_555
