# generated using pymatgen
data_Mg4Si7
_symmetry_space_group_name_H-M   'P 1'
_cell_length_a   4.02477300
_cell_length_b   6.91935080
_cell_length_c   14.03021802
_cell_angle_alpha   89.31757566
_cell_angle_beta   89.26274594
_cell_angle_gamma   88.69969868
_symmetry_Int_Tables_number   1
_chemical_formula_structural   Mg4Si7
_chemical_formula_sum   'Mg8 Si14'
_cell_volume   390.56562991
_cell_formula_units_Z   2
loop_
 _symmetry_equiv_pos_site_id
 _symmetry_equiv_pos_as_xyz
  1  'x, y, z'
loop_
 _atom_site_type_symbol
 _atom_site_label
 _atom_site_symmetry_multiplicity
 _atom_site_fract_x
 _atom_site_fract_y
 _atom_site_fract_z
 _atom_site_occupancy
  Mg  Mg0  1  0.63574200  0.10302700  0.07600900  1
  Mg  Mg1  1  0.59569900  0.37394300  0.49769700  1
  Mg  Mg2  1  0.09447400  0.20423900  0.65101900  1
  Mg  Mg3  1  0.10452400  0.56189400  0.34025700  1
  Mg  Mg4  1  0.62580700  0.56783900  0.15083200  1
  Mg  Mg5  1  0.65321600  0.49767700  0.90992800  1
  Mg  Mg6  1  0.07829800  0.68020600  0.58465800  1
  Mg  Mg7  1  0.10392800  0.05769200  0.42033400  1
  Si  Si0  1  0.14425400  0.38668100  0.03610600  1
  Si  Si1  1  0.11935500  0.74677000  0.02054700  1
  Si  Si2  1  0.60483400  0.87658300  0.92709600  1
  Si  Si3  1  0.11050000  0.14424400  0.90204300  1
  Si  Si4  1  0.59175100  0.74874000  0.44157300  1
  Si  Si5  1  0.59733300  0.99367200  0.55925800  1
  Si  Si6  1  0.60471700  0.19476700  0.79692500  1
  Si  Si7  1  0.12123000  0.88242200  0.18254000  1
  Si  Si8  1  0.61093600  0.25564900  0.30338800  1
  Si  Si9  1  0.16756800  0.71329900  0.79088700  1
  Si  Si10  1  0.55162300  0.48797200  0.69696000  1
  Si  Si11  1  0.11866000  0.25340400  0.19784000  1
  Si  Si12  1  0.61484100  0.89451700  0.28524100  1
  Si  Si13  1  0.65793900  0.87838400  0.72532400  1
loop_
_geom_bond_atom_site_label_1
_geom_bond_atom_site_label_2
_geom_bond_distance
_geom_bond_site_symmetry_2
Mg0 Si2 2.632317 1_544
Mg0 Si0 2.811536 1_555
Mg0 Si11 2.828744 1_655
Mg0 Si11 2.861485 1_555
Mg0 Si7 2.875325 1_645
Mg0 Si0 2.912221 1_655
Mg0 Si7 2.976855 1_545
Mg0 Si3 3.094836 1_654
Mg0 Si1 3.203064 1_645
Mg0 Si3 3.255226 1_554
Mg0 Si12 3.256448 1_545
Mg0 Mg4 3.394271 1_555
Mg1 Si4 2.701034 1_555
Mg1 Si5 2.759463 1_545
Mg1 Si8 2.855251 1_555
Mg1 Si10 2.916057 1_555
Mg1 Mg7 3.153882 1_655
Mg1 Mg2 3.159131 1_655
Mg1 Mg2 3.164093 1_555
Mg1 Mg6 3.171983 1_655
Mg1 Mg6 3.179899 1_555
Mg1 Mg7 3.192571 1_555
Mg1 Mg3 3.225815 1_555
Mg1 Mg3 3.271171 1_655
Mg2 Si5 2.778528 1_545
Mg2 Si10 2.807083 1_555
Mg2 Si6 2.824745 1_455
Mg2 Si5 2.833210 1_445
Mg2 Si6 2.917377 1_555
Mg2 Si10 2.973653 1_455
Mg2 Si13 3.055173 1_445
Mg2 Si13 3.329612 1_545
Mg2 Mg7 3.402682 1_555
Mg2 Mg6 3.411197 1_555
Mg3 Si4 2.787131 1_555
Mg3 Si4 2.792584 1_455
Mg3 Si11 2.940285 1_555
Mg3 Si8 2.952118 1_555
Mg3 Si8 2.991307 1_455
Mg3 Si12 3.093241 1_455
Mg3 Si7 3.115429 1_555
Mg3 Si12 3.200445 1_555
Mg3 Mg4 3.301935 1_455
Mg3 Mg4 3.365195 1_555
Mg3 Mg7 3.652475 1_555
Mg4 Si0 2.856075 1_555
Mg4 Si0 2.891213 1_655
Mg4 Si12 2.960138 1_555
Mg4 Si1 2.963832 1_655
Mg4 Si7 2.976466 1_555
Mg4 Si11 2.984454 1_655
Mg4 Si1 2.992742 1_555
Mg4 Si8 3.023832 1_555
Mg4 Si7 3.025682 1_655
Mg4 Si11 3.076950 1_555
Mg4 Mg5 3.420363 1_554
Mg5 Si2 2.638248 1_555
Mg5 Si6 2.655265 1_555
Mg5 Si0 2.760149 1_656
Mg5 Si0 2.804586 1_556
Mg5 Si9 2.954366 1_555
Mg5 Si10 3.022786 1_555
Mg5 Si3 3.029370 1_655
Mg5 Si1 3.030605 1_656
Mg5 Si9 3.048408 1_655
Mg5 Si1 3.131453 1_556
Mg5 Si3 3.319510 1_555
Mg6 Si10 2.791645 1_555
Mg6 Si4 2.850621 1_455
Mg6 Si5 2.896116 1_455
Mg6 Si4 2.905267 1_555
Mg6 Si13 2.917355 1_455
Mg6 Si9 2.932537 1_555
Mg6 Si10 2.955886 1_455
Mg6 Si5 3.059977 1_555
Mg6 Mg7 3.465684 1_565
Mg7 Si5 2.824543 1_545
Mg7 Si5 2.840905 1_445
Mg7 Si4 2.884961 1_545
Mg7 Si8 2.900378 1_455
Mg7 Si8 2.952879 1_555
Mg7 Si12 2.990147 1_545
Mg7 Si12 2.998330 1_445
Mg7 Si4 3.012828 1_445
Mg7 Si11 3.388243 1_555
Si0 Si11 2.441024 1_555
Si0 Si1 2.498390 1_555
Si0 Si3 2.542139 1_554
Si1 Si7 2.469465 1_555
Si1 Si2 2.515840 1_554
Si1 Si2 2.602234 1_454
Si1 Si3 3.196518 1_564
Si1 Si9 3.236260 1_554
Si2 Si3 2.710590 1_565
Si2 Si3 2.798707 1_665
Si2 Si6 2.843735 1_565
Si2 Si9 2.872983 1_555
Si2 Si9 3.143589 1_655
Si3 Si6 2.489513 1_555
Si3 Si6 2.544392 1_455
Si3 Si9 3.383325 1_545
Si4 Si5 2.380835 1_555
Si10 Si6 2.459470 1_555
Si10 Si9 2.538488 1_555
Si10 Si13 2.778752 1_555
Si10 Si9 3.259072 1_655
Si11 Si8 2.489214 1_555
Si11 Si8 2.508029 1_455
Si11 Si7 2.578237 1_545
Si12 Si4 2.404842 1_555
Si12 Si7 2.472691 1_555
Si12 Si7 2.481261 1_655
Si12 Si8 2.514426 1_565
Si13 Si6 2.423442 1_565
Si13 Si9 2.465106 1_555
Si13 Si5 2.466983 1_555
Si13 Si9 2.505059 1_655
Si13 Si2 2.836119 1_555
