# generated using pymatgen
data_CeAl2BRu2
_symmetry_space_group_name_H-M   'P 1'
_cell_length_a   4.20729100
_cell_length_b   4.20729100
_cell_length_c   5.57532200
_cell_angle_alpha   90.00000000
_cell_angle_beta   90.00000000
_cell_angle_gamma   90.00000000
_symmetry_Int_Tables_number   1
_chemical_formula_structural   CeAl2BRu2
_chemical_formula_sum   'Ce1 Al2 B1 Ru2'
_cell_volume   98.69043371
_cell_formula_units_Z   1
loop_
 _symmetry_equiv_pos_site_id
 _symmetry_equiv_pos_as_xyz
  1  'x, y, z'
loop_
 _atom_site_type_symbol
 _atom_site_label
 _atom_site_symmetry_multiplicity
 _atom_site_fract_x
 _atom_site_fract_y
 _atom_site_fract_z
 _atom_site_occupancy
  Ce  Ce0  1  0.00000000  0.00000000  0.50000000  1
  Al  Al0  1  0.50000000  0.50000000  0.74047600  1
  Al  Al1  1  0.50000000  0.50000000  0.25952400  1
  B  B0  1  0.00000000  0.00000000  0.00000000  1
  Ru  Ru0  1  0.50000000  0.00000000  0.00000000  1
  Ru  Ru1  1  0.00000000  0.50000000  0.00000000  1
loop_
_geom_bond_atom_site_label_1
_geom_bond_atom_site_label_2
_geom_bond_distance
_geom_bond_site_symmetry_2
Al0 Ru1 2.553220 1_656
Al0 Ru1 2.553220 1_556
Al0 Ru0 2.553220 1_566
Al0 Ru0 2.553220 1_556
Al0 Al1 2.681462 1_555
Al0 Ce0 3.263159 1_555
Al0 Ce0 3.263159 1_655
Al0 Ce0 3.263159 1_665
Al0 Ce0 3.263159 1_565
Al1 Ru0 2.553220 1_565
Al1 Ru0 2.553220 1_555
Al1 Ru1 2.553220 1_655
Al1 Ru1 2.553220 1_555
Al1 Ce0 3.263159 1_565
Al1 Ce0 3.263159 1_555
Al1 Ce0 3.263159 1_655
Al1 Ce0 3.263159 1_665
B0 Ru1 2.103645 1_555
B0 Ru0 2.103645 1_455
B0 Ru0 2.103645 1_555
B0 Ru1 2.103645 1_545
B0 Ce0 2.787661 1_554
B0 Ce0 2.787661 1_555
