# generated using pymatgen
data_KCu2SbS3
_symmetry_space_group_name_H-M   'P 1'
_cell_length_a   6.43702400
_cell_length_b   9.18959451
_cell_length_c   10.53234372
_cell_angle_alpha   90.71391815
_cell_angle_beta   91.02387033
_cell_angle_gamma   91.20299746
_symmetry_Int_Tables_number   1
_chemical_formula_structural   KCu2SbS3
_chemical_formula_sum   'K4 Cu8 Sb4 S12'
_cell_volume   622.73835772
_cell_formula_units_Z   4
loop_
 _symmetry_equiv_pos_site_id
 _symmetry_equiv_pos_as_xyz
  1  'x, y, z'
loop_
 _atom_site_type_symbol
 _atom_site_label
 _atom_site_symmetry_multiplicity
 _atom_site_fract_x
 _atom_site_fract_y
 _atom_site_fract_z
 _atom_site_occupancy
  K  K0  1  0.79950200  0.56895600  0.13039200  1
  K  K1  1  0.20049800  0.43104400  0.86960800  1
  K  K2  1  0.30488900  0.57410700  0.36778000  1
  K  K3  1  0.69511100  0.42589300  0.63222000  1
  Cu  Cu0  1  0.98258200  0.26248600  0.36146300  1
  Cu  Cu1  1  0.01741800  0.73751400  0.63853700  1
  Cu  Cu2  1  0.49995100  0.88631100  0.16900000  1
  Cu  Cu3  1  0.50004900  0.11368900  0.83100000  1
  Cu  Cu4  1  0.07675800  0.84351900  0.96248400  1
  Cu  Cu5  1  0.92324200  0.15648100  0.03751600  1
  Cu  Cu6  1  0.42453700  0.16052200  0.45418500  1
  Cu  Cu7  1  0.57546300  0.83947800  0.54581500  1
  Sb  Sb0  1  0.46320600  0.18139400  0.14828700  1
  Sb  Sb1  1  0.53679400  0.81860600  0.85171300  1
  Sb  Sb2  1  0.97163100  0.95566400  0.35294700  1
  Sb  Sb3  1  0.02836900  0.04433600  0.64705300  1
  S  S0  1  0.84387600  0.71715300  0.44577000  1
  S  S1  1  0.15612400  0.28284700  0.55423000  1
  S  S2  1  0.36113800  0.92529100  0.36416300  1
  S  S3  1  0.63886200  0.07470900  0.63583700  1
  S  S4  1  0.85153400  0.92405500  0.12677800  1
  S  S5  1  0.14846600  0.07594500  0.87322200  1
  S  S6  1  0.64692400  0.29002000  0.96037700  1
  S  S7  1  0.35307600  0.70998000  0.03962300  1
  S  S8  1  0.63631000  0.31124000  0.33467300  1
  S  S9  1  0.36369000  0.68876000  0.66532700  1
  S  S10  1  0.12757800  0.31307400  0.16938600  1
  S  S11  1  0.87242200  0.68692600  0.83061400  1
loop_
_geom_bond_atom_site_label_1
_geom_bond_atom_site_label_2
_geom_bond_distance
_geom_bond_site_symmetry_2
K0 S10 3.218606 1_655
K0 S6 3.233987 1_554
K0 S4 3.274120 1_555
K0 S7 3.307629 1_555
K0 S8 3.383024 1_555
K0 S11 3.388427 1_554
K0 S0 3.578658 1_555
K0 S7 3.905095 1_655
K0 K2 4.066526 1_655
K0 K2 4.083892 1_555
K1 S11 3.218606 1_455
K1 S7 3.233987 1_556
K1 S5 3.274120 1_555
K1 S6 3.307629 1_555
K1 S9 3.383024 1_555
K1 S10 3.388427 1_556
K1 S1 3.578658 1_555
K1 S6 3.905095 1_455
K1 K3 4.066526 1_455
K1 K3 4.083892 1_555
K2 S2 3.240696 1_555
K2 S8 3.275689 1_555
K2 S9 3.306520 1_555
K2 S10 3.331367 1_555
K2 S0 3.381286 1_455
K2 S1 3.468124 1_555
K2 S7 3.705483 1_555
K2 S0 3.757620 1_555
K3 S3 3.240696 1_555
K3 S9 3.275689 1_555
K3 S8 3.306520 1_555
K3 S11 3.331367 1_555
K3 S1 3.381286 1_655
K3 S0 3.468124 1_555
K3 S6 3.705483 1_555
K3 S1 3.757620 1_555
Cu0 S10 2.291845 1_655
Cu0 S8 2.295914 1_555
Cu0 S1 2.303407 1_655
Cu0 Sb2 2.819240 1_545
Cu0 K2 3.500037 1_655
Cu1 S11 2.291845 1_455
Cu1 S9 2.295914 1_555
Cu1 S0 2.303407 1_455
Cu1 Sb3 2.819240 1_565
Cu1 K3 3.500037 1_455
Cu2 S7 2.282758 1_555
Cu2 S2 2.283121 1_555
Cu2 S4 2.333828 1_555
Cu2 Sb0 2.738001 1_565
Cu2 K0 3.552906 1_555
Cu3 S6 2.282758 1_555
Cu3 S3 2.283121 1_555
Cu3 S5 2.333828 1_555
Cu3 Sb1 2.738001 1_545
Cu3 K1 3.552906 1_555
Cu4 S7 2.322613 1_556
Cu4 S11 2.352727 1_455
Cu4 S5 2.383935 1_565
Cu4 S4 2.397219 1_456
Cu4 K0 3.565626 1_456
Cu5 S6 2.322613 1_554
Cu5 S10 2.352727 1_655
Cu5 S4 2.383935 1_545
Cu5 S5 2.397219 1_654
Cu5 K1 3.565626 1_654
Cu6 S8 2.320890 1_555
Cu6 S1 2.340143 1_555
Cu6 S2 2.374116 1_545
Cu6 S3 2.484869 1_555
Cu6 K3 3.476722 1_555
Cu7 S9 2.320890 1_555
Cu7 S0 2.340143 1_555
Cu7 S3 2.374116 1_565
Cu7 S2 2.484869 1_555
Cu7 K2 3.476722 1_555
Sb2 Sb3 3.205751 1_665
S0 Sb2 2.538225 1_555
S1 Sb3 2.538225 1_555
S2 Sb2 2.529400 1_455
S3 Sb3 2.529400 1_655
S4 Sb2 2.502774 1_555
S5 Sb3 2.502774 1_555
S6 Sb0 2.528888 1_556
S7 Sb1 2.528888 1_554
S8 Sb0 2.515298 1_555
S9 Sb1 2.515298 1_555
S10 Sb0 2.510268 1_555
S11 Sb1 2.510268 1_555
