# generated using pymatgen
data_Ba2SrTm6O12
_symmetry_space_group_name_H-M   'P 1'
_cell_length_a   6.88386400
_cell_length_b   20.72660203
_cell_length_c   20.72668933
_cell_angle_alpha   119.99966062
_cell_angle_beta   89.99977127
_cell_angle_gamma   89.99993517
_symmetry_Int_Tables_number   1
_chemical_formula_structural   Ba2SrTm6O12
_chemical_formula_sum   'Ba16 Sr8 Tm48 O96'
_cell_volume   2561.07587385
_cell_formula_units_Z   8
loop_
 _symmetry_equiv_pos_site_id
 _symmetry_equiv_pos_as_xyz
  1  'x, y, z'
loop_
 _atom_site_type_symbol
 _atom_site_label
 _atom_site_symmetry_multiplicity
 _atom_site_fract_x
 _atom_site_fract_y
 _atom_site_fract_z
 _atom_site_occupancy
  Ba  Ba0_0  1  0.25221550  0.00000100  0.00000050  1
  Ba  Ba0_1  1  0.25221550  0.00000100  0.50000050  1
  Ba  Ba0_2  1  0.25221550  0.50000100  0.00000050  1
  Ba  Ba0_3  1  0.25221550  0.50000100  0.50000050  1
  Ba  Ba0_4  1  0.75221550  0.00000100  0.00000050  1
  Ba  Ba0_5  1  0.75221550  0.00000100  0.50000050  1
  Ba  Ba0_6  1  0.75221550  0.50000100  0.00000050  1
  Ba  Ba0_7  1  0.75221550  0.50000100  0.50000050  1
  Ba  Ba1_0  1  0.37404650  0.33333400  0.16666650  1
  Ba  Ba1_1  1  0.37404650  0.33333400  0.66666650  1
  Ba  Ba1_2  1  0.37404650  0.83333400  0.16666650  1
  Ba  Ba1_3  1  0.37404650  0.83333400  0.66666650  1
  Ba  Ba1_4  1  0.87404650  0.33333400  0.16666650  1
  Ba  Ba1_5  1  0.87404650  0.33333400  0.66666650  1
  Ba  Ba1_6  1  0.87404650  0.83333400  0.16666650  1
  Ba  Ba1_7  1  0.87404650  0.83333400  0.66666650  1
  Sr  Sr0_0  1  0.12627550  0.16666500  0.33333400  1
  Sr  Sr0_1  1  0.12627550  0.16666500  0.83333400  1
  Sr  Sr0_2  1  0.12627550  0.66666500  0.33333400  1
  Sr  Sr0_3  1  0.12627550  0.66666500  0.83333400  1
  Sr  Sr0_4  1  0.62627550  0.16666500  0.33333400  1
  Sr  Sr0_5  1  0.62627550  0.16666500  0.83333400  1
  Sr  Sr0_6  1  0.62627550  0.66666500  0.33333400  1
  Sr  Sr0_7  1  0.62627550  0.66666500  0.83333400  1
  Tm  Tm0_0  1  0.37793700  0.17261600  0.49729150  1
  Tm  Tm0_1  1  0.37793700  0.17261600  0.99729150  1
  Tm  Tm0_2  1  0.37793700  0.67261600  0.49729150  1
  Tm  Tm0_3  1  0.37793700  0.67261600  0.99729150  1
  Tm  Tm0_4  1  0.87793700  0.17261600  0.49729150  1
  Tm  Tm0_5  1  0.87793700  0.17261600  0.99729150  1
  Tm  Tm0_6  1  0.87793700  0.67261600  0.49729150  1
  Tm  Tm0_7  1  0.87793700  0.67261600  0.99729150  1
  Tm  Tm1_0  1  0.37793600  0.00270850  0.17532450  1
  Tm  Tm1_1  1  0.37793600  0.00270850  0.67532450  1
  Tm  Tm1_2  1  0.37793600  0.50270850  0.17532450  1
  Tm  Tm1_3  1  0.37793600  0.50270850  0.67532450  1
  Tm  Tm1_4  1  0.87793600  0.00270850  0.17532450  1
  Tm  Tm1_5  1  0.87793600  0.00270850  0.67532450  1
  Tm  Tm1_6  1  0.87793600  0.50270850  0.17532450  1
  Tm  Tm1_7  1  0.87793600  0.50270850  0.67532450  1
  Tm  Tm2_0  1  0.37793250  0.32467300  0.32738150  1
  Tm  Tm2_1  1  0.37793250  0.32467300  0.82738150  1
  Tm  Tm2_2  1  0.37793250  0.82467300  0.32738150  1
  Tm  Tm2_3  1  0.37793250  0.82467300  0.82738150  1
  Tm  Tm2_4  1  0.87793250  0.32467300  0.32738150  1
  Tm  Tm2_5  1  0.87793250  0.32467300  0.82738150  1
  Tm  Tm2_6  1  0.87793250  0.82467300  0.32738150  1
  Tm  Tm2_7  1  0.87793250  0.82467300  0.82738150  1
  Tm  Tm3_0  1  0.12137050  0.32561550  0.49905800  1
  Tm  Tm3_1  1  0.12137050  0.32561550  0.99905800  1
  Tm  Tm3_2  1  0.12137050  0.82561550  0.49905800  1
  Tm  Tm3_3  1  0.12137050  0.82561550  0.99905800  1
  Tm  Tm3_4  1  0.62137050  0.32561550  0.49905800  1
  Tm  Tm3_5  1  0.62137050  0.32561550  0.99905800  1
  Tm  Tm3_6  1  0.62137050  0.82561550  0.49905800  1
  Tm  Tm3_7  1  0.62137050  0.82561550  0.99905800  1
  Tm  Tm4_0  1  0.12138050  0.00094300  0.32655800  1
  Tm  Tm4_1  1  0.12138050  0.00094300  0.82655800  1
  Tm  Tm4_2  1  0.12138050  0.50094300  0.32655800  1
  Tm  Tm4_3  1  0.12138050  0.50094300  0.82655800  1
  Tm  Tm4_4  1  0.62138050  0.00094300  0.32655800  1
  Tm  Tm4_5  1  0.62138050  0.00094300  0.82655800  1
  Tm  Tm4_6  1  0.62138050  0.50094300  0.32655800  1
  Tm  Tm4_7  1  0.62138050  0.50094300  0.82655800  1
  Tm  Tm5_0  1  0.12138450  0.17344250  0.17438650  1
  Tm  Tm5_1  1  0.12138450  0.17344250  0.67438650  1
  Tm  Tm5_2  1  0.12138450  0.67344250  0.17438650  1
  Tm  Tm5_3  1  0.12138450  0.67344250  0.67438650  1
  Tm  Tm5_4  1  0.62138450  0.17344250  0.17438650  1
  Tm  Tm5_5  1  0.62138450  0.17344250  0.67438650  1
  Tm  Tm5_6  1  0.62138450  0.67344250  0.17438650  1
  Tm  Tm5_7  1  0.62138450  0.67344250  0.67438650  1
  O  O0_0  1  0.37244000  0.44305700  0.34762050  1
  O  O0_1  1  0.37244000  0.44305700  0.84762050  1
  O  O0_2  1  0.37244000  0.94305700  0.34762050  1
  O  O0_3  1  0.37244000  0.94305700  0.84762050  1
  O  O0_4  1  0.87244000  0.44305700  0.34762050  1
  O  O0_5  1  0.87244000  0.44305700  0.84762050  1
  O  O0_6  1  0.87244000  0.94305700  0.34762050  1
  O  O0_7  1  0.87244000  0.94305700  0.84762050  1
  O  O1_0  1  0.37243950  0.15237950  0.09543700  1
  O  O1_1  1  0.37243950  0.15237950  0.59543700  1
  O  O1_2  1  0.37243950  0.65237950  0.09543700  1
  O  O1_3  1  0.37243950  0.65237950  0.59543700  1
  O  O1_4  1  0.87243950  0.15237950  0.09543700  1
  O  O1_5  1  0.87243950  0.15237950  0.59543700  1
  O  O1_6  1  0.87243950  0.65237950  0.09543700  1
  O  O1_7  1  0.87243950  0.65237950  0.59543700  1
  O  O2_0  1  0.37244400  0.40456450  0.05694100  1
  O  O2_1  1  0.37244400  0.40456450  0.55694100  1
  O  O2_2  1  0.37244400  0.90456450  0.05694100  1
  O  O2_3  1  0.37244400  0.90456450  0.55694100  1
  O  O2_4  1  0.87244400  0.40456450  0.05694100  1
  O  O2_5  1  0.87244400  0.40456450  0.55694100  1
  O  O2_6  1  0.87244400  0.90456450  0.05694100  1
  O  O2_7  1  0.87244400  0.90456450  0.55694100  1
  O  O3_0  1  0.12704200  0.05513600  0.14819500  1
  O  O3_1  1  0.12704200  0.05513600  0.64819500  1
  O  O3_2  1  0.12704200  0.55513600  0.14819500  1
  O  O3_3  1  0.12704200  0.55513600  0.64819500  1
  O  O3_4  1  0.62704200  0.05513600  0.14819500  1
  O  O3_5  1  0.62704200  0.05513600  0.64819500  1
  O  O3_6  1  0.62704200  0.55513600  0.14819500  1
  O  O3_7  1  0.62704200  0.55513600  0.64819500  1
  O  O4_0  1  0.12704050  0.35180650  0.40694050  1
  O  O4_1  1  0.12704050  0.35180650  0.90694050  1
  O  O4_2  1  0.12704050  0.85180650  0.40694050  1
  O  O4_3  1  0.12704050  0.85180650  0.90694050  1
  O  O4_4  1  0.62704050  0.35180650  0.40694050  1
  O  O4_5  1  0.62704050  0.35180650  0.90694050  1
  O  O4_6  1  0.62704050  0.85180650  0.40694050  1
  O  O4_7  1  0.62704050  0.85180650  0.90694050  1
  O  O5_0  1  0.12704050  0.09305900  0.44486550  1
  O  O5_1  1  0.12704050  0.09305900  0.94486550  1
  O  O5_2  1  0.12704050  0.59305900  0.44486550  1
  O  O5_3  1  0.12704050  0.59305900  0.94486550  1
  O  O5_4  1  0.62704050  0.09305900  0.44486550  1
  O  O5_5  1  0.62704050  0.09305900  0.94486550  1
  O  O5_6  1  0.62704050  0.59305900  0.44486550  1
  O  O5_7  1  0.62704050  0.59305900  0.94486550  1
  O  O6_0  1  0.37495350  0.06336000  0.30349500  1
  O  O6_1  1  0.37495350  0.06336000  0.80349500  1
  O  O6_2  1  0.37495350  0.56336000  0.30349500  1
  O  O6_3  1  0.37495350  0.56336000  0.80349500  1
  O  O6_4  1  0.87495350  0.06336000  0.30349500  1
  O  O6_5  1  0.87495350  0.06336000  0.80349500  1
  O  O6_6  1  0.87495350  0.56336000  0.30349500  1
  O  O6_7  1  0.87495350  0.56336000  0.80349500  1
  O  O7_0  1  0.37495400  0.19650550  0.25986550  1
  O  O7_1  1  0.37495400  0.19650550  0.75986550  1
  O  O7_2  1  0.37495400  0.69650550  0.25986550  1
  O  O7_3  1  0.37495400  0.69650550  0.75986550  1
  O  O7_4  1  0.87495400  0.19650550  0.25986550  1
  O  O7_5  1  0.87495400  0.19650550  0.75986550  1
  O  O7_6  1  0.87495400  0.69650550  0.25986550  1
  O  O7_7  1  0.87495400  0.69650550  0.75986550  1
  O  O8_0  1  0.37495350  0.24013400  0.43663900  1
  O  O8_1  1  0.37495350  0.24013400  0.93663900  1
  O  O8_2  1  0.37495350  0.74013400  0.43663900  1
  O  O8_3  1  0.37495350  0.74013400  0.93663900  1
  O  O8_4  1  0.87495350  0.24013400  0.43663900  1
  O  O8_5  1  0.87495350  0.24013400  0.93663900  1
  O  O8_6  1  0.87495350  0.74013400  0.43663900  1
  O  O8_7  1  0.87495350  0.74013400  0.93663900  1
  O  O9_0  1  0.12540500  0.44531500  0.20117300  1
  O  O9_1  1  0.12540500  0.44531500  0.70117300  1
  O  O9_2  1  0.12540500  0.94531500  0.20117300  1
  O  O9_3  1  0.12540500  0.94531500  0.70117300  1
  O  O9_4  1  0.62540500  0.44531500  0.20117300  1
  O  O9_5  1  0.62540500  0.44531500  0.70117300  1
  O  O9_6  1  0.62540500  0.94531500  0.20117300  1
  O  O9_7  1  0.62540500  0.94531500  0.70117300  1
  O  O10_0  1  0.12540350  0.29882550  0.24414100  1
  O  O10_1  1  0.12540350  0.29882550  0.74414100  1
  O  O10_2  1  0.12540350  0.79882550  0.24414100  1
  O  O10_3  1  0.12540350  0.79882550  0.74414100  1
  O  O10_4  1  0.62540350  0.29882550  0.24414100  1
  O  O10_5  1  0.62540350  0.29882550  0.74414100  1
  O  O10_6  1  0.62540350  0.79882550  0.24414100  1
  O  O10_7  1  0.62540350  0.79882550  0.74414100  1
  O  O11_0  1  0.12540600  0.25585900  0.05468550  1
  O  O11_1  1  0.12540600  0.25585900  0.55468550  1
  O  O11_2  1  0.12540600  0.75585900  0.05468550  1
  O  O11_3  1  0.12540600  0.75585900  0.55468550  1
  O  O11_4  1  0.62540600  0.25585900  0.05468550  1
  O  O11_5  1  0.62540600  0.25585900  0.55468550  1
  O  O11_6  1  0.62540600  0.75585900  0.05468550  1
  O  O11_7  1  0.62540600  0.75585900  0.55468550  1
loop_
_geom_bond_atom_site_label_1
_geom_bond_atom_site_label_2
_geom_bond_distance
_geom_bond_site_symmetry_2
Ba0_0 O5_1 2.823600 1_554
Ba0_0 O3_0 2.823638 1_555
Ba0_0 O4_3 2.823644 1_544
Ba0_0 O2_2 2.885322 1_545
Ba0_0 O1_0 2.885352 1_555
Ba0_0 O0_3 2.885374 1_544
Ba0_0 Ba0_4 3.441932 1_555
Ba0_0 Ba0_4 3.441932 1_455
Ba0_1 O5_0 2.823600 1_555
Ba0_1 O3_1 2.823638 1_555
Ba0_1 O4_2 2.823644 1_545
Ba0_1 O2_3 2.885322 1_545
Ba0_1 O1_1 2.885352 1_555
Ba0_1 O0_2 2.885374 1_545
Ba0_1 Ba0_5 3.441932 1_455
Ba0_1 Ba0_5 3.441932 1_555
Ba0_2 O5_3 2.823600 1_554
Ba0_2 O3_2 2.823638 1_555
Ba0_2 O4_1 2.823644 1_554
Ba0_2 O2_0 2.885322 1_555
Ba0_2 O1_2 2.885352 1_555
Ba0_2 O0_1 2.885374 1_554
Ba0_2 Ba0_6 3.441932 1_455
Ba0_2 Ba0_6 3.441932 1_555
Ba0_3 O5_2 2.823600 1_555
Ba0_3 O3_3 2.823638 1_555
Ba0_3 O4_0 2.823644 1_555
Ba0_3 O2_1 2.885322 1_555
Ba0_3 O1_3 2.885352 1_555
Ba0_3 O0_0 2.885374 1_555
Ba0_3 Ba0_7 3.441932 1_555
Ba0_3 Ba0_7 3.441932 1_455
Ba0_4 O5_5 2.823600 1_554
Ba0_4 O3_4 2.823638 1_555
Ba0_4 O4_7 2.823644 1_544
Ba0_4 O2_6 2.885322 1_545
Ba0_4 O1_4 2.885352 1_555
Ba0_4 O0_7 2.885374 1_544
Ba0_5 O5_4 2.823600 1_555
Ba0_5 O3_5 2.823638 1_555
Ba0_5 O4_6 2.823644 1_545
Ba0_5 O2_7 2.885322 1_545
Ba0_5 O1_5 2.885352 1_555
Ba0_5 O0_6 2.885374 1_545
Ba0_6 O5_7 2.823600 1_554
Ba0_6 O3_6 2.823638 1_555
Ba0_6 O4_5 2.823644 1_554
Ba0_6 O2_4 2.885322 1_555
Ba0_6 O1_6 2.885352 1_555
Ba0_6 O0_5 2.885374 1_554
Ba0_7 O5_6 2.823600 1_555
Ba0_7 O3_7 2.823638 1_555
Ba0_7 O4_4 2.823644 1_555
Ba0_7 O2_5 2.885322 1_555
Ba0_7 O1_7 2.885352 1_555
Ba0_7 O0_4 2.885374 1_555
Ba1_0 O9_0 2.677337 1_555
Ba1_0 O11_0 2.677355 1_555
Ba1_0 O10_0 2.677367 1_555
Ba1_0 O9_4 2.689339 1_555
Ba1_0 O11_4 2.689345 1_555
Ba1_0 O10_4 2.689356 1_555
Ba1_0 O1_0 3.272525 1_555
Ba1_0 O0_0 3.272530 1_555
Ba1_0 O2_0 3.272547 1_555
Ba1_1 O9_1 2.677337 1_555
Ba1_1 O11_1 2.677355 1_555
Ba1_1 O10_1 2.677367 1_555
Ba1_1 O9_5 2.689339 1_555
Ba1_1 O11_5 2.689345 1_555
Ba1_1 O10_5 2.689356 1_555
Ba1_1 O1_1 3.272525 1_555
Ba1_1 O0_1 3.272530 1_555
Ba1_1 O2_1 3.272547 1_555
Ba1_2 O9_2 2.677337 1_555
Ba1_2 O11_2 2.677355 1_555
Ba1_2 O10_2 2.677367 1_555
Ba1_2 O9_6 2.689339 1_555
Ba1_2 O11_6 2.689345 1_555
Ba1_2 O10_6 2.689356 1_555
Ba1_2 O1_2 3.272525 1_555
Ba1_2 O0_2 3.272530 1_555
Ba1_2 O2_2 3.272547 1_555
Ba1_3 O9_3 2.677337 1_555
Ba1_3 O11_3 2.677355 1_555
Ba1_3 O10_3 2.677367 1_555
Ba1_3 O9_7 2.689339 1_555
Ba1_3 O11_7 2.689345 1_555
Ba1_3 O10_7 2.689356 1_555
Ba1_3 O1_3 3.272525 1_555
Ba1_3 O0_3 3.272530 1_555
Ba1_3 O2_3 3.272547 1_555
Ba1_4 O9_4 2.677337 1_555
Ba1_4 O11_4 2.677355 1_555
Ba1_4 O10_4 2.677367 1_555
Ba1_4 O9_0 2.689339 1_655
Ba1_4 O11_0 2.689345 1_655
Ba1_4 O10_0 2.689356 1_655
Ba1_4 O1_4 3.272525 1_555
Ba1_4 O0_4 3.272530 1_555
Ba1_4 O2_4 3.272547 1_555
Ba1_5 O9_5 2.677337 1_555
Ba1_5 O11_5 2.677355 1_555
Ba1_5 O10_5 2.677367 1_555
Ba1_5 O9_1 2.689339 1_655
Ba1_5 O11_1 2.689345 1_655
Ba1_5 O10_1 2.689356 1_655
Ba1_5 O1_5 3.272525 1_555
Ba1_5 O0_5 3.272530 1_555
Ba1_5 O2_5 3.272547 1_555
Ba1_6 O9_6 2.677337 1_555
Ba1_6 O11_6 2.677355 1_555
Ba1_6 O10_6 2.677367 1_555
Ba1_6 O9_2 2.689339 1_655
Ba1_6 O11_2 2.689345 1_655
Ba1_6 O10_2 2.689356 1_655
Ba1_6 O1_6 3.272525 1_555
Ba1_6 O0_6 3.272530 1_555
Ba1_6 O2_6 3.272547 1_555
Ba1_7 O9_7 2.677337 1_555
Ba1_7 O11_7 2.677355 1_555
Ba1_7 O10_7 2.677367 1_555
Ba1_7 O9_3 2.689339 1_655
Ba1_7 O11_3 2.689345 1_655
Ba1_7 O10_3 2.689356 1_655
Ba1_7 O1_7 3.272525 1_555
Ba1_7 O0_7 3.272530 1_555
Ba1_7 O2_7 3.272547 1_555
O0_0 Tm4_6 2.256212 1_555
O0_0 Tm4_2 2.267311 1_555
O0_0 Tm2_0 2.273488 1_555
O0_1 Tm4_7 2.256212 1_555
O0_1 Tm4_3 2.267311 1_555
O0_1 Tm2_1 2.273488 1_555
O0_2 Tm4_4 2.256212 1_565
O0_2 Tm4_0 2.267311 1_565
O0_2 Tm2_2 2.273488 1_555
O0_3 Tm4_5 2.256212 1_565
O0_3 Tm4_1 2.267311 1_565
O0_3 Tm2_3 2.273488 1_555
O0_4 Tm4_2 2.256212 1_655
O0_4 Tm4_6 2.267311 1_555
O0_4 Tm2_4 2.273488 1_555
O0_5 Tm4_3 2.256212 1_655
O0_5 Tm4_7 2.267311 1_555
O0_5 Tm2_5 2.273488 1_555
O0_6 Tm4_0 2.256212 1_665
O0_6 Tm4_4 2.267311 1_565
O0_6 Tm2_6 2.273488 1_555
O0_7 Tm4_1 2.256212 1_665
O0_7 Tm4_5 2.267311 1_565
O0_7 Tm2_7 2.273488 1_555
O1_0 Tm5_4 2.256258 1_555
O1_0 Tm5_0 2.267300 1_555
O1_0 Tm0_1 2.273471 1_554
O1_1 Tm5_5 2.256258 1_555
O1_1 Tm5_1 2.267300 1_555
O1_1 Tm0_0 2.273471 1_555
O1_2 Tm5_6 2.256258 1_555
O1_2 Tm5_2 2.267300 1_555
O1_2 Tm0_3 2.273471 1_554
O1_3 Tm5_7 2.256258 1_555
O1_3 Tm5_3 2.267300 1_555
O1_3 Tm0_2 2.273471 1_555
O1_4 Tm5_0 2.256258 1_655
O1_4 Tm5_4 2.267300 1_555
O1_4 Tm0_5 2.273471 1_554
O1_5 Tm5_1 2.256258 1_655
O1_5 Tm5_5 2.267300 1_555
O1_5 Tm0_4 2.273471 1_555
O1_6 Tm5_2 2.256258 1_655
O1_6 Tm5_6 2.267300 1_555
O1_6 Tm0_7 2.273471 1_554
O1_7 Tm5_3 2.256258 1_655
O1_7 Tm5_7 2.267300 1_555
O1_7 Tm0_6 2.273471 1_555
O2_0 Tm3_5 2.256134 1_554
O2_0 Tm3_1 2.267390 1_554
O2_0 Tm1_2 2.273490 1_555
O2_1 Tm3_4 2.256134 1_555
O2_1 Tm3_0 2.267390 1_555
O2_1 Tm1_3 2.273490 1_555
O2_2 Tm3_7 2.256134 1_554
O2_2 Tm3_3 2.267390 1_554
O2_2 Tm1_0 2.273490 1_565
O2_3 Tm3_6 2.256134 1_555
O2_3 Tm3_2 2.267390 1_555
O2_3 Tm1_1 2.273490 1_565
O2_4 Tm3_1 2.256134 1_654
O2_4 Tm3_5 2.267390 1_554
O2_4 Tm1_6 2.273490 1_555
O2_5 Tm3_0 2.256134 1_655
O2_5 Tm3_4 2.267390 1_555
O2_5 Tm1_7 2.273490 1_555
O2_6 Tm3_3 2.256134 1_654
O2_6 Tm3_7 2.267390 1_554
O2_6 Tm1_4 2.273490 1_565
O2_7 Tm3_2 2.256134 1_655
O2_7 Tm3_6 2.267390 1_555
O2_7 Tm1_5 2.273490 1_565
O3_0 Tm5_0 2.231106 1_555
O3_0 Tm1_4 2.246904 1_455
O3_0 Tm1_0 2.256313 1_555
O3_0 Sr0_0 3.346385 1_555
O3_1 Tm5_1 2.231106 1_555
O3_1 Tm1_5 2.246904 1_455
O3_1 Tm1_1 2.256313 1_555
O3_1 Sr0_1 3.346385 1_555
O3_2 Tm5_2 2.231106 1_555
O3_2 Tm1_6 2.246904 1_455
O3_2 Tm1_2 2.256313 1_555
O3_2 Sr0_2 3.346385 1_555
O3_3 Tm5_3 2.231106 1_555
O3_3 Tm1_7 2.246904 1_455
O3_3 Tm1_3 2.256313 1_555
O3_3 Sr0_3 3.346385 1_555
O3_4 Tm5_4 2.231106 1_555
O3_4 Tm1_0 2.246904 1_555
O3_4 Tm1_4 2.256313 1_555
O3_4 Sr0_4 3.346385 1_555
O3_5 Tm5_5 2.231106 1_555
O3_5 Tm1_1 2.246904 1_555
O3_5 Tm1_5 2.256313 1_555
O3_5 Sr0_5 3.346385 1_555
O3_6 Tm5_6 2.231106 1_555
O3_6 Tm1_2 2.246904 1_555
O3_6 Tm1_6 2.256313 1_555
O3_6 Sr0_6 3.346385 1_555
O3_7 Tm5_7 2.231106 1_555
O3_7 Tm1_3 2.246904 1_555
O3_7 Tm1_7 2.256313 1_555
O3_7 Sr0_7 3.346385 1_555
O4_0 Tm3_0 2.231154 1_555
O4_0 Tm2_4 2.246943 1_455
O4_0 Tm2_0 2.256318 1_555
O4_0 Sr0_0 3.346423 1_555
O4_1 Tm3_1 2.231154 1_555
O4_1 Tm2_5 2.246943 1_455
O4_1 Tm2_1 2.256318 1_555
O4_1 Sr0_1 3.346423 1_555
O4_2 Tm3_2 2.231154 1_555
O4_2 Tm2_6 2.246943 1_455
O4_2 Tm2_2 2.256318 1_555
O4_2 Sr0_2 3.346423 1_555
O4_3 Tm3_3 2.231154 1_555
O4_3 Tm2_7 2.246943 1_455
O4_3 Tm2_3 2.256318 1_555
O4_3 Sr0_3 3.346423 1_555
O4_4 Tm3_4 2.231154 1_555
O4_4 Tm2_0 2.246943 1_555
O4_4 Tm2_4 2.256318 1_555
O4_4 Sr0_4 3.346423 1_555
O4_5 Tm3_5 2.231154 1_555
O4_5 Tm2_1 2.246943 1_555
O4_5 Tm2_5 2.256318 1_555
O4_5 Sr0_5 3.346423 1_555
O4_6 Tm3_6 2.231154 1_555
O4_6 Tm2_2 2.246943 1_555
O4_6 Tm2_6 2.256318 1_555
O4_6 Sr0_6 3.346423 1_555
O4_7 Tm3_7 2.231154 1_555
O4_7 Tm2_3 2.246943 1_555
O4_7 Tm2_7 2.256318 1_555
O4_7 Sr0_7 3.346423 1_555
O5_0 Tm4_0 2.231142 1_555
O5_0 Tm0_4 2.246888 1_455
O5_0 Tm0_0 2.256331 1_555
O5_0 Sr0_0 3.346344 1_555
O5_1 Tm4_1 2.231142 1_555
O5_1 Tm0_5 2.246888 1_455
O5_1 Tm0_1 2.256331 1_555
O5_1 Sr0_1 3.346344 1_555
O5_2 Tm4_2 2.231142 1_555
O5_2 Tm0_6 2.246888 1_455
O5_2 Tm0_2 2.256331 1_555
O5_2 Sr0_2 3.346344 1_555
O5_3 Tm4_3 2.231142 1_555
O5_3 Tm0_7 2.246888 1_455
O5_3 Tm0_3 2.256331 1_555
O5_3 Sr0_3 3.346344 1_555
O5_4 Tm4_4 2.231142 1_555
O5_4 Tm0_0 2.246888 1_555
O5_4 Tm0_4 2.256331 1_555
O5_4 Sr0_4 3.346344 1_555
O5_5 Tm4_5 2.231142 1_555
O5_5 Tm0_1 2.246888 1_555
O5_5 Tm0_5 2.256331 1_555
O5_5 Sr0_5 3.346344 1_555
O5_6 Tm4_6 2.231142 1_555
O5_6 Tm0_2 2.246888 1_555
O5_6 Tm0_6 2.256331 1_555
O5_6 Sr0_6 3.346344 1_555
O5_7 Tm4_7 2.231142 1_555
O5_7 Tm0_3 2.246888 1_555
O5_7 Tm0_7 2.256331 1_555
O5_7 Sr0_7 3.346344 1_555
O6_0 Tm1_0 2.301840 1_555
O6_0 Tm4_4 2.323407 1_555
O6_0 Tm4_0 2.359562 1_555
O6_0 Sr0_0 2.563849 1_555
O6_0 Sr0_4 2.576044 1_555
O6_0 O9_2 2.871622 1_545
O6_0 O9_6 2.875332 1_545
O6_1 Tm1_1 2.301840 1_555
O6_1 Tm4_5 2.323407 1_555
O6_1 Tm4_1 2.359562 1_555
O6_1 Sr0_1 2.563849 1_555
O6_1 Sr0_5 2.576044 1_555
O6_1 O9_3 2.871622 1_545
O6_1 O9_7 2.875332 1_545
O6_2 Tm1_2 2.301840 1_555
O6_2 Tm4_6 2.323407 1_555
O6_2 Tm4_2 2.359562 1_555
O6_2 Sr0_2 2.563849 1_555
O6_2 Sr0_6 2.576044 1_555
O6_2 O9_0 2.871622 1_555
O6_2 O9_4 2.875332 1_555
O6_3 Tm1_3 2.301840 1_555
O6_3 Tm4_7 2.323407 1_555
O6_3 Tm4_3 2.359562 1_555
O6_3 Sr0_3 2.563849 1_555
O6_3 Sr0_7 2.576044 1_555
O6_3 O9_1 2.871622 1_555
O6_3 O9_5 2.875332 1_555
O6_4 Tm1_4 2.301840 1_555
O6_4 Tm4_0 2.323407 1_655
O6_4 Tm4_4 2.359562 1_555
O6_4 Sr0_4 2.563849 1_555
O6_4 Sr0_0 2.576044 1_655
O6_4 O9_6 2.871622 1_545
O6_4 O9_2 2.875332 1_645
O6_5 Tm1_5 2.301840 1_555
O6_5 Tm4_1 2.323407 1_655
O6_5 Tm4_5 2.359562 1_555
O6_5 Sr0_5 2.563849 1_555
O6_5 Sr0_1 2.576044 1_655
O6_5 O9_7 2.871622 1_545
O6_5 O9_3 2.875332 1_645
O6_6 Tm1_6 2.301840 1_555
O6_6 Tm4_2 2.323407 1_655
O6_6 Tm4_6 2.359562 1_555
O6_6 Sr0_6 2.563849 1_555
O6_6 Sr0_2 2.576044 1_655
O6_6 O9_4 2.871622 1_555
O6_6 O9_0 2.875332 1_655
O6_7 Tm1_7 2.301840 1_555
O6_7 Tm4_3 2.323407 1_655
O6_7 Tm4_7 2.359562 1_555
O6_7 Sr0_7 2.563849 1_555
O6_7 Sr0_3 2.576044 1_655
O6_7 O9_5 2.871622 1_555
O6_7 O9_1 2.875332 1_655
O7_0 Tm2_0 2.301776 1_555
O7_0 Tm5_4 2.323412 1_555
O7_0 Tm5_0 2.359544 1_555
O7_0 Sr0_0 2.563905 1_555
O7_0 Sr0_4 2.576096 1_555
O7_1 Tm2_1 2.301776 1_555
O7_1 Tm5_5 2.323412 1_555
O7_1 Tm5_1 2.359544 1_555
O7_1 Sr0_1 2.563905 1_555
O7_1 Sr0_5 2.576096 1_555
O7_2 Tm2_2 2.301776 1_555
O7_2 Tm5_6 2.323412 1_555
O7_2 Tm5_2 2.359544 1_555
O7_2 Sr0_2 2.563905 1_555
O7_2 Sr0_6 2.576096 1_555
O7_3 Tm2_3 2.301776 1_555
O7_3 Tm5_7 2.323412 1_555
O7_3 Tm5_3 2.359544 1_555
O7_3 Sr0_3 2.563905 1_555
O7_3 Sr0_7 2.576096 1_555
O7_4 Tm2_4 2.301776 1_555
O7_4 Tm5_0 2.323412 1_655
O7_4 Tm5_4 2.359544 1_555
O7_4 Sr0_4 2.563905 1_555
O7_4 Sr0_0 2.576096 1_655
O7_5 Tm2_5 2.301776 1_555
O7_5 Tm5_1 2.323412 1_655
O7_5 Tm5_5 2.359544 1_555
O7_5 Sr0_5 2.563905 1_555
O7_5 Sr0_1 2.576096 1_655
O7_6 Tm2_6 2.301776 1_555
O7_6 Tm5_2 2.323412 1_655
O7_6 Tm5_6 2.359544 1_555
O7_6 Sr0_6 2.563905 1_555
O7_6 Sr0_2 2.576096 1_655
O7_7 Tm2_7 2.301776 1_555
O7_7 Tm5_3 2.323412 1_655
O7_7 Tm5_7 2.359544 1_555
O7_7 Sr0_7 2.563905 1_555
O7_7 Sr0_3 2.576096 1_655
O8_0 Tm0_0 2.301822 1_555
O8_0 Tm3_4 2.323390 1_555
O8_0 Tm3_0 2.359636 1_555
O8_0 Sr0_0 2.563879 1_555
O8_0 Sr0_4 2.576053 1_555
O8_1 Tm0_1 2.301822 1_555
O8_1 Tm3_5 2.323390 1_555
O8_1 Tm3_1 2.359636 1_555
O8_1 Sr0_1 2.563879 1_555
O8_1 Sr0_5 2.576053 1_555
O8_2 Tm0_2 2.301822 1_555
O8_2 Tm3_6 2.323390 1_555
O8_2 Tm3_2 2.359636 1_555
O8_2 Sr0_2 2.563879 1_555
O8_2 Sr0_6 2.576053 1_555
O8_3 Tm0_3 2.301822 1_555
O8_3 Tm3_7 2.323390 1_555
O8_3 Tm3_3 2.359636 1_555
O8_3 Sr0_3 2.563879 1_555
O8_3 Sr0_7 2.576053 1_555
O8_4 Tm0_4 2.301822 1_555
O8_4 Tm3_0 2.323390 1_655
O8_4 Tm3_4 2.359636 1_555
O8_4 Sr0_4 2.563879 1_555
O8_4 Sr0_0 2.576053 1_655
O8_5 Tm0_5 2.301822 1_555
O8_5 Tm3_1 2.323390 1_655
O8_5 Tm3_5 2.359636 1_555
O8_5 Sr0_5 2.563879 1_555
O8_5 Sr0_1 2.576053 1_655
O8_6 Tm0_6 2.301822 1_555
O8_6 Tm3_2 2.323390 1_655
O8_6 Tm3_6 2.359636 1_555
O8_6 Sr0_6 2.563879 1_555
O8_6 Sr0_2 2.576053 1_655
O8_7 Tm0_7 2.301822 1_555
O8_7 Tm3_3 2.323390 1_655
O8_7 Tm3_7 2.359636 1_555
O8_7 Sr0_7 2.563879 1_555
O8_7 Sr0_3 2.576053 1_655
O9_0 Tm4_2 2.255576 1_555
O9_0 Tm1_6 2.289429 1_455
O9_0 Tm1_2 2.315474 1_555
O9_1 Tm4_3 2.255576 1_555
O9_1 Tm1_7 2.289429 1_455
O9_1 Tm1_3 2.315474 1_555
O9_2 Tm4_0 2.255576 1_565
O9_2 Tm1_4 2.289429 1_465
O9_2 Tm1_0 2.315474 1_565
O9_3 Tm4_1 2.255576 1_565
O9_3 Tm1_5 2.289429 1_465
O9_3 Tm1_1 2.315474 1_565
O9_4 Tm4_6 2.255576 1_555
O9_4 Tm1_2 2.289429 1_555
O9_4 Tm1_6 2.315474 1_555
O9_5 Tm4_7 2.255576 1_555
O9_5 Tm1_3 2.289429 1_555
O9_5 Tm1_7 2.315474 1_555
O9_6 Tm4_4 2.255576 1_565
O9_6 Tm1_0 2.289429 1_565
O9_6 Tm1_4 2.315474 1_565
O9_7 Tm4_5 2.255576 1_565
O9_7 Tm1_1 2.289429 1_565
O9_7 Tm1_5 2.315474 1_565
O10_0 Tm5_0 2.255530 1_555
O10_0 Tm2_4 2.289424 1_455
O10_0 Tm2_0 2.315460 1_555
O10_0 O7_0 2.871593 1_555
O10_0 O7_4 2.875300 1_455
O10_1 Tm5_1 2.255530 1_555
O10_1 Tm2_5 2.289424 1_455
O10_1 Tm2_1 2.315460 1_555
O10_1 O7_1 2.871593 1_555
O10_1 O7_5 2.875300 1_455
O10_2 Tm5_2 2.255530 1_555
O10_2 Tm2_6 2.289424 1_455
O10_2 Tm2_2 2.315460 1_555
O10_2 O7_2 2.871593 1_555
O10_2 O7_6 2.875300 1_455
O10_3 Tm5_3 2.255530 1_555
O10_3 Tm2_7 2.289424 1_455
O10_3 Tm2_3 2.315460 1_555
O10_3 O7_3 2.871593 1_555
O10_3 O7_7 2.875300 1_455
O10_4 Tm5_4 2.255530 1_555
O10_4 Tm2_0 2.289424 1_555
O10_4 Tm2_4 2.315460 1_555
O10_4 O7_4 2.871593 1_555
O10_4 O7_0 2.875300 1_555
O10_5 Tm5_5 2.255530 1_555
O10_5 Tm2_1 2.289424 1_555
O10_5 Tm2_5 2.315460 1_555
O10_5 O7_5 2.871593 1_555
O10_5 O7_1 2.875300 1_555
O10_6 Tm5_6 2.255530 1_555
O10_6 Tm2_2 2.289424 1_555
O10_6 Tm2_6 2.315460 1_555
O10_6 O7_6 2.871593 1_555
O10_6 O7_2 2.875300 1_555
O10_7 Tm5_7 2.255530 1_555
O10_7 Tm2_3 2.289424 1_555
O10_7 Tm2_7 2.315460 1_555
O10_7 O7_7 2.871593 1_555
O10_7 O7_3 2.875300 1_555
O11_0 Tm3_1 2.255543 1_554
O11_0 Tm0_5 2.289451 1_454
O11_0 Tm0_1 2.315487 1_554
O11_0 O8_1 2.871615 1_554
O11_0 O8_5 2.875358 1_454
O11_1 Tm3_0 2.255543 1_555
O11_1 Tm0_4 2.289451 1_455
O11_1 Tm0_0 2.315487 1_555
O11_1 O8_0 2.871615 1_555
O11_1 O8_4 2.875358 1_455
O11_2 Tm3_3 2.255543 1_554
O11_2 Tm0_7 2.289451 1_454
O11_2 Tm0_3 2.315487 1_554
O11_2 O8_3 2.871615 1_554
O11_2 O8_7 2.875358 1_454
O11_3 Tm3_2 2.255543 1_555
O11_3 Tm0_6 2.289451 1_455
O11_3 Tm0_2 2.315487 1_555
O11_3 O8_2 2.871615 1_555
O11_3 O8_6 2.875358 1_455
O11_4 Tm3_5 2.255543 1_554
O11_4 Tm0_1 2.289451 1_554
O11_4 Tm0_5 2.315487 1_554
O11_4 O8_5 2.871615 1_554
O11_4 O8_1 2.875358 1_554
O11_5 Tm3_4 2.255543 1_555
O11_5 Tm0_0 2.289451 1_555
O11_5 Tm0_4 2.315487 1_555
O11_5 O8_4 2.871615 1_555
O11_5 O8_0 2.875358 1_555
O11_6 Tm3_7 2.255543 1_554
O11_6 Tm0_3 2.289451 1_554
O11_6 Tm0_7 2.315487 1_554
O11_6 O8_7 2.871615 1_554
O11_6 O8_3 2.875358 1_554
O11_7 Tm3_6 2.255543 1_555
O11_7 Tm0_2 2.289451 1_555
O11_7 Tm0_6 2.315487 1_555
O11_7 O8_6 2.871615 1_555
O11_7 O8_2 2.875358 1_555
