# generated using pymatgen
data_Li4MnCo2O7
_symmetry_space_group_name_H-M   'P 1'
_cell_length_a   5.90073500
_cell_length_b   6.52641924
_cell_length_c   7.66502536
_cell_angle_alpha   114.85281733
_cell_angle_beta   98.88639621
_cell_angle_gamma   104.12715963
_symmetry_Int_Tables_number   1
_chemical_formula_structural   Li4MnCo2O7
_chemical_formula_sum   'Li8 Mn2 Co4 O14'
_cell_volume   248.41717727
_cell_formula_units_Z   2
loop_
 _symmetry_equiv_pos_site_id
 _symmetry_equiv_pos_as_xyz
  1  'x, y, z'
loop_
 _atom_site_type_symbol
 _atom_site_label
 _atom_site_symmetry_multiplicity
 _atom_site_fract_x
 _atom_site_fract_y
 _atom_site_fract_z
 _atom_site_occupancy
  Li  Li0  1  0.78240000  0.43454100  0.85328500  1
  Li  Li1  1  0.07306700  0.85933600  0.71408600  1
  Li  Li2  1  0.35800300  0.28405600  0.56938400  1
  Li  Li3  1  0.64147900  0.71537500  0.43421000  1
  Li  Li4  1  0.93312300  0.14273600  0.28996400  1
  Li  Li5  1  0.21366800  0.57111200  0.14183900  1
  Li  Li6  1  0.49758400  0.99357300  0.99436100  1
  Li  Li7  1  0.57311900  0.85605600  0.71388400  1
  Mn  Mn0  1  0.99841000  0.99972900  0.99824400  1
  Mn  Mn1  1  0.28879100  0.43153000  0.85618900  1
  Co  Co0  1  0.85789000  0.27924800  0.57373700  1
  Co  Co1  1  0.15229200  0.71476500  0.43290600  1
  Co  Co2  1  0.43604000  0.13851900  0.29584900  1
  Co  Co3  1  0.70349600  0.57666200  0.13915600  1
  O  O0  1  0.11123300  0.27612200  0.05854000  1
  O  O1  1  0.38735000  0.69244100  0.92571300  1
  O  O2  1  0.71804900  0.13933100  0.78904700  1
  O  O3  1  0.98877100  0.55044500  0.65377800  1
  O  O4  1  0.24912800  0.99593300  0.48350300  1
  O  O5  1  0.54030800  0.43277600  0.34798800  1
  O  O6  1  0.82927700  0.86436700  0.20144900  1
  O  O7  1  0.44821500  0.56210700  0.65018000  1
  O  O8  1  0.74680000  0.02397200  0.49243200  1
  O  O9  1  0.02001600  0.43631000  0.36897700  1
  O  O10  1  0.29692200  0.86778500  0.20433600  1
  O  O11  1  0.57696200  0.29671000  0.06234500  1
  O  O12  1  0.89390300  0.72123600  0.94848300  1
  O  O13  1  0.18370300  0.14322600  0.80613900  1
loop_
_geom_bond_atom_site_label_1
_geom_bond_atom_site_label_2
_geom_bond_distance
_geom_bond_site_symmetry_2
Li0 O12 1.602933 1_555
Li0 O2 1.698927 1_555
Li1 O13 1.589091 1_565
Li1 O3 1.783620 1_455
Li1 Mn0 2.143263 1_455
Li2 O7 1.562653 1_555
Li2 O4 1.618995 1_545
Li2 Mn1 2.148645 1_555
Li3 O5 1.584569 1_555
Li3 O8 1.785921 1_565
Li3 Li7 2.096348 1_555
Li4 O6 1.558337 1_545
Li4 O9 1.658254 1_655
Li4 Mn0 2.169514 1_544
Li5 O0 1.661014 1_555
Li5 O10 1.703834 1_555
Li5 Mn1 2.154233 1_554
Li6 O1 1.721451 1_555
Li6 O11 1.735123 1_566
Li6 Li7 2.120259 1_555
Li7 O2 1.631533 1_565
Li7 O7 1.695055 1_555
Mn0 O0 1.590173 1_666
Mn0 O12 1.620727 1_555
Mn1 O1 1.476431 1_555
Mn1 O13 1.679960 1_555
Co0 O8 1.435856 1_555
Co0 O3 1.542441 1_555
Co0 Li0 2.122914 1_555
Co0 Li4 2.141135 1_555
Co1 O9 1.610228 1_555
Co1 O4 1.632694 1_555
Co1 Li1 2.138025 1_555
Co1 Li5 2.155185 1_555
Co2 O10 1.536282 1_545
Co2 O5 1.711279 1_555
Co2 Li2 2.085179 1_555
Co2 Li6 2.226317 1_544
Co3 O11 1.592606 1_555
Co3 O6 1.661668 1_555
Co3 Li0 2.167046 1_554
Co3 Li3 2.182819 1_555
O0 O13 1.924632 1_554
O1 O7 2.046054 1_555
O2 O8 2.123058 1_555
O3 O9 2.044234 1_655
O10 O4 2.038408 1_555
O11 O5 2.057872 1_555
O12 O6 1.912466 1_556
