# generated using pymatgen
data_K3DySi2O7
_symmetry_space_group_name_H-M   'P 1'
_cell_length_a   9.85666341
_cell_length_b   9.85666341
_cell_length_c   14.33764242
_cell_angle_alpha   90.00000000
_cell_angle_beta   90.00000000
_cell_angle_gamma   120.00000260
_symmetry_Int_Tables_number   1
_chemical_formula_structural   K3DySi2O7
_chemical_formula_sum   'K18 Dy6 Si12 O42'
_cell_volume   1206.33580346
_cell_formula_units_Z   6
loop_
 _symmetry_equiv_pos_site_id
 _symmetry_equiv_pos_as_xyz
  1  'x, y, z'
loop_
 _atom_site_type_symbol
 _atom_site_label
 _atom_site_symmetry_multiplicity
 _atom_site_fract_x
 _atom_site_fract_y
 _atom_site_fract_z
 _atom_site_occupancy
  K  K0  1  0.00000000  0.00000000  0.50000000  1
  K  K1  1  0.33216260  0.00000000  0.09099924  1
  K  K2  1  0.33216260  0.33216260  0.59099924  1
  K  K3  1  1.00000000  0.66783740  0.59099924  1
  K  K4  1  0.00000000  0.33216260  0.09099924  1
  K  K5  1  0.66783740  0.66783740  0.09099924  1
  K  K6  1  0.33216260  0.00000000  0.40900076  1
  K  K7  1  0.00000000  0.00000000  0.00000000  1
  K  K8  1  0.33333300  0.66666700  0.75000000  1
  K  K9  1  0.66666700  0.33333300  0.25000000  1
  K  K10  1  0.66666700  0.33333300  0.75000000  1
  K  K11  1  0.33333300  0.66666700  0.25000000  1
  K  K12  1  0.66783740  0.66783740  0.40900076  1
  K  K13  1  0.66783740  1.00000000  0.90900076  1
  K  K14  1  1.00000000  0.66783740  0.90900076  1
  K  K15  1  0.00000000  0.33216260  0.40900076  1
  K  K16  1  0.66783740  1.00000000  0.59099924  1
  K  K17  1  0.33216260  0.33216260  0.90900076  1
  Dy  Dy0  1  0.00000000  0.00000000  0.75000000  1
  Dy  Dy1  1  0.33333300  0.66666700  0.00000000  1
  Dy  Dy2  1  0.66666700  0.33333300  0.50000000  1
  Dy  Dy3  1  0.66666700  0.33333300  0.00000000  1
  Dy  Dy4  1  0.33333300  0.66666700  0.50000000  1
  Dy  Dy5  1  0.00000000  0.00000000  0.25000000  1
  Si  Si0  1  0.65824063  0.65824063  0.85718364  1
  Si  Si1  1  0.34175937  0.00000000  0.85718364  1
  Si  Si2  1  0.00000000  0.34175937  0.85718364  1
  Si  Si3  1  1.00000000  0.65824063  0.35718364  1
  Si  Si4  1  0.34175937  0.00000000  0.64281636  1
  Si  Si5  1  0.34175937  0.34175937  0.35718364  1
  Si  Si6  1  0.65824063  1.00000000  0.35718364  1
  Si  Si7  1  0.34175937  0.34175937  0.14281636  1
  Si  Si8  1  1.00000000  0.65824063  0.14281636  1
  Si  Si9  1  0.00000000  0.34175937  0.64281636  1
  Si  Si10  1  0.65824063  0.65824063  0.64281636  1
  Si  Si11  1  0.65824063  1.00000000  0.14281636  1
  O  O0  1  0.40789151  1.00000000  0.75000000  1
  O  O1  1  0.40789151  0.40789151  0.25000000  1
  O  O2  1  0.00000000  0.59210849  0.25000000  1
  O  O3  1  1.00000000  0.40789151  0.75000000  1
  O  O4  1  0.59210849  0.59210849  0.75000000  1
  O  O5  1  0.59210849  0.00000000  0.25000000  1
  O  O6  1  0.82271705  0.82271705  0.85219789  1
  O  O7  1  0.17728295  0.00000000  0.85219789  1
  O  O8  1  0.00000000  0.17728295  0.85219789  1
  O  O9  1  -0.00000000  0.82271705  0.35219789  1
  O  O10  1  0.17728295  0.00000000  0.64780211  1
  O  O11  1  0.17728295  0.17728295  0.35219789  1
  O  O12  1  0.82271705  -0.00000000  0.35219789  1
  O  O13  1  0.17728295  0.17728295  0.14780211  1
  O  O14  1  -0.00000000  0.82271705  0.14780211  1
  O  O15  1  0.00000000  0.17728295  0.64780211  1
  O  O16  1  0.82271705  0.82271705  0.64780211  1
  O  O17  1  0.82271705  -0.00000000  0.14780211  1
  O  O18  1  0.32174457  0.84442191  0.90825602  1
  O  O19  1  0.15557809  0.47732366  0.90825602  1
  O  O20  1  0.52267634  0.67825543  0.90825602  1
  O  O21  1  0.47732366  0.32174457  0.40825602  1
  O  O22  1  0.67825543  0.52267634  0.59174398  1
  O  O23  1  0.67825543  0.15557809  0.40825602  1
  O  O24  1  0.84442191  0.52267634  0.40825602  1
  O  O25  1  0.15557809  0.67825543  0.09174398  1
  O  O26  1  0.52267634  0.84442191  0.09174398  1
  O  O27  1  0.47732366  0.15557809  0.59174398  1
  O  O28  1  0.84442191  0.32174457  0.59174398  1
  O  O29  1  0.32174457  0.47732366  0.09174398  1
  O  O30  1  0.67825543  0.15557809  0.09174398  1
  O  O31  1  0.84442191  0.52267634  0.09174398  1
  O  O32  1  0.47732366  0.32174457  0.09174398  1
  O  O33  1  0.52267634  0.67825543  0.59174398  1
  O  O34  1  0.32174457  0.47732366  0.40825602  1
  O  O35  1  0.32174457  0.84442191  0.59174398  1
  O  O36  1  0.67825543  0.52267634  0.90825602  1
  O  O37  1  0.15557809  0.67825543  0.40825602  1
  O  O38  1  0.52267634  0.84442191  0.40825602  1
  O  O39  1  0.47732366  0.15557809  0.90825602  1
  O  O40  1  0.84442191  0.32174457  0.90825602  1
  O  O41  1  0.15557809  0.47732366  0.59174398  1
loop_
_geom_bond_atom_site_label_1
_geom_bond_atom_site_label_2
_geom_bond_distance
_geom_bond_site_symmetry_2
K0 O16 2.746670 1_445
K0 O11 2.746670 1_555
K0 O9 2.746671 1_545
K0 O12 2.746671 1_455
K0 O15 2.746671 1_555
K0 O10 2.746671 1_555
K0 K2 3.524408 1_555
K0 K12 3.524408 1_445
K0 K6 3.524408 1_555
K0 K15 3.524408 1_555
K0 K16 3.524408 1_445
K0 K3 3.524408 1_445
K1 O32 2.750834 1_555
K1 O25 2.750834 1_545
K1 O14 2.952092 1_545
K1 O13 2.952092 1_555
K1 O26 2.959314 1_545
K1 O30 2.959323 1_555
K1 O18 3.011578 1_544
K1 O39 3.011580 1_554
K1 O5 3.429560 1_555
K1 K7 3.524408 1_555
K2 O27 2.750843 1_555
K2 O41 2.750843 1_555
K2 O15 2.952092 1_555
K2 O10 2.952092 1_555
K2 O22 2.959322 1_555
K2 O33 2.959322 1_555
K2 O34 3.011583 1_555
K2 O21 3.011583 1_555
K2 O4 3.429559 1_555
K3 O22 2.750834 1_555
K3 O35 2.750834 1_655
K3 O10 2.952092 1_665
K3 O16 2.952092 1_555
K3 O41 2.959314 1_655
K3 O28 2.959323 1_555
K3 O37 3.011578 1_655
K3 O24 3.011580 1_555
K3 O3 3.429560 1_555
K4 O29 2.750834 1_555
K4 O30 2.750834 1_455
K4 O17 2.952092 1_455
K4 O13 2.952092 1_555
K4 O31 2.959314 1_455
K4 O25 2.959323 1_555
K4 O40 3.011578 1_454
K4 O19 3.011580 1_554
K4 O2 3.429560 1_555
K4 K7 3.524408 1_555
K5 O31 2.750843 1_555
K5 O26 2.750843 1_555
K5 O17 2.952092 1_565
K5 O14 2.952092 1_655
K5 O32 2.959322 1_555
K5 O29 2.959322 1_555
K5 O20 3.011583 1_554
K5 O36 3.011583 1_554
K5 O1 3.429559 1_555
K5 K7 3.524408 1_665
K6 O21 2.750834 1_555
K6 O37 2.750834 1_545
K6 O9 2.952092 1_545
K6 O11 2.952092 1_555
K6 O38 2.959314 1_545
K6 O23 2.959323 1_555
K6 O35 3.011578 1_545
K6 O27 3.011580 1_555
K6 O5 3.429560 1_555
K7 O6 2.746670 1_444
K7 O13 2.746670 1_555
K7 O8 2.746671 1_554
K7 O7 2.746671 1_554
K7 O17 2.746671 1_455
K7 O14 2.746671 1_545
K8 O41 2.903682 1_555
K8 O19 2.903682 1_555
K8 O33 2.903682 1_555
K8 O20 2.903682 1_555
K8 O35 2.903682 1_555
K8 O18 2.903682 1_555
K8 O0 2.986700 1_555
K8 O3 2.986703 1_455
K8 O4 2.986710 1_555
K9 O24 2.903682 1_555
K9 O31 2.903682 1_555
K9 O21 2.903682 1_555
K9 O32 2.903682 1_555
K9 O23 2.903682 1_555
K9 O30 2.903682 1_555
K9 O5 2.986700 1_555
K9 O2 2.986703 1_655
K9 O1 2.986710 1_555
K10 O27 2.903682 1_555
K10 O39 2.903682 1_555
K10 O22 2.903682 1_555
K10 O36 2.903682 1_555
K10 O28 2.903682 1_555
K10 O40 2.903682 1_555
K10 O3 2.986700 1_555
K10 O0 2.986703 1_545
K10 O4 2.986710 1_555
K11 O26 2.903682 1_555
K11 O38 2.903682 1_555
K11 O29 2.903682 1_555
K11 O34 2.903682 1_555
K11 O37 2.903682 1_555
K11 O25 2.903682 1_555
K11 O2 2.986700 1_555
K11 O5 2.986703 1_565
K11 O1 2.986710 1_555
K12 O24 2.750843 1_555
K12 O38 2.750843 1_555
K12 O12 2.952092 1_565
K12 O9 2.952092 1_655
K12 O21 2.959322 1_555
K12 O34 2.959322 1_555
K12 O33 3.011583 1_555
K12 O22 3.011583 1_555
K12 O1 3.429559 1_555
K13 O20 2.750834 1_555
K13 O40 2.750834 1_565
K13 O8 2.952092 1_665
K13 O6 2.952092 1_555
K13 O39 2.959314 1_565
K13 O18 2.959323 1_555
K13 O30 3.011578 1_566
K13 O26 3.011580 1_556
K13 O0 3.429560 1_555
K13 K7 3.524408 1_666
K14 O36 2.750834 1_555
K14 O18 2.750834 1_655
K14 O7 2.952092 1_665
K14 O6 2.952092 1_555
K14 O19 2.959314 1_655
K14 O40 2.959323 1_555
K14 O25 3.011578 1_656
K14 O31 3.011580 1_556
K14 O3 3.429560 1_555
K14 K7 3.524408 1_666
K15 O34 2.750834 1_555
K15 O23 2.750834 1_455
K15 O12 2.952092 1_455
K15 O11 2.952092 1_555
K15 O24 2.959314 1_455
K15 O37 2.959323 1_555
K15 O28 3.011578 1_455
K15 O41 3.011580 1_555
K15 O2 3.429560 1_555
K16 O33 2.750834 1_555
K16 O28 2.750834 1_565
K16 O15 2.952092 1_665
K16 O16 2.952092 1_555
K16 O27 2.959314 1_565
K16 O35 2.959323 1_555
K16 O23 3.011578 1_565
K16 O38 3.011580 1_555
K16 O0 3.429560 1_555
K17 O39 2.750843 1_555
K17 O19 2.750843 1_555
K17 O7 2.952092 1_555
K17 O8 2.952092 1_555
K17 O36 2.959322 1_555
K17 O20 2.959322 1_555
K17 O32 3.011583 1_556
K17 O29 3.011583 1_556
K17 O4 3.429559 1_555
K17 K7 3.524408 1_556
Dy0 O6 2.280462 1_445
Dy0 O16 2.280462 1_445
Dy0 O15 2.280462 1_555
Dy0 O8 2.280462 1_555
Dy0 O10 2.280462 1_555
Dy0 O7 2.280462 1_555
Dy1 O19 2.239013 1_554
Dy1 O26 2.239013 1_555
Dy1 O20 2.239014 1_554
Dy1 O29 2.239014 1_555
Dy1 O18 2.239014 1_554
Dy1 O25 2.239014 1_555
Dy2 O24 2.239013 1_555
Dy2 O27 2.239013 1_555
Dy2 O22 2.239014 1_555
Dy2 O21 2.239014 1_555
Dy2 O23 2.239014 1_555
Dy2 O28 2.239014 1_555
Dy3 O31 2.239013 1_555
Dy3 O39 2.239013 1_554
Dy3 O36 2.239014 1_554
Dy3 O32 2.239014 1_555
Dy3 O40 2.239014 1_554
Dy3 O30 2.239014 1_555
Dy4 O38 2.239013 1_555
Dy4 O41 2.239013 1_555
Dy4 O34 2.239014 1_555
Dy4 O33 2.239014 1_555
Dy4 O37 2.239014 1_555
Dy4 O35 2.239014 1_555
Dy5 O13 2.280462 1_555
Dy5 O11 2.280462 1_555
Dy5 O14 2.280462 1_545
Dy5 O17 2.280462 1_455
Dy5 O9 2.280462 1_545
Dy5 O12 2.280462 1_455
O0 Si4 1.669291 1_565
O0 Si1 1.669291 1_565
O1 Si7 1.669291 1_555
O1 Si5 1.669291 1_555
O2 Si8 1.669291 1_455
O2 Si3 1.669291 1_455
O3 Si2 1.669291 1_655
O3 Si9 1.669291 1_655
O4 Si10 1.669291 1_555
O4 Si0 1.669291 1_555
O5 Si11 1.669291 1_545
O5 Si6 1.669291 1_545
O6 Si0 1.622764 1_555
O7 Si1 1.622764 1_555
O8 Si2 1.622764 1_555
O9 Si3 1.622764 1_455
O10 Si4 1.622764 1_555
O11 Si5 1.622764 1_555
O12 Si6 1.622764 1_545
O13 Si7 1.622764 1_555
O14 Si8 1.622764 1_455
O15 Si9 1.622764 1_555
O16 Si10 1.622764 1_555
O17 Si11 1.622764 1_545
O18 Si1 1.619926 1_565
O19 Si2 1.619929 1_555
O20 Si0 1.619935 1_555
O21 Si5 1.619935 1_555
O22 Si10 1.619935 1_555
O23 Si6 1.619926 1_545
O24 Si3 1.619929 1_555
O25 Si8 1.619926 1_455
O26 Si11 1.619929 1_555
O27 Si4 1.619929 1_555
O28 Si9 1.619926 1_655
O29 Si7 1.619935 1_555
O30 Si11 1.619926 1_545
O31 Si8 1.619929 1_555
O32 Si7 1.619935 1_555
O33 Si10 1.619935 1_555
O34 Si5 1.619935 1_555
O35 Si4 1.619926 1_565
O36 Si0 1.619935 1_555
O37 Si3 1.619926 1_455
O38 Si6 1.619929 1_555
O39 Si1 1.619929 1_555
O40 Si2 1.619926 1_655
O41 Si9 1.619929 1_555
