# generated using pymatgen
data_NiO3
_symmetry_space_group_name_H-M   'P 1'
_cell_length_a   7.25679347
_cell_length_b   7.25679347
_cell_length_c   16.78586600
_cell_angle_alpha   90.00000000
_cell_angle_beta   90.00000000
_cell_angle_gamma   112.98789360
_symmetry_Int_Tables_number   1
_chemical_formula_structural   NiO3
_chemical_formula_sum   'Ni8 O24'
_cell_volume   813.76367713
_cell_formula_units_Z   8
loop_
 _symmetry_equiv_pos_site_id
 _symmetry_equiv_pos_as_xyz
  1  'x, y, z'
loop_
 _atom_site_type_symbol
 _atom_site_label
 _atom_site_symmetry_multiplicity
 _atom_site_fract_x
 _atom_site_fract_y
 _atom_site_fract_z
 _atom_site_occupancy
  Ni  Ni0_0  1  0.00000000  0.00000000  0.00000000  1
  Ni  Ni0_1  1  0.00000000  0.00000000  0.50000000  1
  Ni  Ni0_2  1  0.00000000  0.50000000  0.00000000  1
  Ni  Ni0_3  1  0.00000000  0.50000000  0.50000000  1
  Ni  Ni0_4  1  0.50000000  0.00000000  0.00000000  1
  Ni  Ni0_5  1  0.50000000  0.00000000  0.50000000  1
  Ni  Ni0_6  1  0.50000000  0.50000000  0.00000000  1
  Ni  Ni0_7  1  0.50000000  0.50000000  0.50000000  1
  O  O0_0  1  0.00000000  0.00000000  0.25000000  1
  O  O0_1  1  0.00000000  0.00000000  0.75000000  1
  O  O0_2  1  0.00000000  0.50000000  0.25000000  1
  O  O0_3  1  0.00000000  0.50000000  0.75000000  1
  O  O0_4  1  0.50000000  0.00000000  0.25000000  1
  O  O0_5  1  0.50000000  0.00000000  0.75000000  1
  O  O0_6  1  0.50000000  0.50000000  0.25000000  1
  O  O0_7  1  0.50000000  0.50000000  0.75000000  1
  O  O1_0  1  0.25000000  0.00000000  0.00000000  1
  O  O1_1  1  0.25000000  0.00000000  0.50000000  1
  O  O1_2  1  0.25000000  0.50000000  0.00000000  1
  O  O1_3  1  0.25000000  0.50000000  0.50000000  1
  O  O1_4  1  0.75000000  0.00000000  0.00000000  1
  O  O1_5  1  0.75000000  0.00000000  0.50000000  1
  O  O1_6  1  0.75000000  0.50000000  0.00000000  1
  O  O1_7  1  0.75000000  0.50000000  0.50000000  1
  O  O2_0  1  0.00000000  0.25000000  0.00000000  1
  O  O2_1  1  0.00000000  0.25000000  0.50000000  1
  O  O2_2  1  0.00000000  0.75000000  0.00000000  1
  O  O2_3  1  0.00000000  0.75000000  0.50000000  1
  O  O2_4  1  0.50000000  0.25000000  0.00000000  1
  O  O2_5  1  0.50000000  0.25000000  0.50000000  1
  O  O2_6  1  0.50000000  0.75000000  0.00000000  1
  O  O2_7  1  0.50000000  0.75000000  0.50000000  1
loop_
_geom_bond_atom_site_label_1
_geom_bond_atom_site_label_2
_geom_bond_distance
_geom_bond_site_symmetry_2
Ni0_0 O2_0 1.814198 1_555
Ni0_0 O1_0 1.814198 1_555
Ni0_0 O2_2 1.814198 1_545
Ni0_0 O1_4 1.814198 1_455
Ni0_0 O0_0 4.196466 1_555
Ni0_0 O0_1 4.196466 1_554
Ni0_1 O1_1 1.814198 1_555
Ni0_1 O1_5 1.814198 1_455
Ni0_1 O2_1 1.814198 1_555
Ni0_1 O2_3 1.814198 1_545
Ni0_1 O0_0 4.196466 1_555
Ni0_1 O0_1 4.196466 1_555
Ni0_2 O1_6 1.814198 1_455
Ni0_2 O2_0 1.814198 1_555
Ni0_2 O2_2 1.814198 1_555
Ni0_2 O1_2 1.814198 1_555
Ni0_2 O0_3 4.196466 1_554
Ni0_2 O0_2 4.196466 1_555
Ni0_3 O1_7 1.814198 1_455
Ni0_3 O2_3 1.814198 1_555
Ni0_3 O2_1 1.814198 1_555
Ni0_3 O1_3 1.814198 1_555
Ni0_3 O0_2 4.196466 1_555
Ni0_3 O0_3 4.196466 1_555
Ni0_4 O2_6 1.814198 1_545
Ni0_4 O1_4 1.814198 1_555
Ni0_4 O1_0 1.814198 1_555
Ni0_4 O2_4 1.814198 1_555
Ni0_4 O0_4 4.196466 1_555
Ni0_4 O0_5 4.196466 1_554
Ni0_5 O2_7 1.814198 1_545
Ni0_5 O1_1 1.814198 1_555
Ni0_5 O1_5 1.814198 1_555
Ni0_5 O2_5 1.814198 1_555
Ni0_5 O0_4 4.196466 1_555
Ni0_5 O0_5 4.196466 1_555
Ni0_6 O2_4 1.814198 1_555
Ni0_6 O1_2 1.814198 1_555
Ni0_6 O2_6 1.814198 1_555
Ni0_6 O1_6 1.814198 1_555
Ni0_6 O0_6 4.196466 1_555
Ni0_6 O0_7 4.196466 1_554
Ni0_7 O2_5 1.814198 1_555
Ni0_7 O1_3 1.814198 1_555
Ni0_7 O2_7 1.814198 1_555
Ni0_7 O1_7 1.814198 1_555
Ni0_7 O0_6 4.196466 1_555
Ni0_7 O0_7 4.196466 1_555
O0_0 O0_2 3.628397 1_545
O0_0 O0_4 3.628397 1_455
O0_0 O0_4 3.628397 1_555
O0_0 O0_2 3.628397 1_555
O0_0 O0_6 4.005932 1_555
O0_0 O0_6 4.005932 1_445
O0_1 O0_5 3.628397 1_455
O0_1 O0_3 3.628397 1_545
O0_1 O0_5 3.628397 1_555
O0_1 O0_3 3.628397 1_555
O0_1 O0_7 4.005932 1_445
O0_1 O0_7 4.005932 1_555
O0_2 O0_6 3.628397 1_455
O0_2 O0_6 3.628397 1_555
O0_2 O0_4 4.005932 1_565
O0_2 O0_4 4.005932 1_455
O0_3 O0_7 3.628397 1_455
O0_3 O0_7 3.628397 1_555
O0_3 O0_5 4.005932 1_565
O0_3 O0_5 4.005932 1_455
O0_4 O0_6 3.628397 1_545
O0_4 O0_6 3.628397 1_555
O0_5 O0_7 3.628397 1_555
O0_5 O0_7 3.628397 1_545
O1_0 O2_2 2.002966 1_545
O1_0 O2_4 2.002966 1_555
O1_1 O2_5 2.002966 1_555
O1_1 O2_3 2.002966 1_545
O1_2 O2_0 2.002966 1_555
O1_2 O2_6 2.002966 1_555
O1_3 O2_1 2.002966 1_555
O1_3 O2_7 2.002966 1_555
O1_4 O2_6 2.002966 1_545
O1_4 O2_0 2.002966 1_655
O1_5 O2_7 2.002966 1_545
O1_5 O2_1 2.002966 1_655
O1_6 O2_2 2.002966 1_655
O1_6 O2_4 2.002966 1_555
O1_7 O2_3 2.002966 1_655
O1_7 O2_5 2.002966 1_555
