# generated using pymatgen
data_AlCrTc2
_symmetry_space_group_name_H-M   'P 1'
_cell_length_a   10.22074562
_cell_length_b   10.22074562
_cell_length_c   10.22074562
_cell_angle_alpha   126.03415322
_cell_angle_beta   118.70500484
_cell_angle_gamma   86.06828631
_symmetry_Int_Tables_number   1
_chemical_formula_structural   AlCrTc2
_chemical_formula_sum   'Al1 Cr1 Tc2'
_cell_volume   722.01739318
_cell_formula_units_Z   1
loop_
 _symmetry_equiv_pos_site_id
 _symmetry_equiv_pos_as_xyz
  1  'x, y, z'
loop_
 _atom_site_type_symbol
 _atom_site_label
 _atom_site_symmetry_multiplicity
 _atom_site_fract_x
 _atom_site_fract_y
 _atom_site_fract_z
 _atom_site_occupancy
  Al  Al0  1  0.00000000  0.00000000  0.00000000  1
  Cr  Cr0  1  0.00000000  0.50000000  0.50000000  1
  Tc  Tc0  1  0.00000000  0.27004400  0.27004400  1
  Tc  Tc1  1  0.00000000  0.72995600  0.72995600  1
loop_
_geom_bond_atom_site_label_1
_geom_bond_atom_site_label_2
_geom_bond_distance
_geom_bond_site_symmetry_2
Al0 Tc0 2.504608 1_555
Al0 Tc1 2.504608 1_544
Cr0 Tc1 2.132799 1_555
Cr0 Tc0 2.132799 1_555
