# generated using pymatgen
data_MgWO2
_symmetry_space_group_name_H-M   'P 1'
_cell_length_a   5.91898600
_cell_length_b   15.84582512
_cell_length_c   16.87631549
_cell_angle_alpha   92.47932286
_cell_angle_beta   95.82652281
_cell_angle_gamma   96.48951068
_symmetry_Int_Tables_number   1
_chemical_formula_structural   MgWO2
_chemical_formula_sum   'Mg32 W32 O64'
_cell_volume   1562.18292418
_cell_formula_units_Z   32
loop_
 _symmetry_equiv_pos_site_id
 _symmetry_equiv_pos_as_xyz
  1  'x, y, z'
loop_
 _atom_site_type_symbol
 _atom_site_label
 _atom_site_symmetry_multiplicity
 _atom_site_fract_x
 _atom_site_fract_y
 _atom_site_fract_z
 _atom_site_occupancy
  Mg  Mg0_0  1  0.33200100  0.49612250  0.16421150  1
  Mg  Mg0_1  1  0.33200100  0.49612250  0.66421150  1
  Mg  Mg0_2  1  0.33200100  0.99612250  0.16421150  1
  Mg  Mg0_3  1  0.33200100  0.99612250  0.66421150  1
  Mg  Mg0_4  1  0.83200100  0.49612250  0.16421150  1
  Mg  Mg0_5  1  0.83200100  0.49612250  0.66421150  1
  Mg  Mg0_6  1  0.83200100  0.99612250  0.16421150  1
  Mg  Mg0_7  1  0.83200100  0.99612250  0.66421150  1
  Mg  Mg1_0  1  0.26951050  0.02546450  0.37717850  1
  Mg  Mg1_1  1  0.26951050  0.02546450  0.87717850  1
  Mg  Mg1_2  1  0.26951050  0.52546450  0.37717850  1
  Mg  Mg1_3  1  0.26951050  0.52546450  0.87717850  1
  Mg  Mg1_4  1  0.76951050  0.02546450  0.37717850  1
  Mg  Mg1_5  1  0.76951050  0.02546450  0.87717850  1
  Mg  Mg1_6  1  0.76951050  0.52546450  0.37717850  1
  Mg  Mg1_7  1  0.76951050  0.52546450  0.87717850  1
  Mg  Mg2_0  1  0.16149750  0.15489550  0.04118200  1
  Mg  Mg2_1  1  0.16149750  0.15489550  0.54118200  1
  Mg  Mg2_2  1  0.16149750  0.65489550  0.04118200  1
  Mg  Mg2_3  1  0.16149750  0.65489550  0.54118200  1
  Mg  Mg2_4  1  0.66149750  0.15489550  0.04118200  1
  Mg  Mg2_5  1  0.66149750  0.15489550  0.54118200  1
  Mg  Mg2_6  1  0.66149750  0.65489550  0.04118200  1
  Mg  Mg2_7  1  0.66149750  0.65489550  0.54118200  1
  Mg  Mg3_0  1  0.46586450  0.34507050  0.49400050  1
  Mg  Mg3_1  1  0.46586450  0.34507050  0.99400050  1
  Mg  Mg3_2  1  0.46586450  0.84507050  0.49400050  1
  Mg  Mg3_3  1  0.46586450  0.84507050  0.99400050  1
  Mg  Mg3_4  1  0.96586450  0.34507050  0.49400050  1
  Mg  Mg3_5  1  0.96586450  0.34507050  0.99400050  1
  Mg  Mg3_6  1  0.96586450  0.84507050  0.49400050  1
  Mg  Mg3_7  1  0.96586450  0.84507050  0.99400050  1
  W  W0_0  1  0.17336400  0.34594550  0.31078600  1
  W  W0_1  1  0.17336400  0.34594550  0.81078600  1
  W  W0_2  1  0.17336400  0.84594550  0.31078600  1
  W  W0_3  1  0.17336400  0.84594550  0.81078600  1
  W  W0_4  1  0.67336400  0.34594550  0.31078600  1
  W  W0_5  1  0.67336400  0.34594550  0.81078600  1
  W  W0_6  1  0.67336400  0.84594550  0.31078600  1
  W  W0_7  1  0.67336400  0.84594550  0.81078600  1
  W  W1_0  1  0.49717150  0.31031550  0.15827800  1
  W  W1_1  1  0.49717150  0.31031550  0.65827800  1
  W  W1_2  1  0.49717150  0.81031550  0.15827800  1
  W  W1_3  1  0.49717150  0.81031550  0.65827800  1
  W  W1_4  1  0.99717150  0.31031550  0.15827800  1
  W  W1_5  1  0.99717150  0.31031550  0.65827800  1
  W  W1_6  1  0.99717150  0.81031550  0.15827800  1
  W  W1_7  1  0.99717150  0.81031550  0.65827800  1
  W  W2_0  1  0.47622550  0.19933100  0.35089000  1
  W  W2_1  1  0.47622550  0.19933100  0.85089000  1
  W  W2_2  1  0.47622550  0.69933100  0.35089000  1
  W  W2_3  1  0.47622550  0.69933100  0.85089000  1
  W  W2_4  1  0.97622550  0.19933100  0.35089000  1
  W  W2_5  1  0.97622550  0.19933100  0.85089000  1
  W  W2_6  1  0.97622550  0.69933100  0.35089000  1
  W  W2_7  1  0.97622550  0.69933100  0.85089000  1
  W  W3_0  1  0.13777300  0.17027200  0.22513900  1
  W  W3_1  1  0.13777300  0.17027200  0.72513900  1
  W  W3_2  1  0.13777300  0.67027200  0.22513900  1
  W  W3_3  1  0.13777300  0.67027200  0.72513900  1
  W  W3_4  1  0.63777300  0.17027200  0.22513900  1
  W  W3_5  1  0.63777300  0.17027200  0.72513900  1
  W  W3_6  1  0.63777300  0.67027200  0.22513900  1
  W  W3_7  1  0.63777300  0.67027200  0.72513900  1
  O  O0_0  1  0.37653450  0.08283050  0.27458600  1
  O  O0_1  1  0.37653450  0.08283050  0.77458600  1
  O  O0_2  1  0.37653450  0.58283050  0.27458600  1
  O  O0_3  1  0.37653450  0.58283050  0.77458600  1
  O  O0_4  1  0.87653450  0.08283050  0.27458600  1
  O  O0_5  1  0.87653450  0.08283050  0.77458600  1
  O  O0_6  1  0.87653450  0.58283050  0.27458600  1
  O  O0_7  1  0.87653450  0.58283050  0.77458600  1
  O  O1_0  1  0.18476550  0.29148700  0.42355150  1
  O  O1_1  1  0.18476550  0.29148700  0.92355150  1
  O  O1_2  1  0.18476550  0.79148700  0.42355150  1
  O  O1_3  1  0.18476550  0.79148700  0.92355150  1
  O  O1_4  1  0.68476550  0.29148700  0.42355150  1
  O  O1_5  1  0.68476550  0.29148700  0.92355150  1
  O  O1_6  1  0.68476550  0.79148700  0.42355150  1
  O  O1_7  1  0.68476550  0.79148700  0.92355150  1
  O  O2_0  1  0.43986750  0.23539700  0.05385400  1
  O  O2_1  1  0.43986750  0.23539700  0.55385400  1
  O  O2_2  1  0.43986750  0.73539700  0.05385400  1
  O  O2_3  1  0.43986750  0.73539700  0.55385400  1
  O  O2_4  1  0.93986750  0.23539700  0.05385400  1
  O  O2_5  1  0.93986750  0.23539700  0.55385400  1
  O  O2_6  1  0.93986750  0.73539700  0.05385400  1
  O  O2_7  1  0.93986750  0.73539700  0.55385400  1
  O  O3_0  1  0.08870500  0.42883900  0.22056650  1
  O  O3_1  1  0.08870500  0.42883900  0.72056650  1
  O  O3_2  1  0.08870500  0.92883900  0.22056650  1
  O  O3_3  1  0.08870500  0.92883900  0.72056650  1
  O  O3_4  1  0.58870500  0.42883900  0.22056650  1
  O  O3_5  1  0.58870500  0.42883900  0.72056650  1
  O  O3_6  1  0.58870500  0.92883900  0.22056650  1
  O  O3_7  1  0.58870500  0.92883900  0.72056650  1
  O  O4_0  1  0.48060800  0.42944700  0.37757950  1
  O  O4_1  1  0.48060800  0.42944700  0.87757950  1
  O  O4_2  1  0.48060800  0.92944700  0.37757950  1
  O  O4_3  1  0.48060800  0.92944700  0.87757950  1
  O  O4_4  1  0.98060800  0.42944700  0.37757950  1
  O  O4_5  1  0.98060800  0.42944700  0.87757950  1
  O  O4_6  1  0.98060800  0.92944700  0.37757950  1
  O  O4_7  1  0.98060800  0.92944700  0.87757950  1
  O  O5_0  1  0.24417850  0.38196500  0.08279750  1
  O  O5_1  1  0.24417850  0.38196500  0.58279750  1
  O  O5_2  1  0.24417850  0.88196500  0.08279750  1
  O  O5_3  1  0.24417850  0.88196500  0.58279750  1
  O  O5_4  1  0.74417850  0.38196500  0.08279750  1
  O  O5_5  1  0.74417850  0.38196500  0.58279750  1
  O  O5_6  1  0.74417850  0.88196500  0.08279750  1
  O  O5_7  1  0.74417850  0.88196500  0.58279750  1
  O  O6_0  1  0.09186550  0.07799350  0.12881350  1
  O  O6_1  1  0.09186550  0.07799350  0.62881350  1
  O  O6_2  1  0.09186550  0.57799350  0.12881350  1
  O  O6_3  1  0.09186550  0.57799350  0.62881350  1
  O  O6_4  1  0.59186550  0.07799350  0.12881350  1
  O  O6_5  1  0.59186550  0.07799350  0.62881350  1
  O  O6_6  1  0.59186550  0.57799350  0.12881350  1
  O  O6_7  1  0.59186550  0.57799350  0.62881350  1
  O  O7_0  1  0.06345500  0.10495700  0.42939400  1
  O  O7_1  1  0.06345500  0.10495700  0.92939400  1
  O  O7_2  1  0.06345500  0.60495700  0.42939400  1
  O  O7_3  1  0.06345500  0.60495700  0.92939400  1
  O  O7_4  1  0.56345500  0.10495700  0.42939400  1
  O  O7_5  1  0.56345500  0.10495700  0.92939400  1
  O  O7_6  1  0.56345500  0.60495700  0.42939400  1
  O  O7_7  1  0.56345500  0.60495700  0.92939400  1
loop_
_geom_bond_atom_site_label_1
_geom_bond_atom_site_label_2
_geom_bond_distance
_geom_bond_site_symmetry_2
Mg0_0 O3_0 2.033166 1_555
Mg0_0 O6_6 2.051416 1_555
Mg0_0 O6_2 2.090842 1_555
Mg0_0 O3_4 2.123769 1_555
Mg0_0 O5_0 2.203997 1_555
Mg0_0 O0_2 2.241423 1_555
Mg0_1 O3_1 2.033166 1_555
Mg0_1 O6_7 2.051416 1_555
Mg0_1 O6_3 2.090842 1_555
Mg0_1 O3_5 2.123769 1_555
Mg0_1 O5_1 2.203997 1_555
Mg0_1 O0_3 2.241423 1_555
Mg0_2 O3_2 2.033166 1_555
Mg0_2 O6_4 2.051416 1_565
Mg0_2 O6_0 2.090842 1_565
Mg0_2 O3_6 2.123769 1_555
Mg0_2 O5_2 2.203997 1_555
Mg0_2 O0_0 2.241423 1_565
Mg0_3 O3_3 2.033166 1_555
Mg0_3 O6_5 2.051416 1_565
Mg0_3 O6_1 2.090842 1_565
Mg0_3 O3_7 2.123769 1_555
Mg0_3 O5_3 2.203997 1_555
Mg0_3 O0_1 2.241423 1_565
Mg0_4 O3_4 2.033166 1_555
Mg0_4 O6_2 2.051416 1_655
Mg0_4 O6_6 2.090842 1_555
Mg0_4 O3_0 2.123769 1_655
Mg0_4 O5_4 2.203997 1_555
Mg0_4 O0_6 2.241423 1_555
Mg0_5 O3_5 2.033166 1_555
Mg0_5 O6_3 2.051416 1_655
Mg0_5 O6_7 2.090842 1_555
Mg0_5 O3_1 2.123769 1_655
Mg0_5 O5_5 2.203997 1_555
Mg0_5 O0_7 2.241423 1_555
Mg0_6 O3_6 2.033166 1_555
Mg0_6 O6_0 2.051416 1_665
Mg0_6 O6_4 2.090842 1_565
Mg0_6 O3_2 2.123769 1_655
Mg0_6 O5_6 2.203997 1_555
Mg0_6 O0_4 2.241423 1_565
Mg0_7 O3_7 2.033166 1_555
Mg0_7 O6_1 2.051416 1_665
Mg0_7 O6_5 2.090842 1_565
Mg0_7 O3_3 2.123769 1_655
Mg0_7 O5_7 2.203997 1_555
Mg0_7 O0_5 2.241423 1_565
Mg1_0 O4_2 2.074859 1_545
Mg1_0 O7_0 2.078495 1_555
Mg1_0 O0_0 2.110442 1_555
Mg1_0 O7_4 2.118386 1_555
Mg1_0 O4_6 2.157361 1_445
Mg1_1 O4_3 2.074859 1_545
Mg1_1 O7_1 2.078495 1_555
Mg1_1 O0_1 2.110442 1_555
Mg1_1 O7_5 2.118386 1_555
Mg1_1 O4_7 2.157361 1_445
Mg1_2 O4_0 2.074859 1_555
Mg1_2 O7_2 2.078495 1_555
Mg1_2 O0_2 2.110442 1_555
Mg1_2 O7_6 2.118386 1_555
Mg1_2 O4_4 2.157361 1_455
Mg1_3 O4_1 2.074859 1_555
Mg1_3 O7_3 2.078495 1_555
Mg1_3 O0_3 2.110442 1_555
Mg1_3 O7_7 2.118386 1_555
Mg1_3 O4_5 2.157361 1_455
Mg1_4 O4_6 2.074859 1_545
Mg1_4 O7_4 2.078495 1_555
Mg1_4 O0_4 2.110442 1_555
Mg1_4 O7_0 2.118386 1_655
Mg1_4 O4_2 2.157361 1_545
Mg1_5 O4_7 2.074859 1_545
Mg1_5 O7_5 2.078495 1_555
Mg1_5 O0_5 2.110442 1_555
Mg1_5 O7_1 2.118386 1_655
Mg1_5 O4_3 2.157361 1_545
Mg1_6 O4_4 2.074859 1_555
Mg1_6 O7_6 2.078495 1_555
Mg1_6 O0_6 2.110442 1_555
Mg1_6 O7_2 2.118386 1_655
Mg1_6 O4_0 2.157361 1_555
Mg1_7 O4_5 2.074859 1_555
Mg1_7 O7_7 2.078495 1_555
Mg1_7 O0_7 2.110442 1_555
Mg1_7 O7_3 2.118386 1_655
Mg1_7 O4_1 2.157361 1_555
Mg2_0 O2_4 1.950749 1_455
Mg2_0 O2_0 1.953841 1_555
Mg2_0 O6_0 2.002018 1_555
Mg2_0 O7_1 2.016642 1_554
Mg2_1 O2_5 1.950749 1_455
Mg2_1 O2_1 1.953841 1_555
Mg2_1 O6_1 2.002018 1_555
Mg2_1 O7_0 2.016642 1_555
Mg2_2 O2_6 1.950749 1_455
Mg2_2 O2_2 1.953841 1_555
Mg2_2 O6_2 2.002018 1_555
Mg2_2 O7_3 2.016642 1_554
Mg2_3 O2_7 1.950749 1_455
Mg2_3 O2_3 1.953841 1_555
Mg2_3 O6_3 2.002018 1_555
Mg2_3 O7_2 2.016642 1_555
Mg2_4 O2_0 1.950749 1_555
Mg2_4 O2_4 1.953841 1_555
Mg2_4 O6_4 2.002018 1_555
Mg2_4 O7_5 2.016642 1_554
Mg2_5 O2_1 1.950749 1_555
Mg2_5 O2_5 1.953841 1_555
Mg2_5 O6_5 2.002018 1_555
Mg2_5 O7_4 2.016642 1_555
Mg2_6 O2_2 1.950749 1_555
Mg2_6 O2_6 1.953841 1_555
Mg2_6 O6_6 2.002018 1_555
Mg2_6 O7_7 2.016642 1_554
Mg2_7 O2_3 1.950749 1_555
Mg2_7 O2_7 1.953841 1_555
Mg2_7 O6_7 2.002018 1_555
Mg2_7 O7_6 2.016642 1_555
Mg3_0 O1_0 2.023476 1_555
Mg3_0 O2_1 2.046255 1_555
Mg3_0 O1_4 2.070585 1_555
Mg3_0 O5_5 2.122850 1_555
Mg3_0 O5_1 2.192277 1_555
Mg3_0 O4_0 2.427181 1_555
Mg3_1 O1_1 2.023476 1_555
Mg3_1 O2_0 2.046255 1_556
Mg3_1 O1_5 2.070585 1_555
Mg3_1 O5_4 2.122850 1_556
Mg3_1 O5_0 2.192277 1_556
Mg3_1 O4_1 2.427181 1_555
Mg3_2 O1_2 2.023476 1_555
Mg3_2 O2_3 2.046255 1_555
Mg3_2 O1_6 2.070585 1_555
Mg3_2 O5_7 2.122850 1_555
Mg3_2 O5_3 2.192277 1_555
Mg3_2 O4_2 2.427181 1_555
Mg3_3 O1_3 2.023476 1_555
Mg3_3 O2_2 2.046255 1_556
Mg3_3 O1_7 2.070585 1_555
Mg3_3 O5_6 2.122850 1_556
Mg3_3 O5_2 2.192277 1_556
Mg3_3 O4_3 2.427181 1_555
Mg3_4 O1_4 2.023476 1_555
Mg3_4 O2_5 2.046255 1_555
Mg3_4 O1_0 2.070585 1_655
Mg3_4 O5_1 2.122850 1_655
Mg3_4 O5_5 2.192277 1_555
Mg3_4 O4_4 2.427181 1_555
Mg3_5 O1_5 2.023476 1_555
Mg3_5 O2_4 2.046255 1_556
Mg3_5 O1_1 2.070585 1_655
Mg3_5 O5_0 2.122850 1_656
Mg3_5 O5_4 2.192277 1_556
Mg3_5 O4_5 2.427181 1_555
Mg3_6 O1_6 2.023476 1_555
Mg3_6 O2_7 2.046255 1_555
Mg3_6 O1_2 2.070585 1_655
Mg3_6 O5_3 2.122850 1_655
Mg3_6 O5_7 2.192277 1_555
Mg3_6 O4_6 2.427181 1_555
Mg3_7 O1_7 2.023476 1_555
Mg3_7 O2_6 2.046255 1_556
Mg3_7 O1_3 2.070585 1_655
Mg3_7 O5_2 2.122850 1_656
Mg3_7 O5_6 2.192277 1_556
Mg3_7 O4_7 2.427181 1_555
W0_0 W2_4 2.626904 1_455
W0_0 W1_4 2.688286 1_455
W0_1 W2_5 2.626904 1_455
W0_1 W1_5 2.688286 1_455
W0_2 W2_6 2.626904 1_455
W0_2 W1_6 2.688286 1_455
W0_3 W2_7 2.626904 1_455
W0_3 W1_7 2.688286 1_455
W0_4 W2_0 2.626904 1_555
W0_4 W1_0 2.688286 1_555
W0_5 W2_1 2.626904 1_555
W0_5 W1_1 2.688286 1_555
W0_6 W2_2 2.626904 1_555
W0_6 W1_2 2.688286 1_555
W0_7 W2_3 2.626904 1_555
W0_7 W1_3 2.688286 1_555
W1_0 W3_4 2.708072 1_555
W1_1 W3_5 2.708072 1_555
W1_2 W3_6 2.708072 1_555
W1_3 W3_7 2.708072 1_555
W1_4 W3_0 2.708072 1_655
W1_5 W3_1 2.708072 1_655
W1_6 W3_2 2.708072 1_655
W1_7 W3_3 2.708072 1_655
W2_0 W3_4 2.461121 1_555
W2_0 W3_0 2.751867 1_555
W2_1 W3_5 2.461121 1_555
W2_1 W3_1 2.751867 1_555
W2_2 W3_6 2.461121 1_555
W2_2 W3_2 2.751867 1_555
W2_3 W3_7 2.461121 1_555
W2_3 W3_3 2.751867 1_555
W2_4 W3_0 2.461121 1_655
W2_4 W3_4 2.751867 1_555
W2_5 W3_1 2.461121 1_655
W2_5 W3_5 2.751867 1_555
W2_6 W3_2 2.461121 1_655
W2_6 W3_6 2.751867 1_555
W2_7 W3_3 2.461121 1_655
W2_7 W3_7 2.751867 1_555
W3_0 W3_4 2.959493 1_455
W3_0 W3_4 2.959493 1_555
W3_1 W3_5 2.959493 1_455
W3_1 W3_5 2.959493 1_555
W3_2 W3_6 2.959493 1_555
W3_2 W3_6 2.959493 1_455
W3_3 W3_7 2.959493 1_455
W3_3 W3_7 2.959493 1_555
O0_0 W2_0 2.192749 1_555
O0_0 W3_4 2.210174 1_555
O0_0 W3_0 2.217347 1_555
O0_1 W2_1 2.192749 1_555
O0_1 W3_5 2.210174 1_555
O0_1 W3_1 2.217347 1_555
O0_2 W2_2 2.192749 1_555
O0_2 W3_6 2.210174 1_555
O0_2 W3_2 2.217347 1_555
O0_3 W2_3 2.192749 1_555
O0_3 W3_7 2.210174 1_555
O0_3 W3_3 2.217347 1_555
O0_4 W2_4 2.192749 1_555
O0_4 W3_0 2.210174 1_655
O0_4 W3_4 2.217347 1_555
O0_5 W2_5 2.192749 1_555
O0_5 W3_1 2.210174 1_655
O0_5 W3_5 2.217347 1_555
O0_6 W2_6 2.192749 1_555
O0_6 W3_2 2.210174 1_655
O0_6 W3_6 2.217347 1_555
O0_7 W2_7 2.192749 1_555
O0_7 W3_3 2.210174 1_655
O0_7 W3_7 2.217347 1_555
O1_0 W2_4 2.071249 1_455
O1_0 W0_0 2.121332 1_555
O1_0 W2_0 2.730626 1_555
O1_1 W2_5 2.071249 1_455
O1_1 W0_1 2.121332 1_555
O1_1 W2_1 2.730626 1_555
O1_2 W2_6 2.071249 1_455
O1_2 W0_2 2.121332 1_555
O1_2 W2_2 2.730626 1_555
O1_3 W2_7 2.071249 1_455
O1_3 W0_3 2.121332 1_555
O1_3 W2_3 2.730626 1_555
O1_4 W2_0 2.071249 1_555
O1_4 W0_4 2.121332 1_555
O1_4 W2_4 2.730626 1_555
O1_5 W2_1 2.071249 1_555
O1_5 W0_5 2.121332 1_555
O1_5 W2_5 2.730626 1_555
O1_6 W2_2 2.071249 1_555
O1_6 W0_6 2.121332 1_555
O1_6 W2_6 2.730626 1_555
O1_7 W2_3 2.071249 1_555
O1_7 W0_7 2.121332 1_555
O1_7 W2_7 2.730626 1_555
O2_0 W1_0 2.058313 1_555
O2_1 W1_1 2.058313 1_555
O2_2 W1_2 2.058313 1_555
O2_3 W1_3 2.058313 1_555
O2_4 W1_4 2.058313 1_555
O2_5 W1_5 2.058313 1_555
O2_6 W1_6 2.058313 1_555
O2_7 W1_7 2.058313 1_555
O3_0 W1_4 2.099852 1_455
O3_0 W0_0 2.112239 1_555
O3_0 O4_4 2.788247 1_455
O3_1 W1_5 2.099852 1_455
O3_1 W0_1 2.112239 1_555
O3_1 O4_5 2.788247 1_455
O3_2 W1_6 2.099852 1_455
O3_2 W0_2 2.112239 1_555
O3_2 O4_6 2.788247 1_455
O3_3 W1_7 2.099852 1_455
O3_3 W0_3 2.112239 1_555
O3_3 O4_7 2.788247 1_455
O3_4 W1_0 2.099852 1_555
O3_4 W0_4 2.112239 1_555
O3_4 O4_0 2.788247 1_555
O3_5 W1_1 2.099852 1_555
O3_5 W0_5 2.112239 1_555
O3_5 O4_1 2.788247 1_555
O3_6 W1_2 2.099852 1_555
O3_6 W0_6 2.112239 1_555
O3_6 O4_2 2.788247 1_555
O3_7 W1_3 2.099852 1_555
O3_7 W0_7 2.112239 1_555
O3_7 O4_3 2.788247 1_555
O4_0 W0_4 2.190064 1_555
O4_0 W0_0 2.288977 1_555
O4_1 W0_5 2.190064 1_555
O4_1 W0_1 2.288977 1_555
O4_2 W0_6 2.190064 1_555
O4_2 W0_2 2.288977 1_555
O4_3 W0_7 2.190064 1_555
O4_3 W0_3 2.288977 1_555
O4_4 W0_0 2.190064 1_655
O4_4 W0_4 2.288977 1_555
O4_5 W0_1 2.190064 1_655
O4_5 W0_5 2.288977 1_555
O4_6 W0_2 2.190064 1_655
O4_6 W0_6 2.288977 1_555
O4_7 W0_3 2.190064 1_655
O4_7 W0_7 2.288977 1_555
O5_0 W1_4 2.275354 1_455
O5_0 W1_0 2.296996 1_555
O5_1 W1_5 2.275354 1_455
O5_1 W1_1 2.296996 1_555
O5_2 W1_6 2.275354 1_455
O5_2 W1_2 2.296996 1_555
O5_3 W1_7 2.275354 1_455
O5_3 W1_3 2.296996 1_555
O5_4 W1_0 2.275354 1_555
O5_4 W1_4 2.296996 1_555
O5_5 W1_1 2.275354 1_555
O5_5 W1_5 2.296996 1_555
O5_6 W1_2 2.275354 1_555
O5_6 W1_6 2.296996 1_555
O5_7 W1_3 2.275354 1_555
O5_7 W1_7 2.296996 1_555
O6_0 W3_0 2.114104 1_555
O6_1 W3_1 2.114104 1_555
O6_2 W3_2 2.114104 1_555
O6_3 W3_3 2.114104 1_555
O6_4 W3_4 2.114104 1_555
O6_5 W3_5 2.114104 1_555
O6_6 W3_6 2.114104 1_555
O6_7 W3_7 2.114104 1_555
O7_0 W2_4 2.113104 1_455
O7_1 W2_5 2.113104 1_455
O7_2 W2_6 2.113104 1_455
O7_3 W2_7 2.113104 1_455
O7_4 W2_0 2.113104 1_555
O7_5 W2_1 2.113104 1_555
O7_6 W2_2 2.113104 1_555
O7_7 W2_3 2.113104 1_555
