# generated using pymatgen
data_Eu2NiSbO6
_symmetry_space_group_name_H-M   'P 1'
_cell_length_a   5.63481800
_cell_length_b   5.63481800
_cell_length_c   5.63481800
_cell_angle_alpha   60.00000000
_cell_angle_beta   60.00000000
_cell_angle_gamma   60.00000000
_symmetry_Int_Tables_number   1
_chemical_formula_structural   Eu2NiSbO6
_chemical_formula_sum   'Eu2 Ni1 Sb1 O6'
_cell_volume   126.50994951
_cell_formula_units_Z   1
loop_
 _symmetry_equiv_pos_site_id
 _symmetry_equiv_pos_as_xyz
  1  'x, y, z'
loop_
 _atom_site_type_symbol
 _atom_site_label
 _atom_site_symmetry_multiplicity
 _atom_site_fract_x
 _atom_site_fract_y
 _atom_site_fract_z
 _atom_site_occupancy
  Eu  Eu0  1  0.25000000  0.25000000  0.25000000  1
  Eu  Eu1  1  0.75000000  0.75000000  0.75000000  1
  Ni  Ni0  1  -0.00000000  -0.00000000  0.00000000  1
  Sb  Sb0  1  0.50000000  0.50000000  0.50000000  1
  O  O0  1  0.74690378  0.25309622  0.25309622  1
  O  O1  1  0.25309622  0.74690378  0.74690378  1
  O  O2  1  0.74690378  0.25309622  0.74690378  1
  O  O3  1  0.25309622  0.74690378  0.25309622  1
  O  O4  1  0.74690378  0.74690378  0.25309622  1
  O  O5  1  0.25309622  0.25309622  0.74690378  1
loop_
_geom_bond_atom_site_label_1
_geom_bond_atom_site_label_2
_geom_bond_distance
_geom_bond_site_symmetry_2
Eu0 O2 2.817517 1_455
Eu0 O1 2.817517 1_554
Eu0 O5 2.817517 1_555
Eu0 O5 2.817517 1_554
Eu0 O3 2.817517 1_545
Eu0 O2 2.817517 1_554
Eu0 O4 2.817517 1_545
Eu0 O3 2.817517 1_555
Eu0 O1 2.817517 1_545
Eu0 O0 2.817517 1_555
Eu0 O4 2.817517 1_455
Eu0 O0 2.817517 1_455
Eu1 O4 2.817517 1_555
Eu1 O1 2.817517 1_555
Eu1 O4 2.817517 1_556
Eu1 O0 2.817517 1_565
Eu1 O3 2.817517 1_655
Eu1 O5 2.817517 1_565
Eu1 O5 2.817517 1_655
Eu1 O3 2.817517 1_556
Eu1 O0 2.817517 1_556
Eu1 O2 2.817517 1_555
Eu1 O2 2.817517 1_565
Eu1 O1 2.817517 1_655
Ni0 O5 2.016882 1_554
Ni0 O1 2.016882 1_544
Ni0 O0 2.016882 1_455
Ni0 O3 2.016882 1_545
Ni0 O2 2.016882 1_454
Ni0 O4 2.016882 1_445
O0 Sb0 1.967536 1_555
O1 Sb0 1.967536 1_555
O2 Sb0 1.967536 1_555
O3 Sb0 1.967536 1_555
O4 Sb0 1.967536 1_555
O5 Sb0 1.967536 1_555
