# generated using pymatgen
data_Li3V3P8O29
_symmetry_space_group_name_H-M   'P 1'
_cell_length_a   9.76844807
_cell_length_b   9.76844807
_cell_length_c   14.55553335
_cell_angle_alpha   89.52195486
_cell_angle_beta   89.52195486
_cell_angle_gamma   60.12395291
_symmetry_Int_Tables_number   1
_chemical_formula_structural   Li3V3P8O29
_chemical_formula_sum   'Li6 V6 P16 O58'
_cell_volume   1204.28925657
_cell_formula_units_Z   2
loop_
 _symmetry_equiv_pos_site_id
 _symmetry_equiv_pos_as_xyz
  1  'x, y, z'
loop_
 _atom_site_type_symbol
 _atom_site_label
 _atom_site_symmetry_multiplicity
 _atom_site_fract_x
 _atom_site_fract_y
 _atom_site_fract_z
 _atom_site_occupancy
  Li  Li0  1  0.32207300  0.91112900  0.55465600  1
  Li  Li1  1  0.91112900  0.32207300  0.05465600  1
  Li  Li2  1  0.77289700  0.90750900  0.05943800  1
  Li  Li3  1  0.90750900  0.77289700  0.55943800  1
  Li  Li4  1  0.06954900  0.94712600  0.01092200  1
  Li  Li5  1  0.94712600  0.06954900  0.51092200  1
  V  V0  1  0.99820900  0.43737400  0.25300400  1
  V  V1  1  0.00100100  0.56037600  0.74716000  1
  V  V2  1  0.43737400  0.99820900  0.75300400  1
  V  V3  1  0.56037600  0.00100100  0.24716000  1
  V  V4  1  0.43941300  0.56248500  0.24761900  1
  V  V5  1  0.56248500  0.43941300  0.74761900  1
  P  P0  1  0.30383600  0.77634800  0.84072800  1
  P  P1  1  0.31294300  0.90942400  0.34009700  1
  P  P2  1  0.77634800  0.30383600  0.34072800  1
  P  P3  1  0.67166100  0.66438600  0.13273000  1
  P  P4  1  0.66438600  0.67166100  0.63273000  1
  P  P5  1  0.90942400  0.31294300  0.84009700  1
  P  P6  1  0.08650000  0.21645300  0.66255500  1
  P  P7  1  0.77691900  0.90798900  0.84269000  1
  P  P8  1  0.21645300  0.08650000  0.16255500  1
  P  P9  1  0.90798900  0.77691900  0.34269000  1
  P  P10  1  0.08764300  0.69557700  0.16722600  1
  P  P11  1  0.33363900  0.33304900  0.36149900  1
  P  P12  1  0.33304900  0.33363900  0.86149900  1
  P  P13  1  0.22101200  0.69607700  0.66028400  1
  P  P14  1  0.69557700  0.08764300  0.66722600  1
  P  P15  1  0.69607700  0.22101200  0.16028400  1
  O  O0  1  0.21246200  0.79628600  0.58078000  1
  O  O1  1  0.34611800  0.73861700  0.32688100  1
  O  O2  1  0.19621600  0.00590200  0.08309900  1
  O  O3  1  0.34471800  0.91128800  0.82632300  1
  O  O4  1  0.45899500  0.61673500  0.82711200  1
  O  O5  1  0.52671200  0.66312000  0.18008800  1
  O  O6  1  0.61673500  0.45899500  0.32711200  1
  O  O7  1  0.79628600  0.21246200  0.08078000  1
  O  O8  1  0.73861700  0.34611800  0.82688100  1
  O  O9  1  0.51462400  0.81896500  0.67491000  1
  O  O10  1  0.47099900  0.90973300  0.32007600  1
  O  O11  1  0.66312000  0.52671200  0.68008800  1
  O  O12  1  0.67665900  0.65713100  0.03096000  1
  O  O13  1  0.65713100  0.67665900  0.53096000  1
  O  O14  1  0.81896500  0.51462400  0.17491000  1
  O  O15  1  0.61910200  0.90839800  0.82521800  1
  O  O16  1  0.67183300  0.81555800  0.16967400  1
  O  O17  1  0.91128800  0.34471800  0.32632300  1
  O  O18  1  0.01187000  0.19588400  0.75845900  1
  O  O19  1  0.00590200  0.19621600  0.58309900  1
  O  O20  1  0.97727900  0.24307000  0.93061900  1
  O  O21  1  0.90973300  0.47099900  0.82007600  1
  O  O22  1  0.81555800  0.67183300  0.66967400  1
  O  O23  1  0.08344000  0.26339300  0.16526400  1
  O  O24  1  0.90839800  0.61910200  0.32521800  1
  O  O25  1  0.73901500  0.91573500  0.32250900  1
  O  O26  1  0.19588400  0.01187000  0.25845900  1
  O  O27  1  0.24307000  0.97727900  0.43061900  1
  O  O28  1  0.80280800  0.99887100  0.58928700  1
  O  O29  1  0.26339300  0.08344000  0.66526400  1
  O  O30  1  0.07639400  0.38043100  0.67113500  1
  O  O31  1  0.91573500  0.73901500  0.82250900  1
  O  O32  1  0.18282100  0.33733900  0.31866600  1
  O  O33  1  0.07697000  0.54308200  0.17521500  1
  O  O34  1  0.99887100  0.80280800  0.08928700  1
  O  O35  1  0.96596300  0.78691600  0.43467300  1
  O  O36  1  0.01705100  0.78862400  0.26356100  1
  O  O37  1  0.08520000  0.65584900  0.65912200  1
  O  O38  1  0.33733900  0.18282100  0.81866600  1
  O  O39  1  0.38043100  0.07639400  0.17113500  1
  O  O40  1  0.18384300  0.47657900  0.81364200  1
  O  O41  1  0.32588500  0.33683800  0.96254400  1
  O  O42  1  0.33683800  0.32588500  0.46254400  1
  O  O43  1  0.33621300  0.47758800  0.31689500  1
  O  O44  1  0.54308200  0.07697000  0.67521500  1
  O  O45  1  0.47657900  0.18384300  0.31364200  1
  O  O46  1  0.26301000  0.65312800  0.16803300  1
  O  O47  1  0.19432700  0.79338300  0.75404400  1
  O  O48  1  0.21383200  0.79660400  0.92590700  1
  O  O49  1  0.38124400  0.54046800  0.67252400  1
  O  O50  1  0.47758800  0.33621300  0.81689500  1
  O  O51  1  0.54046800  0.38124400  0.17252400  1
  O  O52  1  0.65584900  0.08520000  0.15912200  1
  O  O53  1  0.78691600  0.96596300  0.93467300  1
  O  O54  1  0.78862400  0.01705100  0.76356100  1
  O  O55  1  0.65312800  0.26301000  0.66803300  1
  O  O56  1  0.79660400  0.21383200  0.42590700  1
  O  O57  1  0.79338300  0.19432700  0.25404400  1
loop_
_geom_bond_atom_site_label_1
_geom_bond_atom_site_label_2
_geom_bond_distance
_geom_bond_site_symmetry_2
Li0 O0 1.931926 1_555
Li0 O27 1.944134 1_555
Li0 O29 2.195982 1_565
Li0 O9 2.398703 1_555
Li1 O7 1.931926 1_555
Li1 O20 1.944134 1_554
Li1 O23 2.195982 1_655
Li1 O14 2.398703 1_555
Li2 O53 1.923326 1_554
Li2 O34 1.966438 1_555
Li2 O52 2.112489 1_565
Li2 O16 2.277926 1_555
Li3 O35 1.923326 1_555
Li3 O28 1.966438 1_555
Li3 O37 2.112489 1_655
Li3 O22 2.277926 1_555
Li4 O48 1.901674 1_554
Li4 O2 1.924546 1_565
Li4 O34 2.166765 1_455
Li5 O56 1.901674 1_555
Li5 O19 1.924546 1_655
Li5 O28 2.166765 1_545
O0 P13 1.485133 1_555
O1 P1 1.546483 1_555
O1 V4 1.890840 1_555
O2 P8 1.473283 1_555
O3 P0 1.568249 1_555
O3 V2 1.847554 1_555
O4 P0 1.553497 1_555
O4 V5 1.905401 1_555
O5 P3 1.575176 1_555
O5 V4 1.861415 1_555
O6 P2 1.553497 1_555
O6 V4 1.905401 1_555
O7 P15 1.485133 1_555
O8 P5 1.546483 1_555
O8 V5 1.890840 1_555
O9 P4 1.578048 1_555
O9 V2 1.905223 1_555
O10 P1 1.570309 1_555
O10 V3 1.851420 1_565
O11 P4 1.575176 1_555
O11 V5 1.861415 1_555
O12 P3 1.482836 1_555
O13 P4 1.482836 1_555
O14 P3 1.578048 1_555
O14 V0 1.905223 1_555
O15 P7 1.562592 1_555
O15 V2 1.868164 1_555
O16 P3 1.576577 1_555
O16 V3 1.946191 1_565
O17 P2 1.568249 1_555
O17 V0 1.847554 1_555
O18 P5 1.607435 1_455
O18 P6 1.626266 1_555
O19 P6 1.473283 1_555
O20 P5 1.479909 1_555
O21 P5 1.570309 1_555
O21 V1 1.851420 1_655
O22 P4 1.576577 1_555
O22 V1 1.946191 1_655
O23 P8 1.561791 1_555
O23 V0 1.954828 1_455
O24 P9 1.562592 1_555
O24 V0 1.868164 1_555
O25 P9 1.556011 1_555
O25 V3 1.873605 1_565
O26 P1 1.607435 1_545
O26 P8 1.626266 1_555
O27 P1 1.479909 1_555
O28 P14 1.492584 1_565
O29 P6 1.561791 1_555
O29 V2 1.954828 1_545
O30 P6 1.561004 1_555
O30 V1 1.893641 1_555
O31 P7 1.556011 1_555
O31 V1 1.873605 1_655
O32 P11 1.585663 1_555
O32 V0 1.837947 1_455
O33 P10 1.547595 1_555
O33 V0 1.922927 1_455
O34 P10 1.492584 1_655
O35 P9 1.480787 1_555
O36 P9 1.604159 1_455
O36 P10 1.627438 1_555
O37 P13 1.560331 1_555
O37 V1 1.978646 1_555
O38 P12 1.585663 1_555
O38 V2 1.837947 1_545
O39 P8 1.561004 1_555
O39 V3 1.893641 1_555
O40 P12 1.591365 1_555
O40 V1 1.831837 1_555
O41 P12 1.471697 1_555
O42 P11 1.471697 1_555
O43 P11 1.560596 1_555
O43 V4 1.876907 1_555
O44 P14 1.547595 1_555
O44 V2 1.922927 1_545
O45 P11 1.591365 1_555
O45 V3 1.831837 1_555
O46 P10 1.548950 1_555
O46 V4 1.895108 1_555
O47 P13 1.613319 1_555
O47 P0 1.614207 1_555
O48 P0 1.470341 1_555
O49 P13 1.556296 1_555
O49 V5 1.891252 1_555
O50 P12 1.560596 1_555
O50 V5 1.876907 1_555
O51 P15 1.556296 1_555
O51 V4 1.891252 1_555
O52 P15 1.560331 1_555
O52 V3 1.978646 1_555
O53 P7 1.480787 1_555
O54 P7 1.604159 1_545
O54 P14 1.627438 1_555
O55 P14 1.548950 1_555
O55 V5 1.895108 1_555
O56 P2 1.470341 1_555
O57 P15 1.613319 1_555
O57 P2 1.614207 1_555
