# generated using pymatgen
data_SmEuHf2O6
_symmetry_space_group_name_H-M   'P 1'
_cell_length_a   4.20164201
_cell_length_b   5.66910465
_cell_length_c   5.66910465
_cell_angle_alpha   89.05880160
_cell_angle_beta   90.00000000
_cell_angle_gamma   90.00000000
_symmetry_Int_Tables_number   1
_chemical_formula_structural   SmEuHf2O6
_chemical_formula_sum   'Sm1 Eu1 Hf2 O6'
_cell_volume   135.01729298
_cell_formula_units_Z   1
loop_
 _symmetry_equiv_pos_site_id
 _symmetry_equiv_pos_as_xyz
  1  'x, y, z'
loop_
 _atom_site_type_symbol
 _atom_site_label
 _atom_site_symmetry_multiplicity
 _atom_site_fract_x
 _atom_site_fract_y
 _atom_site_fract_z
 _atom_site_occupancy
  Sm  Sm0  1  0.50000000  0.50000000  0.50000000  1
  Eu  Eu0  1  0.50000000  0.00000000  -0.00000000  1
  Hf  Hf0  1  0.00000000  0.00000000  0.50000000  1
  Hf  Hf1  1  0.00000000  0.50000000  -0.00000000  1
  O  O0  1  0.50000000  0.00000000  0.50000000  1
  O  O1  1  0.50000000  0.50000000  -0.00000000  1
  O  O2  1  0.00000000  0.32471745  0.67528255  1
  O  O3  1  0.00000000  0.67528255  0.32471745  1
  O  O4  1  -0.00000000  0.81935396  0.81935396  1
  O  O5  1  -0.00000000  0.18064604  0.18064604  1
loop_
_geom_bond_atom_site_label_1
_geom_bond_atom_site_label_2
_geom_bond_distance
_geom_bond_site_symmetry_2
Eu0 O4 2.558412 1_644
Eu0 O4 2.558412 1_544
Eu0 O5 2.558412 1_655
Eu0 O5 2.558412 1_555
Eu0 O1 2.834552 1_545
Eu0 O0 2.834552 1_554
Eu0 O0 2.834552 1_555
Eu0 O1 2.834552 1_555
Hf0 O5 2.065334 1_555
Hf0 O4 2.065334 1_545
Hf0 O0 2.100821 1_555
Hf0 O0 2.100821 1_455
Hf0 O3 2.106248 1_545
Hf0 O2 2.106248 1_555
Hf1 O4 2.065334 1_554
Hf1 O5 2.065334 1_555
Hf1 O1 2.100821 1_455
Hf1 O1 2.100821 1_555
Hf1 O2 2.106248 1_554
Hf1 O3 2.106248 1_555
O0 Sm0 2.834552 1_555
O0 Sm0 2.834552 1_545
O1 Sm0 2.834552 1_555
O1 Sm0 2.834552 1_554
O2 Sm0 2.521085 1_455
O2 Sm0 2.521085 1_555
O2 O3 2.787415 1_555
O3 Sm0 2.521085 1_455
O3 Sm0 2.521085 1_555
