# generated using pymatgen
data_V4ZnO10
_symmetry_space_group_name_H-M   'P 1'
_cell_length_a   3.52853900
_cell_length_b   4.87226000
_cell_length_c   11.72636100
_cell_angle_alpha   90.00000000
_cell_angle_beta   90.00000000
_cell_angle_gamma   90.00000000
_symmetry_Int_Tables_number   1
_chemical_formula_structural   V4ZnO10
_chemical_formula_sum   'V4 Zn1 O10'
_cell_volume   201.59912255
_cell_formula_units_Z   1
loop_
 _symmetry_equiv_pos_site_id
 _symmetry_equiv_pos_as_xyz
  1  'x, y, z'
loop_
 _atom_site_type_symbol
 _atom_site_label
 _atom_site_symmetry_multiplicity
 _atom_site_fract_x
 _atom_site_fract_y
 _atom_site_fract_z
 _atom_site_occupancy
  V  V0  1  0.00000000  0.57946200  0.85396600  1
  V  V1  1  0.50000000  0.40371500  0.64982200  1
  V  V2  1  0.50000000  0.40371500  0.35017800  1
  V  V3  1  0.00000000  0.57946200  0.14603400  1
  Zn  Zn0  1  0.00000000  0.82410900  0.50000000  1
  O  O0  1  0.50000000  0.59412000  0.50000000  1
  O  O1  1  0.00000000  0.45827400  0.00000000  1
  O  O2  1  0.50000000  0.46122000  0.81996100  1
  O  O3  1  0.00000000  0.55415200  0.67670500  1
  O  O4  1  0.50000000  0.46122000  0.18003900  1
  O  O5  1  0.00000000  0.55415200  0.32329500  1
  O  O6  1  0.00000000  0.90815600  0.13203700  1
  O  O7  1  0.50000000  0.06981800  0.38434500  1
  O  O8  1  0.50000000  0.06981800  0.61565500  1
  O  O9  1  0.00000000  0.90815600  0.86796300  1
loop_
_geom_bond_atom_site_label_1
_geom_bond_atom_site_label_2
_geom_bond_distance
_geom_bond_site_symmetry_2
O0 V2 1.986760 1_555
O0 V1 1.986760 1_555
O0 Zn0 2.090052 1_555
O0 Zn0 2.090052 1_655
O0 O8 2.685360 1_565
O0 O7 2.685360 1_565
O1 V0 1.811386 1_554
O1 V3 1.811386 1_555
O2 V0 1.898302 1_655
O2 V0 1.898302 1_555
O2 V1 2.014688 1_555
O3 V1 1.936302 1_455
O3 V1 1.936302 1_555
O3 V0 2.082281 1_555
O3 Zn0 2.454311 1_555
O4 V3 1.898302 1_555
O4 V3 1.898302 1_655
O4 V2 2.014688 1_555
O5 V2 1.936302 1_455
O5 V2 1.936302 1_555
O5 V3 2.082281 1_555
O5 Zn0 2.454311 1_555
O6 V3 1.609872 1_555
O7 V2 1.675443 1_555
O7 Zn0 2.526885 1_645
O7 Zn0 2.526885 1_545
O8 V1 1.675443 1_555
O8 Zn0 2.526885 1_645
O8 Zn0 2.526885 1_545
O9 V0 1.609872 1_555
