# generated using pymatgen
data_ZnCu2PH7O9
_symmetry_space_group_name_H-M   'P 1'
_cell_length_a   10.34933100
_cell_length_b   7.52996900
_cell_length_c   9.89248810
_cell_angle_alpha   78.09397700
_cell_angle_beta   90.00000000
_cell_angle_gamma   90.00000000
_symmetry_Int_Tables_number   1
_chemical_formula_structural   ZnCu2PH7O9
_chemical_formula_sum   'Zn4 Cu8 P4 H28 O36'
_cell_volume   754.33836547
_cell_formula_units_Z   4
loop_
 _symmetry_equiv_pos_site_id
 _symmetry_equiv_pos_as_xyz
  1  'x, y, z'
loop_
 _atom_site_type_symbol
 _atom_site_label
 _atom_site_symmetry_multiplicity
 _atom_site_fract_x
 _atom_site_fract_y
 _atom_site_fract_z
 _atom_site_occupancy
  Zn  Zn0  1  0.07647600  0.93345200  0.20917200  1
  Zn  Zn1  1  0.57647600  0.06654800  0.29082800  1
  Zn  Zn2  1  0.92352400  0.06654800  0.79082800  1
  Zn  Zn3  1  0.42352400  0.93345200  0.70917200  1
  Cu  Cu0  1  0.07092000  0.50825500  0.13190500  1
  Cu  Cu1  1  0.57092000  0.49174500  0.36809500  1
  Cu  Cu2  1  0.92908000  0.49174500  0.86809500  1
  Cu  Cu3  1  0.42908000  0.50825500  0.63190500  1
  Cu  Cu4  1  0.25373700  0.54546800  0.35608500  1
  Cu  Cu5  1  0.75373700  0.45453200  0.14391500  1
  Cu  Cu6  1  0.74626300  0.45453200  0.64391500  1
  Cu  Cu7  1  0.24626300  0.54546800  0.85608500  1
  P  P0  1  0.29859300  0.93813500  0.41313900  1
  P  P1  1  0.79859300  0.06186500  0.08686100  1
  P  P2  1  0.70140700  0.06186500  0.58686100  1
  P  P3  1  0.20140700  0.93813500  0.91313900  1
  H  H0  1  0.01973200  0.63512200  0.34668700  1
  H  H1  1  0.51973200  0.36487800  0.15331300  1
  H  H2  1  0.98026800  0.36487800  0.65331300  1
  H  H3  1  0.48026800  0.63512200  0.84668700  1
  H  H4  1  0.19143000  0.25587400  0.28266100  1
  H  H5  1  0.69143000  0.74412600  0.21733900  1
  H  H6  1  0.80857000  0.74412600  0.71733900  1
  H  H7  1  0.30857000  0.25587400  0.78266100  1
  H  H8  1  0.38814900  0.26953600  0.48324000  1
  H  H9  1  0.88814900  0.73046400  0.01676000  1
  H  H10  1  0.61185100  0.73046400  0.51676000  1
  H  H11  1  0.11185100  0.26953600  0.98324000  1
  H  H12  1  0.37838700  0.23160300  0.01128900  1
  H  H13  1  0.87838700  0.76839700  0.48871100  1
  H  H14  1  0.62161300  0.76839700  0.98871100  1
  H  H15  1  0.12161300  0.23160300  0.51128900  1
  H  H16  1  0.32018800  0.34488700  0.11602700  1
  H  H17  1  0.82018800  0.65511300  0.38397300  1
  H  H18  1  0.67981200  0.65511300  0.88397300  1
  H  H19  1  0.17981200  0.34488700  0.61602700  1
  H  H20  1  0.36741000  0.68432200  0.10165300  1
  H  H21  1  0.86741000  0.31567800  0.39834700  1
  H  H22  1  0.63259000  0.31567800  0.89834700  1
  H  H23  1  0.13259000  0.68432200  0.60165300  1
  H  H24  1  0.40594100  0.80341100  0.21041400  1
  H  H25  1  0.90594100  0.19658900  0.28958600  1
  H  H26  1  0.59405900  0.19658900  0.78958600  1
  H  H27  1  0.09405900  0.80341100  0.71041400  1
  O  O0  1  0.15781800  0.03268700  0.03070300  1
  O  O1  1  0.65781800  0.96731300  0.46929700  1
  O  O2  1  0.84218200  0.96731300  0.96929700  1
  O  O3  1  0.34218200  0.03268700  0.53070300  1
  O  O4  1  0.16838300  0.02749800  0.35556600  1
  O  O5  1  0.66838300  0.97250200  0.14443400  1
  O  O6  1  0.83161700  0.97250200  0.64443400  1
  O  O7  1  0.33161700  0.02749800  0.85556600  1
  O  O8  1  0.27987000  0.73076300  0.46972800  1
  O  O9  1  0.77987000  0.26923700  0.03027200  1
  O  O10  1  0.72013000  0.26923700  0.53027200  1
  O  O11  1  0.22013000  0.73076300  0.96972800  1
  O  O12  1  0.40071600  0.97149200  0.29513300  1
  O  O13  1  0.90071600  0.02850800  0.20486700  1
  O  O14  1  0.59928400  0.02850800  0.70486700  1
  O  O15  1  0.09928400  0.97149200  0.79513300  1
  O  O16  1  0.08553100  0.66540200  0.27127500  1
  O  O17  1  0.58553100  0.33459800  0.22872500  1
  O  O18  1  0.91446900  0.33459800  0.72872500  1
  O  O19  1  0.41446900  0.66540200  0.77127500  1
  O  O20  1  0.21758900  0.37922000  0.23226800  1
  O  O21  1  0.71758900  0.62078000  0.26773200  1
  O  O22  1  0.78241100  0.62078000  0.76773200  1
  O  O23  1  0.28241100  0.37922000  0.73226800  1
  O  O24  1  0.40646400  0.40216700  0.46314000  1
  O  O25  1  0.90646400  0.59783300  0.03686000  1
  O  O26  1  0.59353600  0.59783300  0.53686000  1
  O  O27  1  0.09353600  0.40216700  0.96314000  1
  O  O28  1  0.38770100  0.34612000  0.04193000  1
  O  O29  1  0.88770100  0.65388000  0.45807000  1
  O  O30  1  0.61229900  0.65388000  0.95807000  1
  O  O31  1  0.11229900  0.34612000  0.54193000  1
  O  O32  1  0.40843900  0.67817100  0.19185100  1
  O  O33  1  0.90843900  0.32182900  0.30814900  1
  O  O34  1  0.59156100  0.32182900  0.80814900  1
  O  O35  1  0.09156100  0.67817100  0.69185100  1
loop_
_geom_bond_atom_site_label_1
_geom_bond_atom_site_label_2
_geom_bond_distance
_geom_bond_site_symmetry_2
Cu0 O20 1.958534 1_555
Cu0 O25 1.993531 1_455
Cu0 O16 1.999278 1_555
Cu0 O27 2.007603 1_554
Cu0 O11 2.580043 1_554
Cu0 O33 2.613078 1_455
Cu1 O21 1.958534 1_555
Cu1 O24 1.993531 1_555
Cu1 O17 1.999278 1_555
Cu1 O26 2.007603 1_555
Cu1 O10 2.580043 1_555
Cu1 O32 2.613078 1_555
Cu2 O22 1.958534 1_555
Cu2 O27 1.993531 1_655
Cu2 O18 1.999278 1_555
Cu2 O25 2.007603 1_556
Cu2 O9 2.580043 1_556
Cu2 O35 2.613078 1_655
Cu3 O23 1.958534 1_555
Cu3 O26 1.993531 1_555
Cu3 O19 1.999278 1_555
Cu3 O24 2.007603 1_555
Cu3 O8 2.580043 1_555
Cu3 O34 2.613078 1_555
Cu4 O20 1.959596 1_555
Cu4 O8 1.982671 1_555
Cu4 O16 2.058470 1_555
Cu4 O24 2.076720 1_555
Cu4 O32 2.351942 1_555
Cu4 O31 2.576279 1_555
Cu5 O21 1.959596 1_555
Cu5 O9 1.982671 1_555
Cu5 O17 2.058470 1_555
Cu5 O25 2.076720 1_555
Cu5 O33 2.351942 1_555
Cu5 O30 2.576279 1_554
Cu6 O22 1.959596 1_555
Cu6 O10 1.982671 1_555
Cu6 O18 2.058470 1_555
Cu6 O26 2.076720 1_555
Cu6 O34 2.351942 1_555
Cu6 O29 2.576279 1_555
Cu7 O23 1.959596 1_555
Cu7 O11 1.982671 1_555
Cu7 O19 2.058470 1_555
Cu7 O27 2.076720 1_555
Cu7 O35 2.351942 1_555
Cu7 O28 2.576279 1_556
H0 O16 1.001032 1_555
H1 O17 1.001032 1_555
H2 O18 1.001032 1_555
H3 O19 1.001032 1_555
H4 O20 0.996702 1_555
H4 O4 1.738546 1_555
H5 O21 0.996702 1_555
H5 O5 1.738546 1_555
H6 O22 0.996702 1_555
H6 O6 1.738546 1_555
H7 O23 0.996702 1_555
H7 O7 1.738546 1_555
H8 O24 0.995462 1_555
H8 O3 1.811631 1_555
H9 O25 0.995462 1_555
H9 O2 1.811631 1_554
H10 O26 0.995462 1_555
H10 O1 1.811631 1_555
H11 O27 0.995462 1_555
H11 O0 1.811631 1_556
H12 O28 0.976011 1_555
H13 O29 0.976011 1_555
H14 O30 0.976011 1_555
H15 O31 0.976011 1_555
H16 O28 1.011323 1_555
H17 O29 1.011323 1_555
H18 O30 1.011323 1_555
H19 O31 1.011323 1_555
H20 O32 0.980595 1_555
H20 O11 1.990104 1_554
H21 O33 0.980595 1_555
H21 O10 1.990104 1_555
H22 O34 0.980595 1_555
H22 O9 1.990104 1_556
H23 O35 0.980595 1_555
H23 O8 1.990104 1_555
H24 O32 0.997594 1_555
H24 O12 1.656752 1_555
H25 O33 0.997594 1_555
H25 O13 1.656752 1_555
H26 O34 0.997594 1_555
H26 O14 1.656752 1_555
H27 O35 0.997594 1_555
H27 O15 1.656752 1_555
O0 P3 1.550690 1_544
O0 Zn0 1.959517 1_545
O1 P2 1.550690 1_565
O1 Zn1 1.959517 1_565
O2 P1 1.550690 1_566
O2 Zn2 1.959517 1_565
O3 P0 1.550690 1_545
O3 Zn3 1.959517 1_545
O4 P0 1.560458 1_545
O4 Zn0 1.981585 1_545
O5 P1 1.560458 1_565
O5 Zn1 1.981585 1_565
O6 P2 1.560458 1_565
O6 Zn2 1.981585 1_565
O7 P3 1.560458 1_545
O7 Zn3 1.981585 1_545
O8 P0 1.558379 1_555
O9 P1 1.558379 1_555
O10 P2 1.558379 1_555
O11 P3 1.558379 1_555
O12 P0 1.556249 1_555
O12 Zn1 1.952003 1_565
O13 P1 1.556249 1_555
O13 Zn0 1.952003 1_645
O14 P2 1.556249 1_555
O14 Zn3 1.952003 1_545
O15 P3 1.556249 1_555
O15 Zn2 1.952003 1_465
O16 Zn0 1.987092 1_555
O17 Zn1 1.987092 1_555
O18 Zn2 1.987092 1_555
O19 Zn3 1.987092 1_555
