# generated using pymatgen
data_Cr7(PO4)6
_symmetry_space_group_name_H-M   'P 1'
_cell_length_a   6.36349300
_cell_length_b   8.16204154
_cell_length_c   9.46135607
_cell_angle_alpha   106.87215113
_cell_angle_beta   108.52590045
_cell_angle_gamma   100.59752496
_symmetry_Int_Tables_number   1
_chemical_formula_structural   Cr7(PO4)6
_chemical_formula_sum   'Cr7 P6 O24'
_cell_volume   424.74401266
_cell_formula_units_Z   1
loop_
 _symmetry_equiv_pos_site_id
 _symmetry_equiv_pos_as_xyz
  1  'x, y, z'
loop_
 _atom_site_type_symbol
 _atom_site_label
 _atom_site_symmetry_multiplicity
 _atom_site_fract_x
 _atom_site_fract_y
 _atom_site_fract_z
 _atom_site_occupancy
  Cr  Cr0  1  0.28322300  0.32235200  0.79592800  1
  Cr  Cr1  1  0.71677700  0.67764800  0.20407200  1
  Cr  Cr2  1  0.61904000  0.03971200  0.39032100  1
  Cr  Cr3  1  0.38096000  0.96028800  0.60967900  1
  Cr  Cr4  1  0.00000000  0.50000000  0.50000000  1
  Cr  Cr5  1  0.04801900  0.21390100  0.02615800  1
  Cr  Cr6  1  0.95198100  0.78609900  0.97384200  1
  P  P0  1  0.09562400  0.09714900  0.33432000  1
  P  P1  1  0.90437600  0.90285100  0.66568000  1
  P  P2  1  0.77351000  0.35287700  0.73627200  1
  P  P3  1  0.22649000  0.64712300  0.26372800  1
  P  P4  1  0.60439000  0.25827800  0.13541600  1
  P  P5  1  0.39561000  0.74172200  0.86458400  1
  O  O0  1  0.27177500  0.54597900  0.73483900  1
  O  O1  1  0.72822500  0.45402100  0.26516100  1
  O  O2  1  0.74696400  0.20832100  0.03583600  1
  O  O3  1  0.25303600  0.79167900  0.96416400  1
  O  O4  1  0.55620800  0.13051700  0.21926300  1
  O  O5  1  0.44379200  0.86948300  0.78073700  1
  O  O6  1  0.77280700  0.29004600  0.56360500  1
  O  O7  1  0.22719300  0.70995400  0.43639500  1
  O  O8  1  0.12464900  0.29127400  0.41829800  1
  O  O9  1  0.87535100  0.70872600  0.58170200  1
  O  O10  1  0.07209700  0.04833700  0.15526400  1
  O  O11  1  0.92790300  0.95166300  0.84473600  1
  O  O12  1  0.20483100  0.44909900  0.20529500  1
  O  O13  1  0.68526400  0.95786100  0.58137600  1
  O  O14  1  0.31473600  0.04213900  0.41862400  1
  O  O15  1  0.45473100  0.75863900  0.26342400  1
  O  O16  1  0.54526900  0.24136100  0.73657600  1
  O  O17  1  0.88283300  0.97193900  0.33926600  1
  O  O18  1  0.79516900  0.55090100  0.79470500  1
  O  O19  1  0.63523200  0.75070400  0.98861700  1
  O  O20  1  0.36476800  0.24929600  0.01138300  1
  O  O21  1  0.01107400  0.68264000  0.15072800  1
  O  O22  1  0.98892600  0.31736000  0.84927200  1
  O  O23  1  0.11716700  0.02806100  0.66073400  1
loop_
_geom_bond_atom_site_label_1
_geom_bond_atom_site_label_2
_geom_bond_distance
_geom_bond_site_symmetry_2
Cr0 O0 2.074959 1_555
Cr0 O16 2.077981 1_555
Cr0 O22 2.085214 1_455
Cr0 O20 2.219795 1_556
Cr0 O23 2.224056 1_555
Cr1 O1 2.074959 1_555
Cr1 O15 2.077981 1_555
Cr1 O21 2.085214 1_655
Cr1 O19 2.219795 1_554
Cr1 O17 2.224056 1_555
Cr2 O4 1.929403 1_555
Cr2 O17 2.014670 1_545
Cr2 O6 2.029997 1_555
Cr2 O14 2.040205 1_555
Cr2 O13 2.052303 1_545
Cr2 O15 2.125770 1_545
Cr3 O5 1.929403 1_555
Cr3 O23 2.014670 1_565
Cr3 O7 2.029997 1_555
Cr3 O13 2.040205 1_555
Cr3 O14 2.052303 1_565
Cr3 O16 2.125770 1_565
Cr4 O9 2.061871 1_455
Cr4 O8 2.061871 1_555
Cr4 O1 2.214498 1_455
Cr4 O0 2.214498 1_555
Cr4 O7 2.372584 1_555
Cr4 O6 2.372584 1_455
Cr5 O2 1.939691 1_455
Cr5 O12 1.971190 1_555
Cr5 O20 2.038156 1_555
Cr5 O22 2.047578 1_454
Cr5 O10 2.063276 1_555
Cr5 O11 2.131607 1_444
Cr6 O3 1.939691 1_655
Cr6 O18 1.971190 1_555
Cr6 O19 2.038156 1_555
Cr6 O21 2.047578 1_656
Cr6 O11 2.063276 1_555
Cr6 O10 2.131607 1_666
O0 P5 1.569769 1_555
O1 P4 1.569769 1_555
O2 P4 1.527524 1_555
O3 P5 1.527524 1_555
O4 P4 1.525752 1_555
O5 P5 1.525752 1_555
O6 P2 1.562072 1_555
O7 P3 1.562072 1_555
O8 P0 1.498082 1_555
O9 P1 1.498082 1_555
O10 P0 1.573613 1_555
O11 P1 1.573613 1_555
O12 P3 1.512598 1_555
O13 P1 1.585355 1_555
O14 P0 1.585355 1_555
O15 P3 1.567128 1_555
O16 P2 1.567128 1_555
O17 P0 1.561796 1_665
O18 P2 1.512598 1_555
O19 P5 1.574632 1_555
O20 P4 1.574632 1_555
O21 P3 1.581431 1_555
O22 P2 1.581431 1_555
O23 P1 1.561796 1_445
