# generated using pymatgen
data_Te4N5F21
_symmetry_space_group_name_H-M   'P 1'
_cell_length_a   14.44553400
_cell_length_b   14.44553400
_cell_length_c   6.18401900
_cell_angle_alpha   90.00000000
_cell_angle_beta   90.00000000
_cell_angle_gamma   90.00000000
_symmetry_Int_Tables_number   1
_chemical_formula_structural   Te4N5F21
_chemical_formula_sum   'Te8 N10 F42'
_cell_volume   1290.44059533
_cell_formula_units_Z   2
loop_
 _symmetry_equiv_pos_site_id
 _symmetry_equiv_pos_as_xyz
  1  'x, y, z'
loop_
 _atom_site_type_symbol
 _atom_site_label
 _atom_site_symmetry_multiplicity
 _atom_site_fract_x
 _atom_site_fract_y
 _atom_site_fract_z
 _atom_site_occupancy
  Te  Te0  1  0.49212400  0.20199600  0.45471200  1
  Te  Te1  1  0.99212400  0.29800400  0.04528800  1
  Te  Te2  1  0.50787600  0.79800400  0.45471200  1
  Te  Te3  1  0.00787600  0.70199600  0.04528800  1
  Te  Te4  1  0.79800400  0.49212400  0.54528800  1
  Te  Te5  1  0.70199600  0.99212400  0.95471200  1
  Te  Te6  1  0.20199600  0.50787600  0.54528800  1
  Te  Te7  1  0.29800400  0.00787600  0.95471200  1
  N  N0  1  0.50000000  0.50000000  0.00000000  1
  N  N1  1  0.00000000  0.00000000  0.50000000  1
  N  N2  1  0.32152400  0.33923800  0.00110300  1
  N  N3  1  0.82152400  0.16076200  0.49889700  1
  N  N4  1  0.67847600  0.66076200  0.00110300  1
  N  N5  1  0.17847600  0.83923800  0.49889700  1
  N  N6  1  0.66076200  0.32152400  0.99889700  1
  N  N7  1  0.83923800  0.82152400  0.50110300  1
  N  N8  1  0.33923800  0.67847600  0.99889700  1
  N  N9  1  0.16076200  0.17847600  0.50110300  1
  F  F0  1  0.49501300  0.30070100  0.26414600  1
  F  F1  1  0.99501300  0.19929900  0.23585400  1
  F  F2  1  0.50498700  0.69929900  0.26414600  1
  F  F3  1  0.00498700  0.80070100  0.23585400  1
  F  F4  1  0.69929900  0.49501300  0.73585400  1
  F  F5  1  0.80070100  0.99501300  0.76414600  1
  F  F6  1  0.30070100  0.50498700  0.73585400  1
  F  F7  1  0.19929900  0.00498700  0.76414600  1
  F  F8  1  0.36238300  0.18423300  0.39194300  1
  F  F9  1  0.86238300  0.31576700  0.10805700  1
  F  F10  1  0.63761700  0.81576700  0.39194300  1
  F  F11  1  0.13761700  0.68423300  0.10805700  1
  F  F12  1  0.81576700  0.36238300  0.60805700  1
  F  F13  1  0.68423300  0.86238300  0.89194300  1
  F  F14  1  0.18423300  0.63761700  0.60805700  1
  F  F15  1  0.31576700  0.13761700  0.89194300  1
  F  F16  1  0.62298500  0.21413400  0.50351900  1
  F  F17  1  0.12298500  0.28586600  0.99648100  1
  F  F18  1  0.37701500  0.78586600  0.50351900  1
  F  F19  1  0.87701500  0.71413400  0.99648100  1
  F  F20  1  0.78586600  0.62298500  0.49648100  1
  F  F21  1  0.71413400  0.12298500  0.00351900  1
  F  F22  1  0.21413400  0.37701500  0.49648100  1
  F  F23  1  0.28586600  0.87701500  0.00351900  1
  F  F24  1  0.46596000  0.28517400  0.68842200  1
  F  F25  1  0.96596000  0.21482600  0.81157800  1
  F  F26  1  0.53404000  0.71482600  0.68842200  1
  F  F27  1  0.03404000  0.78517400  0.81157800  1
  F  F28  1  0.71482600  0.46596000  0.31157800  1
  F  F29  1  0.78517400  0.96596000  0.18842200  1
  F  F30  1  0.28517400  0.53404000  0.31157800  1
  F  F31  1  0.21482600  0.03404000  0.18842200  1
  F  F32  1  0.51799200  0.11590600  0.21879100  1
  F  F33  1  0.01799200  0.38409400  0.28120900  1
  F  F34  1  0.48200800  0.88409400  0.21879100  1
  F  F35  1  0.98200800  0.61590600  0.28120900  1
  F  F36  1  0.88409400  0.51799200  0.78120900  1
  F  F37  1  0.61590600  0.01799200  0.71879100  1
  F  F38  1  0.11590600  0.48200800  0.78120900  1
  F  F39  1  0.38409400  0.98200800  0.71879100  1
  F  F40  1  0.50000000  0.50000000  0.50000000  1
  F  F41  1  0.00000000  0.00000000  0.00000000  1
loop_
_geom_bond_atom_site_label_1
_geom_bond_atom_site_label_2
_geom_bond_distance
_geom_bond_site_symmetry_2
N0 N4 3.469886 1_555
N0 N8 3.469886 1_554
N0 N2 3.469886 1_555
N0 N6 3.469886 1_554
N1 N9 3.469886 1_555
N1 N5 3.469886 1_545
N1 N3 3.469886 1_455
N1 N7 3.469886 1_445
F0 Te0 1.850286 1_555
F0 F24 2.666535 1_555
F0 F8 2.669438 1_555
F0 F16 2.678139 1_555
F0 F32 2.704604 1_555
F0 N6 2.917861 1_554
F0 N2 3.039190 1_555
F0 F40 3.228160 1_555
F0 N0 3.310889 1_555
F1 Te1 1.850286 1_555
F1 F25 2.666535 1_554
F1 F9 2.669438 1_555
F1 F17 2.678139 1_654
F1 F33 2.704604 1_655
F1 N9 2.917861 1_655
F1 N3 3.039190 1_555
F1 F41 3.228160 1_655
F1 N1 3.310889 1_655
F2 Te2 1.850286 1_555
F2 F26 2.666535 1_555
F2 F34 2.704604 1_555
F2 N8 2.917861 1_554
F2 N4 3.039190 1_555
F2 F40 3.228160 1_555
F2 N0 3.310889 1_555
F3 Te3 1.850286 1_555
F3 F35 2.704604 1_455
F3 N7 2.917861 1_455
F3 N5 3.039190 1_555
F3 F41 3.228160 1_565
F3 N1 3.310889 1_565
F4 Te4 1.850286 1_555
F4 N4 2.917861 1_556
F4 N6 3.039190 1_555
F4 F40 3.228160 1_555
F4 N0 3.310889 1_556
F5 Te5 1.850286 1_555
F5 N3 2.917861 1_565
F5 N7 3.039190 1_555
F5 N1 3.310889 1_665
F6 Te6 1.850286 1_555
F6 N2 2.917861 1_556
F6 N8 3.039190 1_555
F6 N0 3.310889 1_556
F7 Te7 1.850286 1_555
F7 N5 2.917861 1_545
F7 N9 3.039190 1_555
F7 N1 3.310889 1_555
F8 Te0 1.931077 1_555
F8 N9 2.990885 1_555
F8 N2 3.347205 1_555
F9 Te1 1.931077 1_555
F9 N6 2.990885 1_554
F9 N3 3.347205 1_555
F10 Te2 1.931077 1_555
F10 F2 2.669438 1_555
F10 F34 2.678362 1_555
F10 N7 2.990885 1_555
F10 N4 3.347205 1_555
F11 Te3 1.931077 1_555
F11 F3 2.669438 1_555
F11 F35 2.678362 1_455
F11 N8 2.990885 1_554
F11 N5 3.347205 1_555
F12 Te4 1.931077 1_555
F12 F4 2.669438 1_555
F12 F36 2.678362 1_555
F12 N3 2.990885 1_555
F12 N6 3.347205 1_555
F13 Te5 1.931077 1_555
F13 F5 2.669438 1_555
F13 F37 2.678362 1_565
F13 N4 2.990885 1_556
F13 N7 3.347205 1_555
F14 Te6 1.931077 1_555
F14 F6 2.669438 1_555
F14 F38 2.678362 1_555
F14 N5 2.990885 1_555
F14 N8 3.347205 1_555
F15 Te7 1.931077 1_555
F15 F7 2.669438 1_555
F15 F39 2.678362 1_545
F15 N2 2.990885 1_556
F15 N9 3.347205 1_555
F16 Te0 1.922314 1_555
F16 F32 2.722874 1_555
F16 N3 2.969962 1_555
F16 N6 3.476914 1_555
F16 N6 3.527385 1_554
F17 Te1 1.922314 1_456
F17 F33 2.722874 1_556
F17 N2 2.969962 1_556
F17 N9 3.476914 1_555
F17 N9 3.527385 1_556
F18 Te2 1.922314 1_555
F18 F2 2.678139 1_555
F18 F34 2.722874 1_555
F18 N5 2.969962 1_555
F18 N8 3.476914 1_555
F18 N8 3.527385 1_554
F19 Te3 1.922314 1_656
F19 F3 2.678139 1_656
F19 F35 2.722874 1_556
F19 N4 2.969962 1_556
F19 N7 3.476914 1_555
F19 N7 3.527385 1_556
F20 Te4 1.922314 1_555
F20 F4 2.678139 1_555
F20 F36 2.722874 1_555
F20 N7 2.969962 1_555
F20 N4 3.476914 1_555
F20 N4 3.527385 1_556
F21 Te5 1.922314 1_544
F21 F5 2.678139 1_544
F21 F37 2.722874 1_554
F21 N6 2.969962 1_554
F21 N3 3.476914 1_555
F21 N3 3.527385 1_554
F22 Te6 1.922314 1_555
F22 F6 2.678139 1_555
F22 F38 2.722874 1_555
F22 N9 2.969962 1_555
F22 N2 3.476914 1_555
F22 N2 3.527385 1_556
F23 Te7 1.922314 1_564
F23 F7 2.678139 1_564
F23 F39 2.722874 1_554
F23 N8 2.969962 1_554
F23 N5 3.476914 1_555
F23 N5 3.527385 1_554
F24 Te0 1.917125 1_555
F24 N2 2.949938 1_556
F24 F40 3.351093 1_555
F24 N6 3.446848 1_555
F24 N0 3.685742 1_556
F25 Te1 1.917125 1_556
F25 N3 2.949938 1_555
F25 F41 3.351093 1_656
F25 N9 3.446848 1_655
F25 N1 3.685742 1_655
F26 Te2 1.917125 1_555
F26 N4 2.949938 1_556
F26 F40 3.351093 1_555
F26 N8 3.446848 1_555
F26 N0 3.685742 1_556
F27 Te3 1.917125 1_556
F27 F3 2.666535 1_556
F27 N5 2.949938 1_555
F27 F41 3.351093 1_566
F27 N7 3.446848 1_455
F27 N1 3.685742 1_565
F28 Te4 1.917125 1_555
F28 F4 2.666535 1_555
F28 N6 2.949938 1_554
F28 F40 3.351093 1_555
F28 N4 3.446848 1_555
F28 N0 3.685742 1_555
F29 Te5 1.917125 1_554
F29 F5 2.666535 1_554
F29 N7 2.949938 1_555
F29 F41 3.351093 1_665
F29 N3 3.446848 1_565
F29 N1 3.685742 1_665
F30 Te6 1.917125 1_555
F30 F6 2.666535 1_555
F30 N8 2.949938 1_554
F30 F40 3.351093 1_555
F30 N2 3.446848 1_555
F30 N0 3.685742 1_555
F31 Te7 1.917125 1_554
F31 F7 2.666535 1_554
F31 N9 2.949938 1_555
F31 F41 3.351093 1_555
F31 N5 3.446848 1_545
F31 N1 3.685742 1_555
F32 Te0 1.953131 1_555
F32 F8 2.678362 1_555
F33 Te1 1.953131 1_455
F33 F9 2.678362 1_455
F34 Te2 1.953131 1_555
F35 Te3 1.953131 1_655
F36 Te4 1.953131 1_555
F36 F4 2.704604 1_555
F37 Te5 1.953131 1_545
F37 F5 2.704604 1_545
F38 Te6 1.953131 1_555
F38 F6 2.704604 1_555
F39 Te7 1.953131 1_565
F39 F7 2.704604 1_565
F40 N0 3.092010 1_555
F40 N0 3.092010 1_556
F40 F6 3.228160 1_555
F41 N1 3.092010 1_554
F41 N1 3.092010 1_555
F41 F7 3.228160 1_554
F41 F5 3.228160 1_444
