# generated using pymatgen
data_KCr5Se8
_symmetry_space_group_name_H-M   'P 1'
_cell_length_a   19.33261266
_cell_length_b   19.33261266
_cell_length_c   18.22370148
_cell_angle_alpha   75.25523778
_cell_angle_beta   75.25523778
_cell_angle_gamma   22.03836626
_symmetry_Int_Tables_number   1
_chemical_formula_structural   KCr5Se8
_chemical_formula_sum   'K8 Cr40 Se64'
_cell_volume   2468.30423014
_cell_formula_units_Z   8
loop_
 _symmetry_equiv_pos_site_id
 _symmetry_equiv_pos_as_xyz
  1  'x, y, z'
loop_
 _atom_site_type_symbol
 _atom_site_label
 _atom_site_symmetry_multiplicity
 _atom_site_fract_x
 _atom_site_fract_y
 _atom_site_fract_z
 _atom_site_occupancy
  K  K0_0  1  0.25000000  0.25000000  0.25000000  1
  K  K0_1  1  0.25000000  0.25000000  0.75000000  1
  K  K0_2  1  0.25000000  0.75000000  0.25000000  1
  K  K0_3  1  0.25000000  0.75000000  0.75000000  1
  K  K0_4  1  0.75000000  0.25000000  0.25000000  1
  K  K0_5  1  0.75000000  0.25000000  0.75000000  1
  K  K0_6  1  0.75000000  0.75000000  0.25000000  1
  K  K0_7  1  0.75000000  0.75000000  0.75000000  1
  Cr  Cr0_0  1  0.00000000  0.00000000  0.00000000  1
  Cr  Cr0_1  1  0.00000000  0.00000000  0.50000000  1
  Cr  Cr0_2  1  1.00000000  0.50000000  0.00000000  1
  Cr  Cr0_3  1  1.00000000  0.50000000  0.50000000  1
  Cr  Cr0_4  1  0.50000000  0.00000000  0.00000000  1
  Cr  Cr0_5  1  0.50000000  0.00000000  0.50000000  1
  Cr  Cr0_6  1  0.50000000  0.50000000  0.00000000  1
  Cr  Cr0_7  1  0.50000000  0.50000000  0.50000000  1
  Cr  Cr1_0  1  0.17057050  0.17057050  0.49029250  1
  Cr  Cr1_1  1  0.17057050  0.17057050  0.99029250  1
  Cr  Cr1_2  1  0.17057050  0.67057050  0.49029250  1
  Cr  Cr1_3  1  0.17057050  0.67057050  0.99029250  1
  Cr  Cr1_4  1  0.67057050  0.17057050  0.49029250  1
  Cr  Cr1_5  1  0.67057050  0.17057050  0.99029250  1
  Cr  Cr1_6  1  0.67057050  0.67057050  0.49029250  1
  Cr  Cr1_7  1  0.67057050  0.67057050  0.99029250  1
  Cr  Cr2_0  1  0.32942950  0.32942950  0.00970750  1
  Cr  Cr2_1  1  0.32942950  0.32942950  0.50970750  1
  Cr  Cr2_2  1  0.32942950  0.82942950  0.00970750  1
  Cr  Cr2_3  1  0.32942950  0.82942950  0.50970750  1
  Cr  Cr2_4  1  0.82942950  0.32942950  0.00970750  1
  Cr  Cr2_5  1  0.82942950  0.32942950  0.50970750  1
  Cr  Cr2_6  1  0.82942950  0.82942950  0.00970750  1
  Cr  Cr2_7  1  0.82942950  0.82942950  0.50970750  1
  Cr  Cr3_0  1  0.14786500  0.14786500  0.16686300  1
  Cr  Cr3_1  1  0.14786500  0.14786500  0.66686300  1
  Cr  Cr3_2  1  0.14786500  0.64786500  0.16686300  1
  Cr  Cr3_3  1  0.14786500  0.64786500  0.66686300  1
  Cr  Cr3_4  1  0.64786500  0.14786500  0.16686300  1
  Cr  Cr3_5  1  0.64786500  0.14786500  0.66686300  1
  Cr  Cr3_6  1  0.64786500  0.64786500  0.16686300  1
  Cr  Cr3_7  1  0.64786500  0.64786500  0.66686300  1
  Cr  Cr4_0  1  0.35213500  0.35213500  0.33313700  1
  Cr  Cr4_1  1  0.35213500  0.35213500  0.83313700  1
  Cr  Cr4_2  1  0.35213500  0.85213500  0.33313700  1
  Cr  Cr4_3  1  0.35213500  0.85213500  0.83313700  1
  Cr  Cr4_4  1  0.85213500  0.35213500  0.33313700  1
  Cr  Cr4_5  1  0.85213500  0.35213500  0.83313700  1
  Cr  Cr4_6  1  0.85213500  0.85213500  0.33313700  1
  Cr  Cr4_7  1  0.85213500  0.85213500  0.83313700  1
  Se  Se0_0  1  0.28746600  0.28746600  0.42244350  1
  Se  Se0_1  1  0.28746600  0.28746600  0.92244350  1
  Se  Se0_2  1  0.28746600  0.78746600  0.42244350  1
  Se  Se0_3  1  0.28746600  0.78746600  0.92244350  1
  Se  Se0_4  1  0.78746600  0.28746600  0.42244350  1
  Se  Se0_5  1  0.78746600  0.28746600  0.92244350  1
  Se  Se0_6  1  0.78746600  0.78746600  0.42244350  1
  Se  Se0_7  1  0.78746600  0.78746600  0.92244350  1
  Se  Se1_0  1  0.21253400  0.21253400  0.07755650  1
  Se  Se1_1  1  0.21253400  0.21253400  0.57755650  1
  Se  Se1_2  1  0.21253400  0.71253400  0.07755650  1
  Se  Se1_3  1  0.21253400  0.71253400  0.57755650  1
  Se  Se1_4  1  0.71253400  0.21253400  0.07755650  1
  Se  Se1_5  1  0.71253400  0.21253400  0.57755650  1
  Se  Se1_6  1  0.71253400  0.71253400  0.07755650  1
  Se  Se1_7  1  0.71253400  0.71253400  0.57755650  1
  Se  Se2_0  1  0.04307900  0.04307900  0.08533100  1
  Se  Se2_1  1  0.04307900  0.04307900  0.58533100  1
  Se  Se2_2  1  0.04307900  0.54307900  0.08533100  1
  Se  Se2_3  1  0.04307900  0.54307900  0.58533100  1
  Se  Se2_4  1  0.54307900  0.04307900  0.08533100  1
  Se  Se2_5  1  0.54307900  0.04307900  0.58533100  1
  Se  Se2_6  1  0.54307900  0.54307900  0.08533100  1
  Se  Se2_7  1  0.54307900  0.54307900  0.58533100  1
  Se  Se3_0  1  0.45692100  0.45692100  0.41466900  1
  Se  Se3_1  1  0.45692100  0.45692100  0.91466900  1
  Se  Se3_2  1  0.45692100  0.95692100  0.41466900  1
  Se  Se3_3  1  0.45692100  0.95692100  0.91466900  1
  Se  Se3_4  1  0.95692100  0.45692100  0.41466900  1
  Se  Se3_5  1  0.95692100  0.45692100  0.91466900  1
  Se  Se3_6  1  0.95692100  0.95692100  0.41466900  1
  Se  Se3_7  1  0.95692100  0.95692100  0.91466900  1
  Se  Se4_0  1  0.08557400  0.08557400  0.25553050  1
  Se  Se4_1  1  0.08557400  0.08557400  0.75553050  1
  Se  Se4_2  1  0.08557400  0.58557400  0.25553050  1
  Se  Se4_3  1  0.08557400  0.58557400  0.75553050  1
  Se  Se4_4  1  0.58557400  0.08557400  0.25553050  1
  Se  Se4_5  1  0.58557400  0.08557400  0.75553050  1
  Se  Se4_6  1  0.58557400  0.58557400  0.25553050  1
  Se  Se4_7  1  0.58557400  0.58557400  0.75553050  1
  Se  Se5_0  1  0.41442600  0.41442600  0.24446950  1
  Se  Se5_1  1  0.41442600  0.41442600  0.74446950  1
  Se  Se5_2  1  0.41442600  0.91442600  0.24446950  1
  Se  Se5_3  1  0.41442600  0.91442600  0.74446950  1
  Se  Se5_4  1  0.91442600  0.41442600  0.24446950  1
  Se  Se5_5  1  0.91442600  0.41442600  0.74446950  1
  Se  Se5_6  1  0.91442600  0.91442600  0.24446950  1
  Se  Se5_7  1  0.91442600  0.91442600  0.74446950  1
  Se  Se6_0  1  0.11952200  0.11952200  0.42165000  1
  Se  Se6_1  1  0.11952200  0.11952200  0.92165000  1
  Se  Se6_2  1  0.11952200  0.61952200  0.42165000  1
  Se  Se6_3  1  0.11952200  0.61952200  0.92165000  1
  Se  Se6_4  1  0.61952200  0.11952200  0.42165000  1
  Se  Se6_5  1  0.61952200  0.11952200  0.92165000  1
  Se  Se6_6  1  0.61952200  0.61952200  0.42165000  1
  Se  Se6_7  1  0.61952200  0.61952200  0.92165000  1
  Se  Se7_0  1  0.38047800  0.38047800  0.07835000  1
  Se  Se7_1  1  0.38047800  0.38047800  0.57835000  1
  Se  Se7_2  1  0.38047800  0.88047800  0.07835000  1
  Se  Se7_3  1  0.38047800  0.88047800  0.57835000  1
  Se  Se7_4  1  0.88047800  0.38047800  0.07835000  1
  Se  Se7_5  1  0.88047800  0.38047800  0.57835000  1
  Se  Se7_6  1  0.88047800  0.88047800  0.07835000  1
  Se  Se7_7  1  0.88047800  0.88047800  0.57835000  1
loop_
_geom_bond_atom_site_label_1
_geom_bond_atom_site_label_2
_geom_bond_distance
_geom_bond_site_symmetry_2
K0_0 Se3_4 3.542259 1_455
K0_0 Se3_2 3.542259 1_545
K0_0 Se2_2 3.542259 1_555
K0_0 Se2_4 3.542259 1_555
K0_0 K0_6 3.695190 1_545
K0_0 K0_6 3.695190 1_455
K0_0 Se4_2 3.760492 1_555
K0_0 Se4_4 3.760492 1_555
K0_0 Se5_4 3.760492 1_455
K0_0 Se5_2 3.760492 1_545
K0_0 Se0_0 3.770258 1_555
K0_0 Se1_0 3.770258 1_555
K0_1 Se3_5 3.542259 1_455
K0_1 Se3_3 3.542259 1_545
K0_1 Se2_5 3.542259 1_555
K0_1 Se2_3 3.542259 1_555
K0_1 K0_7 3.695190 1_545
K0_1 K0_7 3.695190 1_455
K0_1 Se4_3 3.760492 1_555
K0_1 Se4_5 3.760492 1_555
K0_1 Se5_5 3.760492 1_455
K0_1 Se5_3 3.760492 1_545
K0_1 Se0_1 3.770258 1_555
K0_1 Se1_1 3.770258 1_555
K0_2 Se3_0 3.542259 1_555
K0_2 Se3_6 3.542259 1_455
K0_2 Se2_6 3.542259 1_555
K0_2 Se2_0 3.542259 1_565
K0_2 K0_4 3.695190 1_465
K0_2 K0_4 3.695190 1_555
K0_2 Se4_0 3.760492 1_565
K0_2 Se4_6 3.760492 1_555
K0_2 Se5_0 3.760492 1_555
K0_2 Se5_6 3.760492 1_455
K0_2 Se0_2 3.770258 1_555
K0_2 Se1_2 3.770258 1_555
K0_3 Se3_1 3.542259 1_555
K0_3 Se3_7 3.542259 1_455
K0_3 Se2_7 3.542259 1_555
K0_3 Se2_1 3.542259 1_565
K0_3 K0_5 3.695190 1_555
K0_3 K0_5 3.695190 1_465
K0_3 Se4_7 3.760492 1_555
K0_3 Se4_1 3.760492 1_565
K0_3 Se5_1 3.760492 1_555
K0_3 Se5_7 3.760492 1_455
K0_3 Se0_3 3.770258 1_555
K0_3 Se1_3 3.770258 1_555
K0_4 Se3_6 3.542259 1_545
K0_4 Se3_0 3.542259 1_555
K0_4 Se2_6 3.542259 1_555
K0_4 Se2_0 3.542259 1_655
K0_4 Se4_6 3.760492 1_555
K0_4 Se4_0 3.760492 1_655
K0_4 Se5_0 3.760492 1_555
K0_4 Se5_6 3.760492 1_545
K0_4 Se0_4 3.770258 1_555
K0_4 Se1_4 3.770258 1_555
K0_5 Se3_1 3.542259 1_555
K0_5 Se3_7 3.542259 1_545
K0_5 Se2_7 3.542259 1_555
K0_5 Se2_1 3.542259 1_655
K0_5 Se4_7 3.760492 1_555
K0_5 Se4_1 3.760492 1_655
K0_5 Se5_1 3.760492 1_555
K0_5 Se5_7 3.760492 1_545
K0_5 Se0_5 3.770258 1_555
K0_5 Se1_5 3.770258 1_555
K0_6 Se3_2 3.542259 1_555
K0_6 Se3_4 3.542259 1_555
K0_6 Se2_2 3.542259 1_655
K0_6 Se2_4 3.542259 1_565
K0_6 Se4_2 3.760492 1_655
K0_6 Se4_4 3.760492 1_565
K0_6 Se5_4 3.760492 1_555
K0_6 Se5_2 3.760492 1_555
K0_6 Se0_6 3.770258 1_555
K0_6 Se1_6 3.770258 1_555
K0_7 Se3_5 3.542259 1_555
K0_7 Se3_3 3.542259 1_555
K0_7 Se2_3 3.542259 1_655
K0_7 Se2_5 3.542259 1_565
K0_7 Se4_3 3.760492 1_655
K0_7 Se4_5 3.760492 1_565
K0_7 Se5_5 3.760492 1_555
K0_7 Se5_3 3.760492 1_555
K0_7 Se0_7 3.770258 1_555
K0_7 Se1_7 3.770258 1_555
Cr0_0 Se1_4 2.528017 1_455
Cr0_0 Se1_2 2.528017 1_545
Cr0_0 Se0_3 2.528017 1_544
Cr0_0 Se0_5 2.528017 1_454
Cr0_0 Se2_0 2.531739 1_555
Cr0_0 Se3_7 2.531739 1_444
Cr0_1 Se1_5 2.528017 1_455
Cr0_1 Se0_2 2.528017 1_545
Cr0_1 Se1_3 2.528017 1_545
Cr0_1 Se0_4 2.528017 1_455
Cr0_1 Se2_1 2.531739 1_555
Cr0_1 Se3_6 2.531739 1_445
Cr0_2 Se1_0 2.528017 1_655
Cr0_2 Se1_6 2.528017 1_555
Cr0_2 Se0_1 2.528017 1_654
Cr0_2 Se0_7 2.528017 1_554
Cr0_2 Se2_2 2.531739 1_655
Cr0_2 Se3_5 2.531739 1_554
Cr0_3 Se1_7 2.528017 1_555
Cr0_3 Se1_1 2.528017 1_655
Cr0_3 Se0_6 2.528017 1_555
Cr0_3 Se0_0 2.528017 1_655
Cr0_3 Se2_3 2.531739 1_655
Cr0_3 Se3_4 2.531739 1_555
Cr0_4 Se1_0 2.528017 1_555
Cr0_4 Se1_6 2.528017 1_545
Cr0_4 Se0_7 2.528017 1_544
Cr0_4 Se0_1 2.528017 1_554
Cr0_4 Se2_4 2.531739 1_555
Cr0_4 Se3_3 2.531739 1_544
Cr0_5 Se1_7 2.528017 1_545
Cr0_5 Se1_1 2.528017 1_555
Cr0_5 Se0_6 2.528017 1_545
Cr0_5 Se0_0 2.528017 1_555
Cr0_5 Se2_5 2.531739 1_555
Cr0_5 Se3_2 2.531739 1_545
Cr0_6 Se1_4 2.528017 1_555
Cr0_6 Se1_2 2.528017 1_555
Cr0_6 Se0_3 2.528017 1_554
Cr0_6 Se0_5 2.528017 1_554
Cr0_6 Se2_6 2.531739 1_555
Cr0_6 Se3_1 2.531739 1_554
Cr0_7 Se1_5 2.528017 1_555
Cr0_7 Se1_3 2.528017 1_555
Cr0_7 Se0_2 2.528017 1_555
Cr0_7 Se0_4 2.528017 1_555
Cr0_7 Se2_7 2.531739 1_555
Cr0_7 Se3_0 2.531739 1_555
Cr1_0 Se3_2 2.496030 1_545
Cr1_0 Se3_4 2.496030 1_455
Cr1_0 Se1_1 2.525631 1_555
Cr1_0 Se6_0 2.564213 1_555
Cr1_0 Se7_3 2.652883 1_545
Cr1_0 Se7_5 2.652883 1_455
Cr1_1 Se3_3 2.496030 1_545
Cr1_1 Se3_5 2.496030 1_455
Cr1_1 Se1_0 2.525631 1_556
Cr1_1 Se6_1 2.564213 1_555
Cr1_1 Se7_4 2.652883 1_456
Cr1_1 Se7_2 2.652883 1_546
Cr1_2 Se3_6 2.496030 1_455
Cr1_2 Se3_0 2.496030 1_555
Cr1_2 Se1_3 2.525631 1_555
Cr1_2 Se6_2 2.564213 1_555
Cr1_2 Se7_7 2.652883 1_455
Cr1_2 Se7_1 2.652883 1_555
Cr1_3 Se3_7 2.496030 1_455
Cr1_3 Se3_1 2.496030 1_555
Cr1_3 Se1_2 2.525631 1_556
Cr1_3 Se6_3 2.564213 1_555
Cr1_3 Se7_0 2.652883 1_556
Cr1_3 Se7_6 2.652883 1_456
Cr1_4 Se3_6 2.496030 1_545
Cr1_4 Se3_0 2.496030 1_555
Cr1_4 Se1_5 2.525631 1_555
Cr1_4 Se6_4 2.564213 1_555
Cr1_4 Se7_7 2.652883 1_545
Cr1_4 Se7_1 2.652883 1_555
Cr1_5 Se3_7 2.496030 1_545
Cr1_5 Se3_1 2.496030 1_555
Cr1_5 Se1_4 2.525631 1_556
Cr1_5 Se6_5 2.564213 1_555
Cr1_5 Se7_0 2.652883 1_556
Cr1_5 Se7_6 2.652883 1_546
Cr1_6 Se3_2 2.496030 1_555
Cr1_6 Se3_4 2.496030 1_555
Cr1_6 Se1_7 2.525631 1_555
Cr1_6 Se6_6 2.564213 1_555
Cr1_6 Se7_5 2.652883 1_555
Cr1_6 Se7_3 2.652883 1_555
Cr1_7 Se3_3 2.496030 1_555
Cr1_7 Se3_5 2.496030 1_555
Cr1_7 Se1_6 2.525631 1_556
Cr1_7 Se6_7 2.564213 1_555
Cr1_7 Se7_4 2.652883 1_556
Cr1_7 Se7_2 2.652883 1_556
Cr2_0 Se2_4 2.496030 1_555
Cr2_0 Se2_2 2.496030 1_555
Cr2_0 Se0_1 2.525631 1_554
Cr2_0 Se7_0 2.564213 1_555
Cr2_0 Se6_3 2.652883 1_554
Cr2_0 Se6_5 2.652883 1_554
Cr2_1 Se2_5 2.496030 1_555
Cr2_1 Se2_3 2.496030 1_555
Cr2_1 Se0_0 2.525631 1_555
Cr2_1 Se7_1 2.564213 1_555
Cr2_1 Se6_2 2.652883 1_555
Cr2_1 Se6_4 2.652883 1_555
Cr2_2 Se2_0 2.496030 1_565
Cr2_2 Se2_6 2.496030 1_555
Cr2_2 Se0_3 2.525631 1_554
Cr2_2 Se7_2 2.564213 1_555
Cr2_2 Se6_7 2.652883 1_554
Cr2_2 Se6_1 2.652883 1_564
Cr2_3 Se2_1 2.496030 1_565
Cr2_3 Se2_7 2.496030 1_555
Cr2_3 Se0_2 2.525631 1_555
Cr2_3 Se7_3 2.564213 1_555
Cr2_3 Se6_0 2.652883 1_565
Cr2_3 Se6_6 2.652883 1_555
Cr2_4 Se2_0 2.496030 1_655
Cr2_4 Se2_6 2.496030 1_555
Cr2_4 Se0_5 2.525631 1_554
Cr2_4 Se7_4 2.564213 1_555
Cr2_4 Se6_7 2.652883 1_554
Cr2_4 Se6_1 2.652883 1_654
Cr2_5 Se2_1 2.496030 1_655
Cr2_5 Se2_7 2.496030 1_555
Cr2_5 Se0_4 2.525631 1_555
Cr2_5 Se7_5 2.564213 1_555
Cr2_5 Se6_6 2.652883 1_555
Cr2_5 Se6_0 2.652883 1_655
Cr2_6 Se2_4 2.496030 1_565
Cr2_6 Se2_2 2.496030 1_655
Cr2_6 Se0_7 2.525631 1_554
Cr2_6 Se7_6 2.564213 1_555
Cr2_6 Se6_5 2.652883 1_564
Cr2_6 Se6_3 2.652883 1_654
Cr2_7 Se2_5 2.496030 1_565
Cr2_7 Se2_3 2.496030 1_655
Cr2_7 Se0_6 2.525631 1_555
Cr2_7 Se7_7 2.564213 1_555
Cr2_7 Se6_4 2.652883 1_565
Cr2_7 Se6_2 2.652883 1_655
Cr3_0 Se4_0 2.493768 1_555
Cr3_0 Se5_2 2.503960 1_545
Cr3_0 Se5_4 2.503960 1_455
Cr3_0 Se1_0 2.569254 1_555
Cr3_0 Se7_4 2.646302 1_455
Cr3_0 Se7_2 2.646302 1_545
Cr3_1 Se4_1 2.493768 1_555
Cr3_1 Se5_3 2.503960 1_545
Cr3_1 Se5_5 2.503960 1_455
Cr3_1 Se1_1 2.569254 1_555
Cr3_1 Se7_5 2.646302 1_455
Cr3_1 Se7_3 2.646302 1_545
Cr3_2 Se4_2 2.493768 1_555
Cr3_2 Se5_6 2.503960 1_455
Cr3_2 Se5_0 2.503960 1_555
Cr3_2 Se1_2 2.569254 1_555
Cr3_2 Se7_0 2.646302 1_555
Cr3_2 Se7_6 2.646302 1_455
Cr3_3 Se4_3 2.493768 1_555
Cr3_3 Se5_7 2.503960 1_455
Cr3_3 Se5_1 2.503960 1_555
Cr3_3 Se1_3 2.569254 1_555
Cr3_3 Se7_7 2.646302 1_455
Cr3_3 Se7_1 2.646302 1_555
Cr3_4 Se4_4 2.493768 1_555
Cr3_4 Se5_6 2.503960 1_545
Cr3_4 Se5_0 2.503960 1_555
Cr3_4 Se1_4 2.569254 1_555
Cr3_4 Se7_0 2.646302 1_555
Cr3_4 Se7_6 2.646302 1_545
Cr3_5 Se4_5 2.493768 1_555
Cr3_5 Se5_7 2.503960 1_545
Cr3_5 Se5_1 2.503960 1_555
Cr3_5 Se1_5 2.569254 1_555
Cr3_5 Se7_7 2.646302 1_545
Cr3_5 Se7_1 2.646302 1_555
Cr3_6 Se4_6 2.493768 1_555
Cr3_6 Se5_2 2.503960 1_555
Cr3_6 Se5_4 2.503960 1_555
Cr3_6 Se1_6 2.569254 1_555
Cr3_6 Se7_4 2.646302 1_555
Cr3_6 Se7_2 2.646302 1_555
Cr3_7 Se4_7 2.493768 1_555
Cr3_7 Se5_3 2.503960 1_555
Cr3_7 Se5_5 2.503960 1_555
Cr3_7 Se1_7 2.569254 1_555
Cr3_7 Se7_5 2.646302 1_555
Cr3_7 Se7_3 2.646302 1_555
Cr4_0 Se5_0 2.493768 1_555
Cr4_0 Se4_4 2.503960 1_555
Cr4_0 Se4_2 2.503960 1_555
Cr4_0 Se0_0 2.569254 1_555
Cr4_0 Se6_2 2.646302 1_555
Cr4_0 Se6_4 2.646302 1_555
Cr4_1 Se5_1 2.493768 1_555
Cr4_1 Se4_5 2.503960 1_555
Cr4_1 Se4_3 2.503960 1_555
Cr4_1 Se0_1 2.569254 1_555
Cr4_1 Se6_3 2.646302 1_555
Cr4_1 Se6_5 2.646302 1_555
Cr4_2 Se5_2 2.493768 1_555
Cr4_2 Se4_0 2.503960 1_565
Cr4_2 Se4_6 2.503960 1_555
Cr4_2 Se0_2 2.569254 1_555
Cr4_2 Se6_6 2.646302 1_555
Cr4_2 Se6_0 2.646302 1_565
Cr4_3 Se5_3 2.493768 1_555
Cr4_3 Se4_7 2.503960 1_555
Cr4_3 Se4_1 2.503960 1_565
Cr4_3 Se0_3 2.569254 1_555
Cr4_3 Se6_7 2.646302 1_555
Cr4_3 Se6_1 2.646302 1_565
Cr4_4 Se5_4 2.493768 1_555
Cr4_4 Se4_6 2.503960 1_555
Cr4_4 Se4_0 2.503960 1_655
Cr4_4 Se0_4 2.569254 1_555
Cr4_4 Se6_6 2.646302 1_555
Cr4_4 Se6_0 2.646302 1_655
Cr4_5 Se5_5 2.493768 1_555
Cr4_5 Se4_7 2.503960 1_555
Cr4_5 Se4_1 2.503960 1_655
Cr4_5 Se0_5 2.569254 1_555
Cr4_5 Se6_7 2.646302 1_555
Cr4_5 Se6_1 2.646302 1_655
Cr4_6 Se5_6 2.493768 1_555
Cr4_6 Se4_4 2.503960 1_565
Cr4_6 Se4_2 2.503960 1_655
Cr4_6 Se0_6 2.569254 1_555
Cr4_6 Se6_4 2.646302 1_565
Cr4_6 Se6_2 2.646302 1_655
Cr4_7 Se5_7 2.493768 1_555
Cr4_7 Se4_5 2.503960 1_565
Cr4_7 Se4_3 2.503960 1_655
Cr4_7 Se0_7 2.569254 1_555
Cr4_7 Se6_5 2.646302 1_565
Cr4_7 Se6_3 2.646302 1_655
