# generated using pymatgen
data_CaMn4O9
_symmetry_space_group_name_H-M   'P 1'
_cell_length_a   8.54698900
_cell_length_b   8.54698900
_cell_length_c   5.11165400
_cell_angle_alpha   90.00000000
_cell_angle_beta   90.00000000
_cell_angle_gamma   90.00000000
_symmetry_Int_Tables_number   1
_chemical_formula_structural   CaMn4O9
_chemical_formula_sum   'Ca2 Mn8 O18'
_cell_volume   373.41154353
_cell_formula_units_Z   2
loop_
 _symmetry_equiv_pos_site_id
 _symmetry_equiv_pos_as_xyz
  1  'x, y, z'
loop_
 _atom_site_type_symbol
 _atom_site_label
 _atom_site_symmetry_multiplicity
 _atom_site_fract_x
 _atom_site_fract_y
 _atom_site_fract_z
 _atom_site_occupancy
  Ca  Ca0  1  0.00000000  0.50000000  0.87567500  1
  Ca  Ca1  1  0.50000000  0.00000000  0.12432500  1
  Mn  Mn0  1  0.71675600  0.41074500  0.39391700  1
  Mn  Mn1  1  0.41074500  0.28324400  0.60608300  1
  Mn  Mn2  1  0.91074500  0.78324400  0.39391700  1
  Mn  Mn3  1  0.21675600  0.91074500  0.60608300  1
  Mn  Mn4  1  0.28324400  0.58925500  0.39391700  1
  Mn  Mn5  1  0.08925500  0.21675600  0.39391700  1
  Mn  Mn6  1  0.78324400  0.08925500  0.60608300  1
  Mn  Mn7  1  0.58925500  0.71675600  0.60608300  1
  O  O0  1  0.50000000  0.50000000  0.50000000  1
  O  O1  1  0.00000000  0.00000000  0.50000000  1
  O  O2  1  0.57168200  0.76247200  0.93076400  1
  O  O3  1  0.73752800  0.07168200  0.93076400  1
  O  O4  1  0.26247200  0.92831800  0.93076400  1
  O  O5  1  0.42831800  0.23752800  0.93076400  1
  O  O6  1  0.92831800  0.73752800  0.06923600  1
  O  O7  1  0.76247200  0.42831800  0.06923600  1
  O  O8  1  0.23752800  0.57168200  0.06923600  1
  O  O9  1  0.07168200  0.26247200  0.06923600  1
  O  O10  1  0.20815500  0.39374400  0.53008700  1
  O  O11  1  0.10625600  0.70815500  0.53008700  1
  O  O12  1  0.89374400  0.29184500  0.53008700  1
  O  O13  1  0.79184500  0.60625600  0.53008700  1
  O  O14  1  0.70815500  0.89374400  0.46991300  1
  O  O15  1  0.39374400  0.79184500  0.46991300  1
  O  O16  1  0.60625600  0.20815500  0.46991300  1
  O  O17  1  0.29184500  0.10625600  0.46991300  1
loop_
_geom_bond_atom_site_label_1
_geom_bond_atom_site_label_2
_geom_bond_distance
_geom_bond_site_symmetry_2
Ca0 O6 2.340045 1_456
Ca0 O8 2.340045 1_556
Ca0 O9 2.340045 1_556
Ca0 O7 2.340045 1_456
Ca0 O10 2.666567 1_555
Ca0 O11 2.666567 1_555
Ca0 O12 2.666567 1_455
Ca0 O13 2.666567 1_455
Ca1 O3 2.340045 1_554
Ca1 O5 2.340045 1_554
Ca1 O4 2.340045 1_544
Ca1 O2 2.340045 1_544
Ca1 O16 2.666567 1_555
Ca1 O14 2.666567 1_545
Ca1 O17 2.666567 1_555
Ca1 O15 2.666567 1_545
Mn0 O7 1.711635 1_555
Mn0 O13 1.920604 1_555
Mn0 O12 1.950778 1_555
Mn0 O16 2.010246 1_555
Mn0 O0 2.075613 1_555
Mn1 O5 1.711635 1_555
Mn1 O16 1.920604 1_555
Mn1 O17 1.950778 1_555
Mn1 O10 2.010246 1_555
Mn1 O0 2.075613 1_555
Mn2 O6 1.711635 1_555
Mn2 O11 1.920604 1_655
Mn2 O13 1.950778 1_555
Mn2 O14 2.010246 1_555
Mn2 O1 2.075613 1_665
Mn3 O4 1.711635 1_555
Mn3 O17 1.920604 1_565
Mn3 O15 1.950778 1_555
Mn3 O11 2.010246 1_555
Mn3 O1 2.075613 1_565
Mn4 O8 1.711635 1_555
Mn4 O10 1.920604 1_555
Mn4 O11 1.950778 1_555
Mn4 O15 2.010246 1_555
Mn4 O0 2.075613 1_555
Mn5 O9 1.711635 1_555
Mn5 O12 1.920604 1_455
Mn5 O10 1.950778 1_555
Mn5 O17 2.010246 1_555
Mn5 O1 2.075613 1_555
Mn6 O3 1.711635 1_555
Mn6 O14 1.920604 1_545
Mn6 O16 1.950778 1_555
Mn6 O12 2.010246 1_555
Mn6 O1 2.075613 1_655
Mn7 O2 1.711635 1_555
Mn7 O15 1.920604 1_555
Mn7 O14 1.950778 1_555
Mn7 O13 2.010246 1_555
Mn7 O0 2.075613 1_555
