# generated using pymatgen
data_Ti2ZnO4
_symmetry_space_group_name_H-M   'P 1'
_cell_length_a   5.98517920
_cell_length_b   5.98517920
_cell_length_c   15.09739300
_cell_angle_alpha   90.00000000
_cell_angle_beta   90.00000000
_cell_angle_gamma   119.99999113
_symmetry_Int_Tables_number   1
_chemical_formula_structural   Ti2ZnO4
_chemical_formula_sum   'Ti12 Zn6 O24'
_cell_volume   468.36770997
_cell_formula_units_Z   6
loop_
 _symmetry_equiv_pos_site_id
 _symmetry_equiv_pos_as_xyz
  1  'x, y, z'
loop_
 _atom_site_type_symbol
 _atom_site_label
 _atom_site_symmetry_multiplicity
 _atom_site_fract_x
 _atom_site_fract_y
 _atom_site_fract_z
 _atom_site_occupancy
  Ti  Ti0  1  0.34988400  0.17494200  0.16530700  1
  Ti  Ti1  1  0.82505800  0.65011600  0.16530700  1
  Ti  Ti2  1  0.01396200  0.50698100  0.50066800  1
  Ti  Ti3  1  0.82505800  0.17494200  0.16530700  1
  Ti  Ti4  1  0.49301900  0.98603800  0.50066800  1
  Ti  Ti5  1  0.33333300  0.66666700  0.67717300  1
  Ti  Ti6  1  0.33333300  0.66666700  0.28948600  1
  Ti  Ti7  1  0.64159100  0.82079500  0.82873600  1
  Ti  Ti8  1  0.49301900  0.50698100  0.50066800  1
  Ti  Ti9  1  0.17920500  0.35840900  0.82873600  1
  Ti  Ti10  1  0.17920500  0.82079500  0.82873600  1
  Ti  Ti11  1  0.66666700  0.33333300  0.94894600  1
  Zn  Zn0  1  0.33333300  0.66666700  0.04502700  1
  Zn  Zn1  1  0.00000000  0.00000000  0.37282400  1
  Zn  Zn2  1  0.66666700  0.33333300  0.33979500  1
  Zn  Zn3  1  0.66666700  0.33333300  0.69549900  1
  Zn  Zn4  1  0.00000000  0.00000000  0.00184400  1
  Zn  Zn5  1  0.00000000  0.00000000  0.63070300  1
  O  O0  1  0.68763300  0.84381600  0.09285000  1
  O  O1  1  0.00000000  0.00000000  0.24046100  1
  O  O2  1  0.15618400  0.31236700  0.09285000  1
  O  O3  1  0.15618400  0.84381600  0.09285000  1
  O  O4  1  0.35215100  0.17607600  0.42713300  1
  O  O5  1  0.50482100  0.49517900  0.24896500  1
  O  O6  1  0.66666700  0.33333300  0.56827600  1
  O  O7  1  0.50482100  0.00964200  0.24896500  1
  O  O8  1  0.66666700  0.33333300  0.07299100  1
  O  O9  1  0.82392400  0.64784900  0.42713300  1
  O  O10  1  0.82392400  0.17607600  0.42713300  1
  O  O11  1  0.99035800  0.49517900  0.24896500  1
  O  O12  1  0.00679100  0.50339500  0.74993600  1
  O  O13  1  0.18083300  0.81916700  0.58408800  1
  O  O14  1  0.18083300  0.36166600  0.58408800  1
  O  O15  1  0.33333300  0.66666700  0.91381100  1
  O  O16  1  0.33333300  0.66666700  0.41484900  1
  O  O17  1  0.49660500  0.99320900  0.74993600  1
  O  O18  1  0.49660500  0.50339500  0.74993600  1
  O  O19  1  0.63833400  0.81916700  0.58408800  1
  O  O20  1  0.83962200  0.16037800  0.91060300  1
  O  O21  1  0.83962200  0.67924400  0.91060300  1
  O  O22  1  0.00000000  0.00000000  0.76325300  1
  O  O23  1  0.32075600  0.16037800  0.91060300  1
loop_
_geom_bond_atom_site_label_1
_geom_bond_atom_site_label_2
_geom_bond_distance
_geom_bond_site_symmetry_2
O0 Zn0 1.973280 1_555
O0 Ti1 2.042248 1_555
O0 Ti3 2.042253 1_565
O0 Zn4 2.123493 1_665
O1 Zn1 1.998336 1_555
O1 Ti3 2.139248 1_455
O1 Ti0 2.139248 1_555
O1 Ti1 2.139248 1_445
O2 Zn0 1.973280 1_555
O2 Ti0 2.042248 1_555
O2 Ti3 2.042253 1_455
O2 Zn4 2.123493 1_555
O3 Zn0 1.973270 1_555
O3 Ti0 2.042253 1_565
O3 Ti1 2.042253 1_455
O3 Zn4 2.123497 1_565
O4 Zn1 2.001008 1_555
O4 Ti8 2.048421 1_555
O4 Ti4 2.048425 1_545
O4 Zn2 2.096739 1_555
O5 Ti6 1.880069 1_555
O5 Ti0 2.086004 1_555
O5 Ti1 2.086004 1_555
O5 Zn2 2.166901 1_555
O6 Zn3 1.920736 1_555
O6 Ti2 2.069382 1_655
O6 Ti4 2.069382 1_545
O6 Ti8 2.069387 1_555
O7 Ti6 1.880064 1_545
O7 Ti0 2.086003 1_555
O7 Ti3 2.086004 1_555
O7 Zn2 2.166897 1_555
O8 Ti11 1.872756 1_554
O8 Ti3 2.153738 1_555
O8 Ti1 2.153743 1_555
O8 Ti0 2.153743 1_555
O9 Zn1 2.001008 1_665
O9 Ti8 2.048421 1_555
O9 Ti2 2.048425 1_655
O9 Zn2 2.096739 1_555
O10 Zn1 2.001013 1_655
O10 Ti4 2.048421 1_545
O10 Ti2 2.048421 1_655
O10 Zn2 2.096731 1_555
O11 Ti6 1.880064 1_655
O11 Ti1 2.086003 1_555
O11 Ti3 2.086004 1_555
O11 Zn2 2.166897 1_555
O12 Zn3 1.945126 1_455
O12 Ti5 2.017813 1_555
O12 Ti9 2.031919 1_555
O12 Ti10 2.031919 1_555
O13 Zn5 2.002379 1_565
O13 Ti2 2.051524 1_555
O13 Ti4 2.051524 1_555
O13 Ti5 2.115246 1_555
O14 Zn5 2.002379 1_555
O14 Ti2 2.051524 1_555
O14 Ti8 2.051524 1_555
O14 Ti5 2.115250 1_555
O15 Zn0 1.981020 1_556
O15 Ti10 2.050034 1_555
O15 Ti7 2.050042 1_555
O15 Ti9 2.050042 1_555
O16 Ti6 1.892654 1_555
O16 Ti4 2.102152 1_555
O16 Ti2 2.102152 1_555
O16 Ti8 2.102156 1_555
O17 Zn3 1.945126 1_565
O17 Ti5 2.017813 1_555
O17 Ti7 2.031919 1_555
O17 Ti10 2.031919 1_555
O18 Zn3 1.945126 1_555
O18 Ti5 2.017821 1_555
O18 Ti9 2.031919 1_555
O18 Ti7 2.031919 1_555
O19 Zn5 2.002379 1_665
O19 Ti4 2.051524 1_555
O19 Ti8 2.051524 1_555
O19 Ti5 2.115250 1_555
O20 Ti11 1.884094 1_555
O20 Ti9 2.157405 1_655
O20 Ti7 2.157405 1_545
O20 Zn4 2.159093 1_656
O21 Ti11 1.884099 1_555
O21 Ti7 2.157401 1_555
O21 Ti10 2.157405 1_655
O21 Zn4 2.159093 1_666
O22 Zn5 2.001159 1_555
O22 Ti7 2.104424 1_445
O22 Ti9 2.104424 1_555
O22 Ti10 2.104429 1_545
O23 Ti11 1.884099 1_555
O23 Ti9 2.157401 1_555
O23 Ti10 2.157405 1_545
O23 Zn4 2.159093 1_556
