# generated using pymatgen
data_NdAl7Au3
_symmetry_space_group_name_H-M   'P 1'
_cell_length_a   8.44042578
_cell_length_b   8.44042578
_cell_length_c   8.44042566
_cell_angle_alpha   57.39429143
_cell_angle_beta   57.39429143
_cell_angle_gamma   57.39429008
_symmetry_Int_Tables_number   1
_chemical_formula_structural   NdAl7Au3
_chemical_formula_sum   'Nd2 Al14 Au6'
_cell_volume   399.68995203
_cell_formula_units_Z   2
loop_
 _symmetry_equiv_pos_site_id
 _symmetry_equiv_pos_as_xyz
  1  'x, y, z'
loop_
 _atom_site_type_symbol
 _atom_site_label
 _atom_site_symmetry_multiplicity
 _atom_site_fract_x
 _atom_site_fract_y
 _atom_site_fract_z
 _atom_site_occupancy
  Nd  Nd0  1  0.50000000  0.50000000  0.50000000  1
  Nd  Nd1  1  -0.00000000  0.00000000  0.00000000  1
  Al  Al0  1  0.43249105  0.64705293  0.83120682  1
  Al  Al1  1  0.83120682  0.43249105  0.64705293  1
  Al  Al2  1  0.64705293  0.83120682  0.43249105  1
  Al  Al3  1  0.06750895  0.66879318  0.85294707  1
  Al  Al4  1  0.85294707  0.06750895  0.66879318  1
  Al  Al5  1  0.66879318  0.85294707  0.06750895  1
  Al  Al6  1  0.56750895  0.35294707  0.16879318  1
  Al  Al7  1  0.16879318  0.56750895  0.35294707  1
  Al  Al8  1  0.25000000  0.25000000  0.25000000  1
  Al  Al9  1  0.75000000  0.75000000  0.75000000  1
  Al  Al10  1  0.33120682  0.14705293  0.93249105  1
  Al  Al11  1  0.14705293  0.93249105  0.33120682  1
  Al  Al12  1  0.93249105  0.33120682  0.14705293  1
  Al  Al13  1  0.35294707  0.16879318  0.56750895  1
  Au  Au0  1  0.75000000  0.07161076  0.42838924  1
  Au  Au1  1  0.42838924  0.75000000  0.07161076  1
  Au  Au2  1  0.07161076  0.42838924  0.75000000  1
  Au  Au3  1  0.25000000  0.92838924  0.57161076  1
  Au  Au4  1  0.57161076  0.25000000  0.92838924  1
  Au  Au5  1  0.92838924  0.57161076  0.25000000  1
loop_
_geom_bond_atom_site_label_1
_geom_bond_atom_site_label_2
_geom_bond_distance
_geom_bond_site_symmetry_2
Al0 Au1 2.581767 1_556
Al0 Au3 2.626835 1_555
Al0 Au4 2.667827 1_555
Al0 Al1 2.801643 1_555
Al0 Al2 2.801644 1_555
Al0 Al9 2.880079 1_555
Al0 Al3 2.894017 1_555
Al0 Al6 2.899601 1_556
Al0 Nd0 3.307677 1_555
Al0 Nd1 3.388102 1_566
Al1 Au2 2.581767 1_655
Al1 Au4 2.626835 1_555
Al1 Au5 2.667827 1_555
Al1 Al2 2.801643 1_555
Al1 Al9 2.880079 1_555
Al1 Al4 2.894017 1_555
Al1 Al7 2.899601 1_655
Al1 Nd0 3.307677 1_555
Al1 Nd1 3.388102 1_656
Al2 Au0 2.581767 1_565
Al2 Au5 2.626835 1_555
Al2 Au3 2.667827 1_555
Al2 Al9 2.880079 1_555
Al2 Al5 2.894017 1_555
Al2 Nd0 3.307677 1_555
Al2 Nd1 3.388102 1_665
Al3 Au2 2.581767 1_555
Al3 Au3 2.626835 1_555
Al3 Au5 2.667827 1_456
Al3 Al4 2.801643 1_465
Al3 Al5 2.801643 1_456
Al3 Al9 2.880079 1_455
Al3 Nd1 3.307677 1_566
Al3 Nd0 3.388102 1_555
Al4 Au0 2.581767 1_555
Al4 Au4 2.626835 1_555
Al4 Au3 2.667827 1_645
Al4 Al5 2.801644 1_546
Al4 Al9 2.880079 1_545
Al4 Nd1 3.307677 1_656
Al4 Nd0 3.388102 1_555
Al5 Au1 2.581767 1_555
Al5 Au5 2.626835 1_555
Al5 Au4 2.667827 1_564
Al5 Al9 2.880079 1_554
Al5 Nd1 3.307677 1_665
Al5 Nd0 3.388102 1_555
Al6 Au4 2.581767 1_554
Al6 Au0 2.626835 1_555
Al6 Au1 2.667827 1_555
Al6 Al7 2.801643 1_555
Al6 Al8 2.880079 1_555
Al6 Nd0 3.307677 1_555
Al6 Nd1 3.388102 1_655
Al7 Au5 2.581767 1_455
Al7 Au1 2.626835 1_555
Al7 Au2 2.667827 1_555
Al7 Al8 2.880079 1_555
Al7 Nd0 3.307677 1_555
Al7 Nd1 3.388102 1_565
Al8 Au5 2.606927 1_455
Al8 Au3 2.606927 1_545
Al8 Au4 2.606927 1_554
Al9 Au2 2.606927 1_655
Al9 Au1 2.606927 1_556
Al9 Au0 2.606927 1_565
Al10 Au4 2.581767 1_555
Al10 Au2 2.626835 1_555
Al10 Au1 2.667827 1_546
Al10 Al12 2.801643 1_456
Al10 Al11 2.801644 1_546
Al10 Al8 2.880079 1_556
Al10 Al13 2.894017 1_555
Al10 Al5 2.899601 1_546
Al10 Nd1 3.307677 1_556
Al10 Nd0 3.388102 1_555
Al11 Au3 2.581767 1_555
Al11 Au1 2.626835 1_555
Al11 Au0 2.667827 1_465
Al11 Al12 2.801643 1_465
Al11 Al8 2.880079 1_565
Al11 Al7 2.894017 1_555
Al11 Al4 2.899601 1_465
Al11 Nd1 3.307677 1_565
Al11 Nd0 3.388102 1_555
Al12 Au5 2.581767 1_555
Al12 Au0 2.626835 1_555
Al12 Au2 2.667827 1_654
Al12 Al8 2.880079 1_655
Al12 Al6 2.894017 1_555
Al12 Al3 2.899601 1_654
Al12 Nd1 3.307677 1_655
Al12 Nd0 3.388102 1_555
Al13 Au3 2.581767 1_545
Al13 Au2 2.626835 1_555
Al13 Au0 2.667827 1_555
Al13 Al7 2.801643 1_555
Al13 Al6 2.801644 1_555
Al13 Al8 2.880079 1_555
Al13 Al2 2.899601 1_545
Al13 Nd0 3.307677 1_555
Al13 Nd1 3.388102 1_556
Au0 Nd1 3.263433 1_655
Au0 Nd0 3.263433 1_555
Au1 Nd0 3.263433 1_555
Au1 Nd1 3.263433 1_565
Au2 Nd1 3.263433 1_556
Au2 Nd0 3.263433 1_555
Au3 Nd1 3.263433 1_566
Au3 Nd0 3.263433 1_555
Au4 Nd0 3.263433 1_555
Au4 Nd1 3.263433 1_656
Au5 Nd1 3.263433 1_665
Au5 Nd0 3.263433 1_555
