# generated using pymatgen
data_BaMg14Al
_symmetry_space_group_name_H-M   'P 1'
_cell_length_a   6.63155419
_cell_length_b   6.58656702
_cell_length_c   10.46971270
_cell_angle_alpha   90.00000000
_cell_angle_beta   90.00000000
_cell_angle_gamma   119.77585190
_symmetry_Int_Tables_number   1
_chemical_formula_structural   BaMg14Al
_chemical_formula_sum   'Ba1 Mg14 Al1'
_cell_volume   396.93220382
_cell_formula_units_Z   1
loop_
 _symmetry_equiv_pos_site_id
 _symmetry_equiv_pos_as_xyz
  1  'x, y, z'
loop_
 _atom_site_type_symbol
 _atom_site_label
 _atom_site_symmetry_multiplicity
 _atom_site_fract_x
 _atom_site_fract_y
 _atom_site_fract_z
 _atom_site_occupancy
  Ba  Ba0  1  0.15751453  0.82875677  0.12500000  1
  Mg  Mg0  1  0.16135189  0.33067544  0.62500000  1
  Mg  Mg1  1  0.16810605  0.83405253  0.62500000  1
  Mg  Mg2  1  0.65157116  0.33589110  0.12500000  1
  Mg  Mg3  1  0.66687169  0.32838246  0.62500000  1
  Mg  Mg4  1  0.65157116  0.81567905  0.12500000  1
  Mg  Mg5  1  0.66687169  0.83848823  0.62500000  1
  Mg  Mg6  1  0.33793376  0.18004136  0.38609210  1
  Mg  Mg7  1  0.33793376  0.18004136  0.86390790  1
  Mg  Mg8  1  0.33793376  0.65789341  0.38609210  1
  Mg  Mg9  1  0.33793376  0.65789341  0.86390790  1
  Mg  Mg10  1  0.83985748  0.16992924  0.36251001  1
  Mg  Mg11  1  0.83985748  0.16992924  0.88748999  1
  Mg  Mg12  1  0.82003173  0.66001636  0.39147935  1
  Mg  Mg13  1  0.82003173  0.66001636  0.85852065  1
  Al  Al0  1  0.20462837  0.35231368  0.12500000  1
loop_
_geom_bond_atom_site_label_1
_geom_bond_atom_site_label_2
_geom_bond_distance
_geom_bond_site_symmetry_2
Ba0 Mg2 3.313258 1_455
Ba0 Mg4 3.313258 1_455
Ba0 Mg2 3.319981 1_565
Ba0 Mg4 3.319982 1_555
Ba0 Mg9 3.392309 1_554
Ba0 Mg8 3.392309 1_555
Ba0 Mg6 3.392315 1_565
Ba0 Mg7 3.392315 1_564
Ba0 Mg12 3.399621 1_455
Ba0 Mg13 3.399621 1_454
Mg0 Mg6 3.125075 1_555
Mg0 Mg7 3.125075 1_555
Mg0 Mg9 3.125081 1_555
Mg0 Mg8 3.125081 1_555
Mg0 Mg5 3.271698 1_445
Mg0 Mg3 3.271698 1_455
Mg0 Mg1 3.293513 1_545
Mg0 Mg1 3.293513 1_555
Mg0 Mg10 3.313160 1_455
Mg0 Mg11 3.313160 1_455
Mg0 Mg5 3.359907 1_555
Mg0 Mg3 3.359908 1_555
Mg1 Mg13 3.160951 1_455
Mg1 Mg12 3.160951 1_455
Mg1 Mg9 3.188886 1_555
Mg1 Mg8 3.188886 1_555
Mg1 Mg7 3.188893 1_565
Mg1 Mg6 3.188893 1_565
Mg1 Mg3 3.293180 1_565
Mg1 Mg5 3.293180 1_555
Mg1 Mg3 3.338568 1_455
Mg1 Mg5 3.338568 1_455
Mg2 Mg4 3.160155 1_555
Mg2 Mg6 3.275898 1_555
Mg2 Mg7 3.275898 1_554
Mg2 Mg4 3.426412 1_545
Mg3 Mg7 3.138891 1_555
Mg3 Mg6 3.138891 1_555
Mg3 Mg5 3.226721 1_545
Mg3 Mg5 3.359846 1_555
Mg4 Mg8 3.275898 1_555
Mg4 Mg9 3.275898 1_554
Mg5 Mg8 3.138890 1_555
Mg5 Mg9 3.138890 1_555
Mg6 Mg8 3.147405 1_555
Mg6 Mg8 3.439162 1_545
Mg7 Mg9 3.147405 1_555
Mg7 Mg9 3.439162 1_545
Mg10 Mg2 3.208289 1_555
Mg10 Mg4 3.208296 1_545
Mg10 Mg8 3.279761 1_655
Mg10 Mg6 3.279761 1_655
Mg10 Mg12 3.309189 1_555
Mg10 Mg12 3.309189 1_545
Mg10 Mg3 3.338701 1_555
Mg10 Mg5 3.338707 1_545
Mg10 Mg8 3.371161 1_545
Mg10 Mg6 3.371161 1_555
Mg11 Mg2 3.208289 1_556
Mg11 Mg4 3.208296 1_546
Mg11 Mg9 3.279761 1_655
Mg11 Mg7 3.279761 1_655
Mg11 Mg13 3.309189 1_555
Mg11 Mg13 3.309189 1_545
Mg11 Mg3 3.338701 1_555
Mg11 Mg5 3.338707 1_545
Mg11 Mg9 3.371161 1_545
Mg11 Mg7 3.371161 1_555
Mg12 Mg5 3.094646 1_555
Mg12 Mg3 3.094653 1_555
Mg12 Mg6 3.190636 1_555
Mg12 Mg8 3.190636 1_555
Mg12 Mg4 3.349740 1_555
Mg12 Mg2 3.349746 1_555
Mg12 Mg6 3.441923 1_665
Mg12 Mg8 3.441923 1_655
Mg13 Mg5 3.094646 1_555
Mg13 Mg3 3.094653 1_555
Mg13 Mg7 3.190636 1_555
Mg13 Mg9 3.190636 1_555
Mg13 Mg4 3.349740 1_556
Mg13 Mg2 3.349746 1_556
Mg13 Mg7 3.441923 1_665
Mg13 Mg9 3.441923 1_655
Al0 Mg4 3.019103 1_555
Al0 Mg2 3.019103 1_555
Al0 Mg6 3.246171 1_555
Al0 Mg7 3.246171 1_554
Al0 Mg8 3.246178 1_555
Al0 Mg9 3.246178 1_554
Al0 Mg11 3.254524 1_454
Al0 Mg10 3.254524 1_455
Al0 Ba0 3.304430 1_545
Al0 Ba0 3.304430 1_555
Al0 Mg4 3.615131 1_445
Al0 Mg2 3.615131 1_455
