# generated using pymatgen
data_Cs2Ti(WO4)3
_symmetry_space_group_name_H-M   'P 1'
_cell_length_a   7.25743517
_cell_length_b   7.25743517
_cell_length_c   7.25743540
_cell_angle_alpha   60.40379137
_cell_angle_beta   60.40379137
_cell_angle_gamma   60.40379575
_symmetry_Int_Tables_number   1
_chemical_formula_structural   Cs2Ti(WO4)3
_chemical_formula_sum   'Cs2 Ti1 W3 O12'
_cell_volume   272.76097059
_cell_formula_units_Z   1
loop_
 _symmetry_equiv_pos_site_id
 _symmetry_equiv_pos_as_xyz
  1  'x, y, z'
loop_
 _atom_site_type_symbol
 _atom_site_label
 _atom_site_symmetry_multiplicity
 _atom_site_fract_x
 _atom_site_fract_y
 _atom_site_fract_z
 _atom_site_occupancy
  Cs  Cs0  1  0.62911712  0.62911712  0.62911712  1
  Cs  Cs1  1  0.37088288  0.37088288  0.37088288  1
  Ti  Ti0  1  0.00000000  0.00000000  -0.00000000  1
  W  W0  1  0.50000000  0.00000000  -0.00000000  1
  W  W1  1  0.00000000  0.00000000  0.50000000  1
  W  W2  1  0.00000000  0.50000000  -0.00000000  1
  O  O0  1  0.94143774  0.31149543  0.31149543  1
  O  O1  1  0.31342664  0.94096901  0.94096901  1
  O  O2  1  0.31149543  0.31149543  0.94143774  1
  O  O3  1  0.94096901  0.94096901  0.31342664  1
  O  O4  1  0.94096901  0.31342664  0.94096901  1
  O  O5  1  0.31149543  0.94143774  0.31149543  1
  O  O6  1  0.05856226  0.68850457  0.68850457  1
  O  O7  1  0.68657336  0.05903099  0.05903099  1
  O  O8  1  0.68850457  0.68850457  0.05856226  1
  O  O9  1  0.05903099  0.05903099  0.68657336  1
  O  O10  1  0.05903099  0.68657336  0.05903099  1
  O  O11  1  0.68850457  0.05856226  0.68850457  1
loop_
_geom_bond_atom_site_label_1
_geom_bond_atom_site_label_2
_geom_bond_distance
_geom_bond_site_symmetry_2
Cs0 O3 3.210845 1_555
Cs0 O1 3.210845 1_555
Cs0 O4 3.210845 1_555
Cs0 O2 3.269778 1_555
Cs0 O5 3.269778 1_555
Cs0 O0 3.269778 1_555
Cs0 O11 3.594768 1_565
Cs0 O6 3.594768 1_655
Cs0 O8 3.594768 1_556
Cs0 O7 3.722434 1_565
Cs0 O10 3.722434 1_655
Cs0 O10 3.722434 1_556
Cs0 O7 3.722434 1_556
Cs0 O9 3.722434 1_565
Cs0 O9 3.722434 1_655
Cs0 O11 3.765005 1_555
Cs0 O6 3.765005 1_555
Cs0 O8 3.765005 1_555
Cs1 O9 3.210845 1_555
Cs1 O10 3.210845 1_555
Cs1 O7 3.210845 1_555
Cs1 O8 3.269778 1_555
Cs1 O11 3.269778 1_555
Cs1 O6 3.269778 1_555
Cs1 O5 3.594768 1_545
Cs1 O0 3.594768 1_455
Cs1 O2 3.594768 1_554
Cs1 O1 3.722434 1_545
Cs1 O4 3.722434 1_455
Cs1 O4 3.722434 1_554
Cs1 O1 3.722434 1_554
Cs1 O3 3.722434 1_545
Cs1 O3 3.722434 1_455
Cs1 O5 3.765005 1_555
Cs1 O0 3.765005 1_555
Cs1 O2 3.765005 1_555
O0 W2 1.932145 1_655
O0 W1 1.932145 1_655
O0 O3 2.683854 1_545
O0 O4 2.683854 1_554
O0 O2 2.702044 1_654
O0 O5 2.702045 1_645
O0 O10 2.705344 1_655
O0 O9 2.705344 1_655
O1 W0 1.878243 1_566
O1 Ti0 1.948678 1_566
O1 O2 2.683854 1_565
O1 O5 2.683854 1_556
O1 O11 2.705344 1_565
O1 O8 2.705345 1_556
O2 W2 1.932145 1_556
O2 W0 1.932145 1_556
O2 O4 2.683854 1_455
O2 O5 2.702044 1_546
O2 O7 2.705345 1_556
O3 W1 1.878243 1_665
O3 Ti0 1.948678 1_665
O3 O5 2.683854 1_655
O3 O6 2.705344 1_655
O4 W2 1.878243 1_656
O4 Ti0 1.948678 1_656
O4 O6 2.705344 1_655
O4 O8 2.705345 1_556
O5 W0 1.932145 1_565
O5 W1 1.932145 1_565
O5 O7 2.705344 1_565
O5 O9 2.705344 1_565
O6 W2 1.932145 1_556
O6 W1 1.932145 1_565
O6 O9 2.683854 1_565
O6 O8 2.702044 1_456
O7 W0 1.878243 1_555
O7 Ti0 1.948678 1_655
O7 O8 2.683854 1_545
O8 W0 1.932145 1_565
O8 W2 1.932145 1_655
O9 W1 1.878243 1_555
O9 Ti0 1.948678 1_556
O10 W2 1.878243 1_555
O10 Ti0 1.948678 1_565
O10 O8 2.683854 1_455
O10 O6 2.683854 1_554
O10 O2 2.705345 1_554
O11 W0 1.932145 1_556
O11 W1 1.932145 1_655
O11 O9 2.683854 1_655
O11 O7 2.683854 1_556
O11 O8 2.702044 1_546
O11 O6 2.702045 1_645
O11 O3 2.705344 1_545
