# generated using pymatgen
data_Na2Th(SO6)3
_symmetry_space_group_name_H-M   'P 1'
_cell_length_a   5.39575195
_cell_length_b   17.38247933
_cell_length_c   17.05888973
_cell_angle_alpha   90.00000000
_cell_angle_beta   89.44335788
_cell_angle_gamma   90.00000000
_symmetry_Int_Tables_number   1
_chemical_formula_structural   Na2Th(SO6)3
_chemical_formula_sum   'Na8 Th4 S12 O72'
_cell_volume   1599.90414531
_cell_formula_units_Z   4
loop_
 _symmetry_equiv_pos_site_id
 _symmetry_equiv_pos_as_xyz
  1  'x, y, z'
loop_
 _atom_site_type_symbol
 _atom_site_label
 _atom_site_symmetry_multiplicity
 _atom_site_fract_x
 _atom_site_fract_y
 _atom_site_fract_z
 _atom_site_occupancy
  Na  Na0  1  0.49902654  0.20903833  0.94254709  1
  Na  Na1  1  0.50097346  0.70903833  0.55745291  1
  Na  Na2  1  0.50097346  0.79096167  0.05745291  1
  Na  Na3  1  0.49902654  0.29096167  0.44254709  1
  Na  Na4  1  0.47386319  0.11537375  0.60476901  1
  Na  Na5  1  0.52613681  0.61537375  0.89523099  1
  Na  Na6  1  0.52613681  0.88462625  0.39523099  1
  Na  Na7  1  0.47386319  0.38462625  0.10476901  1
  Th  Th0  1  0.16080063  0.41990873  0.74750865  1
  Th  Th1  1  0.83919937  0.91990873  0.75249135  1
  Th  Th2  1  0.83919937  0.58009127  0.25249135  1
  Th  Th3  1  0.16080063  0.08009127  0.24750865  1
  S  S0  1  0.32136947  0.06695781  0.79607418  1
  S  S1  1  0.67863053  0.56695781  0.70392582  1
  S  S2  1  0.67863053  0.93304219  0.20392582  1
  S  S3  1  0.32136947  0.43304219  0.29607418  1
  S  S4  1  0.67336852  0.30224983  0.64849739  1
  S  S5  1  0.32663148  0.80224983  0.85150261  1
  S  S6  1  0.32663148  0.69775017  0.35150261  1
  S  S7  1  0.67336852  0.19775017  0.14849739  1
  S  S8  1  0.66320474  0.41344655  0.90537604  1
  S  S9  1  0.33679526  0.91344655  0.59462396  1
  S  S10  1  0.33679526  0.58655345  0.09462396  1
  S  S11  1  0.66320474  0.08655345  0.40537604  1
  O  O0  1  0.12761995  0.00428718  0.80485862  1
  O  O1  1  0.87238005  0.50428718  0.69514138  1
  O  O2  1  0.87238005  0.99571282  0.19514138  1
  O  O3  1  0.12761995  0.49571282  0.30485862  1
  O  O4  1  0.25025849  0.20625781  0.52032903  1
  O  O5  1  0.74974151  0.70625781  0.97967097  1
  O  O6  1  0.74974151  0.79374219  0.47967097  1
  O  O7  1  0.25025849  0.29374219  0.02032903  1
  O  O8  1  0.27060519  0.11350615  0.72782114  1
  O  O9  1  0.72939481  0.61350615  0.77217886  1
  O  O10  1  0.72939481  0.88649385  0.27217886  1
  O  O11  1  0.27060519  0.38649385  0.22782114  1
  O  O12  1  0.29633812  0.98933247  0.56270825  1
  O  O13  1  0.70366188  0.48933247  0.93729175  1
  O  O14  1  0.70366188  0.01066753  0.43729175  1
  O  O15  1  0.29633812  0.51066753  0.06270825  1
  O  O16  1  0.23425980  0.49142584  0.55496159  1
  O  O17  1  0.76574020  0.99142584  0.94503841  1
  O  O18  1  0.76574020  0.50857416  0.44503841  1
  O  O19  1  0.23425980  0.00857416  0.05496159  1
  O  O20  1  0.34229848  0.10854474  0.86995713  1
  O  O21  1  0.65770152  0.60854474  0.63004287  1
  O  O22  1  0.65770152  0.89145526  0.13004287  1
  O  O23  1  0.34229848  0.39145526  0.36995713  1
  O  O24  1  0.10421348  0.25106734  0.83057576  1
  O  O25  1  0.89578652  0.75106734  0.66942424  1
  O  O26  1  0.89578652  0.74893266  0.16942424  1
  O  O27  1  0.10421348  0.24893266  0.33057576  1
  O  O28  1  0.56842144  0.02346010  0.78349631  1
  O  O29  1  0.43157856  0.52346010  0.71650369  1
  O  O30  1  0.43157856  0.97653990  0.21650369  1
  O  O31  1  0.56842144  0.47653990  0.28349631  1
  O  O32  1  0.77298512  0.02643034  0.66358901  1
  O  O33  1  0.22701488  0.52643034  0.83641099  1
  O  O34  1  0.22701488  0.97356966  0.33641099  1
  O  O35  1  0.77298512  0.47356966  0.16358901  1
  O  O36  1  0.81862306  0.05989146  0.95217344  1
  O  O37  1  0.18137694  0.55989146  0.54782656  1
  O  O38  1  0.18137694  0.94010854  0.04782656  1
  O  O39  1  0.81862306  0.44010854  0.45217344  1
  O  O40  1  0.86041194  0.39367863  0.84500542  1
  O  O41  1  0.13958806  0.89367863  0.65499458  1
  O  O42  1  0.13958806  0.60632137  0.15499458  1
  O  O43  1  0.86041194  0.10632137  0.34500542  1
  O  O44  1  0.62172943  0.31767284  0.56539957  1
  O  O45  1  0.37827057  0.81767284  0.93460043  1
  O  O46  1  0.37827057  0.68232716  0.43460043  1
  O  O47  1  0.62172943  0.18232716  0.06539957  1
  O  O48  1  0.48134047  0.34585006  0.69798517  1
  O  O49  1  0.51865953  0.84585006  0.80201483  1
  O  O50  1  0.51865953  0.65414994  0.30201483  1
  O  O51  1  0.48134047  0.15414994  0.19798517  1
  O  O52  1  0.67153934  0.22141112  0.66907956  1
  O  O53  1  0.32846066  0.72141112  0.83092044  1
  O  O54  1  0.32846066  0.77858888  0.33092044  1
  O  O55  1  0.67153934  0.27858888  0.16907956  1
  O  O56  1  0.90367802  0.21845488  0.83851904  1
  O  O57  1  0.09632198  0.71845488  0.66148096  1
  O  O58  1  0.09632198  0.78154512  0.16148096  1
  O  O59  1  0.90367802  0.28154512  0.33851904  1
  O  O60  1  0.92194107  0.33752337  0.66898146  1
  O  O61  1  0.07805893  0.83752337  0.83101854  1
  O  O62  1  0.07805893  0.66247663  0.33101854  1
  O  O63  1  0.92194107  0.16247663  0.16898146  1
  O  O64  1  0.41586436  0.41023493  0.86177349  1
  O  O65  1  0.58413564  0.91023493  0.63822651  1
  O  O66  1  0.58413564  0.58976507  0.13822651  1
  O  O67  1  0.41586436  0.08976507  0.36177349  1
  O  O68  1  0.65119105  0.35034952  0.96394322  1
  O  O69  1  0.34880895  0.85034952  0.53605678  1
  O  O70  1  0.34880895  0.64965048  0.03605678  1
  O  O71  1  0.65119105  0.14965048  0.46394322  1
loop_
_geom_bond_atom_site_label_1
_geom_bond_atom_site_label_2
_geom_bond_distance
_geom_bond_site_symmetry_2
Na0 O47 2.252322 1_556
Na0 O20 2.306578 1_555
Na0 O7 2.386542 1_556
Na0 O68 2.616630 1_555
Na0 O56 2.804987 1_555
Na0 O24 2.966401 1_555
Na0 O36 3.118897 1_555
Na1 O46 2.252322 1_555
Na1 O21 2.306578 1_555
Na1 O6 2.386542 1_555
Na1 O69 2.616630 1_555
Na1 O57 2.804987 1_555
Na1 O25 2.966401 1_555
Na1 O37 3.118897 1_555
Na2 O45 2.252322 1_554
Na2 O22 2.306578 1_555
Na2 O5 2.386542 1_554
Na2 O70 2.616630 1_555
Na2 O58 2.804987 1_555
Na2 O26 2.966401 1_555
Na2 O38 3.118897 1_555
Na3 O44 2.252322 1_555
Na3 O23 2.306578 1_555
Na3 O4 2.386542 1_555
Na3 O71 2.616630 1_555
Na3 O59 2.804987 1_555
Na3 O27 2.966401 1_555
Na3 O39 3.118897 1_555
Na4 O8 2.359130 1_555
Na4 O52 2.400273 1_555
Na4 O32 2.456325 1_555
Na4 O4 2.461725 1_555
Na4 O12 2.499159 1_545
Na4 O71 2.645190 1_555
Na5 O9 2.359130 1_555
Na5 O53 2.400273 1_555
Na5 O33 2.456325 1_555
Na5 O5 2.461725 1_555
Na5 O13 2.499159 1_555
Na5 O70 2.645190 1_556
Na6 O10 2.359130 1_555
Na6 O54 2.400273 1_555
Na6 O34 2.456325 1_555
Na6 O6 2.461725 1_555
Na6 O14 2.499159 1_565
Na6 O69 2.645190 1_555
Na7 O11 2.359130 1_555
Na7 O55 2.400273 1_555
Na7 O35 2.456325 1_555
Na7 O7 2.461725 1_555
Na7 O15 2.499159 1_555
Na7 O68 2.645190 1_554
O0 S0 1.516263 1_555
O0 Th1 2.323398 1_445
O0 O32 3.115597 1_455
O1 S1 1.516263 1_555
O1 Th0 2.323398 1_655
O1 O33 3.115597 1_655
O2 S2 1.516263 1_555
O2 Th3 2.323398 1_665
O2 O34 3.115597 1_655
O3 S3 1.516263 1_555
O3 Th2 2.323398 1_455
O3 O35 3.115597 1_455
O4 O71 2.555973 1_555
O4 O44 2.896420 1_555
O5 O70 2.555973 1_556
O6 O69 2.555973 1_555
O8 S0 1.446220 1_555
O9 S1 1.446220 1_555
O10 S2 1.446220 1_555
O11 S3 1.446220 1_555
O12 S9 1.444428 1_555
O13 S8 1.444428 1_555
O14 S11 1.444428 1_555
O15 S10 1.444428 1_555
O16 O37 1.230144 1_555
O17 O36 1.230144 1_565
O18 O39 1.230144 1_555
O19 O38 1.230144 1_545
O20 S0 1.458283 1_555
O21 S1 1.458283 1_555
O22 S2 1.458283 1_555
O23 S3 1.458283 1_555
O24 O56 1.227877 1_455
O25 O57 1.227877 1_655
O26 O58 1.227877 1_655
O27 O59 1.227877 1_455
O28 S0 1.545683 1_555
O28 O32 2.315411 1_555
O28 Th1 2.374727 1_545
O29 S1 1.545683 1_555
O29 O33 2.315411 1_555
O29 Th0 2.374727 1_555
O30 S2 1.545683 1_555
O30 O34 2.315411 1_555
O30 Th3 2.374727 1_565
O31 S3 1.545683 1_555
O31 O35 2.315411 1_555
O31 Th2 2.374727 1_555
O32 O65 2.305111 1_545
O32 Th1 2.422113 1_545
O32 O41 3.041963 1_645
O33 O64 2.305111 1_555
O33 Th0 2.422113 1_555
O33 O40 3.041963 1_455
O34 O67 2.305111 1_565
O34 Th3 2.422113 1_565
O34 O43 3.041963 1_465
O35 O66 2.305111 1_555
O35 Th2 2.422113 1_555
O35 O42 3.041963 1_655
O40 S8 1.513159 1_555
O40 Th0 2.355581 1_655
O41 S9 1.513159 1_555
O41 Th1 2.355581 1_455
O42 S10 1.513159 1_555
O42 Th2 2.355581 1_455
O43 S11 1.513159 1_555
O43 Th3 2.355581 1_655
O44 S4 1.471954 1_555
O45 S5 1.471954 1_555
O45 O5 2.896420 1_555
O46 S6 1.471954 1_555
O46 O6 2.896420 1_555
O47 S7 1.471954 1_555
O47 O7 2.896420 1_555
O48 S4 1.530898 1_555
O48 Th0 2.309519 1_555
O49 S5 1.530898 1_555
O49 Th1 2.309519 1_555
O50 S6 1.530898 1_555
O50 Th2 2.309519 1_555
O51 S7 1.530898 1_555
O51 Th3 2.309519 1_555
O52 S4 1.448389 1_555
O53 S5 1.448389 1_555
O54 S6 1.448389 1_555
O55 S7 1.448389 1_555
O60 S4 1.518574 1_555
O60 Th0 2.353702 1_655
O61 S5 1.518574 1_555
O61 Th1 2.353702 1_455
O62 S6 1.518574 1_555
O62 Th2 2.353702 1_455
O63 S7 1.518574 1_555
O63 Th3 2.353702 1_655
O64 S8 1.535182 1_555
O64 Th0 2.402914 1_555
O65 S9 1.535182 1_555
O65 Th1 2.402914 1_555
O66 S10 1.535182 1_555
O66 Th2 2.402914 1_555
O67 S11 1.535182 1_555
O67 Th3 2.402914 1_555
O68 S8 1.484607 1_555
O68 O7 2.555973 1_556
O69 S9 1.484607 1_555
O70 S10 1.484607 1_555
O71 S11 1.484607 1_555
