# generated using pymatgen
data_Eu2Al3Ag
_symmetry_space_group_name_H-M   'P 1'
_cell_length_a   5.68087483
_cell_length_b   5.68087483
_cell_length_c   5.68087471
_cell_angle_alpha   60.63845661
_cell_angle_beta   60.63845661
_cell_angle_gamma   60.63845265
_symmetry_Int_Tables_number   1
_chemical_formula_structural   Eu2Al3Ag
_chemical_formula_sum   'Eu2 Al3 Ag1'
_cell_volume   131.50634493
_cell_formula_units_Z   1
loop_
 _symmetry_equiv_pos_site_id
 _symmetry_equiv_pos_as_xyz
  1  'x, y, z'
loop_
 _atom_site_type_symbol
 _atom_site_label
 _atom_site_symmetry_multiplicity
 _atom_site_fract_x
 _atom_site_fract_y
 _atom_site_fract_z
 _atom_site_occupancy
  Eu  Eu0  1  0.12355700  0.12355700  0.12355700  1
  Eu  Eu1  1  0.87644300  0.87644300  0.87644300  1
  Al  Al0  1  0.00000000  0.50000000  0.50000000  1
  Al  Al1  1  0.50000000  0.50000000  0.00000000  1
  Al  Al2  1  0.50000000  0.00000000  0.50000000  1
  Ag  Ag0  1  0.50000000  0.50000000  0.50000000  1
loop_
_geom_bond_atom_site_label_1
_geom_bond_atom_site_label_2
_geom_bond_distance
_geom_bond_site_symmetry_2
Eu0 Eu1 3.421966 1_444
Eu0 Eu1 3.520118 1_544
Eu0 Eu1 3.520118 1_454
Eu0 Eu1 3.520118 1_445
Al0 Al2 2.867804 1_555
Al0 Al2 2.867804 1_465
Al0 Al1 2.867804 1_555
Al0 Al1 2.867804 1_456
Al0 Eu0 3.339426 1_556
Al0 Eu1 3.339426 1_454
Al0 Eu0 3.339426 1_565
Al0 Eu1 3.339426 1_445
Al0 Eu1 3.343654 1_455
Al0 Eu0 3.343654 1_555
Al1 Al2 2.867804 1_555
Al1 Al2 2.867804 1_564
Al1 Eu0 3.339426 1_565
Al1 Eu0 3.339426 1_655
Al1 Eu1 3.339426 1_454
Al1 Eu1 3.339426 1_544
Al1 Eu1 3.343654 1_554
Al1 Eu0 3.343654 1_555
Al2 Eu0 3.339426 1_556
Al2 Eu1 3.339426 1_544
Al2 Eu0 3.339426 1_655
Al2 Eu1 3.339426 1_445
Al2 Eu1 3.343654 1_545
Al2 Eu0 3.343654 1_555
Ag0 Al1 2.840437 1_556
Ag0 Al1 2.840437 1_555
Ag0 Al0 2.840437 1_555
Ag0 Al2 2.840437 1_565
Ag0 Al2 2.840437 1_555
Ag0 Al0 2.840437 1_655
Ag0 Eu0 3.364834 1_655
Ag0 Eu0 3.364834 1_565
Ag0 Eu1 3.364834 1_455
Ag0 Eu1 3.364834 1_545
Ag0 Eu1 3.364834 1_554
Ag0 Eu0 3.364834 1_556
