# generated using pymatgen
data_Mn6Si8Mo5
_symmetry_space_group_name_H-M   'P 1'
_cell_length_a   4.86024900
_cell_length_b   12.93046100
_cell_length_c   15.45954900
_cell_angle_alpha   90.00000000
_cell_angle_beta   90.00000000
_cell_angle_gamma   90.00000000
_symmetry_Int_Tables_number   1
_chemical_formula_structural   Mn6Si8Mo5
_chemical_formula_sum   'Mn24 Si32 Mo20'
_cell_volume   971.55937863
_cell_formula_units_Z   4
loop_
 _symmetry_equiv_pos_site_id
 _symmetry_equiv_pos_as_xyz
  1  'x, y, z'
loop_
 _atom_site_type_symbol
 _atom_site_label
 _atom_site_symmetry_multiplicity
 _atom_site_fract_x
 _atom_site_fract_y
 _atom_site_fract_z
 _atom_site_occupancy
  Mn  Mn0  1  0.99068600  0.63747700  0.82238700  1
  Mn  Mn1  1  0.00931400  0.36252300  0.17761300  1
  Mn  Mn2  1  0.00931400  0.86252300  0.32238700  1
  Mn  Mn3  1  0.49068600  0.36252300  0.17761300  1
  Mn  Mn4  1  0.99068600  0.13747700  0.67761300  1
  Mn  Mn5  1  0.50931400  0.63747700  0.82238700  1
  Mn  Mn6  1  0.50931400  0.13747700  0.67761300  1
  Mn  Mn7  1  0.49068600  0.86252300  0.32238700  1
  Mn  Mn8  1  0.75000000  0.63329500  0.65568000  1
  Mn  Mn9  1  0.25000000  0.36670500  0.34432000  1
  Mn  Mn10  1  0.25000000  0.86670500  0.15568000  1
  Mn  Mn11  1  0.75000000  0.13329500  0.84432000  1
  Mn  Mn12  1  0.75000000  0.81110400  0.74927000  1
  Mn  Mn13  1  0.25000000  0.18889600  0.25072900  1
  Mn  Mn14  1  0.25000000  0.68889600  0.24927100  1
  Mn  Mn15  1  0.75000000  0.31110400  0.75073000  1
  Mn  Mn16  1  0.49600900  0.94010500  0.87949900  1
  Mn  Mn17  1  0.50399100  0.05989500  0.12050100  1
  Mn  Mn18  1  0.50399100  0.55989500  0.37949900  1
  Mn  Mn19  1  0.99600900  0.05989500  0.12050100  1
  Mn  Mn20  1  0.49600900  0.44010500  0.62050100  1
  Mn  Mn21  1  0.00399100  0.94010500  0.87949900  1
  Mn  Mn22  1  0.00399100  0.44010500  0.62050100  1
  Mn  Mn23  1  0.99600900  0.55989500  0.37949900  1
  Si  Si0  1  0.75000000  0.91483300  0.19818400  1
  Si  Si1  1  0.25000000  0.08516700  0.80181600  1
  Si  Si2  1  0.25000000  0.58516700  0.69818400  1
  Si  Si3  1  0.75000000  0.41483300  0.30181600  1
  Si  Si4  1  0.75000000  0.99550300  0.75157800  1
  Si  Si5  1  0.25000000  0.00449700  0.24842200  1
  Si  Si6  1  0.25000000  0.50449700  0.25157800  1
  Si  Si7  1  0.75000000  0.49550300  0.74842200  1
  Si  Si8  1  0.75000000  0.70709400  0.30665000  1
  Si  Si9  1  0.25000000  0.29290600  0.69335000  1
  Si  Si10  1  0.25000000  0.79290600  0.80665000  1
  Si  Si11  1  0.75000000  0.20709400  0.19335000  1
  Si  Si12  1  0.75000000  0.94518000  0.43300200  1
  Si  Si13  1  0.25000000  0.05482000  0.56699800  1
  Si  Si14  1  0.25000000  0.55482000  0.93300200  1
  Si  Si15  1  0.75000000  0.44518000  0.06699800  1
  Si  Si16  1  0.00230900  0.78000800  0.62235000  1
  Si  Si17  1  0.99769100  0.21999200  0.37765000  1
  Si  Si18  1  0.99769100  0.71999200  0.12235000  1
  Si  Si19  1  0.50230900  0.21999200  0.37765000  1
  Si  Si20  1  0.00230900  0.28000800  0.87765000  1
  Si  Si21  1  0.49769100  0.78000800  0.62235000  1
  Si  Si22  1  0.49769100  0.28000800  0.87765000  1
  Si  Si23  1  0.50230900  0.71999200  0.12235000  1
  Si  Si24  1  0.75000000  0.77841700  0.89585000  1
  Si  Si25  1  0.25000000  0.22158300  0.10415000  1
  Si  Si26  1  0.25000000  0.72158300  0.39585000  1
  Si  Si27  1  0.75000000  0.27841700  0.60415000  1
  Si  Si28  1  0.75000000  0.55115400  0.51804400  1
  Si  Si29  1  0.25000000  0.44884600  0.48195600  1
  Si  Si30  1  0.25000000  0.94884600  0.01804400  1
  Si  Si31  1  0.75000000  0.05115400  0.98195600  1
  Mo  Mo0  1  0.75000000  0.62582500  0.99623100  1
  Mo  Mo1  1  0.25000000  0.37417500  0.00376900  1
  Mo  Mo2  1  0.25000000  0.87417500  0.49623100  1
  Mo  Mo3  1  0.75000000  0.12582500  0.50376900  1
  Mo  Mo4  1  0.75000000  0.36802400  0.45690900  1
  Mo  Mo5  1  0.25000000  0.63197600  0.54309100  1
  Mo  Mo6  1  0.25000000  0.13197600  0.95690900  1
  Mo  Mo7  1  0.75000000  0.86802400  0.04309100  1
  Mo  Mo8  1  0.75000000  0.74660000  0.47304200  1
  Mo  Mo9  1  0.25000000  0.25340000  0.52695800  1
  Mo  Mo10  1  0.25000000  0.75340000  0.97304200  1
  Mo  Mo11  1  0.75000000  0.24660000  0.02695800  1
  Mo  Mo12  1  0.75000000  0.95399600  0.59420300  1
  Mo  Mo13  1  0.25000000  0.04600400  0.40579700  1
  Mo  Mo14  1  0.25000000  0.54600400  0.09420300  1
  Mo  Mo15  1  0.75000000  0.45399600  0.90579700  1
  Mo  Mo16  1  0.75000000  0.56818800  0.19686400  1
  Mo  Mo17  1  0.25000000  0.43181200  0.80313600  1
  Mo  Mo18  1  0.25000000  0.93181200  0.69686400  1
  Mo  Mo19  1  0.75000000  0.06818800  0.30313600  1
loop_
_geom_bond_atom_site_label_1
_geom_bond_atom_site_label_2
_geom_bond_distance
_geom_bond_site_symmetry_2
Mn0 Mn5 2.339588 1_555
Mn0 Si14 2.378035 1_655
Mn0 Si10 2.384699 1_655
Mn0 Si2 2.394329 1_655
Mn0 Si24 2.445292 1_555
Mn0 Si7 2.458872 1_555
Mn0 Mn5 2.520661 1_655
Mn0 Mn12 2.772453 1_555
Mn0 Mn8 2.830791 1_555
Mn0 Mo0 2.934969 1_555
Mn0 Mo15 2.942772 1_555
Mn0 Mo17 2.957890 1_655
Mn0 Mo10 3.042985 1_655
Mn1 Mn3 2.339588 1_555
Mn1 Si15 2.378035 1_455
Mn1 Si11 2.384699 1_455
Mn1 Si3 2.394329 1_455
Mn1 Si25 2.445292 1_555
Mn1 Si6 2.458872 1_555
Mn1 Mn3 2.520661 1_455
Mn1 Mn13 2.772446 1_555
Mn1 Mn9 2.830791 1_555
Mn1 Mo1 2.934969 1_555
Mn1 Mo14 2.942772 1_555
Mn1 Mo16 2.957890 1_455
Mn1 Mo11 3.042985 1_455
Mn2 Mn7 2.339588 1_555
Mn2 Si12 2.378035 1_455
Mn2 Si8 2.384699 1_455
Mn2 Si0 2.394329 1_455
Mn2 Si26 2.445292 1_555
Mn2 Si5 2.458872 1_565
Mn2 Mn7 2.520661 1_455
Mn2 Mo2 2.934969 1_555
Mn2 Mo13 2.942772 1_565
Mn2 Mo19 2.957890 1_465
Mn2 Mo8 3.042985 1_455
Mn3 Si15 2.378035 1_555
Mn3 Si11 2.384699 1_555
Mn3 Si3 2.394329 1_555
Mn3 Si25 2.445292 1_555
Mn3 Si6 2.458872 1_555
Mn3 Mn9 2.830791 1_555
Mn3 Mo1 2.934969 1_555
Mn3 Mo14 2.942772 1_555
Mn3 Mo16 2.957890 1_555
Mn3 Mo11 3.042985 1_555
Mn4 Mn6 2.339588 1_555
Mn4 Si13 2.378035 1_655
Mn4 Si9 2.384699 1_655
Mn4 Si1 2.394329 1_655
Mn4 Si27 2.445292 1_555
Mn4 Si4 2.458872 1_545
Mn4 Mn6 2.520661 1_655
Mn4 Mo3 2.934969 1_555
Mn4 Mo12 2.942772 1_545
Mn4 Mo18 2.957890 1_645
Mn4 Mo9 3.042985 1_655
Mn5 Si14 2.378035 1_555
Mn5 Si10 2.384699 1_555
Mn5 Si2 2.394329 1_555
Mn5 Si24 2.445292 1_555
Mn5 Si7 2.458872 1_555
Mn5 Mn8 2.830791 1_555
Mn5 Mo0 2.934969 1_555
Mn5 Mo15 2.942772 1_555
Mn5 Mo17 2.957890 1_555
Mn5 Mo10 3.042985 1_555
Mn6 Si13 2.378035 1_555
Mn6 Si9 2.384699 1_555
Mn6 Si1 2.394329 1_555
Mn6 Si27 2.445292 1_555
Mn6 Si4 2.458872 1_545
Mn6 Mo3 2.934969 1_555
Mn6 Mo12 2.942772 1_545
Mn6 Mo18 2.957890 1_545
Mn6 Mo9 3.042985 1_555
Mn7 Si12 2.378035 1_555
Mn7 Si8 2.384699 1_555
Mn7 Si0 2.394329 1_555
Mn7 Si26 2.445292 1_555
Mn7 Si5 2.458872 1_565
Mn7 Mo2 2.934969 1_555
Mn7 Mo13 2.942772 1_565
Mn7 Mo19 2.957890 1_565
Mn7 Mo8 3.042985 1_555
Mn8 Si7 2.286951 1_555
Mn8 Si21 2.316924 1_555
Mn8 Si16 2.316924 1_655
Mn8 Si28 2.378149 1_555
Mn8 Si2 2.593175 1_555
Mn8 Si2 2.593175 1_655
Mn9 Si6 2.286951 1_555
Mn9 Si17 2.316924 1_455
Mn9 Si19 2.316924 1_555
Mn9 Si29 2.378149 1_555
Mn9 Si3 2.593175 1_455
Mn9 Si3 2.593175 1_555
Mn10 Si5 2.286951 1_565
Mn10 Si23 2.316924 1_555
Mn10 Si18 2.316924 1_455
Mn10 Si30 2.378149 1_555
Mn10 Si0 2.593175 1_455
Mn10 Si0 2.593175 1_555
Mn10 Mn14 2.716532 1_555
Mn10 Mn7 2.830791 1_555
Mn10 Mn2 2.830791 1_555
Mn10 Mn17 2.838987 1_565
Mn10 Mn19 2.838987 1_465
Mn11 Si4 2.286951 1_545
Mn11 Si20 2.316924 1_655
Mn11 Si22 2.316924 1_555
Mn11 Si31 2.378149 1_555
Mn11 Si1 2.593175 1_555
Mn11 Si1 2.593175 1_655
Mn11 Mn15 2.716524 1_555
Mn11 Mn4 2.830791 1_555
Mn11 Mn6 2.830791 1_555
Mn11 Mn21 2.838987 1_645
Mn11 Mn16 2.838987 1_545
Mn12 Si24 2.305140 1_555
Mn12 Si16 2.348486 1_655
Mn12 Si21 2.348486 1_555
Mn12 Si4 2.384631 1_555
Mn12 Si10 2.597646 1_655
Mn12 Si10 2.597646 1_555
Mn12 Mn8 2.716524 1_555
Mn12 Mn5 2.772453 1_555
Mn12 Mn21 2.891290 1_655
Mn12 Mn16 2.891290 1_555
Mn12 Mo18 2.999669 1_655
Mn12 Mo18 2.999669 1_555
Mn13 Si25 2.305125 1_555
Mn13 Si19 2.348499 1_555
Mn13 Si17 2.348499 1_455
Mn13 Si5 2.384631 1_555
Mn13 Si11 2.597641 1_555
Mn13 Si11 2.597641 1_455
Mn13 Mn9 2.716532 1_555
Mn13 Mn3 2.772446 1_555
Mn13 Mn17 2.891279 1_555
Mn13 Mn19 2.891279 1_455
Mn13 Mo19 2.999673 1_555
Mn13 Mo19 2.999673 1_455
Mn14 Si26 2.305125 1_555
Mn14 Si18 2.348499 1_455
Mn14 Si23 2.348499 1_555
Mn14 Si6 2.384631 1_555
Mn14 Si8 2.597641 1_455
Mn14 Si8 2.597641 1_555
Mn14 Mn7 2.772446 1_555
Mn14 Mn2 2.772446 1_555
Mn14 Mn18 2.891279 1_555
Mn14 Mn23 2.891279 1_455
Mn14 Mo16 2.999673 1_555
Mn14 Mo16 2.999673 1_455
Mn15 Si27 2.305140 1_555
Mn15 Si20 2.348486 1_655
Mn15 Si22 2.348486 1_555
Mn15 Si7 2.384631 1_555
Mn15 Si9 2.597646 1_655
Mn15 Si9 2.597646 1_555
Mn15 Mn4 2.772453 1_555
Mn15 Mn6 2.772453 1_555
Mn15 Mn22 2.891290 1_655
Mn15 Mn20 2.891290 1_555
Mn15 Mo17 2.999669 1_555
Mn15 Mo17 2.999669 1_655
Mn16 Mn21 2.391330 1_555
Mn16 Si4 2.438834 1_555
Mn16 Si24 2.441069 1_555
Mn16 Si30 2.455582 1_556
Mn16 Si31 2.468725 1_565
Mn16 Mn21 2.468919 1_655
Mn16 Si10 2.514103 1_555
Mn16 Si1 2.527885 1_565
Mn16 Mo7 2.964579 1_556
Mn16 Mo6 3.002836 1_565
Mn16 Mo10 3.057644 1_555
Mn17 Mn19 2.391330 1_555
Mn17 Si5 2.438834 1_555
Mn17 Si25 2.441069 1_555
Mn17 Si31 2.455582 1_554
Mn17 Si30 2.468725 1_545
Mn17 Mn19 2.468919 1_455
Mn17 Si11 2.514103 1_555
Mn17 Si0 2.527885 1_545
Mn17 Mo6 2.964579 1_554
Mn17 Mo7 3.002836 1_545
Mn17 Mo11 3.057644 1_555
Mn18 Mn23 2.391330 1_555
Mn18 Si6 2.438834 1_555
Mn18 Si26 2.441069 1_555
Mn18 Si28 2.455582 1_555
Mn18 Si29 2.468725 1_555
Mn18 Mn23 2.468919 1_455
Mn18 Si8 2.514103 1_555
Mn18 Si3 2.527885 1_555
Mn18 Mn9 2.838987 1_555
Mn18 Mo5 2.964579 1_555
Mn18 Mo4 3.002836 1_555
Mn18 Mo8 3.057644 1_555
Mn19 Si5 2.438834 1_655
Mn19 Si25 2.441069 1_655
Mn19 Si31 2.455582 1_554
Mn19 Si30 2.468725 1_645
Mn19 Si11 2.514103 1_555
Mn19 Si0 2.527885 1_545
Mn19 Mo6 2.964579 1_654
Mn19 Mo7 3.002836 1_545
Mn19 Mo11 3.057644 1_555
Mn20 Mn22 2.391330 1_555
Mn20 Si7 2.438834 1_555
Mn20 Si27 2.441069 1_555
Mn20 Si29 2.455582 1_555
Mn20 Si28 2.468725 1_555
Mn20 Mn22 2.468919 1_655
Mn20 Si9 2.514103 1_555
Mn20 Si2 2.527885 1_555
Mn20 Mn8 2.838987 1_555
Mn20 Mo4 2.964579 1_555
Mn20 Mo5 3.002836 1_555
Mn20 Mo9 3.057644 1_555
Mn21 Si4 2.438834 1_455
Mn21 Si24 2.441069 1_455
Mn21 Si30 2.455582 1_556
Mn21 Si31 2.468725 1_465
Mn21 Si10 2.514103 1_555
Mn21 Si1 2.527885 1_565
Mn21 Mo7 2.964579 1_456
Mn21 Mo6 3.002836 1_565
Mn21 Mo10 3.057644 1_555
Mn22 Si7 2.438834 1_455
Mn22 Si27 2.441069 1_455
Mn22 Si29 2.455582 1_555
Mn22 Si28 2.468725 1_455
Mn22 Si9 2.514103 1_555
Mn22 Si2 2.527885 1_555
Mn22 Mn8 2.838987 1_455
Mn22 Mo4 2.964579 1_455
Mn22 Mo5 3.002836 1_555
Mn22 Mo9 3.057644 1_555
Mn23 Si6 2.438834 1_655
Mn23 Si26 2.441069 1_655
Mn23 Si28 2.455582 1_555
Mn23 Si29 2.468725 1_655
Mn23 Si8 2.514103 1_555
Mn23 Si3 2.527885 1_555
Mn23 Mn9 2.838987 1_655
Mn23 Mo5 2.964579 1_655
Mn23 Mo4 3.002836 1_555
Mn23 Mo8 3.057644 1_555
Si0 Si5 2.802303 1_565
Si0 Si5 2.802303 1_665
Si0 Si18 3.028358 1_555
Si0 Si23 3.028358 1_555
Si1 Si4 2.802303 1_445
Si1 Si4 2.802303 1_545
Si1 Si20 3.028358 1_555
Si1 Si22 3.028358 1_555
Si2 Si7 2.802303 1_555
Si2 Si7 2.802303 1_455
Si2 Si21 3.028358 1_555
Si3 Si6 2.802303 1_655
Si3 Si6 2.802303 1_555
Si10 Si24 2.800397 1_455
Si10 Si24 2.800397 1_555
Si10 Si21 3.097573 1_555
Si10 Si16 3.097573 1_555
Si11 Si25 2.800397 1_555
Si11 Si25 2.800397 1_655
Si11 Si19 3.097573 1_555
Si11 Si17 3.097573 1_555
Si16 Si21 2.407680 1_555
Si16 Si21 2.452569 1_455
Si16 Si2 3.028358 1_555
Si17 Si19 2.407680 1_555
Si17 Si19 2.452569 1_655
Si17 Si3 3.028358 1_555
Si18 Si23 2.407680 1_555
Si18 Si23 2.452569 1_655
Si18 Si8 3.097573 1_555
Si19 Si3 3.028358 1_555
Si20 Si22 2.407680 1_555
Si20 Si22 2.452569 1_455
Si20 Si9 3.097573 1_555
Si22 Si9 3.097573 1_555
Si23 Si8 3.097573 1_555
Si26 Si8 2.800397 1_455
Si26 Si8 2.800397 1_555
Si27 Si9 2.800397 1_655
Si27 Si9 2.800397 1_555
Si28 Si29 2.822552 1_555
Si28 Si29 2.822552 1_655
Si30 Si31 2.822552 1_564
Si30 Si31 2.822552 1_464
Mo0 Si24 2.510236 1_555
Mo0 Si15 2.579334 1_556
Mo0 Si23 2.594867 1_556
Mo0 Si18 2.594867 1_556
Mo0 Mo15 2.625094 1_555
Mo0 Si14 2.775600 1_655
Mo0 Si14 2.775600 1_555
Mo0 Mo10 2.958921 1_655
Mo0 Mo10 2.958921 1_555
Mo0 Mo14 3.043814 1_556
Mo0 Mo14 3.043814 1_656
Mo1 Si25 2.510236 1_555
Mo1 Si14 2.579334 1_554
Mo1 Si22 2.594867 1_554
Mo1 Si20 2.594867 1_554
Mo1 Mo14 2.625094 1_555
Mo1 Si15 2.775600 1_555
Mo1 Si15 2.775600 1_455
Mo1 Mo11 2.958921 1_555
Mo1 Mo11 2.958921 1_455
Mo1 Mo15 3.043814 1_554
Mo1 Mo15 3.043814 1_454
Mo2 Si26 2.510236 1_555
Mo2 Si13 2.579334 1_565
Mo2 Si21 2.594867 1_555
Mo2 Si16 2.594867 1_555
Mo2 Si12 2.775600 1_555
Mo2 Si12 2.775600 1_455
Mo2 Mo8 2.958921 1_455
Mo2 Mo8 2.958921 1_555
Mo3 Si27 2.510236 1_555
Mo3 Si12 2.579334 1_545
Mo3 Si17 2.594867 1_555
Mo3 Si19 2.594867 1_555
Mo3 Si13 2.775600 1_555
Mo3 Si13 2.775600 1_655
Mo3 Mo9 2.958921 1_655
Mo3 Mo9 2.958921 1_555
Mo4 Si3 2.472884 1_555
Mo4 Si28 2.549601 1_555
Mo4 Si27 2.554201 1_555
Mo4 Si17 2.571862 1_555
Mo4 Si19 2.571862 1_555
Mo4 Si29 2.673500 1_655
Mo4 Si29 2.673500 1_555
Mo4 Mo9 3.045485 1_555
Mo4 Mo9 3.045485 1_655
Mo5 Si2 2.472884 1_555
Mo5 Si29 2.549601 1_555
Mo5 Si26 2.554201 1_555
Mo5 Si16 2.571862 1_555
Mo5 Si21 2.571862 1_555
Mo5 Si28 2.673500 1_555
Mo5 Si28 2.673500 1_455
Mo5 Mo8 3.045485 1_555
Mo5 Mo8 3.045485 1_455
Mo6 Si1 2.472884 1_555
Mo6 Si30 2.549601 1_546
Mo6 Si25 2.554201 1_556
Mo6 Si20 2.571862 1_555
Mo6 Si22 2.571862 1_555
Mo6 Si31 2.673500 1_455
Mo6 Si31 2.673500 1_555
Mo7 Si0 2.472884 1_555
Mo7 Si31 2.549601 1_564
Mo7 Si24 2.554201 1_554
Mo7 Si23 2.571862 1_555
Mo7 Si18 2.571862 1_555
Mo7 Si30 2.673500 1_655
Mo7 Si30 2.673500 1_555
Mo8 Si28 2.621219 1_555
Mo8 Si8 2.622577 1_555
Mo8 Si12 2.641288 1_555
Mo8 Si16 2.649213 1_655
Mo8 Si21 2.649213 1_555
Mo8 Si26 2.726580 1_555
Mo8 Si26 2.726580 1_655
Mo9 Si29 2.621219 1_555
Mo9 Si9 2.622577 1_555
Mo9 Si13 2.641288 1_555
Mo9 Si17 2.649213 1_455
Mo9 Si19 2.649213 1_555
Mo9 Si27 2.726580 1_555
Mo9 Si27 2.726580 1_455
Mo10 Si30 2.621219 1_556
Mo10 Si10 2.622577 1_555
Mo10 Si14 2.641288 1_555
Mo10 Si23 2.649213 1_556
Mo10 Si18 2.649213 1_456
Mo10 Si24 2.726580 1_555
Mo10 Si24 2.726580 1_455
Mo10 Mo7 3.045485 1_456
Mo10 Mo7 3.045485 1_556
Mo11 Si31 2.621219 1_554
Mo11 Si11 2.622577 1_555
Mo11 Si15 2.641288 1_555
Mo11 Si20 2.649213 1_654
Mo11 Si22 2.649213 1_554
Mo11 Si25 2.726580 1_555
Mo11 Si25 2.726580 1_655
Mo11 Mo6 3.045485 1_654
Mo11 Mo6 3.045485 1_554
Mo12 Si4 2.491441 1_555
Mo12 Si12 2.494701 1_555
Mo12 Si16 2.598937 1_655
Mo12 Si21 2.598937 1_555
Mo12 Mo3 2.625094 1_565
Mo12 Si13 2.789628 1_665
Mo12 Si13 2.789628 1_565
Mo12 Mo18 2.916616 1_655
Mo12 Mo18 2.916616 1_555
Mo12 Mo2 3.043814 1_555
Mo12 Mo2 3.043814 1_655
Mo13 Si5 2.491441 1_555
Mo13 Si13 2.494701 1_555
Mo13 Si19 2.598937 1_555
Mo13 Si17 2.598937 1_455
Mo13 Mo2 2.625094 1_545
Mo13 Si12 2.789628 1_445
Mo13 Si12 2.789628 1_545
Mo13 Mo19 2.916616 1_555
Mo13 Mo19 2.916616 1_455
Mo13 Mo3 3.043814 1_455
Mo13 Mo3 3.043814 1_555
Mo14 Si6 2.491441 1_555
Mo14 Si14 2.494701 1_554
Mo14 Si18 2.598937 1_455
Mo14 Si23 2.598937 1_555
Mo14 Si15 2.789628 1_555
Mo14 Si15 2.789628 1_455
Mo14 Mo16 2.916616 1_455
Mo14 Mo16 2.916616 1_555
Mo15 Si7 2.491441 1_555
Mo15 Si15 2.494701 1_556
Mo15 Si20 2.598937 1_655
Mo15 Si22 2.598937 1_555
Mo15 Si14 2.789628 1_555
Mo15 Si14 2.789628 1_655
Mo15 Mo17 2.916616 1_655
Mo15 Mo17 2.916616 1_555
Mo16 Si8 2.471168 1_555
Mo16 Si15 2.561364 1_555
Mo16 Si3 2.562154 1_555
Mo16 Si18 2.574720 1_555
Mo16 Si23 2.574720 1_555
Mo16 Si6 2.701706 1_555
Mo16 Si6 2.701706 1_655
Mo17 Si9 2.471168 1_555
Mo17 Si14 2.561364 1_555
Mo17 Si2 2.562154 1_555
Mo17 Si22 2.574720 1_555
Mo17 Si20 2.574720 1_555
Mo17 Si7 2.701706 1_455
Mo17 Si7 2.701706 1_555
Mo18 Si10 2.471168 1_555
Mo18 Si13 2.561364 1_565
Mo18 Si1 2.562154 1_565
Mo18 Si21 2.574720 1_555
Mo18 Si16 2.574720 1_555
Mo18 Si4 2.701706 1_455
Mo18 Si4 2.701706 1_555
Mo19 Si11 2.471168 1_555
Mo19 Si12 2.561364 1_545
Mo19 Si0 2.562154 1_545
Mo19 Si17 2.574720 1_555
Mo19 Si19 2.574720 1_555
Mo19 Si5 2.701706 1_655
Mo19 Si5 2.701706 1_555
