# generated using pymatgen
data_BaSrMn4O12
_symmetry_space_group_name_H-M   'P 1'
_cell_length_a   5.46508316
_cell_length_b   5.46508316
_cell_length_c   7.71319262
_cell_angle_alpha   90.00000000
_cell_angle_beta   90.00000000
_cell_angle_gamma   90.00000000
_symmetry_Int_Tables_number   1
_chemical_formula_structural   BaSrMn4O12
_chemical_formula_sum   'Ba1 Sr1 Mn4 O12'
_cell_volume   230.37095713
_cell_formula_units_Z   1
loop_
 _symmetry_equiv_pos_site_id
 _symmetry_equiv_pos_as_xyz
  1  'x, y, z'
loop_
 _atom_site_type_symbol
 _atom_site_label
 _atom_site_symmetry_multiplicity
 _atom_site_fract_x
 _atom_site_fract_y
 _atom_site_fract_z
 _atom_site_occupancy
  Ba  Ba0  1  0.50000000  0.50000000  -0.00000000  1
  Sr  Sr0  1  -0.00000000  0.00000000  0.50000000  1
  Mn  Mn0  1  -0.00000000  0.50000000  0.74796525  1
  Mn  Mn1  1  -0.00000000  0.50000000  0.25203475  1
  Mn  Mn2  1  0.50000000  -0.00000000  0.74796525  1
  Mn  Mn3  1  0.50000000  0.00000000  0.25203475  1
  O  O0  1  0.24420982  0.24420982  0.74331510  1
  O  O1  1  0.24420982  0.24420982  0.25668490  1
  O  O2  1  0.75579018  0.75579018  0.74331510  1
  O  O3  1  0.75579018  0.75579018  0.25668490  1
  O  O4  1  0.75579018  0.24420982  0.74331510  1
  O  O5  1  0.75579018  0.24420982  0.25668490  1
  O  O6  1  0.24420982  0.75579018  0.74331510  1
  O  O7  1  0.24420982  0.75579018  0.25668490  1
  O  O8  1  -0.00000000  0.50000000  0.50000000  1
  O  O9  1  -0.00000000  0.50000000  -0.00000000  1
  O  O10  1  0.50000000  0.00000000  0.50000000  1
  O  O11  1  0.50000000  0.00000000  -0.00000000  1
loop_
_geom_bond_atom_site_label_1
_geom_bond_atom_site_label_2
_geom_bond_distance
_geom_bond_site_symmetry_2
Ba0 O11 2.732542 1_555
Ba0 O11 2.732542 1_565
Ba0 O9 2.732542 1_555
Ba0 O9 2.732542 1_655
Ba0 O6 2.797888 1_554
Ba0 O3 2.797888 1_555
Ba0 O0 2.797888 1_554
Ba0 O4 2.797888 1_554
Ba0 O1 2.797888 1_555
Ba0 O7 2.797888 1_555
Ba0 O5 2.797888 1_555
Ba0 O2 2.797888 1_554
Mn0 O8 1.912604 1_555
Mn0 O6 1.933050 1_555
Mn0 O0 1.933050 1_555
Mn0 O2 1.933050 1_455
Mn0 O4 1.933050 1_455
Mn0 O9 1.943993 1_556
Mn1 O8 1.912604 1_555
Mn1 O1 1.933050 1_555
Mn1 O7 1.933050 1_555
Mn1 O5 1.933050 1_455
Mn1 O3 1.933050 1_455
Mn1 O9 1.943993 1_555
Mn2 O10 1.912604 1_555
Mn2 O0 1.933050 1_555
Mn2 O4 1.933050 1_555
Mn2 O6 1.933050 1_545
Mn2 O2 1.933050 1_545
Mn2 O11 1.943993 1_556
Mn3 O10 1.912604 1_555
Mn3 O1 1.933050 1_555
Mn3 O5 1.933050 1_555
Mn3 O3 1.933050 1_545
Mn3 O7 1.933050 1_545
Mn3 O11 1.943993 1_555
O0 Sr0 2.661691 1_555
O0 O4 2.669254 1_455
O0 O6 2.669254 1_545
O0 O8 2.693981 1_555
O0 O10 2.693981 1_555
O1 Sr0 2.661691 1_555
O1 O7 2.669254 1_545
O1 O5 2.669254 1_455
O1 O8 2.693981 1_555
O1 O10 2.693981 1_555
O2 Sr0 2.661691 1_665
O2 O4 2.669254 1_565
O2 O6 2.669254 1_655
O2 O8 2.693981 1_655
O3 Sr0 2.661691 1_665
O3 O5 2.669254 1_565
O3 O7 2.669254 1_655
O3 O8 2.693981 1_655
O4 Sr0 2.661691 1_655
O4 O8 2.693981 1_655
O5 Sr0 2.661691 1_655
O5 O8 2.693981 1_655
O6 Sr0 2.661691 1_565
O6 O8 2.693981 1_555
O7 Sr0 2.661691 1_565
O7 O8 2.693981 1_555
O8 Sr0 2.732542 1_555
O8 Sr0 2.732542 1_565
O10 O5 2.693981 1_555
O10 O4 2.693981 1_555
O10 O2 2.693981 1_545
O10 O6 2.693981 1_545
O10 O3 2.693981 1_545
O10 O7 2.693981 1_545
O10 Sr0 2.732542 1_655
O10 Sr0 2.732542 1_555
