# generated using pymatgen
data_NbTeN
_symmetry_space_group_name_H-M   'P 1'
_cell_length_a   7.16854600
_cell_length_b   7.16854600
_cell_length_c   19.09220800
_cell_angle_alpha   90.00000000
_cell_angle_beta   90.00000000
_cell_angle_gamma   90.00000000
_symmetry_Int_Tables_number   1
_chemical_formula_structural   NbTeN
_chemical_formula_sum   'Nb16 Te16 N16'
_cell_volume   981.11137280
_cell_formula_units_Z   16
loop_
 _symmetry_equiv_pos_site_id
 _symmetry_equiv_pos_as_xyz
  1  'x, y, z'
loop_
 _atom_site_type_symbol
 _atom_site_label
 _atom_site_symmetry_multiplicity
 _atom_site_fract_x
 _atom_site_fract_y
 _atom_site_fract_z
 _atom_site_occupancy
  Nb  Nb0_0  1  0.25000000  0.00000000  0.05718750  1
  Nb  Nb0_1  1  0.25000000  0.00000000  0.55718750  1
  Nb  Nb0_2  1  0.25000000  0.50000000  0.05718750  1
  Nb  Nb0_3  1  0.25000000  0.50000000  0.55718750  1
  Nb  Nb0_4  1  0.75000000  0.00000000  0.05718750  1
  Nb  Nb0_5  1  0.75000000  0.00000000  0.55718750  1
  Nb  Nb0_6  1  0.75000000  0.50000000  0.05718750  1
  Nb  Nb0_7  1  0.75000000  0.50000000  0.55718750  1
  Nb  Nb1_0  1  0.00000000  0.25000000  0.44281250  1
  Nb  Nb1_1  1  0.00000000  0.25000000  0.94281250  1
  Nb  Nb1_2  1  0.00000000  0.75000000  0.44281250  1
  Nb  Nb1_3  1  0.00000000  0.75000000  0.94281250  1
  Nb  Nb1_4  1  0.50000000  0.25000000  0.44281250  1
  Nb  Nb1_5  1  0.50000000  0.25000000  0.94281250  1
  Nb  Nb1_6  1  0.50000000  0.75000000  0.44281250  1
  Nb  Nb1_7  1  0.50000000  0.75000000  0.94281250  1
  Te  Te0_0  1  0.25000000  0.00000000  0.34931350  1
  Te  Te0_1  1  0.25000000  0.00000000  0.84931350  1
  Te  Te0_2  1  0.25000000  0.50000000  0.34931350  1
  Te  Te0_3  1  0.25000000  0.50000000  0.84931350  1
  Te  Te0_4  1  0.75000000  0.00000000  0.34931350  1
  Te  Te0_5  1  0.75000000  0.00000000  0.84931350  1
  Te  Te0_6  1  0.75000000  0.50000000  0.34931350  1
  Te  Te0_7  1  0.75000000  0.50000000  0.84931350  1
  Te  Te1_0  1  0.00000000  0.25000000  0.15068650  1
  Te  Te1_1  1  0.00000000  0.25000000  0.65068650  1
  Te  Te1_2  1  0.00000000  0.75000000  0.15068650  1
  Te  Te1_3  1  0.00000000  0.75000000  0.65068650  1
  Te  Te1_4  1  0.50000000  0.25000000  0.15068650  1
  Te  Te1_5  1  0.50000000  0.25000000  0.65068650  1
  Te  Te1_6  1  0.50000000  0.75000000  0.15068650  1
  Te  Te1_7  1  0.50000000  0.75000000  0.65068650  1
  N  N0_0  1  0.25000000  0.25000000  0.00000000  1
  N  N0_1  1  0.25000000  0.25000000  0.50000000  1
  N  N0_2  1  0.25000000  0.75000000  0.00000000  1
  N  N0_3  1  0.25000000  0.75000000  0.50000000  1
  N  N0_4  1  0.75000000  0.25000000  0.00000000  1
  N  N0_5  1  0.75000000  0.25000000  0.50000000  1
  N  N0_6  1  0.75000000  0.75000000  0.00000000  1
  N  N0_7  1  0.75000000  0.75000000  0.50000000  1
  N  N1_0  1  0.00000000  0.00000000  0.00000000  1
  N  N1_1  1  0.00000000  0.00000000  0.50000000  1
  N  N1_2  1  0.00000000  0.50000000  0.00000000  1
  N  N1_3  1  0.00000000  0.50000000  0.50000000  1
  N  N1_4  1  0.50000000  0.00000000  0.00000000  1
  N  N1_5  1  0.50000000  0.00000000  0.50000000  1
  N  N1_6  1  0.50000000  0.50000000  0.00000000  1
  N  N1_7  1  0.50000000  0.50000000  0.50000000  1
loop_
_geom_bond_atom_site_label_1
_geom_bond_atom_site_label_2
_geom_bond_distance
_geom_bond_site_symmetry_2
Nb0_0 Te1_0 3.100016 1_555
Nb0_0 Te1_4 3.100016 1_555
Nb0_0 Te1_6 3.100016 1_545
Nb0_0 Te1_2 3.100016 1_545
Nb0_1 Te1_1 3.100016 1_555
Nb0_1 Te1_5 3.100016 1_555
Nb0_1 Te1_3 3.100016 1_545
Nb0_1 Te1_7 3.100016 1_545
Nb0_2 Te1_0 3.100016 1_555
Nb0_2 Te1_4 3.100016 1_555
Nb0_2 Te1_2 3.100016 1_555
Nb0_2 Te1_6 3.100016 1_555
Nb0_3 Te1_7 3.100016 1_555
Nb0_3 Te1_1 3.100016 1_555
Nb0_3 Te1_5 3.100016 1_555
Nb0_3 Te1_3 3.100016 1_555
Nb0_4 Te1_4 3.100016 1_555
Nb0_4 Te1_6 3.100016 1_545
Nb0_4 Te1_0 3.100016 1_655
Nb0_4 Te1_2 3.100016 1_645
Nb0_5 Te1_1 3.100016 1_655
Nb0_5 Te1_3 3.100016 1_645
Nb0_5 Te1_5 3.100016 1_555
Nb0_5 Te1_7 3.100016 1_545
Nb0_6 Te1_4 3.100016 1_555
Nb0_6 Te1_0 3.100016 1_655
Nb0_6 Te1_6 3.100016 1_555
Nb0_6 Te1_2 3.100016 1_655
Nb0_7 Te1_7 3.100016 1_555
Nb0_7 Te1_1 3.100016 1_655
Nb0_7 Te1_3 3.100016 1_655
Nb0_7 Te1_5 3.100016 1_555
Nb1_0 Te0_0 3.100016 1_555
Nb1_0 Te0_4 3.100016 1_455
Nb1_0 Te0_2 3.100016 1_555
Nb1_0 Te0_6 3.100016 1_455
Nb1_1 Te0_5 3.100016 1_455
Nb1_1 Te0_7 3.100016 1_455
Nb1_1 Te0_3 3.100016 1_555
Nb1_1 Te0_1 3.100016 1_555
Nb1_2 Te0_0 3.100016 1_565
Nb1_2 Te0_4 3.100016 1_465
Nb1_2 Te0_2 3.100016 1_555
Nb1_2 Te0_6 3.100016 1_455
Nb1_3 Te0_7 3.100016 1_455
Nb1_3 Te0_5 3.100016 1_465
Nb1_3 Te0_1 3.100016 1_565
Nb1_3 Te0_3 3.100016 1_555
Nb1_4 Te0_0 3.100016 1_555
Nb1_4 Te0_4 3.100016 1_555
Nb1_4 Te0_2 3.100016 1_555
Nb1_4 Te0_6 3.100016 1_555
Nb1_5 Te0_3 3.100016 1_555
Nb1_5 Te0_7 3.100016 1_555
Nb1_5 Te0_1 3.100016 1_555
Nb1_5 Te0_5 3.100016 1_555
Nb1_6 Te0_0 3.100016 1_565
Nb1_6 Te0_4 3.100016 1_565
Nb1_6 Te0_2 3.100016 1_555
Nb1_6 Te0_6 3.100016 1_555
Nb1_7 Te0_1 3.100016 1_565
Nb1_7 Te0_3 3.100016 1_555
Nb1_7 Te0_7 3.100016 1_555
Nb1_7 Te0_5 3.100016 1_565
Te0_0 Te0_4 3.584273 1_555
Te0_0 Te0_4 3.584273 1_455
Te0_0 Te0_2 3.584273 1_545
Te0_0 Te0_2 3.584273 1_555
Te0_1 Te0_5 3.584273 1_555
Te0_1 Te0_5 3.584273 1_455
Te0_1 Te0_3 3.584273 1_555
Te0_1 Te0_3 3.584273 1_545
Te0_2 Te0_6 3.584273 1_455
Te0_2 Te0_6 3.584273 1_555
Te0_3 Te0_7 3.584273 1_555
Te0_3 Te0_7 3.584273 1_455
Te0_4 Te0_6 3.584273 1_555
Te0_4 Te0_6 3.584273 1_545
Te0_5 Te0_7 3.584273 1_545
Te0_5 Te0_7 3.584273 1_555
Te1_0 Te1_2 3.584273 1_545
Te1_0 Te1_4 3.584273 1_455
Te1_0 Te1_4 3.584273 1_555
Te1_0 Te1_2 3.584273 1_555
Te1_1 Te1_5 3.584273 1_555
Te1_1 Te1_5 3.584273 1_455
Te1_1 Te1_3 3.584273 1_545
Te1_1 Te1_3 3.584273 1_555
Te1_2 Te1_6 3.584273 1_555
Te1_2 Te1_6 3.584273 1_455
Te1_3 Te1_7 3.584273 1_555
Te1_3 Te1_7 3.584273 1_455
Te1_4 Te1_6 3.584273 1_555
Te1_4 Te1_6 3.584273 1_545
Te1_5 Te1_7 3.584273 1_555
Te1_5 Te1_7 3.584273 1_545
N0_0 Nb0_0 2.098537 1_555
N0_0 Nb0_2 2.098537 1_555
N0_0 Nb1_5 2.098537 1_554
N0_0 Nb1_1 2.098537 1_554
N0_0 N1_0 2.534464 1_555
N0_0 N1_2 2.534464 1_555
N0_0 N1_4 2.534464 1_555
N0_0 N1_6 2.534464 1_555
N0_1 Nb0_3 2.098537 1_555
N0_1 Nb0_1 2.098537 1_555
N0_1 Nb1_4 2.098537 1_555
N0_1 Nb1_0 2.098537 1_555
N0_1 N1_7 2.534464 1_555
N0_1 N1_1 2.534464 1_555
N0_1 N1_3 2.534464 1_555
N0_1 N1_5 2.534464 1_555
N0_2 Nb0_0 2.098537 1_565
N0_2 Nb0_2 2.098537 1_555
N0_2 Nb1_3 2.098537 1_554
N0_2 Nb1_7 2.098537 1_554
N0_2 N1_0 2.534464 1_565
N0_2 N1_2 2.534464 1_555
N0_2 N1_4 2.534464 1_565
N0_2 N1_6 2.534464 1_555
N0_3 Nb0_1 2.098537 1_565
N0_3 Nb0_3 2.098537 1_555
N0_3 Nb1_2 2.098537 1_555
N0_3 Nb1_6 2.098537 1_555
N0_3 N1_7 2.534464 1_555
N0_3 N1_1 2.534464 1_565
N0_3 N1_3 2.534464 1_555
N0_3 N1_5 2.534464 1_565
N0_4 Nb0_6 2.098537 1_555
N0_4 Nb0_4 2.098537 1_555
N0_4 Nb1_5 2.098537 1_554
N0_4 Nb1_1 2.098537 1_654
N0_4 N1_2 2.534464 1_655
N0_4 N1_0 2.534464 1_655
N0_4 N1_4 2.534464 1_555
N0_4 N1_6 2.534464 1_555
N0_5 Nb0_5 2.098537 1_555
N0_5 Nb0_7 2.098537 1_555
N0_5 Nb1_4 2.098537 1_555
N0_5 Nb1_0 2.098537 1_655
N0_5 N1_7 2.534464 1_555
N0_5 N1_3 2.534464 1_655
N0_5 N1_1 2.534464 1_655
N0_5 N1_5 2.534464 1_555
N0_6 Nb0_4 2.098537 1_565
N0_6 Nb0_6 2.098537 1_555
N0_6 Nb1_3 2.098537 1_654
N0_6 Nb1_7 2.098537 1_554
N0_6 N1_2 2.534464 1_655
N0_6 N1_0 2.534464 1_665
N0_6 N1_4 2.534464 1_565
N0_6 N1_6 2.534464 1_555
N0_7 Nb0_5 2.098537 1_565
N0_7 Nb0_7 2.098537 1_555
N0_7 Nb1_2 2.098537 1_655
N0_7 Nb1_6 2.098537 1_555
N0_7 N1_7 2.534464 1_555
N0_7 N1_3 2.534464 1_655
N0_7 N1_5 2.534464 1_565
N0_7 N1_1 2.534464 1_665
N1_0 Nb0_4 2.098537 1_455
N1_0 Nb0_0 2.098537 1_555
N1_0 Nb1_3 2.098537 1_544
N1_0 Nb1_1 2.098537 1_554
N1_1 Nb0_1 2.098537 1_555
N1_1 Nb0_5 2.098537 1_455
N1_1 Nb1_2 2.098537 1_545
N1_1 Nb1_0 2.098537 1_555
N1_2 Nb0_6 2.098537 1_455
N1_2 Nb0_2 2.098537 1_555
N1_2 Nb1_3 2.098537 1_554
N1_2 Nb1_1 2.098537 1_554
N1_3 Nb0_7 2.098537 1_455
N1_3 Nb0_3 2.098537 1_555
N1_3 Nb1_2 2.098537 1_555
N1_3 Nb1_0 2.098537 1_555
N1_4 Nb0_0 2.098537 1_555
N1_4 Nb0_4 2.098537 1_555
N1_4 Nb1_5 2.098537 1_554
N1_4 Nb1_7 2.098537 1_544
N1_5 Nb0_5 2.098537 1_555
N1_5 Nb0_1 2.098537 1_555
N1_5 Nb1_4 2.098537 1_555
N1_5 Nb1_6 2.098537 1_545
N1_6 Nb0_6 2.098537 1_555
N1_6 Nb0_2 2.098537 1_555
N1_6 Nb1_5 2.098537 1_554
N1_6 Nb1_7 2.098537 1_554
N1_7 Nb0_3 2.098537 1_555
N1_7 Nb0_7 2.098537 1_555
N1_7 Nb1_4 2.098537 1_555
N1_7 Nb1_6 2.098537 1_555
