# generated using pymatgen
data_Sr5FeMo4O15
_symmetry_space_group_name_H-M   'P 1'
_cell_length_a   9.07108942
_cell_length_b   9.07108942
_cell_length_c   7.00508134
_cell_angle_alpha   75.04660006
_cell_angle_beta   75.04660006
_cell_angle_gamma   37.03683569
_symmetry_Int_Tables_number   1
_chemical_formula_structural   Sr5FeMo4O15
_chemical_formula_sum   'Sr5 Fe1 Mo4 O15'
_cell_volume   334.08645763
_cell_formula_units_Z   1
loop_
 _symmetry_equiv_pos_site_id
 _symmetry_equiv_pos_as_xyz
  1  'x, y, z'
loop_
 _atom_site_type_symbol
 _atom_site_label
 _atom_site_symmetry_multiplicity
 _atom_site_fract_x
 _atom_site_fract_y
 _atom_site_fract_z
 _atom_site_occupancy
  Sr  Sr0  1  0.80820300  0.80820300  0.28515100  1
  Sr  Sr1  1  0.59418800  0.59418800  0.09154100  1
  Sr  Sr2  1  0.19179700  0.19179700  0.71484900  1
  Sr  Sr3  1  0.40581200  0.40581200  0.90845900  1
  Sr  Sr4  1  0.00000000  0.00000000  0.50000000  1
  Fe  Fe0  1  0.00000000  0.00000000  0.00000000  1
  Mo  Mo0  1  0.59955200  0.59955200  0.59956600  1
  Mo  Mo1  1  0.19856600  0.19856600  0.20182200  1
  Mo  Mo2  1  0.80143400  0.80143400  0.79817800  1
  Mo  Mo3  1  0.40044800  0.40044800  0.40043400  1
  O  O0  1  0.19877800  0.70186300  0.20327500  1
  O  O1  1  0.00000000  0.50000000  0.00000000  1
  O  O2  1  0.60471300  0.09758500  0.60105300  1
  O  O3  1  0.80122200  0.29813700  0.79672500  1
  O  O4  1  0.39528700  0.90241500  0.39894700  1
  O  O5  1  0.30327700  0.30327700  0.30362600  1
  O  O6  1  0.09815300  0.09815300  0.09592800  1
  O  O7  1  0.69672300  0.69672300  0.69637400  1
  O  O8  1  0.90184700  0.90184700  0.90407200  1
  O  O9  1  0.50000000  0.50000000  0.50000000  1
  O  O10  1  0.09758500  0.60471300  0.60105300  1
  O  O11  1  0.90241500  0.39528700  0.39894700  1
  O  O12  1  0.50000000  0.00000000  0.00000000  1
  O  O13  1  0.70186300  0.19877800  0.20327500  1
  O  O14  1  0.29813700  0.80122200  0.79672500  1
loop_
_geom_bond_atom_site_label_1
_geom_bond_atom_site_label_2
_geom_bond_distance
_geom_bond_site_symmetry_2
Fe0 O6 1.979936 1_555
Fe0 O8 1.979936 1_444
Fe0 O0 2.036007 1_545
Fe0 O13 2.036007 1_455
Fe0 O3 2.036007 1_454
Fe0 O14 2.036007 1_544
Mo0 O7 1.967520 1_555
Mo0 O9 2.017289 1_555
Mo0 O14 2.024717 1_555
Mo0 O3 2.024717 1_555
Mo0 O4 2.044582 1_555
Mo0 O11 2.044582 1_555
Mo1 O4 2.002972 1_545
Mo1 O11 2.002972 1_455
Mo1 O12 2.043521 1_555
Mo1 O1 2.043521 1_555
Mo1 O6 2.057062 1_555
Mo1 O5 2.110091 1_555
Mo2 O2 2.002972 1_565
Mo2 O10 2.002972 1_655
Mo2 O1 2.043521 1_656
Mo2 O12 2.043521 1_566
Mo2 O8 2.057062 1_555
Mo2 O7 2.110091 1_555
Mo3 O5 1.967520 1_555
Mo3 O9 2.017289 1_555
Mo3 O0 2.024717 1_555
Mo3 O13 2.024717 1_555
Mo3 O10 2.044582 1_555
Mo3 O2 2.044582 1_555
O0 Sr0 2.755458 1_455
O0 Sr1 2.790057 1_555
O0 Sr3 2.795132 1_554
O0 Sr4 2.840300 1_565
O1 Sr0 2.855902 1_455
O1 Sr2 2.855902 1_554
O1 Sr3 2.955578 1_554
O1 Sr1 2.955578 1_455
O2 Sr4 2.843926 1_655
O2 Sr0 2.889463 1_545
O2 Sr3 2.959430 1_555
O2 Sr2 3.015891 1_555
O3 Sr2 2.755458 1_655
O3 Sr3 2.790057 1_555
O3 Sr1 2.795132 1_556
O3 Sr4 2.840300 1_655
O4 Sr4 2.843926 1_565
O4 Sr2 2.889463 1_565
O4 Sr1 2.959430 1_555
O4 Sr0 3.015891 1_555
O5 Sr3 2.848979 1_554
O5 Sr0 2.884179 1_545
O5 Sr0 2.884179 1_455
O5 Sr2 2.994885 1_555
O6 Sr2 2.716768 1_554
O6 Sr4 2.874357 1_555
O6 Sr1 2.882233 1_455
O6 Sr1 2.882233 1_545
O7 Sr1 2.848979 1_556
O7 Sr2 2.884179 1_565
O7 Sr2 2.884179 1_655
O7 Sr0 2.994885 1_555
O8 Sr0 2.716768 1_556
O8 Sr4 2.874357 1_665
O8 Sr3 2.882233 1_565
O8 Sr3 2.882233 1_655
O9 Sr3 2.879085 1_555
O9 Sr1 2.879085 1_555
O9 Sr4 2.881064 1_565
O9 Sr4 2.881064 1_655
O10 Sr4 2.843926 1_565
O10 Sr0 2.889463 1_455
O10 Sr3 2.959430 1_555
O10 Sr2 3.015891 1_555
O11 Sr4 2.843926 1_655
O11 Sr2 2.889463 1_655
O11 Sr1 2.959430 1_555
O11 Sr0 3.015891 1_555
O12 Sr0 2.855902 1_545
O12 Sr2 2.855902 1_554
O12 Sr3 2.955578 1_554
O12 Sr1 2.955578 1_545
O13 Sr0 2.755458 1_545
O13 Sr1 2.790057 1_555
O13 Sr3 2.795132 1_554
O13 Sr4 2.840300 1_655
O14 Sr2 2.755458 1_565
O14 Sr3 2.790057 1_555
O14 Sr1 2.795132 1_556
O14 Sr4 2.840300 1_565
