# generated using pymatgen
data_Y2Si3(NiO4)3
_symmetry_space_group_name_H-M   'P 1'
_cell_length_a   10.63978893
_cell_length_b   10.63978893
_cell_length_c   10.63978893
_cell_angle_alpha   109.47122063
_cell_angle_beta   109.47122063
_cell_angle_gamma   109.47122063
_symmetry_Int_Tables_number   1
_chemical_formula_structural   Y2Si3(NiO4)3
_chemical_formula_sum   'Y8 Si12 Ni12 O48'
_cell_volume   927.20794950
_cell_formula_units_Z   4
loop_
 _symmetry_equiv_pos_site_id
 _symmetry_equiv_pos_as_xyz
  1  'x, y, z'
loop_
 _atom_site_type_symbol
 _atom_site_label
 _atom_site_symmetry_multiplicity
 _atom_site_fract_x
 _atom_site_fract_y
 _atom_site_fract_z
 _atom_site_occupancy
  Y  Y0  1  0.00000000  0.00000000  0.00000000  1
  Y  Y1  1  0.50000000  0.00000000  0.00000000  1
  Y  Y2  1  0.50000000  0.50000000  0.00000000  1
  Y  Y3  1  0.00000000  0.50000000  0.50000000  1
  Y  Y4  1  0.00000000  0.00000000  0.50000000  1
  Y  Y5  1  0.50000000  0.50000000  0.50000000  1
  Y  Y6  1  0.00000000  0.50000000  0.00000000  1
  Y  Y7  1  0.50000000  0.00000000  0.50000000  1
  Si  Si0  1  0.12500000  0.75000000  0.87500000  1
  Si  Si1  1  0.75000000  0.87500000  0.12500000  1
  Si  Si2  1  0.25000000  0.62500000  0.37500000  1
  Si  Si3  1  0.62500000  0.75000000  0.37500000  1
  Si  Si4  1  0.87500000  0.12500000  0.75000000  1
  Si  Si5  1  0.37500000  0.25000000  0.62500000  1
  Si  Si6  1  0.37500000  0.62500000  0.75000000  1
  Si  Si7  1  0.25000000  0.12500000  0.87500000  1
  Si  Si8  1  0.62500000  0.37500000  0.25000000  1
  Si  Si9  1  0.12500000  0.87500000  0.25000000  1
  Si  Si10  1  0.75000000  0.37500000  0.62500000  1
  Si  Si11  1  0.87500000  0.25000000  0.12500000  1
  Ni  Ni0  1  0.87500000  0.75000000  0.62500000  1
  Ni  Ni1  1  0.87500000  0.62500000  0.25000000  1
  Ni  Ni2  1  0.62500000  0.87500000  0.75000000  1
  Ni  Ni3  1  0.25000000  0.87500000  0.62500000  1
  Ni  Ni4  1  0.75000000  0.62500000  0.87500000  1
  Ni  Ni5  1  0.62500000  0.25000000  0.87500000  1
  Ni  Ni6  1  0.12500000  0.25000000  0.37500000  1
  Ni  Ni7  1  0.12500000  0.37500000  0.75000000  1
  Ni  Ni8  1  0.37500000  0.12500000  0.25000000  1
  Ni  Ni9  1  0.75000000  0.12500000  0.37500000  1
  Ni  Ni10  1  0.25000000  0.37500000  0.12500000  1
  Ni  Ni11  1  0.37500000  0.75000000  0.12500000  1
  O  O0  1  0.59515000  0.89209400  0.36929100  1
  O  O1  1  0.36929100  0.59515000  0.89209400  1
  O  O2  1  0.27414000  0.29694400  0.90485000  1
  O  O3  1  0.47719600  0.60790600  0.20305600  1
  O  O4  1  0.29694400  0.89209400  0.02280400  1
  O  O5  1  0.13070900  0.02280400  0.22586000  1
  O  O6  1  0.36929100  0.27414000  0.47719600  1
  O  O7  1  0.89209400  0.36929100  0.59515000  1
  O  O8  1  0.20305600  0.22586000  0.59515000  1
  O  O9  1  0.47719600  0.36929100  0.27414000  1
  O  O10  1  0.89209400  0.02280400  0.29694400  1
  O  O11  1  0.60790600  0.90485000  0.13070900  1
  O  O12  1  0.90485000  0.13070900  0.60790600  1
  O  O13  1  0.27414000  0.47719600  0.36929100  1
  O  O14  1  0.59515000  0.20305600  0.22586000  1
  O  O15  1  0.22586000  0.59515000  0.20305600  1
  O  O16  1  0.02280400  0.29694400  0.89209400  1
  O  O17  1  0.90485000  0.27414000  0.29694400  1
  O  O18  1  0.02280400  0.22586000  0.13070900  1
  O  O19  1  0.79694400  0.77414000  0.40485000  1
  O  O20  1  0.29694400  0.90485000  0.27414000  1
  O  O21  1  0.60790600  0.20305600  0.47719600  1
  O  O22  1  0.22586000  0.13070900  0.02280400  1
  O  O23  1  0.13070900  0.60790600  0.90485000  1
  O  O24  1  0.40485000  0.10790600  0.63070900  1
  O  O25  1  0.63070900  0.40485000  0.10790600  1
  O  O26  1  0.72586000  0.70305600  0.09515000  1
  O  O27  1  0.52280400  0.39209400  0.79694400  1
  O  O28  1  0.70305600  0.10790600  0.97719600  1
  O  O29  1  0.86929100  0.97719600  0.77414000  1
  O  O30  1  0.63070900  0.72586000  0.52280400  1
  O  O31  1  0.10790600  0.63070900  0.40485000  1
  O  O32  1  0.86929100  0.39209400  0.09515000  1
  O  O33  1  0.77414000  0.86929100  0.97719600  1
  O  O34  1  0.39209400  0.79694400  0.52280400  1
  O  O35  1  0.70305600  0.09515000  0.72586000  1
  O  O36  1  0.79694400  0.52280400  0.39209400  1
  O  O37  1  0.97719600  0.77414000  0.86929100  1
  O  O38  1  0.09515000  0.72586000  0.70305600  1
  O  O39  1  0.97719600  0.70305600  0.10790600  1
  O  O40  1  0.77414000  0.40485000  0.79694400  1
  O  O41  1  0.40485000  0.79694400  0.77414000  1
  O  O42  1  0.72586000  0.52280400  0.63070900  1
  O  O43  1  0.09515000  0.86929100  0.39209400  1
  O  O44  1  0.39209400  0.09515000  0.86929100  1
  O  O45  1  0.10790600  0.97719600  0.70305600  1
  O  O46  1  0.52280400  0.63070900  0.72586000  1
  O  O47  1  0.20305600  0.47719600  0.60790600  1
loop_
_geom_bond_atom_site_label_1
_geom_bond_atom_site_label_2
_geom_bond_distance
_geom_bond_site_symmetry_2
Ni0 O19 2.342799 1_555
Ni0 O38 2.342799 1_655
Ni0 O37 2.342808 1_555
Ni0 O30 2.342808 1_555
Ni0 O29 2.443363 1_555
Ni0 O42 2.443363 1_555
Ni0 O45 2.443369 1_655
Ni0 O36 2.443369 1_555
Ni1 O39 2.342799 1_555
Ni1 O36 2.342799 1_555
Ni1 O43 2.342805 1_655
Ni1 O25 2.342805 1_555
Ni1 O26 2.443369 1_555
Ni1 O19 2.443369 1_555
Ni1 O32 2.443375 1_555
Ni1 O31 2.443375 1_655
Ni2 O41 2.342799 1_555
Ni2 O35 2.342799 1_565
Ni2 O29 2.342808 1_555
Ni2 O46 2.342808 1_555
Ni2 O33 2.443363 1_555
Ni2 O30 2.443363 1_555
Ni2 O28 2.443369 1_565
Ni2 O34 2.443369 1_555
Ni3 O45 2.342799 1_555
Ni3 O34 2.342799 1_555
Ni3 O44 2.342805 1_565
Ni3 O31 2.342805 1_555
Ni3 O38 2.443369 1_555
Ni3 O41 2.443369 1_555
Ni3 O43 2.443375 1_555
Ni3 O24 2.443375 1_565
Ni4 O40 2.342799 1_555
Ni4 O26 2.342799 1_556
Ni4 O33 2.342808 1_555
Ni4 O42 2.342808 1_555
Ni4 O37 2.443363 1_555
Ni4 O46 2.443363 1_555
Ni4 O39 2.443369 1_556
Ni4 O27 2.443369 1_555
Ni5 O28 2.342799 1_555
Ni5 O27 2.342799 1_555
Ni5 O32 2.342805 1_556
Ni5 O24 2.342805 1_555
Ni5 O35 2.443369 1_555
Ni5 O40 2.443369 1_555
Ni5 O44 2.443375 1_555
Ni5 O25 2.443375 1_556
Ni6 O17 2.342799 1_455
Ni6 O8 2.342799 1_555
Ni6 O6 2.342808 1_555
Ni6 O18 2.342808 1_555
Ni6 O13 2.443363 1_555
Ni6 O5 2.443363 1_555
Ni6 O47 2.443369 1_555
Ni6 O10 2.443369 1_455
Ni7 O47 2.342799 1_555
Ni7 O16 2.342799 1_555
Ni7 O12 2.342805 1_455
Ni7 O1 2.342805 1_555
Ni7 O8 2.443369 1_555
Ni7 O2 2.443369 1_555
Ni7 O23 2.443375 1_555
Ni7 O7 2.443375 1_455
Ni8 O20 2.342799 1_545
Ni8 O14 2.342799 1_555
Ni8 O9 2.342808 1_555
Ni8 O5 2.342808 1_555
Ni8 O6 2.443363 1_555
Ni8 O22 2.443363 1_555
Ni8 O21 2.443369 1_555
Ni8 O4 2.443369 1_545
Ni9 O21 2.342799 1_555
Ni9 O10 2.342799 1_555
Ni9 O11 2.342805 1_545
Ni9 O7 2.342805 1_555
Ni9 O14 2.443369 1_555
Ni9 O17 2.443369 1_555
Ni9 O12 2.443375 1_555
Ni9 O0 2.443375 1_545
Ni10 O2 2.342799 1_554
Ni10 O15 2.342799 1_555
Ni10 O13 2.342808 1_555
Ni10 O22 2.342808 1_555
Ni10 O9 2.443363 1_555
Ni10 O18 2.443363 1_555
Ni10 O3 2.443369 1_555
Ni10 O16 2.443369 1_554
Ni11 O3 2.342799 1_555
Ni11 O4 2.342799 1_555
Ni11 O23 2.342805 1_554
Ni11 O0 2.342805 1_555
Ni11 O15 2.443369 1_555
Ni11 O20 2.443369 1_555
Ni11 O11 2.443375 1_555
Ni11 O1 2.443375 1_554
O0 Si3 1.660939 1_555
O0 Y7 2.219496 1_565
O1 Si6 1.660939 1_555
O1 Y2 2.219496 1_556
O2 Si7 1.660942 1_555
O2 Y2 2.219502 1_556
O3 Si3 1.660942 1_555
O3 Y2 2.219502 1_555
O4 Si0 1.660942 1_554
O4 Y1 2.219502 1_565
O5 Si9 1.660944 1_545
O5 Y0 2.219500 1_555
O6 Si5 1.660944 1_555
O6 Y5 2.219500 1_555
O7 Si10 1.660939 1_555
O7 Y3 2.219496 1_655
O8 Si5 1.660942 1_555
O8 Y4 2.219502 1_555
O9 Si8 1.660944 1_555
O9 Y5 2.219500 1_555
O10 Si1 1.660942 1_545
O10 Y4 2.219502 1_655
O11 Si1 1.660939 1_555
O11 Y1 2.219496 1_565
O12 Si4 1.660939 1_555
O12 Y4 2.219496 1_655
O13 Si2 1.660944 1_555
O13 Y5 2.219500 1_555
O14 Si8 1.660942 1_555
O14 Y1 2.219502 1_555
O15 Si2 1.660942 1_555
O15 Y6 2.219502 1_555
O16 Si4 1.660942 1_455
O16 Y6 2.219502 1_556
O17 Si11 1.660942 1_555
O17 Y3 2.219502 1_655
O18 Si11 1.660944 1_455
O18 Y0 2.219500 1_555
O19 Si3 1.660942 1_555
O19 Y4 2.219502 1_665
O20 Si9 1.660942 1_555
O20 Y7 2.219502 1_565
O21 Si10 1.660942 1_555
O21 Y7 2.219502 1_555
O22 Si7 1.660944 1_554
O22 Y0 2.219500 1_555
O23 Si0 1.660939 1_555
O23 Y6 2.219496 1_556
O24 Si5 1.660939 1_555
O24 Y7 2.219496 1_555
O25 Si8 1.660939 1_555
O25 Y2 2.219496 1_555
O26 Si1 1.660942 1_555
O26 Y2 2.219502 1_555
O27 Si5 1.660942 1_555
O27 Y2 2.219502 1_556
O28 Si11 1.660942 1_556
O28 Y1 2.219502 1_556
O29 Si4 1.660944 1_565
O29 Y0 2.219500 1_666
O30 Si3 1.660944 1_555
O30 Y5 2.219500 1_555
O31 Si2 1.660939 1_555
O31 Y3 2.219496 1_555
O32 Si11 1.660939 1_555
O32 Y6 2.219496 1_655
O33 Si1 1.660944 1_556
O33 Y0 2.219500 1_666
O34 Si2 1.660942 1_555
O34 Y7 2.219502 1_565
O35 Si4 1.660942 1_555
O35 Y7 2.219502 1_555
O36 Si8 1.660942 1_555
O36 Y3 2.219502 1_655
O37 Si0 1.660944 1_655
O37 Y0 2.219500 1_666
O38 Si0 1.660942 1_555
O38 Y3 2.219502 1_555
O39 Si9 1.660942 1_655
O39 Y6 2.219502 1_655
O40 Si10 1.660942 1_555
O40 Y6 2.219502 1_656
O41 Si6 1.660942 1_555
O41 Y1 2.219502 1_566
O42 Si10 1.660944 1_555
O42 Y5 2.219500 1_555
O43 Si9 1.660939 1_555
O43 Y4 2.219496 1_565
O44 Si7 1.660939 1_555
O44 Y1 2.219496 1_556
O45 Si7 1.660942 1_565
O45 Y4 2.219502 1_565
O46 Si6 1.660944 1_555
O46 Y5 2.219500 1_555
O47 Si6 1.660942 1_555
O47 Y3 2.219502 1_555
