# generated using pymatgen
data_Al3W3C4
_symmetry_space_group_name_H-M   'P 1'
_cell_length_a   5.67027200
_cell_length_b   5.89269400
_cell_length_c   29.14256400
_cell_angle_alpha   90.00000000
_cell_angle_beta   90.00000000
_cell_angle_gamma   90.00000000
_symmetry_Int_Tables_number   1
_chemical_formula_structural   Al3W3C4
_chemical_formula_sum   'Al24 W24 C32'
_cell_volume   973.74567227
_cell_formula_units_Z   8
loop_
 _symmetry_equiv_pos_site_id
 _symmetry_equiv_pos_as_xyz
  1  'x, y, z'
loop_
 _atom_site_type_symbol
 _atom_site_label
 _atom_site_symmetry_multiplicity
 _atom_site_fract_x
 _atom_site_fract_y
 _atom_site_fract_z
 _atom_site_occupancy
  Al  Al0_0  1  0.00000000  0.00000000  0.24879100  1
  Al  Al0_1  1  0.00000000  0.00000000  0.74879100  1
  Al  Al0_2  1  0.00000000  0.50000000  0.24879100  1
  Al  Al0_3  1  0.00000000  0.50000000  0.74879100  1
  Al  Al0_4  1  0.50000000  0.00000000  0.24879100  1
  Al  Al0_5  1  0.50000000  0.00000000  0.74879100  1
  Al  Al0_6  1  0.50000000  0.50000000  0.24879100  1
  Al  Al0_7  1  0.50000000  0.50000000  0.74879100  1
  Al  Al1_0  1  0.00000000  0.25000000  0.33110950  1
  Al  Al1_1  1  0.00000000  0.25000000  0.83110950  1
  Al  Al1_2  1  0.00000000  0.75000000  0.33110950  1
  Al  Al1_3  1  0.00000000  0.75000000  0.83110950  1
  Al  Al1_4  1  0.50000000  0.25000000  0.33110950  1
  Al  Al1_5  1  0.50000000  0.25000000  0.83110950  1
  Al  Al1_6  1  0.50000000  0.75000000  0.33110950  1
  Al  Al1_7  1  0.50000000  0.75000000  0.83110950  1
  Al  Al2_0  1  0.00000000  0.00000000  0.41651550  1
  Al  Al2_1  1  0.00000000  0.00000000  0.91651550  1
  Al  Al2_2  1  0.00000000  0.50000000  0.41651550  1
  Al  Al2_3  1  0.00000000  0.50000000  0.91651550  1
  Al  Al2_4  1  0.50000000  0.00000000  0.41651550  1
  Al  Al2_5  1  0.50000000  0.00000000  0.91651550  1
  Al  Al2_6  1  0.50000000  0.50000000  0.41651550  1
  Al  Al2_7  1  0.50000000  0.50000000  0.91651550  1
  W  W0_0  1  0.00000000  0.25000000  0.49546650  1
  W  W0_1  1  0.00000000  0.25000000  0.99546650  1
  W  W0_2  1  0.00000000  0.75000000  0.49546650  1
  W  W0_3  1  0.00000000  0.75000000  0.99546650  1
  W  W0_4  1  0.50000000  0.25000000  0.49546650  1
  W  W0_5  1  0.50000000  0.25000000  0.99546650  1
  W  W0_6  1  0.50000000  0.75000000  0.49546650  1
  W  W0_7  1  0.50000000  0.75000000  0.99546650  1
  W  W1_0  1  0.00000000  0.00000000  0.08252100  1
  W  W1_1  1  0.00000000  0.00000000  0.58252100  1
  W  W1_2  1  0.00000000  0.50000000  0.08252100  1
  W  W1_3  1  0.00000000  0.50000000  0.58252100  1
  W  W1_4  1  0.50000000  0.00000000  0.08252100  1
  W  W1_5  1  0.50000000  0.00000000  0.58252100  1
  W  W1_6  1  0.50000000  0.50000000  0.08252100  1
  W  W1_7  1  0.50000000  0.50000000  0.58252100  1
  W  W2_0  1  0.00000000  0.25000000  0.16865500  1
  W  W2_1  1  0.00000000  0.25000000  0.66865500  1
  W  W2_2  1  0.00000000  0.75000000  0.16865500  1
  W  W2_3  1  0.00000000  0.75000000  0.66865500  1
  W  W2_4  1  0.50000000  0.25000000  0.16865500  1
  W  W2_5  1  0.50000000  0.25000000  0.66865500  1
  W  W2_6  1  0.50000000  0.75000000  0.16865500  1
  W  W2_7  1  0.50000000  0.75000000  0.66865500  1
  C  C0_0  1  0.25000000  0.25000000  0.05150350  1
  C  C0_1  1  0.25000000  0.25000000  0.55150350  1
  C  C0_2  1  0.25000000  0.75000000  0.05150350  1
  C  C0_3  1  0.25000000  0.75000000  0.55150350  1
  C  C0_4  1  0.75000000  0.25000000  0.05150350  1
  C  C0_5  1  0.75000000  0.25000000  0.55150350  1
  C  C0_6  1  0.75000000  0.75000000  0.05150350  1
  C  C0_7  1  0.75000000  0.75000000  0.55150350  1
  C  C1_0  1  0.25000000  0.00000000  0.13985650  1
  C  C1_1  1  0.25000000  0.00000000  0.63985650  1
  C  C1_2  1  0.25000000  0.50000000  0.13985650  1
  C  C1_3  1  0.25000000  0.50000000  0.63985650  1
  C  C1_4  1  0.75000000  0.00000000  0.13985650  1
  C  C1_5  1  0.75000000  0.00000000  0.63985650  1
  C  C1_6  1  0.75000000  0.50000000  0.13985650  1
  C  C1_7  1  0.75000000  0.50000000  0.63985650  1
  C  C2_0  1  0.25000000  0.25000000  0.22408400  1
  C  C2_1  1  0.25000000  0.25000000  0.72408400  1
  C  C2_2  1  0.25000000  0.75000000  0.22408400  1
  C  C2_3  1  0.25000000  0.75000000  0.72408400  1
  C  C2_4  1  0.75000000  0.25000000  0.22408400  1
  C  C2_5  1  0.75000000  0.25000000  0.72408400  1
  C  C2_6  1  0.75000000  0.75000000  0.22408400  1
  C  C2_7  1  0.75000000  0.75000000  0.72408400  1
  C  C3_0  1  0.25000000  0.00000000  0.31373100  1
  C  C3_1  1  0.25000000  0.00000000  0.81373100  1
  C  C3_2  1  0.25000000  0.50000000  0.31373100  1
  C  C3_3  1  0.25000000  0.50000000  0.81373100  1
  C  C3_4  1  0.75000000  0.00000000  0.31373100  1
  C  C3_5  1  0.75000000  0.00000000  0.81373100  1
  C  C3_6  1  0.75000000  0.50000000  0.31373100  1
  C  C3_7  1  0.75000000  0.50000000  0.81373100  1
loop_
_geom_bond_atom_site_label_1
_geom_bond_atom_site_label_2
_geom_bond_distance
_geom_bond_site_symmetry_2
Al0_0 C2_4 2.167528 1_455
Al0_0 C2_2 2.167528 1_545
Al0_0 C2_6 2.167528 1_445
Al0_0 C2_0 2.167528 1_555
Al0_0 C3_0 2.364556 1_555
Al0_0 C3_4 2.364556 1_455
Al0_1 C2_1 2.167528 1_555
Al0_1 C2_3 2.167528 1_545
Al0_1 C2_5 2.167528 1_455
Al0_1 C2_7 2.167528 1_445
Al0_1 C3_5 2.364556 1_455
Al0_1 C3_1 2.364556 1_555
Al0_2 C2_4 2.167528 1_455
Al0_2 C2_2 2.167528 1_555
Al0_2 C2_6 2.167528 1_455
Al0_2 C2_0 2.167528 1_555
Al0_2 C3_2 2.364556 1_555
Al0_2 C3_6 2.364556 1_455
Al0_3 C2_1 2.167528 1_555
Al0_3 C2_5 2.167528 1_455
Al0_3 C2_3 2.167528 1_555
Al0_3 C2_7 2.167528 1_455
Al0_3 C3_3 2.364556 1_555
Al0_3 C3_7 2.364556 1_455
Al0_4 C2_2 2.167528 1_545
Al0_4 C2_6 2.167528 1_545
Al0_4 C2_0 2.167528 1_555
Al0_4 C2_4 2.167528 1_555
Al0_4 C3_0 2.364556 1_555
Al0_4 C3_4 2.364556 1_555
Al0_5 C2_1 2.167528 1_555
Al0_5 C2_3 2.167528 1_545
Al0_5 C2_7 2.167528 1_545
Al0_5 C2_5 2.167528 1_555
Al0_5 C3_5 2.364556 1_555
Al0_5 C3_1 2.364556 1_555
Al0_6 C2_2 2.167528 1_555
Al0_6 C2_6 2.167528 1_555
Al0_6 C2_0 2.167528 1_555
Al0_6 C2_4 2.167528 1_555
Al0_6 C3_2 2.364556 1_555
Al0_6 C3_6 2.364556 1_555
Al0_7 C2_7 2.167528 1_555
Al0_7 C2_1 2.167528 1_555
Al0_7 C2_5 2.167528 1_555
Al0_7 C2_3 2.167528 1_555
Al0_7 C3_3 2.364556 1_555
Al0_7 C3_7 2.364556 1_555
Al1_0 C3_4 2.106237 1_455
Al1_0 C3_2 2.106237 1_555
Al1_0 C3_6 2.106237 1_455
Al1_0 C3_0 2.106237 1_555
Al1_0 Al2_2 2.892250 1_555
Al1_0 Al2_0 2.892250 1_555
Al1_1 C3_5 2.106237 1_455
Al1_1 C3_7 2.106237 1_455
Al1_1 C3_1 2.106237 1_555
Al1_1 C3_3 2.106237 1_555
Al1_1 Al2_1 2.892250 1_555
Al1_1 Al2_3 2.892250 1_555
Al1_2 C3_4 2.106237 1_465
Al1_2 C3_2 2.106237 1_555
Al1_2 C3_6 2.106237 1_455
Al1_2 C3_0 2.106237 1_565
Al1_2 Al2_2 2.892250 1_555
Al1_2 Al2_0 2.892250 1_565
Al1_3 C3_7 2.106237 1_455
Al1_3 C3_5 2.106237 1_465
Al1_3 C3_1 2.106237 1_565
Al1_3 C3_3 2.106237 1_555
Al1_3 Al2_1 2.892250 1_565
Al1_3 Al2_3 2.892250 1_555
Al1_4 C3_4 2.106237 1_555
Al1_4 C3_2 2.106237 1_555
Al1_4 C3_6 2.106237 1_555
Al1_4 C3_0 2.106237 1_555
Al1_4 Al2_6 2.892250 1_555
Al1_4 Al2_4 2.892250 1_555
Al1_5 C3_7 2.106237 1_555
Al1_5 C3_1 2.106237 1_555
Al1_5 C3_5 2.106237 1_555
Al1_5 C3_3 2.106237 1_555
Al1_5 Al2_7 2.892250 1_555
Al1_5 Al2_5 2.892250 1_555
Al1_6 C3_4 2.106237 1_565
Al1_6 C3_2 2.106237 1_555
Al1_6 C3_6 2.106237 1_555
Al1_6 C3_0 2.106237 1_565
Al1_6 Al2_6 2.892250 1_555
Al1_6 Al2_4 2.892250 1_565
Al1_7 C3_5 2.106237 1_565
Al1_7 C3_7 2.106237 1_555
Al1_7 C3_1 2.106237 1_565
Al1_7 C3_3 2.106237 1_555
Al1_7 Al2_7 2.892250 1_555
Al1_7 Al2_5 2.892250 1_565
Al2_0 W0_0 2.732047 1_555
Al2_0 W0_2 2.732047 1_545
Al2_0 Al2_4 2.835136 1_455
Al2_0 Al2_4 2.835136 1_555
Al2_0 Al2_2 2.946347 1_555
Al2_0 Al2_2 2.946347 1_545
Al2_1 W0_3 2.732047 1_545
Al2_1 W0_1 2.732047 1_555
Al2_1 Al2_5 2.835136 1_455
Al2_1 Al2_5 2.835136 1_555
Al2_1 Al2_3 2.946347 1_555
Al2_1 Al2_3 2.946347 1_545
Al2_2 W0_0 2.732047 1_555
Al2_2 W0_2 2.732047 1_555
Al2_2 Al2_6 2.835136 1_555
Al2_2 Al2_6 2.835136 1_455
Al2_3 W0_3 2.732047 1_555
Al2_3 W0_1 2.732047 1_555
Al2_3 Al2_7 2.835136 1_555
Al2_3 Al2_7 2.835136 1_455
Al2_4 W0_6 2.732047 1_545
Al2_4 W0_4 2.732047 1_555
Al2_4 Al2_6 2.946347 1_555
Al2_4 Al2_6 2.946347 1_545
Al2_5 W0_7 2.732047 1_545
Al2_5 W0_5 2.732047 1_555
Al2_5 Al2_7 2.946347 1_545
Al2_5 Al2_7 2.946347 1_555
Al2_6 W0_6 2.732047 1_555
Al2_6 W0_4 2.732047 1_555
Al2_7 W0_7 2.732047 1_555
Al2_7 W0_5 2.732047 1_555
W0_0 W0_4 2.835136 1_455
W0_0 W0_4 2.835136 1_555
W0_0 W0_2 2.946347 1_545
W0_0 W0_2 2.946347 1_555
W0_1 W0_5 2.835136 1_555
W0_1 W0_5 2.835136 1_455
W0_1 W0_3 2.946347 1_555
W0_1 W0_3 2.946347 1_545
W0_2 W0_6 2.835136 1_555
W0_2 W0_6 2.835136 1_455
W0_3 W0_7 2.835136 1_455
W0_3 W0_7 2.835136 1_555
W0_4 W0_6 2.946347 1_555
W0_4 W0_6 2.946347 1_545
W0_5 W0_7 2.946347 1_545
W0_5 W0_7 2.946347 1_555
C0_0 W0_5 2.162496 1_554
C0_0 W0_1 2.162496 1_554
C0_0 W1_4 2.235359 1_555
C0_0 W1_6 2.235359 1_555
C0_0 W1_2 2.235359 1_555
C0_0 W1_0 2.235359 1_555
C0_1 W0_0 2.162496 1_555
C0_1 W0_4 2.162496 1_555
C0_1 W1_1 2.235359 1_555
C0_1 W1_3 2.235359 1_555
C0_1 W1_7 2.235359 1_555
C0_1 W1_5 2.235359 1_555
C0_2 W0_3 2.162496 1_554
C0_2 W0_7 2.162496 1_554
C0_2 W1_4 2.235359 1_565
C0_2 W1_6 2.235359 1_555
C0_2 W1_2 2.235359 1_555
C0_2 W1_0 2.235359 1_565
C0_3 W0_6 2.162496 1_555
C0_3 W0_2 2.162496 1_555
C0_3 W1_3 2.235359 1_555
C0_3 W1_7 2.235359 1_555
C0_3 W1_5 2.235359 1_565
C0_3 W1_1 2.235359 1_565
C0_4 W0_5 2.162496 1_554
C0_4 W0_1 2.162496 1_654
C0_4 W1_4 2.235359 1_555
C0_4 W1_6 2.235359 1_555
C0_4 W1_2 2.235359 1_655
C0_4 W1_0 2.235359 1_655
C0_5 W0_4 2.162496 1_555
C0_5 W0_0 2.162496 1_655
C0_5 W1_7 2.235359 1_555
C0_5 W1_3 2.235359 1_655
C0_5 W1_1 2.235359 1_655
C0_5 W1_5 2.235359 1_555
C0_6 W0_3 2.162496 1_654
C0_6 W0_7 2.162496 1_554
C0_6 W1_4 2.235359 1_565
C0_6 W1_0 2.235359 1_665
C0_6 W1_6 2.235359 1_555
C0_6 W1_2 2.235359 1_655
C0_7 W0_6 2.162496 1_555
C0_7 W0_2 2.162496 1_655
C0_7 W1_1 2.235359 1_665
C0_7 W1_7 2.235359 1_555
C0_7 W1_3 2.235359 1_655
C0_7 W1_5 2.235359 1_565
C1_0 W1_0 2.191214 1_555
C1_0 W1_4 2.191214 1_555
C1_0 W2_2 2.210000 1_545
C1_0 W2_6 2.210000 1_545
C1_0 W2_0 2.210000 1_555
C1_0 W2_4 2.210000 1_555
C1_1 W1_5 2.191214 1_555
C1_1 W1_1 2.191214 1_555
C1_1 W2_3 2.210000 1_545
C1_1 W2_7 2.210000 1_545
C1_1 W2_1 2.210000 1_555
C1_1 W2_5 2.210000 1_555
C1_2 W1_2 2.191214 1_555
C1_2 W1_6 2.191214 1_555
C1_2 W2_2 2.210000 1_555
C1_2 W2_0 2.210000 1_555
C1_2 W2_4 2.210000 1_555
C1_2 W2_6 2.210000 1_555
C1_3 W1_7 2.191214 1_555
C1_3 W1_3 2.191214 1_555
C1_3 W2_3 2.210000 1_555
C1_3 W2_7 2.210000 1_555
C1_3 W2_5 2.210000 1_555
C1_3 W2_1 2.210000 1_555
C1_4 W1_0 2.191214 1_655
C1_4 W1_4 2.191214 1_555
C1_4 W2_0 2.210000 1_655
C1_4 W2_2 2.210000 1_645
C1_4 W2_6 2.210000 1_545
C1_4 W2_4 2.210000 1_555
C1_5 W1_1 2.191214 1_655
C1_5 W1_5 2.191214 1_555
C1_5 W2_3 2.210000 1_645
C1_5 W2_7 2.210000 1_545
C1_5 W2_1 2.210000 1_655
C1_5 W2_5 2.210000 1_555
C1_6 W1_6 2.191214 1_555
C1_6 W1_2 2.191214 1_655
C1_6 W2_0 2.210000 1_655
C1_6 W2_2 2.210000 1_655
C1_6 W2_4 2.210000 1_555
C1_6 W2_6 2.210000 1_555
C1_7 W1_7 2.191214 1_555
C1_7 W1_3 2.191214 1_655
C1_7 W2_7 2.210000 1_555
C1_7 W2_1 2.210000 1_655
C1_7 W2_3 2.210000 1_655
C1_7 W2_5 2.210000 1_555
C2_0 W2_0 2.149147 1_555
C2_0 W2_4 2.149147 1_555
C2_1 W2_5 2.149147 1_555
C2_1 W2_1 2.149147 1_555
C2_2 W2_6 2.149147 1_555
C2_2 W2_2 2.149147 1_555
C2_3 W2_7 2.149147 1_555
C2_3 W2_3 2.149147 1_555
C2_4 W2_4 2.149147 1_555
C2_4 W2_0 2.149147 1_655
C2_5 W2_5 2.149147 1_555
C2_5 W2_1 2.149147 1_655
C2_6 W2_2 2.149147 1_655
C2_6 W2_6 2.149147 1_555
C2_7 W2_7 2.149147 1_555
C2_7 W2_3 2.149147 1_655
