# generated using pymatgen
data_Li5Mn2CoO8
_symmetry_space_group_name_H-M   'P 1'
_cell_length_a   6.49599559
_cell_length_b   6.49599559
_cell_length_c   9.94351206
_cell_angle_alpha   52.50064727
_cell_angle_beta   52.50064727
_cell_angle_gamma   25.97258974
_symmetry_Int_Tables_number   1
_chemical_formula_structural   Li5Mn2CoO8
_chemical_formula_sum   'Li5 Mn2 Co1 O8'
_cell_volume   143.48588789
_cell_formula_units_Z   1
loop_
 _symmetry_equiv_pos_site_id
 _symmetry_equiv_pos_as_xyz
  1  'x, y, z'
loop_
 _atom_site_type_symbol
 _atom_site_label
 _atom_site_symmetry_multiplicity
 _atom_site_fract_x
 _atom_site_fract_y
 _atom_site_fract_z
 _atom_site_occupancy
  Li  Li0  1  0.12177000  0.12177000  0.62047400  1
  Li  Li1  1  0.37565900  0.37565900  0.86271300  1
  Li  Li2  1  0.62378400  0.62378400  0.13042000  1
  Li  Li3  1  0.87569400  0.87569400  0.39479300  1
  Li  Li4  1  0.49898700  0.49898700  0.49740600  1
  Mn  Mn0  1  0.00291500  0.00291500  0.99899300  1
  Mn  Mn1  1  0.24127700  0.24127700  0.25672200  1
  Co  Co0  1  0.77095500  0.77095500  0.73139400  1
  O  O0  1  0.17686500  0.17686500  0.93329200  1
  O  O1  1  0.43957900  0.43957900  0.16720700  1
  O  O2  1  0.69962600  0.69962600  0.40965600  1
  O  O3  1  0.92889000  0.92889000  0.69522100  1
  O  O4  1  0.07807000  0.07807000  0.30422600  1
  O  O5  1  0.30169500  0.30169500  0.57470200  1
  O  O6  1  0.55104500  0.55104500  0.84134700  1
  O  O7  1  0.81319000  0.81319000  0.08143500  1
loop_
_geom_bond_atom_site_label_1
_geom_bond_atom_site_label_2
_geom_bond_distance
_geom_bond_site_symmetry_2
Li0 O5 2.024892 1_555
Li0 O3 2.060879 1_445
Li0 O2 2.217017 1_545
Li0 O2 2.217017 1_455
Li0 O6 2.301984 1_545
Li0 O6 2.301984 1_455
Li1 O3 1.989092 1_455
Li1 O3 1.989092 1_545
Li1 O6 2.094190 1_555
Li1 O0 2.149270 1_555
Li1 O7 2.310270 1_456
Li1 O7 2.310270 1_546
Li2 O4 2.050117 1_655
Li2 O4 2.050117 1_565
Li2 O1 2.122763 1_555
Li2 O7 2.127796 1_555
Li2 O0 2.186063 1_654
Li2 O0 2.186063 1_564
Li3 O5 2.028507 1_655
Li3 O5 2.028507 1_565
Li3 O4 2.119468 1_665
Li3 O2 2.139754 1_555
Li3 O1 2.370526 1_655
Li3 O1 2.370526 1_565
Li4 O4 2.102424 1_655
Li4 O4 2.102424 1_565
Li4 O5 2.104867 1_555
Li4 O2 2.108062 1_555
Li4 O3 2.146266 1_545
Li4 O3 2.146266 1_455
Mn0 O0 1.865136 1_555
Mn0 O6 1.940621 1_545
Mn0 O6 1.940621 1_455
Mn0 O1 1.973787 1_546
Mn0 O1 1.973787 1_456
Mn0 O7 1.995199 1_446
Mn1 O4 1.809056 1_555
Mn1 O2 1.928628 1_455
Mn1 O2 1.928628 1_545
Mn1 O7 2.003758 1_545
Mn1 O7 2.003758 1_455
Mn1 O1 2.074281 1_555
Co0 O3 1.796790 1_555
Co0 O5 1.988051 1_565
Co0 O5 1.988051 1_655
Co0 O0 2.142954 1_655
Co0 O0 2.142954 1_565
Co0 O6 2.267791 1_555
