# generated using pymatgen
data_MgSn2(PO4)2
_symmetry_space_group_name_H-M   'P 1'
_cell_length_a   5.32150615
_cell_length_b   9.62475686
_cell_length_c   16.34430476
_cell_angle_alpha   87.48228649
_cell_angle_beta   80.64031345
_cell_angle_gamma   74.01468831
_symmetry_Int_Tables_number   1
_chemical_formula_structural   MgSn2(PO4)2
_chemical_formula_sum   'Mg4 Sn8 P8 O32'
_cell_volume   794.04202567
_cell_formula_units_Z   4
loop_
 _symmetry_equiv_pos_site_id
 _symmetry_equiv_pos_as_xyz
  1  'x, y, z'
loop_
 _atom_site_type_symbol
 _atom_site_label
 _atom_site_symmetry_multiplicity
 _atom_site_fract_x
 _atom_site_fract_y
 _atom_site_fract_z
 _atom_site_occupancy
  Mg  Mg0  1  0.37761800  0.85253300  0.84498000  1
  Mg  Mg1  1  0.07711200  0.64650900  0.65457000  1
  Mg  Mg2  1  0.92243200  0.35368000  0.34373000  1
  Mg  Mg3  1  0.62027200  0.14594400  0.15474800  1
  Sn  Sn0  1  0.19622700  0.19727500  0.98753400  1
  Sn  Sn1  1  0.38383000  0.29962200  0.51155300  1
  Sn  Sn2  1  0.80222300  0.79694000  0.01161200  1
  Sn  Sn3  1  0.49796000  0.49568600  0.99925600  1
  Sn  Sn4  1  0.61528100  0.70103300  0.48810500  1
  Sn  Sn5  1  0.65010100  0.75048100  0.25103000  1
  Sn  Sn6  1  0.34833000  0.24942700  0.74972100  1
  Sn  Sn7  1  0.99722700  0.00417400  0.50131800  1
  P  P0  1  0.09051800  0.58718600  0.86174000  1
  P  P1  1  0.69746700  0.43780200  0.62176400  1
  P  P2  1  0.90761100  0.41284600  0.13712400  1
  P  P3  1  0.24162800  0.93751800  0.12172700  1
  P  P4  1  0.45462600  0.08677200  0.36185700  1
  P  P5  1  0.54279300  0.91282200  0.63805100  1
  P  P6  1  0.30440000  0.55956800  0.37771300  1
  P  P7  1  0.75718800  0.06062000  0.87755800  1
  O  O0  1  0.74005100  0.31856600  0.10676600  1
  O  O1  1  0.63128400  0.92910900  0.90036100  1
  O  O2  1  0.83338900  0.81856800  0.60644700  1
  O  O3  1  0.75412200  0.32003400  0.55266800  1
  O  O4  1  0.17911800  0.37696900  0.07338300  1
  O  O5  1  0.60613000  0.38118600  0.70756300  1
  O  O6  1  0.62725000  0.17819600  0.94678900  1
  O  O7  1  0.94336900  0.99036200  0.12183900  1
  O  O8  1  0.24964800  0.67704900  0.44656600  1
  O  O9  1  0.46290200  0.56932700  0.59904700  1
  O  O10  1  0.76301700  0.57386100  0.12619900  1
  O  O11  1  0.55603700  0.12933200  0.27453500  1
  O  O12  1  0.36745500  0.06932800  0.09871000  1
  O  O13  1  0.94357500  0.49049500  0.62094900  1
  O  O14  1  0.25002500  0.68395700  0.89380700  1
  O  O15  1  0.24267000  0.42709100  0.87313800  1
  O  O16  1  0.03649400  0.63091500  0.77430300  1
  O  O17  1  0.36903300  0.82033400  0.05248900  1
  O  O18  1  0.54073400  0.07381700  0.62700800  1
  O  O19  1  0.44534000  0.86789700  0.72521100  1
  O  O20  1  0.05661400  0.50821100  0.37886800  1
  O  O21  1  0.36665700  0.87858900  0.57527000  1
  O  O22  1  0.05517500  0.00890500  0.87794800  1
  O  O23  1  0.30609800  0.88141500  0.20740900  1
  O  O24  1  0.53800600  0.42724400  0.40031700  1
  O  O25  1  0.16484200  0.18288600  0.39229100  1
  O  O26  1  0.96716000  0.36769300  0.22389500  1
  O  O27  1  0.63004100  0.12079100  0.42498500  1
  O  O28  1  0.81662200  0.61993500  0.92395800  1
  O  O29  1  0.69445000  0.11707700  0.79180900  1
  O  O30  1  0.39809600  0.61446000  0.29159600  1
  O  O31  1  0.45250900  0.92653200  0.37386500  1
loop_
_geom_bond_atom_site_label_1
_geom_bond_atom_site_label_2
_geom_bond_distance
_geom_bond_site_symmetry_2
Mg0 O19 1.938599 1_555
Mg0 O22 1.961603 1_565
Mg0 O14 2.011760 1_555
Mg0 O1 2.046639 1_555
Mg1 O16 1.937367 1_555
Mg1 O13 1.961877 1_455
Mg1 O2 2.019305 1_455
Mg1 O9 2.050212 1_555
Mg2 O26 1.937492 1_555
Mg2 O20 1.960918 1_655
Mg2 O25 2.011641 1_655
Mg2 O24 2.045982 1_555
Mg3 O11 1.939188 1_555
Mg3 O7 1.959524 1_545
Mg3 O0 2.021862 1_555
Mg3 O12 2.049201 1_555
O0 P2 1.579177 1_555
O0 Sn3 2.630019 1_554
O0 Sn0 2.855476 1_654
O1 P7 1.591975 1_565
O1 Sn2 2.334399 1_556
O2 P5 1.577923 1_555
O2 Sn7 2.646646 1_565
O2 Sn4 2.830843 1_555
O3 P1 1.569893 1_555
O3 Sn1 2.242458 1_555
O3 Sn7 3.053671 1_555
O4 P2 1.599792 1_455
O4 Sn0 2.247939 1_554
O4 Sn3 2.435129 1_554
O5 P1 1.535166 1_555
O5 Sn6 2.130501 1_555
O6 P7 1.570391 1_555
O6 Sn0 2.240570 1_555
O6 Sn3 3.070305 1_555
O7 P3 1.527208 1_655
O7 Sn2 2.963196 1_555
O8 P6 1.566380 1_555
O8 Sn4 2.234026 1_555
O8 Sn7 3.169442 1_465
O9 P1 1.592982 1_555
O9 Sn4 2.332026 1_555
O10 P2 1.545707 1_555
O10 Sn5 2.599400 1_555
O10 Sn2 2.815561 1_555
O10 Sn3 2.921300 1_554
O11 P4 1.521791 1_555
O12 P3 1.594781 1_545
O12 Sn0 2.317868 1_554
O13 P1 1.527146 1_555
O13 Sn1 2.935338 1_655
O14 P0 1.576616 1_555
O14 Sn3 2.672678 1_555
O14 Sn2 2.798700 1_456
O15 P0 1.549600 1_555
O15 Sn6 2.591078 1_555
O15 Sn3 2.838115 1_555
O15 Sn0 2.870017 1_555
O16 P0 1.521925 1_555
O17 P3 1.566456 1_555
O17 Sn2 2.244438 1_555
O17 Sn3 3.139288 1_554
O18 P5 1.549350 1_545
O18 Sn6 2.569923 1_555
O18 Sn1 2.852029 1_555
O18 Sn7 2.858603 1_555
O19 P5 1.521314 1_555
O20 P6 1.527564 1_555
O20 Sn4 2.945202 1_455
O21 P5 1.597700 1_555
O21 Sn4 2.248565 1_555
O21 Sn7 2.474378 1_465
O22 P7 1.526644 1_455
O22 Sn0 2.920724 1_555
O23 P3 1.535655 1_555
O23 Sn5 2.126624 1_555
O24 P6 1.593714 1_555
O24 Sn1 2.315388 1_555
O25 P4 1.576844 1_555
O25 Sn7 2.643553 1_455
O25 Sn1 2.841201 1_555
O26 P2 1.522100 1_555
O27 P4 1.598265 1_555
O27 Sn1 2.247224 1_555
O27 Sn7 2.469074 1_555
O28 P0 1.597153 1_655
O28 Sn2 2.251115 1_556
O28 Sn3 2.475708 1_555
O29 P7 1.535031 1_555
O29 Sn6 2.128672 1_555
O30 P6 1.536339 1_555
O30 Sn5 2.133880 1_555
O31 P4 1.549033 1_565
O31 Sn5 2.576502 1_555
O31 Sn4 2.842837 1_555
O31 Sn7 2.875018 1_465
