# generated using pymatgen
data_LaMgS3
_symmetry_space_group_name_H-M   'P 1'
_cell_length_a   8.00675320
_cell_length_b   11.55862000
_cell_length_c   7.95803146
_cell_angle_alpha   90.00000000
_cell_angle_beta   129.20672960
_cell_angle_gamma   90.00000000
_symmetry_Int_Tables_number   1
_chemical_formula_structural   LaMgS3
_chemical_formula_sum   'La4 Mg4 S12'
_cell_volume   570.68580067
_cell_formula_units_Z   4
loop_
 _symmetry_equiv_pos_site_id
 _symmetry_equiv_pos_as_xyz
  1  'x, y, z'
loop_
 _atom_site_type_symbol
 _atom_site_label
 _atom_site_symmetry_multiplicity
 _atom_site_fract_x
 _atom_site_fract_y
 _atom_site_fract_z
 _atom_site_occupancy
  La  La0  1  0.05505900  0.00000000  0.26537900  1
  La  La1  1  0.94494100  0.00000000  0.73462100  1
  La  La2  1  0.55505900  0.50000000  0.26537900  1
  La  La3  1  0.44494100  0.50000000  0.73462100  1
  Mg  Mg0  1  0.00000000  0.34050100  0.00000000  1
  Mg  Mg1  1  0.00000000  0.65949900  0.00000000  1
  Mg  Mg2  1  0.50000000  0.84050100  0.00000000  1
  Mg  Mg3  1  0.50000000  0.15949900  0.00000000  1
  S  S0  1  0.22679100  0.15538900  0.13905900  1
  S  S1  1  0.77320900  0.84461100  0.86094100  1
  S  S2  1  0.77320900  0.15538900  0.86094100  1
  S  S3  1  0.22679100  0.84461100  0.13905900  1
  S  S4  1  0.72679100  0.65538900  0.13905900  1
  S  S5  1  0.27320900  0.34461100  0.86094100  1
  S  S6  1  0.27320900  0.65538900  0.86094100  1
  S  S7  1  0.72679100  0.34461100  0.13905900  1
  S  S8  1  0.29331700  0.00000000  0.72308500  1
  S  S9  1  0.70668300  0.00000000  0.27691500  1
  S  S10  1  0.79331700  0.50000000  0.72308500  1
  S  S11  1  0.20668300  0.50000000  0.27691500  1
loop_
_geom_bond_atom_site_label_1
_geom_bond_atom_site_label_2
_geom_bond_distance
_geom_bond_site_symmetry_2
La0 S0 2.806175 1_555
La0 S3 2.806175 1_545
La0 S9 2.848280 1_455
La0 S8 2.849894 1_555
La0 S2 3.081402 1_454
La0 S1 3.081402 1_444
La1 S1 2.806175 1_545
La1 S2 2.806175 1_555
La1 S8 2.848280 1_655
La1 S9 2.849894 1_555
La1 S0 3.081402 1_656
La1 S3 3.081402 1_646
La2 S4 2.806175 1_555
La2 S7 2.806175 1_555
La2 S11 2.848280 1_555
La2 S10 2.849894 1_555
La2 S6 3.081402 1_554
La2 S5 3.081402 1_554
La3 S5 2.806175 1_555
La3 S6 2.806175 1_555
La3 S10 2.848280 1_555
La3 S11 2.849894 1_555
La3 S7 3.081402 1_556
La3 S4 3.081402 1_556
Mg0 S11 2.526503 1_555
Mg0 S10 2.526503 1_454
Mg0 S0 2.561164 1_555
Mg0 S2 2.561164 1_454
Mg0 S7 3.012073 1_455
Mg0 S5 3.012073 1_554
Mg1 S11 2.526503 1_555
Mg1 S10 2.526503 1_454
Mg1 S3 2.561164 1_555
Mg1 S1 2.561164 1_454
Mg1 S6 3.012073 1_554
Mg1 S4 3.012073 1_455
Mg2 S9 2.526503 1_565
Mg2 S8 2.526503 1_564
Mg2 S4 2.561164 1_555
Mg2 S6 2.561164 1_554
Mg2 S1 3.012073 1_554
Mg2 S3 3.012073 1_555
Mg3 S9 2.526503 1_555
Mg3 S8 2.526503 1_554
Mg3 S7 2.561164 1_555
Mg3 S5 2.561164 1_554
Mg3 S2 3.012073 1_554
Mg3 S0 3.012073 1_555
S0 S2 2.815318 1_454
S0 S5 3.295488 1_554
S1 S3 2.815318 1_656
S1 S4 3.295488 1_556
S2 S7 3.295488 1_556
S3 S6 3.295488 1_554
S4 S6 2.815318 1_554
S5 S7 2.815318 1_556
