# generated using pymatgen
data_Na4Li5(WO3)10
_symmetry_space_group_name_H-M   'P 1'
_cell_length_a   8.83023200
_cell_length_b   8.85277744
_cell_length_c   8.86559918
_cell_angle_alpha   113.97920875
_cell_angle_beta   89.71154873
_cell_angle_gamma   101.76133013
_symmetry_Int_Tables_number   1
_chemical_formula_structural   Na4Li5(WO3)10
_chemical_formula_sum   'Na4 Li5 W10 O30'
_cell_volume   617.58384163
_cell_formula_units_Z   1
loop_
 _symmetry_equiv_pos_site_id
 _symmetry_equiv_pos_as_xyz
  1  'x, y, z'
loop_
 _atom_site_type_symbol
 _atom_site_label
 _atom_site_symmetry_multiplicity
 _atom_site_fract_x
 _atom_site_fract_y
 _atom_site_fract_z
 _atom_site_occupancy
  Na  Na0  1  0.10757800  0.49673700  0.19884900  1
  Na  Na1  1  0.20054800  0.00841700  0.40446800  1
  Na  Na2  1  0.30189900  0.49115400  0.59956900  1
  Na  Na3  1  0.40191600  0.00173800  0.80399400  1
  Li  Li0  1  0.52703100  0.60093500  0.04090800  1
  Li  Li1  1  0.50388300  0.98701700  0.22882400  1
  Li  Li2  1  0.77411600  0.50468700  0.34294200  1
  Li  Li3  1  0.84195800  0.94178900  0.55725000  1
  Li  Li4  1  0.90334600  0.50033200  0.89005000  1
  W  W0  1  0.54787100  0.25031800  0.60318500  1
  W  W1  1  0.65323700  0.75027500  0.79896900  1
  W  W2  1  0.14733900  0.24989400  0.80181900  1
  W  W3  1  0.34813900  0.24818600  0.19936100  1
  W  W4  1  0.45000200  0.75095000  0.40142200  1
  W  W5  1  0.94896300  0.25454500  0.40430100  1
  W  W6  1  0.04994100  0.75197000  0.60082000  1
  W  W7  1  0.24717900  0.74725400  0.99310100  1
  W  W8  1  0.75061300  0.24455300  0.99817800  1
  W  W9  1  0.84739700  0.75250600  0.19572400  1
  O  O0  1  0.64589800  0.23458100  0.78531400  1
  O  O1  1  0.74383600  0.73503700  0.99259800  1
  O  O2  1  0.24186500  0.23609800  0.98864200  1
  O  O3  1  0.45273300  0.26281100  0.41079100  1
  O  O4  1  0.54009000  0.76743000  0.60361300  1
  O  O5  1  0.05937600  0.24401800  0.59864000  1
  O  O6  1  0.16812300  0.76998400  0.80659600  1
  O  O7  1  0.35783800  0.73895500  0.18636200  1
  O  O8  1  0.85100900  0.28390100  0.21674000  1
  O  O9  1  0.92718800  0.72418500  0.39462000  1
  O  O10  1  0.51672200  0.00653000  0.46531800  1
  O  O11  1  0.57463400  0.49170500  0.71355800  1
  O  O12  1  0.05289000  0.98959400  0.69178600  1
  O  O13  1  0.29678400  0.99764300  0.13467400  1
  O  O14  1  0.37920800  0.49996000  0.30083600  1
  O  O15  1  0.90324100  0.99271600  0.30932500  1
  O  O16  1  0.02496300  0.50916300  0.50758200  1
  O  O17  1  0.23976000  0.49834900  0.87476200  1
  O  O18  1  0.72370400  0.00812600  0.89549300  1
  O  O19  1  0.77045600  0.49325900  0.09265700  1
  O  O20  1  0.75863400  0.26959300  0.50988500  1
  O  O21  1  0.83139800  0.72078300  0.68234400  1
  O  O22  1  0.34730900  0.20604700  0.68098700  1
  O  O23  1  0.53743900  0.22880600  0.09407400  1
  O  O24  1  0.64387900  0.73823800  0.29009300  1
  O  O25  1  0.14623500  0.24866600  0.30240900  1
  O  O26  1  0.24828500  0.78277900  0.49906900  1
  O  O27  1  0.46569900  0.78161100  0.91253300  1
  O  O28  1  0.95742500  0.30235300  0.91524200  1
  O  O29  1  0.04042600  0.70382000  0.07972600  1
loop_
_geom_bond_atom_site_label_1
_geom_bond_atom_site_label_2
_geom_bond_distance
_geom_bond_site_symmetry_2
Na0 O14 2.558200 1_555
Na0 O28 2.574442 1_454
Na0 O29 2.617431 1_555
Na0 O8 2.684616 1_455
Na0 O25 2.780294 1_555
Na0 O7 2.784320 1_555
Na0 O2 2.793056 1_554
Na0 O16 2.793546 1_555
Na0 O9 2.836050 1_455
Na0 O26 2.883182 1_555
Na0 O17 3.100121 1_554
Na1 O13 2.505892 1_545
Na1 O22 2.524239 1_555
Na1 O26 2.565098 1_545
Na1 O5 2.643402 1_555
Na1 O15 2.720514 1_445
Na1 O25 2.748942 1_555
Na1 O3 2.808573 1_555
Na1 O10 2.850870 1_555
Na1 O12 2.905040 1_545
Na1 O7 2.988814 1_545
Na1 O9 3.084337 1_445
Na1 O29 3.120218 1_545
Na2 O17 2.476282 1_555
Na2 O11 2.614762 1_555
Na2 O16 2.637274 1_555
Na2 O3 2.643219 1_555
Na2 O5 2.729164 1_555
Na2 O14 2.759400 1_555
Na2 O25 2.770377 1_555
Na2 O4 2.870436 1_555
Na2 O6 2.888191 1_555
Na2 O22 2.991432 1_555
Na2 O27 3.021189 1_555
Na2 O26 3.171013 1_555
Na3 O22 2.580162 1_555
Na3 O6 2.604436 1_545
Na3 O23 2.633456 1_556
Na3 O4 2.638559 1_545
Na3 O27 2.649116 1_545
Na3 O0 2.716869 1_555
Na3 O2 2.719044 1_555
Na3 O26 2.758887 1_545
Na3 O18 2.942033 1_555
Na3 O13 3.082713 1_546
Na3 O10 3.178092 1_555
Na3 O12 3.210707 1_545
Li0 O1 2.176323 1_554
Li0 O24 2.179809 1_555
Li0 O7 2.198187 1_555
Li0 O27 2.446624 1_554
Li0 O19 2.634423 1_555
Li0 O11 2.721516 1_554
Li0 O17 2.727690 1_554
Li0 O14 2.996936 1_555
Li1 O10 2.034380 1_565
Li1 O13 2.049183 1_555
Li1 O7 2.192212 1_555
Li1 O3 2.451208 1_565
Li1 O27 2.626474 1_554
Li1 O23 2.813015 1_565
Li2 O9 2.006155 1_555
Li2 O8 2.071004 1_555
Li2 O19 2.179871 1_555
Li2 O16 2.643529 1_655
Li2 O24 2.753019 1_555
Li2 O21 2.812776 1_555
Li3 O12 2.088461 1_655
Li3 O9 2.163049 1_555
Li3 O15 2.453843 1_555
Li3 O21 2.599012 1_555
Li3 O24 2.684026 1_555
Li3 O5 2.845020 1_665
Li3 O4 2.912745 1_555
Li4 O28 2.002546 1_555
Li4 O29 2.051201 1_656
Li4 O19 2.155829 1_556
Li4 O1 2.602392 1_555
Li4 O0 2.762317 1_555
O0 W0 1.903143 1_555
O0 W8 2.067139 1_555
O1 W9 1.958502 1_556
O1 W1 1.962423 1_555
O2 W2 1.916988 1_555
O2 W3 2.048486 1_556
O3 W0 1.957803 1_555
O3 W3 2.038328 1_555
O4 W4 1.903101 1_555
O4 W1 2.077020 1_555
O5 W2 1.942207 1_555
O5 W5 2.027859 1_455
O6 W7 1.897664 1_555
O6 W6 2.038995 1_555
O7 W7 2.011045 1_554
O7 W4 2.030931 1_555
O8 W8 2.001163 1_554
O8 W5 2.009502 1_555
O9 W9 2.027928 1_555
O9 W6 2.030540 1_655
O10 W0 1.960791 1_555
O10 W4 2.050724 1_545
O10 O22 2.704972 1_555
O10 O20 2.715738 1_555
O10 O24 2.717695 1_545
O11 W0 1.917476 1_555
O11 W1 2.060015 1_555
O11 O3 2.681163 1_555
O12 W6 1.917101 1_555
O12 W2 2.086839 1_565
O12 O5 2.686464 1_565
O13 W3 2.003184 1_565
O13 W7 2.007246 1_554
O13 O25 2.723129 1_565
O14 W4 1.987946 1_555
O14 W3 1.993980 1_555
O14 O25 2.709346 1_555
O14 O7 2.729848 1_555
O15 W9 1.901660 1_555
O15 W5 2.068877 1_565
O16 W6 1.927874 1_555
O16 W5 2.020286 1_455
O16 O25 2.711311 1_555
O17 W7 2.005793 1_555
O17 W2 2.009849 1_555
O17 O7 2.756177 1_556
O17 O22 2.814497 1_555
O18 W8 1.875287 1_555
O18 W1 2.041752 1_545
O19 W8 1.981203 1_554
O19 W9 2.056658 1_555
O19 O24 2.626696 1_555
O19 O23 2.788306 1_555
O20 W5 1.921620 1_555
O20 W0 2.036348 1_555
O20 O8 2.764022 1_555
O21 W1 1.882508 1_555
O21 W6 2.062432 1_655
O22 W0 1.921019 1_555
O22 W2 2.082936 1_555
O23 W3 1.914651 1_555
O23 W8 2.063689 1_554
O24 W4 1.972042 1_555
O24 W9 1.980844 1_555
O25 W5 1.958581 1_455
O25 W3 1.999192 1_555
O26 W6 1.986193 1_555
O26 W4 1.998086 1_555
O26 O7 2.832657 1_555
O27 W1 1.943310 1_555
O27 W7 2.061419 1_555
O28 W2 1.989988 1_655
O28 W8 2.012163 1_555
O29 W7 2.002614 1_554
O29 W9 2.017478 1_455
