# generated using pymatgen
data_NbCr3(AgS4)2
_symmetry_space_group_name_H-M   'P 1'
_cell_length_a   7.20471155
_cell_length_b   7.20471155
_cell_length_c   7.20471153
_cell_angle_alpha   61.50065656
_cell_angle_beta   61.50065656
_cell_angle_gamma   61.50066252
_symmetry_Int_Tables_number   1
_chemical_formula_structural   NbCr3(AgS4)2
_chemical_formula_sum   'Nb1 Cr3 Ag2 S8'
_cell_volume   273.35268040
_cell_formula_units_Z   1
loop_
 _symmetry_equiv_pos_site_id
 _symmetry_equiv_pos_as_xyz
  1  'x, y, z'
loop_
 _atom_site_type_symbol
 _atom_site_label
 _atom_site_symmetry_multiplicity
 _atom_site_fract_x
 _atom_site_fract_y
 _atom_site_fract_z
 _atom_site_occupancy
  Nb  Nb0  1  0.50000000  0.50000000  0.50000000  1
  Cr  Cr0  1  0.50000000  0.00000000  0.50000000  1
  Cr  Cr1  1  0.50000000  0.50000000  0.00000000  1
  Cr  Cr2  1  0.00000000  0.50000000  0.50000000  1
  Ag  Ag0  1  0.12560300  0.12560300  0.12560300  1
  Ag  Ag1  1  0.87439700  0.87439700  0.87439700  1
  S  S0  1  0.25901000  0.71191400  0.25901000  1
  S  S1  1  0.74099000  0.74099000  0.28808600  1
  S  S2  1  0.28808600  0.74099000  0.74099000  1
  S  S3  1  0.73320600  0.73320600  0.73320600  1
  S  S4  1  0.71191400  0.25901000  0.25901000  1
  S  S5  1  0.26679400  0.26679400  0.26679400  1
  S  S6  1  0.74099000  0.28808600  0.74099000  1
  S  S7  1  0.25901000  0.25901000  0.71191400  1
loop_
_geom_bond_atom_site_label_1
_geom_bond_atom_site_label_2
_geom_bond_distance
_geom_bond_site_symmetry_2
Nb0 S7 2.485485 1_555
Nb0 S1 2.485485 1_555
Nb0 S6 2.485485 1_555
Nb0 S0 2.485485 1_555
Nb0 S4 2.485485 1_555
Nb0 S2 2.485485 1_555
Cr0 S3 2.422967 1_545
Cr0 S5 2.422967 1_555
Cr0 S4 2.434169 1_555
Cr0 S2 2.434169 1_545
Cr0 S7 2.434169 1_555
Cr0 S1 2.434169 1_545
Cr1 S3 2.422966 1_554
Cr1 S5 2.422966 1_555
Cr1 S4 2.434169 1_555
Cr1 S0 2.434169 1_555
Cr1 S6 2.434169 1_554
Cr1 S2 2.434169 1_554
Cr2 S3 2.422967 1_455
Cr2 S5 2.422967 1_555
Cr2 S0 2.434169 1_555
Cr2 S6 2.434169 1_455
Cr2 S7 2.434169 1_555
Cr2 S1 2.434169 1_455
Ag0 S5 2.463086 1_555
Ag0 S7 2.478924 1_554
Ag0 S4 2.478924 1_455
Ag0 S0 2.478924 1_545
Ag1 S3 2.463086 1_555
Ag1 S1 2.478924 1_556
Ag1 S2 2.478924 1_655
Ag1 S6 2.478924 1_565
