# generated using pymatgen
data_CaV4(AgO6)2
_symmetry_space_group_name_H-M   'P 1'
_cell_length_a   10.52054200
_cell_length_b   10.52054200
_cell_length_c   5.08292200
_cell_angle_alpha   90.00000000
_cell_angle_beta   90.00000000
_cell_angle_gamma   90.00000000
_symmetry_Int_Tables_number   1
_chemical_formula_structural   CaV4(AgO6)2
_chemical_formula_sum   'Ca2 V8 Ag4 O24'
_cell_volume   562.58697642
_cell_formula_units_Z   2
loop_
 _symmetry_equiv_pos_site_id
 _symmetry_equiv_pos_as_xyz
  1  'x, y, z'
loop_
 _atom_site_type_symbol
 _atom_site_label
 _atom_site_symmetry_multiplicity
 _atom_site_fract_x
 _atom_site_fract_y
 _atom_site_fract_z
 _atom_site_occupancy
  Ca  Ca0  1  0.50000000  0.50000000  0.50000000  1
  Ca  Ca1  1  0.00000000  0.00000000  0.50000000  1
  V  V0  1  0.22369500  0.50000000  0.00000000  1
  V  V1  1  0.50000000  0.22369500  0.00000000  1
  V  V2  1  0.00000000  0.72369500  0.00000000  1
  V  V3  1  0.72369500  0.00000000  0.00000000  1
  V  V4  1  0.27630500  0.00000000  0.00000000  1
  V  V5  1  0.00000000  0.27630500  0.00000000  1
  V  V6  1  0.50000000  0.77630500  0.00000000  1
  V  V7  1  0.77630500  0.50000000  0.00000000  1
  Ag  Ag0  1  0.25000000  0.25000000  0.50000000  1
  Ag  Ag1  1  0.25000000  0.75000000  0.50000000  1
  Ag  Ag2  1  0.75000000  0.25000000  0.50000000  1
  Ag  Ag3  1  0.75000000  0.75000000  0.50000000  1
  O  O0  1  0.43165400  0.31091800  0.24158900  1
  O  O1  1  0.56834600  0.68908200  0.24158900  1
  O  O2  1  0.68908200  0.43165400  0.24158900  1
  O  O3  1  0.31091800  0.56834600  0.24158900  1
  O  O4  1  0.31091800  0.43165400  0.75841100  1
  O  O5  1  0.43165400  0.68908200  0.75841100  1
  O  O6  1  0.56834600  0.31091800  0.75841100  1
  O  O7  1  0.68908200  0.56834600  0.75841100  1
  O  O8  1  0.06834600  0.18908200  0.75841100  1
  O  O9  1  0.93165400  0.81091800  0.75841100  1
  O  O10  1  0.81091800  0.06834600  0.75841100  1
  O  O11  1  0.18908200  0.93165400  0.75841100  1
  O  O12  1  0.18908200  0.06834600  0.24158900  1
  O  O13  1  0.06834600  0.81091800  0.24158900  1
  O  O14  1  0.12055600  0.37944400  0.14471400  1
  O  O15  1  0.37944400  0.87944400  0.14471400  1
  O  O16  1  0.62055600  0.12055600  0.14471400  1
  O  O17  1  0.87944400  0.62055600  0.14471400  1
  O  O18  1  0.87944400  0.37944400  0.85528600  1
  O  O19  1  0.12055600  0.62055600  0.85528600  1
  O  O20  1  0.37944400  0.12055600  0.85528600  1
  O  O21  1  0.62055600  0.87944400  0.85528600  1
  O  O22  1  0.81091800  0.93165400  0.24158900  1
  O  O23  1  0.93165400  0.18908200  0.24158900  1
loop_
_geom_bond_atom_site_label_1
_geom_bond_atom_site_label_2
_geom_bond_distance
_geom_bond_site_symmetry_2
Ca0 O2 2.489849 1_555
Ca0 O5 2.489849 1_555
Ca0 O7 2.489849 1_555
Ca0 O1 2.489849 1_555
Ca0 O4 2.489849 1_555
Ca0 O3 2.489849 1_555
Ca0 O0 2.489849 1_555
Ca0 O6 2.489849 1_555
Ca1 O8 2.489849 1_555
Ca1 O12 2.489849 1_555
Ca1 O23 2.489849 1_455
Ca1 O11 2.489849 1_545
Ca1 O10 2.489849 1_455
Ca1 O13 2.489849 1_545
Ca1 O22 2.489849 1_445
Ca1 O9 2.489849 1_445
Ag0 O4 2.405884 1_555
Ag0 O0 2.405884 1_555
Ag0 O8 2.405884 1_555
Ag0 O12 2.405884 1_555
Ag0 O20 2.640143 1_555
Ag0 O14 2.640143 1_555
Ag1 O3 2.405884 1_555
Ag1 O5 2.405884 1_555
Ag1 O11 2.405884 1_555
Ag1 O13 2.405884 1_555
Ag1 O19 2.640143 1_555
Ag1 O15 2.640143 1_555
Ag2 O6 2.405884 1_555
Ag2 O23 2.405884 1_555
Ag2 O2 2.405884 1_555
Ag2 O10 2.405884 1_555
Ag2 O18 2.640143 1_555
Ag2 O16 2.640143 1_555
Ag3 O9 2.405884 1_555
Ag3 O22 2.405884 1_555
Ag3 O7 2.405884 1_555
Ag3 O1 2.405884 1_555
Ag3 O21 2.640143 1_555
Ag3 O17 2.640143 1_555
O0 V1 1.693220 1_555
O1 V6 1.693220 1_555
O2 V7 1.693220 1_555
O3 V0 1.693220 1_555
O4 V0 1.693220 1_556
O5 V6 1.693220 1_556
O6 V1 1.693220 1_556
O7 V7 1.693220 1_556
O8 V5 1.693220 1_556
O9 V2 1.693220 1_656
O10 V3 1.693220 1_556
O11 V4 1.693220 1_566
O12 V4 1.693220 1_555
O13 V2 1.693220 1_555
O14 V0 1.824028 1_555
O14 V5 1.824028 1_555
O15 V4 1.824028 1_565
O15 V6 1.824028 1_555
O16 V1 1.824028 1_555
O16 V3 1.824028 1_555
O17 V2 1.824028 1_655
O17 V7 1.824028 1_555
O18 V5 1.824028 1_656
O18 V7 1.824028 1_556
O19 V0 1.824028 1_556
O19 V2 1.824028 1_556
O20 V1 1.824028 1_556
O20 V4 1.824028 1_556
O21 V3 1.824028 1_566
O21 V6 1.824028 1_556
O22 V3 1.693220 1_565
O23 V5 1.693220 1_655
