# generated using pymatgen
data_Ca5As3O14
_symmetry_space_group_name_H-M   'P 1'
_cell_length_a   9.93668779
_cell_length_b   9.93668779
_cell_length_c   7.01430500
_cell_angle_alpha   90.00000000
_cell_angle_beta   90.00000000
_cell_angle_gamma   119.99999863
_symmetry_Int_Tables_number   1
_chemical_formula_structural   Ca5As3O14
_chemical_formula_sum   'Ca10 As6 O28'
_cell_volume   599.78910593
_cell_formula_units_Z   2
loop_
 _symmetry_equiv_pos_site_id
 _symmetry_equiv_pos_as_xyz
  1  'x, y, z'
loop_
 _atom_site_type_symbol
 _atom_site_label
 _atom_site_symmetry_multiplicity
 _atom_site_fract_x
 _atom_site_fract_y
 _atom_site_fract_z
 _atom_site_occupancy
  Ca  Ca0  1  0.66666700  0.33333300  0.99838500  1
  Ca  Ca1  1  0.33333300  0.66666700  0.00161500  1
  Ca  Ca2  1  0.33333300  0.66666700  0.49838500  1
  Ca  Ca3  1  0.66666700  0.33333300  0.50161500  1
  Ca  Ca4  1  0.75082300  0.99299200  0.75000000  1
  Ca  Ca5  1  0.24917700  0.00700800  0.25000000  1
  Ca  Ca6  1  0.24216800  0.24917700  0.75000000  1
  Ca  Ca7  1  0.75783200  0.75082300  0.25000000  1
  Ca  Ca8  1  0.00700800  0.75783200  0.75000000  1
  Ca  Ca9  1  0.99299200  0.24216800  0.25000000  1
  As  As0  1  0.60073800  0.62779200  0.75000000  1
  As  As1  1  0.39926200  0.37220800  0.25000000  1
  As  As2  1  0.02705400  0.39926200  0.75000000  1
  As  As3  1  0.97294600  0.60073800  0.25000000  1
  As  As4  1  0.37220800  0.97294600  0.75000000  1
  As  As5  1  0.62779200  0.02705400  0.25000000  1
  O  O0  1  0.65813600  0.75013900  0.94393100  1
  O  O1  1  0.34186400  0.24986100  0.05606900  1
  O  O2  1  0.09200300  0.34186400  0.94393100  1
  O  O3  1  0.34186400  0.24986100  0.44393100  1
  O  O4  1  0.90799700  0.65813600  0.05606900  1
  O  O5  1  0.65813600  0.75013900  0.55606900  1
  O  O6  1  0.24986100  0.90799700  0.94393100  1
  O  O7  1  0.90799700  0.65813600  0.44393100  1
  O  O8  1  0.75013900  0.09200300  0.05606900  1
  O  O9  1  0.09200300  0.34186400  0.55606900  1
  O  O10  1  0.75013900  0.09200300  0.44393100  1
  O  O11  1  0.24986100  0.90799700  0.55606900  1
  O  O12  1  0.39949900  0.52883700  0.75000000  1
  O  O13  1  0.60050100  0.47116300  0.25000000  1
  O  O14  1  0.12933800  0.60050100  0.75000000  1
  O  O15  1  0.87066200  0.39949900  0.25000000  1
  O  O16  1  0.47116300  0.87066200  0.75000000  1
  O  O17  1  0.52883700  0.12933800  0.25000000  1
  O  O18  1  0.00000000  0.00000000  0.90485800  1
  O  O19  1  0.00000000  0.00000000  0.09514200  1
  O  O20  1  0.00000000  0.00000000  0.40485800  1
  O  O21  1  0.00000000  0.00000000  0.59514200  1
  O  O22  1  0.82939500  0.32313300  0.75000000  1
  O  O23  1  0.17060500  0.67686700  0.25000000  1
  O  O24  1  0.49373800  0.17060500  0.75000000  1
  O  O25  1  0.50626200  0.82939500  0.25000000  1
  O  O26  1  0.67686700  0.50626200  0.75000000  1
  O  O27  1  0.32313300  0.49373800  0.25000000  1
loop_
_geom_bond_atom_site_label_1
_geom_bond_atom_site_label_2
_geom_bond_distance
_geom_bond_site_symmetry_2
Ca0 O22 2.413339 1_555
Ca0 O24 2.413343 1_555
Ca0 O26 2.413346 1_555
Ca0 O15 2.514619 1_556
Ca0 O17 2.514620 1_556
Ca0 O13 2.514626 1_556
Ca0 O8 2.931072 1_556
Ca0 O4 2.931079 1_556
Ca0 O1 2.931081 1_556
Ca1 O23 2.413339 1_555
Ca1 O25 2.413343 1_555
Ca1 O27 2.413346 1_555
Ca1 O14 2.514619 1_554
Ca1 O16 2.514620 1_554
Ca1 O12 2.514626 1_554
Ca1 O6 2.931072 1_554
Ca1 O2 2.931079 1_554
Ca1 O0 2.931081 1_554
Ca2 O23 2.413339 1_555
Ca2 O25 2.413343 1_555
Ca2 O27 2.413346 1_555
Ca2 O14 2.514619 1_555
Ca2 O16 2.514620 1_555
Ca2 O12 2.514626 1_555
Ca2 O11 2.931072 1_555
Ca2 O9 2.931079 1_555
Ca2 O5 2.931081 1_555
Ca3 O22 2.413339 1_555
Ca3 O24 2.413343 1_555
Ca3 O26 2.413346 1_555
Ca3 O15 2.514619 1_555
Ca3 O17 2.514620 1_555
Ca3 O13 2.514626 1_555
Ca3 O10 2.931072 1_555
Ca3 O7 2.931079 1_555
Ca3 O3 2.931081 1_555
Ca4 O8 2.362983 1_566
Ca4 O10 2.362983 1_565
Ca4 O16 2.412867 1_555
Ca4 O0 2.509867 1_555
Ca4 O5 2.509867 1_555
Ca4 O18 2.672612 1_665
Ca4 O21 2.672612 1_665
Ca4 O22 2.968174 1_565
Ca5 O11 2.362983 1_545
Ca5 O6 2.362983 1_544
Ca5 O17 2.412867 1_555
Ca5 O3 2.509867 1_555
Ca5 O1 2.509867 1_555
Ca5 O20 2.672612 1_555
Ca5 O19 2.672612 1_555
Ca5 O23 2.968174 1_545
Ca6 O1 2.362988 1_556
Ca6 O3 2.362988 1_555
Ca6 O12 2.412868 1_555
Ca6 O2 2.509859 1_555
Ca6 O9 2.509859 1_555
Ca6 O18 2.672607 1_555
Ca6 O21 2.672607 1_555
Ca6 O24 2.968183 1_555
Ca7 O5 2.362988 1_555
Ca7 O0 2.362988 1_554
Ca7 O13 2.412868 1_555
Ca7 O7 2.509859 1_555
Ca7 O4 2.509859 1_555
Ca7 O20 2.672607 1_665
Ca7 O19 2.672607 1_665
Ca7 O25 2.968183 1_555
Ca8 O4 2.362985 1_456
Ca8 O7 2.362985 1_455
Ca8 O14 2.412876 1_555
Ca8 O6 2.509866 1_555
Ca8 O11 2.509866 1_555
Ca8 O18 2.672603 1_565
Ca8 O21 2.672603 1_565
Ca8 O26 2.968177 1_455
Ca9 O9 2.362985 1_655
Ca9 O2 2.362985 1_654
Ca9 O15 2.412876 1_555
Ca9 O10 2.509866 1_555
Ca9 O8 2.509866 1_555
Ca9 O20 2.672603 1_655
Ca9 O19 2.672603 1_655
Ca9 O27 2.968177 1_655
As0 O26 1.715831 1_555
As0 O0 1.720549 1_555
As0 O5 1.720549 1_555
As0 O12 1.731826 1_555
As1 O27 1.715831 1_555
As1 O3 1.720549 1_555
As1 O1 1.720549 1_555
As1 O13 1.731826 1_555
As2 O22 1.715831 1_455
As2 O2 1.720549 1_555
As2 O9 1.720549 1_555
As2 O14 1.731826 1_555
As3 O23 1.715831 1_655
As3 O7 1.720549 1_555
As3 O4 1.720549 1_555
As3 O15 1.731826 1_555
As4 O24 1.715831 1_565
As4 O6 1.720549 1_555
As4 O11 1.720549 1_555
As4 O16 1.731826 1_555
As5 O25 1.715831 1_545
As5 O10 1.720549 1_555
As5 O8 1.720549 1_555
As5 O17 1.731826 1_555
O18 O19 1.334710 1_556
O20 O21 1.334710 1_555
