# generated using pymatgen
data_La2Al(Ni3H4)3
_symmetry_space_group_name_H-M   'P 1'
_cell_length_a   5.58041671
_cell_length_b   5.58041671
_cell_length_c   7.81067700
_cell_angle_alpha   90.00000000
_cell_angle_beta   90.00000000
_cell_angle_gamma   115.68546481
_symmetry_Int_Tables_number   1
_chemical_formula_structural   La2Al(Ni3H4)3
_chemical_formula_sum   'La2 Al1 Ni9 H12'
_cell_volume   219.19813816
_cell_formula_units_Z   1
loop_
 _symmetry_equiv_pos_site_id
 _symmetry_equiv_pos_as_xyz
  1  'x, y, z'
loop_
 _atom_site_type_symbol
 _atom_site_label
 _atom_site_symmetry_multiplicity
 _atom_site_fract_x
 _atom_site_fract_y
 _atom_site_fract_z
 _atom_site_occupancy
  La  La0  1  0.00000000  0.00000000  0.24869300  1
  La  La1  1  0.00000000  0.00000000  0.75130700  1
  Al  Al0  1  0.50000000  0.50000000  0.00000000  1
  Ni  Ni0  1  0.65448600  0.34551400  0.24722200  1
  Ni  Ni1  1  0.34551400  0.65448600  0.24722200  1
  Ni  Ni2  1  0.65448600  0.34551400  0.75277800  1
  Ni  Ni3  1  0.34551400  0.65448600  0.75277800  1
  Ni  Ni4  1  0.50000000  0.00000000  0.50000000  1
  Ni  Ni5  1  0.00000000  0.50000000  0.50000000  1
  Ni  Ni6  1  0.50000000  0.50000000  0.50000000  1
  Ni  Ni7  1  0.50000000  0.00000000  0.00000000  1
  Ni  Ni8  1  0.00000000  0.50000000  0.00000000  1
  H  H0  1  0.18424900  0.35463300  0.50000000  1
  H  H1  1  0.64536700  0.81575100  0.50000000  1
  H  H2  1  0.18485400  0.81514600  0.50000000  1
  H  H3  1  0.81575100  0.64536700  0.50000000  1
  H  H4  1  0.35463300  0.18424900  0.50000000  1
  H  H5  1  0.81514600  0.18485400  0.50000000  1
  H  H6  1  0.12459300  0.29894900  0.00000000  1
  H  H7  1  0.70105100  0.87540700  0.00000000  1
  H  H8  1  0.19932000  0.80068000  0.00000000  1
  H  H9  1  0.87540700  0.70105100  0.00000000  1
  H  H10  1  0.29894900  0.12459300  0.00000000  1
  H  H11  1  0.80068000  0.19932000  0.00000000  1
loop_
_geom_bond_atom_site_label_1
_geom_bond_atom_site_label_2
_geom_bond_distance
_geom_bond_site_symmetry_2
La0 Ni1 3.264662 1_545
La0 Ni0 3.264662 1_455
La0 Ni1 3.309471 1_555
La0 Ni1 3.309471 1_445
La0 Ni0 3.309471 1_555
La0 Ni0 3.309471 1_445
La1 Ni2 3.264662 1_455
La1 Ni3 3.264662 1_545
La1 Ni2 3.309471 1_445
La1 Ni2 3.309471 1_555
La1 Ni3 3.309471 1_445
La1 Ni3 3.309471 1_555
Al0 H9 1.900005 1_555
Al0 H7 1.900005 1_555
Al0 H10 1.900005 1_555
Al0 H6 1.900005 1_555
Al0 Ni0 2.420605 1_555
Al0 Ni1 2.420605 1_555
Al0 Ni2 2.420605 1_554
Al0 Ni3 2.420605 1_554
Ni0 Ni6 2.455363 1_555
Ni0 Ni7 2.597800 1_555
Ni0 Ni8 2.597800 1_655
Ni0 Ni5 2.630217 1_655
Ni0 Ni4 2.630217 1_555
Ni0 Ni1 2.919370 1_555
Ni1 Ni6 2.455363 1_555
Ni1 Ni7 2.597800 1_565
Ni1 Ni8 2.597800 1_555
Ni1 Ni5 2.630217 1_555
Ni1 Ni4 2.630217 1_565
Ni2 Ni6 2.455363 1_555
Ni2 Ni7 2.597800 1_556
Ni2 Ni8 2.597800 1_656
Ni2 Ni5 2.630217 1_655
Ni2 Ni4 2.630217 1_555
Ni2 Ni3 2.919370 1_555
Ni3 Ni6 2.455363 1_555
Ni3 Ni7 2.597800 1_566
Ni3 Ni8 2.597800 1_556
Ni3 Ni5 2.630217 1_555
Ni3 Ni4 2.630217 1_565
H0 Ni5 1.561490 1_555
H0 Ni6 1.588622 1_555
H0 H4 1.609899 1_555
H0 H5 1.857024 1_455
H0 Ni3 2.490498 1_555
H0 Ni1 2.490498 1_555
H0 La1 2.657560 1_555
H0 La0 2.657560 1_555
H1 Ni4 1.561490 1_565
H1 Ni6 1.588622 1_555
H1 H3 1.609899 1_555
H1 H5 1.857024 1_565
H1 Ni3 2.490498 1_555
H1 Ni1 2.490498 1_555
H1 La1 2.657560 1_665
H1 La0 2.657560 1_665
H2 Ni5 1.607588 1_555
H2 Ni4 1.607588 1_565
H2 H3 1.857024 1_455
H2 H4 1.857024 1_565
H2 Ni3 2.490485 1_555
H2 Ni1 2.490485 1_555
H2 La1 2.627466 1_565
H2 La0 2.627466 1_565
H3 Ni5 1.561490 1_655
H3 Ni6 1.588622 1_555
H3 Ni2 2.490498 1_555
H3 Ni0 2.490498 1_555
H3 La1 2.657560 1_665
H3 La0 2.657560 1_665
H4 Ni4 1.561490 1_555
H4 Ni6 1.588622 1_555
H4 Ni2 2.490498 1_555
H4 Ni0 2.490498 1_555
H4 La1 2.657560 1_555
H4 La0 2.657560 1_555
H5 Ni4 1.607588 1_555
H5 Ni5 1.607588 1_655
H5 Ni2 2.490485 1_555
H5 Ni0 2.490485 1_555
H5 La1 2.627466 1_655
H5 La0 2.627466 1_655
H6 Ni8 1.555119 1_555
H6 La0 2.456457 1_555
H6 La1 2.456457 1_554
H6 Ni1 2.657935 1_555
H6 Ni3 2.657935 1_554
H7 Ni7 1.555119 1_565
H7 H9 1.647430 1_555
H7 La0 2.456457 1_665
H7 La1 2.456457 1_664
H7 Ni1 2.657935 1_555
H7 Ni3 2.657935 1_554
H8 Ni7 1.560369 1_565
H8 Ni8 1.560369 1_555
H8 H9 1.644766 1_455
H8 Ni1 2.374182 1_555
H8 Ni3 2.374182 1_554
H8 La0 2.705549 1_565
H8 La1 2.705549 1_564
H9 Ni8 1.555119 1_655
H9 La0 2.456457 1_665
H9 La1 2.456457 1_664
H9 Ni0 2.657935 1_555
H9 Ni2 2.657935 1_554
H10 Ni7 1.555119 1_555
H10 H8 1.644766 1_545
H10 H6 1.647430 1_555
H10 La0 2.456457 1_555
H10 La1 2.456457 1_554
H10 Ni0 2.657935 1_555
H10 Ni2 2.657935 1_554
H11 Ni8 1.560369 1_655
H11 Ni7 1.560369 1_555
H11 H6 1.644766 1_655
H11 H7 1.644766 1_545
H11 Ni0 2.374182 1_555
H11 Ni2 2.374182 1_554
H11 La0 2.705549 1_655
H11 La1 2.705549 1_654
