# generated using pymatgen
data_Mg14MnBi
_symmetry_space_group_name_H-M   'P 1'
_cell_length_a   6.32829120
_cell_length_b   6.32829070
_cell_length_c   10.43107725
_cell_angle_alpha   90.00000000
_cell_angle_beta   90.00000000
_cell_angle_gamma   120.00000263
_symmetry_Int_Tables_number   1
_chemical_formula_structural   Mg14MnBi
_chemical_formula_sum   'Mg14 Mn1 Bi1'
_cell_volume   361.77008991
_cell_formula_units_Z   1
loop_
 _symmetry_equiv_pos_site_id
 _symmetry_equiv_pos_as_xyz
  1  'x, y, z'
loop_
 _atom_site_type_symbol
 _atom_site_label
 _atom_site_symmetry_multiplicity
 _atom_site_fract_x
 _atom_site_fract_y
 _atom_site_fract_z
 _atom_site_occupancy
  Mg  Mg0  1  0.16418959  0.83209429  0.12500000  1
  Mg  Mg1  1  0.16671532  0.83335716  0.62500000  1
  Mg  Mg2  1  0.66790571  0.33581041  0.12500000  1
  Mg  Mg3  1  0.66664284  0.33328468  0.62500000  1
  Mg  Mg4  1  0.66790571  0.83209429  0.12500000  1
  Mg  Mg5  1  0.66664284  0.83335716  0.62500000  1
  Mg  Mg6  1  0.33185946  0.16814054  0.36241378  1
  Mg  Mg7  1  0.33185946  0.16814054  0.88758622  1
  Mg  Mg8  1  0.33185946  0.66371991  0.36241378  1
  Mg  Mg9  1  0.33185946  0.66371991  0.88758622  1
  Mg  Mg10  1  0.83628009  0.16814054  0.36241378  1
  Mg  Mg11  1  0.83628009  0.16814054  0.88758622  1
  Mg  Mg12  1  0.83333300  0.66666700  0.37316331  1
  Mg  Mg13  1  0.83333300  0.66666700  0.87683669  1
  Mn  Mn0  1  0.16666700  0.33333300  0.12500000  1
  Bi  Bi0  1  0.16666700  0.33333300  0.62500000  1
loop_
_geom_bond_atom_site_label_1
_geom_bond_atom_site_label_2
_geom_bond_distance
_geom_bond_site_symmetry_2
Mg0 Mg8 3.086218 1_555
Mg0 Mg9 3.086218 1_554
Mg0 Mg7 3.086224 1_564
Mg0 Mg6 3.086224 1_565
Mg0 Mg2 3.140629 1_455
Mg0 Mg4 3.140629 1_455
Mg0 Mg12 3.160501 1_455
Mg0 Mg13 3.160501 1_454
Mg0 Mn0 3.164174 1_555
Mg0 Mn0 3.164175 1_565
Mg0 Mg2 3.187662 1_565
Mg0 Mg4 3.187662 1_555
Mg1 Mg3 3.163687 1_565
Mg1 Mg5 3.163687 1_555
Mg1 Mg3 3.164604 1_455
Mg1 Mg5 3.164604 1_455
Mg1 Mg12 3.199844 1_455
Mg1 Mg13 3.199844 1_455
Mg1 Mg8 3.296812 1_555
Mg1 Mg9 3.296812 1_555
Mg1 Mg6 3.296818 1_565
Mg1 Mg7 3.296818 1_565
Mg2 Mg7 3.086224 1_554
Mg2 Mg6 3.086224 1_555
Mg2 Mg4 3.140629 1_555
Mg2 Mn0 3.164175 1_655
Mg2 Mn0 3.164175 1_555
Mg2 Mg4 3.187662 1_545
Mg3 Mg5 3.163687 1_545
Mg3 Mg5 3.164604 1_555
Mg3 Mg6 3.296818 1_555
Mg3 Mg7 3.296818 1_555
Mg4 Mg9 3.086224 1_554
Mg4 Mg8 3.086224 1_555
Mg4 Mn0 3.164174 1_665
Mg4 Mn0 3.164174 1_555
Mg5 Mg9 3.296818 1_555
Mg5 Mg8 3.296818 1_555
Mg6 Mn0 3.067810 1_555
Mg6 Mg8 3.136170 1_555
Mg6 Mg8 3.192120 1_545
Mg7 Mn0 3.067810 1_556
Mg7 Mg9 3.136170 1_555
Mg7 Mg9 3.192120 1_545
Mg8 Mn0 3.067816 1_555
Mg9 Mn0 3.067816 1_556
Mg10 Mn0 3.067816 1_655
Mg10 Mg2 3.086218 1_555
Mg10 Mg4 3.086224 1_545
Mg10 Mg8 3.136170 1_655
Mg10 Mg6 3.136171 1_655
Mg10 Mg12 3.166173 1_545
Mg10 Mg12 3.166173 1_555
Mg10 Mg8 3.192120 1_545
Mg10 Mg6 3.192121 1_555
Mg10 Mg3 3.296812 1_555
Mg10 Mg5 3.296818 1_545
Mg11 Mn0 3.067816 1_656
Mg11 Mg2 3.086218 1_556
Mg11 Mg4 3.086224 1_546
Mg11 Mg9 3.136170 1_655
Mg11 Mg7 3.136171 1_655
Mg11 Mg13 3.166173 1_545
Mg11 Mg13 3.166173 1_555
Mg11 Mg9 3.192120 1_545
Mg11 Mg7 3.192121 1_555
Mg11 Mg3 3.296812 1_555
Mg11 Mg5 3.296818 1_545
Mg12 Mg4 3.160495 1_555
Mg12 Mg2 3.160501 1_555
Mg12 Mg6 3.166173 1_665
Mg12 Mg6 3.166173 1_555
Mg12 Mg8 3.166173 1_555
Mg12 Mg8 3.166173 1_655
Mg12 Mg5 3.199838 1_555
Mg12 Mg3 3.199844 1_555
Mg13 Mg4 3.160495 1_556
Mg13 Mg2 3.160501 1_556
Mg13 Mg7 3.166173 1_665
Mg13 Mg7 3.166173 1_555
Mg13 Mg9 3.166173 1_555
Mg13 Mg9 3.166173 1_655
Mg13 Mg5 3.199838 1_555
Mg13 Mg3 3.199844 1_555
Bi0 Mg1 3.164145 1_555
Bi0 Mg5 3.164145 1_555
Bi0 Mg5 3.164145 1_445
Bi0 Mg1 3.164145 1_545
Bi0 Mg3 3.164146 1_455
Bi0 Mg3 3.164146 1_555
Bi0 Mg6 3.283433 1_555
Bi0 Mg7 3.283433 1_555
Bi0 Mg8 3.283439 1_555
Bi0 Mg9 3.283439 1_555
Bi0 Mg10 3.283439 1_455
Bi0 Mg11 3.283439 1_455
