# generated using pymatgen
data_Zr3Co2Si3
_symmetry_space_group_name_H-M   'P 1'
_cell_length_a   5.39595466
_cell_length_b   5.39595466
_cell_length_c   12.96169400
_cell_angle_alpha   90.00000000
_cell_angle_beta   90.00000000
_cell_angle_gamma   138.02147754
_symmetry_Int_Tables_number   1
_chemical_formula_structural   Zr3Co2Si3
_chemical_formula_sum   'Zr6 Co4 Si6'
_cell_volume   252.42267858
_cell_formula_units_Z   2
loop_
 _symmetry_equiv_pos_site_id
 _symmetry_equiv_pos_as_xyz
  1  'x, y, z'
loop_
 _atom_site_type_symbol
 _atom_site_label
 _atom_site_symmetry_multiplicity
 _atom_site_fract_x
 _atom_site_fract_y
 _atom_site_fract_z
 _atom_site_occupancy
  Zr  Zr0  1  0.92464000  0.07536000  0.38359200  1
  Zr  Zr1  1  0.07536000  0.92464000  0.61640800  1
  Zr  Zr2  1  0.92464000  0.07536000  0.11640800  1
  Zr  Zr3  1  0.07536000  0.92464000  0.88359200  1
  Zr  Zr4  1  0.63590900  0.36409100  0.25000000  1
  Zr  Zr5  1  0.36409100  0.63590900  0.75000000  1
  Co  Co0  1  0.78031100  0.21968900  0.91971400  1
  Co  Co1  1  0.21968900  0.78031100  0.08028600  1
  Co  Co2  1  0.78031100  0.21968900  0.58028600  1
  Co  Co3  1  0.21968900  0.78031100  0.41971400  1
  Si  Si0  1  0.61114800  0.38885200  0.45816500  1
  Si  Si1  1  0.38885200  0.61114800  0.54183500  1
  Si  Si2  1  0.61114800  0.38885200  0.04183500  1
  Si  Si3  1  0.38885200  0.61114800  0.95816500  1
  Si  Si4  1  0.33412300  0.66587700  0.25000000  1
  Si  Si5  1  0.66587700  0.33412300  0.75000000  1
loop_
_geom_bond_atom_site_label_1
_geom_bond_atom_site_label_2
_geom_bond_distance
_geom_bond_site_symmetry_2
Zr0 Zr4 3.356407 1_655
Zr0 Zr4 3.356407 1_545
Zr1 Zr5 3.356407 1_565
Zr1 Zr5 3.356407 1_455
Zr2 Zr4 3.356407 1_655
Zr2 Zr4 3.356407 1_545
Zr3 Zr5 3.356407 1_565
Zr3 Zr5 3.356407 1_455
Co0 Si3 2.275991 1_655
Co0 Si3 2.275991 1_545
Co0 Si2 2.326099 1_556
Co0 Si5 2.483644 1_555
Co0 Zr3 2.866941 1_545
Co0 Zr3 2.866941 1_655
Co0 Zr2 2.935079 1_556
Co0 Zr3 3.009510 1_645
Co0 Zr5 3.047511 1_655
Co0 Zr5 3.047511 1_545
Co1 Si2 2.275991 1_565
Co1 Si2 2.275991 1_455
Co1 Si3 2.326099 1_554
Co1 Si4 2.483644 1_555
Co1 Zr2 2.866941 1_565
Co1 Zr2 2.866941 1_455
Co1 Zr3 2.935079 1_554
Co1 Zr2 3.009510 1_465
Co1 Zr4 3.047511 1_565
Co1 Zr4 3.047511 1_455
Co2 Si1 2.275991 1_655
Co2 Si1 2.275991 1_545
Co2 Si0 2.326099 1_555
Co2 Si5 2.483644 1_555
Co2 Zr1 2.866941 1_545
Co2 Zr1 2.866941 1_655
Co2 Zr0 2.935079 1_555
Co2 Zr1 3.009510 1_645
Co2 Zr5 3.047511 1_655
Co2 Zr5 3.047511 1_545
Co3 Si0 2.275991 1_455
Co3 Si0 2.275991 1_565
Co3 Si1 2.326099 1_555
Co3 Si4 2.483644 1_555
Co3 Zr0 2.866941 1_455
Co3 Zr0 2.866941 1_565
Co3 Zr1 2.935079 1_555
Co3 Zr0 3.009510 1_465
Co3 Zr4 3.047511 1_565
Co3 Zr4 3.047511 1_455
Si0 Si1 2.488562 1_555
Si0 Zr4 2.709681 1_555
Si0 Zr1 2.841253 1_545
Si0 Zr1 2.841253 1_655
Si0 Zr0 2.863822 1_455
Si0 Zr0 2.863822 1_565
Si1 Zr5 2.709681 1_555
Si1 Zr0 2.841253 1_455
Si1 Zr0 2.841253 1_565
Si1 Zr1 2.863822 1_545
Si1 Zr1 2.863822 1_655
Si2 Si3 2.488562 1_554
Si2 Zr4 2.709681 1_555
Si2 Zr3 2.841253 1_544
Si2 Zr3 2.841253 1_654
Si2 Zr2 2.863822 1_455
Si2 Zr2 2.863822 1_565
Si3 Zr5 2.709681 1_555
Si3 Zr2 2.841253 1_456
Si3 Zr2 2.841253 1_566
Si3 Zr3 2.863822 1_545
Si3 Zr3 2.863822 1_655
Si4 Zr0 2.750611 1_455
Si4 Zr2 2.750611 1_455
Si4 Zr2 2.750611 1_565
Si4 Zr0 2.750611 1_565
Si4 Zr4 2.779278 1_455
Si4 Zr4 2.779278 1_565
Si4 Zr4 3.040747 1_555
Si5 Zr3 2.750611 1_545
Si5 Zr3 2.750611 1_655
Si5 Zr1 2.750611 1_545
Si5 Zr1 2.750611 1_655
Si5 Zr5 2.779278 1_545
Si5 Zr5 2.779278 1_655
Si5 Zr5 3.040747 1_555
