# generated using pymatgen
data_La2CdPd2
_symmetry_space_group_name_H-M   'P 1'
_cell_length_a   15.79865812
_cell_length_b   15.79865812
_cell_length_c   7.93714398
_cell_angle_alpha   90.00000000
_cell_angle_beta   90.00000000
_cell_angle_gamma   90.00004599
_symmetry_Int_Tables_number   1
_chemical_formula_structural   La2CdPd2
_chemical_formula_sum   'La32 Cd16 Pd32'
_cell_volume   1981.09207550
_cell_formula_units_Z   16
loop_
 _symmetry_equiv_pos_site_id
 _symmetry_equiv_pos_as_xyz
  1  'x, y, z'
loop_
 _atom_site_type_symbol
 _atom_site_label
 _atom_site_symmetry_multiplicity
 _atom_site_fract_x
 _atom_site_fract_y
 _atom_site_fract_z
 _atom_site_occupancy
  La  La0_0  1  0.33822363  0.08822413  0.25000000  1
  La  La0_1  1  0.33822363  0.08822413  0.75000000  1
  La  La0_2  1  0.33822363  0.58822413  0.25000000  1
  La  La0_3  1  0.33822363  0.58822413  0.75000000  1
  La  La0_4  1  0.83822363  0.08822413  0.25000000  1
  La  La0_5  1  0.83822363  0.08822413  0.75000000  1
  La  La0_6  1  0.83822363  0.58822413  0.25000000  1
  La  La0_7  1  0.83822363  0.58822413  0.75000000  1
  La  La1_0  1  0.16177587  0.41177637  0.25000000  1
  La  La1_1  1  0.16177587  0.41177637  0.75000000  1
  La  La1_2  1  0.16177587  0.91177637  0.25000000  1
  La  La1_3  1  0.16177587  0.91177637  0.75000000  1
  La  La1_4  1  0.66177587  0.41177637  0.25000000  1
  La  La1_5  1  0.66177587  0.41177637  0.75000000  1
  La  La1_6  1  0.66177587  0.91177637  0.25000000  1
  La  La1_7  1  0.66177587  0.91177637  0.75000000  1
  La  La2_0  1  0.08822363  0.16177637  0.25000000  1
  La  La2_1  1  0.08822363  0.16177637  0.75000000  1
  La  La2_2  1  0.08822363  0.66177637  0.25000000  1
  La  La2_3  1  0.08822363  0.66177637  0.75000000  1
  La  La2_4  1  0.58822363  0.16177637  0.25000000  1
  La  La2_5  1  0.58822363  0.16177637  0.75000000  1
  La  La2_6  1  0.58822363  0.66177637  0.25000000  1
  La  La2_7  1  0.58822363  0.66177637  0.75000000  1
  La  La3_0  1  0.41177687  0.33822313  0.25000000  1
  La  La3_1  1  0.41177687  0.33822313  0.75000000  1
  La  La3_2  1  0.41177687  0.83822313  0.25000000  1
  La  La3_3  1  0.41177687  0.83822313  0.75000000  1
  La  La3_4  1  0.91177687  0.33822313  0.25000000  1
  La  La3_5  1  0.91177687  0.33822313  0.75000000  1
  La  La3_6  1  0.91177687  0.83822313  0.25000000  1
  La  La3_7  1  0.91177687  0.83822313  0.75000000  1
  Cd  Cd0_0  1  0.00000000  0.00000000  0.00000000  1
  Cd  Cd0_1  1  0.00000000  0.00000000  0.50000000  1
  Cd  Cd0_2  1  0.00000000  0.50000000  0.00000000  1
  Cd  Cd0_3  1  0.00000000  0.50000000  0.50000000  1
  Cd  Cd0_4  1  0.50000000  0.00000000  0.00000000  1
  Cd  Cd0_5  1  0.50000000  0.00000000  0.50000000  1
  Cd  Cd0_6  1  0.50000000  0.50000000  0.00000000  1
  Cd  Cd0_7  1  0.50000000  0.50000000  0.50000000  1
  Cd  Cd1_0  1  0.25000000  0.25000000  0.00000000  1
  Cd  Cd1_1  1  0.25000000  0.25000000  0.50000000  1
  Cd  Cd1_2  1  0.25000000  0.75000000  0.00000000  1
  Cd  Cd1_3  1  0.25000000  0.75000000  0.50000000  1
  Cd  Cd1_4  1  0.75000000  0.25000000  0.00000000  1
  Cd  Cd1_5  1  0.75000000  0.25000000  0.50000000  1
  Cd  Cd1_6  1  0.75000000  0.75000000  0.00000000  1
  Cd  Cd1_7  1  0.75000000  0.75000000  0.50000000  1
  Pd  Pd0_0  1  0.06338191  0.31338191  0.00000000  1
  Pd  Pd0_1  1  0.06338191  0.31338191  0.50000000  1
  Pd  Pd0_2  1  0.06338191  0.81338191  0.00000000  1
  Pd  Pd0_3  1  0.06338191  0.81338191  0.50000000  1
  Pd  Pd0_4  1  0.56338192  0.31338191  0.00000000  1
  Pd  Pd0_5  1  0.56338192  0.31338191  0.50000000  1
  Pd  Pd0_6  1  0.56338191  0.81338191  0.00000000  1
  Pd  Pd0_7  1  0.56338191  0.81338191  0.50000000  1
  Pd  Pd1_0  1  0.43661808  0.18661808  0.00000000  1
  Pd  Pd1_1  1  0.43661808  0.18661808  0.50000000  1
  Pd  Pd1_2  1  0.43661808  0.68661808  0.00000000  1
  Pd  Pd1_3  1  0.43661808  0.68661808  0.50000000  1
  Pd  Pd1_4  1  0.93661808  0.18661809  0.00000000  1
  Pd  Pd1_5  1  0.93661808  0.18661809  0.50000000  1
  Pd  Pd1_6  1  0.93661808  0.68661808  0.00000000  1
  Pd  Pd1_7  1  0.93661808  0.68661808  0.50000000  1
  Pd  Pd2_0  1  0.31338141  0.43661858  0.00000000  1
  Pd  Pd2_1  1  0.31338141  0.43661858  0.50000000  1
  Pd  Pd2_2  1  0.31338141  0.93661858  0.00000000  1
  Pd  Pd2_3  1  0.31338141  0.93661858  0.50000000  1
  Pd  Pd2_4  1  0.81338141  0.43661858  0.00000000  1
  Pd  Pd2_5  1  0.81338141  0.43661858  0.50000000  1
  Pd  Pd2_6  1  0.81338141  0.93661858  0.00000000  1
  Pd  Pd2_7  1  0.81338141  0.93661858  0.50000000  1
  Pd  Pd3_0  1  0.18661858  0.06338141  0.00000000  1
  Pd  Pd3_1  1  0.18661858  0.06338141  0.50000000  1
  Pd  Pd3_2  1  0.18661858  0.56338141  0.00000000  1
  Pd  Pd3_3  1  0.18661858  0.56338141  0.50000000  1
  Pd  Pd3_4  1  0.68661858  0.06338141  0.00000000  1
  Pd  Pd3_5  1  0.68661858  0.06338141  0.50000000  1
  Pd  Pd3_6  1  0.68661858  0.56338141  0.00000000  1
  Pd  Pd3_7  1  0.68661858  0.56338141  0.50000000  1
loop_
_geom_bond_atom_site_label_1
_geom_bond_atom_site_label_2
_geom_bond_distance
_geom_bond_site_symmetry_2
La0_0 Pd1_0 2.961470 1_555
La0_0 Pd1_1 2.961470 1_555
La0_0 Pd3_0 3.134997 1_555
La0_0 Pd3_1 3.134997 1_555
La0_0 Pd2_2 3.135002 1_545
La0_0 Pd2_3 3.135002 1_545
La0_1 Pd1_1 2.961470 1_555
La0_1 Pd1_0 2.961470 1_556
La0_1 Pd3_1 3.134997 1_555
La0_1 Pd3_0 3.134997 1_556
La0_1 Pd2_3 3.135002 1_545
La0_1 Pd2_2 3.135002 1_546
La0_2 Pd1_2 2.961470 1_555
La0_2 Pd1_3 2.961470 1_555
La0_2 Pd3_3 3.134997 1_555
La0_2 Pd3_2 3.134997 1_555
La0_2 Pd2_1 3.135002 1_555
La0_2 Pd2_0 3.135002 1_555
La0_3 Pd1_3 2.961470 1_555
La0_3 Pd1_2 2.961470 1_556
La0_3 Pd3_3 3.134997 1_555
La0_3 Pd3_2 3.134997 1_556
La0_3 Pd2_1 3.135002 1_555
La0_3 Pd2_0 3.135002 1_556
La0_4 Pd1_4 2.961470 1_555
La0_4 Pd1_5 2.961470 1_555
La0_4 Pd3_5 3.134997 1_555
La0_4 Pd3_4 3.134997 1_555
La0_4 Pd2_7 3.135002 1_545
La0_4 Pd2_6 3.135002 1_545
La0_5 Pd1_5 2.961470 1_555
La0_5 Pd1_4 2.961470 1_556
La0_5 Pd3_5 3.134997 1_555
La0_5 Pd3_4 3.134997 1_556
La0_5 Pd2_7 3.135002 1_545
La0_5 Pd2_6 3.135002 1_546
La0_6 Pd1_6 2.961470 1_555
La0_6 Pd1_7 2.961470 1_555
La0_6 Pd3_6 3.134997 1_555
La0_6 Pd3_7 3.134997 1_555
La0_6 Pd2_5 3.135002 1_555
La0_6 Pd2_4 3.135002 1_555
La0_7 Pd1_7 2.961470 1_555
La0_7 Pd1_6 2.961470 1_556
La0_7 Pd3_7 3.134997 1_555
La0_7 Pd3_6 3.134997 1_556
La0_7 Pd2_5 3.135002 1_555
La0_7 Pd2_4 3.135002 1_556
La1_0 Pd0_1 2.961470 1_555
La1_0 Pd0_0 2.961470 1_555
La1_0 Pd3_3 3.134997 1_555
La1_0 Pd3_2 3.134997 1_555
La1_0 Pd2_0 3.135002 1_555
La1_0 Pd2_1 3.135002 1_555
La1_1 Pd0_1 2.961470 1_555
La1_1 Pd0_0 2.961470 1_556
La1_1 Pd3_3 3.134997 1_555
La1_1 Pd3_2 3.134997 1_556
La1_1 Pd2_1 3.135002 1_555
La1_1 Pd2_0 3.135002 1_556
La1_2 Pd0_2 2.961470 1_555
La1_2 Pd0_3 2.961470 1_555
La1_2 Pd3_0 3.134997 1_565
La1_2 Pd3_1 3.134997 1_565
La1_2 Pd2_3 3.135002 1_555
La1_2 Pd2_2 3.135002 1_555
La1_3 Pd0_3 2.961470 1_555
La1_3 Pd0_2 2.961470 1_556
La1_3 Pd3_1 3.134997 1_565
La1_3 Pd3_0 3.134997 1_566
La1_3 Pd2_3 3.135002 1_555
La1_3 Pd2_2 3.135002 1_556
La1_4 Pd0_5 2.961470 1_555
La1_4 Pd0_4 2.961470 1_555
La1_4 Pd3_6 3.134997 1_555
La1_4 Pd3_7 3.134997 1_555
La1_4 Pd2_5 3.135002 1_555
La1_4 Pd2_4 3.135002 1_555
La1_5 Pd0_5 2.961470 1_555
La1_5 Pd0_4 2.961470 1_556
La1_5 Pd3_7 3.134997 1_555
La1_5 Pd3_6 3.134997 1_556
La1_5 Pd2_5 3.135002 1_555
La1_5 Pd2_4 3.135002 1_556
La1_6 Pd0_6 2.961470 1_555
La1_6 Pd0_7 2.961470 1_555
La1_6 Pd3_4 3.134997 1_565
La1_6 Pd3_5 3.134997 1_565
La1_6 Pd2_6 3.135002 1_555
La1_6 Pd2_7 3.135002 1_555
La1_7 Pd0_7 2.961470 1_555
La1_7 Pd0_6 2.961470 1_556
La1_7 Pd3_5 3.134997 1_565
La1_7 Pd3_4 3.134997 1_566
La1_7 Pd2_7 3.135002 1_555
La1_7 Pd2_6 3.135002 1_556
La2_0 Pd3_0 2.961484 1_555
La2_0 Pd3_1 2.961484 1_555
La2_0 Pd0_0 3.135001 1_555
La2_0 Pd0_1 3.135001 1_555
La2_0 Pd1_4 3.135001 1_455
La2_0 Pd1_5 3.135001 1_455
La2_1 Pd3_1 2.961484 1_555
La2_1 Pd3_0 2.961484 1_556
La2_1 Pd0_1 3.135001 1_555
La2_1 Pd0_0 3.135001 1_556
La2_1 Pd1_5 3.135001 1_455
La2_1 Pd1_4 3.135001 1_456
La2_2 Pd3_2 2.961484 1_555
La2_2 Pd3_3 2.961484 1_555
La2_2 Pd0_2 3.135001 1_555
La2_2 Pd0_3 3.135001 1_555
La2_2 Pd1_7 3.135001 1_455
La2_2 Pd1_6 3.135001 1_455
La2_3 Pd3_3 2.961484 1_555
La2_3 Pd3_2 2.961484 1_556
La2_3 Pd0_3 3.135001 1_555
La2_3 Pd0_2 3.135001 1_556
La2_3 Pd1_7 3.135001 1_455
La2_3 Pd1_6 3.135001 1_456
La2_4 Pd3_4 2.961484 1_555
La2_4 Pd3_5 2.961484 1_555
La2_4 Pd0_5 3.135001 1_555
La2_4 Pd1_0 3.135001 1_555
La2_4 Pd1_1 3.135001 1_555
La2_4 Pd0_4 3.135001 1_555
La2_5 Pd3_5 2.961484 1_555
La2_5 Pd3_4 2.961484 1_556
La2_5 Pd1_1 3.135001 1_555
La2_5 Pd0_5 3.135001 1_555
La2_5 Pd1_0 3.135001 1_556
La2_5 Pd0_4 3.135001 1_556
La2_6 Pd3_7 2.961484 1_555
La2_6 Pd3_6 2.961484 1_555
La2_6 Pd1_3 3.135001 1_555
La2_6 Pd0_6 3.135001 1_555
La2_6 Pd0_7 3.135001 1_555
La2_6 Pd1_2 3.135001 1_555
La2_7 Pd3_7 2.961484 1_555
La2_7 Pd3_6 2.961484 1_556
La2_7 Pd0_7 3.135001 1_555
La2_7 Pd1_3 3.135001 1_555
La2_7 Pd0_6 3.135001 1_556
La2_7 Pd1_2 3.135001 1_556
La3_0 Pd2_1 2.961492 1_555
La3_0 Pd2_0 2.961492 1_555
La3_0 Pd1_0 3.134994 1_555
La3_0 Pd1_1 3.134994 1_555
La3_0 Pd0_4 3.134994 1_555
La3_0 Pd0_5 3.134994 1_555
La3_1 Pd2_1 2.961492 1_555
La3_1 Pd2_0 2.961492 1_556
La3_1 Pd1_1 3.134994 1_555
La3_1 Pd1_0 3.134994 1_556
La3_1 Pd0_5 3.134994 1_555
La3_1 Pd0_4 3.134994 1_556
La3_2 Pd2_3 2.961492 1_555
La3_2 Pd2_2 2.961492 1_555
La3_2 Pd0_6 3.134994 1_555
La3_2 Pd0_7 3.134994 1_555
La3_2 Pd1_2 3.134994 1_555
La3_2 Pd1_3 3.134994 1_555
La3_3 Pd2_3 2.961492 1_555
La3_3 Pd2_2 2.961492 1_556
La3_3 Pd0_7 3.134994 1_555
La3_3 Pd0_6 3.134994 1_556
La3_3 Pd1_3 3.134994 1_555
La3_3 Pd1_2 3.134994 1_556
La3_4 Pd2_4 2.961492 1_555
La3_4 Pd2_5 2.961492 1_555
La3_4 Pd1_4 3.134994 1_555
La3_4 Pd1_5 3.134994 1_555
La3_4 Pd0_0 3.134994 1_655
La3_4 Pd0_1 3.134994 1_655
La3_5 Pd2_5 2.961492 1_555
La3_5 Pd2_4 2.961492 1_556
La3_5 Pd1_5 3.134994 1_555
La3_5 Pd0_1 3.134994 1_655
La3_5 Pd1_4 3.134994 1_556
La3_5 Pd0_0 3.134994 1_656
La3_6 Pd2_7 2.961492 1_555
La3_6 Pd2_6 2.961492 1_555
La3_6 Pd1_7 3.134994 1_555
La3_6 Pd1_6 3.134994 1_555
La3_6 Pd0_2 3.134994 1_655
La3_6 Pd0_3 3.134994 1_655
La3_7 Pd2_7 2.961492 1_555
La3_7 Pd2_6 2.961492 1_556
La3_7 Pd1_7 3.134994 1_555
La3_7 Pd0_3 3.134994 1_655
La3_7 Pd0_2 3.134994 1_656
La3_7 Pd1_6 3.134994 1_556
Cd0_0 Pd1_4 3.113723 1_455
Cd0_0 Pd0_2 3.113723 1_545
Cd0_0 Pd3_0 3.113726 1_555
Cd0_0 Pd2_6 3.113726 1_445
Cd0_0 La1_2 3.523130 1_545
Cd0_0 La1_3 3.523130 1_544
Cd0_0 La2_0 3.523134 1_555
Cd0_0 La2_1 3.523134 1_554
Cd0_0 La3_6 3.523136 1_445
Cd0_0 La3_7 3.523136 1_444
Cd0_0 La0_4 3.523139 1_455
Cd0_0 La0_5 3.523139 1_454
Cd0_0 Cd0_1 3.968572 1_555
Cd0_0 Cd0_1 3.968572 1_554
Cd0_1 Pd1_5 3.113723 1_455
Cd0_1 Pd0_3 3.113723 1_545
Cd0_1 Pd3_1 3.113726 1_555
Cd0_1 Pd2_7 3.113726 1_445
Cd0_1 La1_3 3.523130 1_545
Cd0_1 La1_2 3.523130 1_545
Cd0_1 La2_0 3.523134 1_555
Cd0_1 La2_1 3.523134 1_555
Cd0_1 La3_7 3.523136 1_445
Cd0_1 La3_6 3.523136 1_445
Cd0_1 La0_4 3.523139 1_455
Cd0_1 La0_5 3.523139 1_455
Cd0_2 Pd0_0 3.113723 1_555
Cd0_2 Pd1_6 3.113723 1_455
Cd0_2 Pd3_2 3.113726 1_555
Cd0_2 Pd2_4 3.113726 1_455
Cd0_2 La1_0 3.523130 1_555
Cd0_2 La1_1 3.523130 1_554
Cd0_2 La2_2 3.523134 1_555
Cd0_2 La2_3 3.523134 1_554
Cd0_2 La3_4 3.523136 1_455
Cd0_2 La3_5 3.523136 1_454
Cd0_2 La0_6 3.523139 1_455
Cd0_2 La0_7 3.523139 1_454
Cd0_2 Cd0_3 3.968572 1_555
Cd0_2 Cd0_3 3.968572 1_554
Cd0_3 Pd0_1 3.113723 1_555
Cd0_3 Pd1_7 3.113723 1_455
Cd0_3 Pd3_3 3.113726 1_555
Cd0_3 Pd2_5 3.113726 1_455
Cd0_3 La1_0 3.523130 1_555
Cd0_3 La1_1 3.523130 1_555
Cd0_3 La2_3 3.523134 1_555
Cd0_3 La2_2 3.523134 1_555
Cd0_3 La3_4 3.523136 1_455
Cd0_3 La3_5 3.523136 1_455
Cd0_3 La0_7 3.523139 1_455
Cd0_3 La0_6 3.523139 1_455
Cd0_4 Pd1_0 3.113723 1_555
Cd0_4 Pd0_6 3.113723 1_545
Cd0_4 Pd3_4 3.113726 1_555
Cd0_4 Pd2_2 3.113726 1_545
Cd0_4 La1_6 3.523130 1_545
Cd0_4 La1_7 3.523130 1_544
Cd0_4 La2_4 3.523134 1_555
Cd0_4 La2_5 3.523134 1_554
Cd0_4 La3_2 3.523136 1_545
Cd0_4 La3_3 3.523136 1_544
Cd0_4 La0_0 3.523139 1_555
Cd0_4 La0_1 3.523139 1_554
Cd0_4 Cd0_5 3.968572 1_555
Cd0_4 Cd0_5 3.968572 1_554
Cd0_5 Pd1_1 3.113723 1_555
Cd0_5 Pd0_7 3.113723 1_545
Cd0_5 Pd3_5 3.113726 1_555
Cd0_5 Pd2_3 3.113726 1_545
Cd0_5 La1_6 3.523130 1_545
Cd0_5 La1_7 3.523130 1_545
Cd0_5 La2_5 3.523134 1_555
Cd0_5 La2_4 3.523134 1_555
Cd0_5 La3_2 3.523136 1_545
Cd0_5 La3_3 3.523136 1_545
Cd0_5 La0_0 3.523139 1_555
Cd0_5 La0_1 3.523139 1_555
Cd0_6 Pd1_2 3.113723 1_555
Cd0_6 Pd0_4 3.113723 1_555
Cd0_6 Pd3_6 3.113726 1_555
Cd0_6 Pd2_0 3.113726 1_555
Cd0_6 La1_4 3.523130 1_555
Cd0_6 La1_5 3.523130 1_554
Cd0_6 La2_6 3.523134 1_555
Cd0_6 La2_7 3.523134 1_554
Cd0_6 La3_0 3.523136 1_555
Cd0_6 La3_1 3.523136 1_554
Cd0_6 La0_2 3.523139 1_555
Cd0_6 La0_3 3.523139 1_554
Cd0_6 Cd0_7 3.968572 1_555
Cd0_6 Cd0_7 3.968572 1_554
Cd0_7 Pd1_3 3.113723 1_555
Cd0_7 Pd0_5 3.113723 1_555
Cd0_7 Pd3_7 3.113726 1_555
Cd0_7 Pd2_1 3.113726 1_555
Cd0_7 La1_4 3.523130 1_555
Cd0_7 La1_5 3.523130 1_555
Cd0_7 La2_6 3.523134 1_555
Cd0_7 La2_7 3.523134 1_555
Cd0_7 La3_1 3.523136 1_555
Cd0_7 La3_0 3.523136 1_555
Cd0_7 La0_3 3.523139 1_555
Cd0_7 La0_2 3.523139 1_555
Cd1_0 Pd0_0 3.113723 1_555
Cd1_0 Pd1_0 3.113723 1_555
Cd1_0 Pd3_0 3.113726 1_555
Cd1_0 Pd2_0 3.113726 1_555
Cd1_0 La0_0 3.523130 1_555
Cd1_0 La0_1 3.523130 1_554
Cd1_0 La2_0 3.523134 1_555
Cd1_0 La2_1 3.523134 1_554
Cd1_0 La3_0 3.523136 1_555
Cd1_0 La3_1 3.523136 1_554
Cd1_0 La1_0 3.523139 1_555
Cd1_0 La1_1 3.523139 1_554
Cd1_0 Cd1_1 3.968572 1_555
Cd1_0 Cd1_1 3.968572 1_554
Cd1_1 Pd0_1 3.113723 1_555
Cd1_1 Pd1_1 3.113723 1_555
Cd1_1 Pd3_1 3.113726 1_555
Cd1_1 Pd2_1 3.113726 1_555
Cd1_1 La0_0 3.523130 1_555
Cd1_1 La0_1 3.523130 1_555
Cd1_1 La2_1 3.523134 1_555
Cd1_1 La2_0 3.523134 1_555
Cd1_1 La3_0 3.523136 1_555
Cd1_1 La3_1 3.523136 1_555
Cd1_1 La1_1 3.523139 1_555
Cd1_1 La1_0 3.523139 1_555
Cd1_2 Pd1_2 3.113723 1_555
Cd1_2 Pd0_2 3.113723 1_555
Cd1_2 Pd3_2 3.113726 1_555
Cd1_2 Pd2_2 3.113726 1_555
Cd1_2 La0_2 3.523130 1_555
Cd1_2 La0_3 3.523130 1_554
Cd1_2 La2_2 3.523134 1_555
Cd1_2 La2_3 3.523134 1_554
Cd1_2 La3_2 3.523136 1_555
Cd1_2 La3_3 3.523136 1_554
Cd1_2 La1_2 3.523139 1_555
Cd1_2 La1_3 3.523139 1_554
Cd1_2 Cd1_3 3.968572 1_555
Cd1_2 Cd1_3 3.968572 1_554
Cd1_3 Pd1_3 3.113723 1_555
Cd1_3 Pd0_3 3.113723 1_555
Cd1_3 Pd3_3 3.113726 1_555
Cd1_3 Pd2_3 3.113726 1_555
Cd1_3 La0_2 3.523130 1_555
Cd1_3 La0_3 3.523130 1_555
Cd1_3 La2_3 3.523134 1_555
Cd1_3 La2_2 3.523134 1_555
Cd1_3 La3_3 3.523136 1_555
Cd1_3 La3_2 3.523136 1_555
Cd1_3 La1_3 3.523139 1_555
Cd1_3 La1_2 3.523139 1_555
Cd1_4 Pd0_4 3.113723 1_555
Cd1_4 Pd1_4 3.113723 1_555
Cd1_4 Pd2_4 3.113726 1_555
Cd1_4 Pd3_4 3.113726 1_555
Cd1_4 La0_4 3.523130 1_555
Cd1_4 La0_5 3.523130 1_554
Cd1_4 La2_4 3.523134 1_555
Cd1_4 La2_5 3.523134 1_554
Cd1_4 La3_4 3.523136 1_555
Cd1_4 La3_5 3.523136 1_554
Cd1_4 La1_4 3.523139 1_555
Cd1_4 La1_5 3.523139 1_554
Cd1_4 Cd1_5 3.968572 1_555
Cd1_4 Cd1_5 3.968572 1_554
Cd1_5 Pd0_5 3.113723 1_555
Cd1_5 Pd1_5 3.113723 1_555
Cd1_5 Pd3_5 3.113726 1_555
Cd1_5 Pd2_5 3.113726 1_555
Cd1_5 La0_5 3.523130 1_555
Cd1_5 La0_4 3.523130 1_555
Cd1_5 La2_5 3.523134 1_555
Cd1_5 La2_4 3.523134 1_555
Cd1_5 La3_5 3.523136 1_555
Cd1_5 La3_4 3.523136 1_555
Cd1_5 La1_4 3.523139 1_555
Cd1_5 La1_5 3.523139 1_555
Cd1_6 Pd1_6 3.113723 1_555
Cd1_6 Pd0_6 3.113723 1_555
Cd1_6 Pd3_6 3.113726 1_555
Cd1_6 Pd2_6 3.113726 1_555
Cd1_6 La0_6 3.523130 1_555
Cd1_6 La0_7 3.523130 1_554
Cd1_6 La2_6 3.523134 1_555
Cd1_6 La2_7 3.523134 1_554
Cd1_6 La3_6 3.523136 1_555
Cd1_6 La3_7 3.523136 1_554
Cd1_6 La1_6 3.523139 1_555
Cd1_6 La1_7 3.523139 1_554
Cd1_6 Cd1_7 3.968572 1_555
Cd1_6 Cd1_7 3.968572 1_554
Cd1_7 Pd1_7 3.113723 1_555
Cd1_7 Pd0_7 3.113723 1_555
Cd1_7 Pd3_7 3.113726 1_555
Cd1_7 Pd2_7 3.113726 1_555
Cd1_7 La0_6 3.523130 1_555
Cd1_7 La0_7 3.523130 1_555
Cd1_7 La2_6 3.523134 1_555
Cd1_7 La2_7 3.523134 1_555
Cd1_7 La3_6 3.523136 1_555
Cd1_7 La3_7 3.523136 1_555
Cd1_7 La1_6 3.523139 1_555
Cd1_7 La1_7 3.523139 1_555
Pd0_0 Pd1_4 2.832242 1_455
Pd0_1 Pd1_5 2.832242 1_455
Pd0_2 Pd1_6 2.832242 1_455
Pd0_3 Pd1_7 2.832242 1_455
Pd0_4 Pd1_0 2.832242 1_555
Pd0_5 Pd1_1 2.832242 1_555
Pd0_6 Pd1_2 2.832242 1_555
Pd0_7 Pd1_3 2.832242 1_555
Pd2_0 Pd3_2 2.832222 1_555
Pd2_1 Pd3_3 2.832222 1_555
Pd2_2 Pd3_0 2.832222 1_565
Pd2_3 Pd3_1 2.832222 1_565
Pd2_4 Pd3_6 2.832222 1_555
Pd2_5 Pd3_7 2.832222 1_555
Pd2_6 Pd3_4 2.832222 1_565
Pd2_7 Pd3_5 2.832222 1_565
