# generated using pymatgen
data_Pr2AlGe6
_symmetry_space_group_name_H-M   'P 1'
_cell_length_a   6.05699870
_cell_length_b   6.05699870
_cell_length_c   10.77281668
_cell_angle_alpha   82.05618665
_cell_angle_beta   82.05618665
_cell_angle_gamma   93.11281543
_symmetry_Int_Tables_number   1
_chemical_formula_structural   Pr2AlGe6
_chemical_formula_sum   'Pr4 Al2 Ge12'
_cell_volume   386.58917256
_cell_formula_units_Z   2
loop_
 _symmetry_equiv_pos_site_id
 _symmetry_equiv_pos_as_xyz
  1  'x, y, z'
loop_
 _atom_site_type_symbol
 _atom_site_label
 _atom_site_symmetry_multiplicity
 _atom_site_fract_x
 _atom_site_fract_y
 _atom_site_fract_z
 _atom_site_occupancy
  Pr  Pr0  1  0.83866504  0.33366624  0.66368879  1
  Pr  Pr1  1  0.33366624  0.83866504  0.66368879  1
  Pr  Pr2  1  0.16133496  0.66633376  0.33631121  1
  Pr  Pr3  1  0.66633376  0.16133496  0.33631121  1
  Al  Al0  1  0.79985441  0.79985441  0.80541051  1
  Al  Al1  1  0.20014559  0.20014559  0.19458949  1
  Ge  Ge0  1  0.14628189  0.14628189  0.43570898  1
  Ge  Ge1  1  0.85371811  0.85371811  0.56429102  1
  Ge  Ge2  1  0.36161780  0.36161780  0.58122170  1
  Ge  Ge3  1  0.63838220  0.63838220  0.41877830  1
  Ge  Ge4  1  0.06793042  0.49184994  0.88670790  1
  Ge  Ge5  1  0.49184994  0.06793042  0.88670790  1
  Ge  Ge6  1  0.93206958  0.50815006  0.11329210  1
  Ge  Ge7  1  0.50815006  0.93206958  0.11329210  1
  Ge  Ge8  1  0.07011936  0.07011936  0.88717987  1
  Ge  Ge9  1  0.92988064  0.92988064  0.11282013  1
  Ge  Ge10  1  0.48852500  0.48852500  0.88669828  1
  Ge  Ge11  1  0.51147500  0.51147500  0.11330172  1
loop_
_geom_bond_atom_site_label_1
_geom_bond_atom_site_label_2
_geom_bond_distance
_geom_bond_site_symmetry_2
Al0 Ge1 2.545592 1_555
Al0 Ge10 2.565090 1_555
Al0 Ge8 2.577127 1_665
Al0 Ge4 2.674769 1_655
Al0 Ge5 2.674769 1_565
Al0 Pr1 3.360688 1_655
Al0 Pr0 3.360688 1_565
Al0 Pr1 3.394698 1_555
Al0 Pr0 3.394698 1_555
Al1 Ge0 2.545592 1_555
Al1 Ge11 2.565090 1_555
Al1 Ge9 2.577127 1_445
Al1 Ge7 2.674769 1_545
Al1 Ge6 2.674769 1_455
Al1 Pr3 3.360688 1_455
Al1 Pr2 3.360688 1_545
Al1 Pr3 3.394698 1_555
Al1 Pr2 3.394698 1_555
Ge0 Ge1 2.549736 1_445
Ge0 Ge2 2.608670 1_555
Ge0 Pr3 3.175948 1_555
Ge0 Pr2 3.175948 1_555
Ge0 Pr3 3.235433 1_455
Ge0 Pr2 3.235433 1_545
Ge0 Pr0 3.244534 1_455
Ge0 Pr1 3.244534 1_545
Ge1 Ge3 2.608670 1_555
Ge1 Pr1 3.175948 1_555
Ge1 Pr0 3.175948 1_555
Ge1 Pr0 3.235433 1_565
Ge1 Pr1 3.235433 1_655
Ge1 Pr3 3.244534 1_565
Ge1 Pr2 3.244534 1_655
Ge2 Ge3 2.599206 1_555
Ge2 Pr0 3.144531 1_555
Ge2 Pr1 3.144531 1_555
Ge2 Pr0 3.158086 1_455
Ge2 Pr1 3.158086 1_545
Ge2 Pr2 3.408961 1_555
Ge2 Pr3 3.408961 1_555
Ge3 Pr3 3.144531 1_555
Ge3 Pr2 3.144531 1_555
Ge3 Pr2 3.158086 1_655
Ge3 Pr3 3.158086 1_565
Ge3 Pr1 3.408961 1_555
Ge3 Pr0 3.408961 1_555
Ge4 Ge6 2.483021 1_456
Ge4 Ge8 2.554482 1_555
Ge4 Pr1 3.153508 1_555
Ge4 Pr0 3.167415 1_455
Ge5 Ge7 2.483021 1_546
Ge5 Ge8 2.554482 1_555
Ge5 Pr0 3.153508 1_555
Ge5 Pr1 3.167415 1_545
Ge6 Ge9 2.554482 1_555
Ge6 Pr3 3.153508 1_555
Ge6 Pr2 3.167415 1_655
Ge7 Ge9 2.554482 1_555
Ge7 Pr2 3.153508 1_555
Ge7 Pr3 3.167415 1_565
Ge8 Ge9 2.476280 1_446
Ge8 Pr0 3.228610 1_455
Ge8 Pr1 3.228610 1_545
Ge9 Pr3 3.228610 1_565
Ge9 Pr2 3.228610 1_655
Ge10 Ge11 2.486642 1_556
Ge10 Ge4 2.548700 1_555
Ge10 Ge5 2.548700 1_555
Ge10 Pr0 3.252677 1_555
Ge10 Pr1 3.252677 1_555
Ge11 Ge7 2.548700 1_555
Ge11 Ge6 2.548700 1_555
Ge11 Pr2 3.252677 1_555
Ge11 Pr3 3.252677 1_555
