# generated using pymatgen
data_SrCa7TiMn7O21
_symmetry_space_group_name_H-M   'P 1'
_cell_length_a   7.79739963
_cell_length_b   7.78018102
_cell_length_c   7.78281072
_cell_angle_alpha   90.25622125
_cell_angle_beta   89.48677656
_cell_angle_gamma   89.83154838
_symmetry_Int_Tables_number   1
_chemical_formula_structural   SrCa7TiMn7O21
_chemical_formula_sum   'Sr1 Ca7 Ti1 Mn7 O21'
_cell_volume   472.11985890
_cell_formula_units_Z   1
loop_
 _symmetry_equiv_pos_site_id
 _symmetry_equiv_pos_as_xyz
  1  'x, y, z'
loop_
 _atom_site_type_symbol
 _atom_site_label
 _atom_site_symmetry_multiplicity
 _atom_site_fract_x
 _atom_site_fract_y
 _atom_site_fract_z
 _atom_site_occupancy
  Sr  Sr0  1  0.24312100  0.25256100  0.25595000  1
  Ca  Ca0  1  0.29040600  0.24119400  0.72726500  1
  Ca  Ca1  1  0.23799100  0.73252300  0.23364500  1
  Ca  Ca2  1  0.29012700  0.74959000  0.71204600  1
  Ca  Ca3  1  0.75487800  0.25766800  0.28858400  1
  Ca  Ca4  1  0.74883700  0.27118300  0.73867500  1
  Ca  Ca5  1  0.72507900  0.73612900  0.24985300  1
  Ca  Ca6  1  0.76197000  0.75111700  0.69953500  1
  Ti  Ti0  1  0.00900900  0.99432000  0.97780100  1
  Mn  Mn0  1  0.00101900  0.99995700  0.51450000  1
  Mn  Mn1  1  0.98745500  0.50208700  0.01834100  1
  Mn  Mn2  1  0.00640300  0.50108300  0.51137600  1
  Mn  Mn3  1  0.50061200  0.99858700  0.98322200  1
  Mn  Mn4  1  0.51071200  0.99709000  0.47706800  1
  Mn  Mn5  1  0.50396500  0.50235000  0.98602000  1
  Mn  Mn6  1  0.50590700  0.50335300  0.50926200  1
  O  O0  1  0.90513000  0.01116900  0.77158700  1
  O  O1  1  0.04408300  0.50562600  0.26557400  1
  O  O2  1  0.94973500  0.49830600  0.76994700  1
  O  O3  1  0.51359000  0.05728800  0.22609100  1
  O  O4  1  0.52557100  0.94942300  0.73271600  1
  O  O5  1  0.53531000  0.55570700  0.74490200  1
  O  O6  1  0.23788900  0.99005200  0.94263600  1
  O  O7  1  0.25286900  0.03069800  0.50046300  1
  O  O8  1  0.25168000  0.50158200  0.99738100  1
  O  O9  1  0.25988400  0.46630600  0.53468700  1
  O  O10  1  0.76139800  0.96076600  0.44650800  1
  O  O11  1  0.73220300  0.48014800  0.07401500  1
  O  O12  1  0.75038100  0.53121400  0.46709700  1
  O  O13  1  0.96857300  0.18902900  0.09872300  1
  O  O14  1  0.96987400  0.24857700  0.50279200  1
  O  O15  1  0.96176700  0.78932900  0.07909800  1
  O  O16  1  0.04284300  0.75278700  0.52871200  1
  O  O17  1  0.50688900  0.25002800  0.93282600  1
  O  O18  1  0.53770100  0.26097900  0.52205900  1
  O  O19  1  0.50167200  0.74840900  0.04741700  1
  O  O20  1  0.46346700  0.73178500  0.43162500  1
loop_
_geom_bond_atom_site_label_1
_geom_bond_atom_site_label_2
_geom_bond_distance
_geom_bond_site_symmetry_2
Ca0 O9 2.323338 1_555
Ca0 O17 2.337019 1_555
Ca0 O7 2.422750 1_555
Ca0 O18 2.498262 1_555
Ca0 O6 2.610910 1_545
Ca0 O4 2.914616 1_545
Ca0 O8 2.926048 1_555
Ca0 O14 3.062723 1_455
Ca1 O1 2.340299 1_555
Ca1 O20 2.348145 1_555
Ca1 O19 2.508570 1_555
Ca1 O15 2.515279 1_455
Ca1 O8 2.566463 1_554
Ca1 O16 2.747126 1_555
Ca1 O6 3.030633 1_554
Ca1 O7 3.109701 1_565
Ca2 O16 2.409087 1_555
Ca2 O4 2.415217 1_555
Ca2 O5 2.447649 1_555
Ca2 O20 2.559788 1_555
Ca2 O9 2.607734 1_555
Ca2 O6 2.615161 1_555
Ca2 O7 2.759779 1_565
Ca2 O8 2.962156 1_555
Ca3 O13 2.277867 1_555
Ca3 O14 2.375949 1_555
Ca3 O11 2.417741 1_555
Ca3 O18 2.472720 1_555
Ca3 O3 2.496720 1_555
Ca3 O12 2.536358 1_555
Ca3 O10 2.622013 1_545
Ca4 O18 2.368150 1_555
Ca4 O0 2.374631 1_555
Ca4 O2 2.377994 1_555
Ca4 O17 2.412974 1_555
Ca4 O14 2.512043 1_555
Ca4 O5 2.765969 1_555
Ca4 O12 2.932309 1_555
Ca4 O4 3.053795 1_545
Ca4 O11 3.070222 1_556
Ca5 O15 2.304120 1_555
Ca5 O10 2.337516 1_555
Ca5 O12 2.338284 1_555
Ca5 O19 2.361244 1_555
Ca5 O11 2.411620 1_555
Ca5 O20 2.472410 1_555
Ca5 O3 2.997058 1_565
Ca6 O5 2.359880 1_555
Ca6 O0 2.380845 1_565
Ca6 O4 2.411644 1_555
Ca6 O12 2.486766 1_555
Ca6 O2 2.513896 1_555
Ca6 O16 2.551921 1_655
Ca6 O10 2.562687 1_555
Mn0 O14 1.951420 1_465
Mn0 O16 1.953326 1_555
Mn0 O10 1.970687 1_455
Mn0 O7 1.981086 1_565
Mn0 O0 2.131041 1_465
Mn1 O2 1.958156 1_554
Mn1 O1 1.978122 1_655
Mn1 O11 2.040930 1_555
Mn1 O8 2.065250 1_654
Mn1 O15 2.290031 1_555
Mn1 O13 2.521808 1_555
Mn2 O1 1.933353 1_555
Mn2 O16 1.983805 1_555
Mn2 O14 1.986826 1_455
Mn2 O9 2.004087 1_555
Mn2 O12 2.041873 1_455
Mn2 O2 2.056700 1_455
Mn3 O3 1.946193 1_566
Mn3 O4 1.992832 1_555
Mn3 O17 1.997562 1_565
Mn3 O19 2.011704 1_556
Mn3 O6 2.076770 1_555
Mn4 O10 1.986229 1_555
Mn4 O3 2.010652 1_565
Mn4 O4 2.029823 1_555
Mn4 O7 2.033120 1_565
Mn4 O18 2.092741 1_565
Mn4 O20 2.126421 1_555
Mn5 O11 1.920193 1_556
Mn5 O5 1.937253 1_555
Mn5 O8 1.968390 1_555
Mn5 O19 1.971035 1_556
Mn5 O17 2.004499 1_555
Mn6 O5 1.892939 1_555
Mn6 O18 1.904381 1_555
Mn6 O20 1.908645 1_555
Mn6 O12 1.944317 1_555
Mn6 O9 1.949159 1_555
O0 Ti0 1.809307 1_645
O1 Sr0 2.503880 1_555
O1 O8 2.629947 1_554
O1 O9 2.716174 1_555
O1 O15 2.725302 1_455
O3 Sr0 2.603664 1_555
O6 Ti0 1.803294 1_555
O6 Sr0 3.174392 1_566
O7 Sr0 2.576416 1_555
O8 Sr0 2.800185 1_556
O9 Sr0 2.731808 1_555
O11 O17 2.744989 1_554
O13 Ti0 1.805288 1_644
O13 Sr0 2.524338 1_655
O14 Sr0 2.856361 1_655
O15 Ti0 1.819430 1_654
O17 O3 2.737360 1_556
O17 Sr0 3.234403 1_556
O18 Sr0 3.107178 1_555
