# generated using pymatgen
data_UC3S(NO4)2
_symmetry_space_group_name_H-M   'P 1'
_cell_length_a   8.46924557
_cell_length_b   8.46924557
_cell_length_c   9.71800977
_cell_angle_alpha   99.24771969
_cell_angle_beta   99.24771969
_cell_angle_gamma   108.59638733
_symmetry_Int_Tables_number   1
_chemical_formula_structural   UC3S(NO4)2
_chemical_formula_sum   'U2 C6 S2 N4 O16'
_cell_volume   635.11598093
_cell_formula_units_Z   2
loop_
 _symmetry_equiv_pos_site_id
 _symmetry_equiv_pos_as_xyz
  1  'x, y, z'
loop_
 _atom_site_type_symbol
 _atom_site_label
 _atom_site_symmetry_multiplicity
 _atom_site_fract_x
 _atom_site_fract_y
 _atom_site_fract_z
 _atom_site_occupancy
  U  U0  1  0.16655500  0.83344500  0.25000000  1
  U  U1  1  0.83344500  0.16655500  0.75000000  1
  C  C0  1  0.52821900  0.92297000  0.47746800  1
  C  C1  1  0.07703000  0.47178100  0.02253200  1
  C  C2  1  0.47178100  0.07703000  0.52253200  1
  C  C3  1  0.92297000  0.52821900  0.97746800  1
  C  C4  1  0.89742100  0.10257900  0.25000000  1
  C  C5  1  0.10257900  0.89742100  0.75000000  1
  S  S0  1  0.78011500  0.21988500  0.25000000  1
  S  S1  1  0.21988500  0.78011500  0.75000000  1
  N  N0  1  0.98357400  0.01642600  0.25000000  1
  N  N1  1  0.01642600  0.98357400  0.75000000  1
  N  N2  1  0.52240900  0.47759100  0.25000000  1
  N  N3  1  0.47759100  0.52240900  0.75000000  1
  O  O0  1  0.33204700  0.07064400  0.44814900  1
  O  O1  1  0.92935600  0.66795300  0.05185100  1
  O  O2  1  0.66795300  0.92935600  0.55185100  1
  O  O3  1  0.07064400  0.33204700  0.94814900  1
  O  O4  1  0.42898000  0.80853500  0.37182300  1
  O  O5  1  0.19146500  0.57102000  0.12817700  1
  O  O6  1  0.57102000  0.19146500  0.62817700  1
  O  O7  1  0.80853500  0.42898000  0.87182300  1
  O  O8  1  0.05266000  0.72157500  0.36696600  1
  O  O9  1  0.27842500  0.94734000  0.13303400  1
  O  O10  1  0.94734000  0.27842500  0.63303400  1
  O  O11  1  0.72157500  0.05266000  0.86696600  1
  O  O12  1  0.27575700  0.42652300  0.46190900  1
  O  O13  1  0.57347700  0.72424300  0.03809100  1
  O  O14  1  0.72424300  0.57347700  0.53809100  1
  O  O15  1  0.42652300  0.27575700  0.96190900  1
loop_
_geom_bond_atom_site_label_1
_geom_bond_atom_site_label_2
_geom_bond_distance
_geom_bond_site_symmetry_2
C0 O4 1.258199 1_555
C0 O2 1.263978 1_555
C0 C2 1.550511 1_565
C1 O5 1.258199 1_555
C1 O3 1.263978 1_554
C1 C3 1.550511 1_454
C2 O6 1.258199 1_555
C2 O0 1.263978 1_555
C3 O7 1.258199 1_555
C3 O1 1.263978 1_556
C4 N0 1.185048 1_555
C4 S0 1.613563 1_555
C4 O13 3.534317 1_545
C4 O12 3.534317 1_655
C5 N1 1.185048 1_555
C5 S1 1.613563 1_555
C5 O14 3.534317 1_455
C5 O15 3.534317 1_565
N0 U0 2.516933 1_645
N0 O12 3.606816 1_655
N0 O13 3.606816 1_545
N1 U1 2.516933 1_465
N1 O15 3.606816 1_565
N1 O14 3.606816 1_455
N2 O14 2.874954 1_555
N2 O15 2.874954 1_554
N2 O12 3.143935 1_555
N2 O13 3.143935 1_555
N2 O4 3.245417 1_555
N2 O5 3.245417 1_555
N2 S0 3.544787 1_555
N3 O13 2.874954 1_556
N3 O12 2.874954 1_555
N3 O15 3.143935 1_555
N3 O14 3.143935 1_555
N3 O7 3.245417 1_555
N3 O6 3.245417 1_555
N3 S1 3.544787 1_555
O0 U0 2.408636 1_545
O0 O12 3.183851 1_555
O1 U0 2.408636 1_655
O1 O13 3.183851 1_555
O2 U1 2.408636 1_565
O3 U1 2.408636 1_455
O4 U0 2.432983 1_555
O5 U0 2.432983 1_555
O6 U1 2.432983 1_555
O7 U1 2.432983 1_555
O8 U0 1.798836 1_555
O9 U0 1.798836 1_555
O10 U1 1.798836 1_555
O10 O12 3.465139 1_655
O10 O14 3.722607 1_555
O11 U1 1.798836 1_555
O11 O13 3.465139 1_546
O11 O15 3.722607 1_555
O12 O4 3.393470 1_555
O12 O14 3.508475 1_555
O12 O5 3.689771 1_555
O12 O8 3.722607 1_555
O12 S1 3.957896 1_555
O13 O5 3.393470 1_555
O13 O15 3.508475 1_554
O13 O4 3.689771 1_555
O13 O9 3.722607 1_555
O13 S1 3.957896 1_554
O14 O2 3.183851 1_555
O14 O6 3.393470 1_555
O14 O8 3.465139 1_655
O14 O7 3.689771 1_555
O14 S0 3.957896 1_555
O15 O3 3.183851 1_555
O15 O7 3.393470 1_555
O15 O9 3.465139 1_546
O15 O6 3.689771 1_555
O15 S0 3.957896 1_556
