# generated using pymatgen
data_ZnMoO3
_symmetry_space_group_name_H-M   'P 1'
_cell_length_a   5.31391400
_cell_length_b   5.33854300
_cell_length_c   7.97055000
_cell_angle_alpha   90.00000000
_cell_angle_beta   90.00000000
_cell_angle_gamma   90.00000000
_symmetry_Int_Tables_number   1
_chemical_formula_structural   ZnMoO3
_chemical_formula_sum   'Zn4 Mo4 O12'
_cell_volume   226.11301305
_cell_formula_units_Z   4
loop_
 _symmetry_equiv_pos_site_id
 _symmetry_equiv_pos_as_xyz
  1  'x, y, z'
loop_
 _atom_site_type_symbol
 _atom_site_label
 _atom_site_symmetry_multiplicity
 _atom_site_fract_x
 _atom_site_fract_y
 _atom_site_fract_z
 _atom_site_occupancy
  Zn  Zn0  1  0.51651300  0.02187200  0.25000000  1
  Zn  Zn1  1  0.01651300  0.47812800  0.75000000  1
  Zn  Zn2  1  0.98348700  0.52187200  0.25000000  1
  Zn  Zn3  1  0.48348700  0.97812800  0.75000000  1
  Mo  Mo0  1  0.00000000  0.00000000  0.00000000  1
  Mo  Mo1  1  0.50000000  0.50000000  0.00000000  1
  Mo  Mo2  1  0.50000000  0.50000000  0.50000000  1
  Mo  Mo3  1  0.00000000  0.00000000  0.50000000  1
  O  O0  1  0.38246800  0.59754900  0.75000000  1
  O  O1  1  0.88246800  0.90245100  0.25000000  1
  O  O2  1  0.11753200  0.09754900  0.75000000  1
  O  O3  1  0.61753200  0.40245100  0.25000000  1
  O  O4  1  0.16383200  0.32457800  0.43130400  1
  O  O5  1  0.66383200  0.17542200  0.56869600  1
  O  O6  1  0.33616800  0.82457800  0.06869600  1
  O  O7  1  0.83616800  0.67542200  0.93130400  1
  O  O8  1  0.16383200  0.32457800  0.06869600  1
  O  O9  1  0.66383200  0.17542200  0.93130400  1
  O  O10  1  0.83616800  0.67542200  0.56869600  1
  O  O11  1  0.33616800  0.82457800  0.43130400  1
loop_
_geom_bond_atom_site_label_1
_geom_bond_atom_site_label_2
_geom_bond_distance
_geom_bond_site_symmetry_2
Mo0 O8 2.015003 1_555
Mo0 O7 2.015003 1_444
Mo0 O6 2.089963 1_545
Mo0 O9 2.089963 1_454
Mo0 O2 2.152179 1_554
Mo0 O1 2.152179 1_445
Mo1 O6 2.015003 1_555
Mo1 O9 2.015003 1_554
Mo1 O7 2.089963 1_554
Mo1 O8 2.089963 1_555
Mo1 O3 2.152179 1_555
Mo1 O0 2.152179 1_554
Mo2 O11 2.015003 1_555
Mo2 O5 2.015003 1_555
Mo2 O10 2.089963 1_555
Mo2 O4 2.089963 1_555
Mo2 O3 2.152179 1_555
Mo2 O0 2.152179 1_555
Mo3 O4 2.015003 1_555
Mo3 O10 2.015003 1_445
Mo3 O11 2.089963 1_545
Mo3 O5 2.089963 1_455
Mo3 O2 2.152179 1_555
Mo3 O1 2.152179 1_445
O0 Zn1 2.046491 1_555
O0 Zn3 2.101456 1_555
O1 Zn0 2.046491 1_565
O1 Zn2 2.101456 1_555
O2 Zn3 2.046491 1_545
O2 Zn1 2.101456 1_555
O3 Zn2 2.046491 1_555
O3 Zn0 2.101456 1_555
O4 Zn2 2.028809 1_455
O4 Zn1 2.781605 1_555
O5 Zn3 2.028809 1_545
O5 Zn0 2.781605 1_555
O6 Zn0 2.028809 1_565
O6 Zn3 2.781605 1_554
O6 O9 2.781912 1_564
O7 Zn1 2.028809 1_655
O7 Zn2 2.781605 1_556
O7 O8 2.781912 1_656
O8 Zn2 2.028809 1_455
O8 Zn1 2.781605 1_554
O9 Zn3 2.028809 1_545
O9 Zn0 2.781605 1_556
O10 Zn1 2.028809 1_655
O10 Zn2 2.781605 1_555
O10 O4 2.781912 1_655
O11 Zn0 2.028809 1_565
O11 Zn3 2.781605 1_555
O11 O5 2.781912 1_565
