# generated using pymatgen
data_H3NCl
_symmetry_space_group_name_H-M   'P 1'
_cell_length_a   10.12375459
_cell_length_b   10.46561117
_cell_length_c   6.94813793
_cell_angle_alpha   91.35170445
_cell_angle_beta   94.11293506
_cell_angle_gamma   109.71699881
_symmetry_Int_Tables_number   1
_chemical_formula_structural   H3NCl
_chemical_formula_sum   'H24 N8 Cl8'
_cell_volume   690.32263031
_cell_formula_units_Z   8
loop_
 _symmetry_equiv_pos_site_id
 _symmetry_equiv_pos_as_xyz
  1  'x, y, z'
loop_
 _atom_site_type_symbol
 _atom_site_label
 _atom_site_symmetry_multiplicity
 _atom_site_fract_x
 _atom_site_fract_y
 _atom_site_fract_z
 _atom_site_occupancy
  H  H0  1  0.32729500  0.74987700  0.04227600  1
  H  H1  1  0.64665000  0.30512200  0.46887600  1
  H  H2  1  0.22381400  0.23617800  0.43605400  1
  H  H3  1  0.77190100  0.67991600  0.16179800  1
  H  H4  1  0.03945100  0.17758500  0.80798800  1
  H  H5  1  0.43844500  0.77357500  0.24446600  1
  H  H6  1  0.54624700  0.24842900  0.25881600  1
  H  H7  1  0.89892700  0.76889200  0.74711700  1
  H  H8  1  0.69556400  0.04143900  0.25637900  1
  H  H9  1  0.24096000  0.44425700  0.77865100  1
  H  H10  1  0.29847200  0.62909800  0.20900400  1
  H  H11  1  0.82896500  0.88308600  0.65427600  1
  H  H12  1  0.72787900  0.30526800  0.82299300  1
  H  H13  1  0.27432400  0.78072900  0.26839800  1
  H  H14  1  0.81733800  0.73819800  0.50981200  1
  H  H15  1  0.12175700  0.30141400  0.10455600  1
  H  H16  1  0.92880800  0.69659500  0.26783900  1
  H  H17  1  0.55684400  0.26533200  0.78948200  1
  H  H18  1  0.41947800  0.76318100  0.73926500  1
  H  H19  1  0.05827500  0.24744200  0.13688800  1
  H  H20  1  0.30104800  0.84356700  0.70940100  1
  H  H21  1  0.79133600  0.55427200  0.28530500  1
  H  H22  1  0.65735100  0.42241300  0.77199200  1
  H  H23  1  0.28022700  0.04116200  0.19280100  1
  N  N0  1  0.64957500  0.32378400  0.73973200  1
  N  N1  1  0.32825100  0.77169100  0.78749300  1
  N  N2  1  0.82288100  0.65800600  0.28221600  1
  N  N3  1  0.35857500  0.10951700  0.11778900  1
  N  N4  1  0.33394700  0.73197400  0.19260600  1
  N  N5  1  0.64213900  0.31543300  0.31794800  1
  N  N6  1  0.17218800  0.48985000  0.82691700  1
  N  N7  1  0.82752300  0.78507500  0.64942700  1
  Cl  Cl0  1  0.17699800  0.89102600  0.40663100  1
  Cl  Cl1  1  0.76492900  0.24713700  0.23516100  1
  Cl  Cl2  1  0.28582100  0.09831400  0.89140200  1
  Cl  Cl3  1  0.60746500  0.65999600  0.78510300  1
  Cl  Cl4  1  0.94208100  0.15506100  0.66854300  1
  Cl  Cl5  1  0.18864100  0.61157800  0.68498200  1
  Cl  Cl6  1  0.67559300  0.91005000  0.27435000  1
  Cl  Cl7  1  0.33203800  0.34448000  0.47526600  1
loop_
_geom_bond_atom_site_label_1
_geom_bond_atom_site_label_2
_geom_bond_distance
_geom_bond_site_symmetry_2
H0 N4 1.066915 1_555
H1 N5 1.056045 1_555
H3 N2 1.022714 1_555
H5 N4 1.032329 1_555
H6 N5 1.035771 1_555
H7 N7 1.014695 1_555
H9 N6 1.036816 1_555
H10 N4 1.025627 1_555
H11 N7 1.020635 1_555
H12 N0 1.021667 1_555
H13 N4 1.068998 1_555
H14 N7 1.058965 1_555
H15 H19 0.751203 1_555
H16 N2 1.023777 1_555
H17 N0 1.021789 1_555
H18 N1 1.035215 1_555
H20 N1 1.036194 1_555
H21 N2 1.024308 1_555
H22 N0 1.026463 1_555
H23 N3 1.051931 1_555
Cl0 H13 2.019073 1_555
Cl0 H23 2.234563 1_565
Cl0 H20 2.518050 1_555
Cl0 H16 2.737477 1_455
Cl1 N5 1.752067 1_555
Cl1 H8 2.039363 1_555
Cl1 H1 2.271969 1_555
Cl2 N3 1.672517 1_556
Cl2 H23 2.190829 1_556
Cl3 N7 2.440718 1_555
Cl3 H18 2.491092 1_555
Cl3 H22 2.699819 1_555
Cl3 H3 2.963142 1_556
Cl4 H4 1.288968 1_655
Cl5 N6 1.600915 1_555
Cl5 N1 1.874590 1_555
Cl5 H9 2.097780 1_555
Cl6 H8 1.330943 1_565
Cl7 H2 1.289970 1_555
