# generated using pymatgen
data_Pu3Np
_symmetry_space_group_name_H-M   'P 1'
_cell_length_a   5.49705022
_cell_length_b   5.49705022
_cell_length_c   5.49705022
_cell_angle_alpha   131.42966602
_cell_angle_beta   131.42966602
_cell_angle_gamma   71.13131282
_symmetry_Int_Tables_number   1
_chemical_formula_structural   Pu3Np
_chemical_formula_sum   'Pu3 Np1'
_cell_volume   91.42216905
_cell_formula_units_Z   1
loop_
 _symmetry_equiv_pos_site_id
 _symmetry_equiv_pos_as_xyz
  1  'x, y, z'
loop_
 _atom_site_type_symbol
 _atom_site_label
 _atom_site_symmetry_multiplicity
 _atom_site_fract_x
 _atom_site_fract_y
 _atom_site_fract_z
 _atom_site_occupancy
  Pu  Pu0  1  0.75000000  0.25000000  0.50000000  1
  Pu  Pu1  1  0.25000000  0.75000000  0.50000000  1
  Pu  Pu2  1  0.50000000  0.50000000  0.00000000  1
  Np  Np0  1  0.00000000  0.00000000  0.00000000  1
loop_
_geom_bond_atom_site_label_1
_geom_bond_atom_site_label_2
_geom_bond_distance
_geom_bond_site_symmetry_2
Pu0 Pu2 3.179629 1_556
Pu0 Pu2 3.179629 1_555
Pu0 Pu2 3.179629 1_656
Pu0 Pu2 3.179629 1_545
Pu0 Pu1 3.197279 1_555
Pu0 Pu1 3.197279 1_656
Pu0 Pu1 3.197279 1_544
Pu0 Pu1 3.197279 1_645
Pu1 Pu2 3.179629 1_556
Pu1 Pu2 3.179629 1_555
Pu1 Pu2 3.179629 1_566
Pu1 Pu2 3.179629 1_455
Np0 Pu0 3.179629 1_444
Np0 Pu1 3.179629 1_545
Np0 Pu1 3.179629 1_444
Np0 Pu0 3.179629 1_454
Np0 Pu1 3.179629 1_544
Np0 Pu0 3.179629 1_455
Np0 Pu0 3.179629 1_555
Np0 Pu1 3.179629 1_555
Np0 Pu2 3.197279 1_455
Np0 Pu2 3.197279 1_556
Np0 Pu2 3.197279 1_444
Np0 Pu2 3.197279 1_545
