# generated using pymatgen
data_LaSO5
_symmetry_space_group_name_H-M   'P 1'
_cell_length_a   12.82289299
_cell_length_b   4.62873481
_cell_length_c   7.08718184
_cell_angle_alpha   68.02242404
_cell_angle_beta   90.00000000
_cell_angle_gamma   90.00000000
_symmetry_Int_Tables_number   1
_chemical_formula_structural   LaSO5
_chemical_formula_sum   'La4 S4 O20'
_cell_volume   390.08242870
_cell_formula_units_Z   4
loop_
 _symmetry_equiv_pos_site_id
 _symmetry_equiv_pos_as_xyz
  1  'x, y, z'
loop_
 _atom_site_type_symbol
 _atom_site_label
 _atom_site_symmetry_multiplicity
 _atom_site_fract_x
 _atom_site_fract_y
 _atom_site_fract_z
 _atom_site_occupancy
  La  La0  1  0.42813411  0.16094398  0.20063806  1
  La  La1  1  0.07186589  0.16094398  0.70063806  1
  La  La2  1  0.57186589  0.83905602  0.79936194  1
  La  La3  1  0.92813411  0.83905602  0.29936194  1
  S  S0  1  0.14174814  0.39436570  0.12363837  1
  S  S1  1  0.35825186  0.39436570  0.62363837  1
  S  S2  1  0.85825186  0.60563430  0.87636163  1
  S  S3  1  0.64174814  0.60563430  0.37636163  1
  O  O0  1  0.24022306  0.23376660  0.19659641  1
  O  O1  1  0.25977694  0.23376660  0.69659641  1
  O  O2  1  0.75977694  0.76623340  0.80340359  1
  O  O3  1  0.74022306  0.76623340  0.30340359  1
  O  O4  1  0.57035685  0.25737715  0.94426325  1
  O  O5  1  0.92964315  0.25737715  0.44426325  1
  O  O6  1  0.42964315  0.74262285  0.05573675  1
  O  O7  1  0.07035685  0.74262285  0.55573675  1
  O  O8  1  0.34189924  0.68316529  0.45107990  1
  O  O9  1  0.15810076  0.68316529  0.95107990  1
  O  O10  1  0.65810076  0.31683471  0.54892010  1
  O  O11  1  0.84189924  0.31683471  0.04892010  1
  O  O12  1  0.42911338  0.18731723  0.56254175  1
  O  O13  1  0.07088662  0.18731723  0.06254175  1
  O  O14  1  0.57088662  0.81268277  0.43745825  1
  O  O15  1  0.92911338  0.81268277  0.93745825  1
  O  O16  1  0.58994968  0.54544120  0.20632582  1
  O  O17  1  0.91005032  0.54544120  0.70632582  1
  O  O18  1  0.41005032  0.45455880  0.79367418  1
  O  O19  1  0.08994968  0.45455880  0.29367418  1
loop_
_geom_bond_atom_site_label_1
_geom_bond_atom_site_label_2
_geom_bond_distance
_geom_bond_site_symmetry_2
La0 O0 2.431709 1_555
La0 O4 2.493892 1_554
La0 O6 2.496929 1_555
La0 O6 2.508500 1_545
La0 O8 2.515130 1_545
La0 O14 2.596382 1_545
La0 O12 2.613046 1_555
La0 O18 2.699192 1_554
La0 O16 2.743752 1_555
La1 O1 2.431709 1_555
La1 O5 2.493892 1_455
La1 O7 2.496929 1_555
La1 O7 2.508500 1_545
La1 O9 2.515130 1_545
La1 O15 2.596382 1_445
La1 O13 2.613046 1_556
La1 O19 2.699192 1_555
La1 O17 2.743752 1_455
La2 O2 2.431709 1_555
La2 O6 2.493892 1_556
La2 O4 2.496929 1_555
La2 O4 2.508500 1_565
La2 O10 2.515130 1_565
La2 O12 2.596382 1_565
La2 O14 2.613046 1_555
La2 O16 2.699192 1_556
La2 O18 2.743752 1_555
La3 O3 2.431709 1_555
La3 O7 2.493892 1_655
La3 O5 2.496929 1_555
La3 O5 2.508500 1_565
La3 O11 2.515130 1_565
La3 O13 2.596382 1_665
La3 O15 2.613046 1_554
La3 O17 2.699192 1_555
La3 O19 2.743752 1_655
O0 S0 1.458340 1_555
O0 O6 3.268637 1_555
O1 S1 1.458340 1_555
O1 O7 3.268637 1_555
O2 S2 1.458340 1_555
O2 O4 3.268637 1_555
O3 S3 1.458340 1_555
O3 O5 3.268637 1_555
O4 O6 2.854469 1_546
O5 O7 2.854469 1_645
O6 O8 2.935126 1_555
O7 O9 2.935126 1_555
O8 S1 1.450144 1_555
O9 S0 1.450144 1_556
O10 S3 1.450144 1_555
O10 O4 2.935126 1_555
O11 S2 1.450144 1_554
O11 O5 2.935126 1_555
O12 S1 1.497404 1_555
O13 S0 1.497404 1_555
O14 S3 1.497404 1_555
O15 S2 1.497404 1_555
O16 S3 1.490742 1_555
O16 O6 2.338467 1_555
O16 O4 2.672845 1_554
O16 O4 3.129054 1_564
O17 S2 1.490742 1_555
O17 O7 2.338467 1_655
O17 O5 2.672845 1_555
O17 O5 3.129054 1_565
O18 S1 1.490742 1_555
O18 O4 2.338467 1_555
O18 O6 2.672845 1_556
O18 O6 3.129054 1_546
O19 S0 1.490742 1_555
O19 O5 2.338467 1_455
O19 O7 2.672845 1_555
O19 O7 3.129054 1_545
