# generated using pymatgen
data_PrCo5H4
_symmetry_space_group_name_H-M   'P 1'
_cell_length_a   5.19640492
_cell_length_b   5.19640492
_cell_length_c   4.03948200
_cell_angle_alpha   90.00000000
_cell_angle_beta   90.00000000
_cell_angle_gamma   116.47802374
_symmetry_Int_Tables_number   1
_chemical_formula_structural   PrCo5H4
_chemical_formula_sum   'Pr1 Co5 H4'
_cell_volume   97.63507039
_cell_formula_units_Z   1
loop_
 _symmetry_equiv_pos_site_id
 _symmetry_equiv_pos_as_xyz
  1  'x, y, z'
loop_
 _atom_site_type_symbol
 _atom_site_label
 _atom_site_symmetry_multiplicity
 _atom_site_fract_x
 _atom_site_fract_y
 _atom_site_fract_z
 _atom_site_occupancy
  Pr  Pr0  1  0.50000000  0.50000000  0.50000000  1
  Co  Co0  1  0.86460800  0.13539200  0.50000000  1
  Co  Co1  1  0.13539200  0.86460800  0.50000000  1
  Co  Co2  1  0.00000000  0.50000000  0.00000000  1
  Co  Co3  1  0.50000000  0.00000000  0.00000000  1
  Co  Co4  1  0.00000000  0.00000000  0.00000000  1
  H  H0  1  0.64456100  0.35543900  0.00000000  1
  H  H1  1  0.35543900  0.64456100  0.00000000  1
  H  H2  1  0.00000000  0.50000000  0.50000000  1
  H  H3  1  0.50000000  0.00000000  0.50000000  1
loop_
_geom_bond_atom_site_label_1
_geom_bond_atom_site_label_2
_geom_bond_distance
_geom_bond_site_symmetry_2
Co0 H3 1.701779 1_555
Co0 H2 1.701779 1_655
Co0 Co4 2.347489 1_656
Co0 Co4 2.347489 1_655
Co0 Co1 2.392783 1_645
Co0 Pr0 2.985472 1_545
Co0 Pr0 2.985472 1_655
Co1 H2 1.701779 1_555
Co1 H3 1.701779 1_565
Co1 Co4 2.347489 1_566
Co1 Co4 2.347489 1_565
Co1 Pr0 2.985472 1_455
Co1 Pr0 2.985472 1_565
Co2 H1 1.654844 1_555
Co2 H0 1.654844 1_455
Co2 H2 2.019741 1_555
Co2 H2 2.019741 1_554
Co2 Co4 2.598202 1_555
Co2 Co4 2.598202 1_565
Co3 H0 1.654844 1_555
Co3 H1 1.654844 1_545
Co3 H3 2.019741 1_555
Co3 H3 2.019741 1_554
Co3 Co4 2.598202 1_555
Co3 Co4 2.598202 1_655
H0 Pr0 2.389799 1_555
H0 Pr0 2.389799 1_554
H1 Pr0 2.389799 1_555
H1 Pr0 2.389799 1_554
H2 Pr0 2.598202 1_555
H2 Pr0 2.598202 1_455
H3 Pr0 2.598202 1_555
H3 Pr0 2.598202 1_545
