# generated using pymatgen
data_Er2Al3Co
_symmetry_space_group_name_H-M   'P 1'
_cell_length_a   5.30842991
_cell_length_b   5.30842991
_cell_length_c   5.30842953
_cell_angle_alpha   61.66140982
_cell_angle_beta   61.66140982
_cell_angle_gamma   61.66141393
_symmetry_Int_Tables_number   1
_chemical_formula_structural   Er2Al3Co
_chemical_formula_sum   'Er2 Al3 Co1'
_cell_volume   109.71538339
_cell_formula_units_Z   1
loop_
 _symmetry_equiv_pos_site_id
 _symmetry_equiv_pos_as_xyz
  1  'x, y, z'
loop_
 _atom_site_type_symbol
 _atom_site_label
 _atom_site_symmetry_multiplicity
 _atom_site_fract_x
 _atom_site_fract_y
 _atom_site_fract_z
 _atom_site_occupancy
  Er  Er0  1  0.62680900  0.62680900  0.62680900  1
  Er  Er1  1  0.37319100  0.37319100  0.37319100  1
  Al  Al0  1  0.00000000  0.50000000  0.00000000  1
  Al  Al1  1  0.50000000  0.00000000  0.00000000  1
  Al  Al2  1  0.00000000  0.00000000  0.50000000  1
  Co  Co0  1  0.00000000  0.00000000  0.00000000  1
loop_
_geom_bond_atom_site_label_1
_geom_bond_atom_site_label_2
_geom_bond_distance
_geom_bond_site_symmetry_2
Er0 Er1 3.255765 1_555
Er0 Er1 3.303935 1_556
Er0 Er1 3.303936 1_565
Er0 Er1 3.303936 1_655
Al0 Co0 2.654215 1_565
Al0 Co0 2.654215 1_555
Al0 Al2 2.720587 1_564
Al0 Al2 2.720587 1_555
Al0 Al1 2.720587 1_465
Al0 Al1 2.720587 1_555
Al0 Er1 3.081577 1_555
Al0 Er0 3.081577 1_454
Al0 Er0 3.170425 1_455
Al0 Er1 3.170425 1_554
Al0 Er1 3.170425 1_455
Al0 Er0 3.170425 1_554
Al1 Co0 2.654215 1_655
Al1 Co0 2.654215 1_555
Al1 Al2 2.720587 1_654
Al1 Al2 2.720587 1_555
Al1 Er1 3.081577 1_555
Al1 Er0 3.081577 1_544
Al1 Er0 3.170425 1_545
Al1 Er1 3.170425 1_554
Al1 Er1 3.170425 1_545
Al1 Er0 3.170425 1_554
Al2 Co0 2.654215 1_556
Al2 Co0 2.654215 1_555
Al2 Er1 3.081577 1_555
Al2 Er0 3.081577 1_445
Al2 Er1 3.170425 1_455
Al2 Er0 3.170425 1_455
Al2 Er0 3.170425 1_545
Al2 Er1 3.170425 1_545
Co0 Er1 3.182859 1_554
Co0 Er0 3.182859 1_445
Co0 Er1 3.182859 1_455
Co0 Er0 3.182859 1_544
Co0 Er1 3.182859 1_545
Co0 Er0 3.182859 1_454
