# generated using pymatgen
data_BaLaMnSbO6
_symmetry_space_group_name_H-M   'P 1'
_cell_length_a   5.80112100
_cell_length_b   8.37438300
_cell_length_c   5.80110600
_cell_angle_alpha   90.00001672
_cell_angle_beta   89.99994074
_cell_angle_gamma   89.99995972
_symmetry_Int_Tables_number   1
_chemical_formula_structural   BaLaMnSbO6
_chemical_formula_sum   'Ba2 La2 Mn2 Sb2 O12'
_cell_volume   281.82242306
_cell_formula_units_Z   2
loop_
 _symmetry_equiv_pos_site_id
 _symmetry_equiv_pos_as_xyz
  1  'x, y, z'
loop_
 _atom_site_type_symbol
 _atom_site_label
 _atom_site_symmetry_multiplicity
 _atom_site_fract_x
 _atom_site_fract_y
 _atom_site_fract_z
 _atom_site_occupancy
  Ba  Ba0  1  0.50000000  0.74999800  0.00000000  1
  Ba  Ba1  1  0.00000000  0.25000200  0.50000000  1
  La  La0  1  0.99999900  0.74999900  0.49999900  1
  La  La1  1  0.49999900  0.25000100  0.00000200  1
  Mn  Mn0  1  0.49999900  0.00000500  0.49999900  1
  Mn  Mn1  1  0.00000100  0.49999300  0.99999700  1
  Sb  Sb0  1  0.00000000  0.00000000  0.00000000  1
  Sb  Sb1  1  0.50000000  0.50000000  0.50000000  1
  O  O0  1  0.00000000  0.24092300  0.00000000  1
  O  O1  1  0.50000000  0.74089800  0.50000000  1
  O  O2  1  0.00000000  0.75907700  0.00000000  1
  O  O3  1  0.50000000  0.25910200  0.50000000  1
  O  O4  1  0.18296200  0.97749700  0.70396900  1
  O  O5  1  0.68299500  0.47750500  0.20395200  1
  O  O6  1  0.31700500  0.47750500  0.79604800  1
  O  O7  1  0.81703800  0.97749800  0.29603200  1
  O  O8  1  0.70396800  0.02250300  0.81703800  1
  O  O9  1  0.20395300  0.52249500  0.31700500  1
  O  O10  1  0.79604800  0.52249600  0.68299600  1
  O  O11  1  0.29603200  0.02250300  0.18296200  1
loop_
_geom_bond_atom_site_label_1
_geom_bond_atom_site_label_2
_geom_bond_distance
_geom_bond_site_symmetry_2
Ba0 O5 2.781030 1_555
Ba0 O6 2.781030 1_554
Ba0 O11 2.781077 1_565
Ba0 O8 2.781079 1_564
Ba0 O1 2.901554 1_554
Ba0 O1 2.901554 1_555
Ba0 O2 2.901557 1_555
Ba0 O2 2.901557 1_655
Ba0 O10 3.156114 1_554
Ba0 O9 3.156121 1_555
Ba0 O4 3.156163 1_554
Ba0 O7 3.156172 1_555
Ba1 O9 2.781033 1_555
Ba1 O10 2.781038 1_455
Ba1 O7 2.781072 1_445
Ba1 O4 2.781081 1_545
Ba1 O0 2.901549 1_555
Ba1 O0 2.901549 1_556
Ba1 O3 2.901561 1_455
Ba1 O3 2.901561 1_555
Ba1 O5 3.156125 1_455
Ba1 O6 3.156126 1_555
Ba1 O11 3.156163 1_555
Ba1 O8 3.156165 1_455
La0 O7 2.481173 1_555
La0 O4 2.481180 1_655
La0 O10 2.481244 1_555
La0 O9 2.481250 1_655
La0 O2 2.901543 1_655
La0 O2 2.901555 1_656
La0 O1 2.901556 1_555
La0 O1 2.901567 1_655
La1 O11 2.481164 1_555
La1 O8 2.481178 1_554
La1 O5 2.481245 1_555
La1 O6 2.481251 1_554
La1 O3 2.901543 1_555
La1 O0 2.901551 1_555
La1 O0 2.901562 1_655
La1 O3 2.901566 1_554
Mn0 O3 2.169778 1_555
Mn0 O1 2.169861 1_545
Mn0 O11 2.195013 1_555
Mn0 O8 2.195029 1_555
Mn0 O7 2.195029 1_545
Mn0 O4 2.195030 1_545
Mn1 O0 2.169551 1_556
Mn1 O2 2.169669 1_556
Mn1 O6 2.194789 1_555
Mn1 O10 2.194798 1_455
Mn1 O5 2.194818 1_456
Mn1 O9 2.194828 1_556
O0 Sb0 2.017581 1_555
O0 O11 2.724232 1_555
O0 O8 2.724233 1_454
O1 Sb1 2.017372 1_555
O1 O10 2.724266 1_555
O1 O9 2.724267 1_555
O2 Sb0 2.017581 1_565
O2 O4 2.724226 1_554
O2 O7 2.724234 1_455
O3 Sb1 2.017372 1_555
O3 O6 2.724266 1_555
O3 O5 2.724267 1_555
O4 Sb0 2.027607 1_566
O5 Sb1 2.027785 1_555
O6 Sb1 2.027785 1_555
O7 Sb0 2.027611 1_665
O8 Sb0 2.027616 1_656
O9 Sb1 2.027784 1_555
O10 Sb1 2.027793 1_555
O11 Sb0 2.027616 1_555
