# generated using pymatgen
data_MgPH6NO5
_symmetry_space_group_name_H-M   'P 1'
_cell_length_a   5.39891300
_cell_length_b   7.18060900
_cell_length_c   10.28264500
_cell_angle_alpha   90.00000000
_cell_angle_beta   90.00000000
_cell_angle_gamma   90.00000000
_symmetry_Int_Tables_number   1
_chemical_formula_structural   MgPH6NO5
_chemical_formula_sum   'Mg2 P2 H12 N2 O10'
_cell_volume   398.63226809
_cell_formula_units_Z   2
loop_
 _symmetry_equiv_pos_site_id
 _symmetry_equiv_pos_as_xyz
  1  'x, y, z'
loop_
 _atom_site_type_symbol
 _atom_site_label
 _atom_site_symmetry_multiplicity
 _atom_site_fract_x
 _atom_site_fract_y
 _atom_site_fract_z
 _atom_site_occupancy
  Mg  Mg0  1  0.42968300  0.00000000  0.43569600  1
  Mg  Mg1  1  0.92968300  0.50000000  0.56430400  1
  P  P0  1  0.01076600  0.00000000  0.31014800  1
  P  P1  1  0.51076600  0.50000000  0.68985200  1
  H  H0  1  0.67941400  0.00000000  0.02260200  1
  H  H1  1  0.17941300  0.50000000  0.97739800  1
  H  H2  1  0.05957400  0.38389800  0.34939900  1
  H  H3  1  0.55957400  0.11610200  0.65060100  1
  H  H4  1  0.55957400  0.88389800  0.65060100  1
  H  H5  1  0.05957400  0.61610200  0.34939900  1
  H  H6  1  0.17822600  0.00000000  0.11479600  1
  H  H7  1  0.67822600  0.50000000  0.88520400  1
  H  H8  1  0.53545600  0.44775000  0.15537000  1
  H  H9  1  0.03545600  0.05225000  0.84463000  1
  H  H10  1  0.03545600  0.94775000  0.84463000  1
  H  H11  1  0.53545600  0.55225000  0.15537000  1
  N  N0  1  0.49206300  0.00000000  0.04779100  1
  N  N1  1  0.99206300  0.50000000  0.95220900  1
  O  O0  1  0.46600900  0.00000000  0.62661600  1
  O  O1  1  0.96600900  0.50000000  0.37338400  1
  O  O2  1  0.01004400  0.00000000  0.15374100  1
  O  O3  1  0.51004400  0.50000000  0.84625900  1
  O  O4  1  0.16333700  0.16900700  0.36089000  1
  O  O5  1  0.66333700  0.33099300  0.63911000  1
  O  O6  1  0.66333700  0.66900700  0.63911000  1
  O  O7  1  0.16333700  0.83099300  0.36089000  1
  O  O8  1  0.74066200  0.00000000  0.34792100  1
  O  O9  1  0.24066200  0.50000000  0.65207900  1
loop_
_geom_bond_atom_site_label_1
_geom_bond_atom_site_label_2
_geom_bond_distance
_geom_bond_site_symmetry_2
Mg0 O8 1.906169 1_555
Mg0 O0 1.972935 1_555
Mg0 O4 2.032786 1_555
Mg0 O7 2.032786 1_545
Mg1 O9 1.906169 1_655
Mg1 O1 1.972935 1_555
Mg1 O6 2.032786 1_555
Mg1 O5 2.032786 1_555
H0 N0 1.044127 1_555
H1 N1 1.044122 1_455
H2 O1 1.005500 1_455
H2 O4 1.645841 1_555
H3 O0 1.005500 1_555
H3 O5 1.645841 1_555
H4 O0 1.005500 1_565
H4 O6 1.645841 1_555
H5 O1 1.005500 1_455
H5 O7 1.645841 1_555
H6 O2 0.992386 1_555
H7 O3 0.992386 1_555
H10 H9 0.750374 1_565
H11 H8 0.750374 1_555
O2 P0 1.608282 1_555
O3 P1 1.608282 1_555
O4 P0 1.556761 1_555
O5 P1 1.556761 1_555
O6 P1 1.556761 1_555
O7 P0 1.556761 1_565
O8 P0 1.509107 1_655
O9 P1 1.509107 1_555
