# generated using pymatgen
data_Zr3Tl2(CuSe4)2
_symmetry_space_group_name_H-M   'P 1'
_cell_length_a   15.37831958
_cell_length_b   15.37831958
_cell_length_c   29.06831748
_cell_angle_alpha   66.36673968
_cell_angle_beta   66.36673968
_cell_angle_gamma   29.06284213
_symmetry_Int_Tables_number   1
_chemical_formula_structural   Zr3Tl2(CuSe4)2
_chemical_formula_sum   'Zr24 Tl16 Cu16 Se64'
_cell_volume   3039.57359595
_cell_formula_units_Z   8
loop_
 _symmetry_equiv_pos_site_id
 _symmetry_equiv_pos_as_xyz
  1  'x, y, z'
loop_
 _atom_site_type_symbol
 _atom_site_label
 _atom_site_symmetry_multiplicity
 _atom_site_fract_x
 _atom_site_fract_y
 _atom_site_fract_z
 _atom_site_occupancy
  Zr  Zr0_0  1  0.00000000  0.00000000  0.00000000  1
  Zr  Zr0_1  1  0.00000000  0.00000000  0.50000000  1
  Zr  Zr0_2  1  0.00000000  0.50000000  0.00000000  1
  Zr  Zr0_3  1  0.00000000  0.50000000  0.50000000  1
  Zr  Zr0_4  1  0.50000000  0.00000000  0.00000000  1
  Zr  Zr0_5  1  0.50000000  0.00000000  0.50000000  1
  Zr  Zr0_6  1  0.50000000  0.50000000  0.00000000  1
  Zr  Zr0_7  1  0.50000000  0.50000000  0.50000000  1
  Zr  Zr1_0  1  0.42275450  0.42275450  0.19011850  1
  Zr  Zr1_1  1  0.42275450  0.42275450  0.69011850  1
  Zr  Zr1_2  1  0.42275450  0.92275450  0.19011850  1
  Zr  Zr1_3  1  0.42275450  0.92275450  0.69011850  1
  Zr  Zr1_4  1  0.92275450  0.42275450  0.19011850  1
  Zr  Zr1_5  1  0.92275450  0.42275450  0.69011850  1
  Zr  Zr1_6  1  0.92275450  0.92275450  0.19011850  1
  Zr  Zr1_7  1  0.92275450  0.92275450  0.69011850  1
  Zr  Zr2_0  1  0.07724550  0.07724550  0.30988150  1
  Zr  Zr2_1  1  0.07724550  0.07724550  0.80988150  1
  Zr  Zr2_2  1  0.07724550  0.57724550  0.30988150  1
  Zr  Zr2_3  1  0.07724550  0.57724550  0.80988150  1
  Zr  Zr2_4  1  0.57724550  0.07724550  0.30988150  1
  Zr  Zr2_5  1  0.57724550  0.07724550  0.80988150  1
  Zr  Zr2_6  1  0.57724550  0.57724550  0.30988150  1
  Zr  Zr2_7  1  0.57724550  0.57724550  0.80988150  1
  Tl  Tl0_0  1  0.41579900  0.41579900  0.40077850  1
  Tl  Tl0_1  1  0.41579900  0.41579900  0.90077850  1
  Tl  Tl0_2  1  0.41579900  0.91579900  0.40077850  1
  Tl  Tl0_3  1  0.41579900  0.91579900  0.90077850  1
  Tl  Tl0_4  1  0.91579900  0.41579900  0.40077850  1
  Tl  Tl0_5  1  0.91579900  0.41579900  0.90077850  1
  Tl  Tl0_6  1  0.91579900  0.91579900  0.40077850  1
  Tl  Tl0_7  1  0.91579900  0.91579900  0.90077850  1
  Tl  Tl1_0  1  0.08420100  0.08420100  0.09922150  1
  Tl  Tl1_1  1  0.08420100  0.08420100  0.59922150  1
  Tl  Tl1_2  1  0.08420100  0.58420100  0.09922150  1
  Tl  Tl1_3  1  0.08420100  0.58420100  0.59922150  1
  Tl  Tl1_4  1  0.58420100  0.08420100  0.09922150  1
  Tl  Tl1_5  1  0.58420100  0.08420100  0.59922150  1
  Tl  Tl1_6  1  0.58420100  0.58420100  0.09922150  1
  Tl  Tl1_7  1  0.58420100  0.58420100  0.59922150  1
  Cu  Cu0_0  1  0.22864350  0.22864350  0.09897750  1
  Cu  Cu0_1  1  0.22864350  0.22864350  0.59897750  1
  Cu  Cu0_2  1  0.22864350  0.72864350  0.09897750  1
  Cu  Cu0_3  1  0.22864350  0.72864350  0.59897750  1
  Cu  Cu0_4  1  0.72864350  0.22864350  0.09897750  1
  Cu  Cu0_5  1  0.72864350  0.22864350  0.59897750  1
  Cu  Cu0_6  1  0.72864350  0.72864350  0.09897750  1
  Cu  Cu0_7  1  0.72864350  0.72864350  0.59897750  1
  Cu  Cu1_0  1  0.27135650  0.27135650  0.40102250  1
  Cu  Cu1_1  1  0.27135650  0.27135650  0.90102250  1
  Cu  Cu1_2  1  0.27135650  0.77135650  0.40102250  1
  Cu  Cu1_3  1  0.27135650  0.77135650  0.90102250  1
  Cu  Cu1_4  1  0.77135650  0.27135650  0.40102250  1
  Cu  Cu1_5  1  0.77135650  0.27135650  0.90102250  1
  Cu  Cu1_6  1  0.77135650  0.77135650  0.40102250  1
  Cu  Cu1_7  1  0.77135650  0.77135650  0.90102250  1
  Se  Se0_0  1  0.42754850  0.42754850  0.09535500  1
  Se  Se0_1  1  0.42754850  0.42754850  0.59535500  1
  Se  Se0_2  1  0.42754850  0.92754850  0.09535500  1
  Se  Se0_3  1  0.42754850  0.92754850  0.59535500  1
  Se  Se0_4  1  0.92754850  0.42754850  0.09535500  1
  Se  Se0_5  1  0.92754850  0.42754850  0.59535500  1
  Se  Se0_6  1  0.92754850  0.92754850  0.09535500  1
  Se  Se0_7  1  0.92754850  0.92754850  0.59535500  1
  Se  Se1_0  1  0.07245150  0.07245150  0.40464500  1
  Se  Se1_1  1  0.07245150  0.07245150  0.90464500  1
  Se  Se1_2  1  0.07245150  0.57245150  0.40464500  1
  Se  Se1_3  1  0.07245150  0.57245150  0.90464500  1
  Se  Se1_4  1  0.57245150  0.07245150  0.40464500  1
  Se  Se1_5  1  0.57245150  0.07245150  0.90464500  1
  Se  Se1_6  1  0.57245150  0.57245150  0.40464500  1
  Se  Se1_7  1  0.57245150  0.57245150  0.90464500  1
  Se  Se2_0  1  0.39813200  0.39813200  0.29074150  1
  Se  Se2_1  1  0.39813200  0.39813200  0.79074150  1
  Se  Se2_2  1  0.39813200  0.89813200  0.29074150  1
  Se  Se2_3  1  0.39813200  0.89813200  0.79074150  1
  Se  Se2_4  1  0.89813200  0.39813200  0.29074150  1
  Se  Se2_5  1  0.89813200  0.39813200  0.79074150  1
  Se  Se2_6  1  0.89813200  0.89813200  0.29074150  1
  Se  Se2_7  1  0.89813200  0.89813200  0.79074150  1
  Se  Se3_0  1  0.10186800  0.10186800  0.20925850  1
  Se  Se3_1  1  0.10186800  0.10186800  0.70925850  1
  Se  Se3_2  1  0.10186800  0.60186800  0.20925850  1
  Se  Se3_3  1  0.10186800  0.60186800  0.70925850  1
  Se  Se3_4  1  0.60186800  0.10186800  0.20925850  1
  Se  Se3_5  1  0.60186800  0.10186800  0.70925850  1
  Se  Se3_6  1  0.60186800  0.60186800  0.20925850  1
  Se  Se3_7  1  0.60186800  0.60186800  0.70925850  1
  Se  Se4_0  1  0.24145300  0.24145300  0.17644400  1
  Se  Se4_1  1  0.24145300  0.24145300  0.67644400  1
  Se  Se4_2  1  0.24145300  0.74145300  0.17644400  1
  Se  Se4_3  1  0.24145300  0.74145300  0.67644400  1
  Se  Se4_4  1  0.74145300  0.24145300  0.17644400  1
  Se  Se4_5  1  0.74145300  0.24145300  0.67644400  1
  Se  Se4_6  1  0.74145300  0.74145300  0.17644400  1
  Se  Se4_7  1  0.74145300  0.74145300  0.67644400  1
  Se  Se5_0  1  0.25854700  0.25854700  0.32355600  1
  Se  Se5_1  1  0.25854700  0.25854700  0.82355600  1
  Se  Se5_2  1  0.25854700  0.75854700  0.32355600  1
  Se  Se5_3  1  0.25854700  0.75854700  0.82355600  1
  Se  Se5_4  1  0.75854700  0.25854700  0.32355600  1
  Se  Se5_5  1  0.75854700  0.25854700  0.82355600  1
  Se  Se5_6  1  0.75854700  0.75854700  0.32355600  1
  Se  Se5_7  1  0.75854700  0.75854700  0.82355600  1
  Se  Se6_0  1  0.30367250  0.30367250  0.02105550  1
  Se  Se6_1  1  0.30367250  0.30367250  0.52105550  1
  Se  Se6_2  1  0.30367250  0.80367250  0.02105550  1
  Se  Se6_3  1  0.30367250  0.80367250  0.52105550  1
  Se  Se6_4  1  0.80367250  0.30367250  0.02105550  1
  Se  Se6_5  1  0.80367250  0.30367250  0.52105550  1
  Se  Se6_6  1  0.80367250  0.80367250  0.02105550  1
  Se  Se6_7  1  0.80367250  0.80367250  0.52105550  1
  Se  Se7_0  1  0.19632750  0.19632750  0.47894450  1
  Se  Se7_1  1  0.19632750  0.19632750  0.97894450  1
  Se  Se7_2  1  0.19632750  0.69632750  0.47894450  1
  Se  Se7_3  1  0.19632750  0.69632750  0.97894450  1
  Se  Se7_4  1  0.69632750  0.19632750  0.47894450  1
  Se  Se7_5  1  0.69632750  0.19632750  0.97894450  1
  Se  Se7_6  1  0.69632750  0.69632750  0.47894450  1
  Se  Se7_7  1  0.69632750  0.69632750  0.97894450  1
loop_
_geom_bond_atom_site_label_1
_geom_bond_atom_site_label_2
_geom_bond_distance
_geom_bond_site_symmetry_2
Tl0_0 Tl0_6 3.858588 1_545
Tl0_0 Tl0_6 3.858588 1_455
Tl0_1 Tl0_7 3.858588 1_545
Tl0_1 Tl0_7 3.858588 1_455
Tl0_2 Tl0_4 3.858588 1_555
Tl0_2 Tl0_4 3.858588 1_465
Tl0_3 Tl0_5 3.858588 1_555
Tl0_3 Tl0_5 3.858588 1_465
Tl1_0 Tl1_6 3.858588 1_545
Tl1_0 Tl1_6 3.858588 1_455
Tl1_1 Tl1_7 3.858588 1_545
Tl1_1 Tl1_7 3.858588 1_455
Tl1_2 Tl1_4 3.858588 1_555
Tl1_2 Tl1_4 3.858588 1_465
Tl1_3 Tl1_5 3.858588 1_555
Tl1_3 Tl1_5 3.858588 1_465
Cu0_0 Se4_0 2.434633 1_555
Cu0_0 Se6_0 2.435094 1_555
Cu0_0 Se0_4 2.485982 1_455
Cu0_0 Se0_2 2.485982 1_545
Cu0_0 Zr1_2 3.139836 1_545
Cu0_0 Zr1_4 3.139836 1_455
Cu0_0 Tl1_2 3.690187 1_555
Cu0_0 Tl1_4 3.690187 1_555
Cu0_1 Se4_1 2.434633 1_555
Cu0_1 Se6_1 2.435094 1_555
Cu0_1 Se0_5 2.485982 1_455
Cu0_1 Se0_3 2.485982 1_545
Cu0_1 Zr1_5 3.139836 1_455
Cu0_1 Zr1_3 3.139836 1_545
Cu0_1 Tl1_3 3.690187 1_555
Cu0_1 Tl1_5 3.690187 1_555
Cu0_2 Se4_2 2.434633 1_555
Cu0_2 Se6_2 2.435094 1_555
Cu0_2 Se0_0 2.485982 1_555
Cu0_2 Se0_6 2.485982 1_455
Cu0_2 Zr1_0 3.139836 1_555
Cu0_2 Zr1_6 3.139836 1_455
Cu0_2 Tl1_0 3.690187 1_565
Cu0_2 Tl1_6 3.690187 1_555
Cu0_3 Se4_3 2.434633 1_555
Cu0_3 Se6_3 2.435094 1_555
Cu0_3 Se0_1 2.485982 1_555
Cu0_3 Se0_7 2.485982 1_455
Cu0_3 Zr1_1 3.139836 1_555
Cu0_3 Zr1_7 3.139836 1_455
Cu0_3 Tl1_7 3.690187 1_555
Cu0_3 Tl1_1 3.690187 1_565
Cu0_4 Se4_4 2.434633 1_555
Cu0_4 Se6_4 2.435094 1_555
Cu0_4 Se0_0 2.485982 1_555
Cu0_4 Se0_6 2.485982 1_545
Cu0_4 Zr1_0 3.139836 1_555
Cu0_4 Zr1_6 3.139836 1_545
Cu0_4 Tl1_6 3.690187 1_555
Cu0_4 Tl1_0 3.690187 1_655
Cu0_5 Se4_5 2.434633 1_555
Cu0_5 Se6_5 2.435094 1_555
Cu0_5 Se0_1 2.485982 1_555
Cu0_5 Se0_7 2.485982 1_545
Cu0_5 Zr1_1 3.139836 1_555
Cu0_5 Zr1_7 3.139836 1_545
Cu0_5 Tl1_7 3.690187 1_555
Cu0_5 Tl1_1 3.690187 1_655
Cu0_6 Se4_6 2.434633 1_555
Cu0_6 Se6_6 2.435094 1_555
Cu0_6 Se0_4 2.485982 1_555
Cu0_6 Se0_2 2.485982 1_555
Cu0_6 Zr1_4 3.139836 1_555
Cu0_6 Zr1_2 3.139836 1_555
Cu0_6 Tl1_2 3.690187 1_655
Cu0_6 Tl1_4 3.690187 1_565
Cu0_7 Se4_7 2.434633 1_555
Cu0_7 Se6_7 2.435094 1_555
Cu0_7 Se0_5 2.485982 1_555
Cu0_7 Se0_3 2.485982 1_555
Cu0_7 Zr1_5 3.139836 1_555
Cu0_7 Zr1_3 3.139836 1_555
Cu0_7 Tl1_3 3.690187 1_655
Cu0_7 Tl1_5 3.690187 1_565
Cu1_0 Se5_0 2.434633 1_555
Cu1_0 Se7_0 2.435094 1_555
Cu1_0 Se1_2 2.485982 1_555
Cu1_0 Se1_4 2.485982 1_555
Cu1_0 Zr2_2 3.139836 1_555
Cu1_0 Zr2_4 3.139836 1_555
Cu1_0 Tl0_4 3.690187 1_455
Cu1_0 Tl0_2 3.690187 1_545
Cu1_1 Se5_1 2.434633 1_555
Cu1_1 Se7_1 2.435094 1_555
Cu1_1 Se1_3 2.485982 1_555
Cu1_1 Se1_5 2.485982 1_555
Cu1_1 Zr2_5 3.139836 1_555
Cu1_1 Zr2_3 3.139836 1_555
Cu1_1 Tl0_5 3.690187 1_455
Cu1_1 Tl0_3 3.690187 1_545
Cu1_2 Se5_2 2.434633 1_555
Cu1_2 Se7_2 2.435094 1_555
Cu1_2 Se1_6 2.485982 1_555
Cu1_2 Se1_0 2.485982 1_565
Cu1_2 Zr2_6 3.139836 1_555
Cu1_2 Zr2_0 3.139836 1_565
Cu1_2 Tl0_0 3.690187 1_555
Cu1_2 Tl0_6 3.690187 1_455
Cu1_3 Se5_3 2.434633 1_555
Cu1_3 Se7_3 2.435094 1_555
Cu1_3 Se1_7 2.485982 1_555
Cu1_3 Se1_1 2.485982 1_565
Cu1_3 Zr2_7 3.139836 1_555
Cu1_3 Zr2_1 3.139836 1_565
Cu1_3 Tl0_1 3.690187 1_555
Cu1_3 Tl0_7 3.690187 1_455
Cu1_4 Se5_4 2.434633 1_555
Cu1_4 Se7_4 2.435094 1_555
Cu1_4 Se1_6 2.485982 1_555
Cu1_4 Se1_0 2.485982 1_655
Cu1_4 Zr2_6 3.139836 1_555
Cu1_4 Zr2_0 3.139836 1_655
Cu1_4 Tl0_0 3.690187 1_555
Cu1_4 Tl0_6 3.690187 1_545
Cu1_5 Se5_5 2.434633 1_555
Cu1_5 Se7_5 2.435094 1_555
Cu1_5 Se1_7 2.485982 1_555
Cu1_5 Se1_1 2.485982 1_655
Cu1_5 Zr2_7 3.139836 1_555
Cu1_5 Zr2_1 3.139836 1_655
Cu1_5 Tl0_1 3.690187 1_555
Cu1_5 Tl0_7 3.690187 1_545
Cu1_6 Se5_6 2.434633 1_555
Cu1_6 Se7_6 2.435094 1_555
Cu1_6 Se1_4 2.485982 1_565
Cu1_6 Se1_2 2.485982 1_655
Cu1_6 Zr2_4 3.139836 1_565
Cu1_6 Zr2_2 3.139836 1_655
Cu1_6 Tl0_4 3.690187 1_555
Cu1_6 Tl0_2 3.690187 1_555
Cu1_7 Se5_7 2.434633 1_555
Cu1_7 Se7_7 2.435094 1_555
Cu1_7 Se1_5 2.485982 1_565
Cu1_7 Se1_3 2.485982 1_655
Cu1_7 Zr2_5 3.139836 1_565
Cu1_7 Zr2_3 3.139836 1_655
Cu1_7 Tl0_5 3.690187 1_555
Cu1_7 Tl0_3 3.690187 1_555
Se0_0 Zr1_0 2.698636 1_555
Se0_0 Zr0_6 2.717307 1_555
Se0_0 Tl1_4 3.346656 1_555
Se0_0 Tl1_2 3.346656 1_555
Se0_1 Zr1_1 2.698636 1_555
Se0_1 Zr0_7 2.717307 1_555
Se0_1 Tl1_5 3.346656 1_555
Se0_1 Tl1_3 3.346656 1_555
Se0_2 Zr1_2 2.698636 1_555
Se0_2 Zr0_4 2.717307 1_565
Se0_2 Tl1_6 3.346656 1_555
Se0_2 Tl1_0 3.346656 1_565
Se0_3 Zr1_3 2.698636 1_555
Se0_3 Zr0_5 2.717307 1_565
Se0_3 Tl1_1 3.346656 1_565
Se0_3 Tl1_7 3.346656 1_555
Se0_4 Zr1_4 2.698636 1_555
Se0_4 Zr0_2 2.717307 1_655
Se0_4 Tl1_6 3.346656 1_555
Se0_4 Tl1_0 3.346656 1_655
Se0_5 Zr1_5 2.698636 1_555
Se0_5 Zr0_3 2.717307 1_655
Se0_5 Tl1_1 3.346656 1_655
Se0_5 Tl1_7 3.346656 1_555
Se0_6 Zr1_6 2.698636 1_555
Se0_6 Zr0_0 2.717307 1_665
Se0_6 Tl1_4 3.346656 1_565
Se0_6 Tl1_2 3.346656 1_655
Se0_7 Zr1_7 2.698636 1_555
Se0_7 Zr0_1 2.717307 1_665
Se0_7 Tl1_5 3.346656 1_565
Se0_7 Tl1_3 3.346656 1_655
Se1_0 Zr2_0 2.698636 1_555
Se1_0 Zr0_1 2.717307 1_555
Se1_0 Tl0_2 3.346656 1_545
Se1_0 Tl0_4 3.346656 1_455
Se1_1 Zr2_1 2.698636 1_555
Se1_1 Zr0_0 2.717307 1_556
Se1_1 Tl0_3 3.346656 1_545
Se1_1 Tl0_5 3.346656 1_455
Se1_2 Zr2_2 2.698636 1_555
Se1_2 Zr0_3 2.717307 1_555
Se1_2 Tl0_6 3.346656 1_455
Se1_2 Tl0_0 3.346656 1_555
Se1_3 Zr2_3 2.698636 1_555
Se1_3 Zr0_2 2.717307 1_556
Se1_3 Tl0_7 3.346656 1_455
Se1_3 Tl0_1 3.346656 1_555
Se1_4 Zr2_4 2.698636 1_555
Se1_4 Zr0_5 2.717307 1_555
Se1_4 Tl0_6 3.346656 1_545
Se1_4 Tl0_0 3.346656 1_555
Se1_5 Zr2_5 2.698636 1_555
Se1_5 Zr0_4 2.717307 1_556
Se1_5 Tl0_7 3.346656 1_545
Se1_5 Tl0_1 3.346656 1_555
Se1_6 Zr2_6 2.698636 1_555
Se1_6 Zr0_7 2.717307 1_555
Se1_6 Tl0_2 3.346656 1_555
Se1_6 Tl0_4 3.346656 1_555
Se1_7 Zr2_7 2.698636 1_555
Se1_7 Zr0_6 2.717307 1_556
Se1_7 Tl0_3 3.346656 1_555
Se1_7 Tl0_5 3.346656 1_555
Se2_0 Zr1_0 2.704945 1_555
Se2_0 Zr2_4 2.741044 1_555
Se2_0 Zr2_2 2.741044 1_555
Se2_0 Tl0_0 3.449804 1_555
Se2_1 Zr1_1 2.704945 1_555
Se2_1 Zr2_5 2.741044 1_555
Se2_1 Zr2_3 2.741044 1_555
Se2_1 Tl0_1 3.449804 1_555
Se2_2 Zr1_2 2.704945 1_555
Se2_2 Zr2_0 2.741044 1_565
Se2_2 Zr2_6 2.741044 1_555
Se2_2 Tl0_2 3.449804 1_555
Se2_3 Zr1_3 2.704945 1_555
Se2_3 Zr2_1 2.741044 1_565
Se2_3 Zr2_7 2.741044 1_555
Se2_3 Tl0_3 3.449804 1_555
Se2_4 Zr1_4 2.704945 1_555
Se2_4 Zr2_0 2.741044 1_655
Se2_4 Zr2_6 2.741044 1_555
Se2_4 Tl0_4 3.449804 1_555
Se2_5 Zr1_5 2.704945 1_555
Se2_5 Zr2_1 2.741044 1_655
Se2_5 Zr2_7 2.741044 1_555
Se2_5 Tl0_5 3.449804 1_555
Se2_6 Zr1_6 2.704945 1_555
Se2_6 Zr2_4 2.741044 1_565
Se2_6 Zr2_2 2.741044 1_655
Se2_6 Tl0_6 3.449804 1_555
Se2_7 Zr1_7 2.704945 1_555
Se2_7 Zr2_3 2.741044 1_655
Se2_7 Zr2_5 2.741044 1_565
Se2_7 Tl0_7 3.449804 1_555
Se3_0 Zr2_0 2.704945 1_555
Se3_0 Zr1_2 2.741044 1_545
Se3_0 Zr1_4 2.741044 1_455
Se3_0 Tl1_0 3.449804 1_555
Se3_1 Zr2_1 2.704945 1_555
Se3_1 Zr1_3 2.741044 1_545
Se3_1 Zr1_5 2.741044 1_455
Se3_1 Tl1_1 3.449804 1_555
Se3_2 Zr2_2 2.704945 1_555
Se3_2 Zr1_6 2.741044 1_455
Se3_2 Zr1_0 2.741044 1_555
Se3_2 Tl1_2 3.449804 1_555
Se3_3 Zr2_3 2.704945 1_555
Se3_3 Zr1_7 2.741044 1_455
Se3_3 Zr1_1 2.741044 1_555
Se3_3 Tl1_3 3.449804 1_555
Se3_4 Zr2_4 2.704945 1_555
Se3_4 Zr1_6 2.741044 1_545
Se3_4 Zr1_0 2.741044 1_555
Se3_4 Tl1_4 3.449804 1_555
Se3_5 Zr2_5 2.704945 1_555
Se3_5 Zr1_7 2.741044 1_545
Se3_5 Zr1_1 2.741044 1_555
Se3_5 Tl1_5 3.449804 1_555
Se3_6 Zr2_6 2.704945 1_555
Se3_6 Zr1_2 2.741044 1_555
Se3_6 Zr1_4 2.741044 1_555
Se3_6 Tl1_6 3.449804 1_555
Se3_7 Zr2_7 2.704945 1_555
Se3_7 Zr1_3 2.741044 1_555
Se3_7 Zr1_5 2.741044 1_555
Se3_7 Tl1_7 3.449804 1_555
Se4_0 Zr1_4 2.718496 1_455
Se4_0 Zr1_2 2.718496 1_545
Se4_0 Tl1_2 3.354421 1_555
Se4_0 Tl1_4 3.354421 1_555
Se4_1 Zr1_5 2.718496 1_455
Se4_1 Zr1_3 2.718496 1_545
Se4_1 Tl1_3 3.354421 1_555
Se4_1 Tl1_5 3.354421 1_555
Se4_2 Zr1_0 2.718496 1_555
Se4_2 Zr1_6 2.718496 1_455
Se4_2 Tl1_6 3.354421 1_555
Se4_2 Tl1_0 3.354421 1_565
Se4_3 Zr1_1 2.718496 1_555
Se4_3 Zr1_7 2.718496 1_455
Se4_3 Tl1_7 3.354421 1_555
Se4_3 Tl1_1 3.354421 1_565
Se4_4 Zr1_0 2.718496 1_555
Se4_4 Zr1_6 2.718496 1_545
Se4_4 Tl1_6 3.354421 1_555
Se4_4 Tl1_0 3.354421 1_655
Se4_5 Zr1_1 2.718496 1_555
Se4_5 Zr1_7 2.718496 1_545
Se4_5 Tl1_7 3.354421 1_555
Se4_5 Tl1_1 3.354421 1_655
Se4_6 Zr1_4 2.718496 1_555
Se4_6 Zr1_2 2.718496 1_555
Se4_6 Tl1_2 3.354421 1_655
Se4_6 Tl1_4 3.354421 1_565
Se4_7 Zr1_5 2.718496 1_555
Se4_7 Zr1_3 2.718496 1_555
Se4_7 Tl1_3 3.354421 1_655
Se4_7 Tl1_5 3.354421 1_565
Se5_0 Zr2_2 2.718496 1_555
Se5_0 Zr2_4 2.718496 1_555
Se5_0 Tl0_4 3.354421 1_455
Se5_0 Tl0_2 3.354421 1_545
Se5_1 Zr2_3 2.718496 1_555
Se5_1 Zr2_5 2.718496 1_555
Se5_1 Tl0_5 3.354421 1_455
Se5_1 Tl0_3 3.354421 1_545
Se5_2 Zr2_6 2.718496 1_555
Se5_2 Zr2_0 2.718496 1_565
Se5_2 Tl0_0 3.354421 1_555
Se5_2 Tl0_6 3.354421 1_455
Se5_3 Zr2_7 2.718496 1_555
Se5_3 Zr2_1 2.718496 1_565
Se5_3 Tl0_1 3.354421 1_555
Se5_3 Tl0_7 3.354421 1_455
Se5_4 Zr2_6 2.718496 1_555
Se5_4 Zr2_0 2.718496 1_655
Se5_4 Tl0_0 3.354421 1_555
Se5_4 Tl0_6 3.354421 1_545
Se5_5 Zr2_7 2.718496 1_555
Se5_5 Zr2_1 2.718496 1_655
Se5_5 Tl0_1 3.354421 1_555
Se5_5 Tl0_7 3.354421 1_545
Se5_6 Zr2_2 2.718496 1_655
Se5_6 Zr2_4 2.718496 1_565
Se5_6 Tl0_4 3.354421 1_555
Se5_6 Tl0_2 3.354421 1_555
Se5_7 Zr2_5 2.718496 1_565
Se5_7 Zr2_3 2.718496 1_655
Se5_7 Tl0_5 3.354421 1_555
Se5_7 Tl0_3 3.354421 1_555
Se6_0 Zr0_4 2.731369 1_555
Se6_0 Zr0_2 2.731369 1_555
Se6_0 Tl1_2 3.379572 1_555
Se6_0 Tl1_4 3.379572 1_555
Se6_0 Tl0_1 3.701490 1_554
Se6_1 Zr0_5 2.731369 1_555
Se6_1 Zr0_3 2.731369 1_555
Se6_1 Tl1_3 3.379572 1_555
Se6_1 Tl1_5 3.379572 1_555
Se6_1 Tl0_0 3.701490 1_555
Se6_2 Zr0_0 2.731369 1_565
Se6_2 Zr0_6 2.731369 1_555
Se6_2 Tl1_0 3.379572 1_565
Se6_2 Tl1_6 3.379572 1_555
Se6_2 Tl0_3 3.701490 1_554
Se6_3 Zr0_1 2.731369 1_565
Se6_3 Zr0_7 2.731369 1_555
Se6_3 Tl1_7 3.379572 1_555
Se6_3 Tl1_1 3.379572 1_565
Se6_3 Tl0_2 3.701490 1_555
Se6_4 Zr0_0 2.731369 1_655
Se6_4 Zr0_6 2.731369 1_555
Se6_4 Tl1_0 3.379572 1_655
Se6_4 Tl1_6 3.379572 1_555
Se6_4 Tl0_5 3.701490 1_554
Se6_5 Zr0_1 2.731369 1_655
Se6_5 Zr0_7 2.731369 1_555
Se6_5 Tl1_7 3.379572 1_555
Se6_5 Tl1_1 3.379572 1_655
Se6_5 Tl0_4 3.701490 1_555
Se6_6 Zr0_4 2.731369 1_565
Se6_6 Zr0_2 2.731369 1_655
Se6_6 Tl1_2 3.379572 1_655
Se6_6 Tl1_4 3.379572 1_565
Se6_6 Tl0_7 3.701490 1_554
Se6_7 Zr0_3 2.731369 1_655
Se6_7 Zr0_5 2.731369 1_565
Se6_7 Tl1_3 3.379572 1_655
Se6_7 Tl1_5 3.379572 1_565
Se6_7 Tl0_6 3.701490 1_555
Se7_0 Zr0_3 2.731369 1_555
Se7_0 Zr0_5 2.731369 1_555
Se7_0 Tl0_4 3.379572 1_455
Se7_0 Tl0_2 3.379572 1_545
Se7_0 Tl1_1 3.701490 1_555
Se7_1 Zr0_2 2.731369 1_556
Se7_1 Zr0_4 2.731369 1_556
Se7_1 Tl0_5 3.379572 1_455
Se7_1 Tl0_3 3.379572 1_545
Se7_1 Tl1_0 3.701490 1_556
Se7_2 Zr0_7 2.731369 1_555
Se7_2 Zr0_1 2.731369 1_565
Se7_2 Tl0_0 3.379572 1_555
Se7_2 Tl0_6 3.379572 1_455
Se7_2 Tl1_3 3.701490 1_555
Se7_3 Zr0_6 2.731369 1_556
Se7_3 Zr0_0 2.731369 1_566
Se7_3 Tl0_1 3.379572 1_555
Se7_3 Tl0_7 3.379572 1_455
Se7_3 Tl1_2 3.701490 1_556
Se7_4 Zr0_7 2.731369 1_555
Se7_4 Zr0_1 2.731369 1_655
Se7_4 Tl0_0 3.379572 1_555
Se7_4 Tl0_6 3.379572 1_545
Se7_4 Tl1_5 3.701490 1_555
Se7_5 Zr0_6 2.731369 1_556
Se7_5 Zr0_0 2.731369 1_656
Se7_5 Tl0_1 3.379572 1_555
Se7_5 Tl0_7 3.379572 1_545
Se7_5 Tl1_4 3.701490 1_556
Se7_6 Zr0_3 2.731369 1_655
Se7_6 Zr0_5 2.731369 1_565
Se7_6 Tl0_4 3.379572 1_555
Se7_6 Tl0_2 3.379572 1_555
Se7_6 Tl1_7 3.701490 1_555
Se7_7 Zr0_2 2.731369 1_656
Se7_7 Zr0_4 2.731369 1_566
Se7_7 Tl0_5 3.379572 1_555
Se7_7 Tl0_3 3.379572 1_555
Se7_7 Tl1_6 3.701490 1_556
