# generated using pymatgen
data_Li2Fe2Si2O9
_symmetry_space_group_name_H-M   'P 1'
_cell_length_a   14.07450401
_cell_length_b   8.62275300
_cell_length_c   5.05715001
_cell_angle_alpha   90.00356501
_cell_angle_beta   90.00398117
_cell_angle_gamma   89.99897261
_symmetry_Int_Tables_number   1
_chemical_formula_structural   Li2Fe2Si2O9
_chemical_formula_sum   'Li8 Fe8 Si8 O36'
_cell_volume   613.74063609
_cell_formula_units_Z   4
loop_
 _symmetry_equiv_pos_site_id
 _symmetry_equiv_pos_as_xyz
  1  'x, y, z'
loop_
 _atom_site_type_symbol
 _atom_site_label
 _atom_site_symmetry_multiplicity
 _atom_site_fract_x
 _atom_site_fract_y
 _atom_site_fract_z
 _atom_site_occupancy
  Li  Li0  1  0.15576500  0.03098700  0.63476300  1
  Li  Li1  1  0.15620900  0.46682300  0.14242900  1
  Li  Li2  1  0.34427500  0.53104300  0.13469000  1
  Li  Li3  1  0.34386900  0.96691800  0.64243300  1
  Li  Li4  1  0.65581800  0.03088400  0.36530900  1
  Li  Li5  1  0.65611400  0.46675300  0.85751500  1
  Li  Li6  1  0.84413100  0.53087400  0.86532300  1
  Li  Li7  1  0.84383700  0.96671900  0.35756400  1
  Fe  Fe0  1  0.16956600  0.65161900  0.63309600  1
  Fe  Fe1  1  0.16915100  0.84766400  0.13539500  1
  Fe  Fe2  1  0.33044100  0.15165500  0.13305800  1
  Fe  Fe3  1  0.33086400  0.34768800  0.63530000  1
  Fe  Fe4  1  0.66956200  0.65158900  0.36688500  1
  Fe  Fe5  1  0.66910800  0.84760800  0.86463400  1
  Fe  Fe6  1  0.83041600  0.15155100  0.86695500  1
  Fe  Fe7  1  0.83089400  0.34761300  0.36463000  1
  Si  Si0  1  0.03574400  0.16078500  0.17823300  1
  Si  Si1  1  0.03551800  0.34176400  0.67873300  1
  Si  Si2  1  0.46426400  0.66079600  0.67820000  1
  Si  Si3  1  0.46448500  0.84175600  0.17873000  1
  Si  Si4  1  0.53572700  0.16073800  0.82177600  1
  Si  Si5  1  0.53552000  0.34167800  0.32126700  1
  Si  Si6  1  0.96426600  0.66073500  0.32182300  1
  Si  Si7  1  0.96447700  0.84168100  0.82134200  1
  O  O0  1  0.07147800  0.30398600  0.37440700  1
  O  O1  1  0.07261200  0.19986600  0.87467800  1
  O  O2  1  0.08401500  0.49970300  0.78805200  1
  O  O3  1  0.08447000  0.00479100  0.28830900  1
  O  O4  1  0.08184400  0.66203400  0.31813100  1
  O  O5  1  0.08162600  0.83944300  0.81330400  1
  O  O6  1  0.23118900  0.81897200  0.47396100  1
  O  O7  1  0.23052600  0.67160200  0.95609100  1
  O  O8  1  0.25393800  0.00032900  0.97117000  1
  O  O9  1  0.24607400  0.50032200  0.47109500  1
  O  O10  1  0.26950000  0.17157900  0.45599200  1
  O  O11  1  0.26880600  0.31897800  0.97382900  1
  O  O12  1  0.41814900  0.16204500  0.81809900  1
  O  O13  1  0.41836800  0.33942800  0.31316100  1
  O  O14  1  0.41602100  0.99971600  0.28802600  1
  O  O15  1  0.41555900  0.50478600  0.78824800  1
  O  O16  1  0.42736500  0.69986500  0.37464600  1
  O  O17  1  0.42853800  0.80398500  0.87438600  1
  O  O18  1  0.57263000  0.19978800  0.12532300  1
  O  O19  1  0.57145700  0.30391200  0.62560900  1
  O  O20  1  0.58398800  0.49963900  0.21196800  1
  O  O21  1  0.58442200  0.00470200  0.71168200  1
  O  O22  1  0.58183900  0.66203300  0.68187000  1
  O  O23  1  0.58163100  0.83941100  0.18679800  1
  O  O24  1  0.73049300  0.67154700  0.04388400  1
  O  O25  1  0.73119000  0.81893700  0.52614500  1
  O  O26  1  0.75388900  0.00025200  0.02886600  1
  O  O27  1  0.74608900  0.50028700  0.52875700  1
  O  O28  1  0.76948400  0.17162900  0.54388600  1
  O  O29  1  0.76881300  0.31894200  0.02614100  1
  O  O30  1  0.91816600  0.16202100  0.18194000  1
  O  O31  1  0.91837400  0.33947600  0.68673500  1
  O  O32  1  0.91597700  0.99962900  0.71202300  1
  O  O33  1  0.91555300  0.50472400  0.21167300  1
  O  O34  1  0.92738400  0.69978900  0.62536300  1
  O  O35  1  0.92852700  0.80392500  0.12567200  1
loop_
_geom_bond_atom_site_label_1
_geom_bond_atom_site_label_2
_geom_bond_distance
_geom_bond_site_symmetry_2
Li0 O3 2.031596 1_555
Li0 O5 2.152291 1_545
Li0 O10 2.202236 1_555
Li0 O8 2.207506 1_555
Li0 O1 2.227598 1_555
Li0 O6 2.264995 1_545
Li1 O2 2.079516 1_554
Li1 O9 2.108424 1_555
Li1 O4 2.172149 1_555
Li1 O0 2.184126 1_555
Li1 O11 2.205353 1_554
Li1 O7 2.258402 1_554
Li2 O15 2.031642 1_554
Li2 O13 2.152209 1_555
Li2 O7 2.201743 1_554
Li2 O9 2.207964 1_555
Li2 O16 2.226863 1_555
Li2 O11 2.265725 1_554
Li3 O14 2.079388 1_555
Li3 O8 2.109293 1_565
Li3 O12 2.170907 1_565
Li3 O17 2.183998 1_555
Li3 O6 2.206394 1_555
Li3 O10 2.258073 1_565
Li4 O21 2.032076 1_555
Li4 O23 2.151938 1_545
Li4 O28 2.201701 1_555
Li4 O26 2.206844 1_555
Li4 O18 2.228203 1_555
Li4 O25 2.264269 1_545
Li5 O20 2.079478 1_556
Li5 O27 2.109928 1_555
Li5 O22 2.171909 1_555
Li5 O19 2.183202 1_555
Li5 O29 2.206243 1_556
Li5 O24 2.258821 1_556
Li6 O33 2.032002 1_556
Li6 O31 2.152020 1_555
Li6 O24 2.201099 1_556
Li6 O27 2.206880 1_555
Li6 O34 2.228791 1_555
Li6 O29 2.263860 1_556
Li7 O32 2.079512 1_555
Li7 O26 2.109314 1_565
Li7 O30 2.172467 1_565
Li7 O35 2.183218 1_555
Li7 O25 2.205602 1_555
Li7 O28 2.259365 1_565
Fe0 O7 1.853026 1_555
Fe0 O6 1.866158 1_555
Fe0 O9 1.879529 1_555
Fe0 O2 1.944262 1_555
Fe0 O4 2.017236 1_555
Fe0 O5 2.232789 1_555
Fe1 O6 1.937783 1_555
Fe1 O8 1.961381 1_564
Fe1 O3 1.963187 1_565
Fe1 O7 1.968007 1_554
Fe1 O5 2.043388 1_554
Fe1 O4 2.219555 1_555
Fe2 O10 1.852685 1_555
Fe2 O11 1.866166 1_554
Fe2 O8 1.879375 1_554
Fe2 O14 1.944577 1_545
Fe2 O12 2.017220 1_554
Fe2 O13 2.232114 1_555
Fe3 O11 1.937875 1_555
Fe3 O9 1.961086 1_555
Fe3 O15 1.963166 1_555
Fe3 O10 1.968230 1_555
Fe3 O13 2.043550 1_555
Fe3 O12 2.219495 1_555
Fe4 O24 1.852968 1_555
Fe4 O25 1.866301 1_555
Fe4 O27 1.879433 1_555
Fe4 O20 1.944448 1_555
Fe4 O22 2.017463 1_555
Fe4 O23 2.232468 1_555
Fe5 O25 1.937775 1_555
Fe5 O26 1.961084 1_566
Fe5 O21 1.963110 1_565
Fe5 O24 1.967969 1_556
Fe5 O23 2.043411 1_556
Fe5 O22 2.218822 1_555
Fe6 O28 1.853266 1_555
Fe6 O29 1.866291 1_556
Fe6 O26 1.879593 1_556
Fe6 O32 1.944241 1_545
Fe6 O30 2.017572 1_556
Fe6 O31 2.233700 1_555
Fe7 O29 1.937665 1_555
Fe7 O27 1.961279 1_555
Fe7 O33 1.963085 1_555
Fe7 O28 1.967704 1_555
Fe7 O31 2.043043 1_555
Fe7 O30 2.218835 1_555
O0 Si1 1.652543 1_555
O0 Si0 1.661828 1_555
O1 Si0 1.655174 1_556
O1 Si1 1.658804 1_555
O2 Si1 1.620529 1_555
O3 Si0 1.609190 1_555
O4 Si6 1.654997 1_455
O5 Si7 1.649430 1_455
O12 Si4 1.654993 1_555
O13 Si5 1.649477 1_555
O14 Si3 1.620457 1_555
O15 Si2 1.609184 1_555
O16 Si2 1.655214 1_555
O16 Si3 1.658844 1_555
O17 Si3 1.652498 1_556
O17 Si2 1.661781 1_555
O18 Si4 1.655130 1_554
O18 Si5 1.658773 1_555
O19 Si5 1.652471 1_555
O19 Si4 1.661750 1_555
O20 Si5 1.620572 1_555
O21 Si4 1.609313 1_555
O22 Si2 1.654947 1_555
O23 Si3 1.649397 1_555
O30 Si0 1.654994 1_655
O31 Si1 1.649361 1_655
O32 Si7 1.620649 1_555
O33 Si6 1.609326 1_555
O34 Si6 1.655075 1_555
O34 Si7 1.658787 1_555
O35 Si7 1.652523 1_554
O35 Si6 1.661787 1_555
