# generated using pymatgen
data_Zr3Bi5
_symmetry_space_group_name_H-M   'P 1'
_cell_length_a   7.02344381
_cell_length_b   7.02346658
_cell_length_c   17.18197107
_cell_angle_alpha   90.00000000
_cell_angle_beta   90.00000000
_cell_angle_gamma   89.99868448
_symmetry_Int_Tables_number   1
_chemical_formula_structural   Zr3Bi5
_chemical_formula_sum   'Zr12 Bi20'
_cell_volume   847.56812566
_cell_formula_units_Z   4
loop_
 _symmetry_equiv_pos_site_id
 _symmetry_equiv_pos_as_xyz
  1  'x, y, z'
loop_
 _atom_site_type_symbol
 _atom_site_label
 _atom_site_symmetry_multiplicity
 _atom_site_fract_x
 _atom_site_fract_y
 _atom_site_fract_z
 _atom_site_occupancy
  Zr  Zr0  1  0.00000000  0.50000000  0.58764688  1
  Zr  Zr1  1  0.50000000  0.00000000  0.41232490  1
  Zr  Zr2  1  0.50000000  0.00000000  0.08766702  1
  Zr  Zr3  1  0.00000000  0.50000000  0.91236206  1
  Zr  Zr4  1  0.00000000  0.00000000  0.00001388  1
  Zr  Zr5  1  0.50000000  0.50000000  0.49998569  1
  Zr  Zr6  1  0.00000000  0.00000000  0.32505359  1
  Zr  Zr7  1  0.00000000  0.00000000  0.67493261  1
  Zr  Zr8  1  0.50000000  0.50000000  0.82508560  1
  Zr  Zr9  1  0.50000000  0.50000000  0.17492775  1
  Zr  Zr10  1  0.00000000  0.50000000  0.24998602  1
  Zr  Zr11  1  0.50000000  0.00000000  0.75001294  1
  Bi  Bi0  1  0.34287236  0.30543236  0.65162733  1
  Bi  Bi1  1  0.65712764  0.69456764  0.65162733  1
  Bi  Bi2  1  0.30541212  0.65712988  0.34835802  1
  Bi  Bi3  1  0.84287771  0.19458829  0.15163509  1
  Bi  Bi4  1  0.69458788  0.34287012  0.34835802  1
  Bi  Bi5  1  0.15712229  0.80541171  0.15163509  1
  Bi  Bi6  1  0.80543983  0.84286951  0.84838255  1
  Bi  Bi7  1  0.19456017  0.15713049  0.84838255  1
  Bi  Bi8  1  0.33169331  0.16830536  0.24999254  1
  Bi  Bi9  1  0.66830669  0.83169464  0.24999254  1
  Bi  Bi10  1  0.16829713  0.66830027  0.75000651  1
  Bi  Bi11  1  0.83170287  0.33169973  0.75000651  1
  Bi  Bi12  1  0.23250334  0.34279356  0.05179425  1
  Bi  Bi13  1  0.76749666  0.65720644  0.05179425  1
  Bi  Bi14  1  0.34279163  0.76753057  0.94821907  1
  Bi  Bi15  1  0.73247362  0.15720687  0.55178467  1
  Bi  Bi16  1  0.65720837  0.23246943  0.94821907  1
  Bi  Bi17  1  0.26752638  0.84279313  0.55178467  1
  Bi  Bi18  1  0.84279296  0.73251095  0.44820049  1
  Bi  Bi19  1  0.15720704  0.26748905  0.44820049  1
loop_
_geom_bond_atom_site_label_1
_geom_bond_atom_site_label_2
_geom_bond_distance
_geom_bond_site_symmetry_2
Bi0 Zr11 2.945723 1_555
Bi0 Zr0 2.979081 1_555
Bi0 Zr5 3.142296 1_555
Bi0 Zr7 3.249862 1_555
Bi0 Bi10 3.294817 1_555
Bi0 Bi15 3.393252 1_555
Bi0 Zr8 3.459465 1_555
Bi0 Bi1 3.513051 1_555
Bi0 Bi7 3.687651 1_555
Bi0 Bi17 3.712303 1_545
Bi0 Bi19 3.740109 1_555
Bi1 Zr11 2.945723 1_565
Bi1 Zr0 2.979081 1_655
Bi1 Zr5 3.142296 1_555
Bi1 Zr7 3.249862 1_665
Bi1 Bi11 3.294817 1_555
Bi1 Bi17 3.393252 1_555
Bi1 Zr8 3.459465 1_555
Bi1 Bi6 3.687651 1_555
Bi1 Bi15 3.712303 1_565
Bi1 Bi18 3.740109 1_555
Bi2 Zr10 2.945524 1_555
Bi2 Zr1 2.979102 1_565
Bi2 Zr5 3.142142 1_555
Bi2 Zr6 3.249682 1_565
Bi2 Bi9 3.294852 1_555
Bi2 Zr9 3.459091 1_555
Bi2 Bi4 3.513211 1_555
Bi2 Bi5 3.687045 1_555
Bi3 Zr10 2.945298 1_655
Bi3 Zr2 2.979150 1_555
Bi3 Zr4 3.142033 1_655
Bi3 Zr9 3.249694 1_555
Bi3 Bi9 3.294797 1_545
Bi3 Zr6 3.458902 1_655
Bi3 Bi5 3.513150 1_645
Bi3 Bi4 3.687045 1_555
Bi4 Zr10 2.945524 1_655
Bi4 Zr1 2.979102 1_555
Bi4 Zr5 3.142142 1_555
Bi4 Zr6 3.249682 1_655
Bi4 Bi8 3.294852 1_555
Bi4 Zr9 3.459091 1_555
Bi5 Zr10 2.945298 1_555
Bi5 Zr2 2.979150 1_565
Bi5 Zr4 3.142033 1_565
Bi5 Zr9 3.249694 1_555
Bi5 Bi8 3.294797 1_565
Bi5 Zr6 3.458902 1_565
Bi6 Zr11 2.945607 1_565
Bi6 Zr3 2.979039 1_655
Bi6 Zr4 3.142133 1_666
Bi6 Zr8 3.249865 1_555
Bi6 Zr7 3.459327 1_665
Bi6 Bi7 3.512992 1_665
Bi7 Zr11 2.945607 1_555
Bi7 Zr3 2.979039 1_555
Bi7 Zr4 3.142133 1_556
Bi7 Zr8 3.249865 1_555
Bi7 Zr7 3.459327 1_555
Bi8 Zr6 2.913408 1_555
Bi8 Zr9 2.913452 1_555
Bi8 Zr2 3.251697 1_555
Bi8 Zr1 3.251798 1_555
Bi8 Zr10 3.294568 1_555
Bi8 Bi9 3.343417 1_545
Bi9 Zr6 2.913408 1_665
Bi9 Zr9 2.913452 1_555
Bi9 Zr2 3.251697 1_565
Bi9 Zr1 3.251798 1_565
Bi9 Zr10 3.294568 1_655
Bi10 Zr7 2.913480 1_565
Bi10 Zr8 2.913541 1_555
Bi10 Zr3 3.252122 1_555
Bi10 Zr0 3.252182 1_555
Bi10 Bi6 3.294711 1_455
Bi10 Zr11 3.294716 1_565
Bi10 Bi11 3.343348 1_455
Bi10 Bi14 3.685976 1_555
Bi10 Bi17 3.686119 1_555
Bi11 Zr7 2.913480 1_655
Bi11 Zr8 2.913541 1_555
Bi11 Zr3 3.252122 1_655
Bi11 Zr0 3.252182 1_655
Bi11 Bi7 3.294711 1_655
Bi11 Zr11 3.294716 1_555
Bi11 Bi16 3.685976 1_555
Bi11 Bi15 3.686119 1_555
Bi12 Zr9 3.037266 1_555
Bi12 Zr4 3.042181 1_555
Bi12 Zr3 3.102436 1_554
Bi12 Zr2 3.115433 1_555
Bi12 Bi3 3.393369 1_455
Bi12 Bi16 3.558793 1_554
Bi12 Bi14 3.558964 1_554
Bi12 Bi8 3.685671 1_555
Bi12 Bi5 3.712172 1_555
Bi12 Bi7 3.739862 1_554
Bi13 Zr9 3.037266 1_555
Bi13 Zr4 3.042181 1_665
Bi13 Zr3 3.102436 1_654
Bi13 Zr2 3.115433 1_565
Bi13 Bi5 3.393369 1_655
Bi13 Bi14 3.558793 1_554
Bi13 Bi16 3.558964 1_554
Bi13 Bi9 3.685671 1_555
Bi13 Bi3 3.712172 1_555
Bi13 Bi6 3.739862 1_554
Bi14 Zr8 3.037389 1_555
Bi14 Zr4 3.042052 1_566
Bi14 Zr2 3.102553 1_566
Bi14 Zr3 3.115577 1_555
Bi14 Bi7 3.393210 1_565
Bi14 Bi6 3.712293 1_555
Bi14 Bi5 3.739910 1_556
Bi15 Zr7 3.037538 1_655
Bi15 Zr5 3.042101 1_555
Bi15 Zr1 3.102720 1_555
Bi15 Zr0 3.115588 1_655
Bi15 Bi18 3.558817 1_545
Bi15 Bi19 3.559004 1_655
Bi15 Bi4 3.740070 1_555
Bi16 Zr8 3.037389 1_555
Bi16 Zr4 3.042052 1_656
Bi16 Zr2 3.102553 1_556
Bi16 Zr3 3.115577 1_655
Bi16 Bi6 3.393210 1_545
Bi16 Bi7 3.712293 1_555
Bi16 Bi3 3.739910 1_556
Bi17 Zr7 3.037538 1_565
Bi17 Zr5 3.042101 1_555
Bi17 Zr1 3.102720 1_565
Bi17 Zr0 3.115588 1_555
Bi17 Bi19 3.558817 1_565
Bi17 Bi18 3.559004 1_455
Bi17 Bi2 3.740070 1_555
Bi18 Zr6 3.037398 1_665
Bi18 Zr5 3.042227 1_555
Bi18 Zr0 3.102655 1_655
Bi18 Zr1 3.115405 1_565
Bi18 Bi4 3.393475 1_555
Bi18 Bi9 3.685811 1_555
Bi18 Bi2 3.712183 1_655
Bi19 Zr6 3.037398 1_555
Bi19 Zr5 3.042227 1_555
Bi19 Zr0 3.102655 1_555
Bi19 Zr1 3.115405 1_555
Bi19 Bi2 3.393475 1_555
Bi19 Bi8 3.685811 1_555
Bi19 Bi4 3.712183 1_455
