# generated using pymatgen
data_Mg2Mn3O7
_symmetry_space_group_name_H-M   'P 1'
_cell_length_a   6.10508000
_cell_length_b   6.54769283
_cell_length_c   7.84723859
_cell_angle_alpha   114.13507288
_cell_angle_beta   99.35138187
_cell_angle_gamma   103.79357723
_symmetry_Int_Tables_number   1
_chemical_formula_structural   Mg2Mn3O7
_chemical_formula_sum   'Mg4 Mn6 O14'
_cell_volume   265.77989613
_cell_formula_units_Z   2
loop_
 _symmetry_equiv_pos_site_id
 _symmetry_equiv_pos_as_xyz
  1  'x, y, z'
loop_
 _atom_site_type_symbol
 _atom_site_label
 _atom_site_symmetry_multiplicity
 _atom_site_fract_x
 _atom_site_fract_y
 _atom_site_fract_z
 _atom_site_occupancy
  Mg  Mg0  1  0.32219900  0.16395900  0.53130800  1
  Mg  Mg1  1  0.15819400  0.72657100  0.93134400  1
  Mg  Mg2  1  0.84180600  0.27342900  0.06865600  1
  Mg  Mg3  1  0.67780100  0.83604100  0.46869200  1
  Mn  Mn0  1  0.77518900  0.43018000  0.35575900  1
  Mn  Mn1  1  0.92043800  0.14533500  0.77397900  1
  Mn  Mn2  1  0.35941000  0.28198800  0.07863800  1
  Mn  Mn3  1  0.64059000  0.71801200  0.92136200  1
  Mn  Mn4  1  0.07956200  0.85466500  0.22602100  1
  Mn  Mn5  1  0.22481100  0.56982000  0.64424100  1
  O  O0  1  0.10019600  0.28740700  0.58969200  1
  O  O1  1  0.46357500  0.57156600  0.11339300  1
  O  O2  1  0.65135800  0.29755900  0.56947300  1
  O  O3  1  0.77343500  0.99537800  0.98345200  1
  O  O4  1  0.91538600  0.57605000  0.12461600  1
  O  O5  1  0.17013100  0.17135800  0.25675900  1
  O  O6  1  0.34648800  0.83612600  0.72727300  1
  O  O7  1  0.65351200  0.16387400  0.27272700  1
  O  O8  1  0.82986900  0.82864200  0.74324100  1
  O  O9  1  0.08461400  0.42395000  0.87538400  1
  O  O10  1  0.22656500  0.00462200  0.01654800  1
  O  O11  1  0.34864200  0.70244100  0.43052700  1
  O  O12  1  0.53642500  0.42843400  0.88660700  1
  O  O13  1  0.89980400  0.71259300  0.41030800  1
loop_
_geom_bond_atom_site_label_1
_geom_bond_atom_site_label_2
_geom_bond_distance
_geom_bond_site_symmetry_2
Mg0 O0 1.766796 1_555
Mg0 O2 1.909215 1_555
Mg0 O5 2.227713 1_555
Mg0 Mn4 2.341682 1_545
Mg1 O10 1.577118 1_566
Mg1 O9 1.766559 1_555
Mg2 O3 1.577118 1_544
Mg2 O4 1.766559 1_555
Mg3 O13 1.766796 1_555
Mg3 O11 1.909215 1_555
Mg3 O8 2.227713 1_555
Mg3 Mn1 2.341682 1_565
Mn0 O7 1.520775 1_555
Mn0 O13 1.660548 1_555
Mn0 O2 2.329816 1_555
Mn1 O9 1.627143 1_655
Mn1 O8 1.914329 1_545
Mn1 O0 2.300029 1_655
Mn2 O10 1.624502 1_555
Mn2 O1 1.737713 1_555
Mn2 O5 2.183465 1_555
Mn2 O12 2.361118 1_554
Mn3 O3 1.624502 1_555
Mn3 O12 1.737713 1_555
Mn3 O8 2.183465 1_555
Mn3 O1 2.361118 1_556
Mn4 O4 1.627143 1_455
Mn4 O5 1.914329 1_565
Mn4 O13 2.300029 1_455
Mn5 O6 1.520775 1_555
Mn5 O0 1.660548 1_555
Mn5 O11 2.329816 1_555
O0 O9 2.074897 1_555
O0 O5 2.545414 1_555
O1 O12 1.826280 1_554
O1 O9 2.414204 1_554
O1 O11 2.555418 1_555
O2 O7 2.130133 1_555
O3 O8 1.889785 1_555
O3 O5 2.598699 1_666
O10 O5 1.889785 1_555
O10 O8 2.598699 1_444
O11 O6 2.130133 1_555
O12 O4 2.414204 1_556
O12 O2 2.555418 1_555
O13 O4 2.074897 1_555
O13 O8 2.545414 1_555
