# generated using pymatgen
data_LaH6CO7
_symmetry_space_group_name_H-M   'P 1'
_cell_length_a   9.00960500
_cell_length_b   5.26815100
_cell_length_c   15.25220874
_cell_angle_alpha   86.86369301
_cell_angle_beta   90.00000000
_cell_angle_gamma   90.00000000
_symmetry_Int_Tables_number   1
_chemical_formula_structural   LaH6CO7
_chemical_formula_sum   'La4 H24 C4 O28'
_cell_volume   722.84591748
_cell_formula_units_Z   4
loop_
 _symmetry_equiv_pos_site_id
 _symmetry_equiv_pos_as_xyz
  1  'x, y, z'
loop_
 _atom_site_type_symbol
 _atom_site_label
 _atom_site_symmetry_multiplicity
 _atom_site_fract_x
 _atom_site_fract_y
 _atom_site_fract_z
 _atom_site_occupancy
  La  La0  1  0.49659600  0.99603200  0.27133800  1
  La  La1  1  0.99659600  0.00396800  0.22866200  1
  La  La2  1  0.50340400  0.00396800  0.72866200  1
  La  La3  1  0.00340400  0.99603200  0.77133800  1
  H  H0  1  0.66388900  0.28266200  0.10715100  1
  H  H1  1  0.16388900  0.71733800  0.39284900  1
  H  H2  1  0.33611100  0.71733800  0.89284900  1
  H  H3  1  0.83611100  0.28266200  0.60715100  1
  H  H4  1  0.52217000  0.15500500  0.07260800  1
  H  H5  1  0.02217000  0.84499500  0.42739200  1
  H  H6  1  0.47783000  0.84499500  0.92739200  1
  H  H7  1  0.97783000  0.15500500  0.57260800  1
  H  H8  1  0.47635400  0.63495100  0.09587100  1
  H  H9  1  0.97635400  0.36504900  0.40412900  1
  H  H10  1  0.52364600  0.36504900  0.90412900  1
  H  H11  1  0.02364600  0.63495100  0.59587100  1
  H  H12  1  0.33323200  0.81153700  0.09645200  1
  H  H13  1  0.83323200  0.18846300  0.40354800  1
  H  H14  1  0.66676800  0.18846300  0.90354800  1
  H  H15  1  0.16676800  0.81153700  0.59645200  1
  H  H16  1  0.56979200  0.43696300  0.36544200  1
  H  H17  1  0.06979200  0.56303700  0.13455800  1
  H  H18  1  0.43020800  0.56303700  0.63455800  1
  H  H19  1  0.93020800  0.43696300  0.86544200  1
  H  H20  1  0.64357500  0.51483300  0.27670700  1
  H  H21  1  0.14357500  0.48516700  0.22329300  1
  H  H22  1  0.35642500  0.48516700  0.72329300  1
  H  H23  1  0.85642500  0.51483300  0.77670700  1
  C  C0  1  0.42873800  0.91525700  0.50048400  1
  C  C1  1  0.92873800  0.08474300  0.99951600  1
  C  C2  1  0.57126200  0.08474300  0.49951600  1
  C  C3  1  0.07126200  0.91525700  0.00048400  1
  O  O0  1  0.38252600  0.84197800  0.42841100  1
  O  O1  1  0.88252600  0.15802200  0.07158900  1
  O  O2  1  0.61747400  0.15802200  0.57158900  1
  O  O3  1  0.11747400  0.84197800  0.92841100  1
  O  O4  1  0.62881100  0.13553800  0.42375100  1
  O  O5  1  0.12881100  0.86446200  0.07624900  1
  O  O6  1  0.37118900  0.86446200  0.57624900  1
  O  O7  1  0.87118900  0.13553800  0.92375100  1
  O  O8  1  0.74664000  0.13179800  0.24342000  1
  O  O9  1  0.24664000  0.86820200  0.25658000  1
  O  O10  1  0.25336000  0.86820200  0.75658000  1
  O  O11  1  0.75336000  0.13179800  0.74342000  1
  O  O12  1  0.74758300  0.84925100  0.23542800  1
  O  O13  1  0.24758300  0.15074900  0.26457200  1
  O  O14  1  0.25241700  0.15074900  0.76457200  1
  O  O15  1  0.75241700  0.84925100  0.73542800  1
  O  O16  1  0.55494500  0.30150300  0.10490600  1
  O  O17  1  0.05494500  0.69849700  0.39509400  1
  O  O18  1  0.44505500  0.69849700  0.89509400  1
  O  O19  1  0.94505500  0.30150300  0.60490600  1
  O  O20  1  0.44201700  0.80938300  0.10593500  1
  O  O21  1  0.94201700  0.19061700  0.39406500  1
  O  O22  1  0.55798300  0.19061700  0.89406500  1
  O  O23  1  0.05798300  0.80938300  0.60593500  1
  O  O24  1  0.54543500  0.49837700  0.30472800  1
  O  O25  1  0.04543500  0.50162300  0.19527200  1
  O  O26  1  0.45456500  0.50162300  0.69527200  1
  O  O27  1  0.95456500  0.49837700  0.80472800  1
loop_
_geom_bond_atom_site_label_1
_geom_bond_atom_site_label_2
_geom_bond_distance
_geom_bond_site_symmetry_2
La0 O9 2.364801 1_555
La0 O13 2.387283 1_565
La0 O8 2.394713 1_565
La0 O12 2.461242 1_555
La0 O24 2.679608 1_555
La0 O0 2.691014 1_555
La0 O4 2.747722 1_565
La0 O24 2.757542 1_565
La0 O20 2.800792 1_555
La0 O16 2.977056 1_565
La1 O8 2.364801 1_555
La1 O12 2.387283 1_545
La1 O9 2.394713 1_645
La1 O13 2.461242 1_655
La1 O25 2.679608 1_655
La1 O1 2.691014 1_555
La1 O5 2.747722 1_645
La1 O25 2.757542 1_645
La1 O21 2.800792 1_555
La1 O17 2.977056 1_645
La2 O11 2.364801 1_555
La2 O15 2.387283 1_545
La2 O10 2.394713 1_545
La2 O14 2.461242 1_555
La2 O26 2.679608 1_555
La2 O2 2.691014 1_555
La2 O6 2.747722 1_545
La2 O26 2.757542 1_545
La2 O22 2.800792 1_555
La2 O18 2.977056 1_545
La3 O10 2.364801 1_555
La3 O14 2.387283 1_565
La3 O11 2.394713 1_465
La3 O15 2.461242 1_455
La3 O27 2.679608 1_455
La3 O3 2.691014 1_555
La3 O7 2.747722 1_465
La3 O27 2.757542 1_465
La3 O23 2.800792 1_555
La3 O19 2.977056 1_465
H0 O16 0.986954 1_555
H1 O17 0.986954 1_555
H2 O18 0.986954 1_555
H3 O19 0.986954 1_555
H4 O16 0.983414 1_555
H5 O17 0.983414 1_555
H6 O18 0.983414 1_555
H7 O19 0.983414 1_555
H8 O20 0.989516 1_555
H9 O21 0.989516 1_555
H10 O22 0.989516 1_555
H11 O23 0.989516 1_555
H12 O20 0.990699 1_555
H13 O21 0.990699 1_555
H14 O22 0.990699 1_555
H15 O23 0.990699 1_555
H16 O24 0.988721 1_555
H17 O25 0.988721 1_555
H18 O26 0.988721 1_555
H19 O27 0.988721 1_555
H20 O24 0.983835 1_555
H20 O12 2.063234 1_555
H21 O25 0.983835 1_555
H21 O13 2.063234 1_555
H22 O26 0.983835 1_555
H22 O14 2.063234 1_555
H23 O27 0.983835 1_555
H23 O15 2.063234 1_555
C0 O0 1.255872 1_555
C0 O6 1.281398 1_555
C0 C2 1.563611 1_565
C1 O1 1.255872 1_556
C1 O7 1.281398 1_555
C1 C3 1.563611 1_646
C2 O2 1.255872 1_555
C2 O4 1.281398 1_555
C3 O3 1.255872 1_554
C3 O5 1.281398 1_555
O10 O14 1.500139 1_565
O11 O15 1.500139 1_545
O12 O8 1.500139 1_565
O13 O9 1.500139 1_545
