# generated using pymatgen
data_CuTe2PbO7
_symmetry_space_group_name_H-M   'P 1'
_cell_length_a   5.55447400
_cell_length_b   7.27147800
_cell_length_c   15.44979600
_cell_angle_alpha   90.00000000
_cell_angle_beta   90.00000000
_cell_angle_gamma   90.00000000
_symmetry_Int_Tables_number   1
_chemical_formula_structural   CuTe2PbO7
_chemical_formula_sum   'Cu4 Te8 Pb4 O28'
_cell_volume   624.00544896
_cell_formula_units_Z   4
loop_
 _symmetry_equiv_pos_site_id
 _symmetry_equiv_pos_as_xyz
  1  'x, y, z'
loop_
 _atom_site_type_symbol
 _atom_site_label
 _atom_site_symmetry_multiplicity
 _atom_site_fract_x
 _atom_site_fract_y
 _atom_site_fract_z
 _atom_site_occupancy
  Cu  Cu0  1  0.25000000  0.73733800  0.61377000  1
  Cu  Cu1  1  0.75000000  0.26266200  0.38623000  1
  Cu  Cu2  1  0.75000000  0.73733800  0.88623000  1
  Cu  Cu3  1  0.25000000  0.26266200  0.11377000  1
  Te  Te0  1  0.75000000  0.99414000  0.67196400  1
  Te  Te1  1  0.25000000  0.00586000  0.32803600  1
  Te  Te2  1  0.25000000  0.99414000  0.82803600  1
  Te  Te3  1  0.75000000  0.00586000  0.17196400  1
  Te  Te4  1  0.75000000  0.48674900  0.67522000  1
  Te  Te5  1  0.25000000  0.51325100  0.32478000  1
  Te  Te6  1  0.25000000  0.48674900  0.82478000  1
  Te  Te7  1  0.75000000  0.51325100  0.17522000  1
  Pb  Pb0  1  0.75000000  0.78524800  0.46178000  1
  Pb  Pb1  1  0.25000000  0.21475200  0.53822000  1
  Pb  Pb2  1  0.25000000  0.78524800  0.03822000  1
  Pb  Pb3  1  0.75000000  0.21475200  0.96178000  1
  O  O0  1  0.75000000  0.23214600  0.61166900  1
  O  O1  1  0.25000000  0.76785400  0.38833100  1
  O  O2  1  0.25000000  0.23214600  0.88833100  1
  O  O3  1  0.75000000  0.76785400  0.11166900  1
  O  O4  1  0.00860200  0.54356100  0.60005000  1
  O  O5  1  0.50860200  0.45643900  0.39995000  1
  O  O6  1  0.99139800  0.54356100  0.89995000  1
  O  O7  1  0.49139800  0.45643900  0.10005000  1
  O  O8  1  0.99139800  0.45643900  0.39995000  1
  O  O9  1  0.49139800  0.54356100  0.60005000  1
  O  O10  1  0.00860200  0.45643900  0.10005000  1
  O  O11  1  0.50860200  0.54356100  0.89995000  1
  O  O12  1  0.75000000  0.76099100  0.73151400  1
  O  O13  1  0.25000000  0.23900900  0.26848600  1
  O  O14  1  0.25000000  0.76099100  0.76848600  1
  O  O15  1  0.75000000  0.23900900  0.23151400  1
  O  O16  1  0.99876900  0.92203400  0.58864100  1
  O  O17  1  0.49876900  0.07796600  0.41135900  1
  O  O18  1  0.00123100  0.92203400  0.91135900  1
  O  O19  1  0.50123100  0.07796600  0.08864100  1
  O  O20  1  0.00123100  0.07796600  0.41135900  1
  O  O21  1  0.50123100  0.92203400  0.58864100  1
  O  O22  1  0.99876900  0.07796600  0.08864100  1
  O  O23  1  0.49876900  0.92203400  0.91135900  1
  O  O24  1  0.50000000  0.10578000  0.75000000  1
  O  O25  1  0.00000000  0.89422000  0.25000000  1
  O  O26  1  0.50000000  0.89422000  0.25000000  1
  O  O27  1  0.00000000  0.10578000  0.75000000  1
loop_
_geom_bond_atom_site_label_1
_geom_bond_atom_site_label_2
_geom_bond_distance
_geom_bond_site_symmetry_2
Cu0 O4 1.956576 1_555
Cu0 O9 1.956576 1_555
Cu0 O21 1.975275 1_555
Cu0 O16 1.975275 1_455
Cu0 O14 2.396510 1_555
Cu1 O8 1.956576 1_555
Cu1 O5 1.956576 1_555
Cu1 O20 1.975275 1_655
Cu1 O17 1.975275 1_555
Cu1 O15 2.396510 1_555
Cu2 O11 1.956576 1_555
Cu2 O6 1.956576 1_555
Cu2 O18 1.975275 1_655
Cu2 O23 1.975275 1_555
Cu2 O12 2.396510 1_555
Cu3 O7 1.956576 1_555
Cu3 O10 1.956576 1_555
Cu3 O19 1.975275 1_555
Cu3 O22 1.975275 1_455
Cu3 O13 2.396510 1_555
O0 Te0 1.965438 1_545
O0 Te4 2.095588 1_555
O0 O16 2.668482 1_545
O0 O21 2.668482 1_545
O0 O4 2.687598 1_655
O0 O9 2.687598 1_555
O0 O27 2.709270 1_655
O0 O24 2.709270 1_555
O0 Pb1 3.002790 1_655
O0 Pb1 3.002790 1_555
O1 Te1 1.965438 1_565
O1 Te5 2.095588 1_555
O1 O17 2.668482 1_565
O1 O20 2.668482 1_565
O1 O5 2.687598 1_555
O1 O8 2.687598 1_455
O1 O25 2.709270 1_555
O1 O26 2.709270 1_555
O1 Pb0 3.002790 1_555
O1 Pb0 3.002790 1_455
O2 Te2 1.965438 1_545
O2 Te6 2.095588 1_555
O2 O23 2.668482 1_545
O2 O6 2.687598 1_455
O2 O27 2.709270 1_555
O2 O24 2.709270 1_555
O2 Pb3 3.002790 1_555
O2 Pb3 3.002790 1_455
O3 Te3 1.965438 1_565
O3 Te7 2.095588 1_555
O3 O7 2.687598 1_555
O3 Pb2 3.002790 1_555
O3 Pb2 3.002790 1_655
O4 Te4 1.892791 1_455
O4 Pb1 2.902913 1_555
O4 Pb0 3.116939 1_455
O5 Te5 1.892791 1_555
O5 Pb0 2.902913 1_555
O5 Pb1 3.116939 1_555
O6 Te6 1.892791 1_655
O6 Pb3 2.902913 1_555
O6 Pb2 3.116939 1_656
O7 Te7 1.892791 1_555
O7 Pb2 2.902913 1_555
O7 Pb3 3.116939 1_554
O8 Te5 1.892791 1_655
O8 Pb0 2.902913 1_555
O8 Pb1 3.116939 1_655
O9 Te4 1.892791 1_555
O9 Pb1 2.902913 1_555
O9 Pb0 3.116939 1_555
O10 Te7 1.892791 1_455
O10 O3 2.687598 1_455
O10 Pb2 2.902913 1_555
O10 Pb3 3.116939 1_454
O11 Te6 1.892791 1_555
O11 O2 2.687598 1_555
O11 Pb3 2.902913 1_555
O11 Pb2 3.116939 1_556
O12 Te0 1.928895 1_555
O12 Te4 2.175556 1_555
O13 Te1 1.928895 1_555
O13 Te5 2.175556 1_555
O14 Te2 1.928895 1_555
O14 Te6 2.175556 1_555
O15 Te3 1.928895 1_555
O15 Te7 2.175556 1_555
O16 Te0 1.959956 1_555
O16 Pb0 2.596176 1_555
O16 Pb1 2.661693 1_665
O16 O27 2.828443 1_665
O17 Te1 1.959956 1_555
O17 Pb1 2.596176 1_555
O17 Pb0 2.661693 1_545
O17 O26 2.828443 1_545
O18 Te2 1.959956 1_555
O18 Pb2 2.596176 1_556
O18 Pb3 2.661693 1_465
O18 O2 2.668482 1_565
O18 O27 2.828443 1_565
O19 Te3 1.959956 1_555
O19 Pb3 2.596176 1_554
O19 Pb2 2.661693 1_545
O19 O3 2.668482 1_545
O19 O26 2.828443 1_545
O20 Te1 1.959956 1_555
O20 Pb1 2.596176 1_555
O20 Pb0 2.661693 1_445
O20 O25 2.828443 1_545
O21 Te0 1.959956 1_555
O21 Pb0 2.596176 1_555
O21 Pb1 2.661693 1_565
O21 O24 2.828443 1_565
O22 Te3 1.959956 1_555
O22 Pb3 2.596176 1_554
O22 Pb2 2.661693 1_645
O22 O3 2.668482 1_545
O22 O25 2.828443 1_645
O23 Te2 1.959956 1_555
O23 Pb2 2.596176 1_556
O23 Pb3 2.661693 1_565
O23 O24 2.828443 1_565
O24 Te0 2.010181 1_545
O24 Te2 2.010181 1_545
O24 O27 2.777237 1_655
O24 O27 2.777237 1_555
O25 Te3 2.010181 1_465
O25 Te1 2.010181 1_565
O25 O3 2.709270 1_455
O25 O26 2.777237 1_555
O25 O26 2.777237 1_455
O26 Te1 2.010181 1_565
O26 Te3 2.010181 1_565
O26 O3 2.709270 1_555
O27 Te0 2.010181 1_445
O27 Te2 2.010181 1_545
