# generated using pymatgen
data_Fe4As4H4O19
_symmetry_space_group_name_H-M   'P 1'
_cell_length_a   6.68892329
_cell_length_b   6.68540187
_cell_length_c   9.20490475
_cell_angle_alpha   94.99052276
_cell_angle_beta   104.44456722
_cell_angle_gamma   75.24507263
_symmetry_Int_Tables_number   1
_chemical_formula_structural   Fe4As4H4O19
_chemical_formula_sum   'Fe4 As4 H4 O19'
_cell_volume   385.34879120
_cell_formula_units_Z   1
loop_
 _symmetry_equiv_pos_site_id
 _symmetry_equiv_pos_as_xyz
  1  'x, y, z'
loop_
 _atom_site_type_symbol
 _atom_site_label
 _atom_site_symmetry_multiplicity
 _atom_site_fract_x
 _atom_site_fract_y
 _atom_site_fract_z
 _atom_site_occupancy
  Fe  Fe0  1  0.64572400  0.13013700  0.30966900  1
  Fe  Fe1  1  0.35451400  0.87067800  0.69172400  1
  Fe  Fe2  1  0.82643200  0.21090900  0.02119200  1
  Fe  Fe3  1  0.17290400  0.79002200  0.97789200  1
  As  As0  1  0.80385800  0.00940600  0.68350000  1
  As  As1  1  0.19575800  0.99053700  0.31676900  1
  As  As2  1  0.70752300  0.75321900  0.05706600  1
  As  As3  1  0.29224100  0.24790900  0.94279100  1
  H  H0  1  0.72371900  0.50241800  0.37869100  1
  H  H1  1  0.28927000  0.50045800  0.59526500  1
  H  H2  1  0.47689600  0.55751100  0.29153400  1
  H  H3  1  0.52192200  0.43853500  0.70951200  1
  O  O0  1  0.45742100  0.79500300  0.93297300  1
  O  O1  1  0.54245300  0.20647300  0.06759300  1
  O  O2  1  0.85850500  0.88276800  0.98732300  1
  O  O3  1  0.14115800  0.11866300  0.01308700  1
  O  O4  1  0.74185400  0.22375300  0.79958500  1
  O  O5  1  0.25691400  0.77738700  0.20003400  1
  O  O6  1  0.59492100  0.44804300  0.34519600  1
  O  O7  1  0.40612200  0.55373100  0.66087800  1
  O  O8  1  0.63847800  0.84672000  0.66271700  1
  O  O9  1  0.36045800  0.15454600  0.33867000  1
  O  O10  1  0.82001200  0.49684300  0.06037400  1
  O  O11  1  0.17974900  0.50418800  0.94144700  1
  O  O12  1  0.79720300  0.10084100  0.51586600  1
  O  O13  1  0.20334300  0.89534800  0.48364100  1
  O  O14  1  0.06457000  0.86456900  0.75359800  1
  O  O15  1  0.93504700  0.13714700  0.24735000  1
  O  O16  1  0.69260200  0.83719900  0.23536500  1
  O  O17  1  0.30699400  0.16350400  0.76480200  1
  O  O18  1  0.00843600  0.51553400  0.46689400  1
loop_
_geom_bond_atom_site_label_1
_geom_bond_atom_site_label_2
_geom_bond_distance
_geom_bond_site_symmetry_2
Fe0 O12 1.916157 1_555
Fe0 O9 1.956211 1_555
Fe0 O16 1.990638 1_545
Fe0 O6 2.075110 1_555
Fe0 O15 2.163608 1_555
Fe0 O1 2.225589 1_555
Fe1 O13 1.929286 1_555
Fe1 O8 1.948160 1_555
Fe1 O17 1.986594 1_565
Fe1 O7 2.064277 1_555
Fe1 O14 2.163984 1_555
Fe1 O0 2.217352 1_555
Fe2 O10 1.905791 1_555
Fe2 O4 1.979522 1_554
Fe2 O3 2.055897 1_655
Fe2 O1 2.055994 1_555
Fe2 O15 2.084783 1_555
Fe2 O2 2.151843 1_544
Fe3 O11 1.902051 1_555
Fe3 O5 1.984119 1_556
Fe3 O0 2.054544 1_555
Fe3 O2 2.057203 1_455
Fe3 O14 2.069965 1_555
Fe3 O3 2.156413 1_566
As0 O12 1.694887 1_555
As0 O8 1.707131 1_545
As0 O4 1.737597 1_555
As0 O14 1.755643 1_645
As1 O13 1.697561 1_555
As1 O9 1.709555 1_565
As1 O5 1.734512 1_555
As1 O15 1.758552 1_465
As2 O10 1.686872 1_555
As2 O16 1.706358 1_555
As2 O0 1.745162 1_554
As2 O2 1.745814 1_554
As3 O11 1.686474 1_555
As3 O17 1.704072 1_555
As3 O3 1.747817 1_556
As3 O1 1.748591 1_556
H0 O6 0.988398 1_555
H0 O18 1.896071 1_655
H1 O7 0.985595 1_555
H1 O18 1.937014 1_555
H2 O6 0.988373 1_555
H2 O5 1.879011 1_555
H3 O7 0.988241 1_555
H3 O4 1.853662 1_555
