# generated using pymatgen
data_CsNaMg6O7
_symmetry_space_group_name_H-M   'P 1'
_cell_length_a   8.17024200
_cell_length_b   4.74027862
_cell_length_c   4.74027862
_cell_angle_alpha   90.00000000
_cell_angle_beta   90.00000000
_cell_angle_gamma   90.00000000
_symmetry_Int_Tables_number   1
_chemical_formula_structural   CsNaMg6O7
_chemical_formula_sum   'Cs1 Na1 Mg6 O7'
_cell_volume   183.58731000
_cell_formula_units_Z   1
loop_
 _symmetry_equiv_pos_site_id
 _symmetry_equiv_pos_as_xyz
  1  'x, y, z'
loop_
 _atom_site_type_symbol
 _atom_site_label
 _atom_site_symmetry_multiplicity
 _atom_site_fract_x
 _atom_site_fract_y
 _atom_site_fract_z
 _atom_site_occupancy
  Cs  Cs0  1  0.41763814  -0.00000000  0.00000000  1
  Na  Na0  1  0.99655050  -0.00000000  -0.00000000  1
  Mg  Mg0  1  0.00477011  0.50000000  0.50000000  1
  Mg  Mg1  1  0.51608315  0.50000000  0.50000000  1
  Mg  Mg2  1  0.25063506  -0.00000000  0.50000000  1
  Mg  Mg3  1  0.75555991  0.00000000  0.50000000  1
  Mg  Mg4  1  0.25063506  0.50000000  0.00000000  1
  Mg  Mg5  1  0.75555991  0.50000000  -0.00000000  1
  O  O0  1  0.73851400  -0.00000000  0.00000000  1
  O  O1  1  0.26085922  0.50000000  0.50000000  1
  O  O2  1  0.76006361  0.50000000  0.50000000  1
  O  O3  1  0.01688471  -0.00000000  0.50000000  1
  O  O4  1  0.50468096  0.00000000  0.50000000  1
  O  O5  1  0.01688471  0.50000000  -0.00000000  1
  O  O6  1  0.50468096  0.50000000  -0.00000000  1
loop_
_geom_bond_atom_site_label_1
_geom_bond_atom_site_label_2
_geom_bond_distance
_geom_bond_site_symmetry_2
Cs0 O6 2.474532 1_555
Cs0 O4 2.474532 1_555
Cs0 O4 2.474532 1_554
Cs0 O6 2.474532 1_545
Cs0 O0 2.621633 1_555
Cs0 Mg4 2.734831 1_555
Cs0 Mg2 2.734831 1_554
Cs0 Mg2 2.734831 1_555
Cs0 Mg4 2.734831 1_545
Na0 O0 2.108221 1_555
Na0 O3 2.375955 1_654
Na0 O5 2.375955 1_655
Na0 O3 2.375955 1_655
Na0 O5 2.375955 1_645
Mg0 O2 1.999311 1_455
Mg0 O1 2.092310 1_555
Mg0 O5 2.372205 1_555
Mg0 O3 2.372205 1_555
Mg0 O3 2.372205 1_565
Mg0 O5 2.372205 1_556
Mg1 O2 1.993379 1_555
Mg1 O1 2.085241 1_555
Mg1 O4 2.371969 1_555
Mg1 O4 2.371969 1_565
Mg1 O6 2.371969 1_555
Mg1 O6 2.371969 1_556
Mg2 O3 1.909797 1_555
Mg2 O4 2.075616 1_555
Mg2 O1 2.371611 1_555
Mg2 O1 2.371611 1_545
Mg3 O4 2.049742 1_555
Mg3 O3 2.135087 1_655
Mg3 O2 2.370425 1_555
Mg3 O2 2.370425 1_545
Mg3 O0 2.374228 1_555
Mg3 O0 2.374228 1_556
Mg4 O5 1.909797 1_555
Mg4 O6 2.075616 1_555
Mg4 O1 2.371611 1_554
Mg4 O1 2.371611 1_555
Mg5 O6 2.049742 1_555
Mg5 O5 2.135087 1_655
Mg5 O2 2.370425 1_554
Mg5 O2 2.370425 1_555
Mg5 O0 2.374228 1_565
Mg5 O0 2.374228 1_555
