# generated using pymatgen
data_Li7Fe(O2F)2
_symmetry_space_group_name_H-M   'P 1'
_cell_length_a   5.52704700
_cell_length_b   5.89510329
_cell_length_c   9.94473146
_cell_angle_alpha   105.44390164
_cell_angle_beta   88.29325518
_cell_angle_gamma   117.46102347
_symmetry_Int_Tables_number   1
_chemical_formula_structural   Li7Fe(O2F)2
_chemical_formula_sum   'Li14 Fe2 O8 F4'
_cell_volume   275.48933247
_cell_formula_units_Z   2
loop_
 _symmetry_equiv_pos_site_id
 _symmetry_equiv_pos_as_xyz
  1  'x, y, z'
loop_
 _atom_site_type_symbol
 _atom_site_label
 _atom_site_symmetry_multiplicity
 _atom_site_fract_x
 _atom_site_fract_y
 _atom_site_fract_z
 _atom_site_occupancy
  Li  Li0  1  0.02424800  0.92816400  0.77327100  1
  Li  Li1  1  0.49676300  0.39525900  0.24855500  1
  Li  Li2  1  0.53499500  0.05689800  0.61797200  1
  Li  Li3  1  0.96801900  0.44217500  0.88094000  1
  Li  Li4  1  0.02357100  0.73839800  0.55780900  1
  Li  Li5  1  0.53642300  0.33098500  0.04368100  1
  Li  Li6  1  0.98571700  0.65640500  0.32357400  1
  Li  Li7  1  0.46773400  0.72165900  0.94244800  1
  Li  Li8  1  0.96786100  0.21218900  0.45944200  1
  Li  Li9  1  0.00878800  0.52472200  0.12157400  1
  Li  Li10  1  0.49546600  0.99521600  0.38513400  1
  Li  Li11  1  0.43768300  0.53149400  0.73156500  1
  Li  Li12  1  0.02742200  0.12011600  0.24988500  1
  Li  Li13  1  0.52103400  0.85113000  0.17574200  1
  Fe  Fe0  1  0.06081800  0.98242200  0.02336900  1
  Fe  Fe1  1  0.49595100  0.54537200  0.45607700  1
  O  O0  1  0.30119300  0.05283400  0.19668900  1
  O  O1  1  0.16840600  0.77378800  0.96120300  1
  O  O2  1  0.67572700  0.32836400  0.44641600  1
  O  O3  1  0.73528100  0.67056200  0.11166200  1
  O  O4  1  0.24284900  0.32513800  0.90023500  1
  O  O5  1  0.33094100  0.69006500  0.53634300  1
  O  O6  1  0.21446400  0.46299700  0.29810000  1
  O  O7  1  0.78653200  0.87675300  0.38030300  1
  F  F0  1  0.20721200  0.09883400  0.61109400  1
  F  F1  1  0.79872700  0.56937500  0.70833800  1
  F  F2  1  0.80553300  0.20485400  0.06602600  1
  F  F3  1  0.68064700  0.91383300  0.79255200  1
loop_
_geom_bond_atom_site_label_1
_geom_bond_atom_site_label_2
_geom_bond_distance
_geom_bond_site_symmetry_2
Li0 O4 2.107127 1_565
Li0 Li4 2.136043 1_555
Li1 O0 1.724983 1_555
Li1 O6 1.805755 1_555
Li1 Li5 1.995378 1_555
Li1 O3 2.306882 1_555
Li1 O2 2.427885 1_555
Li1 Li6 2.429248 1_555
Li2 O5 1.864840 1_545
Li2 O2 2.510730 1_555
Li3 O1 1.705905 1_655
Li3 O4 1.968414 1_655
Li3 Li9 2.307597 1_656
Li4 O5 1.845339 1_555
Li4 Li6 2.244912 1_455
Li4 O2 2.276156 1_455
Li5 O3 1.722403 1_555
Li5 O4 2.174653 1_554
Li6 Li9 1.974791 1_655
Li6 O7 2.027122 1_555
Li6 O6 2.029570 1_655
Li6 O2 2.499061 1_555
Li7 O1 1.812803 1_555
Li7 O4 2.003500 1_555
Li7 O3 2.436844 1_556
Li8 O7 1.710084 1_545
Li8 O2 2.042660 1_555
Li9 O3 2.070445 1_455
Li9 O6 2.312370 1_555
Li10 O2 1.677852 1_565
Li10 O7 2.022800 1_555
Li10 Li13 2.056400 1_555
Li10 Li2 2.247218 1_565
Li10 O0 2.361268 1_565
Li10 Li6 2.561915 1_455
Li11 Li7 2.068661 1_555
Li11 O4 2.285615 1_555
Li11 O5 2.556263 1_555
Li12 O6 1.723505 1_555
Li12 O0 1.766601 1_555
Li12 Li8 2.065788 1_455
Li12 O7 2.153942 1_445
Li12 O3 2.401142 1_445
Li12 Li13 2.509694 1_445
Li13 O3 1.922945 1_555
Li13 O0 2.029581 1_565
Li13 Li7 2.223104 1_554
Li13 O7 2.474726 1_555
Li13 Li9 2.553979 1_555
Fe0 O1 1.579928 1_554
Fe0 O0 2.038381 1_565
Fe0 Li12 2.215157 1_565
Fe0 O3 2.258988 1_455
Fe0 Li0 2.423993 1_554
Fe0 O4 2.441933 1_564
Fe1 O5 1.583668 1_555
Fe1 O2 1.932437 1_555
Fe1 Li1 2.018080 1_555
Fe1 O6 2.041311 1_555
Fe1 O7 2.186728 1_555
O0 O1 2.380356 1_544
O5 O6 2.329518 1_555
F0 Li4 1.808070 1_545
F0 Li2 1.943556 1_555
F0 Li0 2.112993 1_545
F0 Li11 2.242843 1_555
F0 Li8 2.437624 1_455
F1 Li0 1.825735 1_655
F1 Li11 1.916845 1_555
F1 Li4 2.078381 1_655
F1 Li3 2.410888 1_555
F1 O2 2.551302 1_555
F1 Li2 2.574876 1_555
F2 Li9 1.628294 1_655
F2 Li5 1.985513 1_555
F2 Li13 2.469153 1_545
F2 Li7 2.545059 1_544
F3 Li0 1.868005 1_655
F3 Li11 1.944292 1_555
F3 Li7 2.110858 1_555
F3 Li2 2.421334 1_565
