# generated using pymatgen
data_VGa(TeO4)2
_symmetry_space_group_name_H-M   'P 1'
_cell_length_a   8.10544300
_cell_length_b   5.02067700
_cell_length_c   18.01854439
_cell_angle_alpha   90.00000000
_cell_angle_beta   112.38782016
_cell_angle_gamma   90.00000000
_symmetry_Int_Tables_number   1
_chemical_formula_structural   VGa(TeO4)2
_chemical_formula_sum   'V4 Ga4 Te8 O32'
_cell_volume   677.99317619
_cell_formula_units_Z   4
loop_
 _symmetry_equiv_pos_site_id
 _symmetry_equiv_pos_as_xyz
  1  'x, y, z'
loop_
 _atom_site_type_symbol
 _atom_site_label
 _atom_site_symmetry_multiplicity
 _atom_site_fract_x
 _atom_site_fract_y
 _atom_site_fract_z
 _atom_site_occupancy
  V  V0  1  0.27259500  0.22016900  0.42759300  1
  V  V1  1  0.27259500  0.27983100  0.92759300  1
  V  V2  1  0.72740500  0.77983100  0.57240700  1
  V  V3  1  0.72740500  0.72016900  0.07240700  1
  Ga  Ga0  1  0.98737100  0.74019400  0.32516400  1
  Ga  Ga1  1  0.98737100  0.75980600  0.82516400  1
  Ga  Ga2  1  0.01262900  0.25980600  0.67483600  1
  Ga  Ga3  1  0.01262900  0.24019400  0.17483600  1
  Te  Te0  1  0.67186000  0.26428900  0.22226300  1
  Te  Te1  1  0.67186000  0.23571100  0.72226300  1
  Te  Te2  1  0.32814000  0.73571100  0.77773700  1
  Te  Te3  1  0.32814000  0.76428900  0.27773700  1
  Te  Te4  1  0.79433300  0.15653100  0.43060200  1
  Te  Te5  1  0.79433300  0.34346900  0.93060200  1
  Te  Te6  1  0.20566700  0.84346900  0.56939800  1
  Te  Te7  1  0.20566700  0.65653100  0.06939800  1
  O  O0  1  0.76094100  0.57025200  0.28664600  1
  O  O1  1  0.76094100  0.92974800  0.78664600  1
  O  O2  1  0.23905900  0.42974800  0.71335400  1
  O  O3  1  0.23905900  0.07025200  0.21335400  1
  O  O4  1  0.96738800  0.91222800  0.42275100  1
  O  O5  1  0.96738800  0.58777200  0.92275100  1
  O  O6  1  0.03261200  0.08777200  0.57724900  1
  O  O7  1  0.03261200  0.41222800  0.07724900  1
  O  O8  1  0.22311300  0.93225300  0.36059200  1
  O  O9  1  0.22311300  0.56774700  0.86059200  1
  O  O10  1  0.77688700  0.06774700  0.63940800  1
  O  O11  1  0.77688700  0.43225300  0.13940800  1
  O  O12  1  0.10326800  0.57152200  0.25070400  1
  O  O13  1  0.10326800  0.92847800  0.75070400  1
  O  O14  1  0.89673200  0.42847800  0.74929600  1
  O  O15  1  0.89673200  0.07152200  0.24929600  1
  O  O16  1  0.09608700  0.43895300  0.40186100  1
  O  O17  1  0.09608700  0.06104700  0.90186100  1
  O  O18  1  0.90391300  0.56104700  0.59813900  1
  O  O19  1  0.90391300  0.93895300  0.09813900  1
  O  O20  1  0.63195700  0.10024200  0.32083200  1
  O  O21  1  0.63195700  0.39975800  0.82083200  1
  O  O22  1  0.36804300  0.89975800  0.67916800  1
  O  O23  1  0.36804300  0.60024200  0.17916800  1
  O  O24  1  0.66754100  0.89596900  0.46829100  1
  O  O25  1  0.66754100  0.60403100  0.96829100  1
  O  O26  1  0.33245900  0.10403100  0.53170900  1
  O  O27  1  0.33245900  0.39596900  0.03170900  1
  O  O28  1  0.44355200  0.37299100  0.41812500  1
  O  O29  1  0.44355200  0.12700900  0.91812500  1
  O  O30  1  0.55644800  0.62700900  0.58187500  1
  O  O31  1  0.55644800  0.87299100  0.08187500  1
loop_
_geom_bond_atom_site_label_1
_geom_bond_atom_site_label_2
_geom_bond_distance
_geom_bond_site_symmetry_2
Ga0 O0 1.899412 1_555
Ga0 O16 2.011505 1_655
Ga0 O8 2.014766 1_655
Ga0 O4 2.020172 1_555
Ga0 O12 2.087999 1_655
Ga0 O15 2.100162 1_565
Ga1 O1 1.899412 1_555
Ga1 O17 2.011505 1_665
Ga1 O9 2.014766 1_655
Ga1 O5 2.020172 1_555
Ga1 O13 2.087999 1_655
Ga1 O14 2.100162 1_555
Ga2 O2 1.899412 1_555
Ga2 O18 2.011505 1_455
Ga2 O10 2.014766 1_455
Ga2 O6 2.020172 1_555
Ga2 O14 2.087999 1_455
Ga2 O13 2.100162 1_545
Ga3 O3 1.899412 1_555
Ga3 O19 2.011505 1_445
Ga3 O11 2.014766 1_455
Ga3 O7 2.020172 1_555
Ga3 O15 2.087999 1_455
Ga3 O12 2.100162 1_555
O0 Te0 1.894417 1_555
O1 Te1 1.894417 1_565
O2 Te2 1.894417 1_555
O3 Te3 1.894417 1_545
O4 Te4 1.908707 1_565
O4 Te6 2.635136 1_655
O5 Te5 1.908707 1_555
O5 Te7 2.635136 1_656
O6 Te6 1.908707 1_545
O6 Te4 2.635136 1_455
O7 Te7 1.908707 1_555
O7 Te5 2.635136 1_454
O8 V0 1.827311 1_565
O8 Te3 2.152390 1_555
O9 V1 1.827311 1_555
O9 Te2 2.152390 1_555
O10 V2 1.827311 1_545
O10 Te1 2.152390 1_555
O10 O13 2.732722 1_645
O11 V3 1.827311 1_555
O11 Te0 2.152390 1_555
O11 O12 2.732722 1_655
O12 Te3 1.954439 1_555
O13 Te2 1.954439 1_555
O14 Te1 1.954439 1_555
O14 O9 2.732722 1_655
O15 Te0 1.954439 1_555
O15 O8 2.732722 1_645
O16 V0 1.721363 1_555
O16 O4 2.678640 1_455
O17 V1 1.721363 1_555
O17 O5 2.678640 1_445
O18 V2 1.721363 1_555
O18 O6 2.678640 1_655
O19 V3 1.721363 1_555
O19 O7 2.678640 1_665
O20 Te4 1.934213 1_555
O20 Te0 2.091643 1_555
O21 Te5 1.934213 1_555
O21 Te1 2.091643 1_555
O22 Te6 1.934213 1_555
O22 Te2 2.091643 1_555
O23 Te7 1.934213 1_555
O23 Te3 2.091643 1_555
O24 V2 1.844308 1_555
O24 Te4 1.939168 1_565
O25 V3 1.844308 1_556
O25 Te5 1.939168 1_555
O26 V0 1.844308 1_555
O26 Te6 1.939168 1_545
O27 V1 1.844308 1_554
O27 Te7 1.939168 1_555
O28 V0 1.648635 1_555
O29 V1 1.648635 1_555
O30 V2 1.648635 1_555
O31 V3 1.648635 1_555
