# generated using pymatgen
data_CsInSe2
_symmetry_space_group_name_H-M   'P 1'
_cell_length_a   8.28849289
_cell_length_b   8.28849289
_cell_length_c   17.19810930
_cell_angle_alpha   83.05315670
_cell_angle_beta   83.05315670
_cell_angle_gamma   89.99705873
_symmetry_Int_Tables_number   1
_chemical_formula_structural   CsInSe2
_chemical_formula_sum   'Cs8 In8 Se16'
_cell_volume   1164.08394629
_cell_formula_units_Z   8
loop_
 _symmetry_equiv_pos_site_id
 _symmetry_equiv_pos_as_xyz
  1  'x, y, z'
loop_
 _atom_site_type_symbol
 _atom_site_label
 _atom_site_symmetry_multiplicity
 _atom_site_fract_x
 _atom_site_fract_y
 _atom_site_fract_z
 _atom_site_occupancy
  Cs  Cs0  1  0.65099726  0.27631130  0.39510772  1
  Cs  Cs1  1  0.72368870  0.34900274  0.10489228  1
  Cs  Cs2  1  0.34900274  0.72368870  0.60489228  1
  Cs  Cs3  1  0.27631130  0.65099726  0.89510772  1
  Cs  Cs4  1  0.27731385  0.15217026  0.89125481  1
  Cs  Cs5  1  0.84782974  0.72268615  0.60874519  1
  Cs  Cs6  1  0.72268615  0.84782974  0.10874519  1
  Cs  Cs7  1  0.15217026  0.27731385  0.39125481  1
  In  In0  1  0.58533500  0.20857066  0.66608023  1
  In  In1  1  0.79142934  0.41466500  0.83391977  1
  In  In2  1  0.41466500  0.79142934  0.33391977  1
  In  In3  1  0.20857066  0.58533500  0.16608023  1
  In  In4  1  0.08190888  0.20847944  0.66650685  1
  In  In5  1  0.79152056  0.91809112  0.83349315  1
  In  In6  1  0.91809112  0.79152056  0.33349315  1
  In  In7  1  0.20847944  0.08190888  0.16650685  1
  Se  Se0  1  0.55162496  0.44837504  0.75000000  1
  Se  Se1  1  0.44837504  0.55162496  0.25000000  1
  Se  Se2  1  0.55075785  0.92647140  0.74988416  1
  Se  Se3  1  0.07352860  0.44924215  0.75011584  1
  Se  Se4  1  0.44924215  0.07352860  0.25011584  1
  Se  Se5  1  0.92647140  0.55075785  0.24988416  1
  Se  Se6  1  0.07416478  0.92583522  0.75000000  1
  Se  Se7  1  0.92583522  0.07416478  0.25000000  1
  Se  Se8  1  0.35660253  0.23269242  0.57320622  1
  Se  Se9  1  0.76730758  0.64339747  0.92679378  1
  Se  Se10  1  0.64339747  0.76730758  0.42679378  1
  Se  Se11  1  0.23269242  0.35660253  0.07320622  1
  Se  Se12  1  0.85754545  0.23246112  0.57197595  1
  Se  Se13  1  0.76753888  0.14245455  0.92802405  1
  Se  Se14  1  0.14245455  0.76753888  0.42802405  1
  Se  Se15  1  0.23246112  0.85754545  0.07197595  1
loop_
_geom_bond_atom_site_label_1
_geom_bond_atom_site_label_2
_geom_bond_distance
_geom_bond_site_symmetry_2
Cs0 Se12 3.647968 1_555
Cs0 Se8 3.659339 1_555
Cs0 Se7 3.722945 1_555
Cs0 Se4 3.723189 1_555
Cs0 Se5 3.724571 1_555
Cs0 Se1 3.727134 1_555
Cs0 Cs7 4.143052 1_555
Cs0 Cs7 4.146469 1_655
Cs0 Se10 4.170234 1_555
Cs0 Se10 4.187531 1_545
Cs1 Se13 3.647968 1_554
Cs1 Se9 3.659339 1_554
Cs1 Se7 3.722945 1_555
Cs1 Se5 3.723189 1_555
Cs1 Se4 3.724571 1_555
Cs1 Se1 3.727134 1_555
Cs1 Cs6 4.143052 1_555
Cs1 Cs6 4.146469 1_545
Cs1 Se11 4.170234 1_555
Cs1 Se11 4.187531 1_655
Cs2 Se14 3.647968 1_555
Cs2 Se10 3.659339 1_555
Cs2 Se6 3.722945 1_555
Cs2 Se2 3.723189 1_555
Cs2 Se3 3.724571 1_555
Cs2 Se0 3.727134 1_555
Cs2 Cs5 4.143052 1_555
Cs2 Cs5 4.146469 1_455
Cs2 Se8 4.170234 1_555
Cs2 Se8 4.187531 1_565
Cs3 Se15 3.647968 1_556
Cs3 Se11 3.659339 1_556
Cs3 Se6 3.722945 1_555
Cs3 Se3 3.723189 1_555
Cs3 Se2 3.724571 1_555
Cs3 Se0 3.727134 1_555
Cs3 Cs4 4.143052 1_555
Cs3 Cs4 4.146469 1_565
Cs3 Se9 4.170234 1_555
Cs3 Se9 4.187531 1_455
Cs4 Se15 3.694079 1_546
Cs4 Se11 3.715171 1_556
Cs4 Se2 3.783432 1_545
Cs4 Se0 3.784203 1_555
Cs4 Se6 3.787908 1_545
Cs4 Se3 3.788569 1_555
Cs4 Se13 4.186330 1_555
Cs4 Se13 4.195311 1_455
Cs5 Se14 3.694079 1_655
Cs5 Se10 3.715171 1_555
Cs5 Se3 3.783432 1_655
Cs5 Se0 3.784203 1_555
Cs5 Se6 3.787908 1_655
Cs5 Se2 3.788569 1_555
Cs5 Se12 4.186330 1_555
Cs5 Se12 4.195311 1_565
Cs6 Se13 3.694079 1_564
Cs6 Se9 3.715171 1_554
Cs6 Se4 3.783432 1_565
Cs6 Se1 3.784203 1_555
Cs6 Se7 3.787908 1_565
Cs6 Se5 3.788569 1_555
Cs6 Se15 4.186330 1_555
Cs6 Se15 4.195311 1_655
Cs7 Se12 3.694079 1_455
Cs7 Se8 3.715171 1_555
Cs7 Se5 3.783432 1_455
Cs7 Se1 3.784203 1_555
Cs7 Se7 3.787908 1_455
Cs7 Se4 3.788569 1_555
Cs7 Se14 4.186330 1_555
Cs7 Se14 4.195311 1_545
In0 Se0 2.589982 1_555
In0 Se2 2.590645 1_545
In0 Se12 2.605422 1_555
In0 Se8 2.615465 1_555
In1 Se0 2.589982 1_555
In1 Se3 2.590645 1_655
In1 Se13 2.605422 1_555
In1 Se9 2.615465 1_555
In2 Se1 2.589982 1_555
In2 Se4 2.590645 1_565
In2 Se14 2.605422 1_555
In2 Se10 2.615465 1_555
In3 Se1 2.589982 1_555
In3 Se5 2.590645 1_455
In3 Se15 2.605422 1_555
In3 Se11 2.615465 1_555
In4 Se6 2.591951 1_545
In4 Se3 2.593188 1_555
In4 Se12 2.606520 1_455
In4 Se8 2.614808 1_555
In5 Se6 2.591951 1_655
In5 Se2 2.593188 1_555
In5 Se13 2.606520 1_565
In5 Se9 2.614808 1_555
In6 Se7 2.591951 1_565
In6 Se5 2.593188 1_555
In6 Se14 2.606520 1_655
In6 Se10 2.614808 1_555
In7 Se7 2.591951 1_455
In7 Se4 2.593188 1_555
In7 Se15 2.606520 1_545
In7 Se11 2.614808 1_555
