# generated using pymatgen
data_Cr2GaN
_symmetry_space_group_name_H-M   'P 1'
_cell_length_a   5.88025953
_cell_length_b   5.88025953
_cell_length_c   24.42868600
_cell_angle_alpha   90.00000000
_cell_angle_beta   90.00000000
_cell_angle_gamma   119.99999473
_symmetry_Int_Tables_number   1
_chemical_formula_structural   Cr2GaN
_chemical_formula_sum   'Cr32 Ga16 N16'
_cell_volume   731.51586775
_cell_formula_units_Z   16
loop_
 _symmetry_equiv_pos_site_id
 _symmetry_equiv_pos_as_xyz
  1  'x, y, z'
loop_
 _atom_site_type_symbol
 _atom_site_label
 _atom_site_symmetry_multiplicity
 _atom_site_fract_x
 _atom_site_fract_y
 _atom_site_fract_z
 _atom_site_occupancy
  Cr  Cr0_0  1  0.33333350  0.16666650  0.20997750  1
  Cr  Cr0_1  1  0.33333350  0.16666650  0.70997750  1
  Cr  Cr0_2  1  0.33333350  0.66666650  0.20997750  1
  Cr  Cr0_3  1  0.33333350  0.66666650  0.70997750  1
  Cr  Cr0_4  1  0.83333350  0.16666650  0.20997750  1
  Cr  Cr0_5  1  0.83333350  0.16666650  0.70997750  1
  Cr  Cr0_6  1  0.83333350  0.66666650  0.20997750  1
  Cr  Cr0_7  1  0.83333350  0.66666650  0.70997750  1
  Cr  Cr1_0  1  0.16666650  0.33333350  0.29002250  1
  Cr  Cr1_1  1  0.16666650  0.33333350  0.79002250  1
  Cr  Cr1_2  1  0.16666650  0.83333350  0.29002250  1
  Cr  Cr1_3  1  0.16666650  0.83333350  0.79002250  1
  Cr  Cr1_4  1  0.66666650  0.33333350  0.29002250  1
  Cr  Cr1_5  1  0.66666650  0.33333350  0.79002250  1
  Cr  Cr1_6  1  0.66666650  0.83333350  0.29002250  1
  Cr  Cr1_7  1  0.66666650  0.83333350  0.79002250  1
  Cr  Cr2_0  1  0.16666650  0.33333350  0.45997750  1
  Cr  Cr2_1  1  0.16666650  0.33333350  0.95997750  1
  Cr  Cr2_2  1  0.16666650  0.83333350  0.45997750  1
  Cr  Cr2_3  1  0.16666650  0.83333350  0.95997750  1
  Cr  Cr2_4  1  0.66666650  0.33333350  0.45997750  1
  Cr  Cr2_5  1  0.66666650  0.33333350  0.95997750  1
  Cr  Cr2_6  1  0.66666650  0.83333350  0.45997750  1
  Cr  Cr2_7  1  0.66666650  0.83333350  0.95997750  1
  Cr  Cr3_0  1  0.33333350  0.16666650  0.04002250  1
  Cr  Cr3_1  1  0.33333350  0.16666650  0.54002250  1
  Cr  Cr3_2  1  0.33333350  0.66666650  0.04002250  1
  Cr  Cr3_3  1  0.33333350  0.66666650  0.54002250  1
  Cr  Cr3_4  1  0.83333350  0.16666650  0.04002250  1
  Cr  Cr3_5  1  0.83333350  0.16666650  0.54002250  1
  Cr  Cr3_6  1  0.83333350  0.66666650  0.04002250  1
  Cr  Cr3_7  1  0.83333350  0.66666650  0.54002250  1
  Ga  Ga0_0  1  0.33333350  0.16666650  0.37500000  1
  Ga  Ga0_1  1  0.33333350  0.16666650  0.87500000  1
  Ga  Ga0_2  1  0.33333350  0.66666650  0.37500000  1
  Ga  Ga0_3  1  0.33333350  0.66666650  0.87500000  1
  Ga  Ga0_4  1  0.83333350  0.16666650  0.37500000  1
  Ga  Ga0_5  1  0.83333350  0.16666650  0.87500000  1
  Ga  Ga0_6  1  0.83333350  0.66666650  0.37500000  1
  Ga  Ga0_7  1  0.83333350  0.66666650  0.87500000  1
  Ga  Ga1_0  1  0.16666650  0.33333350  0.12500000  1
  Ga  Ga1_1  1  0.16666650  0.33333350  0.62500000  1
  Ga  Ga1_2  1  0.16666650  0.83333350  0.12500000  1
  Ga  Ga1_3  1  0.16666650  0.83333350  0.62500000  1
  Ga  Ga1_4  1  0.66666650  0.33333350  0.12500000  1
  Ga  Ga1_5  1  0.66666650  0.33333350  0.62500000  1
  Ga  Ga1_6  1  0.66666650  0.83333350  0.12500000  1
  Ga  Ga1_7  1  0.66666650  0.83333350  0.62500000  1
  N  N0_0  1  0.00000000  0.00000000  0.25000000  1
  N  N0_1  1  0.00000000  0.00000000  0.75000000  1
  N  N0_2  1  0.00000000  0.50000000  0.25000000  1
  N  N0_3  1  0.00000000  0.50000000  0.75000000  1
  N  N0_4  1  0.50000000  0.00000000  0.25000000  1
  N  N0_5  1  0.50000000  0.00000000  0.75000000  1
  N  N0_6  1  0.50000000  0.50000000  0.25000000  1
  N  N0_7  1  0.50000000  0.50000000  0.75000000  1
  N  N1_0  1  0.00000000  0.00000000  0.00000000  1
  N  N1_1  1  0.00000000  0.00000000  0.50000000  1
  N  N1_2  1  0.00000000  0.50000000  0.00000000  1
  N  N1_3  1  0.00000000  0.50000000  0.50000000  1
  N  N1_4  1  0.50000000  0.00000000  0.00000000  1
  N  N1_5  1  0.50000000  0.00000000  0.50000000  1
  N  N1_6  1  0.50000000  0.50000000  0.00000000  1
  N  N1_7  1  0.50000000  0.50000000  0.50000000  1
loop_
_geom_bond_atom_site_label_1
_geom_bond_atom_site_label_2
_geom_bond_distance
_geom_bond_site_symmetry_2
Cr0_0 N0_4 1.958913 1_555
Cr0_0 N0_6 1.958915 1_555
Cr0_0 N0_0 1.958915 1_555
Cr0_0 Ga1_4 2.681560 1_555
Cr0_0 Ga1_2 2.681560 1_545
Cr0_0 Ga1_0 2.681563 1_555
Cr0_1 N0_5 1.958913 1_555
Cr0_1 N0_7 1.958915 1_555
Cr0_1 N0_1 1.958915 1_555
Cr0_1 Ga1_5 2.681560 1_555
Cr0_1 Ga1_3 2.681560 1_545
Cr0_1 Ga1_1 2.681563 1_555
Cr0_2 N0_6 1.958913 1_555
Cr0_2 N0_2 1.958915 1_555
Cr0_2 N0_4 1.958915 1_565
Cr0_2 Ga1_6 2.681560 1_555
Cr0_2 Ga1_0 2.681560 1_555
Cr0_2 Ga1_2 2.681563 1_555
Cr0_3 N0_7 1.958913 1_555
Cr0_3 N0_3 1.958915 1_555
Cr0_3 N0_5 1.958915 1_565
Cr0_3 Ga1_1 2.681560 1_555
Cr0_3 Ga1_7 2.681560 1_555
Cr0_3 Ga1_3 2.681563 1_555
Cr0_4 N0_0 1.958913 1_655
Cr0_4 N0_4 1.958915 1_555
Cr0_4 N0_2 1.958915 1_655
Cr0_4 Ga1_6 2.681560 1_545
Cr0_4 Ga1_0 2.681560 1_655
Cr0_4 Ga1_4 2.681563 1_555
Cr0_5 N0_1 1.958913 1_655
Cr0_5 N0_5 1.958915 1_555
Cr0_5 N0_3 1.958915 1_655
Cr0_5 Ga1_7 2.681560 1_545
Cr0_5 Ga1_1 2.681560 1_655
Cr0_5 Ga1_5 2.681563 1_555
Cr0_6 N0_2 1.958913 1_655
Cr0_6 N0_0 1.958915 1_665
Cr0_6 N0_6 1.958915 1_555
Cr0_6 Ga1_4 2.681560 1_555
Cr0_6 Ga1_2 2.681560 1_655
Cr0_6 Ga1_6 2.681563 1_555
Cr0_7 N0_3 1.958913 1_655
Cr0_7 N0_1 1.958915 1_665
Cr0_7 N0_7 1.958915 1_555
Cr0_7 Ga1_3 2.681560 1_655
Cr0_7 Ga1_5 2.681560 1_555
Cr0_7 Ga1_7 2.681563 1_555
Cr1_0 N0_2 1.958913 1_555
Cr1_0 N0_6 1.958915 1_555
Cr1_0 N0_0 1.958915 1_555
Cr1_0 Ga0_2 2.681560 1_555
Cr1_0 Ga0_4 2.681560 1_455
Cr1_0 Ga0_0 2.681563 1_555
Cr1_1 N0_3 1.958913 1_555
Cr1_1 N0_7 1.958915 1_555
Cr1_1 N0_1 1.958915 1_555
Cr1_1 Ga0_3 2.681560 1_555
Cr1_1 Ga0_5 2.681560 1_455
Cr1_1 Ga0_1 2.681563 1_555
Cr1_2 N0_0 1.958913 1_565
Cr1_2 N0_2 1.958915 1_555
Cr1_2 N0_4 1.958915 1_565
Cr1_2 Ga0_6 2.681560 1_455
Cr1_2 Ga0_0 2.681560 1_565
Cr1_2 Ga0_2 2.681563 1_555
Cr1_3 N0_1 1.958913 1_565
Cr1_3 N0_3 1.958915 1_555
Cr1_3 N0_5 1.958915 1_565
Cr1_3 Ga0_7 2.681560 1_455
Cr1_3 Ga0_1 2.681560 1_565
Cr1_3 Ga0_3 2.681563 1_555
Cr1_4 N0_6 1.958913 1_555
Cr1_4 N0_4 1.958915 1_555
Cr1_4 N0_2 1.958915 1_655
Cr1_4 Ga0_0 2.681560 1_555
Cr1_4 Ga0_6 2.681560 1_555
Cr1_4 Ga0_4 2.681563 1_555
Cr1_5 N0_7 1.958913 1_555
Cr1_5 N0_5 1.958915 1_555
Cr1_5 N0_3 1.958915 1_655
Cr1_5 Ga0_7 2.681560 1_555
Cr1_5 Ga0_1 2.681560 1_555
Cr1_5 Ga0_5 2.681563 1_555
Cr1_6 N0_4 1.958913 1_565
Cr1_6 N0_6 1.958915 1_555
Cr1_6 N0_0 1.958915 1_665
Cr1_6 Ga0_2 2.681560 1_555
Cr1_6 Ga0_4 2.681560 1_565
Cr1_6 Ga0_6 2.681563 1_555
Cr1_7 N0_5 1.958913 1_565
Cr1_7 N0_1 1.958915 1_665
Cr1_7 N0_7 1.958915 1_555
Cr1_7 Ga0_3 2.681560 1_555
Cr1_7 Ga0_5 2.681560 1_565
Cr1_7 Ga0_7 2.681563 1_555
Cr2_0 N1_3 1.958913 1_555
Cr2_0 N1_1 1.958915 1_555
Cr2_0 N1_7 1.958915 1_555
Cr2_0 Ga0_2 2.681560 1_555
Cr2_0 Ga0_4 2.681560 1_455
Cr2_0 Ga0_0 2.681563 1_555
Cr2_1 N1_2 1.958913 1_556
Cr2_1 N1_0 1.958915 1_556
Cr2_1 N1_6 1.958915 1_556
Cr2_1 Ga0_3 2.681560 1_555
Cr2_1 Ga0_5 2.681560 1_455
Cr2_1 Ga0_1 2.681563 1_555
Cr2_2 N1_1 1.958913 1_565
Cr2_2 N1_3 1.958915 1_555
Cr2_2 N1_5 1.958915 1_565
Cr2_2 Ga0_6 2.681560 1_455
Cr2_2 Ga0_0 2.681560 1_565
Cr2_2 Ga0_2 2.681563 1_555
Cr2_3 N1_0 1.958913 1_566
Cr2_3 N1_2 1.958915 1_556
Cr2_3 N1_4 1.958915 1_566
Cr2_3 Ga0_7 2.681560 1_455
Cr2_3 Ga0_1 2.681560 1_565
Cr2_3 Ga0_3 2.681563 1_555
Cr2_4 N1_7 1.958913 1_555
Cr2_4 N1_5 1.958915 1_555
Cr2_4 N1_3 1.958915 1_655
Cr2_4 Ga0_6 2.681560 1_555
Cr2_4 Ga0_0 2.681560 1_555
Cr2_4 Ga0_4 2.681563 1_555
Cr2_5 N1_6 1.958913 1_556
Cr2_5 N1_4 1.958915 1_556
Cr2_5 N1_2 1.958915 1_656
Cr2_5 Ga0_7 2.681560 1_555
Cr2_5 Ga0_1 2.681560 1_555
Cr2_5 Ga0_5 2.681563 1_555
Cr2_6 N1_5 1.958913 1_565
Cr2_6 N1_7 1.958915 1_555
Cr2_6 N1_1 1.958915 1_665
Cr2_6 Ga0_2 2.681560 1_555
Cr2_6 Ga0_4 2.681560 1_565
Cr2_6 Ga0_6 2.681563 1_555
Cr2_7 N1_4 1.958913 1_566
Cr2_7 N1_6 1.958915 1_556
Cr2_7 N1_0 1.958915 1_666
Cr2_7 Ga0_3 2.681560 1_555
Cr2_7 Ga0_5 2.681560 1_565
Cr2_7 Ga0_7 2.681563 1_555
Cr3_0 N1_4 1.958913 1_555
Cr3_0 N1_6 1.958915 1_555
Cr3_0 N1_0 1.958915 1_555
Cr3_0 Ga1_4 2.681560 1_555
Cr3_0 Ga1_2 2.681560 1_545
Cr3_0 Ga1_0 2.681563 1_555
Cr3_1 N1_5 1.958913 1_555
Cr3_1 N1_7 1.958915 1_555
Cr3_1 N1_1 1.958915 1_555
Cr3_1 Ga1_5 2.681560 1_555
Cr3_1 Ga1_3 2.681560 1_545
Cr3_1 Ga1_1 2.681563 1_555
Cr3_2 N1_6 1.958913 1_555
Cr3_2 N1_2 1.958915 1_555
Cr3_2 N1_4 1.958915 1_565
Cr3_2 Ga1_6 2.681560 1_555
Cr3_2 Ga1_0 2.681560 1_555
Cr3_2 Ga1_2 2.681563 1_555
Cr3_3 N1_7 1.958913 1_555
Cr3_3 N1_3 1.958915 1_555
Cr3_3 N1_5 1.958915 1_565
Cr3_3 Ga1_7 2.681560 1_555
Cr3_3 Ga1_1 2.681560 1_555
Cr3_3 Ga1_3 2.681563 1_555
Cr3_4 N1_0 1.958913 1_655
Cr3_4 N1_4 1.958915 1_555
Cr3_4 N1_2 1.958915 1_655
Cr3_4 Ga1_6 2.681560 1_545
Cr3_4 Ga1_0 2.681560 1_655
Cr3_4 Ga1_4 2.681563 1_555
Cr3_5 N1_1 1.958913 1_655
Cr3_5 N1_5 1.958915 1_555
Cr3_5 N1_3 1.958915 1_655
Cr3_5 Ga1_7 2.681560 1_545
Cr3_5 Ga1_1 2.681560 1_655
Cr3_5 Ga1_5 2.681563 1_555
Cr3_6 N1_2 1.958913 1_655
Cr3_6 N1_0 1.958915 1_665
Cr3_6 N1_6 1.958915 1_555
Cr3_6 Ga1_2 2.681560 1_655
Cr3_6 Ga1_4 2.681560 1_555
Cr3_6 Ga1_6 2.681563 1_555
Cr3_7 N1_3 1.958913 1_655
Cr3_7 N1_7 1.958915 1_555
Cr3_7 N1_1 1.958915 1_665
Cr3_7 Ga1_3 2.681560 1_655
Cr3_7 Ga1_5 2.681560 1_555
Cr3_7 Ga1_7 2.681563 1_555
Ga0_0 Ga0_2 2.940130 1_555
Ga0_0 Ga0_4 2.940130 1_555
Ga0_0 Ga0_4 2.940130 1_455
Ga0_0 Ga0_2 2.940130 1_545
Ga0_0 Ga0_6 2.940130 1_555
Ga0_0 Ga0_6 2.940130 1_445
Ga0_1 Ga0_3 2.940130 1_555
Ga0_1 Ga0_5 2.940130 1_555
Ga0_1 Ga0_5 2.940130 1_455
Ga0_1 Ga0_3 2.940130 1_545
Ga0_1 Ga0_7 2.940130 1_445
Ga0_1 Ga0_7 2.940130 1_555
Ga0_2 Ga0_6 2.940130 1_455
Ga0_2 Ga0_6 2.940130 1_555
Ga0_2 Ga0_4 2.940130 1_565
Ga0_2 Ga0_4 2.940130 1_455
Ga0_3 Ga0_7 2.940130 1_455
Ga0_3 Ga0_7 2.940130 1_555
Ga0_3 Ga0_5 2.940130 1_565
Ga0_3 Ga0_5 2.940130 1_455
Ga0_4 Ga0_6 2.940130 1_555
Ga0_4 Ga0_6 2.940130 1_545
Ga0_5 Ga0_7 2.940130 1_555
Ga0_5 Ga0_7 2.940130 1_545
Ga1_0 Ga1_2 2.940130 1_555
Ga1_0 Ga1_4 2.940130 1_555
Ga1_0 Ga1_2 2.940130 1_545
Ga1_0 Ga1_4 2.940130 1_455
Ga1_0 Ga1_6 2.940130 1_555
Ga1_0 Ga1_6 2.940130 1_445
Ga1_1 Ga1_5 2.940130 1_555
Ga1_1 Ga1_3 2.940130 1_555
Ga1_1 Ga1_5 2.940130 1_455
Ga1_1 Ga1_3 2.940130 1_545
Ga1_1 Ga1_7 2.940130 1_445
Ga1_1 Ga1_7 2.940130 1_555
Ga1_2 Ga1_6 2.940130 1_555
Ga1_2 Ga1_6 2.940130 1_455
Ga1_2 Ga1_4 2.940130 1_455
Ga1_2 Ga1_4 2.940130 1_565
Ga1_3 Ga1_7 2.940130 1_555
Ga1_3 Ga1_7 2.940130 1_455
Ga1_3 Ga1_5 2.940130 1_455
Ga1_3 Ga1_5 2.940130 1_565
Ga1_4 Ga1_6 2.940130 1_545
Ga1_4 Ga1_6 2.940130 1_555
Ga1_5 Ga1_7 2.940130 1_545
Ga1_5 Ga1_7 2.940130 1_555
