# generated using pymatgen
data_BaHo2O4
_symmetry_space_group_name_H-M   'P 1'
_cell_length_a   6.38491000
_cell_length_b   15.54215373
_cell_length_c   13.42347722
_cell_angle_alpha   53.81660589
_cell_angle_beta   90.00000000
_cell_angle_gamma   90.00000000
_symmetry_Int_Tables_number   1
_chemical_formula_structural   BaHo2O4
_chemical_formula_sum   'Ba8 Ho16 O32'
_cell_volume   1075.16540391
_cell_formula_units_Z   8
loop_
 _symmetry_equiv_pos_site_id
 _symmetry_equiv_pos_as_xyz
  1  'x, y, z'
loop_
 _atom_site_type_symbol
 _atom_site_label
 _atom_site_symmetry_multiplicity
 _atom_site_fract_x
 _atom_site_fract_y
 _atom_site_fract_z
 _atom_site_occupancy
  Ba  Ba0_0  1  0.12500000  0.41729100  0.36753300  1
  Ba  Ba0_1  1  0.12500000  0.41729100  0.86753300  1
  Ba  Ba0_2  1  0.12500000  0.91729100  0.36753300  1
  Ba  Ba0_3  1  0.12500000  0.91729100  0.86753300  1
  Ba  Ba0_4  1  0.62500000  0.41729100  0.36753300  1
  Ba  Ba0_5  1  0.62500000  0.41729100  0.86753300  1
  Ba  Ba0_6  1  0.62500000  0.91729100  0.36753300  1
  Ba  Ba0_7  1  0.62500000  0.91729100  0.86753300  1
  Ho  Ho0_0  1  0.37500000  0.23248700  0.23438850  1
  Ho  Ho0_1  1  0.37500000  0.23248700  0.73438850  1
  Ho  Ho0_2  1  0.37500000  0.73248700  0.23438850  1
  Ho  Ho0_3  1  0.37500000  0.73248700  0.73438850  1
  Ho  Ho0_4  1  0.87500000  0.23248700  0.23438850  1
  Ho  Ho0_5  1  0.87500000  0.23248700  0.73438850  1
  Ho  Ho0_6  1  0.87500000  0.73248700  0.23438850  1
  Ho  Ho0_7  1  0.87500000  0.73248700  0.73438850  1
  Ho  Ho1_0  1  0.37500000  0.10181000  0.00120150  1
  Ho  Ho1_1  1  0.37500000  0.10181000  0.50120150  1
  Ho  Ho1_2  1  0.37500000  0.60181000  0.00120150  1
  Ho  Ho1_3  1  0.37500000  0.60181000  0.50120150  1
  Ho  Ho1_4  1  0.87500000  0.10181000  0.00120150  1
  Ho  Ho1_5  1  0.87500000  0.10181000  0.50120150  1
  Ho  Ho1_6  1  0.87500000  0.60181000  0.00120150  1
  Ho  Ho1_7  1  0.87500000  0.60181000  0.50120150  1
  O  O0_0  1  0.12500000  0.08103250  0.37434750  1
  O  O0_1  1  0.12500000  0.08103250  0.87434750  1
  O  O0_2  1  0.12500000  0.58103250  0.37434750  1
  O  O0_3  1  0.12500000  0.58103250  0.87434750  1
  O  O0_4  1  0.62500000  0.08103250  0.37434750  1
  O  O0_5  1  0.62500000  0.08103250  0.87434750  1
  O  O0_6  1  0.62500000  0.58103250  0.37434750  1
  O  O0_7  1  0.62500000  0.58103250  0.87434750  1
  O  O1_0  1  0.12500000  0.25158000  0.36190900  1
  O  O1_1  1  0.12500000  0.25158000  0.86190900  1
  O  O1_2  1  0.12500000  0.75158000  0.36190900  1
  O  O1_3  1  0.12500000  0.75158000  0.86190900  1
  O  O1_4  1  0.62500000  0.25158000  0.36190900  1
  O  O1_5  1  0.62500000  0.25158000  0.86190900  1
  O  O1_6  1  0.62500000  0.75158000  0.36190900  1
  O  O1_7  1  0.62500000  0.75158000  0.86190900  1
  O  O2_0  1  0.12500000  0.04540700  0.13105050  1
  O  O2_1  1  0.12500000  0.04540700  0.63105050  1
  O  O2_2  1  0.12500000  0.54540700  0.13105050  1
  O  O2_3  1  0.12500000  0.54540700  0.63105050  1
  O  O2_4  1  0.62500000  0.04540700  0.13105050  1
  O  O2_5  1  0.62500000  0.04540700  0.63105050  1
  O  O2_6  1  0.62500000  0.54540700  0.13105050  1
  O  O2_7  1  0.62500000  0.54540700  0.63105050  1
  O  O3_0  1  0.12500000  0.29869200  0.10409750  1
  O  O3_1  1  0.12500000  0.29869200  0.60409750  1
  O  O3_2  1  0.12500000  0.79869200  0.10409750  1
  O  O3_3  1  0.12500000  0.79869200  0.60409750  1
  O  O3_4  1  0.62500000  0.29869200  0.10409750  1
  O  O3_5  1  0.62500000  0.29869200  0.60409750  1
  O  O3_6  1  0.62500000  0.79869200  0.10409750  1
  O  O3_7  1  0.62500000  0.79869200  0.60409750  1
loop_
_geom_bond_atom_site_label_1
_geom_bond_atom_site_label_2
_geom_bond_distance
_geom_bond_site_symmetry_2
Ba0_0 O3_1 2.563254 1_555
Ba0_0 O2_2 2.564847 1_555
Ba0_0 O0_2 2.599948 1_555
Ba0_0 O1_0 2.620784 1_555
Ba0_0 Ba0_4 3.192455 1_555
Ba0_0 Ba0_4 3.192455 1_455
Ba0_1 O3_0 2.563254 1_556
Ba0_1 O2_3 2.564847 1_555
Ba0_1 O0_3 2.599948 1_555
Ba0_1 O1_1 2.620784 1_555
Ba0_1 Ba0_5 3.192455 1_555
Ba0_1 Ba0_5 3.192455 1_455
Ba0_2 O3_3 2.563254 1_555
Ba0_2 O2_0 2.564847 1_565
Ba0_2 O0_0 2.599948 1_565
Ba0_2 O1_2 2.620784 1_555
Ba0_2 Ba0_6 3.192455 1_455
Ba0_2 Ba0_6 3.192455 1_555
Ba0_3 O3_2 2.563254 1_556
Ba0_3 O2_1 2.564847 1_565
Ba0_3 O0_1 2.599948 1_565
Ba0_3 O1_3 2.620784 1_555
Ba0_3 Ba0_7 3.192455 1_455
Ba0_3 Ba0_7 3.192455 1_555
Ba0_4 O3_5 2.563254 1_555
Ba0_4 O2_6 2.564847 1_555
Ba0_4 O0_6 2.599948 1_555
Ba0_4 O1_4 2.620784 1_555
Ba0_5 O3_4 2.563254 1_556
Ba0_5 O2_7 2.564847 1_555
Ba0_5 O0_7 2.599948 1_555
Ba0_5 O1_5 2.620784 1_555
Ba0_6 O3_7 2.563254 1_555
Ba0_6 O2_4 2.564847 1_565
Ba0_6 O0_4 2.599948 1_565
Ba0_6 O1_6 2.620784 1_555
Ba0_7 O3_6 2.563254 1_556
Ba0_7 O2_5 2.564847 1_565
Ba0_7 O0_5 2.599948 1_565
Ba0_7 O1_7 2.620784 1_555
Ho0_0 O3_4 2.130887 1_555
Ho0_0 O3_0 2.130887 1_555
Ho0_0 O1_4 2.483128 1_555
Ho0_0 O1_0 2.483128 1_555
Ho0_0 O0_0 2.529198 1_555
Ho0_0 O0_4 2.529198 1_555
Ho0_1 O3_5 2.130887 1_555
Ho0_1 O3_1 2.130887 1_555
Ho0_1 O1_1 2.483128 1_555
Ho0_1 O1_5 2.483128 1_555
Ho0_1 O0_1 2.529198 1_555
Ho0_1 O0_5 2.529198 1_555
Ho0_2 O3_2 2.130887 1_555
Ho0_2 O3_6 2.130887 1_555
Ho0_2 O1_2 2.483128 1_555
Ho0_2 O1_6 2.483128 1_555
Ho0_2 O0_6 2.529198 1_555
Ho0_2 O0_2 2.529198 1_555
Ho0_3 O3_3 2.130887 1_555
Ho0_3 O3_7 2.130887 1_555
Ho0_3 O1_7 2.483128 1_555
Ho0_3 O1_3 2.483128 1_555
Ho0_3 O0_3 2.529198 1_555
Ho0_3 O0_7 2.529198 1_555
Ho0_4 O3_4 2.130887 1_555
Ho0_4 O3_0 2.130887 1_655
Ho0_4 O1_4 2.483128 1_555
Ho0_4 O1_0 2.483128 1_655
Ho0_4 O0_0 2.529198 1_655
Ho0_4 O0_4 2.529198 1_555
Ho0_5 O3_5 2.130887 1_555
Ho0_5 O3_1 2.130887 1_655
Ho0_5 O1_5 2.483128 1_555
Ho0_5 O1_1 2.483128 1_655
Ho0_5 O0_1 2.529198 1_655
Ho0_5 O0_5 2.529198 1_555
Ho0_6 O3_2 2.130887 1_655
Ho0_6 O3_6 2.130887 1_555
Ho0_6 O1_2 2.483128 1_655
Ho0_6 O1_6 2.483128 1_555
Ho0_6 O0_2 2.529198 1_655
Ho0_6 O0_6 2.529198 1_555
Ho0_7 O3_7 2.130887 1_555
Ho0_7 O3_3 2.130887 1_655
Ho0_7 O1_7 2.483128 1_555
Ho0_7 O1_3 2.483128 1_655
Ho0_7 O0_7 2.529198 1_555
Ho0_7 O0_3 2.529198 1_655
Ho1_0 O2_4 2.133166 1_555
Ho1_0 O2_0 2.133166 1_555
Ho1_0 O0_1 2.490201 1_554
Ho1_0 O0_5 2.490201 1_554
Ho1_0 O1_5 2.514637 1_554
Ho1_0 O1_1 2.514637 1_554
Ho1_1 O2_1 2.133166 1_555
Ho1_1 O2_5 2.133166 1_555
Ho1_1 O0_0 2.490201 1_555
Ho1_1 O0_4 2.490201 1_555
Ho1_1 O1_0 2.514637 1_555
Ho1_1 O1_4 2.514637 1_555
Ho1_2 O2_6 2.133166 1_555
Ho1_2 O2_2 2.133166 1_555
Ho1_2 O0_3 2.490201 1_554
Ho1_2 O0_7 2.490201 1_554
Ho1_2 O1_3 2.514637 1_554
Ho1_2 O1_7 2.514637 1_554
Ho1_3 O2_3 2.133166 1_555
Ho1_3 O2_7 2.133166 1_555
Ho1_3 O0_6 2.490201 1_555
Ho1_3 O0_2 2.490201 1_555
Ho1_3 O1_2 2.514637 1_555
Ho1_3 O1_6 2.514637 1_555
Ho1_4 O2_0 2.133166 1_655
Ho1_4 O2_4 2.133166 1_555
Ho1_4 O0_1 2.490201 1_654
Ho1_4 O0_5 2.490201 1_554
Ho1_4 O1_5 2.514637 1_554
Ho1_4 O1_1 2.514637 1_654
Ho1_5 O2_1 2.133166 1_655
Ho1_5 O2_5 2.133166 1_555
Ho1_5 O0_0 2.490201 1_655
Ho1_5 O0_4 2.490201 1_555
Ho1_5 O1_0 2.514637 1_655
Ho1_5 O1_4 2.514637 1_555
Ho1_6 O2_2 2.133166 1_655
Ho1_6 O2_6 2.133166 1_555
Ho1_6 O0_3 2.490201 1_654
Ho1_6 O0_7 2.490201 1_554
Ho1_6 O1_7 2.514637 1_554
Ho1_6 O1_3 2.514637 1_654
Ho1_7 O2_3 2.133166 1_655
Ho1_7 O2_7 2.133166 1_555
Ho1_7 O0_6 2.490201 1_555
Ho1_7 O0_2 2.490201 1_655
Ho1_7 O1_6 2.514637 1_555
Ho1_7 O1_2 2.514637 1_655
O0_0 O1_0 2.555658 1_555
O0_0 O0_4 3.192455 1_455
O0_0 O0_4 3.192455 1_555
O0_1 O1_1 2.555658 1_555
O0_1 O0_5 3.192455 1_455
O0_1 O0_5 3.192455 1_555
O0_2 O1_2 2.555658 1_555
O0_2 O0_6 3.192455 1_555
O0_2 O0_6 3.192455 1_455
O0_3 O1_3 2.555658 1_555
O0_3 O0_7 3.192455 1_455
O0_3 O0_7 3.192455 1_555
O0_4 O1_4 2.555658 1_555
O0_5 O1_5 2.555658 1_555
O0_6 O1_6 2.555658 1_555
O0_7 O1_7 2.555658 1_555
