# generated using pymatgen
data_Pr3Ru
_symmetry_space_group_name_H-M   'P 1'
_cell_length_a   6.55759791
_cell_length_b   7.41278685
_cell_length_c   9.92011309
_cell_angle_alpha   90.00000000
_cell_angle_beta   90.00000000
_cell_angle_gamma   90.00000000
_symmetry_Int_Tables_number   1
_chemical_formula_structural   Pr3Ru
_chemical_formula_sum   'Pr12 Ru4'
_cell_volume   482.21744682
_cell_formula_units_Z   4
loop_
 _symmetry_equiv_pos_site_id
 _symmetry_equiv_pos_as_xyz
  1  'x, y, z'
loop_
 _atom_site_type_symbol
 _atom_site_label
 _atom_site_symmetry_multiplicity
 _atom_site_fract_x
 _atom_site_fract_y
 _atom_site_fract_z
 _atom_site_occupancy
  Pr  Pr0  1  0.32615926  0.67336732  0.06939929  1
  Pr  Pr1  1  0.17384074  0.17336732  0.43060071  1
  Pr  Pr2  1  0.67384074  0.32663268  0.56939929  1
  Pr  Pr3  1  0.82615926  0.82663268  0.93060071  1
  Pr  Pr4  1  0.67384074  0.32663268  0.93060071  1
  Pr  Pr5  1  0.82615926  0.82663268  0.56939929  1
  Pr  Pr6  1  0.32615926  0.67336732  0.43060071  1
  Pr  Pr7  1  0.17384074  0.17336732  0.06939929  1
  Pr  Pr8  1  0.85401837  0.54643461  0.25000000  1
  Pr  Pr9  1  0.64598163  0.04643461  0.25000000  1
  Pr  Pr10  1  0.14598163  0.45356539  0.75000000  1
  Pr  Pr11  1  0.35401837  0.95356539  0.75000000  1
  Ru  Ru0  1  0.04914714  0.88715539  0.25000000  1
  Ru  Ru1  1  0.45085286  0.38715539  0.25000000  1
  Ru  Ru2  1  0.95085286  0.11284461  0.75000000  1
  Ru  Ru3  1  0.54914714  0.61284461  0.75000000  1
loop_
_geom_bond_atom_site_label_1
_geom_bond_atom_site_label_2
_geom_bond_distance
_geom_bond_site_symmetry_2
Pr0 Ru1 2.894768 1_555
Pr0 Ru0 3.003504 1_555
Pr0 Ru3 3.518344 1_554
Pr0 Pr6 3.583159 1_555
Pr0 Pr8 3.698783 1_455
Pr0 Pr4 3.701396 1_554
Pr0 Pr3 3.733249 1_454
Pr0 Pr3 3.733249 1_554
Pr0 Pr10 3.753669 1_554
Pr0 Pr11 3.792987 1_554
Pr0 Pr7 3.838625 1_555
Pr0 Pr7 3.838625 1_565
Pr0 Pr9 3.905906 1_565
Pr1 Ru0 2.894768 1_545
Pr1 Ru1 3.003504 1_555
Pr1 Ru2 3.518344 1_455
Pr1 Pr7 3.583159 1_555
Pr1 Pr9 3.698783 1_555
Pr1 Pr5 3.701396 1_445
Pr1 Pr2 3.733249 1_455
Pr1 Pr2 3.733249 1_555
Pr1 Pr11 3.753669 1_545
Pr1 Pr10 3.792987 1_555
Pr1 Pr6 3.838625 1_545
Pr1 Pr6 3.838625 1_555
Pr1 Pr8 3.905906 1_455
Pr2 Ru3 2.894768 1_555
Pr2 Ru2 3.003504 1_555
Pr2 Ru1 3.518344 1_555
Pr2 Pr4 3.583159 1_555
Pr2 Pr6 3.701396 1_555
Pr2 Pr8 3.753669 1_555
Pr2 Pr9 3.792987 1_555
Pr2 Pr5 3.838625 1_555
Pr2 Pr5 3.838625 1_545
Pr3 Ru2 2.894768 1_565
Pr3 Ru3 3.003504 1_555
Pr3 Ru0 3.518344 1_656
Pr3 Pr5 3.583159 1_555
Pr3 Pr7 3.701396 1_666
Pr3 Pr9 3.753669 1_566
Pr3 Pr8 3.792987 1_556
Pr3 Pr4 3.838625 1_565
Pr3 Pr4 3.838625 1_555
Pr4 Ru3 2.894768 1_555
Pr4 Ru2 3.003504 1_555
Pr4 Ru1 3.518344 1_556
Pr4 Pr7 3.733249 1_656
Pr4 Pr7 3.733249 1_556
Pr4 Pr8 3.753669 1_556
Pr4 Pr9 3.792987 1_556
Pr5 Ru2 2.894768 1_565
Pr5 Ru3 3.003504 1_555
Pr5 Ru0 3.518344 1_655
Pr5 Pr6 3.733249 1_655
Pr5 Pr6 3.733249 1_555
Pr5 Pr9 3.753669 1_565
Pr5 Pr8 3.792987 1_555
Pr6 Ru1 2.894768 1_555
Pr6 Ru0 3.003504 1_555
Pr6 Ru3 3.518344 1_555
Pr6 Pr8 3.698783 1_455
Pr6 Pr9 3.905906 1_565
Pr7 Ru0 2.894768 1_545
Pr7 Ru1 3.003504 1_555
Pr7 Ru2 3.518344 1_454
Pr7 Pr9 3.698783 1_555
Pr7 Pr8 3.905906 1_455
Pr8 Ru0 2.831330 1_655
Pr8 Ru1 2.895466 1_555
Pr9 Ru1 2.831330 1_555
Pr9 Ru0 2.895466 1_645
Pr10 Ru2 2.831330 1_455
Pr10 Ru3 2.895466 1_555
Pr10 Pr2 3.698783 1_455
Pr10 Pr4 3.698783 1_455
Pr10 Pr6 3.753669 1_555
Pr10 Pr7 3.792987 1_556
Pr10 Pr3 3.905906 1_455
Pr10 Pr5 3.905906 1_455
Pr11 Ru3 2.831330 1_555
Pr11 Ru2 2.895466 1_465
Pr11 Pr3 3.698783 1_555
Pr11 Pr5 3.698783 1_555
Pr11 Pr7 3.753669 1_566
Pr11 Pr6 3.792987 1_555
Pr11 Pr4 3.905906 1_565
Pr11 Pr2 3.905906 1_565
