# generated using pymatgen
data_TbAl
_symmetry_space_group_name_H-M   'P 1'
_cell_length_a   7.20354200
_cell_length_b   7.20354200
_cell_length_c   7.20354200
_cell_angle_alpha   90.00000000
_cell_angle_beta   90.00000000
_cell_angle_gamma   90.00000000
_symmetry_Int_Tables_number   1
_chemical_formula_structural   TbAl
_chemical_formula_sum   'Tb8 Al8'
_cell_volume   373.79912287
_cell_formula_units_Z   8
loop_
 _symmetry_equiv_pos_site_id
 _symmetry_equiv_pos_as_xyz
  1  'x, y, z'
loop_
 _atom_site_type_symbol
 _atom_site_label
 _atom_site_symmetry_multiplicity
 _atom_site_fract_x
 _atom_site_fract_y
 _atom_site_fract_z
 _atom_site_occupancy
  Tb  Tb0_0  1  0.25000000  0.25000000  0.25000000  1
  Tb  Tb0_1  1  0.25000000  0.25000000  0.75000000  1
  Tb  Tb0_2  1  0.25000000  0.75000000  0.25000000  1
  Tb  Tb0_3  1  0.25000000  0.75000000  0.75000000  1
  Tb  Tb0_4  1  0.75000000  0.25000000  0.25000000  1
  Tb  Tb0_5  1  0.75000000  0.25000000  0.75000000  1
  Tb  Tb0_6  1  0.75000000  0.75000000  0.25000000  1
  Tb  Tb0_7  1  0.75000000  0.75000000  0.75000000  1
  Al  Al0_0  1  0.00000000  0.00000000  0.00000000  1
  Al  Al0_1  1  0.00000000  0.00000000  0.50000000  1
  Al  Al0_2  1  0.00000000  0.50000000  0.00000000  1
  Al  Al0_3  1  0.00000000  0.50000000  0.50000000  1
  Al  Al0_4  1  0.50000000  0.00000000  0.00000000  1
  Al  Al0_5  1  0.50000000  0.00000000  0.50000000  1
  Al  Al0_6  1  0.50000000  0.50000000  0.00000000  1
  Al  Al0_7  1  0.50000000  0.50000000  0.50000000  1
loop_
_geom_bond_atom_site_label_1
_geom_bond_atom_site_label_2
_geom_bond_distance
_geom_bond_site_symmetry_2
Tb0_0 Tb0_4 3.601771 1_555
Tb0_0 Tb0_1 3.601771 1_554
Tb0_0 Tb0_2 3.601771 1_545
Tb0_0 Tb0_1 3.601771 1_555
Tb0_0 Tb0_2 3.601771 1_555
Tb0_0 Tb0_4 3.601771 1_455
Tb0_1 Tb0_3 3.601771 1_545
Tb0_1 Tb0_3 3.601771 1_555
Tb0_1 Tb0_5 3.601771 1_455
Tb0_1 Tb0_5 3.601771 1_555
Tb0_2 Tb0_6 3.601771 1_555
Tb0_2 Tb0_3 3.601771 1_555
Tb0_2 Tb0_3 3.601771 1_554
Tb0_2 Tb0_6 3.601771 1_455
Tb0_3 Tb0_7 3.601771 1_455
Tb0_3 Tb0_7 3.601771 1_555
Tb0_4 Tb0_6 3.601771 1_555
Tb0_4 Tb0_5 3.601771 1_554
Tb0_4 Tb0_6 3.601771 1_545
Tb0_4 Tb0_5 3.601771 1_555
Tb0_5 Tb0_7 3.601771 1_555
Tb0_5 Tb0_7 3.601771 1_545
Tb0_6 Tb0_7 3.601771 1_554
Tb0_6 Tb0_7 3.601771 1_555
Al0_0 Tb0_0 3.119225 1_555
Al0_0 Tb0_3 3.119225 1_544
Al0_0 Tb0_2 3.119225 1_545
Al0_0 Tb0_6 3.119225 1_445
Al0_0 Tb0_1 3.119225 1_554
Al0_0 Tb0_5 3.119225 1_454
Al0_0 Tb0_4 3.119225 1_455
Al0_0 Tb0_7 3.119225 1_444
Al0_0 Al0_4 3.601771 1_555
Al0_0 Al0_1 3.601771 1_555
Al0_0 Al0_2 3.601771 1_555
Al0_0 Al0_2 3.601771 1_545
Al0_0 Al0_1 3.601771 1_554
Al0_0 Al0_4 3.601771 1_455
Al0_1 Tb0_0 3.119225 1_555
Al0_1 Tb0_2 3.119225 1_545
Al0_1 Tb0_6 3.119225 1_445
Al0_1 Tb0_4 3.119225 1_455
Al0_1 Tb0_7 3.119225 1_445
Al0_1 Tb0_3 3.119225 1_545
Al0_1 Tb0_5 3.119225 1_455
Al0_1 Tb0_1 3.119225 1_555
Al0_1 Al0_5 3.601771 1_555
Al0_1 Al0_3 3.601771 1_555
Al0_1 Al0_5 3.601771 1_455
Al0_1 Al0_3 3.601771 1_545
Al0_2 Tb0_0 3.119225 1_555
Al0_2 Tb0_1 3.119225 1_554
Al0_2 Tb0_5 3.119225 1_454
Al0_2 Tb0_4 3.119225 1_455
Al0_2 Tb0_2 3.119225 1_555
Al0_2 Tb0_3 3.119225 1_554
Al0_2 Tb0_6 3.119225 1_455
Al0_2 Tb0_7 3.119225 1_454
Al0_2 Al0_6 3.601771 1_555
Al0_2 Al0_3 3.601771 1_555
Al0_2 Al0_3 3.601771 1_554
Al0_2 Al0_6 3.601771 1_455
Al0_3 Tb0_0 3.119225 1_555
Al0_3 Tb0_4 3.119225 1_455
Al0_3 Tb0_2 3.119225 1_555
Al0_3 Tb0_6 3.119225 1_455
Al0_3 Tb0_3 3.119225 1_555
Al0_3 Tb0_5 3.119225 1_455
Al0_3 Tb0_1 3.119225 1_555
Al0_3 Tb0_7 3.119225 1_455
Al0_3 Al0_7 3.601771 1_555
Al0_3 Al0_7 3.601771 1_455
Al0_4 Tb0_0 3.119225 1_555
Al0_4 Tb0_3 3.119225 1_544
Al0_4 Tb0_2 3.119225 1_545
Al0_4 Tb0_4 3.119225 1_555
Al0_4 Tb0_1 3.119225 1_554
Al0_4 Tb0_6 3.119225 1_545
Al0_4 Tb0_7 3.119225 1_544
Al0_4 Tb0_5 3.119225 1_554
Al0_4 Al0_6 3.601771 1_555
Al0_4 Al0_5 3.601771 1_555
Al0_4 Al0_6 3.601771 1_545
Al0_4 Al0_5 3.601771 1_554
Al0_5 Tb0_0 3.119225 1_555
Al0_5 Tb0_2 3.119225 1_545
Al0_5 Tb0_4 3.119225 1_555
Al0_5 Tb0_6 3.119225 1_545
Al0_5 Tb0_5 3.119225 1_555
Al0_5 Tb0_3 3.119225 1_545
Al0_5 Tb0_7 3.119225 1_545
Al0_5 Tb0_1 3.119225 1_555
Al0_5 Al0_7 3.601771 1_555
Al0_5 Al0_7 3.601771 1_545
Al0_6 Tb0_0 3.119225 1_555
Al0_6 Tb0_4 3.119225 1_555
Al0_6 Tb0_1 3.119225 1_554
Al0_6 Tb0_2 3.119225 1_555
Al0_6 Tb0_3 3.119225 1_554
Al0_6 Tb0_7 3.119225 1_554
Al0_6 Tb0_5 3.119225 1_554
Al0_6 Tb0_6 3.119225 1_555
Al0_6 Al0_7 3.601771 1_555
Al0_6 Al0_7 3.601771 1_554
Al0_7 Tb0_0 3.119225 1_555
Al0_7 Tb0_4 3.119225 1_555
Al0_7 Tb0_5 3.119225 1_555
Al0_7 Tb0_2 3.119225 1_555
Al0_7 Tb0_3 3.119225 1_555
Al0_7 Tb0_6 3.119225 1_555
Al0_7 Tb0_1 3.119225 1_555
Al0_7 Tb0_7 3.119225 1_555
