# generated using pymatgen
data_Li9Mn2Co5O16
_symmetry_space_group_name_H-M   'P 1'
_cell_length_a   2.99549100
_cell_length_b   9.91270034
_cell_length_c   10.28854914
_cell_angle_alpha   106.58691944
_cell_angle_beta   97.65252608
_cell_angle_gamma   88.10340254
_symmetry_Int_Tables_number   1
_chemical_formula_structural   Li9Mn2Co5O16
_chemical_formula_sum   'Li9 Mn2 Co5 O16'
_cell_volume   290.17792239
_cell_formula_units_Z   1
loop_
 _symmetry_equiv_pos_site_id
 _symmetry_equiv_pos_as_xyz
  1  'x, y, z'
loop_
 _atom_site_type_symbol
 _atom_site_label
 _atom_site_symmetry_multiplicity
 _atom_site_fract_x
 _atom_site_fract_y
 _atom_site_fract_z
 _atom_site_occupancy
  Li  Li0  1  0.07342900  0.31150800  0.13225700  1
  Li  Li1  1  0.57283400  0.82073400  0.13240400  1
  Li  Li2  1  0.68639600  0.43595300  0.37821800  1
  Li  Li3  1  0.18599600  0.94508300  0.36829500  1
  Li  Li4  1  0.31170600  0.56182200  0.62433200  1
  Li  Li5  1  0.80758300  0.06283200  0.62361800  1
  Li  Li6  1  0.93007200  0.68254200  0.87110400  1
  Li  Li7  1  0.42910300  0.18600200  0.87186200  1
  Li  Li8  1  0.61452600  0.11539500  0.24985000  1
  Mn  Mn0  1  0.01038600  0.00319500  0.00595000  1
  Mn  Mn1  1  0.50137400  0.49794100  0.99997900  1
  Co  Co0  1  0.13419600  0.62584900  0.25377700  1
  Co  Co1  1  0.24337900  0.24387500  0.48903300  1
  Co  Co2  1  0.74754600  0.75266300  0.50263500  1
  Co  Co3  1  0.86738100  0.37390200  0.74458700  1
  Co  Co4  1  0.37456100  0.87837100  0.74933100  1
  O  O0  1  0.52088900  0.13605700  0.05425500  1
  O  O1  1  0.08041400  0.64935500  0.07007900  1
  O  O2  1  0.16784200  0.28092400  0.33254200  1
  O  O3  1  0.65836000  0.77539500  0.32069300  1
  O  O4  1  0.82143600  0.39774200  0.56632100  1
  O  O5  1  0.26696900  0.89862800  0.56966500  1
  O  O6  1  0.39820500  0.52427900  0.81632000  1
  O  O7  1  0.95450900  0.02310600  0.81530600  1
  O  O8  1  0.60600500  0.47375200  0.18437400  1
  O  O9  1  0.08310100  0.96722100  0.17218300  1
  O  O10  1  0.21985500  0.60241300  0.43484800  1
  O  O11  1  0.69037100  0.10670500  0.44375700  1
  O  O12  1  0.78985800  0.72824600  0.68558300  1
  O  O13  1  0.34178900  0.22877000  0.67469500  1
  O  O14  1  0.48849600  0.86422300  0.93472700  1
  O  O15  1  0.92143600  0.34551600  0.92742300  1
loop_
_geom_bond_atom_site_label_1
_geom_bond_atom_site_label_2
_geom_bond_distance
_geom_bond_site_symmetry_2
Li0 O8 2.095966 1_455
Li0 O2 2.148007 1_555
Li0 O0 2.191052 1_555
Li0 O8 2.206531 1_555
Li0 O15 2.214085 1_454
Li0 O0 2.334134 1_455
Li1 O9 2.026747 1_555
Li1 O9 2.062367 1_655
Li1 O3 2.092303 1_555
Li1 O14 2.177745 1_554
Li1 O1 2.182877 1_555
Li1 O1 2.252934 1_655
Li2 O4 2.062134 1_555
Li2 O2 2.069732 1_655
Li2 O8 2.113924 1_555
Li2 O10 2.128515 1_555
Li2 O2 2.132263 1_555
Li2 O10 2.234586 1_655
Li3 O9 2.072920 1_555
Li3 O11 2.142394 1_565
Li3 O3 2.151280 1_555
Li3 O11 2.193873 1_465
Li3 O5 2.228619 1_555
Li3 O3 2.250945 1_455
Li4 O10 2.082278 1_555
Li4 O6 2.093887 1_555
Li4 O12 2.119578 1_555
Li4 O4 2.128110 1_455
Li4 O4 2.203891 1_555
Li4 O12 2.249522 1_455
Li5 O11 2.003280 1_555
Li5 O5 2.095349 1_645
Li5 O7 2.106912 1_555
Li5 O13 2.116244 1_555
Li5 O5 2.235895 1_545
Li5 O13 2.235899 1_655
Li6 O12 2.071852 1_555
Li6 O6 2.074926 1_655
Li6 O1 2.151994 1_656
Li6 O6 2.176830 1_555
Li6 O14 2.195766 1_555
Li6 O14 2.388457 1_655
Li7 O0 2.055772 1_556
Li7 O7 2.088593 1_455
Li7 O15 2.101368 1_555
Li7 O15 2.166996 1_455
Li7 O13 2.169232 1_555
Li7 O7 2.227601 1_555
Li8 O11 2.003810 1_555
Li8 O0 2.061922 1_555
Li8 O9 2.063538 1_645
Li8 O9 2.115626 1_545
Li8 O2 2.137138 1_555
Li8 O2 2.273931 1_655
Mn0 O9 1.828544 1_545
Mn0 O0 1.955526 1_455
Mn0 O0 1.969064 1_555
Mn0 O7 2.011384 1_454
Mn0 O14 2.014549 1_544
Mn0 O14 2.034645 1_444
Mn1 O8 1.962476 1_556
Mn1 O6 1.963415 1_555
Mn1 O1 1.965173 1_556
Mn1 O15 1.975818 1_555
Mn1 O1 2.236640 1_656
Mn1 O15 2.245542 1_455
Co0 O10 1.925165 1_555
Co0 O1 1.954520 1_555
Co0 O3 2.059604 1_455
Co0 O8 2.072076 1_555
Co0 O3 2.102448 1_555
Co0 O8 2.128071 1_455
Co1 O2 1.735931 1_555
Co1 O11 1.882189 1_555
Co1 O13 1.941278 1_555
Co1 O4 2.000946 1_455
Co1 O11 2.095683 1_455
Co1 O4 2.252249 1_555
Co2 O3 1.931290 1_555
Co2 O12 1.952467 1_555
Co2 O5 2.048980 1_555
Co2 O10 2.058296 1_655
Co2 O5 2.069681 1_655
Co2 O10 2.114812 1_555
Co3 O4 1.901785 1_555
Co3 O15 1.965213 1_555
Co3 O13 2.037761 1_655
Co3 O6 2.061880 1_555
Co3 O13 2.079258 1_555
Co3 O6 2.123978 1_655
Co4 O5 1.900033 1_555
Co4 O7 1.911633 1_465
Co4 O12 1.931278 1_555
Co4 O14 1.936678 1_555
Co4 O7 2.198186 1_565
Co4 O12 2.240920 1_455
