# generated using pymatgen
data_CaLa(FeO3)2
_symmetry_space_group_name_H-M   'P 1'
_cell_length_a   5.52087100
_cell_length_b   5.52313000
_cell_length_c   7.81248600
_cell_angle_alpha   90.00000000
_cell_angle_beta   90.00000000
_cell_angle_gamma   90.00000000
_symmetry_Int_Tables_number   1
_chemical_formula_structural   CaLa(FeO3)2
_chemical_formula_sum   'Ca2 La2 Fe4 O12'
_cell_volume   238.22213753
_cell_formula_units_Z   2
loop_
 _symmetry_equiv_pos_site_id
 _symmetry_equiv_pos_as_xyz
  1  'x, y, z'
loop_
 _atom_site_type_symbol
 _atom_site_label
 _atom_site_symmetry_multiplicity
 _atom_site_fract_x
 _atom_site_fract_y
 _atom_site_fract_z
 _atom_site_occupancy
  Ca  Ca0  1  0.49043600  0.21357400  0.00000000  1
  Ca  Ca1  1  0.99043600  0.78642600  0.50000000  1
  La  La0  1  0.00628200  0.72230400  0.00000000  1
  La  La1  1  0.50628200  0.27769600  0.50000000  1
  Fe  Fe0  1  0.00038400  0.24988500  0.24924700  1
  Fe  Fe1  1  0.50038400  0.75011500  0.74924700  1
  Fe  Fe2  1  0.00038400  0.24988500  0.75075300  1
  Fe  Fe3  1  0.50038400  0.75011500  0.25075300  1
  O  O0  1  0.42087800  0.73642400  0.50000000  1
  O  O1  1  0.78307900  0.53267400  0.70810000  1
  O  O2  1  0.78307900  0.53267400  0.29190000  1
  O  O3  1  0.28307900  0.46732600  0.79190000  1
  O  O4  1  0.28307900  0.46732600  0.20810000  1
  O  O5  1  0.92087800  0.26357600  0.00000000  1
  O  O6  1  0.07134800  0.23325300  0.50000000  1
  O  O7  1  0.72212700  0.02793900  0.28844000  1
  O  O8  1  0.72212700  0.02793900  0.71156000  1
  O  O9  1  0.22212700  0.97206100  0.21156000  1
  O  O10  1  0.22212700  0.97206100  0.78844000  1
  O  O11  1  0.57134800  0.76674700  0.00000000  1
loop_
_geom_bond_atom_site_label_1
_geom_bond_atom_site_label_2
_geom_bond_distance
_geom_bond_site_symmetry_2
Ca0 O5 2.392408 1_555
Ca0 O3 2.432677 1_554
Ca0 O4 2.432677 1_555
Ca0 O11 2.507986 1_545
Ca0 O10 2.589467 1_544
Ca0 O9 2.589467 1_545
Ca0 O8 2.786640 1_554
Ca0 O7 2.786640 1_555
Ca0 O11 3.087730 1_555
Ca1 O0 2.392408 1_655
Ca1 O2 2.432677 1_555
Ca1 O1 2.432677 1_555
Ca1 O6 2.507986 1_665
Ca1 O7 2.589467 1_565
Ca1 O8 2.589467 1_565
Ca1 O9 2.786640 1_655
Ca1 O10 2.786640 1_655
Ca1 O6 3.087730 1_655
La0 O11 2.413728 1_455
La0 O10 2.460624 1_554
La0 O9 2.460624 1_555
La0 O5 2.577114 1_455
La0 O3 2.638498 1_554
La0 O4 2.638498 1_555
La0 O1 2.795705 1_454
La0 O2 2.795705 1_455
La0 O5 3.026470 1_465
La1 O6 2.413728 1_555
La1 O7 2.460624 1_555
La1 O8 2.460624 1_555
La1 O0 2.577114 1_555
La1 O2 2.638498 1_555
La1 O1 2.638498 1_555
La1 O4 2.795705 1_555
La1 O3 2.795705 1_555
La1 O0 3.026470 1_545
Fe0 O9 1.984931 1_545
Fe0 O7 1.989072 1_455
Fe0 O4 1.995366 1_555
Fe0 O2 1.997454 1_455
Fe0 O5 1.997530 1_455
Fe0 O6 1.999908 1_555
Fe1 O8 1.984931 1_565
Fe1 O10 1.989072 1_555
Fe1 O1 1.995366 1_555
Fe1 O3 1.997454 1_555
Fe1 O0 1.997530 1_555
Fe1 O11 1.999908 1_556
Fe2 O10 1.984931 1_545
Fe2 O8 1.989072 1_455
Fe2 O3 1.995366 1_555
Fe2 O1 1.997454 1_455
Fe2 O5 1.997530 1_456
Fe2 O6 1.999908 1_555
Fe3 O7 1.984931 1_565
Fe3 O9 1.989072 1_555
Fe3 O2 1.995366 1_555
Fe3 O4 1.997454 1_555
Fe3 O0 1.997530 1_555
Fe3 O11 1.999908 1_555
