# generated using pymatgen
data_LaCrCuO6
_symmetry_space_group_name_H-M   'P 1'
_cell_length_a   4.63676900
_cell_length_b   4.73336631
_cell_length_c   6.92022653
_cell_angle_alpha   76.11094358
_cell_angle_beta   74.12037481
_cell_angle_gamma   70.86867923
_symmetry_Int_Tables_number   1
_chemical_formula_structural   LaCrCuO6
_chemical_formula_sum   'La1 Cr1 Cu1 O6'
_cell_volume   136.11481657
_cell_formula_units_Z   1
loop_
 _symmetry_equiv_pos_site_id
 _symmetry_equiv_pos_as_xyz
  1  'x, y, z'
loop_
 _atom_site_type_symbol
 _atom_site_label
 _atom_site_symmetry_multiplicity
 _atom_site_fract_x
 _atom_site_fract_y
 _atom_site_fract_z
 _atom_site_occupancy
  La  La0  1  0.75451300  0.16397300  0.76747300  1
  Cr  Cr0  1  0.52108700  0.04300200  0.33218200  1
  Cu  Cu0  1  0.99945000  0.48472900  0.02837000  1
  O  O0  1  0.75439100  0.63777900  0.84356500  1
  O  O1  1  0.32962700  0.85583400  0.52866200  1
  O  O2  1  0.72190600  0.19819000  0.42103600  1
  O  O3  1  0.77268000  0.82601700  0.16121200  1
  O  O4  1  0.20647500  0.19999500  0.86966800  1
  O  O5  1  0.28169600  0.33024500  0.20642200  1
loop_
_geom_bond_atom_site_label_1
_geom_bond_atom_site_label_2
_geom_bond_distance
_geom_bond_site_symmetry_2
La0 O4 2.403537 1_555
La0 O2 2.406786 1_555
La0 O0 2.419056 1_545
La0 O0 2.423413 1_555
La0 O4 2.454400 1_655
La0 O3 2.816930 1_546
La0 O1 2.857580 1_645
Cr0 O1 1.642681 1_545
Cr0 O2 1.662291 1_555
Cr0 O5 1.676136 1_555
Cr0 O3 1.690664 1_545
Cu0 O4 1.797146 1_654
Cu0 O0 1.806211 1_554
Cu0 O5 1.894270 1_655
Cu0 O3 1.905512 1_555
O0 O4 2.429202 1_655
