# generated using pymatgen
data_Rb2Li(SbO2)2
_symmetry_space_group_name_H-M   'P 1'
_cell_length_a   8.05629442
_cell_length_b   5.72937254
_cell_length_c   6.38704562
_cell_angle_alpha   81.76710978
_cell_angle_beta   119.50259557
_cell_angle_gamma   127.43828395
_symmetry_Int_Tables_number   1
_chemical_formula_structural   Rb2Li(SbO2)2
_chemical_formula_sum   'Rb2 Li1 Sb2 O4'
_cell_volume   198.45840255
_cell_formula_units_Z   1
loop_
 _symmetry_equiv_pos_site_id
 _symmetry_equiv_pos_as_xyz
  1  'x, y, z'
loop_
 _atom_site_type_symbol
 _atom_site_label
 _atom_site_symmetry_multiplicity
 _atom_site_fract_x
 _atom_site_fract_y
 _atom_site_fract_z
 _atom_site_occupancy
  Rb  Rb0  1  0.22683500  0.65638800  0.39790300  1
  Rb  Rb1  1  0.73819600  0.48478500  0.61542800  1
  Li  Li0  1  0.08104500  0.25382200  0.93818300  1
  Sb  Sb0  1  0.66531000  0.85831000  0.08266400  1
  Sb  Sb1  1  0.38190300  0.13713000  0.92361900  1
  O  O0  1  0.25851200  0.10166000  0.13254900  1
  O  O1  1  0.30687000  0.68660200  0.91190200  1
  O  O2  1  0.71110800  0.24867700  0.16870100  1
  O  O3  1  0.73736400  0.99970900  0.81863400  1
loop_
_geom_bond_atom_site_label_1
_geom_bond_atom_site_label_2
_geom_bond_distance
_geom_bond_site_symmetry_2
Rb1 Sb1 3.636585 1_665
Rb1 Sb1 3.684047 1_555
Rb1 Sb0 3.738705 1_555
Li0 O3 1.924563 1_445
Li0 O0 1.950025 1_556
Li0 O1 2.045292 1_555
Li0 Rb0 3.251156 1_556
O0 Sb1 1.947688 1_554
O0 Rb0 2.800355 1_545
O0 Rb1 3.025055 1_555
O0 Rb1 3.558933 1_444
O1 Sb0 2.060941 1_556
O1 Sb1 2.268814 1_565
O1 Rb0 3.027466 1_555
O1 Rb1 3.399092 1_455
O1 Rb0 3.429713 1_556
O2 Sb1 2.007363 1_554
O2 Sb0 2.142264 1_545
O2 Rb0 2.837442 1_655
O2 Rb1 3.186204 1_555
O2 Rb1 3.660154 1_554
O3 Sb0 1.959148 1_556
O3 Rb1 2.891588 1_565
O3 Rb0 2.966236 1_555
O3 Rb1 3.393729 1_555
