# generated using pymatgen
data_K8Sn8Se20O9
_symmetry_space_group_name_H-M   'P 1'
_cell_length_a   11.21085708
_cell_length_b   11.21085708
_cell_length_c   11.21085751
_cell_angle_alpha   85.94202816
_cell_angle_beta   85.94202816
_cell_angle_gamma   85.94202479
_symmetry_Int_Tables_number   1
_chemical_formula_structural   K8Sn8Se20O9
_chemical_formula_sum   'K8 Sn8 Se20 O9'
_cell_volume   1398.89661703
_cell_formula_units_Z   1
loop_
 _symmetry_equiv_pos_site_id
 _symmetry_equiv_pos_as_xyz
  1  'x, y, z'
loop_
 _atom_site_type_symbol
 _atom_site_label
 _atom_site_symmetry_multiplicity
 _atom_site_fract_x
 _atom_site_fract_y
 _atom_site_fract_z
 _atom_site_occupancy
  K  K0  1  0.10363100  0.10363100  0.10363100  1
  K  K1  1  0.91589500  0.91589500  0.91589500  1
  K  K2  1  0.62108100  0.20716500  0.52049200  1
  K  K3  1  0.52049200  0.62108100  0.20716500  1
  K  K4  1  0.20716500  0.52049200  0.62108100  1
  K  K5  1  0.39106500  0.80268200  0.48721500  1
  K  K6  1  0.48721500  0.39106500  0.80268200  1
  K  K7  1  0.80268200  0.48721500  0.39106500  1
  Sn  Sn0  1  0.08647200  0.11874900  0.53359200  1
  Sn  Sn1  1  0.53359200  0.08647200  0.11874900  1
  Sn  Sn2  1  0.11874900  0.53359200  0.08647200  1
  Sn  Sn3  1  0.89883200  0.88231200  0.46078200  1
  Sn  Sn4  1  0.46078200  0.89883200  0.88231200  1
  Sn  Sn5  1  0.88231200  0.46078200  0.89883200  1
  Sn  Sn6  1  0.30995300  0.30995300  0.30995300  1
  Sn  Sn7  1  0.68685300  0.68685300  0.68685300  1
  Se  Se0  1  0.08281000  0.31532100  0.38582300  1
  Se  Se1  1  0.38582300  0.08281000  0.31532100  1
  Se  Se2  1  0.31532100  0.38582300  0.08281000  1
  Se  Se3  1  0.91216400  0.68599600  0.60392900  1
  Se  Se4  1  0.60392900  0.91216400  0.68599600  1
  Se  Se5  1  0.68599600  0.60392900  0.91216400  1
  Se  Se6  1  0.11911400  0.93725100  0.39256100  1
  Se  Se7  1  0.39256100  0.11911400  0.93725100  1
  Se  Se8  1  0.93725100  0.39256100  0.11911400  1
  Se  Se9  1  0.87083500  0.05804500  0.60843400  1
  Se  Se10  1  0.60843400  0.87083500  0.05804500  1
  Se  Se11  1  0.05804500  0.60843400  0.87083500  1
  Se  Se12  1  0.20671200  0.15723100  0.75026500  1
  Se  Se13  1  0.75026500  0.20671200  0.15723100  1
  Se  Se14  1  0.15723100  0.75026500  0.20671200  1
  Se  Se15  1  0.77471300  0.83840000  0.27618400  1
  Se  Se16  1  0.27618400  0.77471300  0.83840000  1
  Se  Se17  1  0.83840000  0.27618400  0.77471300  1
  Se  Se18  1  0.42858400  0.42858400  0.42858400  1
  Se  Se19  1  0.56838800  0.56838800  0.56838800  1
  O  O0  1  0.30904800  0.71891800  0.69774600  1
  O  O1  1  0.69774600  0.30904800  0.71891800  1
  O  O2  1  0.71891800  0.69774600  0.30904800  1
  O  O3  1  0.71302100  0.24679000  0.29815100  1
  O  O4  1  0.29815100  0.71302100  0.24679000  1
  O  O5  1  0.24679000  0.29815100  0.71302100  1
  O  O6  1  0.84757900  0.08421900  0.15609700  1
  O  O7  1  0.15609700  0.84757900  0.08421900  1
  O  O8  1  0.08421900  0.15609700  0.84757900  1
loop_
_geom_bond_atom_site_label_1
_geom_bond_atom_site_label_2
_geom_bond_distance
_geom_bond_site_symmetry_2
K0 O7 2.909431 1_545
K0 O6 2.909431 1_455
K0 O8 2.909431 1_554
K0 Se8 3.630438 1_455
K0 Se7 3.630438 1_554
K0 Se6 3.630438 1_545
K0 Se1 4.071221 1_555
K0 Se0 4.071221 1_555
K0 Se2 4.071221 1_555
K1 O7 3.409086 1_656
K1 O6 3.409086 1_566
K1 O8 3.409086 1_665
K1 Se11 3.745799 1_655
K1 Se10 3.745799 1_556
K1 Se9 3.745799 1_565
K1 Se16 4.285769 1_655
K1 Se17 4.285769 1_565
K1 Se15 4.285769 1_556
K1 Se4 4.493123 1_555
K1 Se3 4.493123 1_555
K1 Se5 4.493123 1_555
K2 O3 2.649041 1_555
K2 O1 2.785854 1_555
K2 Se18 3.327943 1_555
K2 Se9 3.331890 1_555
K2 Se4 3.686235 1_545
K3 O4 2.649041 1_555
K3 O2 2.785854 1_555
K3 Se18 3.327943 1_555
K3 Se10 3.331890 1_555
K3 Se5 3.686235 1_554
K4 O5 2.649041 1_555
K4 O0 2.785854 1_555
K4 Se18 3.327943 1_555
K4 Se11 3.331890 1_555
K4 Se3 3.686235 1_455
K5 O0 2.607557 1_555
K5 O4 3.207715 1_555
K5 Se19 3.295146 1_555
K5 Se6 3.503935 1_555
K5 Se1 3.565535 1_565
K6 O1 2.607557 1_555
K6 O5 3.207715 1_555
K6 Se19 3.295146 1_555
K6 Se7 3.503935 1_555
K6 Se2 3.565535 1_556
K7 O2 2.607557 1_555
K7 O3 3.207715 1_555
K7 Se19 3.295146 1_555
K7 Se8 3.503935 1_555
K7 Se0 3.565535 1_655
Se0 Sn6 2.624994 1_555
Se0 Sn0 2.661327 1_555
Se0 Se8 3.532306 1_455
Se1 Sn6 2.624993 1_555
Se1 Sn1 2.661327 1_555
Se1 Se6 3.532306 1_545
Se2 Sn6 2.624994 1_555
Se2 Sn2 2.661327 1_555
Se2 Se7 3.532306 1_554
Se3 Sn7 2.628715 1_555
Se3 Sn3 2.632311 1_555
Se4 Sn7 2.628715 1_555
Se4 Sn4 2.632311 1_555
Se4 Se9 3.536583 1_565
Se5 Sn7 2.628715 1_555
Se5 Sn5 2.632311 1_555
Se6 Sn3 2.635196 1_455
Se6 Sn0 2.653671 1_565
Se7 Sn4 2.635196 1_545
Se7 Sn1 2.653671 1_556
Se8 Sn5 2.635196 1_554
Se8 Sn2 2.653671 1_655
Se9 Sn0 2.622265 1_655
Se9 Sn3 2.649607 1_545
Se10 Sn1 2.622265 1_565
Se10 Sn4 2.649607 1_554
Se10 Se15 3.164050 1_555
Se10 Se5 3.536583 1_554
Se11 Sn2 2.622265 1_556
Se11 Sn5 2.649607 1_455
Se11 Se16 3.164050 1_555
Se11 Se3 3.536583 1_455
Se12 Sn0 2.932190 1_555
Se12 Se7 3.046870 1_555
Se13 Sn1 2.932190 1_555
Se13 Se8 3.046870 1_555
Se14 Sn2 2.932190 1_555
Se14 Se6 3.046870 1_555
Se15 Sn3 2.666480 1_555
Se16 Sn4 2.666480 1_555
Se17 Sn5 2.666480 1_555
Se17 Se9 3.164050 1_555
Se18 Sn6 2.461170 1_555
Se18 Se19 2.900434 1_555
Se19 Sn7 2.457726 1_555
O0 Se16 1.743050 1_555
O1 Se17 1.743050 1_555
O2 Se15 1.743050 1_555
O3 Se13 1.688977 1_555
O4 Se14 1.688977 1_555
O5 Se12 1.688977 1_555
O6 Se13 1.692534 1_555
O7 Se14 1.692534 1_555
O8 Se12 1.692534 1_555
