# generated using pymatgen
data_CeAlH2Ir
_symmetry_space_group_name_H-M   'P 1'
_cell_length_a   4.36228197
_cell_length_b   4.36228197
_cell_length_c   8.28796400
_cell_angle_alpha   90.00000000
_cell_angle_beta   90.00000000
_cell_angle_gamma   119.99999960
_symmetry_Int_Tables_number   1
_chemical_formula_structural   CeAlH2Ir
_chemical_formula_sum   'Ce2 Al2 H4 Ir2'
_cell_volume   136.58592824
_cell_formula_units_Z   2
loop_
 _symmetry_equiv_pos_site_id
 _symmetry_equiv_pos_as_xyz
  1  'x, y, z'
loop_
 _atom_site_type_symbol
 _atom_site_label
 _atom_site_symmetry_multiplicity
 _atom_site_fract_x
 _atom_site_fract_y
 _atom_site_fract_z
 _atom_site_occupancy
  Ce  Ce0  1  0.00000000  0.00000000  0.50000000  1
  Ce  Ce1  1  0.00000000  0.00000000  0.00000000  1
  Al  Al0  1  0.33333300  0.66666700  0.75000000  1
  Al  Al1  1  0.66666700  0.33333300  0.25000000  1
  H  H0  1  0.33333300  0.66666700  0.04495500  1
  H  H1  1  0.66666700  0.33333300  0.95504500  1
  H  H2  1  0.66666700  0.33333300  0.54495500  1
  H  H3  1  0.33333300  0.66666700  0.45504500  1
  Ir  Ir0  1  0.33333300  0.66666700  0.25000000  1
  Ir  Ir1  1  0.66666700  0.33333300  0.75000000  1
loop_
_geom_bond_atom_site_label_1
_geom_bond_atom_site_label_2
_geom_bond_distance
_geom_bond_site_symmetry_2
Ce0 H3 2.545972 1_545
Ce0 H2 2.545972 1_455
Ce0 H3 2.545976 1_445
Ce0 H2 2.545976 1_445
Ce0 H2 2.545976 1_555
Ce0 H3 2.545976 1_555
Ce1 H0 2.545972 1_545
Ce1 H1 2.545972 1_454
Ce1 H0 2.545976 1_445
Ce1 H0 2.545976 1_555
Ce1 H1 2.545976 1_444
Ce1 H1 2.545976 1_554
Al0 H0 2.444576 1_556
Al0 H3 2.444576 1_555
Al0 Ir1 2.518562 1_455
Al0 Ir1 2.518562 1_565
Al0 Ir1 2.518570 1_555
Al0 Ce1 3.261334 1_566
Al0 Ce0 3.261334 1_565
Al0 Ce0 3.261337 1_555
Al0 Ce1 3.261337 1_666
Al0 Ce1 3.261337 1_556
Al0 Ce0 3.261337 1_665
Al1 H2 2.444576 1_555
Al1 H1 2.444576 1_554
Al1 Ir0 2.518562 1_545
Al1 Ir0 2.518562 1_655
Al1 Ir0 2.518570 1_555
Al1 Ce1 3.261334 1_655
Al1 Ce0 3.261334 1_655
Al1 Ce1 3.261337 1_665
Al1 Ce0 3.261337 1_555
Al1 Ce1 3.261337 1_555
Al1 Ce0 3.261337 1_665
H0 Ir0 1.699406 1_555
H1 Ir1 1.699406 1_555
H2 Ir1 1.699406 1_555
H3 Ir0 1.699406 1_555
