# generated using pymatgen
data_Ca4Al
_symmetry_space_group_name_H-M   'P 1'
_cell_length_a   8.51334361
_cell_length_b   8.51334361
_cell_length_c   8.51334361
_cell_angle_alpha   60.00000000
_cell_angle_beta   60.00000000
_cell_angle_gamma   60.00000000
_symmetry_Int_Tables_number   1
_chemical_formula_structural   Ca4Al
_chemical_formula_sum   'Ca8 Al2'
_cell_volume   436.30027843
_cell_formula_units_Z   2
loop_
 _symmetry_equiv_pos_site_id
 _symmetry_equiv_pos_as_xyz
  1  'x, y, z'
loop_
 _atom_site_type_symbol
 _atom_site_label
 _atom_site_symmetry_multiplicity
 _atom_site_fract_x
 _atom_site_fract_y
 _atom_site_fract_z
 _atom_site_occupancy
  Ca  Ca0  1  0.60995500  0.60995500  0.60995500  1
  Ca  Ca1  1  0.17013600  0.60995500  0.60995500  1
  Ca  Ca2  1  0.60995500  0.17013600  0.60995500  1
  Ca  Ca3  1  0.57986400  0.14004500  0.14004500  1
  Ca  Ca4  1  0.14004500  0.14004500  0.14004500  1
  Ca  Ca5  1  0.60995500  0.60995500  0.17013600  1
  Ca  Ca6  1  0.14004500  0.57986400  0.14004500  1
  Ca  Ca7  1  0.14004500  0.14004500  0.57986400  1
  Al  Al0  1  0.00000000  0.00000000  0.00000000  1
  Al  Al1  1  0.75000000  0.75000000  0.75000000  1
loop_
_geom_bond_atom_site_label_1
_geom_bond_atom_site_label_2
_geom_bond_distance
_geom_bond_site_symmetry_2
Ca0 Ca2 3.744330 1_555
Ca0 Ca5 3.744330 1_555
Ca0 Ca1 3.744330 1_555
Ca1 Ca2 3.744330 1_555
Ca1 Ca5 3.744330 1_555
Ca2 Ca5 3.744330 1_555
Ca3 Ca7 3.744330 1_555
Ca3 Ca6 3.744330 1_555
Ca3 Ca4 3.744330 1_555
Ca4 Ca7 3.744330 1_555
Ca4 Ca6 3.744330 1_555
Ca6 Ca7 3.744330 1_555
Al0 Ca4 2.920407 1_555
Al0 Ca6 2.920414 1_545
Al0 Ca3 2.920414 1_455
Al0 Ca7 2.920414 1_554
Al1 Ca0 2.920407 1_555
Al1 Ca1 2.920414 1_655
Al1 Ca2 2.920414 1_565
Al1 Ca5 2.920414 1_556
