# generated using pymatgen
data_PmMg149
_symmetry_space_group_name_H-M   'P 1'
_cell_length_a   15.98027172
_cell_length_b   15.98025498
_cell_length_c   15.61536987
_cell_angle_alpha   90.00000000
_cell_angle_beta   90.00000000
_cell_angle_gamma   120.00006114
_symmetry_Int_Tables_number   1
_chemical_formula_structural   PmMg149
_chemical_formula_sum   'Pm1 Mg149'
_cell_volume   3453.42877787
_cell_formula_units_Z   1
loop_
 _symmetry_equiv_pos_site_id
 _symmetry_equiv_pos_as_xyz
  1  'x, y, z'
loop_
 _atom_site_type_symbol
 _atom_site_label
 _atom_site_symmetry_multiplicity
 _atom_site_fract_x
 _atom_site_fract_y
 _atom_site_fract_z
 _atom_site_occupancy
  Pm  Pm0  1  0.00000119  0.00000238  -0.00000000  1
  Mg  Mg0  1  0.60006124  0.20012148  -0.00000000  1
  Mg  Mg1  1  0.40137435  0.20068682  -0.00000000  1
  Mg  Mg2  1  0.79931247  0.20068682  -0.00000000  1
  Mg  Mg3  1  0.00332363  0.20594670  -0.00000000  1
  Mg  Mg4  1  0.20262306  0.20594670  -0.00000000  1
  Mg  Mg5  1  0.60006207  0.39993891  -0.00000000  1
  Mg  Mg6  1  0.79987684  0.39993891  -0.00000000  1
  Mg  Mg7  1  0.00017804  0.40034857  -0.00000000  1
  Mg  Mg8  1  0.40017052  0.40034957  -0.00000000  1
  Mg  Mg9  1  0.20175680  0.40351460  -0.00000000  1
  Mg  Mg10  1  0.79931370  0.59862740  -0.00000000  1
  Mg  Mg11  1  0.00017691  0.59982840  -0.00000000  1
  Mg  Mg12  1  0.59965150  0.59982940  -0.00000000  1
  Mg  Mg13  1  0.20060216  0.60030035  -0.00000000  1
  Mg  Mg14  1  0.39969919  0.60030035  -0.00000000  1
  Mg  Mg15  1  0.79405155  0.79737548  -0.00000000  1
  Mg  Mg16  1  0.00332393  0.79737548  -0.00000000  1
  Mg  Mg17  1  0.59648732  0.79824376  -0.00000000  1
  Mg  Mg18  1  0.20175643  0.79824376  -0.00000000  1
  Mg  Mg19  1  0.39969970  0.79939941  -0.00000000  1
  Mg  Mg20  1  0.79405273  0.99667637  -0.00000000  1
  Mg  Mg21  1  0.20262363  0.99667637  -0.00000000  1
  Mg  Mg22  1  0.40017111  0.99982146  -0.00000000  1
  Mg  Mg23  1  0.59965035  0.99982146  -0.00000000  1
  Mg  Mg24  1  0.26324217  0.13162056  0.16441596  1
  Mg  Mg25  1  0.86837939  0.13162156  0.16441596  1
  Mg  Mg26  1  0.86837945  0.73675790  0.16441524  1
  Mg  Mg27  1  0.66666713  0.33333326  0.16615418  1
  Mg  Mg28  1  0.46546305  0.13289463  0.16650368  1
  Mg  Mg29  1  0.66743158  0.13289463  0.16650368  1
  Mg  Mg30  1  0.46546333  0.33256820  0.16650348  1
  Mg  Mg31  1  0.86710486  0.33256820  0.16650348  1
  Mg  Mg32  1  0.86710420  0.53453626  0.16650407  1
  Mg  Mg33  1  0.66743206  0.53453626  0.16650407  1
  Mg  Mg34  1  0.06670032  0.53334972  0.16733708  1
  Mg  Mg35  1  0.46664940  0.53334972  0.16733708  1
  Mg  Mg36  1  0.46664991  0.93330082  0.16733744  1
  Mg  Mg37  1  0.26718961  0.53437923  0.16741222  1
  Mg  Mg38  1  0.46561976  0.73280924  0.16741151  1
  Mg  Mg39  1  0.26718948  0.73280924  0.16741151  1
  Mg  Mg40  1  0.06809424  0.33598118  0.16781480  1
  Mg  Mg41  1  0.26788795  0.33598118  0.16781480  1
  Mg  Mg42  1  0.66401829  0.73211269  0.16781467  1
  Mg  Mg43  1  0.06809440  0.73211269  0.16781467  1
  Mg  Mg44  1  0.26788866  0.93190633  0.16781500  1
  Mg  Mg45  1  0.66401867  0.93190733  0.16781500  1
  Mg  Mg46  1  0.06824057  0.13648215  0.17037663  1
  Mg  Mg47  1  0.06824025  0.93175894  0.17037605  1
  Mg  Mg48  1  0.86351869  0.93175994  0.17037605  1
  Mg  Mg49  1  0.39974118  0.19987124  0.33279002  1
  Mg  Mg50  1  0.80013006  0.19987124  0.33279002  1
  Mg  Mg51  1  0.80013025  0.60025949  0.33278917  1
  Mg  Mg52  1  0.60001793  0.20003587  0.33280716  1
  Mg  Mg53  1  0.79996469  0.39998176  0.33280730  1
  Mg  Mg54  1  0.60001808  0.39998276  0.33280730  1
  Mg  Mg55  1  0.79936602  0.00006589  0.33362675  1
  Mg  Mg56  1  0.20069987  0.00006589  0.33362675  1
  Mg  Mg57  1  0.20069998  0.20063405  0.33362616  1
  Mg  Mg58  1  0.99993507  0.20063405  0.33362616  1
  Mg  Mg59  1  0.79936613  0.79930076  0.33362629  1
  Mg  Mg60  1  0.99993563  0.79930076  0.33362629  1
  Mg  Mg61  1  0.40048800  0.00018740  0.33377252  1
  Mg  Mg62  1  0.59970040  0.00018840  0.33377252  1
  Mg  Mg63  1  0.99981201  0.40029921  0.33377280  1
  Mg  Mg64  1  0.40048820  0.40030021  0.33377280  1
  Mg  Mg65  1  0.59970087  0.59951215  0.33377265  1
  Mg  Mg66  1  0.99981227  0.59951215  0.33377265  1
  Mg  Mg67  1  0.40003011  0.59997052  0.33376528  1
  Mg  Mg68  1  0.19994041  0.59997052  0.33376528  1
  Mg  Mg69  1  0.40003000  0.80006001  0.33376554  1
  Mg  Mg70  1  0.20025144  0.40050387  0.33418220  1
  Mg  Mg71  1  0.59949594  0.79974755  0.33418142  1
  Mg  Mg72  1  0.20025161  0.79974855  0.33418142  1
  Mg  Mg73  1  0.00000015  0.00000029  0.33460533  1
  Mg  Mg74  1  0.26713184  0.13356570  0.50000000  1
  Mg  Mg75  1  0.86643386  0.13356570  0.50000000  1
  Mg  Mg76  1  0.06678955  0.13357811  0.50000000  1
  Mg  Mg77  1  0.46708709  0.13424643  0.50000000  1
  Mg  Mg78  1  0.66716034  0.13424643  0.50000000  1
  Mg  Mg79  1  0.46708738  0.33284041  0.50000000  1
  Mg  Mg80  1  0.86575403  0.33284041  0.50000000  1
  Mg  Mg81  1  0.66666712  0.33333323  0.50000000  1
  Mg  Mg82  1  0.26680629  0.33366048  0.50000000  1
  Mg  Mg83  1  0.06685419  0.33366048  0.50000000  1
  Mg  Mg84  1  0.86575254  0.53291171  0.50000000  1
  Mg  Mg85  1  0.66715917  0.53291171  0.50000000  1
  Mg  Mg86  1  0.06612340  0.53306196  0.50000000  1
  Mg  Mg87  1  0.46693856  0.53306196  0.50000000  1
  Mg  Mg88  1  0.26677468  0.53354936  0.50000000  1
  Mg  Mg89  1  0.86643354  0.73286708  0.50000000  1
  Mg  Mg90  1  0.06685415  0.73319393  0.50000000  1
  Mg  Mg91  1  0.66633978  0.73319393  0.50000000  1
  Mg  Mg92  1  0.46645012  0.73322430  0.50000000  1
  Mg  Mg93  1  0.26677419  0.73322530  0.50000000  1
  Mg  Mg94  1  0.86642266  0.93321090  0.50000000  1
  Mg  Mg95  1  0.06678924  0.93321090  0.50000000  1
  Mg  Mg96  1  0.26680583  0.93314606  0.50000000  1
  Mg  Mg97  1  0.66634023  0.93314606  0.50000000  1
  Mg  Mg98  1  0.46693832  0.93387663  0.50000000  1
  Mg  Mg99  1  0.00000015  0.00000029  0.66539567  1
  Mg  Mg100  1  0.20025144  0.40050387  0.66581780  1
  Mg  Mg101  1  0.59949594  0.79974755  0.66581858  1
  Mg  Mg102  1  0.20025161  0.79974855  0.66581858  1
  Mg  Mg103  1  0.40003011  0.59997052  0.66623472  1
  Mg  Mg104  1  0.19994041  0.59997052  0.66623472  1
  Mg  Mg105  1  0.40003000  0.80006001  0.66623446  1
  Mg  Mg106  1  0.40048800  0.00018740  0.66622748  1
  Mg  Mg107  1  0.59970040  0.00018840  0.66622748  1
  Mg  Mg108  1  0.99981201  0.40029921  0.66622720  1
  Mg  Mg109  1  0.40048820  0.40030021  0.66622720  1
  Mg  Mg110  1  0.59970087  0.59951215  0.66622735  1
  Mg  Mg111  1  0.99981227  0.59951215  0.66622735  1
  Mg  Mg112  1  0.79936602  0.00006589  0.66637325  1
  Mg  Mg113  1  0.20069987  0.00006589  0.66637325  1
  Mg  Mg114  1  0.20069998  0.20063405  0.66637384  1
  Mg  Mg115  1  0.99993507  0.20063405  0.66637384  1
  Mg  Mg116  1  0.79936613  0.79930076  0.66637371  1
  Mg  Mg117  1  0.99993563  0.79930076  0.66637371  1
  Mg  Mg118  1  0.60001793  0.20003587  0.66719284  1
  Mg  Mg119  1  0.79996469  0.39998176  0.66719270  1
  Mg  Mg120  1  0.60001808  0.39998276  0.66719270  1
  Mg  Mg121  1  0.39974118  0.19987124  0.66720998  1
  Mg  Mg122  1  0.80013006  0.19987124  0.66720998  1
  Mg  Mg123  1  0.80013025  0.60025949  0.66721083  1
  Mg  Mg124  1  0.06824057  0.13648215  0.82962237  1
  Mg  Mg125  1  0.06824025  0.93175894  0.82962295  1
  Mg  Mg126  1  0.86351869  0.93175994  0.82962295  1
  Mg  Mg127  1  0.06809424  0.33598118  0.83218620  1
  Mg  Mg128  1  0.26788795  0.33598118  0.83218620  1
  Mg  Mg129  1  0.66401829  0.73211269  0.83218633  1
  Mg  Mg130  1  0.06809440  0.73211269  0.83218633  1
  Mg  Mg131  1  0.26788866  0.93190633  0.83218600  1
  Mg  Mg132  1  0.66401867  0.93190733  0.83218600  1
  Mg  Mg133  1  0.26718961  0.53437923  0.83258878  1
  Mg  Mg134  1  0.46561976  0.73280924  0.83258949  1
  Mg  Mg135  1  0.26718948  0.73280924  0.83258949  1
  Mg  Mg136  1  0.06670032  0.53334972  0.83266292  1
  Mg  Mg137  1  0.46664940  0.53334972  0.83266292  1
  Mg  Mg138  1  0.46664991  0.93330082  0.83266256  1
  Mg  Mg139  1  0.46546305  0.13289463  0.83349632  1
  Mg  Mg140  1  0.66743158  0.13289463  0.83349632  1
  Mg  Mg141  1  0.46546333  0.33256820  0.83349652  1
  Mg  Mg142  1  0.86710486  0.33256820  0.83349652  1
  Mg  Mg143  1  0.86710420  0.53453626  0.83349593  1
  Mg  Mg144  1  0.66743206  0.53453626  0.83349593  1
  Mg  Mg145  1  0.66666713  0.33333326  0.83384582  1
  Mg  Mg146  1  0.26324217  0.13162056  0.83558404  1
  Mg  Mg147  1  0.86837939  0.13162156  0.83558404  1
  Mg  Mg148  1  0.86837945  0.73675790  0.83558476  1
loop_
_geom_bond_atom_site_label_1
_geom_bond_atom_site_label_2
_geom_bond_distance
_geom_bond_site_symmetry_2
Mg0 Mg2 3.179581 1_555
Mg0 Mg1 3.179597 1_555
Mg0 Mg145 3.182835 1_554
Mg0 Mg27 3.182835 1_555
Mg0 Mg6 3.193118 1_555
Mg0 Mg5 3.193127 1_555
Mg0 Mg23 3.197567 1_545
Mg0 Mg22 3.197574 1_545
Mg0 Mg140 3.198416 1_554
Mg0 Mg29 3.198416 1_555
Mg0 Mg139 3.198423 1_554
Mg0 Mg28 3.198423 1_555
Mg1 Mg30 3.176807 1_555
Mg1 Mg141 3.176807 1_554
Mg1 Mg139 3.176807 1_554
Mg1 Mg28 3.176807 1_555
Mg1 Mg5 3.179598 1_555
Mg1 Mg22 3.200309 1_545
Mg1 Mg8 3.200324 1_555
Mg1 Mg24 3.200945 1_555
Mg1 Mg146 3.200945 1_554
Mg1 Mg21 3.218935 1_545
Mg1 Mg4 3.218950 1_555
Mg2 Mg29 3.176807 1_555
Mg2 Mg31 3.176807 1_555
Mg2 Mg6 3.179599 1_555
Mg2 Mg7 3.200306 1_655
Mg2 Mg23 3.200308 1_545
Mg2 Mg25 3.200945 1_555
Mg2 Mg20 3.218936 1_545
Mg2 Mg3 3.218950 1_655
Mg3 Mg7 3.132028 1_555
Mg3 Mg9 3.164120 1_555
Mg3 Mg40 3.178914 1_555
Mg3 Mg4 3.184859 1_555
Mg3 Mg46 3.246261 1_555
Mg3 Pm0 3.264820 1_555
Mg4 Mg8 3.132034 1_555
Mg4 Mg9 3.164130 1_555
Mg4 Mg41 3.178914 1_555
Mg4 Mg46 3.246269 1_555
Mg4 Pm0 3.264818 1_555
Mg5 Mg6 3.193094 1_555
Mg5 Mg8 3.197608 1_555
Mg6 Mg7 3.197599 1_655
Mg7 Mg9 3.196287 1_555
Mg8 Mg9 3.196294 1_555
Mg10 Mg144 3.176817 1_554
Mg10 Mg33 3.176817 1_555
Mg10 Mg143 3.176818 1_554
Mg10 Mg32 3.176818 1_555
Mg10 Mg5 3.179601 1_555
Mg10 Mg6 3.179602 1_555
Mg10 Mg11 3.200296 1_655
Mg10 Mg12 3.200304 1_555
Mg10 Mg148 3.200921 1_554
Mg10 Mg26 3.200921 1_555
Mg10 Mg16 3.218913 1_655
Mg10 Mg15 3.218914 1_555
Mg11 Mg16 3.132010 1_555
Mg11 Mg32 3.186241 1_455
Mg11 Mg143 3.186241 1_454
Mg11 Mg7 3.187748 1_555
Mg11 Mg34 3.196240 1_555
Mg11 Mg136 3.196240 1_554
Mg11 Mg18 3.196309 1_555
Mg11 Mg130 3.196752 1_554
Mg11 Mg43 3.196765 1_555
Mg11 Mg6 3.197569 1_455
Mg11 Mg13 3.199086 1_555
Mg12 Mg15 3.132001 1_555
Mg12 Mg144 3.186249 1_554
Mg12 Mg33 3.186249 1_555
Mg12 Mg8 3.187746 1_555
Mg12 Mg35 3.196240 1_555
Mg12 Mg137 3.196240 1_554
Mg12 Mg17 3.196294 1_555
Mg12 Mg129 3.196744 1_554
Mg12 Mg42 3.196757 1_555
Mg12 Mg5 3.197587 1_555
Mg12 Mg14 3.199062 1_555
Mg13 Mg9 3.153953 1_555
Mg13 Mg18 3.154004 1_555
Mg13 Mg14 3.181625 1_555
Mg13 Mg19 3.181640 1_555
Mg13 Mg135 3.193256 1_554
Mg13 Mg133 3.193264 1_554
Mg13 Mg39 3.193269 1_555
Mg13 Mg37 3.193277 1_555
Mg13 Mg7 3.199060 1_555
Mg13 Mg136 3.203427 1_554
Mg13 Mg34 3.203427 1_555
Mg14 Mg9 3.153968 1_555
Mg14 Mg17 3.153995 1_555
Mg14 Mg19 3.181650 1_555
Mg14 Mg38 3.193269 1_555
Mg14 Mg37 3.193284 1_555
Mg14 Mg8 3.199037 1_555
Mg14 Mg35 3.203419 1_555
Mg15 Mg17 3.164091 1_555
Mg15 Mg26 3.176684 1_555
Mg15 Mg42 3.178904 1_555
Mg15 Mg20 3.184870 1_555
Mg15 Mg48 3.246276 1_555
Mg15 Pm0 3.264901 1_665
Mg15 Mg16 3.344229 1_655
Mg16 Mg18 3.164090 1_555
Mg16 Mg26 3.176676 1_455
Mg16 Mg43 3.178904 1_555
Mg16 Mg21 3.184868 1_555
Mg16 Mg47 3.246268 1_555
Mg16 Pm0 3.264903 1_565
Mg17 Mg19 3.153994 1_555
Mg17 Mg20 3.164096 1_555
Mg17 Mg38 3.180275 1_555
Mg17 Mg23 3.196290 1_555
Mg17 Mg42 3.207618 1_555
Mg17 Mg45 3.207633 1_555
Mg18 Mg19 3.153994 1_555
Mg18 Mg21 3.164097 1_555
Mg18 Mg39 3.180275 1_555
Mg18 Mg22 3.196289 1_555
Mg18 Mg43 3.207617 1_555
Mg18 Mg44 3.207625 1_555
Mg19 Mg39 3.193280 1_555
Mg19 Mg38 3.193281 1_555
Mg19 Mg23 3.199034 1_555
Mg19 Mg22 3.199035 1_555
Mg19 Mg36 3.203427 1_555
Mg20 Mg23 3.132035 1_555
Mg20 Mg25 3.176689 1_565
Mg20 Mg45 3.178914 1_555
Mg20 Mg48 3.246261 1_555
Mg20 Pm0 3.264862 1_665
Mg20 Mg3 3.344196 1_665
Mg21 Mg22 3.132035 1_555
Mg21 Mg24 3.176681 1_565
Mg21 Mg44 3.178923 1_555
Mg21 Mg47 3.246269 1_555
Mg21 Pm0 3.264861 1_565
Mg21 Mg4 3.344198 1_565
Mg22 Mg28 3.186239 1_565
Mg22 Mg23 3.187732 1_555
Mg22 Mg36 3.196224 1_555
Mg22 Mg44 3.196755 1_555
Mg23 Mg29 3.186239 1_565
Mg23 Mg36 3.196231 1_555
Mg23 Mg45 3.196756 1_555
Mg24 Mg47 3.157098 1_545
Mg24 Mg46 3.157113 1_555
Mg24 Mg4 3.176691 1_555
Mg24 Mg56 3.209211 1_555
Mg24 Mg57 3.209213 1_555
Mg24 Mg28 3.221578 1_555
Mg24 Mg30 3.221582 1_555
Mg24 Mg44 3.229687 1_545
Mg24 Mg41 3.229691 1_555
Mg24 Mg49 3.237489 1_555
Mg25 Mg46 3.157089 1_655
Mg25 Mg48 3.157091 1_545
Mg25 Mg3 3.176682 1_655
Mg25 Mg58 3.209213 1_555
Mg25 Mg55 3.209219 1_555
Mg25 Mg31 3.221575 1_555
Mg25 Mg29 3.221586 1_555
Mg25 Mg40 3.229681 1_655
Mg25 Mg45 3.229686 1_545
Mg25 Mg50 3.237489 1_555
Mg26 Mg47 3.157084 1_655
Mg26 Mg48 3.157110 1_555
Mg26 Mg60 3.209228 1_555
Mg26 Mg59 3.209228 1_555
Mg26 Mg32 3.221577 1_555
Mg26 Mg33 3.221584 1_555
Mg26 Mg43 3.229691 1_655
Mg26 Mg42 3.229707 1_555
Mg26 Mg51 3.237481 1_555
Mg27 Mg6 3.182820 1_555
Mg27 Mg5 3.182828 1_555
Mg27 Mg52 3.189873 1_555
Mg27 Mg53 3.189877 1_555
Mg27 Mg54 3.189885 1_555
Mg27 Mg32 3.209176 1_555
Mg27 Mg31 3.209184 1_555
Mg27 Mg33 3.209185 1_555
Mg27 Mg29 3.209191 1_555
Mg27 Mg28 3.209197 1_555
Mg27 Mg30 3.209201 1_555
Mg28 Mg49 3.180428 1_555
Mg28 Mg44 3.184982 1_545
Mg28 Mg30 3.190832 1_555
Mg28 Mg61 3.193095 1_555
Mg28 Mg52 3.195534 1_555
Mg28 Mg36 3.199112 1_545
Mg28 Mg29 3.227512 1_555
Mg29 Mg50 3.180428 1_555
Mg29 Mg45 3.184975 1_545
Mg29 Mg31 3.190831 1_555
Mg29 Mg62 3.193087 1_555
Mg29 Mg52 3.195534 1_555
Mg29 Mg36 3.199119 1_545
Mg30 Mg49 3.180417 1_555
Mg30 Mg41 3.184995 1_555
Mg30 Mg8 3.186246 1_555
Mg30 Mg64 3.193101 1_555
Mg30 Mg54 3.195537 1_555
Mg30 Mg5 3.198425 1_555
Mg30 Mg35 3.199132 1_555
Mg30 Mg33 3.227505 1_555
Mg31 Mg50 3.180417 1_555
Mg31 Mg40 3.185011 1_655
Mg31 Mg7 3.186237 1_655
Mg31 Mg63 3.193101 1_555
Mg31 Mg53 3.195529 1_555
Mg31 Mg6 3.198426 1_555
Mg31 Mg34 3.199130 1_655
Mg31 Mg32 3.227506 1_555
Mg32 Mg51 3.180402 1_555
Mg32 Mg43 3.185013 1_655
Mg32 Mg33 3.190815 1_555
Mg32 Mg66 3.193099 1_555
Mg32 Mg53 3.195526 1_555
Mg32 Mg6 3.198420 1_555
Mg32 Mg34 3.199149 1_655
Mg33 Mg51 3.180409 1_555
Mg33 Mg42 3.185014 1_555
Mg33 Mg65 3.193092 1_555
Mg33 Mg54 3.195518 1_555
Mg33 Mg5 3.198420 1_555
Mg33 Mg35 3.199149 1_555
Mg34 Mg40 3.165205 1_555
Mg34 Mg43 3.165212 1_555
Mg34 Mg66 3.185134 1_455
Mg34 Mg63 3.185135 1_455
Mg34 Mg68 3.186552 1_555
Mg34 Mg39 3.195672 1_555
Mg34 Mg37 3.195679 1_555
Mg34 Mg7 3.196231 1_555
Mg35 Mg41 3.165195 1_555
Mg35 Mg42 3.165210 1_555
Mg35 Mg64 3.185127 1_555
Mg35 Mg65 3.185142 1_555
Mg35 Mg67 3.186553 1_555
Mg35 Mg38 3.195673 1_555
Mg35 Mg37 3.195680 1_555
Mg35 Mg8 3.196223 1_555
Mg36 Mg44 3.165184 1_555
Mg36 Mg45 3.165208 1_555
Mg36 Mg61 3.185112 1_565
Mg36 Mg62 3.185127 1_565
Mg36 Mg69 3.186556 1_555
Mg36 Mg39 3.195698 1_555
Mg36 Mg38 3.195708 1_555
Mg37 Mg38 3.170962 1_555
Mg37 Mg39 3.170963 1_555
Mg37 Mg40 3.176043 1_555
Mg37 Mg41 3.176052 1_555
Mg37 Mg9 3.180260 1_555
Mg37 Mg67 3.182425 1_555
Mg37 Mg68 3.182425 1_555
Mg37 Mg70 3.195994 1_555
Mg38 Mg39 3.170970 1_555
Mg38 Mg42 3.176049 1_555
Mg38 Mg45 3.176071 1_555
Mg38 Mg67 3.182419 1_555
Mg38 Mg69 3.182438 1_555
Mg38 Mg71 3.196001 1_555
Mg39 Mg43 3.176049 1_555
Mg39 Mg44 3.176057 1_555
Mg39 Mg68 3.182419 1_555
Mg39 Mg69 3.182438 1_555
Mg39 Mg72 3.196009 1_555
Mg40 Mg63 3.175600 1_455
Mg40 Mg70 3.177224 1_555
Mg40 Mg46 3.189466 1_555
Mg40 Mg41 3.192758 1_555
Mg40 Mg58 3.195714 1_455
Mg40 Mg7 3.196762 1_555
Mg40 Mg9 3.207623 1_555
Mg41 Mg64 3.175599 1_555
Mg41 Mg70 3.177241 1_555
Mg41 Mg46 3.189481 1_555
Mg41 Mg57 3.195714 1_555
Mg41 Mg8 3.196754 1_555
Mg41 Mg9 3.207640 1_555
Mg42 Mg65 3.175600 1_555
Mg42 Mg71 3.177217 1_555
Mg42 Mg48 3.189491 1_555
Mg42 Mg45 3.192766 1_555
Mg42 Mg59 3.195724 1_555
Mg43 Mg66 3.175600 1_455
Mg43 Mg72 3.177216 1_555
Mg43 Mg47 3.189484 1_555
Mg43 Mg44 3.192757 1_555
Mg43 Mg60 3.195716 1_455
Mg44 Mg61 3.175586 1_565
Mg44 Mg72 3.177216 1_555
Mg44 Mg47 3.189510 1_555
Mg44 Mg56 3.195730 1_565
Mg45 Mg62 3.175586 1_565
Mg45 Mg71 3.177232 1_555
Mg45 Mg48 3.189494 1_555
Mg45 Mg55 3.195721 1_565
Mg46 Mg58 3.140042 1_455
Mg46 Mg57 3.140058 1_555
Mg46 Mg73 3.185001 1_555
Mg46 Pm0 3.262780 1_555
Mg46 Mg48 3.271509 1_445
Mg46 Mg47 3.271527 1_545
Mg47 Mg60 3.140055 1_455
Mg47 Mg56 3.140074 1_565
Mg47 Mg73 3.185007 1_565
Mg47 Pm0 3.262796 1_565
Mg47 Mg48 3.271514 1_455
Mg48 Mg59 3.140063 1_555
Mg48 Mg55 3.140066 1_565
Mg48 Mg73 3.185007 1_665
Mg48 Pm0 3.262796 1_665
Mg49 Mg57 3.186872 1_555
Mg49 Mg56 3.186879 1_555
Mg49 Mg74 3.191489 1_555
Mg49 Mg79 3.194383 1_555
Mg49 Mg77 3.194397 1_555
Mg49 Mg64 3.196991 1_555
Mg49 Mg61 3.197019 1_555
Mg49 Mg54 3.199154 1_555
Mg49 Mg52 3.199162 1_555
Mg50 Mg55 3.186880 1_555
Mg50 Mg58 3.186888 1_555
Mg50 Mg75 3.191489 1_555
Mg50 Mg80 3.194383 1_555
Mg50 Mg78 3.194389 1_555
Mg50 Mg63 3.196981 1_555
Mg50 Mg62 3.197002 1_555
Mg50 Mg53 3.199139 1_555
Mg50 Mg52 3.199162 1_555
Mg51 Mg60 3.186879 1_555
Mg51 Mg59 3.186880 1_555
Mg51 Mg89 3.191484 1_555
Mg51 Mg84 3.194403 1_555
Mg51 Mg85 3.194411 1_555
Mg51 Mg66 3.196998 1_555
Mg51 Mg65 3.196998 1_555
Mg51 Mg54 3.199158 1_555
Mg51 Mg53 3.199167 1_555
Mg52 Mg62 3.191115 1_555
Mg52 Mg61 3.191122 1_555
Mg52 Mg77 3.193849 1_555
Mg52 Mg78 3.193857 1_555
Mg52 Mg53 3.195192 1_555
Mg52 Mg54 3.195201 1_555
Mg52 Mg81 3.196754 1_555
Mg53 Mg63 3.191117 1_555
Mg53 Mg66 3.191118 1_555
Mg53 Mg84 3.193839 1_555
Mg53 Mg80 3.193846 1_555
Mg53 Mg54 3.195209 1_555
Mg53 Mg81 3.196755 1_555
Mg54 Mg65 3.191104 1_555
Mg54 Mg64 3.191117 1_555
Mg54 Mg85 3.193831 1_555
Mg54 Mg79 3.193846 1_555
Mg54 Mg81 3.196763 1_555
Mg55 Mg97 3.184143 1_545
Mg55 Mg75 3.187937 1_555
Mg55 Mg94 3.191241 1_545
Mg55 Mg62 3.191691 1_555
Mg55 Mg71 3.197573 1_545
Mg55 Mg58 3.205136 1_555
Mg55 Mg73 3.206749 1_655
Mg55 Mg59 3.208279 1_545
Mg56 Mg96 3.184144 1_545
Mg56 Mg74 3.187937 1_555
Mg56 Mg95 3.191233 1_545
Mg56 Mg61 3.191699 1_555
Mg56 Mg72 3.197558 1_545
Mg56 Mg57 3.205129 1_555
Mg56 Mg73 3.206748 1_555
Mg56 Mg60 3.208270 1_445
Mg57 Mg82 3.184155 1_555
Mg57 Mg74 3.187949 1_555
Mg57 Mg76 3.191239 1_555
Mg57 Mg64 3.191691 1_555
Mg57 Mg70 3.197572 1_555
Mg57 Mg73 3.206742 1_555
Mg57 Mg58 3.208278 1_455
Mg58 Mg83 3.184155 1_655
Mg58 Mg75 3.187957 1_555
Mg58 Mg76 3.191239 1_655
Mg58 Mg63 3.191685 1_555
Mg58 Mg70 3.197555 1_655
Mg58 Mg73 3.206735 1_655
Mg59 Mg91 3.184154 1_555
Mg59 Mg89 3.187955 1_555
Mg59 Mg94 3.191234 1_555
Mg59 Mg65 3.191687 1_555
Mg59 Mg71 3.197568 1_555
Mg59 Mg60 3.205155 1_555
Mg59 Mg73 3.206742 1_665
Mg60 Mg90 3.184146 1_655
Mg60 Mg89 3.187962 1_555
Mg60 Mg95 3.191234 1_655
Mg60 Mg66 3.191689 1_555
Mg60 Mg72 3.197544 1_655
Mg60 Mg73 3.206751 1_665
Mg61 Mg98 3.180163 1_545
Mg61 Mg62 3.183460 1_555
Mg61 Mg96 3.187545 1_545
Mg61 Mg77 3.190580 1_555
Mg61 Mg69 3.194434 1_545
Mg61 Mg72 3.201453 1_545
Mg62 Mg98 3.180170 1_545
Mg62 Mg97 3.187546 1_545
Mg62 Mg78 3.190572 1_555
Mg62 Mg69 3.194448 1_545
Mg62 Mg71 3.201470 1_545
Mg63 Mg86 3.180171 1_655
Mg63 Mg66 3.183471 1_555
Mg63 Mg83 3.187532 1_655
Mg63 Mg80 3.190569 1_555
Mg63 Mg68 3.194456 1_655
Mg63 Mg70 3.201449 1_655
Mg64 Mg87 3.180163 1_555
Mg64 Mg65 3.183462 1_555
Mg64 Mg82 3.187540 1_555
Mg64 Mg79 3.190577 1_555
Mg64 Mg67 3.194449 1_555
Mg64 Mg70 3.201473 1_555
Mg65 Mg87 3.180170 1_555
Mg65 Mg91 3.187539 1_555
Mg65 Mg85 3.190577 1_555
Mg65 Mg67 3.194462 1_555
Mg65 Mg71 3.201458 1_555
Mg66 Mg86 3.180163 1_655
Mg66 Mg90 3.187539 1_655
Mg66 Mg84 3.190585 1_555
Mg66 Mg68 3.194446 1_655
Mg66 Mg72 3.201457 1_655
Mg67 Mg92 3.184199 1_555
Mg67 Mg88 3.184213 1_555
Mg67 Mg87 3.188719 1_555
Mg67 Mg71 3.190010 1_555
Mg67 Mg70 3.190029 1_555
Mg67 Mg69 3.197482 1_555
Mg67 Mg68 3.197488 1_555
Mg68 Mg93 3.184207 1_555
Mg68 Mg88 3.184214 1_555
Mg68 Mg86 3.188719 1_555
Mg68 Mg70 3.190023 1_555
Mg68 Mg72 3.190027 1_555
Mg68 Mg69 3.197481 1_555
Mg69 Mg93 3.184213 1_555
Mg69 Mg92 3.184214 1_555
Mg69 Mg98 3.188711 1_555
Mg69 Mg71 3.190026 1_555
Mg69 Mg72 3.190034 1_555
Mg70 Mg88 3.177221 1_555
Mg70 Mg83 3.180046 1_555
Mg70 Mg82 3.180055 1_555
Mg71 Mg92 3.177234 1_555
Mg71 Mg91 3.180058 1_555
Mg71 Mg97 3.180065 1_555
Mg72 Mg93 3.177235 1_555
Mg72 Mg96 3.180057 1_555
Mg72 Mg90 3.180058 1_555
Mg73 Mg94 3.176119 1_445
Mg73 Mg76 3.176121 1_555
Mg73 Mg95 3.176127 1_545
Mg74 Mg79 3.189913 1_555
Mg74 Mg77 3.189914 1_555
Mg74 Mg96 3.200155 1_545
Mg74 Mg82 3.200170 1_555
Mg74 Mg95 3.201622 1_545
Mg74 Mg76 3.201623 1_555
Mg75 Mg78 3.189898 1_555
Mg75 Mg80 3.189906 1_555
Mg75 Mg97 3.200154 1_545
Mg75 Mg83 3.200169 1_655
Mg75 Mg94 3.201631 1_545
Mg75 Mg76 3.201639 1_655
Mg76 Mg99 3.176133 1_555
Mg76 Mg82 3.196842 1_555
Mg76 Mg83 3.196851 1_555
Mg76 Mg94 3.201915 1_445
Mg76 Mg95 3.201917 1_545
Mg77 Mg79 3.173580 1_555
Mg77 Mg81 3.185405 1_555
Mg77 Mg78 3.197225 1_555
Mg77 Mg98 3.200772 1_545
Mg77 Mg96 3.207109 1_545
Mg78 Mg80 3.173579 1_555
Mg78 Mg81 3.185406 1_555
Mg78 Mg98 3.200779 1_545
Mg78 Mg97 3.207102 1_545
Mg79 Mg81 3.185408 1_555
Mg79 Mg85 3.197193 1_555
Mg79 Mg87 3.200781 1_555
Mg79 Mg82 3.207119 1_555
Mg80 Mg81 3.185408 1_555
Mg80 Mg84 3.197202 1_555
Mg80 Mg86 3.200772 1_655
Mg80 Mg83 3.207103 1_655
Mg81 Mg84 3.185381 1_555
Mg81 Mg85 3.185391 1_555
Mg82 Mg87 3.192340 1_555
Mg82 Mg88 3.194528 1_555
Mg82 Mg83 3.195289 1_555
Mg83 Mg86 3.192342 1_555
Mg83 Mg88 3.194527 1_555
Mg84 Mg85 3.173576 1_555
Mg84 Mg89 3.189910 1_555
Mg84 Mg86 3.200781 1_655
Mg84 Mg90 3.207127 1_655
Mg85 Mg89 3.189909 1_555
Mg85 Mg87 3.200781 1_555
Mg85 Mg91 3.207128 1_555
Mg86 Mg90 3.192337 1_555
Mg86 Mg93 3.202562 1_555
Mg86 Mg88 3.202575 1_555
Mg87 Mg91 3.192336 1_555
Mg87 Mg92 3.202555 1_555
Mg87 Mg88 3.202575 1_555
Mg88 Mg92 3.190859 1_555
Mg88 Mg93 3.190876 1_555
Mg89 Mg90 3.200167 1_655
Mg89 Mg91 3.200167 1_555
Mg89 Mg94 3.201632 1_555
Mg89 Mg95 3.201639 1_655
Mg90 Mg93 3.194526 1_555
Mg90 Mg96 3.195281 1_555
Mg90 Mg95 3.196841 1_555
Mg91 Mg92 3.194534 1_555
Mg91 Mg97 3.195282 1_555
Mg91 Mg94 3.196848 1_555
Mg92 Mg93 3.190884 1_555
Mg92 Mg97 3.194547 1_555
Mg92 Mg98 3.202582 1_555
Mg93 Mg96 3.194532 1_555
Mg93 Mg98 3.202572 1_555
Mg94 Mg99 3.176132 1_665
Mg94 Mg97 3.196854 1_555
Mg94 Mg95 3.201912 1_655
Mg95 Mg99 3.176140 1_565
Mg95 Mg96 3.196838 1_555
Mg96 Mg98 3.192350 1_555
Mg97 Mg98 3.192350 1_555
Mg100 Mg88 3.177221 1_555
Mg100 Mg127 3.177237 1_555
Mg100 Mg128 3.177254 1_555
Mg100 Mg83 3.180046 1_555
Mg100 Mg82 3.180055 1_555
Mg100 Mg104 3.190023 1_555
Mg100 Mg103 3.190029 1_555
Mg100 Mg133 3.196007 1_555
Mg100 Mg115 3.197555 1_455
Mg100 Mg114 3.197572 1_555
Mg100 Mg108 3.201449 1_455
Mg100 Mg109 3.201473 1_555
Mg101 Mg129 3.177229 1_555
Mg101 Mg92 3.177234 1_555
Mg101 Mg132 3.177244 1_555
Mg101 Mg91 3.180058 1_555
Mg101 Mg97 3.180065 1_555
Mg101 Mg103 3.190010 1_555
Mg101 Mg105 3.190026 1_555
Mg101 Mg134 3.196013 1_555
Mg101 Mg116 3.197568 1_555
Mg101 Mg112 3.197573 1_565
Mg101 Mg110 3.201458 1_555
Mg101 Mg107 3.201470 1_565
Mg102 Mg131 3.177228 1_555
Mg102 Mg130 3.177229 1_555
Mg102 Mg93 3.177235 1_555
Mg102 Mg96 3.180057 1_555
Mg102 Mg90 3.180058 1_555
Mg102 Mg104 3.190027 1_555
Mg102 Mg105 3.190034 1_555
Mg102 Mg135 3.196022 1_555
Mg102 Mg117 3.197544 1_455
Mg102 Mg113 3.197558 1_565
Mg102 Mg106 3.201453 1_565
Mg102 Mg111 3.201457 1_455
Mg103 Mg134 3.182432 1_555
Mg103 Mg133 3.182438 1_555
Mg103 Mg92 3.184199 1_555
Mg103 Mg88 3.184213 1_555
Mg103 Mg137 3.186553 1_555
Mg103 Mg87 3.188719 1_555
Mg103 Mg109 3.194449 1_555
Mg103 Mg110 3.194462 1_555
Mg103 Mg105 3.197482 1_555
Mg103 Mg104 3.197488 1_555
Mg104 Mg135 3.182432 1_555
Mg104 Mg133 3.182438 1_555
Mg104 Mg93 3.184207 1_555
Mg104 Mg88 3.184214 1_555
Mg104 Mg136 3.186552 1_555
Mg104 Mg86 3.188719 1_555
Mg104 Mg111 3.194446 1_455
Mg104 Mg108 3.194456 1_455
Mg104 Mg105 3.197481 1_555
Mg105 Mg135 3.182450 1_555
Mg105 Mg134 3.182451 1_555
Mg105 Mg93 3.184213 1_555
Mg105 Mg92 3.184214 1_555
Mg105 Mg138 3.186556 1_555
Mg105 Mg98 3.188711 1_555
Mg105 Mg106 3.194434 1_565
Mg105 Mg107 3.194448 1_565
Mg106 Mg131 3.175599 1_545
Mg106 Mg98 3.180163 1_545
Mg106 Mg107 3.183460 1_555
Mg106 Mg138 3.185112 1_545
Mg106 Mg96 3.187545 1_545
Mg106 Mg77 3.190580 1_555
Mg106 Mg118 3.191122 1_555
Mg106 Mg113 3.191699 1_555
Mg106 Mg139 3.193095 1_555
Mg106 Mg121 3.197019 1_555
Mg107 Mg132 3.175599 1_545
Mg107 Mg98 3.180170 1_545
Mg107 Mg138 3.185127 1_545
Mg107 Mg97 3.187546 1_545
Mg107 Mg78 3.190572 1_555
Mg107 Mg118 3.191115 1_555
Mg107 Mg112 3.191691 1_555
Mg107 Mg140 3.193087 1_555
Mg107 Mg122 3.197002 1_555
Mg108 Mg127 3.175613 1_655
Mg108 Mg86 3.180171 1_655
Mg108 Mg111 3.183471 1_555
Mg108 Mg136 3.185135 1_655
Mg108 Mg83 3.187532 1_655
Mg108 Mg80 3.190569 1_555
Mg108 Mg119 3.191117 1_555
Mg108 Mg115 3.191685 1_555
Mg108 Mg142 3.193101 1_555
Mg108 Mg122 3.196981 1_555
Mg109 Mg128 3.175612 1_555
Mg109 Mg87 3.180163 1_555
Mg109 Mg110 3.183462 1_555
Mg109 Mg137 3.185127 1_555
Mg109 Mg82 3.187540 1_555
Mg109 Mg79 3.190577 1_555
Mg109 Mg120 3.191117 1_555
Mg109 Mg114 3.191691 1_555
Mg109 Mg141 3.193101 1_555
Mg109 Mg121 3.196991 1_555
Mg110 Mg129 3.175613 1_555
Mg110 Mg87 3.180170 1_555
Mg110 Mg137 3.185142 1_555
Mg110 Mg91 3.187539 1_555
Mg110 Mg85 3.190577 1_555
Mg110 Mg120 3.191104 1_555
Mg110 Mg116 3.191687 1_555
Mg110 Mg144 3.193092 1_555
Mg110 Mg123 3.196998 1_555
Mg111 Mg130 3.175613 1_655
Mg111 Mg86 3.180163 1_655
Mg111 Mg136 3.185134 1_655
Mg111 Mg90 3.187539 1_655
Mg111 Mg84 3.190585 1_555
Mg111 Mg119 3.191118 1_555
Mg111 Mg117 3.191689 1_555
Mg111 Mg143 3.193099 1_555
Mg111 Mg123 3.196998 1_555
Mg112 Mg126 3.140053 1_545
Mg112 Mg97 3.184143 1_545
Mg112 Mg122 3.186880 1_555
Mg112 Mg75 3.187937 1_555
Mg112 Mg94 3.191241 1_545
Mg112 Mg132 3.195734 1_545
Mg112 Mg115 3.205136 1_555
Mg112 Mg99 3.206749 1_655
Mg112 Mg116 3.208279 1_545
Mg112 Mg147 3.209219 1_555
Mg113 Mg125 3.140061 1_545
Mg113 Mg96 3.184144 1_545
Mg113 Mg121 3.186879 1_555
Mg113 Mg74 3.187937 1_555
Mg113 Mg95 3.191233 1_545
Mg113 Mg131 3.195743 1_545
Mg113 Mg114 3.205129 1_555
Mg113 Mg99 3.206748 1_555
Mg113 Mg117 3.208270 1_445
Mg113 Mg146 3.209211 1_555
Mg114 Mg124 3.140045 1_555
Mg114 Mg82 3.184155 1_555
Mg114 Mg121 3.186872 1_555
Mg114 Mg74 3.187949 1_555
Mg114 Mg76 3.191239 1_555
Mg114 Mg128 3.195726 1_555
Mg114 Mg99 3.206742 1_555
Mg114 Mg115 3.208278 1_455
Mg114 Mg146 3.209213 1_555
Mg115 Mg124 3.140029 1_655
Mg115 Mg83 3.184155 1_655
Mg115 Mg122 3.186888 1_555
Mg115 Mg75 3.187957 1_555
Mg115 Mg76 3.191239 1_655
Mg115 Mg127 3.195726 1_655
Mg115 Mg99 3.206735 1_655
Mg115 Mg147 3.209213 1_555
Mg116 Mg126 3.140051 1_555
Mg116 Mg91 3.184154 1_555
Mg116 Mg123 3.186880 1_555
Mg116 Mg89 3.187955 1_555
Mg116 Mg94 3.191234 1_555
Mg116 Mg129 3.195736 1_555
Mg116 Mg117 3.205155 1_555
Mg116 Mg99 3.206741 1_665
Mg116 Mg148 3.209228 1_555
Mg117 Mg125 3.140042 1_655
Mg117 Mg90 3.184146 1_655
Mg117 Mg123 3.186879 1_555
Mg117 Mg89 3.187962 1_555
Mg117 Mg95 3.191234 1_655
Mg117 Mg130 3.195729 1_655
Mg117 Mg99 3.206751 1_665
Mg117 Mg148 3.209228 1_555
Mg118 Mg145 3.189873 1_555
Mg118 Mg77 3.193849 1_555
Mg118 Mg78 3.193857 1_555
Mg118 Mg119 3.195192 1_555
Mg118 Mg120 3.195201 1_555
Mg118 Mg139 3.195534 1_555
Mg118 Mg140 3.195534 1_555
Mg118 Mg81 3.196754 1_555
Mg118 Mg121 3.199162 1_555
Mg118 Mg122 3.199162 1_555
Mg119 Mg145 3.189877 1_555
Mg119 Mg84 3.193839 1_555
Mg119 Mg80 3.193846 1_555
Mg119 Mg120 3.195209 1_555
Mg119 Mg143 3.195526 1_555
Mg119 Mg142 3.195529 1_555
Mg119 Mg81 3.196755 1_555
Mg119 Mg122 3.199139 1_555
Mg119 Mg123 3.199167 1_555
Mg120 Mg145 3.189885 1_555
Mg120 Mg85 3.193831 1_555
Mg120 Mg79 3.193846 1_555
Mg120 Mg144 3.195518 1_555
Mg120 Mg141 3.195537 1_555
Mg120 Mg81 3.196763 1_555
Mg120 Mg121 3.199154 1_555
Mg120 Mg123 3.199158 1_555
Mg121 Mg141 3.180417 1_555
Mg121 Mg139 3.180428 1_555
Mg121 Mg74 3.191489 1_555
Mg121 Mg79 3.194383 1_555
Mg121 Mg77 3.194397 1_555
Mg121 Mg146 3.237489 1_555
Mg122 Mg142 3.180417 1_555
Mg122 Mg140 3.180428 1_555
Mg122 Mg75 3.191489 1_555
Mg122 Mg80 3.194383 1_555
Mg122 Mg78 3.194389 1_555
Mg122 Mg147 3.237489 1_555
Mg123 Mg143 3.180402 1_555
Mg123 Mg144 3.180409 1_555
Mg123 Mg89 3.191484 1_555
Mg123 Mg84 3.194403 1_555
Mg123 Mg85 3.194411 1_555
Mg123 Mg148 3.237481 1_555
Mg124 Mg147 3.157089 1_455
Mg124 Mg146 3.157113 1_555
Mg124 Mg99 3.184976 1_555
Mg124 Mg127 3.189466 1_555
Mg124 Mg128 3.189481 1_555
Mg124 Mg3 3.246274 1_556
Mg124 Mg4 3.246281 1_556
Mg124 Pm0 3.262793 1_556
Mg124 Mg126 3.271509 1_445
Mg124 Mg125 3.271527 1_545
Mg125 Mg148 3.157085 1_455
Mg125 Mg146 3.157098 1_565
Mg125 Mg99 3.184982 1_565
Mg125 Mg130 3.189484 1_555
Mg125 Mg131 3.189510 1_555
Mg125 Mg16 3.246281 1_556
Mg125 Mg21 3.246281 1_556
Mg125 Pm0 3.262809 1_566
Mg125 Mg126 3.271514 1_455
Mg126 Mg147 3.157092 1_565
Mg126 Mg148 3.157110 1_555
Mg126 Mg99 3.184981 1_665
Mg126 Mg129 3.189491 1_555
Mg126 Mg132 3.189494 1_555
Mg126 Mg20 3.246274 1_556
Mg126 Mg15 3.246289 1_556
Mg126 Pm0 3.262809 1_666
Mg127 Mg136 3.165205 1_555
Mg127 Mg133 3.176043 1_555
Mg127 Mg3 3.178901 1_556
Mg127 Mg142 3.185011 1_455
Mg127 Mg128 3.192758 1_555
Mg127 Mg7 3.196750 1_556
Mg127 Mg9 3.207611 1_556
Mg127 Mg147 3.229681 1_455
Mg128 Mg137 3.165195 1_555
Mg128 Mg133 3.176052 1_555
Mg128 Mg4 3.178901 1_556
Mg128 Mg141 3.184994 1_555
Mg128 Mg8 3.196741 1_556
Mg128 Mg9 3.207627 1_556
Mg128 Mg146 3.229690 1_555
Mg129 Mg137 3.165210 1_555
Mg129 Mg134 3.176049 1_555
Mg129 Mg15 3.178891 1_556
Mg129 Mg144 3.185014 1_555
Mg129 Mg132 3.192766 1_555
Mg129 Mg17 3.207605 1_556
Mg129 Mg148 3.229707 1_555
Mg130 Mg136 3.165212 1_555
Mg130 Mg135 3.176049 1_555
Mg130 Mg16 3.178891 1_556
Mg130 Mg143 3.185013 1_455
Mg130 Mg131 3.192757 1_555
Mg130 Mg18 3.207605 1_556
Mg130 Mg148 3.229691 1_455
Mg131 Mg138 3.165184 1_555
Mg131 Mg135 3.176057 1_555
Mg131 Mg21 3.178910 1_556
Mg131 Mg139 3.184982 1_565
Mg131 Mg22 3.196742 1_556
Mg131 Mg18 3.207612 1_556
Mg131 Mg146 3.229687 1_565
Mg132 Mg138 3.165208 1_555
Mg132 Mg134 3.176071 1_555
Mg132 Mg20 3.178901 1_556
Mg132 Mg140 3.184975 1_565
Mg132 Mg23 3.196743 1_556
Mg132 Mg17 3.207620 1_556
Mg132 Mg147 3.229685 1_565
Mg133 Mg134 3.170962 1_555
Mg133 Mg135 3.170963 1_555
Mg133 Mg9 3.180247 1_556
Mg133 Mg14 3.193271 1_556
Mg133 Mg136 3.195679 1_555
Mg133 Mg137 3.195680 1_555
Mg134 Mg135 3.170970 1_555
Mg134 Mg17 3.180262 1_556
Mg134 Mg14 3.193256 1_556
Mg134 Mg19 3.193268 1_556
Mg134 Mg137 3.195673 1_555
Mg134 Mg138 3.195708 1_555
Mg135 Mg18 3.180263 1_556
Mg135 Mg19 3.193268 1_556
Mg135 Mg136 3.195672 1_555
Mg135 Mg138 3.195698 1_555
Mg136 Mg7 3.196231 1_556
Mg136 Mg142 3.199130 1_455
Mg136 Mg143 3.199149 1_455
Mg137 Mg8 3.196223 1_556
Mg137 Mg141 3.199132 1_555
Mg137 Mg144 3.199149 1_555
Mg137 Mg14 3.203419 1_556
Mg138 Mg22 3.196224 1_556
Mg138 Mg23 3.196231 1_556
Mg138 Mg139 3.199112 1_565
Mg138 Mg140 3.199119 1_565
Mg138 Mg19 3.203427 1_556
Mg139 Mg22 3.186239 1_546
Mg139 Mg141 3.190832 1_555
Mg139 Mg145 3.209197 1_555
Mg139 Mg146 3.221578 1_555
Mg139 Mg140 3.227512 1_555
Mg140 Mg2 3.176807 1_556
Mg140 Mg23 3.186239 1_546
Mg140 Mg142 3.190831 1_555
Mg140 Mg145 3.209191 1_555
Mg140 Mg147 3.221586 1_555
Mg141 Mg8 3.186246 1_556
Mg141 Mg5 3.198425 1_556
Mg141 Mg145 3.209201 1_555
Mg141 Mg146 3.221582 1_555
Mg141 Mg144 3.227505 1_555
Mg142 Mg2 3.176807 1_556
Mg142 Mg7 3.186237 1_656
Mg142 Mg6 3.198426 1_556
Mg142 Mg145 3.209184 1_555
Mg142 Mg147 3.221575 1_555
Mg142 Mg143 3.227506 1_555
Mg143 Mg144 3.190815 1_555
Mg143 Mg6 3.198420 1_556
Mg143 Mg145 3.209176 1_555
Mg143 Mg148 3.221577 1_555
Mg144 Mg5 3.198420 1_556
Mg144 Mg145 3.209185 1_555
Mg144 Mg148 3.221584 1_555
Mg145 Mg6 3.182820 1_556
Mg145 Mg5 3.182828 1_556
Mg146 Mg21 3.176681 1_546
Mg146 Mg4 3.176691 1_556
Mg147 Mg3 3.176682 1_656
Mg147 Mg20 3.176689 1_546
Mg147 Mg2 3.200945 1_556
Mg148 Mg16 3.176676 1_656
Mg148 Mg15 3.176684 1_556
