# generated using pymatgen
data_Li3YN2
_symmetry_space_group_name_H-M   'P 1'
_cell_length_a   9.11388334
_cell_length_b   9.11388334
_cell_length_c   9.11388334
_cell_angle_alpha   109.47122063
_cell_angle_beta   109.47122063
_cell_angle_gamma   109.47122063
_symmetry_Int_Tables_number   1
_chemical_formula_structural   Li3YN2
_chemical_formula_sum   'Li24 Y8 N16'
_cell_volume   582.75834992
_cell_formula_units_Z   8
loop_
 _symmetry_equiv_pos_site_id
 _symmetry_equiv_pos_as_xyz
  1  'x, y, z'
loop_
 _atom_site_type_symbol
 _atom_site_label
 _atom_site_symmetry_multiplicity
 _atom_site_fract_x
 _atom_site_fract_y
 _atom_site_fract_z
 _atom_site_occupancy
  Li  Li0  1  0.55963200  0.50823900  0.27082000  1
  Li  Li1  1  0.76258100  0.99176100  0.55139300  1
  Li  Li2  1  0.73741900  0.28881200  0.22918000  1
  Li  Li3  1  0.94036800  0.21118800  0.94860700  1
  Li  Li4  1  0.55139300  0.76258100  0.99176100  1
  Li  Li5  1  0.27082000  0.55963200  0.50823900  1
  Li  Li6  1  0.94860700  0.94036800  0.21118800  1
  Li  Li7  1  0.22918000  0.73741900  0.28881200  1
  Li  Li8  1  0.28881200  0.22918000  0.73741900  1
  Li  Li9  1  0.21118800  0.94860700  0.94036800  1
  Li  Li10  1  0.50823900  0.27082000  0.55963200  1
  Li  Li11  1  0.99176100  0.55139300  0.76258100  1
  Li  Li12  1  0.44036800  0.49176100  0.72918000  1
  Li  Li13  1  0.23741900  0.00823900  0.44860700  1
  Li  Li14  1  0.26258100  0.71118800  0.77082000  1
  Li  Li15  1  0.05963200  0.78881200  0.05139300  1
  Li  Li16  1  0.44860700  0.23741900  0.00823900  1
  Li  Li17  1  0.72918000  0.44036800  0.49176100  1
  Li  Li18  1  0.05139300  0.05963200  0.78881200  1
  Li  Li19  1  0.77082000  0.26258100  0.71118800  1
  Li  Li20  1  0.71118800  0.77082000  0.26258100  1
  Li  Li21  1  0.78881200  0.05139300  0.05963200  1
  Li  Li22  1  0.49176100  0.72918000  0.44036800  1
  Li  Li23  1  0.00823900  0.44860700  0.23741900  1
  Y  Y0  1  0.25147300  0.25147300  0.25147300  1
  Y  Y1  1  0.00000000  0.24852700  0.50000000  1
  Y  Y2  1  0.50000000  0.00000000  0.24852700  1
  Y  Y3  1  0.24852700  0.50000000  0.00000000  1
  Y  Y4  1  0.74852700  0.74852700  0.74852700  1
  Y  Y5  1  0.00000000  0.75147300  0.50000000  1
  Y  Y6  1  0.50000000  0.00000000  0.75147300  1
  Y  Y7  1  0.75147300  0.50000000  0.00000000  1
  N  N0  1  0.00000000  0.00000000  0.00000000  1
  N  N1  1  0.00000000  0.50000000  0.50000000  1
  N  N2  1  0.50000000  0.00000000  0.50000000  1
  N  N3  1  0.50000000  0.50000000  0.00000000  1
  N  N4  1  0.25220700  0.25000000  0.50220700  1
  N  N5  1  0.24779300  0.75000000  0.99779300  1
  N  N6  1  0.50220700  0.25220700  0.25000000  1
  N  N7  1  0.99779300  0.24779300  0.75000000  1
  N  N8  1  0.75000000  0.99779300  0.24779300  1
  N  N9  1  0.25000000  0.50220700  0.25220700  1
  N  N10  1  0.74779300  0.75000000  0.49779300  1
  N  N11  1  0.75220700  0.25000000  0.00220700  1
  N  N12  1  0.49779300  0.74779300  0.75000000  1
  N  N13  1  0.00220700  0.75220700  0.25000000  1
  N  N14  1  0.25000000  0.00220700  0.75220700  1
  N  N15  1  0.75000000  0.49779300  0.74779300  1
loop_
_geom_bond_atom_site_label_1
_geom_bond_atom_site_label_2
_geom_bond_distance
_geom_bond_site_symmetry_2
Li0 N10 2.037707 1_555
Li0 N6 2.139938 1_555
Li0 N3 2.312591 1_555
Li0 Li20 2.371889 1_555
Li0 Li16 2.371889 1_555
Li0 Li22 2.493661 1_555
Li0 Li17 2.493661 1_555
Li0 N9 2.750713 1_555
Li0 Y0 2.899717 1_555
Li1 N10 2.037707 1_555
Li1 N7 2.139938 1_565
Li1 N2 2.312591 1_565
Li1 Li19 2.371889 1_565
Li1 Li22 2.371889 1_555
Li1 Li18 2.493661 1_665
Li1 Li20 2.493661 1_555
Li1 N8 2.750713 1_555
Li1 Y1 2.899717 1_665
Li2 N11 2.037707 1_555
Li2 N6 2.139938 1_555
Li2 N1 2.312591 1_655
Li2 Li23 2.371889 1_655
Li2 Li21 2.493661 1_555
Li2 N8 2.750713 1_545
Li2 Y2 2.899717 1_555
Li3 N11 2.037707 1_556
Li3 N7 2.139938 1_555
Li3 N0 2.312591 1_656
Li3 N9 2.750713 1_656
Li3 Y3 2.899717 1_656
Li4 N12 2.037707 1_555
Li4 N8 2.139938 1_556
Li4 N3 2.312591 1_556
Li4 N5 2.750713 1_555
Li4 Y2 2.899717 1_566
Li5 N12 2.037707 1_555
Li5 N9 2.139938 1_555
Li5 N1 2.312591 1_555
Li5 N4 2.750713 1_555
Li5 Y0 2.899717 1_555
Li6 N13 2.037707 1_655
Li6 N8 2.139938 1_555
Li6 N0 2.312591 1_665
Li6 N4 2.750713 1_665
Li6 Y1 2.899717 1_665
Li7 N13 2.037707 1_555
Li7 N9 2.139938 1_555
Li7 N2 2.312591 1_565
Li7 N5 2.750713 1_554
Li7 Y3 2.899717 1_555
Li8 N14 2.037707 1_555
Li8 N4 2.139938 1_555
Li8 N3 2.312591 1_556
Li8 N7 2.750713 1_455
Li8 Y1 2.899717 1_555
Li9 N14 2.037707 1_565
Li9 N5 2.139938 1_555
Li9 N0 2.312591 1_566
Li9 N6 2.750713 1_566
Li9 Y2 2.899717 1_566
Li10 N15 2.037707 1_555
Li10 N4 2.139938 1_555
Li10 N2 2.312591 1_555
Li10 Li19 2.371889 1_555
Li10 Li13 2.371889 1_555
Li10 Li17 2.493661 1_555
Li10 Li12 2.493661 1_555
Li10 N6 2.750713 1_555
Li10 Y0 2.899717 1_555
Li11 N15 2.037707 1_555
Li11 N5 2.139938 1_655
Li11 N1 2.312591 1_655
Li11 Li14 2.371889 1_655
Li11 Li17 2.371889 1_555
Li11 Li15 2.493661 1_656
Li11 Li19 2.493661 1_555
Li11 N7 2.750713 1_555
Li11 Y3 2.899717 1_656
Li12 N4 2.037707 1_555
Li12 N12 2.139938 1_555
Li12 N3 2.312591 1_556
Li12 Li8 2.371889 1_555
Li12 Li4 2.371889 1_555
Li12 Li5 2.493661 1_555
Li12 N15 2.750713 1_555
Li12 Y4 2.899717 1_555
Li13 N4 2.037707 1_555
Li13 N13 2.139938 1_545
Li13 N2 2.312591 1_555
Li13 Li7 2.371889 1_545
Li13 Li8 2.493661 1_555
Li13 Li6 2.493661 1_445
Li13 N14 2.750713 1_555
Li13 Y5 2.899717 1_545
Li14 N5 2.037707 1_555
Li14 N12 2.139938 1_555
Li14 N1 2.312591 1_555
Li14 Li5 2.371889 1_555
Li14 Li4 2.493661 1_555
Li14 Li9 2.493661 1_555
Li14 N14 2.750713 1_565
Li14 Y6 2.899717 1_565
Li15 N5 2.037707 1_554
Li15 N13 2.139938 1_555
Li15 N0 2.312591 1_565
Li15 Li9 2.371889 1_554
Li15 Li6 2.371889 1_455
Li15 Li7 2.493661 1_555
Li15 N15 2.750713 1_454
Li15 Y7 2.899717 1_455
Li16 N6 2.037707 1_555
Li16 N14 2.139938 1_554
Li16 N3 2.312591 1_555
Li16 Li8 2.371889 1_554
Li16 Li2 2.493661 1_555
Li16 Li9 2.493661 1_544
Li16 N11 2.750713 1_555
Li16 Y6 2.899717 1_554
Li17 N6 2.037707 1_555
Li17 N15 2.139938 1_555
Li17 N1 2.312591 1_655
Li17 Li2 2.371889 1_555
Li17 N10 2.750713 1_555
Li17 Y4 2.899717 1_555
Li18 N7 2.037707 1_455
Li18 N14 2.139938 1_555
Li18 N0 2.312591 1_556
Li18 Li3 2.371889 1_455
Li18 Li9 2.371889 1_545
Li18 Li8 2.493661 1_555
Li18 N10 2.750713 1_445
Li18 Y5 2.899717 1_545
Li19 N7 2.037707 1_555
Li19 N15 2.139938 1_555
Li19 N2 2.312591 1_555
Li19 Li3 2.493661 1_555
Li19 N11 2.750713 1_556
Li19 Y7 2.899717 1_556
Li20 N8 2.037707 1_555
Li20 N10 2.139938 1_555
Li20 N3 2.312591 1_555
Li20 Li4 2.371889 1_554
Li20 Li6 2.493661 1_555
Li20 N13 2.750713 1_655
Li20 Y5 2.899717 1_655
Li21 N8 2.037707 1_545
Li21 N11 2.139938 1_555
Li21 N0 2.312591 1_655
Li21 Li6 2.371889 1_545
Li21 Li3 2.371889 1_554
Li21 Li4 2.493661 1_544
Li21 N12 2.750713 1_544
Li21 Y6 2.899717 1_554
Li22 N9 2.037707 1_555
Li22 N10 2.139938 1_555
Li22 N2 2.312591 1_565
Li22 Li7 2.371889 1_555
Li22 Li5 2.493661 1_555
Li22 N12 2.750713 1_555
Li22 Y4 2.899717 1_555
Li23 N9 2.037707 1_555
Li23 N11 2.139938 1_455
Li23 N1 2.312591 1_555
Li23 Li5 2.371889 1_555
Li23 Li7 2.493661 1_555
Li23 Li3 2.493661 1_454
Li23 N13 2.750713 1_555
Li23 Y7 2.899717 1_455
N0 Y0 2.291896 1_555
N0 Y4 2.291896 1_444
N1 Y5 2.291896 1_555
N1 Y1 2.291896 1_555
N2 Y6 2.291896 1_555
N2 Y2 2.291896 1_555
N3 Y7 2.291896 1_555
N3 Y3 2.291896 1_555
N4 Y0 2.287467 1_555
N4 Y1 2.287467 1_555
N5 Y2 2.287467 1_566
N5 Y3 2.287467 1_556
N6 Y0 2.287467 1_555
N6 Y2 2.287467 1_555
N7 Y3 2.287467 1_656
N7 Y1 2.287467 1_655
N8 Y2 2.287467 1_565
N8 Y1 2.287467 1_665
N9 Y0 2.287467 1_555
N9 Y3 2.287467 1_555
N10 Y4 2.287467 1_555
N10 Y5 2.287467 1_655
N11 Y6 2.287467 1_554
N11 Y7 2.287467 1_555
N12 Y4 2.287467 1_555
N12 Y6 2.287467 1_565
N13 Y7 2.287467 1_455
N13 Y5 2.287467 1_555
N14 Y6 2.287467 1_555
N14 Y5 2.287467 1_545
N15 Y4 2.287467 1_555
N15 Y7 2.287467 1_556
