# generated using pymatgen
data_YbBiAu
_symmetry_space_group_name_H-M   'P 1'
_cell_length_a   4.49896943
_cell_length_b   4.49896943
_cell_length_c   9.05710418
_cell_angle_alpha   90.00000000
_cell_angle_beta   90.00000000
_cell_angle_gamma   119.99999636
_symmetry_Int_Tables_number   1
_chemical_formula_structural   YbBiAu
_chemical_formula_sum   'Yb2 Bi2 Au2'
_cell_volume   158.76182959
_cell_formula_units_Z   2
loop_
 _symmetry_equiv_pos_site_id
 _symmetry_equiv_pos_as_xyz
  1  'x, y, z'
loop_
 _atom_site_type_symbol
 _atom_site_label
 _atom_site_symmetry_multiplicity
 _atom_site_fract_x
 _atom_site_fract_y
 _atom_site_fract_z
 _atom_site_occupancy
  Yb  Yb0  1  0.00000000  0.00000000  0.27180753  1
  Yb  Yb1  1  0.00000000  0.00000000  0.77180753  1
  Bi  Bi0  1  0.33333300  0.66666700  0.04948268  1
  Bi  Bi1  1  0.66666700  0.33333300  0.54948268  1
  Au  Au0  1  0.33333300  0.66666700  0.40970979  1
  Au  Au1  1  0.66666700  0.33333300  0.90970979  1
loop_
_geom_bond_atom_site_label_1
_geom_bond_atom_site_label_2
_geom_bond_distance
_geom_bond_site_symmetry_2
Bi0 Yb0 3.286572 1_565
Bi0 Yb0 3.286576 1_555
Bi0 Yb0 3.286576 1_665
Bi0 Yb1 3.615492 1_564
Bi0 Yb1 3.615495 1_554
Bi0 Yb1 3.615495 1_664
Bi1 Yb1 3.286572 1_655
Bi1 Yb1 3.286576 1_555
Bi1 Yb1 3.286576 1_665
Bi1 Yb0 3.615492 1_655
Bi1 Yb0 3.615495 1_555
Bi1 Yb0 3.615495 1_665
Au0 Yb0 2.882166 1_565
Au0 Yb0 2.882170 1_555
Au0 Yb0 2.882170 1_665
Au0 Bi1 2.889549 1_565
Au0 Bi1 2.889549 1_455
Au0 Bi1 2.889556 1_555
Au0 Bi0 3.262614 1_555
Au1 Yb1 2.882166 1_655
Au1 Yb1 2.882170 1_555
Au1 Yb1 2.882170 1_665
Au1 Bi0 2.889549 1_656
Au1 Bi0 2.889549 1_546
Au1 Bi0 2.889556 1_556
Au1 Bi1 3.262614 1_555
