# generated using pymatgen
data_Zn3Ni4(SbO6)2
_symmetry_space_group_name_H-M   'P 1'
_cell_length_a   6.10271126
_cell_length_b   6.10271126
_cell_length_c   13.52596662
_cell_angle_alpha   77.78653653
_cell_angle_beta   77.78653653
_cell_angle_gamma   89.83424421
_symmetry_Int_Tables_number   1
_chemical_formula_structural   Zn3Ni4(SbO6)2
_chemical_formula_sum   'Zn6 Ni8 Sb4 O24'
_cell_volume   480.74099914
_cell_formula_units_Z   2
loop_
 _symmetry_equiv_pos_site_id
 _symmetry_equiv_pos_as_xyz
  1  'x, y, z'
loop_
 _atom_site_type_symbol
 _atom_site_label
 _atom_site_symmetry_multiplicity
 _atom_site_fract_x
 _atom_site_fract_y
 _atom_site_fract_z
 _atom_site_occupancy
  Zn  Zn0  1  0.63526900  0.36473100  0.75000000  1
  Zn  Zn1  1  0.29956900  0.01571000  0.42462100  1
  Zn  Zn2  1  0.98429000  0.70043100  0.07537900  1
  Zn  Zn3  1  0.36473100  0.63526900  0.25000000  1
  Zn  Zn4  1  0.01571000  0.29956900  0.92462100  1
  Zn  Zn5  1  0.70043100  0.98429000  0.57537900  1
  Ni  Ni0  1  0.50000000  0.50000000  0.00000000  1
  Ni  Ni1  1  0.17403200  0.66625700  0.66285300  1
  Ni  Ni2  1  0.82596800  0.33374300  0.33714700  1
  Ni  Ni3  1  0.50000000  0.00000000  0.00000000  1
  Ni  Ni4  1  0.50000000  0.50000000  0.50000000  1
  Ni  Ni5  1  0.00000000  0.50000000  0.50000000  1
  Ni  Ni6  1  0.66625700  0.17403200  0.16285300  1
  Ni  Ni7  1  0.33374300  0.82596800  0.83714700  1
  Sb  Sb0  1  0.17674300  0.17138400  0.66324400  1
  Sb  Sb1  1  0.82325700  0.82861600  0.33675600  1
  Sb  Sb2  1  0.17138400  0.17674300  0.16324400  1
  Sb  Sb3  1  0.82861600  0.82325700  0.83675600  1
  O  O0  1  0.24650100  0.71721600  0.50800400  1
  O  O1  1  0.92266400  0.39102700  0.17334000  1
  O  O2  1  0.59374100  0.05264700  0.83747300  1
  O  O3  1  0.24607600  0.25221300  0.50895500  1
  O  O4  1  0.92167700  0.93092500  0.17522400  1
  O  O5  1  0.59267600  0.60165900  0.83361700  1
  O  O6  1  0.94735300  0.40625900  0.66252700  1
  O  O7  1  0.60897300  0.07733600  0.32666000  1
  O  O8  1  0.28278400  0.75349900  0.99199600  1
  O  O9  1  0.39834100  0.40732400  0.66638300  1
  O  O10  1  0.06907500  0.07832200  0.32477600  1
  O  O11  1  0.74778700  0.75392400  0.99104500  1
  O  O12  1  0.75349900  0.28278400  0.49199600  1
  O  O13  1  0.40625900  0.94735300  0.16252700  1
  O  O14  1  0.07733600  0.60897300  0.82666000  1
  O  O15  1  0.75392400  0.74778700  0.49104500  1
  O  O16  1  0.40732400  0.39834100  0.16638300  1
  O  O17  1  0.07832200  0.06907500  0.82477600  1
  O  O18  1  0.05264700  0.59374100  0.33747300  1
  O  O19  1  0.71721600  0.24650100  0.00800400  1
  O  O20  1  0.39102700  0.92266400  0.67334000  1
  O  O21  1  0.60165900  0.59267600  0.33361700  1
  O  O22  1  0.25221300  0.24607600  0.00895500  1
  O  O23  1  0.93092500  0.92167800  0.67522400  1
loop_
_geom_bond_atom_site_label_1
_geom_bond_atom_site_label_2
_geom_bond_distance
_geom_bond_site_symmetry_2
Ni0 O8 2.034761 1_554
Ni0 O19 2.034761 1_555
Ni0 O11 2.135256 1_554
Ni0 O22 2.135256 1_555
Ni0 O16 2.154581 1_555
Ni0 O5 2.154581 1_554
Ni1 O0 2.003107 1_555
Ni1 O9 2.087193 1_555
Ni1 O20 2.099450 1_555
Ni1 O6 2.109391 1_455
Ni1 O14 2.121273 1_555
Ni1 O23 2.156566 1_455
Ni2 O12 2.003107 1_555
Ni2 O21 2.087193 1_555
Ni2 O7 2.099450 1_555
Ni2 O18 2.109391 1_655
Ni2 O1 2.121273 1_555
Ni2 O10 2.156566 1_655
Ni3 O19 2.042820 1_555
Ni3 O8 2.042820 1_544
Ni3 O13 2.105537 1_545
Ni3 O2 2.105537 1_554
Ni3 O11 2.131398 1_544
Ni3 O22 2.131398 1_555
Ni4 O12 2.034761 1_555
Ni4 O0 2.034761 1_555
Ni4 O15 2.135256 1_555
Ni4 O3 2.135256 1_555
Ni4 O21 2.154581 1_555
Ni4 O9 2.154581 1_555
Ni5 O0 2.042820 1_555
Ni5 O12 2.042820 1_455
Ni5 O6 2.105537 1_455
Ni5 O18 2.105537 1_555
Ni5 O3 2.131398 1_555
Ni5 O15 2.131398 1_455
Ni6 O19 2.003107 1_555
Ni6 O16 2.087193 1_555
Ni6 O1 2.099450 1_555
Ni6 O13 2.109391 1_545
Ni6 O7 2.121273 1_555
Ni6 O4 2.156562 1_545
Ni7 O8 2.003107 1_555
Ni7 O5 2.087193 1_555
Ni7 O14 2.099450 1_555
Ni7 O2 2.109391 1_565
Ni7 O20 2.121273 1_555
Ni7 O17 2.156566 1_565
O0 Zn1 1.916977 1_565
O1 Sb2 2.002262 1_655
O1 Zn2 2.048685 1_555
O2 Sb3 2.000658 1_545
O2 Zn0 2.003478 1_555
O3 Sb0 1.992379 1_555
O3 Zn1 2.006794 1_555
O4 Sb1 2.096189 1_555
O4 Sb2 2.098776 1_665
O4 Zn2 2.128569 1_555
O5 Sb3 1.991309 1_555
O5 Zn0 2.000680 1_555
O6 Sb0 2.000658 1_655
O6 Zn0 2.003478 1_555
O7 Sb1 2.002262 1_545
O7 Zn1 2.048685 1_555
O8 Zn2 1.916977 1_456
O9 Sb0 1.991309 1_555
O9 Zn0 2.000680 1_555
O10 Sb2 2.096189 1_555
O10 Sb1 2.098772 1_445
O10 Zn1 2.128568 1_555
O11 Sb3 1.992379 1_555
O11 Zn2 2.006794 1_556
O12 Zn5 1.916977 1_545
O13 Sb2 2.000658 1_565
O13 Zn3 2.003478 1_555
O14 Sb3 2.002262 1_455
O14 Zn4 2.048685 1_555
O15 Sb1 1.992379 1_555
O15 Zn5 2.006794 1_555
O16 Sb2 1.991309 1_555
O16 Zn3 2.000680 1_555
O17 Sb0 2.096189 1_555
O17 Sb3 2.098772 1_445
O17 Zn4 2.128568 1_555
O18 Sb1 2.000658 1_455
O18 Zn3 2.003478 1_555
O19 Zn4 1.916977 1_654
O20 Sb0 2.002262 1_565
O20 Zn5 2.048685 1_555
O21 Sb1 1.991309 1_555
O21 Zn3 2.000680 1_555
O22 Sb2 1.992379 1_555
O22 Zn4 2.006794 1_554
O23 Sb3 2.096189 1_555
O23 Sb0 2.098772 1_665
O23 Zn5 2.128568 1_555
