# generated using pymatgen
data_U2Si3Ru
_symmetry_space_group_name_H-M   'P 1'
_cell_length_a   8.20201221
_cell_length_b   8.20201221
_cell_length_c   3.78167100
_cell_angle_alpha   90.00000000
_cell_angle_beta   90.00000000
_cell_angle_gamma   120.00000172
_symmetry_Int_Tables_number   1
_chemical_formula_structural   U2Si3Ru
_chemical_formula_sum   'U4 Si6 Ru2'
_cell_volume   220.32064309
_cell_formula_units_Z   2
loop_
 _symmetry_equiv_pos_site_id
 _symmetry_equiv_pos_as_xyz
  1  'x, y, z'
loop_
 _atom_site_type_symbol
 _atom_site_label
 _atom_site_symmetry_multiplicity
 _atom_site_fract_x
 _atom_site_fract_y
 _atom_site_fract_z
 _atom_site_occupancy
  U  U0  1  0.00000000  0.00000000  0.00000000  1
  U  U1  1  0.00000000  0.50000000  0.00000000  1
  U  U2  1  0.50000000  0.50000000  0.00000000  1
  U  U3  1  0.50000000  0.00000000  0.00000000  1
  Si  Si0  1  0.67230400  0.83615200  0.50952400  1
  Si  Si1  1  0.16384800  0.83615200  0.50952400  1
  Si  Si2  1  0.16384800  0.32769600  0.50952400  1
  Si  Si3  1  0.32769600  0.16384800  0.49047600  1
  Si  Si4  1  0.83615200  0.16384800  0.49047600  1
  Si  Si5  1  0.83615200  0.67230400  0.49047600  1
  Ru  Ru0  1  0.33333300  0.66666700  0.47267500  1
  Ru  Ru1  1  0.66666700  0.33333300  0.52732500  1
loop_
_geom_bond_atom_site_label_1
_geom_bond_atom_site_label_2
_geom_bond_distance
_geom_bond_site_symmetry_2
Si0 Si4 2.328788 1_565
Si0 Si5 2.328788 1_555
Si0 U0 2.976310 1_666
Si0 U0 3.021726 1_665
Si0 U2 3.023715 1_556
Si0 U3 3.023715 1_566
Si0 U2 3.068429 1_555
Si0 U3 3.068429 1_565
Si1 Si3 2.328788 1_565
Si1 Si5 2.328788 1_455
Si1 U0 2.976310 1_566
Si1 U0 3.021726 1_565
Si1 U3 3.023715 1_566
Si1 U1 3.023715 1_556
Si1 U1 3.068429 1_555
Si1 U3 3.068429 1_565
Si2 Si4 2.328788 1_455
Si2 Si3 2.328788 1_555
Si2 U0 2.976310 1_556
Si2 U0 3.021726 1_555
Si2 U2 3.023715 1_556
Si2 U1 3.023715 1_556
Si2 U2 3.068429 1_555
Si2 U1 3.068429 1_555
Si3 U0 2.976310 1_555
Si3 U0 3.021726 1_556
Si3 U2 3.023715 1_555
Si3 U3 3.023715 1_555
Si3 U2 3.068429 1_556
Si3 U3 3.068429 1_556
Si4 U0 2.976310 1_655
Si4 U0 3.021726 1_656
Si4 U3 3.023715 1_555
Si4 U1 3.023715 1_655
Si4 U1 3.068429 1_656
Si4 U3 3.068429 1_556
Si5 U0 2.976310 1_665
Si5 U0 3.021726 1_666
Si5 U2 3.023715 1_555
Si5 U1 3.023715 1_655
Si5 U2 3.068429 1_556
Si5 U1 3.068429 1_656
Ru0 Si1 2.411784 1_555
Ru0 Si0 2.411791 1_555
Ru0 Si2 2.411791 1_555
Ru0 U1 2.966687 1_555
Ru0 U3 2.966687 1_565
Ru0 U2 2.966693 1_555
Ru0 U1 3.095607 1_556
Ru0 U3 3.095607 1_566
Ru0 U2 3.095613 1_556
Ru1 Si4 2.411784 1_555
Ru1 Si5 2.411791 1_555
Ru1 Si3 2.411791 1_555
Ru1 U3 2.966687 1_556
Ru1 U1 2.966687 1_656
Ru1 U2 2.966693 1_556
Ru1 U1 3.095607 1_655
Ru1 U3 3.095607 1_555
Ru1 U2 3.095613 1_555
