# generated using pymatgen
data_YB3H27N5
_symmetry_space_group_name_H-M   'P 1'
_cell_length_a   8.74316648
_cell_length_b   8.74318041
_cell_length_c   10.14186500
_cell_angle_alpha   90.00000000
_cell_angle_beta   90.00000000
_cell_angle_gamma   119.99996554
_symmetry_Int_Tables_number   1
_chemical_formula_structural   YB3H27N5
_chemical_formula_sum   'Y2 B6 H54 N10'
_cell_volume   671.40843915
_cell_formula_units_Z   2
loop_
 _symmetry_equiv_pos_site_id
 _symmetry_equiv_pos_as_xyz
  1  'x, y, z'
loop_
 _atom_site_type_symbol
 _atom_site_label
 _atom_site_symmetry_multiplicity
 _atom_site_fract_x
 _atom_site_fract_y
 _atom_site_fract_z
 _atom_site_occupancy
  Y  Y0  1  0.33333700  0.66667200  0.27544700  1
  Y  Y1  1  0.66666300  0.33332800  0.77544700  1
  B  B0  1  0.96945600  0.31090100  0.31959500  1
  B  B1  1  0.68909900  0.65855500  0.31959500  1
  B  B2  1  0.34144500  0.03054400  0.31959500  1
  B  B3  1  0.03054400  0.68909900  0.81959500  1
  B  B4  1  0.31090100  0.34144500  0.81959500  1
  B  B5  1  0.65855500  0.96945600  0.81959500  1
  H  H0  1  0.05698500  0.71609300  0.11390700  1
  H  H1  1  0.28390800  0.34089300  0.11390800  1
  H  H2  1  0.65910800  0.94301500  0.11390800  1
  H  H3  1  0.94301500  0.28390700  0.61390700  1
  H  H4  1  0.71609200  0.65910700  0.61390800  1
  H  H5  1  0.34089200  0.05698500  0.61390800  1
  H  H6  1  0.94489700  0.55732300  0.22136500  1
  H  H7  1  0.44267700  0.38757300  0.22136500  1
  H  H8  1  0.61242600  0.05510400  0.22136500  1
  H  H9  1  0.05510300  0.44267700  0.72136500  1
  H  H10  1  0.55732300  0.61242700  0.72136500  1
  H  H11  1  0.38757400  0.94489600  0.72136500  1
  H  H12  1  0.03729900  0.76406800  0.26499200  1
  H  H13  1  0.23593200  0.27323000  0.26499300  1
  H  H14  1  0.72677100  0.96270300  0.26499200  1
  H  H15  1  0.96270100  0.23593200  0.76499200  1
  H  H16  1  0.76406800  0.72677000  0.76499300  1
  H  H17  1  0.27322900  0.03729700  0.76499200  1
  H  H18  1  0.22594300  0.56156000  0.99612800  1
  H  H19  1  0.43844100  0.66438300  0.99612700  1
  H  H20  1  0.33562000  0.77406000  0.99612700  1
  H  H21  1  0.77405700  0.43844000  0.49612800  1
  H  H22  1  0.56155900  0.33561700  0.49612700  1
  H  H23  1  0.66438000  0.22594000  0.49612700  1
  H  H24  1  0.44912600  0.76324600  0.57491600  1
  H  H25  1  0.23675500  0.68588000  0.57491400  1
  H  H26  1  0.31412300  0.55087500  0.57491500  1
  H  H27  1  0.55087400  0.23675400  0.07491600  1
  H  H28  1  0.76324500  0.31412000  0.07491400  1
  H  H29  1  0.68587700  0.44912500  0.07491500  1
  H  H30  1  0.96466000  0.17962800  0.36672000  1
  H  H31  1  0.82037200  0.78503200  0.36672000  1
  H  H32  1  0.21496800  0.03534000  0.36672000  1
  H  H33  1  0.03534000  0.82037200  0.86672000  1
  H  H34  1  0.17962800  0.21496800  0.86672000  1
  H  H35  1  0.78503200  0.96466000  0.86672000  1
  H  H36  1  0.08081800  0.44226000  0.38276600  1
  H  H37  1  0.55774000  0.63855800  0.38276600  1
  H  H38  1  0.36144200  0.91918200  0.38276600  1
  H  H39  1  0.91918200  0.55774000  0.88276600  1
  H  H40  1  0.44226000  0.36144200  0.88276600  1
  H  H41  1  0.63855800  0.08081800  0.88276600  1
  H  H42  1  0.01002000  0.32669600  0.20229100  1
  H  H43  1  0.67330300  0.68332400  0.20229100  1
  H  H44  1  0.31667600  0.98998000  0.20229100  1
  H  H45  1  0.98998000  0.67330400  0.70229100  1
  H  H46  1  0.32669700  0.31667600  0.70229100  1
  H  H47  1  0.68332400  0.01002000  0.70229100  1
  H  H48  1  0.82792500  0.30593100  0.32946000  1
  H  H49  1  0.69406900  0.52199500  0.32946000  1
  H  H50  1  0.47800600  0.17207500  0.32946000  1
  H  H51  1  0.17207500  0.69406900  0.82946000  1
  H  H52  1  0.30593100  0.47800500  0.82946000  1
  H  H53  1  0.52199400  0.82792500  0.82946000  1
  N  N0  1  0.05697800  0.67703800  0.20949900  1
  N  N1  1  0.32296200  0.37993900  0.20949900  1
  N  N2  1  0.62006200  0.94302300  0.20949900  1
  N  N3  1  0.94302200  0.32296200  0.70949900  1
  N  N4  1  0.67703800  0.62006100  0.70949900  1
  N  N5  1  0.37993800  0.05697700  0.70949900  1
  N  N6  1  0.33333900  0.66666800  0.03872700  1
  N  N7  1  0.66666100  0.33333200  0.53872700  1
  N  N8  1  0.33333800  0.66667000  0.53400800  1
  N  N9  1  0.66666200  0.33333000  0.03400800  1
loop_
_geom_bond_atom_site_label_1
_geom_bond_atom_site_label_2
_geom_bond_distance
_geom_bond_site_symmetry_2
B0 H48 1.220393 1_555
B0 H30 1.224487 1_555
B0 H42 1.229316 1_655
B0 H36 1.248707 1_655
B1 H49 1.220386 1_555
B1 H31 1.224487 1_555
B1 H43 1.229318 1_555
B1 H37 1.248706 1_555
B2 H50 1.220394 1_555
B2 H32 1.224485 1_555
B2 H44 1.229316 1_545
B2 H38 1.248707 1_545
B3 H51 1.220393 1_555
B3 H33 1.224487 1_555
B3 H45 1.229316 1_455
B3 H39 1.248707 1_455
B4 H52 1.220386 1_555
B4 H34 1.224487 1_555
B4 H46 1.229318 1_555
B4 H40 1.248706 1_555
B5 H53 1.220394 1_555
B5 H35 1.224485 1_555
B5 H47 1.229316 1_565
B5 H41 1.248707 1_565
H0 N0 1.027848 1_555
H1 N1 1.027834 1_555
H2 N2 1.027834 1_555
H3 N3 1.027848 1_555
H4 N4 1.027834 1_555
H5 N5 1.027834 1_555
H6 N0 1.022074 1_655
H7 N1 1.022072 1_555
H8 N2 1.022083 1_545
H9 N3 1.022074 1_455
H10 N4 1.022072 1_555
H11 N5 1.022083 1_565
H12 N0 1.027750 1_555
H13 N1 1.027755 1_555
H14 N2 1.027746 1_555
H15 N3 1.027750 1_555
H16 N4 1.027755 1_555
H17 N5 1.027746 1_555
H18 N6 1.024674 1_556
H19 N6 1.024617 1_556
H20 N6 1.024674 1_556
H21 N7 1.024674 1_555
H22 N7 1.024617 1_555
H23 N7 1.024674 1_555
H24 N8 1.027208 1_555
H25 N8 1.027244 1_555
H26 N8 1.027251 1_555
H27 N9 1.027208 1_555
H28 N9 1.027244 1_555
H29 N9 1.027251 1_555
H36 Y0 2.361554 1_555
H37 Y0 2.361515 1_555
H38 Y0 2.361492 1_555
H39 Y1 2.361554 1_555
H40 Y1 2.361515 1_555
H41 Y1 2.361492 1_555
N0 Y0 2.552023 1_555
N1 Y0 2.552059 1_555
N2 Y0 2.551994 1_555
N3 Y1 2.552023 1_555
N4 Y1 2.552059 1_555
N5 Y1 2.551994 1_555
N6 Y0 2.400782 1_555
N7 Y1 2.400782 1_555
N8 Y0 2.622291 1_555
N9 Y1 2.622291 1_554
