# generated using pymatgen
data_FeNCl3
_symmetry_space_group_name_H-M   'P 1'
_cell_length_a   5.60941300
_cell_length_b   8.44072674
_cell_length_c   8.44072674
_cell_angle_alpha   120.00000582
_cell_angle_beta   90.00000000
_cell_angle_gamma   90.00000000
_symmetry_Int_Tables_number   1
_chemical_formula_structural   FeNCl3
_chemical_formula_sum   'Fe2 N2 Cl6'
_cell_volume   346.10486539
_cell_formula_units_Z   2
loop_
 _symmetry_equiv_pos_site_id
 _symmetry_equiv_pos_as_xyz
  1  'x, y, z'
loop_
 _atom_site_type_symbol
 _atom_site_label
 _atom_site_symmetry_multiplicity
 _atom_site_fract_x
 _atom_site_fract_y
 _atom_site_fract_z
 _atom_site_occupancy
  Fe  Fe0  1  0.06146900  0.00000000  0.00000000  1
  Fe  Fe1  1  0.56146900  0.00000000  0.00000000  1
  N  N0  1  0.75825900  0.66666700  0.33333300  1
  N  N1  1  0.25825900  0.33333300  0.66666700  1
  Cl  Cl0  1  0.81008700  0.12132300  0.24264600  1
  Cl  Cl1  1  0.81008700  0.12132300  0.87867700  1
  Cl  Cl2  1  0.31008700  0.87867700  0.75735400  1
  Cl  Cl3  1  0.81008700  0.75735400  0.87867700  1
  Cl  Cl4  1  0.31008700  0.87867700  0.12132300  1
  Cl  Cl5  1  0.31008700  0.24264600  0.12132300  1
loop_
_geom_bond_atom_site_label_1
_geom_bond_atom_site_label_2
_geom_bond_distance
_geom_bond_site_symmetry_2
Cl0 Fe1 2.256319 1_555
Cl0 Fe0 2.265934 1_655
Cl0 N1 3.990899 1_655
Cl0 N0 4.281986 1_545
Cl0 N0 4.281994 1_555
Cl0 N1 4.380510 1_555
Cl1 Fe1 2.256319 1_556
Cl1 Fe0 2.265935 1_656
Cl1 N1 3.990894 1_655
Cl1 N0 4.281991 1_545
Cl1 N0 4.281991 1_556
Cl1 N1 4.380505 1_555
Cl2 Fe0 2.256319 1_566
Cl2 Fe1 2.265934 1_566
Cl2 N0 3.990899 1_555
Cl2 N1 4.281986 1_565
Cl2 N1 4.281994 1_555
Cl2 N0 4.380510 1_455
Cl3 Fe1 2.256319 1_566
Cl3 Fe0 2.265934 1_666
Cl3 N1 3.990899 1_655
Cl3 N0 4.281986 1_556
Cl3 N0 4.281994 1_555
Cl3 N1 4.380510 1_555
Cl4 Fe0 2.256319 1_565
Cl4 Fe1 2.265935 1_565
Cl4 N0 3.990894 1_555
Cl4 N1 4.281991 1_554
Cl4 N1 4.281991 1_565
Cl4 N0 4.380505 1_455
Cl5 Fe0 2.256319 1_555
Cl5 Fe1 2.265934 1_555
Cl5 N0 3.990899 1_555
Cl5 N1 4.281986 1_554
Cl5 N1 4.281994 1_555
Cl5 N0 4.380510 1_455
