# generated using pymatgen
data_Mg(WN)2
_symmetry_space_group_name_H-M   'P 1'
_cell_length_a   3.29124500
_cell_length_b   3.29124500
_cell_length_c   7.16217900
_cell_angle_alpha   90.00000000
_cell_angle_beta   90.00000000
_cell_angle_gamma   90.00000000
_symmetry_Int_Tables_number   1
_chemical_formula_structural   Mg(WN)2
_chemical_formula_sum   'Mg1 W2 N2'
_cell_volume   77.58282610
_cell_formula_units_Z   1
loop_
 _symmetry_equiv_pos_site_id
 _symmetry_equiv_pos_as_xyz
  1  'x, y, z'
loop_
 _atom_site_type_symbol
 _atom_site_label
 _atom_site_symmetry_multiplicity
 _atom_site_fract_x
 _atom_site_fract_y
 _atom_site_fract_z
 _atom_site_occupancy
  Mg  Mg0  1  0.00000000  0.00000000  0.00000000  1
  W  W0  1  0.50000000  0.50000000  0.67937500  1
  W  W1  1  0.50000000  0.50000000  0.32062500  1
  N  N0  1  0.50000000  0.00000000  0.18332600  1
  N  N1  1  0.00000000  0.50000000  0.81667400  1
loop_
_geom_bond_atom_site_label_1
_geom_bond_atom_site_label_2
_geom_bond_distance
_geom_bond_site_symmetry_2
Mg0 N1 2.105250 1_544
Mg0 N1 2.105250 1_554
Mg0 N0 2.105250 1_555
Mg0 N0 2.105250 1_455
W0 W1 2.569432 1_555
N0 W1 1.917047 1_545
N0 W1 1.917047 1_555
N1 W0 1.917047 1_455
N1 W0 1.917047 1_555
