# generated using pymatgen
data_U2AsPNO19
_symmetry_space_group_name_H-M   'P 1'
_cell_length_a   7.15006700
_cell_length_b   7.15404474
_cell_length_c   8.80394755
_cell_angle_alpha   90.21936684
_cell_angle_beta   90.27108377
_cell_angle_gamma   90.52710289
_symmetry_Int_Tables_number   1
_chemical_formula_structural   U2AsPNO19
_chemical_formula_sum   'U2 As1 P1 N1 O19'
_cell_volume   450.31116393
_cell_formula_units_Z   1
loop_
 _symmetry_equiv_pos_site_id
 _symmetry_equiv_pos_as_xyz
  1  'x, y, z'
loop_
 _atom_site_type_symbol
 _atom_site_label
 _atom_site_symmetry_multiplicity
 _atom_site_fract_x
 _atom_site_fract_y
 _atom_site_fract_z
 _atom_site_occupancy
  U  U0  1  0.94914700  0.97521400  0.01326900  1
  U  U1  1  0.44720700  0.47142400  0.79294600  1
  As  As0  1  0.94697600  0.47193400  0.90177300  1
  P  P0  1  0.44796600  0.97240100  0.89471900  1
  N  N0  1  0.51448900  0.45732100  0.22439800  1
  O  O0  1  0.45711500  0.46992800  0.01058600  1
  O  O1  1  0.27211600  0.96963300  0.00021100  1
  O  O2  1  0.95092500  0.28547600  0.02246100  1
  O  O3  1  0.62541200  0.97806900  0.99752600  1
  O  O4  1  0.75450500  0.46364700  0.78498800  1
  O  O5  1  0.93391500  0.97670500  0.21920000  1
  O  O6  1  0.94114900  0.66704300  0.01467000  1
  O  O7  1  0.13863400  0.47607000  0.78620700  1
  O  O8  1  0.95383300  0.97830800  0.80770900  1
  O  O9  1  0.44256400  0.15055700  0.79620500  1
  O  O10  1  0.44864300  0.79237500  0.79737400  1
  O  O11  1  0.44153000  0.47372600  0.58693800  1
  O  O12  1  0.40339800  0.35815600  0.28078900  1
  O  O13  1  0.88222000  0.35782900  0.45547900  1
  O  O14  1  0.85847600  0.66086200  0.49778400  1
  O  O15  1  0.64680400  0.55200700  0.24530700  1
  O  O16  1  0.27371700  0.82499400  0.40245900  1
  O  O17  1  0.23234900  0.72755700  0.29215900  1
  O  O18  1  0.96090800  0.51476500  0.48984100  1
loop_
_geom_bond_atom_site_label_1
_geom_bond_atom_site_label_2
_geom_bond_distance
_geom_bond_site_symmetry_2
As0 O2 1.708917 1_556
As0 O7 1.710742 1_655
As0 O6 1.711373 1_556
As0 O4 1.714399 1_555
N0 O15 1.171912 1_555
N0 O12 1.173352 1_555
N0 O0 1.927300 1_555
O0 U1 1.917140 1_554
O0 O15 2.530644 1_555
O0 O12 2.542325 1_555
O1 P0 1.566715 1_554
O1 U0 2.313357 1_455
O2 U0 2.220711 1_545
O3 P0 1.555152 1_555
O3 U0 2.318500 1_556
O4 U1 2.199858 1_555
O5 U0 1.816785 1_555
O6 U0 2.204968 1_555
O7 U1 2.207394 1_555
O8 U0 1.810424 1_556
O9 P0 1.545062 1_545
O9 U1 2.295723 1_555
O10 P0 1.544322 1_555
O10 U1 2.296207 1_555
O11 U1 1.814087 1_555
O13 O18 1.285592 1_555
O14 O18 1.283633 1_555
O16 O17 1.226656 1_555
