# generated using pymatgen
data_SrU(SeO4)2
_symmetry_space_group_name_H-M   'P 1'
_cell_length_a   5.81231600
_cell_length_b   6.88887019
_cell_length_c   11.47307535
_cell_angle_alpha   104.76538068
_cell_angle_beta   94.04440417
_cell_angle_gamma   109.42836122
_symmetry_Int_Tables_number   1
_chemical_formula_structural   SrU(SeO4)2
_chemical_formula_sum   'Sr2 U2 Se4 O16'
_cell_volume   412.80096662
_cell_formula_units_Z   2
loop_
 _symmetry_equiv_pos_site_id
 _symmetry_equiv_pos_as_xyz
  1  'x, y, z'
loop_
 _atom_site_type_symbol
 _atom_site_label
 _atom_site_symmetry_multiplicity
 _atom_site_fract_x
 _atom_site_fract_y
 _atom_site_fract_z
 _atom_site_occupancy
  Sr  Sr0  1  0.76937900  0.18871800  0.56254800  1
  Sr  Sr1  1  0.23062100  0.81128200  0.43745200  1
  U  U0  1  0.00572800  0.09945300  0.16320400  1
  U  U1  1  0.99427200  0.90054700  0.83679600  1
  Se  Se0  1  0.82099500  0.31341900  0.87767100  1
  Se  Se1  1  0.38582800  0.35007700  0.34168900  1
  Se  Se2  1  0.17900500  0.68658100  0.12232900  1
  Se  Se3  1  0.61417200  0.64992300  0.65831100  1
  O  O0  1  0.06346800  0.83542000  0.02969200  1
  O  O1  1  0.96175400  0.42575300  0.15765900  1
  O  O2  1  0.65181900  0.75436000  0.91095200  1
  O  O3  1  0.34818100  0.24564000  0.08904800  1
  O  O4  1  0.49299100  0.19520700  0.42684500  1
  O  O5  1  0.92871700  0.22722800  0.75273600  1
  O  O6  1  0.33863900  0.05300200  0.75704700  1
  O  O7  1  0.23191200  0.45151500  0.44253200  1
  O  O8  1  0.66136100  0.94699800  0.24295300  1
  O  O9  1  0.93653200  0.16458000  0.97030800  1
  O  O10  1  0.50700900  0.80479300  0.57315500  1
  O  O11  1  0.07128300  0.77277200  0.24726400  1
  O  O12  1  0.76808800  0.54848500  0.55746800  1
  O  O13  1  0.90106600  0.86273600  0.65858800  1
  O  O14  1  0.09893400  0.13726400  0.34141200  1
  O  O15  1  0.03824600  0.57424700  0.84234100  1
loop_
_geom_bond_atom_site_label_1
_geom_bond_atom_site_label_2
_geom_bond_distance
_geom_bond_site_symmetry_2
Se1 U0 2.660314 1_555
Se3 U1 2.660314 1_555
O0 Se2 1.882747 1_555
O0 U0 2.196773 1_565
O0 O15 2.384889 1_554
O0 U1 2.400312 1_454
O0 O2 2.481137 1_454
O0 O3 2.633872 1_565
O1 Se2 1.980246 1_655
O1 O11 2.195340 1_655
O1 U0 2.361135 1_655
O1 O9 2.384889 1_554
O1 O3 2.968054 1_655
O2 U1 2.245442 1_555
O2 O9 2.633872 1_565
O2 Se3 2.776694 1_555
O3 U0 2.245442 1_555
O3 O9 2.481137 1_454
O3 Se1 2.776694 1_555
O4 Se1 1.835284 1_555
O4 Sr0 2.176504 1_555
O4 Sr1 2.615810 1_545
O4 O8 2.810386 1_545
O5 Se0 1.655072 1_555
O5 Sr0 2.223919 1_555
O5 U1 2.786539 1_545
O5 O6 3.005955 1_655
O6 U1 2.301334 1_445
O6 Se0 2.799112 1_555
O7 Se1 1.666438 1_555
O7 Sr1 2.496357 1_555
O8 U0 2.301334 1_665
O8 Se2 2.799112 1_555
O9 Se0 1.882747 1_555
O9 U1 2.196773 1_545
O9 U0 2.400312 1_656
O10 Se3 1.835284 1_555
O10 Sr1 2.176504 1_555
O10 O13 2.289462 1_555
O10 O7 2.437125 1_555
O10 Sr0 2.615810 1_565
O10 O6 2.810386 1_565
O11 Se2 1.655072 1_555
O11 Sr1 2.223919 1_555
O11 O14 2.412874 1_565
O11 U0 2.786539 1_565
O11 O8 3.005955 1_455
O12 Se3 1.666438 1_555
O12 O13 2.027328 1_555
O12 O4 2.437125 1_555
O12 Sr0 2.496357 1_555
O13 Se3 1.816718 1_555
O13 U1 2.005023 1_555
O13 O5 2.412874 1_565
O13 O6 2.466746 1_665
O14 Se1 1.816718 1_555
O14 U0 2.005023 1_555
O14 O7 2.027328 1_555
O14 O4 2.289462 1_555
O14 O8 2.466746 1_445
O15 Se0 1.980246 1_455
O15 O5 2.195340 1_455
O15 U1 2.361135 1_455
O15 O2 2.968054 1_455
