# generated using pymatgen
data_TbHoAl4
_symmetry_space_group_name_H-M   'P 1'
_cell_length_a   5.53480476
_cell_length_b   5.53480476
_cell_length_c   5.53480834
_cell_angle_alpha   59.99997857
_cell_angle_beta   59.99997857
_cell_angle_gamma   59.99995022
_symmetry_Int_Tables_number   1
_chemical_formula_structural   TbHoAl4
_chemical_formula_sum   'Tb1 Ho1 Al4'
_cell_volume   119.89246671
_cell_formula_units_Z   1
loop_
 _symmetry_equiv_pos_site_id
 _symmetry_equiv_pos_as_xyz
  1  'x, y, z'
loop_
 _atom_site_type_symbol
 _atom_site_label
 _atom_site_symmetry_multiplicity
 _atom_site_fract_x
 _atom_site_fract_y
 _atom_site_fract_z
 _atom_site_occupancy
  Tb  Tb0  1  0.00000452  0.00000452  0.99999548  1
  Ho  Ho0  1  0.24998075  0.24998075  0.25001925  1
  Al  Al0  1  0.62497162  0.62497162  0.12509217  1
  Al  Al1  1  0.62497273  0.12509975  0.62496476  1
  Al  Al2  1  0.12509975  0.62497273  0.62496476  1
  Al  Al3  1  0.62497162  0.62497162  0.62496459  1
loop_
_geom_bond_atom_site_label_1
_geom_bond_atom_site_label_2
_geom_bond_distance
_geom_bond_site_symmetry_2
Ho0 Tb0 3.389256 1_554
Ho0 Tb0 3.389256 1_555
Ho0 Tb0 3.389468 1_654
Ho0 Tb0 3.389468 1_564
Al0 Al2 2.766695 1_555
Al0 Al1 2.766695 1_555
Al0 Al3 2.766698 1_555
Al0 Al2 2.768110 1_654
Al0 Al1 2.768110 1_564
Al0 Al3 2.768110 1_554
Al0 Ho0 3.244937 1_655
Al0 Ho0 3.244937 1_565
Al0 Tb0 3.245138 1_654
Al0 Tb0 3.245138 1_564
Al0 Tb0 3.245150 1_664
Al0 Ho0 3.245153 1_555
Al1 Al3 2.766690 1_555
Al1 Al2 2.766697 1_555
Al1 Al2 2.768103 1_645
Al1 Al3 2.768115 1_545
Al1 Ho0 3.244824 1_655
Al1 Ho0 3.245044 1_556
Al1 Ho0 3.245054 1_555
Al1 Tb0 3.245138 1_655
Al1 Tb0 3.245141 1_555
Al1 Tb0 3.245148 1_654
Al2 Al3 2.766690 1_555
Al2 Al3 2.768115 1_455
Al2 Ho0 3.244824 1_565
Al2 Ho0 3.245044 1_556
Al2 Ho0 3.245054 1_555
Al2 Tb0 3.245138 1_565
Al2 Tb0 3.245141 1_555
Al2 Tb0 3.245148 1_564
Al3 Ho0 3.244937 1_655
Al3 Ho0 3.244937 1_565
Al3 Tb0 3.245138 1_655
Al3 Tb0 3.245138 1_565
Al3 Tb0 3.245150 1_664
Al3 Ho0 3.245153 1_556
