# generated using pymatgen
data_IrF4
_symmetry_space_group_name_H-M   'P 1'
_cell_length_a   5.41363338
_cell_length_b   5.41349019
_cell_length_c   5.63182490
_cell_angle_alpha   105.24487336
_cell_angle_beta   105.24659937
_cell_angle_gamma   116.94301919
_symmetry_Int_Tables_number   1
_chemical_formula_structural   IrF4
_chemical_formula_sum   'Ir2 F8'
_cell_volume   127.17834545
_cell_formula_units_Z   2
loop_
 _symmetry_equiv_pos_site_id
 _symmetry_equiv_pos_as_xyz
  1  'x, y, z'
loop_
 _atom_site_type_symbol
 _atom_site_label
 _atom_site_symmetry_multiplicity
 _atom_site_fract_x
 _atom_site_fract_y
 _atom_site_fract_z
 _atom_site_occupancy
  Ir  Ir0  1  0.74392476  0.24402830  0.50000977  1
  Ir  Ir1  1  0.99404717  0.99399219  0.00004322  1
  F  F0  1  0.97740019  0.72796661  0.16059639  1
  F  F1  1  0.56749777  0.81695858  0.83941925  1
  F  F2  1  0.04498650  0.29377532  0.33788458  1
  F  F3  1  0.95596196  0.70737126  0.66214744  1
  F  F4  1  0.04372998  0.29495734  0.83774402  1
  F  F5  1  0.45742091  0.20593786  0.16205079  1
  F  F6  1  0.56698268  0.81756206  0.33949111  1
  F  F7  1  0.47805207  0.22745248  0.66061442  1
loop_
_geom_bond_atom_site_label_1
_geom_bond_atom_site_label_2
_geom_bond_distance
_geom_bond_site_symmetry_2
F0 Ir1 1.873426 1_555
F0 F5 2.707861 1_665
F0 F3 2.749268 1_554
F0 F2 2.774293 1_665
F0 F4 2.791862 1_654
F1 Ir1 1.873246 1_556
F1 F4 2.706075 1_665
F1 F2 2.748022 1_666
F1 F3 2.773927 1_555
F1 F5 2.790207 1_566
F2 Ir1 2.006126 1_445
F2 Ir0 2.019113 1_455
F2 F6 2.705841 1_445
F2 F7 2.791725 1_555
F2 F3 2.805503 1_455
F2 F4 2.815250 1_555
F2 F4 2.816620 1_554
F3 Ir1 2.005561 1_556
F3 Ir0 2.019418 1_555
F3 F7 2.707176 1_555
F3 F6 2.790701 1_555
F3 F5 2.815121 1_666
F3 F5 2.815586 1_555
F4 Ir0 2.005777 1_455
F4 Ir1 2.019329 1_446
F4 F6 2.747175 1_445
F4 F7 2.773847 1_455
F4 F5 2.805948 1_556
F5 Ir0 2.005486 1_555
F5 Ir1 2.019679 1_445
F5 F7 2.749764 1_555
F5 F6 2.773813 1_545
F6 Ir0 1.872886 1_565
F7 Ir0 1.873024 1_555
