# generated using pymatgen
data_ZnRuN2
_symmetry_space_group_name_H-M   'P 1'
_cell_length_a   5.69018600
_cell_length_b   6.45177700
_cell_length_c   5.37339800
_cell_angle_alpha   90.00000000
_cell_angle_beta   90.00000000
_cell_angle_gamma   90.00000000
_symmetry_Int_Tables_number   1
_chemical_formula_structural   ZnRuN2
_chemical_formula_sum   'Zn4 Ru4 N8'
_cell_volume   197.26717267
_cell_formula_units_Z   4
loop_
 _symmetry_equiv_pos_site_id
 _symmetry_equiv_pos_as_xyz
  1  'x, y, z'
loop_
 _atom_site_type_symbol
 _atom_site_label
 _atom_site_symmetry_multiplicity
 _atom_site_fract_x
 _atom_site_fract_y
 _atom_site_fract_z
 _atom_site_occupancy
  Zn  Zn0  1  0.58213700  0.88030800  0.00187800  1
  Zn  Zn1  1  0.41786300  0.11969200  0.50187800  1
  Zn  Zn2  1  0.91786300  0.38030800  0.50187800  1
  Zn  Zn3  1  0.08213700  0.61969200  0.00187800  1
  Ru  Ru0  1  0.56301700  0.36778000  0.00140200  1
  Ru  Ru1  1  0.43698300  0.63222000  0.50140200  1
  Ru  Ru2  1  0.93698300  0.86778000  0.50140200  1
  Ru  Ru3  1  0.06301700  0.13222000  0.00140200  1
  N  N0  1  0.58124000  0.38045200  0.36178800  1
  N  N1  1  0.41876000  0.61954800  0.86178800  1
  N  N2  1  0.91876000  0.88045200  0.86178800  1
  N  N3  1  0.08124000  0.11954800  0.36178800  1
  N  N4  1  0.61227100  0.86964600  0.38493300  1
  N  N5  1  0.38772900  0.13035400  0.88493300  1
  N  N6  1  0.88772900  0.36964600  0.88493300  1
  N  N7  1  0.11227100  0.63035400  0.38493300  1
loop_
_geom_bond_atom_site_label_1
_geom_bond_atom_site_label_2
_geom_bond_distance
_geom_bond_site_symmetry_2
N0 Ru0 1.940994 1_555
N0 Ru1 1.968530 1_555
N0 Zn2 2.058054 1_555
N0 Zn1 2.064277 1_555
N1 Ru1 1.940994 1_555
N1 Ru0 1.968530 1_556
N1 Zn3 2.058054 1_556
N1 Zn0 2.064277 1_556
N2 Ru2 1.940994 1_555
N2 Ru3 1.968530 1_666
N2 Zn0 2.058054 1_556
N2 Zn3 2.064277 1_656
N3 Ru3 1.940994 1_555
N3 Ru2 1.968530 1_445
N3 Zn1 2.058054 1_555
N3 Zn2 2.064277 1_455
N4 Ru1 1.932095 1_555
N4 Ru2 1.950821 1_555
N4 Zn1 2.054541 1_565
N4 Zn0 2.066582 1_555
N5 Ru0 1.932095 1_556
N5 Ru3 1.950821 1_556
N5 Zn0 2.054541 1_546
N5 Zn1 2.066582 1_555
N6 Ru3 1.932095 1_656
N6 Ru0 1.950821 1_556
N6 Zn3 2.054541 1_656
N6 Zn2 2.066582 1_555
N7 Ru2 1.932095 1_455
N7 Ru1 1.950821 1_555
N7 Zn2 2.054541 1_455
N7 Zn3 2.066582 1_555
