# generated using pymatgen
data_K6Na3Ti2Al2Si8Cl3O26
_symmetry_space_group_name_H-M   'P 1'
_cell_length_a   9.24823000
_cell_length_b   9.77907799
_cell_length_c   9.77897532
_cell_angle_alpha   115.10388712
_cell_angle_beta   98.16754521
_cell_angle_gamma   98.20274984
_symmetry_Int_Tables_number   1
_chemical_formula_structural   K6Na3Ti2Al2Si8Cl3O26
_chemical_formula_sum   'K6 Na3 Ti2 Al2 Si8 Cl3 O26'
_cell_volume   772.15131981
_cell_formula_units_Z   1
loop_
 _symmetry_equiv_pos_site_id
 _symmetry_equiv_pos_as_xyz
  1  'x, y, z'
loop_
 _atom_site_type_symbol
 _atom_site_label
 _atom_site_symmetry_multiplicity
 _atom_site_fract_x
 _atom_site_fract_y
 _atom_site_fract_z
 _atom_site_occupancy
  K  K0  1  0.89282300  0.65099000  0.93393400  1
  K  K1  1  0.89254000  0.93395700  0.65116700  1
  K  K2  1  0.10717700  0.34901000  0.06606600  1
  K  K3  1  0.10746000  0.06604300  0.34883300  1
  K  K4  1  0.63699600  0.89258400  0.90863800  1
  K  K5  1  0.36300400  0.10741600  0.09136200  1
  Na  Na0  1  0.50000400  0.61664600  0.38348400  1
  Na  Na1  1  0.49999600  0.38335400  0.61651600  1
  Na  Na2  1  0.00000000  0.50000000  0.50000000  1
  Ti  Ti0  1  0.50000000  0.50000000  0.00000000  1
  Ti  Ti1  1  0.50000000  0.00000000  0.50000000  1
  Al  Al0  1  0.00003200  0.68404400  0.31601500  1
  Al  Al1  1  0.99996800  0.31595600  0.68398500  1
  Si  Si0  1  0.73577100  0.17669500  0.37258300  1
  Si  Si1  1  0.73592200  0.37254200  0.17660100  1
  Si  Si2  1  0.26422900  0.82330500  0.62741700  1
  Si  Si3  1  0.26407800  0.62745800  0.82339900  1
  Si  Si4  1  0.72311800  0.83842700  0.26461000  1
  Si  Si5  1  0.72301100  0.26429000  0.83841200  1
  Si  Si6  1  0.27688200  0.16157300  0.73539000  1
  Si  Si7  1  0.27698900  0.73571000  0.16158800  1
  Cl  Cl0  1  0.27592700  0.38195300  0.38188500  1
  Cl  Cl1  1  0.72407300  0.61804700  0.61811500  1
  Cl  Cl2  1  0.00000000  0.00000000  0.00000000  1
  O  O0  1  0.64620700  0.70182400  0.09038900  1
  O  O1  1  0.64601800  0.09043000  0.70145100  1
  O  O2  1  0.35379300  0.29817600  0.90961100  1
  O  O3  1  0.35398200  0.90957000  0.29854900  1
  O  O4  1  0.74718400  0.00225100  0.24647200  1
  O  O5  1  0.74714900  0.24657900  0.00233100  1
  O  O6  1  0.25281600  0.99774900  0.75352800  1
  O  O7  1  0.25285100  0.75342100  0.99766900  1
  O  O8  1  0.89037900  0.81834700  0.32435000  1
  O  O9  1  0.89040300  0.32445200  0.81843000  1
  O  O10  1  0.10962100  0.18165300  0.67565000  1
  O  O11  1  0.10959700  0.67554800  0.18157000  1
  O  O12  1  0.89787000  0.26138300  0.49496100  1
  O  O13  1  0.89789100  0.49505400  0.26144100  1
  O  O14  1  0.10213000  0.73861700  0.50503900  1
  O  O15  1  0.10210900  0.50494600  0.73855900  1
  O  O16  1  0.63108700  0.86208100  0.40081200  1
  O  O17  1  0.63108800  0.40082900  0.86219200  1
  O  O18  1  0.36891300  0.13791900  0.59918800  1
  O  O19  1  0.36891200  0.59917100  0.13780800  1
  O  O20  1  0.70290200  0.26896800  0.26896100  1
  O  O21  1  0.29709800  0.73103200  0.73103900  1
  O  O22  1  0.59692500  0.16475200  0.45400000  1
  O  O23  1  0.59686800  0.45382400  0.16473100  1
  O  O24  1  0.40307500  0.83524800  0.54600000  1
  O  O25  1  0.40313200  0.54617600  0.83526900  1
loop_
_geom_bond_atom_site_label_1
_geom_bond_atom_site_label_2
_geom_bond_distance
_geom_bond_site_symmetry_2
K0 O11 2.816166 1_656
K0 O9 2.895696 1_555
K0 O0 2.908516 1_556
K0 O17 2.950843 1_555
K0 O15 2.993397 1_655
K0 O7 3.226003 1_655
K0 O8 3.462416 1_556
K0 K4 3.628396 1_555
K1 O10 2.817583 1_665
K1 O8 2.898637 1_555
K1 O1 2.908036 1_565
K1 O16 2.950812 1_555
K1 O14 2.995922 1_655
K1 O6 3.228339 1_655
K1 O9 3.462499 1_565
K2 O9 2.816166 1_454
K2 O11 2.895696 1_555
K2 O2 2.908516 1_554
K2 O19 2.950843 1_555
K2 O13 2.993397 1_455
K2 O5 3.226003 1_455
K2 O10 3.462416 1_554
K2 K5 3.628396 1_555
K3 O8 2.817583 1_445
K3 O10 2.898637 1_555
K3 O3 2.908036 1_545
K3 O18 2.950812 1_555
K3 O12 2.995922 1_455
K3 O4 3.228339 1_455
K3 O11 3.462499 1_545
K4 O4 2.971210 1_566
K4 O0 3.075997 1_556
K4 O5 3.146130 1_566
K4 O21 3.177577 1_555
K4 O1 3.344151 1_565
K4 O25 3.474791 1_555
K4 O24 3.654738 1_555
K4 K5 3.694265 1_566
K5 O6 2.971210 1_544
K5 O2 3.075997 1_554
K5 O7 3.146130 1_544
K5 O20 3.177577 1_555
K5 O3 3.344151 1_545
K5 O23 3.474791 1_555
K5 O22 3.654738 1_555
Na0 O24 2.442950 1_555
Na0 O23 2.444423 1_555
Na0 O16 2.454634 1_555
Na0 O19 2.456781 1_555
Na1 O22 2.442950 1_555
Na1 O25 2.444423 1_555
Na1 O18 2.454634 1_555
Na1 O17 2.456781 1_555
Na2 O14 2.366400 1_555
Na2 O12 2.366400 1_455
Na2 O15 2.366774 1_555
Na2 O13 2.366774 1_455
Al0 O11 1.752722 1_555
Al0 O8 1.752899 1_455
Al0 O13 1.764782 1_455
Al0 O14 1.765338 1_555
Al1 O9 1.752722 1_555
Al1 O10 1.752899 1_655
Al1 O15 1.764782 1_655
Al1 O12 1.765338 1_555
Cl0 Na0 2.857499 1_555
Cl0 Na1 2.858869 1_555
Cl0 K3 3.116396 1_555
Cl0 K2 3.117743 1_555
Cl0 Na2 3.118542 1_555
Cl0 K5 3.274549 1_555
Cl0 O21 3.616456 1_555
Cl1 Na1 2.857499 1_555
Cl1 Na0 2.858869 1_555
Cl1 K1 3.116396 1_555
Cl1 K0 3.117743 1_555
Cl1 Na2 3.118542 1_655
Cl1 K4 3.274549 1_555
Cl1 O20 3.616456 1_555
Cl2 K3 3.166302 1_555
Cl2 K1 3.166302 1_444
Cl2 K0 3.167038 1_444
Cl2 K2 3.167038 1_555
Cl2 K5 3.243023 1_555
Cl2 K4 3.243023 1_444
Cl2 O4 3.584322 1_455
Cl2 O6 3.584322 1_544
Cl2 O7 3.586183 1_544
Cl2 O5 3.586183 1_455
O0 Si4 1.626785 1_555
O0 Ti0 1.980793 1_555
O1 Si5 1.625690 1_555
O1 Ti1 1.977778 1_555
O2 Si6 1.626785 1_555
O2 Ti0 1.980793 1_556
O3 Si7 1.625690 1_555
O3 Ti1 1.977778 1_565
O4 Si0 1.656917 1_555
O4 Si4 1.672763 1_545
O5 Si1 1.654659 1_555
O5 Si5 1.671599 1_554
O6 Si2 1.656917 1_555
O6 Si6 1.672763 1_565
O7 Si3 1.654659 1_555
O7 Si7 1.671599 1_556
O8 Si4 1.643135 1_555
O9 Si5 1.644527 1_555
O10 Si6 1.643135 1_555
O11 Si7 1.644527 1_555
O12 Si0 1.631079 1_555
O13 Si1 1.630592 1_555
O14 Si2 1.631079 1_555
O15 Si3 1.630592 1_555
O16 Si4 1.633640 1_555
O16 Ti1 1.979961 1_565
O17 Si5 1.635919 1_555
O17 Ti0 1.979166 1_556
O18 Si6 1.633640 1_555
O18 Ti1 1.979961 1_555
O19 Si7 1.635919 1_555
O19 Ti0 1.979166 1_555
O20 Si0 1.643182 1_555
O20 Si1 1.643538 1_555
O21 Si2 1.643182 1_555
O21 Si3 1.643538 1_555
O22 Si0 1.619565 1_555
O22 Ti1 1.979645 1_555
O23 Si1 1.620693 1_555
O23 Ti0 1.980929 1_555
O24 Si2 1.619565 1_555
O24 Ti1 1.979645 1_565
O25 Si3 1.620693 1_555
O25 Ti0 1.980929 1_556
