# generated using pymatgen
data_Nd2PdO4
_symmetry_space_group_name_H-M   'P 1'
_cell_length_a   7.03144254
_cell_length_b   7.03144254
_cell_length_c   7.03144254
_cell_angle_alpha   147.13647134
_cell_angle_beta   147.13647134
_cell_angle_gamma   47.16175653
_symmetry_Int_Tables_number   1
_chemical_formula_structural   Nd2PdO4
_chemical_formula_sum   'Nd2 Pd1 O4'
_cell_volume   101.97829761
_cell_formula_units_Z   1
loop_
 _symmetry_equiv_pos_site_id
 _symmetry_equiv_pos_as_xyz
  1  'x, y, z'
loop_
 _atom_site_type_symbol
 _atom_site_label
 _atom_site_symmetry_multiplicity
 _atom_site_fract_x
 _atom_site_fract_y
 _atom_site_fract_z
 _atom_site_occupancy
  Nd  Nd0  1  0.36280400  0.36280400  0.00000000  1
  Nd  Nd1  1  0.63719600  0.63719600  0.00000000  1
  Pd  Pd0  1  0.00000000  0.00000000  0.00000000  1
  O  O0  1  0.19135200  0.19135200  0.00000000  1
  O  O1  1  0.80864800  0.80864800  0.00000000  1
  O  O2  1  0.50000000  0.00000000  0.50000000  1
  O  O3  1  0.00000000  0.50000000  0.50000000  1
loop_
_geom_bond_atom_site_label_1
_geom_bond_atom_site_label_2
_geom_bond_distance
_geom_bond_site_symmetry_2
Nd0 O0 2.209773 1_555
Nd0 O3 2.661372 1_655
Nd0 O2 2.661372 1_554
Nd0 O3 2.661372 1_554
Nd0 O2 2.661372 1_565
Nd0 O1 2.898188 1_545
Nd0 O1 2.898188 1_455
Nd0 O1 2.898188 1_556
Nd0 O1 2.898188 1_444
Nd1 O1 2.209773 1_555
Nd1 O3 2.661372 1_655
Nd1 O2 2.661372 1_554
Nd1 O3 2.661372 1_554
Nd1 O2 2.661372 1_565
Nd1 O0 2.898188 1_666
Nd1 O0 2.898188 1_554
Nd1 O0 2.898188 1_655
Nd1 O0 2.898188 1_565
O0 Pd0 2.466256 1_555
O1 Pd0 2.466256 1_665
O2 Pd0 1.989007 1_555
O2 Pd0 1.989007 1_656
O3 Pd0 1.989007 1_555
O3 Pd0 1.989007 1_566
