# generated using pymatgen
data_Li9Mn2Co5O16
_symmetry_space_group_name_H-M   'P 1'
_cell_length_a   5.89709300
_cell_length_b   5.90428632
_cell_length_c   8.59039335
_cell_angle_alpha   88.04604625
_cell_angle_beta   70.69488094
_cell_angle_gamma   86.60233124
_symmetry_Int_Tables_number   1
_chemical_formula_structural   Li9Mn2Co5O16
_chemical_formula_sum   'Li9 Mn2 Co5 O16'
_cell_volume   281.75376885
_cell_formula_units_Z   1
loop_
 _symmetry_equiv_pos_site_id
 _symmetry_equiv_pos_as_xyz
  1  'x, y, z'
loop_
 _atom_site_type_symbol
 _atom_site_label
 _atom_site_symmetry_multiplicity
 _atom_site_fract_x
 _atom_site_fract_y
 _atom_site_fract_z
 _atom_site_occupancy
  Li  Li0  1  0.12624600  0.24934300  0.25134500  1
  Li  Li1  1  0.24887600  0.99629500  0.49628600  1
  Li  Li2  1  0.62546600  0.25121600  0.24847600  1
  Li  Li3  1  0.75862700  0.99673100  0.49131200  1
  Li  Li4  1  0.87621700  0.74961500  0.74904800  1
  Li  Li5  1  0.37247900  0.75016500  0.75166100  1
  Li  Li6  1  0.49053700  0.50504100  0.00801800  1
  Li  Li7  1  0.00237400  0.50380600  0.00386400  1
  Li  Li8  1  0.12611300  0.74813100  0.24835200  1
  Mn  Mn0  1  0.00021100  0.99599200  0.00361500  1
  Mn  Mn1  1  0.75413900  0.50515200  0.50016100  1
  Co  Co0  1  0.25313800  0.50274400  0.49511700  1
  Co  Co1  1  0.37369300  0.25024500  0.74993500  1
  Co  Co2  1  0.49348600  0.99291800  0.00262800  1
  Co  Co3  1  0.62615100  0.74997100  0.25094200  1
  Co  Co4  1  0.87466200  0.25014700  0.75011800  1
  O  O0  1  0.88399800  0.00263300  0.23339400  1
  O  O1  1  0.98847600  0.71541900  0.50184200  1
  O  O2  1  0.40307500  0.98474500  0.23440400  1
  O  O3  1  0.51849900  0.74504700  0.49375500  1
  O  O4  1  0.64090400  0.48870000  0.74210700  1
  O  O5  1  0.14729300  0.48329500  0.73394800  1
  O  O6  1  0.24062400  0.22031800  0.99214400  1
  O  O7  1  0.76820900  0.24240200  0.98502900  1
  O  O8  1  0.36837700  0.50143300  0.26672900  1
  O  O9  1  0.50731200  0.28105800  0.51156500  1
  O  O10  1  0.84950100  0.51426500  0.26482300  1
  O  O11  1  0.97884000  0.25550200  0.51104400  1
  O  O12  1  0.10571800  0.01179600  0.75765400  1
  O  O13  1  0.60031800  0.01630100  0.76696500  1
  O  O14  1  0.75861700  0.77723100  0.00632200  1
  O  O15  1  0.23782400  0.76234300  0.99739500  1
loop_
_geom_bond_atom_site_label_1
_geom_bond_atom_site_label_2
_geom_bond_distance
_geom_bond_site_symmetry_2
Li0 O11 2.110329 1_455
Li0 O6 2.112233 1_554
Li0 O0 2.143363 1_455
Li0 O8 2.159105 1_555
Li0 O2 2.164018 1_545
Li0 O10 2.169857 1_455
Li1 O3 2.104497 1_555
Li1 O11 2.117780 1_465
Li1 O12 2.124573 1_565
Li1 O2 2.131443 1_555
Li1 O1 2.314854 1_455
Li1 O9 2.370178 1_565
Li2 O8 2.024545 1_555
Li2 O0 2.027916 1_555
Li2 O10 2.134971 1_555
Li2 O2 2.138281 1_545
Li2 O7 2.139208 1_554
Li2 O9 2.143759 1_555
Li3 O0 2.090809 1_565
Li3 O1 2.099552 1_555
Li3 O3 2.107497 1_555
Li3 O11 2.108998 1_565
Li3 O9 2.144621 1_565
Li3 O13 2.244184 1_565
Li4 O1 2.018054 1_555
Li4 O14 2.095176 1_556
Li4 O12 2.134407 1_665
Li4 O4 2.148654 1_555
Li4 O5 2.150260 1_655
Li4 O13 2.167360 1_565
Li5 O15 1.996770 1_555
Li5 O3 2.095464 1_555
Li5 O12 2.127771 1_565
Li5 O4 2.128072 1_555
Li5 O5 2.160396 1_555
Li5 O13 2.161657 1_565
Li6 O15 2.085491 1_554
Li6 O8 2.097286 1_555
Li6 O7 2.151981 1_554
Li6 O4 2.163132 1_554
Li6 O14 2.316567 1_555
Li6 O6 2.336405 1_554
Li7 O14 2.092879 1_455
Li7 O6 2.103549 1_554
Li7 O15 2.110803 1_554
Li7 O10 2.123329 1_455
Li7 O7 2.175436 1_454
Li7 O5 2.194993 1_554
Li8 O8 2.018507 1_555
Li8 O15 2.035624 1_554
Li8 O0 2.041287 1_465
Li8 O1 2.063785 1_455
Li8 O10 2.165305 1_455
Li8 O2 2.182496 1_555
Mn0 O0 1.864165 1_465
Mn0 O15 1.896257 1_554
Mn0 O14 1.973014 1_455
Mn0 O6 1.973640 1_564
Mn0 O7 1.976515 1_464
Mn0 O12 1.996094 1_564
Mn1 O10 1.910669 1_555
Mn1 O1 1.915440 1_555
Mn1 O3 1.937048 1_555
Mn1 O11 1.943778 1_555
Mn1 O4 1.962496 1_555
Mn1 O9 2.001011 1_555
Co0 O8 1.852012 1_555
Co0 O1 1.931071 1_455
Co0 O5 1.938495 1_555
Co0 O9 1.968430 1_555
Co0 O3 2.178927 1_555
Co0 O11 2.210461 1_455
Co1 O5 1.893492 1_555
Co1 O13 1.900538 1_555
Co1 O9 1.942104 1_555
Co1 O6 1.971800 1_555
Co1 O4 2.157827 1_555
Co1 O12 2.161440 1_555
Co2 O2 1.882940 1_555
Co2 O13 1.913706 1_564
Co2 O14 1.965028 1_555
Co2 O6 1.969150 1_564
Co2 O15 2.102545 1_554
Co2 O7 2.218786 1_564
Co3 O10 1.887071 1_555
Co3 O2 1.888438 1_555
Co3 O3 1.969056 1_555
Co3 O14 1.989572 1_555
Co3 O8 2.144074 1_555
Co3 O0 2.159213 1_565
Co4 O7 1.904707 1_555
Co4 O12 1.914694 1_655
Co4 O4 1.927377 1_555
Co4 O11 1.939047 1_555
Co4 O5 2.144918 1_655
Co4 O13 2.154291 1_555
