# generated using pymatgen
data_Sr2RuN3
_symmetry_space_group_name_H-M   'P 1'
_cell_length_a   6.27995218
_cell_length_b   11.26298486
_cell_length_c   12.54634564
_cell_angle_alpha   89.99999809
_cell_angle_beta   91.88294756
_cell_angle_gamma   153.73298307
_symmetry_Int_Tables_number   1
_chemical_formula_structural   Sr2RuN3
_chemical_formula_sum   'Sr8 Ru4 N12'
_cell_volume   391.64633632
_cell_formula_units_Z   4
loop_
 _symmetry_equiv_pos_site_id
 _symmetry_equiv_pos_as_xyz
  1  'x, y, z'
loop_
 _atom_site_type_symbol
 _atom_site_label
 _atom_site_symmetry_multiplicity
 _atom_site_fract_x
 _atom_site_fract_y
 _atom_site_fract_z
 _atom_site_occupancy
  Sr  Sr0  1  0.44224300  0.01916300  0.85680600  1
  Sr  Sr1  1  0.55775700  0.57692100  0.64319400  1
  Sr  Sr2  1  0.55775700  0.98083700  0.14319400  1
  Sr  Sr3  1  0.44224300  0.42307900  0.35680600  1
  Sr  Sr4  1  0.52590100  0.87011000  0.57423400  1
  Sr  Sr5  1  0.47409900  0.34420900  0.92576600  1
  Sr  Sr6  1  0.47409900  0.12989000  0.42576600  1
  Sr  Sr7  1  0.52590100  0.65579100  0.07423400  1
  Ru  Ru0  1  0.54638900  0.26973400  0.66866900  1
  Ru  Ru1  1  0.45361100  0.72334600  0.83133100  1
  Ru  Ru2  1  0.45361100  0.73026600  0.33133100  1
  Ru  Ru3  1  0.54638900  0.27665400  0.16866900  1
  N  N0  1  0.00000000  0.60732700  0.75000000  1
  N  N1  1  0.00000000  0.39267300  0.25000000  1
  N  N2  1  0.60396000  0.13798300  0.63152100  1
  N  N3  1  0.39604000  0.53402300  0.86847900  1
  N  N4  1  0.39604000  0.86201700  0.36847900  1
  N  N5  1  0.60396000  0.46597700  0.13152100  1
  N  N6  1  0.49889800  0.15501700  0.04423100  1
  N  N7  1  0.50110200  0.65612000  0.45576900  1
  N  N8  1  0.50110200  0.84498300  0.95576900  1
  N  N9  1  0.49889800  0.34388000  0.54423100  1
  N  N10  1  0.00000000  0.99864900  0.75000000  1
  N  N11  1  0.00000000  0.00135100  0.25000000  1
loop_
_geom_bond_atom_site_label_1
_geom_bond_atom_site_label_2
_geom_bond_distance
_geom_bond_site_symmetry_2
N0 Ru1 1.999128 1_555
N0 Ru0 1.999135 1_455
N0 Sr5 2.734571 1_455
N0 Sr4 2.734571 1_555
N0 Sr0 2.770512 1_565
N0 Sr1 2.770521 1_455
N1 Ru3 1.999128 1_455
N1 Ru2 1.999135 1_555
N1 Sr7 2.734571 1_555
N1 Sr6 2.734571 1_455
N1 Sr2 2.770512 1_445
N1 Sr3 2.770521 1_555
N2 Ru0 1.877018 1_555
N2 Sr6 2.658142 1_555
N2 Sr1 2.678325 1_655
N2 Sr4 2.680262 1_545
N2 Sr0 2.926187 1_555
N2 Sr1 2.953271 1_445
N3 Ru1 1.877029 1_555
N3 Sr7 2.658142 1_556
N3 Sr0 2.678327 1_455
N3 Sr5 2.680262 1_555
N3 Sr1 2.926185 1_555
N3 Sr0 2.953272 1_665
N4 Ru2 1.877018 1_555
N4 Sr4 2.658142 1_555
N4 Sr3 2.678325 1_455
N4 Sr6 2.680262 1_565
N4 Sr2 2.926187 1_555
N4 Sr3 2.953271 1_665
N5 Ru3 1.877029 1_555
N5 Sr5 2.658142 1_554
N5 Sr2 2.678327 1_655
N5 Sr7 2.680262 1_555
N5 Sr3 2.926185 1_555
N5 Sr2 2.953272 1_445
N6 Ru3 1.907857 1_555
N6 Sr2 2.607149 1_545
N6 Sr0 2.639327 1_554
N6 Sr5 2.711808 1_554
N6 Sr7 2.761517 1_445
N6 Sr7 2.854746 1_655
N7 Ru2 1.907857 1_555
N7 Sr3 2.607169 1_555
N7 Sr1 2.639327 1_555
N7 Sr4 2.711799 1_555
N7 Sr6 2.761517 1_665
N7 Sr6 2.854746 1_455
N8 Ru1 1.907857 1_555
N8 Sr0 2.607149 1_565
N8 Sr2 2.639327 1_556
N8 Sr7 2.711808 1_556
N8 Sr5 2.761517 1_665
N8 Sr5 2.854746 1_455
N9 Ru0 1.907857 1_555
N9 Sr1 2.607169 1_555
N9 Sr3 2.639327 1_555
N9 Sr6 2.711799 1_555
N9 Sr4 2.761517 1_445
N9 Sr4 2.854746 1_655
N10 Ru1 1.891518 1_455
N10 Ru0 1.891518 1_565
N10 Sr5 2.767911 1_565
N10 Sr4 2.767911 1_455
N10 Sr1 2.857758 1_455
N10 Sr0 2.857767 1_565
N11 Ru3 1.891518 1_555
N11 Ru2 1.891518 1_445
N11 Sr7 2.767911 1_445
N11 Sr6 2.767911 1_555
N11 Sr3 2.857758 1_555
N11 Sr2 2.857767 1_445
