# generated using pymatgen
data_Sc6Al16Rh7
_symmetry_space_group_name_H-M   'P 1'
_cell_length_a   8.76210095
_cell_length_b   8.76210095
_cell_length_c   8.76210095
_cell_angle_alpha   60.00000000
_cell_angle_beta   60.00000000
_cell_angle_gamma   60.00000000
_symmetry_Int_Tables_number   1
_chemical_formula_structural   Sc6Al16Rh7
_chemical_formula_sum   'Sc6 Al16 Rh7'
_cell_volume   475.67437886
_cell_formula_units_Z   1
loop_
 _symmetry_equiv_pos_site_id
 _symmetry_equiv_pos_as_xyz
  1  'x, y, z'
loop_
 _atom_site_type_symbol
 _atom_site_label
 _atom_site_symmetry_multiplicity
 _atom_site_fract_x
 _atom_site_fract_y
 _atom_site_fract_z
 _atom_site_occupancy
  Sc  Sc0  1  0.70447100  0.29552900  0.29552900  1
  Sc  Sc1  1  0.70447100  0.29552900  0.70447100  1
  Sc  Sc2  1  0.70447100  0.70447100  0.29552900  1
  Sc  Sc3  1  0.29552900  0.70447100  0.70447100  1
  Sc  Sc4  1  0.29552900  0.70447100  0.29552900  1
  Sc  Sc5  1  0.29552900  0.29552900  0.70447100  1
  Al  Al0  1  0.64210000  0.11930000  0.11930000  1
  Al  Al1  1  0.11930000  0.64210000  0.11930000  1
  Al  Al2  1  0.11930000  0.11930000  0.64210000  1
  Al  Al3  1  0.11930000  0.11930000  0.11930000  1
  Al  Al4  1  0.35790000  0.88070000  0.88070000  1
  Al  Al5  1  0.88070000  0.35790000  0.88070000  1
  Al  Al6  1  0.88070000  0.88070000  0.35790000  1
  Al  Al7  1  0.88070000  0.88070000  0.88070000  1
  Al  Al8  1  0.00197800  0.33267400  0.33267400  1
  Al  Al9  1  0.33267400  0.00197800  0.33267400  1
  Al  Al10  1  0.33267400  0.33267400  0.00197800  1
  Al  Al11  1  0.33267400  0.33267400  0.33267400  1
  Al  Al12  1  0.99802200  0.66732600  0.66732600  1
  Al  Al13  1  0.66732600  0.99802200  0.66732600  1
  Al  Al14  1  0.66732600  0.66732600  0.99802200  1
  Al  Al15  1  0.66732600  0.66732600  0.66732600  1
  Rh  Rh0  1  0.00000000  0.00000000  0.00000000  1
  Rh  Rh1  1  0.50000000  0.00000000  0.00000000  1
  Rh  Rh2  1  0.50000000  0.00000000  0.50000000  1
  Rh  Rh3  1  0.50000000  0.50000000  0.00000000  1
  Rh  Rh4  1  0.00000000  0.50000000  0.50000000  1
  Rh  Rh5  1  0.00000000  0.50000000  0.00000000  1
  Rh  Rh6  1  0.00000000  0.00000000  0.50000000  1
loop_
_geom_bond_atom_site_label_1
_geom_bond_atom_site_label_2
_geom_bond_distance
_geom_bond_site_symmetry_2
Sc0 Sc2 3.583191 1_555
Sc0 Sc4 3.583191 1_555
Sc0 Sc1 3.583191 1_555
Sc0 Sc5 3.583191 1_555
Sc1 Sc2 3.583191 1_555
Sc1 Sc5 3.583191 1_555
Sc1 Sc3 3.583191 1_555
Sc2 Sc4 3.583191 1_555
Sc2 Sc3 3.583191 1_555
Sc3 Sc4 3.583191 1_555
Sc3 Sc5 3.583191 1_555
Sc4 Sc5 3.583191 1_555
Al0 Rh0 2.560497 1_655
Al0 Rh1 2.726055 1_555
Al0 Rh2 2.726055 1_555
Al0 Rh3 2.726055 1_555
Al0 Al11 2.774736 1_555
Al0 Al10 2.774736 1_555
Al0 Al9 2.774736 1_555
Al0 Al5 2.956608 1_554
Al0 Al7 2.956608 1_544
Al0 Al6 2.956608 1_545
Al0 Sc0 3.023157 1_555
Al0 Sc2 3.023157 1_545
Al0 Sc1 3.023157 1_554
Al1 Rh0 2.560497 1_565
Al1 Rh4 2.726055 1_555
Al1 Rh3 2.726055 1_555
Al1 Rh5 2.726055 1_555
Al1 Al11 2.774736 1_555
Al1 Al10 2.774736 1_555
Al1 Al8 2.774736 1_555
Al1 Al6 2.956608 1_455
Al1 Al7 2.956608 1_454
Al1 Al4 2.956608 1_554
Al1 Sc4 3.023157 1_555
Al1 Sc2 3.023157 1_455
Al1 Sc3 3.023157 1_554
Al2 Rh0 2.560497 1_556
Al2 Rh4 2.726055 1_555
Al2 Rh2 2.726055 1_555
Al2 Rh6 2.726055 1_555
Al2 Al9 2.774736 1_555
Al2 Al8 2.774736 1_555
Al2 Al7 2.956608 1_445
Al2 Al4 2.956608 1_545
Al2 Al5 2.956608 1_455
Al2 Sc5 3.023157 1_555
Al2 Sc1 3.023157 1_455
Al2 Sc3 3.023157 1_545
Al3 Rh0 2.560497 1_555
Al3 Rh1 2.726055 1_555
Al3 Rh6 2.726055 1_555
Al3 Rh5 2.726055 1_555
Al3 Al9 2.774736 1_555
Al3 Al8 2.774736 1_555
Al3 Al5 2.956608 1_454
Al3 Al6 2.956608 1_445
Al3 Al4 2.956608 1_544
Al3 Sc4 3.023157 1_545
Al3 Sc0 3.023157 1_455
Al3 Sc5 3.023157 1_554
Al4 Rh0 2.560497 1_566
Al4 Rh1 2.726055 1_566
Al4 Rh3 2.726055 1_556
Al4 Rh2 2.726055 1_565
Al4 Sc5 3.023157 1_565
Al4 Sc4 3.023157 1_556
Al4 Sc3 3.023157 1_555
Al5 Rh0 2.560497 1_656
Al5 Rh5 2.726055 1_656
Al5 Rh4 2.726055 1_655
Al5 Rh3 2.726055 1_556
Al5 Sc5 3.023157 1_655
Al5 Sc0 3.023157 1_556
Al5 Sc1 3.023157 1_555
Al6 Rh0 2.560497 1_665
Al6 Rh6 2.726055 1_665
Al6 Rh4 2.726055 1_655
Al6 Rh2 2.726055 1_565
Al6 Sc4 3.023157 1_655
Al6 Sc0 3.023157 1_565
Al6 Sc2 3.023157 1_555
Al7 Rh0 2.560497 1_666
Al7 Rh6 2.726055 1_665
Al7 Rh1 2.726055 1_566
Al7 Rh5 2.726055 1_656
Al7 Sc2 3.023157 1_556
Al7 Sc1 3.023157 1_565
Al7 Sc3 3.023157 1_655
Al8 Rh5 2.529440 1_555
Al8 Rh6 2.529440 1_555
Al8 Rh4 2.529440 1_555
Al8 Al9 2.897592 1_555
Al8 Sc0 2.968160 1_455
Al8 Sc1 2.968160 1_455
Al8 Sc2 2.968160 1_455
Al9 Rh1 2.529440 1_555
Al9 Rh6 2.529440 1_555
Al9 Rh2 2.529440 1_555
Al9 Sc4 2.968160 1_545
Al9 Sc2 2.968160 1_545
Al9 Sc3 2.968160 1_545
Al10 Rh1 2.529440 1_555
Al10 Rh5 2.529440 1_555
Al10 Rh3 2.529440 1_555
Al10 Al3 2.774736 1_555
Al10 Al9 2.897592 1_555
Al10 Al8 2.897592 1_555
Al10 Al11 2.897592 1_555
Al10 Sc5 2.968160 1_554
Al10 Sc3 2.968160 1_554
Al10 Sc1 2.968160 1_554
Al11 Rh2 2.529440 1_555
Al11 Rh3 2.529440 1_555
Al11 Rh4 2.529440 1_555
Al11 Al2 2.774736 1_555
Al11 Al9 2.897592 1_555
Al11 Al8 2.897592 1_555
Al11 Sc5 2.968160 1_555
Al11 Sc0 2.968160 1_555
Al11 Sc4 2.968160 1_555
Al12 Rh4 2.529440 1_655
Al12 Rh5 2.529440 1_656
Al12 Rh6 2.529440 1_665
Al12 Al5 2.774736 1_555
Al12 Al6 2.774736 1_555
Al12 Al7 2.774736 1_555
Al12 Al15 2.897592 1_555
Al12 Al14 2.897592 1_555
Al12 Al13 2.897592 1_555
Al12 Sc4 2.968160 1_655
Al12 Sc5 2.968160 1_655
Al12 Sc3 2.968160 1_655
Al13 Rh2 2.529440 1_565
Al13 Rh1 2.529440 1_566
Al13 Rh6 2.529440 1_665
Al13 Al4 2.774736 1_555
Al13 Al6 2.774736 1_555
Al13 Al7 2.774736 1_555
Al13 Al15 2.897592 1_555
Al13 Al14 2.897592 1_555
Al13 Sc1 2.968160 1_565
Al13 Sc5 2.968160 1_565
Al13 Sc0 2.968160 1_565
Al14 Rh3 2.529440 1_556
Al14 Rh1 2.529440 1_566
Al14 Rh5 2.529440 1_656
Al14 Al4 2.774736 1_555
Al14 Al5 2.774736 1_555
Al14 Al7 2.774736 1_555
Al14 Al15 2.897592 1_555
Al14 Sc4 2.968160 1_556
Al14 Sc2 2.968160 1_556
Al14 Sc0 2.968160 1_556
Al15 Rh4 2.529440 1_655
Al15 Rh3 2.529440 1_556
Al15 Rh2 2.529440 1_565
Al15 Al6 2.774736 1_555
Al15 Al4 2.774736 1_555
Al15 Al5 2.774736 1_555
Al15 Sc1 2.968160 1_555
Al15 Sc3 2.968160 1_555
Al15 Sc2 2.968160 1_555
Rh1 Sc2 3.148824 1_545
Rh1 Sc1 3.148824 1_554
Rh1 Sc5 3.148824 1_554
Rh1 Sc4 3.148824 1_545
Rh2 Sc5 3.148824 1_555
Rh2 Sc0 3.148824 1_555
Rh2 Sc2 3.148824 1_545
Rh2 Sc3 3.148824 1_545
Rh3 Sc0 3.148824 1_555
Rh3 Sc4 3.148824 1_555
Rh3 Sc1 3.148824 1_554
Rh3 Sc3 3.148824 1_554
Rh4 Sc5 3.148824 1_555
Rh4 Sc4 3.148824 1_555
Rh4 Sc2 3.148824 1_455
Rh4 Sc1 3.148824 1_455
Rh5 Sc2 3.148824 1_455
Rh5 Sc3 3.148824 1_554
Rh5 Sc5 3.148824 1_554
Rh5 Sc0 3.148824 1_455
Rh6 Sc3 3.148824 1_545
Rh6 Sc1 3.148824 1_455
Rh6 Sc0 3.148824 1_455
Rh6 Sc4 3.148824 1_545
