# generated using pymatgen
data_Ca(CrN)2
_symmetry_space_group_name_H-M   'P 1'
_cell_length_a   6.40973400
_cell_length_b   6.40973400
_cell_length_c   14.52586200
_cell_angle_alpha   90.00000000
_cell_angle_beta   90.00000000
_cell_angle_gamma   90.00000000
_symmetry_Int_Tables_number   1
_chemical_formula_structural   Ca(CrN)2
_chemical_formula_sum   'Ca8 Cr16 N16'
_cell_volume   596.79053654
_cell_formula_units_Z   8
loop_
 _symmetry_equiv_pos_site_id
 _symmetry_equiv_pos_as_xyz
  1  'x, y, z'
loop_
 _atom_site_type_symbol
 _atom_site_label
 _atom_site_symmetry_multiplicity
 _atom_site_fract_x
 _atom_site_fract_y
 _atom_site_fract_z
 _atom_site_occupancy
  Ca  Ca0_0  1  0.25000000  0.25000000  0.00000000  1
  Ca  Ca0_1  1  0.25000000  0.25000000  0.50000000  1
  Ca  Ca0_2  1  0.25000000  0.75000000  0.00000000  1
  Ca  Ca0_3  1  0.25000000  0.75000000  0.50000000  1
  Ca  Ca0_4  1  0.75000000  0.25000000  0.00000000  1
  Ca  Ca0_5  1  0.75000000  0.25000000  0.50000000  1
  Ca  Ca0_6  1  0.75000000  0.75000000  0.00000000  1
  Ca  Ca0_7  1  0.75000000  0.75000000  0.50000000  1
  Cr  Cr0_0  1  0.00000000  0.00000000  0.32730750  1
  Cr  Cr0_1  1  0.00000000  0.00000000  0.82730750  1
  Cr  Cr0_2  1  0.00000000  0.50000000  0.32730750  1
  Cr  Cr0_3  1  0.00000000  0.50000000  0.82730750  1
  Cr  Cr0_4  1  0.50000000  0.00000000  0.32730750  1
  Cr  Cr0_5  1  0.50000000  0.00000000  0.82730750  1
  Cr  Cr0_6  1  0.50000000  0.50000000  0.32730750  1
  Cr  Cr0_7  1  0.50000000  0.50000000  0.82730750  1
  Cr  Cr1_0  1  0.00000000  0.00000000  0.17269250  1
  Cr  Cr1_1  1  0.00000000  0.00000000  0.67269250  1
  Cr  Cr1_2  1  0.00000000  0.50000000  0.17269250  1
  Cr  Cr1_3  1  0.00000000  0.50000000  0.67269250  1
  Cr  Cr1_4  1  0.50000000  0.00000000  0.17269250  1
  Cr  Cr1_5  1  0.50000000  0.00000000  0.67269250  1
  Cr  Cr1_6  1  0.50000000  0.50000000  0.17269250  1
  Cr  Cr1_7  1  0.50000000  0.50000000  0.67269250  1
  N  N0_0  1  0.00000000  0.25000000  0.11486600  1
  N  N0_1  1  0.00000000  0.25000000  0.61486600  1
  N  N0_2  1  0.00000000  0.75000000  0.11486600  1
  N  N0_3  1  0.00000000  0.75000000  0.61486600  1
  N  N0_4  1  0.50000000  0.25000000  0.11486600  1
  N  N0_5  1  0.50000000  0.25000000  0.61486600  1
  N  N0_6  1  0.50000000  0.75000000  0.11486600  1
  N  N0_7  1  0.50000000  0.75000000  0.61486600  1
  N  N1_0  1  0.25000000  0.00000000  0.38513400  1
  N  N1_1  1  0.25000000  0.00000000  0.88513400  1
  N  N1_2  1  0.25000000  0.50000000  0.38513400  1
  N  N1_3  1  0.25000000  0.50000000  0.88513400  1
  N  N1_4  1  0.75000000  0.00000000  0.38513400  1
  N  N1_5  1  0.75000000  0.00000000  0.88513400  1
  N  N1_6  1  0.75000000  0.50000000  0.38513400  1
  N  N1_7  1  0.75000000  0.50000000  0.88513400  1
loop_
_geom_bond_atom_site_label_1
_geom_bond_atom_site_label_2
_geom_bond_distance
_geom_bond_site_symmetry_2
Ca0_0 N1_3 2.313391 1_554
Ca0_0 N0_0 2.313391 1_555
Ca0_0 N1_1 2.313391 1_554
Ca0_0 N0_4 2.313391 1_555
Ca0_0 Ca0_2 3.204867 1_555
Ca0_0 Ca0_2 3.204867 1_545
Ca0_0 Ca0_4 3.204867 1_455
Ca0_0 Ca0_4 3.204867 1_555
Ca0_1 N1_2 2.313391 1_555
Ca0_1 N1_0 2.313391 1_555
Ca0_1 N0_1 2.313391 1_555
Ca0_1 N0_5 2.313391 1_555
Ca0_1 Ca0_5 3.204867 1_555
Ca0_1 Ca0_3 3.204867 1_555
Ca0_1 Ca0_3 3.204867 1_545
Ca0_1 Ca0_5 3.204867 1_455
Ca0_2 N1_3 2.313391 1_554
Ca0_2 N1_1 2.313391 1_564
Ca0_2 N0_6 2.313391 1_555
Ca0_2 N0_2 2.313391 1_555
Ca0_2 Ca0_6 3.204867 1_455
Ca0_2 Ca0_6 3.204867 1_555
Ca0_3 N1_2 2.313391 1_555
Ca0_3 N1_0 2.313391 1_565
Ca0_3 N0_7 2.313391 1_555
Ca0_3 N0_3 2.313391 1_555
Ca0_3 Ca0_7 3.204867 1_455
Ca0_3 Ca0_7 3.204867 1_555
Ca0_4 N0_0 2.313391 1_655
Ca0_4 N1_7 2.313391 1_554
Ca0_4 N1_5 2.313391 1_554
Ca0_4 N0_4 2.313391 1_555
Ca0_4 Ca0_6 3.204867 1_555
Ca0_4 Ca0_6 3.204867 1_545
Ca0_5 N1_4 2.313391 1_555
Ca0_5 N1_6 2.313391 1_555
Ca0_5 N0_1 2.313391 1_655
Ca0_5 N0_5 2.313391 1_555
Ca0_5 Ca0_7 3.204867 1_555
Ca0_5 Ca0_7 3.204867 1_545
Ca0_6 N0_6 2.313391 1_555
Ca0_6 N1_7 2.313391 1_554
Ca0_6 N1_5 2.313391 1_564
Ca0_6 N0_2 2.313391 1_655
Ca0_7 N1_4 2.313391 1_565
Ca0_7 N1_6 2.313391 1_555
Ca0_7 N0_7 2.313391 1_555
Ca0_7 N0_3 2.313391 1_655
Cr0_0 N1_0 1.809243 1_555
Cr0_0 N1_4 1.809243 1_455
Cr0_0 Cr1_0 2.245916 1_555
Cr0_1 N1_5 1.809243 1_455
Cr0_1 N1_1 1.809243 1_555
Cr0_1 Cr1_1 2.245916 1_555
Cr0_2 N1_2 1.809243 1_555
Cr0_2 N1_6 1.809243 1_455
Cr0_2 Cr1_2 2.245916 1_555
Cr0_3 N1_7 1.809243 1_455
Cr0_3 N1_3 1.809243 1_555
Cr0_3 Cr1_3 2.245916 1_555
Cr0_4 N1_4 1.809243 1_555
Cr0_4 N1_0 1.809243 1_555
Cr0_4 Cr1_4 2.245916 1_555
Cr0_5 N1_1 1.809243 1_555
Cr0_5 N1_5 1.809243 1_555
Cr0_5 Cr1_5 2.245916 1_555
Cr0_6 N1_2 1.809243 1_555
Cr0_6 N1_6 1.809243 1_555
Cr0_6 Cr1_6 2.245916 1_555
Cr0_7 N1_7 1.809243 1_555
Cr0_7 N1_3 1.809243 1_555
Cr0_7 Cr1_7 2.245916 1_555
Cr1_0 N0_0 1.809243 1_555
Cr1_0 N0_2 1.809243 1_545
Cr1_1 N0_3 1.809243 1_545
Cr1_1 N0_1 1.809243 1_555
Cr1_2 N0_2 1.809243 1_555
Cr1_2 N0_0 1.809243 1_555
Cr1_3 N0_3 1.809243 1_555
Cr1_3 N0_1 1.809243 1_555
Cr1_4 N0_6 1.809243 1_545
Cr1_4 N0_4 1.809243 1_555
Cr1_5 N0_5 1.809243 1_555
Cr1_5 N0_7 1.809243 1_545
Cr1_6 N0_6 1.809243 1_555
Cr1_6 N0_4 1.809243 1_555
Cr1_7 N0_7 1.809243 1_555
Cr1_7 N0_5 1.809243 1_555
