# generated using pymatgen
data_MgCd3
_symmetry_space_group_name_H-M   'P 1'
_cell_length_a   6.26915990
_cell_length_b   6.26915990
_cell_length_c   20.07681892
_cell_angle_alpha   90.00000000
_cell_angle_beta   90.00000000
_cell_angle_gamma   119.99998629
_symmetry_Int_Tables_number   1
_chemical_formula_structural   MgCd3
_chemical_formula_sum   'Mg8 Cd24'
_cell_volume   683.35171363
_cell_formula_units_Z   8
loop_
 _symmetry_equiv_pos_site_id
 _symmetry_equiv_pos_as_xyz
  1  'x, y, z'
loop_
 _atom_site_type_symbol
 _atom_site_label
 _atom_site_symmetry_multiplicity
 _atom_site_fract_x
 _atom_site_fract_y
 _atom_site_fract_z
 _atom_site_occupancy
  Mg  Mg0_0  1  0.00000000  0.00000000  0.25000000  1
  Mg  Mg0_1  1  0.00000000  0.00000000  0.75000000  1
  Mg  Mg0_2  1  1.00000000  0.50000000  0.25000000  1
  Mg  Mg0_3  1  1.00000000  0.50000000  0.75000000  1
  Mg  Mg0_4  1  0.50000000  0.00000000  0.25000000  1
  Mg  Mg0_5  1  0.50000000  0.00000000  0.75000000  1
  Mg  Mg0_6  1  0.50000000  0.50000000  0.25000000  1
  Mg  Mg0_7  1  0.50000000  0.50000000  0.75000000  1
  Cd  Cd0_0  1  0.00000000  0.00000000  0.00000000  1
  Cd  Cd0_1  1  0.00000000  0.00000000  0.50000000  1
  Cd  Cd0_2  1  1.00000000  0.50000000  0.00000000  1
  Cd  Cd0_3  1  1.00000000  0.50000000  0.50000000  1
  Cd  Cd0_4  1  0.50000000  0.00000000  0.00000000  1
  Cd  Cd0_5  1  0.50000000  0.00000000  0.50000000  1
  Cd  Cd0_6  1  0.50000000  0.50000000  0.00000000  1
  Cd  Cd0_7  1  0.50000000  0.50000000  0.50000000  1
  Cd  Cd1_0  1  0.33333350  0.16666650  0.37389323  1
  Cd  Cd1_1  1  0.33333350  0.16666650  0.87389323  1
  Cd  Cd1_2  1  0.33333350  0.66666650  0.37389323  1
  Cd  Cd1_3  1  0.33333350  0.66666650  0.87389323  1
  Cd  Cd1_4  1  0.83333350  0.16666650  0.37389323  1
  Cd  Cd1_5  1  0.83333350  0.16666650  0.87389323  1
  Cd  Cd1_6  1  0.83333350  0.66666650  0.37389323  1
  Cd  Cd1_7  1  0.83333350  0.66666650  0.87389323  1
  Cd  Cd2_0  1  0.33333350  0.16666650  0.12610677  1
  Cd  Cd2_1  1  0.33333350  0.16666650  0.62610677  1
  Cd  Cd2_2  1  0.33333350  0.66666650  0.12610677  1
  Cd  Cd2_3  1  0.33333350  0.66666650  0.62610677  1
  Cd  Cd2_4  1  0.83333350  0.16666650  0.12610677  1
  Cd  Cd2_5  1  0.83333350  0.16666650  0.62610677  1
  Cd  Cd2_6  1  0.83333350  0.66666650  0.12610677  1
  Cd  Cd2_7  1  0.83333350  0.66666650  0.62610677  1
loop_
_geom_bond_atom_site_label_1
_geom_bond_atom_site_label_2
_geom_bond_distance
_geom_bond_site_symmetry_2
Mg0_0 Mg0_4 3.134580 1_555
Mg0_0 Mg0_2 3.134580 1_455
Mg0_0 Mg0_2 3.134580 1_445
Mg0_0 Mg0_4 3.134580 1_455
Mg0_0 Mg0_6 3.134581 1_555
Mg0_0 Mg0_6 3.134581 1_445
Mg0_1 Mg0_5 3.134580 1_555
Mg0_1 Mg0_3 3.134580 1_445
Mg0_1 Mg0_5 3.134580 1_455
Mg0_1 Mg0_3 3.134580 1_455
Mg0_1 Mg0_7 3.134581 1_555
Mg0_1 Mg0_7 3.134581 1_445
Mg0_2 Mg0_6 3.134580 1_555
Mg0_2 Mg0_6 3.134580 1_655
Mg0_2 Mg0_4 3.134581 1_555
Mg0_2 Mg0_4 3.134581 1_665
Mg0_3 Mg0_7 3.134580 1_555
Mg0_3 Mg0_7 3.134580 1_655
Mg0_3 Mg0_5 3.134581 1_555
Mg0_3 Mg0_5 3.134581 1_665
Mg0_4 Mg0_6 3.134580 1_545
Mg0_4 Mg0_6 3.134580 1_555
Mg0_5 Mg0_7 3.134580 1_545
Mg0_5 Mg0_7 3.134580 1_555
Cd0_0 Cd1_5 3.112124 1_454
Cd0_0 Cd2_4 3.112124 1_455
Cd0_0 Cd2_6 3.112126 1_445
Cd0_0 Cd2_0 3.112126 1_555
Cd0_0 Cd1_1 3.112126 1_554
Cd0_0 Cd1_7 3.112126 1_444
Cd0_0 Cd0_4 3.134580 1_555
Cd0_0 Cd0_2 3.134580 1_445
Cd0_0 Cd0_4 3.134580 1_455
Cd0_0 Cd0_2 3.134580 1_455
Cd0_0 Cd0_6 3.134581 1_555
Cd0_0 Cd0_6 3.134581 1_445
Cd0_1 Cd2_5 3.112124 1_455
Cd0_1 Cd1_4 3.112124 1_455
Cd0_1 Cd2_1 3.112126 1_555
Cd0_1 Cd2_7 3.112126 1_445
Cd0_1 Cd1_6 3.112126 1_445
Cd0_1 Cd1_0 3.112126 1_555
Cd0_1 Cd0_5 3.134580 1_555
Cd0_1 Cd0_3 3.134580 1_455
Cd0_1 Cd0_5 3.134580 1_455
Cd0_1 Cd0_3 3.134580 1_445
Cd0_1 Cd0_7 3.134581 1_555
Cd0_1 Cd0_7 3.134581 1_445
Cd0_2 Cd2_6 3.112124 1_555
Cd0_2 Cd1_7 3.112124 1_554
Cd0_2 Cd2_4 3.112126 1_555
Cd0_2 Cd1_5 3.112126 1_554
Cd0_2 Cd2_2 3.112126 1_655
Cd0_2 Cd1_3 3.112126 1_654
Cd0_2 Cd0_6 3.134580 1_555
Cd0_2 Cd0_6 3.134580 1_655
Cd0_2 Cd0_4 3.134581 1_555
Cd0_2 Cd0_4 3.134581 1_665
Cd0_3 Cd2_7 3.112124 1_555
Cd0_3 Cd1_6 3.112124 1_555
Cd0_3 Cd2_5 3.112126 1_555
Cd0_3 Cd2_3 3.112126 1_655
Cd0_3 Cd1_2 3.112126 1_655
Cd0_3 Cd1_4 3.112126 1_555
Cd0_3 Cd0_7 3.134580 1_555
Cd0_3 Cd0_7 3.134580 1_655
Cd0_3 Cd0_5 3.134581 1_555
Cd0_3 Cd0_5 3.134581 1_665
Cd0_4 Cd2_0 3.112124 1_555
Cd0_4 Cd1_1 3.112124 1_554
Cd0_4 Cd2_2 3.112126 1_545
Cd0_4 Cd2_4 3.112126 1_555
Cd0_4 Cd1_5 3.112126 1_554
Cd0_4 Cd1_3 3.112126 1_544
Cd0_4 Cd0_6 3.134580 1_545
Cd0_4 Cd0_6 3.134580 1_555
Cd0_5 Cd2_1 3.112124 1_555
Cd0_5 Cd1_0 3.112124 1_555
Cd0_5 Cd2_3 3.112126 1_545
Cd0_5 Cd2_5 3.112126 1_555
Cd0_5 Cd1_2 3.112126 1_545
Cd0_5 Cd1_4 3.112126 1_555
Cd0_5 Cd0_7 3.134580 1_545
Cd0_5 Cd0_7 3.134580 1_555
Cd0_6 Cd1_3 3.112124 1_554
Cd0_6 Cd2_2 3.112124 1_555
Cd0_6 Cd2_6 3.112126 1_555
Cd0_6 Cd2_0 3.112126 1_555
Cd0_6 Cd1_7 3.112126 1_554
Cd0_6 Cd1_1 3.112126 1_554
Cd0_7 Cd2_3 3.112124 1_555
Cd0_7 Cd1_2 3.112124 1_555
Cd0_7 Cd2_7 3.112126 1_555
Cd0_7 Cd2_1 3.112126 1_555
Cd0_7 Cd1_6 3.112126 1_555
Cd0_7 Cd1_0 3.112126 1_555
Cd1_0 Mg0_4 3.076079 1_555
Cd1_0 Mg0_6 3.076080 1_555
Cd1_0 Mg0_0 3.076080 1_555
Cd1_0 Cd1_2 3.134580 1_545
Cd1_0 Cd1_4 3.134580 1_555
Cd1_0 Cd1_4 3.134580 1_455
Cd1_0 Cd1_2 3.134580 1_555
Cd1_0 Cd1_6 3.134581 1_555
Cd1_0 Cd1_6 3.134581 1_445
Cd1_1 Mg0_5 3.076079 1_555
Cd1_1 Mg0_7 3.076080 1_555
Cd1_1 Mg0_1 3.076080 1_555
Cd1_1 Cd1_3 3.134580 1_545
Cd1_1 Cd1_5 3.134580 1_455
Cd1_1 Cd1_5 3.134580 1_555
Cd1_1 Cd1_3 3.134580 1_555
Cd1_1 Cd1_7 3.134581 1_555
Cd1_1 Cd1_7 3.134581 1_445
Cd1_2 Mg0_6 3.076079 1_555
Cd1_2 Mg0_4 3.076080 1_565
Cd1_2 Mg0_2 3.076080 1_455
Cd1_2 Cd1_6 3.134580 1_555
Cd1_2 Cd1_6 3.134580 1_455
Cd1_2 Cd1_4 3.134581 1_455
Cd1_2 Cd1_4 3.134581 1_565
Cd1_3 Mg0_7 3.076079 1_555
Cd1_3 Mg0_5 3.076080 1_565
Cd1_3 Mg0_3 3.076080 1_455
Cd1_3 Cd1_7 3.134580 1_555
Cd1_3 Cd1_7 3.134580 1_455
Cd1_3 Cd1_5 3.134581 1_455
Cd1_3 Cd1_5 3.134581 1_565
Cd1_4 Mg0_0 3.076079 1_655
Cd1_4 Mg0_4 3.076080 1_555
Cd1_4 Mg0_2 3.076080 1_555
Cd1_4 Cd1_6 3.134580 1_545
Cd1_4 Cd1_6 3.134580 1_555
Cd1_5 Mg0_1 3.076079 1_655
Cd1_5 Mg0_3 3.076080 1_555
Cd1_5 Mg0_5 3.076080 1_555
Cd1_5 Cd1_7 3.134580 1_545
Cd1_5 Cd1_7 3.134580 1_555
Cd1_6 Mg0_2 3.076079 1_555
Cd1_6 Mg0_6 3.076080 1_555
Cd1_6 Mg0_0 3.076080 1_665
Cd1_7 Mg0_3 3.076079 1_555
Cd1_7 Mg0_7 3.076080 1_555
Cd1_7 Mg0_1 3.076080 1_665
Cd2_0 Mg0_4 3.076079 1_555
Cd2_0 Mg0_0 3.076080 1_555
Cd2_0 Mg0_6 3.076080 1_555
Cd2_0 Cd2_2 3.134580 1_545
Cd2_0 Cd2_4 3.134580 1_455
Cd2_0 Cd2_4 3.134580 1_555
Cd2_0 Cd2_2 3.134580 1_555
Cd2_0 Cd2_6 3.134581 1_555
Cd2_0 Cd2_6 3.134581 1_445
Cd2_1 Mg0_5 3.076079 1_555
Cd2_1 Mg0_1 3.076080 1_555
Cd2_1 Mg0_7 3.076080 1_555
Cd2_1 Cd2_3 3.134580 1_545
Cd2_1 Cd2_5 3.134580 1_555
Cd2_1 Cd2_5 3.134580 1_455
Cd2_1 Cd2_3 3.134580 1_555
Cd2_1 Cd2_7 3.134581 1_555
Cd2_1 Cd2_7 3.134581 1_445
Cd2_2 Mg0_6 3.076079 1_555
Cd2_2 Mg0_4 3.076080 1_565
Cd2_2 Mg0_2 3.076080 1_455
Cd2_2 Cd2_6 3.134580 1_555
Cd2_2 Cd2_6 3.134580 1_455
Cd2_2 Cd2_4 3.134581 1_455
Cd2_2 Cd2_4 3.134581 1_565
Cd2_3 Mg0_7 3.076079 1_555
Cd2_3 Mg0_5 3.076080 1_565
Cd2_3 Mg0_3 3.076080 1_455
Cd2_3 Cd2_7 3.134580 1_555
Cd2_3 Cd2_7 3.134580 1_455
Cd2_3 Cd2_5 3.134581 1_455
Cd2_3 Cd2_5 3.134581 1_565
Cd2_4 Mg0_0 3.076079 1_655
Cd2_4 Mg0_4 3.076080 1_555
Cd2_4 Mg0_2 3.076080 1_555
Cd2_4 Cd2_6 3.134580 1_545
Cd2_4 Cd2_6 3.134580 1_555
Cd2_5 Mg0_1 3.076079 1_655
Cd2_5 Mg0_5 3.076080 1_555
Cd2_5 Mg0_3 3.076080 1_555
Cd2_5 Cd2_7 3.134580 1_545
Cd2_5 Cd2_7 3.134580 1_555
Cd2_6 Mg0_2 3.076079 1_555
Cd2_6 Mg0_0 3.076080 1_665
Cd2_6 Mg0_6 3.076080 1_555
Cd2_7 Mg0_3 3.076079 1_555
Cd2_7 Mg0_1 3.076080 1_665
Cd2_7 Mg0_7 3.076080 1_555
