# generated using pymatgen
data_LiTi2Zn2(PO5)2
_symmetry_space_group_name_H-M   'P 1'
_cell_length_a   5.71557144
_cell_length_b   7.50939156
_cell_length_c   8.08697831
_cell_angle_alpha   90.60227601
_cell_angle_beta   42.15693146
_cell_angle_gamma   108.63686766
_symmetry_Int_Tables_number   1
_chemical_formula_structural   LiTi2Zn2(PO5)2
_chemical_formula_sum   'Li1 Ti2 Zn2 P2 O10'
_cell_volume   206.28359433
_cell_formula_units_Z   1
loop_
 _symmetry_equiv_pos_site_id
 _symmetry_equiv_pos_as_xyz
  1  'x, y, z'
loop_
 _atom_site_type_symbol
 _atom_site_label
 _atom_site_symmetry_multiplicity
 _atom_site_fract_x
 _atom_site_fract_y
 _atom_site_fract_z
 _atom_site_occupancy
  Li  Li0  1  0.99299000  0.63398100  0.68410000  1
  Ti  Ti0  1  0.51421000  0.49453600  0.50820100  1
  Ti  Ti1  1  0.52592000  0.01058900  0.47935400  1
  Zn  Zn0  1  0.37849600  0.25968600  0.25638100  1
  Zn  Zn1  1  0.49621100  0.80371800  0.80674300  1
  P  P0  1  0.55288300  0.25452800  0.84155300  1
  P  P1  1  0.46138300  0.73369100  0.15576300  1
  O  O0  1  0.65027800  0.11053300  0.68059200  1
  O  O1  1  0.56669900  0.43035900  0.73416100  1
  O  O2  1  0.37720700  0.86924300  0.31950900  1
  O  O3  1  0.46785700  0.55933300  0.25199600  1
  O  O4  1  0.14007400  0.65540900  0.18210900  1
  O  O5  1  0.84494400  0.84344500  0.84688600  1
  O  O6  1  0.85748900  0.34720300  0.82770300  1
  O  O7  1  0.15521200  0.13591500  0.14486500  1
  O  O8  1  0.46070800  0.74065300  0.59487300  1
  O  O9  1  0.51174800  0.25211900  0.41107600  1
loop_
_geom_bond_atom_site_label_1
_geom_bond_atom_site_label_2
_geom_bond_distance
_geom_bond_site_symmetry_2
Li0 O5 2.019604 1_555
Li0 O8 2.022946 1_655
Li0 O6 2.058948 1_555
Li0 O1 2.146599 1_555
Li0 O2 2.160348 1_655
Li0 O3 2.600251 1_655
O0 P0 1.566628 1_555
O0 Zn1 2.131986 1_545
O0 Ti1 2.250620 1_555
O0 Zn0 2.505694 1_655
O1 P0 1.536128 1_555
O1 Ti0 2.141288 1_555
O2 P1 1.536636 1_555
O2 Ti1 2.131573 1_565
O3 P1 1.554485 1_555
O3 Zn0 2.136739 1_555
O3 Ti0 2.348884 1_555
O4 P1 1.579903 1_555
O4 Zn1 2.014821 1_554
O4 Ti0 2.128089 1_455
O5 P1 1.579348 1_556
O5 Zn1 2.178195 1_555
O5 Ti1 2.315825 1_665
O6 P0 1.570375 1_555
O6 Zn0 2.184418 1_556
O6 Ti0 2.239639 1_655
O7 P0 1.569152 1_554
O7 Zn0 2.058265 1_555
O7 Ti1 2.145862 1_455
O8 Zn1 1.907394 1_555
O8 Ti0 2.004196 1_555
O8 Ti1 2.039922 1_565
O9 Zn0 1.894754 1_555
O9 Ti1 1.944833 1_555
O9 Ti0 1.975083 1_555
