# generated using pymatgen
data_Zn5Ag4Sn3Se13N6
_symmetry_space_group_name_H-M   'P 1'
_cell_length_a   13.50364224
_cell_length_b   13.50364224
_cell_length_c   13.50364224
_cell_angle_alpha   60.00000000
_cell_angle_beta   60.00000000
_cell_angle_gamma   60.00000000
_symmetry_Int_Tables_number   1
_chemical_formula_structural   Zn5Ag4Sn3Se13N6
_chemical_formula_sum   'Zn10 Ag8 Sn6 Se26 N12'
_cell_volume   1741.15635617
_cell_formula_units_Z   2
loop_
 _symmetry_equiv_pos_site_id
 _symmetry_equiv_pos_as_xyz
  1  'x, y, z'
loop_
 _atom_site_type_symbol
 _atom_site_label
 _atom_site_symmetry_multiplicity
 _atom_site_fract_x
 _atom_site_fract_y
 _atom_site_fract_z
 _atom_site_occupancy
  Zn  Zn0  1  0.75000000  0.75000000  0.75000000  1
  Zn  Zn1  1  0.25000000  0.25000000  0.25000000  1
  Zn  Zn2  1  0.92178500  0.92178500  0.92178500  1
  Zn  Zn3  1  0.92178500  0.92178500  0.23464600  1
  Zn  Zn4  1  0.23464600  0.92178500  0.92178500  1
  Zn  Zn5  1  0.92178500  0.23464600  0.92178500  1
  Zn  Zn6  1  0.42178500  0.42178500  0.42178500  1
  Zn  Zn7  1  0.42178500  0.73464600  0.42178500  1
  Zn  Zn8  1  0.73464600  0.42178500  0.42178500  1
  Zn  Zn9  1  0.42178500  0.42178500  0.73464600  1
  Ag  Ag0  1  0.09809600  0.09809600  0.70571300  1
  Ag  Ag1  1  0.70571300  0.09809600  0.09809600  1
  Ag  Ag2  1  0.09809600  0.09809600  0.09809600  1
  Ag  Ag3  1  0.09809600  0.70571300  0.09809600  1
  Ag  Ag4  1  0.59809600  0.20571300  0.59809600  1
  Ag  Ag5  1  0.20571300  0.59809600  0.59809600  1
  Ag  Ag6  1  0.59809600  0.59809600  0.59809600  1
  Ag  Ag7  1  0.59809600  0.59809600  0.20571300  1
  Sn  Sn0  1  0.75000000  0.25000000  0.75000000  1
  Sn  Sn1  1  0.75000000  0.25000000  0.25000000  1
  Sn  Sn2  1  0.25000000  0.25000000  0.75000000  1
  Sn  Sn3  1  0.25000000  0.75000000  0.25000000  1
  Sn  Sn4  1  0.25000000  0.75000000  0.75000000  1
  Sn  Sn5  1  0.75000000  0.75000000  0.25000000  1
  Se  Se0  1  0.00000000  0.00000000  0.00000000  1
  Se  Se1  1  0.50000000  0.50000000  0.50000000  1
  Se  Se2  1  0.92710100  0.05596000  0.71234600  1
  Se  Se3  1  0.71234600  0.05596000  0.30459300  1
  Se  Se4  1  0.30459300  0.05596000  0.92710100  1
  Se  Se5  1  0.05596000  0.92710100  0.30459300  1
  Se  Se6  1  0.05596000  0.71234600  0.92710100  1
  Se  Se7  1  0.05596000  0.30459300  0.71234600  1
  Se  Se8  1  0.30459300  0.71234600  0.05596000  1
  Se  Se9  1  0.92710100  0.30459300  0.05596000  1
  Se  Se10  1  0.71234600  0.92710100  0.05596000  1
  Se  Se11  1  0.71234600  0.30459300  0.92710100  1
  Se  Se12  1  0.30459300  0.92710100  0.71234600  1
  Se  Se13  1  0.92710100  0.71234600  0.30459300  1
  Se  Se14  1  0.42710100  0.21234600  0.55596000  1
  Se  Se15  1  0.21234600  0.80459300  0.55596000  1
  Se  Se16  1  0.80459300  0.42710100  0.55596000  1
  Se  Se17  1  0.55596000  0.80459300  0.42710100  1
  Se  Se18  1  0.55596000  0.42710100  0.21234600  1
  Se  Se19  1  0.55596000  0.21234600  0.80459300  1
  Se  Se20  1  0.80459300  0.55596000  0.21234600  1
  Se  Se21  1  0.42710100  0.55596000  0.80459300  1
  Se  Se22  1  0.21234600  0.55596000  0.42710100  1
  Se  Se23  1  0.21234600  0.42710100  0.80459300  1
  Se  Se24  1  0.80459300  0.21234600  0.42710100  1
  Se  Se25  1  0.42710100  0.80459300  0.21234600  1
  N  N0  1  0.86516400  0.86516400  0.63483600  1
  N  N1  1  0.63483600  0.86516400  0.63483600  1
  N  N2  1  0.63483600  0.86516400  0.86516400  1
  N  N3  1  0.86516400  0.63483600  0.86516400  1
  N  N4  1  0.86516400  0.63483600  0.63483600  1
  N  N5  1  0.63483600  0.63483600  0.86516400  1
  N  N6  1  0.36516400  0.13483600  0.36516400  1
  N  N7  1  0.13483600  0.13483600  0.36516400  1
  N  N8  1  0.13483600  0.36516400  0.36516400  1
  N  N9  1  0.36516400  0.36516400  0.13483600  1
  N  N10  1  0.36516400  0.13483600  0.13483600  1
  N  N11  1  0.13483600  0.36516400  0.13483600  1
loop_
_geom_bond_atom_site_label_1
_geom_bond_atom_site_label_2
_geom_bond_distance
_geom_bond_site_symmetry_2
Ag0 Se7 2.592196 1_555
Ag0 Se12 2.592201 1_545
Ag0 Se2 2.592210 1_455
Ag0 Se0 3.244714 1_556
Ag1 Se3 2.592196 1_555
Ag1 Se11 2.592201 1_554
Ag1 Se10 2.592210 1_545
Ag1 Se0 3.244714 1_655
Ag2 Se4 2.592203 1_554
Ag2 Se9 2.592203 1_455
Ag2 Se5 2.592203 1_545
Ag2 Se0 3.244725 1_555
Ag3 Se8 2.592196 1_555
Ag3 Se13 2.592201 1_455
Ag3 Se6 2.592210 1_554
Ag3 Se0 3.244714 1_565
Ag4 Se19 2.592196 1_555
Ag4 Se24 2.592201 1_555
Ag4 Se14 2.592210 1_555
Ag4 Se1 3.244714 1_555
Ag5 Se15 2.592196 1_555
Ag5 Se23 2.592201 1_555
Ag5 Se22 2.592210 1_555
Ag5 Se1 3.244714 1_555
Ag6 Se17 2.592203 1_555
Ag6 Se16 2.592203 1_555
Ag6 Se21 2.592203 1_555
Ag6 Se1 3.244725 1_555
Ag7 Se20 2.592196 1_555
Ag7 Se25 2.592201 1_555
Ag7 Se18 2.592210 1_555
Ag7 Se1 3.244714 1_555
Se0 Zn2 2.587120 1_444
Se0 Zn3 2.587131 1_445
Se0 Zn5 2.587131 1_454
Se0 Zn4 2.587131 1_544
Se1 Zn6 2.587120 1_555
Se1 Zn9 2.587131 1_555
Se1 Zn7 2.587131 1_555
Se1 Zn8 2.587131 1_555
Se2 Zn2 2.467670 1_545
Se2 Sn0 2.587181 1_555
Se3 Zn3 2.467668 1_545
Se3 Sn1 2.587181 1_555
Se4 Zn4 2.467660 1_545
Se4 Sn2 2.587181 1_555
Se5 Zn3 2.467660 1_455
Se5 Sn3 2.587181 1_555
Se6 Zn2 2.467670 1_455
Se6 Sn4 2.587181 1_555
Se7 Zn5 2.467668 1_455
Se7 Sn2 2.587181 1_555
Se8 Zn4 2.467668 1_554
Se8 Sn3 2.587181 1_555
Se9 Zn5 2.467660 1_554
Se9 Sn1 2.587181 1_555
Se10 Zn2 2.467670 1_554
Se10 Sn5 2.587181 1_555
Se11 Zn5 2.467673 1_555
Se11 Sn0 2.587181 1_555
Se12 Zn4 2.467673 1_555
Se12 Sn4 2.587181 1_555
Se13 Zn3 2.467673 1_555
Se13 Sn5 2.587181 1_555
Se14 Zn6 2.467670 1_555
Se14 Sn2 2.587181 1_555
Se15 Zn7 2.467668 1_555
Se15 Sn4 2.587181 1_555
Se16 Zn8 2.467660 1_555
Se16 Sn0 2.587181 1_555
Se17 Zn7 2.467660 1_555
Se17 Sn5 2.587181 1_555
Se18 Zn6 2.467670 1_555
Se18 Sn1 2.587181 1_555
Se19 Zn9 2.467668 1_555
Se19 Sn0 2.587181 1_555
Se20 Zn8 2.467668 1_555
Se20 Sn5 2.587181 1_555
Se21 Zn9 2.467660 1_555
Se21 Sn4 2.587181 1_555
Se22 Zn6 2.467670 1_555
Se22 Sn3 2.587181 1_555
Se23 Zn9 2.467673 1_555
Se23 Sn2 2.587181 1_555
Se24 Zn8 2.467673 1_555
Se24 Sn1 2.587181 1_555
Se25 Zn7 2.467673 1_555
Se25 Sn3 2.587181 1_555
N0 Zn0 2.199291 1_555
N1 Zn0 2.199291 1_555
N2 Zn0 2.199291 1_555
N3 Zn0 2.199291 1_555
N4 Zn0 2.199291 1_555
N5 Zn0 2.199291 1_555
N6 Zn1 2.199291 1_555
N7 Zn1 2.199291 1_555
N8 Zn1 2.199291 1_555
N9 Zn1 2.199291 1_555
N10 Zn1 2.199291 1_555
N11 Zn1 2.199291 1_555
