# generated using pymatgen
data_CaYMn2O6
_symmetry_space_group_name_H-M   'P 1'
_cell_length_a   5.37890063
_cell_length_b   5.61834635
_cell_length_c   7.46892700
_cell_angle_alpha   90.00005556
_cell_angle_beta   89.99839927
_cell_angle_gamma   92.34483958
_symmetry_Int_Tables_number   1
_chemical_formula_structural   CaYMn2O6
_chemical_formula_sum   'Ca2 Y2 Mn4 O12'
_cell_volume   225.52591277
_cell_formula_units_Z   2
loop_
 _symmetry_equiv_pos_site_id
 _symmetry_equiv_pos_as_xyz
  1  'x, y, z'
loop_
 _atom_site_type_symbol
 _atom_site_label
 _atom_site_symmetry_multiplicity
 _atom_site_fract_x
 _atom_site_fract_y
 _atom_site_fract_z
 _atom_site_occupancy
  Ca  Ca0  1  0.51130800  0.55643100  0.25000500  1
  Ca  Ca1  1  0.00982500  0.94385900  0.75001200  1
  Y  Y0  1  0.98554600  0.06742600  0.25000800  1
  Y  Y1  1  0.48235400  0.43117500  0.74999900  1
  Mn  Mn0  1  0.49966400  0.99542700  0.50000500  1
  Mn  Mn1  1  0.99767700  0.50556000  0.50004600  1
  Mn  Mn2  1  0.99767300  0.50563600  0.99990800  1
  Mn  Mn3  1  0.49968000  0.99556500  0.99996900  1
  O  O0  1  0.39377700  0.96896800  0.25001100  1
  O  O1  1  0.90089700  0.52492200  0.74997300  1
  O  O2  1  0.08372000  0.47357300  0.24996900  1
  O  O3  1  0.59255500  0.03452800  0.75000300  1
  O  O4  1  0.79284600  0.81476500  0.04906400  1
  O  O5  1  0.30998600  0.69721700  0.94945200  1
  O  O6  1  0.30994300  0.69712700  0.55056400  1
  O  O7  1  0.79284000  0.81467600  0.45096200  1
  O  O8  1  0.70130300  0.29067100  0.45277400  1
  O  O9  1  0.21852500  0.19582400  0.54458800  1
  O  O10  1  0.21855500  0.19588900  0.95544300  1
  O  O11  1  0.70132700  0.29076000  0.04724400  1
loop_
_geom_bond_atom_site_label_1
_geom_bond_atom_site_label_2
_geom_bond_distance
_geom_bond_site_symmetry_2
Ca0 O2 2.327850 1_555
Ca0 O11 2.385540 1_555
Ca0 O8 2.385879 1_555
Ca0 O0 2.427271 1_555
Ca0 O7 2.543910 1_555
Ca0 O4 2.544083 1_555
Ca0 O6 2.628174 1_555
Ca0 O5 2.628251 1_554
Ca1 O3 2.321773 1_465
Ca1 O9 2.342673 1_565
Ca1 O10 2.343033 1_565
Ca1 O1 2.402188 1_455
Ca1 O4 2.609165 1_456
Ca1 O7 2.609351 1_455
Ca1 O5 2.632314 1_555
Ca1 O6 2.632427 1_555
Mn0 O3 1.943060 1_565
Mn0 O7 1.945067 1_555
Mn0 O9 1.950545 1_565
Mn0 O0 1.956019 1_555
Mn0 O6 1.962867 1_555
Mn0 O8 1.976137 1_565
Mn1 O2 1.934414 1_655
Mn1 O1 1.942144 1_555
Mn1 O8 1.991529 1_555
Mn1 O6 1.993512 1_655
Mn1 O7 2.126302 1_555
Mn1 O9 2.172399 1_655
Mn2 O2 1.934373 1_656
Mn2 O1 1.942196 1_555
Mn2 O11 1.991440 1_556
Mn2 O5 1.993654 1_655
Mn2 O4 2.126415 1_556
Mn2 O10 2.172457 1_655
Mn3 O3 1.942702 1_565
Mn3 O4 1.945265 1_556
Mn3 O10 1.950178 1_565
Mn3 O0 1.956406 1_556
Mn3 O5 1.962971 1_555
Mn3 O11 1.976003 1_566
O0 Y0 2.286281 1_465
O1 Y1 2.291014 1_555
O2 Y0 2.321036 1_455
O3 Y1 2.329307 1_555
O4 Y0 2.285091 1_565
O5 Y1 2.329443 1_555
O6 Y1 2.329158 1_555
O7 Y0 2.285419 1_565
O8 Y0 2.522121 1_555
O8 Y1 2.648443 1_555
O9 Y1 2.441853 1_555
O9 Y0 2.618754 1_455
O10 Y1 2.441681 1_555
O10 Y0 2.618772 1_456
O11 Y0 2.522345 1_555
O11 Y1 2.648526 1_554
