# generated using pymatgen
data_Ba3(LiAs)4
_symmetry_space_group_name_H-M   'P 1'
_cell_length_a   4.72675376
_cell_length_b   7.22935279
_cell_length_c   9.00876234
_cell_angle_alpha   113.70878969
_cell_angle_beta   105.20906770
_cell_angle_gamma   89.99999095
_symmetry_Int_Tables_number   1
_chemical_formula_structural   Ba3(LiAs)4
_chemical_formula_sum   'Ba3 Li4 As4'
_cell_volume   270.04264213
_cell_formula_units_Z   1
loop_
 _symmetry_equiv_pos_site_id
 _symmetry_equiv_pos_as_xyz
  1  'x, y, z'
loop_
 _atom_site_type_symbol
 _atom_site_label
 _atom_site_symmetry_multiplicity
 _atom_site_fract_x
 _atom_site_fract_y
 _atom_site_fract_z
 _atom_site_occupancy
  Ba  Ba0  1  0.13126898  0.63150491  0.26253797  1
  Ba  Ba1  1  0.86873102  0.36849509  0.73746203  1
  Ba  Ba2  1  0.00000000  -0.00000000  -0.00000000  1
  Li  Li0  1  0.67796875  0.98398645  0.35593650  1
  Li  Li1  1  0.32203125  0.01601355  0.64406350  1
  Li  Li2  1  0.32152758  0.62722175  0.64305616  1
  Li  Li3  1  0.67847242  0.37277825  0.35694384  1
  As  As0  1  0.50001663  0.32755690  0.00003225  1
  As  As1  1  0.78735950  0.78743062  0.57472000  1
  As  As2  1  0.21264050  0.21256938  0.42528000  1
  As  As3  1  0.49998337  0.67244310  0.99996775  1
loop_
_geom_bond_atom_site_label_1
_geom_bond_atom_site_label_2
_geom_bond_distance
_geom_bond_site_symmetry_2
Ba0 Li0 3.318727 1_455
Ba0 Li0 3.318731 1_555
Ba0 Li2 3.320954 1_555
Ba0 Li3 3.322171 1_455
Ba0 Li3 3.322174 1_555
Ba0 Li1 3.323277 1_565
Ba0 Ba1 4.149465 1_454
Ba0 Ba2 4.167521 1_555
Ba0 Ba2 4.168042 1_565
Ba1 Li1 3.318727 1_655
Ba1 Li1 3.318731 1_555
Ba1 Li3 3.320954 1_555
Ba1 Li2 3.322171 1_655
Ba1 Li2 3.322174 1_555
Ba1 Li0 3.323277 1_545
Ba1 Ba2 4.167521 1_666
Ba1 Ba2 4.168042 1_656
Li0 Li3 2.807075 1_565
Li0 Li1 3.380774 1_665
Li0 Li1 3.380780 1_565
Li1 Li2 2.807075 1_545
Li2 Li3 3.367895 1_455
Li2 Li3 3.367901 1_555
As0 As3 2.493538 1_554
As0 Li1 2.973288 1_554
As0 Li3 2.981342 1_555
As0 Ba2 3.345523 1_655
As0 Ba2 3.345527 1_555
As0 Ba0 3.382703 1_655
As0 Ba0 3.382706 1_555
As0 Ba1 3.383237 1_554
As0 Ba1 3.383240 1_454
As1 Li3 2.800124 1_555
As1 Li1 2.801705 1_565
As1 Li1 2.801706 1_665
As1 Li2 2.802373 1_655
As1 Li2 2.802373 1_555
As1 Li0 2.808695 1_555
As1 Ba2 3.360819 1_666
As1 Ba0 3.416414 1_555
As1 Ba0 3.416417 1_655
As1 Ba1 3.833393 1_565
As1 Ba1 3.839912 1_555
As2 Li2 2.800124 1_555
As2 Li0 2.801705 1_545
As2 Li0 2.801706 1_445
As2 Li3 2.802373 1_455
As2 Li3 2.802373 1_555
As2 Li1 2.808695 1_555
As2 Ba2 3.360819 1_555
As2 Ba1 3.416414 1_555
As2 Ba1 3.416417 1_455
As2 Ba0 3.833393 1_545
As2 Ba0 3.839912 1_555
As3 Li0 2.973288 1_556
As3 Li2 2.981342 1_555
As3 Ba2 3.345523 1_566
As3 Ba2 3.345527 1_666
As3 Ba1 3.382703 1_455
As3 Ba1 3.382706 1_555
As3 Ba0 3.383237 1_556
As3 Ba0 3.383240 1_656
