# generated using pymatgen
data_LiMn6(OF2)4
_symmetry_space_group_name_H-M   'P 1'
_cell_length_a   5.04297601
_cell_length_b   8.05150547
_cell_length_c   5.82125666
_cell_angle_alpha   94.86262502
_cell_angle_beta   93.33698831
_cell_angle_gamma   86.93365235
_symmetry_Int_Tables_number   1
_chemical_formula_structural   LiMn6(OF2)4
_chemical_formula_sum   'Li1 Mn6 O4 F8'
_cell_volume   234.83332645
_cell_formula_units_Z   1
loop_
 _symmetry_equiv_pos_site_id
 _symmetry_equiv_pos_as_xyz
  1  'x, y, z'
loop_
 _atom_site_type_symbol
 _atom_site_label
 _atom_site_symmetry_multiplicity
 _atom_site_fract_x
 _atom_site_fract_y
 _atom_site_fract_z
 _atom_site_occupancy
  Li  Li0  1  0.50542200  0.22749300  0.22802700  1
  Mn  Mn0  1  0.49763900  0.98265400  0.51814700  1
  Mn  Mn1  1  0.57406300  0.65607900  0.15293400  1
  Mn  Mn2  1  0.49633400  0.33388200  0.79935600  1
  Mn  Mn3  1  0.96724100  0.67054600  0.66035000  1
  Mn  Mn4  1  0.00413600  0.33225600  0.32066700  1
  Mn  Mn5  1  0.99613400  0.97364400  0.00530600  1
  O  O0  1  0.81963800  0.75344800  0.94016000  1
  O  O1  1  0.68757100  0.76695600  0.47101800  1
  O  O2  1  0.67022300  0.40527800  0.10457000  1
  O  O3  1  0.33293200  0.21866000  0.51230600  1
  F  F0  1  0.80025900  0.42082100  0.61730600  1
  F  F1  1  0.80427800  0.09165200  0.30699000  1
  F  F2  1  0.68536600  0.09655700  0.81591000  1
  F  F3  1  0.28583400  0.56055300  0.84033800  1
  F  F4  1  0.33572900  0.89867000  0.19600000  1
  F  F5  1  0.15372400  0.57227900  0.37569400  1
  F  F6  1  0.20126200  0.21437800  0.02381700  1
  F  F7  1  0.19610000  0.89919100  0.69443800  1
loop_
_geom_bond_atom_site_label_1
_geom_bond_atom_site_label_2
_geom_bond_distance
_geom_bond_site_symmetry_2
Li0 O2 1.904580 1_555
Li0 O3 1.922092 1_555
Mn0 O1 1.944389 1_555
Mn0 O3 2.034860 1_565
Mn1 O0 2.032127 1_554
Mn1 O1 2.050430 1_555
Mn1 O2 2.051060 1_555
Mn2 O2 1.988867 1_556
Mn2 O3 1.997640 1_555
Mn3 O0 1.885846 1_555
Mn3 O1 1.911384 1_555
Mn4 O2 2.129920 1_455
Mn4 O3 2.150760 1_555
Mn5 O0 2.023557 1_554
F0 Mn2 2.095672 1_555
F0 Mn4 2.113515 1_655
F0 Mn3 2.210389 1_555
F1 Li0 1.872746 1_555
F1 Mn5 2.177066 1_545
F1 Mn4 2.224499 1_655
F1 Mn0 2.285112 1_545
F2 Mn0 2.091452 1_545
F2 Mn2 2.096408 1_555
F2 Mn5 2.113985 1_546
F2 Li0 2.722606 1_556
F3 Mn2 2.064698 1_555
F3 Mn3 2.067016 1_455
F3 Mn1 2.364325 1_556
F3 F5 2.756004 1_555
F3 O0 2.809350 1_455
F4 Mn0 2.075213 1_555
F4 Mn5 2.076356 1_455
F4 Mn1 2.241301 1_555
F5 Mn3 2.033662 1_455
F5 Mn4 2.104591 1_555
F5 Mn1 2.692864 1_555
F5 O1 2.810915 1_455
F6 Li0 1.887017 1_555
F6 Mn4 2.167058 1_555
F6 Mn5 2.237125 1_445
F6 Mn2 2.332395 1_554
F7 Mn0 2.055493 1_555
F7 Mn5 2.148241 1_456
F7 Mn3 2.213404 1_455
