# generated using pymatgen
data_Ga8Sb7Te8Cl29
_symmetry_space_group_name_H-M   'P 1'
_cell_length_a   10.89694809
_cell_length_b   18.70351051
_cell_length_c   34.38687356
_cell_angle_alpha   94.02592594
_cell_angle_beta   90.00000000
_cell_angle_gamma   90.00000000
_symmetry_Int_Tables_number   1
_chemical_formula_structural   Ga8Sb7Te8Cl29
_chemical_formula_sum   'Ga32 Sb28 Te32 Cl116'
_cell_volume   6991.13527210
_cell_formula_units_Z   4
loop_
 _symmetry_equiv_pos_site_id
 _symmetry_equiv_pos_as_xyz
  1  'x, y, z'
loop_
 _atom_site_type_symbol
 _atom_site_label
 _atom_site_symmetry_multiplicity
 _atom_site_fract_x
 _atom_site_fract_y
 _atom_site_fract_z
 _atom_site_occupancy
  Ga  Ga0  1  0.75314835  0.87152588  0.48997006  1
  Ga  Ga1  1  0.25314835  0.62847412  0.01002994  1
  Ga  Ga2  1  0.24685165  0.12847412  0.51002994  1
  Ga  Ga3  1  0.74685165  0.37152588  0.98997006  1
  Ga  Ga4  1  0.25720885  0.66649972  0.22343767  1
  Ga  Ga5  1  0.75720885  0.83350028  0.27656233  1
  Ga  Ga6  1  0.74279115  0.33350028  0.77656233  1
  Ga  Ga7  1  0.24279115  0.16649972  0.72343767  1
  Ga  Ga8  1  0.62719223  0.47635803  0.33593749  1
  Ga  Ga9  1  0.12719223  0.02364197  0.16406251  1
  Ga  Ga10  1  0.37280777  0.52364197  0.66406251  1
  Ga  Ga11  1  0.87280777  0.97635803  0.83593749  1
  Ga  Ga12  1  0.75904363  0.56181223  0.43399261  1
  Ga  Ga13  1  0.25904363  0.93818777  0.06600739  1
  Ga  Ga14  1  0.24095637  0.43818777  0.56600739  1
  Ga  Ga15  1  0.74095637  0.06181223  0.93399261  1
  Ga  Ga16  1  0.06291764  0.25954050  0.08218670  1
  Ga  Ga17  1  0.56291764  0.24045950  0.41781330  1
  Ga  Ga18  1  0.93708236  0.74045950  0.91781330  1
  Ga  Ga19  1  0.43708236  0.75954050  0.58218670  1
  Ga  Ga20  1  0.43156906  0.26715082  0.08317574  1
  Ga  Ga21  1  0.93156906  0.23284918  0.41682426  1
  Ga  Ga22  1  0.56843094  0.73284918  0.91682426  1
  Ga  Ga23  1  0.06843094  0.76715082  0.58317574  1
  Ga  Ga24  1  0.24321364  0.36573459  0.24196004  1
  Ga  Ga25  1  0.74321364  0.13426541  0.25803996  1
  Ga  Ga26  1  0.75678636  0.63426541  0.75803996  1
  Ga  Ga27  1  0.25678636  0.86573459  0.74196004  1
  Ga  Ga28  1  0.08584549  0.44993682  0.33339896  1
  Ga  Ga29  1  0.58584549  0.05006318  0.16660104  1
  Ga  Ga30  1  0.91415451  0.55006318  0.66660104  1
  Ga  Ga31  1  0.41415451  0.94993682  0.83339896  1
  Sb  Sb0  1  0.26254074  0.87034216  0.37850191  1
  Sb  Sb1  1  0.76254074  0.62965784  0.12149809  1
  Sb  Sb2  1  0.73745926  0.12965784  0.62149809  1
  Sb  Sb3  1  0.23745926  0.37034216  0.87850191  1
  Sb  Sb4  1  0.06956588  0.97597020  0.29214625  1
  Sb  Sb5  1  0.56956588  0.52402980  0.20785375  1
  Sb  Sb6  1  0.93043412  0.02402980  0.70785375  1
  Sb  Sb7  1  0.43043412  0.47597020  0.79214625  1
  Sb  Sb8  1  0.25708267  0.09292759  0.38000572  1
  Sb  Sb9  1  0.75708267  0.40707241  0.11999428  1
  Sb  Sb10  1  0.74291733  0.90707241  0.61999428  1
  Sb  Sb11  1  0.24291733  0.59292759  0.88000572  1
  Sb  Sb12  1  0.43933544  0.98112407  0.29019714  1
  Sb  Sb13  1  0.93933544  0.51887593  0.20980286  1
  Sb  Sb14  1  0.56066456  0.01887593  0.70980286  1
  Sb  Sb15  1  0.06066456  0.48112407  0.79019714  1
  Sb  Sb16  1  0.44512541  0.72673720  0.44923704  1
  Sb  Sb17  1  0.94512541  0.77326280  0.05076296  1
  Sb  Sb18  1  0.55487459  0.27326280  0.55076296  1
  Sb  Sb19  1  0.05487459  0.22673720  0.94923704  1
  Sb  Sb20  1  0.25486499  0.65463857  0.35112439  1
  Sb  Sb21  1  0.75486499  0.84536143  0.14887561  1
  Sb  Sb22  1  0.74513501  0.34536143  0.64887561  1
  Sb  Sb23  1  0.24513501  0.15463857  0.85112439  1
  Sb  Sb24  1  0.06607147  0.72996309  0.44943791  1
  Sb  Sb25  1  0.56607147  0.77003691  0.05056209  1
  Sb  Sb26  1  0.93392853  0.27003691  0.55056209  1
  Sb  Sb27  1  0.43392853  0.22996309  0.94943791  1
  Te  Te0  1  0.25893519  0.86343565  0.29211115  1
  Te  Te1  1  0.75893519  0.63656435  0.20788885  1
  Te  Te2  1  0.74106481  0.13656435  0.70788885  1
  Te  Te3  1  0.24106481  0.36343565  0.79211115  1
  Te  Te4  1  0.25007951  0.09068773  0.29392157  1
  Te  Te5  1  0.75007951  0.40931227  0.20607843  1
  Te  Te6  1  0.74992049  0.90931227  0.70607843  1
  Te  Te7  1  0.24992049  0.59068773  0.79392157  1
  Te  Te8  1  0.05608314  0.99122719  0.37517653  1
  Te  Te9  1  0.55608314  0.50877281  0.12482347  1
  Te  Te10  1  0.94391686  0.00877281  0.62482347  1
  Te  Te11  1  0.44391686  0.49122719  0.87517653  1
  Te  Te12  1  0.46407834  0.99485733  0.37229323  1
  Te  Te13  1  0.96407834  0.50514267  0.12770677  1
  Te  Te14  1  0.53592166  0.00514267  0.62770677  1
  Te  Te15  1  0.03592166  0.49485733  0.87229323  1
  Te  Te16  1  0.45584533  0.75524745  0.36662292  1
  Te  Te17  1  0.95584533  0.74475255  0.13337708  1
  Te  Te18  1  0.54415467  0.24475255  0.63337708  1
  Te  Te19  1  0.04415467  0.25524745  0.86662292  1
  Te  Te20  1  0.25247771  0.61849481  0.43249931  1
  Te  Te21  1  0.75247771  0.88150519  0.06750069  1
  Te  Te22  1  0.74752229  0.38150519  0.56750069  1
  Te  Te23  1  0.24752229  0.11849481  0.93249931  1
  Te  Te24  1  0.25772856  0.82790337  0.47036301  1
  Te  Te25  1  0.75772856  0.67209663  0.02963699  1
  Te  Te26  1  0.74227144  0.17209663  0.52963699  1
  Te  Te27  1  0.24227144  0.32790337  0.97036301  1
  Te  Te28  1  0.06235817  0.75990207  0.36641473  1
  Te  Te29  1  0.56235817  0.74009793  0.13358527  1
  Te  Te30  1  0.93764183  0.24009793  0.63358527  1
  Te  Te31  1  0.43764183  0.25990207  0.86641473  1
  Cl  Cl0  1  0.75492660  0.77049769  0.51710061  1
  Cl  Cl1  1  0.25492660  0.72950231  0.98289939  1
  Cl  Cl2  1  0.24507340  0.22950231  0.48289939  1
  Cl  Cl3  1  0.74507340  0.27049769  0.01710061  1
  Cl  Cl4  1  0.91803559  0.88072218  0.45227577  1
  Cl  Cl5  1  0.41803559  0.61927782  0.04772423  1
  Cl  Cl6  1  0.08196441  0.11927782  0.54772423  1
  Cl  Cl7  1  0.58196441  0.38072218  0.95227577  1
  Cl  Cl8  1  0.59055062  0.87875833  0.45108277  1
  Cl  Cl9  1  0.09055062  0.62124167  0.04891723  1
  Cl  Cl10  1  0.40944938  0.12124167  0.54891723  1
  Cl  Cl11  1  0.90944938  0.37875833  0.95108277  1
  Cl  Cl12  1  0.74864359  0.96580206  0.53331466  1
  Cl  Cl13  1  0.24864359  0.53419794  0.96668534  1
  Cl  Cl14  1  0.25135641  0.03419794  0.46668534  1
  Cl  Cl15  1  0.75135641  0.46580206  0.03331466  1
  Cl  Cl16  1  0.41813976  0.66238542  0.26266649  1
  Cl  Cl17  1  0.91813976  0.83761458  0.23733351  1
  Cl  Cl18  1  0.58186024  0.33761458  0.73733351  1
  Cl  Cl19  1  0.08186024  0.16238542  0.76266649  1
  Cl  Cl20  1  0.26389452  0.76092522  0.19030703  1
  Cl  Cl21  1  0.76389452  0.73907478  0.30969297  1
  Cl  Cl22  1  0.73610548  0.23907478  0.80969297  1
  Cl  Cl23  1  0.23610548  0.26092522  0.69030703  1
  Cl  Cl24  1  0.25675311  0.56791382  0.18372618  1
  Cl  Cl25  1  0.75675311  0.93208618  0.31627382  1
  Cl  Cl26  1  0.74324689  0.43208618  0.81627382  1
  Cl  Cl27  1  0.24324689  0.06791382  0.68372618  1
  Cl  Cl28  1  0.09116029  0.66719661  0.26033199  1
  Cl  Cl29  1  0.59116029  0.83280339  0.23966801  1
  Cl  Cl30  1  0.90883971  0.33280339  0.73966801  1
  Cl  Cl31  1  0.40883971  0.16719661  0.76033199  1
  Cl  Cl32  1  0.75683125  0.46042327  0.38796209  1
  Cl  Cl33  1  0.25683125  0.03957673  0.11203791  1
  Cl  Cl34  1  0.24316875  0.53957673  0.61203791  1
  Cl  Cl35  1  0.74316875  0.96042327  0.88796209  1
  Cl  Cl36  1  0.71998744  0.54502380  0.29539842  1
  Cl  Cl37  1  0.21998744  0.95497620  0.20460158  1
  Cl  Cl38  1  0.28001256  0.45497620  0.70460158  1
  Cl  Cl39  1  0.78001256  0.04502380  0.79539842  1
  Cl  Cl40  1  0.47279655  0.53499915  0.36413835  1
  Cl  Cl41  1  0.97279655  0.96500085  0.13586165  1
  Cl  Cl42  1  0.52720345  0.46500085  0.63586165  1
  Cl  Cl43  1  0.02720345  0.03499915  0.86413835  1
  Cl  Cl44  1  0.58352067  0.37367269  0.30731263  1
  Cl  Cl45  1  0.08352067  0.12632731  0.19268737  1
  Cl  Cl46  1  0.41647933  0.62632731  0.69268737  1
  Cl  Cl47  1  0.91647933  0.87367269  0.80731263  1
  Cl  Cl48  1  0.75183029  0.65915582  0.40253203  1
  Cl  Cl49  1  0.25183029  0.84084418  0.09746797  1
  Cl  Cl50  1  0.24816971  0.34084418  0.59746797  1
  Cl  Cl51  1  0.74816971  0.15915582  0.90253203  1
  Cl  Cl52  1  0.59977953  0.55035961  0.47043321  1
  Cl  Cl53  1  0.09977953  0.94964039  0.02956679  1
  Cl  Cl54  1  0.40022047  0.44964039  0.52956679  1
  Cl  Cl55  1  0.90022047  0.05035961  0.97043321  1
  Cl  Cl56  1  0.93607672  0.54927628  0.46159057  1
  Cl  Cl57  1  0.43607672  0.95072372  0.03840943  1
  Cl  Cl58  1  0.06392328  0.45072372  0.53840943  1
  Cl  Cl59  1  0.56392328  0.04927628  0.96159057  1
  Cl  Cl60  1  0.24643060  0.26576191  0.11819824  1
  Cl  Cl61  1  0.74643060  0.23423809  0.38180176  1
  Cl  Cl62  1  0.75356940  0.73423809  0.88180176  1
  Cl  Cl63  1  0.25356940  0.76576191  0.61819824  1
  Cl  Cl64  1  0.04610595  0.36080478  0.05474268  1
  Cl  Cl65  1  0.54610595  0.13919522  0.44525732  1
  Cl  Cl66  1  0.95389405  0.63919522  0.94525732  1
  Cl  Cl67  1  0.45389405  0.86080478  0.55474268  1
  Cl  Cl68  1  0.08217582  0.16733999  0.04034885  1
  Cl  Cl69  1  0.58217582  0.33266001  0.45965115  1
  Cl  Cl70  1  0.91782418  0.83266001  0.95965115  1
  Cl  Cl71  1  0.41782418  0.66733999  0.54034885  1
  Cl  Cl72  1  0.92145161  0.24998757  0.12593223  1
  Cl  Cl73  1  0.42145161  0.25001243  0.37406777  1
  Cl  Cl74  1  0.07854839  0.75001243  0.87406777  1
  Cl  Cl75  1  0.57854839  0.74998757  0.62593223  1
  Cl  Cl76  1  0.56781490  0.26776796  0.12960641  1
  Cl  Cl77  1  0.06781490  0.23223204  0.37039359  1
  Cl  Cl78  1  0.43218510  0.73223204  0.87039359  1
  Cl  Cl79  1  0.93218510  0.76776796  0.62960641  1
  Cl  Cl80  1  0.42942297  0.17245397  0.04269894  1
  Cl  Cl81  1  0.92942297  0.32754603  0.45730106  1
  Cl  Cl82  1  0.57057703  0.82754603  0.95730106  1
  Cl  Cl83  1  0.07057703  0.67245397  0.54269894  1
  Cl  Cl84  1  0.43834099  0.36699868  0.05430566  1
  Cl  Cl85  1  0.93834099  0.13300132  0.44569434  1
  Cl  Cl86  1  0.56165901  0.63300132  0.94569434  1
  Cl  Cl87  1  0.06165901  0.86699868  0.55430566  1
  Cl  Cl88  1  0.22630278  0.47171186  0.28163702  1
  Cl  Cl89  1  0.72630278  0.02828814  0.21836298  1
  Cl  Cl90  1  0.77369722  0.52828814  0.71836298  1
  Cl  Cl91  1  0.27369722  0.97171186  0.78163702  1
  Cl  Cl92  1  0.08239483  0.36376790  0.20333154  1
  Cl  Cl93  1  0.58239483  0.13623210  0.29666846  1
  Cl  Cl94  1  0.91760517  0.63623210  0.79666846  1
  Cl  Cl95  1  0.41760517  0.86376790  0.70333154  1
  Cl  Cl96  1  0.40795258  0.37711723  0.20606891  1
  Cl  Cl97  1  0.90795258  0.12288277  0.29393109  1
  Cl  Cl98  1  0.59204742  0.62288277  0.79393109  1
  Cl  Cl99  1  0.09204742  0.87711723  0.70606891  1
  Cl  Cl100  1  0.25352557  0.28158597  0.28119236  1
  Cl  Cl101  1  0.75352557  0.21841403  0.21880764  1
  Cl  Cl102  1  0.74647443  0.71841403  0.71880764  1
  Cl  Cl103  1  0.24647443  0.78158597  0.78119236  1
  Cl  Cl104  1  0.01651731  0.56062420  0.34680469  1
  Cl  Cl105  1  0.51651731  0.93937580  0.15319531  1
  Cl  Cl106  1  0.98348269  0.43937580  0.65319531  1
  Cl  Cl107  1  0.48348269  0.06062420  0.84680469  1
  Cl  Cl108  1  0.94845098  0.38216243  0.30481822  1
  Cl  Cl109  1  0.44845098  0.11783757  0.19518178  1
  Cl  Cl110  1  0.05154902  0.61783757  0.69518178  1
  Cl  Cl111  1  0.55154902  0.88216243  0.80481822  1
  Cl  Cl112  1  0.19288965  0.41718022  0.38109071  1
  Cl  Cl113  1  0.69288965  0.08281978  0.11890929  1
  Cl  Cl114  1  0.80711035  0.58281978  0.61890929  1
  Cl  Cl115  1  0.30711035  0.91718022  0.88109071  1
loop_
_geom_bond_atom_site_label_1
_geom_bond_atom_site_label_2
_geom_bond_distance
_geom_bond_site_symmetry_2
Sb0 Te0 2.964701 1_555
Sb0 Te28 3.012871 1_555
Sb0 Te16 3.019014 1_555
Sb0 Te8 3.197310 1_555
Sb0 Te12 3.219020 1_555
Sb0 Te24 3.311039 1_555
Sb1 Te1 2.964701 1_555
Sb1 Te29 3.012871 1_555
Sb1 Te17 3.019014 1_555
Sb1 Te9 3.197310 1_555
Sb1 Te13 3.219020 1_555
Sb1 Te25 3.311039 1_555
Sb2 Te2 2.964701 1_555
Sb2 Te30 3.012871 1_555
Sb2 Te18 3.019014 1_555
Sb2 Te10 3.197310 1_555
Sb2 Te14 3.219020 1_555
Sb2 Te26 3.311039 1_555
Sb3 Te3 2.964701 1_555
Sb3 Te31 3.012871 1_555
Sb3 Te19 3.019014 1_555
Sb3 Te11 3.197310 1_555
Sb3 Te15 3.219020 1_555
Sb3 Te27 3.311039 1_555
Sb4 Te8 2.853157 1_555
Sb4 Te4 2.908315 1_565
Sb4 Te0 2.947545 1_555
Sb5 Te9 2.853157 1_555
Sb5 Te5 2.908315 1_555
Sb5 Te1 2.947545 1_555
Sb6 Te10 2.853157 1_555
Sb6 Te6 2.908315 1_545
Sb6 Te2 2.947545 1_555
Sb7 Te11 2.853157 1_555
Sb7 Te7 2.908315 1_555
Sb7 Te3 2.947545 1_555
Sb8 Te8 2.898059 1_545
Sb8 Te12 2.907638 1_545
Sb8 Te4 2.958503 1_555
Sb9 Te9 2.898059 1_555
Sb9 Te13 2.907638 1_555
Sb9 Te5 2.958503 1_555
Sb10 Te10 2.898059 1_565
Sb10 Te14 2.907638 1_565
Sb10 Te6 2.958503 1_555
Sb11 Te11 2.898059 1_555
Sb11 Te15 2.907638 1_555
Sb11 Te7 2.958503 1_555
Sb12 Te12 2.829548 1_555
Sb12 Te4 2.903791 1_565
Sb12 Te0 2.955387 1_555
Sb13 Te13 2.829548 1_555
Sb13 Te5 2.903791 1_555
Sb13 Te1 2.955387 1_555
Sb14 Te14 2.829548 1_555
Sb14 Te6 2.903791 1_545
Sb14 Te2 2.955387 1_555
Sb15 Te15 2.829548 1_555
Sb15 Te7 2.903791 1_555
Sb15 Te3 2.955387 1_555
Sb16 Te24 2.843412 1_555
Sb16 Te16 2.929348 1_555
Sb16 Te20 2.945037 1_555
Sb17 Te25 2.843412 1_555
Sb17 Te17 2.929348 1_555
Sb17 Te21 2.945037 1_555
Sb18 Te26 2.843412 1_555
Sb18 Te18 2.929348 1_555
Sb18 Te22 2.945037 1_555
Sb19 Te27 2.843412 1_555
Sb19 Te19 2.929348 1_555
Sb19 Te23 2.945037 1_555
Sb20 Te28 2.899614 1_555
Sb20 Te16 2.912142 1_555
Sb20 Te20 2.924616 1_555
Sb21 Te29 2.899614 1_555
Sb21 Te17 2.912142 1_555
Sb21 Te21 2.924616 1_555
Sb22 Te30 2.899614 1_555
Sb22 Te18 2.912142 1_555
Sb22 Te22 2.924616 1_555
Sb23 Te31 2.899614 1_555
Sb23 Te19 2.912142 1_555
Sb23 Te23 2.924616 1_555
Sb24 Te24 2.837252 1_555
Sb24 Te20 2.939619 1_555
Sb24 Te28 2.947909 1_555
Sb25 Te25 2.837252 1_555
Sb25 Te21 2.939619 1_555
Sb25 Te29 2.947909 1_555
Sb26 Te26 2.837252 1_555
Sb26 Te22 2.939619 1_555
Sb26 Te30 2.947909 1_555
Sb27 Te27 2.837252 1_555
Sb27 Te23 2.939619 1_555
Sb27 Te31 2.947909 1_555
Te0 Te28 3.944802 1_555
Te0 Te16 3.998959 1_555
Te1 Te29 3.944802 1_555
Te1 Te17 3.998959 1_555
Te2 Te30 3.944802 1_555
Te3 Te31 3.944802 1_555
Te18 Te2 3.998959 1_555
Te19 Te3 3.998959 1_555
Cl0 Ga0 2.165363 1_555
Cl1 Ga1 2.165363 1_556
Cl2 Ga2 2.165363 1_555
Cl3 Ga3 2.165363 1_554
Cl4 Ga0 2.229208 1_555
Cl4 Sb24 3.244064 1_655
Cl4 Te8 3.785894 1_655
Cl4 Te24 3.892431 1_655
Cl4 Te28 3.919208 1_655
Cl5 Ga1 2.229208 1_555
Cl5 Sb25 3.244064 1_555
Cl5 Te9 3.785894 1_555
Cl5 Te25 3.892431 1_555
Cl5 Te29 3.919208 1_555
Cl6 Ga2 2.229208 1_555
Cl6 Sb26 3.244064 1_455
Cl6 Te10 3.785894 1_455
Cl6 Te26 3.892431 1_455
Cl6 Te30 3.919208 1_455
Cl7 Ga3 2.229208 1_555
Cl7 Sb27 3.244064 1_555
Cl7 Te11 3.785894 1_555
Cl7 Te27 3.892431 1_555
Cl7 Te31 3.919208 1_555
Cl8 Ga0 2.229614 1_555
Cl8 Sb16 3.251838 1_555
Cl8 Te24 3.819175 1_555
Cl8 Te12 3.844620 1_555
Cl8 Te16 3.870931 1_555
Cl9 Ga1 2.229614 1_555
Cl9 Sb17 3.251838 1_455
Cl9 Te25 3.819175 1_455
Cl9 Te13 3.844620 1_455
Cl9 Te17 3.870931 1_455
Cl10 Ga2 2.229614 1_555
Cl10 Sb18 3.251838 1_555
Cl10 Te26 3.819175 1_555
Cl10 Te14 3.844620 1_555
Cl10 Te18 3.870931 1_555
Cl11 Ga3 2.229614 1_555
Cl11 Sb19 3.251838 1_655
Cl11 Te27 3.819175 1_655
Cl11 Te15 3.844620 1_655
Cl11 Te19 3.870931 1_655
Cl12 Ga0 2.228033 1_555
Cl12 Sb10 3.248760 1_555
Cl12 Te10 3.836723 1_565
Cl12 Te26 3.869991 1_565
Cl13 Ga1 2.228033 1_556
Cl13 Sb11 3.248760 1_555
Cl13 Te11 3.836723 1_555
Cl13 Te27 3.869991 1_555
Cl14 Ga2 2.228033 1_555
Cl14 Sb8 3.248760 1_555
Cl14 Te8 3.836723 1_545
Cl14 Te24 3.869991 1_545
Cl15 Ga3 2.228033 1_554
Cl15 Sb9 3.248760 1_555
Cl15 Te9 3.836723 1_555
Cl15 Te25 3.869991 1_555
Cl16 Ga4 2.217090 1_555
Cl16 Sb5 3.505267 1_555
Cl16 Sb20 3.535663 1_555
Cl16 Te16 3.884892 1_555
Cl17 Ga5 2.217090 1_555
Cl17 Sb4 3.505267 1_655
Cl17 Sb21 3.535663 1_555
Cl17 Te17 3.884892 1_555
Cl18 Ga6 2.217090 1_555
Cl18 Sb7 3.505267 1_555
Cl18 Sb22 3.535663 1_555
Cl18 Te18 3.884892 1_555
Cl19 Ga7 2.217090 1_555
Cl19 Sb6 3.505267 1_455
Cl19 Sb23 3.535663 1_555
Cl19 Te19 3.884892 1_555
Cl20 Ga4 2.169057 1_555
Cl20 Te29 3.798313 1_555
Cl20 Te0 3.871898 1_555
Cl20 Te17 3.887003 1_455
Cl21 Ga5 2.169057 1_555
Cl21 Te28 3.798313 1_655
Cl21 Te1 3.871898 1_555
Cl21 Te16 3.887003 1_555
Cl22 Ga6 2.169057 1_555
Cl22 Te31 3.798313 1_555
Cl22 Te2 3.871898 1_555
Cl22 Te19 3.887003 1_655
Cl23 Ga7 2.169057 1_555
Cl23 Te30 3.798313 1_455
Cl23 Te3 3.871898 1_555
Cl23 Te18 3.887003 1_555
Cl24 Ga4 2.216118 1_555
Cl24 Sb5 3.616204 1_555
Cl24 Sb13 3.704679 1_455
Cl24 Te13 3.865612 1_455
Cl24 Te9 3.956104 1_555
Cl25 Ga5 2.216118 1_555
Cl25 Sb4 3.616204 1_655
Cl25 Sb12 3.704679 1_555
Cl25 Te12 3.865612 1_555
Cl25 Te8 3.956104 1_655
Cl26 Ga6 2.216118 1_555
Cl26 Sb7 3.616204 1_555
Cl26 Sb15 3.704679 1_655
Cl26 Te15 3.865612 1_655
Cl26 Te11 3.956104 1_555
Cl27 Ga7 2.216118 1_555
Cl27 Sb6 3.616204 1_455
Cl27 Sb14 3.704679 1_555
Cl27 Te14 3.865612 1_555
Cl27 Te10 3.956104 1_455
Cl28 Ga4 2.209391 1_555
Cl28 Sb13 3.574224 1_455
Cl28 Sb20 3.617689 1_555
Cl28 Te28 3.940009 1_555
Cl28 Te1 4.067112 1_455
Cl29 Ga5 2.209391 1_555
Cl29 Sb12 3.574224 1_555
Cl29 Sb21 3.617689 1_555
Cl29 Te29 3.940009 1_555
Cl29 Te0 4.067112 1_555
Cl30 Ga6 2.209391 1_555
Cl30 Sb15 3.574224 1_655
Cl30 Sb22 3.617689 1_555
Cl30 Te30 3.940009 1_555
Cl30 Te3 4.067112 1_655
Cl31 Ga7 2.209391 1_555
Cl31 Sb14 3.574224 1_555
Cl31 Sb23 3.617689 1_555
Cl31 Te31 3.940009 1_555
Cl31 Te2 4.067112 1_555
Cl32 Ga8 2.315106 1_555
Cl32 Ga12 2.383396 1_555
Cl33 Ga9 2.315106 1_555
Cl33 Ga13 2.383396 1_545
Cl34 Ga10 2.315106 1_555
Cl34 Ga14 2.383396 1_555
Cl35 Ga11 2.315106 1_555
Cl35 Ga15 2.383396 1_565
Cl36 Ga8 2.206027 1_555
Cl36 Sb5 3.425989 1_555
Cl36 Te1 3.590281 1_555
Cl36 Sb13 3.796526 1_555
Cl36 Te5 3.858680 1_555
Cl37 Ga9 2.206027 1_565
Cl37 Sb4 3.425989 1_555
Cl37 Te0 3.590281 1_555
Cl37 Sb12 3.796526 1_555
Cl37 Te4 3.858680 1_565
Cl38 Ga10 2.206027 1_555
Cl38 Sb7 3.425989 1_555
Cl38 Te3 3.590281 1_555
Cl38 Sb15 3.796526 1_555
Cl38 Te7 3.858680 1_555
Cl39 Ga11 2.206027 1_545
Cl39 Sb6 3.425989 1_555
Cl39 Te2 3.590281 1_555
Cl39 Sb14 3.796526 1_555
Cl39 Te6 3.858680 1_545
Cl40 Ga8 2.196501 1_555
Cl40 Sb20 3.314769 1_555
Cl40 Te20 3.634977 1_555
Cl41 Ga9 2.196501 1_665
Cl41 Sb21 3.314769 1_555
Cl41 Te21 3.634977 1_555
Cl42 Ga10 2.196501 1_555
Cl42 Sb22 3.314769 1_555
Cl42 Te22 3.634977 1_555
Cl43 Ga11 2.196501 1_445
Cl43 Sb23 3.314769 1_555
Cl43 Te23 3.634977 1_555
Cl44 Ga8 2.149073 1_555
Cl44 Te5 4.022758 1_555
Cl45 Ga9 2.149073 1_555
Cl45 Te4 4.022758 1_555
Cl46 Ga10 2.149073 1_555
Cl46 Te7 4.022758 1_555
Cl47 Ga11 2.149073 1_555
Cl47 Te6 4.022758 1_555
Cl48 Ga12 2.183560 1_555
Cl48 Sb16 3.880976 1_555
Cl48 Te16 3.933095 1_555
Cl49 Ga13 2.183560 1_555
Cl49 Sb17 3.880976 1_455
Cl49 Te17 3.933095 1_455
Cl50 Ga14 2.183560 1_555
Cl50 Sb18 3.880976 1_555
Cl50 Te18 3.933095 1_555
Cl51 Ga15 2.183560 1_555
Cl51 Sb19 3.880976 1_655
Cl51 Te19 3.933095 1_655
Cl52 Ga12 2.160026 1_555
Cl52 Sb16 3.819893 1_555
Cl53 Ga13 2.160026 1_555
Cl53 Sb17 3.819893 1_455
Cl54 Ga14 2.160026 1_555
Cl54 Sb18 3.819893 1_555
Cl55 Ga15 2.160026 1_555
Cl55 Sb19 3.819893 1_655
Cl56 Ga12 2.169871 1_555
Cl56 Sb24 3.714890 1_655
Cl56 Te20 3.840051 1_655
Cl57 Ga13 2.169871 1_555
Cl57 Sb25 3.714890 1_555
Cl57 Te21 3.840051 1_555
Cl58 Ga14 2.169871 1_555
Cl58 Sb26 3.714890 1_455
Cl58 Te22 3.840051 1_455
Cl59 Ga15 2.169871 1_555
Cl59 Sb27 3.714890 1_555
Cl59 Te23 3.840051 1_555
Cl60 Ga20 2.350643 1_555
Cl60 Ga16 2.350676 1_555
Cl61 Ga21 2.350643 1_555
Cl61 Ga17 2.350676 1_555
Cl62 Ga22 2.350643 1_555
Cl62 Ga18 2.350676 1_555
Cl63 Ga23 2.350643 1_555
Cl63 Ga19 2.350676 1_555
Cl64 Ga16 2.182284 1_555
Cl64 Te27 3.621648 1_554
Cl64 Te13 3.664829 1_455
Cl64 Sb9 3.928106 1_455
Cl65 Ga17 2.182284 1_555
Cl65 Te26 3.621648 1_555
Cl65 Te12 3.664829 1_545
Cl65 Sb8 3.928106 1_555
Cl66 Ga18 2.182284 1_555
Cl66 Te25 3.621648 1_556
Cl66 Te15 3.664829 1_655
Cl66 Sb11 3.928106 1_655
Cl67 Ga19 2.182284 1_555
Cl67 Te24 3.621648 1_555
Cl67 Te14 3.664829 1_565
Cl67 Sb10 3.928106 1_555
Cl68 Ga16 2.176985 1_555
Cl68 Sb19 3.409901 1_554
Cl69 Ga17 2.176985 1_555
Cl69 Sb18 3.409901 1_555
Cl70 Ga18 2.176985 1_555
Cl70 Sb17 3.409901 1_556
Cl71 Ga19 2.176985 1_555
Cl71 Sb16 3.409901 1_555
Cl72 Ga16 2.169993 1_655
Cl72 Sb9 3.459206 1_555
Cl73 Ga17 2.169993 1_555
Cl73 Sb8 3.459206 1_555
Cl74 Ga18 2.169993 1_455
Cl74 Sb11 3.459206 1_555
Cl75 Ga19 2.169993 1_555
Cl75 Sb10 3.459206 1_555
Cl76 Ga20 2.179661 1_555
Cl76 Sb9 3.357436 1_555
Cl77 Ga21 2.179661 1_455
Cl77 Sb8 3.357436 1_555
Cl78 Ga22 2.179661 1_555
Cl78 Sb11 3.357436 1_555
Cl79 Ga23 2.179661 1_655
Cl79 Sb10 3.357436 1_555
Cl80 Ga20 2.174561 1_555
Cl80 Sb27 3.453737 1_554
Cl81 Ga21 2.174561 1_555
Cl81 Sb26 3.453737 1_555
Cl82 Ga22 2.174561 1_555
Cl82 Sb25 3.453737 1_556
Cl83 Ga23 2.174561 1_555
Cl83 Sb24 3.453737 1_555
Cl84 Ga20 2.176903 1_555
Cl84 Te27 3.624255 1_554
Cl84 Te9 3.695233 1_555
Cl85 Ga21 2.176903 1_555
Cl85 Te26 3.624255 1_555
Cl85 Te8 3.695233 1_645
Cl86 Ga22 2.176903 1_555
Cl86 Te25 3.624255 1_556
Cl86 Te11 3.695233 1_555
Cl87 Ga23 2.176903 1_555
Cl87 Te24 3.624255 1_555
Cl87 Te10 3.695233 1_465
Cl88 Ga24 2.333372 1_555
Cl88 Ga28 2.403833 1_555
Cl89 Ga25 2.333372 1_555
Cl89 Ga29 2.403833 1_555
Cl90 Ga26 2.333372 1_555
Cl90 Ga30 2.403833 1_555
Cl91 Ga27 2.333372 1_555
Cl91 Ga31 2.403833 1_555
Cl92 Ga24 2.197711 1_555
Cl92 Sb13 3.287134 1_455
Cl92 Te5 3.719746 1_455
Cl93 Ga25 2.197711 1_555
Cl93 Sb12 3.287134 1_545
Cl93 Te4 3.719746 1_555
Cl94 Ga26 2.197711 1_555
Cl94 Sb15 3.287134 1_655
Cl94 Te7 3.719746 1_655
Cl95 Ga27 2.197711 1_555
Cl95 Sb14 3.287134 1_565
Cl95 Te6 3.719746 1_555
Cl96 Ga24 2.197271 1_555
Cl96 Sb5 3.260649 1_555
Cl96 Te5 3.776452 1_555
Cl97 Ga25 2.197271 1_555
Cl97 Sb4 3.260649 1_645
Cl97 Te4 3.776452 1_655
Cl98 Ga26 2.197271 1_555
Cl98 Sb7 3.260649 1_555
Cl98 Te7 3.776452 1_555
Cl99 Ga27 2.197271 1_555
Cl99 Sb6 3.260649 1_465
Cl99 Te6 3.776452 1_455
Cl100 Ga24 2.146592 1_555
Cl100 Te4 3.627767 1_555
Cl101 Ga25 2.146592 1_555
Cl101 Te5 3.627767 1_555
Cl102 Ga26 2.146592 1_555
Cl102 Te6 3.627767 1_555
Cl103 Ga27 2.146592 1_555
Cl103 Te7 3.627767 1_555
Cl104 Ga28 2.221516 1_555
Cl104 Sb20 3.134187 1_555
Cl104 Te28 3.774032 1_555
Cl105 Ga29 2.221516 1_565
Cl105 Sb21 3.134187 1_555
Cl105 Te29 3.774032 1_555
Cl106 Ga30 2.221516 1_555
Cl106 Sb22 3.134187 1_555
Cl106 Te30 3.774032 1_555
Cl107 Ga31 2.221516 1_545
Cl107 Sb23 3.134187 1_555
Cl107 Te31 3.774032 1_555
Cl108 Ga28 2.153921 1_655
Cl108 Te5 4.086695 1_555
Cl109 Ga29 2.153921 1_555
Cl109 Te4 4.086695 1_555
Cl110 Ga30 2.153921 1_455
Cl110 Te7 4.086695 1_555
Cl111 Ga31 2.153921 1_555
Cl111 Te6 4.086695 1_555
Cl112 Ga28 2.136951 1_555
Cl112 Te20 4.097493 1_555
Cl113 Ga29 2.136951 1_555
Cl113 Te21 4.097493 1_545
Cl114 Ga30 2.136951 1_555
Cl114 Te22 4.097493 1_555
Cl115 Ga31 2.136951 1_555
Cl115 Te23 4.097493 1_565
