# generated using pymatgen
data_Cs3Te22
_symmetry_space_group_name_H-M   'P 1'
_cell_length_a   9.63801408
_cell_length_b   9.63940440
_cell_length_c   12.52881584
_cell_angle_alpha   112.65847003
_cell_angle_beta   112.58879312
_cell_angle_gamma   89.99596413
_symmetry_Int_Tables_number   1
_chemical_formula_structural   Cs3Te22
_chemical_formula_sum   'Cs3 Te22'
_cell_volume   976.68694804
_cell_formula_units_Z   1
loop_
 _symmetry_equiv_pos_site_id
 _symmetry_equiv_pos_as_xyz
  1  'x, y, z'
loop_
 _atom_site_type_symbol
 _atom_site_label
 _atom_site_symmetry_multiplicity
 _atom_site_fract_x
 _atom_site_fract_y
 _atom_site_fract_z
 _atom_site_occupancy
  Cs  Cs0  1  0.17501085  0.17529516  0.34940679  1
  Cs  Cs1  1  0.82531066  0.82636261  0.65080856  1
  Cs  Cs2  1  0.50014427  0.50089582  0.00000790  1
  Te  Te0  1  0.89997136  0.80590508  0.00020493  1
  Te  Te1  1  0.09908233  0.52419532  0.76728548  1
  Te  Te2  1  0.24495561  0.09901411  0.76703049  1
  Te  Te3  1  0.01317770  0.21062130  0.61968528  1
  Te  Te4  1  0.33072379  0.75563111  0.23356226  1
  Te  Te5  1  -0.01236525  0.79186429  0.38096813  1
  Te  Te6  1  0.67004018  0.24628687  0.76767864  1
  Te  Te7  1  0.47774238  0.33157652  0.23317617  1
  Te  Te8  1  0.80729814  0.10070001  0.00038469  1
  Te  Te9  1  0.52345115  0.66990244  0.76731689  1
  Te  Te10  1  0.75500802  0.90224249  0.23291149  1
  Te  Te11  1  0.90126525  0.47855839  0.23301913  1
  Te  Te12  1  0.41105205  0.01354572  0.61992817  1
  Te  Te13  1  0.58974742  -0.01195471  0.38116972  1
  Te  Te14  1  0.21000780  0.60785518  0.61926134  1
  Te  Te15  1  0.19425237  0.90107553  0.00024874  1
  Te  Te16  1  0.60811253  0.41115642  0.61953933  1
  Te  Te17  1  -0.00015320  0.50159712  0.00031908  1
  Te  Te18  1  0.79071148  0.39346025  0.38106435  1
  Te  Te19  1  0.09943840  0.19240324  0.00027889  1
  Te  Te20  1  0.49955248  0.00013281  0.00068250  1
  Te  Te21  1  0.39250422  0.59015792  0.38111103  1
loop_
_geom_bond_atom_site_label_1
_geom_bond_atom_site_label_2
_geom_bond_distance
_geom_bond_site_symmetry_2
Cs0 Te3 4.145440 1_555
Cs0 Te14 4.146429 1_555
Cs0 Te12 4.152290 1_555
Cs0 Te16 4.155407 1_555
Cs0 Te19 4.218906 1_555
Cs0 Te7 4.225892 1_555
Cs0 Te8 4.227408 1_455
Cs0 Te15 4.227532 1_545
Cs0 Te4 4.227548 1_545
Cs0 Te0 4.235073 1_445
Cs0 Te10 4.236394 1_445
Cs0 Te11 4.237984 1_455
Cs0 Te21 4.322236 1_555
Cs0 Te13 4.327192 1_555
Cs0 Te5 4.330602 1_545
Cs0 Te18 4.333985 1_455
Cs1 Te13 4.142470 1_565
Cs1 Te5 4.145465 1_655
Cs1 Te18 4.149054 1_555
Cs1 Te21 4.153029 1_555
Cs1 Te19 4.220459 1_666
Cs1 Te9 4.222426 1_555
Cs1 Te8 4.226823 1_566
Cs1 Te6 4.228982 1_565
Cs1 Te1 4.229840 1_655
Cs1 Te2 4.232563 1_665
Cs1 Te15 4.235767 1_656
Cs1 Te0 4.238463 1_556
Cs1 Te12 4.323950 1_565
Cs1 Te16 4.326363 1_555
Cs1 Te3 4.336651 1_665
Cs1 Te14 4.338560 1_655
Cs2 Te10 3.913146 1_555
Cs2 Te11 3.915200 1_555
Cs2 Te6 3.915919 1_554
Cs2 Te1 3.916581 1_554
Cs2 Te2 3.917948 1_554
Cs2 Te9 3.919975 1_554
Cs2 Te4 3.923295 1_555
Cs2 Te7 3.924645 1_555
Te0 Te8 2.978087 1_565
Te0 Te15 2.980753 1_655
Te0 Te17 3.087541 1_655
Te0 Te9 3.510035 1_554
Te0 Te10 3.515383 1_555
Te1 Te3 2.785530 1_555
Te1 Te14 2.812177 1_555
Te1 Te17 3.481632 1_556
Te1 Te15 3.511755 1_556
Te2 Te3 2.813775 1_555
Te2 Te20 3.482868 1_556
Te6 Te8 3.522640 1_556
Te10 Te13 2.785740 1_565
Te10 Te5 2.815154 1_655
Te10 Te20 3.468353 1_565
Te11 Te5 2.784158 1_655
Te11 Te18 2.817679 1_555
Te11 Te17 3.475468 1_655
Te11 Te8 3.517822 1_555
Te12 Te2 2.781124 1_555
Te12 Te6 2.818133 1_555
Te13 Te4 2.816622 1_545
Te14 Te9 2.786634 1_555
Te15 Te19 2.953012 1_565
Te15 Te20 3.090973 1_565
Te15 Te4 3.527607 1_555
Te16 Te6 2.783556 1_555
Te16 Te9 2.813708 1_555
Te17 Te19 3.131007 1_555
Te17 Te6 3.465975 1_454
Te17 Te4 3.469024 1_555
Te18 Te7 2.782564 1_555
Te19 Te8 2.951849 1_455
Te19 Te7 3.524130 1_555
Te19 Te2 3.526886 1_554
Te20 Te8 3.122331 1_555
Te20 Te7 3.469362 1_555
Te20 Te9 3.475763 1_544
Te21 Te4 2.782489 1_555
Te21 Te7 2.816571 1_555
