# generated using pymatgen
data_Na3CuF6
_symmetry_space_group_name_H-M   'P 1'
_cell_length_a   5.38832526
_cell_length_b   5.65381396
_cell_length_c   7.75861989
_cell_angle_alpha   90.00000000
_cell_angle_beta   89.57151127
_cell_angle_gamma   90.00000000
_symmetry_Int_Tables_number   1
_chemical_formula_structural   Na3CuF6
_chemical_formula_sum   'Na6 Cu2 F12'
_cell_volume   236.35655289
_cell_formula_units_Z   2
loop_
 _symmetry_equiv_pos_site_id
 _symmetry_equiv_pos_as_xyz
  1  'x, y, z'
loop_
 _atom_site_type_symbol
 _atom_site_label
 _atom_site_symmetry_multiplicity
 _atom_site_fract_x
 _atom_site_fract_y
 _atom_site_fract_z
 _atom_site_occupancy
  Na  Na0  1  -0.00000000  0.00000000  0.50000000  1
  Na  Na1  1  0.50000000  0.50000000  0.00000000  1
  Na  Na2  1  0.01945188  0.43725564  0.25405553  1
  Na  Na3  1  0.98054812  0.56274436  0.74594447  1
  Na  Na4  1  0.48054812  0.93725564  0.24594447  1
  Na  Na5  1  0.51945188  0.06274436  0.75405553  1
  Cu  Cu0  1  -0.00000000  0.00000000  0.00000000  1
  Cu  Cu1  1  0.50000000  0.50000000  0.50000000  1
  F  F0  1  0.16778404  0.72140134  0.07093840  1
  F  F1  1  0.83221596  0.27859866  0.92906160  1
  F  F2  1  0.33221596  0.22140134  0.42906160  1
  F  F3  1  0.66778404  0.77859866  0.57093840  1
  F  F4  1  0.88193949  0.05395101  0.22705140  1
  F  F5  1  0.11806051  0.94604899  0.77294860  1
  F  F6  1  0.61806051  0.55395101  0.27294860  1
  F  F7  1  0.38193949  0.44604899  0.72705140  1
  F  F8  1  0.28622286  0.17740739  0.05235258  1
  F  F9  1  0.71377714  0.82259261  0.94764742  1
  F  F10  1  0.21377714  0.67740739  0.44764742  1
  F  F11  1  0.78622286  0.32259261  0.55235258  1
loop_
_geom_bond_atom_site_label_1
_geom_bond_atom_site_label_2
_geom_bond_distance
_geom_bond_site_symmetry_2
Cu0 F9 1.886529 1_444
Cu0 F8 1.886529 1_555
Cu0 F4 1.893204 1_455
Cu0 F5 1.893204 1_544
Cu0 F0 1.899684 1_545
Cu0 F1 1.899684 1_454
Cu1 F11 1.886529 1_555
Cu1 F10 1.886529 1_555
Cu1 F6 1.893204 1_555
Cu1 F7 1.893204 1_555
Cu1 F2 1.899684 1_555
Cu1 F3 1.899684 1_555
F0 Na1 2.249335 1_555
F0 Na2 2.284993 1_555
F0 Na4 2.491463 1_555
F0 F5 2.653213 1_554
F0 Na3 2.866798 1_454
F1 Na1 2.249335 1_556
F1 Na3 2.284993 1_555
F1 Na5 2.491463 1_555
F1 F4 2.653213 1_556
F1 Na2 2.866798 1_656
F2 Na0 2.249335 1_555
F2 Na4 2.284993 1_545
F2 Na2 2.491463 1_555
F2 F7 2.653213 1_555
F2 Na5 2.866798 1_555
F3 Na0 2.249335 1_665
F3 Na5 2.284993 1_565
F3 Na3 2.491463 1_555
F3 F6 2.653213 1_555
F3 Na4 2.866798 1_555
F4 Na0 2.236638 1_655
F4 Na4 2.264921 1_545
F4 Na2 2.300371 1_655
F5 Na0 2.236638 1_565
F5 Na5 2.264921 1_565
F5 Na3 2.300371 1_455
F6 Na1 2.236638 1_555
F6 Na2 2.264921 1_655
F6 Na4 2.300371 1_555
F7 Na1 2.236638 1_556
F7 Na3 2.264921 1_455
F7 Na5 2.300371 1_555
F8 Na1 2.193489 1_555
F8 Na4 2.284619 1_545
F8 Na2 2.576818 1_555
F8 Na5 2.704149 1_554
F9 Na1 2.193489 1_556
F9 Na5 2.284619 1_565
F9 Na3 2.576818 1_555
F9 Na4 2.704149 1_556
F10 Na0 2.193489 1_565
F10 Na2 2.284619 1_555
F10 Na4 2.576818 1_555
F10 Na3 2.704149 1_455
F11 Na0 2.193489 1_655
F11 Na3 2.284619 1_555
F11 Na5 2.576818 1_555
F11 Na2 2.704149 1_655
