# generated using pymatgen
data_SbPbF7
_symmetry_space_group_name_H-M   'P 1'
_cell_length_a   4.71514383
_cell_length_b   7.38346846
_cell_length_c   7.64847531
_cell_angle_alpha   106.44577957
_cell_angle_beta   102.31479609
_cell_angle_gamma   90.26792045
_symmetry_Int_Tables_number   1
_chemical_formula_structural   SbPbF7
_chemical_formula_sum   'Sb2 Pb2 F14'
_cell_volume   248.90278938
_cell_formula_units_Z   2
loop_
 _symmetry_equiv_pos_site_id
 _symmetry_equiv_pos_as_xyz
  1  'x, y, z'
loop_
 _atom_site_type_symbol
 _atom_site_label
 _atom_site_symmetry_multiplicity
 _atom_site_fract_x
 _atom_site_fract_y
 _atom_site_fract_z
 _atom_site_occupancy
  Sb  Sb0  1  0.35314289  0.18478548  0.28340684  1
  Sb  Sb1  1  0.64685711  0.81521452  0.71659316  1
  Pb  Pb0  1  0.83148694  0.64773871  0.20163531  1
  Pb  Pb1  1  0.16851306  0.35226129  0.79836469  1
  F  F0  1  0.71951057  0.43442339  0.90931785  1
  F  F1  1  0.28048943  0.56557661  0.09068215  1
  F  F2  1  0.05234568  0.05516562  0.33841936  1
  F  F3  1  0.94765432  0.94483438  0.66158064  1
  F  F4  1  0.48741699  0.94882473  0.17166498  1
  F  F5  1  0.51258301  0.05117527  0.82833502  1
  F  F6  1  0.58490519  0.19981613  0.52297996  1
  F  F7  1  0.41509481  0.80018387  0.47702004  1
  F  F8  1  0.65336104  0.31604789  0.22797599  1
  F  F9  1  0.34663896  0.68395211  0.77202401  1
  F  F10  1  0.20775991  0.41873625  0.39585774  1
  F  F11  1  0.79224009  0.58126375  0.60414226  1
  F  F12  1  0.11761922  0.18658112  0.04802063  1
  F  F13  1  0.88238078  0.81341888  0.95197937  1
loop_
_geom_bond_atom_site_label_1
_geom_bond_atom_site_label_2
_geom_bond_distance
_geom_bond_site_symmetry_2
F0 Pb0 2.291934 1_556
F0 Pb1 2.461144 1_655
F0 Pb1 2.567342 1_555
F0 F1 2.740218 1_656
F0 F1 2.762260 1_556
F0 F13 2.807620 1_555
F0 F9 2.815378 1_555
F0 F5 2.840214 1_555
F0 F12 2.877433 1_656
F0 F8 2.886046 1_556
F0 F6 2.902817 1_555
F0 F11 2.917547 1_555
F1 Pb1 2.291934 1_554
F1 Pb0 2.461144 1_455
F1 Pb0 2.567342 1_555
F1 F12 2.807620 1_555
F1 F8 2.815378 1_555
F1 F4 2.840214 1_555
F1 F13 2.877433 1_454
F1 F9 2.886046 1_554
F1 F7 2.902817 1_555
F1 F10 2.917547 1_555
F2 Sb0 1.890616 1_555
F2 F6 2.654834 1_555
F2 Pb0 2.992054 1_445
F3 Sb1 1.890616 1_555
F3 F7 2.654834 1_555
F3 Pb1 2.992054 1_665
F4 Sb0 1.888018 1_565
F4 Pb0 2.791085 1_555
F5 Sb1 1.888018 1_545
F5 Pb1 2.791085 1_555
F6 Sb0 1.895695 1_555
F6 Pb1 3.071150 1_655
F6 Pb1 3.162332 1_555
F7 Sb1 1.895695 1_555
F7 Pb0 3.071150 1_455
F7 Pb0 3.162332 1_555
F8 Sb0 1.897026 1_555
F8 Pb0 2.660086 1_555
F9 Sb1 1.897026 1_555
F9 Pb1 2.660086 1_555
F10 Sb0 1.901265 1_555
F10 F6 2.626710 1_555
F10 F8 2.656202 1_455
F10 F2 2.666946 1_555
F10 F12 2.669350 1_555
F10 Pb0 2.922219 1_455
F11 Sb1 1.901265 1_555
F11 F7 2.626710 1_555
F11 F9 2.656202 1_655
F11 F3 2.666946 1_555
F11 F13 2.669350 1_555
F11 Pb1 2.922219 1_655
F12 Sb0 1.906698 1_555
F12 Pb1 2.591428 1_554
F12 F8 2.634143 1_555
F13 Sb1 1.906698 1_555
F13 Pb0 2.591428 1_556
F13 F9 2.634143 1_555
