# generated using pymatgen
data_ZnCoSiO5
_symmetry_space_group_name_H-M   'P 1'
_cell_length_a   5.36957400
_cell_length_b   5.44938706
_cell_length_c   6.84954253
_cell_angle_alpha   106.57914509
_cell_angle_beta   107.28866462
_cell_angle_gamma   99.61285563
_symmetry_Int_Tables_number   1
_chemical_formula_structural   ZnCoSiO5
_chemical_formula_sum   'Zn2 Co2 Si2 O10'
_cell_volume   176.33356238
_cell_formula_units_Z   2
loop_
 _symmetry_equiv_pos_site_id
 _symmetry_equiv_pos_as_xyz
  1  'x, y, z'
loop_
 _atom_site_type_symbol
 _atom_site_label
 _atom_site_symmetry_multiplicity
 _atom_site_fract_x
 _atom_site_fract_y
 _atom_site_fract_z
 _atom_site_occupancy
  Zn  Zn0  1  0.27217200  0.64193400  0.73804700  1
  Zn  Zn1  1  0.72782800  0.35806600  0.26195300  1
  Co  Co0  1  0.00000000  0.00000000  0.50000000  1
  Co  Co1  1  0.00000000  0.00000000  0.00000000  1
  Si  Si0  1  0.66466300  0.35929000  0.75107400  1
  Si  Si1  1  0.33533700  0.64071000  0.24892600  1
  O  O0  1  0.76177600  0.23129400  0.94072000  1
  O  O1  1  0.83069200  0.30934000  0.58359600  1
  O  O2  1  0.23822400  0.76870600  0.05928000  1
  O  O3  1  0.16930800  0.69066000  0.41640400  1
  O  O4  1  0.65682800  0.73160300  0.37852000  1
  O  O5  1  0.31433600  0.31155500  0.14071300  1
  O  O6  1  0.34317200  0.26839700  0.62148000  1
  O  O7  1  0.68566400  0.68844500  0.85928700  1
  O  O8  1  0.91314900  0.07075600  0.24456600  1
  O  O9  1  0.08685100  0.92924400  0.75543400  1
loop_
_geom_bond_atom_site_label_1
_geom_bond_atom_site_label_2
_geom_bond_distance
_geom_bond_site_symmetry_2
Co0 O9 1.840475 1_545
Co0 O8 1.840475 1_455
Co0 O6 1.929013 1_555
Co0 O4 1.929013 1_445
Co0 O1 2.065519 1_455
Co0 O3 2.065519 1_545
Co1 O8 1.824313 1_455
Co1 O9 1.824313 1_544
Co1 O5 1.949988 1_555
Co1 O7 1.949988 1_444
Co1 O0 1.977770 1_454
Co1 O2 1.977770 1_545
O0 Si0 1.637596 1_555
O0 Zn1 2.182840 1_556
O1 Si0 1.641806 1_555
O1 Zn1 2.211067 1_555
O1 Zn0 2.450285 1_655
O2 Si1 1.637596 1_555
O2 Zn0 2.182840 1_554
O3 Si1 1.641806 1_555
O3 Zn0 2.211067 1_555
O3 Zn1 2.450285 1_455
O4 Si1 1.601882 1_555
O4 Zn1 2.106870 1_555
O5 Si1 1.703963 1_555
O5 Zn1 2.068702 1_555
O6 Si0 1.601882 1_555
O6 Zn0 2.106870 1_555
O7 Si0 1.703963 1_555
O7 Zn0 2.068702 1_555
O8 Zn1 1.984959 1_555
O9 Zn0 1.984959 1_555
