# generated using pymatgen
data_Mn3Fe2SiC
_symmetry_space_group_name_H-M   'P 1'
_cell_length_a   6.34408395
_cell_length_b   6.34408395
_cell_length_c   7.41388500
_cell_angle_alpha   90.00000000
_cell_angle_beta   90.00000000
_cell_angle_gamma   103.51547823
_symmetry_Int_Tables_number   1
_chemical_formula_structural   Mn3Fe2SiC
_chemical_formula_sum   'Mn12 Fe8 Si4 C4'
_cell_volume   290.12624668
_cell_formula_units_Z   4
loop_
 _symmetry_equiv_pos_site_id
 _symmetry_equiv_pos_as_xyz
  1  'x, y, z'
loop_
 _atom_site_type_symbol
 _atom_site_label
 _atom_site_symmetry_multiplicity
 _atom_site_fract_x
 _atom_site_fract_y
 _atom_site_fract_z
 _atom_site_occupancy
  Mn  Mn0  1  0.14678800  0.14678800  0.41170800  1
  Mn  Mn1  1  0.85321200  0.85321200  0.91170800  1
  Mn  Mn2  1  0.48610600  0.19088200  0.22492000  1
  Mn  Mn3  1  0.51389400  0.80911800  0.72492000  1
  Mn  Mn4  1  0.80911800  0.51389400  0.72492000  1
  Mn  Mn5  1  0.19088200  0.48610600  0.22492000  1
  Mn  Mn6  1  0.46402100  0.46402100  0.92169400  1
  Mn  Mn7  1  0.53597900  0.53597900  0.42169400  1
  Mn  Mn8  1  0.51571600  0.81357700  0.09843800  1
  Mn  Mn9  1  0.48428400  0.18642200  0.59843800  1
  Mn  Mn10  1  0.18642200  0.48428400  0.59843800  1
  Mn  Mn11  1  0.81357700  0.51571600  0.09843800  1
  Fe  Fe0  1  0.69258800  0.93353500  0.40999100  1
  Fe  Fe1  1  0.30741200  0.06646500  0.90999100  1
  Fe  Fe2  1  0.06646500  0.30741200  0.90999100  1
  Fe  Fe3  1  0.93353500  0.69258800  0.40999100  1
  Fe  Fe4  1  0.12578900  0.87845900  0.16107800  1
  Fe  Fe5  1  0.87421100  0.12154100  0.66107800  1
  Fe  Fe6  1  0.12154100  0.87421100  0.66107800  1
  Fe  Fe7  1  0.87845900  0.12578900  0.16107800  1
  Si  Si0  1  0.32757900  0.82207400  0.41136700  1
  Si  Si1  1  0.67242100  0.17792600  0.91136700  1
  Si  Si2  1  0.17792600  0.67242100  0.91136700  1
  Si  Si3  1  0.82207400  0.32757900  0.41136700  1
  C  C0  1  0.19159700  0.19159700  0.69865500  1
  C  C1  1  0.80840300  0.80840300  0.19865500  1
  C  C2  1  0.19633800  0.19633800  0.12135700  1
  C  C3  1  0.80366200  0.80366200  0.62135700  1
loop_
_geom_bond_atom_site_label_1
_geom_bond_atom_site_label_2
_geom_bond_distance
_geom_bond_site_symmetry_2
Mn0 Mn9 2.512460 1_555
Mn0 Mn10 2.512460 1_555
Mn0 Mn2 2.519619 1_555
Mn0 Mn5 2.519619 1_555
Mn0 Si0 2.581384 1_545
Mn0 Si3 2.581384 1_455
Mn1 Mn11 2.512459 1_556
Mn1 Mn8 2.512459 1_556
Mn1 Mn3 2.519619 1_555
Mn1 Mn4 2.519619 1_555
Mn1 Si1 2.581384 1_565
Mn1 Si2 2.581384 1_655
Mn2 Si3 2.518282 1_555
Mn2 Mn7 2.588000 1_555
Mn2 Si1 2.617874 1_554
Mn2 Mn8 2.618084 1_545
Mn2 Si0 2.701248 1_545
Mn2 Mn9 2.769361 1_555
Mn2 Mn6 2.861755 1_554
Mn3 Si2 2.518282 1_555
Mn3 Mn6 2.588000 1_555
Mn3 Si0 2.617874 1_555
Mn3 Mn9 2.618078 1_565
Mn3 Si1 2.701248 1_565
Mn3 Mn8 2.769361 1_556
Mn3 Mn7 2.861755 1_555
Mn4 Si1 2.518282 1_555
Mn4 Mn6 2.588000 1_555
Mn4 Si3 2.617874 1_555
Mn4 Si2 2.701248 1_655
Mn4 Mn9 2.727824 1_555
Mn4 Mn7 2.861755 1_555
Mn5 Si0 2.518282 1_555
Mn5 Mn7 2.588000 1_555
Mn5 Si2 2.617874 1_554
Mn5 Si3 2.701248 1_455
Mn5 Mn8 2.727820 1_555
Mn5 Mn6 2.861755 1_554
Mn6 Si2 2.483893 1_555
Mn6 Si1 2.483893 1_555
Mn6 Mn8 2.530308 1_556
Mn6 Mn9 2.994573 1_555
Mn7 Si3 2.483893 1_555
Mn7 Si0 2.483893 1_555
Mn7 Mn9 2.530314 1_555
Mn7 Mn8 2.994569 1_555
Mn8 Si2 2.533931 1_554
Mn8 Si0 2.615349 1_555
Mn8 Si1 2.679673 1_564
Mn9 Si3 2.533932 1_555
Mn9 Si1 2.615348 1_555
Mn9 Si0 2.679668 1_545
Mn10 Mn7 2.530314 1_555
Mn10 Si0 2.533932 1_555
Mn10 Si2 2.615348 1_555
Mn10 Mn4 2.618078 1_455
Mn10 Si3 2.679668 1_455
Mn10 Mn3 2.727824 1_555
Mn10 Mn5 2.769361 1_555
Mn10 Mn6 2.994573 1_555
Mn11 Mn6 2.530308 1_554
Mn11 Si1 2.533931 1_554
Mn11 Si3 2.615349 1_555
Mn11 Mn5 2.618084 1_655
Mn11 Si2 2.679673 1_654
Mn11 Mn2 2.727820 1_555
Mn11 Mn4 2.769361 1_554
Mn11 Mn7 2.994569 1_555
Fe0 Si0 2.257649 1_555
Fe0 Fe5 2.360754 1_565
Fe0 Fe7 2.368835 1_565
Fe0 Fe3 2.401108 1_555
Fe0 Si3 2.442191 1_565
Fe0 Mn7 2.486869 1_555
Fe0 Mn8 2.602760 1_555
Fe0 Mn3 2.634662 1_555
Fe0 Mn9 2.695031 1_565
Fe0 Mn2 2.695127 1_565
Fe0 Mn0 2.882929 1_665
Fe1 Si1 2.257649 1_555
Fe1 Fe4 2.360754 1_546
Fe1 Fe6 2.368835 1_545
Fe1 Fe2 2.401108 1_555
Fe1 Si2 2.442191 1_545
Fe1 Mn6 2.486869 1_555
Fe1 Mn9 2.602759 1_555
Fe1 Mn2 2.634662 1_556
Fe1 Mn8 2.695035 1_546
Fe1 Mn3 2.695127 1_545
Fe1 Mn1 2.882929 1_445
Fe2 Si2 2.257649 1_555
Fe2 Fe7 2.360754 1_456
Fe2 Fe5 2.368835 1_455
Fe2 Si1 2.442191 1_455
Fe2 Mn6 2.486869 1_555
Fe2 Mn10 2.602759 1_555
Fe2 Mn5 2.634662 1_556
Fe2 Mn11 2.695035 1_456
Fe2 Mn4 2.695127 1_455
Fe2 Mn1 2.882929 1_445
Fe3 Si3 2.257649 1_555
Fe3 Fe6 2.360754 1_655
Fe3 Fe4 2.368835 1_655
Fe3 Si0 2.442191 1_655
Fe3 Mn7 2.486869 1_555
Fe3 Mn11 2.602760 1_555
Fe3 Mn4 2.634662 1_555
Fe3 Mn10 2.695031 1_655
Fe3 Mn5 2.695127 1_655
Fe3 Mn0 2.882929 1_665
Fe4 Si0 2.328980 1_555
Fe4 Si2 2.333983 1_554
Fe4 Mn0 2.502453 1_565
Fe4 Mn1 2.510890 1_454
Fe4 Mn8 2.642040 1_555
Fe4 Mn5 2.659086 1_555
Fe5 Si1 2.328980 1_555
Fe5 Si3 2.333983 1_555
Fe5 Mn1 2.502453 1_545
Fe5 Mn0 2.510890 1_655
Fe5 Mn9 2.642038 1_555
Fe5 Mn4 2.659086 1_555
Fe6 Si2 2.328980 1_555
Fe6 Si0 2.333983 1_555
Fe6 Mn1 2.502453 1_455
Fe6 Mn0 2.510890 1_565
Fe6 Mn10 2.642038 1_555
Fe6 Mn3 2.659086 1_555
Fe7 Si3 2.328980 1_555
Fe7 Si1 2.333983 1_554
Fe7 Mn0 2.502453 1_655
Fe7 Mn1 2.510890 1_544
Fe7 Mn11 2.642040 1_555
Fe7 Mn2 2.659086 1_555
C0 Fe2 1.974233 1_555
C0 Fe1 1.974233 1_555
C0 Fe6 1.977658 1_545
C0 Fe5 1.977658 1_455
C0 Mn9 2.007346 1_555
C0 Mn10 2.007346 1_555
C0 Mn0 2.156304 1_555
C0 Mn6 2.704090 1_555
C1 Fe3 1.974233 1_555
C1 Fe0 1.974233 1_555
C1 Fe4 1.977658 1_655
C1 Fe7 1.977658 1_565
C1 Mn8 2.007345 1_555
C1 Mn11 2.007345 1_555
C1 Mn1 2.156304 1_554
C1 Mn7 2.704090 1_555
C2 Fe2 1.975450 1_554
C2 Fe1 1.975450 1_554
C2 Fe7 1.982936 1_455
C2 Fe4 1.982936 1_545
C2 Mn5 1.999964 1_555
C2 Mn2 1.999964 1_555
C2 Mn0 2.187522 1_555
C2 Mn6 2.571193 1_554
C3 Fe0 1.975450 1_555
C3 Fe3 1.975450 1_555
C3 Fe5 1.982936 1_565
C3 Fe6 1.982936 1_655
C3 Mn4 1.999964 1_555
C3 Mn3 1.999964 1_555
C3 Mn1 2.187522 1_555
C3 Mn7 2.571193 1_555
