# generated using pymatgen
data_Ca2GdSbO6
_symmetry_space_group_name_H-M   'P 1'
_cell_length_a   5.87349419
_cell_length_b   5.87349419
_cell_length_c   5.87349583
_cell_angle_alpha   59.99999076
_cell_angle_beta   59.99999076
_cell_angle_gamma   60.00001848
_symmetry_Int_Tables_number   1
_chemical_formula_structural   Ca2GdSbO6
_chemical_formula_sum   'Ca2 Gd1 Sb1 O6'
_cell_volume   143.27643063
_cell_formula_units_Z   1
loop_
 _symmetry_equiv_pos_site_id
 _symmetry_equiv_pos_as_xyz
  1  'x, y, z'
loop_
 _atom_site_type_symbol
 _atom_site_label
 _atom_site_symmetry_multiplicity
 _atom_site_fract_x
 _atom_site_fract_y
 _atom_site_fract_z
 _atom_site_occupancy
  Ca  Ca0  1  0.25000000  0.25000000  0.25000000  1
  Ca  Ca1  1  0.75000000  0.75000000  0.75000000  1
  Gd  Gd0  1  -0.00000000  -0.00000000  0.00000000  1
  Sb  Sb0  1  0.50000000  0.50000000  0.50000000  1
  O  O0  1  0.73536247  0.26463753  0.26463753  1
  O  O1  1  0.26463753  0.73536247  0.73536247  1
  O  O2  1  0.73536247  0.26463753  0.73536247  1
  O  O3  1  0.26463753  0.73536247  0.26463753  1
  O  O4  1  0.73536257  0.73536257  0.26463743  1
  O  O5  1  0.26463743  0.26463743  0.73536257  1
loop_
_geom_bond_atom_site_label_1
_geom_bond_atom_site_label_2
_geom_bond_distance
_geom_bond_site_symmetry_2
Ca0 O1 2.939263 1_554
Ca0 O3 2.939263 1_545
Ca0 O2 2.939263 1_455
Ca0 O2 2.939263 1_554
Ca0 O1 2.939263 1_545
Ca0 O0 2.939263 1_555
Ca0 O0 2.939263 1_455
Ca0 O3 2.939263 1_555
Ca0 O5 2.939264 1_554
Ca0 O4 2.939264 1_545
Ca0 O4 2.939264 1_455
Ca0 O5 2.939264 1_555
Ca1 O2 2.939263 1_565
Ca1 O1 2.939263 1_655
Ca1 O3 2.939263 1_556
Ca1 O0 2.939263 1_556
Ca1 O3 2.939263 1_655
Ca1 O0 2.939263 1_565
Ca1 O1 2.939263 1_555
Ca1 O2 2.939263 1_555
Ca1 O4 2.939264 1_555
Ca1 O5 2.939264 1_655
Ca1 O5 2.939264 1_565
Ca1 O4 2.939264 1_556
Gd0 O4 2.198177 1_445
Gd0 O5 2.198177 1_554
Gd0 O3 2.198179 1_545
Gd0 O2 2.198179 1_454
Gd0 O1 2.198179 1_544
Gd0 O0 2.198179 1_455
O0 Sb0 1.955010 1_555
O1 Sb0 1.955010 1_555
O2 Sb0 1.955010 1_555
O3 Sb0 1.955010 1_555
O4 Sb0 1.955009 1_555
O5 Sb0 1.955009 1_555
