# generated using pymatgen
data_Mg16Al12Tc
_symmetry_space_group_name_H-M   'P 1'
_cell_length_a   9.41280138
_cell_length_b   8.93201535
_cell_length_c   8.93201531
_cell_angle_alpha   108.35526255
_cell_angle_beta   110.56536797
_cell_angle_gamma   110.56536069
_symmetry_Int_Tables_number   1
_chemical_formula_structural   Mg16Al12Tc
_chemical_formula_sum   'Mg16 Al12 Tc1'
_cell_volume   570.10200447
_cell_formula_units_Z   1
loop_
 _symmetry_equiv_pos_site_id
 _symmetry_equiv_pos_as_xyz
  1  'x, y, z'
loop_
 _atom_site_type_symbol
 _atom_site_label
 _atom_site_symmetry_multiplicity
 _atom_site_fract_x
 _atom_site_fract_y
 _atom_site_fract_z
 _atom_site_occupancy
  Mg  Mg0  1  0.31920700  0.59908300  0.99999900  1
  Mg  Mg1  1  0.00739200  0.35866000  0.99999900  1
  Mg  Mg2  1  0.57372800  0.26661800  0.00000000  1
  Mg  Mg3  1  0.98988400  0.00000100  0.00000000  1
  Mg  Mg4  1  0.57372800  0.00000000  0.26661800  1
  Mg  Mg5  1  0.68038200  0.67515100  0.27569400  1
  Mg  Mg6  1  0.00523100  0.60054200  0.32484900  1
  Mg  Mg7  1  0.00739200  0.00000000  0.35865900  1
  Mg  Mg8  1  0.40468800  0.72430700  0.39945800  1
  Mg  Mg9  1  0.72012500  0.40091700  0.40091700  1
  Mg  Mg10  1  0.31920700  0.00000000  0.59908300  1
  Mg  Mg11  1  0.00523000  0.32484900  0.60054300  1
  Mg  Mg12  1  0.64873100  0.64133900  0.64133900  1
  Mg  Mg13  1  0.68038200  0.27569400  0.67515100  1
  Mg  Mg14  1  0.40468800  0.39945800  0.72430700  1
  Mg  Mg15  1  0.30710900  0.73338100  0.73338200  1
  Al  Al0  1  0.81068500  0.61363000  0.00000000  1
  Al  Al1  1  0.65019700  0.80742400  0.00000000  1
  Al  Al2  1  0.36810000  0.36311200  0.18247500  1
  Al  Al3  1  0.18562400  0.81752300  0.18063400  1
  Al  Al4  1  0.84277200  0.19257600  0.19257600  1
  Al  Al5  1  0.36810000  0.18247500  0.36311200  1
  Al  Al6  1  0.19705400  0.38637000  0.38637100  1
  Al  Al7  1  0.81068500  0.00000100  0.61363000  1
  Al  Al8  1  0.00498900  0.81936500  0.63688800  1
  Al  Al9  1  0.65019700  0.00000100  0.80742400  1
  Al  Al10  1  0.00498900  0.63688800  0.81936500  1
  Al  Al11  1  0.18562300  0.18063500  0.81752300  1
  Tc  Tc0  1  0.27388200  0.00000000  0.00000000  1
loop_
_geom_bond_atom_site_label_1
_geom_bond_atom_site_label_2
_geom_bond_distance
_geom_bond_site_symmetry_2
Mg0 Mg1 2.966143 1_555
Mg0 Mg15 2.971144 1_555
Mg0 Mg4 2.971160 1_566
Mg0 Mg11 3.076707 1_555
Mg0 Mg8 3.076725 1_556
Mg0 Mg14 3.086275 1_555
Mg0 Mg5 3.086295 1_556
Mg1 Mg13 3.035016 1_455
Mg1 Mg6 3.035024 1_556
Mg1 Mg3 3.149443 1_456
Mg1 Mg11 3.476765 1_555
Mg1 Mg8 3.476786 1_556
Mg2 Mg9 2.971158 1_555
Mg2 Tc0 2.985806 1_555
Mg2 Mg5 3.227586 1_555
Mg2 Mg6 3.401598 1_655
Mg3 Tc0 2.673220 1_655
Mg3 Mg7 3.149443 1_655
Mg4 Mg9 2.971158 1_555
Mg4 Tc0 2.985806 1_555
Mg4 Mg8 3.227587 1_545
Mg4 Mg5 3.401600 1_545
Mg5 Mg7 3.035025 1_665
Mg5 Mg9 3.076712 1_555
Mg5 Mg6 3.264862 1_655
Mg5 Mg8 3.264865 1_555
Mg6 Mg9 3.086282 1_455
Mg6 Mg8 3.264852 1_555
Mg6 Mg7 3.476789 1_565
Mg10 Mg7 2.966146 1_555
Mg10 Mg2 2.971159 1_556
Mg10 Mg15 2.971166 1_545
Mg10 Mg6 3.076715 1_545
Mg10 Mg14 3.076717 1_555
Mg10 Mg8 3.086281 1_545
Mg10 Mg13 3.086292 1_555
Mg11 Mg7 3.035030 1_555
Mg11 Mg9 3.086277 1_455
Mg11 Mg15 3.227580 1_555
Mg11 Mg13 3.264848 1_455
Mg11 Mg14 3.264862 1_555
Mg11 Mg4 3.401594 1_455
Mg12 Mg9 2.966147 1_555
Mg12 Mg8 3.035019 1_555
Mg12 Mg14 3.035019 1_555
Mg12 Mg3 3.149461 1_566
Mg12 Mg13 3.476775 1_555
Mg12 Mg5 3.476775 1_555
Mg13 Mg9 3.076712 1_555
Mg13 Mg4 3.227586 1_555
Mg13 Mg14 3.264865 1_555
Mg13 Mg2 3.401600 1_556
Mg14 Mg2 3.227587 1_556
Mg14 Mg15 3.401589 1_555
Mg14 Mg7 3.476785 1_555
Mg15 Tc0 2.985805 1_566
Mg15 Mg6 3.227583 1_555
Mg15 Mg8 3.401599 1_555
Al0 Al1 2.667468 1_555
Al0 Al10 2.829961 1_654
Al0 Al3 2.829962 1_655
Al0 Mg13 2.901230 1_554
Al0 Mg6 2.901236 1_655
Al0 Mg14 3.100547 1_554
Al0 Mg5 3.100548 1_555
Al0 Mg2 3.118478 1_555
Al0 Mg7 3.159331 1_665
Al0 Mg12 3.159340 1_554
Al0 Mg3 3.265795 1_565
Al0 Mg1 3.402543 1_654
Al1 Al4 2.789423 1_565
Al1 Al9 2.789430 1_564
Al1 Mg4 2.939767 1_565
Al1 Mg15 2.939770 1_554
Al1 Mg0 3.016015 1_554
Al1 Mg14 3.019455 1_554
Al1 Mg5 3.019463 1_555
Al1 Mg3 3.052576 1_565
Al1 Mg7 3.070030 1_665
Al1 Mg12 3.070039 1_554
Al2 Al5 2.616489 1_555
Al2 Tc0 2.756175 1_555
Al2 Al6 2.829983 1_555
Al2 Mg5 2.857436 1_555
Al2 Mg8 3.015894 1_555
Al2 Mg9 3.026111 1_555
Al2 Mg0 3.103028 1_554
Al2 Mg2 3.106316 1_555
Al2 Mg1 3.187860 1_554
Al2 Mg3 3.214322 1_455
Al2 Mg12 3.364341 1_555
Al3 Al5 2.643126 1_565
Al3 Tc0 2.756166 1_565
Al3 Mg8 2.857439 1_555
Al3 Mg6 3.015896 1_555
Al3 Mg0 3.026091 1_554
Al3 Mg10 3.103044 1_565
Al3 Mg4 3.106317 1_565
Al3 Mg7 3.187869 1_565
Al3 Mg3 3.214331 1_465
Al3 Mg1 3.364336 1_554
Al4 Al6 2.667468 1_655
Al4 Al9 2.789422 1_554
Al4 Mg2 2.939760 1_555
Al4 Mg4 2.939761 1_555
Al4 Mg9 3.016004 1_555
Al4 Mg6 3.019454 1_655
Al4 Mg11 3.019463 1_655
Al4 Mg3 3.052577 1_555
Al4 Mg7 3.070035 1_655
Al4 Mg1 3.070047 1_654
Al5 Tc0 2.756174 1_555
Al5 Al6 2.829977 1_555
Al5 Mg13 2.857436 1_555
Al5 Mg14 3.015894 1_555
Al5 Mg9 3.026111 1_555
Al5 Mg10 3.103022 1_555
Al5 Mg4 3.106316 1_555
Al5 Mg7 3.187854 1_555
Al5 Mg3 3.214328 1_455
Al5 Mg12 3.364341 1_555
Al6 Mg14 2.901228 1_555
Al6 Mg8 2.901240 1_555
Al6 Mg6 3.100535 1_555
Al6 Mg11 3.100540 1_555
Al6 Mg15 3.118467 1_555
Al6 Mg7 3.159326 1_555
Al6 Mg1 3.159350 1_554
Al6 Mg3 3.265788 1_455
Al6 Mg12 3.402543 1_555
Al7 Al9 2.667468 1_555
Al7 Al8 2.829969 1_645
Al7 Mg11 2.901221 1_655
Al7 Mg5 2.901235 1_545
Al7 Mg13 3.100540 1_555
Al7 Mg8 3.100549 1_545
Al7 Mg4 3.118472 1_555
Al7 Mg1 3.159326 1_655
Al7 Mg12 3.159348 1_545
Al7 Mg3 3.265787 1_556
Al7 Mg7 3.402551 1_655
Al8 Tc0 2.756174 1_566
Al8 Mg6 2.857440 1_555
Al8 Mg5 3.015884 1_455
Al8 Mg10 3.026091 1_565
Al8 Mg9 3.103034 1_455
Al8 Mg15 3.106317 1_555
Al8 Mg12 3.187874 1_455
Al8 Mg3 3.214330 1_466
Al8 Mg7 3.364344 1_565
Al9 Mg2 2.939761 1_556
Al9 Mg15 2.939781 1_545
Al9 Mg10 3.016014 1_555
Al9 Mg13 3.019455 1_555
Al9 Mg8 3.019457 1_545
Al9 Mg3 3.052574 1_556
Al9 Mg1 3.070032 1_655
Al9 Mg12 3.070046 1_545
Al10 Al3 2.616452 1_556
Al10 Al8 2.643141 1_555
Al10 Tc0 2.756174 1_566
Al10 Mg11 2.857431 1_555
Al10 Mg13 3.015884 1_455
Al10 Mg0 3.026089 1_555
Al10 Mg9 3.103034 1_455
Al10 Mg15 3.106311 1_555
Al10 Mg12 3.187874 1_455
Al10 Mg3 3.214336 1_466
Al10 Mg1 3.364329 1_555
Al11 Al8 2.616460 1_545
Al11 Al2 2.643126 1_556
Al11 Tc0 2.756176 1_556
Al11 Al7 2.829954 1_455
Al11 Mg14 2.857440 1_555
Al11 Mg11 3.015884 1_555
Al11 Mg10 3.026099 1_555
Al11 Mg0 3.103034 1_555
Al11 Mg2 3.106328 1_556
Al11 Mg1 3.187856 1_555
Al11 Mg3 3.214319 1_456
Al11 Mg7 3.364344 1_555
