# generated using pymatgen
data_CsPO3
_symmetry_space_group_name_H-M   'P 1'
_cell_length_a   4.30527062
_cell_length_b   6.81260857
_cell_length_c   13.80458810
_cell_angle_alpha   66.40094052
_cell_angle_beta   90.00000000
_cell_angle_gamma   90.00000000
_symmetry_Int_Tables_number   1
_chemical_formula_structural   CsPO3
_chemical_formula_sum   'Cs4 P4 O12'
_cell_volume   371.02901781
_cell_formula_units_Z   4
loop_
 _symmetry_equiv_pos_site_id
 _symmetry_equiv_pos_as_xyz
  1  'x, y, z'
loop_
 _atom_site_type_symbol
 _atom_site_label
 _atom_site_symmetry_multiplicity
 _atom_site_fract_x
 _atom_site_fract_y
 _atom_site_fract_z
 _atom_site_occupancy
  Cs  Cs0  1  0.63158741  0.31547300  0.40958335  1
  Cs  Cs1  1  0.36841259  0.68452700  0.59041665  1
  Cs  Cs2  1  0.13158741  0.68452700  0.09041665  1
  Cs  Cs3  1  0.86841259  0.31547300  0.90958335  1
  P  P0  1  0.99234364  0.86806117  0.31758039  1
  P  P1  1  0.00765636  0.13193883  0.68241961  1
  P  P2  1  0.49234364  0.13193883  0.18241961  1
  P  P3  1  0.50765636  0.86806117  0.81758039  1
  O  O0  1  0.63564069  0.33222200  0.17995576  1
  O  O1  1  0.36435931  0.66777800  0.82004424  1
  O  O2  1  0.13564069  0.66777800  0.32004424  1
  O  O3  1  0.86435931  0.33222200  0.67995576  1
  O  O4  1  0.74270302  0.93946860  0.22218439  1
  O  O5  1  0.25729698  0.06053140  0.77781561  1
  O  O6  1  0.24270302  0.06053140  0.27781561  1
  O  O7  1  0.75729698  0.93946860  0.72218439  1
  O  O8  1  0.84865849  0.87273345  0.41434127  1
  O  O9  1  0.15134151  0.12726655  0.58565873  1
  O  O10  1  0.34865849  0.12726655  0.08565873  1
  O  O11  1  0.65134151  0.87273345  0.91434127  1
loop_
_geom_bond_atom_site_label_1
_geom_bond_atom_site_label_2
_geom_bond_distance
_geom_bond_site_symmetry_2
Cs0 O9 3.054775 1_555
Cs0 O2 3.077674 1_555
Cs0 O2 3.101989 1_655
Cs0 O0 3.126032 1_555
Cs0 O8 3.133147 1_545
Cs0 O9 3.172373 1_655
Cs0 O6 3.414373 1_555
Cs1 O8 3.054775 1_555
Cs1 O3 3.077674 1_555
Cs1 O3 3.101989 1_455
Cs1 O1 3.126032 1_555
Cs1 O9 3.133147 1_565
Cs1 O8 3.172373 1_455
Cs1 O7 3.414373 1_555
Cs2 O11 3.054775 1_454
Cs2 O0 3.077674 1_455
Cs2 O0 3.101989 1_555
Cs2 O2 3.126032 1_555
Cs2 O10 3.133147 1_565
Cs2 O11 3.172373 1_554
Cs2 O4 3.414373 1_455
Cs3 O10 3.054775 1_656
Cs3 O1 3.077674 1_655
Cs3 O1 3.101989 1_555
Cs3 O3 3.126032 1_555
Cs3 O11 3.133147 1_545
Cs3 O10 3.172373 1_556
Cs3 O5 3.414373 1_655
O0 P2 1.485372 1_555
O1 P3 1.485372 1_555
O2 P0 1.485372 1_455
O3 P1 1.485372 1_655
O4 P2 1.614351 1_565
O4 P0 1.616503 1_555
O5 P3 1.614351 1_545
O5 P1 1.616503 1_555
O6 P0 1.614351 1_445
O6 P2 1.616503 1_555
O7 P1 1.614351 1_665
O7 P3 1.616503 1_555
O8 P0 1.483893 1_555
O9 P1 1.483893 1_555
O10 P2 1.483893 1_555
O11 P3 1.483893 1_555
