# generated using pymatgen
data_YCu7O12
_symmetry_space_group_name_H-M   'P 1'
_cell_length_a   6.25565003
_cell_length_b   6.25563162
_cell_length_c   6.25565003
_cell_angle_alpha   109.47116103
_cell_angle_beta   109.47128024
_cell_angle_gamma   109.47116103
_symmetry_Int_Tables_number   1
_chemical_formula_structural   YCu7O12
_chemical_formula_sum   'Y1 Cu7 O12'
_cell_volume   188.44928021
_cell_formula_units_Z   1
loop_
 _symmetry_equiv_pos_site_id
 _symmetry_equiv_pos_as_xyz
  1  'x, y, z'
loop_
 _atom_site_type_symbol
 _atom_site_label
 _atom_site_symmetry_multiplicity
 _atom_site_fract_x
 _atom_site_fract_y
 _atom_site_fract_z
 _atom_site_occupancy
  Y  Y0  1  0.00000000  0.00000000  0.00000000  1
  Cu  Cu0  1  0.50000000  0.00000000  0.00000000  1
  Cu  Cu1  1  0.50000000  0.50000000  0.50000000  1
  Cu  Cu2  1  0.00000000  0.50000000  0.00000000  1
  Cu  Cu3  1  0.00000000  0.00000000  0.50000000  1
  Cu  Cu4  1  0.00000000  0.50000000  0.50000000  1
  Cu  Cu5  1  0.50000000  0.50000000  0.00000000  1
  Cu  Cu6  1  0.50000000  0.00000000  0.50000000  1
  O  O0  1  0.30694495  0.82957461  0.13646406  1
  O  O1  1  0.69305505  0.17042539  0.86353594  1
  O  O2  1  0.69309220  0.82952946  0.52262481  1
  O  O3  1  0.86353594  0.69311055  0.17048089  1
  O  O4  1  0.82953262  0.13643726  0.30690780  1
  O  O5  1  0.17048089  0.47737034  0.30694495  1
  O  O6  1  0.47737519  0.30690564  0.17046738  1
  O  O7  1  0.17046738  0.86356274  0.69309220  1
  O  O8  1  0.30690780  0.17047054  0.47737519  1
  O  O9  1  0.13646406  0.30688945  0.82951911  1
  O  O10  1  0.82951911  0.52262966  0.69305505  1
  O  O11  1  0.52262481  0.69309436  0.82953262  1
loop_
_geom_bond_atom_site_label_1
_geom_bond_atom_site_label_2
_geom_bond_distance
_geom_bond_site_symmetry_2
Cu0 O1 1.938960 1_554
Cu0 O0 1.938960 1_545
Cu0 O6 1.939088 1_555
Cu0 O11 1.939088 1_544
Cu0 O4 1.939108 1_555
Cu0 O7 1.939108 1_544
Cu1 O5 1.938960 1_555
Cu1 O10 1.938960 1_555
Cu1 O2 1.939083 1_555
Cu1 O8 1.939083 1_555
Cu1 O6 1.939106 1_555
Cu1 O11 1.939106 1_555
Cu2 O10 1.939333 1_454
Cu2 O5 1.939333 1_555
Cu2 O9 1.939333 1_554
Cu2 O1 1.939333 1_454
Cu2 O3 1.939333 1_455
Cu2 O0 1.939333 1_555
Cu3 O9 1.938960 1_555
Cu3 O3 1.938960 1_445
Cu3 O7 1.939082 1_545
Cu3 O4 1.939082 1_455
Cu3 O8 1.939108 1_555
Cu3 O2 1.939108 1_445
Cu4 O5 1.860433 1_555
Cu4 O10 1.860433 1_455
Cu4 O7 1.860564 1_555
Cu4 O4 1.860564 1_455
Cu5 O9 1.860433 1_554
Cu5 O3 1.860433 1_555
Cu5 O11 1.860559 1_554
Cu5 O6 1.860559 1_555
Cu6 O0 1.860433 1_545
Cu6 O1 1.860433 1_555
Cu6 O2 1.860564 1_545
Cu6 O8 1.860564 1_555
O0 O8 2.462616 1_565
O0 Y0 2.535939 1_565
O1 O2 2.462616 1_545
O1 Y0 2.535939 1_656
O2 Y0 2.535930 1_666
O3 Y0 2.535939 1_665
O4 O5 2.462616 1_655
O4 Y0 2.535930 1_655
O5 Y0 2.535939 1_555
O6 O9 2.462612 1_554
O6 Y0 2.535932 1_555
O7 Y0 2.535930 1_566
O8 Y0 2.535930 1_555
O9 Y0 2.535939 1_556
O10 O7 2.462616 1_655
O10 Y0 2.535939 1_666
O11 O3 2.462612 1_556
O11 Y0 2.535932 1_666
