# generated using pymatgen
data_CaCr4O8
_symmetry_space_group_name_H-M   'P 1'
_cell_length_a   6.55270808
_cell_length_b   6.55270827
_cell_length_c   6.55270871
_cell_angle_alpha   53.48778715
_cell_angle_beta   53.48778044
_cell_angle_gamma   53.48779037
_symmetry_Int_Tables_number   1
_chemical_formula_structural   CaCr4O8
_chemical_formula_sum   'Ca1 Cr4 O8'
_cell_volume   168.63383770
_cell_formula_units_Z   1
loop_
 _symmetry_equiv_pos_site_id
 _symmetry_equiv_pos_as_xyz
  1  'x, y, z'
loop_
 _atom_site_type_symbol
 _atom_site_label
 _atom_site_symmetry_multiplicity
 _atom_site_fract_x
 _atom_site_fract_y
 _atom_site_fract_z
 _atom_site_occupancy
  Ca  Ca0  1  0.50000000  0.50000100  0.49999900  1
  Cr  Cr0  1  0.50000100  0.99999900  0.50000100  1
  Cr  Cr1  1  0.99999900  0.50000000  0.50000100  1
  Cr  Cr2  1  0.50000000  0.50000000  0.00000000  1
  Cr  Cr3  1  0.00000000  0.00000000  0.00000000  1
  O  O0  1  0.76626700  0.28063700  0.76626700  1
  O  O1  1  0.23373200  0.23373300  0.71936300  1
  O  O2  1  0.23373200  0.71936400  0.23373200  1
  O  O3  1  0.71936200  0.23373300  0.23373300  1
  O  O4  1  0.27686900  0.27687000  0.27686900  1
  O  O5  1  0.72313100  0.72313100  0.72313100  1
  O  O6  1  0.28063800  0.76626800  0.76626700  1
  O  O7  1  0.76626800  0.76626800  0.28063700  1
loop_
_geom_bond_atom_site_label_1
_geom_bond_atom_site_label_2
_geom_bond_distance
_geom_bond_site_symmetry_2
Ca0 O3 2.410044 1_555
Ca0 O0 2.410046 1_555
Ca0 O2 2.410048 1_555
Ca0 O7 2.410049 1_555
Ca0 O6 2.410049 1_555
Ca0 O1 2.410051 1_555
Cr0 O5 1.948775 1_555
Cr0 O4 1.948792 1_565
Cr0 O6 1.977751 1_555
Cr0 O7 1.977756 1_555
Cr0 O3 1.977756 1_565
Cr0 O1 1.977760 1_565
Cr1 O5 1.948779 1_555
Cr1 O4 1.948784 1_655
Cr1 O0 1.977756 1_555
Cr1 O7 1.977756 1_555
Cr1 O1 1.977756 1_655
Cr1 O2 1.977764 1_655
Cr2 O4 1.948779 1_555
Cr2 O5 1.948783 1_554
Cr2 O6 1.977756 1_554
Cr2 O3 1.977756 1_555
Cr2 O2 1.977760 1_555
Cr2 O0 1.977760 1_554
Cr3 O7 2.039950 1_445
Cr3 O2 2.039950 1_545
Cr3 O1 2.039954 1_554
Cr3 O6 2.039955 1_544
Cr3 O3 2.039959 1_455
Cr3 O0 2.039959 1_454
