# generated using pymatgen
data_AlFe2BO5
_symmetry_space_group_name_H-M   'P 1'
_cell_length_a   2.96451800
_cell_length_b   9.66872400
_cell_length_c   12.27848000
_cell_angle_alpha   90.00000000
_cell_angle_beta   90.00000000
_cell_angle_gamma   90.00000000
_symmetry_Int_Tables_number   1
_chemical_formula_structural   AlFe2BO5
_chemical_formula_sum   'Al4 Fe8 B4 O20'
_cell_volume   351.93937787
_cell_formula_units_Z   4
loop_
 _symmetry_equiv_pos_site_id
 _symmetry_equiv_pos_as_xyz
  1  'x, y, z'
loop_
 _atom_site_type_symbol
 _atom_site_label
 _atom_site_symmetry_multiplicity
 _atom_site_fract_x
 _atom_site_fract_y
 _atom_site_fract_z
 _atom_site_occupancy
  Al  Al0  1  0.00000000  0.74232200  0.38409200  1
  Al  Al1  1  0.00000000  0.25767800  0.61590800  1
  Al  Al2  1  0.00000000  0.24232200  0.11590800  1
  Al  Al3  1  0.00000000  0.75767800  0.88409200  1
  Fe  Fe0  1  0.50000000  0.49568900  0.22569900  1
  Fe  Fe1  1  0.50000000  0.50431100  0.77430100  1
  Fe  Fe2  1  0.50000000  0.99568900  0.27430100  1
  Fe  Fe3  1  0.50000000  0.00431100  0.72569900  1
  Fe  Fe4  1  0.50000000  0.50000000  0.50000000  1
  Fe  Fe5  1  0.50000000  0.00000000  0.00000000  1
  Fe  Fe6  1  0.00000000  0.00000000  0.50000000  1
  Fe  Fe7  1  0.00000000  0.50000000  0.00000000  1
  B  B0  1  0.00000000  0.76277500  0.13657100  1
  B  B1  1  0.00000000  0.23722500  0.86342900  1
  B  B2  1  0.00000000  0.26277500  0.36342900  1
  B  B3  1  0.00000000  0.73722500  0.63657100  1
  O  O0  1  0.00000000  0.83646500  0.03870500  1
  O  O1  1  0.00000000  0.16353500  0.96129500  1
  O  O2  1  0.00000000  0.33646500  0.46129500  1
  O  O3  1  0.00000000  0.66353500  0.53870500  1
  O  O4  1  0.50000000  0.61876700  0.35831500  1
  O  O5  1  0.50000000  0.38123300  0.64168500  1
  O  O6  1  0.50000000  0.11876700  0.14168500  1
  O  O7  1  0.50000000  0.88123300  0.85831500  1
  O  O8  1  0.00000000  0.62005500  0.13719000  1
  O  O9  1  0.00000000  0.37994500  0.86281000  1
  O  O10  1  0.00000000  0.12005500  0.36281000  1
  O  O11  1  0.00000000  0.87994500  0.63719000  1
  O  O12  1  0.50000000  0.86898000  0.41544800  1
  O  O13  1  0.50000000  0.13102000  0.58455200  1
  O  O14  1  0.50000000  0.36898000  0.08455200  1
  O  O15  1  0.50000000  0.63102000  0.91544800  1
  O  O16  1  0.00000000  0.83120400  0.23642400  1
  O  O17  1  0.00000000  0.16879600  0.76357600  1
  O  O18  1  0.00000000  0.33120400  0.26357600  1
  O  O19  1  0.00000000  0.66879600  0.73642400  1
loop_
_geom_bond_atom_site_label_1
_geom_bond_atom_site_label_2
_geom_bond_distance
_geom_bond_site_symmetry_2
Al0 O4 1.929865 1_455
Al0 O4 1.929865 1_555
Al0 O12 1.960871 1_455
Al0 O12 1.960871 1_555
Al0 O16 2.006489 1_555
Al0 O3 2.045547 1_555
Al1 O5 1.929865 1_555
Al1 O5 1.929865 1_455
Al1 O13 1.960871 1_455
Al1 O13 1.960871 1_555
Al1 O17 2.006489 1_555
Al1 O2 2.045547 1_555
Al2 O6 1.929865 1_455
Al2 O6 1.929865 1_555
Al2 O14 1.960871 1_455
Al2 O14 1.960871 1_555
Al2 O18 2.006489 1_555
Al2 O1 2.045547 1_554
Al3 O7 1.929865 1_555
Al3 O7 1.929865 1_455
Al3 O15 1.960871 1_455
Al3 O15 1.960871 1_555
Al3 O19 2.006489 1_555
Al3 O0 2.045547 1_556
Fe0 O4 2.016817 1_555
Fe0 O14 2.122366 1_555
Fe0 O8 2.196370 1_555
Fe0 O8 2.196370 1_655
Fe0 O18 2.223202 1_655
Fe0 O18 2.223202 1_555
Fe1 O5 2.016817 1_555
Fe1 O15 2.122366 1_555
Fe1 O9 2.196370 1_555
Fe1 O9 2.196370 1_655
Fe1 O19 2.223202 1_655
Fe1 O19 2.223202 1_555
Fe2 O6 2.016817 1_565
Fe2 O12 2.122366 1_555
Fe2 O10 2.196370 1_565
Fe2 O10 2.196370 1_665
Fe2 O16 2.223202 1_655
Fe2 O16 2.223202 1_555
Fe3 O7 2.016817 1_545
Fe3 O13 2.122366 1_555
Fe3 O11 2.196370 1_545
Fe3 O11 2.196370 1_645
Fe3 O17 2.223202 1_655
Fe3 O17 2.223202 1_555
Fe4 O4 2.084496 1_555
Fe4 O5 2.084496 1_555
Fe4 O3 2.218796 1_655
Fe4 O3 2.218796 1_555
Fe4 O2 2.218796 1_555
Fe4 O2 2.218796 1_655
Fe5 O6 2.084496 1_555
Fe5 O7 2.084496 1_544
Fe5 O1 2.218796 1_554
Fe5 O1 2.218796 1_654
Fe5 O0 2.218796 1_645
Fe5 O0 2.218796 1_545
Fe6 O10 2.045702 1_555
Fe6 O11 2.045702 1_545
Fe6 O12 2.208996 1_545
Fe6 O12 2.208996 1_445
Fe6 O13 2.208996 1_555
Fe6 O13 2.208996 1_455
Fe7 O9 2.045702 1_554
Fe7 O8 2.045702 1_555
Fe7 O14 2.208996 1_455
Fe7 O14 2.208996 1_555
Fe7 O15 2.208996 1_554
Fe7 O15 2.208996 1_454
B0 O8 1.379941 1_555
B0 O16 1.393171 1_555
B0 O0 1.396994 1_555
B1 O9 1.379941 1_555
B1 O17 1.393171 1_555
B1 O1 1.396994 1_555
B2 O10 1.379941 1_555
B2 O18 1.393171 1_555
B2 O2 1.396994 1_555
B3 O11 1.379941 1_555
B3 O19 1.393171 1_555
B3 O3 1.396994 1_555
