# generated using pymatgen
data_NbHSe2
_symmetry_space_group_name_H-M   'P 1'
_cell_length_a   3.37788369
_cell_length_b   3.37788369
_cell_length_c   13.11803200
_cell_angle_alpha   90.00000000
_cell_angle_beta   90.00000000
_cell_angle_gamma   119.99999398
_symmetry_Int_Tables_number   1
_chemical_formula_structural   NbHSe2
_chemical_formula_sum   'Nb2 H2 Se4'
_cell_volume   129.62498756
_cell_formula_units_Z   2
loop_
 _symmetry_equiv_pos_site_id
 _symmetry_equiv_pos_as_xyz
  1  'x, y, z'
loop_
 _atom_site_type_symbol
 _atom_site_label
 _atom_site_symmetry_multiplicity
 _atom_site_fract_x
 _atom_site_fract_y
 _atom_site_fract_z
 _atom_site_occupancy
  Nb  Nb0  1  0.33333300  0.66666700  0.25000000  1
  Nb  Nb1  1  0.66666700  0.33333300  0.75000000  1
  H  H0  1  0.00000000  0.00000000  0.00000000  1
  H  H1  1  0.00000000  0.00000000  0.50000000  1
  Se  Se0  1  0.33333300  0.66666700  0.61628400  1
  Se  Se1  1  0.66666700  0.33333300  0.38371600  1
  Se  Se2  1  0.66666700  0.33333300  0.11628400  1
  Se  Se3  1  0.33333300  0.66666700  0.88371600  1
loop_
_geom_bond_atom_site_label_1
_geom_bond_atom_site_label_2
_geom_bond_distance
_geom_bond_site_symmetry_2
Nb0 Se2 2.623012 1_455
Nb0 Se1 2.623012 1_455
Nb0 Se2 2.623012 1_565
Nb0 Se1 2.623012 1_565
Nb0 Se1 2.623016 1_555
Nb0 Se2 2.623016 1_555
Nb1 Se3 2.623012 1_545
Nb1 Se3 2.623012 1_655
Nb1 Se0 2.623012 1_545
Nb1 Se0 2.623012 1_655
Nb1 Se3 2.623016 1_555
Nb1 Se0 2.623016 1_555
H0 Se2 2.475935 1_455
H0 Se3 2.475935 1_544
H0 Se2 2.475938 1_445
H0 Se2 2.475938 1_555
H0 Se3 2.475938 1_554
H0 Se3 2.475938 1_444
H1 Se0 2.475935 1_545
H1 Se1 2.475935 1_455
H1 Se0 2.475938 1_555
H1 Se0 2.475938 1_445
H1 Se1 2.475938 1_445
H1 Se1 2.475938 1_555
