# generated using pymatgen
data_Li7Mn4CoO12
_symmetry_space_group_name_H-M   'P 1'
_cell_length_a   8.06561973
_cell_length_b   8.06561973
_cell_length_c   9.83552431
_cell_angle_alpha   81.73477124
_cell_angle_beta   81.73477124
_cell_angle_gamma   20.81443363
_symmetry_Int_Tables_number   1
_chemical_formula_structural   Li7Mn4CoO12
_chemical_formula_sum   'Li7 Mn4 Co1 O12'
_cell_volume   224.92148913
_cell_formula_units_Z   1
loop_
 _symmetry_equiv_pos_site_id
 _symmetry_equiv_pos_as_xyz
  1  'x, y, z'
loop_
 _atom_site_type_symbol
 _atom_site_label
 _atom_site_symmetry_multiplicity
 _atom_site_fract_x
 _atom_site_fract_y
 _atom_site_fract_z
 _atom_site_occupancy
  Li  Li0  1  0.58272500  0.58272500  0.74162800  1
  Li  Li1  1  0.74900000  0.74900000  0.25360100  1
  Li  Li2  1  0.92007400  0.92007400  0.73853700  1
  Li  Li3  1  0.25382300  0.25382300  0.74638500  1
  Li  Li4  1  0.41256200  0.41256200  0.25779800  1
  Li  Li5  1  0.08137900  0.08137900  0.25656200  1
  Li  Li6  1  0.49958700  0.49958700  0.50527600  1
  Mn  Mn0  1  0.99990200  0.99990200  0.00065900  1
  Mn  Mn1  1  0.16512400  0.16512400  0.49966500  1
  Mn  Mn2  1  0.33350300  0.33350300  0.99781300  1
  Mn  Mn3  1  0.66685500  0.66685500  0.00165700  1
  Co  Co0  1  0.84079000  0.84079000  0.49724100  1
  O  O0  1  0.46727700  0.46727700  0.88328200  1
  O  O1  1  0.63144700  0.63144700  0.38653500  1
  O  O2  1  0.79928300  0.79928300  0.88304400  1
  O  O3  1  0.13341300  0.13341300  0.88632300  1
  O  O4  1  0.28272700  0.28272700  0.39045700  1
  O  O5  1  0.94059100  0.94059100  0.38662000  1
  O  O6  1  0.71188200  0.71188200  0.60468900  1
  O  O7  1  0.86671800  0.86671800  0.11389300  1
  O  O8  1  0.05960400  0.05960400  0.61168300  1
  O  O9  1  0.36895400  0.36895400  0.62051300  1
  O  O10  1  0.53267400  0.53267400  0.11929500  1
  O  O11  1  0.20011800  0.20011800  0.11684500  1
loop_
_geom_bond_atom_site_label_1
_geom_bond_atom_site_label_2
_geom_bond_distance
_geom_bond_site_symmetry_2
Li0 O8 2.006974 1_655
Li0 O8 2.006974 1_565
Li0 O0 2.133116 1_555
Li0 O3 2.264844 1_655
Li0 O3 2.264844 1_565
Li0 O6 2.281758 1_555
Li1 O4 2.105134 1_655
Li1 O4 2.105134 1_565
Li1 O1 2.115461 1_555
Li1 O7 2.150869 1_555
Li1 O11 2.199653 1_655
Li1 O11 2.199653 1_565
Li2 O9 2.098430 1_655
Li2 O9 2.098430 1_565
Li2 O2 2.212838 1_555
Li2 O0 2.241015 1_655
Li2 O0 2.241015 1_565
Li2 O8 2.376981 1_665
Li3 O9 2.051410 1_555
Li3 O2 2.175567 1_545
Li3 O2 2.175567 1_455
Li3 O3 2.185270 1_555
Li3 O6 2.186094 1_455
Li3 O6 2.186094 1_545
Li4 O5 2.022544 1_455
Li4 O5 2.022544 1_545
Li4 O10 2.174505 1_555
Li4 O7 2.226237 1_455
Li4 O7 2.226237 1_545
Li4 O4 2.271588 1_555
Li5 O11 2.163491 1_555
Li5 O1 2.164464 1_455
Li5 O1 2.164464 1_545
Li5 O10 2.201750 1_545
Li5 O10 2.201750 1_455
Li5 O5 2.406362 1_445
Li6 O8 2.101473 1_655
Li6 O8 2.101473 1_565
Li6 O5 2.163399 1_455
Li6 O5 2.163399 1_545
Li6 O9 2.212154 1_555
Li6 O1 2.241983 1_555
Mn0 O0 1.974399 1_654
Mn0 O0 1.974399 1_564
Mn0 O10 1.982948 1_655
Mn0 O10 1.982948 1_565
Mn0 O7 2.239984 1_555
Mn0 O3 2.248408 1_664
Mn1 O8 1.864807 1_555
Mn1 O1 1.954537 1_545
Mn1 O1 1.954537 1_455
Mn1 O6 1.991035 1_455
Mn1 O6 1.991035 1_545
Mn1 O4 2.012300 1_555
Mn2 O2 1.967483 1_455
Mn2 O2 1.967483 1_545
Mn2 O7 1.969754 1_456
Mn2 O7 1.969754 1_546
Mn2 O0 2.252729 1_555
Mn2 O11 2.263840 1_556
Mn3 O11 1.964606 1_565
Mn3 O11 1.964606 1_655
Mn3 O3 1.966495 1_564
Mn3 O3 1.966495 1_654
Mn3 O2 2.249229 1_554
Mn3 O10 2.269555 1_555
Co0 O5 1.785334 1_555
Co0 O9 1.987689 1_565
Co0 O9 1.987689 1_655
Co0 O4 2.087439 1_655
Co0 O4 2.087439 1_565
Co0 O6 2.160557 1_555
