# generated using pymatgen
data_Sn3H6CNO7
_symmetry_space_group_name_H-M   'P 1'
_cell_length_a   6.42339900
_cell_length_b   11.46990000
_cell_length_c   15.04935116
_cell_angle_alpha   57.95062211
_cell_angle_beta   90.00000000
_cell_angle_gamma   90.00000000
_symmetry_Int_Tables_number   1
_chemical_formula_structural   Sn3H6CNO7
_chemical_formula_sum   'Sn12 H24 C4 N4 O28'
_cell_volume   939.78539546
_cell_formula_units_Z   4
loop_
 _symmetry_equiv_pos_site_id
 _symmetry_equiv_pos_as_xyz
  1  'x, y, z'
loop_
 _atom_site_type_symbol
 _atom_site_label
 _atom_site_symmetry_multiplicity
 _atom_site_fract_x
 _atom_site_fract_y
 _atom_site_fract_z
 _atom_site_occupancy
  Sn  Sn0  1  0.79594600  0.59551000  0.92229700  1
  Sn  Sn1  1  0.76809700  0.31466500  0.68986500  1
  Sn  Sn2  1  0.73190300  0.31466500  0.18986500  1
  Sn  Sn3  1  0.26809700  0.68533500  0.81013500  1
  Sn  Sn4  1  0.96293000  0.59169100  0.67812000  1
  Sn  Sn5  1  0.23190300  0.68533500  0.31013500  1
  Sn  Sn6  1  0.46293000  0.40830900  0.82188000  1
  Sn  Sn7  1  0.29594600  0.40449000  0.57770300  1
  Sn  Sn8  1  0.03707000  0.40830900  0.32188000  1
  Sn  Sn9  1  0.53707000  0.59169100  0.17812000  1
  Sn  Sn10  1  0.70405400  0.59551000  0.42229700  1
  Sn  Sn11  1  0.20405400  0.40449000  0.07770300  1
  H  H0  1  0.51439200  0.10868700  0.08397700  1
  H  H1  1  0.93573200  0.94305600  0.66692200  1
  H  H2  1  0.28203800  0.95866400  0.49325300  1
  H  H3  1  0.06140500  0.01704400  0.87763000  1
  H  H4  1  0.06426800  0.05694400  0.33307800  1
  H  H5  1  0.93859500  0.98295600  0.12237000  1
  H  H6  1  0.43573200  0.05694400  0.83307800  1
  H  H7  1  0.98560800  0.10868700  0.58397700  1
  H  H8  1  0.15879600  0.93735700  0.30851300  1
  H  H9  1  0.84120400  0.06264300  0.69148700  1
  H  H10  1  0.56426800  0.94305600  0.16692200  1
  H  H11  1  0.78203800  0.04133600  0.00674700  1
  H  H12  1  0.62131900  0.16095700  0.53872500  1
  H  H13  1  0.43859500  0.01704400  0.37763000  1
  H  H14  1  0.71796200  0.04133600  0.50674700  1
  H  H15  1  0.56140500  0.98295600  0.62237000  1
  H  H16  1  0.87868100  0.16095700  0.03872500  1
  H  H17  1  0.65879600  0.06264300  0.19148700  1
  H  H18  1  0.01439200  0.89131300  0.41602300  1
  H  H19  1  0.34120400  0.93735700  0.80851300  1
  H  H20  1  0.12131900  0.83904300  0.96127500  1
  H  H21  1  0.37868100  0.83904300  0.46127500  1
  H  H22  1  0.21796200  0.95866400  0.99325300  1
  H  H23  1  0.48560800  0.89131300  0.91602300  1
  C  C0  1  0.81923300  0.05635600  0.07065200  1
  C  C1  1  0.18076700  0.94364400  0.92934800  1
  C  C2  1  0.31923300  0.94364400  0.42934800  1
  C  C3  1  0.68076700  0.05635600  0.57065200  1
  N  N0  1  0.37203900  0.96036900  0.86776100  1
  N  N1  1  0.62796100  0.03963100  0.13223900  1
  N  N2  1  0.87203900  0.03963100  0.63223900  1
  N  N3  1  0.12796100  0.96036900  0.36776100  1
  O  O0  1  0.73490300  0.42790900  0.26866700  1
  O  O1  1  0.48181400  0.45645000  0.12461500  1
  O  O2  1  0.55882500  0.65960900  0.28327500  1
  O  O3  1  0.79220800  0.12161700  0.76899200  1
  O  O4  1  0.70779200  0.12161700  0.26899200  1
  O  O5  1  0.13798200  0.60039200  0.95902700  1
  O  O6  1  0.76509700  0.42790900  0.76866700  1
  O  O7  1  0.98181400  0.54355000  0.37538500  1
  O  O8  1  0.87426900  0.76409200  0.55668100  1
  O  O9  1  0.20779200  0.87838300  0.23100800  1
  O  O10  1  0.18041100  0.24704100  0.58093900  1
  O  O11  1  0.44117500  0.34039100  0.71672500  1
  O  O12  1  0.51818600  0.54355000  0.87538500  1
  O  O13  1  0.31958900  0.24704100  0.08093900  1
  O  O14  1  0.68041100  0.75295900  0.91906100  1
  O  O15  1  0.36201800  0.60039200  0.45902700  1
  O  O16  1  0.26509700  0.57209100  0.73133300  1
  O  O17  1  0.23490300  0.57209100  0.23133300  1
  O  O18  1  0.81958900  0.75295900  0.41906100  1
  O  O19  1  0.01818600  0.45645000  0.62461500  1
  O  O20  1  0.94117500  0.65960900  0.78327500  1
  O  O21  1  0.12573100  0.23590800  0.44331900  1
  O  O22  1  0.37426900  0.23590800  0.94331900  1
  O  O23  1  0.86201800  0.39960800  0.04097300  1
  O  O24  1  0.62573100  0.76409200  0.05668100  1
  O  O25  1  0.29220800  0.87838300  0.73100800  1
  O  O26  1  0.63798200  0.39960800  0.54097300  1
  O  O27  1  0.05882500  0.34039100  0.21672500  1
loop_
_geom_bond_atom_site_label_1
_geom_bond_atom_site_label_2
_geom_bond_distance
_geom_bond_site_symmetry_2
H0 N1 1.037552 1_555
H0 O13 2.002275 1_555
H0 O22 2.035211 1_554
H1 N2 1.026264 1_565
H1 O20 2.755954 1_555
H3 O3 2.240634 1_455
H4 N3 1.026264 1_545
H4 O27 2.755954 1_555
H5 O9 2.240634 1_655
H6 N0 1.026264 1_545
H6 O11 2.755954 1_555
H7 N2 1.037552 1_555
H7 O10 2.002275 1_655
H7 O21 2.035211 1_655
H8 N3 1.074103 1_555
H8 O9 1.659650 1_555
H9 N2 1.074103 1_555
H9 O3 1.659650 1_555
H10 N1 1.026264 1_565
H10 O2 2.755954 1_555
H12 O26 2.757483 1_555
H13 O4 2.240634 1_555
H15 O25 2.240634 1_555
H16 O23 2.757483 1_555
H17 N1 1.074103 1_555
H17 O4 1.659650 1_555
H18 N3 1.037552 1_555
H18 O18 2.002275 1_455
H18 O8 2.035211 1_455
H19 N0 1.074103 1_555
H19 O25 1.659650 1_555
H20 O5 2.757483 1_555
H21 O15 2.757483 1_555
H23 N0 1.037552 1_555
H23 O14 2.002275 1_555
H23 O24 2.035211 1_556
C0 H11 1.089736 1_555
C0 H16 1.097410 1_555
C0 H5 1.098626 1_545
C0 N1 1.488838 1_555
C1 H22 1.089736 1_555
C1 H20 1.097410 1_555
C1 H3 1.098626 1_565
C1 N0 1.488838 1_555
C2 H2 1.089736 1_555
C2 H21 1.097410 1_555
C2 H13 1.098626 1_565
C2 N3 1.488838 1_555
C3 H14 1.089736 1_555
C3 H12 1.097410 1_555
C3 H15 1.098626 1_545
C3 N2 1.488838 1_555
O0 Sn8 2.065921 1_655
O0 Sn9 2.069764 1_555
O0 Sn2 2.174562 1_555
O0 O1 2.587778 1_555
O0 O27 2.603981 1_655
O1 Sn11 2.117405 1_555
O1 Sn2 2.120081 1_555
O1 Sn9 2.122779 1_555
O2 Sn10 2.038514 1_555
O2 Sn9 2.106919 1_555
O2 Sn5 2.187887 1_555
O3 Sn1 1.883217 1_555
O4 Sn2 1.883217 1_555
O5 Sn11 2.039538 1_556
O5 Sn3 2.086070 1_555
O5 Sn0 2.273431 1_455
O6 Sn6 2.065921 1_555
O6 Sn4 2.069764 1_555
O6 Sn1 2.174562 1_555
O7 Sn10 2.117405 1_555
O7 Sn5 2.120081 1_655
O7 Sn8 2.122779 1_655
O8 Sn4 1.933689 1_555
O9 Sn5 1.883217 1_555
O10 Sn7 1.929028 1_555
O10 O21 2.170200 1_555
O11 Sn7 2.038514 1_555
O11 Sn6 2.106919 1_555
O11 Sn1 2.187887 1_555
O11 O6 2.603981 1_555
O12 Sn0 2.117405 1_555
O12 Sn3 2.120081 1_555
O12 Sn6 2.122779 1_555
O12 O16 2.587778 1_555
O13 Sn11 1.929028 1_555
O13 O22 2.170200 1_554
O14 Sn0 1.929028 1_555
O14 O24 2.170200 1_556
O15 Sn7 2.039538 1_555
O15 Sn5 2.086070 1_555
O15 Sn10 2.273431 1_555
O15 O26 2.636769 1_555
O16 Sn4 2.065921 1_455
O16 Sn6 2.069764 1_555
O16 Sn3 2.174562 1_555
O16 O20 2.603981 1_455
O17 Sn9 2.065921 1_555
O17 Sn8 2.069764 1_555
O17 Sn5 2.174562 1_555
O17 O7 2.587778 1_455
O17 O2 2.603981 1_555
O18 Sn10 1.929028 1_555
O18 O8 2.170200 1_555
O19 Sn7 2.117405 1_555
O19 Sn1 2.120081 1_455
O19 Sn4 2.122779 1_455
O19 O6 2.587778 1_455
O20 Sn0 2.038514 1_555
O20 Sn4 2.106919 1_555
O20 Sn3 2.187887 1_655
O21 Sn8 1.933689 1_555
O22 Sn6 1.933689 1_555
O23 Sn0 2.039538 1_554
O23 Sn2 2.086070 1_555
O23 Sn11 2.273431 1_655
O23 O5 2.636769 1_654
O24 Sn9 1.933689 1_555
O25 Sn3 1.883217 1_555
O26 Sn10 2.039538 1_555
O26 Sn1 2.086070 1_555
O26 Sn7 2.273431 1_555
O27 Sn11 2.038514 1_555
O27 Sn8 2.106919 1_555
O27 Sn2 2.187887 1_455
