# generated using pymatgen
data_SrCrO4
_symmetry_space_group_name_H-M   'P 1'
_cell_length_a   9.76132224
_cell_length_b   6.39486532
_cell_length_c   7.60081700
_cell_angle_alpha   90.00000000
_cell_angle_beta   90.00000000
_cell_angle_gamma   92.48087415
_symmetry_Int_Tables_number   1
_chemical_formula_structural   SrCrO4
_chemical_formula_sum   'Sr4 Cr4 O16'
_cell_volume   474.01609157
_cell_formula_units_Z   4
loop_
 _symmetry_equiv_pos_site_id
 _symmetry_equiv_pos_as_xyz
  1  'x, y, z'
loop_
 _atom_site_type_symbol
 _atom_site_label
 _atom_site_symmetry_multiplicity
 _atom_site_fract_x
 _atom_site_fract_y
 _atom_site_fract_z
 _atom_site_occupancy
  Sr  Sr0  1  0.36137600  0.16741900  0.09280300  1
  Sr  Sr1  1  0.13862400  0.83258100  0.59280300  1
  Sr  Sr2  1  0.63862400  0.83258100  0.90719700  1
  Sr  Sr3  1  0.86137600  0.16741900  0.40719700  1
  Cr  Cr0  1  0.26542400  0.68508800  0.10535500  1
  Cr  Cr1  1  0.23457600  0.31491200  0.60535500  1
  Cr  Cr2  1  0.73457600  0.31491200  0.89464500  1
  Cr  Cr3  1  0.76542400  0.68508800  0.39464500  1
  O  O0  1  0.24527300  0.45907300  0.26662900  1
  O  O1  1  0.25472700  0.54092700  0.76662900  1
  O  O2  1  0.75472700  0.54092700  0.73337100  1
  O  O3  1  0.74527300  0.45907300  0.23337100  1
  O  O4  1  0.43178900  0.79229200  0.07153800  1
  O  O5  1  0.06821100  0.20770800  0.57153800  1
  O  O6  1  0.56821100  0.20770800  0.92846200  1
  O  O7  1  0.93178900  0.79229200  0.42846200  1
  O  O8  1  0.66915900  0.90067900  0.37759700  1
  O  O9  1  0.83084100  0.09932100  0.87759700  1
  O  O10  1  0.33084100  0.09932100  0.62240300  1
  O  O11  1  0.16915900  0.90067900  0.12240300  1
  O  O12  1  0.72643500  0.46317400  0.55560700  1
  O  O13  1  0.77356500  0.53682600  0.05560700  1
  O  O14  1  0.27356500  0.53682600  0.44439300  1
  O  O15  1  0.22643500  0.46317400  0.94439300  1
loop_
_geom_bond_atom_site_label_1
_geom_bond_atom_site_label_2
_geom_bond_distance
_geom_bond_site_symmetry_2
Cr0 O11 1.706657 1_555
Cr0 O4 1.754099 1_555
Cr0 O0 1.898866 1_555
Cr0 O15 1.899677 1_554
Cr1 O10 1.706657 1_555
Cr1 O5 1.754099 1_555
Cr1 O1 1.898866 1_555
Cr1 O14 1.899677 1_555
Cr2 O9 1.706657 1_555
Cr2 O6 1.754099 1_555
Cr2 O2 1.898866 1_555
Cr2 O13 1.899677 1_556
Cr3 O8 1.706657 1_555
Cr3 O7 1.754099 1_555
Cr3 O3 1.898866 1_555
Cr3 O12 1.899677 1_555
O0 O14 1.461923 1_555
O0 Sr0 2.586808 1_555
O1 O15 1.461923 1_555
O1 Sr1 2.586808 1_555
O2 Sr2 2.586808 1_555
O3 Sr3 2.586808 1_555
O4 Sr2 2.378646 1_554
O4 Sr0 2.529019 1_565
O5 Sr3 2.378646 1_455
O5 Sr1 2.529019 1_545
O6 Sr0 2.378646 1_556
O6 Sr2 2.529019 1_545
O7 Sr1 2.378646 1_655
O7 Sr3 2.529019 1_565
O8 Sr3 2.490714 1_565
O9 Sr2 2.490714 1_545
O10 Sr1 2.490714 1_545
O11 Sr0 2.490714 1_565
O12 O2 1.461923 1_555
O12 Sr3 2.607725 1_555
O13 O3 1.461923 1_555
O13 Sr2 2.607725 1_554
O14 Sr1 2.607725 1_555
O15 Sr0 2.607725 1_556
