# generated using pymatgen
data_SnTe3O8
_symmetry_space_group_name_H-M   'P 1'
_cell_length_a   9.71858496
_cell_length_b   9.71846964
_cell_length_c   9.71853371
_cell_angle_alpha   109.47086103
_cell_angle_beta   109.47143157
_cell_angle_gamma   109.47118030
_symmetry_Int_Tables_number   1
_chemical_formula_structural   SnTe3O8
_chemical_formula_sum   'Sn4 Te12 O32'
_cell_volume   706.61163697
_cell_formula_units_Z   4
loop_
 _symmetry_equiv_pos_site_id
 _symmetry_equiv_pos_as_xyz
  1  'x, y, z'
loop_
 _atom_site_type_symbol
 _atom_site_label
 _atom_site_symmetry_multiplicity
 _atom_site_fract_x
 _atom_site_fract_y
 _atom_site_fract_z
 _atom_site_occupancy
  Sn  Sn0  1  -0.00000047  0.00000113  -0.00000121  1
  Sn  Sn1  1  0.49999985  0.50000090  0.00000084  1
  Sn  Sn2  1  -0.00000176  0.49999828  0.49999643  1
  Sn  Sn3  1  0.50000007  0.00000058  0.50000093  1
  Te  Te0  1  0.70413336  0.25000042  0.95415023  1
  Te  Te1  1  0.54588617  0.79587436  0.75000027  1
  Te  Te2  1  0.04588895  0.29589795  0.75002912  1
  Te  Te3  1  0.24999217  0.45411744  0.20412032  1
  Te  Te4  1  0.20411230  0.24999067  0.45411776  1
  Te  Te5  1  0.75001834  0.04588236  0.29588341  1
  Te  Te6  1  0.29586201  0.75001337  0.04587577  1
  Te  Te7  1  0.45411585  0.20412305  0.24999473  1
  Te  Te8  1  0.24998606  0.95411300  0.70411584  1
  Te  Te9  1  0.79588888  0.75000929  0.54587823  1
  Te  Te10  1  0.75000792  0.54588362  0.79588559  1
  Te  Te11  1  0.95411719  0.70410856  0.24997752  1
  O  O0  1  0.49999944  -0.00000179  0.83253970  1
  O  O1  1  -0.00000136  0.83254228  0.50000160  1
  O  O2  1  0.83253680  0.49999864  -0.00000311  1
  O  O3  1  0.66745881  0.66745766  0.66745795  1
  O  O4  1  0.50000138  0.00000230  0.16746158  1
  O  O5  1  0.00000266  0.16746099  0.50000140  1
  O  O6  1  0.16746112  0.49999927  0.00000131  1
  O  O7  1  0.33254071  0.33253915  0.33253903  1
  O  O8  1  0.46992524  0.70680321  0.04125260  1
  O  O9  1  0.33445285  0.79319971  0.26311977  1
  O  O10  1  0.03008257  0.07133289  0.23688350  1
  O  O11  1  0.42867165  0.45874981  0.16554791  1
  O  O12  1  0.45875347  0.16555218  0.42867033  1
  O  O13  1  0.04124952  0.46992118  0.70680549  1
  O  O14  1  0.79319880  0.26311548  0.33445056  1
  O  O15  1  0.23688918  0.03008583  0.07133363  1
  O  O16  1  0.83444711  0.57133311  0.54124692  1
  O  O17  1  0.92866505  0.76311073  0.96991261  1
  O  O18  1  0.73687881  0.66554908  0.20680184  1
  O  O19  1  0.29319271  0.95874392  0.53007530  1
  O  O20  1  0.76311266  0.96991398  0.92866473  1
  O  O21  1  0.20680245  0.73688076  0.66555094  1
  O  O22  1  0.95874988  0.53007698  0.29319158  1
  O  O23  1  0.54125070  0.83444886  0.57132761  1
  O  O24  1  0.57132888  0.54124948  0.83444685  1
  O  O25  1  0.96991428  0.92866655  0.76311075  1
  O  O26  1  0.66554930  0.20680104  0.73687885  1
  O  O27  1  0.53007127  0.29319703  0.95874669  1
  O  O28  1  0.16554980  0.42866634  0.45874943  1
  O  O29  1  0.07133460  0.23688441  0.03008261  1
  O  O30  1  0.26311917  0.33445194  0.79319861  1
  O  O31  1  0.70680359  0.04125202  0.46992567  1
loop_
_geom_bond_atom_site_label_1
_geom_bond_atom_site_label_2
_geom_bond_distance
_geom_bond_site_symmetry_2
O0 Te0 2.131878 1_555
O0 Te1 2.131925 1_545
O0 Te8 2.131965 1_545
O0 O20 2.566094 1_545
O0 O21 2.566108 1_545
O0 O27 2.566138 1_555
O0 O26 2.753058 1_555
O0 O23 2.753070 1_545
O0 O19 2.753076 1_545
O1 Te9 2.131748 1_455
O1 Te8 2.131778 1_555
O1 Te11 2.132078 1_455
O1 O25 2.566058 1_455
O1 O19 2.566108 1_555
O1 O18 2.566131 1_455
O1 O16 2.752999 1_455
O1 O21 2.753067 1_555
O1 O22 2.753113 1_455
O2 Te11 2.131702 1_555
O2 Te10 2.131792 1_554
O2 Te0 2.131927 1_554
O2 O22 2.566087 1_555
O2 O26 2.566109 1_554
O2 O24 2.753032 1_554
O2 O27 2.753096 1_554
O3 Te1 2.131785 1_555
O3 Te10 2.131874 1_555
O3 Te9 2.131960 1_555
O4 Te6 2.131847 1_545
O4 Te7 2.131883 1_555
O4 Te5 2.132011 1_555
O4 O8 2.566124 1_545
O4 O9 2.753030 1_545
O5 Te5 2.131761 1_455
O5 Te4 2.131786 1_555
O5 Te2 2.132096 1_555
O6 Te2 2.131629 1_554
O6 Te3 2.131841 1_555
O6 Te6 2.131960 1_555
O6 O9 2.566123 1_555
O6 O8 2.753088 1_555
O7 Te7 2.131809 1_555
O7 Te3 2.131852 1_555
O7 Te4 2.131930 1_555
O8 Te6 1.884601 1_555
O8 Sn1 2.053788 1_555
O9 Te6 1.884356 1_555
O9 Sn3 2.053816 1_565
O10 Te4 1.884264 1_555
O10 Sn0 2.053841 1_555
O10 O5 2.566114 1_555
O10 O7 2.753032 1_555
O11 Te3 1.884446 1_555
O11 Sn1 2.053774 1_555
O11 O7 2.566140 1_555
O11 O6 2.753032 1_555
O12 Te7 1.884377 1_555
O12 Sn3 2.053799 1_555
O12 O7 2.566109 1_555
O12 O4 2.753025 1_555
O13 Te2 1.884306 1_555
O13 Sn2 2.053870 1_555
O13 O6 2.566097 1_556
O13 O5 2.753065 1_555
O14 Te5 1.884309 1_555
O14 Sn2 2.053817 1_655
O14 O4 2.566093 1_555
O14 O5 2.753021 1_655
O15 Te7 1.884252 1_555
O15 Sn0 2.053886 1_555
O15 O4 2.566083 1_555
O15 O7 2.753004 1_555
O16 Te9 1.884326 1_555
O16 Sn2 2.053850 1_655
O16 O3 2.566106 1_555
O17 Te10 1.884218 1_555
O17 Sn0 2.053866 1_666
O17 O2 2.566064 1_556
O17 O3 2.753017 1_555
O18 Te11 1.884410 1_555
O18 Sn1 2.053810 1_555
O18 O2 2.753066 1_555
O19 Te8 1.884381 1_555
O19 Sn3 2.053851 1_565
O20 Te1 1.884264 1_555
O20 Sn0 2.053853 1_666
O20 O3 2.753022 1_555
O21 Te8 1.884300 1_555
O21 Sn2 2.053838 1_555
O22 Te11 1.884322 1_555
O22 Sn2 2.053841 1_655
O23 Te1 1.884371 1_555
O23 Sn3 2.053793 1_565
O23 O3 2.566117 1_555
O24 Te10 1.884382 1_555
O24 Sn1 2.053834 1_556
O24 O3 2.566102 1_555
O25 Te9 1.884245 1_555
O25 Sn0 2.053863 1_666
O25 O3 2.753036 1_555
O26 Te0 1.884606 1_555
O26 Sn3 2.053800 1_555
O27 Te0 1.884458 1_555
O27 Sn1 2.053784 1_556
O28 Te4 1.884341 1_555
O28 Sn2 2.053827 1_555
O28 O7 2.566136 1_555
O28 O5 2.752998 1_555
O29 Te3 1.884271 1_555
O29 Sn0 2.053807 1_555
O29 O6 2.566071 1_555
O29 O7 2.753022 1_555
O30 Te2 1.884359 1_555
O30 Sn1 2.053824 1_556
O30 O5 2.566105 1_555
O30 O6 2.753039 1_556
O31 Te5 1.884437 1_555
O31 Sn3 2.053824 1_555
O31 O5 2.566149 1_655
O31 O4 2.753079 1_555
