# generated using pymatgen
data_Ag15W7N19
_symmetry_space_group_name_H-M   'P 1'
_cell_length_a   6.55589609
_cell_length_b   11.86921698
_cell_length_c   19.39332832
_cell_angle_alpha   93.43977817
_cell_angle_beta   93.58263227
_cell_angle_gamma   100.60888943
_symmetry_Int_Tables_number   1
_chemical_formula_structural   Ag15W7N19
_chemical_formula_sum   'Ag30 W14 N38'
_cell_volume   1476.42876288
_cell_formula_units_Z   2
loop_
 _symmetry_equiv_pos_site_id
 _symmetry_equiv_pos_as_xyz
  1  'x, y, z'
loop_
 _atom_site_type_symbol
 _atom_site_label
 _atom_site_symmetry_multiplicity
 _atom_site_fract_x
 _atom_site_fract_y
 _atom_site_fract_z
 _atom_site_occupancy
  Ag  Ag0  1  0.54433821  0.60407933  0.43064678  1
  Ag  Ag1  1  0.45566179  0.39592067  0.56935322  1
  Ag  Ag2  1  0.54197567  0.12859622  0.68557758  1
  Ag  Ag3  1  0.45802433  0.87140378  0.31442242  1
  Ag  Ag4  1  0.84656445  0.03101787  0.26539304  1
  Ag  Ag5  1  0.15343555  0.96898213  0.73460696  1
  Ag  Ag6  1  0.72048569  0.06502839  0.41447470  1
  Ag  Ag7  1  0.27951431  0.93497161  0.58552530  1
  Ag  Ag8  1  0.96233900  0.81908730  0.21272020  1
  Ag  Ag9  1  0.03766100  0.18091270  0.78727980  1
  Ag  Ag10  1  0.63874539  0.08919503  0.83142615  1
  Ag  Ag11  1  0.36125461  0.91080497  0.16857385  1
  Ag  Ag12  1  0.05719156  0.94475587  0.89712038  1
  Ag  Ag13  1  0.94280844  0.05524413  0.10287962  1
  Ag  Ag14  1  0.76035129  0.14550162  0.97944043  1
  Ag  Ag15  1  0.23964871  0.85449838  0.02055957  1
  Ag  Ag16  1  0.44007679  0.85007221  0.46429136  1
  Ag  Ag17  1  0.55992321  0.14992779  0.53570864  1
  Ag  Ag18  1  0.59026834  0.65352536  0.25420094  1
  Ag  Ag19  1  0.40973166  0.34647464  0.74579906  1
  Ag  Ag20  1  0.08294886  0.33593601  0.05750090  1
  Ag  Ag21  1  0.91705114  0.66406399  0.94249910  1
  Ag  Ag22  1  0.98726730  0.67739164  0.77723410  1
  Ag  Ag23  1  0.01273270  0.32260836  0.22276590  1
  Ag  Ag24  1  0.68109878  0.33451694  0.43132412  1
  Ag  Ag25  1  0.31890122  0.66548306  0.56867588  1
  Ag  Ag26  1  0.67993957  0.34475101  0.88163669  1
  Ag  Ag27  1  0.32006043  0.65524899  0.11836331  1
  Ag  Ag28  1  0.00000000  0.50000000  0.50000000  1
  Ag  Ag29  1  0.50000000  0.50000000  0.00000000  1
  W  W0  1  0.61567772  0.24986123  0.11998507  1
  W  W1  1  0.38432228  0.75013877  0.88001493  1
  W  W2  1  0.93109515  0.39109868  0.69967291  1
  W  W3  1  0.06890485  0.60890132  0.30032709  1
  W  W4  1  0.80631498  0.64769323  0.62993512  1
  W  W5  1  0.19368502  0.35230677  0.37006488  1
  W  W6  1  0.96495948  0.75351246  0.46787992  1
  W  W7  1  0.03504052  0.24648754  0.53212008  1
  W  W8  1  0.83263928  0.55262451  0.12550119  1
  W  W9  1  0.16736072  0.44737549  0.87449881  1
  W  W10  1  0.65027280  0.88714852  0.73307796  1
  W  W11  1  0.34972720  0.11285148  0.26692204  1
  W  W12  1  0.69674054  0.78953784  0.04898043  1
  W  W13  1  0.30325946  0.21046216  0.95101957  1
  N  N0  1  0.88824284  0.22347151  0.12925960  1
  N  N1  1  0.11175716  0.77652849  0.87074040  1
  N  N2  1  0.00582894  0.33215921  0.61790094  1
  N  N3  1  0.99417106  0.66784079  0.38209906  1
  N  N4  1  0.56878057  0.05726357  0.31352504  1
  N  N5  1  0.43121943  0.94273643  0.68647496  1
  N  N6  1  0.53123533  0.80728776  0.80607027  1
  N  N7  1  0.46876467  0.19271224  0.19392973  1
  N  N8  1  0.65019149  0.41135319  0.12632110  1
  N  N9  1  0.34980851  0.58864681  0.87367890  1
  N  N10  1  0.44598873  0.42756940  0.40389447  1
  N  N11  1  0.55401127  0.57243060  0.59610553  1
  N  N12  1  0.85173437  0.10795668  0.51885702  1
  N  N13  1  0.14826563  0.89204332  0.48114298  1
  N  N14  1  0.98031199  0.66606822  0.55170191  1
  N  N15  1  0.01968801  0.33393178  0.44829809  1
  N  N16  1  0.94802486  0.88865300  0.05839505  1
  N  N17  1  0.05197514  0.11134700  0.94160495  1
  N  N18  1  0.70270887  0.78095185  0.45773307  1
  N  N19  1  0.29729113  0.21904815  0.54226693  1
  N  N20  1  0.77037875  0.78697256  0.67541246  1
  N  N21  1  0.22962125  0.21302744  0.32458754  1
  N  N22  1  0.92331545  0.48775771  0.88861761  1
  N  N23  1  0.07668455  0.51224229  0.11138239  1
  N  N24  1  0.52523806  0.81005182  0.96674176  1
  N  N25  1  0.47476194  0.18994818  0.03325824  1
  N  N26  1  0.76123291  0.63478539  0.04432582  1
  N  N27  1  0.23876709  0.36521461  0.95567418  1
  N  N28  1  0.86276769  0.00509135  0.77394380  1
  N  N29  1  0.13723231  0.99490865  0.22605620  1
  N  N30  1  0.88030297  0.63114411  0.21885821  1
  N  N31  1  0.11969703  0.36885589  0.78114179  1
  N  N32  1  0.91218857  0.54904526  0.69107818  1
  N  N33  1  0.08781143  0.45095474  0.30892182  1
  N  N34  1  0.67501977  0.30688572  0.70743743  1
  N  N35  1  0.32498023  0.69311428  0.29256257  1
  N  N36  1  0.55708228  0.80713216  0.12794600  1
  N  N37  1  0.44291772  0.19286784  0.87205400  1
loop_
_geom_bond_atom_site_label_1
_geom_bond_atom_site_label_2
_geom_bond_distance
_geom_bond_site_symmetry_2
Ag0 N10 2.098678 1_555
Ag0 N18 2.181303 1_555
Ag1 N11 2.098678 1_555
Ag1 N19 2.181303 1_555
Ag2 N34 2.141291 1_555
Ag2 N5 2.193264 1_545
Ag3 N35 2.141291 1_555
Ag3 N4 2.193264 1_565
Ag4 N4 2.161314 1_555
Ag4 N29 2.200021 1_645
Ag4 Ag8 2.904926 1_545
Ag5 N5 2.161314 1_555
Ag5 N28 2.200021 1_465
Ag5 Ag9 2.904926 1_565
Ag6 N4 2.128777 1_555
Ag6 N12 2.143590 1_555
Ag7 N5 2.128777 1_555
Ag7 N13 2.143590 1_555
Ag8 N29 2.180292 1_655
Ag8 N30 2.208558 1_555
Ag8 N36 3.011486 1_555
Ag9 N28 2.180292 1_455
Ag9 N31 2.208558 1_555
Ag9 N37 3.011486 1_555
Ag10 N37 2.091634 1_555
Ag10 N28 2.237655 1_555
Ag10 Ag9 2.846221 1_655
Ag10 Ag14 2.934204 1_555
Ag10 Ag2 2.943680 1_555
Ag11 N36 2.091634 1_555
Ag11 N29 2.237655 1_555
Ag11 Ag8 2.846221 1_455
Ag11 Ag15 2.934204 1_555
Ag11 Ag3 2.943680 1_555
Ag12 N17 2.116378 1_565
Ag12 N1 2.130707 1_555
Ag12 N28 2.829267 1_465
Ag12 Ag15 2.954814 1_556
Ag13 N16 2.116378 1_545
Ag13 N0 2.130707 1_555
Ag13 N29 2.829267 1_645
Ag13 Ag14 2.954814 1_554
Ag14 N17 2.186992 1_655
Ag14 N25 2.327004 1_556
Ag14 N37 3.002278 1_555
Ag14 Ag20 3.050033 1_656
Ag15 N16 2.186992 1_455
Ag15 N24 2.327004 1_554
Ag15 N36 3.002278 1_555
Ag15 Ag21 3.050033 1_454
Ag16 N18 2.046646 1_555
Ag16 N13 2.103420 1_555
Ag16 Ag7 2.840219 1_555
Ag16 Ag3 2.940326 1_555
Ag17 N19 2.046646 1_555
Ag17 N12 2.103420 1_555
Ag17 Ag6 2.840219 1_555
Ag17 Ag2 2.940326 1_555
Ag18 N35 2.054206 1_555
Ag18 N30 2.117271 1_555
Ag18 Ag8 3.021369 1_555
Ag19 N34 2.054206 1_555
Ag19 N31 2.117271 1_555
Ag19 Ag9 3.021369 1_555
Ag20 N0 2.272760 1_455
Ag20 N23 2.290687 1_555
Ag20 N27 2.295149 1_554
Ag21 N1 2.272760 1_655
Ag21 N22 2.290687 1_555
Ag21 N26 2.295149 1_556
Ag22 N1 2.131772 1_655
Ag22 N32 2.161102 1_555
Ag22 N20 2.872454 1_555
Ag23 N0 2.131772 1_455
Ag23 N33 2.161102 1_555
Ag23 N21 2.872454 1_555
Ag24 N10 2.115051 1_555
Ag24 N15 2.224939 1_655
Ag24 Ag28 2.797994 1_655
Ag25 N11 2.115051 1_555
Ag25 N14 2.224939 1_455
Ag25 Ag28 2.797994 1_555
Ag26 N22 2.096049 1_555
Ag26 N37 2.142715 1_555
Ag27 N23 2.096049 1_555
Ag27 N36 2.142715 1_555
Ag28 N14 2.186306 1_455
Ag28 N15 2.186306 1_555
Ag29 N27 2.207604 1_554
Ag29 N26 2.207604 1_555
Ag29 N8 2.909869 1_555
Ag29 N9 2.909869 1_554
N0 W0 1.869809 1_555
N1 W1 1.869809 1_555
N2 W2 1.826056 1_455
N2 W7 1.935635 1_555
N3 W3 1.826056 1_655
N3 W6 1.935635 1_555
N4 W11 1.890168 1_555
N5 W10 1.890168 1_555
N6 W1 1.868956 1_555
N6 W10 1.880965 1_555
N7 W0 1.868956 1_555
N7 W11 1.880965 1_555
N8 W8 1.873397 1_555
N8 W0 1.883858 1_555
N9 W9 1.873397 1_555
N9 W1 1.883858 1_555
N10 W5 1.792870 1_555
N11 W4 1.792870 1_555
N12 W7 1.843082 1_655
N13 W6 1.843082 1_455
N14 W4 1.953222 1_555
N14 W6 1.987553 1_555
N15 W5 1.953222 1_555
N15 W7 1.987553 1_555
N16 W12 1.831459 1_555
N17 W13 1.831459 1_555
N18 W6 1.808958 1_555
N19 W7 1.808958 1_555
N20 W4 1.886963 1_555
N20 W10 1.891987 1_555
N21 W5 1.886963 1_555
N21 W11 1.891987 1_555
N22 W9 1.784899 1_655
N23 W8 1.784899 1_455
N24 W1 1.899580 1_555
N24 W12 1.946893 1_556
N25 W0 1.899580 1_555
N25 W13 1.946893 1_554
N26 W12 1.957431 1_555
N26 W8 1.977029 1_555
N27 W13 1.957431 1_555
N27 W9 1.977029 1_555
N28 W10 1.881306 1_545
N29 W11 1.881306 1_565
N30 W8 1.965634 1_555
N30 W3 2.005211 1_655
N31 W9 1.965634 1_555
N31 W2 2.005211 1_455
N32 W4 1.903089 1_555
N32 W2 1.917845 1_555
N33 W5 1.903089 1_555
N33 W3 1.917845 1_555
N34 W2 1.808847 1_555
N35 W3 1.808847 1_555
N36 W12 1.853205 1_555
N37 W13 1.853205 1_555
