# generated using pymatgen
data_Tb2Y2O5
_symmetry_space_group_name_H-M   'P 1'
_cell_length_a   3.90798900
_cell_length_b   3.90798900
_cell_length_c   9.87530600
_cell_angle_alpha   90.00000000
_cell_angle_beta   90.00000000
_cell_angle_gamma   90.00000000
_symmetry_Int_Tables_number   1
_chemical_formula_structural   Tb2Y2O5
_chemical_formula_sum   'Tb2 Y2 O5'
_cell_volume   150.81940634
_cell_formula_units_Z   1
loop_
 _symmetry_equiv_pos_site_id
 _symmetry_equiv_pos_as_xyz
  1  'x, y, z'
loop_
 _atom_site_type_symbol
 _atom_site_label
 _atom_site_symmetry_multiplicity
 _atom_site_fract_x
 _atom_site_fract_y
 _atom_site_fract_z
 _atom_site_occupancy
  Tb  Tb0  1  0.50000000  0.50000000  0.23697800  1
  Tb  Tb1  1  0.50000000  0.50000000  0.76302200  1
  Y  Y0  1  0.00000000  0.00000000  0.00000000  1
  Y  Y1  1  0.00000000  0.00000000  0.50000000  1
  O  O0  1  0.50000000  0.00000000  0.14047400  1
  O  O1  1  0.50000000  0.00000000  0.85952600  1
  O  O2  1  0.50000000  0.50000000  0.50000000  1
  O  O3  1  0.00000000  0.50000000  0.14047400  1
  O  O4  1  0.00000000  0.50000000  0.85952600  1
loop_
_geom_bond_atom_site_label_1
_geom_bond_atom_site_label_2
_geom_bond_distance
_geom_bond_site_symmetry_2
O0 Tb0 2.174009 1_545
O0 Tb0 2.174009 1_555
O0 Y0 2.396348 1_655
O0 Y0 2.396348 1_555
O0 O3 2.763366 1_545
O0 O3 2.763366 1_555
O0 O3 2.763366 1_645
O0 O3 2.763366 1_655
O0 O1 2.774447 1_554
O1 Tb1 2.174009 1_555
O1 Tb1 2.174009 1_545
O1 Y0 2.396348 1_556
O1 Y0 2.396348 1_656
O1 O4 2.763366 1_655
O1 O4 2.763366 1_545
O1 O4 2.763366 1_645
O1 O4 2.763366 1_555
O2 Tb0 2.597423 1_555
O2 Tb1 2.597423 1_555
O2 Y1 2.763366 1_665
O2 Y1 2.763366 1_555
O2 Y1 2.763366 1_565
O2 Y1 2.763366 1_655
O3 Tb0 2.174009 1_555
O3 Tb0 2.174009 1_455
O3 Y0 2.396348 1_565
O3 Y0 2.396348 1_555
O3 O4 2.774447 1_554
O4 Tb1 2.174009 1_455
O4 Tb1 2.174009 1_555
O4 Y0 2.396348 1_566
O4 Y0 2.396348 1_556
