# generated using pymatgen
data_SrCaMnNbO6
_symmetry_space_group_name_H-M   'P 1'
_cell_length_a   5.66182585
_cell_length_b   5.66182585
_cell_length_c   5.66182585
_cell_angle_alpha   60.00000000
_cell_angle_beta   60.00000000
_cell_angle_gamma   60.00000000
_symmetry_Int_Tables_number   1
_chemical_formula_structural   SrCaMnNbO6
_chemical_formula_sum   'Sr1 Ca1 Mn1 Nb1 O6'
_cell_volume   128.33777989
_cell_formula_units_Z   1
loop_
 _symmetry_equiv_pos_site_id
 _symmetry_equiv_pos_as_xyz
  1  'x, y, z'
loop_
 _atom_site_type_symbol
 _atom_site_label
 _atom_site_symmetry_multiplicity
 _atom_site_fract_x
 _atom_site_fract_y
 _atom_site_fract_z
 _atom_site_occupancy
  Sr  Sr0  1  0.25000000  0.25000000  0.25000000  1
  Ca  Ca0  1  0.75000000  0.75000000  0.75000000  1
  Mn  Mn0  1  0.00000000  0.00000000  0.00000000  1
  Nb  Nb0  1  0.50000000  0.50000000  0.50000000  1
  O  O0  1  0.74912416  0.25087584  0.25087584  1
  O  O1  1  0.25087584  0.74912416  0.74912416  1
  O  O2  1  0.74912416  0.25087584  0.74912416  1
  O  O3  1  0.25087584  0.74912416  0.25087584  1
  O  O4  1  0.74912416  0.74912416  0.25087584  1
  O  O5  1  0.25087584  0.25087584  0.74912416  1
loop_
_geom_bond_atom_site_label_1
_geom_bond_atom_site_label_2
_geom_bond_distance
_geom_bond_site_symmetry_2
Ca0 O4 2.830922 1_555
Ca0 O1 2.830922 1_555
Ca0 O5 2.830922 1_655
Ca0 O5 2.830922 1_565
Ca0 O2 2.830922 1_555
Ca0 O0 2.830922 1_556
Ca0 O3 2.830922 1_556
Ca0 O4 2.830922 1_556
Ca0 O0 2.830922 1_565
Ca0 O3 2.830922 1_655
Ca0 O1 2.830922 1_655
Ca0 O2 2.830922 1_565
Mn0 O4 2.008771 1_445
Mn0 O2 2.008771 1_454
Mn0 O1 2.008771 1_544
Mn0 O5 2.008771 1_554
Mn0 O0 2.008771 1_455
Mn0 O3 2.008771 1_545
Nb0 O3 1.994745 1_555
Nb0 O0 1.994745 1_555
Nb0 O5 1.994745 1_555
Nb0 O4 1.994745 1_555
Nb0 O1 1.994745 1_555
Nb0 O2 1.994745 1_555
O0 Sr0 2.830922 1_655
O0 Sr0 2.830922 1_555
O1 Sr0 2.830922 1_565
O1 Sr0 2.830922 1_556
O2 Sr0 2.830922 1_556
O2 Sr0 2.830922 1_655
O3 Sr0 2.830922 1_565
O3 Sr0 2.830922 1_555
O4 Sr0 2.830922 1_565
O4 Sr0 2.830922 1_655
O5 Sr0 2.830922 1_556
O5 Sr0 2.830922 1_555
