# generated using pymatgen
data_ZnIn3AsSe4
_symmetry_space_group_name_H-M   'P 1'
_cell_length_a   5.97614800
_cell_length_b   7.27452348
_cell_length_c   7.31861138
_cell_angle_alpha   80.08605758
_cell_angle_beta   66.01450271
_cell_angle_gamma   65.82040939
_symmetry_Int_Tables_number   1
_chemical_formula_structural   ZnIn3AsSe4
_chemical_formula_sum   'Zn1 In3 As1 Se4'
_cell_volume   265.18268586
_cell_formula_units_Z   1
loop_
 _symmetry_equiv_pos_site_id
 _symmetry_equiv_pos_as_xyz
  1  'x, y, z'
loop_
 _atom_site_type_symbol
 _atom_site_label
 _atom_site_symmetry_multiplicity
 _atom_site_fract_x
 _atom_site_fract_y
 _atom_site_fract_z
 _atom_site_occupancy
  Zn  Zn0  1  0.98718700  0.00352600  0.99840800  1
  In  In0  1  0.39669500  0.39546400  0.80803300  1
  In  In1  1  0.61198600  0.60287500  0.19341000  1
  In  In2  1  0.80286300  0.80047000  0.60137300  1
  As  As0  1  0.42615600  0.71629000  0.90400200  1
  Se  Se0  1  0.64621300  0.91813600  0.29598000  1
  Se  Se1  1  0.86985300  0.10423500  0.69514200  1
  Se  Se2  1  0.05201500  0.27891100  0.11286800  1
  Se  Se3  1  0.25703300  0.48009300  0.49078500  1
loop_
_geom_bond_atom_site_label_1
_geom_bond_atom_site_label_2
_geom_bond_distance
_geom_bond_site_symmetry_2
In0 Se1 2.638646 1_555
In0 Se2 2.642408 1_556
In0 Se3 2.669991 1_555
In1 Se2 2.637786 1_655
In1 Se0 2.639475 1_555
In1 Se3 2.676462 1_555
In2 Se1 2.642810 1_565
In2 Se0 2.643948 1_555
In2 Se3 2.671161 1_655
As0 Zn0 2.501686 1_465
As0 In2 2.637639 1_555
As0 In1 2.638232 1_556
As0 In0 2.640603 1_555
Se0 Zn0 2.498829 1_564
Se1 Zn0 2.497819 1_555
Se2 Zn0 2.518432 1_454
