# generated using pymatgen
data_ErH3
_symmetry_space_group_name_H-M   'P 1'
_cell_length_a   3.60094128
_cell_length_b   3.60094128
_cell_length_c   3.60094128
_cell_angle_alpha   60.00000000
_cell_angle_beta   60.00000000
_cell_angle_gamma   60.00000000
_symmetry_Int_Tables_number   1
_chemical_formula_structural   ErH3
_chemical_formula_sum   'Er1 H3'
_cell_volume   33.01665880
_cell_formula_units_Z   1
loop_
 _symmetry_equiv_pos_site_id
 _symmetry_equiv_pos_as_xyz
  1  'x, y, z'
loop_
 _atom_site_type_symbol
 _atom_site_label
 _atom_site_symmetry_multiplicity
 _atom_site_fract_x
 _atom_site_fract_y
 _atom_site_fract_z
 _atom_site_occupancy
  Er  Er0  1  0.00000000  0.00000000  0.00000000  1
  H  H0  1  0.75000000  0.75000000  0.75000000  1
  H  H1  1  0.25000000  0.25000000  0.25000000  1
  H  H2  1  0.50000000  0.50000000  0.50000000  1
loop_
_geom_bond_atom_site_label_1
_geom_bond_atom_site_label_2
_geom_bond_distance
_geom_bond_site_symmetry_2
Er0 H0 2.205117 1_544
Er0 H1 2.205117 1_455
Er0 H1 2.205117 1_545
Er0 H0 2.205117 1_454
Er0 H1 2.205117 1_554
Er0 H0 2.205117 1_444
Er0 H0 2.205117 1_445
Er0 H1 2.205117 1_555
Er0 H2 2.546250 1_455
Er0 H2 2.546250 1_554
Er0 H2 2.546250 1_454
Er0 H2 2.546250 1_545
Er0 H2 2.546250 1_445
Er0 H2 2.546250 1_544
H0 H2 2.205117 1_655
H0 H2 2.205117 1_565
H0 H2 2.205117 1_555
H0 H2 2.205117 1_556
H0 H1 2.546250 1_565
H0 H1 2.546250 1_656
H0 H1 2.546250 1_665
H0 H1 2.546250 1_556
H0 H1 2.546250 1_566
H0 H1 2.546250 1_655
H1 H2 2.205117 1_455
H1 H2 2.205117 1_545
H1 H2 2.205117 1_555
H1 H2 2.205117 1_554
