# generated using pymatgen
data_Tb2N3
_symmetry_space_group_name_H-M   'P 1'
_cell_length_a   9.55468161
_cell_length_b   9.55468161
_cell_length_c   9.55468161
_cell_angle_alpha   109.47122063
_cell_angle_beta   109.47122063
_cell_angle_gamma   109.47122063
_symmetry_Int_Tables_number   1
_chemical_formula_structural   Tb2N3
_chemical_formula_sum   'Tb16 N24'
_cell_volume   671.47023867
_cell_formula_units_Z   8
loop_
 _symmetry_equiv_pos_site_id
 _symmetry_equiv_pos_as_xyz
  1  'x, y, z'
loop_
 _atom_site_type_symbol
 _atom_site_label
 _atom_site_symmetry_multiplicity
 _atom_site_fract_x
 _atom_site_fract_y
 _atom_site_fract_z
 _atom_site_occupancy
  Tb  Tb0  1  0.50000000  0.00000000  0.50000000  1
  Tb  Tb1  1  0.50000000  0.50000000  0.00000000  1
  Tb  Tb2  1  0.00000000  0.50000000  0.50000000  1
  Tb  Tb3  1  0.00000000  0.00000000  0.00000000  1
  Tb  Tb4  1  0.78000700  0.25000000  0.03000700  1
  Tb  Tb5  1  0.71999300  0.75000000  0.46999300  1
  Tb  Tb6  1  0.25000000  0.03000700  0.78000700  1
  Tb  Tb7  1  0.75000000  0.46999300  0.71999300  1
  Tb  Tb8  1  0.03000700  0.78000700  0.25000000  1
  Tb  Tb9  1  0.46999300  0.71999300  0.75000000  1
  Tb  Tb10  1  0.21999300  0.75000000  0.96999300  1
  Tb  Tb11  1  0.28000700  0.25000000  0.53000700  1
  Tb  Tb12  1  0.75000000  0.96999300  0.21999300  1
  Tb  Tb13  1  0.25000000  0.53000700  0.28000700  1
  Tb  Tb14  1  0.96999300  0.21999300  0.75000000  1
  Tb  Tb15  1  0.53000700  0.28000700  0.25000000  1
  N  N0  1  0.48994100  0.23015600  0.46300600  1
  N  N1  1  0.23285000  0.26984400  0.75978500  1
  N  N2  1  0.01005900  0.47306500  0.74021500  1
  N  N3  1  0.26715000  0.02693500  0.03699400  1
  N  N4  1  0.23015600  0.46300600  0.48994100  1
  N  N5  1  0.26984400  0.75978500  0.23285000  1
  N  N6  1  0.47306500  0.74021500  0.01005900  1
  N  N7  1  0.02693500  0.03699400  0.26715000  1
  N  N8  1  0.46300600  0.48994100  0.23015600  1
  N  N9  1  0.75978500  0.23285000  0.26984400  1
  N  N10  1  0.74021500  0.01005900  0.47306500  1
  N  N11  1  0.03699400  0.26715000  0.02693500  1
  N  N12  1  0.51005900  0.76984400  0.53699400  1
  N  N13  1  0.76715000  0.73015600  0.24021500  1
  N  N14  1  0.98994100  0.52693500  0.25978500  1
  N  N15  1  0.73285000  0.97306500  0.96300600  1
  N  N16  1  0.76984400  0.53699400  0.51005900  1
  N  N17  1  0.73015600  0.24021500  0.76715000  1
  N  N18  1  0.52693500  0.25978500  0.98994100  1
  N  N19  1  0.97306500  0.96300600  0.73285000  1
  N  N20  1  0.53699400  0.51005900  0.76984400  1
  N  N21  1  0.24021500  0.76715000  0.73015600  1
  N  N22  1  0.25978500  0.98994100  0.52693500  1
  N  N23  1  0.96300600  0.73285000  0.97306500  1
loop_
_geom_bond_atom_site_label_1
_geom_bond_atom_site_label_2
_geom_bond_distance
_geom_bond_site_symmetry_2
N0 Tb11 2.344761 1_555
N0 Tb15 2.357878 1_555
N0 Tb0 2.367810 1_555
N0 Tb7 2.416581 1_555
N1 Tb11 2.344761 1_555
N1 Tb14 2.357878 1_455
N1 Tb1 2.367810 1_556
N1 Tb6 2.416581 1_555
N2 Tb10 2.344761 1_555
N2 Tb14 2.357878 1_455
N2 Tb2 2.367810 1_555
N2 Tb7 2.416581 1_455
N3 Tb10 2.344761 1_544
N3 Tb15 2.357878 1_555
N3 Tb3 2.367810 1_555
N3 Tb6 2.416581 1_554
N4 Tb13 2.344761 1_555
N4 Tb11 2.357878 1_555
N4 Tb2 2.367810 1_555
N4 Tb9 2.416581 1_555
N5 Tb13 2.344761 1_555
N5 Tb10 2.357878 1_554
N5 Tb0 2.367810 1_565
N5 Tb8 2.416581 1_555
N6 Tb12 2.344761 1_555
N6 Tb10 2.357878 1_554
N6 Tb1 2.367810 1_555
N6 Tb9 2.416581 1_554
N7 Tb12 2.344761 1_445
N7 Tb11 2.357878 1_555
N7 Tb3 2.367810 1_555
N7 Tb8 2.416581 1_545
N8 Tb15 2.344761 1_555
N8 Tb13 2.357878 1_555
N8 Tb1 2.367810 1_555
N8 Tb5 2.416581 1_555
N9 Tb15 2.344761 1_555
N9 Tb12 2.357878 1_545
N9 Tb2 2.367810 1_655
N9 Tb4 2.416581 1_555
N10 Tb14 2.344761 1_555
N10 Tb12 2.357878 1_545
N10 Tb0 2.367810 1_555
N10 Tb5 2.416581 1_545
N11 Tb14 2.344761 1_454
N11 Tb13 2.357878 1_555
N11 Tb3 2.367810 1_555
N11 Tb4 2.416581 1_455
N12 Tb5 2.344761 1_555
N12 Tb9 2.357878 1_555
N12 Tb0 2.367810 1_565
N12 Tb13 2.416581 1_555
N13 Tb5 2.344761 1_555
N13 Tb8 2.357878 1_655
N13 Tb1 2.367810 1_555
N13 Tb12 2.416581 1_555
N14 Tb4 2.344761 1_555
N14 Tb8 2.357878 1_655
N14 Tb2 2.367810 1_655
N14 Tb13 2.416581 1_655
N15 Tb4 2.344761 1_566
N15 Tb9 2.357878 1_555
N15 Tb3 2.367810 1_666
N15 Tb12 2.416581 1_556
N16 Tb7 2.344761 1_555
N16 Tb5 2.357878 1_555
N16 Tb2 2.367810 1_655
N16 Tb15 2.416581 1_555
N17 Tb7 2.344761 1_555
N17 Tb4 2.357878 1_556
N17 Tb0 2.367810 1_555
N17 Tb14 2.416581 1_555
N18 Tb6 2.344761 1_555
N18 Tb4 2.357878 1_556
N18 Tb1 2.367810 1_556
N18 Tb15 2.416581 1_556
N19 Tb6 2.344761 1_665
N19 Tb5 2.357878 1_555
N19 Tb3 2.367810 1_666
N19 Tb14 2.416581 1_565
N20 Tb9 2.344761 1_555
N20 Tb7 2.357878 1_555
N20 Tb1 2.367810 1_556
N20 Tb11 2.416581 1_555
N21 Tb9 2.344761 1_555
N21 Tb6 2.357878 1_565
N21 Tb2 2.367810 1_555
N21 Tb10 2.416581 1_555
N22 Tb8 2.344761 1_555
N22 Tb6 2.357878 1_565
N22 Tb0 2.367810 1_565
N22 Tb11 2.416581 1_565
N23 Tb8 2.344761 1_656
N23 Tb7 2.357878 1_555
N23 Tb3 2.367810 1_666
N23 Tb10 2.416581 1_655
