# generated using pymatgen
data_Ca2SbWO6
_symmetry_space_group_name_H-M   'P 1'
_cell_length_a   5.65817700
_cell_length_b   5.94629319
_cell_length_c   6.09835116
_cell_angle_alpha   72.95355081
_cell_angle_beta   66.05933652
_cell_angle_gamma   64.61601022
_symmetry_Int_Tables_number   1
_chemical_formula_structural   Ca2SbWO6
_chemical_formula_sum   'Ca2 Sb1 W1 O6'
_cell_volume   167.64849999
_cell_formula_units_Z   1
loop_
 _symmetry_equiv_pos_site_id
 _symmetry_equiv_pos_as_xyz
  1  'x, y, z'
loop_
 _atom_site_type_symbol
 _atom_site_label
 _atom_site_symmetry_multiplicity
 _atom_site_fract_x
 _atom_site_fract_y
 _atom_site_fract_z
 _atom_site_occupancy
  Ca  Ca0  1  0.75778500  0.91457700  0.65492800  1
  Ca  Ca1  1  0.25035800  0.35093400  0.07779700  1
  Sb  Sb0  1  0.52985100  0.53626900  0.43382500  1
  W  W0  1  0.99696500  0.95663500  0.04098600  1
  O  O0  1  0.86212000  0.21417500  0.29097200  1
  O  O1  1  0.08151700  0.70421700  0.84073900  1
  O  O2  1  0.29052500  0.06894700  0.85162800  1
  O  O3  1  0.70611300  0.17124100  0.91267200  1
  O  O4  1  0.29242300  0.66004600  0.22520900  1
  O  O5  1  0.73495900  0.77519800  0.33055400  1
loop_
_geom_bond_atom_site_label_1
_geom_bond_atom_site_label_2
_geom_bond_distance
_geom_bond_site_symmetry_2
Ca0 O1 2.256765 1_655
Ca0 O2 2.293993 1_565
Ca0 O3 2.352933 1_565
Ca0 O5 2.424245 1_555
Ca0 O0 2.443069 1_565
Ca1 O3 2.228590 1_554
Ca1 O1 2.243955 1_554
Ca1 O2 2.353802 1_554
Ca1 O4 2.400168 1_555
Ca1 O0 2.402292 1_455
O0 Sb0 2.126864 1_555
O0 W0 2.162051 1_545
O0 O3 2.891002 1_554
O1 W0 1.989433 1_456
O1 Sb0 2.786103 1_555
O2 W0 1.865665 1_446
O2 O4 2.802164 1_546
O3 W0 1.899527 1_546
O4 Sb0 1.988806 1_555
O4 W0 2.236528 1_455
O4 O5 2.755421 1_455
O5 Sb0 2.014413 1_555
O5 W0 2.147029 1_555
