# generated using pymatgen
data_Li3Ti7O14
_symmetry_space_group_name_H-M   'P 1'
_cell_length_a   10.36027400
_cell_length_b   10.36027400
_cell_length_c   13.37758567
_cell_angle_alpha   82.57022968
_cell_angle_beta   82.57022968
_cell_angle_gamma   48.17478060
_symmetry_Int_Tables_number   1
_chemical_formula_structural   Li3Ti7O14
_chemical_formula_sum   'Li12 Ti28 O56'
_cell_volume   1059.20964598
_cell_formula_units_Z   4
loop_
 _symmetry_equiv_pos_site_id
 _symmetry_equiv_pos_as_xyz
  1  'x, y, z'
loop_
 _atom_site_type_symbol
 _atom_site_label
 _atom_site_symmetry_multiplicity
 _atom_site_fract_x
 _atom_site_fract_y
 _atom_site_fract_z
 _atom_site_occupancy
  Li  Li0  1  0.19682300  0.94525500  0.03670000  1
  Li  Li1  1  0.08925600  0.33927500  0.10687400  1
  Li  Li2  1  0.76664500  0.51790300  0.32111100  1
  Li  Li3  1  0.48209700  0.23335500  0.17888900  1
  Li  Li4  1  0.94525500  0.19682300  0.53670000  1
  Li  Li5  1  0.66072500  0.91074400  0.39312600  1
  Li  Li6  1  0.33927500  0.08925600  0.60687400  1
  Li  Li7  1  0.05474500  0.80317700  0.46330000  1
  Li  Li8  1  0.51790300  0.76664500  0.82111100  1
  Li  Li9  1  0.23335500  0.48209700  0.67888900  1
  Li  Li10  1  0.91074400  0.66072500  0.89312600  1
  Li  Li11  1  0.80317700  0.05474500  0.96330000  1
  Ti  Ti0  1  0.78184300  0.28960900  0.14373100  1
  Ti  Ti1  1  0.64176100  0.64123100  0.07285900  1
  Ti  Ti2  1  0.50000000  0.00000000  0.00000000  1
  Ti  Ti3  1  0.42775700  0.92737100  0.21504100  1
  Ti  Ti4  1  0.07399100  0.06735400  0.28541100  1
  Ti  Ti5  1  0.78539000  0.78704000  0.14236700  1
  Ti  Ti6  1  0.50000000  0.50000000  0.00000000  1
  Ti  Ti7  1  0.14434000  0.64291500  0.07270800  1
  Ti  Ti8  1  0.35708500  0.85566000  0.42729200  1
  Ti  Ti9  1  0.21296000  0.21461000  0.35763300  1
  Ti  Ti10  1  0.93264600  0.92600900  0.21458900  1
  Ti  Ti11  1  0.07262900  0.57224300  0.28495900  1
  Ti  Ti12  1  0.00000000  0.50000000  0.50000000  1
  Ti  Ti13  1  0.64123100  0.64176100  0.57285900  1
  Ti  Ti14  1  0.35876900  0.35823900  0.42714100  1
  Ti  Ti15  1  0.71039100  0.21815700  0.35626900  1
  Ti  Ti16  1  0.28960900  0.78184300  0.64373100  1
  Ti  Ti17  1  0.06735400  0.07399100  0.78541100  1
  Ti  Ti18  1  0.92737100  0.42775700  0.71504100  1
  Ti  Ti19  1  0.78704000  0.78539000  0.64236700  1
  Ti  Ti20  1  0.64291500  0.14434000  0.57270800  1
  Ti  Ti21  1  0.50000000  0.50000000  0.50000000  1
  Ti  Ti22  1  0.92600900  0.93264600  0.71458900  1
  Ti  Ti23  1  0.21461000  0.21296000  0.85763300  1
  Ti  Ti24  1  0.57224300  0.07262900  0.78495900  1
  Ti  Ti25  1  0.85566000  0.35708500  0.92729200  1
  Ti  Ti26  1  0.35823900  0.35876900  0.92714100  1
  Ti  Ti27  1  0.21815700  0.71039100  0.85626900  1
  O  O0  1  0.74516400  0.26908200  0.00389500  1
  O  O1  1  0.87336100  0.39821200  0.06770300  1
  O  O2  1  0.55595200  0.52427500  0.12934000  1
  O  O3  1  0.01876500  0.04576400  0.15357000  1
  O  O4  1  0.73343900  0.75942900  0.01093900  1
  O  O5  1  0.41285300  0.88760700  0.07495200  1
  O  O6  1  0.66974000  0.69500900  0.20337800  1
  O  O7  1  0.82760000  0.30095500  0.28206100  1
  O  O8  1  0.54107400  0.01614000  0.13910200  1
  O  O9  1  0.38341400  0.40859000  0.06068200  1
  O  O10  1  0.02960900  0.55562800  0.14644300  1
  O  O11  1  0.90151500  0.87719300  0.08184700  1
  O  O12  1  0.31441500  0.84616100  0.29027300  1
  O  O13  1  0.18758800  0.16279400  0.22498400  1
  O  O14  1  0.12280700  0.09848500  0.41815300  1
  O  O15  1  0.83720600  0.81241200  0.27501600  1
  O  O16  1  0.15383900  0.68558500  0.20972700  1
  O  O17  1  0.44437200  0.97039100  0.35355700  1
  O  O18  1  0.30499100  0.33026000  0.29662200  1
  O  O19  1  0.59141000  0.61658600  0.43931800  1
  O  O20  1  0.98386000  0.45892600  0.36089800  1
  O  O21  1  0.26908200  0.74516400  0.50389500  1
  O  O22  1  0.69904500  0.17240000  0.21793900  1
  O  O23  1  0.52427500  0.55595200  0.62934000  1
  O  O24  1  0.24057100  0.26656100  0.48906100  1
  O  O25  1  0.95423600  0.98123500  0.34643000  1
  O  O26  1  0.39821200  0.87336100  0.56770300  1
  O  O27  1  0.11239300  0.58714700  0.42504800  1
  O  O28  1  0.88760700  0.41285300  0.57495200  1
  O  O29  1  0.47572500  0.44404800  0.37066000  1
  O  O30  1  0.04576400  0.01876500  0.65357000  1
  O  O31  1  0.60178800  0.12663900  0.43229700  1
  O  O32  1  0.75942900  0.73343900  0.51093900  1
  O  O33  1  0.30095500  0.82760000  0.78206100  1
  O  O34  1  0.69500900  0.66974000  0.70337800  1
  O  O35  1  0.01614000  0.54107400  0.63910200  1
  O  O36  1  0.73091800  0.25483600  0.49610500  1
  O  O37  1  0.40859000  0.38341400  0.56068200  1
  O  O38  1  0.55562800  0.02960900  0.64644300  1
  O  O39  1  0.84616100  0.31441600  0.79027300  1
  O  O40  1  0.16279400  0.18758800  0.72498400  1
  O  O41  1  0.87719300  0.90151500  0.58184700  1
  O  O42  1  0.09848500  0.12280700  0.91815300  1
  O  O43  1  0.97039100  0.44437200  0.85355700  1
  O  O44  1  0.68558400  0.15383900  0.70972700  1
  O  O45  1  0.81241200  0.83720600  0.77501600  1
  O  O46  1  0.61658600  0.59141000  0.93931800  1
  O  O47  1  0.45892600  0.98386000  0.86089800  1
  O  O48  1  0.33026000  0.30499100  0.79662200  1
  O  O49  1  0.17240000  0.69904500  0.71793900  1
  O  O50  1  0.26656100  0.24057100  0.98906100  1
  O  O51  1  0.58714700  0.11239300  0.92504800  1
  O  O52  1  0.98123500  0.95423600  0.84643000  1
  O  O53  1  0.12663900  0.60178800  0.93229700  1
  O  O54  1  0.44404800  0.47572500  0.87066000  1
  O  O55  1  0.25483600  0.73091800  0.99610500  1
loop_
_geom_bond_atom_site_label_1
_geom_bond_atom_site_label_2
_geom_bond_distance
_geom_bond_site_symmetry_2
Li0 O55 2.008631 1_554
Li0 O3 2.011181 1_565
Li0 O5 2.015473 1_555
Li0 O42 2.024988 1_564
Li1 O1 2.012270 1_455
Li1 O10 2.015230 1_555
Li1 O13 2.015495 1_555
Li1 O50 2.016611 1_554
Li2 O19 2.010457 1_555
Li2 O7 2.012173 1_555
Li2 O6 2.014920 1_555
Li2 O20 2.027983 1_555
Li3 O9 2.010457 1_555
Li3 O22 2.012173 1_555
Li3 O18 2.014920 1_555
Li3 O8 2.027983 1_555
Li4 O36 2.008631 1_555
Li4 O30 2.011181 1_655
Li4 O28 2.015473 1_555
Li4 O14 2.024988 1_655
Li5 O31 2.012270 1_565
Li5 O17 2.015230 1_555
Li5 O15 2.015495 1_555
Li5 O32 2.016611 1_555
Li6 O26 2.012270 1_545
Li6 O38 2.015230 1_555
Li6 O40 2.015495 1_555
Li6 O24 2.016611 1_555
Li7 O21 2.008631 1_555
Li7 O25 2.011181 1_455
Li7 O27 2.015473 1_555
Li7 O41 2.024988 1_455
Li8 O46 2.010457 1_555
Li8 O33 2.012173 1_555
Li8 O34 2.014920 1_555
Li8 O47 2.027983 1_555
Li9 O37 2.010457 1_555
Li9 O49 2.012173 1_555
Li9 O48 2.014920 1_555
Li9 O35 2.027983 1_555
Li10 O53 2.012270 1_655
Li10 O43 2.015230 1_555
Li10 O45 2.015495 1_555
Li10 O4 2.016611 1_556
Li11 O0 2.008631 1_556
Li11 O52 2.011181 1_545
Li11 O51 2.015473 1_555
Li11 O11 2.024988 1_546
O0 Ti25 2.009704 1_554
O0 Ti6 2.018703 1_555
O0 Ti0 2.020778 1_555
O1 Ti1 2.011460 1_555
O1 Ti0 2.019130 1_555
O1 Ti25 2.035610 1_554
O2 Ti0 1.957485 1_555
O2 Ti1 1.963576 1_555
O2 Ti6 1.989834 1_555
O3 Ti4 2.005437 1_555
O3 Ti10 2.006940 1_445
O3 Ti0 2.037553 1_455
O4 Ti2 2.010044 1_565
O4 Ti5 2.010696 1_555
O4 Ti1 2.042862 1_555
O5 Ti2 2.010596 1_565
O5 Ti3 2.016179 1_555
O5 Ti1 2.016959 1_555
O6 Ti1 2.010211 1_555
O6 Ti3 2.012807 1_555
O6 Ti5 2.019984 1_555
O7 Ti0 2.005100 1_555
O7 Ti15 2.013252 1_555
O7 Ti4 2.034040 1_655
O8 Ti5 2.007846 1_545
O8 Ti2 2.012951 1_555
O8 Ti3 2.036176 1_545
O9 Ti7 2.008136 1_555
O9 Ti26 2.016036 1_554
O9 Ti6 2.021882 1_555
O10 Ti11 2.015026 1_555
O10 Ti5 2.015973 1_455
O10 Ti7 2.025674 1_555
O11 Ti5 2.006611 1_555
O11 Ti7 2.021976 1_655
O11 Ti10 2.027583 1_555
O12 Ti4 1.962260 1_565
O12 Ti8 1.969564 1_555
O12 Ti3 1.972989 1_555
O13 Ti9 2.015296 1_555
O13 Ti3 2.015436 1_545
O13 Ti4 2.028675 1_555
O14 Ti9 2.006611 1_555
O14 Ti8 2.021976 1_545
O14 Ti4 2.027583 1_555
O15 Ti5 2.015296 1_555
O15 Ti11 2.015436 1_655
O15 Ti10 2.028675 1_555
O16 Ti10 1.962260 1_455
O16 Ti7 1.969564 1_555
O16 Ti11 1.972989 1_555
O17 Ti3 2.015026 1_555
O17 Ti9 2.015973 1_565
O17 Ti8 2.025674 1_555
O18 Ti14 2.010211 1_555
O18 Ti11 2.012807 1_555
O18 Ti9 2.019984 1_555
O19 Ti8 2.008136 1_555
O19 Ti13 2.016036 1_555
O19 Ti21 2.021882 1_555
O20 Ti9 2.007846 1_655
O20 Ti12 2.012951 1_655
O20 Ti11 2.036176 1_655
O21 Ti8 2.009704 1_555
O21 Ti21 2.018703 1_555
O21 Ti16 2.020778 1_555
O22 Ti15 2.005100 1_555
O22 Ti0 2.013252 1_555
O22 Ti10 2.034040 1_545
O23 Ti16 1.957485 1_555
O23 Ti13 1.963576 1_555
O23 Ti21 1.989834 1_555
O24 Ti12 2.010044 1_555
O24 Ti9 2.010696 1_555
O24 Ti14 2.042862 1_555
O25 Ti10 2.005437 1_555
O25 Ti4 2.006940 1_665
O25 Ti15 2.037553 1_565
O26 Ti13 2.011460 1_555
O26 Ti16 2.019130 1_555
O26 Ti8 2.035610 1_555
O27 Ti12 2.010596 1_555
O27 Ti11 2.016179 1_555
O27 Ti14 2.016959 1_555
O28 Ti12 2.010596 1_655
O28 Ti18 2.016179 1_555
O28 Ti13 2.016959 1_555
O29 Ti15 1.957485 1_555
O29 Ti14 1.963576 1_555
O29 Ti21 1.989834 1_555
O30 Ti17 2.005437 1_555
O30 Ti22 2.006940 1_445
O30 Ti16 2.037553 1_545
O31 Ti14 2.011460 1_555
O31 Ti15 2.019130 1_555
O31 Ti20 2.035610 1_555
O32 Ti12 2.010044 1_655
O32 Ti19 2.010696 1_555
O32 Ti13 2.042862 1_555
O33 Ti16 2.005100 1_555
O33 Ti27 2.013252 1_555
O33 Ti17 2.034040 1_565
O34 Ti13 2.010211 1_555
O34 Ti18 2.012807 1_555
O34 Ti19 2.019984 1_555
O35 Ti19 2.007846 1_455
O35 Ti12 2.012951 1_555
O35 Ti18 2.036176 1_455
O36 Ti20 2.009704 1_555
O36 Ti21 2.018703 1_555
O36 Ti15 2.020778 1_555
O37 Ti20 2.008136 1_555
O37 Ti14 2.016036 1_555
O37 Ti21 2.021882 1_555
O38 Ti24 2.015026 1_555
O38 Ti19 2.015973 1_545
O38 Ti20 2.025674 1_555
O39 Ti17 1.962265 1_655
O39 Ti25 1.969560 1_555
O39 Ti18 1.972981 1_555
O40 Ti23 2.015296 1_555
O40 Ti18 2.015436 1_455
O40 Ti17 2.028675 1_555
O41 Ti19 2.006611 1_555
O41 Ti20 2.021976 1_565
O41 Ti22 2.027583 1_555
O42 Ti23 2.006611 1_555
O42 Ti25 2.021976 1_455
O42 Ti17 2.027583 1_555
O43 Ti18 2.015026 1_555
O43 Ti23 2.015973 1_655
O43 Ti25 2.025674 1_555
O44 Ti22 1.962265 1_545
O44 Ti20 1.969560 1_555
O44 Ti24 1.972981 1_555
O45 Ti19 2.015296 1_555
O45 Ti24 2.015436 1_565
O45 Ti22 2.028675 1_555
O46 Ti25 2.008136 1_555
O46 Ti1 2.016036 1_556
O46 Ti6 2.021882 1_556
O47 Ti23 2.007846 1_565
O47 Ti2 2.012951 1_566
O47 Ti24 2.036176 1_565
O48 Ti26 2.010211 1_555
O48 Ti24 2.012807 1_555
O48 Ti23 2.019984 1_555
O49 Ti27 2.005100 1_555
O49 Ti16 2.013252 1_555
O49 Ti22 2.034040 1_455
O50 Ti2 2.010044 1_556
O50 Ti23 2.010696 1_555
O50 Ti26 2.042862 1_555
O51 Ti2 2.010596 1_556
O51 Ti24 2.016179 1_555
O51 Ti26 2.016959 1_555
O52 Ti22 2.005437 1_555
O52 Ti17 2.006940 1_665
O52 Ti27 2.037553 1_655
O53 Ti26 2.011460 1_555
O53 Ti27 2.019130 1_555
O53 Ti7 2.035610 1_556
O54 Ti27 1.957485 1_555
O54 Ti26 1.963576 1_555
O54 Ti6 1.989834 1_556
O55 Ti7 2.009704 1_556
O55 Ti6 2.018703 1_556
O55 Ti27 2.020778 1_555
