# generated using pymatgen
data_NaB(S2O7)2
_symmetry_space_group_name_H-M   'P 1'
_cell_length_a   8.77065000
_cell_length_b   11.24727600
_cell_length_c   13.07125527
_cell_angle_alpha   69.96596114
_cell_angle_beta   90.00000000
_cell_angle_gamma   90.00000000
_symmetry_Int_Tables_number   1
_chemical_formula_structural   NaB(S2O7)2
_chemical_formula_sum   'Na4 B4 S16 O56'
_cell_volume   1211.40190130
_cell_formula_units_Z   4
loop_
 _symmetry_equiv_pos_site_id
 _symmetry_equiv_pos_as_xyz
  1  'x, y, z'
loop_
 _atom_site_type_symbol
 _atom_site_label
 _atom_site_symmetry_multiplicity
 _atom_site_fract_x
 _atom_site_fract_y
 _atom_site_fract_z
 _atom_site_occupancy
  Na  Na0  1  0.76766900  0.29932300  0.57471000  1
  Na  Na1  1  0.26766900  0.70067700  0.92529000  1
  Na  Na2  1  0.23233100  0.70067700  0.42529000  1
  Na  Na3  1  0.73233100  0.29932300  0.07471000  1
  B  B0  1  0.27627000  0.23915700  0.83097700  1
  B  B1  1  0.77627000  0.76084300  0.66902300  1
  B  B2  1  0.72373000  0.76084300  0.16902300  1
  B  B3  1  0.22373000  0.23915700  0.33097700  1
  S  S0  1  0.11414700  0.41545200  0.67641200  1
  S  S1  1  0.61414700  0.58454800  0.82358800  1
  S  S2  1  0.88585300  0.58454800  0.32358800  1
  S  S3  1  0.38585300  0.41545200  0.17641200  1
  S  S4  1  0.09783300  0.37727900  0.90662300  1
  S  S5  1  0.59783300  0.62272100  0.59337700  1
  S  S6  1  0.90216700  0.62272100  0.09337700  1
  S  S7  1  0.40216700  0.37727900  0.40662300  1
  S  S8  1  0.57927900  0.19537200  0.85174800  1
  S  S9  1  0.07927900  0.80462800  0.64825200  1
  S  S10  1  0.42072100  0.80462800  0.14825200  1
  S  S11  1  0.92072100  0.19537200  0.35174800  1
  S  S12  1  0.37724600  0.04939800  0.76969000  1
  S  S13  1  0.87724600  0.95060200  0.73031000  1
  S  S14  1  0.62275400  0.95060200  0.23031000  1
  S  S15  1  0.12275400  0.04939800  0.26969000  1
  O  O0  1  0.14798100  0.53935500  0.60329500  1
  O  O1  1  0.64798100  0.46064500  0.89670500  1
  O  O2  1  0.85201900  0.46064500  0.39670500  1
  O  O3  1  0.35201900  0.53935500  0.10329500  1
  O  O4  1  0.01692500  0.33297200  0.64342000  1
  O  O5  1  0.51692500  0.66702800  0.85658000  1
  O  O6  1  0.98307500  0.66702800  0.35658000  1
  O  O7  1  0.48307500  0.33297200  0.14342000  1
  O  O8  1  0.21996400  0.45778000  0.91491500  1
  O  O9  1  0.71996400  0.54222000  0.58508500  1
  O  O10  1  0.78003600  0.54222000  0.08508500  1
  O  O11  1  0.28003600  0.45778000  0.41491500  1
  O  O12  1  0.96797400  0.35841400  0.97554600  1
  O  O13  1  0.46797400  0.64158600  0.52445400  1
  O  O14  1  0.03202600  0.64158600  0.02445400  1
  O  O15  1  0.53202600  0.35841400  0.47554600  1
  O  O16  1  0.63194700  0.27166600  0.74605100  1
  O  O17  1  0.13194700  0.72833400  0.75394900  1
  O  O18  1  0.36805300  0.72833400  0.25394900  1
  O  O19  1  0.86805300  0.27166600  0.24605100  1
  O  O20  1  0.67719700  0.16558500  0.94417900  1
  O  O21  1  0.17719700  0.83441500  0.55582100  1
  O  O22  1  0.32280300  0.83441500  0.05582100  1
  O  O23  1  0.82280300  0.16558500  0.44417900  1
  O  O24  1  0.41409900  0.11881400  0.65906600  1
  O  O25  1  0.91409900  0.88118600  0.84093400  1
  O  O26  1  0.58590100  0.88118600  0.34093400  1
  O  O27  1  0.08590100  0.11881400  0.15906600  1
  O  O28  1  0.34201200  0.91796600  0.80425800  1
  O  O29  1  0.84201200  0.08203400  0.69574200  1
  O  O30  1  0.65798800  0.08203400  0.19574200  1
  O  O31  1  0.15798800  0.91796600  0.30425800  1
  O  O32  1  0.26487200  0.34998700  0.72671300  1
  O  O33  1  0.76487200  0.65001300  0.77328700  1
  O  O34  1  0.73512800  0.65001300  0.27328700  1
  O  O35  1  0.23512800  0.34998700  0.22671300  1
  O  O36  1  0.15674300  0.24651500  0.90782700  1
  O  O37  1  0.65674300  0.75348500  0.59217300  1
  O  O38  1  0.84325700  0.75348500  0.09217300  1
  O  O39  1  0.34325700  0.24651500  0.40782700  1
  O  O40  1  0.42629100  0.24584800  0.87992100  1
  O  O41  1  0.92629100  0.75415200  0.62007900  1
  O  O42  1  0.57370900  0.75415200  0.12007900  1
  O  O43  1  0.07370900  0.24584800  0.37992100  1
  O  O44  1  0.25286100  0.11701300  0.81478800  1
  O  O45  1  0.75286100  0.88298700  0.68521200  1
  O  O46  1  0.74713900  0.88298700  0.18521200  1
  O  O47  1  0.24713900  0.11701300  0.31478800  1
  O  O48  1  0.02690000  0.43481000  0.78220700  1
  O  O49  1  0.52690000  0.56519000  0.71779300  1
  O  O50  1  0.97310000  0.56519000  0.21779300  1
  O  O51  1  0.47310000  0.43481000  0.28220700  1
  O  O52  1  0.52553400  0.05608000  0.84794000  1
  O  O53  1  0.02553400  0.94392000  0.65206000  1
  O  O54  1  0.47446600  0.94392000  0.15206000  1
  O  O55  1  0.97446600  0.05608000  0.34794000  1
loop_
_geom_bond_atom_site_label_1
_geom_bond_atom_site_label_2
_geom_bond_distance
_geom_bond_site_symmetry_2
Na0 O15 2.408946 1_555
Na0 O4 2.441709 1_655
Na0 O16 2.460164 1_555
Na0 O29 2.500326 1_555
Na0 O2 2.522041 1_555
Na0 O23 2.676932 1_555
Na0 O9 2.812603 1_555
Na1 O14 2.408946 1_556
Na1 O5 2.441709 1_555
Na1 O17 2.460164 1_555
Na1 O28 2.500326 1_555
Na1 O3 2.522041 1_556
Na1 O22 2.676932 1_556
Na1 O8 2.812603 1_555
Na2 O13 2.408946 1_555
Na2 O6 2.441709 1_455
Na2 O18 2.460164 1_555
Na2 O31 2.500326 1_555
Na2 O0 2.522041 1_555
Na2 O21 2.676932 1_555
Na2 O11 2.812603 1_555
Na3 O12 2.408946 1_554
Na3 O7 2.441709 1_555
Na3 O19 2.460164 1_555
Na3 O30 2.500326 1_555
Na3 O1 2.522041 1_554
Na3 O20 2.676932 1_554
Na3 O10 2.812603 1_555
B0 O36 1.473728 1_555
B0 O44 1.474247 1_555
B0 O40 1.476220 1_555
B0 O32 1.502416 1_555
B1 O37 1.473728 1_555
B1 O45 1.474247 1_555
B1 O41 1.476220 1_555
B1 O33 1.502416 1_555
B2 O38 1.473728 1_555
B2 O46 1.474247 1_555
B2 O42 1.476220 1_555
B2 O34 1.502416 1_555
B3 O39 1.473728 1_555
B3 O47 1.474247 1_555
B3 O43 1.476220 1_555
B3 O35 1.502416 1_555
O0 S0 1.425123 1_555
O1 S1 1.425123 1_555
O2 S2 1.425123 1_555
O3 S3 1.425123 1_555
O4 S0 1.430998 1_555
O5 S1 1.430998 1_555
O6 S2 1.430998 1_555
O7 S3 1.430998 1_555
O8 S4 1.430443 1_555
O9 S5 1.430443 1_555
O10 S6 1.430443 1_555
O11 S7 1.430443 1_555
O12 S4 1.422284 1_655
O13 S5 1.422284 1_555
O14 S6 1.422284 1_455
O15 S7 1.422284 1_555
O16 S8 1.430465 1_555
O17 S9 1.430465 1_555
O18 S10 1.430465 1_555
O19 S11 1.430465 1_555
O20 S8 1.425544 1_555
O21 S9 1.425544 1_555
O22 S10 1.425544 1_555
O23 S11 1.425544 1_555
O24 S12 1.425281 1_555
O25 S13 1.425281 1_555
O26 S14 1.425281 1_555
O27 S15 1.425281 1_555
O28 S12 1.423814 1_565
O29 S13 1.423814 1_545
O30 S14 1.423814 1_545
O31 S15 1.423814 1_565
O32 S0 1.546065 1_555
O33 S1 1.546065 1_555
O34 S2 1.546065 1_555
O35 S3 1.546065 1_555
O36 S4 1.553840 1_555
O37 S5 1.553840 1_555
O38 S6 1.553840 1_555
O39 S7 1.553840 1_555
O40 S8 1.549709 1_555
O41 S9 1.549709 1_655
O42 S10 1.549709 1_555
O43 S11 1.549709 1_455
O44 S12 1.556640 1_555
O45 S13 1.556640 1_555
O46 S14 1.556640 1_555
O47 S15 1.556640 1_555
O48 S4 1.652122 1_555
O48 S0 1.658790 1_555
O49 S5 1.652122 1_555
O49 S1 1.658790 1_555
O50 S6 1.652122 1_555
O50 S2 1.658790 1_555
O51 S7 1.652122 1_555
O51 S3 1.658790 1_555
O52 S8 1.653032 1_555
O52 S12 1.672125 1_555
O53 S9 1.653032 1_555
O53 S13 1.672125 1_455
O54 S10 1.653032 1_555
O54 S14 1.672125 1_555
O55 S11 1.653032 1_555
O55 S15 1.672125 1_655
