# generated using pymatgen
data_UB4Ru
_symmetry_space_group_name_H-M   'P 1'
_cell_length_a   5.97807010
_cell_length_b   5.97807010
_cell_length_c   3.53639659
_cell_angle_alpha   90.00000000
_cell_angle_beta   90.00000000
_cell_angle_gamma   104.20801029
_symmetry_Int_Tables_number   1
_chemical_formula_structural   UB4Ru
_chemical_formula_sum   'U2 B8 Ru2'
_cell_volume   122.51547068
_cell_formula_units_Z   2
loop_
 _symmetry_equiv_pos_site_id
 _symmetry_equiv_pos_as_xyz
  1  'x, y, z'
loop_
 _atom_site_type_symbol
 _atom_site_label
 _atom_site_symmetry_multiplicity
 _atom_site_fract_x
 _atom_site_fract_y
 _atom_site_fract_z
 _atom_site_occupancy
  U  U0  1  0.29982752  0.70017248  0.00000000  1
  U  U1  1  0.70017248  0.29982752  0.00000000  1
  B  B0  1  0.38178679  0.06498836  0.50000000  1
  B  B1  1  0.61821321  0.93501164  0.50000000  1
  B  B2  1  0.06498836  0.38178679  0.50000000  1
  B  B3  1  0.93501164  0.61821321  0.50000000  1
  B  B4  1  0.37814722  0.37814722  0.50000000  1
  B  B5  1  0.62185278  0.62185278  0.50000000  1
  B  B6  1  0.09196594  0.90803406  0.50000000  1
  B  B7  1  0.90803406  0.09196594  0.50000000  1
  Ru  Ru0  1  0.18792995  0.18792995  -0.00000000  1
  Ru  Ru1  1  0.81207005  0.81207005  -0.00000000  1
loop_
_geom_bond_atom_site_label_1
_geom_bond_atom_site_label_2
_geom_bond_distance
_geom_bond_site_symmetry_2
B0 B6 1.756180 1_545
B0 B1 1.772135 1_545
B0 B4 1.877544 1_555
B0 Ru0 2.329766 1_555
B0 Ru0 2.329766 1_556
B0 U1 2.721840 1_556
B0 U1 2.721840 1_555
B0 U0 2.756511 1_546
B0 U0 2.756511 1_545
B1 B7 1.756180 1_565
B1 B5 1.877544 1_555
B1 Ru1 2.329766 1_556
B1 Ru1 2.329766 1_555
B1 U0 2.721840 1_555
B1 U0 2.721840 1_556
B1 U1 2.756511 1_565
B1 U1 2.756511 1_566
B2 B7 1.756180 1_455
B2 B3 1.772135 1_455
B2 B4 1.877544 1_555
B2 Ru0 2.329766 1_555
B2 Ru0 2.329766 1_556
B2 U0 2.721840 1_555
B2 U0 2.721840 1_556
B2 U1 2.756511 1_455
B2 U1 2.756511 1_456
B3 B6 1.756180 1_655
B3 B5 1.877544 1_555
B3 Ru1 2.329766 1_556
B3 Ru1 2.329766 1_555
B3 U1 2.721840 1_556
B3 U1 2.721840 1_555
B3 U0 2.756511 1_655
B3 U0 2.756511 1_656
B4 B5 1.789730 1_555
B4 Ru0 2.253423 1_555
B4 Ru0 2.253423 1_556
B4 U1 2.737546 1_555
B4 U0 2.737546 1_556
B4 U0 2.737546 1_555
B4 U1 2.737546 1_556
B5 Ru1 2.253423 1_556
B5 Ru1 2.253423 1_555
B5 U0 2.737546 1_556
B5 U0 2.737546 1_555
B5 U1 2.737546 1_556
B5 U1 2.737546 1_555
B6 B7 1.735381 1_465
B6 Ru1 2.405027 1_456
B6 Ru1 2.405027 1_455
B6 Ru0 2.405027 1_566
B6 Ru0 2.405027 1_565
B6 U0 2.640579 1_555
B6 U0 2.640579 1_556
B7 Ru0 2.405027 1_655
B7 Ru1 2.405027 1_546
B7 Ru0 2.405027 1_656
B7 Ru1 2.405027 1_545
B7 U1 2.640579 1_556
B7 U1 2.640579 1_555
Ru0 Ru1 2.760248 1_445
Ru0 U0 2.969702 1_555
Ru0 U1 2.969702 1_555
Ru1 U1 2.969702 1_555
Ru1 U0 2.969702 1_555
