# generated using pymatgen
data_Rb2TlCuBr6
_symmetry_space_group_name_H-M   'P 1'
_cell_length_a   7.76269178
_cell_length_b   7.76269178
_cell_length_c   7.76269178
_cell_angle_alpha   60.00000000
_cell_angle_beta   60.00000000
_cell_angle_gamma   60.00000000
_symmetry_Int_Tables_number   1
_chemical_formula_structural   Rb2TlCuBr6
_chemical_formula_sum   'Rb2 Tl1 Cu1 Br6'
_cell_volume   330.76689071
_cell_formula_units_Z   1
loop_
 _symmetry_equiv_pos_site_id
 _symmetry_equiv_pos_as_xyz
  1  'x, y, z'
loop_
 _atom_site_type_symbol
 _atom_site_label
 _atom_site_symmetry_multiplicity
 _atom_site_fract_x
 _atom_site_fract_y
 _atom_site_fract_z
 _atom_site_occupancy
  Rb  Rb0  1  0.75000000  0.75000000  0.75000000  1
  Rb  Rb1  1  0.25000000  0.25000000  0.25000000  1
  Tl  Tl0  1  0.00000000  0.00000000  0.00000000  1
  Cu  Cu0  1  0.50000000  0.50000000  0.50000000  1
  Br  Br0  1  0.73698600  0.26301400  0.26301400  1
  Br  Br1  1  0.26301400  0.26301400  0.73698600  1
  Br  Br2  1  0.26301400  0.73698600  0.73698600  1
  Br  Br3  1  0.26301400  0.73698600  0.26301400  1
  Br  Br4  1  0.73698600  0.26301400  0.73698600  1
  Br  Br5  1  0.73698600  0.73698600  0.26301400  1
loop_
_geom_bond_atom_site_label_1
_geom_bond_atom_site_label_2
_geom_bond_distance
_geom_bond_site_symmetry_2
Br0 Cu0 2.601657 1_555
Br0 Tl0 2.887395 1_655
Br0 Rb1 3.883974 1_555
Br0 Rb0 3.883974 1_554
Br0 Rb0 3.883974 1_545
Br0 Rb1 3.883974 1_655
Br1 Cu0 2.601657 1_555
Br1 Tl0 2.887395 1_556
Br1 Rb1 3.883974 1_555
Br1 Rb0 3.883974 1_455
Br1 Rb0 3.883974 1_545
Br1 Rb1 3.883974 1_556
Br2 Cu0 2.601657 1_555
Br2 Tl0 2.887395 1_566
Br2 Rb0 3.883974 1_455
Br2 Rb1 3.883974 1_556
Br2 Rb1 3.883974 1_565
Br2 Rb0 3.883974 1_555
Br3 Cu0 2.601657 1_555
Br3 Tl0 2.887395 1_565
Br3 Rb1 3.883974 1_555
Br3 Rb0 3.883974 1_554
Br3 Rb0 3.883974 1_455
Br3 Rb1 3.883974 1_565
Br4 Cu0 2.601657 1_555
Br4 Tl0 2.887395 1_656
Br4 Rb0 3.883974 1_545
Br4 Rb1 3.883974 1_556
Br4 Rb1 3.883974 1_655
Br4 Rb0 3.883974 1_555
Br5 Cu0 2.601657 1_555
Br5 Tl0 2.887395 1_665
Br5 Rb0 3.883974 1_554
Br5 Rb1 3.883974 1_565
Br5 Rb1 3.883974 1_655
Br5 Rb0 3.883974 1_555
