# generated using pymatgen
data_YTi3O6
_symmetry_space_group_name_H-M   'P 1'
_cell_length_a   6.04713600
_cell_length_b   6.56491824
_cell_length_c   15.06759219
_cell_angle_alpha   97.17941648
_cell_angle_beta   92.66042966
_cell_angle_gamma   117.06258402
_symmetry_Int_Tables_number   1
_chemical_formula_structural   YTi3O6
_chemical_formula_sum   'Y4 Ti12 O24'
_cell_volume   524.87499631
_cell_formula_units_Z   4
loop_
 _symmetry_equiv_pos_site_id
 _symmetry_equiv_pos_as_xyz
  1  'x, y, z'
loop_
 _atom_site_type_symbol
 _atom_site_label
 _atom_site_symmetry_multiplicity
 _atom_site_fract_x
 _atom_site_fract_y
 _atom_site_fract_z
 _atom_site_occupancy
  Y  Y0  1  0.97005200  0.50089800  0.12273000  1
  Y  Y1  1  0.33009900  0.17542600  0.46318300  1
  Y  Y2  1  0.02994800  0.49910200  0.87727000  1
  Y  Y3  1  0.66990100  0.82457400  0.53681700  1
  Ti  Ti0  1  0.00000000  0.00000000  0.00000000  1
  Ti  Ti1  1  0.23155400  0.66029500  0.34099800  1
  Ti  Ti2  1  0.76844600  0.33970500  0.65900200  1
  Ti  Ti3  1  0.50000000  0.00000000  0.00000000  1
  Ti  Ti4  1  0.79173100  0.65478500  0.32447600  1
  Ti  Ti5  1  0.20826900  0.34521500  0.67552400  1
  Ti  Ti6  1  0.41469900  0.17326900  0.83249500  1
  Ti  Ti7  1  0.58530100  0.82673100  0.16750500  1
  Ti  Ti8  1  0.00000000  0.50000000  0.50000000  1
  Ti  Ti9  1  0.50000000  0.50000000  0.00000000  1
  Ti  Ti10  1  0.79106000  0.15746100  0.34067000  1
  Ti  Ti11  1  0.20894000  0.84253900  0.65933000  1
  O  O0  1  0.54936000  0.29374600  0.06673000  1
  O  O1  1  0.88487500  0.94496300  0.39964800  1
  O  O2  1  0.13259900  0.59940300  0.73053000  1
  O  O3  1  0.20128700  0.94998600  0.91013400  1
  O  O4  1  0.32665000  0.60493200  0.22330300  1
  O  O5  1  0.72269200  0.20486000  0.52863600  1
  O  O6  1  0.45064000  0.70625400  0.93327000  1
  O  O7  1  0.86740100  0.40059700  0.26947000  1
  O  O8  1  0.11512500  0.05503700  0.60035200  1
  O  O9  1  0.79871300  0.05001400  0.08986600  1
  O  O10  1  0.27730800  0.79514000  0.47136400  1
  O  O11  1  0.67335000  0.39506800  0.77669700  1
  O  O12  1  0.86151400  0.66096600  0.99671300  1
  O  O13  1  0.14783700  0.37590700  0.39545600  1
  O  O14  1  0.55251200  0.98761600  0.65828000  1
  O  O15  1  0.31334300  0.83556900  0.09495600  1
  O  O16  1  0.68042500  0.51054400  0.42930800  1
  O  O17  1  0.17388300  0.26622400  0.79644700  1
  O  O18  1  0.68665700  0.16443100  0.90504400  1
  O  O19  1  0.82611700  0.73377600  0.20355300  1
  O  O20  1  0.31957500  0.48945600  0.57069200  1
  O  O21  1  0.13848600  0.33903400  0.00328700  1
  O  O22  1  0.44748800  0.01238400  0.34172000  1
  O  O23  1  0.85216300  0.62409300  0.60454400  1
loop_
_geom_bond_atom_site_label_1
_geom_bond_atom_site_label_2
_geom_bond_distance
_geom_bond_site_symmetry_2
Ti1 Ti4 2.643079 1_455
Ti2 Ti5 2.643079 1_655
O0 Ti9 1.900964 1_555
O0 Ti3 1.944884 1_555
O0 Y0 2.323600 1_555
O0 O9 2.691000 1_555
O1 Ti4 1.911617 1_555
O1 Ti10 2.010191 1_565
O1 Y1 2.479187 1_665
O1 Y3 2.511794 1_555
O1 O13 2.548910 1_665
O2 Ti11 1.927511 1_555
O2 Ti5 2.016249 1_555
O2 Ti2 2.195822 1_455
O2 Y2 2.413897 1_555
O3 Ti0 1.956638 1_566
O3 Ti6 2.007512 1_565
O3 Ti3 2.079991 1_566
O3 Y2 2.622169 1_555
O3 O6 2.691000 1_555
O4 Ti7 1.905043 1_555
O4 Ti1 1.931687 1_555
O4 Y0 2.347499 1_455
O4 O7 2.649271 1_455
O5 Ti2 2.002681 1_555
O5 Ti8 2.017933 1_655
O5 Y3 2.388562 1_545
O5 Y1 2.442075 1_555
O6 Ti9 1.900964 1_556
O6 Ti3 1.944884 1_566
O6 Y2 2.323600 1_555
O7 Ti10 1.927511 1_555
O7 Ti4 2.016249 1_555
O7 Ti1 2.195822 1_655
O7 Y0 2.413897 1_555
O8 Ti5 1.911617 1_555
O8 Ti11 2.010191 1_545
O8 Y3 2.479187 1_445
O8 Y1 2.511794 1_555
O9 Ti0 1.956638 1_655
O9 Ti7 2.007512 1_545
O9 Ti3 2.079991 1_555
O9 Y0 2.622169 1_555
O10 Ti1 2.002681 1_555
O10 Ti8 2.017933 1_555
O10 Y1 2.388562 1_565
O10 Y3 2.442075 1_555
O10 O22 2.540947 1_565
O10 O5 2.801009 1_565
O11 Ti6 1.905043 1_555
O11 Ti2 1.931687 1_555
O11 Y2 2.347499 1_655
O11 O18 2.620538 1_555
O11 O2 2.649271 1_655
O12 Ti9 1.954314 1_556
O12 Ti0 1.982474 1_666
O12 Y2 2.466289 1_655
O12 Y0 2.480121 1_556
O12 O3 2.616046 1_655
O12 O15 2.705751 1_656
O13 Ti1 1.994161 1_555
O13 Ti10 2.028840 1_455
O13 Ti8 2.101642 1_555
O13 Y1 2.353639 1_555
O13 O20 2.674862 1_555
O14 Ti11 1.852071 1_555
O14 Ti2 2.072184 1_565
O14 Y3 2.306812 1_555
O14 O5 2.540947 1_565
O15 Ti7 1.959262 1_555
O15 Ti3 1.978297 1_565
O15 Y0 2.339252 1_455
O15 O4 2.620538 1_555
O16 Ti4 1.933224 1_555
O16 Ti8 2.196138 1_655
O16 Y1 2.393473 1_555
O16 Y3 2.484445 1_555
O16 O23 2.674862 1_555
O17 Ti6 1.898976 1_555
O17 Ti5 1.950673 1_555
O17 Y2 2.328477 1_555
O18 Ti6 1.959262 1_555
O18 Ti3 1.978297 1_556
O18 Y2 2.339252 1_655
O18 O21 2.705751 1_656
O19 Ti7 1.898976 1_555
O19 Ti4 1.950673 1_555
O19 Y0 2.328477 1_555
O20 Ti5 1.933224 1_555
O20 Ti8 2.196138 1_555
O20 Y3 2.393473 1_555
O20 Y1 2.484445 1_555
O21 Ti9 1.954314 1_555
O21 Ti0 1.982474 1_555
O21 Y0 2.466289 1_455
O21 Y2 2.480121 1_554
O21 O9 2.616046 1_455
O22 Ti10 1.852071 1_555
O22 Ti1 2.072184 1_545
O22 Y1 2.306812 1_555
O23 Ti2 1.994161 1_555
O23 Ti11 2.028840 1_655
O23 Ti8 2.101642 1_655
O23 Y3 2.353639 1_555
O23 O8 2.548910 1_665
