# generated using pymatgen
data_SrSmCr4O12
_symmetry_space_group_name_H-M   'P 1'
_cell_length_a   5.32514550
_cell_length_b   5.32514550
_cell_length_c   7.60508457
_cell_angle_alpha   90.00000000
_cell_angle_beta   90.00000000
_cell_angle_gamma   90.00000000
_symmetry_Int_Tables_number   1
_chemical_formula_structural   SrSmCr4O12
_chemical_formula_sum   'Sr1 Sm1 Cr4 O12'
_cell_volume   215.65871097
_cell_formula_units_Z   1
loop_
 _symmetry_equiv_pos_site_id
 _symmetry_equiv_pos_as_xyz
  1  'x, y, z'
loop_
 _atom_site_type_symbol
 _atom_site_label
 _atom_site_symmetry_multiplicity
 _atom_site_fract_x
 _atom_site_fract_y
 _atom_site_fract_z
 _atom_site_occupancy
  Sr  Sr0  1  0.00000000  0.00000000  0.50000000  1
  Sm  Sm0  1  0.50000000  0.50000000  0.00000000  1
  Cr  Cr0  1  -0.00000000  0.50000000  0.74753734  1
  Cr  Cr1  1  0.00000000  0.50000000  0.25246266  1
  Cr  Cr2  1  0.50000000  -0.00000000  0.74753734  1
  Cr  Cr3  1  0.50000000  0.00000000  0.25246266  1
  O  O0  1  0.25583152  0.25583152  0.75826536  1
  O  O1  1  0.25583152  0.25583152  0.24173464  1
  O  O2  1  0.74416848  0.74416848  0.24173464  1
  O  O3  1  0.74416848  0.74416848  0.75826536  1
  O  O4  1  0.74416848  0.25583152  0.75826536  1
  O  O5  1  0.74416848  0.25583152  0.24173464  1
  O  O6  1  0.25583152  0.74416848  0.24173464  1
  O  O7  1  0.25583152  0.74416848  0.75826536  1
  O  O8  1  0.00000000  0.50000000  0.50000000  1
  O  O9  1  0.00000000  0.50000000  0.00000000  1
  O  O10  1  0.50000000  -0.00000000  0.50000000  1
  O  O11  1  0.50000000  -0.00000000  0.00000000  1
loop_
_geom_bond_atom_site_label_1
_geom_bond_atom_site_label_2
_geom_bond_distance
_geom_bond_site_symmetry_2
Cr0 O8 1.882542 1_555
Cr0 O7 1.885002 1_555
Cr0 O0 1.885002 1_555
Cr0 O3 1.885002 1_455
Cr0 O4 1.885002 1_455
Cr0 O9 1.920000 1_556
Cr1 O8 1.882542 1_555
Cr1 O5 1.885002 1_455
Cr1 O2 1.885002 1_455
Cr1 O6 1.885002 1_555
Cr1 O1 1.885002 1_555
Cr1 O9 1.920000 1_555
Cr2 O10 1.882542 1_555
Cr2 O3 1.885002 1_545
Cr2 O0 1.885002 1_555
Cr2 O7 1.885002 1_545
Cr2 O4 1.885002 1_555
Cr2 O11 1.920000 1_556
Cr3 O10 1.882542 1_555
Cr3 O6 1.885002 1_545
Cr3 O5 1.885002 1_555
Cr3 O2 1.885002 1_545
Cr3 O1 1.885002 1_555
Cr3 O11 1.920000 1_555
O0 Sm0 2.600187 1_556
O0 O7 2.600465 1_555
O0 O4 2.600465 1_555
O0 O9 2.631793 1_556
O0 O11 2.631793 1_556
O0 Sr0 2.751317 1_555
O1 Sm0 2.600187 1_555
O1 O5 2.600465 1_555
O1 O6 2.600465 1_555
O1 O11 2.631793 1_555
O1 O9 2.631793 1_555
O1 Sr0 2.751317 1_555
O2 Sm0 2.600187 1_555
O2 O5 2.600465 1_555
O2 O6 2.600465 1_555
O2 O9 2.631793 1_655
O2 Sr0 2.751317 1_665
O3 Sm0 2.600187 1_556
O3 O7 2.600465 1_555
O3 O4 2.600465 1_555
O3 O9 2.631793 1_656
O3 Sr0 2.751317 1_665
O4 Sm0 2.600187 1_556
O4 O9 2.631793 1_656
O4 Sr0 2.751317 1_655
O5 Sm0 2.600187 1_555
O5 O9 2.631793 1_655
O5 Sr0 2.751317 1_655
O6 Sm0 2.600187 1_555
O6 O9 2.631793 1_555
O6 Sr0 2.751317 1_565
O7 Sm0 2.600187 1_556
O7 O9 2.631793 1_556
O7 Sr0 2.751317 1_565
O8 Sr0 2.662573 1_555
O8 Sr0 2.662573 1_565
O9 Sm0 2.662573 1_555
O9 Sm0 2.662573 1_455
O10 Sr0 2.662573 1_655
O10 Sr0 2.662573 1_555
O11 O7 2.631793 1_544
O11 O5 2.631793 1_555
O11 O4 2.631793 1_554
O11 O2 2.631793 1_545
O11 O6 2.631793 1_545
O11 O3 2.631793 1_544
O11 Sm0 2.662573 1_555
O11 Sm0 2.662573 1_545
