# generated using pymatgen
data_Fe3P
_symmetry_space_group_name_H-M   'P 1'
_cell_length_a   6.79850659
_cell_length_b   6.79852028
_cell_length_c   6.79746480
_cell_angle_alpha   95.97800259
_cell_angle_beta   95.98238428
_cell_angle_gamma   142.33352361
_symmetry_Int_Tables_number   1
_chemical_formula_structural   Fe3P
_chemical_formula_sum   'Fe12 P4'
_cell_volume   181.70916098
_cell_formula_units_Z   4
loop_
 _symmetry_equiv_pos_site_id
 _symmetry_equiv_pos_as_xyz
  1  'x, y, z'
loop_
 _atom_site_type_symbol
 _atom_site_label
 _atom_site_symmetry_multiplicity
 _atom_site_fract_x
 _atom_site_fract_y
 _atom_site_fract_z
 _atom_site_occupancy
  Fe  Fe0  1  0.02885362  0.36350200  0.38848326  1
  Fe  Fe1  1  0.63644063  0.02494900  0.66522448  1
  Fe  Fe2  1  0.35973326  0.97122224  0.33471450  1
  Fe  Fe3  1  0.97505259  0.64036595  0.61142410  1
  Fe  Fe4  1  0.45634619  0.41024146  0.38788281  1
  Fe  Fe5  1  0.58969353  0.97758182  0.04601812  1
  Fe  Fe6  1  0.93158099  0.54380658  0.95390608  1
  Fe  Fe7  1  0.02235031  0.06837753  0.61220724  1
  Fe  Fe8  1  0.65800501  0.67943885  0.81506346  1
  Fe  Fe9  1  0.32048359  0.13557625  0.97865008  1
  Fe  Fe10  1  0.15686792  0.34190358  0.02143487  1
  Fe  Fe11  1  0.86449647  0.84305304  0.18503546  1
  P  P0  1  0.46086918  0.20947905  0.66374105  1
  P  P1  1  0.79059028  0.45425561  0.25135131  1
  P  P2  1  0.20280928  0.53910251  0.74857394  1
  P  P3  1  0.54582515  0.79714754  0.33629023  1
loop_
_geom_bond_atom_site_label_1
_geom_bond_atom_site_label_2
_geom_bond_distance
_geom_bond_site_symmetry_2
Fe0 P3 2.278147 1_445
Fe0 P3 2.289909 1_555
Fe0 P1 2.293633 1_455
Fe0 P2 2.316860 1_555
Fe0 Fe5 2.468686 1_445
Fe0 Fe3 2.566047 1_455
Fe0 Fe7 2.617148 1_555
Fe0 Fe4 2.662389 1_555
Fe0 Fe10 2.753659 1_555
Fe0 Fe1 2.834409 1_565
Fe0 Fe2 2.834770 1_555
Fe0 Fe11 2.842524 1_445
Fe1 P2 2.278174 1_655
Fe1 P2 2.289962 1_545
Fe1 P3 2.293141 1_545
Fe1 P0 2.317219 1_555
Fe1 Fe7 2.468456 1_655
Fe1 Fe2 2.565138 1_545
Fe1 Fe6 2.617581 1_555
Fe1 Fe5 2.662283 1_546
Fe1 Fe8 2.754795 1_545
Fe1 Fe3 2.834379 1_445
Fe1 Fe10 2.842856 1_656
Fe2 P1 2.278193 1_565
Fe2 P1 2.289911 1_455
Fe2 P0 2.293530 1_565
Fe2 P3 2.317640 1_555
Fe2 Fe4 2.468308 1_565
Fe2 Fe5 2.616724 1_555
Fe2 Fe6 2.662500 1_454
Fe2 Fe3 2.833808 1_455
Fe2 Fe9 2.842260 1_564
Fe3 P0 2.278547 1_555
Fe3 P0 2.289655 1_665
Fe3 P2 2.293700 1_655
Fe3 P1 2.316750 1_555
Fe3 Fe6 2.468299 1_555
Fe3 Fe4 2.616427 1_555
Fe3 Fe7 2.661902 1_665
Fe3 Fe9 2.755214 1_665
Fe3 Fe8 2.843313 1_555
Fe4 P3 2.261713 1_555
Fe4 P1 2.352747 1_555
Fe4 P0 2.442851 1_555
Fe4 Fe7 2.692597 1_665
Fe4 Fe7 2.692938 1_555
Fe4 Fe9 2.780288 1_554
Fe4 Fe8 2.784189 1_555
Fe5 P2 2.261719 1_554
Fe5 P3 2.352553 1_555
Fe5 P1 2.443100 1_565
Fe5 Fe6 2.692497 1_454
Fe5 Fe6 2.693178 1_564
Fe5 Fe9 2.784469 1_564
Fe5 Fe8 2.787149 1_554
Fe6 P1 2.261391 1_556
Fe6 P0 2.352122 1_555
Fe6 P2 2.443313 1_655
Fe6 Fe9 2.476038 1_665
Fe6 Fe9 2.641900 1_555
Fe6 Fe8 2.780426 1_555
Fe7 P0 2.261766 1_555
Fe7 P2 2.352683 1_555
Fe7 P3 2.443116 1_445
Fe7 Fe8 2.476072 1_445
Fe7 Fe8 2.641489 1_555
Fe7 Fe9 2.786755 1_555
Fe8 P0 2.304638 1_555
Fe8 P2 2.373960 1_555
Fe8 Fe9 2.695186 1_665
Fe8 Fe9 2.851183 1_555
Fe9 P1 2.304523 1_556
Fe9 P0 2.374056 1_555
Fe10 P2 2.304527 1_554
Fe10 P3 2.373959 1_555
Fe10 Fe9 2.396286 1_554
Fe10 Fe5 2.476161 1_445
Fe10 Fe5 2.641548 1_555
Fe10 Fe11 2.695094 1_445
Fe10 Fe8 2.695244 1_444
Fe10 Fe7 2.780682 1_554
Fe10 Fe6 2.784557 1_454
Fe10 Fe4 2.787490 1_555
Fe10 Fe8 2.851416 1_554
Fe10 Fe11 2.852213 1_555
Fe11 P3 2.304099 1_555
Fe11 P1 2.373860 1_555
Fe11 Fe8 2.396221 1_554
Fe11 Fe4 2.476458 1_665
Fe11 Fe4 2.641089 1_555
Fe11 Fe9 2.694558 1_664
Fe11 Fe2 2.754440 1_655
Fe11 Fe5 2.781541 1_555
Fe11 Fe7 2.784063 1_665
Fe11 Fe6 2.787076 1_554
Fe11 Fe9 2.851528 1_554
