# generated using pymatgen
data_Fe3Co3B2
_symmetry_space_group_name_H-M   'P 1'
_cell_length_a   5.27526800
_cell_length_b   4.42734300
_cell_length_c   6.63175339
_cell_angle_alpha   89.94202819
_cell_angle_beta   90.00000000
_cell_angle_gamma   90.00000000
_symmetry_Int_Tables_number   1
_chemical_formula_structural   Fe3Co3B2
_chemical_formula_sum   'Fe6 Co6 B4'
_cell_volume   154.88731224
_cell_formula_units_Z   2
loop_
 _symmetry_equiv_pos_site_id
 _symmetry_equiv_pos_as_xyz
  1  'x, y, z'
loop_
 _atom_site_type_symbol
 _atom_site_label
 _atom_site_symmetry_multiplicity
 _atom_site_fract_x
 _atom_site_fract_y
 _atom_site_fract_z
 _atom_site_occupancy
  Fe  Fe0  1  0.67871300  0.90041800  0.30230300  1
  Fe  Fe1  1  0.17871300  0.09958200  0.69769700  1
  Fe  Fe2  1  0.52121400  0.37766500  0.50244200  1
  Fe  Fe3  1  0.02121400  0.62233500  0.49755800  1
  Fe  Fe4  1  0.47746600  0.12028300  0.00014500  1
  Fe  Fe5  1  0.97746600  0.87971700  0.99985500  1
  Co  Co0  1  0.68023000  0.90013200  0.69155500  1
  Co  Co1  1  0.18023000  0.09986800  0.30844500  1
  Co  Co2  1  0.32167200  0.59676200  0.19332400  1
  Co  Co3  1  0.82167200  0.40323800  0.80667600  1
  Co  Co4  1  0.32065200  0.59957200  0.80676900  1
  Co  Co5  1  0.82065200  0.40042800  0.19323100  1
  B  B0  1  0.88450300  0.17505700  0.50030400  1
  B  B1  1  0.38450300  0.82494300  0.49969600  1
  B  B2  1  0.11555100  0.32734600  0.00120400  1
  B  B3  1  0.61555100  0.67265400  0.99879600  1
loop_
_geom_bond_atom_site_label_1
_geom_bond_atom_site_label_2
_geom_bond_distance
_geom_bond_site_symmetry_2
Fe0 Fe4 2.466986 1_565
Fe0 Fe3 2.540422 1_655
Fe0 Fe5 2.552573 1_554
Fe0 Fe2 2.630996 1_565
Fe1 Fe5 2.466986 1_445
Fe1 Fe2 2.540422 1_555
Fe1 Fe4 2.552573 1_556
Fe1 Fe3 2.630996 1_545
Co0 Co4 2.439381 1_555
Co0 Co3 2.444554 1_555
Co0 Co3 2.470718 1_565
Co0 Fe4 2.507249 1_566
Co0 Fe3 2.531139 1_655
Co0 Fe5 2.578116 1_555
Co0 Fe2 2.596354 1_565
Co1 Co5 2.439381 1_455
Co1 Co2 2.444554 1_555
Co1 Co2 2.470718 1_545
Co1 Fe5 2.507249 1_444
Co1 Fe2 2.531139 1_555
Co1 Fe4 2.578116 1_555
Co1 Fe3 2.596354 1_545
Co2 Fe0 2.424706 1_555
Co2 Fe2 2.499486 1_555
Co2 Fe5 2.551341 1_454
Co2 Fe3 2.568312 1_555
Co2 Fe4 2.602367 1_555
Co3 Fe1 2.424706 1_655
Co3 Fe3 2.499486 1_655
Co3 Fe4 2.551341 1_556
Co3 Fe2 2.568312 1_555
Co3 Fe5 2.602367 1_555
Co4 Fe1 2.445642 1_565
Co4 Fe1 2.446887 1_555
Co4 Fe2 2.482309 1_555
Co4 Fe5 2.541411 1_455
Co4 Fe3 2.590353 1_555
Co4 Fe4 2.612701 1_556
Co5 Fe0 2.445642 1_545
Co5 Fe0 2.446887 1_555
Co5 Fe3 2.482309 1_655
Co5 Fe4 2.541411 1_555
Co5 Fe2 2.590353 1_555
Co5 Fe5 2.612701 1_554
B0 Co1 2.040661 1_655
B0 Fe1 2.057482 1_655
B0 Co0 2.061138 1_545
B0 Fe0 2.093904 1_545
B0 Fe3 2.107551 1_655
B0 Fe2 2.116041 1_555
B0 Co5 2.291723 1_555
B0 Co3 2.294065 1_555
B0 Fe3 2.551231 1_645
B1 Co0 2.040661 1_555
B1 Fe0 2.057482 1_555
B1 Co1 2.061138 1_565
B1 Fe1 2.093904 1_565
B1 Fe2 2.107551 1_555
B1 Fe3 2.116041 1_555
B1 Co4 2.291723 1_555
B1 Co2 2.294065 1_555
B1 Fe2 2.551231 1_565
B2 Co5 2.036511 1_455
B2 Co3 2.044426 1_454
B2 Co2 2.057053 1_555
B2 Co4 2.069484 1_554
B2 Fe5 2.111467 1_444
B2 Fe4 2.117903 1_555
B2 Fe1 2.276680 1_554
B2 Co1 2.297424 1_555
B2 Fe5 2.551725 1_454
B3 Co4 2.036511 1_555
B3 Co2 2.044426 1_556
B3 Co3 2.057053 1_555
B3 Co5 2.069484 1_556
B3 Fe4 2.111467 1_566
B3 Fe5 2.117903 1_555
B3 Fe0 2.276680 1_556
B3 Co0 2.297424 1_555
B3 Fe4 2.551725 1_556
