# generated using pymatgen
data_BaH2(CO3)2
_symmetry_space_group_name_H-M   'P 1'
_cell_length_a   4.46987800
_cell_length_b   4.50333653
_cell_length_c   12.42981121
_cell_angle_alpha   88.89723428
_cell_angle_beta   84.31785661
_cell_angle_gamma   89.25319188
_symmetry_Int_Tables_number   1
_chemical_formula_structural   BaH2(CO3)2
_chemical_formula_sum   'Ba1 H2 C2 O6'
_cell_volume   248.91313427
_cell_formula_units_Z   1
loop_
 _symmetry_equiv_pos_site_id
 _symmetry_equiv_pos_as_xyz
  1  'x, y, z'
loop_
 _atom_site_type_symbol
 _atom_site_label
 _atom_site_symmetry_multiplicity
 _atom_site_fract_x
 _atom_site_fract_y
 _atom_site_fract_z
 _atom_site_occupancy
  Ba  Ba0  1  0.93628800  0.97431100  0.99529100  1
  H  H0  1  0.18240500  0.50219800  0.17530900  1
  H  H1  1  0.50296400  0.64632100  0.82858300  1
  C  C0  1  0.31455500  0.70752900  0.39513700  1
  C  C1  1  0.70038400  0.29165200  0.60576500  1
  O  O0  1  0.42256100  0.69421000  0.30789700  1
  O  O1  1  0.72074900  0.30207900  0.69664600  1
  O  O2  1  0.38881700  0.13413400  0.11536200  1
  O  O3  1  0.11589200  0.49076900  0.88083600  1
  O  O4  1  0.05178200  0.46250100  0.11880800  1
  O  O5  1  0.45360400  0.80429600  0.88036500  1
loop_
_geom_bond_atom_site_label_1
_geom_bond_atom_site_label_2
_geom_bond_distance
_geom_bond_site_symmetry_2
Ba0 O3 2.694010 1_655
Ba0 O5 2.704736 1_655
Ba0 O2 2.741179 1_666
Ba0 O3 2.787986 1_665
Ba0 O4 2.788085 1_666
Ba0 O4 2.815262 1_656
Ba0 O5 2.824407 1_555
Ba0 O2 2.829508 1_566
H0 O4 0.977156 1_555
H0 O2 2.006334 1_555
H1 O5 0.976973 1_555
H1 O3 1.922909 1_555
C0 O0 1.144825 1_555
C1 O1 1.144150 1_555
O2 O4 2.095155 1_555
O3 O5 2.079837 1_555
