# generated using pymatgen
data_K3NaCr2O8
_symmetry_space_group_name_H-M   'P 1'
_cell_length_a   5.78394498
_cell_length_b   5.78394390
_cell_length_c   14.92555254
_cell_angle_alpha   90.23238066
_cell_angle_beta   90.23238150
_cell_angle_gamma   60.13422629
_symmetry_Int_Tables_number   1
_chemical_formula_structural   K3NaCr2O8
_chemical_formula_sum   'K6 Na2 Cr4 O16'
_cell_volume   433.00241991
_cell_formula_units_Z   2
loop_
 _symmetry_equiv_pos_site_id
 _symmetry_equiv_pos_as_xyz
  1  'x, y, z'
loop_
 _atom_site_type_symbol
 _atom_site_label
 _atom_site_symmetry_multiplicity
 _atom_site_fract_x
 _atom_site_fract_y
 _atom_site_fract_z
 _atom_site_occupancy
  K  K0  1  0.05733169  0.94266831  0.75000000  1
  K  K1  1  0.94266831  0.05733169  0.25000000  1
  K  K2  1  0.30632615  0.34953532  0.08636250  1
  K  K3  1  0.65046468  0.69367385  0.41363750  1
  K  K4  1  0.34953432  0.30632815  0.58636250  1
  K  K5  1  0.69367385  0.65046468  0.91363750  1
  Na  Na0  1  0.00000100  0.99999900  0.50000000  1
  Na  Na1  1  -0.00000000  0.00000000  -0.00000000  1
  Cr  Cr0  1  0.31996373  0.35495518  0.36515483  1
  Cr  Cr1  1  0.64504482  0.68003527  0.13484517  1
  Cr  Cr2  1  0.68003627  0.64504482  0.63484517  1
  Cr  Cr3  1  0.35495518  0.31996473  0.86515583  1
  O  O0  1  0.15144135  0.22028120  0.40799533  1
  O  O1  1  0.77971780  0.84855765  0.09200467  1
  O  O2  1  0.84855765  0.77971880  0.59200467  1
  O  O3  1  0.22028220  0.15144235  0.90799533  1
  O  O4  1  0.15405520  0.67941641  0.38362230  1
  O  O5  1  0.32058359  0.84594380  0.11637770  1
  O  O6  1  0.84594380  0.32058359  0.61637770  1
  O  O7  1  0.67941641  0.15405520  0.88362230  1
  O  O8  1  0.61081003  0.22498005  0.41741090  1
  O  O9  1  0.77502095  0.38918997  0.08258910  1
  O  O10  1  0.38918997  0.77501995  0.58258910  1
  O  O11  1  0.22498105  0.61081003  0.91741190  1
  O  O12  1  0.28641569  0.37270665  0.75860480  1
  O  O13  1  0.62729435  0.71358331  0.74139520  1
  O  O14  1  0.37270565  0.28641669  0.25860580  1
  O  O15  1  0.71358431  0.62729335  0.24139420  1
loop_
_geom_bond_atom_site_label_1
_geom_bond_atom_site_label_2
_geom_bond_distance
_geom_bond_site_symmetry_2
K0 O7 2.757584 1_465
K0 O6 2.757584 1_465
K0 O12 2.879517 1_555
K0 O13 2.879522 1_555
K0 O2 2.999956 1_455
K0 O3 2.999959 1_565
K0 O10 3.005599 1_555
K0 O11 3.005611 1_555
K0 O13 3.352201 1_455
K0 O12 3.352202 1_565
K1 O4 2.757583 1_645
K1 O5 2.757584 1_645
K1 O15 2.879518 1_555
K1 O14 2.879523 1_555
K1 O0 2.999953 1_655
K1 O1 2.999959 1_545
K1 O9 3.005599 1_555
K1 O8 3.005599 1_555
K1 O14 3.352202 1_655
K1 O15 3.352203 1_545
K2 O14 2.598046 1_555
K2 O1 2.828212 1_545
K2 O9 2.832909 1_555
K2 O11 2.859567 1_554
K2 O5 2.909063 1_545
K2 O5 2.945566 1_555
K2 O9 2.965819 1_455
K2 O1 2.976527 1_455
K2 O3 3.029903 1_554
K3 O15 2.598047 1_555
K3 O0 2.828211 1_655
K3 O8 2.832903 1_555
K3 O10 2.859580 1_555
K3 O4 2.909057 1_655
K3 O4 2.945572 1_555
K3 O8 2.965824 1_565
K3 O0 2.976526 1_565
K3 O2 3.029905 1_555
K4 O12 2.598031 1_555
K4 O2 2.828206 1_455
K4 O10 2.832895 1_555
K4 O8 2.859581 1_555
K4 O6 2.909063 1_455
K4 O6 2.945566 1_555
K4 O10 2.965833 1_545
K4 O2 2.976533 1_545
K4 O0 3.029909 1_555
K5 O13 2.598032 1_555
K5 O3 2.828212 1_565
K5 O11 2.832898 1_555
K5 O9 2.859579 1_556
K5 O7 2.909057 1_565
K5 O7 2.945571 1_555
K5 O11 2.965831 1_655
K5 O3 2.976527 1_655
K5 O1 3.029903 1_556
Na0 O10 2.313701 1_555
Na0 O8 2.313710 1_465
Na0 O0 2.326314 1_565
Na0 O2 2.326317 1_455
Na0 O4 2.364370 1_555
Na0 O6 2.364376 1_465
Na1 O11 2.313698 1_544
Na1 O9 2.313705 1_455
Na1 O3 2.326321 1_554
Na1 O1 2.326321 1_445
Na1 O5 2.364373 1_545
Na1 O7 2.364373 1_454
Cr0 O14 1.630232 1_555
Cr0 O4 1.650180 1_555
Cr0 O0 1.652565 1_555
Cr0 O8 1.654691 1_555
Cr1 O15 1.630233 1_555
Cr1 O5 1.650181 1_555
Cr1 O1 1.652561 1_555
Cr1 O9 1.654685 1_555
Cr2 O13 1.630246 1_555
Cr2 O6 1.650180 1_555
Cr2 O2 1.652560 1_555
Cr2 O10 1.654691 1_555
Cr3 O12 1.630262 1_555
Cr3 O7 1.650178 1_555
Cr3 O3 1.652555 1_555
Cr3 O11 1.654686 1_555
