# generated using pymatgen
data_Pm2AgAu
_symmetry_space_group_name_H-M   'P 1'
_cell_length_a   5.21277653
_cell_length_b   5.21277653
_cell_length_c   5.21277653
_cell_angle_alpha   60.00000000
_cell_angle_beta   60.00000000
_cell_angle_gamma   60.00000000
_symmetry_Int_Tables_number   1
_chemical_formula_structural   Pm2AgAu
_chemical_formula_sum   'Pm2 Ag1 Au1'
_cell_volume   100.15954036
_cell_formula_units_Z   1
loop_
 _symmetry_equiv_pos_site_id
 _symmetry_equiv_pos_as_xyz
  1  'x, y, z'
loop_
 _atom_site_type_symbol
 _atom_site_label
 _atom_site_symmetry_multiplicity
 _atom_site_fract_x
 _atom_site_fract_y
 _atom_site_fract_z
 _atom_site_occupancy
  Pm  Pm0  1  0.25000000  0.25000000  0.25000000  1
  Pm  Pm1  1  0.75000000  0.75000000  0.75000000  1
  Ag  Ag0  1  0.50000000  0.50000000  0.50000000  1
  Au  Au0  1  -0.00000000  0.00000000  -0.00000000  1
loop_
_geom_bond_atom_site_label_1
_geom_bond_atom_site_label_2
_geom_bond_distance
_geom_bond_site_symmetry_2
Pm0 Pm1 3.685990 1_454
Pm0 Pm1 3.685990 1_544
Pm0 Pm1 3.685990 1_445
Pm0 Pm1 3.685990 1_545
Pm0 Pm1 3.685990 1_455
Pm0 Pm1 3.685990 1_554
Ag0 Pm1 3.192161 1_555
Ag0 Pm0 3.192161 1_555
Ag0 Pm0 3.192161 1_556
Ag0 Pm1 3.192161 1_455
Ag0 Pm0 3.192161 1_565
Ag0 Pm0 3.192161 1_655
Ag0 Pm1 3.192161 1_554
Ag0 Pm1 3.192161 1_545
Ag0 Au0 3.685990 1_556
Ag0 Au0 3.685990 1_655
Ag0 Au0 3.685990 1_565
Ag0 Au0 3.685990 1_656
Ag0 Au0 3.685990 1_665
Ag0 Au0 3.685990 1_566
Au0 Pm0 3.192161 1_555
Au0 Pm0 3.192161 1_554
Au0 Pm0 3.192161 1_545
Au0 Pm1 3.192161 1_454
Au0 Pm1 3.192161 1_544
Au0 Pm1 3.192161 1_445
Au0 Pm1 3.192161 1_444
Au0 Pm0 3.192161 1_455
