# generated using pymatgen
data_Sm2Ga8Co
_symmetry_space_group_name_H-M   'P 1'
_cell_length_a   4.29917000
_cell_length_b   4.29917000
_cell_length_c   11.25397300
_cell_angle_alpha   90.00000000
_cell_angle_beta   90.00000000
_cell_angle_gamma   90.00000000
_symmetry_Int_Tables_number   1
_chemical_formula_structural   Sm2Ga8Co
_chemical_formula_sum   'Sm2 Ga8 Co1'
_cell_volume   208.00563766
_cell_formula_units_Z   1
loop_
 _symmetry_equiv_pos_site_id
 _symmetry_equiv_pos_as_xyz
  1  'x, y, z'
loop_
 _atom_site_type_symbol
 _atom_site_label
 _atom_site_symmetry_multiplicity
 _atom_site_fract_x
 _atom_site_fract_y
 _atom_site_fract_z
 _atom_site_occupancy
  Sm  Sm0  1  0.00000000  0.00000000  0.69618500  1
  Sm  Sm1  1  0.00000000  0.00000000  0.30381500  1
  Ga  Ga0  1  0.50000000  0.00000000  0.88596200  1
  Ga  Ga1  1  0.00000000  0.50000000  0.88596200  1
  Ga  Ga2  1  0.50000000  0.00000000  0.11403800  1
  Ga  Ga3  1  0.00000000  0.50000000  0.11403800  1
  Ga  Ga4  1  0.50000000  0.00000000  0.50000000  1
  Ga  Ga5  1  0.00000000  0.50000000  0.50000000  1
  Ga  Ga6  1  0.50000000  0.50000000  0.70055000  1
  Ga  Ga7  1  0.50000000  0.50000000  0.29945000  1
  Co  Co0  1  0.00000000  0.00000000  0.00000000  1
loop_
_geom_bond_atom_site_label_1
_geom_bond_atom_site_label_2
_geom_bond_distance
_geom_bond_site_symmetry_2
Ga0 Ga2 2.566761 1_556
Ga0 Ga6 2.995781 1_545
Ga0 Ga6 2.995781 1_555
Ga0 Sm0 3.030202 1_555
Ga0 Sm0 3.030202 1_655
Ga0 Ga1 3.039972 1_555
Ga0 Ga1 3.039972 1_545
Ga0 Ga1 3.039972 1_645
Ga0 Ga1 3.039972 1_655
Ga1 Ga3 2.566761 1_556
Ga1 Ga6 2.995781 1_455
Ga1 Ga6 2.995781 1_555
Ga1 Sm0 3.030202 1_555
Ga1 Sm0 3.030202 1_565
Ga2 Ga7 2.995781 1_545
Ga2 Ga7 2.995781 1_555
Ga2 Sm1 3.030202 1_555
Ga2 Sm1 3.030202 1_655
Ga2 Ga3 3.039972 1_645
Ga2 Ga3 3.039972 1_655
Ga2 Ga3 3.039972 1_545
Ga2 Ga3 3.039972 1_555
Ga3 Ga7 2.995781 1_455
Ga3 Ga7 2.995781 1_555
Ga3 Sm1 3.030202 1_555
Ga3 Sm1 3.030202 1_565
Ga4 Ga5 3.039972 1_545
Ga4 Ga5 3.039972 1_645
Ga4 Ga5 3.039972 1_555
Ga4 Ga5 3.039972 1_655
Ga4 Sm0 3.081455 1_655
Ga4 Sm0 3.081455 1_555
Ga4 Sm1 3.081455 1_655
Ga4 Sm1 3.081455 1_555
Ga4 Ga7 3.116840 1_555
Ga4 Ga7 3.116840 1_545
Ga4 Ga6 3.116840 1_555
Ga4 Ga6 3.116840 1_545
Ga5 Sm0 3.081455 1_565
Ga5 Sm0 3.081455 1_555
Ga5 Sm1 3.081455 1_565
Ga5 Sm1 3.081455 1_555
Ga5 Ga7 3.116840 1_555
Ga5 Ga7 3.116840 1_455
Ga5 Ga6 3.116840 1_555
Ga5 Ga6 3.116840 1_455
Ga6 Sm0 3.040369 1_555
Ga6 Sm0 3.040369 1_565
Ga6 Sm0 3.040369 1_665
Ga6 Sm0 3.040369 1_655
Ga7 Sm1 3.040369 1_665
Ga7 Sm1 3.040369 1_555
Ga7 Sm1 3.040369 1_565
Ga7 Sm1 3.040369 1_655
Co0 Ga2 2.503554 1_555
Co0 Ga3 2.503554 1_545
Co0 Ga2 2.503554 1_455
Co0 Ga3 2.503554 1_555
Co0 Ga1 2.503554 1_544
Co0 Ga0 2.503554 1_554
Co0 Ga0 2.503554 1_454
Co0 Ga1 2.503554 1_554
