# generated using pymatgen
data_Al5Ni41B12
_symmetry_space_group_name_H-M   'P 1'
_cell_length_a   12.82032891
_cell_length_b   12.82032891
_cell_length_c   12.82032879
_cell_angle_alpha   33.53164431
_cell_angle_beta   33.53164431
_cell_angle_gamma   33.53164512
_symmetry_Int_Tables_number   1
_chemical_formula_structural   Al5Ni41B12
_chemical_formula_sum   'Al5 Ni41 B12'
_cell_volume   572.69771236
_cell_formula_units_Z   1
loop_
 _symmetry_equiv_pos_site_id
 _symmetry_equiv_pos_as_xyz
  1  'x, y, z'
loop_
 _atom_site_type_symbol
 _atom_site_label
 _atom_site_symmetry_multiplicity
 _atom_site_fract_x
 _atom_site_fract_y
 _atom_site_fract_z
 _atom_site_occupancy
  Al  Al0  1  0.62508700  0.62508700  0.62508700  1
  Al  Al1  1  0.12502000  0.12502000  0.12502000  1
  Al  Al2  1  0.87498000  0.87498000  0.87498000  1
  Al  Al3  1  0.37491300  0.37491300  0.37491300  1
  Al  Al4  1  0.50000000  0.50000000  0.50000000  1
  Ni  Ni0  1  0.50000000  0.83841100  0.16158900  1
  Ni  Ni1  1  0.00000000  0.33742300  0.66257700  1
  Ni  Ni2  1  0.16158900  0.83841100  0.50000000  1
  Ni  Ni3  1  0.66257700  0.33742300  0.00000000  1
  Ni  Ni4  1  0.83226400  0.16755700  0.83226400  1
  Ni  Ni5  1  0.32993200  0.66992100  0.32993200  1
  Ni  Ni6  1  0.00000000  0.66257700  0.33742300  1
  Ni  Ni7  1  0.50000000  0.16158900  0.83841100  1
  Ni  Ni8  1  0.83226400  0.83226400  0.16755700  1
  Ni  Ni9  1  0.32993200  0.32993200  0.66992100  1
  Ni  Ni10  1  0.66257700  0.00000000  0.33742300  1
  Ni  Ni11  1  0.16158900  0.50000000  0.83841100  1
  Ni  Ni12  1  0.33007900  0.67006800  0.67006800  1
  Ni  Ni13  1  0.83244300  0.16773600  0.16773600  1
  Ni  Ni14  1  0.67006800  0.67006800  0.33007900  1
  Ni  Ni15  1  0.16773600  0.16773600  0.83244300  1
  Ni  Ni16  1  0.67006800  0.33007900  0.67006800  1
  Ni  Ni17  1  0.16773600  0.83244300  0.16773600  1
  Ni  Ni18  1  0.16755700  0.83226400  0.83226400  1
  Ni  Ni19  1  0.66992100  0.32993200  0.32993200  1
  Ni  Ni20  1  0.33742300  0.66257700  0.00000000  1
  Ni  Ni21  1  0.83841100  0.16158900  0.50000000  1
  Ni  Ni22  1  0.83841100  0.50000000  0.16158900  1
  Ni  Ni23  1  0.33742300  0.00000000  0.66257700  1
  Ni  Ni24  1  0.42636000  0.95566200  0.42636000  1
  Ni  Ni25  1  0.92654800  0.45590900  0.92654800  1
  Ni  Ni26  1  0.42636000  0.42636000  0.95566200  1
  Ni  Ni27  1  0.92654800  0.92654800  0.45590900  1
  Ni  Ni28  1  0.19104800  0.19104800  0.19104800  1
  Ni  Ni29  1  0.69131500  0.69131500  0.69131500  1
  Ni  Ni30  1  0.95566200  0.42636000  0.42636000  1
  Ni  Ni31  1  0.45590900  0.92654800  0.92654800  1
  Ni  Ni32  1  0.07345200  0.54409100  0.07345200  1
  Ni  Ni33  1  0.57364000  0.04433800  0.57364000  1
  Ni  Ni34  1  0.07345200  0.07345200  0.54409100  1
  Ni  Ni35  1  0.57364000  0.57364000  0.04433800  1
  Ni  Ni36  1  0.30868500  0.30868500  0.30868500  1
  Ni  Ni37  1  0.80895200  0.80895200  0.80895200  1
  Ni  Ni38  1  0.54409100  0.07345200  0.07345200  1
  Ni  Ni39  1  0.04433800  0.57364000  0.57364000  1
  Ni  Ni40  1  0.00000000  0.00000000  0.00000000  1
  B  B0  1  0.36300100  0.91088300  0.36300100  1
  B  B1  1  0.86332100  0.40960200  0.86332100  1
  B  B2  1  0.59039800  0.13667900  0.13667900  1
  B  B3  1  0.08911700  0.63699900  0.63699900  1
  B  B4  1  0.13667900  0.13667900  0.59039800  1
  B  B5  1  0.63699900  0.63699900  0.08911700  1
  B  B6  1  0.13667900  0.59039800  0.13667900  1
  B  B7  1  0.63699900  0.08911700  0.63699900  1
  B  B8  1  0.36300100  0.36300100  0.91088300  1
  B  B9  1  0.86332100  0.86332100  0.40960200  1
  B  B10  1  0.91088300  0.36300100  0.36300100  1
  B  B11  1  0.40960200  0.86332100  0.86332100  1
loop_
_geom_bond_atom_site_label_1
_geom_bond_atom_site_label_2
_geom_bond_distance
_geom_bond_site_symmetry_2
Al0 Ni26 2.400494 1_555
Al0 Ni30 2.400494 1_555
Al0 Ni24 2.400494 1_555
Al0 Ni29 2.401741 1_555
Al0 Ni14 2.872549 1_555
Al0 Ni12 2.872549 1_555
Al0 Ni16 2.872549 1_555
Al0 Ni3 2.877225 1_556
Al0 Ni20 2.877225 1_556
Al0 Ni10 2.877225 1_565
Al0 Ni6 2.877225 1_655
Al0 Ni1 2.877225 1_655
Al0 Ni23 2.877225 1_565
Al0 Ni8 2.886062 1_555
Al0 Ni18 2.886062 1_555
Al0 Ni4 2.886062 1_555
Al1 Ni28 2.394488 1_555
Al1 Ni27 2.397396 1_445
Al1 Ni25 2.397396 1_454
Al1 Ni31 2.397396 1_544
Al1 Ni9 2.871071 1_554
Al1 Ni19 2.871071 1_455
Al1 Ni5 2.871071 1_545
Al1 Ni21 2.875454 1_455
Al1 Ni2 2.875454 1_545
Al1 Ni7 2.875454 1_554
Al1 Ni11 2.875454 1_554
Al1 Ni0 2.875454 1_545
Al1 Ni22 2.875454 1_455
Al1 Ni15 2.884465 1_554
Al1 Ni17 2.884465 1_545
Al1 Ni13 2.884465 1_455
Al2 Ni37 2.394488 1_555
Al2 Ni34 2.397396 1_665
Al2 Ni32 2.397396 1_656
Al2 Ni38 2.397396 1_566
Al2 Ni14 2.871071 1_556
Al2 Ni16 2.871071 1_565
Al2 Ni12 2.871071 1_655
Al2 Ni21 2.875454 1_565
Al2 Ni2 2.875454 1_655
Al2 Ni22 2.875454 1_556
Al2 Ni0 2.875454 1_556
Al2 Ni7 2.875454 1_565
Al2 Ni11 2.875454 1_655
Al2 Ni8 2.884465 1_556
Al2 Ni4 2.884465 1_565
Al2 Ni18 2.884465 1_655
Al3 Ni35 2.400494 1_555
Al3 Ni33 2.400494 1_555
Al3 Ni39 2.400494 1_555
Al3 Ni36 2.401741 1_555
Al3 Ni9 2.872549 1_555
Al3 Ni19 2.872549 1_555
Al3 Ni5 2.872549 1_555
Al3 Ni20 2.877225 1_555
Al3 Ni3 2.877225 1_555
Al3 Ni1 2.877225 1_555
Al3 Ni23 2.877225 1_555
Al3 Ni10 2.877225 1_555
Al3 Ni6 2.877225 1_555
Al3 Ni15 2.886062 1_555
Al3 Ni17 2.886062 1_555
Al3 Ni13 2.886062 1_555
Al4 Ni11 2.502997 1_555
Al4 Ni0 2.502997 1_555
Al4 Ni22 2.502997 1_555
Al4 Ni7 2.502997 1_555
Al4 Ni21 2.502997 1_555
Al4 Ni2 2.502997 1_555
Al4 Ni5 2.518248 1_555
Al4 Ni12 2.518248 1_555
Al4 Ni19 2.518248 1_555
Al4 Ni16 2.518248 1_555
Al4 Ni9 2.518248 1_555
Al4 Ni14 2.518248 1_555
Ni0 Ni7 2.390328 1_564
Ni0 Ni2 2.502997 1_555
Ni0 Ni22 2.502997 1_555
Ni0 Ni14 2.512441 1_555
Ni0 Ni5 2.512441 1_555
Ni0 Ni37 2.601729 1_554
Ni0 Ni28 2.601729 1_565
Ni0 Ni31 2.602819 1_554
Ni0 Ni38 2.602819 1_565
Ni1 Ni6 2.404944 1_555
Ni1 Ni15 2.491871 1_555
Ni1 Ni4 2.491871 1_455
Ni1 Ni40 2.495689 1_556
Ni1 Ni3 2.495689 1_456
Ni1 Ni23 2.495689 1_555
Ni1 Ni36 2.608396 1_555
Ni1 Ni29 2.608396 1_455
Ni1 Ni30 2.612845 1_455
Ni1 Ni39 2.612845 1_555
Ni2 Ni21 2.390329 1_465
Ni2 Ni5 2.512441 1_555
Ni2 Ni37 2.601729 1_455
Ni2 Ni28 2.601729 1_565
Ni2 Ni34 2.602819 1_565
Ni2 Ni27 2.602819 1_455
Ni3 Ni4 2.491871 1_554
Ni3 Ni40 2.495689 1_655
Ni3 Ni36 2.608396 1_555
Ni3 Ni35 2.612845 1_555
Ni4 Ni8 2.479935 1_546
Ni4 Ni40 2.483969 1_656
Ni5 Ni9 2.514668 1_555
Ni6 Ni8 2.491871 1_455
Ni7 Ni9 2.512441 1_555
Ni10 Ni23 2.404944 1_555
Ni10 Ni8 2.491871 1_545
Ni10 Ni13 2.491871 1_555
Ni10 Ni3 2.495689 1_555
Ni10 Ni40 2.495689 1_655
Ni10 Ni6 2.495689 1_645
Ni10 Ni29 2.608396 1_545
Ni10 Ni36 2.608396 1_555
Ni10 Ni33 2.612845 1_555
Ni10 Ni24 2.612845 1_545
Ni11 Ni22 2.390328 1_456
Ni11 Ni2 2.502997 1_555
Ni11 Ni7 2.502997 1_555
Ni11 Ni9 2.512441 1_555
Ni11 Ni12 2.512441 1_555
Ni11 Ni28 2.601729 1_556
Ni11 Ni37 2.601729 1_455
Ni11 Ni32 2.602819 1_556
Ni11 Ni25 2.602819 1_455
Ni12 Ni18 2.398233 1_555
Ni12 Ni2 2.512441 1_555
Ni12 Ni14 2.514668 1_555
Ni12 Ni16 2.514668 1_555
Ni12 Ni26 2.593192 1_555
Ni12 Ni24 2.593192 1_555
Ni12 Ni32 2.597200 1_556
Ni12 Ni34 2.597200 1_565
Ni13 Ni19 2.398233 1_555
Ni13 Ni15 2.479935 1_654
Ni13 Ni17 2.479935 1_645
Ni13 Ni40 2.483969 1_655
Ni13 Ni3 2.491871 1_555
Ni13 Ni33 2.613835 1_555
Ni13 Ni35 2.613835 1_555
Ni13 Ni27 2.613847 1_545
Ni13 Ni25 2.613847 1_554
Ni14 Ni8 2.398233 1_555
Ni14 Ni22 2.512441 1_555
Ni14 Ni16 2.514668 1_555
Ni14 Ni30 2.593192 1_555
Ni14 Ni24 2.593192 1_555
Ni14 Ni32 2.597200 1_655
Ni14 Ni38 2.597200 1_565
Ni15 Ni9 2.398233 1_555
Ni15 Ni17 2.479935 1_546
Ni15 Ni40 2.483969 1_556
Ni15 Ni23 2.491871 1_555
Ni15 Ni39 2.613835 1_555
Ni15 Ni33 2.613835 1_555
Ni15 Ni25 2.613847 1_455
Ni15 Ni31 2.613847 1_545
Ni16 Ni4 2.398233 1_555
Ni16 Ni21 2.512441 1_555
Ni16 Ni7 2.512441 1_555
Ni16 Ni26 2.593192 1_555
Ni16 Ni30 2.593192 1_555
Ni16 Ni38 2.597200 1_556
Ni16 Ni34 2.597200 1_655
Ni17 Ni5 2.398233 1_555
Ni17 Ni40 2.483969 1_565
Ni17 Ni20 2.491871 1_555
Ni17 Ni6 2.491871 1_555
Ni17 Ni39 2.613835 1_555
Ni17 Ni35 2.613835 1_555
Ni17 Ni27 2.613847 1_455
Ni17 Ni31 2.613847 1_554
Ni18 Ni8 2.479935 1_456
Ni18 Ni4 2.479935 1_465
Ni18 Ni40 2.483969 1_566
Ni18 Ni20 2.491871 1_556
Ni18 Ni23 2.491871 1_565
Ni18 Ni24 2.613835 1_555
Ni18 Ni26 2.613835 1_555
Ni18 Ni34 2.613847 1_565
Ni18 Ni32 2.613847 1_556
Ni19 Ni21 2.512441 1_555
Ni19 Ni22 2.512441 1_555
Ni19 Ni9 2.514668 1_555
Ni19 Ni5 2.514668 1_555
Ni19 Ni35 2.593192 1_555
Ni19 Ni33 2.593192 1_555
Ni19 Ni25 2.597200 1_554
Ni19 Ni27 2.597200 1_545
Ni20 Ni3 2.404944 1_555
Ni20 Ni6 2.495689 1_555
Ni20 Ni23 2.495689 1_564
Ni20 Ni40 2.495689 1_565
Ni20 Ni36 2.608396 1_555
Ni20 Ni29 2.608396 1_554
Ni20 Ni35 2.612845 1_555
Ni20 Ni26 2.612845 1_554
Ni21 Ni7 2.502997 1_555
Ni21 Ni22 2.502997 1_555
Ni21 Ni37 2.601729 1_545
Ni21 Ni28 2.601729 1_655
Ni21 Ni34 2.602819 1_655
Ni21 Ni27 2.602819 1_545
Ni22 Ni37 2.601729 1_554
Ni22 Ni28 2.601729 1_655
Ni22 Ni25 2.602819 1_554
Ni22 Ni32 2.602819 1_655
Ni23 Ni40 2.495689 1_556
Ni23 Ni36 2.608396 1_555
Ni23 Ni29 2.608396 1_545
Ni23 Ni24 2.612845 1_545
Ni23 Ni33 2.612845 1_555
Ni24 Ni38 2.460323 1_565
Ni24 Ni34 2.460323 1_565
Ni24 Ni36 2.462422 1_565
Ni24 Ni8 2.613835 1_555
Ni25 Ni39 2.460323 1_655
Ni25 Ni35 2.460323 1_556
Ni25 Ni37 2.463460 1_555
Ni25 Ni9 2.597200 1_655
Ni26 Ni38 2.460323 1_556
Ni26 Ni32 2.460323 1_556
Ni26 Ni36 2.462421 1_556
Ni26 Ni3 2.612845 1_556
Ni26 Ni4 2.613835 1_555
Ni27 Ni39 2.460323 1_655
Ni27 Ni33 2.460323 1_565
Ni27 Ni37 2.463459 1_555
Ni27 Ni5 2.597200 1_655
Ni28 Ni34 2.463459 1_555
Ni28 Ni32 2.463460 1_555
Ni28 Ni38 2.463460 1_555
Ni28 Ni7 2.601729 1_554
Ni29 Ni35 2.462421 1_556
Ni29 Ni39 2.462422 1_655
Ni29 Ni33 2.462422 1_565
Ni29 Ni6 2.608396 1_655
Ni29 Ni3 2.608396 1_556
Ni30 Ni32 2.460323 1_655
Ni30 Ni34 2.460323 1_655
Ni30 Ni36 2.462422 1_655
Ni30 Ni6 2.612845 1_655
Ni30 Ni4 2.613835 1_555
Ni30 Ni8 2.613835 1_555
Ni31 Ni33 2.460323 1_565
Ni31 Ni35 2.460323 1_556
Ni31 Ni37 2.463460 1_555
Ni31 Ni5 2.597200 1_556
Ni31 Ni9 2.597200 1_565
Ni31 Ni7 2.602819 1_565
Ni32 Ni8 2.613847 1_455
Ni33 Ni9 2.593192 1_555
Ni34 Ni4 2.613847 1_455
Ni35 Ni5 2.593192 1_555
Ni36 Ni6 2.608396 1_555
Ni37 Ni7 2.601729 1_565
Ni38 Ni7 2.602819 1_554
Ni38 Ni4 2.613847 1_554
Ni38 Ni8 2.613847 1_545
Ni39 Ni5 2.593192 1_555
Ni39 Ni9 2.593192 1_555
Ni39 Ni6 2.612845 1_555
Ni40 Ni8 2.483969 1_445
Ni40 Ni6 2.495689 1_545
B0 Ni24 2.074615 1_555
B0 Ni38 2.077079 1_565
B0 Ni34 2.077079 1_565
B0 Ni28 2.078741 1_565
B0 Ni0 2.081788 1_555
B0 Ni2 2.081788 1_555
B0 Ni12 2.084990 1_555
B0 Ni14 2.084990 1_555
B1 Ni13 2.073249 1_556
B1 Ni15 2.073249 1_655
B1 Ni1 2.073392 1_655
B1 Ni3 2.073392 1_556
B1 Ni29 2.078714 1_555
B1 Ni39 2.085117 1_655
B1 Ni35 2.085117 1_556
B1 Ni25 2.089627 1_555
B2 Ni4 2.073249 1_554
B2 Ni8 2.073249 1_545
B2 Ni10 2.073392 1_555
B2 Ni3 2.073392 1_555
B2 Ni36 2.078714 1_555
B2 Ni24 2.085117 1_545
B2 Ni26 2.085117 1_554
B2 Ni38 2.089627 1_555
B3 Ni39 2.074615 1_555
B3 Ni25 2.077079 1_455
B3 Ni27 2.077079 1_455
B3 Ni37 2.078741 1_455
B3 Ni11 2.081788 1_555
B3 Ni2 2.081788 1_555
B3 Ni5 2.084990 1_555
B3 Ni9 2.084990 1_555
B4 Ni4 2.073249 1_455
B4 Ni18 2.073249 1_545
B4 Ni1 2.073392 1_555
B4 Ni23 2.073392 1_555
B4 Ni36 2.078714 1_555
B4 Ni30 2.085117 1_455
B4 Ni24 2.085117 1_545
B4 Ni34 2.089627 1_555
B5 Ni35 2.074615 1_555
B5 Ni25 2.077079 1_554
B5 Ni31 2.077079 1_554
B5 Ni37 2.078741 1_554
B5 Ni0 2.081788 1_555
B5 Ni22 2.081788 1_555
B5 Ni19 2.084990 1_555
B5 Ni5 2.084990 1_555
B6 Ni18 2.073249 1_554
B6 Ni8 2.073249 1_455
B6 Ni6 2.073392 1_555
B6 Ni20 2.073392 1_555
B6 Ni36 2.078714 1_555
B6 Ni30 2.085117 1_455
B6 Ni26 2.085117 1_554
B6 Ni32 2.089627 1_555
B7 Ni33 2.074615 1_555
B7 Ni31 2.077079 1_545
B7 Ni27 2.077079 1_545
B7 Ni37 2.078741 1_545
B7 Ni7 2.081788 1_555
B7 Ni21 2.081788 1_555
B7 Ni19 2.084990 1_555
B7 Ni9 2.084990 1_555
B8 Ni26 2.074615 1_555
B8 Ni32 2.077079 1_556
B8 Ni38 2.077079 1_556
B8 Ni28 2.078741 1_556
B8 Ni11 2.081788 1_555
B8 Ni7 2.081788 1_555
B8 Ni12 2.084990 1_555
B8 Ni16 2.084990 1_555
B9 Ni17 2.073249 1_655
B9 Ni13 2.073249 1_565
B9 Ni10 2.073392 1_565
B9 Ni6 2.073392 1_655
B9 Ni29 2.078714 1_555
B9 Ni33 2.085117 1_565
B9 Ni39 2.085117 1_655
B9 Ni27 2.089627 1_555
B10 Ni30 2.074615 1_555
B10 Ni32 2.077079 1_655
B10 Ni34 2.077079 1_655
B10 Ni28 2.078741 1_655
B10 Ni22 2.081788 1_555
B10 Ni21 2.081788 1_555
B10 Ni16 2.084990 1_555
B10 Ni14 2.084990 1_555
B11 Ni17 2.073249 1_556
B11 Ni15 2.073249 1_565
B11 Ni23 2.073392 1_565
B11 Ni20 2.073392 1_556
B11 Ni29 2.078714 1_555
B11 Ni33 2.085117 1_565
B11 Ni35 2.085117 1_556
B11 Ni31 2.089627 1_555
