# generated using pymatgen
data_SmCdPd
_symmetry_space_group_name_H-M   'P 1'
_cell_length_a   7.62766687
_cell_length_b   7.62766687
_cell_length_c   3.99971428
_cell_angle_alpha   90.00000000
_cell_angle_beta   90.00000000
_cell_angle_gamma   120.00001642
_symmetry_Int_Tables_number   1
_chemical_formula_structural   SmCdPd
_chemical_formula_sum   'Sm3 Cd3 Pd3'
_cell_volume   201.53151220
_cell_formula_units_Z   3
loop_
 _symmetry_equiv_pos_site_id
 _symmetry_equiv_pos_as_xyz
  1  'x, y, z'
loop_
 _atom_site_type_symbol
 _atom_site_label
 _atom_site_symmetry_multiplicity
 _atom_site_fract_x
 _atom_site_fract_y
 _atom_site_fract_z
 _atom_site_occupancy
  Sm  Sm0  1  0.40486655  0.40486655  0.50000000  1
  Sm  Sm1  1  0.59513345  -0.00000000  0.50000000  1
  Sm  Sm2  1  -0.00000000  0.59513345  0.50000000  1
  Cd  Cd0  1  0.74599816  0.74599816  -0.00000000  1
  Cd  Cd1  1  0.25400184  0.00000000  -0.00000000  1
  Cd  Cd2  1  0.00000000  0.25400184  0.00000000  1
  Pd  Pd0  1  0.66666700  0.33333300  0.00000000  1
  Pd  Pd1  1  0.33333300  0.66666700  0.00000000  1
  Pd  Pd2  1  0.00000000  0.00000000  0.50000000  1
loop_
_geom_bond_atom_site_label_1
_geom_bond_atom_site_label_2
_geom_bond_distance
_geom_bond_site_symmetry_2
Cd0 Pd2 2.784440 1_665
Cd0 Pd2 2.784440 1_664
Cd0 Pd1 2.892976 1_555
Cd0 Pd0 2.892976 1_555
Cd0 Sm0 3.281772 1_554
Cd0 Sm0 3.281772 1_555
Cd0 Cd2 3.355746 1_665
Cd0 Cd1 3.355746 1_665
Cd0 Sm1 3.362563 1_564
Cd0 Sm1 3.362563 1_565
Cd0 Sm2 3.362563 1_655
Cd0 Sm2 3.362563 1_654
Cd1 Pd2 2.784440 1_555
Cd1 Pd2 2.784440 1_554
Cd1 Pd1 2.892968 1_545
Cd1 Pd0 2.892972 1_555
Cd1 Sm1 3.281773 1_554
Cd1 Sm1 3.281773 1_555
Cd1 Cd2 3.355747 1_555
Cd1 Sm2 3.362562 1_544
Cd1 Sm2 3.362562 1_545
Cd1 Sm0 3.362562 1_555
Cd1 Sm0 3.362562 1_554
Cd2 Pd2 2.784440 1_555
Cd2 Pd2 2.784440 1_554
Cd2 Pd0 2.892968 1_455
Cd2 Pd1 2.892972 1_555
Cd2 Sm2 3.281773 1_554
Cd2 Sm2 3.281773 1_555
Cd2 Sm1 3.362562 1_454
Cd2 Sm1 3.362562 1_455
Cd2 Sm0 3.362562 1_555
Cd2 Sm0 3.362562 1_554
Pd0 Sm1 3.061767 1_555
Pd0 Sm1 3.061767 1_554
Pd0 Sm2 3.061768 1_655
Pd0 Sm2 3.061768 1_654
Pd0 Sm0 3.061773 1_555
Pd0 Sm0 3.061773 1_554
Pd1 Sm2 3.061767 1_555
Pd1 Sm2 3.061767 1_554
Pd1 Sm1 3.061768 1_564
Pd1 Sm1 3.061768 1_565
Pd1 Sm0 3.061773 1_555
Pd1 Sm0 3.061773 1_554
Pd2 Sm0 3.088186 1_555
Pd2 Sm1 3.088187 1_455
Pd2 Sm2 3.088187 1_545
