# generated using pymatgen
data_PmSc3
_symmetry_space_group_name_H-M   'P 1'
_cell_length_a   5.70390689
_cell_length_b   5.70390689
_cell_length_c   5.70390689
_cell_angle_alpha   129.20320347
_cell_angle_beta   129.20320347
_cell_angle_gamma   74.68382983
_symmetry_Int_Tables_number   1
_chemical_formula_structural   PmSc3
_chemical_formula_sum   'Pm1 Sc3'
_cell_volume   108.56575757
_cell_formula_units_Z   1
loop_
 _symmetry_equiv_pos_site_id
 _symmetry_equiv_pos_as_xyz
  1  'x, y, z'
loop_
 _atom_site_type_symbol
 _atom_site_label
 _atom_site_symmetry_multiplicity
 _atom_site_fract_x
 _atom_site_fract_y
 _atom_site_fract_z
 _atom_site_occupancy
  Pm  Pm0  1  0.00000000  -0.00000000  -0.00000000  1
  Sc  Sc0  1  0.75000000  0.25000000  0.50000000  1
  Sc  Sc1  1  0.25000000  0.75000000  0.50000000  1
  Sc  Sc2  1  0.50000000  0.50000000  -0.00000000  1
loop_
_geom_bond_atom_site_label_1
_geom_bond_atom_site_label_2
_geom_bond_distance
_geom_bond_site_symmetry_2
Pm0 Sc1 3.335600 1_545
Pm0 Sc0 3.335600 1_455
Pm0 Sc0 3.335600 1_555
Pm0 Sc0 3.335600 1_444
Pm0 Sc0 3.335600 1_454
Pm0 Sc1 3.335600 1_544
Pm0 Sc1 3.335600 1_555
Pm0 Sc1 3.335600 1_444
Pm0 Sc2 3.459820 1_444
Pm0 Sc2 3.459820 1_545
Pm0 Sc2 3.459820 1_455
Pm0 Sc2 3.459820 1_556
Sc0 Sc2 3.335600 1_545
Sc0 Sc2 3.335600 1_555
Sc0 Sc2 3.335600 1_556
Sc0 Sc2 3.335600 1_656
Sc0 Sc1 3.459820 1_645
Sc0 Sc1 3.459820 1_656
Sc0 Sc1 3.459820 1_544
Sc0 Sc1 3.459820 1_555
Sc1 Sc2 3.335600 1_555
Sc1 Sc2 3.335600 1_455
Sc1 Sc2 3.335600 1_566
Sc1 Sc2 3.335600 1_556
