# generated using pymatgen
data_Ca(Fe2O3)4
_symmetry_space_group_name_H-M   'P 1'
_cell_length_a   5.34451833
_cell_length_b   5.58052511
_cell_length_c   8.93758261
_cell_angle_alpha   82.18544792
_cell_angle_beta   80.50984489
_cell_angle_gamma   77.52164174
_symmetry_Int_Tables_number   1
_chemical_formula_structural   Ca(Fe2O3)4
_chemical_formula_sum   'Ca1 Fe8 O12'
_cell_volume   255.30912288
_cell_formula_units_Z   1
loop_
 _symmetry_equiv_pos_site_id
 _symmetry_equiv_pos_as_xyz
  1  'x, y, z'
loop_
 _atom_site_type_symbol
 _atom_site_label
 _atom_site_symmetry_multiplicity
 _atom_site_fract_x
 _atom_site_fract_y
 _atom_site_fract_z
 _atom_site_occupancy
  Ca  Ca0  1  0.56736600  0.39954300  0.70594100  1
  Fe  Fe0  1  0.28203600  0.44649400  0.10114200  1
  Fe  Fe1  1  0.22750600  0.00357000  0.40366400  1
  Fe  Fe2  1  0.13969100  0.47014800  0.49774600  1
  Fe  Fe3  1  0.32862800  0.94313000  0.99541400  1
  Fe  Fe4  1  0.85270300  0.63110800  0.90695700  1
  Fe  Fe5  1  0.73215600  0.92832000  0.56568900  1
  Fe  Fe6  1  0.73134500  0.62888300  0.27832500  1
  Fe  Fe7  1  0.77570800  0.10978900  0.06896200  1
  O  O0  1  0.44729800  0.63803400  0.90533400  1
  O  O1  1  0.93705600  0.15665600  0.57715800  1
  O  O2  1  0.08314600  0.35721500  0.30834300  1
  O  O3  1  0.46508800  0.93458600  0.19656400  1
  O  O4  1  0.62907700  0.39823000  0.17352300  1
  O  O5  1  0.94631000  0.81032500  0.38411500  1
  O  O6  1  0.90483400  0.62066900  0.67670400  1
  O  O7  1  0.63044500  0.06973000  0.89032400  1
  O  O8  1  0.97606700  0.76902600  0.07919100  1
  O  O9  1  0.41880300  0.16427900  0.53296000  1
  O  O10  1  0.07981500  0.25499200  0.97338500  1
  O  O11  1  0.44492200  0.66527200  0.47498800  1
loop_
_geom_bond_atom_site_label_1
_geom_bond_atom_site_label_2
_geom_bond_distance
_geom_bond_site_symmetry_2
Ca0 O0 2.292977 1_555
Ca0 O7 2.303729 1_555
Ca0 O6 2.358542 1_555
Ca0 O1 2.362813 1_555
Ca0 O11 2.466113 1_555
Ca0 O9 2.480239 1_555
Fe0 O4 2.015837 1_555
Fe0 O2 2.033819 1_555
Fe0 O0 2.091631 1_554
Fe0 O8 2.165649 1_455
Fe0 O10 2.202691 1_554
Fe1 O9 2.062199 1_555
Fe1 O11 2.071153 1_545
Fe1 O5 2.071296 1_445
Fe1 O2 2.077837 1_555
Fe1 O3 2.096212 1_545
Fe1 O1 2.130102 1_455
Fe2 O2 1.973630 1_555
Fe2 O6 2.021642 1_455
Fe2 O9 2.036226 1_555
Fe2 O11 2.118071 1_555
Fe2 O5 2.162723 1_455
Fe2 O1 2.228185 1_455
Fe3 O0 1.920155 1_555
Fe3 O7 1.948264 1_565
Fe3 O10 1.956777 1_565
Fe3 O3 2.039672 1_556
Fe3 O8 2.276658 1_456
Fe4 O6 2.037771 1_555
Fe4 O8 2.067085 1_556
Fe4 O0 2.161086 1_555
Fe4 O10 2.242565 1_655
Fe4 O7 2.475348 1_565
Fe4 O4 2.771955 1_556
Fe5 O1 1.873220 1_565
Fe5 O9 1.930798 1_565
Fe5 O5 1.931211 1_555
Fe5 O6 1.984385 1_555
Fe5 O11 2.622293 1_555
Fe6 O4 1.906202 1_555
Fe6 O5 2.088160 1_555
Fe6 O3 2.103367 1_555
Fe6 O11 2.132958 1_555
Fe6 O2 2.174738 1_655
Fe6 O8 2.187650 1_555
Fe7 O4 1.923771 1_555
Fe7 O7 1.944896 1_554
Fe7 O8 1.968824 1_545
Fe7 O10 1.987711 1_654
Fe7 O3 2.187794 1_545
O1 O9 2.548399 1_655
O1 O2 2.581159 1_655
O5 O8 2.741827 1_555
