# generated using pymatgen
data_MgAlVS4
_symmetry_space_group_name_H-M   'P 1'
_cell_length_a   7.24717793
_cell_length_b   7.28008319
_cell_length_c   7.27198830
_cell_angle_alpha   58.74320339
_cell_angle_beta   60.14311426
_cell_angle_gamma   60.17829052
_symmetry_Int_Tables_number   1
_chemical_formula_structural   MgAlVS4
_chemical_formula_sum   'Mg2 Al2 V2 S8'
_cell_volume   269.26448670
_cell_formula_units_Z   2
loop_
 _symmetry_equiv_pos_site_id
 _symmetry_equiv_pos_as_xyz
  1  'x, y, z'
loop_
 _atom_site_type_symbol
 _atom_site_label
 _atom_site_symmetry_multiplicity
 _atom_site_fract_x
 _atom_site_fract_y
 _atom_site_fract_z
 _atom_site_occupancy
  Mg  Mg0  1  0.87421494  0.87633801  0.87542899  1
  Mg  Mg1  1  0.12579840  0.12365848  0.12456962  1
  Al  Al0  1  0.49999526  0.50000576  0.49999509  1
  Al  Al1  1  -0.00000362  0.49999466  0.50000946  1
  V  V0  1  0.50001731  0.49999969  -0.00001189  1
  V  V1  1  0.50001260  0.99999887  0.49999838  1
  S  S0  1  0.74615759  0.73417859  0.73482617  1
  S  S1  1  0.26273720  0.26137727  0.71317293  1
  S  S2  1  0.26284027  0.71344147  0.26093426  1
  S  S3  1  0.71519083  0.26580431  0.26509786  1
  S  S4  1  0.73714961  0.28655430  0.73906097  1
  S  S5  1  0.28480148  0.73419017  0.73491499  1
  S  S6  1  0.25383228  0.26582139  0.26518268  1
  S  S7  1  0.73725985  0.73863203  0.28682148  1
loop_
_geom_bond_atom_site_label_1
_geom_bond_atom_site_label_2
_geom_bond_distance
_geom_bond_site_symmetry_2
Mg0 S4 2.417794 1_565
Mg0 S7 2.420931 1_556
Mg0 S0 2.444587 1_555
Mg0 S5 2.444687 1_655
Mg1 S2 2.417799 1_545
Mg1 S1 2.420954 1_554
Mg1 S6 2.444534 1_555
Mg1 S3 2.444812 1_455
Al0 S1 2.428973 1_555
Al0 S7 2.428999 1_555
Al0 S2 2.430244 1_555
Al0 S4 2.430258 1_555
Al0 S3 2.445879 1_555
Al0 S5 2.445910 1_555
Al1 S1 2.429150 1_555
Al1 S7 2.429244 1_455
Al1 S4 2.430803 1_455
Al1 S2 2.430817 1_555
Al1 S6 2.445535 1_555
Al1 S0 2.445539 1_455
S0 V0 2.448503 1_556
S0 V1 2.452220 1_555
S1 V1 2.476589 1_545
S2 V0 2.475025 1_555
S3 V0 2.448108 1_555
S3 V1 2.452165 1_545
S4 V0 2.474940 1_556
S5 V0 2.448120 1_556
S5 V1 2.452342 1_555
S6 V0 2.448737 1_555
S6 V1 2.452338 1_545
S7 V1 2.476538 1_555
