# generated using pymatgen
data_Ca3(SbN2)2
_symmetry_space_group_name_H-M   'P 1'
_cell_length_a   8.14418668
_cell_length_b   12.15595600
_cell_length_c   5.19565450
_cell_angle_alpha   89.99999878
_cell_angle_beta   96.56266473
_cell_angle_gamma   138.27057678
_symmetry_Int_Tables_number   1
_chemical_formula_structural   Ca3(SbN2)2
_chemical_formula_sum   'Ca6 Sb4 N8'
_cell_volume   337.28803845
_cell_formula_units_Z   2
loop_
 _symmetry_equiv_pos_site_id
 _symmetry_equiv_pos_as_xyz
  1  'x, y, z'
loop_
 _atom_site_type_symbol
 _atom_site_label
 _atom_site_symmetry_multiplicity
 _atom_site_fract_x
 _atom_site_fract_y
 _atom_site_fract_z
 _atom_site_occupancy
  Ca  Ca0  1  0.21482900  0.01234400  0.06023900  1
  Ca  Ca1  1  0.78517100  0.79751500  0.43976100  1
  Ca  Ca2  1  0.78517100  0.98765600  0.93976100  1
  Ca  Ca3  1  0.21482900  0.20248500  0.56023900  1
  Ca  Ca4  1  0.00000000  0.67222400  0.75000000  1
  Ca  Ca5  1  0.00000000  0.32777600  0.25000000  1
  Sb  Sb0  1  0.61346800  0.20930200  0.66025000  1
  Sb  Sb1  1  0.38653200  0.59583300  0.83975000  1
  Sb  Sb2  1  0.38653200  0.79069800  0.33975000  1
  Sb  Sb3  1  0.61346800  0.40416700  0.16025000  1
  N  N0  1  0.22689500  0.00715900  0.57490900  1
  N  N1  1  0.77310500  0.78026400  0.92509100  1
  N  N2  1  0.77310500  0.99284100  0.42509100  1
  N  N3  1  0.22689500  0.21973600  0.07490900  1
  N  N4  1  0.65875200  0.25905300  0.06477500  1
  N  N5  1  0.34124800  0.60030100  0.43522500  1
  N  N6  1  0.34124800  0.74094700  0.93522500  1
  N  N7  1  0.65875200  0.39969900  0.56477500  1
loop_
_geom_bond_atom_site_label_1
_geom_bond_atom_site_label_2
_geom_bond_distance
_geom_bond_site_symmetry_2
Ca0 N1 2.380764 1_444
Ca0 N4 2.421281 1_555
Ca0 N3 2.449421 1_555
Ca0 N0 2.537325 1_554
Ca0 N0 2.667084 1_555
Ca1 N0 2.380764 1_665
Ca1 N5 2.421281 1_555
Ca1 N2 2.449421 1_555
Ca1 N1 2.537325 1_555
Ca1 N1 2.667084 1_554
Ca2 N3 2.380764 1_666
Ca2 N6 2.421281 1_555
Ca2 N1 2.449421 1_555
Ca2 N2 2.537325 1_556
Ca2 N2 2.667084 1_555
Ca3 N2 2.380764 1_445
Ca3 N7 2.421281 1_555
Ca3 N0 2.449421 1_555
Ca3 N3 2.537325 1_555
Ca3 N3 2.667084 1_556
Ca4 N6 2.295905 1_555
Ca4 N7 2.295905 1_455
Ca4 N1 3.158106 1_455
Ca4 N0 3.158106 1_565
Ca5 N4 2.295905 1_455
Ca5 N5 2.295905 1_555
Ca5 N3 3.158106 1_555
Ca5 N2 3.158106 1_445
N0 Sb0 2.068938 1_555
N1 Sb1 2.068937 1_555
N2 Sb2 2.068938 1_555
N3 Sb3 2.068937 1_555
N4 Sb0 2.099790 1_554
N4 Sb3 2.122882 1_555
N5 Sb1 2.099792 1_555
N5 Sb2 2.122870 1_555
N6 Sb2 2.099790 1_556
N6 Sb1 2.122882 1_555
N7 Sb3 2.099792 1_555
N7 Sb0 2.122870 1_555
