# generated using pymatgen
data_Na(NbSe2)2
_symmetry_space_group_name_H-M   'P 1'
_cell_length_a   7.09041345
_cell_length_b   7.09041345
_cell_length_c   29.92538726
_cell_angle_alpha   90.00000000
_cell_angle_beta   90.00000000
_cell_angle_gamma   120.00002360
_symmetry_Int_Tables_number   1
_chemical_formula_structural   Na(NbSe2)2
_chemical_formula_sum   'Na8 Nb16 Se32'
_cell_volume   1302.90703123
_cell_formula_units_Z   8
loop_
 _symmetry_equiv_pos_site_id
 _symmetry_equiv_pos_as_xyz
  1  'x, y, z'
loop_
 _atom_site_type_symbol
 _atom_site_label
 _atom_site_symmetry_multiplicity
 _atom_site_fract_x
 _atom_site_fract_y
 _atom_site_fract_z
 _atom_site_occupancy
  Na  Na0_0  1  0.33333350  0.16666650  0.00006708  1
  Na  Na0_1  1  0.33333350  0.16666650  0.50006709  1
  Na  Na0_2  1  0.33333350  0.66666650  0.00006708  1
  Na  Na0_3  1  0.33333350  0.66666650  0.50006709  1
  Na  Na0_4  1  0.83333350  0.16666650  0.00006708  1
  Na  Na0_5  1  0.83333350  0.16666650  0.50006709  1
  Na  Na0_6  1  0.83333350  0.66666650  0.00006708  1
  Na  Na0_7  1  0.83333350  0.66666650  0.50006709  1
  Nb  Nb0_0  1  0.00000000  0.00000000  0.12546832  1
  Nb  Nb0_1  1  0.00000000  0.00000000  0.62546832  1
  Nb  Nb0_2  1  0.00000000  0.50000000  0.12546832  1
  Nb  Nb0_3  1  0.00000000  0.50000000  0.62546832  1
  Nb  Nb0_4  1  0.50000000  0.00000000  0.12546832  1
  Nb  Nb0_5  1  0.50000000  0.00000000  0.62546832  1
  Nb  Nb0_6  1  0.50000000  0.50000000  0.12546832  1
  Nb  Nb0_7  1  0.50000000  0.50000000  0.62546832  1
  Nb  Nb1_0  1  0.33333350  0.16666650  0.37435100  1
  Nb  Nb1_1  1  0.33333350  0.16666650  0.87435100  1
  Nb  Nb1_2  1  0.33333350  0.66666650  0.37435100  1
  Nb  Nb1_3  1  0.33333350  0.66666650  0.87435100  1
  Nb  Nb1_4  1  0.83333350  0.16666650  0.37435100  1
  Nb  Nb1_5  1  0.83333350  0.16666650  0.87435100  1
  Nb  Nb1_6  1  0.83333350  0.66666650  0.37435100  1
  Nb  Nb1_7  1  0.83333350  0.66666650  0.87435100  1
  Se  Se0_0  1  0.16666650  0.33333350  0.06954921  1
  Se  Se0_1  1  0.16666650  0.33333350  0.56954920  1
  Se  Se0_2  1  0.16666650  0.83333350  0.06954921  1
  Se  Se0_3  1  0.16666650  0.83333350  0.56954920  1
  Se  Se0_4  1  0.66666650  0.33333350  0.06954921  1
  Se  Se0_5  1  0.66666650  0.33333350  0.56954920  1
  Se  Se0_6  1  0.66666650  0.83333350  0.06954921  1
  Se  Se0_7  1  0.66666650  0.83333350  0.56954920  1
  Se  Se1_0  1  0.16666650  0.33333350  0.43025379  1
  Se  Se1_1  1  0.16666650  0.33333350  0.93025379  1
  Se  Se1_2  1  0.16666650  0.83333350  0.43025379  1
  Se  Se1_3  1  0.16666650  0.83333350  0.93025379  1
  Se  Se1_4  1  0.66666650  0.33333350  0.43025379  1
  Se  Se1_5  1  0.66666650  0.33333350  0.93025379  1
  Se  Se1_6  1  0.66666650  0.83333350  0.43025379  1
  Se  Se1_7  1  0.66666650  0.83333350  0.93025379  1
  Se  Se2_0  1  0.16666650  0.33333350  0.32037631  1
  Se  Se2_1  1  0.16666650  0.33333350  0.82037631  1
  Se  Se2_2  1  0.16666650  0.83333350  0.32037631  1
  Se  Se2_3  1  0.16666650  0.83333350  0.82037631  1
  Se  Se2_4  1  0.66666650  0.33333350  0.32037631  1
  Se  Se2_5  1  0.66666650  0.33333350  0.82037631  1
  Se  Se2_6  1  0.66666650  0.83333350  0.32037631  1
  Se  Se2_7  1  0.66666650  0.83333350  0.82037631  1
  Se  Se3_0  1  0.16666650  0.33333350  0.17948379  1
  Se  Se3_1  1  0.16666650  0.33333350  0.67948378  1
  Se  Se3_2  1  0.16666650  0.83333350  0.17948379  1
  Se  Se3_3  1  0.16666650  0.83333350  0.67948378  1
  Se  Se3_4  1  0.66666650  0.33333350  0.17948379  1
  Se  Se3_5  1  0.66666650  0.33333350  0.67948378  1
  Se  Se3_6  1  0.66666650  0.83333350  0.17948379  1
  Se  Se3_7  1  0.66666650  0.83333350  0.67948378  1
loop_
_geom_bond_atom_site_label_1
_geom_bond_atom_site_label_2
_geom_bond_distance
_geom_bond_site_symmetry_2
Na0_0 Se0_4 2.917686 1_555
Na0_0 Se0_2 2.917686 1_545
Na0_0 Se0_0 2.917690 1_555
Na0_0 Se1_5 2.924757 1_554
Na0_0 Se1_3 2.924757 1_544
Na0_0 Se1_1 2.924761 1_554
Na0_0 Na0_6 3.545205 1_555
Na0_0 Na0_6 3.545205 1_445
Na0_0 Na0_4 3.545207 1_555
Na0_0 Na0_2 3.545207 1_555
Na0_0 Na0_2 3.545207 1_545
Na0_0 Na0_4 3.545207 1_455
Na0_1 Se0_5 2.917686 1_555
Na0_1 Se0_3 2.917686 1_545
Na0_1 Se0_1 2.917690 1_555
Na0_1 Se1_4 2.924757 1_555
Na0_1 Se1_2 2.924757 1_545
Na0_1 Se1_0 2.924761 1_555
Na0_1 Na0_7 3.545205 1_445
Na0_1 Na0_7 3.545205 1_555
Na0_1 Na0_3 3.545207 1_555
Na0_1 Na0_5 3.545207 1_555
Na0_1 Na0_3 3.545207 1_545
Na0_1 Na0_5 3.545207 1_455
Na0_2 Se0_0 2.917686 1_555
Na0_2 Se0_6 2.917686 1_555
Na0_2 Se0_2 2.917690 1_555
Na0_2 Se1_7 2.924757 1_554
Na0_2 Se1_1 2.924757 1_554
Na0_2 Se1_3 2.924761 1_554
Na0_2 Na0_4 3.545205 1_455
Na0_2 Na0_4 3.545205 1_565
Na0_2 Na0_6 3.545207 1_455
Na0_2 Na0_6 3.545207 1_555
Na0_3 Se0_7 2.917686 1_555
Na0_3 Se0_1 2.917686 1_555
Na0_3 Se0_3 2.917690 1_555
Na0_3 Se1_6 2.924757 1_555
Na0_3 Se1_0 2.924757 1_555
Na0_3 Se1_2 2.924761 1_555
Na0_3 Na0_5 3.545205 1_565
Na0_3 Na0_5 3.545205 1_455
Na0_3 Na0_7 3.545207 1_455
Na0_3 Na0_7 3.545207 1_555
Na0_4 Se0_6 2.917686 1_545
Na0_4 Se0_0 2.917686 1_655
Na0_4 Se0_4 2.917690 1_555
Na0_4 Se1_7 2.924757 1_544
Na0_4 Se1_1 2.924757 1_654
Na0_4 Se1_5 2.924761 1_554
Na0_4 Na0_6 3.545207 1_555
Na0_4 Na0_6 3.545207 1_545
Na0_5 Se0_7 2.917686 1_545
Na0_5 Se0_1 2.917686 1_655
Na0_5 Se0_5 2.917690 1_555
Na0_5 Se1_6 2.924757 1_545
Na0_5 Se1_0 2.924757 1_655
Na0_5 Se1_4 2.924761 1_555
Na0_5 Na0_7 3.545207 1_555
Na0_5 Na0_7 3.545207 1_545
Na0_6 Se0_4 2.917686 1_555
Na0_6 Se0_2 2.917686 1_655
Na0_6 Se0_6 2.917690 1_555
Na0_6 Se1_5 2.924757 1_554
Na0_6 Se1_3 2.924757 1_654
Na0_6 Se1_7 2.924761 1_554
Na0_7 Se0_5 2.917686 1_555
Na0_7 Se0_3 2.917686 1_655
Na0_7 Se0_7 2.917690 1_555
Na0_7 Se1_4 2.924757 1_555
Na0_7 Se1_2 2.924757 1_655
Na0_7 Se1_6 2.924761 1_555
Nb0_0 Se3_2 2.608131 1_545
Nb0_0 Se3_0 2.608133 1_555
Nb0_0 Se3_6 2.608133 1_445
Nb0_0 Se0_2 2.643816 1_545
Nb0_0 Se0_0 2.643817 1_555
Nb0_0 Se0_6 2.643817 1_445
Nb0_1 Se3_3 2.608131 1_545
Nb0_1 Se3_1 2.608133 1_555
Nb0_1 Se3_7 2.608133 1_445
Nb0_1 Se0_3 2.643816 1_545
Nb0_1 Se0_7 2.643817 1_445
Nb0_1 Se0_1 2.643817 1_555
Nb0_2 Se3_0 2.608131 1_555
Nb0_2 Se3_2 2.608133 1_555
Nb0_2 Se3_4 2.608133 1_455
Nb0_2 Se0_0 2.643816 1_555
Nb0_2 Se0_2 2.643817 1_555
Nb0_2 Se0_4 2.643817 1_455
Nb0_3 Se3_1 2.608131 1_555
Nb0_3 Se3_3 2.608133 1_555
Nb0_3 Se3_5 2.608133 1_455
Nb0_3 Se0_1 2.643816 1_555
Nb0_3 Se0_3 2.643817 1_555
Nb0_3 Se0_5 2.643817 1_455
Nb0_4 Se3_6 2.608131 1_545
Nb0_4 Se3_4 2.608133 1_555
Nb0_4 Se3_2 2.608133 1_545
Nb0_4 Se0_6 2.643816 1_545
Nb0_4 Se0_2 2.643817 1_545
Nb0_4 Se0_4 2.643817 1_555
Nb0_5 Se3_7 2.608131 1_545
Nb0_5 Se3_3 2.608133 1_545
Nb0_5 Se3_5 2.608133 1_555
Nb0_5 Se0_7 2.643816 1_545
Nb0_5 Se0_3 2.643817 1_545
Nb0_5 Se0_5 2.643817 1_555
Nb0_6 Se3_4 2.608131 1_555
Nb0_6 Se3_0 2.608133 1_555
Nb0_6 Se3_6 2.608133 1_555
Nb0_6 Se0_4 2.643816 1_555
Nb0_6 Se0_0 2.643817 1_555
Nb0_6 Se0_6 2.643817 1_555
Nb0_7 Se3_5 2.608131 1_555
Nb0_7 Se3_7 2.608133 1_555
Nb0_7 Se3_1 2.608133 1_555
Nb0_7 Se0_5 2.643816 1_555
Nb0_7 Se0_7 2.643817 1_555
Nb0_7 Se0_1 2.643817 1_555
Nb1_0 Se2_4 2.607374 1_555
Nb1_0 Se2_2 2.607374 1_545
Nb1_0 Se2_0 2.607380 1_555
Nb1_0 Se1_4 2.643506 1_555
Nb1_0 Se1_2 2.643506 1_545
Nb1_0 Se1_0 2.643511 1_555
Nb1_1 Se2_5 2.607374 1_555
Nb1_1 Se2_3 2.607374 1_545
Nb1_1 Se2_1 2.607380 1_555
Nb1_1 Se1_5 2.643506 1_555
Nb1_1 Se1_3 2.643506 1_545
Nb1_1 Se1_1 2.643511 1_555
Nb1_2 Se2_6 2.607374 1_555
Nb1_2 Se2_0 2.607374 1_555
Nb1_2 Se2_2 2.607380 1_555
Nb1_2 Se1_6 2.643506 1_555
Nb1_2 Se1_0 2.643506 1_555
Nb1_2 Se1_2 2.643511 1_555
Nb1_3 Se2_7 2.607374 1_555
Nb1_3 Se2_1 2.607374 1_555
Nb1_3 Se2_3 2.607380 1_555
Nb1_3 Se1_7 2.643506 1_555
Nb1_3 Se1_1 2.643506 1_555
Nb1_3 Se1_3 2.643511 1_555
Nb1_4 Se2_6 2.607374 1_545
Nb1_4 Se2_0 2.607374 1_655
Nb1_4 Se2_4 2.607380 1_555
Nb1_4 Se1_6 2.643506 1_545
Nb1_4 Se1_0 2.643506 1_655
Nb1_4 Se1_4 2.643511 1_555
Nb1_5 Se2_7 2.607374 1_545
Nb1_5 Se2_1 2.607374 1_655
Nb1_5 Se2_5 2.607380 1_555
Nb1_5 Se1_7 2.643506 1_545
Nb1_5 Se1_1 2.643506 1_655
Nb1_5 Se1_5 2.643511 1_555
Nb1_6 Se2_4 2.607374 1_555
Nb1_6 Se2_2 2.607374 1_655
Nb1_6 Se2_6 2.607380 1_555
Nb1_6 Se1_4 2.643506 1_555
Nb1_6 Se1_2 2.643506 1_655
Nb1_6 Se1_6 2.643511 1_555
Nb1_7 Se2_5 2.607374 1_555
Nb1_7 Se2_3 2.607374 1_655
Nb1_7 Se2_7 2.607380 1_555
Nb1_7 Se1_5 2.643506 1_555
Nb1_7 Se1_3 2.643506 1_655
Nb1_7 Se1_7 2.643511 1_555
Se2_0 Se2_6 3.545205 1_445
Se2_0 Se2_6 3.545205 1_555
Se2_0 Se2_4 3.545207 1_555
Se2_0 Se2_2 3.545207 1_555
Se2_0 Se2_4 3.545207 1_455
Se2_0 Se2_2 3.545207 1_545
Se2_1 Se2_7 3.545205 1_555
Se2_1 Se2_7 3.545205 1_445
Se2_1 Se2_3 3.545207 1_555
Se2_1 Se2_5 3.545207 1_555
Se2_1 Se2_5 3.545207 1_455
Se2_1 Se2_3 3.545207 1_545
Se2_2 Se2_4 3.545205 1_565
Se2_2 Se2_4 3.545205 1_455
Se2_2 Se2_6 3.545207 1_555
Se2_2 Se2_6 3.545207 1_455
Se2_3 Se2_5 3.545205 1_565
Se2_3 Se2_5 3.545205 1_455
Se2_3 Se2_7 3.545207 1_555
Se2_3 Se2_7 3.545207 1_455
Se2_4 Se2_6 3.545207 1_545
Se2_4 Se2_6 3.545207 1_555
Se2_5 Se2_7 3.545207 1_545
Se2_5 Se2_7 3.545207 1_555
Se3_0 Se3_6 3.545205 1_555
Se3_0 Se3_6 3.545205 1_445
Se3_0 Se3_4 3.545207 1_555
Se3_0 Se3_2 3.545207 1_555
Se3_0 Se3_4 3.545207 1_455
Se3_0 Se3_2 3.545207 1_545
Se3_1 Se3_7 3.545205 1_445
Se3_1 Se3_7 3.545205 1_555
Se3_1 Se3_5 3.545207 1_555
Se3_1 Se3_3 3.545207 1_555
Se3_1 Se3_3 3.545207 1_545
Se3_1 Se3_5 3.545207 1_455
Se3_2 Se3_4 3.545205 1_565
Se3_2 Se3_4 3.545205 1_455
Se3_2 Se3_6 3.545207 1_555
Se3_2 Se3_6 3.545207 1_455
Se3_3 Se3_5 3.545205 1_565
Se3_3 Se3_5 3.545205 1_455
Se3_3 Se3_7 3.545207 1_555
Se3_3 Se3_7 3.545207 1_455
Se3_4 Se3_6 3.545207 1_545
Se3_4 Se3_6 3.545207 1_555
Se3_5 Se3_7 3.545207 1_545
Se3_5 Se3_7 3.545207 1_555
