# generated using pymatgen
data_Cd4Ge(SeS)3
_symmetry_space_group_name_H-M   'P 1'
_cell_length_a   7.48779728
_cell_length_b   7.48779728
_cell_length_c   12.93265206
_cell_angle_alpha   72.74572630
_cell_angle_beta   72.74572630
_cell_angle_gamma   59.38627464
_symmetry_Int_Tables_number   1
_chemical_formula_structural   Cd4Ge(SeS)3
_chemical_formula_sum   'Cd8 Ge2 Se6 S6'
_cell_volume   586.52855603
_cell_formula_units_Z   2
loop_
 _symmetry_equiv_pos_site_id
 _symmetry_equiv_pos_as_xyz
  1  'x, y, z'
loop_
 _atom_site_type_symbol
 _atom_site_label
 _atom_site_symmetry_multiplicity
 _atom_site_fract_x
 _atom_site_fract_y
 _atom_site_fract_z
 _atom_site_occupancy
  Cd  Cd0  1  0.22751500  0.45044400  0.49693100  1
  Cd  Cd1  1  0.45044400  0.22751500  0.99693100  1
  Cd  Cd2  1  0.70183300  0.92370800  0.30923800  1
  Cd  Cd3  1  0.92370800  0.70183300  0.80923800  1
  Cd  Cd4  1  0.83366500  0.43493500  0.16188500  1
  Cd  Cd5  1  0.43493500  0.83366500  0.66188500  1
  Cd  Cd6  1  0.93039700  0.08505500  0.49752800  1
  Cd  Cd7  1  0.08505500  0.93039700  0.99752800  1
  Ge  Ge0  1  0.29752000  0.84236600  0.24373700  1
  Ge  Ge1  1  0.84236600  0.29752000  0.74373700  1
  Se  Se0  1  0.72121900  0.17888900  0.11517900  1
  Se  Se1  1  0.17888900  0.72121900  0.61517900  1
  Se  Se2  1  0.07565800  0.57178500  0.99573600  1
  Se  Se3  1  0.57178500  0.07565800  0.49573600  1
  Se  Se4  1  0.12126100  0.63307800  0.29584200  1
  Se  Se5  1  0.63307800  0.12126100  0.79584200  1
  S  S0  1  0.40937000  0.87576400  0.06219200  1
  S  S1  1  0.87576400  0.40937000  0.56219200  1
  S  S2  1  0.58963700  0.64172700  0.32031000  1
  S  S3  1  0.64172700  0.58963700  0.82031000  1
  S  S4  1  0.12101100  0.15516400  0.29642300  1
  S  S5  1  0.15516400  0.12101100  0.79642300  1
loop_
_geom_bond_atom_site_label_1
_geom_bond_atom_site_label_2
_geom_bond_distance
_geom_bond_site_symmetry_2
Cd0 S1 2.663900 1_455
Cd0 Se3 2.674874 1_555
Cd0 Se4 2.697378 1_555
Cd0 Se1 2.709089 1_555
Cd0 S2 3.600228 1_555
Cd1 S0 2.663900 1_546
Cd1 Se2 2.674874 1_555
Cd1 Se5 2.697378 1_555
Cd1 Se0 2.709089 1_556
Cd1 S3 3.600228 1_555
Cd2 S2 2.596199 1_555
Cd2 Se3 2.676997 1_565
Cd2 Se0 2.681832 1_565
Cd2 Se4 2.751195 1_655
Cd3 S3 2.596199 1_555
Cd3 Se2 2.676997 1_655
Cd3 Se1 2.681832 1_655
Cd3 Se5 2.751195 1_565
Cd4 S2 2.591072 1_555
Cd4 Se2 2.688055 1_654
Cd4 Se0 2.717040 1_555
Cd4 S4 2.740996 1_655
Cd4 S0 3.446134 1_555
Cd5 S3 2.591072 1_555
Cd5 Se3 2.688055 1_565
Cd5 Se1 2.717040 1_555
Cd5 S5 2.740996 1_565
Cd5 S1 3.446134 1_555
Cd6 S1 2.598819 1_555
Cd6 S4 2.613053 1_655
Cd6 Se1 2.693834 1_645
Cd6 Se3 2.728769 1_555
Cd7 S0 2.598819 1_556
Cd7 S5 2.613053 1_565
Cd7 Se0 2.693834 1_466
Cd7 Se2 2.728769 1_555
Ge0 S4 2.226318 1_565
Ge0 S0 2.230452 1_555
Ge0 S2 2.253348 1_555
Ge0 Se4 2.367325 1_555
Ge1 S5 2.226318 1_655
Ge1 S1 2.230452 1_555
Ge1 S3 2.253348 1_555
Ge1 Se5 2.367325 1_555
