# generated using pymatgen
data_Rb3LiErV2O8
_symmetry_space_group_name_H-M   'P 1'
_cell_length_a   6.07928367
_cell_length_b   6.13758256
_cell_length_c   8.40745690
_cell_angle_alpha   89.99999989
_cell_angle_beta   87.34926120
_cell_angle_gamma   120.31771827
_symmetry_Int_Tables_number   1
_chemical_formula_structural   Rb3LiErV2O8
_chemical_formula_sum   'Rb3 Li1 Er1 V2 O8'
_cell_volume   270.40925171
_cell_formula_units_Z   1
loop_
 _symmetry_equiv_pos_site_id
 _symmetry_equiv_pos_as_xyz
  1  'x, y, z'
loop_
 _atom_site_type_symbol
 _atom_site_label
 _atom_site_symmetry_multiplicity
 _atom_site_fract_x
 _atom_site_fract_y
 _atom_site_fract_z
 _atom_site_occupancy
  Rb  Rb0  1  0.64957800  0.32478900  0.25289900  1
  Rb  Rb1  1  0.35042200  0.67521100  0.74710100  1
  Rb  Rb2  1  0.00000000  0.00000000  0.00000000  1
  Li  Li0  1  0.00000000  0.50000000  0.50000000  1
  Er  Er0  1  0.00000000  0.00000000  0.50000000  1
  V  V0  1  0.63677400  0.31838700  0.73159300  1
  V  V1  1  0.36322600  0.68161300  0.26840700  1
  O  O0  1  0.67207200  0.33603600  0.93250000  1
  O  O1  1  0.32792800  0.66396400  0.06750000  1
  O  O2  1  0.81241700  0.63144600  0.63545000  1
  O  O3  1  0.18758300  0.36855400  0.36455000  1
  O  O4  1  0.81241700  0.18097300  0.63545000  1
  O  O5  1  0.18758300  0.81902700  0.36455000  1
  O  O6  1  0.31183000  0.15591600  0.68123500  1
  O  O7  1  0.68817000  0.84408400  0.31876500  1
loop_
_geom_bond_atom_site_label_1
_geom_bond_atom_site_label_2
_geom_bond_distance
_geom_bond_site_symmetry_2
Li0 O5 2.014157 1_555
Li0 O4 2.014157 1_455
Li0 O3 2.014165 1_555
Li0 O2 2.014165 1_455
Li0 Rb1 2.847305 1_555
Li0 Rb0 2.847305 1_455
Er0 O3 2.233755 1_555
Er0 O2 2.233755 1_445
Er0 O5 2.233764 1_545
Er0 O4 2.233764 1_455
Er0 O6 2.294966 1_555
Er0 O7 2.294966 1_445
O0 V0 1.709080 1_555
O0 Rb0 2.690000 1_556
O0 Rb2 3.542172 1_556
O0 Rb2 3.578515 1_656
O0 Rb2 3.578516 1_666
O1 V1 1.709080 1_555
O1 Rb1 2.690000 1_554
O1 Rb2 3.542172 1_665
O1 Rb2 3.578515 1_565
O1 Rb2 3.578516 1_555
O2 V0 1.825991 1_555
O2 Rb1 3.059303 1_555
O2 Rb2 3.678325 1_666
O3 V1 1.825991 1_555
O3 Rb0 3.059303 1_555
O3 Rb2 3.678325 1_555
O4 V0 1.825981 1_555
O4 Rb1 3.059311 1_545
O4 Rb2 3.678330 1_656
O5 V1 1.825981 1_555
O5 Rb0 3.059311 1_565
O5 Rb2 3.678330 1_565
O6 V0 1.778917 1_555
O6 Rb2 3.064384 1_556
O6 Rb1 3.126841 1_555
O6 Rb1 3.126853 1_545
O7 V1 1.778917 1_555
O7 Rb2 3.064384 1_665
O7 Rb0 3.126841 1_555
O7 Rb0 3.126853 1_565
