# generated using pymatgen
data_Li7Mn5O12
_symmetry_space_group_name_H-M   'P 1'
_cell_length_a   6.02815299
_cell_length_b   7.80441570
_cell_length_c   9.77028633
_cell_angle_alpha   94.45605523
_cell_angle_beta   84.19894301
_cell_angle_gamma   104.26536181
_symmetry_Int_Tables_number   1
_chemical_formula_structural   Li7Mn5O12
_chemical_formula_sum   'Li14 Mn10 O24'
_cell_volume   442.53534813
_cell_formula_units_Z   2
loop_
 _symmetry_equiv_pos_site_id
 _symmetry_equiv_pos_as_xyz
  1  'x, y, z'
loop_
 _atom_site_type_symbol
 _atom_site_label
 _atom_site_symmetry_multiplicity
 _atom_site_fract_x
 _atom_site_fract_y
 _atom_site_fract_z
 _atom_site_occupancy
  Li  Li0  1  0.83905500  0.33382800  0.99588200  1
  Li  Li1  1  0.33860900  0.83389400  0.49597200  1
  Li  Li2  1  0.67742700  0.40911200  0.76034900  1
  Li  Li3  1  0.17844900  0.90942600  0.25994400  1
  Li  Li4  1  0.00372800  0.25089000  0.23574900  1
  Li  Li5  1  0.50330900  0.75142000  0.73584900  1
  Li  Li6  1  0.81715900  0.59071200  0.25747800  1
  Li  Li7  1  0.31835900  0.09116100  0.75695300  1
  Li  Li8  1  0.34636500  0.57930900  0.24271000  1
  Li  Li9  1  0.84815300  0.07960200  0.74187800  1
  Li  Li10  1  0.15439200  0.41812800  0.75298900  1
  Li  Li11  1  0.65506400  0.91798600  0.25206300  1
  Li  Li12  1  0.49741400  0.25594500  0.25427200  1
  Li  Li13  1  0.99687800  0.75688100  0.75499200  1
  Mn  Mn0  1  0.83391700  0.83371400  0.50026000  1
  Mn  Mn1  1  0.99182000  0.00362900  0.00340900  1
  Mn  Mn2  1  0.49088600  0.50308100  0.50350200  1
  Mn  Mn3  1  0.67450900  0.65909000  0.99600800  1
  Mn  Mn4  1  0.17613400  0.15956600  0.49552300  1
  Mn  Mn5  1  0.33469000  0.33387400  0.00052300  1
  Mn  Mn6  1  0.49883300  0.00353800  0.00222200  1
  Mn  Mn7  1  0.99737400  0.50437100  0.50340400  1
  Mn  Mn8  1  0.16139800  0.66198800  0.99947300  1
  Mn  Mn9  1  0.66338300  0.16142200  0.49853000  1
  O  O0  1  0.23185000  0.88669500  0.89560100  1
  O  O1  1  0.73124400  0.38646000  0.39602600  1
  O  O2  1  0.40192600  0.79684100  0.11563300  1
  O  O3  1  0.90203700  0.29727600  0.61554000  1
  O  O4  1  0.09050300  0.20063100  0.88757300  1
  O  O5  1  0.59013300  0.70054200  0.38789900  1
  O  O6  1  0.57507000  0.45846100  0.11504000  1
  O  O7  1  0.07527500  0.95877500  0.61433100  1
  O  O8  1  0.93814400  0.54899100  0.87680200  1
  O  O9  1  0.43942900  0.04894100  0.37640900  1
  O  O10  1  0.26546700  0.60651800  0.60762700  1
  O  O11  1  0.76559000  0.10642400  0.10735700  1
  O  O12  1  0.76194300  0.87455500  0.88431200  1
  O  O13  1  0.26170400  0.37472000  0.38429800  1
  O  O14  1  0.90353700  0.79634500  0.11559400  1
  O  O15  1  0.40358700  0.29607100  0.61551200  1
  O  O16  1  0.55014800  0.21047900  0.89538400  1
  O  O17  1  0.04996200  0.71061200  0.39480100  1
  O  O18  1  0.11825200  0.45370400  0.10690400  1
  O  O19  1  0.61771300  0.95338100  0.60740700  1
  O  O20  1  0.43263800  0.53127900  0.88258100  1
  O  O21  1  0.93385900  0.03183000  0.38255400  1
  O  O22  1  0.23124100  0.13387400  0.11756500  1
  O  O23  1  0.73144000  0.63402900  0.61731900  1
loop_
_geom_bond_atom_site_label_1
_geom_bond_atom_site_label_2
_geom_bond_distance
_geom_bond_site_symmetry_2
Li0 O8 2.049136 1_555
Li0 O16 2.072796 1_555
Li0 O18 2.078431 1_656
Li0 O11 2.085096 1_556
Li0 O4 2.186167 1_655
Li0 O6 2.246381 1_556
Li1 O9 2.051625 1_565
Li1 O17 2.074913 1_555
Li1 O19 2.079673 1_555
Li1 O10 2.086009 1_555
Li1 O5 2.186384 1_555
Li1 O7 2.241272 1_555
Li2 O16 2.063853 1_555
Li2 O8 2.068640 1_555
Li2 O3 2.144781 1_555
Li2 O20 2.161697 1_555
Li2 O15 2.250844 1_555
Li2 O23 2.268837 1_555
Li3 O17 2.064609 1_555
Li3 O9 2.068953 1_565
Li3 O2 2.140498 1_555
Li3 O21 2.163524 1_465
Li3 O14 2.252234 1_455
Li3 O22 2.262568 1_565
Li4 O18 2.040128 1_555
Li4 O22 2.044886 1_555
Li4 O11 2.062071 1_455
Li4 O13 2.226312 1_555
Li4 O21 2.249798 1_455
Li4 O1 2.519680 1_455
Li5 O19 2.032607 1_555
Li5 O23 2.050807 1_555
Li5 O10 2.061024 1_555
Li5 O12 2.227207 1_555
Li5 O20 2.255453 1_555
Li5 O0 2.511493 1_555
Li6 O17 2.045374 1_655
Li6 O5 2.070563 1_555
Li6 O1 2.104369 1_555
Li6 O14 2.134547 1_555
Li6 O6 2.139337 1_555
Li6 O18 2.602732 1_655
Li7 O16 2.047888 1_555
Li7 O4 2.073591 1_555
Li7 O0 2.106261 1_545
Li7 O15 2.127457 1_555
Li7 O7 2.144616 1_545
Li7 O19 2.593580 1_545
Li8 O18 2.028499 1_555
Li8 O6 2.111057 1_555
Li8 O2 2.121122 1_555
Li8 O13 2.126614 1_555
Li8 O5 2.143461 1_555
Li8 O17 2.565102 1_555
Li9 O19 2.029686 1_545
Li9 O7 2.103672 1_645
Li9 O3 2.118485 1_555
Li9 O12 2.134842 1_545
Li9 O4 2.141071 1_655
Li9 O16 2.577093 1_555
Li10 O10 2.067403 1_555
Li10 O8 2.085930 1_455
Li10 O3 2.125138 1_455
Li10 O4 2.163544 1_555
Li10 O20 2.173000 1_555
Li10 O15 2.250922 1_555
Li11 O11 2.062857 1_565
Li11 O9 2.086325 1_565
Li11 O2 2.122158 1_555
Li11 O5 2.170724 1_555
Li11 O21 2.181874 1_565
Li11 O14 2.241185 1_555
Li12 O9 2.023144 1_555
Li12 O6 2.099625 1_555
Li12 O1 2.100096 1_555
Li12 O13 2.143208 1_555
Li12 O22 2.179060 1_555
Li12 O11 2.497166 1_555
Li13 O8 2.026297 1_555
Li13 O0 2.095210 1_655
Li13 O7 2.105462 1_655
Li13 O12 2.131777 1_555
Li13 O23 2.183464 1_555
Li13 O10 2.504828 1_655
Mn0 O21 1.937357 1_565
Mn0 O7 1.941786 1_655
Mn0 O23 1.943717 1_555
Mn0 O19 1.959310 1_555
Mn0 O5 1.959873 1_555
Mn0 O17 1.967827 1_655
Mn1 O11 1.915064 1_555
Mn1 O4 1.918891 1_654
Mn1 O12 1.935167 1_544
Mn1 O22 1.945885 1_655
Mn1 O14 1.958312 1_545
Mn1 O0 2.056514 1_644
Mn2 O10 1.914859 1_555
Mn2 O5 1.920424 1_555
Mn2 O13 1.931463 1_555
Mn2 O23 1.950087 1_555
Mn2 O15 1.955514 1_555
Mn2 O1 2.055293 1_555
Mn3 O20 1.946048 1_555
Mn3 O14 1.954854 1_556
Mn3 O6 1.960361 1_556
Mn3 O12 2.007121 1_555
Mn3 O8 2.182605 1_555
Mn3 O2 2.347109 1_556
Mn4 O21 1.944836 1_455
Mn4 O15 1.949427 1_555
Mn4 O7 1.960407 1_545
Mn4 O13 2.002476 1_555
Mn4 O9 2.182825 1_555
Mn4 O3 2.355384 1_455
Mn5 O20 1.933920 1_554
Mn5 O6 1.939418 1_555
Mn5 O22 1.945869 1_555
Mn5 O18 1.957897 1_555
Mn5 O4 1.965108 1_554
Mn5 O16 1.965338 1_554
Mn6 O16 1.934984 1_554
Mn6 O2 1.963105 1_545
Mn6 O11 1.963447 1_555
Mn6 O0 1.993731 1_544
Mn6 O12 2.256845 1_544
Mn6 O22 2.273710 1_555
Mn7 O17 1.939871 1_655
Mn7 O3 1.957808 1_555
Mn7 O10 1.963626 1_655
Mn7 O1 1.995947 1_555
Mn7 O23 2.257510 1_555
Mn7 O13 2.270200 1_655
Mn8 O8 1.897974 1_455
Mn8 O18 1.952772 1_556
Mn8 O2 1.973071 1_556
Mn8 O0 2.026862 1_555
Mn8 O14 2.250520 1_456
Mn8 O20 2.298239 1_555
Mn9 O9 1.896214 1_555
Mn9 O19 1.957669 1_545
Mn9 O3 1.973119 1_555
Mn9 O1 2.022699 1_555
Mn9 O15 2.264036 1_555
Mn9 O21 2.286141 1_555
