# generated using pymatgen
data_V2CoO7
_symmetry_space_group_name_H-M   'P 1'
_cell_length_a   15.00652300
_cell_length_b   6.55959700
_cell_length_c   11.09412299
_cell_angle_alpha   77.73921970
_cell_angle_beta   90.00000000
_cell_angle_gamma   90.00000000
_symmetry_Int_Tables_number   1
_chemical_formula_structural   V2CoO7
_chemical_formula_sum   'V16 Co8 O56'
_cell_volume   1067.16051009
_cell_formula_units_Z   8
loop_
 _symmetry_equiv_pos_site_id
 _symmetry_equiv_pos_as_xyz
  1  'x, y, z'
loop_
 _atom_site_type_symbol
 _atom_site_label
 _atom_site_symmetry_multiplicity
 _atom_site_fract_x
 _atom_site_fract_y
 _atom_site_fract_z
 _atom_site_occupancy
  V  V0  1  0.85762100  0.14699700  0.98279700  1
  V  V1  1  0.00385300  0.57364800  0.68001600  1
  V  V2  1  0.49614700  0.57364800  0.18001600  1
  V  V3  1  0.99614700  0.42635200  0.31998400  1
  V  V4  1  0.70121800  0.49292300  0.80149500  1
  V  V5  1  0.20121800  0.50707700  0.69850500  1
  V  V6  1  0.29878200  0.50707700  0.19850500  1
  V  V7  1  0.79878200  0.49292300  0.30149500  1
  V  V8  1  0.50385300  0.42635200  0.81998400  1
  V  V9  1  0.13867700  0.12516800  0.48151800  1
  V  V10  1  0.63867700  0.87483200  0.01848200  1
  V  V11  1  0.86132300  0.87483200  0.51848200  1
  V  V12  1  0.35762100  0.85300300  0.51720300  1
  V  V13  1  0.64237900  0.14699700  0.48279700  1
  V  V14  1  0.14237900  0.85300300  0.01720300  1
  V  V15  1  0.36132300  0.12516800  0.98151800  1
  Co  Co0  1  0.67733200  0.36302700  0.07582600  1
  Co  Co1  1  0.17733200  0.63697300  0.42417400  1
  Co  Co2  1  0.32266800  0.63697300  0.92417400  1
  Co  Co3  1  0.82266800  0.36302700  0.57582600  1
  Co  Co4  1  0.75366600  0.01088800  0.24988300  1
  Co  Co5  1  0.25366600  0.98911200  0.25011700  1
  Co  Co6  1  0.24633400  0.98911200  0.75011700  1
  Co  Co7  1  0.74633400  0.01088800  0.74988300  1
  O  O0  1  0.95931800  0.23173400  0.96334600  1
  O  O1  1  0.45931800  0.76826600  0.53665400  1
  O  O2  1  0.04068200  0.76826600  0.03665400  1
  O  O3  1  0.54068200  0.23173400  0.46334600  1
  O  O4  1  0.83035600  0.00653900  0.86718300  1
  O  O5  1  0.33035600  0.99346100  0.63281700  1
  O  O6  1  0.16964400  0.99346100  0.13281700  1
  O  O7  1  0.66964400  0.00653900  0.36718300  1
  O  O8  1  0.84106000  0.00782800  0.13613400  1
  O  O9  1  0.34106000  0.99217200  0.36386600  1
  O  O10  1  0.15894000  0.99217200  0.86386600  1
  O  O11  1  0.65894000  0.00782800  0.63613400  1
  O  O12  1  0.29884700  0.34774000  0.94857300  1
  O  O13  1  0.79884700  0.65226000  0.55142700  1
  O  O14  1  0.70115300  0.65226000  0.05142700  1
  O  O15  1  0.20115300  0.34774000  0.44857300  1
  O  O16  1  0.34544800  0.00028800  0.13286700  1
  O  O17  1  0.84544800  0.99971200  0.36713300  1
  O  O18  1  0.65455200  0.99971200  0.86713300  1
  O  O19  1  0.15455200  0.00028800  0.63286700  1
  O  O20  1  0.33211800  0.93896200  0.88407300  1
  O  O21  1  0.42343400  0.61423700  0.83780500  1
  O  O22  1  0.83211800  0.06103800  0.61592700  1
  O  O23  1  0.16788200  0.93896200  0.38407300  1
  O  O24  1  0.46766800  0.30065500  0.72003500  1
  O  O25  1  0.96766800  0.69934500  0.77996500  1
  O  O26  1  0.53233200  0.69934500  0.27996500  1
  O  O27  1  0.03233200  0.30065500  0.22003500  1
  O  O28  1  0.47001700  0.21631100  0.96204100  1
  O  O29  1  0.97001700  0.78368900  0.53795900  1
  O  O30  1  0.52998300  0.78368900  0.03795900  1
  O  O31  1  0.02998300  0.21631100  0.46204100  1
  O  O32  1  0.89829900  0.56065200  0.22118900  1
  O  O33  1  0.39829900  0.43934800  0.27881100  1
  O  O34  1  0.10170100  0.43934800  0.77881100  1
  O  O35  1  0.60170100  0.56065200  0.72118900  1
  O  O36  1  0.75147900  0.30751500  0.21372500  1
  O  O37  1  0.25147900  0.69248500  0.28627500  1
  O  O38  1  0.24852100  0.69248500  0.78627500  1
  O  O39  1  0.74852100  0.30751500  0.71372500  1
  O  O40  1  0.72749800  0.35556700  0.45934700  1
  O  O41  1  0.22749800  0.64443300  0.04065300  1
  O  O42  1  0.27250200  0.64443300  0.54065300  1
  O  O43  1  0.77250200  0.35556700  0.95934700  1
  O  O44  1  0.74345700  0.72116600  0.27906500  1
  O  O45  1  0.24345700  0.27883400  0.22093500  1
  O  O46  1  0.25654300  0.27883400  0.72093500  1
  O  O47  1  0.75654300  0.72116600  0.77906500  1
  O  O48  1  0.88279400  0.41679600  0.42750800  1
  O  O49  1  0.38279400  0.58320400  0.07249200  1
  O  O50  1  0.11720600  0.58320400  0.57249200  1
  O  O51  1  0.61720600  0.41679600  0.92750800  1
  O  O52  1  0.07656600  0.61423700  0.33780500  1
  O  O53  1  0.57656600  0.38576300  0.16219500  1
  O  O54  1  0.92343400  0.38576300  0.66219500  1
  O  O55  1  0.66788200  0.06103800  0.11592700  1
loop_
_geom_bond_atom_site_label_1
_geom_bond_atom_site_label_2
_geom_bond_distance
_geom_bond_site_symmetry_2
Co0 O53 1.813188 1_555
Co0 O51 1.843788 1_554
Co0 O36 1.864018 1_555
Co0 O14 1.892749 1_555
Co0 O43 1.933595 1_554
Co0 O55 1.941082 1_555
Co1 O52 1.813188 1_555
Co1 O50 1.843788 1_555
Co1 O37 1.864018 1_555
Co1 O15 1.892749 1_555
Co1 O42 1.933595 1_555
Co1 O23 1.941082 1_555
Co2 O21 1.813188 1_555
Co2 O49 1.843788 1_556
Co2 O38 1.864018 1_555
Co2 O12 1.892749 1_555
Co2 O41 1.933595 1_556
Co2 O20 1.941082 1_555
Co3 O54 1.813188 1_555
Co3 O48 1.843788 1_555
Co3 O39 1.864018 1_555
Co3 O13 1.892749 1_555
Co3 O40 1.933595 1_555
Co3 O22 1.941082 1_555
Co4 O7 1.807857 1_555
Co4 O8 1.823087 1_555
Co4 O44 1.865130 1_545
Co4 O17 1.885193 1_545
Co4 O36 1.901695 1_555
Co4 O55 1.940705 1_555
Co5 O6 1.807857 1_555
Co5 O9 1.823087 1_555
Co5 O45 1.865130 1_565
Co5 O16 1.885193 1_565
Co5 O37 1.901695 1_555
Co5 O23 1.940705 1_555
Co6 O5 1.807857 1_555
Co6 O10 1.823087 1_555
Co6 O46 1.865130 1_565
Co6 O19 1.885193 1_565
Co6 O38 1.901695 1_555
Co6 O20 1.940705 1_555
Co7 O4 1.807857 1_555
Co7 O11 1.823087 1_555
Co7 O47 1.865130 1_545
Co7 O18 1.885193 1_545
Co7 O39 1.901695 1_555
Co7 O22 1.940705 1_555
O0 V0 1.622843 1_555
O1 V12 1.622843 1_555
O2 V14 1.622843 1_555
O3 V13 1.622843 1_555
O4 V0 1.778584 1_555
O5 V12 1.778584 1_555
O6 V14 1.778584 1_555
O7 V13 1.778584 1_555
O8 V0 1.769021 1_554
O9 V12 1.769021 1_555
O10 V14 1.769021 1_556
O11 V13 1.769021 1_555
O12 V15 1.708067 1_555
O13 V11 1.708067 1_555
O14 V10 1.708067 1_555
O15 V9 1.708067 1_555
O16 V15 1.721314 1_554
O17 V11 1.721314 1_555
O18 V10 1.721314 1_556
O19 V9 1.721314 1_555
O20 V15 1.847570 1_565
O21 V8 1.765758 1_555
O22 V11 1.847570 1_545
O23 V9 1.847570 1_565
O24 V8 1.610139 1_555
O25 V1 1.610139 1_655
O26 V2 1.610139 1_555
O27 V3 1.610139 1_455
O28 V15 1.734880 1_555
O28 V8 1.928119 1_555
O28 O51 2.557548 1_555
O29 V11 1.734880 1_555
O29 V1 1.928119 1_655
O29 O50 2.557548 1_655
O30 V10 1.734880 1_555
O30 V2 1.928119 1_555
O30 O49 2.557548 1_555
O31 V9 1.734880 1_555
O31 V3 1.928119 1_455
O31 O48 2.557548 1_455
O32 V7 1.747361 1_555
O32 V3 1.929604 1_555
O32 O48 2.294867 1_555
O33 V6 1.747361 1_555
O33 V2 1.929604 1_555
O33 O49 2.294867 1_555
O34 V5 1.747361 1_555
O34 V1 1.929604 1_555
O34 O50 2.294867 1_555
O35 V4 1.747361 1_555
O35 V8 1.929604 1_555
O35 O51 2.294867 1_555
O36 V7 1.853152 1_555
O37 V6 1.853152 1_555
O38 V5 1.853152 1_555
O39 V4 1.853152 1_555
O40 V13 1.849298 1_555
O40 V7 2.086328 1_555
O40 O48 2.378411 1_555
O41 V14 1.849298 1_555
O41 V6 2.086328 1_555
O41 O49 2.378411 1_555
O42 V12 1.849298 1_555
O42 V5 2.086328 1_555
O42 O50 2.378411 1_555
O43 V0 1.849298 1_555
O43 V4 2.086328 1_555
O43 O51 2.378411 1_555
O44 V7 1.683607 1_555
O45 V6 1.683607 1_555
O46 V5 1.683607 1_555
O47 V4 1.683607 1_555
O48 V7 1.869949 1_555
O48 V3 2.070909 1_555
O49 V6 1.869949 1_555
O49 V2 2.070909 1_555
O50 V5 1.869949 1_555
O50 V1 2.070909 1_555
O51 V4 1.869949 1_555
O51 V8 2.070909 1_555
O52 V3 1.765758 1_455
O53 V2 1.765758 1_555
O54 V1 1.765758 1_655
O55 V10 1.847570 1_545
