# generated using pymatgen
data_Li7Mn2(CoO4)3
_symmetry_space_group_name_H-M   'P 1'
_cell_length_a   5.02999964
_cell_length_b   5.02999964
_cell_length_c   9.79262475
_cell_angle_alpha   85.08691834
_cell_angle_beta   85.08691834
_cell_angle_gamma   120.06685373
_symmetry_Int_Tables_number   1
_chemical_formula_structural   Li7Mn2(CoO4)3
_chemical_formula_sum   'Li7 Mn2 Co3 O12'
_cell_volume   211.24819220
_cell_formula_units_Z   1
loop_
 _symmetry_equiv_pos_site_id
 _symmetry_equiv_pos_as_xyz
  1  'x, y, z'
loop_
 _atom_site_type_symbol
 _atom_site_label
 _atom_site_symmetry_multiplicity
 _atom_site_fract_x
 _atom_site_fract_y
 _atom_site_fract_z
 _atom_site_occupancy
  Li  Li0  1  0.73809700  0.72648800  0.77246400  1
  Li  Li1  1  0.58495100  0.93386000  0.22794900  1
  Li  Li2  1  0.27351200  0.26190300  0.22753600  1
  Li  Li3  1  0.06614000  0.41504900  0.77205100  1
  Li  Li4  1  0.91349300  0.57640500  0.22768400  1
  Li  Li5  1  0.42359500  0.08650700  0.77231600  1
  Li  Li6  1  0.66712300  0.33287700  0.00000000  1
  Mn  Mn0  1  0.99972800  0.00027200  0.00000000  1
  Mn  Mn1  1  0.83224000  0.16776000  0.50000000  1
  Co  Co0  1  0.50042700  0.49957300  0.50000000  1
  Co  Co1  1  0.33324100  0.66675900  0.00000000  1
  Co  Co2  1  0.16726900  0.83273100  0.50000000  1
  O  O0  1  0.63147300  0.65324000  0.11217300  1
  O  O1  1  0.47618900  0.81224400  0.60987700  1
  O  O2  1  0.11881500  0.13227500  0.60773000  1
  O  O3  1  0.98474100  0.29371600  0.11157800  1
  O  O4  1  0.79430500  0.44480200  0.61376500  1
  O  O5  1  0.27215200  0.94121500  0.11198500  1
  O  O6  1  0.86772500  0.88118500  0.39227000  1
  O  O7  1  0.70628400  0.01525900  0.88842200  1
  O  O8  1  0.34676000  0.36852700  0.88782700  1
  O  O9  1  0.18775600  0.52381100  0.39012300  1
  O  O10  1  0.05878500  0.72784800  0.88801500  1
  O  O11  1  0.55519800  0.20569500  0.38623500  1
loop_
_geom_bond_atom_site_label_1
_geom_bond_atom_site_label_2
_geom_bond_distance
_geom_bond_site_symmetry_2
Li0 O7 1.977156 1_565
Li0 O8 2.027850 1_555
Li0 O10 2.045807 1_655
Li0 O4 2.281656 1_555
Li0 O1 2.295126 1_555
Li0 O2 2.329365 1_665
Li1 O0 1.972860 1_555
Li1 O5 2.030673 1_555
Li1 O3 2.055660 1_565
Li1 O11 2.196119 1_565
Li1 O6 2.319317 1_555
Li1 O9 2.352477 1_555
Li2 O3 1.977156 1_455
Li2 O0 2.027850 1_555
Li2 O5 2.045807 1_545
Li2 O11 2.281656 1_555
Li2 O9 2.295126 1_555
Li2 O6 2.329365 1_445
Li3 O8 1.972860 1_555
Li3 O10 2.030673 1_555
Li3 O7 2.055660 1_455
Li3 O4 2.196119 1_455
Li3 O2 2.319317 1_555
Li3 O1 2.352477 1_555
Li4 O5 1.970318 1_655
Li4 O3 2.039799 1_555
Li4 O0 2.047075 1_555
Li4 O11 2.189320 1_555
Li4 O9 2.274414 1_655
Li4 O6 2.390440 1_555
Li5 O10 1.970318 1_545
Li5 O7 2.039799 1_555
Li5 O8 2.047075 1_555
Li5 O4 2.189320 1_555
Li5 O1 2.274414 1_545
Li5 O2 2.390440 1_555
Li6 O3 2.088666 1_555
Li6 O7 2.088666 1_554
Li6 O10 2.089413 1_654
Li6 O5 2.089413 1_545
Li6 O0 2.096302 1_555
Li6 O8 2.096302 1_554
Mn0 O3 1.936963 1_555
Mn0 O7 1.936963 1_554
Mn0 O0 1.941106 1_545
Mn0 O8 1.941106 1_654
Mn0 O5 1.943710 1_645
Mn0 O10 1.943710 1_644
Mn1 O9 1.922044 1_655
Mn1 O1 1.922044 1_545
Mn1 O2 1.925791 1_655
Mn1 O6 1.925791 1_545
Mn1 O11 1.927533 1_555
Mn1 O4 1.927533 1_555
Co0 O6 1.994131 1_555
Co0 O2 1.994131 1_555
Co0 O1 2.026234 1_555
Co0 O9 2.026234 1_555
Co0 O4 2.034623 1_555
Co0 O11 2.034623 1_555
Co1 O3 1.952551 1_455
Co1 O7 1.952551 1_564
Co1 O5 1.956906 1_555
Co1 O10 1.956906 1_554
Co1 O0 1.957869 1_555
Co1 O8 1.957869 1_554
Co2 O9 2.002675 1_555
Co2 O1 2.002675 1_555
Co2 O6 2.009649 1_455
Co2 O2 2.009649 1_565
Co2 O11 2.041978 1_565
Co2 O4 2.041978 1_455
