# generated using pymatgen
data_Sr5Cr3ClO12
_symmetry_space_group_name_H-M   'P 1'
_cell_length_a   10.28256654
_cell_length_b   10.28256654
_cell_length_c   7.37930100
_cell_angle_alpha   90.00000000
_cell_angle_beta   90.00000000
_cell_angle_gamma   120.00000350
_symmetry_Int_Tables_number   1
_chemical_formula_structural   Sr5Cr3ClO12
_chemical_formula_sum   'Sr10 Cr6 Cl2 O24'
_cell_volume   675.69219028
_cell_formula_units_Z   2
loop_
 _symmetry_equiv_pos_site_id
 _symmetry_equiv_pos_as_xyz
  1  'x, y, z'
loop_
 _atom_site_type_symbol
 _atom_site_label
 _atom_site_symmetry_multiplicity
 _atom_site_fract_x
 _atom_site_fract_y
 _atom_site_fract_z
 _atom_site_occupancy
  Sr  Sr0  1  0.99804900  0.74601600  0.75572900  1
  Sr  Sr1  1  0.33333300  0.66666700  0.49777300  1
  Sr  Sr2  1  0.74601600  0.74796700  0.25572900  1
  Sr  Sr3  1  0.66666700  0.33333300  0.49997300  1
  Sr  Sr4  1  0.25203300  0.99804900  0.25572900  1
  Sr  Sr5  1  0.25398400  0.25203300  0.75572900  1
  Sr  Sr6  1  0.00195100  0.25398400  0.25572900  1
  Sr  Sr7  1  0.66666700  0.33333300  0.99777300  1
  Sr  Sr8  1  0.74796700  0.00195100  0.75572900  1
  Sr  Sr9  1  0.33333300  0.66666700  0.99997300  1
  Cr  Cr0  1  0.03210200  0.40536300  0.75348500  1
  Cr  Cr1  1  0.37326200  0.96789800  0.75348500  1
  Cr  Cr2  1  0.59463700  0.62673800  0.75348500  1
  Cr  Cr3  1  0.96789800  0.59463700  0.25348500  1
  Cr  Cr4  1  0.62673800  0.03210200  0.25348500  1
  Cr  Cr5  1  0.40536300  0.37326200  0.25348500  1
  Cl  Cl0  1  0.00000000  0.00000000  0.50994100  1
  Cl  Cl1  1  0.00000000  0.00000000  0.00994100  1
  O  O0  1  0.16174300  0.68152600  0.25059500  1
  O  O1  1  0.73577300  0.09795300  0.44483100  1
  O  O2  1  0.09329800  0.34688500  0.57031000  1
  O  O3  1  0.26422700  0.90204700  0.94483100  1
  O  O4  1  0.13041900  0.59969400  0.74632000  1
  O  O5  1  0.25358700  0.90670200  0.57031000  1
  O  O6  1  0.51978200  0.83825700  0.25059500  1
  O  O7  1  0.48021800  0.16174300  0.75059500  1
  O  O8  1  0.65311500  0.74641300  0.57031000  1
  O  O9  1  0.40030600  0.53072500  0.74632000  1
  O  O10  1  0.31847400  0.48021800  0.25059500  1
  O  O11  1  0.36218000  0.26422700  0.44483100  1
  O  O12  1  0.90670200  0.65311500  0.07031000  1
  O  O13  1  0.83825700  0.31847400  0.75059500  1
  O  O14  1  0.86958100  0.40030600  0.24632000  1
  O  O15  1  0.09795300  0.36218000  0.94483100  1
  O  O16  1  0.90204700  0.63782000  0.44483100  1
  O  O17  1  0.59969400  0.46927500  0.24632000  1
  O  O18  1  0.34688500  0.25358700  0.07031000  1
  O  O19  1  0.68152600  0.51978200  0.75059500  1
  O  O20  1  0.63782000  0.73577300  0.94483100  1
  O  O21  1  0.74641300  0.09329800  0.07031000  1
  O  O22  1  0.46927500  0.86958100  0.74632000  1
  O  O23  1  0.53072500  0.13041900  0.24632000  1
loop_
_geom_bond_atom_site_label_1
_geom_bond_atom_site_label_2
_geom_bond_distance
_geom_bond_site_symmetry_2
Cr0 O15 1.717573 1_555
Cr0 O2 1.721336 1_555
Cr0 O13 1.729395 1_455
Cr0 O4 1.731358 1_555
Cr1 O3 1.717578 1_555
Cr1 O5 1.721342 1_555
Cr1 O7 1.729395 1_565
Cr1 O22 1.731350 1_555
Cr2 O20 1.717578 1_555
Cr2 O8 1.721342 1_555
Cr2 O19 1.729395 1_555
Cr2 O9 1.731359 1_555
Cr3 O16 1.717573 1_555
Cr3 O12 1.721336 1_555
Cr3 O0 1.729395 1_655
Cr3 O14 1.731358 1_555
Cr4 O1 1.717578 1_555
Cr4 O21 1.721342 1_555
Cr4 O6 1.729395 1_545
Cr4 O23 1.731350 1_555
Cr5 O11 1.717578 1_555
Cr5 O18 1.721342 1_555
Cr5 O10 1.729395 1_555
Cr5 O17 1.731359 1_555
Cl0 Sr5 3.171462 1_555
Cl0 Sr0 3.171462 1_445
Cl0 Sr8 3.171462 1_455
Cl0 Sr2 3.207418 1_445
Cl0 Sr6 3.207418 1_555
Cl0 Sr4 3.207418 1_545
Cl0 O8 3.227923 1_445
Cl0 O2 3.227924 1_555
Cl0 O5 3.227924 1_545
Cl0 O11 3.370986 1_555
Cl0 O16 3.370986 1_445
Cl0 O1 3.370987 1_455
Cl0 Cl1 3.689650 1_555
Cl0 Cl1 3.689650 1_556
Cl1 Sr2 3.171462 1_445
Cl1 Sr6 3.171462 1_555
Cl1 Sr4 3.171462 1_545
Cl1 Sr5 3.207418 1_554
Cl1 Sr0 3.207418 1_444
Cl1 Sr8 3.207418 1_454
Cl1 O18 3.227923 1_555
Cl1 O12 3.227924 1_445
Cl1 O21 3.227924 1_455
Cl1 O20 3.370986 1_444
Cl1 O15 3.370986 1_554
Cl1 O3 3.370987 1_544
O0 Sr1 2.594794 1_555
O0 Sr9 2.612722 1_554
O0 Sr4 2.904234 1_555
O1 Sr8 2.525342 1_555
O1 Sr6 2.760662 1_655
O1 Sr3 2.871977 1_555
O2 Sr6 2.507261 1_555
O2 Sr5 2.676726 1_555
O2 Sr1 3.012429 1_555
O3 Sr4 2.525342 1_556
O3 Sr0 2.760662 1_455
O3 Sr9 2.871977 1_555
O4 Sr0 2.483749 1_455
O4 Sr1 2.598981 1_555
O4 Sr9 2.625707 1_555
O5 Sr4 2.507261 1_555
O5 Sr0 2.676726 1_455
O5 Sr1 3.012422 1_555
O6 Sr1 2.594794 1_555
O6 Sr9 2.612722 1_554
O6 Sr2 2.904244 1_555
O7 Sr7 2.594794 1_555
O7 Sr3 2.612722 1_555
O7 Sr5 2.904244 1_555
O8 Sr2 2.507261 1_555
O8 Sr8 2.676726 1_565
O8 Sr1 3.012432 1_555
O9 Sr5 2.483749 1_555
O9 Sr1 2.598988 1_555
O9 Sr9 2.625714 1_555
O10 Sr1 2.594794 1_555
O10 Sr9 2.612722 1_554
O10 Sr6 2.904237 1_555
O11 Sr5 2.525342 1_555
O11 Sr4 2.760662 1_545
O11 Sr3 2.871987 1_555
O12 Sr0 2.507261 1_554
O12 Sr2 2.676726 1_555
O12 Sr7 3.012429 1_554
O13 Sr7 2.594794 1_555
O13 Sr3 2.612722 1_555
O13 Sr8 2.904234 1_555
O14 Sr6 2.483749 1_655
O14 Sr7 2.598981 1_554
O14 Sr3 2.625707 1_555
O15 Sr6 2.525342 1_556
O15 Sr5 2.760662 1_555
O15 Sr9 2.871984 1_555
O16 Sr0 2.525342 1_555
O16 Sr2 2.760662 1_555
O16 Sr3 2.871984 1_555
O17 Sr2 2.483749 1_555
O17 Sr7 2.598988 1_554
O17 Sr3 2.625714 1_555
O18 Sr5 2.507261 1_554
O18 Sr4 2.676726 1_545
O18 Sr7 3.012432 1_554
O19 Sr7 2.594794 1_555
O19 Sr3 2.612722 1_555
O19 Sr0 2.904237 1_555
O20 Sr2 2.525342 1_556
O20 Sr8 2.760662 1_565
O20 Sr9 2.871987 1_555
O21 Sr8 2.507261 1_554
O21 Sr6 2.676726 1_655
O21 Sr7 3.012422 1_554
O22 Sr8 2.483749 1_565
O22 Sr1 2.598982 1_555
O22 Sr9 2.625708 1_555
O23 Sr4 2.483749 1_545
O23 Sr7 2.598982 1_554
O23 Sr3 2.625708 1_555
