# generated using pymatgen
data_TlCrSe2
_symmetry_space_group_name_H-M   'P 1'
_cell_length_a   7.17789302
_cell_length_b   7.17789302
_cell_length_c   18.90659571
_cell_angle_alpha   79.05742303
_cell_angle_beta   79.05742303
_cell_angle_gamma   59.99999056
_symmetry_Int_Tables_number   1
_chemical_formula_structural   TlCrSe2
_chemical_formula_sum   'Tl8 Cr8 Se16'
_cell_volume   823.08778696
_cell_formula_units_Z   8
loop_
 _symmetry_equiv_pos_site_id
 _symmetry_equiv_pos_as_xyz
  1  'x, y, z'
loop_
 _atom_site_type_symbol
 _atom_site_label
 _atom_site_symmetry_multiplicity
 _atom_site_fract_x
 _atom_site_fract_y
 _atom_site_fract_z
 _atom_site_occupancy
  Tl  Tl0_0  1  0.44627700  0.44627700  0.16116950  1
  Tl  Tl0_1  1  0.44627700  0.44627700  0.66116950  1
  Tl  Tl0_2  1  0.44627700  0.94627700  0.16116950  1
  Tl  Tl0_3  1  0.44627700  0.94627700  0.66116950  1
  Tl  Tl0_4  1  0.94627700  0.44627700  0.16116950  1
  Tl  Tl0_5  1  0.94627700  0.44627700  0.66116950  1
  Tl  Tl0_6  1  0.94627700  0.94627700  0.16116950  1
  Tl  Tl0_7  1  0.94627700  0.94627700  0.66116950  1
  Cr  Cr0_0  1  0.19629350  0.19629350  0.41112000  1
  Cr  Cr0_1  1  0.19629350  0.19629350  0.91112000  1
  Cr  Cr0_2  1  0.19629350  0.69629350  0.41112000  1
  Cr  Cr0_3  1  0.19629350  0.69629350  0.91112000  1
  Cr  Cr0_4  1  0.69629350  0.19629350  0.41112000  1
  Cr  Cr0_5  1  0.69629350  0.19629350  0.91112000  1
  Cr  Cr0_6  1  0.69629350  0.69629350  0.41112000  1
  Cr  Cr0_7  1  0.69629350  0.69629350  0.91112000  1
  Se  Se0_0  1  0.00396050  0.00396050  0.48811800  1
  Se  Se0_1  1  0.00396050  0.00396050  0.98811800  1
  Se  Se0_2  1  0.00396050  0.50396050  0.48811800  1
  Se  Se0_3  1  0.00396050  0.50396050  0.98811800  1
  Se  Se0_4  1  0.50396050  0.00396050  0.48811800  1
  Se  Se0_5  1  0.50396050  0.00396050  0.98811800  1
  Se  Se0_6  1  0.50396050  0.50396050  0.48811800  1
  Se  Se0_7  1  0.50396050  0.50396050  0.98811800  1
  Se  Se1_0  1  0.38866950  0.38866950  0.33399200  1
  Se  Se1_1  1  0.38866950  0.38866950  0.83399200  1
  Se  Se1_2  1  0.38866950  0.88866950  0.33399200  1
  Se  Se1_3  1  0.38866950  0.88866950  0.83399200  1
  Se  Se1_4  1  0.88866950  0.38866950  0.33399200  1
  Se  Se1_5  1  0.88866950  0.38866950  0.83399200  1
  Se  Se1_6  1  0.88866950  0.88866950  0.33399200  1
  Se  Se1_7  1  0.88866950  0.88866950  0.83399200  1
loop_
_geom_bond_atom_site_label_1
_geom_bond_atom_site_label_2
_geom_bond_distance
_geom_bond_site_symmetry_2
Tl0_0 Tl0_6 3.588946 1_545
Tl0_0 Tl0_6 3.588946 1_455
Tl0_0 Tl0_2 3.588947 1_555
Tl0_0 Tl0_4 3.588947 1_555
Tl0_0 Tl0_2 3.588947 1_545
Tl0_0 Tl0_4 3.588947 1_455
Tl0_1 Tl0_7 3.588946 1_455
Tl0_1 Tl0_7 3.588946 1_545
Tl0_1 Tl0_5 3.588947 1_555
Tl0_1 Tl0_3 3.588947 1_555
Tl0_1 Tl0_3 3.588947 1_545
Tl0_1 Tl0_5 3.588947 1_455
Tl0_2 Tl0_4 3.588946 1_555
Tl0_2 Tl0_4 3.588946 1_465
Tl0_2 Tl0_6 3.588947 1_555
Tl0_2 Tl0_6 3.588947 1_455
Tl0_3 Tl0_5 3.588946 1_555
Tl0_3 Tl0_5 3.588946 1_465
Tl0_3 Tl0_7 3.588947 1_555
Tl0_3 Tl0_7 3.588947 1_455
Tl0_4 Tl0_6 3.588947 1_555
Tl0_4 Tl0_6 3.588947 1_545
Tl0_5 Tl0_7 3.588947 1_545
Tl0_5 Tl0_7 3.588947 1_555
Cr0_0 Se0_4 2.512160 1_555
Cr0_0 Se0_2 2.512160 1_555
Cr0_0 Se0_0 2.512166 1_555
Cr0_0 Se1_2 2.513519 1_545
Cr0_0 Se1_4 2.513519 1_455
Cr0_0 Se1_0 2.513519 1_555
Cr0_1 Se0_3 2.512160 1_555
Cr0_1 Se0_5 2.512160 1_555
Cr0_1 Se0_1 2.512166 1_555
Cr0_1 Se1_5 2.513519 1_455
Cr0_1 Se1_3 2.513519 1_545
Cr0_1 Se1_1 2.513519 1_555
Cr0_2 Se0_6 2.512160 1_555
Cr0_2 Se0_0 2.512160 1_565
Cr0_2 Se0_2 2.512166 1_555
Cr0_2 Se1_0 2.513519 1_555
Cr0_2 Se1_6 2.513519 1_455
Cr0_2 Se1_2 2.513519 1_555
Cr0_3 Se0_7 2.512160 1_555
Cr0_3 Se0_1 2.512160 1_565
Cr0_3 Se0_3 2.512166 1_555
Cr0_3 Se1_7 2.513519 1_455
Cr0_3 Se1_1 2.513519 1_555
Cr0_3 Se1_3 2.513519 1_555
Cr0_4 Se0_6 2.512160 1_555
Cr0_4 Se0_0 2.512160 1_655
Cr0_4 Se0_4 2.512166 1_555
Cr0_4 Se1_0 2.513519 1_555
Cr0_4 Se1_6 2.513519 1_545
Cr0_4 Se1_4 2.513519 1_555
Cr0_5 Se0_7 2.512160 1_555
Cr0_5 Se0_1 2.512160 1_655
Cr0_5 Se0_5 2.512166 1_555
Cr0_5 Se1_7 2.513519 1_545
Cr0_5 Se1_1 2.513519 1_555
Cr0_5 Se1_5 2.513519 1_555
Cr0_6 Se0_2 2.512160 1_655
Cr0_6 Se0_4 2.512160 1_565
Cr0_6 Se0_6 2.512166 1_555
Cr0_6 Se1_4 2.513519 1_555
Cr0_6 Se1_2 2.513519 1_555
Cr0_6 Se1_6 2.513519 1_555
Cr0_7 Se0_3 2.512160 1_655
Cr0_7 Se0_5 2.512160 1_565
Cr0_7 Se0_7 2.512166 1_555
Cr0_7 Se1_5 2.513519 1_555
Cr0_7 Se1_3 2.513519 1_555
Cr0_7 Se1_7 2.513519 1_555
Se0_0 Tl0_7 3.192251 1_445
Se0_1 Tl0_6 3.192251 1_446
Se0_2 Tl0_5 3.192251 1_455
Se0_3 Tl0_4 3.192251 1_456
Se0_4 Tl0_3 3.192251 1_545
Se0_5 Tl0_2 3.192251 1_546
Se0_6 Tl0_1 3.192251 1_555
Se0_7 Tl0_0 3.192251 1_556
Se1_0 Tl0_0 3.188026 1_555
Se1_1 Tl0_1 3.188026 1_555
Se1_2 Tl0_2 3.188026 1_555
Se1_3 Tl0_3 3.188026 1_555
Se1_4 Tl0_4 3.188026 1_555
Se1_5 Tl0_5 3.188026 1_555
Se1_6 Tl0_6 3.188026 1_555
Se1_7 Tl0_7 3.188026 1_555
