# generated using pymatgen
data_CaAl2(Si2O7)3
_symmetry_space_group_name_H-M   'P 1'
_cell_length_a   17.12818800
_cell_length_b   7.39903100
_cell_length_c   7.64623321
_cell_angle_alpha   72.27734293
_cell_angle_beta   90.00000000
_cell_angle_gamma   90.00000000
_symmetry_Int_Tables_number   1
_chemical_formula_structural   CaAl2(Si2O7)3
_chemical_formula_sum   'Ca2 Al4 Si12 O42'
_cell_volume   923.03372186
_cell_formula_units_Z   2
loop_
 _symmetry_equiv_pos_site_id
 _symmetry_equiv_pos_as_xyz
  1  'x, y, z'
loop_
 _atom_site_type_symbol
 _atom_site_label
 _atom_site_symmetry_multiplicity
 _atom_site_fract_x
 _atom_site_fract_y
 _atom_site_fract_z
 _atom_site_occupancy
  Ca  Ca0  1  0.76498300  0.17984700  0.30279100  1
  Ca  Ca1  1  0.26498300  0.82015300  0.69720900  1
  Al  Al0  1  0.63607300  0.59481300  0.25022400  1
  Al  Al1  1  0.13607300  0.40518700  0.74977600  1
  Al  Al2  1  0.90035600  0.25812400  0.93071400  1
  Al  Al3  1  0.40035600  0.74187600  0.06928600  1
  Si  Si0  1  0.97618100  0.63991500  0.65463000  1
  Si  Si1  1  0.47618100  0.36008500  0.34537000  1
  Si  Si2  1  0.62882400  0.62393600  0.66577500  1
  Si  Si3  1  0.12882400  0.37606400  0.33422500  1
  Si  Si4  1  0.76051600  0.53043500  0.97015200  1
  Si  Si5  1  0.26051600  0.46956500  0.02984800  1
  Si  Si6  1  0.56109200  0.87534100  0.87223500  1
  Si  Si7  1  0.06109200  0.12465900  0.12776500  1
  Si  Si8  1  0.89312700  0.83147000  0.90430600  1
  Si  Si9  1  0.39312700  0.16853000  0.09569400  1
  Si  Si10  1  0.50391200  0.28706100  0.75416600  1
  Si  Si11  1  0.00391200  0.71293900  0.24583400  1
  O  O0  1  0.57058600  0.39827300  0.31008000  1
  O  O1  1  0.07058600  0.60172700  0.68992000  1
  O  O2  1  0.65480300  0.65626300  0.45314200  1
  O  O3  1  0.15480300  0.34373700  0.54685800  1
  O  O4  1  0.71869900  0.49581200  0.17138400  1
  O  O5  1  0.21869900  0.50418800  0.82861600  1
  O  O6  1  0.60368800  0.78161900  0.06661100  1
  O  O7  1  0.10368800  0.21838100  0.93338900  1
  O  O8  1  0.94543900  0.80769200  0.73452900  1
  O  O9  1  0.44543900  0.19230800  0.26547100  1
  O  O10  1  0.93166900  0.44190800  0.74358500  1
  O  O11  1  0.43166900  0.55809200  0.25641500  1
  O  O12  1  0.95937700  0.71696800  0.43296600  1
  O  O13  1  0.45937700  0.28303200  0.56703400  1
  O  O14  1  0.69952600  0.52732500  0.80737600  1
  O  O15  1  0.19952600  0.47267500  0.19262400  1
  O  O16  1  0.60509700  0.82418900  0.70152500  1
  O  O17  1  0.10509700  0.17581100  0.29847500  1
  O  O18  1  0.55422100  0.48108000  0.71589300  1
  O  O19  1  0.05422100  0.51892000  0.28410700  1
  O  O20  1  0.80839600  0.72811000  0.90322200  1
  O  O21  1  0.30839600  0.27189000  0.09677800  1
  O  O22  1  0.81453200  0.33747000  0.01710700  1
  O  O23  1  0.31453200  0.66253000  0.98289300  1
  O  O24  1  0.97022500  0.20274600  0.11142800  1
  O  O25  1  0.47022500  0.79725400  0.88857200  1
  O  O26  1  0.56295400  0.10630100  0.82428600  1
  O  O27  1  0.06295400  0.89369900  0.17571400  1
  O  O28  1  0.87832300  0.05057100  0.88142100  1
  O  O29  1  0.37832300  0.94942900  0.11857900  1
  O  O30  1  0.93695500  0.71510200  0.09601500  1
  O  O31  1  0.43695500  0.28489800  0.90398500  1
  O  O32  1  0.74645400  0.23294800  0.63257300  1
  O  O33  1  0.24645400  0.76705200  0.36742700  1
  O  O34  1  0.77309400  0.85012400  0.32170000  1
  O  O35  1  0.27309400  0.14987600  0.67830000  1
  O  O36  1  0.79399200  0.36151700  0.56494100  1
  O  O37  1  0.29399200  0.63848300  0.43505900  1
  O  O38  1  0.62524800  0.12099300  0.33308100  1
  O  O39  1  0.12524800  0.87900700  0.66691900  1
  O  O40  1  0.90376100  0.08951000  0.36759900  1
  O  O41  1  0.40376100  0.91049000  0.63240100  1
loop_
_geom_bond_atom_site_label_1
_geom_bond_atom_site_label_2
_geom_bond_distance
_geom_bond_site_symmetry_2
Ca0 O22 2.302398 1_555
Ca0 O4 2.381889 1_555
Ca0 O34 2.403592 1_545
Ca0 O38 2.431104 1_555
Ca0 O40 2.478079 1_555
Ca0 O32 2.686387 1_555
Ca0 O36 2.777039 1_555
Ca1 O23 2.302398 1_555
Ca1 O5 2.381889 1_555
Ca1 O35 2.403592 1_565
Ca1 O39 2.431104 1_555
Ca1 O41 2.478079 1_555
Ca1 O33 2.686387 1_555
Ca1 O37 2.777039 1_555
Al0 O6 1.734291 1_555
Al0 O2 1.773829 1_555
Al0 O4 1.780928 1_555
Al0 O0 1.782451 1_555
Al1 O7 1.734291 1_555
Al1 O3 1.773829 1_555
Al1 O5 1.780928 1_555
Al1 O1 1.782451 1_555
Al2 O28 1.730669 1_555
Al2 O10 1.731903 1_555
Al2 O24 1.778952 1_556
Al2 O22 1.782715 1_556
Al3 O29 1.730669 1_555
Al3 O11 1.731903 1_555
Al3 O25 1.778952 1_554
Al3 O23 1.782715 1_554
O0 Si1 1.649508 1_555
O0 O38 2.212898 1_555
O1 Si0 1.649508 1_455
O1 O39 2.212898 1_555
O2 Si2 1.631507 1_555
O2 O34 2.508984 1_555
O3 Si3 1.631507 1_555
O3 O35 2.508984 1_555
O4 Si4 1.645040 1_554
O5 Si5 1.645040 1_556
O6 Si6 1.610785 1_554
O7 Si7 1.610785 1_556
O8 Si0 1.628883 1_555
O8 Si8 1.630350 1_555
O9 Si1 1.628883 1_555
O9 Si9 1.630350 1_555
O10 Si0 1.607364 1_555
O11 Si1 1.607364 1_555
O12 Si11 1.629746 1_655
O12 Si0 1.640807 1_555
O12 O40 2.813628 1_565
O12 O34 3.371152 1_555
O13 Si10 1.629746 1_555
O13 Si1 1.640807 1_555
O13 O41 2.813628 1_545
O13 O35 3.371152 1_555
O14 Si4 1.630443 1_555
O14 Si2 1.636632 1_555
O15 Si5 1.630443 1_555
O15 Si3 1.636632 1_555
O16 Si2 1.637632 1_555
O16 Si6 1.647997 1_555
O16 O38 3.018586 1_565
O17 Si3 1.637632 1_555
O17 Si7 1.647997 1_555
O17 O39 3.018586 1_545
O18 Si10 1.622718 1_555
O18 Si2 1.627973 1_555
O19 Si11 1.622718 1_555
O19 Si3 1.627973 1_555
O20 Si4 1.618013 1_555
O20 Si8 1.641655 1_555
O21 Si5 1.618013 1_555
O21 Si9 1.641655 1_555
O22 Si4 1.646599 1_554
O23 Si5 1.646599 1_556
O24 Si7 1.651612 1_655
O24 O40 2.198972 1_555
O25 Si6 1.651612 1_555
O25 O41 2.198972 1_555
O26 Si10 1.631671 1_555
O26 Si6 1.635318 1_545
O27 Si11 1.631671 1_555
O27 Si7 1.635318 1_565
O28 Si8 1.596962 1_545
O29 Si9 1.596962 1_565
O30 Si11 1.617607 1_655
O30 Si8 1.638659 1_554
O31 Si10 1.617607 1_555
O31 Si9 1.638659 1_556
O32 O36 1.239295 1_555
O33 O37 1.239295 1_555
O34 O40 2.940731 1_565
O34 O4 3.300923 1_555
O35 O41 2.940731 1_545
O35 O5 3.300923 1_555
O40 O8 3.027773 1_545
O41 O9 3.027773 1_565
