# generated using pymatgen
data_Mg2CuRh
_symmetry_space_group_name_H-M   'P 1'
_cell_length_a   10.65441471
_cell_length_b   10.65441471
_cell_length_c   10.65441471
_cell_angle_alpha   124.26562575
_cell_angle_beta   119.17778489
_cell_angle_gamma   87.10237726
_symmetry_Int_Tables_number   1
_chemical_formula_structural   Mg2CuRh
_chemical_formula_sum   'Mg2 Cu1 Rh1'
_cell_volume   829.61400221
_cell_formula_units_Z   1
loop_
 _symmetry_equiv_pos_site_id
 _symmetry_equiv_pos_as_xyz
  1  'x, y, z'
loop_
 _atom_site_type_symbol
 _atom_site_label
 _atom_site_symmetry_multiplicity
 _atom_site_fract_x
 _atom_site_fract_y
 _atom_site_fract_z
 _atom_site_occupancy
  Mg  Mg0  1  0.00000000  0.25313800  0.25313800  1
  Mg  Mg1  1  0.00000000  0.74686200  0.74686200  1
  Cu  Cu0  1  0.00000000  0.00000000  0.00000000  1
  Rh  Rh0  1  0.00000000  0.50000000  0.50000000  1
loop_
_geom_bond_atom_site_label_1
_geom_bond_atom_site_label_2
_geom_bond_distance
_geom_bond_site_symmetry_2
Mg0 Rh0 2.458807 1_555
Mg1 Rh0 2.458807 1_555
Cu0 Mg0 2.521318 1_555
Cu0 Mg1 2.521318 1_544
