# generated using pymatgen
data_AlB2Pb6(OF)7
_symmetry_space_group_name_H-M   'P 1'
_cell_length_a   11.06595436
_cell_length_b   11.06595436
_cell_length_c   6.37499600
_cell_angle_alpha   90.00000000
_cell_angle_beta   90.00000000
_cell_angle_gamma   114.92163508
_symmetry_Int_Tables_number   1
_chemical_formula_structural   AlB2Pb6(OF)7
_chemical_formula_sum   'Al2 B4 Pb12 O14 F14'
_cell_volume   707.96187063
_cell_formula_units_Z   2
loop_
 _symmetry_equiv_pos_site_id
 _symmetry_equiv_pos_as_xyz
  1  'x, y, z'
loop_
 _atom_site_type_symbol
 _atom_site_label
 _atom_site_symmetry_multiplicity
 _atom_site_fract_x
 _atom_site_fract_y
 _atom_site_fract_z
 _atom_site_occupancy
  Al  Al0  1  0.25456200  0.74543800  0.52095900  1
  Al  Al1  1  0.74543800  0.25456200  0.02095900  1
  B  B0  1  0.75662300  0.75105100  0.24500100  1
  B  B1  1  0.24337700  0.24894900  0.74500100  1
  B  B2  1  0.75105100  0.75662300  0.74500100  1
  B  B3  1  0.24894900  0.24337700  0.24500100  1
  Pb  Pb0  1  0.94710900  0.05289100  0.99503700  1
  Pb  Pb1  1  0.56456300  0.43543700  0.02028900  1
  Pb  Pb2  1  0.05289100  0.94710900  0.49503700  1
  Pb  Pb3  1  0.43543700  0.56456300  0.52028900  1
  Pb  Pb4  1  0.97135600  0.68466900  0.99360400  1
  Pb  Pb5  1  0.19543900  0.49569800  0.96872900  1
  Pb  Pb6  1  0.68466900  0.97135600  0.49360400  1
  Pb  Pb7  1  0.49569800  0.19543900  0.46872900  1
  Pb  Pb8  1  0.50430200  0.80456100  0.96872900  1
  Pb  Pb9  1  0.31533100  0.02864400  0.99360400  1
  Pb  Pb10  1  0.80456100  0.50430200  0.46872900  1
  Pb  Pb11  1  0.02864400  0.31533100  0.49360400  1
  O  O0  1  0.81773700  0.67517500  0.75123000  1
  O  O1  1  0.18226300  0.32482500  0.25123000  1
  O  O2  1  0.67517500  0.81773700  0.25123000  1
  O  O3  1  0.32482500  0.18226300  0.75123000  1
  O  O4  1  0.89316000  0.82101000  0.20914100  1
  O  O5  1  0.29727600  0.38660700  0.76848200  1
  O  O6  1  0.82101000  0.89316000  0.70914100  1
  O  O7  1  0.38660700  0.29727600  0.26848200  1
  O  O8  1  0.61339300  0.70272400  0.76848200  1
  O  O9  1  0.17899000  0.10684000  0.20914100  1
  O  O10  1  0.70272400  0.61339300  0.26848200  1
  O  O11  1  0.10684000  0.17899000  0.70914100  1
  O  O12  1  0.32865800  0.67134200  0.72657100  1
  O  O13  1  0.67134200  0.32865800  0.22657100  1
  F  F0  1  0.09153500  0.68712500  0.65749600  1
  F  F1  1  0.19082700  0.58719700  0.36981900  1
  F  F2  1  0.68712500  0.09153500  0.15749500  1
  F  F3  1  0.58719700  0.19082700  0.86981900  1
  F  F4  1  0.41280300  0.80917300  0.36981900  1
  F  F5  1  0.31287500  0.90846500  0.65749600  1
  F  F6  1  0.80917300  0.41280300  0.86981900  1
  F  F7  1  0.90846500  0.31287500  0.15749600  1
  F  F8  1  0.08899400  0.91100600  0.89738700  1
  F  F9  1  0.41035800  0.58964200  0.10208300  1
  F  F10  1  0.91100600  0.08899400  0.39738700  1
  F  F11  1  0.58964200  0.41035800  0.60208300  1
  F  F12  1  0.18233500  0.81766500  0.31067200  1
  F  F13  1  0.81766500  0.18233500  0.81067200  1
loop_
_geom_bond_atom_site_label_1
_geom_bond_atom_site_label_2
_geom_bond_distance
_geom_bond_site_symmetry_2
Al0 F5 1.856757 1_555
Al0 F0 1.856757 1_555
Al0 F1 1.857763 1_555
Al0 F4 1.857763 1_555
Al0 F12 1.900830 1_555
Al0 O12 1.905082 1_555
Al1 F2 1.856754 1_555
Al1 F7 1.856757 1_555
Al1 F3 1.857763 1_554
Al1 F6 1.857763 1_554
Al1 F13 1.900830 1_554
Al1 O13 1.905082 1_555
B0 O2 1.385282 1_555
B0 O10 1.390303 1_555
B0 O4 1.395951 1_555
B1 O3 1.385282 1_555
B1 O5 1.390303 1_555
B1 O11 1.395951 1_555
B2 O0 1.385282 1_555
B2 O8 1.390303 1_555
B2 O6 1.395951 1_555
B3 O1 1.385282 1_555
B3 O7 1.390303 1_555
B3 O9 1.395951 1_555
O0 Pb4 2.266663 1_555
O0 Pb10 2.570546 1_555
O1 Pb11 2.266663 1_555
O1 Pb5 2.570546 1_554
O2 Pb6 2.266663 1_555
O2 Pb8 2.570546 1_554
O3 Pb9 2.266663 1_555
O3 Pb7 2.570546 1_555
O4 Pb4 2.452209 1_554
O4 Pb2 2.512898 1_655
O4 Pb0 2.740923 1_564
O5 Pb5 2.345937 1_555
O5 Pb3 2.486273 1_555
O5 Pb1 3.204752 1_556
O6 Pb6 2.452209 1_555
O6 Pb0 2.512898 1_565
O6 Pb2 2.740923 1_655
O7 Pb7 2.345937 1_555
O7 Pb1 2.486273 1_555
O7 Pb3 3.204752 1_555
O8 Pb8 2.345937 1_555
O8 Pb3 2.486273 1_555
O8 Pb1 3.204752 1_556
O9 Pb9 2.452209 1_554
O9 Pb2 2.512898 1_545
O9 Pb0 2.740923 1_454
O10 Pb10 2.345937 1_555
O10 Pb1 2.486273 1_555
O10 Pb3 3.204752 1_555
O11 Pb11 2.452209 1_555
O11 Pb0 2.512898 1_455
O11 Pb2 2.740923 1_545
O12 Pb3 2.387137 1_555
O12 Pb8 2.433001 1_555
O12 Pb5 2.433001 1_555
O13 Pb1 2.387137 1_555
O13 Pb10 2.433001 1_555
O13 Pb7 2.433001 1_555
F0 Pb4 2.515951 1_455
F0 F12 2.600311 1_555
F0 F1 2.611007 1_555
F0 F8 2.921654 1_555
F0 Pb10 3.195525 1_455
F0 Pb2 3.251044 1_555
F1 F12 2.618637 1_555
F1 Pb5 2.758503 1_554
F1 Pb11 2.888636 1_555
F1 F9 2.959756 1_555
F1 Pb3 2.980143 1_555
F2 Pb6 2.515956 1_545
F2 F3 2.611002 1_554
F2 Pb8 3.195523 1_544
F2 Pb0 3.251042 1_554
F3 Pb7 2.758503 1_555
F3 Pb9 2.888636 1_555
F3 Pb1 2.980143 1_556
F4 F5 2.611007 1_555
F4 Pb8 2.758503 1_554
F4 Pb6 2.888636 1_555
F4 F9 2.959756 1_555
F4 Pb3 2.980143 1_555
F5 Pb9 2.515951 1_565
F5 F8 2.921654 1_555
F5 Pb7 3.195525 1_565
F5 Pb2 3.251044 1_555
F6 F7 2.611007 1_556
F6 Pb10 2.758503 1_555
F6 Pb4 2.888636 1_555
F6 Pb1 2.980143 1_556
F7 Pb11 2.515951 1_655
F7 Pb5 3.195525 1_654
F7 Pb0 3.251044 1_554
F8 Pb4 2.365644 1_455
F8 Pb9 2.365644 1_565
F8 Pb2 2.651953 1_555
F8 Pb0 2.719461 1_465
F8 O4 2.796271 1_456
F8 O9 2.796271 1_566
F8 O6 3.127267 1_455
F8 O11 3.127267 1_565
F9 Pb8 2.318629 1_554
F9 Pb5 2.318629 1_554
F9 Pb3 2.706812 1_555
F9 O12 2.838010 1_554
F9 Pb1 2.923984 1_555
F9 O8 2.960971 1_554
F9 O5 2.960971 1_554
F9 O2 3.103060 1_555
F9 O1 3.103060 1_555
F10 Pb6 2.365644 1_545
F10 Pb11 2.365644 1_655
F10 Pb0 2.651953 1_554
F10 Pb2 2.719461 1_645
F10 O6 2.796271 1_545
F10 O11 2.796271 1_655
F10 F7 2.921654 1_555
F10 F2 2.921658 1_555
F10 O4 3.127267 1_545
F10 O9 3.127267 1_655
F10 F13 3.158247 1_555
F11 Pb7 2.318629 1_555
F11 Pb10 2.318629 1_555
F11 Pb1 2.706812 1_556
F11 O13 2.838010 1_555
F11 Pb3 2.923984 1_555
F11 F6 2.959756 1_555
F11 F3 2.959756 1_555
F11 O10 2.960971 1_555
F11 O7 2.960971 1_555
F11 O0 3.103060 1_555
F11 O3 3.103060 1_555
F12 F5 2.600311 1_555
F12 F4 2.618637 1_555
F12 Pb2 2.685935 1_555
F12 Pb9 2.967606 1_564
F12 Pb4 2.967606 1_454
F12 F8 3.158247 1_554
F13 F2 2.600306 1_556
F13 F7 2.600311 1_556
F13 F3 2.618637 1_555
F13 F6 2.618637 1_555
F13 Pb0 2.685935 1_555
F13 Pb11 2.967606 1_655
F13 Pb6 2.967606 1_545
