# generated using pymatgen
data_TmAg(PSe3)2
_symmetry_space_group_name_H-M   'P 1'
_cell_length_a   6.60469657
_cell_length_b   6.60469657
_cell_length_c   14.16859386
_cell_angle_alpha   90.00000000
_cell_angle_beta   90.00000000
_cell_angle_gamma   119.99999733
_symmetry_Int_Tables_number   1
_chemical_formula_structural   TmAg(PSe3)2
_chemical_formula_sum   'Tm2 Ag2 P4 Se12'
_cell_volume   535.25796159
_cell_formula_units_Z   2
loop_
 _symmetry_equiv_pos_site_id
 _symmetry_equiv_pos_as_xyz
  1  'x, y, z'
loop_
 _atom_site_type_symbol
 _atom_site_label
 _atom_site_symmetry_multiplicity
 _atom_site_fract_x
 _atom_site_fract_y
 _atom_site_fract_z
 _atom_site_occupancy
  Tm  Tm0  1  0.00000000  0.00000000  0.75000000  1
  Tm  Tm1  1  0.00000000  0.00000000  0.25000000  1
  Ag  Ag0  1  0.33333300  0.66666700  0.75000000  1
  Ag  Ag1  1  0.66666700  0.33333300  0.25000000  1
  P  P0  1  0.66666700  0.33333300  0.67063510  1
  P  P1  1  0.66666700  0.33333300  0.82936490  1
  P  P2  1  0.33333300  0.66666700  0.32936490  1
  P  P3  1  0.33333300  0.66666700  0.17063510  1
  Se  Se0  1  0.02233485  0.34453801  0.12467719  1
  Se  Se1  1  0.65546199  0.67779584  0.12467719  1
  Se  Se2  1  0.32220416  0.97766515  0.12467719  1
  Se  Se3  1  0.65546199  0.97766515  0.37532281  1
  Se  Se4  1  0.32220416  0.34453801  0.37532281  1
  Se  Se5  1  0.02233485  0.67779584  0.37532281  1
  Se  Se6  1  0.97766515  0.65546199  0.87532281  1
  Se  Se7  1  0.34453801  0.32220416  0.87532281  1
  Se  Se8  1  0.67779584  0.02233485  0.87532281  1
  Se  Se9  1  0.34453801  0.02233485  0.62467719  1
  Se  Se10  1  0.67779584  0.65546199  0.62467719  1
  Se  Se11  1  0.97766515  0.32220416  0.62467719  1
loop_
_geom_bond_atom_site_label_1
_geom_bond_atom_site_label_2
_geom_bond_distance
_geom_bond_site_symmetry_2
Ag0 Se7 2.915943 1_555
Ag0 Se10 2.915943 1_555
Ag0 Se9 2.915943 1_565
Ag0 Se6 2.915943 1_455
Ag0 Se11 2.915943 1_455
Ag0 Se8 2.915943 1_565
Ag1 Se4 2.915943 1_555
Ag1 Se1 2.915943 1_555
Ag1 Se0 2.915943 1_655
Ag1 Se3 2.915943 1_545
Ag1 Se5 2.915943 1_655
Ag1 Se2 2.915943 1_545
P0 Se11 2.190777 1_555
P0 Se9 2.190784 1_555
P0 Se10 2.190790 1_555
P0 P1 2.248978 1_555
P1 Se8 2.190777 1_555
P1 Se6 2.190784 1_555
P1 Se7 2.190790 1_555
P2 Se5 2.190777 1_555
P2 Se3 2.190784 1_555
P2 Se4 2.190790 1_555
P2 P3 2.248978 1_555
P3 Se2 2.190777 1_555
P3 Se0 2.190784 1_555
P3 Se1 2.190790 1_555
Se0 Tm1 2.831470 1_555
Se1 Tm1 2.831472 1_665
Se2 Tm1 2.831475 1_565
Se3 Tm1 2.831470 1_665
Se4 Tm1 2.831472 1_555
Se5 Tm1 2.831475 1_565
Se6 Tm0 2.831470 1_665
Se7 Tm0 2.831472 1_555
Se8 Tm0 2.831475 1_655
Se9 Tm0 2.831470 1_555
Se10 Tm0 2.831472 1_665
Se11 Tm0 2.831475 1_655
