# generated using pymatgen
data_K8CaTe6
_symmetry_space_group_name_H-M   'P 1'
_cell_length_a   10.09773178
_cell_length_b   10.09773178
_cell_length_c   10.09773178
_cell_angle_alpha   95.61040634
_cell_angle_beta   95.61040634
_cell_angle_gamma   143.55936056
_symmetry_Int_Tables_number   1
_chemical_formula_structural   K8CaTe6
_chemical_formula_sum   'K8 Ca1 Te6'
_cell_volume   580.91223422
_cell_formula_units_Z   1
loop_
 _symmetry_equiv_pos_site_id
 _symmetry_equiv_pos_as_xyz
  1  'x, y, z'
loop_
 _atom_site_type_symbol
 _atom_site_label
 _atom_site_symmetry_multiplicity
 _atom_site_fract_x
 _atom_site_fract_y
 _atom_site_fract_z
 _atom_site_occupancy
  K  K0  1  0.66515100  0.47429700  0.63425700  1
  K  K1  1  0.84004000  0.03089500  0.36574300  1
  K  K2  1  0.15996000  0.52570300  0.19085500  1
  K  K3  1  0.33484900  0.96910500  0.80914500  1
  K  K4  1  0.96910500  0.33484900  0.80914500  1
  K  K5  1  0.52570300  0.15996000  0.19085500  1
  K  K6  1  0.03089500  0.84004000  0.36574300  1
  K  K7  1  0.47429700  0.66515100  0.63425700  1
  Ca  Ca0  1  0.50000000  0.50000000  0.00000000  1
  Te  Te0  1  0.58882600  0.88171400  0.00000000  1
  Te  Te1  1  0.88171400  0.58882600  0.00000000  1
  Te  Te2  1  0.11828600  0.11828600  0.70711200  1
  Te  Te3  1  0.41117400  0.41117400  0.29288800  1
  Te  Te4  1  0.50000000  0.00000000  0.50000000  1
  Te  Te5  1  0.00000000  0.50000000  0.50000000  1
loop_
_geom_bond_atom_site_label_1
_geom_bond_atom_site_label_2
_geom_bond_distance
_geom_bond_site_symmetry_2
K0 Te5 3.590403 1_655
K0 Te4 3.604786 1_555
K0 Te1 3.643600 1_556
K0 Te2 3.650984 1_555
K0 K7 3.661131 1_555
K0 Te3 3.751982 1_555
K0 Te2 3.781187 1_665
K0 K3 3.923019 1_655
K0 K3 3.975430 1_545
K0 K6 4.074463 1_545
K0 K6 4.074468 1_655
K1 Te5 3.590394 1_655
K1 Te4 3.604780 1_555
K1 Te0 3.643597 1_545
K1 Te3 3.650992 1_545
K1 K6 3.661150 1_645
K1 Te2 3.751987 1_655
K1 Te3 3.781189 1_655
K1 K2 3.923006 1_655
K1 K2 3.975427 1_545
K1 K7 4.074463 1_655
K1 K7 4.074468 1_545
K2 Te5 3.590394 1_555
K2 Te4 3.604780 1_565
K2 Te3 3.643597 1_555
K2 Te0 3.650992 1_555
K2 K4 3.661150 1_454
K2 Te1 3.751987 1_455
K2 Te0 3.781189 1_445
K2 K5 4.074465 1_565
K2 K5 4.074465 1_455
K3 Te5 3.590391 1_555
K3 Te4 3.604775 1_565
K3 Te2 3.643606 1_565
K3 Te1 3.650991 1_566
K3 K5 3.661150 1_566
K3 Te0 3.751978 1_556
K3 Te1 3.781194 1_456
K3 K4 4.074453 1_455
K3 K4 4.074453 1_565
K4 Te4 3.590391 1_555
K4 Te5 3.604775 1_655
K4 Te2 3.643606 1_655
K4 Te0 3.650991 1_656
K4 Te1 3.751978 1_556
K4 Te0 3.781194 1_546
K4 K7 3.923019 1_545
K4 K7 3.975430 1_655
K5 Te4 3.590394 1_555
K5 Te5 3.604780 1_655
K5 Te3 3.643597 1_555
K5 Te1 3.650992 1_555
K5 Te0 3.751987 1_545
K5 Te1 3.781189 1_445
K5 K6 3.923006 1_545
K5 K6 3.975427 1_655
K6 Te4 3.590394 1_565
K6 Te5 3.604780 1_555
K6 Te1 3.643597 1_455
K6 Te3 3.650992 1_455
K6 Te2 3.751987 1_565
K6 Te3 3.781189 1_565
K7 Te4 3.590403 1_565
K7 Te5 3.604786 1_555
K7 Te0 3.643600 1_556
K7 Te2 3.650984 1_555
K7 Te3 3.751982 1_555
K7 Te2 3.781187 1_665
Ca0 Te3 3.177859 1_555
Ca0 Te0 3.177859 1_555
Ca0 Te1 3.177859 1_555
Ca0 Te2 3.177859 1_554
Ca0 K0 4.266283 1_554
Ca0 K7 4.266283 1_554
Ca0 K1 4.266288 1_565
Ca0 K6 4.266288 1_655
Ca0 K5 4.266288 1_555
Ca0 K2 4.266288 1_555
Ca0 K4 4.266295 1_454
Ca0 K3 4.266295 1_544
Te4 Te5 3.157276 1_655
Te4 Te5 3.157276 1_545
