# generated using pymatgen
data_Li9Mn2Co5O16
_symmetry_space_group_name_H-M   'P 1'
_cell_length_a   5.02348054
_cell_length_b   9.70230937
_cell_length_c   5.78866300
_cell_angle_alpha   90.00000000
_cell_angle_beta   90.00000000
_cell_angle_gamma   99.19461848
_symmetry_Int_Tables_number   1
_chemical_formula_structural   Li9Mn2Co5O16
_chemical_formula_sum   'Li9 Mn2 Co5 O16'
_cell_volume   278.51065932
_cell_formula_units_Z   1
loop_
 _symmetry_equiv_pos_site_id
 _symmetry_equiv_pos_as_xyz
  1  'x, y, z'
loop_
 _atom_site_type_symbol
 _atom_site_label
 _atom_site_symmetry_multiplicity
 _atom_site_fract_x
 _atom_site_fract_y
 _atom_site_fract_z
 _atom_site_occupancy
  Li  Li0  1  0.25339700  0.25965900  0.25287900  1
  Li  Li1  1  0.74660300  0.74034100  0.25287900  1
  Li  Li2  1  0.76262400  0.26408700  0.50399200  1
  Li  Li3  1  0.23737600  0.73591300  0.50399200  1
  Li  Li4  1  0.25196300  0.26350600  0.74700100  1
  Li  Li5  1  0.74803700  0.73649400  0.74700100  1
  Li  Li6  1  0.75086800  0.26477700  0.99618300  1
  Li  Li7  1  0.24913200  0.73522300  0.99618300  1
  Li  Li8  1  0.00000000  0.50000000  0.74819400  1
  Mn  Mn0  1  0.00000000  0.00000000  0.99549500  1
  Mn  Mn1  1  0.50000000  0.00000000  0.25236500  1
  Co  Co0  1  0.50000000  0.50000000  0.98739100  1
  Co  Co1  1  0.00000000  0.50000000  0.25702000  1
  Co  Co2  1  0.00000000  0.00000000  0.49765100  1
  Co  Co3  1  0.50000000  0.50000000  0.49706800  1
  Co  Co4  1  0.50000000  0.00000000  0.75185900  1
  O  O0  1  0.86336000  0.10700500  0.25349300  1
  O  O1  1  0.35827100  0.61037900  0.25810900  1
  O  O2  1  0.36118300  0.11051600  0.49069700  1
  O  O3  1  0.86347600  0.60933200  0.48164800  1
  O  O4  1  0.87219900  0.10879700  0.74508200  1
  O  O5  1  0.39367100  0.61629000  0.73862000  1
  O  O6  1  0.39651900  0.11965300  0.01725100  1
  O  O7  1  0.86309100  0.60991000  0.02152300  1
  O  O8  1  0.64172900  0.38962100  0.25810900  1
  O  O9  1  0.13664000  0.89299500  0.25349300  1
  O  O10  1  0.13652400  0.39066800  0.48164800  1
  O  O11  1  0.63881700  0.88948400  0.49069700  1
  O  O12  1  0.60632900  0.38371000  0.73862000  1
  O  O13  1  0.12780100  0.89120300  0.74508200  1
  O  O14  1  0.13690900  0.39009000  0.02152300  1
  O  O15  1  0.60348100  0.88034700  0.01725100  1
loop_
_geom_bond_atom_site_label_1
_geom_bond_atom_site_label_2
_geom_bond_distance
_geom_bond_site_symmetry_2
Li0 O10 1.988099 1_555
Li0 O14 1.993514 1_555
Li0 O2 2.128998 1_555
Li0 O6 2.129471 1_555
Li0 O8 2.147162 1_555
Li0 O0 2.259487 1_455
Li1 O3 1.988099 1_555
Li1 O7 1.993514 1_555
Li1 O11 2.128998 1_555
Li1 O15 2.129471 1_555
Li1 O1 2.147162 1_555
Li1 O9 2.259487 1_655
Li2 O12 2.024689 1_555
Li2 O8 2.028435 1_555
Li2 O10 2.077443 1_655
Li2 O4 2.187638 1_555
Li2 O0 2.219902 1_555
Li2 O2 2.309231 1_555
Li3 O5 2.024689 1_555
Li3 O1 2.028435 1_555
Li3 O3 2.077443 1_455
Li3 O13 2.187638 1_555
Li3 O9 2.219902 1_555
Li3 O11 2.309231 1_555
Li4 O12 1.966715 1_555
Li4 O10 2.108680 1_555
Li4 O14 2.143492 1_556
Li4 O2 2.228420 1_555
Li4 O4 2.231043 1_455
Li4 O6 2.290530 1_556
Li5 O5 1.966715 1_555
Li5 O3 2.108680 1_555
Li5 O7 2.143492 1_556
Li5 O11 2.228420 1_555
Li5 O13 2.231043 1_655
Li5 O15 2.290530 1_556
Li6 O8 2.068543 1_556
Li6 O12 2.085527 1_555
Li6 O6 2.089280 1_556
Li6 O14 2.122972 1_656
Li6 O4 2.251517 1_555
Li6 O0 2.271022 1_556
Li7 O1 2.068543 1_556
Li7 O5 2.085527 1_555
Li7 O15 2.089280 1_556
Li7 O7 2.122972 1_456
Li7 O13 2.251517 1_555
Li7 O9 2.271022 1_556
Li8 O3 2.051528 1_455
Li8 O10 2.051528 1_555
Li8 O14 2.085174 1_556
Li8 O7 2.085174 1_456
Li8 O12 2.115164 1_455
Li8 O5 2.115164 1_555
Mn0 O4 1.960667 1_455
Mn0 O13 1.960667 1_545
Mn0 O0 2.001794 1_456
Mn0 O9 2.001794 1_546
Mn0 O6 2.142957 1_556
Mn0 O15 2.142957 1_446
Mn1 O15 1.913925 1_545
Mn1 O6 1.913925 1_555
Mn1 O2 1.943798 1_555
Mn1 O11 1.943798 1_545
Mn1 O0 1.950414 1_555
Mn1 O9 1.950414 1_545
Co0 O12 1.955677 1_555
Co0 O5 1.955677 1_555
Co0 O7 1.970156 1_556
Co0 O14 1.970156 1_556
Co0 O8 2.086446 1_556
Co0 O1 2.086446 1_556
Co1 O3 1.875862 1_455
Co1 O10 1.875862 1_555
Co1 O14 1.924295 1_555
Co1 O7 1.924295 1_455
Co1 O8 1.941684 1_455
Co1 O1 1.941684 1_555
Co2 O0 1.942756 1_455
Co2 O9 1.942756 1_545
Co2 O4 1.947939 1_455
Co2 O13 1.947939 1_545
Co2 O2 1.954906 1_555
Co2 O11 1.954906 1_445
Co3 O12 1.925114 1_555
Co3 O5 1.925114 1_555
Co3 O8 1.952142 1_555
Co3 O1 1.952142 1_555
Co3 O3 1.961680 1_555
Co3 O10 1.961680 1_555
Co4 O4 1.995235 1_555
Co4 O13 1.995235 1_545
Co4 O2 2.039722 1_555
Co4 O11 2.039722 1_545
Co4 O15 2.042281 1_546
Co4 O6 2.042281 1_556
