# generated using pymatgen
data_MnFe4SiB2
_symmetry_space_group_name_H-M   'P 1'
_cell_length_a   5.53049600
_cell_length_b   5.53049600
_cell_length_c   6.45754465
_cell_angle_alpha   115.35463243
_cell_angle_beta   115.35463243
_cell_angle_gamma   90.00000000
_symmetry_Int_Tables_number   1
_chemical_formula_structural   MnFe4SiB2
_chemical_formula_sum   'Mn2 Fe8 Si2 B4'
_cell_volume   157.17560757
_cell_formula_units_Z   2
loop_
 _symmetry_equiv_pos_site_id
 _symmetry_equiv_pos_as_xyz
  1  'x, y, z'
loop_
 _atom_site_type_symbol
 _atom_site_label
 _atom_site_symmetry_multiplicity
 _atom_site_fract_x
 _atom_site_fract_y
 _atom_site_fract_z
 _atom_site_occupancy
  Mn  Mn0  1  0.50000000  0.50000000  0.00000000  1
  Mn  Mn1  1  0.00000000  0.00000000  0.00000000  1
  Fe  Fe0  1  0.03255000  0.53255000  0.72772900  1
  Fe  Fe1  1  0.69517900  0.19517900  0.72772900  1
  Fe  Fe2  1  0.19517900  0.03255000  0.72772900  1
  Fe  Fe3  1  0.53255000  0.69517900  0.72772900  1
  Fe  Fe4  1  0.96745000  0.46745000  0.27227100  1
  Fe  Fe5  1  0.30482100  0.80482100  0.27227100  1
  Fe  Fe6  1  0.80482100  0.96745000  0.27227100  1
  Fe  Fe7  1  0.46745000  0.30482100  0.27227100  1
  Si  Si0  1  0.25000000  0.25000000  0.50000000  1
  Si  Si1  1  0.75000000  0.75000000  0.50000000  1
  B  B0  1  0.38078500  0.88078500  0.00000000  1
  B  B1  1  0.61921500  0.11921500  0.00000000  1
  B  B2  1  0.11921500  0.38078500  0.00000000  1
  B  B3  1  0.88078500  0.61921500  0.00000000  1
loop_
_geom_bond_atom_site_label_1
_geom_bond_atom_site_label_2
_geom_bond_distance
_geom_bond_site_symmetry_2
Mn0 Si1 2.569372 1_555
Mn0 Si0 2.569372 1_554
Mn1 Si1 2.569372 1_444
Mn1 Si0 2.569372 1_555
Fe0 Si1 2.365849 1_455
Fe0 Si0 2.365849 1_555
Fe0 Mn1 2.487035 1_566
Fe0 Mn0 2.487035 1_556
Fe0 Fe1 2.638681 1_455
Fe0 Fe4 2.663788 1_455
Fe0 Fe7 2.993188 1_455
Fe0 Fe6 2.993188 1_445
Fe1 Si1 2.365849 1_545
Fe1 Si0 2.365849 1_555
Fe1 Mn0 2.487035 1_556
Fe1 Mn1 2.487035 1_656
Fe1 Fe5 2.663788 1_545
Fe1 Fe7 2.993188 1_555
Fe1 Fe6 2.993188 1_545
Fe2 Si0 2.365849 1_555
Fe2 Si1 2.365849 1_445
Fe2 Mn1 2.487035 1_556
Fe2 Mn0 2.487035 1_556
Fe2 Fe3 2.638681 1_545
Fe2 Fe6 2.663788 1_445
Fe2 Fe5 2.993188 1_545
Fe2 Fe4 2.993188 1_445
Fe3 Si1 2.365849 1_555
Fe3 Si0 2.365849 1_555
Fe3 Mn0 2.487035 1_556
Fe3 Mn1 2.487035 1_666
Fe3 Fe7 2.663788 1_555
Fe3 Fe5 2.993188 1_555
Fe3 Fe4 2.993188 1_455
Fe4 Si1 2.365849 1_555
Fe4 Si0 2.365849 1_655
Fe4 Mn0 2.487035 1_555
Fe4 Mn1 2.487035 1_655
Fe4 Fe5 2.638681 1_655
Fe5 Si1 2.365849 1_555
Fe5 Si0 2.365849 1_565
Fe5 Mn0 2.487035 1_555
Fe5 Mn1 2.487035 1_565
Fe6 Si1 2.365849 1_555
Fe6 Si0 2.365849 1_665
Fe6 Mn1 2.487035 1_665
Fe6 Mn0 2.487035 1_555
Fe6 Fe7 2.638681 1_565
Fe7 Si0 2.365849 1_555
Fe7 Si1 2.365849 1_555
Fe7 Mn0 2.487035 1_555
Fe7 Mn1 2.487035 1_555
B0 B1 1.864833 1_565
B0 Fe6 2.137201 1_555
B0 Fe3 2.137201 1_554
B0 Fe7 2.137201 1_565
B0 Fe2 2.137201 1_564
B0 Fe5 2.170138 1_555
B0 Fe0 2.170138 1_554
B0 Mn0 2.206726 1_555
B0 Mn1 2.206726 1_565
B1 Fe7 2.137201 1_555
B1 Fe6 2.137201 1_545
B1 Fe2 2.137201 1_554
B1 Fe3 2.137201 1_544
B1 Fe1 2.170138 1_554
B1 Fe4 2.170138 1_555
B1 Mn0 2.206726 1_555
B1 Mn1 2.206726 1_655
B2 B3 1.864833 1_455
B2 Fe4 2.137201 1_455
B2 Fe1 2.137201 1_454
B2 Fe5 2.137201 1_555
B2 Fe0 2.137201 1_554
B2 Fe2 2.170138 1_554
B2 Fe7 2.170138 1_555
B2 Mn1 2.206726 1_555
B2 Mn0 2.206726 1_555
B3 Fe4 2.137201 1_555
B3 Fe1 2.137201 1_554
B3 Fe0 2.137201 1_654
B3 Fe5 2.137201 1_655
B3 Fe6 2.170138 1_555
B3 Fe3 2.170138 1_554
B3 Mn0 2.206726 1_555
B3 Mn1 2.206726 1_665
