# generated using pymatgen
data_GeH2(C2F5)2
_symmetry_space_group_name_H-M   'P 1'
_cell_length_a   5.81441000
_cell_length_b   10.19035316
_cell_length_c   10.31564277
_cell_angle_alpha   85.38833829
_cell_angle_beta   73.63084927
_cell_angle_gamma   73.42382095
_symmetry_Int_Tables_number   1
_chemical_formula_structural   GeH2(C2F5)2
_chemical_formula_sum   'Ge2 H4 C8 F20'
_cell_volume   562.06457014
_cell_formula_units_Z   2
loop_
 _symmetry_equiv_pos_site_id
 _symmetry_equiv_pos_as_xyz
  1  'x, y, z'
loop_
 _atom_site_type_symbol
 _atom_site_label
 _atom_site_symmetry_multiplicity
 _atom_site_fract_x
 _atom_site_fract_y
 _atom_site_fract_z
 _atom_site_occupancy
  Ge  Ge0  1  0.75420900  0.50000000  0.50000000  1
  Ge  Ge1  1  0.00420900  0.00000000  0.00000000  1
  H  H0  1  0.81369400  0.53132100  0.62667400  1
  H  H1  1  0.97168800  0.46867900  0.37332600  1
  H  H2  1  0.09501400  0.96867900  0.12667400  1
  H  H3  1  0.19036800  0.03132100  0.87332600  1
  C  C0  1  0.59343700  0.34369600  0.54333200  1
  C  C1  1  0.48046400  0.65630400  0.45666800  1
  C  C2  1  0.68713200  0.15630400  0.04333200  1
  C  C3  1  0.88676800  0.84369600  0.95666800  1
  C  C4  1  0.77785700  0.19899500  0.53485700  1
  C  C5  1  0.51170900  0.80100500  0.46514300  1
  C  C6  1  0.72685200  0.30100500  0.03485700  1
  C  C7  1  0.06271400  0.69899500  0.96514300  1
  F  F0  1  0.44855900  0.34471700  0.45737000  1
  F  F1  1  0.25064600  0.65528300  0.54263000  1
  F  F2  1  0.54327600  0.15528300  0.95737000  1
  F  F3  1  0.65592900  0.84471700  0.04263000  1
  F  F4  1  0.43754800  0.36017700  0.67311700  1
  F  F5  1  0.47084200  0.63982300  0.32688300  1
  F  F6  1  0.54772500  0.13982300  0.17311700  1
  F  F7  1  0.86066500  0.86017700  0.82688300  1
  F  F8  1  0.92292800  0.17153500  0.40616400  1
  F  F9  1  0.50062800  0.82846500  0.59383600  1
  F  F10  1  0.84446300  0.32846500  0.90616400  1
  F  F11  1  0.07909300  0.67153500  0.09383600  1
  F  F12  1  0.92958900  0.19203000  0.61572700  1
  F  F13  1  0.73734600  0.80797000  0.38427300  1
  F  F14  1  0.87161800  0.30797000  0.11572700  1
  F  F15  1  0.29531600  0.69203000  0.88427300  1
  F  F16  1  0.65595500  0.10130700  0.57431900  1
  F  F17  1  0.33158100  0.89869300  0.42568100  1
  F  F18  1  0.50726300  0.39869300  0.07431900  1
  F  F19  1  0.98027400  0.60130700  0.92568100  1
loop_
_geom_bond_atom_site_label_1
_geom_bond_atom_site_label_2
_geom_bond_distance
_geom_bond_site_symmetry_2
Ge0 H1 1.521123 1_555
Ge0 H0 1.521126 1_555
Ge1 H2 1.521123 1_545
Ge1 H3 1.521126 1_554
C0 F4 1.381125 1_555
C0 F0 1.382243 1_555
C0 C4 1.548380 1_555
C0 Ge0 2.027359 1_555
C1 F5 1.381123 1_555
C1 F1 1.382239 1_555
C1 C5 1.548383 1_555
C1 Ge0 2.027362 1_555
C2 F6 1.381123 1_555
C2 F2 1.382239 1_554
C2 C6 1.548383 1_555
C2 Ge1 2.027362 1_655
C3 F7 1.381123 1_555
C3 F3 1.382239 1_556
C3 C7 1.548383 1_655
C3 Ge1 2.027362 1_666
C4 F16 1.354201 1_555
C4 F8 1.358705 1_555
C4 F12 1.359739 1_555
C5 F17 1.354201 1_555
C5 F9 1.358707 1_555
C5 F13 1.359739 1_555
C6 F18 1.354197 1_555
C6 F10 1.358705 1_554
C6 F14 1.359734 1_555
C7 F19 1.354201 1_455
C7 F11 1.358707 1_556
C7 F15 1.359739 1_555
