# generated using pymatgen
data_Gd3Co4Ge13
_symmetry_space_group_name_H-M   'P 1'
_cell_length_a   8.78053300
_cell_length_b   8.78053300
_cell_length_c   8.78053300
_cell_angle_alpha   90.00000000
_cell_angle_beta   90.00000000
_cell_angle_gamma   90.00000000
_symmetry_Int_Tables_number   1
_chemical_formula_structural   Gd3Co4Ge13
_chemical_formula_sum   'Gd6 Co8 Ge26'
_cell_volume   676.95942383
_cell_formula_units_Z   2
loop_
 _symmetry_equiv_pos_site_id
 _symmetry_equiv_pos_as_xyz
  1  'x, y, z'
loop_
 _atom_site_type_symbol
 _atom_site_label
 _atom_site_symmetry_multiplicity
 _atom_site_fract_x
 _atom_site_fract_y
 _atom_site_fract_z
 _atom_site_occupancy
  Gd  Gd0  1  0.50000000  0.00000000  0.75000000  1
  Gd  Gd1  1  0.00000000  0.25000000  0.50000000  1
  Gd  Gd2  1  0.75000000  0.50000000  0.00000000  1
  Gd  Gd3  1  0.50000000  0.00000000  0.25000000  1
  Gd  Gd4  1  0.00000000  0.75000000  0.50000000  1
  Gd  Gd5  1  0.25000000  0.50000000  0.00000000  1
  Co  Co0  1  0.75000000  0.25000000  0.75000000  1
  Co  Co1  1  0.25000000  0.75000000  0.25000000  1
  Co  Co2  1  0.75000000  0.75000000  0.25000000  1
  Co  Co3  1  0.25000000  0.25000000  0.75000000  1
  Co  Co4  1  0.25000000  0.75000000  0.75000000  1
  Co  Co5  1  0.75000000  0.25000000  0.25000000  1
  Co  Co6  1  0.25000000  0.25000000  0.25000000  1
  Co  Co7  1  0.75000000  0.75000000  0.75000000  1
  Ge  Ge0  1  0.50000000  0.50000000  0.50000000  1
  Ge  Ge1  1  0.00000000  0.00000000  0.00000000  1
  Ge  Ge2  1  0.65289700  0.19427900  0.50000000  1
  Ge  Ge3  1  0.80572100  0.50000000  0.65289700  1
  Ge  Ge4  1  0.50000000  0.34710300  0.80572100  1
  Ge  Ge5  1  0.34710300  0.80572100  0.50000000  1
  Ge  Ge6  1  0.19427900  0.50000000  0.34710300  1
  Ge  Ge7  1  0.50000000  0.65289700  0.19427900  1
  Ge  Ge8  1  0.65289700  0.80572100  0.50000000  1
  Ge  Ge9  1  0.80572100  0.50000000  0.34710300  1
  Ge  Ge10  1  0.34710300  0.19427900  0.50000000  1
  Ge  Ge11  1  0.19427900  0.50000000  0.65289700  1
  Ge  Ge12  1  0.50000000  0.65289700  0.80572100  1
  Ge  Ge13  1  0.50000000  0.34710300  0.19427900  1
  Ge  Ge14  1  0.15289700  0.00000000  0.69427900  1
  Ge  Ge15  1  0.30572100  0.15289700  0.00000000  1
  Ge  Ge16  1  0.00000000  0.30572100  0.84710300  1
  Ge  Ge17  1  0.84710300  0.00000000  0.30572100  1
  Ge  Ge18  1  0.69427900  0.84710300  0.00000000  1
  Ge  Ge19  1  0.00000000  0.69427900  0.15289700  1
  Ge  Ge20  1  0.15289700  0.00000000  0.30572100  1
  Ge  Ge21  1  0.30572100  0.84710300  0.00000000  1
  Ge  Ge22  1  0.84710300  0.00000000  0.69427900  1
  Ge  Ge23  1  0.69427900  0.15289700  0.00000000  1
  Ge  Ge24  1  0.00000000  0.30572100  0.15289700  1
  Ge  Ge25  1  0.00000000  0.69427900  0.84710300  1
loop_
_geom_bond_atom_site_label_1
_geom_bond_atom_site_label_2
_geom_bond_distance
_geom_bond_site_symmetry_2
Gd0 Ge22 3.086770 1_555
Gd0 Ge4 3.086770 1_555
Gd0 Ge12 3.086770 1_545
Gd0 Ge14 3.086770 1_555
Gd0 Ge2 3.087226 1_555
Gd0 Ge10 3.087226 1_555
Gd0 Ge23 3.087226 1_556
Gd0 Ge18 3.087226 1_546
Gd0 Ge8 3.087226 1_545
Gd0 Ge15 3.087226 1_556
Gd0 Ge5 3.087226 1_545
Gd0 Ge21 3.087226 1_546
Gd1 Ge16 3.086770 1_555
Gd1 Ge24 3.086770 1_555
Gd1 Ge10 3.086770 1_555
Gd1 Ge2 3.086770 1_455
Gd1 Ge11 3.087226 1_555
Gd1 Ge6 3.087226 1_555
Gd1 Ge14 3.087226 1_555
Gd1 Ge22 3.087226 1_455
Gd1 Ge3 3.087226 1_455
Gd1 Ge20 3.087226 1_555
Gd1 Ge9 3.087226 1_455
Gd1 Ge17 3.087226 1_455
Gd2 Ge18 3.086770 1_555
Gd2 Ge9 3.086770 1_555
Gd2 Ge3 3.086770 1_554
Gd2 Ge23 3.086770 1_555
Gd2 Ge13 3.087226 1_555
Gd2 Ge7 3.087226 1_555
Gd2 Ge19 3.087226 1_655
Gd2 Ge25 3.087226 1_654
Gd2 Ge12 3.087226 1_554
Gd2 Ge4 3.087226 1_554
Gd2 Ge24 3.087226 1_655
Gd2 Ge16 3.087226 1_654
Gd3 Ge17 3.086770 1_555
Gd3 Ge20 3.086770 1_555
Gd3 Ge13 3.086770 1_555
Gd3 Ge7 3.086770 1_545
Gd3 Ge2 3.087226 1_555
Gd3 Ge10 3.087226 1_555
Gd3 Ge23 3.087226 1_555
Gd3 Ge18 3.087226 1_545
Gd3 Ge8 3.087226 1_545
Gd3 Ge5 3.087226 1_545
Gd3 Ge15 3.087226 1_555
Gd3 Ge21 3.087226 1_545
Gd4 Ge25 3.086770 1_555
Gd4 Ge5 3.086770 1_555
Gd4 Ge8 3.086770 1_455
Gd4 Ge19 3.086770 1_555
Gd4 Ge11 3.087226 1_555
Gd4 Ge6 3.087226 1_555
Gd4 Ge14 3.087226 1_565
Gd4 Ge22 3.087226 1_465
Gd4 Ge3 3.087226 1_455
Gd4 Ge20 3.087226 1_565
Gd4 Ge9 3.087226 1_455
Gd4 Ge17 3.087226 1_465
Gd5 Ge21 3.086770 1_555
Gd5 Ge15 3.086770 1_555
Gd5 Ge6 3.086770 1_555
Gd5 Ge11 3.086770 1_554
Gd5 Ge13 3.087226 1_555
Gd5 Ge7 3.087226 1_555
Gd5 Ge19 3.087226 1_555
Gd5 Ge25 3.087226 1_554
Gd5 Ge12 3.087226 1_554
Gd5 Ge4 3.087226 1_554
Gd5 Ge24 3.087226 1_555
Gd5 Ge16 3.087226 1_554
Co0 Ge16 2.405190 1_655
Co0 Ge22 2.405190 1_555
Co0 Ge4 2.405190 1_555
Co0 Ge3 2.405190 1_555
Co0 Ge23 2.405190 1_556
Co0 Ge2 2.405190 1_555
Co0 Gd2 3.104387 1_556
Co0 Gd0 3.104387 1_555
Co0 Gd1 3.104387 1_655
Co1 Ge21 2.405190 1_555
Co1 Ge20 2.405190 1_565
Co1 Ge5 2.405190 1_555
Co1 Ge19 2.405190 1_555
Co1 Ge6 2.405190 1_555
Co1 Ge7 2.405190 1_555
Co1 Gd5 3.104387 1_555
Co1 Gd4 3.104387 1_555
Co1 Gd3 3.104387 1_565
Co2 Ge17 2.405190 1_565
Co2 Ge18 2.405190 1_555
Co2 Ge9 2.405190 1_555
Co2 Ge8 2.405190 1_555
Co2 Ge19 2.405190 1_655
Co2 Ge7 2.405190 1_555
Co2 Gd2 3.104387 1_555
Co2 Gd4 3.104387 1_655
Co2 Gd3 3.104387 1_565
Co3 Ge16 2.405190 1_555
Co3 Ge4 2.405190 1_555
Co3 Ge15 2.405190 1_556
Co3 Ge14 2.405190 1_555
Co3 Ge10 2.405190 1_555
Co3 Ge11 2.405190 1_555
Co3 Gd1 3.104387 1_555
Co3 Gd5 3.104387 1_556
Co3 Gd0 3.104387 1_555
Co4 Ge21 2.405190 1_556
Co4 Ge25 2.405190 1_555
Co4 Ge5 2.405190 1_555
Co4 Ge12 2.405190 1_555
Co4 Ge14 2.405190 1_565
Co4 Ge11 2.405190 1_555
Co4 Gd5 3.104387 1_556
Co4 Gd0 3.104387 1_565
Co4 Gd4 3.104387 1_555
Co5 Ge17 2.405190 1_555
Co5 Ge9 2.405190 1_555
Co5 Ge24 2.405190 1_655
Co5 Ge23 2.405190 1_555
Co5 Ge13 2.405190 1_555
Co5 Ge2 2.405190 1_555
Co5 Gd2 3.104387 1_555
Co5 Gd3 3.104387 1_555
Co5 Gd1 3.104387 1_655
Co6 Ge24 2.405190 1_555
Co6 Ge15 2.405190 1_555
Co6 Ge20 2.405190 1_555
Co6 Ge10 2.405190 1_555
Co6 Ge13 2.405190 1_555
Co6 Ge6 2.405190 1_555
Co6 Gd1 3.104387 1_555
Co6 Gd5 3.104387 1_555
Co6 Gd3 3.104387 1_555
Co7 Ge22 2.405190 1_565
Co7 Ge25 2.405190 1_655
Co7 Ge18 2.405190 1_556
Co7 Ge3 2.405190 1_555
Co7 Ge12 2.405190 1_555
Co7 Ge8 2.405190 1_555
Co7 Gd2 3.104387 1_556
Co7 Gd4 3.104387 1_655
Co7 Gd0 3.104387 1_565
Ge0 Ge4 3.001386 1_555
Ge0 Ge8 3.001386 1_555
Ge0 Ge12 3.001386 1_555
Ge0 Ge5 3.001386 1_555
Ge0 Ge3 3.001386 1_555
Ge0 Ge9 3.001386 1_555
Ge0 Ge2 3.001386 1_555
Ge0 Ge7 3.001386 1_555
Ge0 Ge11 3.001386 1_555
Ge0 Ge13 3.001386 1_555
Ge0 Ge6 3.001386 1_555
Ge0 Ge10 3.001386 1_555
Ge1 Ge24 3.001386 1_555
Ge1 Ge20 3.001386 1_555
Ge1 Ge15 3.001386 1_555
Ge1 Ge21 3.001386 1_545
Ge1 Ge16 3.001386 1_554
Ge1 Ge17 3.001386 1_455
Ge1 Ge23 3.001386 1_455
Ge1 Ge14 3.001386 1_554
Ge1 Ge19 3.001386 1_545
Ge1 Ge25 3.001386 1_544
Ge1 Ge22 3.001386 1_454
Ge1 Ge18 3.001386 1_445
Ge2 Ge22 2.954289 1_555
Ge3 Ge9 2.685034 1_555
Ge5 Ge8 2.685034 1_555
Ge10 Ge2 2.685034 1_555
Ge10 Ge14 2.954289 1_555
Ge10 Ge20 2.954289 1_555
Ge11 Ge6 2.685034 1_555
Ge11 Ge25 2.954289 1_555
Ge11 Ge16 2.954289 1_555
Ge12 Ge4 2.685034 1_555
Ge12 Ge18 2.954289 1_556
Ge12 Ge21 2.954289 1_556
Ge13 Ge7 2.685034 1_555
Ge13 Ge23 2.954289 1_555
Ge13 Ge15 2.954289 1_555
Ge14 Ge22 2.685034 1_455
Ge14 Ge5 2.954289 1_545
Ge15 Ge21 2.685034 1_545
Ge15 Ge4 2.954289 1_554
Ge16 Ge24 2.685034 1_556
Ge16 Ge3 2.954289 1_455
Ge17 Ge20 2.685034 1_655
Ge17 Ge2 2.954289 1_555
Ge17 Ge8 2.954289 1_545
Ge18 Ge23 2.685034 1_565
Ge18 Ge7 2.954289 1_555
Ge19 Ge25 2.685034 1_554
Ge19 Ge6 2.954289 1_555
Ge19 Ge9 2.954289 1_455
Ge20 Ge5 2.954289 1_545
Ge21 Ge7 2.954289 1_555
Ge22 Ge8 2.954289 1_545
Ge23 Ge4 2.954289 1_554
Ge24 Ge6 2.954289 1_555
Ge24 Ge9 2.954289 1_455
Ge25 Ge3 2.954289 1_455
