# generated using pymatgen
data_MgB6H14O17
_symmetry_space_group_name_H-M   'P 1'
_cell_length_a   10.15631806
_cell_length_b   11.42341994
_cell_length_c   12.85440222
_cell_angle_alpha   110.07773555
_cell_angle_beta   90.00000000
_cell_angle_gamma   90.00000000
_symmetry_Int_Tables_number   1
_chemical_formula_structural   MgB6H14O17
_chemical_formula_sum   'Mg4 B24 H56 O68'
_cell_volume   1400.73255854
_cell_formula_units_Z   4
loop_
 _symmetry_equiv_pos_site_id
 _symmetry_equiv_pos_as_xyz
  1  'x, y, z'
loop_
 _atom_site_type_symbol
 _atom_site_label
 _atom_site_symmetry_multiplicity
 _atom_site_fract_x
 _atom_site_fract_y
 _atom_site_fract_z
 _atom_site_occupancy
  Mg  Mg0  1  0.50000000  0.50000000  0.00000000  1
  Mg  Mg1  1  -0.00000000  0.00000000  0.00000000  1
  Mg  Mg2  1  0.50000000  0.00000000  0.50000000  1
  Mg  Mg3  1  -0.00000000  0.50000000  0.50000000  1
  B  B0  1  0.37282684  0.51508065  0.22512424  1
  B  B1  1  0.87282684  0.98491935  0.77487576  1
  B  B2  1  0.62717316  0.48491935  0.77487576  1
  B  B3  1  0.12717316  0.01508065  0.22512424  1
  B  B4  1  0.38286391  0.28791527  0.08239375  1
  B  B5  1  0.88286391  0.21208473  0.91760625  1
  B  B6  1  0.61713609  0.71208473  0.91760625  1
  B  B7  1  0.11713609  0.78791527  0.08239375  1
  B  B8  1  0.59575514  0.39700817  0.18503095  1
  B  B9  1  0.09575514  0.10299183  0.81496905  1
  B  B10  1  0.40424486  0.60299183  0.81496905  1
  B  B11  1  0.90424486  0.89700817  0.18503095  1
  B  B12  1  0.55082640  0.55703621  0.36877810  1
  B  B13  1  0.05082640  0.94296379  0.63122190  1
  B  B14  1  0.44917360  0.44296379  0.63122190  1
  B  B15  1  0.94917360  0.05703621  0.36877810  1
  B  B16  1  0.57455856  0.16507551  0.10666255  1
  B  B17  1  0.07455856  0.33492449  0.89333745  1
  B  B18  1  0.42544144  0.83492449  0.89333745  1
  B  B19  1  0.92544144  0.66507551  0.10666255  1
  B  B20  1  0.17497874  0.38309551  0.17433569  1
  B  B21  1  0.67497874  0.11690449  0.82566431  1
  B  B22  1  0.82502126  0.61690449  0.82566431  1
  B  B23  1  0.32502126  0.88309551  0.17433569  1
  H  H0  1  0.32174293  0.63757015  0.14128933  1
  H  H1  1  0.82174293  0.86242985  0.85871067  1
  H  H2  1  0.67825707  0.36242985  0.85871067  1
  H  H3  1  0.17825707  0.13757015  0.14128933  1
  H  H4  1  0.71975947  0.49257868  0.10969690  1
  H  H5  1  0.21975947  0.00742132  0.89030310  1
  H  H6  1  0.28024053  0.50742132  0.89030310  1
  H  H7  1  0.78024053  0.99257868  0.10969690  1
  H  H8  1  0.32379261  0.30328101  0.93428267  1
  H  H9  1  0.82379261  0.19671899  0.06571733  1
  H  H10  1  0.67620739  0.69671899  0.06571733  1
  H  H11  1  0.17620739  0.80328101  0.93428267  1
  H  H12  1  0.52248156  0.66381476  0.52512339  1
  H  H13  1  0.02248156  0.83618524  0.47487661  1
  H  H14  1  0.47751844  0.33618524  0.47487661  1
  H  H15  1  0.97751844  0.16381476  0.52512339  1
  H  H16  1  0.00194851  0.29949295  0.12264481  1
  H  H17  1  0.50194851  0.20050705  0.87735519  1
  H  H18  1  0.99805149  0.70050705  0.87735519  1
  H  H19  1  0.49805149  0.79949295  0.12264481  1
  H  H20  1  0.59435508  0.97644981  0.03487426  1
  H  H21  1  0.09435508  0.52355019  0.96512574  1
  H  H22  1  0.40564492  0.02355019  0.96512574  1
  H  H23  1  0.90564492  0.47644981  0.03487426  1
  H  H24  1  0.30354388  0.02699289  0.66255757  1
  H  H25  1  0.80354388  0.47300711  0.33744243  1
  H  H26  1  0.69645612  0.97300711  0.33744243  1
  H  H27  1  0.19645612  0.52699289  0.66255757  1
  H  H28  1  0.44855046  0.04960133  0.71443202  1
  H  H29  1  0.94855046  0.45039867  0.28556798  1
  H  H30  1  0.55144954  0.95039867  0.28556798  1
  H  H31  1  0.05144954  0.54960133  0.71443202  1
  H  H32  1  0.60705183  0.24391513  0.61331457  1
  H  H33  1  0.10705183  0.25608487  0.38668543  1
  H  H34  1  0.39294817  0.75608487  0.38668543  1
  H  H35  1  0.89294817  0.74391513  0.61331457  1
  H  H36  1  0.71699771  0.14552322  0.55216559  1
  H  H37  1  0.21699771  0.35447678  0.44783441  1
  H  H38  1  0.28300229  0.85447678  0.44783441  1
  H  H39  1  0.78300229  0.64552322  0.55216559  1
  H  H40  1  0.67816801  0.93687175  0.62435299  1
  H  H41  1  0.17816801  0.56312825  0.37564701  1
  H  H42  1  0.32183199  0.06312825  0.37564701  1
  H  H43  1  0.82183199  0.43687175  0.62435299  1
  H  H44  1  0.72225384  0.86102603  0.50094537  1
  H  H45  1  0.22225384  0.63897397  0.49905463  1
  H  H46  1  0.27774616  0.13897397  0.49905463  1
  H  H47  1  0.77774616  0.36102603  0.50094537  1
  H  H48  1  0.13299519  0.31969392  0.61572043  1
  H  H49  1  0.63299519  0.18030608  0.38427957  1
  H  H50  1  0.86700481  0.68030608  0.38427957  1
  H  H51  1  0.36700481  0.81969392  0.61572043  1
  H  H52  1  0.14628493  0.22040905  0.67398818  1
  H  H53  1  0.64628493  0.27959095  0.32601182  1
  H  H54  1  0.85371507  0.77959095  0.32601182  1
  H  H55  1  0.35371507  0.72040905  0.67398818  1
  O  O0  1  0.38891131  0.57617145  0.14209768  1
  O  O1  1  0.88891131  0.92382855  0.85790232  1
  O  O2  1  0.61108869  0.42382855  0.85790232  1
  O  O3  1  0.11108869  0.07617145  0.14209768  1
  O  O4  1  0.63306466  0.45010060  0.10124741  1
  O  O5  1  0.13306466  0.04989940  0.89875259  1
  O  O6  1  0.36693534  0.54989940  0.89875259  1
  O  O7  1  0.86693534  0.95010060  0.10124741  1
  O  O8  1  0.40448789  0.31965738  0.97887761  1
  O  O9  1  0.90448789  0.18034262  0.02112239  1
  O  O10  1  0.59551211  0.68034262  0.02112239  1
  O  O11  1  0.09551211  0.81965738  0.97887761  1
  O  O12  1  0.59213970  0.61301127  0.47654162  1
  O  O13  1  0.09213970  0.88698873  0.52345838  1
  O  O14  1  0.40786030  0.38698873  0.52345838  1
  O  O15  1  0.90786030  0.11301127  0.47654162  1
  O  O16  1  0.03947517  0.37593658  0.17775320  1
  O  O17  1  0.53947517  0.12406342  0.82224680  1
  O  O18  1  0.96052483  0.62406342  0.82224680  1
  O  O19  1  0.46052483  0.87593658  0.17775320  1
  O  O20  1  0.63787279  0.05246144  0.08536544  1
  O  O21  1  0.13787279  0.44753856  0.91463456  1
  O  O22  1  0.36212721  0.94753856  0.91463456  1
  O  O23  1  0.86212721  0.55246144  0.08536544  1
  O  O24  1  0.44565900  0.38997319  0.17880836  1
  O  O25  1  0.94565900  0.11002681  0.82119164  1
  O  O26  1  0.55434100  0.61002681  0.82119164  1
  O  O27  1  0.05434100  0.88997319  0.17880836  1
  O  O28  1  0.23397642  0.49100948  0.24058632  1
  O  O29  1  0.73397642  0.00899052  0.75941368  1
  O  O30  1  0.76602358  0.50899052  0.75941368  1
  O  O31  1  0.26602358  0.99100948  0.24058632  1
  O  O32  1  0.24398334  0.28279157  0.10523017  1
  O  O33  1  0.74398334  0.21720843  0.89476983  1
  O  O34  1  0.75601666  0.71720843  0.89476983  1
  O  O35  1  0.25601666  0.78279157  0.10523017  1
  O  O36  1  0.44838802  0.16922513  0.06946868  1
  O  O37  1  0.94838802  0.33077487  0.93053132  1
  O  O38  1  0.55161198  0.83077487  0.93053132  1
  O  O39  1  0.05161198  0.66922513  0.06946868  1
  O  O40  1  0.64555585  0.26955955  0.16478100  1
  O  O41  1  0.14555585  0.23044045  0.83521900  1
  O  O42  1  0.35444415  0.73044045  0.83521900  1
  O  O43  1  0.85444415  0.76955955  0.16478100  1
  O  O44  1  0.63566673  0.47200817  0.29776021  1
  O  O45  1  0.13566673  0.02799183  0.70223979  1
  O  O46  1  0.36433327  0.52799183  0.70223979  1
  O  O47  1  0.86433327  0.97200817  0.29776021  1
  O  O48  1  0.43125636  0.58588258  0.33248625  1
  O  O49  1  0.93125636  0.91411742  0.66751375  1
  O  O50  1  0.56874364  0.41411742  0.66751375  1
  O  O51  1  0.06874364  0.08588258  0.33248625  1
  O  O52  1  0.39799314  0.00789265  0.64434188  1
  O  O53  1  0.89799314  0.49210735  0.35565812  1
  O  O54  1  0.60200686  0.99210735  0.35565812  1
  O  O55  1  0.10200686  0.50789265  0.64434188  1
  O  O56  1  0.64578573  0.90029264  0.54681675  1
  O  O57  1  0.14578573  0.59970736  0.45318325  1
  O  O58  1  0.35421427  0.09970736  0.45318325  1
  O  O59  1  0.85421427  0.40029264  0.54681675  1
  O  O60  1  0.62761559  0.15390126  0.58328080  1
  O  O61  1  0.12761559  0.34609874  0.41671920  1
  O  O62  1  0.37238441  0.84609874  0.41671920  1
  O  O63  1  0.87238441  0.65390126  0.58328080  1
  O  O64  1  0.13889908  0.22927123  0.60090799  1
  O  O65  1  0.63889908  0.27072877  0.39909201  1
  O  O66  1  0.86110092  0.77072877  0.39909201  1
  O  O67  1  0.36110092  0.72927123  0.60090799  1
loop_
_geom_bond_atom_site_label_1
_geom_bond_atom_site_label_2
_geom_bond_distance
_geom_bond_site_symmetry_2
Mg0 O2 2.067665 1_554
Mg0 O0 2.067665 1_555
Mg0 O6 2.086751 1_554
Mg0 O4 2.086751 1_555
Mg0 O8 2.207896 1_554
Mg0 O10 2.207896 1_555
Mg1 O3 2.067665 1_555
Mg1 O1 2.067665 1_444
Mg1 O5 2.086751 1_554
Mg1 O7 2.086751 1_445
Mg1 O9 2.207896 1_455
Mg1 O11 2.207896 1_544
Mg2 O58 2.079043 1_555
Mg2 O56 2.079043 1_545
Mg2 O54 2.099812 1_545
Mg2 O52 2.099812 1_555
Mg2 O60 2.150475 1_555
Mg2 O62 2.150475 1_545
Mg3 O59 2.079043 1_455
Mg3 O57 2.079043 1_555
Mg3 O53 2.099812 1_455
Mg3 O55 2.099812 1_555
Mg3 O63 2.150475 1_455
Mg3 O61 2.150475 1_555
B0 O28 1.463328 1_555
B0 O48 1.464427 1_555
B0 O0 1.471093 1_555
B0 O24 1.536200 1_555
B1 O29 1.463328 1_565
B1 O49 1.464427 1_555
B1 O1 1.471093 1_555
B1 O25 1.536200 1_565
B2 O30 1.463328 1_555
B2 O50 1.464427 1_555
B2 O2 1.471093 1_555
B2 O26 1.536200 1_555
B3 O31 1.463328 1_545
B3 O51 1.464427 1_555
B3 O3 1.471093 1_555
B3 O27 1.536200 1_545
B4 O32 1.446011 1_555
B4 O36 1.467695 1_555
B4 O8 1.510492 1_554
B4 O24 1.519834 1_555
B5 O33 1.446011 1_555
B5 O37 1.467695 1_555
B5 O9 1.510492 1_556
B5 O25 1.519834 1_555
B6 O34 1.446011 1_555
B6 O38 1.467695 1_555
B6 O10 1.510492 1_556
B6 O26 1.519834 1_555
B7 O35 1.446011 1_555
B7 O39 1.467695 1_555
B7 O11 1.510492 1_554
B7 O27 1.519834 1_555
B8 O4 1.455953 1_555
B8 O44 1.464835 1_555
B8 O40 1.477507 1_555
B8 O24 1.527191 1_555
B9 O5 1.455953 1_555
B9 O45 1.464835 1_555
B9 O41 1.477507 1_555
B9 O25 1.527191 1_455
B10 O6 1.455953 1_555
B10 O46 1.464835 1_555
B10 O42 1.477507 1_555
B10 O26 1.527191 1_555
B11 O7 1.455953 1_555
B11 O47 1.464835 1_555
B11 O43 1.477507 1_555
B11 O27 1.527191 1_655
B12 O12 1.376826 1_555
B12 O48 1.380765 1_555
B12 O44 1.382203 1_555
B13 O13 1.376826 1_555
B13 O49 1.380765 1_455
B13 O45 1.382203 1_565
B14 O14 1.376826 1_555
B14 O50 1.380765 1_555
B14 O46 1.382203 1_555
B15 O15 1.376826 1_555
B15 O51 1.380765 1_655
B15 O47 1.382203 1_545
B16 O36 1.374209 1_555
B16 O40 1.374934 1_555
B16 O20 1.378973 1_555
B17 O37 1.374209 1_455
B17 O41 1.374934 1_555
B17 O21 1.378973 1_555
B18 O38 1.374209 1_555
B18 O42 1.374934 1_555
B18 O22 1.378973 1_555
B19 O39 1.374209 1_655
B19 O43 1.374934 1_555
B19 O23 1.378973 1_555
B20 O28 1.372279 1_555
B20 O32 1.376341 1_555
B20 O16 1.380239 1_555
B21 O29 1.372279 1_555
B21 O33 1.376341 1_555
B21 O17 1.380239 1_555
B22 O30 1.372279 1_555
B22 O34 1.376341 1_555
B22 O18 1.380239 1_555
B23 O31 1.372279 1_555
B23 O35 1.376341 1_555
B23 O19 1.380239 1_555
H0 O0 0.981032 1_555
H1 O1 0.981032 1_555
H2 O2 0.981032 1_555
H3 O3 0.981032 1_555
H4 O4 0.993153 1_555
H5 O5 0.993153 1_555
H6 O6 0.993153 1_555
H7 O7 0.993153 1_555
H8 O8 0.980644 1_555
H9 O9 0.980644 1_555
H10 O10 0.980644 1_555
H11 O11 0.980644 1_555
H12 O12 0.989177 1_555
H13 O13 0.989177 1_555
H14 O14 0.989177 1_555
H15 O15 0.989177 1_555
H16 O16 0.992427 1_555
H17 O17 0.992427 1_555
H18 O18 0.992427 1_555
H19 O19 0.992427 1_555
H20 O20 0.991777 1_565
H20 O38 1.795612 1_554
H21 O21 0.991777 1_555
H21 O39 1.795612 1_556
H22 O22 0.991777 1_545
H22 O36 1.795612 1_556
H23 O23 0.991777 1_555
H23 O37 1.795612 1_554
H24 O52 0.993745 1_555
H24 O45 1.778595 1_555
H25 O53 0.993745 1_555
H25 O44 1.778595 1_555
H26 O54 0.993745 1_555
H26 O47 1.778595 1_555
H27 O55 0.993745 1_555
H27 O46 1.778595 1_555
H28 O52 1.003831 1_555
H29 O53 1.003831 1_555
H30 O54 1.003831 1_555
H31 O55 1.003831 1_555
H32 O60 0.988654 1_555
H32 O50 1.867349 1_555
H33 O61 0.988654 1_555
H33 O51 1.867349 1_555
H34 O62 0.988654 1_555
H34 O48 1.867349 1_555
H35 O63 0.988654 1_555
H35 O49 1.867349 1_555
H36 O60 0.983331 1_555
H37 O61 0.983331 1_555
H38 O62 0.983331 1_555
H39 O63 0.983331 1_555
H40 O56 0.995088 1_555
H40 O29 1.741290 1_565
H41 O57 0.995088 1_555
H41 O28 1.741290 1_555
H42 O58 0.995088 1_555
H42 O31 1.741290 1_545
H43 O59 0.995088 1_555
H43 O30 1.741290 1_555
H44 O56 0.985117 1_555
H45 O57 0.985117 1_555
H46 O58 0.985117 1_555
H47 O59 0.985117 1_555
H48 O64 0.985785 1_555
H49 O65 0.985785 1_555
H50 O66 0.985785 1_555
H51 O67 0.985785 1_555
H52 O64 0.981656 1_555
H53 O65 0.981656 1_555
H54 O66 0.981656 1_555
H55 O67 0.981656 1_555
