# generated using pymatgen
data_Li2Mn3NbO8
_symmetry_space_group_name_H-M   'P 1'
_cell_length_a   5.88178416
_cell_length_b   6.07279049
_cell_length_c   9.00118032
_cell_angle_alpha   89.30111491
_cell_angle_beta   90.00258220
_cell_angle_gamma   89.99052898
_symmetry_Int_Tables_number   1
_chemical_formula_structural   Li2Mn3NbO8
_chemical_formula_sum   'Li4 Mn6 Nb2 O16'
_cell_volume   321.48782319
_cell_formula_units_Z   2
loop_
 _symmetry_equiv_pos_site_id
 _symmetry_equiv_pos_as_xyz
  1  'x, y, z'
loop_
 _atom_site_type_symbol
 _atom_site_label
 _atom_site_symmetry_multiplicity
 _atom_site_fract_x
 _atom_site_fract_y
 _atom_site_fract_z
 _atom_site_occupancy
  Li  Li0  1  0.99473700  0.25391100  0.13341900  1
  Li  Li1  1  0.50530900  0.75388200  0.63342700  1
  Li  Li2  1  0.00526900  0.74610800  0.86659200  1
  Li  Li3  1  0.49468600  0.24614200  0.36657800  1
  Mn  Mn0  1  0.50001500  0.99993400  0.00003300  1
  Mn  Mn1  1  0.75184500  0.74863300  0.24824800  1
  Mn  Mn2  1  0.24798300  0.25142300  0.75169500  1
  Mn  Mn3  1  0.00006800  0.49987700  0.50002600  1
  Mn  Mn4  1  0.25192000  0.75136000  0.25166800  1
  Mn  Mn5  1  0.74818400  0.24867900  0.74832500  1
  Nb  Nb0  1  0.00000100  0.00000700  0.49999200  1
  Nb  Nb1  1  0.50003200  0.49998900  0.00000800  1
  O  O0  1  0.00315000  0.53683600  0.27255400  1
  O  O1  1  0.49688800  0.03681800  0.77257400  1
  O  O2  1  0.99684500  0.46320800  0.72744800  1
  O  O3  1  0.50308900  0.96321200  0.22740500  1
  O  O4  1  0.24178500  0.77715000  0.49952500  1
  O  O5  1  0.71672100  0.24145000  0.00442800  1
  O  O6  1  0.78328000  0.74151700  0.50441000  1
  O  O7  1  0.25815900  0.27721700  0.99950800  1
  O  O8  1  0.99944900  0.97026500  0.26700800  1
  O  O9  1  0.50051600  0.47022700  0.76703400  1
  O  O10  1  0.00053800  0.02974700  0.73300000  1
  O  O11  1  0.49949500  0.52977200  0.23298300  1
  O  O12  1  0.21671900  0.25846400  0.49559100  1
  O  O13  1  0.74181000  0.72278700  0.00048300  1
  O  O14  1  0.75824100  0.22287000  0.50047600  1
  O  O15  1  0.28326700  0.75851500  0.99556300  1
loop_
_geom_bond_atom_site_label_1
_geom_bond_atom_site_label_2
_geom_bond_distance
_geom_bond_site_symmetry_2
Li0 O7 1.967132 1_654
Li0 O5 2.007437 1_555
Li0 O8 2.088830 1_545
Li0 O0 2.139027 1_655
Li1 O4 1.967418 1_555
Li1 O6 2.007396 1_555
Li1 O9 2.088982 1_555
Li1 O1 2.139136 1_565
Li2 O13 1.967200 1_456
Li2 O15 2.007232 1_555
Li2 O10 2.088812 1_565
Li2 O2 2.138954 1_455
Li3 O14 1.967541 1_555
Li3 O12 2.007344 1_555
Li3 O11 2.088798 1_555
Li3 O3 2.139243 1_545
Mn0 O15 1.943801 1_554
Mn0 O5 1.944064 1_565
Mn0 O3 2.056103 1_555
Mn0 O1 2.056979 1_564
Mn0 O13 2.203258 1_555
Mn0 O7 2.204116 1_564
Mn1 O3 1.966565 1_555
Mn1 O0 1.969643 1_655
Mn1 O8 1.991774 1_555
Mn1 O11 1.998379 1_555
Mn1 O13 2.238379 1_555
Mn1 O6 2.313031 1_555
Mn2 O1 1.967350 1_555
Mn2 O2 1.968804 1_455
Mn2 O10 1.991217 1_555
Mn2 O9 1.999000 1_555
Mn2 O7 2.238806 1_555
Mn2 O12 2.312428 1_555
Mn3 O12 1.943075 1_555
Mn3 O6 1.944630 1_455
Mn3 O2 2.056529 1_455
Mn3 O0 2.057139 1_555
Mn3 O14 2.203090 1_455
Mn3 O4 2.203903 1_555
Mn4 O0 1.966772 1_555
Mn4 O3 1.969555 1_555
Mn4 O11 1.991091 1_555
Mn4 O8 1.998821 1_455
Mn4 O4 2.239197 1_555
Mn4 O15 2.312498 1_554
Mn5 O2 1.966308 1_555
Mn5 O1 1.970138 1_555
Mn5 O9 1.991347 1_555
Mn5 O10 1.998408 1_655
Mn5 O14 2.239122 1_555
Mn5 O5 2.312537 1_556
Nb0 O14 1.962969 1_455
Nb0 O4 1.963044 1_545
Nb0 O12 2.022141 1_555
Nb0 O6 2.022309 1_445
Nb0 O8 2.107091 1_445
Nb0 O10 2.107305 1_555
Nb1 O13 1.963096 1_555
Nb1 O7 1.963395 1_554
Nb1 O5 2.022092 1_555
Nb1 O15 2.022315 1_554
Nb1 O9 2.107013 1_554
Nb1 O11 2.107034 1_555
