# generated using pymatgen
data_YbAl3Au
_symmetry_space_group_name_H-M   'P 1'
_cell_length_a   6.35033617
_cell_length_b   6.35033617
_cell_length_c   6.35033617
_cell_angle_alpha   142.44521268
_cell_angle_beta   142.44521268
_cell_angle_gamma   54.15872955
_symmetry_Int_Tables_number   1
_chemical_formula_structural   YbAl3Au
_chemical_formula_sum   'Yb1 Al3 Au1'
_cell_volume   94.50282555
_cell_formula_units_Z   1
loop_
 _symmetry_equiv_pos_site_id
 _symmetry_equiv_pos_as_xyz
  1  'x, y, z'
loop_
 _atom_site_type_symbol
 _atom_site_label
 _atom_site_symmetry_multiplicity
 _atom_site_fract_x
 _atom_site_fract_y
 _atom_site_fract_z
 _atom_site_occupancy
  Yb  Yb0  1  0.99413968  0.99413968  0.00000000  1
  Al  Al0  1  0.74859797  0.24859797  0.50000000  1
  Al  Al1  1  0.24859797  0.74859797  0.50000000  1
  Al  Al2  1  0.39656303  0.39656303  0.00000000  1
  Au  Au0  1  0.61210135  0.61210135  0.00000000  1
loop_
_geom_bond_atom_site_label_1
_geom_bond_atom_site_label_2
_geom_bond_distance
_geom_bond_site_symmetry_2
Al0 Au0 2.561446 1_556
Al0 Au0 2.561446 1_545
Al0 Al2 2.641627 1_555
Al0 Al2 2.641627 1_656
Al0 Al1 2.890827 1_645
Al0 Al1 2.890827 1_555
Al0 Al1 2.890827 1_544
Al0 Al1 2.890827 1_656
Al0 Yb0 3.447955 1_545
Al0 Yb0 3.447955 1_556
Al0 Yb0 3.529662 1_546
Al0 Yb0 3.529662 1_445
Al1 Au0 2.561446 1_556
Al1 Au0 2.561446 1_455
Al1 Al2 2.641627 1_555
Al1 Al2 2.641627 1_566
Al1 Yb0 3.447955 1_455
Al1 Yb0 3.447955 1_556
Al1 Yb0 3.529662 1_445
Al1 Yb0 3.529662 1_456
Al2 Au0 2.437390 1_555
Al2 Yb0 3.094261 1_545
Al2 Yb0 3.094261 1_556
Al2 Yb0 3.094261 1_444
Al2 Yb0 3.094261 1_455
Au0 Yb0 3.183759 1_455
Au0 Yb0 3.183759 1_545
Au0 Yb0 3.183759 1_556
Au0 Yb0 3.183759 1_444
