# generated using pymatgen
data_Rb5Mo2Br9O
_symmetry_space_group_name_H-M   'P 1'
_cell_length_a   9.51027637
_cell_length_b   9.51027637
_cell_length_c   14.70962000
_cell_angle_alpha   90.00000000
_cell_angle_beta   90.00000000
_cell_angle_gamma   109.35751488
_symmetry_Int_Tables_number   1
_chemical_formula_structural   Rb5Mo2Br9O
_chemical_formula_sum   'Rb10 Mo4 Br18 O2'
_cell_volume   1255.20663075
_cell_formula_units_Z   2
loop_
 _symmetry_equiv_pos_site_id
 _symmetry_equiv_pos_as_xyz
  1  'x, y, z'
loop_
 _atom_site_type_symbol
 _atom_site_label
 _atom_site_symmetry_multiplicity
 _atom_site_fract_x
 _atom_site_fract_y
 _atom_site_fract_z
 _atom_site_occupancy
  Rb  Rb0  1  0.37090900  0.62909100  0.75702700  1
  Rb  Rb1  1  0.62909100  0.37090900  0.25702700  1
  Rb  Rb2  1  0.93579400  0.55644700  0.91574200  1
  Rb  Rb3  1  0.06420600  0.44355300  0.41574200  1
  Rb  Rb4  1  0.55644700  0.93579400  0.41574200  1
  Rb  Rb5  1  0.44355300  0.06420600  0.91574200  1
  Rb  Rb6  1  0.77556700  0.68590100  0.61694400  1
  Rb  Rb7  1  0.22443300  0.31409900  0.11694400  1
  Rb  Rb8  1  0.68590100  0.77556700  0.11694400  1
  Rb  Rb9  1  0.31409900  0.22443300  0.61694400  1
  Mo  Mo0  1  0.96007600  0.03992400  0.87516500  1
  Mo  Mo1  1  0.03992400  0.96007600  0.37516500  1
  Mo  Mo2  1  0.77607500  0.22392500  0.65259800  1
  Mo  Mo3  1  0.22392500  0.77607500  0.15259800  1
  Br  Br0  1  0.82134600  0.17865400  0.98188800  1
  Br  Br1  1  0.17865400  0.82134600  0.48188800  1
  Br  Br2  1  0.64664200  0.35335800  0.76845300  1
  Br  Br3  1  0.35335800  0.64664200  0.26845300  1
  Br  Br4  1  0.92190000  0.07810000  0.55909700  1
  Br  Br5  1  0.07810000  0.92190000  0.05909700  1
  Br  Br6  1  0.68308800  0.31691200  0.50730700  1
  Br  Br7  1  0.31691200  0.68308800  0.00730700  1
  Br  Br8  1  0.20230200  0.28384700  0.87224900  1
  Br  Br9  1  0.79769800  0.71615300  0.37224900  1
  Br  Br10  1  0.28384700  0.20230200  0.37224900  1
  Br  Br11  1  0.71615300  0.79769800  0.87224900  1
  Br  Br12  1  0.01948800  0.45566800  0.66308200  1
  Br  Br13  1  0.98051200  0.54433200  0.16308200  1
  Br  Br14  1  0.45566800  0.01948800  0.16308200  1
  Br  Br15  1  0.54433200  0.98051200  0.66308200  1
  Br  Br16  1  0.89325600  0.10674400  0.27750000  1
  Br  Br17  1  0.10674400  0.89325600  0.77750000  1
  O  O0  1  0.46663100  0.53336900  0.60601200  1
  O  O1  1  0.53336900  0.46663100  0.10601200  1
loop_
_geom_bond_atom_site_label_1
_geom_bond_atom_site_label_2
_geom_bond_distance
_geom_bond_site_symmetry_2
Br0 Mo0 2.664550 1_555
Br0 Rb5 3.528168 1_555
Br0 Rb2 3.528168 1_555
Br1 Mo1 2.664550 1_555
Br1 Rb3 3.528168 1_555
Br1 Rb4 3.528168 1_555
Br2 Mo2 2.634229 1_555
Br2 Rb5 3.530652 1_555
Br2 Rb2 3.530652 1_555
Br2 O0 3.676127 1_555
Br2 Rb9 3.728468 1_555
Br2 Rb6 3.728468 1_555
Br3 Mo3 2.634229 1_555
Br3 Rb3 3.530652 1_555
Br3 Rb4 3.530652 1_555
Br3 O1 3.676127 1_555
Br3 Rb8 3.728468 1_555
Br3 Rb7 3.728468 1_555
Br4 Mo2 2.648257 1_555
Br4 Mo1 3.267270 1_645
Br4 Rb9 3.623808 1_655
Br4 Rb6 3.623808 1_545
Br4 Rb3 3.903783 1_655
Br4 Rb4 3.903783 1_545
Br5 Mo3 2.648257 1_555
Br5 Mo0 3.267270 1_464
Br5 Rb7 3.623808 1_565
Br5 Rb8 3.623808 1_455
Br5 Rb5 3.903783 1_564
Br5 Rb2 3.903783 1_454
Br6 Mo2 2.578767 1_555
Br6 O0 3.659604 1_555
Br6 Rb4 3.675328 1_545
Br6 Rb3 3.675328 1_655
Br6 Rb9 3.693613 1_555
Br6 Rb6 3.693613 1_555
Br7 Mo3 2.578767 1_555
Br7 O1 3.659604 1_555
Br7 Rb2 3.675328 1_454
Br7 Rb5 3.675328 1_564
Br7 Rb7 3.693613 1_555
Br7 Rb8 3.693613 1_555
Br8 Mo0 2.673449 1_455
Br8 Rb0 3.568485 1_555
Br8 Rb7 3.611426 1_556
Br8 Rb5 3.635078 1_555
Br8 Rb2 4.232063 1_455
Br9 Mo1 2.673449 1_655
Br9 Rb1 3.568485 1_555
Br9 Rb6 3.611426 1_555
Br9 Rb4 3.635078 1_555
Br9 Rb3 4.232063 1_655
Br10 Mo1 2.673449 1_545
Br10 Rb1 3.568485 1_555
Br10 Rb9 3.611426 1_555
Br10 Rb3 3.635078 1_555
Br10 Rb4 4.232063 1_545
Br11 Mo0 2.673449 1_565
Br11 Rb0 3.568485 1_555
Br11 Rb8 3.611426 1_556
Br11 Rb2 3.635078 1_555
Br11 Rb5 4.232063 1_565
Br12 Mo2 2.618741 1_455
Br12 Rb0 3.485025 1_555
Br12 Rb3 3.669289 1_555
Br12 Rb6 3.742099 1_455
Br12 Rb2 3.983777 1_455
Br13 Mo3 2.618741 1_655
Br13 Rb1 3.485025 1_555
Br13 Rb2 3.669289 1_554
Br13 Rb7 3.742099 1_655
Br13 Rb3 3.983777 1_655
Br14 Mo3 2.618741 1_545
Br14 Rb1 3.485025 1_555
Br14 Rb5 3.669289 1_554
Br14 Rb8 3.742099 1_545
Br14 Rb4 3.983777 1_545
Br15 Mo2 2.618741 1_565
Br15 Rb0 3.485025 1_555
Br15 Rb4 3.669289 1_555
Br15 Rb9 3.742099 1_565
Br15 Rb5 3.983777 1_565
Br16 Mo1 2.691633 1_645
Br16 Rb4 3.685937 1_545
Br16 Rb3 3.685937 1_655
Br16 Rb8 3.907554 1_545
Br16 Rb7 3.907554 1_655
Br17 Mo0 2.691633 1_465
Br17 Rb2 3.685937 1_455
Br17 Rb5 3.685937 1_565
Br17 Rb6 3.907554 1_455
Br17 Rb9 3.907554 1_565
O0 Rb0 2.672326 1_555
O0 Rb9 2.817269 1_555
O0 Rb6 2.817269 1_555
O0 Rb4 4.587265 1_555
O0 Rb3 4.587265 1_555
O1 Rb1 2.672326 1_555
O1 Rb7 2.817269 1_555
O1 Rb8 2.817269 1_555
O1 Rb5 4.587265 1_554
O1 Rb2 4.587265 1_554
