# generated using pymatgen
data_NdCdHg2
_symmetry_space_group_name_H-M   'P 1'
_cell_length_a   5.15320210
_cell_length_b   5.15320210
_cell_length_c   5.15320210
_cell_angle_alpha   60.00000000
_cell_angle_beta   60.00000000
_cell_angle_gamma   60.00000000
_symmetry_Int_Tables_number   1
_chemical_formula_structural   NdCdHg2
_chemical_formula_sum   'Nd1 Cd1 Hg2'
_cell_volume   96.76460487
_cell_formula_units_Z   1
loop_
 _symmetry_equiv_pos_site_id
 _symmetry_equiv_pos_as_xyz
  1  'x, y, z'
loop_
 _atom_site_type_symbol
 _atom_site_label
 _atom_site_symmetry_multiplicity
 _atom_site_fract_x
 _atom_site_fract_y
 _atom_site_fract_z
 _atom_site_occupancy
  Nd  Nd0  1  -0.00000000  -0.00000000  -0.00000000  1
  Cd  Cd0  1  0.50000000  0.50000000  0.50000000  1
  Hg  Hg0  1  0.25000000  0.25000000  0.25000000  1
  Hg  Hg1  1  0.75000000  0.75000000  0.75000000  1
loop_
_geom_bond_atom_site_label_1
_geom_bond_atom_site_label_2
_geom_bond_distance
_geom_bond_site_symmetry_2
Cd0 Hg1 3.155679 1_554
Cd0 Hg1 3.155679 1_555
Cd0 Hg0 3.155679 1_655
Cd0 Hg0 3.155679 1_556
Cd0 Hg0 3.155679 1_555
Cd0 Hg1 3.155679 1_545
Cd0 Hg1 3.155679 1_455
Cd0 Hg0 3.155679 1_565
Cd0 Nd0 3.643864 1_556
Cd0 Nd0 3.643864 1_565
Cd0 Nd0 3.643864 1_566
Cd0 Nd0 3.643864 1_655
Cd0 Nd0 3.643864 1_665
Cd0 Nd0 3.643864 1_656
Hg0 Nd0 3.155679 1_565
Hg0 Nd0 3.155679 1_655
Hg0 Nd0 3.155679 1_555
Hg0 Nd0 3.155679 1_556
Hg0 Hg1 3.643864 1_454
Hg0 Hg1 3.643864 1_545
Hg0 Hg1 3.643864 1_455
Hg0 Hg1 3.643864 1_554
Hg0 Hg1 3.643864 1_544
Hg0 Hg1 3.643864 1_445
Hg1 Nd0 3.155679 1_566
Hg1 Nd0 3.155679 1_665
Hg1 Nd0 3.155679 1_666
Hg1 Nd0 3.155679 1_656
