# generated using pymatgen
data_CsVWO6
_symmetry_space_group_name_H-M   'P 1'
_cell_length_a   7.24815165
_cell_length_b   7.24815165
_cell_length_c   7.24815165
_cell_angle_alpha   121.13420441
_cell_angle_beta   118.93619155
_cell_angle_gamma   89.94959718
_symmetry_Int_Tables_number   1
_chemical_formula_structural   CsVWO6
_chemical_formula_sum   'Cs2 V2 W2 O12'
_cell_volume   268.98961035
_cell_formula_units_Z   2
loop_
 _symmetry_equiv_pos_site_id
 _symmetry_equiv_pos_as_xyz
  1  'x, y, z'
loop_
 _atom_site_type_symbol
 _atom_site_label
 _atom_site_symmetry_multiplicity
 _atom_site_fract_x
 _atom_site_fract_y
 _atom_site_fract_z
 _atom_site_occupancy
  Cs  Cs0  1  0.37327700  0.62327700  0.75000000  1
  Cs  Cs1  1  0.62672300  0.37672300  0.25000000  1
  V  V0  1  0.00000000  0.00000000  0.50000000  1
  V  V1  1  0.00000000  0.50000000  0.00000000  1
  W  W0  1  0.00000000  0.00000000  0.00000000  1
  W  W1  1  0.50000000  0.00000000  0.50000000  1
  O  O0  1  0.31570500  0.06570500  0.25000000  1
  O  O1  1  0.94600200  0.69600200  0.25000000  1
  O  O2  1  0.30696900  0.68606600  0.24314000  1
  O  O3  1  0.94292600  0.06382800  0.25686000  1
  O  O4  1  0.30696900  0.06382800  0.62090300  1
  O  O5  1  0.94292600  0.68606600  0.87909700  1
  O  O6  1  0.68429500  0.93429500  0.75000000  1
  O  O7  1  0.05399800  0.30399800  0.75000000  1
  O  O8  1  0.69303100  0.31393400  0.75686000  1
  O  O9  1  0.05707400  0.93617200  0.74314000  1
  O  O10  1  0.69303100  0.93617200  0.37909700  1
  O  O11  1  0.05707400  0.31393400  0.12090300  1
loop_
_geom_bond_atom_site_label_1
_geom_bond_atom_site_label_2
_geom_bond_distance
_geom_bond_site_symmetry_2
Cs0 O6 3.189472 1_555
Cs0 O10 3.224251 1_556
Cs0 O11 3.224251 1_555
Cs0 O8 3.224251 1_555
Cs0 O9 3.224256 1_555
Cs0 O7 3.274188 1_555
Cs0 O0 3.610370 1_566
Cs0 O0 3.610370 1_555
Cs0 O2 3.632341 1_556
Cs0 O5 3.632341 1_455
Cs0 O3 3.632346 1_455
Cs0 O4 3.632348 1_555
Cs1 O0 3.189472 1_555
Cs1 O4 3.224251 1_554
Cs1 O5 3.224251 1_555
Cs1 O2 3.224251 1_555
Cs1 O3 3.224256 1_555
Cs1 O1 3.274188 1_555
Cs1 O6 3.610370 1_555
Cs1 O6 3.610370 1_544
Cs1 O8 3.632341 1_554
Cs1 O11 3.632341 1_655
Cs1 O9 3.632346 1_655
Cs1 O10 3.632348 1_555
O0 W1 1.960521 1_555
O0 W0 1.960521 1_555
O0 O2 2.726537 1_545
O0 O5 2.726537 1_444
O0 O3 2.726538 1_455
O0 O4 2.726541 1_555
O1 V0 1.864990 1_665
O1 V1 1.864990 1_655
O1 O3 2.640970 1_565
O1 O4 2.640974 1_665
O1 O2 2.640978 1_655
O1 O5 2.640978 1_554
O2 V1 1.904793 1_555
O2 W1 1.924985 1_565
O2 O5 2.680952 1_454
O3 V0 1.904788 1_655
O3 W0 1.924987 1_655
O3 O4 2.680952 1_655
O4 V0 1.904793 1_555
O4 W1 1.924985 1_555
O5 V1 1.904793 1_656
O5 W0 1.924985 1_666
O6 W0 1.960521 1_666
O6 W1 1.960521 1_565
O6 O8 2.726537 1_565
O6 O9 2.726538 1_655
O7 V1 1.864990 1_556
O7 V0 1.864990 1_555
O7 O9 2.640970 1_545
O7 O8 2.640978 1_455
O8 V1 1.904793 1_656
O8 W1 1.924985 1_555
O9 V0 1.904788 1_565
O9 W0 1.924987 1_566
O10 V0 1.904793 1_665
O10 W1 1.924985 1_565
O10 O7 2.640974 1_665
O10 O9 2.680952 1_655
O10 O6 2.726541 1_555
O11 V1 1.904793 1_555
O11 W0 1.924985 1_555
O11 O7 2.640978 1_554
O11 O8 2.680952 1_454
O11 O6 2.726537 1_444
