# generated using pymatgen
data_Sn(Mo3S4)2
_symmetry_space_group_name_H-M   'P 1'
_cell_length_a   9.51243348
_cell_length_b   6.21202238
_cell_length_c   12.73322960
_cell_angle_alpha   35.86109899
_cell_angle_beta   139.21915798
_cell_angle_gamma   135.06371559
_symmetry_Int_Tables_number   1
_chemical_formula_structural   Sn(Mo3S4)2
_chemical_formula_sum   'Sn1 Mo6 S8'
_cell_volume   279.04374847
_cell_formula_units_Z   1
loop_
 _symmetry_equiv_pos_site_id
 _symmetry_equiv_pos_as_xyz
  1  'x, y, z'
loop_
 _atom_site_type_symbol
 _atom_site_label
 _atom_site_symmetry_multiplicity
 _atom_site_fract_x
 _atom_site_fract_y
 _atom_site_fract_z
 _atom_site_occupancy
  Sn  Sn0  1  0.00000000  0.00000000  0.00000000  1
  Mo  Mo0  1  0.29928200  0.69757000  0.03955400  1
  Mo  Mo1  1  0.40521600  0.74084800  0.31531500  1
  Mo  Mo2  1  0.35705000  0.43038100  0.86427800  1
  Mo  Mo3  1  0.70071800  0.30243000  0.96044600  1
  Mo  Mo4  1  0.59478400  0.25915200  0.68468500  1
  Mo  Mo5  1  0.64295000  0.56961900  0.13572200  1
  S  S0  1  0.09318000  0.35633400  0.20160600  1
  S  S1  1  0.44339900  0.14944700  0.31741300  1
  S  S2  1  0.99522100  0.49722500  0.41810500  1
  S  S3  1  0.90682000  0.64366600  0.79839400  1
  S  S4  1  0.55660100  0.85055300  0.68258700  1
  S  S5  1  0.00477900  0.50277500  0.58189500  1
  S  S6  1  0.33996000  0.90395100  0.79658100  1
  S  S7  1  0.66004000  0.09604900  0.20341900  1
loop_
_geom_bond_atom_site_label_1
_geom_bond_atom_site_label_2
_geom_bond_distance
_geom_bond_site_symmetry_2
Mo0 S1 2.393230 1_555
Mo0 S0 2.397470 1_555
Mo0 S3 2.452434 1_454
Mo0 S6 2.459005 1_554
Mo0 S7 2.785462 1_565
Mo0 Mo2 2.802459 1_564
Mo0 Mo3 3.015178 1_564
Mo0 Sn0 3.322104 1_555
Mo1 S7 2.310123 1_565
Mo1 S1 2.316291 1_565
Mo1 S0 2.381509 1_555
Mo1 Mo4 2.511973 1_555
Mo1 Sn0 2.905331 1_565
Mo2 S4 2.369939 1_555
Mo2 S5 2.371767 1_555
Mo2 S6 2.403825 1_555
Mo2 S7 2.521351 1_556
Mo2 Mo5 2.714895 1_556
Mo2 Sn0 3.195959 1_556
Mo3 S4 2.393230 1_555
Mo3 S3 2.397470 1_555
Mo3 S0 2.452434 1_656
Mo3 S7 2.459005 1_556
Mo3 S6 2.785462 1_545
Mo3 Mo5 2.802459 1_546
Mo3 Sn0 3.322104 1_666
Mo4 S6 2.310123 1_545
Mo4 S4 2.316291 1_545
Mo4 S3 2.381509 1_555
Mo4 Sn0 2.905331 1_656
Mo5 S1 2.369939 1_555
Mo5 S2 2.371767 1_555
Mo5 S7 2.403825 1_555
Mo5 S6 2.521351 1_554
Mo5 Sn0 3.195959 1_665
S0 Sn0 2.880579 1_565
S0 S3 2.920735 1_454
S0 S2 3.154733 1_445
S0 S7 3.200422 1_455
S0 S1 3.236490 1_555
S0 S5 3.241427 1_545
S1 S4 2.735326 1_545
S1 Sn0 3.115855 1_555
S2 S5 2.045489 1_655
S2 S7 3.231469 1_555
S2 S3 3.241427 1_545
S2 Sn0 3.363629 1_665
S3 Sn0 2.880579 1_656
S3 S5 3.154733 1_665
S3 S6 3.200422 1_655
S3 S4 3.236490 1_555
S4 Sn0 3.115855 1_666
S5 S6 3.231469 1_555
S5 Sn0 3.363629 1_556
S6 Sn0 3.478417 1_556
S7 Sn0 3.478417 1_665
