# generated using pymatgen
data_TlNCl4
_symmetry_space_group_name_H-M   'P 1'
_cell_length_a   14.51802578
_cell_length_b   14.51802578
_cell_length_c   10.41578600
_cell_angle_alpha   90.00000000
_cell_angle_beta   90.00000000
_cell_angle_gamma   95.56688971
_symmetry_Int_Tables_number   1
_chemical_formula_structural   TlNCl4
_chemical_formula_sum   'Tl8 N8 Cl32'
_cell_volume   2185.01304362
_cell_formula_units_Z   8
loop_
 _symmetry_equiv_pos_site_id
 _symmetry_equiv_pos_as_xyz
  1  'x, y, z'
loop_
 _atom_site_type_symbol
 _atom_site_label
 _atom_site_symmetry_multiplicity
 _atom_site_fract_x
 _atom_site_fract_y
 _atom_site_fract_z
 _atom_site_occupancy
  Tl  Tl0_0  1  0.02957450  0.47042550  0.00000000  1
  Tl  Tl0_1  1  0.02957450  0.47042550  0.50000000  1
  Tl  Tl0_2  1  0.02957450  0.97042550  0.00000000  1
  Tl  Tl0_3  1  0.02957450  0.97042550  0.50000000  1
  Tl  Tl0_4  1  0.52957450  0.47042550  0.00000000  1
  Tl  Tl0_5  1  0.52957450  0.47042550  0.50000000  1
  Tl  Tl0_6  1  0.52957450  0.97042550  0.00000000  1
  Tl  Tl0_7  1  0.52957450  0.97042550  0.50000000  1
  N  N0_0  1  0.21366050  0.28633950  0.25000000  1
  N  N0_1  1  0.21366050  0.28633950  0.75000000  1
  N  N0_2  1  0.21366050  0.78633950  0.25000000  1
  N  N0_3  1  0.21366050  0.78633950  0.75000000  1
  N  N0_4  1  0.71366050  0.28633950  0.25000000  1
  N  N0_5  1  0.71366050  0.28633950  0.75000000  1
  N  N0_6  1  0.71366050  0.78633950  0.25000000  1
  N  N0_7  1  0.71366050  0.78633950  0.75000000  1
  Cl  Cl0_0  1  0.45817300  0.31555500  0.00000000  1
  Cl  Cl0_1  1  0.45817300  0.31555500  0.50000000  1
  Cl  Cl0_2  1  0.45817300  0.81555500  0.00000000  1
  Cl  Cl0_3  1  0.45817300  0.81555500  0.50000000  1
  Cl  Cl0_4  1  0.95817300  0.31555500  0.00000000  1
  Cl  Cl0_5  1  0.95817300  0.31555500  0.50000000  1
  Cl  Cl0_6  1  0.95817300  0.81555500  0.00000000  1
  Cl  Cl0_7  1  0.95817300  0.81555500  0.50000000  1
  Cl  Cl1_0  1  0.18444500  0.04182700  0.00000000  1
  Cl  Cl1_1  1  0.18444500  0.04182700  0.50000000  1
  Cl  Cl1_2  1  0.18444500  0.54182700  0.00000000  1
  Cl  Cl1_3  1  0.18444500  0.54182700  0.50000000  1
  Cl  Cl1_4  1  0.68444500  0.04182700  0.00000000  1
  Cl  Cl1_5  1  0.68444500  0.04182700  0.50000000  1
  Cl  Cl1_6  1  0.68444500  0.54182700  0.00000000  1
  Cl  Cl1_7  1  0.68444500  0.54182700  0.50000000  1
  Cl  Cl2_0  1  0.42444850  0.07555150  0.12914450  1
  Cl  Cl2_1  1  0.42444850  0.07555150  0.62914450  1
  Cl  Cl2_2  1  0.42444850  0.57555150  0.12914450  1
  Cl  Cl2_3  1  0.42444850  0.57555150  0.62914450  1
  Cl  Cl2_4  1  0.92444850  0.07555150  0.12914450  1
  Cl  Cl2_5  1  0.92444850  0.07555150  0.62914450  1
  Cl  Cl2_6  1  0.92444850  0.57555150  0.12914450  1
  Cl  Cl2_7  1  0.92444850  0.57555150  0.62914450  1
  Cl  Cl3_0  1  0.42444850  0.07555150  0.37085550  1
  Cl  Cl3_1  1  0.42444850  0.07555150  0.87085550  1
  Cl  Cl3_2  1  0.42444850  0.57555150  0.37085550  1
  Cl  Cl3_3  1  0.42444850  0.57555150  0.87085550  1
  Cl  Cl3_4  1  0.92444850  0.07555150  0.37085550  1
  Cl  Cl3_5  1  0.92444850  0.07555150  0.87085550  1
  Cl  Cl3_6  1  0.92444850  0.57555150  0.37085550  1
  Cl  Cl3_7  1  0.92444850  0.57555150  0.87085550  1
loop_
_geom_bond_atom_site_label_1
_geom_bond_atom_site_label_2
_geom_bond_distance
_geom_bond_site_symmetry_2
N0_0 Tl0_1 4.738304 1_555
N0_0 Tl0_0 4.738304 1_555
N0_0 N0_1 5.207893 1_555
N0_0 N0_1 5.207893 1_554
N0_1 Tl0_1 4.738304 1_555
N0_1 Tl0_0 4.738304 1_556
N0_2 Tl0_2 4.738304 1_555
N0_2 Tl0_3 4.738304 1_555
N0_2 N0_3 5.207893 1_555
N0_2 N0_3 5.207893 1_554
N0_3 Tl0_2 4.738304 1_556
N0_3 Tl0_3 4.738304 1_555
N0_4 Tl0_4 4.738304 1_555
N0_4 Tl0_5 4.738304 1_555
N0_4 N0_5 5.207893 1_554
N0_4 N0_5 5.207893 1_555
N0_5 Tl0_4 4.738304 1_556
N0_5 Tl0_5 4.738304 1_555
N0_6 Tl0_6 4.738304 1_555
N0_6 Tl0_7 4.738304 1_555
N0_6 N0_7 5.207893 1_555
N0_6 N0_7 5.207893 1_554
N0_7 Tl0_6 4.738304 1_556
N0_7 Tl0_7 4.738304 1_555
Cl0_0 Tl0_4 2.382798 1_555
Cl0_0 N0_1 4.389724 1_554
Cl0_0 N0_0 4.389724 1_555
Cl0_0 N0_5 4.585155 1_554
Cl0_0 N0_4 4.585155 1_555
Cl0_1 Tl0_5 2.382798 1_555
Cl0_1 N0_1 4.389724 1_555
Cl0_1 N0_0 4.389724 1_555
Cl0_1 N0_4 4.585155 1_555
Cl0_1 N0_5 4.585155 1_555
Cl0_2 Tl0_6 2.382798 1_555
Cl0_2 N0_2 4.389724 1_555
Cl0_2 N0_3 4.389724 1_554
Cl0_2 N0_7 4.585155 1_554
Cl0_2 N0_6 4.585155 1_555
Cl0_3 Tl0_7 2.382798 1_555
Cl0_3 N0_3 4.389724 1_555
Cl0_3 N0_2 4.389724 1_555
Cl0_3 N0_7 4.585155 1_555
Cl0_3 N0_6 4.585155 1_555
Cl0_4 Tl0_0 2.382798 1_655
Cl0_4 N0_5 4.389724 1_554
Cl0_4 N0_4 4.389724 1_555
Cl0_4 N0_0 4.585155 1_655
Cl0_4 N0_1 4.585155 1_654
Cl0_5 Tl0_1 2.382798 1_655
Cl0_5 N0_5 4.389724 1_555
Cl0_5 N0_4 4.389724 1_555
Cl0_5 N0_0 4.585155 1_655
Cl0_5 N0_1 4.585155 1_655
Cl0_6 Tl0_2 2.382798 1_655
Cl0_6 N0_7 4.389724 1_554
Cl0_6 N0_6 4.389724 1_555
Cl0_6 N0_2 4.585155 1_655
Cl0_6 N0_3 4.585155 1_654
Cl0_7 Tl0_3 2.382798 1_655
Cl0_7 N0_6 4.389724 1_555
Cl0_7 N0_7 4.389724 1_555
Cl0_7 N0_2 4.585155 1_655
Cl0_7 N0_3 4.585155 1_655
Cl1_0 Tl0_2 2.382798 1_545
Cl1_0 N0_0 4.389724 1_555
Cl1_0 N0_1 4.389724 1_554
Cl1_0 N0_3 4.585155 1_544
Cl1_0 N0_2 4.585155 1_545
Cl1_1 Tl0_3 2.382798 1_545
Cl1_1 N0_0 4.389724 1_555
Cl1_1 N0_1 4.389724 1_555
Cl1_1 N0_3 4.585155 1_545
Cl1_1 N0_2 4.585155 1_545
Cl1_2 Tl0_0 2.382798 1_555
Cl1_2 N0_3 4.389724 1_554
Cl1_2 N0_2 4.389724 1_555
Cl1_2 N0_1 4.585155 1_554
Cl1_2 N0_0 4.585155 1_555
Cl1_3 Tl0_1 2.382798 1_555
Cl1_3 N0_3 4.389724 1_555
Cl1_3 N0_2 4.389724 1_555
Cl1_3 N0_1 4.585155 1_555
Cl1_3 N0_0 4.585155 1_555
Cl1_4 Tl0_6 2.382798 1_545
Cl1_4 N0_5 4.389724 1_554
Cl1_4 N0_4 4.389724 1_555
Cl1_4 N0_6 4.585155 1_545
Cl1_4 N0_7 4.585155 1_544
Cl1_5 Tl0_7 2.382798 1_545
Cl1_5 N0_4 4.389724 1_555
Cl1_5 N0_5 4.389724 1_555
Cl1_5 N0_6 4.585155 1_545
Cl1_5 N0_7 4.585155 1_545
Cl1_6 Tl0_4 2.382798 1_555
Cl1_6 N0_7 4.389724 1_554
Cl1_6 N0_6 4.389724 1_555
Cl1_6 N0_5 4.585155 1_554
Cl1_6 N0_4 4.585155 1_555
Cl1_7 Tl0_5 2.382798 1_555
Cl1_7 N0_6 4.389724 1_555
Cl1_7 N0_7 4.389724 1_555
Cl1_7 N0_4 4.585155 1_555
Cl1_7 N0_5 4.585155 1_555
Cl2_0 Cl3_0 2.517610 1_555
Cl2_0 Tl0_6 2.630598 1_545
Cl2_0 Cl3_1 2.690283 1_554
Cl2_0 N0_0 4.704413 1_555
Cl2_1 Cl3_1 2.517610 1_555
Cl2_1 Tl0_7 2.630598 1_545
Cl2_1 Cl3_0 2.690283 1_555
Cl2_1 N0_1 4.704413 1_555
Cl2_2 Cl3_2 2.517610 1_555
Cl2_2 Tl0_4 2.630598 1_555
Cl2_2 Cl3_3 2.690283 1_554
Cl2_2 N0_2 4.704413 1_555
Cl2_3 Cl3_3 2.517610 1_555
Cl2_3 Tl0_5 2.630598 1_555
Cl2_3 Cl3_2 2.690283 1_555
Cl2_3 N0_3 4.704413 1_555
Cl2_4 Cl3_4 2.517610 1_555
Cl2_4 Tl0_2 2.630598 1_645
Cl2_4 Cl3_5 2.690283 1_554
Cl2_4 N0_4 4.704413 1_555
Cl2_5 Cl3_5 2.517610 1_555
Cl2_5 Tl0_3 2.630598 1_645
Cl2_5 Cl3_4 2.690283 1_555
Cl2_5 N0_5 4.704413 1_555
Cl2_6 Cl3_6 2.517610 1_555
Cl2_6 Tl0_0 2.630598 1_655
Cl2_6 Cl3_7 2.690283 1_554
Cl2_6 N0_6 4.704413 1_555
Cl2_7 Cl3_7 2.517610 1_555
Cl2_7 Tl0_1 2.630598 1_655
Cl2_7 Cl3_6 2.690283 1_555
Cl2_7 N0_7 4.704413 1_555
Cl3_0 Tl0_7 2.630598 1_545
Cl3_0 N0_0 4.704413 1_555
Cl3_1 Tl0_6 2.630598 1_546
Cl3_1 N0_1 4.704413 1_555
Cl3_2 Tl0_5 2.630598 1_555
Cl3_2 N0_2 4.704413 1_555
Cl3_3 Tl0_4 2.630598 1_556
Cl3_3 N0_3 4.704413 1_555
Cl3_4 Tl0_3 2.630598 1_645
Cl3_4 N0_4 4.704413 1_555
Cl3_5 Tl0_2 2.630598 1_646
Cl3_5 N0_5 4.704413 1_555
Cl3_6 Tl0_1 2.630598 1_655
Cl3_6 N0_6 4.704413 1_555
Cl3_7 Tl0_0 2.630598 1_656
Cl3_7 N0_7 4.704413 1_555
