# generated using pymatgen
data_Li7Mn4CoO12
_symmetry_space_group_name_H-M   'P 1'
_cell_length_a   5.32314002
_cell_length_b   7.67642858
_cell_length_c   5.70081936
_cell_angle_alpha   100.95939043
_cell_angle_beta   89.58686132
_cell_angle_gamma   105.56526142
_symmetry_Int_Tables_number   1
_chemical_formula_structural   Li7Mn4CoO12
_chemical_formula_sum   'Li7 Mn4 Co1 O12'
_cell_volume   220.07838513
_cell_formula_units_Z   1
loop_
 _symmetry_equiv_pos_site_id
 _symmetry_equiv_pos_as_xyz
  1  'x, y, z'
loop_
 _atom_site_type_symbol
 _atom_site_label
 _atom_site_symmetry_multiplicity
 _atom_site_fract_x
 _atom_site_fract_y
 _atom_site_fract_z
 _atom_site_occupancy
  Li  Li0  1  0.33334700  0.33332900  0.83330700  1
  Li  Li1  1  0.49049600  0.01510300  0.75012400  1
  Li  Li2  1  0.17628900  0.65156100  0.91654800  1
  Li  Li3  1  0.88657800  0.35252300  0.59236900  1
  Li  Li4  1  0.77997800  0.31413700  0.07430100  1
  Li  Li5  1  0.16367800  0.65767000  0.41875100  1
  Li  Li6  1  0.50310500  0.00903200  0.24792900  1
  Mn  Mn0  1  0.99439200  0.00423200  0.49995100  1
  Mn  Mn1  1  0.67217400  0.66242400  0.16670500  1
  Mn  Mn2  1  0.00754400  0.00908300  0.99756300  1
  Mn  Mn3  1  0.65912100  0.65756800  0.66900100  1
  Co  Co0  1  0.33332600  0.33333900  0.33332300  1
  O  O0  1  0.08542000  0.85741600  0.70669500  1
  O  O1  1  0.58133600  0.80928300  0.96001700  1
  O  O2  1  0.34499000  0.15097800  0.51929400  1
  O  O3  1  0.32165400  0.51569500  0.14736900  1
  O  O4  1  0.76202500  0.51677600  0.37862000  1
  O  O5  1  0.90466400  0.14985800  0.28807500  1
  O  O6  1  0.04320200  0.83351100  0.20826800  1
  O  O7  1  0.62340400  0.83313600  0.45843200  1
  O  O8  1  0.40199600  0.17517800  0.05741400  1
  O  O9  1  0.26463700  0.49148500  0.60926600  1
  O  O10  1  0.76534600  0.51739600  0.88553200  1
  O  O11  1  0.90129800  0.14928700  0.78114600  1
loop_
_geom_bond_atom_site_label_1
_geom_bond_atom_site_label_2
_geom_bond_distance
_geom_bond_site_symmetry_2
Li0 O9 2.018334 1_555
Li0 O8 2.018473 1_556
Li0 O2 2.063986 1_555
Li0 O3 2.064307 1_556
Li0 O10 2.340810 1_555
Li0 O11 2.340961 1_455
Li1 O8 2.069058 1_556
Li1 O2 2.095146 1_555
Li1 O11 2.145149 1_555
Li1 O0 2.160797 1_545
Li1 O7 2.201622 1_545
Li1 O1 2.301967 1_545
Li2 O9 2.068720 1_555
Li2 O3 2.094679 1_556
Li2 O10 2.145790 1_455
Li2 O1 2.160742 1_555
Li2 O6 2.202111 1_556
Li2 O0 2.302106 1_555
Li3 O9 2.002203 1_655
Li3 O11 2.074493 1_555
Li3 O10 2.104744 1_555
Li3 O5 2.119127 1_555
Li3 O4 2.135120 1_555
Li4 O8 2.001846 1_555
Li4 O10 2.074501 1_554
Li4 O11 2.104836 1_554
Li4 O4 2.118939 1_555
Li4 O5 2.135708 1_555
Li5 O9 1.999753 1_555
Li5 O3 2.029892 1_555
Li5 O4 2.113137 1_455
Li5 O0 2.143629 1_555
Li5 O6 2.182812 1_555
Li5 O7 2.444852 1_555
Li6 O8 1.999864 1_555
Li6 O2 2.030125 1_555
Li6 O5 2.112586 1_555
Li6 O1 2.143474 1_544
Li6 O7 2.182790 1_545
Li6 O6 2.445769 1_545
Mn0 O2 1.895154 1_655
Mn0 O11 1.913422 1_555
Mn0 O0 1.923661 1_645
Mn0 O5 1.935207 1_555
Mn0 O6 1.974316 1_645
Mn0 O7 2.043900 1_545
Mn1 O3 1.894771 1_555
Mn1 O10 1.913399 1_554
Mn1 O1 1.923266 1_554
Mn1 O4 1.935765 1_555
Mn1 O7 1.974394 1_555
Mn1 O6 2.044045 1_655
Mn2 O0 1.947302 1_545
Mn2 O5 1.958213 1_456
Mn2 O11 1.960095 1_455
Mn2 O6 2.012834 1_546
Mn2 O8 2.135199 1_556
Mn2 O1 2.358010 1_445
Mn3 O1 1.947928 1_555
Mn3 O4 1.957777 1_555
Mn3 O10 1.960341 1_555
Mn3 O7 2.012335 1_555
Mn3 O9 2.135276 1_555
Mn3 O0 2.358508 1_655
Co0 O8 1.893541 1_555
Co0 O9 1.893653 1_555
Co0 O3 1.923299 1_555
Co0 O2 1.923388 1_555
Co0 O5 2.324354 1_455
Co0 O4 2.324408 1_555
