# generated using pymatgen
data_Sr8Ca3NdTl2Cu8(PbO14)2
_symmetry_space_group_name_H-M   'P 1'
_cell_length_a   13.39861220
_cell_length_b   13.39814014
_cell_length_c   7.61895540
_cell_angle_alpha   73.48496824
_cell_angle_beta   73.47816135
_cell_angle_gamma   33.03687041
_symmetry_Int_Tables_number   1
_chemical_formula_structural   Sr8Ca3NdTl2Cu8(PbO14)2
_chemical_formula_sum   'Sr8 Ca3 Nd1 Tl2 Cu8 Pb2 O28'
_cell_volume   712.11135468
_cell_formula_units_Z   1
loop_
 _symmetry_equiv_pos_site_id
 _symmetry_equiv_pos_as_xyz
  1  'x, y, z'
loop_
 _atom_site_type_symbol
 _atom_site_label
 _atom_site_symmetry_multiplicity
 _atom_site_fract_x
 _atom_site_fract_y
 _atom_site_fract_z
 _atom_site_occupancy
  Sr  Sr0  1  0.85732200  0.85732200  0.14267800  1
  Sr  Sr1  1  0.85733300  0.85733300  0.64266700  1
  Sr  Sr2  1  0.35733300  0.35733300  0.14266700  1
  Sr  Sr3  1  0.35531000  0.35531000  0.64469000  1
  Sr  Sr4  1  0.64469000  0.64469000  0.35531000  1
  Sr  Sr5  1  0.64266700  0.64266700  0.85733300  1
  Sr  Sr6  1  0.14266700  0.14266700  0.35733300  1
  Sr  Sr7  1  0.14267800  0.14267800  0.85732200  1
  Ca  Ca0  1  0.00000000  0.00000000  0.50000000  1
  Ca  Ca1  1  0.50000000  0.50000000  0.00000000  1
  Ca  Ca2  1  0.00000000  0.00000000  0.00000000  1
  Nd  Nd0  1  0.50000000  0.50000000  0.50000000  1
  Tl  Tl0  1  0.50000000  0.00000000  0.00000000  1
  Tl  Tl1  1  0.00000000  0.50000000  0.50000000  1
  Cu  Cu0  1  0.17903000  0.68229900  0.82097000  1
  Cu  Cu1  1  0.17950800  0.68283500  0.31716500  1
  Cu  Cu2  1  0.68283500  0.17950800  0.82049200  1
  Cu  Cu3  1  0.68229900  0.17903000  0.31770100  1
  Cu  Cu4  1  0.82097000  0.31770100  0.17903000  1
  Cu  Cu5  1  0.82049200  0.31716500  0.68283500  1
  Cu  Cu6  1  0.31716500  0.82049200  0.17950800  1
  Cu  Cu7  1  0.31770100  0.82097000  0.68229900  1
  Pb  Pb0  1  0.50000000  0.00000000  0.50000000  1
  Pb  Pb1  1  0.00000000  0.50000000  0.00000000  1
  O  O0  1  0.08790900  0.58685600  0.91209100  1
  O  O1  1  0.08626100  0.58458800  0.41541200  1
  O  O2  1  0.58458800  0.08626100  0.91373900  1
  O  O3  1  0.58685600  0.08790900  0.41314400  1
  O  O4  1  0.91209100  0.41314400  0.08790900  1
  O  O5  1  0.91373900  0.41541200  0.58458800  1
  O  O6  1  0.41541200  0.91373900  0.08626100  1
  O  O7  1  0.41314400  0.91209100  0.58685600  1
  O  O8  1  0.75022400  0.75022400  0.24977600  1
  O  O9  1  0.75000000  0.75000000  0.75000000  1
  O  O10  1  0.25000000  0.25000000  0.25000000  1
  O  O11  1  0.24977600  0.24977600  0.75022400  1
  O  O12  1  0.18692700  0.68441000  0.06437700  1
  O  O13  1  0.18748400  0.68533500  0.56351200  1
  O  O14  1  0.68441000  0.18692700  0.06428600  1
  O  O15  1  0.68533500  0.18748400  0.56366900  1
  O  O16  1  0.93562300  0.93571400  0.81307300  1
  O  O17  1  0.93571400  0.93562300  0.31559000  1
  O  O18  1  0.43648800  0.43633100  0.81251600  1
  O  O19  1  0.43633100  0.43648800  0.31466500  1
  O  O20  1  0.81251600  0.31466500  0.43648800  1
  O  O21  1  0.81307300  0.31559000  0.93562300  1
  O  O22  1  0.31466500  0.81251600  0.43633100  1
  O  O23  1  0.31559000  0.81307300  0.93571400  1
  O  O24  1  0.56351200  0.56366900  0.18748400  1
  O  O25  1  0.56366900  0.56351200  0.68533500  1
  O  O26  1  0.06437700  0.06428600  0.18692700  1
  O  O27  1  0.06428600  0.06437700  0.68441000  1
loop_
_geom_bond_atom_site_label_1
_geom_bond_atom_site_label_2
_geom_bond_distance
_geom_bond_site_symmetry_2
Ca0 O16 2.466347 1_445
Ca0 O27 2.466347 1_555
Ca0 O26 2.466347 1_555
Ca0 O17 2.466347 1_445
Ca0 O22 2.468501 1_545
Ca0 O20 2.468501 1_455
Ca0 O15 2.468501 1_455
Ca0 O13 2.468501 1_545
Ca1 O21 2.466347 1_554
Ca1 O23 2.466347 1_554
Ca1 O14 2.466347 1_555
Ca1 O12 2.466347 1_555
Ca1 O24 2.468501 1_555
Ca1 O19 2.468501 1_555
Ca1 O25 2.468501 1_554
Ca1 O18 2.468501 1_554
Ca2 O26 2.481113 1_555
Ca2 O21 2.481113 1_454
Ca2 O23 2.481113 1_544
Ca2 O27 2.481113 1_554
Ca2 O14 2.481113 1_455
Ca2 O12 2.481113 1_545
Ca2 O17 2.481113 1_445
Ca2 O16 2.481113 1_444
Nd0 O25 2.455835 1_555
Nd0 O22 2.455835 1_555
Nd0 O20 2.455835 1_555
Nd0 O18 2.455835 1_555
Nd0 O24 2.455835 1_555
Nd0 O19 2.455835 1_555
Nd0 O15 2.455835 1_555
Nd0 O13 2.455835 1_555
Cu0 O12 1.896743 1_556
Cu0 O16 1.896743 1_455
Cu0 O18 1.923069 1_555
Cu0 O13 1.923069 1_555
Cu0 O0 2.288798 1_555
Cu1 O12 1.895059 1_555
Cu1 O17 1.895059 1_455
Cu1 O13 1.921236 1_555
Cu1 O19 1.921236 1_555
Cu1 O1 2.349312 1_555
Cu2 O14 1.895059 1_556
Cu2 O16 1.895059 1_545
Cu2 O18 1.921236 1_555
Cu2 O15 1.921236 1_555
Cu2 O2 2.349312 1_555
Cu3 O17 1.896743 1_545
Cu3 O14 1.896743 1_555
Cu3 O15 1.923069 1_555
Cu3 O19 1.923069 1_555
Cu3 O3 2.288798 1_555
Cu4 O26 1.896743 1_655
Cu4 O21 1.896743 1_554
Cu4 O20 1.923069 1_555
Cu4 O24 1.923069 1_555
Cu4 O4 2.288798 1_555
Cu5 O21 1.895059 1_555
Cu5 O27 1.895059 1_655
Cu5 O20 1.921236 1_555
Cu5 O25 1.921236 1_555
Cu5 O5 2.349312 1_555
Cu6 O26 1.895059 1_565
Cu6 O23 1.895059 1_554
Cu6 O22 1.921236 1_555
Cu6 O24 1.921236 1_555
Cu6 O6 2.349312 1_555
Cu7 O23 1.896743 1_555
Cu7 O27 1.896743 1_565
Cu7 O25 1.923069 1_555
Cu7 O22 1.923069 1_555
Cu7 O7 2.288798 1_555
O0 Pb1 2.143942 1_556
O0 Sr3 2.723495 1_555
O0 Sr2 2.738114 1_556
O0 Sr1 2.738114 1_455
O0 Sr0 2.743064 1_456
O1 Tl1 2.095914 1_555
O1 Sr3 2.728955 1_555
O1 Sr1 2.746542 1_455
O1 Sr2 2.746542 1_555
O1 Sr0 2.755891 1_455
O2 Tl0 2.095914 1_556
O2 Sr3 2.728955 1_555
O2 Sr2 2.746542 1_556
O2 Sr1 2.746542 1_545
O2 Sr0 2.755891 1_546
O3 Pb0 2.143942 1_555
O3 Sr3 2.723495 1_555
O3 Sr2 2.738114 1_555
O3 Sr1 2.738114 1_545
O3 Sr0 2.743064 1_545
O4 Pb1 2.143942 1_655
O4 Sr4 2.723495 1_555
O4 Sr6 2.738114 1_655
O4 Sr5 2.738114 1_554
O4 Sr7 2.743064 1_654
O5 Tl1 2.095914 1_655
O5 Sr4 2.728955 1_555
O5 Sr5 2.746542 1_555
O5 Sr6 2.746542 1_655
O5 Sr7 2.755891 1_655
O6 Tl0 2.095914 1_565
O6 Sr4 2.728955 1_555
O6 Sr5 2.746542 1_554
O6 Sr6 2.746542 1_565
O6 Sr7 2.755891 1_564
O7 Pb0 2.143942 1_565
O7 Sr4 2.723495 1_555
O7 Sr6 2.738114 1_565
O7 Sr5 2.738114 1_555
O7 Sr7 2.743064 1_565
O8 Sr4 2.589283 1_555
O8 Sr0 2.627655 1_555
O8 Pb0 2.693420 1_565
O8 Pb1 2.693420 1_655
O8 Tl1 2.694007 1_655
O8 Tl0 2.694007 1_565
O9 Sr5 2.633421 1_555
O9 Sr1 2.633421 1_555
O9 Tl1 2.693414 1_655
O9 Tl0 2.693414 1_566
O9 Pb0 2.694001 1_565
O9 Pb1 2.694001 1_656
O10 Sr2 2.633421 1_555
O10 Sr6 2.633421 1_555
O10 Tl1 2.693414 1_555
O10 Tl0 2.693414 1_555
O10 Pb1 2.694001 1_555
O10 Pb0 2.694001 1_555
O11 Sr3 2.589283 1_555
O11 Sr7 2.627655 1_555
O11 Pb1 2.693420 1_556
O11 Pb0 2.693420 1_555
O11 Tl1 2.694007 1_555
O11 Tl0 2.694007 1_556
O12 Sr2 2.699175 1_555
O12 Sr0 2.712866 1_455
O13 Sr1 2.724601 1_455
O13 Sr3 2.748843 1_555
O14 Sr2 2.699175 1_555
O14 Sr0 2.712866 1_545
O15 Sr1 2.724601 1_545
O15 Sr3 2.748843 1_555
O16 Sr1 2.699175 1_555
O16 Sr0 2.712866 1_556
O17 Sr1 2.699175 1_555
O17 Sr0 2.712866 1_555
O18 Sr2 2.724601 1_556
O18 Sr3 2.748843 1_555
O19 Sr2 2.724601 1_555
O19 Sr3 2.748843 1_555
O20 Sr6 2.724601 1_655
O20 Sr4 2.748843 1_555
O21 Sr5 2.699175 1_555
O21 Sr7 2.712866 1_655
O22 Sr6 2.724601 1_565
O22 Sr4 2.748843 1_555
O23 Sr5 2.699175 1_555
O23 Sr7 2.712866 1_565
O24 Sr5 2.724601 1_554
O24 Sr4 2.748843 1_555
O25 Sr5 2.724601 1_555
O25 Sr4 2.748843 1_555
O26 Sr6 2.699175 1_555
O26 Sr7 2.712866 1_554
O27 Sr6 2.699175 1_555
O27 Sr7 2.712866 1_555
