# generated using pymatgen
data_RbGe
_symmetry_space_group_name_H-M   'P 1'
_cell_length_a   11.11021974
_cell_length_b   11.11021974
_cell_length_c   11.96731132
_cell_angle_alpha   117.65782124
_cell_angle_beta   117.65782124
_cell_angle_gamma   90.00000000
_symmetry_Int_Tables_number   1
_chemical_formula_structural   RbGe
_chemical_formula_sum   'Rb16 Ge16'
_cell_volume   1114.34334986
_cell_formula_units_Z   16
loop_
 _symmetry_equiv_pos_site_id
 _symmetry_equiv_pos_as_xyz
  1  'x, y, z'
loop_
 _atom_site_type_symbol
 _atom_site_label
 _atom_site_symmetry_multiplicity
 _atom_site_fract_x
 _atom_site_fract_y
 _atom_site_fract_z
 _atom_site_occupancy
  Rb  Rb0  1  0.25000000  0.39256924  0.00000000  1
  Rb  Rb1  1  0.25000000  0.89256924  0.00000000  1
  Rb  Rb2  1  0.10743076  0.75000000  0.50000000  1
  Rb  Rb3  1  0.89256924  0.25000000  0.50000000  1
  Rb  Rb4  1  0.75000000  0.60743076  -0.00000000  1
  Rb  Rb5  1  0.75000000  0.10743076  -0.00000000  1
  Rb  Rb6  1  0.60743076  0.75000000  0.50000000  1
  Rb  Rb7  1  0.39256924  0.25000000  0.50000000  1
  Rb  Rb8  1  0.75399565  0.24600435  0.75000000  1
  Rb  Rb9  1  0.49600435  0.74600435  0.75000000  1
  Rb  Rb10  1  0.00399565  0.99600435  0.25000000  1
  Rb  Rb11  1  0.74600435  0.49600435  0.25000000  1
  Rb  Rb12  1  0.24600435  0.75399565  0.25000000  1
  Rb  Rb13  1  0.50399565  0.25399565  0.25000000  1
  Rb  Rb14  1  0.99600435  0.00399565  0.75000000  1
  Rb  Rb15  1  0.25399565  0.50399565  0.75000000  1
  Ge  Ge0  1  0.27434999  0.48517655  0.35038834  1
  Ge  Ge1  1  0.57603735  0.98517655  0.35038834  1
  Ge  Ge2  1  0.36521179  0.07603735  0.85038834  1
  Ge  Ge3  1  0.98517655  0.57603735  0.85038834  1
  Ge  Ge4  1  0.72565001  0.51482345  0.64961166  1
  Ge  Ge5  1  0.42396265  0.01482345  0.64961166  1
  Ge  Ge6  1  0.63478821  0.92396265  0.14961166  1
  Ge  Ge7  1  0.01482345  0.42396265  0.14961166  1
  Ge  Ge8  1  0.77434999  0.86521179  0.35038834  1
  Ge  Ge9  1  0.07603735  0.36521179  0.35038834  1
  Ge  Ge10  1  0.86521179  0.77434999  0.85038834  1
  Ge  Ge11  1  0.48517655  0.27434999  0.85038834  1
  Ge  Ge12  1  0.22565001  0.13478821  0.64961166  1
  Ge  Ge13  1  0.92396265  0.63478821  0.64961166  1
  Ge  Ge14  1  0.13478821  0.22565001  0.14961166  1
  Ge  Ge15  1  0.51482345  0.72565001  0.14961166  1
loop_
_geom_bond_atom_site_label_1
_geom_bond_atom_site_label_2
_geom_bond_distance
_geom_bond_site_symmetry_2
Rb0 Rb15 3.747988 1_554
Rb0 Rb12 3.747989 1_555
Rb0 Rb13 3.965211 1_555
Rb0 Rb14 3.965212 1_454
Rb1 Rb14 3.747989 1_464
Rb1 Rb13 3.747989 1_565
Rb1 Rb12 3.965211 1_555
Rb1 Rb15 3.965212 1_554
Rb2 Rb9 3.965212 1_555
Rb3 Rb8 3.965211 1_555
Rb4 Rb8 3.747989 1_554
Rb4 Rb9 3.965211 1_554
Rb5 Rb9 3.747989 1_544
Rb5 Rb8 3.965211 1_554
Rb6 Rb9 3.747988 1_555
Rb7 Rb8 3.747989 1_555
Rb10 Rb3 3.747989 1_465
Rb10 Rb5 3.747989 1_465
Rb10 Rb12 3.802495 1_555
Rb10 Rb7 3.965212 1_565
Rb10 Rb4 3.965212 1_455
Rb11 Rb4 3.747988 1_555
Rb11 Rb2 3.747989 1_655
Rb11 Rb13 3.802495 1_555
Rb11 Rb6 3.965211 1_555
Rb11 Rb5 3.965212 1_555
Rb12 Rb6 3.747989 1_555
Rb12 Rb2 3.965211 1_555
Rb13 Rb7 3.747988 1_555
Rb13 Rb3 3.965212 1_555
Rb14 Rb2 3.747989 1_645
Rb14 Rb8 3.802495 1_555
Rb14 Rb6 3.965212 1_545
Rb15 Rb3 3.747989 1_455
Rb15 Rb9 3.802495 1_555
Rb15 Rb7 3.965211 1_555
Ge0 Ge14 2.569193 1_555
Ge0 Ge7 2.569195 1_555
Ge0 Ge9 2.575066 1_555
Ge0 Rb12 3.666383 1_555
Ge0 Rb2 3.673374 1_555
Ge0 Rb9 3.678716 1_555
Ge0 Rb0 3.695440 1_555
Ge0 Rb7 3.730659 1_555
Ge0 Rb6 3.809870 1_555
Ge0 Rb13 3.811960 1_555
Ge1 Ge15 2.569195 1_555
Ge1 Ge6 2.569202 1_555
Ge1 Ge8 2.575066 1_555
Ge1 Rb13 3.666382 1_565
Ge1 Rb3 3.673382 1_565
Ge1 Rb8 3.678715 1_565
Ge1 Rb1 3.695435 1_555
Ge1 Rb6 3.730657 1_555
Ge1 Rb7 3.809861 1_565
Ge1 Rb12 3.811951 1_555
Ge2 Ge5 2.569202 1_555
Ge2 Rb14 3.666382 1_455
Ge2 Rb0 3.673382 1_556
Ge2 Rb13 3.678715 1_556
Ge2 Rb2 3.695436 1_545
Ge2 Rb5 3.730658 1_556
Ge2 Rb1 3.809861 1_546
Ge2 Rb9 3.811951 1_545
Ge3 Ge4 2.569195 1_555
Ge3 Rb15 3.666382 1_655
Ge3 Rb1 3.673382 1_656
Ge3 Rb12 3.678715 1_656
Ge3 Rb3 3.695435 1_555
Ge3 Rb4 3.730657 1_556
Ge3 Rb0 3.809861 1_656
Ge3 Rb8 3.811951 1_555
Ge4 Rb8 3.666383 1_555
Ge4 Rb3 3.673374 1_555
Ge4 Rb13 3.678716 1_555
Ge4 Rb4 3.695440 1_556
Ge4 Rb6 3.730659 1_555
Ge4 Rb7 3.809870 1_555
Ge4 Rb9 3.811960 1_555
Ge5 Rb9 3.666382 1_545
Ge5 Rb2 3.673382 1_545
Ge5 Rb12 3.678715 1_545
Ge5 Rb5 3.695435 1_556
Ge5 Rb7 3.730657 1_555
Ge5 Rb6 3.809861 1_545
Ge5 Rb8 3.811951 1_555
Ge6 Ge8 2.569200 1_555
Ge6 Rb10 3.666382 1_655
Ge6 Rb4 3.673382 1_555
Ge6 Rb9 3.678715 1_554
Ge6 Rb3 3.695436 1_565
Ge6 Rb1 3.730658 1_555
Ge6 Rb5 3.809861 1_565
Ge6 Rb13 3.811951 1_565
Ge7 Ge9 2.569202 1_555
Ge7 Rb11 3.666382 1_455
Ge7 Rb5 3.673382 1_455
Ge7 Rb8 3.678715 1_454
Ge7 Rb2 3.695435 1_555
Ge7 Rb0 3.730657 1_555
Ge7 Rb4 3.809861 1_455
Ge7 Rb12 3.811951 1_555
Ge8 Rb11 3.666383 1_555
Ge8 Rb6 3.673373 1_555
Ge8 Rb14 3.678716 1_565
Ge8 Rb4 3.695440 1_555
Ge8 Rb3 3.730659 1_565
Ge8 Rb2 3.809870 1_655
Ge8 Rb10 3.811960 1_655
Ge9 Rb10 3.666382 1_545
Ge9 Rb7 3.673382 1_555
Ge9 Rb15 3.678715 1_555
Ge9 Rb5 3.695436 1_455
Ge9 Rb2 3.730658 1_555
Ge9 Rb3 3.809861 1_455
Ge9 Rb11 3.811951 1_455
Ge10 Ge4 2.569193 1_555
Ge10 Ge13 2.569200 1_555
Ge10 Ge3 2.575066 1_555
Ge10 Rb9 3.666383 1_555
Ge10 Rb4 3.673373 1_556
Ge10 Rb10 3.678716 1_656
Ge10 Rb6 3.695440 1_555
Ge10 Rb1 3.730659 1_656
Ge10 Rb5 3.809870 1_566
Ge10 Rb14 3.811960 1_565
Ge11 Ge12 2.569193 1_555
Ge11 Ge5 2.569195 1_555
Ge11 Ge2 2.575066 1_555
Ge11 Rb8 3.666383 1_555
Ge11 Rb5 3.673374 1_556
Ge11 Rb11 3.678716 1_556
Ge11 Rb7 3.695440 1_555
Ge11 Rb0 3.730659 1_556
Ge11 Rb4 3.809870 1_556
Ge11 Rb15 3.811960 1_555
Ge12 Ge2 2.569200 1_555
Ge12 Ge5 2.575066 1_555
Ge12 Rb15 3.666383 1_555
Ge12 Rb7 3.673373 1_555
Ge12 Rb10 3.678716 1_545
Ge12 Rb0 3.695440 1_556
Ge12 Rb2 3.730659 1_545
Ge12 Rb3 3.809870 1_455
Ge12 Rb14 3.811960 1_455
Ge13 Ge3 2.569202 1_555
Ge13 Ge4 2.575066 1_555
Ge13 Rb14 3.666382 1_565
Ge13 Rb6 3.673382 1_555
Ge13 Rb11 3.678715 1_555
Ge13 Rb1 3.695436 1_656
Ge13 Rb3 3.730658 1_555
Ge13 Rb2 3.809861 1_655
Ge13 Rb15 3.811951 1_655
Ge14 Ge9 2.569200 1_555
Ge14 Ge7 2.575066 1_555
Ge14 Rb13 3.666383 1_555
Ge14 Rb0 3.673373 1_555
Ge14 Rb14 3.678716 1_454
Ge14 Rb7 3.695440 1_555
Ge14 Rb5 3.730659 1_455
Ge14 Rb1 3.809870 1_545
Ge14 Rb10 3.811960 1_545
Ge15 Ge8 2.569193 1_555
Ge15 Ge6 2.575066 1_555
Ge15 Rb12 3.666383 1_555
Ge15 Rb1 3.673374 1_555
Ge15 Rb15 3.678716 1_554
Ge15 Rb6 3.695440 1_555
Ge15 Rb4 3.730659 1_555
Ge15 Rb0 3.809870 1_555
Ge15 Rb11 3.811960 1_555
