# generated using pymatgen
data_Pr3ReO7
_symmetry_space_group_name_H-M   'P 1'
_cell_length_a   6.70730144
_cell_length_b   6.70730144
_cell_length_c   7.68737500
_cell_angle_alpha   90.00000000
_cell_angle_beta   90.00000000
_cell_angle_gamma   111.40848072
_symmetry_Int_Tables_number   1
_chemical_formula_structural   Pr3ReO7
_chemical_formula_sum   'Pr6 Re2 O14'
_cell_volume   321.97654583
_cell_formula_units_Z   2
loop_
 _symmetry_equiv_pos_site_id
 _symmetry_equiv_pos_as_xyz
  1  'x, y, z'
loop_
 _atom_site_type_symbol
 _atom_site_label
 _atom_site_symmetry_multiplicity
 _atom_site_fract_x
 _atom_site_fract_y
 _atom_site_fract_z
 _atom_site_occupancy
  Pr  Pr0  1  0.02637000  0.58089100  0.25000000  1
  Pr  Pr1  1  0.97363000  0.41910900  0.75000000  1
  Pr  Pr2  1  0.50000000  0.50000000  0.50000000  1
  Pr  Pr3  1  0.50000000  0.50000000  0.00000000  1
  Pr  Pr4  1  0.41910900  0.97363000  0.75000000  1
  Pr  Pr5  1  0.58089100  0.02637000  0.25000000  1
  Re  Re0  1  0.00000000  0.00000000  0.00000000  1
  Re  Re1  1  0.00000000  0.00000000  0.50000000  1
  O  O0  1  0.60619600  0.34354400  0.75000000  1
  O  O1  1  0.39380400  0.65645600  0.25000000  1
  O  O2  1  0.34354400  0.60619600  0.75000000  1
  O  O3  1  0.65645600  0.39380400  0.25000000  1
  O  O4  1  0.30940500  0.05910200  0.03741100  1
  O  O5  1  0.69059500  0.94089800  0.53741100  1
  O  O6  1  0.05910200  0.30940500  0.46258900  1
  O  O7  1  0.94089800  0.69059500  0.96258900  1
  O  O8  1  0.92319300  0.92319300  0.25000000  1
  O  O9  1  0.07680700  0.07680700  0.75000000  1
  O  O10  1  0.05910200  0.30940500  0.03741100  1
  O  O11  1  0.94089800  0.69059500  0.53741100  1
  O  O12  1  0.30940500  0.05910200  0.46258900  1
  O  O13  1  0.69059500  0.94089800  0.96258900  1
loop_
_geom_bond_atom_site_label_1
_geom_bond_atom_site_label_2
_geom_bond_distance
_geom_bond_site_symmetry_2
O0 Pr1 2.327815 1_555
O0 Pr4 2.336178 1_545
O0 Pr2 2.418212 1_555
O0 Pr3 2.418212 1_556
O0 O2 2.910799 1_555
O0 O7 3.051912 1_555
O0 O11 3.051912 1_555
O1 Pr0 2.327815 1_555
O1 Pr5 2.336178 1_565
O1 Pr3 2.418212 1_555
O1 Pr2 2.418212 1_555
O1 O3 2.910799 1_555
O1 O10 3.051912 1_555
O1 O6 3.051912 1_555
O2 Pr4 2.327815 1_555
O2 Pr1 2.336178 1_455
O2 Pr2 2.418212 1_555
O2 Pr3 2.418212 1_556
O2 O5 3.051912 1_555
O3 Pr5 2.327815 1_555
O3 Pr0 2.336178 1_655
O3 Pr3 2.418212 1_555
O3 Pr2 2.418212 1_555
O3 O4 3.051912 1_555
O4 Re0 1.986464 1_555
O4 Pr4 2.461635 1_544
O4 Pr5 2.515282 1_555
O4 O9 2.732195 1_554
O4 Pr3 2.775311 1_555
O5 Re1 1.986464 1_665
O5 Pr5 2.461635 1_565
O5 Pr4 2.515282 1_555
O5 O8 2.732195 1_555
O5 Pr2 2.775311 1_555
O6 Re1 1.986464 1_555
O6 Pr1 2.461635 1_455
O6 Pr0 2.515282 1_555
O6 O9 2.732195 1_555
O6 Pr2 2.775311 1_555
O7 Re0 1.986464 1_666
O7 Pr0 2.461635 1_656
O7 Pr1 2.515282 1_555
O7 O8 2.732195 1_556
O7 Pr3 2.775311 1_556
O8 Re0 2.007618 1_665
O8 Re1 2.007618 1_665
O8 Pr5 2.628707 1_565
O8 Pr0 2.628707 1_655
O9 Re1 2.007618 1_555
O9 Re0 2.007618 1_556
O9 Pr1 2.628707 1_455
O9 Pr4 2.628707 1_545
O10 Re0 1.986464 1_555
O10 Pr1 2.461635 1_454
O10 Pr0 2.515282 1_555
O10 O9 2.732195 1_554
O10 O4 2.773943 1_555
O10 Pr3 2.775311 1_555
O11 Re1 1.986464 1_665
O11 Pr0 2.461635 1_655
O11 Pr1 2.515282 1_555
O11 O8 2.732195 1_555
O11 O5 2.773943 1_555
O11 Pr2 2.775311 1_555
O12 Re1 1.986464 1_555
O12 Pr4 2.461635 1_545
O12 Pr5 2.515282 1_555
O12 O9 2.732195 1_555
O12 O6 2.773943 1_555
O12 Pr2 2.775311 1_555
O12 O3 3.051912 1_555
O13 Re0 1.986464 1_666
O13 Pr5 2.461635 1_566
O13 Pr4 2.515282 1_555
O13 O8 2.732195 1_556
O13 O7 2.773943 1_555
O13 Pr3 2.775311 1_556
O13 O2 3.051912 1_555
