# generated using pymatgen
data_Li2AlCoO4
_symmetry_space_group_name_H-M   'P 1'
_cell_length_a   2.86278719
_cell_length_b   4.95413726
_cell_length_c   19.30189067
_cell_angle_alpha   94.39493723
_cell_angle_beta   90.20910571
_cell_angle_gamma   90.59841304
_symmetry_Int_Tables_number   1
_chemical_formula_structural   Li2AlCoO4
_chemical_formula_sum   'Li8 Al4 Co4 O16'
_cell_volume   272.92921437
_cell_formula_units_Z   4
loop_
 _symmetry_equiv_pos_site_id
 _symmetry_equiv_pos_as_xyz
  1  'x, y, z'
loop_
 _atom_site_type_symbol
 _atom_site_label
 _atom_site_symmetry_multiplicity
 _atom_site_fract_x
 _atom_site_fract_y
 _atom_site_fract_z
 _atom_site_occupancy
  Li  Li0  1  0.49956500  0.99485600  0.50220300  1
  Li  Li1  1  0.99952700  0.24865400  0.75472200  1
  Li  Li2  1  0.49907700  0.50127000  0.00228100  1
  Li  Li3  1  0.00264300  0.74689600  0.25110700  1
  Li  Li4  1  0.49816100  0.75628600  0.74890800  1
  Li  Li5  1  0.99965100  0.00018300  0.99723900  1
  Li  Li6  1  0.50102000  0.24885600  0.24686400  1
  Li  Li7  1  0.99884100  0.50527200  0.49680000  1
  Al  Al0  1  0.49945200  0.37565800  0.62556600  1
  Al  Al1  1  0.99968000  0.62568600  0.87484600  1
  Al  Al2  1  0.50041500  0.87454500  0.12446400  1
  Al  Al3  1  0.00054400  0.12376000  0.37520200  1
  Co  Co0  1  0.99920700  0.87566600  0.62545500  1
  Co  Co1  1  0.49978800  0.12545600  0.87463600  1
  Co  Co2  1  0.00040200  0.37442300  0.12456400  1
  Co  Co3  1  0.50117300  0.62389600  0.37517400  1
  O  O0  1  0.52424900  0.67542900  0.56929200  1
  O  O1  1  0.99656300  0.93787500  0.82107800  1
  O  O2  1  0.50249500  0.17779300  0.06732200  1
  O  O3  1  0.02541400  0.42363700  0.31939700  1
  O  O4  1  0.47358100  0.07521700  0.68157800  1
  O  O5  1  0.00272300  0.31234400  0.92767800  1
  O  O6  1  0.49913000  0.57164000  0.18183300  1
  O  O7  1  0.97647400  0.82499000  0.43177900  1
  O  O8  1  0.99599600  0.19290400  0.57239200  1
  O  O9  1  0.49858600  0.44659900  0.82075000  1
  O  O10  1  0.99744700  0.70378400  0.06946200  1
  O  O11  1  0.49714000  0.94177500  0.32242000  1
  O  O12  1  0.00291800  0.55910400  0.67861100  1
  O  O13  1  0.50134500  0.80404400  0.92782000  1
  O  O14  1  0.00334300  0.04462900  0.17963200  1
  O  O15  1  0.50345100  0.30687400  0.42892600  1
loop_
_geom_bond_atom_site_label_1
_geom_bond_atom_site_label_2
_geom_bond_distance
_geom_bond_site_symmetry_2
Li0 O7 2.069341 1_555
Li0 O0 2.121761 1_555
Li0 O8 2.137975 1_565
Li0 O7 2.140544 1_455
Li0 O8 2.171732 1_465
Li0 O15 2.173679 1_565
Li1 O1 2.076786 1_545
Li1 O9 2.095951 1_655
Li1 O4 2.103733 1_655
Li1 O9 2.119836 1_555
Li1 O4 2.184055 1_555
Li1 O12 2.206779 1_655
Li2 O2 2.110191 1_555
Li2 O10 2.116794 1_555
Li2 O10 2.143507 1_455
Li2 O13 2.155439 1_554
Li2 O5 2.172420 1_554
Li2 O5 2.205727 1_654
Li3 O14 2.095423 1_565
Li3 O6 2.097945 1_455
Li3 O6 2.103248 1_555
Li3 O11 2.141117 1_555
Li3 O3 2.152090 1_555
Li3 O11 2.181990 1_455
Li4 O4 2.122911 1_565
Li4 O1 2.133597 1_555
Li4 O12 2.135257 1_555
Li4 O9 2.145428 1_555
Li4 O1 2.159012 1_455
Li4 O12 2.173491 1_655
Li5 O10 2.100759 1_546
Li5 O2 2.110282 1_656
Li5 O2 2.118385 1_556
Li5 O5 2.124258 1_655
Li5 O13 2.128886 1_545
Li5 O13 2.155464 1_645
Li6 O3 2.101528 1_555
Li6 O6 2.107261 1_555
Li6 O14 2.119616 1_555
Li6 O14 2.149062 1_655
Li6 O3 2.176058 1_655
Li6 O11 2.186595 1_545
Li7 O0 2.090799 1_555
Li7 O7 2.096239 1_555
Li7 O15 2.110374 1_555
Li7 O15 2.148346 1_655
Li7 O0 2.169852 1_655
Li7 O8 2.206723 1_555
Al0 O4 1.906480 1_555
Al0 O0 1.906827 1_555
Al0 O8 1.941643 1_455
Al0 O12 1.941881 1_655
Al0 O8 1.946514 1_555
Al0 O12 1.946749 1_555
Al1 O5 1.921606 1_655
Al1 O13 1.926948 1_655
Al1 O1 1.927547 1_555
Al1 O9 1.937985 1_555
Al1 O13 1.939083 1_555
Al1 O9 1.952620 1_655
Al2 O2 1.930634 1_565
Al2 O6 1.932015 1_555
Al2 O10 1.934371 1_455
Al2 O14 1.934635 1_665
Al2 O10 1.940596 1_555
Al2 O14 1.940994 1_565
Al3 O3 1.901581 1_555
Al3 O7 1.906382 1_445
Al3 O11 1.936242 1_445
Al3 O11 1.941246 1_545
Al3 O15 1.946459 1_555
Al3 O15 1.953707 1_455
Co0 O12 1.938873 1_655
Co0 O8 1.940643 1_565
Co0 O4 1.947349 1_665
Co0 O0 1.950457 1_555
Co0 O4 2.072187 1_565
Co0 O0 2.072853 1_655
Co1 O5 1.947960 1_655
Co1 O1 1.954895 1_445
Co1 O5 1.955301 1_555
Co1 O13 1.959578 1_545
Co1 O1 1.961104 1_545
Co1 O9 1.966409 1_555
Co2 O2 1.999001 1_455
Co2 O6 2.002201 1_555
Co2 O10 2.014919 1_455
Co2 O14 2.016357 1_555
Co2 O6 2.027605 1_455
Co2 O2 2.027721 1_555
Co3 O11 1.939865 1_555
Co3 O15 1.947582 1_555
Co3 O3 1.948271 1_555
Co3 O7 1.957479 1_555
Co3 O3 2.067588 1_655
Co3 O7 2.078213 1_455
