# generated using pymatgen
data_DyRe3O16
_symmetry_space_group_name_H-M   'P 1'
_cell_length_a   8.61584400
_cell_length_b   11.44100900
_cell_length_c   14.67841100
_cell_angle_alpha   90.00000000
_cell_angle_beta   90.00000000
_cell_angle_gamma   90.00000000
_symmetry_Int_Tables_number   1
_chemical_formula_structural   DyRe3O16
_chemical_formula_sum   'Dy4 Re12 O64'
_cell_volume   1446.90893360
_cell_formula_units_Z   4
loop_
 _symmetry_equiv_pos_site_id
 _symmetry_equiv_pos_as_xyz
  1  'x, y, z'
loop_
 _atom_site_type_symbol
 _atom_site_label
 _atom_site_symmetry_multiplicity
 _atom_site_fract_x
 _atom_site_fract_y
 _atom_site_fract_z
 _atom_site_occupancy
  Dy  Dy0  1  0.76836200  0.24344200  0.67231800  1
  Dy  Dy1  1  0.23163800  0.74344200  0.32768200  1
  Dy  Dy2  1  0.26836200  0.74344200  0.82768200  1
  Dy  Dy3  1  0.73163800  0.24344200  0.17231800  1
  Re  Re0  1  0.09739200  0.99889500  0.67051100  1
  Re  Re1  1  0.90260800  0.49889500  0.32948900  1
  Re  Re2  1  0.59739200  0.49889500  0.82948900  1
  Re  Re3  1  0.40260800  0.99889500  0.17051100  1
  Re  Re4  1  0.10081100  0.41161600  0.81707600  1
  Re  Re5  1  0.89918900  0.91161600  0.18292400  1
  Re  Re6  1  0.60081100  0.91161600  0.68292400  1
  Re  Re7  1  0.39918900  0.41161600  0.31707600  1
  Re  Re8  1  0.81213600  0.10198600  0.91769500  1
  Re  Re9  1  0.18786400  0.60198600  0.08230500  1
  Re  Re10  1  0.31213600  0.60198600  0.58230500  1
  Re  Re11  1  0.68786400  0.10198600  0.41769500  1
  O  O0  1  0.02756200  0.92917800  0.57431300  1
  O  O1  1  0.97243800  0.42917800  0.42568700  1
  O  O2  1  0.52756200  0.42917800  0.92568700  1
  O  O3  1  0.47243800  0.92917800  0.07431300  1
  O  O4  1  0.96291600  0.10996200  0.70259900  1
  O  O5  1  0.03708400  0.60996200  0.29740100  1
  O  O6  1  0.46291600  0.60996200  0.79740100  1
  O  O7  1  0.53708400  0.10996200  0.20259900  1
  O  O8  1  0.77153900  0.56546900  0.85591300  1
  O  O9  1  0.22846100  0.06546900  0.14408700  1
  O  O10  1  0.27153900  0.06546900  0.64408700  1
  O  O11  1  0.72846100  0.56546900  0.35591300  1
  O  O12  1  0.12809600  0.89658700  0.76035600  1
  O  O13  1  0.87190400  0.39658700  0.23964400  1
  O  O14  1  0.62809600  0.39658700  0.73964400  1
  O  O15  1  0.37190400  0.89658700  0.26035600  1
  O  O16  1  0.03353200  0.38106900  0.92547600  1
  O  O17  1  0.96646800  0.88106900  0.07452400  1
  O  O18  1  0.53353200  0.88106900  0.57452400  1
  O  O19  1  0.46646800  0.38106900  0.42547600  1
  O  O20  1  0.77190000  0.83368500  0.69880000  1
  O  O21  1  0.22810000  0.33368500  0.30120000  1
  O  O22  1  0.27190000  0.33368500  0.80120000  1
  O  O23  1  0.72810000  0.83368500  0.19880000  1
  O  O24  1  0.95751200  0.36726400  0.73667300  1
  O  O25  1  0.04248800  0.86726300  0.26332700  1
  O  O26  1  0.45751200  0.86726300  0.76332700  1
  O  O27  1  0.54248800  0.36726400  0.23667300  1
  O  O28  1  0.14113800  0.56376400  0.80974200  1
  O  O29  1  0.85886200  0.06376400  0.19025800  1
  O  O30  1  0.64113800  0.06376400  0.69025800  1
  O  O31  1  0.35886200  0.56376400  0.30974200  1
  O  O32  1  0.74604900  0.15622700  0.52682000  1
  O  O33  1  0.25395100  0.65622700  0.47318000  1
  O  O34  1  0.24604900  0.65622700  0.97318000  1
  O  O35  1  0.75395100  0.15622700  0.02682000  1
  O  O36  1  0.25704700  0.70285900  0.66788800  1
  O  O37  1  0.74295300  0.20285900  0.33211200  1
  O  O38  1  0.75704700  0.20285900  0.83211200  1
  O  O39  1  0.24295300  0.70285900  0.16788800  1
  O  O40  1  0.21977800  0.47067100  0.60658600  1
  O  O41  1  0.78022200  0.97067100  0.39341400  1
  O  O42  1  0.71977800  0.97067100  0.89341400  1
  O  O43  1  0.28022200  0.47067100  0.10658600  1
  O  O44  1  0.01114100  0.08062200  0.91387200  1
  O  O45  1  0.98885900  0.58062200  0.08612800  1
  O  O46  1  0.51114100  0.58062200  0.58612800  1
  O  O47  1  0.48885900  0.08062200  0.41387200  1
  O  O48  1  0.75823600  0.41574800  0.57780100  1
  O  O49  1  0.24176400  0.91574800  0.42219900  1
  O  O50  1  0.25823600  0.91574800  0.92219900  1
  O  O51  1  0.74176400  0.41574800  0.07780100  1
  O  O52  1  0.91063700  0.65654600  0.58732800  1
  O  O53  1  0.08936300  0.15654600  0.41267200  1
  O  O54  1  0.41063700  0.15654600  0.91267200  1
  O  O55  1  0.58936300  0.65654600  0.08732800  1
  O  O56  1  0.00184600  0.76181900  0.87943000  1
  O  O57  1  0.99815400  0.26181900  0.12057000  1
  O  O58  1  0.50184600  0.26181900  0.62057000  1
  O  O59  1  0.49815400  0.76181900  0.37943000  1
  O  O60  1  0.01331800  0.27059300  0.57686500  1
  O  O61  1  0.98668200  0.77059300  0.42313500  1
  O  O62  1  0.51331800  0.77059300  0.92313500  1
  O  O63  1  0.48668200  0.27059300  0.07686500  1
loop_
_geom_bond_atom_site_label_1
_geom_bond_atom_site_label_2
_geom_bond_distance
_geom_bond_site_symmetry_2
Dy0 O4 2.310744 1_555
Dy0 O30 2.344518 1_555
Dy0 O14 2.346718 1_555
Dy0 O24 2.356925 1_555
Dy0 O32 2.365110 1_555
Dy0 O38 2.393024 1_555
Dy0 O48 2.412181 1_555
Dy0 O58 2.427751 1_555
Dy0 O60 2.552213 1_655
Dy1 O5 2.310744 1_555
Dy1 O31 2.344518 1_555
Dy1 O15 2.346718 1_555
Dy1 O25 2.356918 1_555
Dy1 O33 2.365110 1_555
Dy1 O39 2.393024 1_555
Dy1 O49 2.412181 1_555
Dy1 O59 2.427751 1_555
Dy1 O61 2.552213 1_455
Dy2 O6 2.310744 1_555
Dy2 O28 2.344518 1_555
Dy2 O12 2.346718 1_555
Dy2 O26 2.356918 1_555
Dy2 O34 2.365110 1_555
Dy2 O36 2.393024 1_555
Dy2 O50 2.412181 1_555
Dy2 O56 2.427751 1_555
Dy2 O62 2.552213 1_555
Dy3 O7 2.310744 1_555
Dy3 O29 2.344518 1_555
Dy3 O13 2.346718 1_555
Dy3 O27 2.356925 1_555
Dy3 O35 2.365110 1_555
Dy3 O37 2.393024 1_555
Dy3 O51 2.412181 1_555
Dy3 O57 2.427751 1_555
Dy3 O63 2.552213 1_555
O0 Re0 1.729750 1_555
O0 O61 2.887940 1_455
O0 O49 2.900854 1_555
O0 O52 3.283395 1_455
O0 O53 3.560867 1_565
O1 Re1 1.729750 1_555
O1 O60 2.887940 1_655
O1 O48 2.900854 1_555
O1 O53 3.283395 1_655
O1 O52 3.560867 1_555
O2 Re2 1.729750 1_555
O2 O63 2.887940 1_556
O2 O51 2.900854 1_556
O2 O54 3.283395 1_555
O2 O55 3.560867 1_556
O3 Re3 1.729750 1_555
O3 O62 2.887940 1_554
O3 O50 2.900854 1_554
O3 O55 3.283395 1_555
O3 O54 3.560867 1_564
O4 Re0 1.782969 1_645
O4 O60 2.640486 1_655
O5 Re1 1.782969 1_455
O5 O61 2.640486 1_455
O6 Re2 1.782969 1_555
O6 O62 2.640486 1_555
O7 Re3 1.782969 1_545
O8 Re2 1.726805 1_555
O9 Re3 1.726805 1_545
O10 Re0 1.726805 1_545
O10 O58 3.017128 1_555
O10 O60 3.380960 1_555
O11 Re1 1.726805 1_555
O11 O59 3.017128 1_555
O11 O61 3.380960 1_555
O12 Re0 1.783046 1_555
O12 O56 2.572055 1_555
O12 O50 2.636050 1_555
O13 Re1 1.783046 1_555
O13 O57 2.572055 1_555
O13 O51 2.636050 1_555
O14 Re2 1.783046 1_555
O14 O58 2.572055 1_555
O14 O48 2.636050 1_555
O15 Re3 1.783046 1_555
O15 O59 2.572055 1_555
O15 O49 2.636050 1_555
O16 Re4 1.729127 1_555
O16 O57 3.186682 1_456
O17 Re5 1.729127 1_555
O17 O56 3.186682 1_654
O18 Re6 1.729127 1_555
O18 O59 3.186682 1_555
O19 Re7 1.729127 1_555
O19 O58 3.186682 1_555
O20 Re6 1.738440 1_555
O20 O52 2.865901 1_555
O21 Re7 1.738440 1_555
O21 O53 2.865901 1_555
O22 Re4 1.738440 1_555
O22 O54 2.865901 1_555
O23 Re5 1.738440 1_555
O23 O55 2.865901 1_555
O24 Re4 1.781761 1_655
O24 O60 2.637591 1_655
O24 O48 2.948512 1_555
O25 Re5 1.781764 1_455
O25 O61 2.637586 1_455
O25 O49 2.948514 1_555
O26 Re6 1.781764 1_555
O26 O62 2.637586 1_555
O26 O50 2.948514 1_555
O27 Re7 1.781761 1_555
O27 O63 2.637591 1_555
O27 O51 2.948512 1_555
O28 Re4 1.778325 1_555
O28 O56 2.760643 1_555
O29 Re5 1.778325 1_545
O29 O57 2.760643 1_555
O30 Re6 1.778325 1_545
O30 O58 2.760643 1_555
O31 Re7 1.778325 1_555
O31 O59 2.760643 1_555
O32 Re11 1.789449 1_555
O32 O60 2.748514 1_655
O32 O58 2.789263 1_555
O32 O48 3.063829 1_555
O33 Re10 1.789449 1_555
O33 O61 2.748514 1_455
O33 O59 2.789263 1_555
O33 O49 3.063829 1_555
O34 Re9 1.789449 1_556
O34 O62 2.748514 1_555
O34 O56 2.789263 1_555
O34 O50 3.063829 1_555
O35 Re8 1.789449 1_554
O35 O63 2.748514 1_555
O35 O57 2.789263 1_555
O35 O51 3.063829 1_555
O36 Re10 1.770677 1_555
O36 O52 3.253763 1_455
O37 Re11 1.770677 1_555
O37 O53 3.253763 1_655
O38 Re8 1.770677 1_555
O38 O54 3.253763 1_555
O39 Re9 1.770677 1_555
O39 O55 3.253763 1_555
O40 Re10 1.737056 1_555
O40 O60 2.931638 1_555
O40 O52 3.420031 1_455
O41 Re11 1.737056 1_565
O41 O61 2.931638 1_555
O41 O53 3.420031 1_665
O42 Re8 1.737056 1_565
O42 O62 2.931638 1_555
O42 O54 3.420031 1_565
O43 Re9 1.737056 1_555
O43 O63 2.931638 1_555
O43 O55 3.420031 1_555
O44 Re8 1.732839 1_455
O44 O50 2.847018 1_545
O44 O54 3.549956 1_555
O45 Re9 1.732839 1_655
O45 O51 2.847018 1_555
O45 O55 3.549956 1_555
O46 Re10 1.732839 1_555
O46 O48 2.847018 1_555
O46 O52 3.549956 1_555
O47 Re11 1.732839 1_555
O47 O49 2.847018 1_545
O47 O53 3.549956 1_555
O48 O60 2.754681 1_655
O48 O58 2.894019 1_555
O48 O52 3.055088 1_555
O49 O61 2.754681 1_455
O49 O59 2.894019 1_555
O49 O53 3.055088 1_565
O50 O62 2.754681 1_555
O50 O56 2.894019 1_555
O50 O54 3.055088 1_565
O51 O63 2.754681 1_555
O51 O57 2.894019 1_555
O51 O55 3.055088 1_555
O52 O61 2.817864 1_555
O53 O60 2.817864 1_555
O54 O63 2.817864 1_556
O55 O62 2.817864 1_554
O56 O8 3.017128 1_455
O57 O9 3.017128 1_655
O62 O8 3.380960 1_555
O63 O7 2.640486 1_555
O63 O9 3.380960 1_555
