# generated using pymatgen
data_Ba2YV3O11
_symmetry_space_group_name_H-M   'P 1'
_cell_length_a   7.78427400
_cell_length_b   12.45504435
_cell_length_c   11.37661732
_cell_angle_alpha   103.26143707
_cell_angle_beta   90.00000000
_cell_angle_gamma   90.00000000
_symmetry_Int_Tables_number   1
_chemical_formula_structural   Ba2YV3O11
_chemical_formula_sum   'Ba8 Y4 V12 O44'
_cell_volume   1073.58938299
_cell_formula_units_Z   4
loop_
 _symmetry_equiv_pos_site_id
 _symmetry_equiv_pos_as_xyz
  1  'x, y, z'
loop_
 _atom_site_type_symbol
 _atom_site_label
 _atom_site_symmetry_multiplicity
 _atom_site_fract_x
 _atom_site_fract_y
 _atom_site_fract_z
 _atom_site_occupancy
  Ba  Ba0  1  0.27563200  0.77087400  0.94249700  1
  Ba  Ba1  1  0.72436800  0.22912600  0.05750300  1
  Ba  Ba2  1  0.77563200  0.22912600  0.55750300  1
  Ba  Ba3  1  0.22436800  0.77087400  0.44249700  1
  Ba  Ba4  1  0.74743200  0.55403000  0.88928000  1
  Ba  Ba5  1  0.25256800  0.44597000  0.11072000  1
  Ba  Ba6  1  0.24743200  0.44597000  0.61072000  1
  Ba  Ba7  1  0.75256800  0.55403000  0.38928000  1
  Y  Y0  1  0.50129700  0.99731700  0.71621500  1
  Y  Y1  1  0.49870300  0.00268300  0.28378500  1
  Y  Y2  1  0.00129700  0.00268300  0.78378500  1
  Y  Y3  1  0.99870300  0.99731700  0.21621500  1
  V  V0  1  0.75571300  0.90682900  0.97680100  1
  V  V1  1  0.24428700  0.09317100  0.02319900  1
  V  V2  1  0.25571300  0.09317100  0.52319900  1
  V  V3  1  0.74428700  0.90682900  0.47680100  1
  V  V4  1  0.51948800  0.68486800  0.67273000  1
  V  V5  1  0.48051200  0.31513200  0.32727000  1
  V  V6  1  0.01948800  0.31513200  0.82727000  1
  V  V7  1  0.98051200  0.68486800  0.17273000  1
  V  V8  1  0.98099800  0.68855200  0.67201500  1
  V  V9  1  0.01900200  0.31144800  0.32798500  1
  V  V10  1  0.48099800  0.31144800  0.82798500  1
  V  V11  1  0.51900200  0.68855200  0.17201500  1
  O  O0  1  0.44735300  0.81995900  0.71651300  1
  O  O1  1  0.55264700  0.18004100  0.28348700  1
  O  O2  1  0.94735300  0.18004100  0.78348700  1
  O  O3  1  0.05264700  0.81995900  0.21651300  1
  O  O4  1  0.54839900  0.17551700  0.80401400  1
  O  O5  1  0.45160100  0.82448300  0.19598600  1
  O  O6  1  0.04839900  0.82448300  0.69598600  1
  O  O7  1  0.95160100  0.17551700  0.30401400  1
  O  O8  1  0.75046100  0.66462800  0.66685600  1
  O  O9  1  0.24953900  0.33537200  0.33314400  1
  O  O10  1  0.25046100  0.33537200  0.83314400  1
  O  O11  1  0.74953900  0.66462800  0.16685600  1
  O  O12  1  0.94468100  0.37529200  0.96690200  1
  O  O13  1  0.05531900  0.62470800  0.03309800  1
  O  O14  1  0.44468100  0.62470800  0.53309800  1
  O  O15  1  0.55531900  0.37529200  0.46690200  1
  O  O16  1  0.93986400  0.39009400  0.73106700  1
  O  O17  1  0.06013600  0.60990600  0.26893300  1
  O  O18  1  0.43986400  0.60990600  0.76893300  1
  O  O19  1  0.56013600  0.39009400  0.23106700  1
  O  O20  1  0.78299600  0.98763200  0.62559800  1
  O  O21  1  0.21700400  0.01236800  0.37440200  1
  O  O22  1  0.28299600  0.01236800  0.87440200  1
  O  O23  1  0.71700400  0.98763200  0.12559800  1
  O  O24  1  0.97453800  0.88466500  0.97555500  1
  O  O25  1  0.02546200  0.11533500  0.02444500  1
  O  O26  1  0.47453800  0.11533500  0.52444500  1
  O  O27  1  0.52546200  0.88466500  0.47555500  1
  O  O28  1  0.64366900  0.78659500  0.94698200  1
  O  O29  1  0.35633100  0.21340500  0.05301800  1
  O  O30  1  0.14366900  0.21340500  0.55301800  1
  O  O31  1  0.85633100  0.78659500  0.44698200  1
  O  O32  1  0.72106200  0.98437200  0.86462500  1
  O  O33  1  0.27893800  0.01562800  0.13537500  1
  O  O34  1  0.22106200  0.01562800  0.63537500  1
  O  O35  1  0.77893800  0.98437200  0.36462500  1
  O  O36  1  0.55825800  0.37001300  0.71809100  1
  O  O37  1  0.44174200  0.62998700  0.28190900  1
  O  O38  1  0.05825800  0.62998700  0.78190900  1
  O  O39  1  0.94174200  0.37001300  0.21809100  1
  O  O40  1  0.56363400  0.38561000  0.96097100  1
  O  O41  1  0.43636600  0.61439000  0.03902900  1
  O  O42  1  0.06363400  0.61439000  0.53902900  1
  O  O43  1  0.93636600  0.38561000  0.46097100  1
loop_
_geom_bond_atom_site_label_1
_geom_bond_atom_site_label_2
_geom_bond_distance
_geom_bond_site_symmetry_2
Ba0 O24 2.720101 1_455
Ba0 O41 2.748130 1_556
Ba0 O18 2.781466 1_555
Ba0 O38 2.794511 1_555
Ba0 O13 2.859840 1_556
Ba0 O28 2.871240 1_555
Ba0 O0 3.080810 1_555
Ba0 O5 3.123349 1_556
Ba0 O22 3.274056 1_565
Ba0 O33 3.322586 1_566
Ba1 O25 2.720101 1_655
Ba1 O40 2.748130 1_554
Ba1 O19 2.781466 1_555
Ba1 O39 2.794511 1_555
Ba1 O12 2.859840 1_554
Ba1 O29 2.871240 1_555
Ba1 O1 3.080810 1_555
Ba1 O4 3.123349 1_554
Ba1 O23 3.274056 1_545
Ba1 O32 3.322586 1_544
Ba2 O26 2.720101 1_555
Ba2 O43 2.748130 1_555
Ba2 O16 2.781466 1_555
Ba2 O36 2.794511 1_555
Ba2 O15 2.859840 1_555
Ba2 O30 2.871240 1_655
Ba2 O2 3.080810 1_555
Ba2 O7 3.123349 1_555
Ba2 O20 3.274056 1_545
Ba2 O35 3.322586 1_545
Ba3 O27 2.720101 1_555
Ba3 O42 2.748130 1_555
Ba3 O17 2.781466 1_555
Ba3 O37 2.794511 1_555
Ba3 O14 2.859840 1_555
Ba3 O31 2.871240 1_455
Ba3 O3 3.080810 1_555
Ba3 O6 3.123349 1_555
Ba3 O21 3.274056 1_565
Ba3 O34 3.322586 1_565
Ba4 O40 2.810229 1_555
Ba4 O16 2.822504 1_555
Ba4 O18 2.920307 1_555
Ba4 O13 2.921508 1_656
Ba4 O28 2.932796 1_555
Ba4 O41 2.956898 1_556
Ba4 O38 2.961679 1_655
Ba4 O12 2.999209 1_555
Ba4 O36 3.027633 1_555
Ba4 O11 3.142330 1_556
Ba4 O8 3.146483 1_555
Ba5 O41 2.810229 1_555
Ba5 O17 2.822504 1_555
Ba5 O19 2.920307 1_555
Ba5 O12 2.921508 1_454
Ba5 O29 2.932796 1_555
Ba5 O40 2.956898 1_554
Ba5 O39 2.961679 1_455
Ba5 O13 2.999209 1_555
Ba5 O37 3.027633 1_555
Ba5 O10 3.142330 1_554
Ba5 O9 3.146483 1_555
Ba6 O42 2.810229 1_555
Ba6 O18 2.822504 1_555
Ba6 O16 2.920307 1_455
Ba6 O15 2.921508 1_555
Ba6 O30 2.932796 1_555
Ba6 O43 2.956898 1_455
Ba6 O36 2.961679 1_555
Ba6 O14 2.999209 1_555
Ba6 O38 3.027633 1_555
Ba6 O9 3.142330 1_555
Ba6 O10 3.146483 1_555
Ba7 O43 2.810229 1_555
Ba7 O19 2.822504 1_555
Ba7 O17 2.920307 1_655
Ba7 O14 2.921508 1_555
Ba7 O31 2.932796 1_555
Ba7 O42 2.956898 1_655
Ba7 O37 2.961679 1_555
Ba7 O15 2.999209 1_555
Ba7 O39 3.027633 1_555
Ba7 O8 3.142330 1_555
Ba7 O11 3.146483 1_555
O0 V4 1.734914 1_555
O0 Y0 2.249325 1_555
O1 V5 1.734914 1_555
O1 Y1 2.249325 1_555
O2 V6 1.734914 1_655
O2 Y2 2.249325 1_655
O3 V7 1.734914 1_455
O3 Y3 2.249325 1_455
O4 V10 1.733252 1_555
O4 Y0 2.245254 1_545
O5 V11 1.733252 1_555
O5 Y1 2.245254 1_565
O6 V8 1.733252 1_455
O6 Y2 2.245254 1_565
O7 V9 1.733252 1_655
O7 Y3 2.245254 1_545
O8 V4 1.814645 1_555
O8 V8 1.817874 1_555
O9 V5 1.814645 1_555
O9 V9 1.817874 1_555
O10 V6 1.814645 1_555
O10 V10 1.817874 1_555
O11 V7 1.814645 1_555
O11 V11 1.817874 1_555
O12 V6 1.696439 1_655
O13 V7 1.696439 1_455
O14 V4 1.696439 1_555
O15 V5 1.696439 1_555
O16 V6 1.709547 1_655
O17 V7 1.709547 1_455
O18 V4 1.709547 1_555
O19 V5 1.709547 1_555
O20 V3 1.785392 1_555
O20 Y0 2.414281 1_555
O20 Y2 2.450860 1_665
O21 V2 1.785392 1_555
O21 Y1 2.414281 1_555
O21 Y3 2.450860 1_445
O22 V1 1.785392 1_556
O22 Y2 2.414281 1_555
O22 Y0 2.450860 1_545
O23 V0 1.785392 1_554
O23 Y3 2.414281 1_555
O23 Y1 2.450860 1_565
O24 V0 1.725156 1_555
O24 Y3 2.781667 1_556
O24 Y2 2.904331 1_665
O25 V1 1.725156 1_555
O25 Y2 2.781667 1_554
O25 Y3 2.904331 1_445
O26 V2 1.725156 1_555
O26 Y1 2.781667 1_555
O26 Y0 2.904331 1_545
O27 V3 1.725156 1_555
O27 Y0 2.781667 1_555
O27 Y1 2.904331 1_565
O28 V0 1.698610 1_555
O29 V1 1.698610 1_555
O30 V2 1.698610 1_555
O31 V3 1.698610 1_555
O32 V0 1.788756 1_555
O32 Y2 2.398475 1_665
O32 Y0 2.434775 1_555
O33 V1 1.788756 1_555
O33 Y3 2.398475 1_445
O33 Y1 2.434775 1_555
O34 V2 1.788756 1_555
O34 Y0 2.398475 1_545
O34 Y2 2.434775 1_555
O35 V3 1.788756 1_555
O35 Y1 2.398475 1_565
O35 Y3 2.434775 1_555
O36 V10 1.695645 1_555
O37 V11 1.695645 1_555
O38 V8 1.695645 1_455
O39 V9 1.695645 1_655
O40 V10 1.707279 1_555
O41 V11 1.707279 1_555
O42 V8 1.707279 1_455
O43 V9 1.707279 1_655
