# generated using pymatgen
data_Sm2FeSi3
_symmetry_space_group_name_H-M   'P 1'
_cell_length_a   4.01641129
_cell_length_b   4.01641129
_cell_length_c   8.39575200
_cell_angle_alpha   90.00000000
_cell_angle_beta   90.00000000
_cell_angle_gamma   119.99998824
_symmetry_Int_Tables_number   1
_chemical_formula_structural   Sm2FeSi3
_chemical_formula_sum   'Sm2 Fe1 Si3'
_cell_volume   117.29152754
_cell_formula_units_Z   1
loop_
 _symmetry_equiv_pos_site_id
 _symmetry_equiv_pos_as_xyz
  1  'x, y, z'
loop_
 _atom_site_type_symbol
 _atom_site_label
 _atom_site_symmetry_multiplicity
 _atom_site_fract_x
 _atom_site_fract_y
 _atom_site_fract_z
 _atom_site_occupancy
  Sm  Sm0  1  0.66666700  0.33333300  0.24331100  1
  Sm  Sm1  1  0.66666700  0.33333300  0.75668900  1
  Fe  Fe0  1  0.00000000  0.00000000  0.00000000  1
  Si  Si0  1  0.00000000  0.00000000  0.50000000  1
  Si  Si1  1  0.33333300  0.66666700  0.00000000  1
  Si  Si2  1  0.33333300  0.66666700  0.50000000  1
loop_
_geom_bond_atom_site_label_1
_geom_bond_atom_site_label_2
_geom_bond_distance
_geom_bond_site_symmetry_2
Fe0 Si1 2.318874 1_545
Fe0 Si1 2.318878 1_555
Fe0 Si1 2.318878 1_445
Fe0 Sm0 3.090327 1_455
Fe0 Sm1 3.090327 1_454
Fe0 Sm0 3.090330 1_555
Fe0 Sm0 3.090330 1_445
Fe0 Sm1 3.090330 1_554
Fe0 Sm1 3.090330 1_444
Si0 Si2 2.318874 1_545
Si0 Si2 2.318878 1_445
Si0 Si2 2.318878 1_555
Si0 Sm0 3.165694 1_455
Si0 Sm1 3.165694 1_455
Si0 Sm0 3.165697 1_445
Si0 Sm1 3.165697 1_445
Si0 Sm1 3.165697 1_555
Si0 Sm0 3.165697 1_555
Si1 Sm0 3.090327 1_455
Si1 Sm1 3.090327 1_454
Si1 Sm0 3.090327 1_565
Si1 Sm1 3.090327 1_564
Si1 Sm0 3.090332 1_555
Si1 Sm1 3.090332 1_554
Si2 Sm1 3.165694 1_455
Si2 Sm0 3.165694 1_455
Si2 Sm0 3.165694 1_565
Si2 Sm1 3.165694 1_565
Si2 Sm1 3.165699 1_555
Si2 Sm0 3.165699 1_555
