# generated using pymatgen
data_LiHo2Ta2O8
_symmetry_space_group_name_H-M   'P 1'
_cell_length_a   5.25341952
_cell_length_b   5.37391700
_cell_length_c   6.47434119
_cell_angle_alpha   110.14997056
_cell_angle_beta   109.48467779
_cell_angle_gamma   100.01247202
_symmetry_Int_Tables_number   1
_chemical_formula_structural   LiHo2Ta2O8
_chemical_formula_sum   'Li1 Ho2 Ta2 O8'
_cell_volume   152.91301933
_cell_formula_units_Z   1
loop_
 _symmetry_equiv_pos_site_id
 _symmetry_equiv_pos_as_xyz
  1  'x, y, z'
loop_
 _atom_site_type_symbol
 _atom_site_label
 _atom_site_symmetry_multiplicity
 _atom_site_fract_x
 _atom_site_fract_y
 _atom_site_fract_z
 _atom_site_occupancy
  Li  Li0  1  0.91610200  0.66610200  0.33220400  1
  Ho  Ho0  1  0.37854700  0.62854700  0.25709300  1
  Ho  Ho1  1  0.60856200  0.35856200  0.71712500  1
  Ta  Ta0  1  0.83994500  0.08994500  0.17988900  1
  Ta  Ta1  1  0.16451700  0.91451700  0.82903500  1
  O  O0  1  0.00347800  0.77209900  0.06184800  1
  O  O1  1  0.55837000  0.28974800  0.06184800  1
  O  O2  1  0.98949800  0.21134700  0.93730900  1
  O  O3  1  0.44780900  0.72596100  0.93730900  1
  O  O4  1  0.21377300  0.35054700  0.41584700  1
  O  O5  1  0.70207400  0.06529900  0.41584700  1
  O  O6  1  0.79605300  0.65277100  0.57732400  1
  O  O7  1  0.28127100  0.92455300  0.57732400  1
loop_
_geom_bond_atom_site_label_1
_geom_bond_atom_site_label_2
_geom_bond_distance
_geom_bond_site_symmetry_2
Li0 O6 1.910947 1_555
Li0 O7 1.910947 1_655
Li0 O0 2.175084 1_655
Li0 O1 2.175087 1_555
Li0 O5 2.569853 1_565
Li0 O4 2.569858 1_655
Ho0 O5 2.288962 1_565
Ho0 O4 2.288971 1_555
Ho0 O0 2.369446 1_555
Ho0 O1 2.369449 1_555
Ho0 O6 2.409839 1_555
Ho0 O7 2.409839 1_555
Ho0 O3 2.424047 1_554
Ho0 O2 2.424059 1_454
Ho0 Li0 2.658997 1_555
Ho0 Li0 2.659001 1_455
Ho1 O4 2.306583 1_555
Ho1 O5 2.306586 1_555
Ho1 O7 2.308304 1_545
Ho1 O6 2.308310 1_555
Ho1 O2 2.467243 1_555
Ho1 O3 2.467246 1_555
Ho1 O1 2.472804 1_556
Ho1 O0 2.472807 1_656
O0 Ta0 2.070885 1_465
O0 Ta1 2.234680 1_554
O0 O3 2.696943 1_454
O0 O3 2.734861 1_554
O0 O6 2.744075 1_454
O0 O2 2.818839 1_454
O1 Ta0 2.070880 1_555
O1 Ta1 2.234683 1_544
O1 O2 2.696932 1_554
O1 O2 2.734872 1_454
O1 O7 2.744074 1_544
O1 O3 2.818842 1_554
O2 Ta1 2.012669 1_645
O2 Ta0 2.204624 1_556
O2 O4 2.684831 1_656
O2 O6 2.830975 1_545
O3 Ta1 2.012666 1_555
O3 Ta0 2.204638 1_566
O3 O5 2.684831 1_566
O3 O7 2.830977 1_555
O4 Ta0 1.928754 1_455
O5 Ta0 1.928760 1_555
O6 Ta1 1.936691 1_655
O7 Ta1 1.936695 1_555
