# generated using pymatgen
data_Li7Mn2(CoO4)3
_symmetry_space_group_name_H-M   'P 1'
_cell_length_a   6.55998455
_cell_length_b   6.55998455
_cell_length_c   5.08513799
_cell_angle_alpha   82.73644209
_cell_angle_beta   82.73644209
_cell_angle_gamma   83.68223398
_symmetry_Int_Tables_number   1
_chemical_formula_structural   Li7Mn2(CoO4)3
_chemical_formula_sum   'Li7 Mn2 Co3 O12'
_cell_volume   214.34669853
_cell_formula_units_Z   1
loop_
 _symmetry_equiv_pos_site_id
 _symmetry_equiv_pos_as_xyz
  1  'x, y, z'
loop_
 _atom_site_type_symbol
 _atom_site_label
 _atom_site_symmetry_multiplicity
 _atom_site_fract_x
 _atom_site_fract_y
 _atom_site_fract_z
 _atom_site_occupancy
  Li  Li0  1  0.58553400  0.91573100  0.74164900  1
  Li  Li1  1  0.24440000  0.24440000  0.74048400  1
  Li  Li2  1  0.91573100  0.58553400  0.74164900  1
  Li  Li3  1  0.08426900  0.41446600  0.25835100  1
  Li  Li4  1  0.75560000  0.75560000  0.25951600  1
  Li  Li5  1  0.41446600  0.08426900  0.25835100  1
  Li  Li6  1  0.00000000  0.00000000  0.50000000  1
  Mn  Mn0  1  0.83686400  0.16313600  0.00000000  1
  Mn  Mn1  1  0.16313600  0.83686400  0.00000000  1
  Co  Co0  1  0.50000000  0.50000000  0.00000000  1
  Co  Co1  1  0.32668300  0.67331700  0.50000000  1
  Co  Co2  1  0.67331700  0.32668300  0.50000000  1
  O  O0  1  0.94006400  0.28569300  0.64611600  1
  O  O1  1  0.61302700  0.61302700  0.62611200  1
  O  O2  1  0.28569300  0.94006400  0.64611600  1
  O  O3  1  0.43965600  0.78651800  0.12128200  1
  O  O4  1  0.11273900  0.11273900  0.10550000  1
  O  O5  1  0.78651800  0.43965600  0.12128200  1
  O  O6  1  0.21348200  0.56034400  0.87871800  1
  O  O7  1  0.88726100  0.88726100  0.89450000  1
  O  O8  1  0.56034400  0.21348200  0.87871800  1
  O  O9  1  0.71430700  0.05993600  0.35388400  1
  O  O10  1  0.38697300  0.38697300  0.37388800  1
  O  O11  1  0.05993600  0.71430700  0.35388400  1
loop_
_geom_bond_atom_site_label_1
_geom_bond_atom_site_label_2
_geom_bond_distance
_geom_bond_site_symmetry_2
Li0 O2 2.069613 1_555
Li0 O1 2.123733 1_555
Li0 O8 2.138315 1_565
Li0 O3 2.158385 1_556
Li0 O9 2.186235 1_565
Li0 O7 2.197206 1_555
Li1 O4 2.071391 1_556
Li1 O2 2.092795 1_545
Li1 O0 2.092795 1_455
Li1 O10 2.129659 1_555
Li1 O8 2.251825 1_555
Li1 O6 2.251825 1_555
Li2 O0 2.069613 1_555
Li2 O1 2.123733 1_555
Li2 O6 2.138315 1_655
Li2 O5 2.158385 1_556
Li2 O11 2.186235 1_655
Li2 O7 2.197206 1_555
Li3 O11 2.069613 1_555
Li3 O10 2.123733 1_555
Li3 O5 2.138315 1_455
Li3 O6 2.158385 1_554
Li3 O0 2.186235 1_455
Li3 O4 2.197206 1_555
Li4 O7 2.071391 1_554
Li4 O11 2.092795 1_655
Li4 O9 2.092795 1_565
Li4 O1 2.129659 1_555
Li4 O5 2.251825 1_555
Li4 O3 2.251825 1_555
Li5 O9 2.069613 1_555
Li5 O10 2.123733 1_555
Li5 O3 2.138315 1_545
Li5 O8 2.158385 1_554
Li5 O2 2.186235 1_545
Li5 O4 2.197206 1_555
Li6 O2 2.082103 1_545
Li6 O0 2.082103 1_455
Li6 O11 2.082103 1_545
Li6 O9 2.082103 1_455
Li6 O4 2.118573 1_555
Li6 O7 2.118573 1_445
Mn0 O4 1.934227 1_655
Mn0 O7 1.934227 1_544
Mn0 O0 1.946521 1_554
Mn0 O9 1.946521 1_555
Mn0 O8 1.969632 1_554
Mn0 O5 1.969632 1_555
Mn1 O7 1.934227 1_454
Mn1 O4 1.934227 1_565
Mn1 O2 1.946521 1_554
Mn1 O11 1.946521 1_555
Mn1 O6 1.969632 1_554
Mn1 O3 1.969632 1_555
Co0 O1 2.030370 1_554
Co0 O10 2.030370 1_555
Co0 O5 2.034066 1_555
Co0 O3 2.034066 1_555
Co0 O8 2.034066 1_554
Co0 O6 2.034066 1_554
Co1 O2 1.964962 1_555
Co1 O11 1.964962 1_555
Co1 O10 2.042813 1_555
Co1 O1 2.042813 1_555
Co1 O3 2.051366 1_555
Co1 O6 2.051366 1_555
Co2 O0 1.964962 1_555
Co2 O9 1.964962 1_555
Co2 O1 2.042813 1_555
Co2 O10 2.042813 1_555
Co2 O5 2.051366 1_555
Co2 O8 2.051366 1_555
