# generated using pymatgen
data_Eu2NiRuO6
_symmetry_space_group_name_H-M   'P 1'
_cell_length_a   5.69891600
_cell_length_b   5.46758600
_cell_length_c   9.52498284
_cell_angle_alpha   55.13276812
_cell_angle_beta   90.00000000
_cell_angle_gamma   90.00000000
_symmetry_Int_Tables_number   1
_chemical_formula_structural   Eu2NiRuO6
_chemical_formula_sum   'Eu4 Ni2 Ru2 O12'
_cell_volume   243.51152937
_cell_formula_units_Z   2
loop_
 _symmetry_equiv_pos_site_id
 _symmetry_equiv_pos_as_xyz
  1  'x, y, z'
loop_
 _atom_site_type_symbol
 _atom_site_label
 _atom_site_symmetry_multiplicity
 _atom_site_fract_x
 _atom_site_fract_y
 _atom_site_fract_z
 _atom_site_occupancy
  Eu  Eu0  1  0.05958300  0.73468600  0.75129100  1
  Eu  Eu1  1  0.94041700  0.26531400  0.24870900  1
  Eu  Eu2  1  0.55958300  0.26531400  0.74870900  1
  Eu  Eu3  1  0.44041700  0.73468600  0.25129100  1
  Ni  Ni0  1  0.50000000  0.50000000  0.00000000  1
  Ni  Ni1  1  0.00000000  0.50000000  0.50000000  1
  Ru  Ru0  1  0.50000000  0.00000000  0.50000000  1
  Ru  Ru1  1  0.00000000  0.00000000  0.00000000  1
  O  O0  1  0.47277400  0.84700200  0.74579800  1
  O  O1  1  0.52722600  0.15299800  0.25420200  1
  O  O2  1  0.97277400  0.15299800  0.75420200  1
  O  O3  1  0.02722600  0.84700200  0.24579800  1
  O  O4  1  0.79152300  0.75805300  0.55013000  1
  O  O5  1  0.20847700  0.24194700  0.44987000  1
  O  O6  1  0.29152300  0.24194700  0.94987000  1
  O  O7  1  0.70847700  0.75805300  0.05013000  1
  O  O8  1  0.30463000  0.65794600  0.54565700  1
  O  O9  1  0.69537000  0.34205400  0.45434300  1
  O  O10  1  0.80463000  0.34205400  0.95434300  1
  O  O11  1  0.19537000  0.65794600  0.04565700  1
loop_
_geom_bond_atom_site_label_1
_geom_bond_atom_site_label_2
_geom_bond_distance
_geom_bond_site_symmetry_2
Eu0 O2 2.355654 1_465
Eu0 O10 2.390204 1_455
Eu0 O4 2.396126 1_455
Eu0 O0 2.426504 1_555
Eu0 O6 2.599359 1_555
Eu0 O8 2.627213 1_555
Eu0 O11 2.700233 1_556
Eu0 O5 2.747874 1_565
Eu1 O3 2.355654 1_645
Eu1 O11 2.390204 1_655
Eu1 O5 2.396126 1_655
Eu1 O1 2.426504 1_555
Eu1 O7 2.599359 1_555
Eu1 O9 2.627213 1_555
Eu1 O10 2.700233 1_554
Eu1 O4 2.747874 1_545
Eu2 O0 2.355654 1_545
Eu2 O8 2.390204 1_555
Eu2 O6 2.396126 1_555
Eu2 O2 2.426504 1_555
Eu2 O4 2.599359 1_555
Eu2 O10 2.627213 1_555
Eu2 O9 2.700233 1_555
Eu2 O7 2.747874 1_546
Eu3 O1 2.355654 1_565
Eu3 O9 2.390204 1_555
Eu3 O7 2.396126 1_555
Eu3 O3 2.426504 1_555
Eu3 O5 2.599359 1_555
Eu3 O11 2.627213 1_555
Eu3 O8 2.700233 1_555
Eu3 O6 2.747874 1_564
Ni0 O0 2.057646 1_554
Ni0 O1 2.057646 1_555
Ni0 O11 2.092415 1_555
Ni0 O10 2.092415 1_554
Ni0 O6 2.097749 1_554
Ni0 O7 2.097749 1_555
Ni1 O2 2.057646 1_455
Ni1 O3 2.057646 1_555
Ni1 O8 2.092415 1_555
Ni1 O9 2.092415 1_455
Ni1 O5 2.097749 1_555
Ni1 O4 2.097749 1_455
O0 Ru0 1.991461 1_565
O1 Ru0 1.991461 1_555
O2 Ru1 1.991461 1_656
O3 Ru1 1.991461 1_565
O4 Ru0 2.003971 1_565
O5 Ru0 2.003971 1_555
O6 Ru1 2.003971 1_556
O7 Ru1 2.003971 1_665
O8 Ru0 1.999137 1_565
O9 Ru0 1.999137 1_555
O10 Ru1 1.999137 1_656
O11 Ru1 1.999137 1_565
