# generated using pymatgen
data_La2GeS5
_symmetry_space_group_name_H-M   'P 1'
_cell_length_a   7.32408600
_cell_length_b   9.70862457
_cell_length_c   11.27072812
_cell_angle_alpha   81.75268068
_cell_angle_beta   90.00000000
_cell_angle_gamma   90.00000000
_symmetry_Int_Tables_number   1
_chemical_formula_structural   La2GeS5
_chemical_formula_sum   'La8 Ge4 S20'
_cell_volume   793.13716254
_cell_formula_units_Z   4
loop_
 _symmetry_equiv_pos_site_id
 _symmetry_equiv_pos_as_xyz
  1  'x, y, z'
loop_
 _atom_site_type_symbol
 _atom_site_label
 _atom_site_symmetry_multiplicity
 _atom_site_fract_x
 _atom_site_fract_y
 _atom_site_fract_z
 _atom_site_occupancy
  La  La0  1  0.56023700  0.50458900  0.67184100  1
  La  La1  1  0.06023700  0.49541100  0.82815900  1
  La  La2  1  0.43976300  0.49541100  0.32815900  1
  La  La3  1  0.93976300  0.50458900  0.17184100  1
  La  La4  1  0.39477500  0.74204800  0.99008300  1
  La  La5  1  0.89477500  0.25795200  0.50991700  1
  La  La6  1  0.60522500  0.25795200  0.00991700  1
  La  La7  1  0.10522500  0.74204800  0.49008300  1
  Ge  Ge0  1  0.09198100  0.11249400  0.20967200  1
  Ge  Ge1  1  0.59198100  0.88750600  0.29032800  1
  Ge  Ge2  1  0.90801900  0.88750600  0.79032800  1
  Ge  Ge3  1  0.40801900  0.11249400  0.70967200  1
  S  S0  1  0.71754700  0.53423500  0.94947300  1
  S  S1  1  0.21754700  0.46576500  0.55052700  1
  S  S2  1  0.28245300  0.46576500  0.05052700  1
  S  S3  1  0.78245300  0.53423500  0.44947300  1
  S  S4  1  0.88295300  0.98480200  0.34368000  1
  S  S5  1  0.38295300  0.01519800  0.15632000  1
  S  S6  1  0.11704700  0.01519800  0.65632000  1
  S  S7  1  0.61704700  0.98480200  0.84368000  1
  S  S8  1  0.66410400  0.72910800  0.17438000  1
  S  S9  1  0.16410400  0.27089200  0.32562000  1
  S  S10  1  0.33589600  0.27089200  0.82562000  1
  S  S11  1  0.83589600  0.72910800  0.67438000  1
  S  S12  1  0.01553600  0.81554600  0.96726600  1
  S  S13  1  0.51553600  0.18445400  0.53273400  1
  S  S14  1  0.98446400  0.18445400  0.03273400  1
  S  S15  1  0.48446400  0.81554600  0.46726600  1
  S  S16  1  0.32408900  0.69861200  0.74770300  1
  S  S17  1  0.82408900  0.30138800  0.75229700  1
  S  S18  1  0.67591100  0.30138800  0.25229700  1
  S  S19  1  0.17591100  0.69861200  0.24770300  1
loop_
_geom_bond_atom_site_label_1
_geom_bond_atom_site_label_2
_geom_bond_distance
_geom_bond_site_symmetry_2
La0 S16 2.780800 1_555
La0 S17 2.816994 1_555
La0 S1 2.908433 1_555
La0 S3 2.967495 1_555
La0 S11 2.974269 1_555
La0 S10 3.118230 1_555
La0 S0 3.385268 1_555
La0 S15 3.569512 1_555
La0 S13 3.690991 1_555
La1 S17 2.780800 1_455
La1 S16 2.816994 1_555
La1 S0 2.908433 1_455
La1 S2 2.967495 1_556
La1 S10 2.974269 1_555
La1 S11 3.118230 1_455
La1 S1 3.385268 1_555
La1 S14 3.569512 1_456
La1 S12 3.690991 1_555
La2 S18 2.780800 1_555
La2 S19 2.816994 1_555
La2 S3 2.908433 1_555
La2 S1 2.967495 1_555
La2 S9 2.974269 1_555
La2 S8 3.118230 1_555
La2 S2 3.385268 1_555
La2 S13 3.569512 1_555
La2 S15 3.690991 1_555
La3 S19 2.780800 1_655
La3 S18 2.816994 1_555
La3 S2 2.908433 1_655
La3 S0 2.967495 1_554
La3 S8 2.974269 1_555
La3 S9 3.118230 1_655
La3 S3 3.385268 1_555
La3 S12 3.569512 1_654
La3 S14 3.690991 1_555
La4 S2 2.794906 1_556
La4 S8 2.854229 1_556
La4 S12 2.870123 1_555
La4 S16 2.870381 1_555
La4 S7 3.132373 1_555
La4 S0 3.183330 1_555
La4 S19 3.290407 1_556
La4 S5 3.460639 1_566
La5 S3 2.794906 1_555
La5 S9 2.854229 1_655
La5 S13 2.870123 1_555
La5 S17 2.870381 1_555
La5 S6 3.132373 1_655
La5 S1 3.183330 1_655
La5 S18 3.290407 1_555
La5 S4 3.460639 1_545
La6 S0 2.794906 1_554
La6 S10 2.854229 1_554
La6 S14 2.870123 1_555
La6 S18 2.870381 1_555
La6 S5 3.132373 1_555
La6 S2 3.183330 1_555
La6 S17 3.290407 1_554
La6 S7 3.460639 1_544
La7 S1 2.794906 1_555
La7 S11 2.854229 1_455
La7 S15 2.870123 1_555
La7 S19 2.870381 1_555
La7 S4 3.132373 1_455
La7 S3 3.183330 1_455
La7 S16 3.290407 1_555
La7 S6 3.460639 1_565
Ge0 S14 2.164577 1_455
Ge0 S9 2.219972 1_555
Ge0 S4 2.371643 1_445
Ge0 S5 2.440990 1_555
Ge1 S15 2.164577 1_555
Ge1 S8 2.219972 1_555
Ge1 S5 2.371643 1_565
Ge1 S4 2.440990 1_555
Ge2 S12 2.164577 1_655
Ge2 S11 2.219972 1_555
Ge2 S6 2.371643 1_665
Ge2 S7 2.440990 1_555
Ge3 S13 2.164577 1_555
Ge3 S10 2.219972 1_555
Ge3 S7 2.371643 1_545
Ge3 S6 2.440990 1_555
S0 S8 3.396191 1_556
S0 S2 3.417123 1_556
S0 S11 3.501570 1_555
S0 S12 3.524171 1_655
S1 S9 3.396191 1_555
S1 S3 3.417123 1_455
S1 S10 3.501570 1_555
S1 S13 3.524171 1_555
S2 S9 3.501570 1_555
S3 S8 3.501570 1_555
S10 S2 3.396191 1_556
S11 S3 3.396191 1_555
S12 S19 3.410173 1_556
S13 S18 3.410173 1_555
S14 S17 3.410173 1_554
S14 S2 3.524171 1_655
S15 S16 3.410173 1_555
S15 S3 3.524171 1_555
S16 S6 3.449514 1_565
S16 S7 3.788979 1_555
S17 S7 3.449514 1_545
S17 S6 3.788979 1_655
S18 S4 3.449514 1_545
S18 S5 3.788979 1_555
S19 S5 3.449514 1_565
S19 S4 3.788979 1_455
