# generated using pymatgen
data_Ge2SeN2
_symmetry_space_group_name_H-M   'P 1'
_cell_length_a   6.36475626
_cell_length_b   5.90307795
_cell_length_c   5.18323700
_cell_angle_alpha   90.00000000
_cell_angle_beta   90.00000000
_cell_angle_gamma   117.62817274
_symmetry_Int_Tables_number   1
_chemical_formula_structural   Ge2SeN2
_chemical_formula_sum   'Ge4 Se2 N4'
_cell_volume   172.53736279
_cell_formula_units_Z   2
loop_
 _symmetry_equiv_pos_site_id
 _symmetry_equiv_pos_as_xyz
  1  'x, y, z'
loop_
 _atom_site_type_symbol
 _atom_site_label
 _atom_site_symmetry_multiplicity
 _atom_site_fract_x
 _atom_site_fract_y
 _atom_site_fract_z
 _atom_site_occupancy
  Ge  Ge0  1  0.36784900  0.03403000  0.83372000  1
  Ge  Ge1  1  0.63215100  0.66618100  0.83372000  1
  Ge  Ge2  1  0.63215100  0.96597000  0.33372000  1
  Ge  Ge3  1  0.36784900  0.33381900  0.33372000  1
  Se  Se0  1  0.00000000  0.71019800  0.67402700  1
  Se  Se1  1  0.00000000  0.28980200  0.17402700  1
  N  N0  1  0.43729300  0.09055900  0.18126700  1
  N  N1  1  0.56270700  0.65326700  0.18126700  1
  N  N2  1  0.56270700  0.90944100  0.68126700  1
  N  N3  1  0.43729300  0.34673300  0.68126700  1
loop_
_geom_bond_atom_site_label_1
_geom_bond_atom_site_label_2
_geom_bond_distance
_geom_bond_site_symmetry_2
Ge0 N0 1.847979 1_556
Ge0 N3 1.862917 1_555
Ge0 N2 1.883996 1_545
Ge0 Se0 2.381170 1_545
Ge1 N1 1.847980 1_556
Ge1 N2 1.862922 1_555
Ge1 N3 1.884000 1_555
Ge1 Se0 2.381170 1_655
Ge2 N2 1.847979 1_555
Ge2 N1 1.862917 1_555
Ge2 N0 1.883996 1_565
Ge2 Se1 2.381170 1_665
Ge3 N3 1.847980 1_555
Ge3 N0 1.862922 1_555
Ge3 N1 1.884000 1_555
Ge3 Se1 2.381170 1_555
