# generated using pymatgen
data_BaSr3Zr4O12
_symmetry_space_group_name_H-M   'P 1'
_cell_length_a   5.91100302
_cell_length_b   5.93701001
_cell_length_c   8.35254700
_cell_angle_alpha   90.00000000
_cell_angle_beta   90.00000000
_cell_angle_gamma   90.00808761
_symmetry_Int_Tables_number   1
_chemical_formula_structural   BaSr3Zr4O12
_chemical_formula_sum   'Ba1 Sr3 Zr4 O12'
_cell_volume   293.12164291
_cell_formula_units_Z   1
loop_
 _symmetry_equiv_pos_site_id
 _symmetry_equiv_pos_as_xyz
  1  'x, y, z'
loop_
 _atom_site_type_symbol
 _atom_site_label
 _atom_site_symmetry_multiplicity
 _atom_site_fract_x
 _atom_site_fract_y
 _atom_site_fract_z
 _atom_site_occupancy
  Ba  Ba0  1  0.49636000  0.01255400  0.25000000  1
  Sr  Sr0  1  0.00880600  0.52625900  0.25000000  1
  Sr  Sr1  1  0.50635300  0.96977200  0.75000000  1
  Sr  Sr2  1  0.99797000  0.47865700  0.75000000  1
  Zr  Zr0  1  0.50000100  0.49716900  0.99751200  1
  Zr  Zr1  1  0.00126100  0.00118200  0.50309900  1
  Zr  Zr2  1  0.50000100  0.49716900  0.50248800  1
  Zr  Zr3  1  0.00126100  0.00118200  0.99690100  1
  O  O0  1  0.57446700  0.49718400  0.25000000  1
  O  O1  1  0.94714300  0.98078800  0.25000000  1
  O  O2  1  0.42667500  0.51178100  0.75000000  1
  O  O3  1  0.07883200  0.02325400  0.75000000  1
  O  O4  1  0.27069500  0.77164800  0.02693200  1
  O  O5  1  0.21636900  0.28360800  0.46277800  1
  O  O6  1  0.71995300  0.22036600  0.54027100  1
  O  O7  1  0.77341900  0.72590200  0.95893000  1
  O  O8  1  0.71995300  0.22036600  0.95972900  1
  O  O9  1  0.77341900  0.72590200  0.54107000  1
  O  O10  1  0.27069500  0.77164800  0.47306800  1
  O  O11  1  0.21636900  0.28360800  0.03722200  1
loop_
_geom_bond_atom_site_label_1
_geom_bond_atom_site_label_2
_geom_bond_distance
_geom_bond_site_symmetry_2
Ba0 O1 2.671272 1_545
Ba0 O10 2.701088 1_545
Ba0 O4 2.701088 1_545
Ba0 O5 2.913440 1_555
Ba0 O11 2.913440 1_555
Ba0 O0 2.913995 1_555
Ba0 O6 3.024360 1_555
Ba0 O8 3.024360 1_554
Ba0 O0 3.094458 1_545
Ba0 O1 3.251870 1_445
O0 Zr2 2.154364 1_555
O0 Zr0 2.154364 1_554
O0 Sr0 2.573151 1_655
O1 Zr1 2.141510 1_665
O1 Zr3 2.141510 1_664
O1 Sr0 2.723099 1_655
O1 Sr0 3.258863 1_665
O2 Zr0 2.114085 1_555
O2 Zr2 2.114085 1_555
O2 Sr2 2.541668 1_455
O2 Sr1 2.759519 1_555
O2 Sr1 3.252262 1_545
O3 Zr3 2.116668 1_555
O3 Zr1 2.116668 1_555
O3 Sr1 2.546992 1_545
O3 Sr2 2.745723 1_455
O3 Sr2 3.268350 1_445
O4 Zr3 2.111175 1_564
O4 Zr0 2.133949 1_554
O4 Sr0 2.826606 1_555
O4 Sr1 2.945147 1_554
O5 Zr2 2.127871 1_555
O5 Zr1 2.130983 1_555
O5 Sr0 2.596105 1_555
O5 Sr2 2.960295 1_455
O6 Zr2 2.119259 1_555
O6 Zr1 2.134322 1_655
O6 Sr1 2.622173 1_545
O6 Sr2 2.849591 1_555
O7 Zr0 2.135272 1_555
O7 Zr3 2.141223 1_665
O7 Sr2 2.638639 1_555
O7 Sr1 2.763037 1_555
O7 Sr0 3.041693 1_656
O8 Zr0 2.119259 1_555
O8 Zr3 2.134322 1_655
O8 Sr1 2.622173 1_545
O8 Sr2 2.849591 1_555
O9 Zr2 2.135272 1_555
O9 Zr1 2.141223 1_665
O9 Sr2 2.638639 1_555
O9 Sr1 2.763037 1_555
O9 Sr0 3.041693 1_655
O10 Zr1 2.111175 1_565
O10 Zr2 2.133949 1_555
O10 Sr0 2.826606 1_555
O10 Sr1 2.945147 1_555
O11 Zr0 2.127871 1_554
O11 Zr3 2.130983 1_554
O11 Sr0 2.596105 1_555
O11 Sr2 2.960295 1_454
