# generated using pymatgen
data_Be3Tl2Co2F12
_symmetry_space_group_name_H-M   'P 1'
_cell_length_a   10.36131300
_cell_length_b   10.36131300
_cell_length_c   10.36131300
_cell_angle_alpha   90.00000000
_cell_angle_beta   90.00000000
_cell_angle_gamma   90.00000000
_symmetry_Int_Tables_number   1
_chemical_formula_structural   Be3Tl2Co2F12
_chemical_formula_sum   'Be12 Tl8 Co8 F48'
_cell_volume   1112.35748088
_cell_formula_units_Z   4
loop_
 _symmetry_equiv_pos_site_id
 _symmetry_equiv_pos_as_xyz
  1  'x, y, z'
loop_
 _atom_site_type_symbol
 _atom_site_label
 _atom_site_symmetry_multiplicity
 _atom_site_fract_x
 _atom_site_fract_y
 _atom_site_fract_z
 _atom_site_occupancy
  Be  Be0  1  0.01980300  0.21515600  0.37604400  1
  Be  Be1  1  0.48019700  0.78484400  0.87604400  1
  Be  Be2  1  0.98019700  0.71515600  0.12395600  1
  Be  Be3  1  0.37604400  0.01980300  0.21515600  1
  Be  Be4  1  0.51980300  0.28484400  0.62395600  1
  Be  Be5  1  0.87604400  0.48019700  0.78484400  1
  Be  Be6  1  0.12395600  0.98019700  0.71515600  1
  Be  Be7  1  0.62395600  0.51980300  0.28484400  1
  Be  Be8  1  0.21515600  0.37604400  0.01980300  1
  Be  Be9  1  0.71515600  0.12395600  0.98019700  1
  Be  Be10  1  0.28484400  0.62395600  0.51980300  1
  Be  Be11  1  0.78484400  0.87604400  0.48019700  1
  Tl  Tl0  1  0.04887000  0.04887000  0.04887000  1
  Tl  Tl1  1  0.45113000  0.95113000  0.54887000  1
  Tl  Tl2  1  0.95113000  0.54887000  0.45113000  1
  Tl  Tl3  1  0.54887000  0.45113000  0.95113000  1
  Tl  Tl4  1  0.81695900  0.81695900  0.81695900  1
  Tl  Tl5  1  0.68304100  0.18304100  0.31695900  1
  Tl  Tl6  1  0.18304100  0.31695900  0.68304100  1
  Tl  Tl7  1  0.31695900  0.68304100  0.18304100  1
  Co  Co0  1  0.33544200  0.33544200  0.33544200  1
  Co  Co1  1  0.16455800  0.66455800  0.83544200  1
  Co  Co2  1  0.66455800  0.83544200  0.16455800  1
  Co  Co3  1  0.83544200  0.16455800  0.66455800  1
  Co  Co4  1  0.59842800  0.59842800  0.59842800  1
  Co  Co5  1  0.90157200  0.40157200  0.09842800  1
  Co  Co6  1  0.40157200  0.09842800  0.90157200  1
  Co  Co7  1  0.09842800  0.90157200  0.40157200  1
  F  F0  1  0.01237300  0.06880000  0.32926900  1
  F  F1  1  0.48762700  0.93120000  0.82926900  1
  F  F2  1  0.98762700  0.56880000  0.17073100  1
  F  F3  1  0.32926900  0.01237300  0.06880000  1
  F  F4  1  0.51237300  0.43120000  0.67073100  1
  F  F5  1  0.82926900  0.48762700  0.93120000  1
  F  F6  1  0.17073100  0.98762700  0.56880000  1
  F  F7  1  0.67073100  0.51237300  0.43120000  1
  F  F8  1  0.06880000  0.32926900  0.01237300  1
  F  F9  1  0.56880000  0.17073100  0.98762700  1
  F  F10  1  0.43120000  0.67073100  0.51237300  1
  F  F11  1  0.93120000  0.82926900  0.48762700  1
  F  F12  1  0.26685400  0.49593100  0.43754500  1
  F  F13  1  0.23314600  0.50406900  0.93754500  1
  F  F14  1  0.73314600  0.99593100  0.06245500  1
  F  F15  1  0.43754500  0.26685400  0.49593100  1
  F  F16  1  0.76685400  0.00406900  0.56245500  1
  F  F17  1  0.93754500  0.23314600  0.50406900  1
  F  F18  1  0.06245500  0.73314600  0.99593100  1
  F  F19  1  0.56245500  0.76685400  0.00406900  1
  F  F20  1  0.49593100  0.43754500  0.26685400  1
  F  F21  1  0.99593100  0.06245500  0.73314600  1
  F  F22  1  0.00406900  0.56245500  0.76685400  1
  F  F23  1  0.50406900  0.93754500  0.23314600  1
  F  F24  1  0.04496100  0.80639400  0.22995700  1
  F  F25  1  0.45503900  0.19360600  0.72995700  1
  F  F26  1  0.95503900  0.30639400  0.27004300  1
  F  F27  1  0.22995700  0.04496100  0.80639400  1
  F  F28  1  0.54496100  0.69360600  0.77004300  1
  F  F29  1  0.72995700  0.45503900  0.19360600  1
  F  F30  1  0.27004300  0.95503900  0.30639400  1
  F  F31  1  0.77004300  0.54496100  0.69360600  1
  F  F32  1  0.80639400  0.22995700  0.04496100  1
  F  F33  1  0.30639400  0.27004300  0.95503900  1
  F  F34  1  0.69360600  0.77004300  0.54496100  1
  F  F35  1  0.19360600  0.72995700  0.45503900  1
  F  F36  1  0.16367200  0.25581500  0.40187400  1
  F  F37  1  0.33632800  0.74418500  0.90187400  1
  F  F38  1  0.83632800  0.75581500  0.09812600  1
  F  F39  1  0.40187400  0.16367200  0.25581500  1
  F  F40  1  0.66367200  0.24418500  0.59812600  1
  F  F41  1  0.90187400  0.33632800  0.74418500  1
  F  F42  1  0.09812600  0.83632800  0.75581500  1
  F  F43  1  0.59812600  0.66367200  0.24418500  1
  F  F44  1  0.25581500  0.40187400  0.16367200  1
  F  F45  1  0.75581500  0.09812600  0.83632800  1
  F  F46  1  0.24418500  0.59812600  0.66367200  1
  F  F47  1  0.74418500  0.90187400  0.33632800  1
loop_
_geom_bond_atom_site_label_1
_geom_bond_atom_site_label_2
_geom_bond_distance
_geom_bond_site_symmetry_2
Be0 F36 1.572007 1_555
Be0 F17 1.587697 1_455
Be0 F0 1.593864 1_555
Be0 F26 1.596952 1_455
Be1 F37 1.572007 1_555
Be1 F19 1.587697 1_556
Be1 F1 1.593864 1_555
Be1 F28 1.596952 1_555
Be2 F38 1.572007 1_555
Be2 F18 1.587697 1_654
Be2 F2 1.593864 1_555
Be2 F24 1.596952 1_655
Be3 F39 1.572007 1_555
Be3 F23 1.587697 1_545
Be3 F3 1.593864 1_555
Be3 F30 1.596952 1_545
Be4 F40 1.572007 1_555
Be4 F15 1.587697 1_555
Be4 F4 1.593864 1_555
Be4 F25 1.596952 1_555
Be5 F41 1.572007 1_555
Be5 F22 1.587697 1_655
Be5 F5 1.593864 1_555
Be5 F31 1.596952 1_555
Be6 F42 1.572007 1_555
Be6 F21 1.587697 1_465
Be6 F6 1.593864 1_555
Be6 F27 1.596952 1_565
Be7 F43 1.572007 1_555
Be7 F20 1.587697 1_555
Be7 F7 1.593864 1_555
Be7 F29 1.596952 1_555
Be8 F44 1.572007 1_555
Be8 F13 1.587697 1_554
Be8 F8 1.593864 1_555
Be8 F33 1.596952 1_554
Be9 F45 1.572007 1_555
Be9 F14 1.587697 1_546
Be9 F9 1.593864 1_555
Be9 F32 1.596952 1_556
Be10 F46 1.572007 1_555
Be10 F12 1.587697 1_555
Be10 F10 1.593864 1_555
Be10 F35 1.596952 1_555
Be11 F47 1.572007 1_555
Be11 F16 1.587697 1_565
Be11 F11 1.593864 1_555
Be11 F34 1.596952 1_555
Co0 F44 2.078950 1_555
Co0 F36 2.078950 1_555
Co0 F39 2.078950 1_555
Co0 F20 2.095089 1_555
Co0 F15 2.095089 1_555
Co0 F12 2.095089 1_555
Co1 F42 2.078950 1_555
Co1 F46 2.078950 1_555
Co1 F37 2.078950 1_555
Co1 F18 2.095089 1_555
Co1 F22 2.095089 1_555
Co1 F13 2.095089 1_555
Co2 F38 2.078950 1_555
Co2 F43 2.078950 1_555
Co2 F47 2.078950 1_555
Co2 F14 2.095089 1_555
Co2 F19 2.095089 1_555
Co2 F23 2.095089 1_555
Co3 F45 2.078950 1_555
Co3 F40 2.078950 1_555
Co3 F41 2.078950 1_555
Co3 F21 2.095089 1_555
Co3 F16 2.095089 1_555
Co3 F17 2.095089 1_555
Co4 F10 2.087705 1_555
Co4 F7 2.087705 1_555
Co4 F4 2.087705 1_555
Co4 F31 2.107433 1_555
Co4 F34 2.107433 1_555
Co4 F28 2.107433 1_555
Co5 F5 2.087705 1_554
Co5 F2 2.087705 1_555
Co5 F8 2.087705 1_655
Co5 F29 2.107433 1_555
Co5 F32 2.107433 1_555
Co5 F26 2.107433 1_555
Co6 F1 2.087705 1_545
Co6 F9 2.087705 1_555
Co6 F3 2.087705 1_556
Co6 F25 2.107433 1_555
Co6 F27 2.107433 1_555
Co6 F33 2.107433 1_555
Co7 F6 2.087705 1_555
Co7 F11 2.087705 1_455
Co7 F0 2.087705 1_565
Co7 F35 2.107433 1_555
Co7 F24 2.107433 1_555
Co7 F30 2.107433 1_555
F0 Tl0 2.937077 1_555
F0 Tl5 3.614036 1_455
F1 Tl1 2.937077 1_555
F1 Tl4 3.614036 1_555
F2 Tl2 2.937077 1_555
F2 Tl7 3.614036 1_655
F3 Tl0 2.937077 1_555
F3 Tl7 3.614036 1_545
F4 Tl3 2.937077 1_555
F4 Tl6 3.614036 1_555
F5 Tl3 2.937077 1_555
F5 Tl4 3.614036 1_555
F6 Tl1 2.937077 1_555
F6 Tl6 3.614036 1_565
F7 Tl2 2.937077 1_555
F7 Tl5 3.614036 1_555
F8 Tl0 2.937077 1_555
F8 Tl6 3.614036 1_554
F9 Tl3 2.937077 1_555
F9 Tl5 3.614036 1_556
F10 Tl1 2.937077 1_555
F10 Tl7 3.614036 1_555
F11 Tl2 2.937077 1_555
F11 Tl4 3.614036 1_555
F12 Tl6 3.265439 1_555
F12 Tl7 3.313887 1_555
F12 Tl2 3.319968 1_455
F13 Tl7 3.265439 1_556
F13 Tl6 3.313887 1_555
F13 Tl3 3.319968 1_555
F14 Tl4 3.265439 1_554
F14 Tl5 3.313887 1_565
F14 Tl0 3.319968 1_665
F15 Tl5 3.265439 1_555
F15 Tl6 3.313887 1_555
F15 Tl1 3.319968 1_545
F16 Tl5 3.265439 1_555
F16 Tl4 3.313887 1_545
F16 Tl1 3.319968 1_545
F17 Tl6 3.265439 1_655
F17 Tl5 3.313887 1_555
F17 Tl2 3.319968 1_555
F18 Tl4 3.265439 1_455
F18 Tl7 3.313887 1_556
F18 Tl0 3.319968 1_566
F19 Tl7 3.265439 1_555
F19 Tl4 3.313887 1_554
F19 Tl3 3.319968 1_554
F20 Tl7 3.265439 1_555
F20 Tl5 3.313887 1_555
F20 Tl3 3.319968 1_554
F21 Tl4 3.265439 1_545
F21 Tl6 3.313887 1_655
F21 Tl0 3.319968 1_656
F22 Tl6 3.265439 1_555
F22 Tl4 3.313887 1_455
F22 Tl2 3.319968 1_455
F23 Tl5 3.265439 1_565
F23 Tl7 3.313887 1_555
F23 Tl1 3.319968 1_555
F24 Tl7 3.132477 1_555
F24 Tl0 3.135943 1_565
F25 Tl6 3.132477 1_555
F25 Tl1 3.135943 1_545
F26 Tl5 3.132477 1_555
F26 Tl2 3.135943 1_555
F27 Tl6 3.132477 1_555
F27 Tl0 3.135943 1_556
F28 Tl4 3.132477 1_555
F28 Tl3 3.135943 1_555
F29 Tl5 3.132477 1_555
F29 Tl3 3.135943 1_554
F30 Tl7 3.132477 1_555
F30 Tl1 3.135943 1_555
F31 Tl4 3.132477 1_555
F31 Tl2 3.135943 1_555
F32 Tl5 3.132477 1_555
F32 Tl0 3.135943 1_655
F33 Tl6 3.132477 1_555
F33 Tl3 3.135943 1_555
F34 Tl4 3.132477 1_555
F34 Tl1 3.135943 1_555
F35 Tl7 3.132477 1_555
F35 Tl2 3.135943 1_455
F36 Tl6 2.988096 1_555
F37 Tl7 2.988096 1_556
F38 Tl4 2.988096 1_554
F39 Tl5 2.988096 1_555
F40 Tl5 2.988096 1_555
F41 Tl6 2.988096 1_655
F42 Tl4 2.988096 1_455
F43 Tl7 2.988096 1_555
F44 Tl7 2.988096 1_555
F45 Tl4 2.988096 1_545
F46 Tl6 2.988096 1_555
F47 Tl5 2.988096 1_565
