# generated using pymatgen
data_Li2PtO2
_symmetry_space_group_name_H-M   'P 1'
_cell_length_a   5.16249740
_cell_length_b   5.16249740
_cell_length_c   5.16249740
_cell_angle_alpha   144.84095424
_cell_angle_beta   135.90205746
_cell_angle_gamma   57.60806084
_symmetry_Int_Tables_number   1
_chemical_formula_structural   Li2PtO2
_chemical_formula_sum   'Li2 Pt1 O2'
_cell_volume   54.67903348
_cell_formula_units_Z   1
loop_
 _symmetry_equiv_pos_site_id
 _symmetry_equiv_pos_as_xyz
  1  'x, y, z'
loop_
 _atom_site_type_symbol
 _atom_site_label
 _atom_site_symmetry_multiplicity
 _atom_site_fract_x
 _atom_site_fract_y
 _atom_site_fract_z
 _atom_site_occupancy
  Li  Li0  1  0.68928000  0.68928000  0.00000000  1
  Li  Li1  1  0.31072000  0.31072000  0.00000000  1
  Pt  Pt0  1  0.00000000  0.00000000  0.00000000  1
  O  O0  1  0.84979300  0.34979300  0.50000000  1
  O  O1  1  0.15020700  0.65020700  0.50000000  1
loop_
_geom_bond_atom_site_label_1
_geom_bond_atom_site_label_2
_geom_bond_distance
_geom_bond_site_symmetry_2
Li0 O1 1.969975 1_655
Li0 O1 1.969975 1_554
Li0 O0 2.130773 1_554
Li0 O0 2.130773 1_565
Li1 O0 1.969975 1_555
Li1 O0 1.969975 1_454
Li1 O1 2.130773 1_544
Li1 O1 2.130773 1_555
O0 Pt0 2.068348 1_666
O0 Pt0 2.068348 1_655
O1 Pt0 2.068348 1_566
O1 Pt0 2.068348 1_555
