# generated using pymatgen
data_CeIn7Cu5
_symmetry_space_group_name_H-M   'P 1'
_cell_length_a   7.31630594
_cell_length_b   7.31630594
_cell_length_c   7.31630594
_cell_angle_alpha   135.77969381
_cell_angle_beta   98.29607408
_cell_angle_gamma   97.99276889
_symmetry_Int_Tables_number   1
_chemical_formula_structural   CeIn7Cu5
_chemical_formula_sum   'Ce1 In7 Cu5'
_cell_volume   253.04339052
_cell_formula_units_Z   1
loop_
 _symmetry_equiv_pos_site_id
 _symmetry_equiv_pos_as_xyz
  1  'x, y, z'
loop_
 _atom_site_type_symbol
 _atom_site_label
 _atom_site_symmetry_multiplicity
 _atom_site_fract_x
 _atom_site_fract_y
 _atom_site_fract_z
 _atom_site_occupancy
  Ce  Ce0  1  0.99960800  0.99960800  0.00000000  1
  In  In0  1  0.34428800  0.34428800  0.00000000  1
  In  In1  1  0.66557000  0.66557000  0.00000000  1
  In  In2  1  0.67069900  0.01290400  0.65779500  1
  In  In3  1  0.35510900  0.01290400  0.34220500  1
  In  In4  1  0.22381500  0.72381500  0.50000000  1
  In  In5  1  0.18500000  0.48677500  0.69822500  1
  In  In6  1  0.78854900  0.48677500  0.30177500  1
  Cu  Cu0  1  0.50652000  0.99375900  0.00284600  1
  Cu  Cu1  1  0.50652000  0.50367500  0.51276100  1
  Cu  Cu2  1  0.99091400  0.99375900  0.48723900  1
  Cu  Cu3  1  0.99091400  0.50367500  0.99715400  1
  Cu  Cu4  1  0.77249300  0.27249300  0.50000000  1
loop_
_geom_bond_atom_site_label_1
_geom_bond_atom_site_label_2
_geom_bond_distance
_geom_bond_site_symmetry_2
Ce0 In1 3.206950 1_555
Ce0 In2 3.277830 1_564
Ce0 In3 3.277830 1_665
Ce0 In0 3.309119 1_665
Ce0 In5 3.346353 1_665
Ce0 In5 3.346353 1_654
Ce0 In6 3.346353 1_554
Ce0 In6 3.346358 1_565
Ce0 In4 3.495221 1_654
Ce0 In4 3.495221 1_665
Ce0 Cu4 3.512483 1_565
Ce0 Cu4 3.512483 1_554
Ce0 Cu3 3.605120 1_554
Ce0 Cu1 3.605126 1_554
Ce0 Cu2 3.605126 1_555
Ce0 Cu0 3.605127 1_555
Ce0 Cu0 3.712145 1_655
Ce0 Cu2 3.712146 1_554
Ce0 Cu1 3.712146 1_665
Ce0 Cu3 3.712151 1_564
In0 In4 2.986805 1_555
In0 In4 2.986805 1_544
In0 In1 3.084485 1_555
In0 In6 3.195931 1_555
In0 In5 3.195938 1_554
In0 In3 3.533386 1_565
In0 In2 3.533386 1_554
In0 In2 3.533386 1_565
In0 In3 3.533386 1_554
In1 In6 3.359939 1_555
In1 In5 3.359940 1_554
In1 In3 3.465904 1_565
In1 In3 3.465904 1_554
In1 In2 3.465904 1_554
In1 In2 3.465904 1_565
In2 In3 3.020604 1_555
In2 In6 3.089540 1_545
In2 In6 3.089545 1_556
In2 In4 3.159737 1_545
In3 In5 3.089544 1_555
In3 In5 3.089544 1_544
In3 In4 3.159737 1_545
In4 In5 2.962855 1_555
In4 In6 2.962862 1_455
Cu0 Cu1 2.699163 1_554
Cu0 In6 2.715205 1_565
Cu0 Cu4 2.719853 1_565
Cu0 In3 2.783833 1_565
Cu0 In1 2.798629 1_555
Cu0 Cu1 2.808383 1_565
Cu0 In4 2.822613 1_554
Cu0 In5 2.910445 1_554
Cu0 In0 2.983663 1_565
Cu0 In2 3.028313 1_564
Cu1 In6 2.715200 1_555
Cu1 Cu4 2.719858 1_555
Cu1 In3 2.783839 1_555
Cu1 In1 2.798633 1_556
Cu1 In4 2.822608 1_555
Cu1 In5 2.910446 1_555
Cu1 In0 2.983659 1_555
Cu1 In2 3.028306 1_565
Cu2 Cu3 2.699163 1_554
Cu2 In5 2.715207 1_665
Cu2 Cu4 2.719858 1_565
Cu2 In2 2.783839 1_565
Cu2 In1 2.798633 1_555
Cu2 Cu3 2.808383 1_565
Cu2 In4 2.822608 1_655
Cu2 In6 2.910448 1_555
Cu2 In0 2.983659 1_666
Cu2 In3 3.028306 1_665
Cu3 In5 2.715200 1_655
Cu3 Cu4 2.719852 1_555
Cu3 In2 2.783840 1_555
Cu3 In1 2.798632 1_556
Cu3 In4 2.822614 1_656
Cu3 In6 2.910457 1_556
Cu3 In0 2.983660 1_656
Cu3 In3 3.028305 1_666
Cu4 In6 2.798537 1_555
Cu4 In5 2.798537 1_655
Cu4 In3 2.914115 1_555
Cu4 In2 2.914115 1_555
Cu4 In1 2.938879 1_545
Cu4 In1 2.938879 1_556
