# generated using pymatgen
data_Li4VCr2Ni3(PO4)6
_symmetry_space_group_name_H-M   'P 1'
_cell_length_a   8.39312900
_cell_length_b   8.50364161
_cell_length_c   8.62482318
_cell_angle_alpha   62.02977785
_cell_angle_beta   62.45127213
_cell_angle_gamma   62.90979828
_symmetry_Int_Tables_number   1
_chemical_formula_structural   Li4VCr2Ni3(PO4)6
_chemical_formula_sum   'Li4 V1 Cr2 Ni3 P6 O24'
_cell_volume   459.12905506
_cell_formula_units_Z   1
loop_
 _symmetry_equiv_pos_site_id
 _symmetry_equiv_pos_as_xyz
  1  'x, y, z'
loop_
 _atom_site_type_symbol
 _atom_site_label
 _atom_site_symmetry_multiplicity
 _atom_site_fract_x
 _atom_site_fract_y
 _atom_site_fract_z
 _atom_site_occupancy
  Li  Li0  1  0.74442000  0.14955000  0.35591700  1
  Li  Li1  1  0.28491200  0.84857900  0.64795600  1
  Li  Li2  1  0.64326100  0.28710900  0.84859200  1
  Li  Li3  1  0.85629000  0.64321200  0.30103300  1
  V  V0  1  0.85310100  0.84982800  0.85279600  1
  Cr  Cr0  1  0.00983600  0.99695300  0.00317400  1
  Cr  Cr1  1  0.49257800  0.50157800  0.49916300  1
  Ni  Ni0  1  0.35740400  0.35587900  0.35027400  1
  Ni  Ni1  1  0.14273800  0.14790400  0.14635700  1
  Ni  Ni2  1  0.64500100  0.64878200  0.65248700  1
  P  P0  1  0.05677000  0.74370200  0.44918400  1
  P  P1  1  0.44315600  0.04747200  0.75077700  1
  P  P2  1  0.75037300  0.44196000  0.04403400  1
  P  P3  1  0.24695900  0.54944400  0.96029900  1
  P  P4  1  0.55424500  0.95946000  0.25029100  1
  P  P5  1  0.94214800  0.24590100  0.53784200  1
  O  O0  1  0.46899300  0.89744300  0.68329700  1
  O  O1  1  0.68438000  0.46721100  0.89398800  1
  O  O2  1  0.90092000  0.67230000  0.48490100  1
  O  O3  1  0.06210200  0.90617600  0.25790400  1
  O  O4  1  0.01545900  0.81179300  0.60468400  1
  O  O5  1  0.25240200  0.59080200  0.43511800  1
  O  O6  1  0.24545000  0.07405700  0.90114000  1
  O  O7  1  0.45569300  0.23605000  0.58862000  1
  O  O8  1  0.16851700  0.40192600  0.00133700  1
  O  O9  1  0.60349900  0.42702900  0.24144200  1
  O  O10  1  0.10009900  0.76070600  0.91658300  1
  O  O11  1  0.39694600  0.01960200  0.17799000  1
  O  O12  1  0.60129500  0.99129900  0.82808300  1
  O  O13  1  0.89986100  0.24010000  0.07344600  1
  O  O14  1  0.40567100  0.56330100  0.76398700  1
  O  O15  1  0.82022800  0.60274900  0.99508100  1
  O  O16  1  0.55885100  0.76107100  0.40818900  1
  O  O17  1  0.76219700  0.91615100  0.10053000  1
  O  O18  1  0.74736500  0.41127800  0.56135000  1
  O  O19  1  0.94790900  0.18155100  0.39771600  1
  O  O20  1  0.91289200  0.09903600  0.74497700  1
  O  O21  1  0.11395800  0.29542600  0.48858100  1
  O  O22  1  0.30298300  0.52919700  0.11259800  1
  O  O23  1  0.54913800  0.10343400  0.31128400  1
loop_
_geom_bond_atom_site_label_1
_geom_bond_atom_site_label_2
_geom_bond_distance
_geom_bond_site_symmetry_2
Li0 O19 2.050814 1_555
Li0 O9 2.072301 1_555
Li0 O23 2.073409 1_555
Li0 O13 2.108451 1_555
Li0 O7 2.388324 1_555
Li0 O3 2.576308 1_645
Li1 O0 1.947249 1_555
Li1 O14 2.082149 1_555
Li1 O10 2.107066 1_555
Li1 O16 2.367195 1_555
Li1 O4 2.624187 1_555
Li2 O1 1.945979 1_555
Li2 O18 2.097649 1_555
Li2 O20 2.156691 1_555
Li2 O14 2.344750 1_555
Li3 O2 1.928256 1_555
Li3 O16 2.132304 1_555
Li3 O17 2.197730 1_555
Li3 O18 2.314397 1_555
Cr0 O6 2.035906 1_564
Cr0 O13 2.101006 1_465
Cr0 O3 2.146479 1_555
Cr0 O17 2.154617 1_455
Cr0 O10 2.159964 1_554
Cr0 O20 2.365194 1_464
Cr1 O5 2.046508 1_555
Cr1 O7 2.138000 1_555
Cr1 O18 2.151596 1_555
Cr1 O16 2.210066 1_555
Cr1 O9 2.253776 1_555
Cr1 O14 2.293299 1_555
Ni0 O21 1.997264 1_555
Ni0 O22 2.000486 1_555
Ni0 O9 2.079795 1_555
Ni0 O23 2.083578 1_555
Ni0 O5 2.115227 1_555
Ni0 O7 2.186984 1_555
Ni1 O8 1.979473 1_555
Ni1 O11 1.989001 1_555
Ni1 O19 2.081408 1_455
Ni1 O3 2.102076 1_545
Ni1 O13 2.105535 1_455
Ni1 O6 2.162587 1_554
Ni2 O1 1.996746 1_555
Ni2 O2 1.997793 1_555
Ni2 O0 2.010735 1_555
Ni2 O14 2.091765 1_555
Ni2 O18 2.172339 1_555
Ni2 O16 2.183427 1_555
O0 P1 1.530090 1_565
O1 P2 1.523714 1_556
O2 P0 1.532903 1_655
O3 P0 1.575601 1_555
O4 P0 1.539361 1_555
O4 V0 2.022684 1_455
O5 P0 1.555820 1_555
O6 P1 1.558595 1_555
O7 P1 1.566018 1_555
O8 P3 1.500841 1_554
O9 P2 1.559790 1_555
O10 P3 1.632968 1_555
O10 V0 2.099438 1_455
O11 P4 1.496944 1_545
O12 P1 1.541689 1_565
O12 V0 1.954430 1_555
O13 P2 1.584131 1_555
O14 P3 1.588915 1_555
O15 P2 1.533343 1_556
O15 V0 1.947508 1_555
O16 P4 1.592605 1_555
O17 P4 1.620416 1_555
O17 V0 2.167032 1_554
O18 P5 1.599495 1_555
O19 P5 1.518089 1_555
O20 P5 1.610052 1_555
O20 V0 2.072653 1_545
O21 P5 1.501952 1_455
O22 P3 1.503869 1_554
O23 P4 1.520845 1_545
