# generated using pymatgen
data_ZnAg3P3O13
_symmetry_space_group_name_H-M   'P 1'
_cell_length_a   6.44571100
_cell_length_b   7.88718800
_cell_length_c   10.77346965
_cell_angle_alpha   82.96066763
_cell_angle_beta   90.00000000
_cell_angle_gamma   90.00000000
_symmetry_Int_Tables_number   1
_chemical_formula_structural   ZnAg3P3O13
_chemical_formula_sum   'Zn2 Ag6 P6 O26'
_cell_volume   543.57893004
_cell_formula_units_Z   2
loop_
 _symmetry_equiv_pos_site_id
 _symmetry_equiv_pos_as_xyz
  1  'x, y, z'
loop_
 _atom_site_type_symbol
 _atom_site_label
 _atom_site_symmetry_multiplicity
 _atom_site_fract_x
 _atom_site_fract_y
 _atom_site_fract_z
 _atom_site_occupancy
  Zn  Zn0  1  0.75000000  0.39550400  0.14412300  1
  Zn  Zn1  1  0.25000000  0.60449600  0.85587700  1
  Ag  Ag0  1  0.25000000  0.67145300  0.21967600  1
  Ag  Ag1  1  0.75000000  0.32854700  0.78032400  1
  Ag  Ag2  1  0.25000000  0.25517600  0.43395700  1
  Ag  Ag3  1  0.50000000  0.00000000  0.00000000  1
  Ag  Ag4  1  0.75000000  0.74482400  0.56604300  1
  Ag  Ag5  1  0.00000000  0.00000000  0.00000000  1
  P  P0  1  0.25000000  0.77518300  0.50120700  1
  P  P1  1  0.75000000  0.22481700  0.49879300  1
  P  P2  1  0.25000000  0.26087000  0.75699300  1
  P  P3  1  0.75000000  0.73913000  0.24300700  1
  P  P4  1  0.75000000  0.66872200  0.88179500  1
  P  P5  1  0.25000000  0.33127800  0.11820500  1
  O  O0  1  0.75000000  0.61157100  0.74691600  1
  O  O1  1  0.56795000  0.24964900  0.40257200  1
  O  O2  1  0.25000000  0.19282900  0.63015100  1
  O  O3  1  0.54075100  0.76572100  0.89210100  1
  O  O4  1  0.75000000  0.37757100  0.57858900  1
  O  O5  1  0.75000000  0.11016500  0.90836100  1
  O  O6  1  0.25000000  0.62242900  0.42141100  1
  O  O7  1  0.04075100  0.23427900  0.10789900  1
  O  O8  1  0.25000000  0.94022600  0.41315400  1
  O  O9  1  0.75000000  0.05977400  0.58684600  1
  O  O10  1  0.07155500  0.38788200  0.78179700  1
  O  O11  1  0.25000000  0.88983500  0.09163900  1
  O  O12  1  0.57155500  0.61211800  0.21820300  1
  O  O13  1  0.75000000  0.49937100  0.96943900  1
  O  O14  1  0.75000000  0.80717100  0.36984900  1
  O  O15  1  0.45924900  0.23427900  0.10789900  1
  O  O16  1  0.93205000  0.24964900  0.40257200  1
  O  O17  1  0.43205000  0.75035100  0.59742800  1
  O  O18  1  0.42844500  0.38788200  0.78179700  1
  O  O19  1  0.25000000  0.38842900  0.25308400  1
  O  O20  1  0.75000000  0.89739000  0.14354200  1
  O  O21  1  0.25000000  0.10261000  0.85645800  1
  O  O22  1  0.92844500  0.61211800  0.21820300  1
  O  O23  1  0.95924900  0.76572100  0.89210100  1
  O  O24  1  0.06795000  0.75035100  0.59742800  1
  O  O25  1  0.25000000  0.50062900  0.03056100  1
loop_
_geom_bond_atom_site_label_1
_geom_bond_atom_site_label_2
_geom_bond_distance
_geom_bond_site_symmetry_2
Ag0 O11 2.070542 1_555
Ag0 O12 2.125315 1_555
Ag0 O22 2.125315 1_455
Ag0 O6 2.160356 1_555
Ag0 O19 2.217120 1_555
Ag0 O25 2.576663 1_555
Ag1 O5 2.070542 1_555
Ag1 O10 2.125315 1_655
Ag1 O18 2.125315 1_555
Ag1 O4 2.160356 1_555
Ag1 O0 2.217120 1_555
Ag1 O13 2.576663 1_555
Ag2 O16 2.078446 1_455
Ag2 O1 2.078446 1_555
Ag2 O19 2.097564 1_555
Ag2 O2 2.110626 1_555
Ag2 O8 2.521366 1_545
Ag2 O6 2.883151 1_555
Ag3 O5 2.028822 1_554
Ag3 O11 2.028822 1_545
Ag3 O20 2.310067 1_545
Ag3 O21 2.310067 1_554
Ag3 O15 2.315410 1_555
Ag3 O3 2.315410 1_544
Ag4 O17 2.078446 1_555
Ag4 O24 2.078446 1_655
Ag4 O0 2.097564 1_555
Ag4 O14 2.110626 1_555
Ag4 O9 2.521366 1_565
Ag4 O4 2.883151 1_555
Ag5 O5 2.028822 1_454
Ag5 O11 2.028822 1_545
Ag5 O20 2.310067 1_445
Ag5 O21 2.310067 1_554
Ag5 O7 2.315410 1_555
Ag5 O23 2.315410 1_444
O0 P4 1.573299 1_555
O1 P1 1.562105 1_555
O2 P2 1.528117 1_555
O3 P4 1.561281 1_555
O3 Zn1 2.324472 1_555
O4 P1 1.563475 1_555
O6 P0 1.563475 1_555
O7 P5 1.561281 1_555
O7 Zn0 2.324472 1_455
O8 P0 1.513847 1_555
O9 P1 1.513847 1_555
O10 P2 1.569564 1_555
O10 Zn1 2.283205 1_555
O12 P3 1.569564 1_555
O12 Zn0 2.283205 1_555
O13 P4 1.538359 1_555
O13 Zn0 1.958312 1_556
O14 P3 1.528117 1_555
O15 P5 1.561281 1_555
O15 Zn0 2.324472 1_555
O16 P1 1.562105 1_555
O17 P0 1.562105 1_555
O18 P2 1.569564 1_555
O18 Zn1 2.283205 1_555
O19 P5 1.573299 1_555
O20 P3 1.542244 1_555
O21 P2 1.542244 1_555
O22 P3 1.569564 1_555
O22 Zn0 2.283205 1_555
O23 P4 1.561281 1_555
O23 Zn1 2.324472 1_655
O24 P0 1.562105 1_555
O25 P5 1.538359 1_555
O25 Zn1 1.958312 1_554
