# generated using pymatgen
data_Sr2Zn3Te2(PO7)2
_symmetry_space_group_name_H-M   'P 1'
_cell_length_a   7.97977900
_cell_length_b   5.29546600
_cell_length_c   15.53204783
_cell_angle_alpha   89.67764229
_cell_angle_beta   90.00000000
_cell_angle_gamma   90.00000000
_symmetry_Int_Tables_number   1
_chemical_formula_structural   Sr2Zn3Te2(PO7)2
_chemical_formula_sum   'Sr4 Zn6 Te4 P4 O28'
_cell_volume   656.32189585
_cell_formula_units_Z   2
loop_
 _symmetry_equiv_pos_site_id
 _symmetry_equiv_pos_as_xyz
  1  'x, y, z'
loop_
 _atom_site_type_symbol
 _atom_site_label
 _atom_site_symmetry_multiplicity
 _atom_site_fract_x
 _atom_site_fract_y
 _atom_site_fract_z
 _atom_site_occupancy
  Sr  Sr0  1  0.44834400  0.49882800  0.20301400  1
  Sr  Sr1  1  0.94834400  0.50117200  0.29698600  1
  Sr  Sr2  1  0.55165600  0.50117200  0.79698600  1
  Sr  Sr3  1  0.05165600  0.49882800  0.70301400  1
  Zn  Zn0  1  0.10763600  0.00847200  0.11716100  1
  Zn  Zn1  1  0.60763600  0.99152800  0.38283900  1
  Zn  Zn2  1  0.89236400  0.99152800  0.88283900  1
  Zn  Zn3  1  0.39236400  0.00847200  0.61716100  1
  Zn  Zn4  1  0.50000000  0.00000000  0.00000000  1
  Zn  Zn5  1  0.00000000  0.00000000  0.50000000  1
  Te  Te0  1  0.22817400  0.48572400  0.99229900  1
  Te  Te1  1  0.72817400  0.51427600  0.50770100  1
  Te  Te2  1  0.77182600  0.51427600  0.00770100  1
  Te  Te3  1  0.27182600  0.48572400  0.49229900  1
  P  P0  1  0.23507300  0.04642900  0.30726400  1
  P  P1  1  0.73507300  0.95357100  0.19273600  1
  P  P2  1  0.76492700  0.95357100  0.69273600  1
  P  P3  1  0.26492700  0.04642900  0.80726400  1
  O  O0  1  0.18281100  0.19957600  0.22378300  1
  O  O1  1  0.68281100  0.80042400  0.27621700  1
  O  O2  1  0.81718900  0.80042400  0.77621700  1
  O  O3  1  0.31718900  0.19957600  0.72378300  1
  O  O4  1  0.26032800  0.74718900  0.07529100  1
  O  O5  1  0.76032800  0.25281100  0.42470900  1
  O  O6  1  0.73967200  0.25281100  0.92470900  1
  O  O7  1  0.23967200  0.74718900  0.57529100  1
  O  O8  1  0.39820200  0.29475400  0.05372500  1
  O  O9  1  0.89820200  0.70524600  0.44627500  1
  O  O10  1  0.60179800  0.70524600  0.94627500  1
  O  O11  1  0.10179800  0.29475400  0.55372500  1
  O  O12  1  0.41019000  0.15777800  0.33053800  1
  O  O13  1  0.91019000  0.84222200  0.16946200  1
  O  O14  1  0.58981000  0.84222200  0.66946200  1
  O  O15  1  0.08981000  0.15777800  0.83053800  1
  O  O16  1  0.10673000  0.11790700  0.37783100  1
  O  O17  1  0.60673000  0.88209300  0.12216900  1
  O  O18  1  0.89327000  0.88209300  0.62216900  1
  O  O19  1  0.39327000  0.11790700  0.87783100  1
  O  O20  1  0.23816400  0.76010800  0.28996000  1
  O  O21  1  0.73816400  0.23989200  0.21004000  1
  O  O22  1  0.76183600  0.23989200  0.71004000  1
  O  O23  1  0.26183600  0.76010800  0.78996000  1
  O  O24  1  0.04888600  0.28849200  0.03987900  1
  O  O25  1  0.54888600  0.71150800  0.46012100  1
  O  O26  1  0.95111400  0.71150800  0.96012100  1
  O  O27  1  0.45111400  0.28849200  0.53987900  1
loop_
_geom_bond_atom_site_label_1
_geom_bond_atom_site_label_2
_geom_bond_distance
_geom_bond_site_symmetry_2
O0 P0 1.581467 1_555
O0 Zn0 2.036014 1_555
O0 Sr0 2.664438 1_555
O0 Sr1 2.713763 1_455
O1 P1 1.581467 1_555
O1 Zn1 2.036014 1_555
O1 Sr1 2.664438 1_555
O1 Sr0 2.713763 1_555
O2 P2 1.581467 1_555
O2 Zn2 2.036014 1_555
O2 Sr2 2.664438 1_555
O2 Sr3 2.713763 1_655
O3 P3 1.581467 1_555
O3 Zn3 2.036014 1_555
O3 Sr3 2.664438 1_555
O3 Sr2 2.713763 1_555
O4 Te0 1.914312 1_554
O4 Zn0 1.957564 1_565
O4 Zn4 2.607674 1_565
O4 O8 2.659285 1_555
O4 Sr0 2.808345 1_555
O5 Te1 1.914312 1_555
O5 Zn1 1.957564 1_545
O5 Zn5 2.607674 1_655
O5 O9 2.659285 1_555
O5 Sr1 2.808345 1_555
O6 Te2 1.914312 1_556
O6 Zn2 1.957564 1_545
O6 Zn4 2.607674 1_556
O6 Sr2 2.808345 1_555
O7 Te3 1.914312 1_555
O7 Zn3 1.957564 1_565
O7 Zn5 2.607674 1_565
O7 Sr3 2.808345 1_555
O8 Te0 1.939830 1_554
O8 Zn4 1.951188 1_555
O8 Sr0 2.594764 1_555
O9 Te1 1.939830 1_555
O9 Zn5 1.951188 1_665
O9 Sr1 2.594764 1_555
O10 Te2 1.939830 1_556
O10 Zn4 1.951188 1_566
O10 Sr2 2.594764 1_555
O10 O6 2.659285 1_555
O11 Te3 1.939830 1_555
O11 Zn5 1.951188 1_555
O11 Sr3 2.594764 1_555
O11 O7 2.659285 1_555
O12 P0 1.559958 1_555
O12 Zn1 1.977206 1_545
O12 Sr0 2.690233 1_555
O13 P1 1.559958 1_555
O13 Zn0 1.977206 1_665
O13 Sr1 2.690233 1_555
O14 P2 1.559958 1_555
O14 Zn3 1.977206 1_565
O14 Sr2 2.690233 1_555
O15 P3 1.559958 1_555
O15 Zn2 1.977206 1_445
O15 Sr3 2.690233 1_555
O16 P0 1.548594 1_555
O16 Zn5 2.168527 1_555
O16 Sr1 2.695297 1_455
O17 P1 1.548594 1_555
O17 Zn4 2.168527 1_565
O17 Sr0 2.695297 1_555
O18 P2 1.548594 1_555
O18 Zn5 2.168527 1_665
O18 Sr3 2.695297 1_655
O19 P3 1.548594 1_555
O19 Zn4 2.168527 1_556
O19 Sr2 2.695297 1_555
O20 P0 1.541526 1_565
O20 Sr0 2.563601 1_555
O20 Sr1 2.690531 1_455
O21 P1 1.541526 1_545
O21 Sr1 2.563601 1_555
O21 Sr0 2.690531 1_555
O22 P2 1.541526 1_545
O22 Sr2 2.563601 1_555
O22 Sr3 2.690531 1_655
O23 P3 1.541526 1_565
O23 Sr3 2.563601 1_555
O23 Sr2 2.690531 1_555
O24 Te0 1.917067 1_554
O24 Zn0 1.959437 1_555
O24 Te2 2.561363 1_455
O24 O26 2.670210 1_454
O25 Te1 1.917067 1_555
O25 Zn1 1.959437 1_555
O25 Te3 2.561363 1_555
O25 O27 2.670210 1_555
O26 Te2 1.917067 1_556
O26 Zn2 1.959437 1_555
O26 Te0 2.561363 1_655
O27 Te3 1.917067 1_555
O27 Zn3 1.959437 1_555
O27 Te1 2.561363 1_555
