# generated using pymatgen
data_MgSc8Ga15Cu29
_symmetry_space_group_name_H-M   'P 1'
_cell_length_a   8.31655800
_cell_length_b   8.47183400
_cell_length_c   11.77731336
_cell_angle_alpha   69.33276064
_cell_angle_beta   90.00000000
_cell_angle_gamma   90.00000000
_symmetry_Int_Tables_number   1
_chemical_formula_structural   MgSc8Ga15Cu29
_chemical_formula_sum   'Mg1 Sc8 Ga15 Cu29'
_cell_volume   776.38806135
_cell_formula_units_Z   1
loop_
 _symmetry_equiv_pos_site_id
 _symmetry_equiv_pos_as_xyz
  1  'x, y, z'
loop_
 _atom_site_type_symbol
 _atom_site_label
 _atom_site_symmetry_multiplicity
 _atom_site_fract_x
 _atom_site_fract_y
 _atom_site_fract_z
 _atom_site_occupancy
  Mg  Mg0  1  0.00000000  0.17316700  0.48515600  1
  Sc  Sc0  1  0.72543800  0.80990900  0.37392600  1
  Sc  Sc1  1  0.71268100  0.18914800  0.63480500  1
  Sc  Sc2  1  0.28731900  0.18914800  0.63480500  1
  Sc  Sc3  1  0.27456200  0.80990900  0.37392600  1
  Sc  Sc4  1  0.50000000  0.69654600  0.99988300  1
  Sc  Sc5  1  0.50000000  0.30143400  0.00091300  1
  Sc  Sc6  1  0.00000000  0.60872500  0.77516800  1
  Sc  Sc7  1  0.00000000  0.39674500  0.21421800  1
  Ga  Ga0  1  0.50000000  0.63708100  0.26245100  1
  Ga  Ga1  1  0.50000000  0.36496800  0.74091700  1
  Ga  Ga2  1  0.50000000  0.89874900  0.73919600  1
  Ga  Ga3  1  0.50000000  0.09748100  0.26051100  1
  Ga  Ga4  1  0.66035000  0.59298400  0.81615300  1
  Ga  Ga5  1  0.65974100  0.40957200  0.18137800  1
  Ga  Ga6  1  0.34025900  0.40957200  0.18137800  1
  Ga  Ga7  1  0.33965000  0.59298400  0.81615300  1
  Ga  Ga8  1  0.50000000  0.06419400  0.87417000  1
  Ga  Ga9  1  0.50000000  0.93467300  0.12450100  1
  Ga  Ga10  1  0.50000000  0.50089700  0.50084900  1
  Ga  Ga11  1  0.50000000  0.00127600  0.49994500  1
  Ga  Ga12  1  0.50000000  0.70393900  0.59693400  1
  Ga  Ga13  1  0.50000000  0.29983800  0.40370900  1
  Ga  Ga14  1  0.00000000  0.50894100  0.50097700  1
  Cu  Cu0  1  0.77553200  0.70231600  0.15441900  1
  Cu  Cu1  1  0.77874400  0.30078500  0.84502300  1
  Cu  Cu2  1  0.22299900  0.85450200  0.84570600  1
  Cu  Cu3  1  0.22033300  0.14300100  0.15618000  1
  Cu  Cu4  1  0.22125600  0.30078500  0.84502300  1
  Cu  Cu5  1  0.22446800  0.70231600  0.15441900  1
  Cu  Cu6  1  0.77966700  0.14300100  0.15618000  1
  Cu  Cu7  1  0.77700100  0.85450200  0.84570600  1
  Cu  Cu8  1  0.76105500  0.53851900  0.62224900  1
  Cu  Cu9  1  0.76463600  0.46092800  0.37881200  1
  Cu  Cu10  1  0.25199200  0.14936200  0.37272400  1
  Cu  Cu11  1  0.24046100  0.85928800  0.61827700  1
  Cu  Cu12  1  0.23536400  0.46092800  0.37881200  1
  Cu  Cu13  1  0.23894500  0.53851900  0.62224900  1
  Cu  Cu14  1  0.75953900  0.85928800  0.61827700  1
  Cu  Cu15  1  0.74800800  0.14936200  0.37272400  1
  Cu  Cu16  1  0.00000000  0.94340300  0.12456700  1
  Cu  Cu17  1  0.00000000  0.05819900  0.87742700  1
  Cu  Cu18  1  0.74837200  0.00114400  0.99953700  1
  Cu  Cu19  1  0.25162800  0.00114400  0.99953700  1
  Cu  Cu20  1  0.00000000  0.68462600  0.29748200  1
  Cu  Cu21  1  0.00000000  0.30737900  0.69681400  1
  Cu  Cu22  1  0.00000000  0.97135200  0.69827300  1
  Cu  Cu23  1  0.00000000  0.02213500  0.31291900  1
  Cu  Cu24  1  0.00000000  0.74734700  0.00178700  1
  Cu  Cu25  1  0.00000000  0.25422300  0.99876400  1
  Cu  Cu26  1  0.83034100  0.50169800  0.99789600  1
  Cu  Cu27  1  0.16965900  0.50169800  0.99789600  1
  Cu  Cu28  1  0.00000000  0.79637200  0.51829600  1
loop_
_geom_bond_atom_site_label_1
_geom_bond_atom_site_label_2
_geom_bond_distance
_geom_bond_site_symmetry_2
Mg0 Sc2 3.000463 1_555
Mg0 Sc1 3.000463 1_455
Mg0 Sc7 3.082748 1_555
Sc1 Sc2 3.537548 1_555
Sc4 Sc5 3.343061 1_556
Ga0 Ga9 2.470720 1_555
Ga0 Ga10 2.632041 1_555
Ga0 Ga13 2.752342 1_555
Ga0 Ga6 2.773191 1_555
Ga0 Ga5 2.773191 1_555
Ga0 Sc4 2.952412 1_554
Ga0 Sc0 2.956258 1_555
Ga0 Sc3 2.956258 1_555
Ga1 Ga8 2.476490 1_555
Ga1 Ga10 2.649865 1_555
Ga1 Ga7 2.739207 1_555
Ga1 Ga4 2.739207 1_555
Ga1 Ga12 2.772151 1_555
Ga1 Sc2 2.867575 1_555
Ga1 Sc1 2.867575 1_555
Ga1 Sc5 2.915904 1_556
Ga2 Ga8 2.462563 1_565
Ga2 Ga7 2.766353 1_555
Ga2 Ga4 2.766353 1_555
Ga2 Sc2 2.925349 1_565
Ga2 Sc1 2.925349 1_565
Ga2 Sc4 2.940765 1_555
Ga3 Ga9 2.455167 1_545
Ga3 Ga5 2.807979 1_555
Ga3 Ga6 2.807979 1_555
Ga3 Sc5 2.933264 1_555
Ga3 Sc0 2.989583 1_545
Ga3 Sc3 2.989583 1_545
Ga4 Ga7 2.667120 1_555
Ga4 Sc6 2.860835 1_655
Ga4 Sc4 2.927536 1_555
Ga4 Sc5 2.969876 1_556
Ga5 Ga6 2.656991 1_555
Ga5 Sc7 2.852964 1_655
Ga5 Sc5 2.914777 1_555
Ga5 Sc4 2.928540 1_554
Ga6 Sc7 2.852964 1_555
Ga6 Sc5 2.914777 1_555
Ga6 Sc4 2.928540 1_554
Ga7 Sc6 2.860835 1_555
Ga7 Sc4 2.927536 1_555
Ga7 Sc5 2.969876 1_556
Ga8 Ga9 2.759080 1_546
Ga8 Sc5 2.895750 1_556
Ga8 Sc4 2.939048 1_545
Ga8 Sc2 3.176452 1_555
Ga8 Sc1 3.176452 1_555
Ga9 Sc4 2.883370 1_554
Ga9 Sc5 2.929252 1_565
Ga9 Sc0 3.327140 1_555
Ga9 Sc3 3.327140 1_555
Ga10 Ga13 2.363421 1_555
Ga10 Ga12 2.369277 1_555
Ga10 Sc2 3.106713 1_555
Ga10 Sc1 3.106713 1_555
Ga10 Sc0 3.136987 1_555
Ga10 Sc3 3.136987 1_555
Ga11 Ga12 2.370446 1_545
Ga11 Ga13 2.378800 1_555
Ga11 Ga2 2.639406 1_545
Ga11 Ga3 2.644566 1_555
Ga11 Sc2 3.157358 1_555
Ga11 Sc1 3.157358 1_555
Ga11 Sc0 3.169342 1_545
Ga11 Sc3 3.169342 1_545
Ga12 Ga2 2.735485 1_555
Ga12 Ga7 2.759462 1_555
Ga12 Ga4 2.759462 1_555
Ga12 Sc0 3.091094 1_555
Ga12 Sc3 3.091094 1_555
Ga13 Ga6 2.786970 1_555
Ga13 Ga5 2.786970 1_555
Ga13 Ga3 2.797146 1_555
Ga13 Sc2 3.100635 1_555
Ga13 Sc1 3.100635 1_555
Ga14 Mg0 2.915601 1_555
Cu0 Cu20 2.483555 1_655
Cu0 Cu24 2.525422 1_655
Cu0 Cu18 2.554947 1_564
Cu0 Ga5 2.573538 1_555
Cu0 Ga0 2.584332 1_555
Cu0 Cu16 2.696901 1_655
Cu0 Cu9 2.712835 1_555
Cu0 Sc4 2.937436 1_554
Cu0 Cu26 2.950627 1_554
Cu0 Ga9 2.959793 1_555
Cu0 Sc0 3.057949 1_555
Cu0 Sc7 3.065226 1_655
Cu1 Cu25 2.513132 1_655
Cu1 Cu21 2.523291 1_655
Cu1 Cu18 2.560968 1_555
Cu1 Ga4 2.572720 1_555
Cu1 Ga1 2.588893 1_555
Cu1 Cu17 2.683575 1_655
Cu1 Cu8 2.689180 1_555
Cu1 Cu26 2.913079 1_555
Cu1 Sc5 2.958367 1_556
Cu1 Sc1 2.996463 1_555
Cu1 Ga8 3.003935 1_555
Cu1 Sc6 3.058377 1_655
Cu2 Cu22 2.494211 1_555
Cu2 Cu24 2.542576 1_556
Cu2 Ga7 2.552495 1_555
Cu2 Ga2 2.586336 1_555
Cu2 Cu27 2.925981 1_555
Cu2 Sc4 2.946123 1_555
Cu2 Ga8 2.999271 1_565
Cu2 Sc2 3.085858 1_565
Cu2 Sc6 3.112252 1_555
Cu3 Ga6 2.579927 1_555
Cu3 Ga3 2.594936 1_555
Cu3 Sc5 2.970280 1_555
Cu3 Ga9 3.021358 1_545
Cu3 Sc7 3.079491 1_555
Cu3 Sc3 3.103994 1_545
Cu4 Ga7 2.572720 1_555
Cu4 Ga1 2.588893 1_555
Cu4 Sc5 2.958367 1_556
Cu4 Sc2 2.996463 1_555
Cu4 Ga8 3.003935 1_555
Cu4 Sc6 3.058377 1_555
Cu5 Ga6 2.573538 1_555
Cu5 Ga0 2.584332 1_555
Cu5 Sc4 2.937436 1_554
Cu5 Ga9 2.959793 1_555
Cu5 Sc3 3.057949 1_555
Cu5 Sc7 3.065226 1_555
Cu6 Ga5 2.579927 1_555
Cu6 Ga3 2.594936 1_555
Cu6 Sc5 2.970280 1_555
Cu6 Ga9 3.021358 1_545
Cu6 Sc7 3.079491 1_655
Cu6 Sc0 3.103994 1_545
Cu7 Ga4 2.552495 1_555
Cu7 Ga2 2.586336 1_555
Cu7 Sc4 2.946123 1_555
Cu7 Ga8 2.999271 1_565
Cu7 Sc1 3.085858 1_565
Cu7 Sc6 3.112252 1_655
Cu8 Ga14 2.510838 1_655
Cu8 Ga12 2.543913 1_555
Cu8 Ga4 2.621696 1_555
Cu8 Ga10 2.679753 1_555
Cu8 Ga1 2.716269 1_555
Cu8 Sc6 2.881380 1_655
Cu8 Sc1 2.938581 1_555
Cu8 Sc0 3.029963 1_555
Cu8 Cu9 3.159616 1_555
Cu9 Ga14 2.545608 1_655
Cu9 Ga13 2.551427 1_555
Cu9 Ga5 2.659169 1_555
Cu9 Ga10 2.714354 1_555
Cu9 Ga0 2.739580 1_555
Cu9 Sc7 2.937492 1_655
Cu9 Sc0 2.954731 1_555
Cu9 Mg0 3.031176 1_655
Cu9 Sc1 3.110904 1_555
Cu10 Ga13 2.518112 1_555
Cu10 Mg0 2.524781 1_555
Cu10 Cu23 2.566265 1_555
Cu10 Ga3 2.569816 1_555
Cu10 Cu3 2.583274 1_555
Cu10 Ga11 2.597350 1_555
Cu10 Ga6 2.640124 1_555
Cu10 Cu12 2.669270 1_555
Cu10 Sc3 2.876954 1_545
Cu10 Cu11 3.065145 1_545
Cu10 Sc7 3.083423 1_555
Cu10 Sc2 3.234419 1_555
Cu11 Cu28 2.472426 1_555
Cu11 Cu22 2.533687 1_555
Cu11 Ga12 2.586077 1_555
Cu11 Ga11 2.620084 1_565
Cu11 Cu2 2.668417 1_555
Cu11 Ga2 2.671120 1_555
Cu11 Cu13 2.701375 1_555
Cu11 Ga7 2.736802 1_555
Cu11 Sc2 2.895353 1_565
Cu11 Sc6 3.025020 1_555
Cu11 Sc3 3.063812 1_555
Cu12 Ga14 2.545608 1_555
Cu12 Ga13 2.551427 1_555
Cu12 Cu20 2.656904 1_555
Cu12 Ga6 2.659169 1_555
Cu12 Cu5 2.712835 1_555
Cu12 Ga10 2.714354 1_555
Cu12 Ga0 2.739580 1_555
Cu12 Sc7 2.937492 1_555
Cu12 Sc3 2.954731 1_555
Cu12 Mg0 3.031176 1_555
Cu12 Sc2 3.110904 1_555
Cu12 Cu13 3.159616 1_555
Cu13 Ga14 2.510838 1_555
Cu13 Ga12 2.543913 1_555
Cu13 Ga7 2.621696 1_555
Cu13 Ga10 2.679753 1_555
Cu13 Cu4 2.689180 1_555
Cu13 Cu21 2.709386 1_555
Cu13 Ga1 2.716269 1_555
Cu13 Sc6 2.881380 1_555
Cu13 Cu28 2.886520 1_555
Cu13 Sc2 2.938581 1_555
Cu13 Sc3 3.029963 1_555
Cu14 Cu28 2.472426 1_655
Cu14 Cu22 2.533687 1_655
Cu14 Ga12 2.586077 1_555
Cu14 Ga11 2.620084 1_565
Cu14 Cu7 2.668417 1_555
Cu14 Ga2 2.671120 1_555
Cu14 Cu8 2.701375 1_555
Cu14 Ga4 2.736802 1_555
Cu14 Sc1 2.895353 1_565
Cu14 Sc6 3.025020 1_655
Cu14 Sc0 3.063812 1_555
Cu14 Cu15 3.065145 1_565
Cu15 Ga13 2.518112 1_555
Cu15 Mg0 2.524781 1_655
Cu15 Cu23 2.566265 1_655
Cu15 Ga3 2.569816 1_555
Cu15 Cu6 2.583274 1_555
Cu15 Ga11 2.597350 1_555
Cu15 Ga5 2.640124 1_555
Cu15 Cu9 2.669270 1_555
Cu15 Sc0 2.876954 1_545
Cu15 Sc7 3.083423 1_655
Cu15 Sc1 3.234419 1_555
Cu16 Cu20 2.408736 1_555
Cu16 Cu19 2.505683 1_564
Cu16 Cu18 2.505683 1_464
Cu16 Cu25 2.524893 1_564
Cu16 Cu23 2.531815 1_565
Cu16 Cu24 2.558339 1_555
Cu16 Cu3 2.607701 1_565
Cu16 Cu6 2.607701 1_465
Cu16 Cu5 2.696901 1_555
Cu16 Cu17 2.723884 1_564
Cu17 Cu21 2.410682 1_555
Cu17 Cu22 2.467599 1_545
Cu17 Cu19 2.488066 1_555
Cu17 Cu18 2.488066 1_455
Cu17 Cu24 2.521458 1_546
Cu17 Cu25 2.544629 1_555
Cu17 Cu2 2.648042 1_545
Cu17 Cu7 2.648042 1_445
Cu17 Cu4 2.683575 1_555
Cu18 Ga9 2.482905 1_546
Cu18 Ga8 2.485021 1_555
Cu18 Cu7 2.543842 1_545
Cu18 Cu6 2.545673 1_556
Cu18 Sc5 3.281469 1_556
Cu18 Sc4 3.304285 1_545
Cu19 Ga9 2.482905 1_546
Cu19 Ga8 2.485021 1_555
Cu19 Cu2 2.543842 1_545
Cu19 Cu3 2.545673 1_556
Cu19 Cu5 2.554947 1_546
Cu19 Cu4 2.560968 1_555
Cu19 Sc5 3.281469 1_556
Cu19 Sc4 3.304285 1_545
Cu20 Ga14 2.332625 1_555
Cu20 Cu5 2.483555 1_555
Cu20 Cu9 2.656904 1_455
Cu20 Sc3 2.797418 1_555
Cu20 Sc0 2.797418 1_455
Cu20 Cu23 2.928432 1_565
Cu20 Sc7 2.932229 1_555
Cu21 Ga14 2.335690 1_555
Cu21 Cu4 2.523291 1_555
Cu21 Cu8 2.709386 1_455
Cu21 Sc2 2.786160 1_555
Cu21 Sc1 2.786160 1_455
Cu21 Cu22 2.840746 1_545
Cu21 Sc6 3.005343 1_555
Cu21 Mg0 3.083403 1_555
Cu22 Mg0 2.488747 1_565
Cu22 Cu7 2.494211 1_455
Cu22 Sc6 2.879959 1_555
Cu22 Sc2 2.949478 1_565
Cu22 Sc1 2.949478 1_465
Cu22 Cu28 2.984695 1_555
Cu23 Cu28 2.498622 1_545
Cu23 Cu6 2.545498 1_455
Cu23 Cu3 2.545498 1_555
Cu23 Mg0 2.753913 1_555
Cu23 Sc3 2.837417 1_545
Cu23 Sc0 2.837417 1_445
Cu23 Sc7 2.969699 1_555
Cu24 Cu5 2.525422 1_555
Cu24 Cu26 2.528091 1_454
Cu24 Cu27 2.528091 1_554
Cu24 Cu7 2.542576 1_454
Cu24 Sc7 3.136268 1_555
Cu24 Sc6 3.273383 1_554
Cu25 Cu4 2.513132 1_555
Cu25 Cu26 2.524169 1_455
Cu25 Cu27 2.524169 1_555
Cu25 Cu6 2.539601 1_456
Cu25 Cu3 2.539601 1_556
Cu25 Sc7 3.171639 1_556
Cu25 Sc6 3.220509 1_555
Cu26 Ga4 2.451486 1_555
Cu26 Ga5 2.470070 1_556
Cu26 Sc7 2.770048 1_656
Cu26 Cu27 2.821958 1_655
Cu26 Sc6 2.831069 1_655
Cu26 Cu7 2.925981 1_555
Cu26 Cu6 2.981347 1_556
Cu26 Sc4 3.209416 1_555
Cu26 Sc5 3.222550 1_556
Cu27 Ga7 2.451486 1_555
Cu27 Ga6 2.470070 1_556
Cu27 Sc7 2.770048 1_556
Cu27 Sc6 2.831069 1_555
Cu27 Cu4 2.913079 1_555
Cu27 Cu5 2.950627 1_556
Cu27 Cu3 2.981347 1_556
Cu27 Sc4 3.209416 1_555
Cu27 Sc5 3.222550 1_556
Cu28 Ga14 2.514311 1_555
Cu28 Sc3 2.824971 1_555
Cu28 Sc0 2.824971 1_455
Cu28 Sc6 2.878300 1_555
Cu28 Cu8 2.886520 1_455
Cu28 Mg0 3.076145 1_565
