# generated using pymatgen
data_Tm2(Ni2B)5
_symmetry_space_group_name_H-M   'P 1'
_cell_length_a   8.93482200
_cell_length_b   9.42936000
_cell_length_c   17.47833600
_cell_angle_alpha   90.00000000
_cell_angle_beta   90.00000000
_cell_angle_gamma   90.00000000
_symmetry_Int_Tables_number   1
_chemical_formula_structural   Tm2(Ni2B)5
_chemical_formula_sum   'Tm16 Ni80 B40'
_cell_volume   1472.54374606
_cell_formula_units_Z   8
loop_
 _symmetry_equiv_pos_site_id
 _symmetry_equiv_pos_as_xyz
  1  'x, y, z'
loop_
 _atom_site_type_symbol
 _atom_site_label
 _atom_site_symmetry_multiplicity
 _atom_site_fract_x
 _atom_site_fract_y
 _atom_site_fract_z
 _atom_site_occupancy
  Tm  Tm0  1  0.12444400  0.85883100  0.27804100  1
  Tm  Tm1  1  0.37555600  0.14116900  0.77804100  1
  Tm  Tm2  1  0.62444400  0.64116900  0.72195900  1
  Tm  Tm3  1  0.87555600  0.35883100  0.22195900  1
  Tm  Tm4  1  0.87555600  0.14116900  0.72195900  1
  Tm  Tm5  1  0.62444400  0.85883100  0.22195900  1
  Tm  Tm6  1  0.37555600  0.35883100  0.27804100  1
  Tm  Tm7  1  0.12444400  0.64116900  0.77804100  1
  Tm  Tm8  1  0.21923500  0.88750400  0.48012600  1
  Tm  Tm9  1  0.28076500  0.11249600  0.98012600  1
  Tm  Tm10  1  0.71923500  0.61249600  0.51987400  1
  Tm  Tm11  1  0.78076500  0.38750400  0.01987400  1
  Tm  Tm12  1  0.78076500  0.11249600  0.51987400  1
  Tm  Tm13  1  0.71923500  0.88750400  0.01987400  1
  Tm  Tm14  1  0.28076500  0.38750400  0.48012600  1
  Tm  Tm15  1  0.21923500  0.61249600  0.98012600  1
  Ni  Ni0  1  0.12152700  0.96216900  0.72717400  1
  Ni  Ni1  1  0.37847300  0.03783100  0.22717400  1
  Ni  Ni2  1  0.62152700  0.53783100  0.27282600  1
  Ni  Ni3  1  0.87847300  0.46216900  0.77282600  1
  Ni  Ni4  1  0.87847300  0.03783100  0.27282600  1
  Ni  Ni5  1  0.62152700  0.96216900  0.77282600  1
  Ni  Ni6  1  0.37847300  0.46216900  0.72717400  1
  Ni  Ni7  1  0.12152700  0.53783100  0.22717400  1
  Ni  Ni8  1  0.12651500  0.17709800  0.23726600  1
  Ni  Ni9  1  0.37348500  0.82290200  0.73726600  1
  Ni  Ni10  1  0.62651500  0.32290200  0.76273400  1
  Ni  Ni11  1  0.87348500  0.67709800  0.26273400  1
  Ni  Ni12  1  0.87348500  0.82290200  0.76273400  1
  Ni  Ni13  1  0.62651500  0.17709800  0.26273400  1
  Ni  Ni14  1  0.37348500  0.67709800  0.23726600  1
  Ni  Ni15  1  0.12651500  0.32290200  0.73726600  1
  Ni  Ni16  1  0.07932400  0.88610400  0.01522800  1
  Ni  Ni17  1  0.42067600  0.11389600  0.51522800  1
  Ni  Ni18  1  0.57932400  0.61389600  0.98477200  1
  Ni  Ni19  1  0.92067600  0.38610400  0.48477200  1
  Ni  Ni20  1  0.92067600  0.11389600  0.98477200  1
  Ni  Ni21  1  0.57932400  0.88610400  0.48477200  1
  Ni  Ni22  1  0.42067600  0.38610400  0.01522800  1
  Ni  Ni23  1  0.07932400  0.61389600  0.51522800  1
  Ni  Ni24  1  0.16172800  0.78160000  0.62748400  1
  Ni  Ni25  1  0.33827200  0.21840000  0.12748400  1
  Ni  Ni26  1  0.66172800  0.71840000  0.37251600  1
  Ni  Ni27  1  0.83827200  0.28160000  0.87251600  1
  Ni  Ni28  1  0.83827200  0.21840000  0.37251600  1
  Ni  Ni29  1  0.66172800  0.78160000  0.87251600  1
  Ni  Ni30  1  0.33827200  0.28160000  0.62748400  1
  Ni  Ni31  1  0.16172800  0.71840000  0.12748400  1
  Ni  Ni32  1  0.17697800  0.99416200  0.13125700  1
  Ni  Ni33  1  0.32302200  0.00583800  0.63125700  1
  Ni  Ni34  1  0.67697800  0.50583800  0.86874300  1
  Ni  Ni35  1  0.82302200  0.49416200  0.36874300  1
  Ni  Ni36  1  0.82302200  0.00583800  0.86874300  1
  Ni  Ni37  1  0.67697800  0.99416200  0.36874300  1
  Ni  Ni38  1  0.32302200  0.49416200  0.13125700  1
  Ni  Ni39  1  0.17697800  0.50583800  0.63125700  1
  Ni  Ni40  1  0.23109700  0.89336100  0.86522800  1
  Ni  Ni41  1  0.26890300  0.10663900  0.36522800  1
  Ni  Ni42  1  0.73109700  0.60663900  0.13477200  1
  Ni  Ni43  1  0.76890300  0.39336100  0.63477200  1
  Ni  Ni44  1  0.76890300  0.10663900  0.13477200  1
  Ni  Ni45  1  0.73109700  0.89336100  0.63477200  1
  Ni  Ni46  1  0.26890300  0.39336100  0.86522800  1
  Ni  Ni47  1  0.23109700  0.60663900  0.36522800  1
  Ni  Ni48  1  0.09155900  0.14715600  0.84961100  1
  Ni  Ni49  1  0.40844100  0.85284400  0.34961100  1
  Ni  Ni50  1  0.59155900  0.35284400  0.15038900  1
  Ni  Ni51  1  0.90844100  0.64715600  0.65038900  1
  Ni  Ni52  1  0.90844100  0.85284400  0.15038900  1
  Ni  Ni53  1  0.59155900  0.14715600  0.65038900  1
  Ni  Ni54  1  0.40844100  0.64715600  0.84961100  1
  Ni  Ni55  1  0.09155900  0.35284400  0.34961100  1
  Ni  Ni56  1  0.04165500  0.02218900  0.59598800  1
  Ni  Ni57  1  0.45834500  0.97781100  0.09598800  1
  Ni  Ni58  1  0.54165500  0.47781100  0.40401200  1
  Ni  Ni59  1  0.95834500  0.52218900  0.90401200  1
  Ni  Ni60  1  0.95834500  0.97781100  0.40401200  1
  Ni  Ni61  1  0.54165500  0.02218900  0.90401200  1
  Ni  Ni62  1  0.45834500  0.52218900  0.59598800  1
  Ni  Ni63  1  0.04165500  0.47781100  0.09598800  1
  Ni  Ni64  1  0.04303700  0.21860600  0.09882800  1
  Ni  Ni65  1  0.45696300  0.78139400  0.59882800  1
  Ni  Ni66  1  0.54303700  0.28139400  0.90117200  1
  Ni  Ni67  1  0.95696300  0.71860600  0.40117200  1
  Ni  Ni68  1  0.95696300  0.78139400  0.90117200  1
  Ni  Ni69  1  0.54303700  0.21860600  0.40117200  1
  Ni  Ni70  1  0.45696300  0.71860600  0.09882800  1
  Ni  Ni71  1  0.04303700  0.28139400  0.59882800  1
  Ni  Ni72  1  0.08179500  0.16682700  0.46898200  1
  Ni  Ni73  1  0.41820500  0.83317300  0.96898200  1
  Ni  Ni74  1  0.58179500  0.33317300  0.53101800  1
  Ni  Ni75  1  0.91820500  0.66682700  0.03101800  1
  Ni  Ni76  1  0.91820500  0.83317300  0.53101800  1
  Ni  Ni77  1  0.58179500  0.16682700  0.03101800  1
  Ni  Ni78  1  0.41820500  0.66682700  0.46898200  1
  Ni  Ni79  1  0.08179500  0.33317300  0.96898200  1
  B  B0  1  0.97659200  0.06424800  0.17672700  1
  B  B1  1  0.52340800  0.93575200  0.67672700  1
  B  B2  1  0.47659200  0.43575200  0.82327300  1
  B  B3  1  0.02340800  0.56424800  0.32327300  1
  B  B4  1  0.02340800  0.93575200  0.82327300  1
  B  B5  1  0.47659200  0.06424800  0.32327300  1
  B  B6  1  0.52340800  0.56424800  0.17672700  1
  B  B7  1  0.97659200  0.43575200  0.67672700  1
  B  B8  1  0.16681400  0.14950400  0.66719600  1
  B  B9  1  0.33318600  0.85049600  0.16719600  1
  B  B10  1  0.66681400  0.35049600  0.33280400  1
  B  B11  1  0.83318600  0.64950400  0.83280400  1
  B  B12  1  0.83318600  0.85049600  0.33280400  1
  B  B13  1  0.66681400  0.14950400  0.83280400  1
  B  B14  1  0.33318600  0.64950400  0.66719600  1
  B  B15  1  0.16681400  0.35049600  0.16719600  1
  B  B16  1  0.04643500  0.14135600  0.34433300  1
  B  B17  1  0.45356500  0.85864400  0.84433300  1
  B  B18  1  0.54643500  0.35864400  0.65566700  1
  B  B19  1  0.95356500  0.64135600  0.15566700  1
  B  B20  1  0.95356500  0.85864400  0.65566700  1
  B  B21  1  0.54643500  0.14135600  0.15566700  1
  B  B22  1  0.45356500  0.64135600  0.34433300  1
  B  B23  1  0.04643500  0.35864400  0.84433300  1
  B  B24  1  0.21331200  0.14859600  0.56050400  1
  B  B25  1  0.28668800  0.85140400  0.06050400  1
  B  B26  1  0.71331200  0.35140400  0.43949600  1
  B  B27  1  0.78668800  0.64859600  0.93949600  1
  B  B28  1  0.78668800  0.85140400  0.43949600  1
  B  B29  1  0.71331200  0.14859600  0.93949600  1
  B  B30  1  0.28668800  0.64859600  0.56050400  1
  B  B31  1  0.21331200  0.35140400  0.06050400  1
  B  B32  1  0.03992100  0.98189600  0.91830600  1
  B  B33  1  0.46007900  0.01810400  0.41830600  1
  B  B34  1  0.53992100  0.51810400  0.08169400  1
  B  B35  1  0.96007900  0.48189600  0.58169400  1
  B  B36  1  0.96007900  0.01810400  0.08169400  1
  B  B37  1  0.53992100  0.98189600  0.58169400  1
  B  B38  1  0.46007900  0.48189600  0.91830600  1
  B  B39  1  0.03992100  0.51810400  0.41830600  1
loop_
_geom_bond_atom_site_label_1
_geom_bond_atom_site_label_2
_geom_bond_distance
_geom_bond_site_symmetry_2
Ni0 Ni24 2.462528 1_555
Ni0 Ni56 2.467192 1_565
Ni0 Ni33 2.494246 1_565
Ni0 Ni9 2.612184 1_555
Ni0 Ni40 2.683604 1_555
Ni0 Tm4 2.772559 1_465
Ni0 Ni48 2.773786 1_565
Ni0 Tm1 2.964938 1_565
Ni0 Tm7 3.154805 1_555
Ni1 Ni25 2.462528 1_555
Ni1 Ni57 2.467192 1_545
Ni1 Ni32 2.494246 1_545
Ni1 Ni8 2.612184 1_555
Ni1 Ni41 2.683604 1_555
Ni1 Tm5 2.772559 1_545
Ni1 Ni49 2.773786 1_545
Ni1 Tm0 2.964938 1_545
Ni1 Tm6 3.154805 1_555
Ni2 Ni26 2.462528 1_555
Ni2 Ni58 2.467192 1_555
Ni2 Ni35 2.494246 1_555
Ni2 Ni42 2.683604 1_555
Ni2 Tm6 2.772559 1_555
Ni2 Ni50 2.773786 1_555
Ni2 Tm3 2.964938 1_555
Ni2 Tm5 3.154805 1_555
Ni3 Ni59 2.467192 1_555
Ni3 Ni34 2.494246 1_555
Ni3 Ni43 2.683604 1_555
Ni3 Tm7 2.772559 1_655
Ni3 Ni51 2.773786 1_555
Ni3 Tm2 2.964938 1_555
Ni3 Tm4 3.154805 1_555
Ni4 Ni60 2.467192 1_545
Ni4 Ni44 2.683604 1_555
Ni4 Tm0 2.772559 1_645
Ni4 Ni52 2.773786 1_545
Ni4 Tm5 2.964938 1_545
Ni4 Tm3 3.154805 1_555
Ni5 Ni61 2.467192 1_565
Ni5 Tm1 2.772559 1_565
Ni5 Ni53 2.773786 1_565
Ni5 Tm4 2.964938 1_565
Ni5 Tm2 3.154805 1_555
Ni6 Ni62 2.467192 1_555
Ni6 Tm2 2.772559 1_555
Ni6 Tm7 2.964938 1_555
Ni6 Tm1 3.154805 1_555
Ni7 Tm3 2.772559 1_455
Ni7 Tm6 2.964938 1_555
Ni7 Tm0 3.154805 1_555
Ni8 Tm3 2.834764 1_455
Ni8 Tm6 2.897527 1_555
Ni8 Tm0 3.084571 1_545
Ni9 Tm2 2.834764 1_555
Ni9 Tm7 2.897527 1_555
Ni9 Tm1 3.084571 1_565
Ni10 Ni66 2.562085 1_555
Ni10 Ni34 2.571362 1_555
Ni10 Ni53 2.588341 1_555
Ni10 Ni3 2.612184 1_555
Ni10 Ni43 2.657469 1_555
Ni10 Ni27 2.722719 1_555
Ni10 Tm1 2.834764 1_555
Ni10 Tm4 2.897527 1_555
Ni10 Tm2 3.084571 1_555
Ni11 Ni67 2.562085 1_555
Ni11 Ni35 2.571362 1_555
Ni11 Ni52 2.588341 1_555
Ni11 Ni2 2.612184 1_555
Ni11 Ni42 2.657469 1_555
Ni11 Ni26 2.722719 1_555
Ni11 Tm0 2.834764 1_655
Ni11 Tm5 2.897527 1_555
Ni11 Tm3 3.084571 1_555
Ni12 Ni68 2.562085 1_555
Ni12 Ni36 2.571362 1_565
Ni12 Ni51 2.588341 1_555
Ni12 Ni5 2.612184 1_555
Ni12 Ni45 2.657469 1_555
Ni12 Ni29 2.722719 1_555
Ni12 Tm7 2.834764 1_655
Ni12 Tm2 2.897527 1_555
Ni12 Tm4 3.084571 1_565
Ni13 Ni69 2.562085 1_555
Ni13 Ni37 2.571362 1_545
Ni13 Ni50 2.588341 1_555
Ni13 Ni4 2.612184 1_555
Ni13 Ni44 2.657469 1_555
Ni13 Ni28 2.722719 1_555
Ni13 Tm6 2.834764 1_555
Ni13 Tm3 2.897527 1_555
Ni13 Tm5 3.084571 1_545
Ni14 Ni70 2.562085 1_555
Ni14 Ni38 2.571362 1_555
Ni14 Ni49 2.588341 1_555
Ni14 Ni7 2.612184 1_555
Ni14 Ni47 2.657469 1_555
Ni14 Ni31 2.722719 1_555
Ni14 Tm5 2.834764 1_555
Ni14 Tm0 2.897527 1_555
Ni14 Tm6 3.084571 1_555
Ni15 Ni71 2.562085 1_555
Ni15 Ni39 2.571362 1_555
Ni15 Ni48 2.588341 1_555
Ni15 Ni6 2.612184 1_555
Ni15 Ni46 2.657469 1_555
Ni15 Ni30 2.722719 1_555
Ni15 Tm4 2.834764 1_455
Ni15 Tm1 2.897527 1_555
Ni15 Tm7 3.084571 1_555
Ni16 Ni32 2.431511 1_555
Ni16 Ni68 2.478746 1_454
Ni16 Ni75 2.534496 1_455
Ni16 Ni31 2.625330 1_555
Ni16 Tm9 2.858831 1_564
Ni16 Tm15 2.931765 1_554
Ni17 Ni33 2.431511 1_555
Ni17 Ni69 2.478746 1_555
Ni17 Ni74 2.534496 1_555
Ni17 Ni30 2.625330 1_555
Ni17 Tm8 2.858831 1_545
Ni17 Tm14 2.931765 1_555
Ni18 Ni34 2.431511 1_555
Ni18 Ni70 2.478746 1_556
Ni18 Ni73 2.534496 1_555
Ni18 Ni29 2.625330 1_555
Ni18 Tm11 2.858831 1_556
Ni18 Tm13 2.931765 1_556
Ni19 Ni35 2.431511 1_555
Ni19 Ni71 2.478746 1_655
Ni19 Ni72 2.534496 1_655
Ni19 Ni28 2.625330 1_555
Ni19 Tm10 2.858831 1_555
Ni19 Tm12 2.931765 1_555
Ni20 Ni36 2.431511 1_555
Ni20 Ni64 2.478746 1_656
Ni20 Ni79 2.534496 1_655
Ni20 Ni27 2.625330 1_555
Ni20 Tm13 2.858831 1_546
Ni20 Tm11 2.931765 1_556
Ni21 Ni37 2.431511 1_555
Ni21 Ni65 2.478746 1_555
Ni21 Ni78 2.534496 1_555
Ni21 Ni26 2.625330 1_555
Ni21 Tm12 2.858831 1_565
Ni21 Tm10 2.931765 1_555
Ni22 Ni38 2.431511 1_555
Ni22 Ni66 2.478746 1_554
Ni22 Ni77 2.534496 1_555
Ni22 Ni25 2.625330 1_555
Ni22 Tm15 2.858831 1_554
Ni22 Tm9 2.931765 1_554
Ni23 Ni39 2.431511 1_555
Ni23 Ni67 2.478746 1_455
Ni23 Ni76 2.534496 1_455
Ni23 Ni24 2.625330 1_555
Ni23 Tm14 2.858831 1_555
Ni23 Tm8 2.931765 1_555
Ni24 Ni33 2.559685 1_565
Ni24 Ni56 2.569156 1_565
Ni24 Ni39 2.604662 1_555
Ni24 Ni51 2.624670 1_455
Ni24 Ni9 2.722719 1_555
Ni24 Ni76 2.795275 1_455
Ni24 Tm8 2.809768 1_555
Ni24 Tm7 2.964646 1_555
Ni25 Ni32 2.559685 1_545
Ni25 Ni57 2.569156 1_545
Ni25 Ni38 2.604662 1_555
Ni25 Ni50 2.624670 1_555
Ni25 Ni8 2.722719 1_555
Ni25 Ni77 2.795275 1_555
Ni25 Tm9 2.809768 1_554
Ni25 Tm6 2.964646 1_555
Ni26 Ni35 2.559685 1_555
Ni26 Ni58 2.569156 1_555
Ni26 Ni37 2.604662 1_555
Ni26 Ni49 2.624670 1_555
Ni26 Ni78 2.795275 1_555
Ni26 Tm10 2.809768 1_555
Ni26 Tm5 2.964646 1_555
Ni27 Ni3 2.462528 1_555
Ni27 Ni34 2.559685 1_555
Ni27 Ni59 2.569156 1_555
Ni27 Ni36 2.604662 1_555
Ni27 Ni48 2.624670 1_655
Ni27 Ni79 2.795275 1_655
Ni27 Tm11 2.809768 1_556
Ni27 Tm4 2.964646 1_555
Ni28 Ni4 2.462528 1_555
Ni28 Ni37 2.559685 1_545
Ni28 Ni60 2.569156 1_545
Ni28 Ni35 2.604662 1_555
Ni28 Ni55 2.624670 1_655
Ni28 Ni72 2.795275 1_655
Ni28 Tm12 2.809768 1_555
Ni28 Tm3 2.964646 1_555
Ni29 Ni5 2.462528 1_555
Ni29 Ni36 2.559685 1_565
Ni29 Ni61 2.569156 1_565
Ni29 Ni34 2.604662 1_555
Ni29 Ni54 2.624670 1_555
Ni29 Ni73 2.795275 1_555
Ni29 Tm13 2.809768 1_556
Ni29 Tm2 2.964646 1_555
Ni30 Ni6 2.462528 1_555
Ni30 Ni39 2.559685 1_555
Ni30 Ni62 2.569156 1_555
Ni30 Ni33 2.604662 1_555
Ni30 Ni53 2.624670 1_555
Ni30 Ni74 2.795275 1_555
Ni30 Tm14 2.809768 1_555
Ni30 Tm1 2.964646 1_555
Ni31 Ni7 2.462528 1_555
Ni31 Ni38 2.559685 1_555
Ni31 Ni63 2.569156 1_555
Ni31 Ni32 2.604662 1_555
Ni31 Ni52 2.624670 1_455
Ni31 Ni75 2.795275 1_455
Ni31 Tm15 2.809768 1_554
Ni31 Tm0 2.964646 1_555
Ni32 Ni64 2.496487 1_565
Ni32 Ni8 2.571362 1_565
Ni32 Ni57 2.593027 1_555
Ni32 Tm0 2.903568 1_555
Ni32 Tm9 3.013732 1_564
Ni33 Ni65 2.496487 1_545
Ni33 Ni9 2.571362 1_545
Ni33 Ni56 2.593027 1_555
Ni33 Tm1 2.903568 1_555
Ni33 Tm8 3.013732 1_545
Ni34 Ni66 2.496487 1_555
Ni34 Ni59 2.593027 1_555
Ni34 Tm2 2.903568 1_555
Ni34 Tm11 3.013732 1_556
Ni35 Ni67 2.496487 1_555
Ni35 Ni58 2.593027 1_555
Ni35 Tm3 2.903568 1_555
Ni35 Tm10 3.013732 1_555
Ni36 Ni5 2.494246 1_545
Ni36 Ni68 2.496487 1_545
Ni36 Ni61 2.593027 1_555
Ni36 Tm4 2.903568 1_555
Ni36 Tm13 3.013732 1_546
Ni37 Ni4 2.494246 1_565
Ni37 Ni69 2.496487 1_565
Ni37 Ni60 2.593027 1_555
Ni37 Tm5 2.903568 1_555
Ni37 Tm12 3.013732 1_565
Ni38 Ni7 2.494246 1_555
Ni38 Ni70 2.496487 1_555
Ni38 Ni63 2.593027 1_555
Ni38 Tm6 2.903568 1_555
Ni38 Tm15 3.013732 1_554
Ni39 Ni6 2.494246 1_555
Ni39 Ni71 2.496487 1_555
Ni39 Ni62 2.593027 1_555
Ni39 Tm7 2.903568 1_555
Ni39 Tm14 3.013732 1_555
Ni40 Ni73 2.530914 1_555
Ni40 Ni9 2.657469 1_555
Ni40 Ni48 2.712182 1_565
Ni40 Ni68 2.740185 1_455
Ni40 Ni54 2.823984 1_555
Ni40 Tm9 2.915393 1_565
Ni40 Tm7 2.980808 1_555
Ni40 Tm1 3.073792 1_565
Ni40 Tm15 3.325373 1_555
Ni41 Ni72 2.530914 1_555
Ni41 Ni8 2.657469 1_555
Ni41 Ni49 2.712182 1_545
Ni41 Ni69 2.740185 1_555
Ni41 Ni55 2.823984 1_555
Ni41 Tm8 2.915393 1_545
Ni41 Tm6 2.980808 1_555
Ni41 Tm0 3.073792 1_545
Ni41 Tm14 3.325373 1_555
Ni42 Ni75 2.530914 1_555
Ni42 Ni50 2.712182 1_555
Ni42 Ni70 2.740185 1_555
Ni42 Ni52 2.823984 1_555
Ni42 Tm11 2.915393 1_555
Ni42 Tm5 2.980808 1_555
Ni42 Tm3 3.073792 1_555
Ni42 Tm13 3.325373 1_555
Ni43 Ni74 2.530914 1_555
Ni43 Ni51 2.712182 1_555
Ni43 Ni71 2.740185 1_655
Ni43 Ni53 2.823984 1_555
Ni43 Tm10 2.915393 1_555
Ni43 Tm4 2.980808 1_555
Ni43 Tm2 3.073792 1_555
Ni43 Tm12 3.325373 1_555
Ni44 Ni77 2.530914 1_555
Ni44 Ni52 2.712182 1_545
Ni44 Ni64 2.740185 1_655
Ni44 Ni50 2.823984 1_555
Ni44 Tm13 2.915393 1_545
Ni44 Tm3 2.980808 1_555
Ni44 Tm5 3.073792 1_545
Ni44 Tm11 3.325373 1_555
Ni45 Ni76 2.530914 1_555
Ni45 Ni5 2.683604 1_555
Ni45 Ni53 2.712182 1_565
Ni45 Ni65 2.740185 1_555
Ni45 Ni51 2.823984 1_555
Ni45 Tm12 2.915393 1_565
Ni45 Tm2 2.980808 1_555
Ni45 Tm4 3.073792 1_565
Ni45 Tm10 3.325373 1_555
Ni46 Ni79 2.530914 1_555
Ni46 Ni6 2.683604 1_555
Ni46 Ni54 2.712182 1_555
Ni46 Ni66 2.740185 1_555
Ni46 Ni48 2.823984 1_555
Ni46 Tm15 2.915393 1_555
Ni46 Tm1 2.980808 1_555
Ni46 Tm7 3.073792 1_555
Ni46 Tm9 3.325373 1_555
Ni47 Ni78 2.530914 1_555
Ni47 Ni7 2.683604 1_555
Ni47 Ni55 2.712182 1_555
Ni47 Ni67 2.740185 1_455
Ni47 Ni49 2.823984 1_555
Ni47 Tm14 2.915393 1_555
Ni47 Tm0 2.980808 1_555
Ni47 Tm6 3.073792 1_555
Ni47 Tm8 3.325373 1_555
Ni48 Ni79 2.727140 1_555
Ni48 Tm1 2.829614 1_555
Ni48 Tm9 2.858056 1_555
Ni48 Tm4 2.950575 1_455
Ni49 Ni78 2.727140 1_555
Ni49 Tm0 2.829614 1_555
Ni49 Tm8 2.858056 1_555
Ni49 Tm5 2.950575 1_555
Ni50 Ni77 2.727140 1_555
Ni50 Tm3 2.829614 1_555
Ni50 Tm11 2.858056 1_555
Ni50 Tm6 2.950575 1_555
Ni51 Ni76 2.727140 1_555
Ni51 Tm2 2.829614 1_555
Ni51 Tm10 2.858056 1_555
Ni51 Tm7 2.950575 1_655
Ni52 Ni75 2.727140 1_555
Ni52 Tm5 2.829614 1_555
Ni52 Tm13 2.858056 1_555
Ni52 Tm0 2.950575 1_655
Ni53 Ni74 2.727140 1_555
Ni53 Tm4 2.829614 1_555
Ni53 Tm12 2.858056 1_555
Ni53 Tm1 2.950575 1_555
Ni54 Ni9 2.588341 1_555
Ni54 Ni73 2.727140 1_555
Ni54 Ni6 2.773786 1_555
Ni54 Tm7 2.829614 1_555
Ni54 Tm15 2.858056 1_555
Ni54 Tm2 2.950575 1_555
Ni55 Ni8 2.588341 1_555
Ni55 Ni72 2.727140 1_555
Ni55 Ni7 2.773786 1_555
Ni55 Tm6 2.829614 1_555
Ni55 Tm14 2.858056 1_555
Ni55 Tm3 2.950575 1_455
Ni56 Ni76 2.383846 1_445
Ni56 Ni71 2.444672 1_555
Ni56 Ni72 2.629913 1_555
Ni56 Tm12 2.815763 1_455
Ni56 Tm8 2.869017 1_545
Ni56 Tm4 2.882513 1_455
Ni57 Ni77 2.383846 1_565
Ni57 Ni70 2.444672 1_555
Ni57 Ni73 2.629913 1_554
Ni57 Tm13 2.815763 1_555
Ni57 Tm9 2.869017 1_564
Ni57 Tm5 2.882513 1_555
Ni58 Ni78 2.383846 1_555
Ni58 Ni69 2.444672 1_555
Ni58 Ni74 2.629913 1_555
Ni58 Tm14 2.815763 1_555
Ni58 Tm10 2.869017 1_555
Ni58 Tm6 2.882513 1_555
Ni59 Ni79 2.383846 1_655
Ni59 Ni68 2.444672 1_555
Ni59 Ni75 2.629913 1_556
Ni59 Tm15 2.815763 1_655
Ni59 Tm11 2.869017 1_556
Ni59 Tm7 2.882513 1_655
Ni60 Ni72 2.383846 1_665
Ni60 Ni67 2.444672 1_555
Ni60 Ni76 2.629913 1_555
Ni60 Tm8 2.815763 1_655
Ni60 Tm12 2.869017 1_565
Ni60 Tm0 2.882513 1_655
Ni61 Ni73 2.383846 1_545
Ni61 Ni66 2.444672 1_555
Ni61 Ni77 2.629913 1_556
Ni61 Tm9 2.815763 1_555
Ni61 Tm13 2.869017 1_546
Ni61 Tm1 2.882513 1_555
Ni62 Ni74 2.383846 1_555
Ni62 Ni65 2.444672 1_555
Ni62 Ni78 2.629913 1_555
Ni62 Tm10 2.815763 1_555
Ni62 Tm14 2.869017 1_555
Ni62 Tm2 2.882513 1_555
Ni63 Ni75 2.383846 1_455
Ni63 Ni64 2.444672 1_555
Ni63 Ni7 2.467192 1_555
Ni63 Ni79 2.629913 1_554
Ni63 Tm11 2.815763 1_455
Ni63 Tm15 2.869017 1_554
Ni63 Tm3 2.882513 1_455
Ni64 Ni79 2.537233 1_554
Ni64 Ni8 2.562085 1_555
Ni64 Tm3 2.935846 1_455
Ni64 Tm9 3.133234 1_554
Ni64 Tm11 3.151514 1_455
Ni65 Ni78 2.537233 1_555
Ni65 Ni9 2.562085 1_555
Ni65 Tm2 2.935846 1_555
Ni65 Tm8 3.133234 1_555
Ni65 Tm10 3.151514 1_555
Ni66 Ni77 2.537233 1_556
Ni66 Tm1 2.935846 1_555
Ni66 Tm11 3.133234 1_556
Ni66 Tm9 3.151514 1_555
Ni67 Ni76 2.537233 1_555
Ni67 Tm0 2.935846 1_655
Ni67 Tm10 3.133234 1_555
Ni67 Tm8 3.151514 1_655
Ni68 Ni75 2.537233 1_556
Ni68 Tm7 2.935846 1_655
Ni68 Tm13 3.133234 1_556
Ni68 Tm15 3.151514 1_655
Ni69 Ni74 2.537233 1_555
Ni69 Tm6 2.935846 1_555
Ni69 Tm12 3.133234 1_555
Ni69 Tm14 3.151514 1_555
Ni70 Ni73 2.537233 1_554
Ni70 Tm5 2.935846 1_555
Ni70 Tm15 3.133234 1_554
Ni70 Tm13 3.151514 1_555
Ni71 Ni72 2.537233 1_555
Ni71 Tm4 2.935846 1_455
Ni71 Tm14 3.133234 1_555
Ni71 Tm12 3.151514 1_455
Ni72 Tm14 2.743771 1_555
Ni72 Tm12 2.878871 1_455
Ni72 Tm8 2.912563 1_545
Ni73 Tm15 2.743771 1_555
Ni73 Tm13 2.878871 1_556
Ni73 Tm9 2.912563 1_565
Ni74 Tm12 2.743771 1_555
Ni74 Tm14 2.878871 1_555
Ni74 Tm10 2.912563 1_555
Ni75 Tm13 2.743771 1_555
Ni75 Tm15 2.878871 1_654
Ni75 Tm11 2.912563 1_555
Ni76 Tm10 2.743771 1_555
Ni76 Tm8 2.878871 1_655
Ni76 Tm12 2.912563 1_565
Ni77 Tm11 2.743771 1_555
Ni77 Tm9 2.878871 1_554
Ni77 Tm13 2.912563 1_545
Ni78 Tm8 2.743771 1_555
Ni78 Tm10 2.878871 1_555
Ni78 Tm14 2.912563 1_555
Ni79 Tm9 2.743771 1_555
Ni79 Tm11 2.878871 1_456
Ni79 Tm15 2.912563 1_555
B0 B36 1.723389 1_555
B0 Ni4 1.910978 1_555
B0 Ni8 2.011539 1_655
B0 Ni44 2.034945 1_555
B0 Ni32 2.067350 1_645
B0 Ni64 2.079597 1_655
B0 Ni52 2.134563 1_545
B0 Tm0 2.938135 1_645
B0 Tm3 3.025844 1_555
B1 B37 1.723389 1_555
B1 Ni5 1.910978 1_555
B1 Ni9 2.011539 1_555
B1 Ni45 2.034945 1_555
B1 Ni33 2.067350 1_565
B1 Ni65 2.079597 1_555
B1 Ni53 2.134563 1_565
B1 Tm1 2.938135 1_565
B1 Tm2 3.025844 1_555
B2 B38 1.723389 1_555
B2 Ni6 1.910978 1_555
B2 Ni10 2.011539 1_555
B2 Ni46 2.034945 1_555
B2 Ni34 2.067350 1_555
B2 Ni66 2.079597 1_555
B2 Ni54 2.134563 1_555
B2 Tm2 2.938135 1_555
B2 Tm1 3.025844 1_555
B3 B39 1.723389 1_555
B3 Ni7 1.910978 1_555
B3 Ni11 2.011539 1_455
B3 Ni47 2.034945 1_555
B3 Ni35 2.067350 1_455
B3 Ni67 2.079597 1_455
B3 Ni55 2.134563 1_555
B3 Tm3 2.938135 1_455
B3 Tm0 3.025844 1_555
B4 Ni0 1.910978 1_555
B4 Ni12 2.011539 1_455
B4 Ni40 2.034945 1_555
B4 Ni36 2.067350 1_465
B4 Ni68 2.079597 1_455
B4 Ni48 2.134563 1_565
B4 Tm4 2.938135 1_465
B4 Tm7 3.025844 1_555
B5 Ni1 1.910978 1_555
B5 Ni13 2.011539 1_555
B5 Ni41 2.034945 1_555
B5 Ni37 2.067350 1_545
B5 Ni69 2.079597 1_555
B5 Ni49 2.134563 1_545
B5 Tm5 2.938135 1_545
B5 Tm6 3.025844 1_555
B6 Ni2 1.910978 1_555
B6 Ni14 2.011539 1_555
B6 Ni42 2.034945 1_555
B6 Ni38 2.067350 1_555
B6 Ni70 2.079597 1_555
B6 Ni50 2.134563 1_555
B6 Tm6 2.938135 1_555
B6 Tm5 3.025844 1_555
B7 Ni3 1.910978 1_555
B7 Ni15 2.011539 1_655
B7 Ni43 2.034945 1_555
B7 Ni39 2.067350 1_655
B7 Ni71 2.079597 1_655
B7 Ni51 2.134563 1_555
B7 Tm7 2.938135 1_655
B7 Tm4 3.025844 1_555
B8 Ni33 2.043938 1_555
B8 Ni71 2.048813 1_555
B8 Ni56 2.059310 1_555
B8 Ni15 2.074339 1_555
B8 Ni30 2.092870 1_555
B8 Ni0 2.093570 1_545
B8 Tm1 2.690379 1_555
B8 Tm4 2.773898 1_455
B9 Ni32 2.043938 1_555
B9 Ni70 2.048813 1_555
B9 Ni57 2.059310 1_555
B9 Ni14 2.074339 1_555
B9 Ni31 2.092870 1_555
B9 Ni1 2.093570 1_565
B9 Tm0 2.690379 1_555
B9 Tm5 2.773898 1_555
B10 B26 1.910536 1_555
B10 Ni35 2.043938 1_555
B10 Ni69 2.048813 1_555
B10 Ni58 2.059310 1_555
B10 Ni13 2.074339 1_555
B10 Ni28 2.092870 1_555
B10 Ni2 2.093570 1_555
B10 Tm3 2.690379 1_555
B10 Tm6 2.773898 1_555
B11 B27 1.910536 1_555
B11 Ni34 2.043938 1_555
B11 Ni68 2.048813 1_555
B11 Ni59 2.059310 1_555
B11 Ni12 2.074339 1_555
B11 Ni29 2.092870 1_555
B11 Ni3 2.093570 1_555
B11 Tm2 2.690379 1_555
B11 Tm7 2.773898 1_655
B12 B28 1.910536 1_555
B12 Ni37 2.043938 1_555
B12 Ni67 2.048813 1_555
B12 Ni60 2.059310 1_555
B12 Ni11 2.074339 1_555
B12 Ni26 2.092870 1_555
B12 Ni4 2.093570 1_565
B12 Tm5 2.690379 1_555
B12 Tm0 2.773898 1_655
B13 B29 1.910536 1_555
B13 Ni36 2.043938 1_555
B13 Ni66 2.048813 1_555
B13 Ni61 2.059310 1_555
B13 Ni10 2.074339 1_555
B13 Ni27 2.092870 1_555
B13 Ni5 2.093570 1_545
B13 Tm4 2.690379 1_555
B13 Tm1 2.773898 1_555
B14 B30 1.910536 1_555
B14 Ni39 2.043938 1_555
B14 Ni65 2.048813 1_555
B14 Ni62 2.059310 1_555
B14 Ni9 2.074339 1_555
B14 Ni24 2.092870 1_555
B14 Ni6 2.093570 1_555
B14 Tm7 2.690379 1_555
B14 Tm2 2.773898 1_555
B15 B31 1.910536 1_555
B15 Ni38 2.043938 1_555
B15 Ni64 2.048813 1_555
B15 Ni63 2.059310 1_555
B15 Ni8 2.074339 1_555
B15 Ni25 2.092870 1_555
B15 Ni7 2.093570 1_555
B15 Tm6 2.690379 1_555
B15 Tm3 2.773898 1_455
B16 Ni60 2.021302 1_445
B16 Ni8 2.031622 1_555
B16 Ni55 2.036634 1_555
B16 Ni41 2.047325 1_555
B16 Ni28 2.056609 1_455
B16 Ni4 2.183371 1_455
B16 Ni72 2.214508 1_555
B16 Tm0 2.987538 1_545
B17 Ni61 2.021302 1_565
B17 Ni9 2.031622 1_555
B17 Ni54 2.036634 1_555
B17 Ni40 2.047325 1_555
B17 Ni29 2.056609 1_555
B17 Ni5 2.183371 1_555
B17 Ni73 2.214508 1_555
B17 Tm1 2.987538 1_565
B18 Ni62 2.021302 1_555
B18 Ni10 2.031622 1_555
B18 Ni53 2.036634 1_555
B18 Ni43 2.047325 1_555
B18 Ni30 2.056609 1_555
B18 Ni6 2.183371 1_555
B18 Ni74 2.214508 1_555
B18 Tm2 2.987538 1_555
B19 Ni63 2.021302 1_655
B19 Ni11 2.031622 1_555
B19 Ni52 2.036634 1_555
B19 Ni42 2.047325 1_555
B19 Ni31 2.056609 1_655
B19 Ni7 2.183371 1_655
B19 Ni75 2.214508 1_555
B19 Tm3 2.987538 1_555
B20 Ni56 2.021302 1_665
B20 Ni12 2.031622 1_555
B20 Ni51 2.036634 1_555
B20 Ni45 2.047325 1_555
B20 Ni24 2.056609 1_655
B20 Ni0 2.183371 1_655
B20 Ni76 2.214508 1_555
B20 Tm4 2.987538 1_565
B21 Ni57 2.021302 1_545
B21 Ni13 2.031622 1_555
B21 Ni50 2.036634 1_555
B21 Ni44 2.047325 1_555
B21 Ni25 2.056609 1_555
B21 Ni1 2.183371 1_555
B21 Ni77 2.214508 1_555
B21 Tm5 2.987538 1_545
B22 Ni58 2.021302 1_555
B22 Ni14 2.031622 1_555
B22 Ni49 2.036634 1_555
B22 Ni47 2.047325 1_555
B22 Ni26 2.056609 1_555
B22 Ni2 2.183371 1_555
B22 Ni78 2.214508 1_555
B22 Tm6 2.987538 1_555
B23 Ni59 2.021302 1_455
B23 Ni15 2.031622 1_555
B23 Ni48 2.036634 1_555
B23 Ni46 2.047325 1_555
B23 Ni27 2.056609 1_455
B23 Ni3 2.183371 1_455
B23 Ni79 2.214508 1_555
B23 Tm7 2.987538 1_555
B24 B8 1.910536 1_555
B24 Ni72 1.992299 1_555
B24 Ni56 2.039038 1_555
B24 Ni17 2.041082 1_555
B24 Ni30 2.046942 1_555
B24 Ni33 2.074172 1_555
B24 Ni71 2.081172 1_555
B24 Tm14 2.722457 1_555
B24 Tm8 2.835061 1_545
B25 B9 1.910536 1_555
B25 Ni73 1.992299 1_554
B25 Ni57 2.039038 1_555
B25 Ni16 2.041082 1_555
B25 Ni31 2.046942 1_555
B25 Ni32 2.074172 1_555
B25 Ni70 2.081172 1_555
B25 Tm15 2.722457 1_554
B25 Tm9 2.835061 1_564
B26 Ni74 1.992299 1_555
B26 Ni58 2.039038 1_555
B26 Ni19 2.041082 1_555
B26 Ni28 2.046942 1_555
B26 Ni35 2.074172 1_555
B26 Ni69 2.081172 1_555
B26 Tm12 2.722457 1_555
B26 Tm10 2.835061 1_555
B27 Ni75 1.992299 1_556
B27 Ni59 2.039038 1_555
B27 Ni18 2.041082 1_555
B27 Ni29 2.046942 1_555
B27 Ni34 2.074172 1_555
B27 Ni68 2.081172 1_555
B27 Tm13 2.722457 1_556
B27 Tm11 2.835061 1_556
B28 Ni76 1.992299 1_555
B28 Ni60 2.039038 1_555
B28 Ni21 2.041082 1_555
B28 Ni26 2.046942 1_555
B28 Ni37 2.074172 1_555
B28 Ni67 2.081172 1_555
B28 Tm10 2.722457 1_555
B28 Tm12 2.835061 1_565
B29 Ni77 1.992299 1_556
B29 Ni61 2.039038 1_555
B29 Ni20 2.041082 1_555
B29 Ni27 2.046942 1_555
B29 Ni36 2.074172 1_555
B29 Ni66 2.081172 1_555
B29 Tm11 2.722457 1_556
B29 Tm13 2.835061 1_546
B30 Ni78 1.992299 1_555
B30 Ni62 2.039038 1_555
B30 Ni23 2.041082 1_555
B30 Ni24 2.046942 1_555
B30 Ni39 2.074172 1_555
B30 Ni65 2.081172 1_555
B30 Tm8 2.722457 1_555
B30 Tm14 2.835061 1_555
B31 Ni79 1.992299 1_554
B31 Ni63 2.039038 1_555
B31 Ni22 2.041082 1_555
B31 Ni25 2.046942 1_555
B31 Ni38 2.074172 1_555
B31 Ni64 2.081172 1_555
B31 Tm9 2.722457 1_554
B31 Tm15 2.835061 1_554
B32 B4 1.723389 1_555
B32 Ni16 1.951813 1_556
B32 Ni20 2.008469 1_465
B32 Ni48 2.020587 1_565
B32 Ni68 2.052675 1_455
B32 Ni40 2.115486 1_555
B32 Ni36 2.134730 1_465
B32 Tm9 2.704570 1_565
B33 B5 1.723389 1_555
B33 Ni17 1.951813 1_555
B33 Ni21 2.008469 1_545
B33 Ni49 2.020587 1_545
B33 Ni69 2.052675 1_555
B33 Ni41 2.115486 1_555
B33 Ni37 2.134730 1_545
B33 Tm8 2.704570 1_545
B34 B6 1.723389 1_555
B34 Ni18 1.951813 1_554
B34 Ni22 2.008469 1_555
B34 Ni50 2.020587 1_555
B34 Ni70 2.052675 1_555
B34 Ni42 2.115486 1_555
B34 Ni38 2.134730 1_555
B34 Tm11 2.704570 1_555
B35 B7 1.723389 1_555
B35 Ni19 1.951813 1_555
B35 Ni23 2.008469 1_655
B35 Ni51 2.020587 1_555
B35 Ni71 2.052675 1_655
B35 Ni43 2.115486 1_555
B35 Ni39 2.134730 1_655
B35 Tm10 2.704570 1_555
B36 Ni20 1.951813 1_554
B36 Ni16 2.008469 1_645
B36 Ni52 2.020587 1_545
B36 Ni64 2.052675 1_655
B36 Ni44 2.115486 1_555
B36 Ni32 2.134730 1_645
B36 Tm13 2.704570 1_545
B37 Ni21 1.951813 1_555
B37 Ni17 2.008469 1_565
B37 Ni53 2.020587 1_565
B37 Ni65 2.052675 1_555
B37 Ni45 2.115486 1_555
B37 Ni33 2.134730 1_565
B37 Tm12 2.704570 1_565
B38 Ni22 1.951813 1_556
B38 Ni18 2.008469 1_555
B38 Ni54 2.020587 1_555
B38 Ni66 2.052675 1_555
B38 Ni46 2.115486 1_555
B38 Ni34 2.134730 1_555
B38 Tm15 2.704570 1_555
B39 Ni23 1.951813 1_555
B39 Ni19 2.008469 1_455
B39 Ni55 2.020587 1_555
B39 Ni67 2.052675 1_455
B39 Ni47 2.115486 1_555
B39 Ni35 2.134730 1_455
B39 Tm14 2.704570 1_555
