# generated using pymatgen
data_Se3(NO6)2
_symmetry_space_group_name_H-M   'P 1'
_cell_length_a   6.56962100
_cell_length_b   8.06362887
_cell_length_c   11.80207138
_cell_angle_alpha   72.94826694
_cell_angle_beta   73.83974679
_cell_angle_gamma   65.96081943
_symmetry_Int_Tables_number   1
_chemical_formula_structural   Se3(NO6)2
_chemical_formula_sum   'Se6 N4 O24'
_cell_volume   536.77447883
_cell_formula_units_Z   2
loop_
 _symmetry_equiv_pos_site_id
 _symmetry_equiv_pos_as_xyz
  1  'x, y, z'
loop_
 _atom_site_type_symbol
 _atom_site_label
 _atom_site_symmetry_multiplicity
 _atom_site_fract_x
 _atom_site_fract_y
 _atom_site_fract_z
 _atom_site_occupancy
  Se  Se0  1  0.81229200  0.75000000  0.25000000  1
  Se  Se1  1  0.18770800  0.25000000  0.75000000  1
  Se  Se2  1  0.98665700  0.79425300  0.46524700  1
  Se  Se3  1  0.24615600  0.70574700  0.03475300  1
  Se  Se4  1  0.01334300  0.20574700  0.53475300  1
  Se  Se5  1  0.75384400  0.29425300  0.96524700  1
  N  N0  1  0.20237100  0.25806900  0.09797200  1
  N  N1  1  0.55841200  0.24193100  0.40202800  1
  N  N2  1  0.79762900  0.74193100  0.90202800  1
  N  N3  1  0.44158800  0.75806900  0.59797200  1
  O  O0  1  0.79901300  0.57789200  0.21132500  1
  O  O1  1  0.58823000  0.92210800  0.28867500  1
  O  O2  1  0.20098700  0.42210800  0.78867500  1
  O  O3  1  0.41177000  0.07789200  0.71132500  1
  O  O4  1  0.97566300  0.64892300  0.36790600  1
  O  O5  1  0.99249200  0.85107700  0.13209400  1
  O  O6  1  0.02433700  0.35107700  0.63209400  1
  O  O7  1  0.00750800  0.14892300  0.86790600  1
  O  O8  1  0.24953300  0.67533300  0.48532800  1
  O  O9  1  0.41019400  0.82466700  0.01467200  1
  O  O10  1  0.75046700  0.32466700  0.51467200  1
  O  O11  1  0.58980600  0.17533300  0.98532800  1
  O  O12  1  0.93492500  0.00490900  0.37948900  1
  O  O13  1  0.31932200  0.49509100  0.12051100  1
  O  O14  1  0.06507500  0.99509100  0.62051100  1
  O  O15  1  0.68067800  0.50490900  0.87948900  1
  O  O16  1  0.78894800  0.77424800  0.58483500  1
  O  O17  1  0.14803100  0.72575200  0.91516500  1
  O  O18  1  0.21105200  0.22575200  0.41516500  1
  O  O19  1  0.85196900  0.27424800  0.08483500  1
  O  O20  1  0.22398800  0.14924300  0.18179100  1
  O  O21  1  0.55502200  0.35075700  0.31820900  1
  O  O22  1  0.77601200  0.85075700  0.81820900  1
  O  O23  1  0.44497800  0.64924300  0.68179100  1
loop_
_geom_bond_atom_site_label_1
_geom_bond_atom_site_label_2
_geom_bond_distance
_geom_bond_site_symmetry_2
N0 O20 1.111928 1_555
N0 O19 2.298354 1_455
N1 O21 1.111928 1_555
N1 O18 2.298354 1_555
N2 O22 1.111928 1_555
N2 O17 2.298354 1_655
N3 O23 1.111928 1_555
N3 O16 2.298354 1_555
O0 Se0 1.623051 1_555
O1 Se0 1.623051 1_555
O2 Se1 1.623051 1_555
O3 Se1 1.623051 1_555
O4 Se0 1.790565 1_555
O4 Se2 1.898169 1_555
O5 Se0 1.790565 1_555
O5 Se3 1.898166 1_655
O6 Se1 1.790565 1_555
O6 Se4 1.898169 1_555
O7 Se1 1.790565 1_555
O7 Se5 1.898166 1_455
O8 Se2 1.644245 1_455
O9 Se3 1.644250 1_555
O10 Se4 1.644245 1_655
O11 Se5 1.644250 1_555
O12 Se2 1.654740 1_545
O13 Se3 1.654740 1_555
O14 Se4 1.654740 1_565
O15 Se5 1.654740 1_555
O16 Se2 1.649796 1_555
O17 Se3 1.649792 1_556
O18 Se4 1.649796 1_555
O19 Se5 1.649792 1_554
