# generated using pymatgen
data_SrCe3V4O16
_symmetry_space_group_name_H-M   'P 1'
_cell_length_a   7.41559800
_cell_length_b   7.41559800
_cell_length_c   6.51958400
_cell_angle_alpha   90.00000000
_cell_angle_beta   90.00000000
_cell_angle_gamma   90.00000000
_symmetry_Int_Tables_number   1
_chemical_formula_structural   SrCe3V4O16
_chemical_formula_sum   'Sr1 Ce3 V4 O16'
_cell_volume   358.51905461
_cell_formula_units_Z   1
loop_
 _symmetry_equiv_pos_site_id
 _symmetry_equiv_pos_as_xyz
  1  'x, y, z'
loop_
 _atom_site_type_symbol
 _atom_site_label
 _atom_site_symmetry_multiplicity
 _atom_site_fract_x
 _atom_site_fract_y
 _atom_site_fract_z
 _atom_site_occupancy
  Sr  Sr0  1  0.50000000  0.50000000  0.50000000  1
  Ce  Ce0  1  0.00000000  0.00000000  0.00000000  1
  Ce  Ce1  1  0.00000000  0.50000000  0.74814200  1
  Ce  Ce2  1  0.50000000  0.00000000  0.25185800  1
  V  V0  1  0.50000000  0.00000000  0.75257200  1
  V  V1  1  0.00000000  0.50000000  0.24742800  1
  V  V2  1  0.00000000  0.00000000  0.50000000  1
  V  V3  1  0.50000000  0.50000000  0.00000000  1
  O  O0  1  0.68315100  0.00000000  0.92613700  1
  O  O1  1  0.17303500  0.50000000  0.42357600  1
  O  O2  1  0.00000000  0.81990300  0.67334000  1
  O  O3  1  0.50000000  0.31158700  0.16099300  1
  O  O4  1  0.00000000  0.18009700  0.67334000  1
  O  O5  1  0.50000000  0.68841300  0.16099300  1
  O  O6  1  0.31684900  0.00000000  0.92613700  1
  O  O7  1  0.82696500  0.50000000  0.42357600  1
  O  O8  1  0.81990300  0.00000000  0.32666000  1
  O  O9  1  0.31158700  0.50000000  0.83900700  1
  O  O10  1  0.50000000  0.17303500  0.57642400  1
  O  O11  1  0.00000000  0.68315100  0.07386300  1
  O  O12  1  0.50000000  0.82696500  0.57642400  1
  O  O13  1  0.00000000  0.31684900  0.07386300  1
  O  O14  1  0.18009700  0.00000000  0.32666000  1
  O  O15  1  0.68841300  0.50000000  0.83900700  1
loop_
_geom_bond_atom_site_label_1
_geom_bond_atom_site_label_2
_geom_bond_distance
_geom_bond_site_symmetry_2
Ce0 O6 2.398465 1_554
Ce0 O13 2.398465 1_555
Ce0 O0 2.398465 1_454
Ce0 O11 2.398465 1_545
Ce0 O4 2.513802 1_554
Ce0 O14 2.513802 1_555
Ce0 O2 2.513802 1_544
Ce0 O8 2.513802 1_455
Ce1 O9 2.385337 1_555
Ce1 O15 2.385337 1_455
Ce1 O2 2.421880 1_555
Ce1 O4 2.421880 1_555
Ce1 O1 2.474692 1_555
Ce1 O7 2.474692 1_455
Ce1 O11 2.520747 1_556
Ce1 O13 2.520747 1_556
Ce2 O3 2.385337 1_555
Ce2 O5 2.385337 1_545
Ce2 O8 2.421880 1_555
Ce2 O14 2.421880 1_555
Ce2 O10 2.474692 1_555
Ce2 O12 2.474692 1_545
Ce2 O0 2.520747 1_554
Ce2 O6 2.520747 1_554
O0 V0 1.767793 1_555
O1 V1 1.722017 1_555
O1 Sr0 2.475306 1_555
O2 V2 1.749505 1_565
O3 V3 1.747521 1_555
O3 Sr0 2.614779 1_555
O4 V2 1.749505 1_555
O5 V3 1.747521 1_555
O5 Sr0 2.614779 1_555
O6 V0 1.767793 1_555
O7 V1 1.722017 1_655
O7 Sr0 2.475306 1_555
O8 V2 1.749505 1_655
O9 V3 1.747521 1_556
O9 Sr0 2.614779 1_555
O10 V0 1.722017 1_555
O10 Sr0 2.475306 1_555
O11 V1 1.767793 1_555
O12 V0 1.722017 1_565
O12 Sr0 2.475306 1_555
O13 V1 1.767793 1_555
O14 V2 1.749505 1_555
O15 V3 1.747521 1_556
O15 Sr0 2.614779 1_555
