# generated using pymatgen
data_CeY4Mg5
_symmetry_space_group_name_H-M   'P 1'
_cell_length_a   7.62011600
_cell_length_b   7.62011600
_cell_length_c   38.23952000
_cell_angle_alpha   90.00000000
_cell_angle_beta   90.00000000
_cell_angle_gamma   90.00000000
_symmetry_Int_Tables_number   1
_chemical_formula_structural   CeY4Mg5
_chemical_formula_sum   'Ce8 Y32 Mg40'
_cell_volume   2220.42238696
_cell_formula_units_Z   8
loop_
 _symmetry_equiv_pos_site_id
 _symmetry_equiv_pos_as_xyz
  1  'x, y, z'
loop_
 _atom_site_type_symbol
 _atom_site_label
 _atom_site_symmetry_multiplicity
 _atom_site_fract_x
 _atom_site_fract_y
 _atom_site_fract_z
 _atom_site_occupancy
  Ce  Ce0_0  1  0.00000000  0.00000000  0.00000000  1
  Ce  Ce0_1  1  0.00000000  0.00000000  0.50000000  1
  Ce  Ce0_2  1  0.00000000  0.50000000  0.00000000  1
  Ce  Ce0_3  1  0.00000000  0.50000000  0.50000000  1
  Ce  Ce0_4  1  0.50000000  0.00000000  0.00000000  1
  Ce  Ce0_5  1  0.50000000  0.00000000  0.50000000  1
  Ce  Ce0_6  1  0.50000000  0.50000000  0.00000000  1
  Ce  Ce0_7  1  0.50000000  0.50000000  0.50000000  1
  Y  Y0_0  1  0.00000000  0.00000000  0.09964650  1
  Y  Y0_1  1  0.00000000  0.00000000  0.59964650  1
  Y  Y0_2  1  0.00000000  0.50000000  0.09964650  1
  Y  Y0_3  1  0.00000000  0.50000000  0.59964650  1
  Y  Y0_4  1  0.50000000  0.00000000  0.09964650  1
  Y  Y0_5  1  0.50000000  0.00000000  0.59964650  1
  Y  Y0_6  1  0.50000000  0.50000000  0.09964650  1
  Y  Y0_7  1  0.50000000  0.50000000  0.59964650  1
  Y  Y1_0  1  0.00000000  0.00000000  0.20027050  1
  Y  Y1_1  1  0.00000000  0.00000000  0.70027050  1
  Y  Y1_2  1  0.00000000  0.50000000  0.20027050  1
  Y  Y1_3  1  0.00000000  0.50000000  0.70027050  1
  Y  Y1_4  1  0.50000000  0.00000000  0.20027050  1
  Y  Y1_5  1  0.50000000  0.00000000  0.70027050  1
  Y  Y1_6  1  0.50000000  0.50000000  0.20027050  1
  Y  Y1_7  1  0.50000000  0.50000000  0.70027050  1
  Y  Y2_0  1  0.00000000  0.00000000  0.29972950  1
  Y  Y2_1  1  0.00000000  0.00000000  0.79972950  1
  Y  Y2_2  1  0.00000000  0.50000000  0.29972950  1
  Y  Y2_3  1  0.00000000  0.50000000  0.79972950  1
  Y  Y2_4  1  0.50000000  0.00000000  0.29972950  1
  Y  Y2_5  1  0.50000000  0.00000000  0.79972950  1
  Y  Y2_6  1  0.50000000  0.50000000  0.29972950  1
  Y  Y2_7  1  0.50000000  0.50000000  0.79972950  1
  Y  Y3_0  1  0.00000000  0.00000000  0.40035400  1
  Y  Y3_1  1  0.00000000  0.00000000  0.90035400  1
  Y  Y3_2  1  0.00000000  0.50000000  0.40035400  1
  Y  Y3_3  1  0.00000000  0.50000000  0.90035400  1
  Y  Y3_4  1  0.50000000  0.00000000  0.40035400  1
  Y  Y3_5  1  0.50000000  0.00000000  0.90035400  1
  Y  Y3_6  1  0.50000000  0.50000000  0.40035400  1
  Y  Y3_7  1  0.50000000  0.50000000  0.90035400  1
  Mg  Mg0_0  1  0.25000000  0.25000000  0.05039900  1
  Mg  Mg0_1  1  0.25000000  0.25000000  0.55039900  1
  Mg  Mg0_2  1  0.25000000  0.75000000  0.05039900  1
  Mg  Mg0_3  1  0.25000000  0.75000000  0.55039900  1
  Mg  Mg0_4  1  0.75000000  0.25000000  0.05039900  1
  Mg  Mg0_5  1  0.75000000  0.25000000  0.55039900  1
  Mg  Mg0_6  1  0.75000000  0.75000000  0.05039900  1
  Mg  Mg0_7  1  0.75000000  0.75000000  0.55039900  1
  Mg  Mg1_0  1  0.25000000  0.25000000  0.15011600  1
  Mg  Mg1_1  1  0.25000000  0.25000000  0.65011600  1
  Mg  Mg1_2  1  0.25000000  0.75000000  0.15011600  1
  Mg  Mg1_3  1  0.25000000  0.75000000  0.65011600  1
  Mg  Mg1_4  1  0.75000000  0.25000000  0.15011600  1
  Mg  Mg1_5  1  0.75000000  0.25000000  0.65011600  1
  Mg  Mg1_6  1  0.75000000  0.75000000  0.15011600  1
  Mg  Mg1_7  1  0.75000000  0.75000000  0.65011600  1
  Mg  Mg2_0  1  0.25000000  0.25000000  0.25000000  1
  Mg  Mg2_1  1  0.25000000  0.25000000  0.75000000  1
  Mg  Mg2_2  1  0.25000000  0.75000000  0.25000000  1
  Mg  Mg2_3  1  0.25000000  0.75000000  0.75000000  1
  Mg  Mg2_4  1  0.75000000  0.25000000  0.25000000  1
  Mg  Mg2_5  1  0.75000000  0.25000000  0.75000000  1
  Mg  Mg2_6  1  0.75000000  0.75000000  0.25000000  1
  Mg  Mg2_7  1  0.75000000  0.75000000  0.75000000  1
  Mg  Mg3_0  1  0.25000000  0.25000000  0.34988400  1
  Mg  Mg3_1  1  0.25000000  0.25000000  0.84988400  1
  Mg  Mg3_2  1  0.25000000  0.75000000  0.34988400  1
  Mg  Mg3_3  1  0.25000000  0.75000000  0.84988400  1
  Mg  Mg3_4  1  0.75000000  0.25000000  0.34988400  1
  Mg  Mg3_5  1  0.75000000  0.25000000  0.84988400  1
  Mg  Mg3_6  1  0.75000000  0.75000000  0.34988400  1
  Mg  Mg3_7  1  0.75000000  0.75000000  0.84988400  1
  Mg  Mg4_0  1  0.25000000  0.25000000  0.44960100  1
  Mg  Mg4_1  1  0.25000000  0.25000000  0.94960100  1
  Mg  Mg4_2  1  0.25000000  0.75000000  0.44960100  1
  Mg  Mg4_3  1  0.25000000  0.75000000  0.94960100  1
  Mg  Mg4_4  1  0.75000000  0.25000000  0.44960100  1
  Mg  Mg4_5  1  0.75000000  0.25000000  0.94960100  1
  Mg  Mg4_6  1  0.75000000  0.75000000  0.44960100  1
  Mg  Mg4_7  1  0.75000000  0.75000000  0.94960100  1
loop_
_geom_bond_atom_site_label_1
_geom_bond_atom_site_label_2
_geom_bond_distance
_geom_bond_site_symmetry_2
Ce0_0 Mg0_2 3.312476 1_545
Ce0_0 Mg0_4 3.312476 1_455
Ce0_0 Mg0_6 3.312476 1_445
Ce0_0 Mg0_0 3.312476 1_555
Ce0_0 Mg4_1 3.312476 1_554
Ce0_0 Mg4_5 3.312476 1_454
Ce0_0 Mg4_3 3.312476 1_544
Ce0_0 Mg4_7 3.312476 1_444
Ce0_0 Ce0_2 3.810058 1_545
Ce0_0 Ce0_2 3.810058 1_555
Ce0_0 Ce0_4 3.810058 1_455
Ce0_0 Ce0_4 3.810058 1_555
Ce0_0 Y3_1 3.810415 1_554
Ce0_0 Y0_0 3.810434 1_555
Ce0_1 Mg0_1 3.312476 1_555
Ce0_1 Mg0_5 3.312476 1_455
Ce0_1 Mg0_3 3.312476 1_545
Ce0_1 Mg0_7 3.312476 1_445
Ce0_1 Mg4_2 3.312476 1_545
Ce0_1 Mg4_6 3.312476 1_445
Ce0_1 Mg4_0 3.312476 1_555
Ce0_1 Mg4_4 3.312476 1_455
Ce0_1 Ce0_5 3.810058 1_455
Ce0_1 Ce0_3 3.810058 1_555
Ce0_1 Ce0_5 3.810058 1_555
Ce0_1 Ce0_3 3.810058 1_545
Ce0_1 Y3_0 3.810415 1_555
Ce0_1 Y0_1 3.810434 1_555
Ce0_2 Mg0_2 3.312476 1_555
Ce0_2 Mg0_4 3.312476 1_455
Ce0_2 Mg0_6 3.312476 1_455
Ce0_2 Mg0_0 3.312476 1_555
Ce0_2 Mg4_1 3.312476 1_554
Ce0_2 Mg4_3 3.312476 1_554
Ce0_2 Mg4_5 3.312476 1_454
Ce0_2 Mg4_7 3.312476 1_454
Ce0_2 Ce0_6 3.810058 1_455
Ce0_2 Ce0_6 3.810058 1_555
Ce0_2 Y3_3 3.810415 1_554
Ce0_2 Y0_2 3.810434 1_555
Ce0_3 Mg0_1 3.312476 1_555
Ce0_3 Mg0_3 3.312476 1_555
Ce0_3 Mg0_7 3.312476 1_455
Ce0_3 Mg0_5 3.312476 1_455
Ce0_3 Mg4_2 3.312476 1_555
Ce0_3 Mg4_6 3.312476 1_455
Ce0_3 Mg4_0 3.312476 1_555
Ce0_3 Mg4_4 3.312476 1_455
Ce0_3 Ce0_7 3.810058 1_455
Ce0_3 Ce0_7 3.810058 1_555
Ce0_3 Y3_2 3.810415 1_555
Ce0_3 Y0_3 3.810434 1_555
Ce0_4 Mg0_2 3.312476 1_545
Ce0_4 Mg0_0 3.312476 1_555
Ce0_4 Mg0_6 3.312476 1_545
Ce0_4 Mg0_4 3.312476 1_555
Ce0_4 Mg4_1 3.312476 1_554
Ce0_4 Mg4_5 3.312476 1_554
Ce0_4 Mg4_3 3.312476 1_544
Ce0_4 Mg4_7 3.312476 1_544
Ce0_4 Ce0_6 3.810058 1_555
Ce0_4 Ce0_6 3.810058 1_545
Ce0_4 Y3_5 3.810415 1_554
Ce0_4 Y0_4 3.810434 1_555
Ce0_5 Mg0_7 3.312476 1_545
Ce0_5 Mg0_1 3.312476 1_555
Ce0_5 Mg0_5 3.312476 1_555
Ce0_5 Mg0_3 3.312476 1_545
Ce0_5 Mg4_2 3.312476 1_545
Ce0_5 Mg4_0 3.312476 1_555
Ce0_5 Mg4_6 3.312476 1_545
Ce0_5 Mg4_4 3.312476 1_555
Ce0_5 Ce0_7 3.810058 1_555
Ce0_5 Ce0_7 3.810058 1_545
Ce0_5 Y3_4 3.810415 1_555
Ce0_5 Y0_5 3.810434 1_555
Ce0_6 Mg0_2 3.312476 1_555
Ce0_6 Mg0_6 3.312476 1_555
Ce0_6 Mg0_0 3.312476 1_555
Ce0_6 Mg0_4 3.312476 1_555
Ce0_6 Mg4_1 3.312476 1_554
Ce0_6 Mg4_3 3.312476 1_554
Ce0_6 Mg4_7 3.312476 1_554
Ce0_6 Mg4_5 3.312476 1_554
Ce0_6 Y3_7 3.810415 1_554
Ce0_6 Y0_6 3.810434 1_555
Ce0_7 Mg0_7 3.312476 1_555
Ce0_7 Mg0_1 3.312476 1_555
Ce0_7 Mg0_5 3.312476 1_555
Ce0_7 Mg0_3 3.312476 1_555
Ce0_7 Mg4_2 3.312476 1_555
Ce0_7 Mg4_6 3.312476 1_555
Ce0_7 Mg4_0 3.312476 1_555
Ce0_7 Mg4_4 3.312476 1_555
Ce0_7 Y3_6 3.810415 1_555
Ce0_7 Y0_7 3.810434 1_555
Y0_0 Y0_2 3.810058 1_545
Y0_0 Y0_4 3.810058 1_455
Y0_0 Y0_4 3.810058 1_555
Y0_0 Y0_2 3.810058 1_555
Y0_0 Y1_0 3.847813 1_555
Y0_1 Y0_3 3.810058 1_545
Y0_1 Y0_5 3.810058 1_455
Y0_1 Y0_3 3.810058 1_555
Y0_1 Y0_5 3.810058 1_555
Y0_1 Y1_1 3.847813 1_555
Y0_2 Y0_6 3.810058 1_555
Y0_2 Y0_6 3.810058 1_455
Y0_2 Y1_2 3.847813 1_555
Y0_3 Y0_7 3.810058 1_455
Y0_3 Y0_7 3.810058 1_555
Y0_3 Y1_3 3.847813 1_555
Y0_4 Y0_6 3.810058 1_545
Y0_4 Y0_6 3.810058 1_555
Y0_4 Y1_4 3.847813 1_555
Y0_5 Y0_7 3.810058 1_555
Y0_5 Y0_7 3.810058 1_545
Y0_5 Y1_5 3.847813 1_555
Y0_6 Y1_6 3.847813 1_555
Y0_7 Y1_7 3.847813 1_555
Y1_0 Y2_0 3.803264 1_555
Y1_0 Y1_4 3.810058 1_455
Y1_0 Y1_4 3.810058 1_555
Y1_0 Y1_2 3.810058 1_555
Y1_0 Y1_2 3.810058 1_545
Y1_1 Y2_1 3.803264 1_555
Y1_1 Y1_5 3.810058 1_555
Y1_1 Y1_3 3.810058 1_545
Y1_1 Y1_3 3.810058 1_555
Y1_1 Y1_5 3.810058 1_455
Y1_2 Y2_2 3.803264 1_555
Y1_2 Y1_6 3.810058 1_455
Y1_2 Y1_6 3.810058 1_555
Y1_3 Y2_3 3.803264 1_555
Y1_3 Y1_7 3.810058 1_555
Y1_3 Y1_7 3.810058 1_455
Y1_4 Y2_4 3.803264 1_555
Y1_4 Y1_6 3.810058 1_545
Y1_4 Y1_6 3.810058 1_555
Y1_5 Y2_5 3.803264 1_555
Y1_5 Y1_7 3.810058 1_555
Y1_5 Y1_7 3.810058 1_545
Y1_6 Y2_6 3.803264 1_555
Y1_7 Y2_7 3.803264 1_555
Y2_0 Y2_2 3.810058 1_555
Y2_0 Y2_2 3.810058 1_545
Y2_0 Y2_4 3.810058 1_455
Y2_0 Y2_4 3.810058 1_555
Y2_0 Y3_0 3.847833 1_555
Y2_1 Y2_5 3.810058 1_555
Y2_1 Y2_3 3.810058 1_545
Y2_1 Y2_5 3.810058 1_455
Y2_1 Y2_3 3.810058 1_555
Y2_1 Y3_1 3.847833 1_555
Y2_2 Y2_6 3.810058 1_555
Y2_2 Y2_6 3.810058 1_455
Y2_2 Y3_2 3.847833 1_555
Y2_3 Y2_7 3.810058 1_555
Y2_3 Y2_7 3.810058 1_455
Y2_3 Y3_3 3.847833 1_555
Y2_4 Y2_6 3.810058 1_555
Y2_4 Y2_6 3.810058 1_545
Y2_4 Y3_4 3.847833 1_555
Y2_5 Y2_7 3.810058 1_545
Y2_5 Y2_7 3.810058 1_555
Y2_5 Y3_5 3.847833 1_555
Y2_6 Y3_6 3.847833 1_555
Y2_7 Y3_7 3.847833 1_555
Y3_0 Y3_4 3.810058 1_555
Y3_0 Y3_2 3.810058 1_555
Y3_0 Y3_2 3.810058 1_545
Y3_0 Y3_4 3.810058 1_455
Y3_1 Y3_5 3.810058 1_555
Y3_1 Y3_3 3.810058 1_555
Y3_1 Y3_3 3.810058 1_545
Y3_1 Y3_5 3.810058 1_455
Y3_2 Y3_6 3.810058 1_455
Y3_2 Y3_6 3.810058 1_555
Y3_3 Y3_7 3.810058 1_555
Y3_3 Y3_7 3.810058 1_455
Y3_4 Y3_6 3.810058 1_545
Y3_4 Y3_6 3.810058 1_555
Y3_5 Y3_7 3.810058 1_555
Y3_5 Y3_7 3.810058 1_545
Mg0_0 Y0_2 3.287053 1_555
Mg0_0 Y0_0 3.287053 1_555
Mg0_0 Y0_6 3.287053 1_555
Mg0_0 Y0_4 3.287053 1_555
Mg0_0 Mg0_2 3.810058 1_555
Mg0_0 Mg0_4 3.810058 1_555
Mg0_0 Mg0_4 3.810058 1_455
Mg0_0 Mg0_2 3.810058 1_545
Mg0_0 Mg1_0 3.813130 1_555
Mg0_0 Mg4_1 3.854467 1_554
Mg0_1 Y0_5 3.287053 1_555
Mg0_1 Y0_3 3.287053 1_555
Mg0_1 Y0_1 3.287053 1_555
Mg0_1 Y0_7 3.287053 1_555
Mg0_1 Mg0_3 3.810058 1_555
Mg0_1 Mg0_5 3.810058 1_455
Mg0_1 Mg0_3 3.810058 1_545
Mg0_1 Mg0_5 3.810058 1_555
Mg0_1 Mg1_1 3.813130 1_555
Mg0_1 Mg4_0 3.854467 1_555
Mg0_2 Y0_2 3.287053 1_555
Mg0_2 Y0_6 3.287053 1_555
Mg0_2 Y0_0 3.287053 1_565
Mg0_2 Y0_4 3.287053 1_565
Mg0_2 Mg0_6 3.810058 1_555
Mg0_2 Mg0_6 3.810058 1_455
Mg0_2 Mg1_2 3.813130 1_555
Mg0_2 Mg4_3 3.854467 1_554
Mg0_3 Y0_3 3.287053 1_555
Mg0_3 Y0_7 3.287053 1_555
Mg0_3 Y0_1 3.287053 1_565
Mg0_3 Y0_5 3.287053 1_565
Mg0_3 Mg0_7 3.810058 1_455
Mg0_3 Mg0_7 3.810058 1_555
Mg0_3 Mg1_3 3.813130 1_555
Mg0_3 Mg4_2 3.854467 1_555
Mg0_4 Y0_6 3.287053 1_555
Mg0_4 Y0_4 3.287053 1_555
Mg0_4 Y0_2 3.287053 1_655
Mg0_4 Y0_0 3.287053 1_655
Mg0_4 Mg0_6 3.810058 1_555
Mg0_4 Mg0_6 3.810058 1_545
Mg0_4 Mg1_4 3.813130 1_555
Mg0_4 Mg4_5 3.854467 1_554
Mg0_5 Y0_5 3.287053 1_555
Mg0_5 Y0_1 3.287053 1_655
Mg0_5 Y0_7 3.287053 1_555
Mg0_5 Y0_3 3.287053 1_655
Mg0_5 Mg0_7 3.810058 1_555
Mg0_5 Mg0_7 3.810058 1_545
Mg0_5 Mg1_5 3.813130 1_555
Mg0_5 Mg4_4 3.854467 1_555
Mg0_6 Y0_0 3.287053 1_665
Mg0_6 Y0_6 3.287053 1_555
Mg0_6 Y0_2 3.287053 1_655
Mg0_6 Y0_4 3.287053 1_565
Mg0_6 Mg1_6 3.813130 1_555
Mg0_6 Mg4_7 3.854467 1_554
Mg0_7 Y0_3 3.287053 1_655
Mg0_7 Y0_1 3.287053 1_665
Mg0_7 Y0_7 3.287053 1_555
Mg0_7 Y0_5 3.287053 1_565
Mg0_7 Mg1_7 3.813130 1_555
Mg0_7 Mg4_6 3.854467 1_555
Mg1_0 Y1_4 3.307046 1_555
Mg1_0 Y1_2 3.307046 1_555
Mg1_0 Y1_6 3.307046 1_555
Mg1_0 Y1_0 3.307046 1_555
Mg1_0 Y0_0 3.314046 1_555
Mg1_0 Y0_6 3.314046 1_555
Mg1_0 Y0_4 3.314046 1_555
Mg1_0 Y0_2 3.314046 1_555
Mg1_0 Mg1_4 3.810058 1_455
Mg1_0 Mg1_2 3.810058 1_555
Mg1_0 Mg1_2 3.810058 1_545
Mg1_0 Mg1_4 3.810058 1_555
Mg1_0 Mg2_0 3.819516 1_555
Mg1_1 Y1_3 3.307046 1_555
Mg1_1 Y1_1 3.307046 1_555
Mg1_1 Y1_5 3.307046 1_555
Mg1_1 Y1_7 3.307046 1_555
Mg1_1 Y0_1 3.314046 1_555
Mg1_1 Y0_5 3.314046 1_555
Mg1_1 Y0_3 3.314046 1_555
Mg1_1 Y0_7 3.314046 1_555
Mg1_1 Mg1_5 3.810058 1_555
Mg1_1 Mg1_5 3.810058 1_455
Mg1_1 Mg1_3 3.810058 1_545
Mg1_1 Mg1_3 3.810058 1_555
Mg1_1 Mg2_1 3.819516 1_555
Mg1_2 Y1_2 3.307046 1_555
Mg1_2 Y1_6 3.307046 1_555
Mg1_2 Y1_4 3.307046 1_565
Mg1_2 Y1_0 3.307046 1_565
Mg1_2 Y0_6 3.314046 1_555
Mg1_2 Y0_0 3.314046 1_565
Mg1_2 Y0_4 3.314046 1_565
Mg1_2 Y0_2 3.314046 1_555
Mg1_2 Mg1_6 3.810058 1_555
Mg1_2 Mg1_6 3.810058 1_455
Mg1_2 Mg2_2 3.819516 1_555
Mg1_3 Y1_3 3.307046 1_555
Mg1_3 Y1_1 3.307046 1_565
Mg1_3 Y1_5 3.307046 1_565
Mg1_3 Y1_7 3.307046 1_555
Mg1_3 Y0_3 3.314046 1_555
Mg1_3 Y0_1 3.314046 1_565
Mg1_3 Y0_5 3.314046 1_565
Mg1_3 Y0_7 3.314046 1_555
Mg1_3 Mg1_7 3.810058 1_555
Mg1_3 Mg1_7 3.810058 1_455
Mg1_3 Mg2_3 3.819516 1_555
Mg1_4 Y1_4 3.307046 1_555
Mg1_4 Y1_0 3.307046 1_655
Mg1_4 Y1_2 3.307046 1_655
Mg1_4 Y1_6 3.307046 1_555
Mg1_4 Y0_6 3.314046 1_555
Mg1_4 Y0_4 3.314046 1_555
Mg1_4 Y0_2 3.314046 1_655
Mg1_4 Y0_0 3.314046 1_655
Mg1_4 Mg1_6 3.810058 1_545
Mg1_4 Mg1_6 3.810058 1_555
Mg1_4 Mg2_4 3.819516 1_555
Mg1_5 Y1_1 3.307046 1_655
Mg1_5 Y1_7 3.307046 1_555
Mg1_5 Y1_5 3.307046 1_555
Mg1_5 Y1_3 3.307046 1_655
Mg1_5 Y0_5 3.314046 1_555
Mg1_5 Y0_1 3.314046 1_655
Mg1_5 Y0_3 3.314046 1_655
Mg1_5 Y0_7 3.314046 1_555
Mg1_5 Mg1_7 3.810058 1_555
Mg1_5 Mg1_7 3.810058 1_545
Mg1_5 Mg2_5 3.819516 1_555
Mg1_6 Y1_0 3.307046 1_665
Mg1_6 Y1_2 3.307046 1_655
Mg1_6 Y1_6 3.307046 1_555
Mg1_6 Y1_4 3.307046 1_565
Mg1_6 Y0_0 3.314046 1_665
Mg1_6 Y0_6 3.314046 1_555
Mg1_6 Y0_2 3.314046 1_655
Mg1_6 Y0_4 3.314046 1_565
Mg1_6 Mg2_6 3.819516 1_555
Mg1_7 Y1_1 3.307046 1_665
Mg1_7 Y1_3 3.307046 1_655
Mg1_7 Y1_5 3.307046 1_565
Mg1_7 Y1_7 3.307046 1_555
Mg1_7 Y0_1 3.314046 1_665
Mg1_7 Y0_5 3.314046 1_565
Mg1_7 Y0_3 3.314046 1_655
Mg1_7 Y0_7 3.314046 1_555
Mg1_7 Mg2_7 3.819516 1_555
Mg2_0 Y2_0 3.297647 1_555
Mg2_0 Y2_2 3.297647 1_555
Mg2_0 Y2_6 3.297647 1_555
Mg2_0 Y2_4 3.297647 1_555
Mg2_0 Y1_4 3.297647 1_555
Mg2_0 Y1_2 3.297647 1_555
Mg2_0 Y1_6 3.297647 1_555
Mg2_0 Y1_0 3.297647 1_555
Mg2_0 Mg2_2 3.810058 1_555
Mg2_0 Mg2_4 3.810058 1_455
Mg2_0 Mg2_4 3.810058 1_555
Mg2_0 Mg2_2 3.810058 1_545
Mg2_0 Mg3_0 3.819516 1_555
Mg2_1 Y2_3 3.297647 1_555
Mg2_1 Y2_7 3.297647 1_555
Mg2_1 Y2_1 3.297647 1_555
Mg2_1 Y2_5 3.297647 1_555
Mg2_1 Y1_7 3.297647 1_555
Mg2_1 Y1_5 3.297647 1_555
Mg2_1 Y1_3 3.297647 1_555
Mg2_1 Y1_1 3.297647 1_555
Mg2_1 Mg2_3 3.810058 1_555
Mg2_1 Mg2_5 3.810058 1_455
Mg2_1 Mg2_3 3.810058 1_545
Mg2_1 Mg2_5 3.810058 1_555
Mg2_1 Mg3_1 3.819516 1_555
Mg2_2 Y2_4 3.297647 1_565
Mg2_2 Y2_2 3.297647 1_555
Mg2_2 Y2_6 3.297647 1_555
Mg2_2 Y2_0 3.297647 1_565
Mg2_2 Y1_2 3.297647 1_555
Mg2_2 Y1_6 3.297647 1_555
Mg2_2 Y1_0 3.297647 1_565
Mg2_2 Y1_4 3.297647 1_565
Mg2_2 Mg2_6 3.810058 1_555
Mg2_2 Mg2_6 3.810058 1_455
Mg2_2 Mg3_2 3.819516 1_555
Mg2_3 Y2_1 3.297647 1_565
Mg2_3 Y2_3 3.297647 1_555
Mg2_3 Y2_7 3.297647 1_555
Mg2_3 Y2_5 3.297647 1_565
Mg2_3 Y1_7 3.297647 1_555
Mg2_3 Y1_1 3.297647 1_565
Mg2_3 Y1_3 3.297647 1_555
Mg2_3 Y1_5 3.297647 1_565
Mg2_3 Mg2_7 3.810058 1_455
Mg2_3 Mg2_7 3.810058 1_555
Mg2_3 Mg3_3 3.819516 1_555
Mg2_4 Y2_6 3.297647 1_555
Mg2_4 Y2_0 3.297647 1_655
Mg2_4 Y2_2 3.297647 1_655
Mg2_4 Y2_4 3.297647 1_555
Mg2_4 Y1_0 3.297647 1_655
Mg2_4 Y1_4 3.297647 1_555
Mg2_4 Y1_2 3.297647 1_655
Mg2_4 Y1_6 3.297647 1_555
Mg2_4 Mg2_6 3.810058 1_545
Mg2_4 Mg2_6 3.810058 1_555
Mg2_4 Mg3_4 3.819516 1_555
Mg2_5 Y2_7 3.297647 1_555
Mg2_5 Y2_1 3.297647 1_655
Mg2_5 Y2_3 3.297647 1_655
Mg2_5 Y2_5 3.297647 1_555
Mg2_5 Y1_7 3.297647 1_555
Mg2_5 Y1_5 3.297647 1_555
Mg2_5 Y1_3 3.297647 1_655
Mg2_5 Y1_1 3.297647 1_655
Mg2_5 Mg2_7 3.810058 1_555
Mg2_5 Mg2_7 3.810058 1_545
Mg2_5 Mg3_5 3.819516 1_555
Mg2_6 Y2_0 3.297647 1_665
Mg2_6 Y2_4 3.297647 1_565
Mg2_6 Y2_6 3.297647 1_555
Mg2_6 Y2_2 3.297647 1_655
Mg2_6 Y1_0 3.297647 1_665
Mg2_6 Y1_2 3.297647 1_655
Mg2_6 Y1_6 3.297647 1_555
Mg2_6 Y1_4 3.297647 1_565
Mg2_6 Mg3_6 3.819516 1_555
Mg2_7 Y2_1 3.297647 1_665
Mg2_7 Y2_7 3.297647 1_555
Mg2_7 Y2_5 3.297647 1_565
Mg2_7 Y2_3 3.297647 1_655
Mg2_7 Y1_7 3.297647 1_555
Mg2_7 Y1_3 3.297647 1_655
Mg2_7 Y1_1 3.297647 1_665
Mg2_7 Y1_5 3.297647 1_565
Mg2_7 Mg3_7 3.819516 1_555
Mg3_0 Y2_6 3.307046 1_555
Mg3_0 Y2_0 3.307046 1_555
Mg3_0 Y2_4 3.307046 1_555
Mg3_0 Y2_2 3.307046 1_555
Mg3_0 Y3_0 3.314057 1_555
Mg3_0 Y3_2 3.314057 1_555
Mg3_0 Y3_4 3.314057 1_555
Mg3_0 Y3_6 3.314057 1_555
Mg3_0 Mg3_4 3.810058 1_555
Mg3_0 Mg3_2 3.810058 1_545
Mg3_0 Mg3_2 3.810058 1_555
Mg3_0 Mg3_4 3.810058 1_455
Mg3_0 Mg4_0 3.813130 1_555
Mg3_1 Y2_1 3.307046 1_555
Mg3_1 Y2_7 3.307046 1_555
Mg3_1 Y2_5 3.307046 1_555
Mg3_1 Y2_3 3.307046 1_555
Mg3_1 Y3_3 3.314057 1_555
Mg3_1 Y3_7 3.314057 1_555
Mg3_1 Y3_5 3.314057 1_555
Mg3_1 Y3_1 3.314057 1_555
Mg3_1 Mg3_5 3.810058 1_555
Mg3_1 Mg3_3 3.810058 1_555
Mg3_1 Mg3_5 3.810058 1_455
Mg3_1 Mg3_3 3.810058 1_545
Mg3_1 Mg4_1 3.813130 1_555
Mg3_2 Y2_6 3.307046 1_555
Mg3_2 Y2_4 3.307046 1_565
Mg3_2 Y2_2 3.307046 1_555
Mg3_2 Y2_0 3.307046 1_565
Mg3_2 Y3_4 3.314057 1_565
Mg3_2 Y3_6 3.314057 1_555
Mg3_2 Y3_0 3.314057 1_565
Mg3_2 Y3_2 3.314057 1_555
Mg3_2 Mg3_6 3.810058 1_455
Mg3_2 Mg3_6 3.810058 1_555
Mg3_2 Mg4_2 3.813130 1_555
Mg3_3 Y2_5 3.307046 1_565
Mg3_3 Y2_7 3.307046 1_555
Mg3_3 Y2_3 3.307046 1_555
Mg3_3 Y2_1 3.307046 1_565
Mg3_3 Y3_3 3.314057 1_555
Mg3_3 Y3_1 3.314057 1_565
Mg3_3 Y3_7 3.314057 1_555
Mg3_3 Y3_5 3.314057 1_565
Mg3_3 Mg3_7 3.810058 1_455
Mg3_3 Mg3_7 3.810058 1_555
Mg3_3 Mg4_3 3.813130 1_555
Mg3_4 Y2_6 3.307046 1_555
Mg3_4 Y2_2 3.307046 1_655
Mg3_4 Y2_0 3.307046 1_655
Mg3_4 Y2_4 3.307046 1_555
Mg3_4 Y3_0 3.314057 1_655
Mg3_4 Y3_2 3.314057 1_655
Mg3_4 Y3_4 3.314057 1_555
Mg3_4 Y3_6 3.314057 1_555
Mg3_4 Mg3_6 3.810058 1_545
Mg3_4 Mg3_6 3.810058 1_555
Mg3_4 Mg4_4 3.813130 1_555
Mg3_5 Y2_7 3.307046 1_555
Mg3_5 Y2_1 3.307046 1_655
Mg3_5 Y2_5 3.307046 1_555
Mg3_5 Y2_3 3.307046 1_655
Mg3_5 Y3_3 3.314057 1_655
Mg3_5 Y3_7 3.314057 1_555
Mg3_5 Y3_1 3.314057 1_655
Mg3_5 Y3_5 3.314057 1_555
Mg3_5 Mg3_7 3.810058 1_545
Mg3_5 Mg3_7 3.810058 1_555
Mg3_5 Mg4_5 3.813130 1_555
Mg3_6 Y2_6 3.307046 1_555
Mg3_6 Y2_2 3.307046 1_655
Mg3_6 Y2_0 3.307046 1_665
Mg3_6 Y2_4 3.307046 1_565
Mg3_6 Y3_4 3.314057 1_565
Mg3_6 Y3_2 3.314057 1_655
Mg3_6 Y3_0 3.314057 1_665
Mg3_6 Y3_6 3.314057 1_555
Mg3_6 Mg4_6 3.813130 1_555
Mg3_7 Y2_5 3.307046 1_565
Mg3_7 Y2_7 3.307046 1_555
Mg3_7 Y2_3 3.307046 1_655
Mg3_7 Y2_1 3.307046 1_665
Mg3_7 Y3_3 3.314057 1_655
Mg3_7 Y3_5 3.314057 1_565
Mg3_7 Y3_7 3.314057 1_555
Mg3_7 Y3_1 3.314057 1_665
Mg3_7 Mg4_7 3.813130 1_555
Mg4_0 Y3_6 3.287042 1_555
Mg4_0 Y3_2 3.287042 1_555
Mg4_0 Y3_0 3.287042 1_555
Mg4_0 Y3_4 3.287042 1_555
Mg4_0 Mg4_2 3.810058 1_545
Mg4_0 Mg4_4 3.810058 1_555
Mg4_0 Mg4_4 3.810058 1_455
Mg4_0 Mg4_2 3.810058 1_555
Mg4_1 Y3_1 3.287042 1_555
Mg4_1 Y3_5 3.287042 1_555
Mg4_1 Y3_3 3.287042 1_555
Mg4_1 Y3_7 3.287042 1_555
Mg4_1 Mg4_5 3.810058 1_455
Mg4_1 Mg4_3 3.810058 1_545
Mg4_1 Mg4_3 3.810058 1_555
Mg4_1 Mg4_5 3.810058 1_555
Mg4_2 Y3_6 3.287042 1_555
Mg4_2 Y3_2 3.287042 1_555
Mg4_2 Y3_0 3.287042 1_565
Mg4_2 Y3_4 3.287042 1_565
Mg4_2 Mg4_6 3.810058 1_555
Mg4_2 Mg4_6 3.810058 1_455
Mg4_3 Y3_1 3.287042 1_565
Mg4_3 Y3_5 3.287042 1_565
Mg4_3 Y3_3 3.287042 1_555
Mg4_3 Y3_7 3.287042 1_555
Mg4_3 Mg4_7 3.810058 1_455
Mg4_3 Mg4_7 3.810058 1_555
Mg4_4 Y3_6 3.287042 1_555
Mg4_4 Y3_0 3.287042 1_655
Mg4_4 Y3_2 3.287042 1_655
Mg4_4 Y3_4 3.287042 1_555
Mg4_4 Mg4_6 3.810058 1_555
Mg4_4 Mg4_6 3.810058 1_545
Mg4_5 Y3_1 3.287042 1_655
Mg4_5 Y3_5 3.287042 1_555
Mg4_5 Y3_3 3.287042 1_655
Mg4_5 Y3_7 3.287042 1_555
Mg4_5 Mg4_7 3.810058 1_555
Mg4_5 Mg4_7 3.810058 1_545
Mg4_6 Y3_6 3.287042 1_555
Mg4_6 Y3_0 3.287042 1_665
Mg4_6 Y3_4 3.287042 1_565
Mg4_6 Y3_2 3.287042 1_655
Mg4_7 Y3_1 3.287042 1_665
Mg4_7 Y3_5 3.287042 1_565
Mg4_7 Y3_3 3.287042 1_655
Mg4_7 Y3_7 3.287042 1_555
