# generated using pymatgen
data_Cs4Zn3F10
_symmetry_space_group_name_H-M   'P 1'
_cell_length_a   7.88433575
_cell_length_b   7.88433575
_cell_length_c   13.80332949
_cell_angle_alpha   90.00000000
_cell_angle_beta   90.00000000
_cell_angle_gamma   133.74934808
_symmetry_Int_Tables_number   1
_chemical_formula_structural   Cs4Zn3F10
_chemical_formula_sum   'Cs8 Zn6 F20'
_cell_volume   619.83325990
_cell_formula_units_Z   2
loop_
 _symmetry_equiv_pos_site_id
 _symmetry_equiv_pos_as_xyz
  1  'x, y, z'
loop_
 _atom_site_type_symbol
 _atom_site_label
 _atom_site_symmetry_multiplicity
 _atom_site_fract_x
 _atom_site_fract_y
 _atom_site_fract_z
 _atom_site_occupancy
  Cs  Cs0  1  0.25631929  0.74368071  0.60983103  1
  Cs  Cs1  1  0.74368071  0.25631929  0.39016897  1
  Cs  Cs2  1  0.24368071  0.75631929  0.10983103  1
  Cs  Cs3  1  0.75631929  0.24368071  0.89016897  1
  Cs  Cs4  1  0.95537991  0.04462009  0.63876952  1
  Cs  Cs5  1  0.04462009  0.95537991  0.36123048  1
  Cs  Cs6  1  0.54462009  0.45537991  0.13876952  1
  Cs  Cs7  1  0.45537991  0.54462009  0.86123048  1
  Zn  Zn0  1  0.62101750  0.37898250  0.65588935  1
  Zn  Zn1  1  0.37898250  0.62101750  0.34411065  1
  Zn  Zn2  1  0.87898250  0.12101750  0.15588935  1
  Zn  Zn3  1  0.12101750  0.87898250  0.84411065  1
  Zn  Zn4  1  0.50000000  0.50000000  0.50000000  1
  Zn  Zn5  1  0.00000000  -0.00000000  0.00000000  1
  F  F0  1  0.61471976  0.81497100  0.46247938  1
  F  F1  1  0.81497100  0.61471976  0.53752062  1
  F  F2  1  0.88528024  0.68502900  0.96247938  1
  F  F3  1  0.68502900  0.88528024  0.03752062  1
  F  F4  1  0.38528024  0.18502900  0.53752062  1
  F  F5  1  0.18502900  0.38528024  0.46247938  1
  F  F6  1  0.11471976  0.31497100  0.03752062  1
  F  F7  1  0.31497100  0.11471976  0.96247938  1
  F  F8  1  0.47462296  0.52537704  0.64507091  1
  F  F9  1  0.52537704  0.47462296  0.35492909  1
  F  F10  1  0.02537704  0.97462296  0.14507091  1
  F  F11  1  0.97462296  0.02537704  0.85492909  1
  F  F12  1  0.75439090  0.24560910  0.64994962  1
  F  F13  1  0.24560910  0.75439090  0.35005038  1
  F  F14  1  0.36198706  0.13801294  0.75000000  1
  F  F15  1  0.13801294  0.36198706  0.25000000  1
  F  F16  1  0.63801294  0.86198706  0.25000000  1
  F  F17  1  0.86198706  0.63801294  0.75000000  1
  F  F18  1  0.25439090  0.74560910  0.85005038  1
  F  F19  1  0.74560910  0.25439090  0.14994962  1
loop_
_geom_bond_atom_site_label_1
_geom_bond_atom_site_label_2
_geom_bond_distance
_geom_bond_site_symmetry_2
Cs0 F1 3.040630 1_455
Cs0 F4 3.040630 1_565
Cs0 F12 3.145775 1_455
Cs0 F12 3.145775 1_565
Cs0 F0 3.200172 1_555
Cs0 F5 3.200172 1_555
Cs0 F8 3.202911 1_555
Cs0 F17 3.243675 1_455
Cs0 F14 3.243675 1_565
Cs0 F18 3.315945 1_555
Cs0 F13 3.589200 1_555
Cs1 F0 3.040630 1_545
Cs1 F5 3.040630 1_655
Cs1 F13 3.145775 1_655
Cs1 F13 3.145775 1_545
Cs1 F1 3.200172 1_555
Cs1 F4 3.200172 1_555
Cs1 F9 3.202911 1_555
Cs1 F16 3.243675 1_545
Cs1 F15 3.243675 1_655
Cs1 F19 3.315945 1_555
Cs1 F12 3.589200 1_555
Cs2 F3 3.040630 1_555
Cs2 F6 3.040630 1_555
Cs2 F19 3.145775 1_565
Cs2 F19 3.145775 1_455
Cs2 F2 3.200172 1_454
Cs2 F7 3.200172 1_564
Cs2 F10 3.202911 1_555
Cs2 F16 3.243675 1_555
Cs2 F15 3.243675 1_555
Cs2 F13 3.315945 1_555
Cs2 F18 3.589200 1_554
Cs3 F2 3.040630 1_555
Cs3 F7 3.040630 1_555
Cs3 F18 3.145775 1_655
Cs3 F18 3.145775 1_545
Cs3 F3 3.200172 1_546
Cs3 F6 3.200172 1_656
Cs3 F11 3.202911 1_555
Cs3 F14 3.243675 1_555
Cs3 F17 3.243675 1_555
Cs3 F12 3.315945 1_555
Cs3 F19 3.589200 1_556
Cs4 F12 2.918750 1_555
Cs4 F11 2.996743 1_555
Cs4 F4 3.078617 1_655
Cs4 F1 3.078617 1_545
Cs4 F8 3.110288 1_655
Cs4 F8 3.110288 1_545
Cs4 F0 3.112548 1_545
Cs4 F5 3.112548 1_655
Cs4 F17 3.148352 1_545
Cs4 F14 3.148352 1_655
Cs5 F13 2.918750 1_555
Cs5 F10 2.996743 1_555
Cs5 F0 3.078617 1_455
Cs5 F5 3.078617 1_565
Cs5 F9 3.110288 1_565
Cs5 F9 3.110288 1_455
Cs5 F1 3.112548 1_455
Cs5 F4 3.112548 1_565
Cs5 F16 3.148352 1_455
Cs5 F15 3.148352 1_565
Cs6 F19 2.918750 1_555
Cs6 F9 2.996743 1_555
Cs6 F6 3.078617 1_555
Cs6 F3 3.078617 1_555
Cs6 F10 3.110288 1_545
Cs6 F10 3.110288 1_655
Cs6 F2 3.112548 1_554
Cs6 F7 3.112548 1_554
Cs6 F15 3.148352 1_555
Cs6 F16 3.148352 1_555
Cs7 F18 2.918750 1_555
Cs7 F8 2.996743 1_555
Cs7 F2 3.078617 1_555
Cs7 F7 3.078617 1_555
Cs7 F11 3.110288 1_455
Cs7 F11 3.110288 1_565
Cs7 F3 3.112548 1_556
Cs7 F6 3.112548 1_556
Cs7 F14 3.148352 1_555
Cs7 F17 3.148352 1_555
F0 Zn4 2.036380 1_555
F0 Zn1 2.128783 1_555
F1 Zn4 2.036380 1_555
F1 Zn0 2.128783 1_555
F2 Zn5 2.036380 1_666
F2 Zn3 2.128783 1_655
F3 Zn5 2.036380 1_665
F3 Zn2 2.128783 1_565
F4 Zn4 2.036380 1_555
F4 Zn0 2.128783 1_555
F5 Zn4 2.036380 1_555
F5 Zn1 2.128783 1_555
F6 Zn5 2.036380 1_555
F6 Zn2 2.128783 1_455
F7 Zn5 2.036380 1_556
F7 Zn3 2.128783 1_545
F8 Zn4 2.035997 1_555
F8 Zn0 2.128205 1_555
F9 Zn4 2.035997 1_555
F9 Zn1 2.128205 1_555
F10 Zn5 2.035997 1_565
F10 Zn2 2.128205 1_465
F11 Zn5 2.035997 1_656
F11 Zn3 2.128205 1_645
F12 Zn0 1.935868 1_555
F13 Zn1 1.935868 1_555
F14 Zn0 2.025282 1_555
F14 Zn3 2.025282 1_545
F15 Zn2 2.025282 1_455
F15 Zn1 2.025282 1_555
F16 Zn2 2.025282 1_565
F16 Zn1 2.025282 1_555
F17 Zn0 2.025282 1_555
F17 Zn3 2.025282 1_655
F18 Zn3 1.935868 1_555
F19 Zn2 1.935868 1_555
