# generated using pymatgen
data_Mn(SO6)2
_symmetry_space_group_name_H-M   'P 1'
_cell_length_a   5.69013000
_cell_length_b   9.41476100
_cell_length_c   16.26258500
_cell_angle_alpha   90.00000000
_cell_angle_beta   90.00000000
_cell_angle_gamma   90.00000000
_symmetry_Int_Tables_number   1
_chemical_formula_structural   Mn(SO6)2
_chemical_formula_sum   'Mn4 S8 O48'
_cell_volume   871.20642137
_cell_formula_units_Z   4
loop_
 _symmetry_equiv_pos_site_id
 _symmetry_equiv_pos_as_xyz
  1  'x, y, z'
loop_
 _atom_site_type_symbol
 _atom_site_label
 _atom_site_symmetry_multiplicity
 _atom_site_fract_x
 _atom_site_fract_y
 _atom_site_fract_z
 _atom_site_occupancy
  Mn  Mn0  1  0.00000000  0.00000000  0.00000000  1
  Mn  Mn1  1  0.50000000  0.50000000  0.00000000  1
  Mn  Mn2  1  0.00000000  0.00000000  0.50000000  1
  Mn  Mn3  1  0.50000000  0.50000000  0.50000000  1
  S  S0  1  0.21021400  0.25913700  0.09199600  1
  S  S1  1  0.78978600  0.74086300  0.90800400  1
  S  S2  1  0.71021400  0.24086300  0.90800400  1
  S  S3  1  0.78978600  0.74086300  0.59199600  1
  S  S4  1  0.28978600  0.75913700  0.09199600  1
  S  S5  1  0.21021400  0.25913700  0.40800400  1
  S  S6  1  0.28978600  0.75913700  0.40800400  1
  S  S7  1  0.71021400  0.24086300  0.59199600  1
  O  O0  1  0.59751200  0.59179700  0.25000000  1
  O  O1  1  0.40248800  0.40820300  0.75000000  1
  O  O2  1  0.09751200  0.90820300  0.75000000  1
  O  O3  1  0.90248800  0.09179700  0.25000000  1
  O  O4  1  0.55676800  0.36306300  0.25000000  1
  O  O5  1  0.44323200  0.63693700  0.75000000  1
  O  O6  1  0.05676800  0.13693700  0.75000000  1
  O  O7  1  0.94323200  0.86306300  0.25000000  1
  O  O8  1  0.41650700  0.21277000  0.13738700  1
  O  O9  1  0.58349300  0.78723000  0.86261300  1
  O  O10  1  0.91650700  0.28723000  0.86261300  1
  O  O11  1  0.58349300  0.78723000  0.63738700  1
  O  O12  1  0.08349300  0.71277000  0.13738700  1
  O  O13  1  0.41650700  0.21277000  0.36261300  1
  O  O14  1  0.08349300  0.71277000  0.36261300  1
  O  O15  1  0.91650700  0.28723000  0.63738700  1
  O  O16  1  0.84569300  0.03279300  0.09389900  1
  O  O17  1  0.15430700  0.96720700  0.90610100  1
  O  O18  1  0.34569300  0.46720700  0.90610100  1
  O  O19  1  0.15430700  0.96720700  0.59389900  1
  O  O20  1  0.65430700  0.53279300  0.09389900  1
  O  O21  1  0.84569300  0.03279300  0.40610100  1
  O  O22  1  0.65430700  0.53279300  0.40610100  1
  O  O23  1  0.34569300  0.46720700  0.59389900  1
  O  O24  1  0.17987600  0.17487600  0.01206000  1
  O  O25  1  0.82012400  0.82512400  0.98794000  1
  O  O26  1  0.67987600  0.32512400  0.98794000  1
  O  O27  1  0.82012400  0.82512400  0.51206000  1
  O  O28  1  0.32012400  0.67487600  0.01206000  1
  O  O29  1  0.17987600  0.17487600  0.48794000  1
  O  O30  1  0.32012400  0.67487600  0.48794000  1
  O  O31  1  0.67987600  0.32512400  0.51206000  1
  O  O32  1  0.98720800  0.25014300  0.13933900  1
  O  O33  1  0.01279200  0.74985700  0.86066100  1
  O  O34  1  0.48720800  0.24985700  0.86066100  1
  O  O35  1  0.01279200  0.74985700  0.63933900  1
  O  O36  1  0.51279200  0.75014300  0.13933900  1
  O  O37  1  0.98720800  0.25014300  0.36066100  1
  O  O38  1  0.51279200  0.75014300  0.36066100  1
  O  O39  1  0.48720800  0.24985700  0.63933900  1
  O  O40  1  0.23247800  0.41161200  0.06310000  1
  O  O41  1  0.76752200  0.58838800  0.93690000  1
  O  O42  1  0.73247800  0.08838800  0.93690000  1
  O  O43  1  0.76752200  0.58838800  0.56310000  1
  O  O44  1  0.26752200  0.91161200  0.06310000  1
  O  O45  1  0.23247800  0.41161200  0.43690000  1
  O  O46  1  0.26752200  0.91161200  0.43690000  1
  O  O47  1  0.73247800  0.08838800  0.56310000  1
loop_
_geom_bond_atom_site_label_1
_geom_bond_atom_site_label_2
_geom_bond_distance
_geom_bond_site_symmetry_2
Mn0 O16 1.788324 1_455
Mn0 O17 1.788324 1_544
Mn0 O24 1.948522 1_555
Mn0 O25 1.948522 1_444
Mn0 O42 2.015614 1_454
Mn0 O44 2.015614 1_545
Mn1 O20 1.788324 1_555
Mn1 O18 1.788324 1_554
Mn1 O28 1.948522 1_555
Mn1 O26 1.948522 1_554
Mn1 O41 2.015614 1_554
Mn1 O40 2.015614 1_555
Mn2 O19 1.788324 1_545
Mn2 O21 1.788324 1_455
Mn2 O29 1.948522 1_555
Mn2 O27 1.948522 1_445
Mn2 O46 2.015614 1_545
Mn2 O47 2.015614 1_455
Mn3 O23 1.788324 1_555
Mn3 O22 1.788324 1_555
Mn3 O30 1.948522 1_555
Mn3 O31 1.948522 1_555
Mn3 O43 2.015614 1_555
Mn3 O45 2.015614 1_555
O0 O4 2.165920 1_555
O0 O38 2.386111 1_555
O0 O36 2.386111 1_555
O0 O22 2.618692 1_555
O0 O20 2.618692 1_555
O1 O5 2.165920 1_555
O1 O39 2.386111 1_555
O1 O34 2.386111 1_555
O1 O18 2.618692 1_555
O1 O23 2.618692 1_555
O2 O6 2.165920 1_565
O2 O35 2.386111 1_555
O2 O33 2.386111 1_555
O3 O7 2.165920 1_545
O3 O32 2.386111 1_555
O3 O37 2.386111 1_555
O4 O8 2.448073 1_555
O5 O9 2.448073 1_555
O8 S0 1.453737 1_555
O9 S1 1.453737 1_555
O10 S2 1.453737 1_555
O10 O6 2.448073 1_655
O11 S3 1.453737 1_555
O11 O5 2.448073 1_555
O12 S4 1.453737 1_555
O12 O7 2.448073 1_455
O13 S5 1.453737 1_555
O13 O4 2.448073 1_555
O14 S6 1.453737 1_555
O14 O7 2.448073 1_455
O15 S7 1.453737 1_555
O15 O6 2.448073 1_655
O16 O32 2.319876 1_555
O16 O3 2.618692 1_555
O17 O33 2.319876 1_555
O17 O2 2.618692 1_555
O18 O34 2.319876 1_555
O19 O35 2.319876 1_555
O19 O2 2.618692 1_555
O20 O36 2.319876 1_555
O21 O37 2.319876 1_555
O21 O3 2.618692 1_555
O22 O38 2.319876 1_555
O23 O39 2.319876 1_555
O24 S0 1.532655 1_555
O25 S1 1.532655 1_555
O26 S2 1.532655 1_555
O27 S3 1.532655 1_555
O28 S4 1.532655 1_555
O29 S5 1.532655 1_555
O30 S6 1.532655 1_555
O31 S7 1.532655 1_555
O32 S0 1.486653 1_655
O33 S1 1.486653 1_455
O34 S2 1.486653 1_555
O35 S3 1.486653 1_455
O36 S4 1.486653 1_555
O37 S5 1.486653 1_655
O38 S6 1.486653 1_555
O39 S7 1.486653 1_555
O40 S0 1.515778 1_555
O41 S1 1.515778 1_555
O42 S2 1.515778 1_555
O43 S3 1.515778 1_555
O44 S4 1.515778 1_555
O45 S5 1.515778 1_555
O46 S6 1.515778 1_555
O47 S7 1.515778 1_555
