# generated using pymatgen
data_Ag2SnSe3
_symmetry_space_group_name_H-M   'P 1'
_cell_length_a   7.40259624
_cell_length_b   7.40259624
_cell_length_c   28.12003028
_cell_angle_alpha   87.06930309
_cell_angle_beta   87.06930309
_cell_angle_gamma   119.49624773
_symmetry_Int_Tables_number   1
_chemical_formula_structural   Ag2SnSe3
_chemical_formula_sum   'Ag16 Sn8 Se24'
_cell_volume   1334.28550147
_cell_formula_units_Z   8
loop_
 _symmetry_equiv_pos_site_id
 _symmetry_equiv_pos_as_xyz
  1  'x, y, z'
loop_
 _atom_site_type_symbol
 _atom_site_label
 _atom_site_symmetry_multiplicity
 _atom_site_fract_x
 _atom_site_fract_y
 _atom_site_fract_z
 _atom_site_occupancy
  Ag  Ag0  1  0.84054140  0.69324717  0.98786935  1
  Ag  Ag1  1  0.69324717  0.84054140  0.48786935  1
  Ag  Ag2  1  0.52772902  0.02454655  0.98358391  1
  Ag  Ag3  1  0.02454655  0.52772902  0.48358391  1
  Ag  Ag4  1  0.88114236  0.37087520  0.86087012  1
  Ag  Ag5  1  0.37087520  0.88114236  0.36087012  1
  Ag  Ag6  1  0.22221739  0.05664425  0.86025346  1
  Ag  Ag7  1  0.05664425  0.22221739  0.36025346  1
  Ag  Ag8  1  0.90161080  0.09657326  0.73797381  1
  Ag  Ag9  1  0.09657326  0.90161080  0.23797381  1
  Ag  Ag10  1  0.60010468  0.44232881  0.73316566  1
  Ag  Ag11  1  0.44232881  0.60010468  0.23316566  1
  Ag  Ag12  1  0.63767625  0.12673146  0.60724091  1
  Ag  Ag13  1  0.12673146  0.63767625  0.10724091  1
  Ag  Ag14  1  0.29646093  0.46807974  0.61244769  1
  Ag  Ag15  1  0.46807974  0.29646093  0.11244769  1
  Sn  Sn0  1  0.16080645  0.32820696  0.97986504  1
  Sn  Sn1  1  0.32820696  0.16080645  0.47986504  1
  Sn  Sn2  1  0.55110751  0.70419863  0.85512717  1
  Sn  Sn3  1  0.70419863  0.55110751  0.35512717  1
  Sn  Sn4  1  0.27685750  0.76193800  0.73024030  1
  Sn  Sn5  1  0.76193800  0.27685750  0.23024030  1
  Sn  Sn6  1  0.97181124  0.79006876  0.60594174  1
  Sn  Sn7  1  0.79006876  0.97181124  0.10594174  1
  Se  Se0  1  0.31196336  0.14465576  0.57478387  1
  Se  Se1  1  0.14465576  0.31196336  0.07478387  1
  Se  Se2  1  0.50646390  0.67945742  0.94999401  1
  Se  Se3  1  0.67945742  0.50646390  0.44999401  1
  Se  Se4  1  0.95408429  0.78617241  0.70060806  1
  Se  Se5  1  0.78617241  0.95408429  0.20060806  1
  Se  Se6  1  0.59188337  0.10672777  0.70117413  1
  Se  Se7  1  0.10672777  0.59188337  0.20117413  1
  Se  Se8  1  0.26012897  0.43106394  0.70621669  1
  Se  Se9  1  0.43106394  0.26012897  0.20621669  1
  Se  Se10  1  0.22742878  0.72576060  0.82544328  1
  Se  Se11  1  0.72576060  0.22742878  0.32544328  1
  Se  Se12  1  0.88299142  0.04196948  0.83061842  1
  Se  Se13  1  0.04196948  0.88299142  0.33061842  1
  Se  Se14  1  0.86369199  0.37389158  0.95398307  1
  Se  Se15  1  0.37389158  0.86369199  0.45398307  1
  Se  Se16  1  0.97947919  0.47647236  0.57746654  1
  Se  Se17  1  0.47647236  0.97947919  0.07746654  1
  Se  Se18  1  0.56693543  0.39408350  0.82721832  1
  Se  Se19  1  0.39408350  0.56693543  0.32721832  1
  Se  Se20  1  0.19165936  0.02273493  0.95415638  1
  Se  Se21  1  0.02273493  0.19165936  0.45415638  1
  Se  Se22  1  0.65359699  0.79959486  0.58112808  1
  Se  Se23  1  0.79959486  0.65359699  0.08112808  1
loop_
_geom_bond_atom_site_label_1
_geom_bond_atom_site_label_2
_geom_bond_distance
_geom_bond_site_symmetry_2
Ag0 Se23 2.609140 1_556
Ag0 Se20 2.621511 1_665
Ag0 Se14 2.671843 1_555
Ag0 Se2 2.700473 1_555
Ag1 Se22 2.609140 1_555
Ag1 Se21 2.621511 1_665
Ag1 Se15 2.671843 1_555
Ag1 Se3 2.700473 1_555
Ag2 Se14 2.607793 1_555
Ag2 Se17 2.628238 1_546
Ag2 Se20 2.655715 1_555
Ag2 Se2 2.703452 1_545
Ag3 Se15 2.607793 1_555
Ag3 Se16 2.628238 1_455
Ag3 Se21 2.655715 1_555
Ag3 Se3 2.703452 1_455
Ag4 Se14 2.616700 1_555
Ag4 Se12 2.625890 1_555
Ag4 Se18 2.633810 1_555
Ag4 Se10 2.702745 1_655
Ag5 Se15 2.616700 1_555
Ag5 Se13 2.625890 1_555
Ag5 Se19 2.633810 1_555
Ag5 Se11 2.702745 1_565
Ag6 Se18 2.618724 1_555
Ag6 Se20 2.627152 1_555
Ag6 Se12 2.639462 1_455
Ag6 Se10 2.700662 1_545
Ag7 Se19 2.618724 1_555
Ag7 Se21 2.627152 1_555
Ag7 Se13 2.639462 1_545
Ag7 Se11 2.700662 1_455
Ag8 Se6 2.595713 1_555
Ag8 Se12 2.601928 1_555
Ag8 Se8 2.651878 1_655
Ag8 Se4 2.760205 1_545
Ag9 Se7 2.595713 1_555
Ag9 Se13 2.601928 1_555
Ag9 Se9 2.651878 1_565
Ag9 Se5 2.760205 1_455
Ag10 Se8 2.628657 1_555
Ag10 Se18 2.633110 1_555
Ag10 Se6 2.658961 1_555
Ag10 Se4 2.670534 1_555
Ag11 Se9 2.628657 1_555
Ag11 Se19 2.633110 1_555
Ag11 Se7 2.658961 1_555
Ag11 Se5 2.670534 1_555
Ag12 Se22 2.621363 1_545
Ag12 Se16 2.630004 1_555
Ag12 Se6 2.633035 1_555
Ag12 Se0 2.681753 1_555
Ag13 Se23 2.621363 1_455
Ag13 Se17 2.630004 1_555
Ag13 Se7 2.633035 1_555
Ag13 Se1 2.681753 1_555
Ag14 Se16 2.617404 1_455
Ag14 Se8 2.623184 1_555
Ag14 Se22 2.634291 1_555
Ag14 Se0 2.717422 1_555
Ag15 Se17 2.617404 1_545
Ag15 Se9 2.623184 1_555
Ag15 Se23 2.634291 1_555
Ag15 Se1 2.717422 1_555
Se0 Sn6 2.651160 1_445
Se0 Sn1 2.659577 1_555
Se1 Sn7 2.651160 1_445
Se1 Sn0 2.659577 1_554
Se2 Sn0 2.649328 1_555
Se2 Sn2 2.656962 1_555
Se3 Sn1 2.649328 1_555
Se3 Sn3 2.656962 1_555
Se4 Sn4 2.654420 1_655
Se4 Sn6 2.656521 1_555
Se5 Sn5 2.654420 1_565
Se5 Sn7 2.656521 1_555
Se6 Sn4 2.520182 1_545
Se7 Sn5 2.520182 1_455
Se8 Sn4 2.519914 1_555
Se9 Sn5 2.519914 1_555
Se10 Sn2 2.651572 1_555
Se10 Sn4 2.665062 1_555
Se11 Sn3 2.651572 1_555
Se11 Sn5 2.665062 1_555
Se12 Sn2 2.522747 1_545
Se13 Sn3 2.522747 1_455
Se14 Sn0 2.520412 1_655
Se15 Sn1 2.520412 1_565
Se16 Sn6 2.519641 1_555
Se17 Sn7 2.519641 1_555
Se18 Sn2 2.517811 1_555
Se19 Sn3 2.517811 1_555
Se20 Sn0 2.519336 1_555
Se21 Sn1 2.519336 1_555
Se22 Sn6 2.523364 1_555
Se23 Sn7 2.523364 1_555
