# generated using pymatgen
data_Mg30TiAlO32
_symmetry_space_group_name_H-M   'P 1'
_cell_length_a   8.53190400
_cell_length_b   8.53834600
_cell_length_c   8.53834600
_cell_angle_alpha   90.00000000
_cell_angle_beta   90.00000000
_cell_angle_gamma   90.00000000
_symmetry_Int_Tables_number   1
_chemical_formula_structural   Mg30TiAlO32
_chemical_formula_sum   'Mg30 Ti1 Al1 O32'
_cell_volume   622.00440409
_cell_formula_units_Z   1
loop_
 _symmetry_equiv_pos_site_id
 _symmetry_equiv_pos_as_xyz
  1  'x, y, z'
loop_
 _atom_site_type_symbol
 _atom_site_label
 _atom_site_symmetry_multiplicity
 _atom_site_fract_x
 _atom_site_fract_y
 _atom_site_fract_z
 _atom_site_occupancy
  Mg  Mg0  1  0.00000000  0.00000000  0.50000000  1
  Mg  Mg1  1  0.00000000  0.50000000  0.00000000  1
  Mg  Mg2  1  0.50000000  0.00000000  0.00000000  1
  Mg  Mg3  1  0.50000000  0.00000000  0.50000000  1
  Mg  Mg4  1  0.50000000  0.50000000  0.00000000  1
  Mg  Mg5  1  0.50000000  0.50000000  0.50000000  1
  Mg  Mg6  1  0.00000000  0.25160700  0.25160700  1
  Mg  Mg7  1  0.00000000  0.25160700  0.74839300  1
  Mg  Mg8  1  0.00000000  0.74839300  0.25160700  1
  Mg  Mg9  1  0.00000000  0.74839300  0.74839300  1
  Mg  Mg10  1  0.50000000  0.25081000  0.25081000  1
  Mg  Mg11  1  0.50000000  0.25081000  0.74919000  1
  Mg  Mg12  1  0.50000000  0.74919000  0.25081000  1
  Mg  Mg13  1  0.50000000  0.74919000  0.74919000  1
  Mg  Mg14  1  0.25056200  0.00000000  0.25105300  1
  Mg  Mg15  1  0.25056200  0.00000000  0.74894700  1
  Mg  Mg16  1  0.25019200  0.50000000  0.25065000  1
  Mg  Mg17  1  0.25019200  0.50000000  0.74935000  1
  Mg  Mg18  1  0.74943800  0.00000000  0.25105300  1
  Mg  Mg19  1  0.74943800  0.00000000  0.74894700  1
  Mg  Mg20  1  0.74980800  0.50000000  0.25065000  1
  Mg  Mg21  1  0.74980800  0.50000000  0.74935000  1
  Mg  Mg22  1  0.25056200  0.25105300  0.00000000  1
  Mg  Mg23  1  0.25019200  0.25065000  0.50000000  1
  Mg  Mg24  1  0.25056200  0.74894700  0.00000000  1
  Mg  Mg25  1  0.25019200  0.74935000  0.50000000  1
  Mg  Mg26  1  0.74943800  0.25105300  0.00000000  1
  Mg  Mg27  1  0.74980800  0.25065000  0.50000000  1
  Mg  Mg28  1  0.74943800  0.74894700  0.00000000  1
  Mg  Mg29  1  0.74980800  0.74935000  0.50000000  1
  Ti  Ti0  1  0.00000000  0.50000000  0.50000000  1
  Al  Al0  1  0.00000000  0.00000000  0.00000000  1
  O  O0  1  0.23549800  0.00000000  0.00000000  1
  O  O1  1  0.24944500  0.00000000  0.50000000  1
  O  O2  1  0.24944500  0.50000000  0.00000000  1
  O  O3  1  0.25883700  0.50000000  0.50000000  1
  O  O4  1  0.76450200  0.00000000  0.00000000  1
  O  O5  1  0.75055500  0.00000000  0.50000000  1
  O  O6  1  0.75055500  0.50000000  0.00000000  1
  O  O7  1  0.74116300  0.50000000  0.50000000  1
  O  O8  1  0.24971600  0.24963300  0.24963300  1
  O  O9  1  0.24971600  0.24963300  0.75036700  1
  O  O10  1  0.24971600  0.75036700  0.24963300  1
  O  O11  1  0.24971600  0.75036700  0.75036700  1
  O  O12  1  0.75028400  0.24963300  0.24963300  1
  O  O13  1  0.75028400  0.24963300  0.75036700  1
  O  O14  1  0.75028400  0.75036700  0.24963300  1
  O  O15  1  0.75028400  0.75036700  0.75036700  1
  O  O16  1  0.00000000  0.00000000  0.23296100  1
  O  O17  1  0.00000000  0.00000000  0.76703900  1
  O  O18  1  0.00000000  0.50000000  0.23705400  1
  O  O19  1  0.00000000  0.50000000  0.76294600  1
  O  O20  1  0.50000000  0.00000000  0.24735000  1
  O  O21  1  0.50000000  0.00000000  0.75265000  1
  O  O22  1  0.50000000  0.50000000  0.24809900  1
  O  O23  1  0.50000000  0.50000000  0.75190100  1
  O  O24  1  0.00000000  0.23296100  0.00000000  1
  O  O25  1  0.00000000  0.23705400  0.50000000  1
  O  O26  1  0.00000000  0.76703900  0.00000000  1
  O  O27  1  0.00000000  0.76294600  0.50000000  1
  O  O28  1  0.50000000  0.24735000  0.00000000  1
  O  O29  1  0.50000000  0.24809900  0.50000000  1
  O  O30  1  0.50000000  0.75265000  0.00000000  1
  O  O31  1  0.50000000  0.75190100  0.50000000  1
loop_
_geom_bond_atom_site_label_1
_geom_bond_atom_site_label_2
_geom_bond_distance
_geom_bond_site_symmetry_2
Mg0 O25 2.024049 1_555
Mg0 O27 2.024049 1_545
Mg0 O1 2.128241 1_555
Mg0 O5 2.128241 1_455
Mg0 O17 2.280071 1_555
Mg0 O16 2.280071 1_555
Mg1 O18 2.024049 1_555
Mg1 O19 2.024049 1_554
Mg1 O6 2.128241 1_455
Mg1 O2 2.128241 1_555
Mg1 O26 2.280071 1_555
Mg1 O24 2.280071 1_555
Mg2 O21 2.111960 1_554
Mg2 O30 2.111960 1_545
Mg2 O20 2.111960 1_555
Mg2 O28 2.111960 1_555
Mg2 O4 2.256706 1_555
Mg2 O0 2.256706 1_555
Mg3 O29 2.118355 1_555
Mg3 O31 2.118355 1_545
Mg3 O5 2.137711 1_555
Mg3 O1 2.137711 1_555
Mg3 O20 2.157213 1_555
Mg3 O21 2.157213 1_555
Mg4 O22 2.118355 1_555
Mg4 O23 2.118355 1_554
Mg4 O2 2.137711 1_555
Mg4 O6 2.137711 1_555
Mg4 O28 2.157213 1_555
Mg4 O30 2.157213 1_555
Mg5 O7 2.057580 1_555
Mg5 O3 2.057580 1_555
Mg5 O23 2.150818 1_555
Mg5 O31 2.150818 1_555
Mg5 O22 2.150818 1_555
Mg5 O29 2.150818 1_555
Mg6 O25 2.124502 1_555
Mg6 O18 2.124502 1_555
Mg6 O8 2.130686 1_555
Mg6 O12 2.130686 1_455
Mg6 O16 2.154199 1_555
Mg6 O24 2.154199 1_555
Mg7 O25 2.124502 1_555
Mg7 O19 2.124502 1_555
Mg7 O9 2.130686 1_555
Mg7 O13 2.130686 1_455
Mg7 O17 2.154199 1_555
Mg7 O24 2.154199 1_556
Mg8 O18 2.124502 1_555
Mg8 O27 2.124502 1_555
Mg8 O10 2.130686 1_555
Mg8 O14 2.130686 1_455
Mg8 O26 2.154199 1_555
Mg8 O16 2.154199 1_565
Mg9 O27 2.124502 1_555
Mg9 O19 2.124502 1_555
Mg9 O11 2.130686 1_555
Mg9 O15 2.130686 1_455
Mg9 O17 2.154199 1_565
Mg9 O26 2.154199 1_556
Mg10 O22 2.127796 1_555
Mg10 O29 2.127796 1_555
Mg10 O12 2.135446 1_555
Mg10 O8 2.135446 1_555
Mg10 O20 2.141706 1_555
Mg10 O28 2.141706 1_555
Mg11 O23 2.127796 1_555
Mg11 O29 2.127796 1_555
Mg11 O13 2.135446 1_555
Mg11 O9 2.135446 1_555
Mg11 O28 2.141706 1_556
Mg11 O21 2.141706 1_555
Mg12 O31 2.127796 1_555
Mg12 O22 2.127796 1_555
Mg12 O14 2.135446 1_555
Mg12 O10 2.135446 1_555
Mg12 O20 2.141706 1_565
Mg12 O30 2.141706 1_555
Mg13 O31 2.127796 1_555
Mg13 O23 2.127796 1_555
Mg13 O15 2.135446 1_555
Mg13 O11 2.135446 1_555
Mg13 O30 2.141706 1_556
Mg13 O21 2.141706 1_565
Mg14 O1 2.125617 1_555
Mg14 O20 2.128416 1_555
Mg14 O8 2.131500 1_555
Mg14 O10 2.131500 1_545
Mg14 O16 2.143345 1_555
Mg14 O0 2.147427 1_555
Mg15 O1 2.125617 1_555
Mg15 O21 2.128416 1_555
Mg15 O9 2.131500 1_555
Mg15 O11 2.131500 1_545
Mg15 O17 2.143345 1_555
Mg15 O0 2.147427 1_556
Mg16 O3 2.130314 1_555
Mg16 O22 2.131449 1_555
Mg16 O10 2.137742 1_555
Mg16 O8 2.137742 1_555
Mg16 O18 2.137768 1_555
Mg16 O2 2.140146 1_555
Mg17 O3 2.130314 1_555
Mg17 O23 2.131449 1_555
Mg17 O11 2.137742 1_555
Mg17 O9 2.137742 1_555
Mg17 O19 2.137768 1_555
Mg17 O2 2.140146 1_556
Mg18 O5 2.125617 1_555
Mg18 O20 2.128416 1_555
Mg18 O12 2.131500 1_555
Mg18 O14 2.131500 1_545
Mg18 O16 2.143345 1_655
Mg18 O4 2.147427 1_555
Mg19 O5 2.125617 1_555
Mg19 O21 2.128416 1_555
Mg19 O13 2.131500 1_555
Mg19 O15 2.131500 1_545
Mg19 O17 2.143345 1_655
Mg19 O4 2.147427 1_556
Mg20 O7 2.130314 1_555
Mg20 O22 2.131449 1_555
Mg20 O12 2.137742 1_555
Mg20 O14 2.137742 1_555
Mg20 O18 2.137768 1_655
Mg20 O6 2.140146 1_555
Mg21 O7 2.130314 1_555
Mg21 O23 2.131449 1_555
Mg21 O15 2.137742 1_555
Mg21 O13 2.137742 1_555
Mg21 O19 2.137768 1_655
Mg21 O6 2.140146 1_556
Mg22 O2 2.125617 1_555
Mg22 O28 2.128416 1_555
Mg22 O8 2.131500 1_555
Mg22 O9 2.131500 1_554
Mg22 O24 2.143345 1_555
Mg22 O0 2.147427 1_555
Mg23 O3 2.130314 1_555
Mg23 O29 2.131449 1_555
Mg23 O8 2.137742 1_555
Mg23 O9 2.137742 1_555
Mg23 O25 2.137768 1_555
Mg23 O1 2.140146 1_555
Mg24 O2 2.125617 1_555
Mg24 O30 2.128416 1_555
Mg24 O11 2.131500 1_554
Mg24 O10 2.131500 1_555
Mg24 O26 2.143345 1_555
Mg24 O0 2.147427 1_565
Mg25 O3 2.130314 1_555
Mg25 O31 2.131449 1_555
Mg25 O11 2.137742 1_555
Mg25 O10 2.137742 1_555
Mg25 O27 2.137768 1_555
Mg25 O1 2.140146 1_565
Mg26 O6 2.125617 1_555
Mg26 O28 2.128416 1_555
Mg26 O13 2.131500 1_554
Mg26 O12 2.131500 1_555
Mg26 O24 2.143345 1_655
Mg26 O4 2.147427 1_555
Mg27 O7 2.130314 1_555
Mg27 O29 2.131449 1_555
Mg27 O13 2.137742 1_555
Mg27 O12 2.137742 1_555
Mg27 O25 2.137768 1_655
Mg27 O5 2.140146 1_555
Mg28 O6 2.125617 1_555
Mg28 O30 2.128416 1_555
Mg28 O14 2.131500 1_555
Mg28 O15 2.131500 1_554
Mg28 O26 2.143345 1_655
Mg28 O4 2.147427 1_565
Mg29 O7 2.130314 1_555
Mg29 O31 2.131449 1_555
Mg29 O15 2.137742 1_555
Mg29 O14 2.137742 1_555
Mg29 O27 2.137768 1_655
Mg29 O5 2.140146 1_565
Al0 O24 1.989102 1_555
Al0 O16 1.989102 1_555
Al0 O17 1.989102 1_554
Al0 O26 1.989102 1_545
Al0 O0 2.009246 1_555
Al0 O4 2.009246 1_455
O3 Ti0 2.208372 1_555
O7 Ti0 2.208372 1_655
O18 Ti0 2.245124 1_555
O19 Ti0 2.245124 1_555
O25 Ti0 2.245124 1_555
O27 Ti0 2.245124 1_555
