# generated using pymatgen
data_Te15Mo2(Br6O)2
_symmetry_space_group_name_H-M   'P 1'
_cell_length_a   8.18249999
_cell_length_b   15.36593073
_cell_length_c   8.67467156
_cell_angle_alpha   85.17385399
_cell_angle_beta   103.72323276
_cell_angle_gamma   82.31041150
_symmetry_Int_Tables_number   1
_chemical_formula_structural   Te15Mo2(Br6O)2
_chemical_formula_sum   'Te15 Mo2 Br12 O2'
_cell_volume   1042.38413186
_cell_formula_units_Z   1
loop_
 _symmetry_equiv_pos_site_id
 _symmetry_equiv_pos_as_xyz
  1  'x, y, z'
loop_
 _atom_site_type_symbol
 _atom_site_label
 _atom_site_symmetry_multiplicity
 _atom_site_fract_x
 _atom_site_fract_y
 _atom_site_fract_z
 _atom_site_occupancy
  Te  Te0  1  0.69459400  0.84399800  0.62756700  1
  Te  Te1  1  0.19673400  0.84413800  0.62827700  1
  Te  Te2  1  0.30807600  0.14854000  0.38633900  1
  Te  Te3  1  0.80948900  0.14966200  0.38375300  1
  Te  Te4  1  0.94401300  0.95599100  0.73207600  1
  Te  Te5  1  0.44134600  0.96104900  0.72402700  1
  Te  Te6  1  0.05664700  0.03973100  0.26973900  1
  Te  Te7  1  0.55813300  0.03981700  0.27063100  1
  Te  Te8  1  0.79394000  0.70000300  0.87673300  1
  Te  Te9  1  0.29431000  0.70003900  0.87723900  1
  Te  Te10  1  0.20372700  0.30714900  0.12151100  1
  Te  Te11  1  0.70311800  0.30794700  0.11985200  1
  Te  Te12  1  0.07476300  0.75483600  0.05326900  1
  Te  Te13  1  0.42533600  0.23843900  0.94082800  1
  Te  Te14  1  0.92549900  0.23651300  0.94042000  1
  Mo  Mo0  1  0.54395800  0.50042000  0.50038000  1
  Mo  Mo1  1  0.04510600  0.50051000  0.49959600  1
  Br  Br0  1  0.94853300  0.66614100  0.46676200  1
  Br  Br1  1  0.45112900  0.66806800  0.47522700  1
  Br  Br2  1  0.04654700  0.33209900  0.52077300  1
  Br  Br3  1  0.54708400  0.33246800  0.52226800  1
  Br  Br4  1  0.07598000  0.49150600  0.79840400  1
  Br  Br5  1  0.57577600  0.49420900  0.80044800  1
  Br  Br6  1  0.92068900  0.50452600  0.19696600  1
  Br  Br7  1  0.42222300  0.50596000  0.19813600  1
  Br  Br8  1  0.17249000  0.10012600  0.80223800  1
  Br  Br9  1  0.67928100  0.10033500  0.80210400  1
  Br  Br10  1  0.81998400  0.91118800  0.19883800  1
  Br  Br11  1  0.32447400  0.91092100  0.20034100  1
  O  O0  1  0.25894100  0.49993600  0.49952200  1
  O  O1  1  0.75748000  0.49973600  0.49973800  1
loop_
_geom_bond_atom_site_label_1
_geom_bond_atom_site_label_2
_geom_bond_distance
_geom_bond_site_symmetry_2
Te0 Te8 2.847556 1_555
Te0 Te4 2.876281 1_555
Te0 Te5 2.882301 1_555
Te0 Te7 3.972462 1_565
Te1 Te9 2.847543 1_555
Te1 Te4 2.869435 1_455
Te1 Te5 2.889255 1_555
Te1 Te6 3.979167 1_565
Te2 Te6 2.875552 1_555
Te2 Te7 2.885615 1_555
Te2 Te5 3.780706 1_545
Te3 Te6 2.870099 1_655
Te3 Te7 2.879595 1_555
Te3 Te4 3.902573 1_545
Te10 Te13 2.823835 1_554
Te10 Te14 2.842543 1_454
Te10 Te2 3.084926 1_555
Te11 Te13 2.823607 1_554
Te11 Te14 2.834682 1_554
Te11 Te3 3.076531 1_555
Te12 Te9 2.716801 1_554
Te12 Te8 2.720432 1_454
Te12 Te4 3.835783 1_454
Te13 Te7 3.853406 1_556
Te14 Te6 3.831338 1_656
Mo0 O1 1.747102 1_555
Mo0 O0 2.331407 1_555
Mo1 O0 1.748699 1_555
Mo1 O1 2.355412 1_455
Br0 Mo1 2.532980 1_655
Br0 O1 3.197282 1_555
Br0 O0 3.294510 1_655
Br0 Br6 3.545818 1_555
Br0 Te0 3.772172 1_555
Br0 Te1 3.788084 1_655
Br0 Br10 4.122351 1_555
Br1 Mo0 2.561997 1_555
Br1 O0 3.216332 1_555
Br1 O1 3.307363 1_555
Br1 Br5 3.574031 1_555
Br1 Br7 3.596355 1_555
Br1 Te0 3.717022 1_555
Br1 Te1 3.718042 1_555
Br1 Br11 4.120760 1_555
Br2 Mo1 2.577085 1_555
Br2 O1 3.216953 1_455
Br2 O0 3.313137 1_555
Br2 Br6 3.551829 1_455
Br2 Br4 3.568363 1_555
Br2 Te3 3.735750 1_455
Br2 Te2 3.743950 1_555
Br2 Br8 4.010952 1_555
Br3 Mo0 2.567975 1_555
Br3 O0 3.207787 1_555
Br3 O1 3.296560 1_555
Br3 Br7 3.564183 1_555
Br3 Br5 3.598816 1_555
Br3 Te3 3.757966 1_555
Br3 Te2 3.761433 1_555
Br3 Br9 4.006303 1_555
Br4 Mo1 2.534039 1_555
Br4 O1 3.189570 1_455
Br4 O0 3.288942 1_555
Br4 Te10 3.668093 1_556
Br5 Mo0 2.546068 1_555
Br5 O0 3.198829 1_555
Br5 O1 3.295303 1_555
Br5 Te11 3.667691 1_556
Br6 Mo1 2.572909 1_655
Br6 O1 3.216373 1_555
Br6 O0 3.320213 1_655
Br6 Te11 3.735646 1_555
Br6 Te10 3.763512 1_655
Br6 Te8 3.769609 1_554
Br7 Mo0 2.564034 1_555
Br7 O0 3.206012 1_555
Br7 O1 3.295743 1_555
Br7 Te9 3.758104 1_554
Br7 Te10 3.769639 1_555
Br7 Te11 3.770728 1_555
Br8 Te5 3.092069 1_545
Br8 Te4 3.092850 1_445
Br8 Te14 3.217447 1_455
Br8 Te13 3.266372 1_555
Br8 Te3 4.048989 1_455
Br8 Te2 4.058170 1_555
Br9 Te4 3.089668 1_545
Br9 Te5 3.092450 1_545
Br9 Te14 3.206375 1_555
Br9 Te13 3.271878 1_555
Br9 Te3 4.058013 1_555
Br9 Te2 4.066066 1_555
Br10 Te7 2.931224 1_565
Br10 Te6 2.948313 1_665
Br10 Te12 3.483075 1_655
Br10 Br11 4.058173 1_555
Br10 Br9 4.142276 1_564
Br11 Te7 2.934873 1_565
Br11 Te6 2.957750 1_565
Br11 Te12 3.484874 1_555
Br11 Br8 4.150955 1_564
