# generated using pymatgen
data_Ba2YSn3O8
_symmetry_space_group_name_H-M   'P 1'
_cell_length_a   4.30367600
_cell_length_b   4.30367600
_cell_length_c   11.72668200
_cell_angle_alpha   90.00000000
_cell_angle_beta   90.00000000
_cell_angle_gamma   90.00000000
_symmetry_Int_Tables_number   1
_chemical_formula_structural   Ba2YSn3O8
_chemical_formula_sum   'Ba2 Y1 Sn3 O8'
_cell_volume   217.19723128
_cell_formula_units_Z   1
loop_
 _symmetry_equiv_pos_site_id
 _symmetry_equiv_pos_as_xyz
  1  'x, y, z'
loop_
 _atom_site_type_symbol
 _atom_site_label
 _atom_site_symmetry_multiplicity
 _atom_site_fract_x
 _atom_site_fract_y
 _atom_site_fract_z
 _atom_site_occupancy
  Ba  Ba0  1  0.50000000  0.50000000  0.17015500  1
  Ba  Ba1  1  0.50000000  0.50000000  0.82984500  1
  Y  Y0  1  0.50000000  0.50000000  0.50000000  1
  Sn  Sn0  1  0.00000000  0.00000000  0.36580200  1
  Sn  Sn1  1  0.00000000  0.00000000  0.00000000  1
  Sn  Sn2  1  0.00000000  0.00000000  0.63419800  1
  O  O0  1  0.00000000  0.50000000  0.37426200  1
  O  O1  1  0.50000000  0.00000000  0.37426200  1
  O  O2  1  0.50000000  0.00000000  0.00000000  1
  O  O3  1  0.00000000  0.00000000  0.18591000  1
  O  O4  1  0.00000000  0.50000000  0.62573800  1
  O  O5  1  0.50000000  0.00000000  0.62573800  1
  O  O6  1  0.00000000  0.00000000  0.81409000  1
  O  O7  1  0.00000000  0.50000000  0.00000000  1
loop_
_geom_bond_atom_site_label_1
_geom_bond_atom_site_label_2
_geom_bond_distance
_geom_bond_site_symmetry_2
Ba0 O2 2.934594 1_565
Ba0 O7 2.934594 1_655
Ba0 O7 2.934594 1_555
Ba0 O2 2.934594 1_555
Ba0 O3 3.048762 1_555
Ba0 O3 3.048762 1_655
Ba0 O3 3.048762 1_565
Ba0 O3 3.048762 1_665
Ba0 O0 3.218577 1_655
Ba0 O1 3.218577 1_555
Ba0 O0 3.218577 1_555
Ba0 O1 3.218577 1_565
Ba1 O7 2.934594 1_556
Ba1 O2 2.934594 1_566
Ba1 O7 2.934594 1_656
Ba1 O2 2.934594 1_556
Ba1 O6 3.048762 1_665
Ba1 O6 3.048762 1_555
Ba1 O6 3.048762 1_565
Ba1 O6 3.048762 1_655
Ba1 O4 3.218577 1_655
Ba1 O5 3.218577 1_555
Ba1 O4 3.218577 1_555
Ba1 O5 3.218577 1_565
O0 Sn0 2.154124 1_565
O0 Sn0 2.154124 1_555
O0 Y0 2.608549 1_455
O0 Y0 2.608549 1_555
O0 O4 2.948979 1_555
O1 Sn0 2.154124 1_555
O1 Sn0 2.154124 1_655
O1 Y0 2.608549 1_555
O1 Y0 2.608549 1_545
O1 O5 2.948979 1_555
O2 Sn1 2.151838 1_555
O2 Sn1 2.151838 1_655
O3 Sn0 2.109536 1_555
O3 Sn1 2.180107 1_555
O4 Sn2 2.154124 1_555
O4 Sn2 2.154124 1_565
O4 Y0 2.608549 1_455
O4 Y0 2.608549 1_555
O5 Sn2 2.154124 1_555
O5 Sn2 2.154124 1_655
O5 Y0 2.608549 1_555
O5 Y0 2.608549 1_545
O6 Sn2 2.109536 1_555
O6 Sn1 2.180107 1_556
O7 Sn1 2.151838 1_555
O7 Sn1 2.151838 1_565
