# generated using pymatgen
data_MgMn2(PO4)2
_symmetry_space_group_name_H-M   'P 1'
_cell_length_a   5.12241061
_cell_length_b   8.45578475
_cell_length_c   15.55314440
_cell_angle_alpha   89.49925213
_cell_angle_beta   80.49091637
_cell_angle_gamma   72.38324327
_symmetry_Int_Tables_number   1
_chemical_formula_structural   MgMn2(PO4)2
_chemical_formula_sum   'Mg4 Mn8 P8 O32'
_cell_volume   632.64255210
_cell_formula_units_Z   4
loop_
 _symmetry_equiv_pos_site_id
 _symmetry_equiv_pos_as_xyz
  1  'x, y, z'
loop_
 _atom_site_type_symbol
 _atom_site_label
 _atom_site_symmetry_multiplicity
 _atom_site_fract_x
 _atom_site_fract_y
 _atom_site_fract_z
 _atom_site_occupancy
  Mg  Mg0  1  0.47814800  0.80890600  0.84690400  1
  Mg  Mg1  1  0.13254000  0.69101200  0.65352600  1
  Mg  Mg2  1  0.86416000  0.30916600  0.34681700  1
  Mg  Mg3  1  0.51972300  0.18974200  0.15362400  1
  Mn  Mn0  1  0.23689100  0.19902900  0.96653100  1
  Mn  Mn1  1  0.40234300  0.30175800  0.53342200  1
  Mn  Mn2  1  0.76064500  0.80097900  0.03344900  1
  Mn  Mn3  1  0.49668600  0.50009700  0.00054600  1
  Mn  Mn4  1  0.59360400  0.69960400  0.46671000  1
  Mn  Mn5  1  0.51668200  0.75034300  0.25052500  1
  Mn  Mn6  1  0.47877100  0.24981700  0.75045800  1
  Mn  Mn7  1  0.99808700  0.00114700  0.50049500  1
  P  P0  1  0.06571600  0.56472900  0.86203200  1
  P  P1  1  0.77541200  0.43400300  0.61771600  1
  P  P2  1  0.92801400  0.43560800  0.13835900  1
  P  P3  1  0.17081600  0.93340800  0.11772600  1
  P  P4  1  0.50449100  0.06448300  0.36199500  1
  P  P5  1  0.49308400  0.93620500  0.63840900  1
  P  P6  1  0.21991100  0.56695700  0.38250700  1
  P  P7  1  0.82771800  0.06683100  0.88260700  1
  O  O0  1  0.70362700  0.36941400  0.10763300  1
  O  O1  1  0.68501700  0.93242700  0.91626300  1
  O  O2  1  0.81389400  0.86917500  0.60686800  1
  O  O3  1  0.82800400  0.27095800  0.56202300  1
  O  O4  1  0.18734800  0.39344000  0.06333300  1
  O  O5  1  0.67652500  0.42014500  0.71450100  1
  O  O6  1  0.66062400  0.22974400  0.93833500  1
  O  O7  1  0.86458800  0.98539500  0.10138600  1
  O  O8  1  0.16826800  0.73009500  0.43803500  1
  O  O9  1  0.53251400  0.56810000  0.58370700  1
  O  O10  1  0.82104500  0.62883200  0.14721000  1
  O  O11  1  0.58861300  0.14813400  0.27850100  1
  O  O12  1  0.31498600  0.06684500  0.08330300  1
  O  O13  1  0.04629000  0.48598700  0.60175600  1
  O  O14  1  0.28794100  0.63165800  0.89360400  1
  O  O15  1  0.17398200  0.37152500  0.85347800  1
  O  O16  1  0.98012400  0.64935900  0.77884600  1
  O  O17  1  0.33730600  0.76961400  0.06271600  1
  O  O18  1  0.40008000  0.12955200  0.64655300  1
  O  O19  1  0.40900600  0.85229000  0.72182400  1
  O  O20  1  0.94936500  0.51460200  0.39888600  1
  O  O21  1  0.34807600  0.89342600  0.56434600  1
  O  O22  1  0.13423900  0.01447500  0.89886000  1
  O  O23  1  0.18516500  0.92095700  0.21466500  1
  O  O24  1  0.46347700  0.43286800  0.41621600  1
  O  O25  1  0.18378100  0.13162400  0.39362600  1
  O  O26  1  0.01584500  0.35028800  0.22116000  1
  O  O27  1  0.64967400  0.10780300  0.43586800  1
  O  O28  1  0.80367100  0.60739800  0.93616600  1
  O  O29  1  0.81364200  0.08141200  0.78575500  1
  O  O30  1  0.31653500  0.58098100  0.28558800  1
  O  O31  1  0.59764200  0.87116800  0.35384900  1
loop_
_geom_bond_atom_site_label_1
_geom_bond_atom_site_label_2
_geom_bond_distance
_geom_bond_site_symmetry_2
Mg0 O19 2.044769 1_555
Mg0 O14 2.086677 1_555
Mg0 O1 2.108278 1_555
Mg0 O22 2.116261 1_565
Mg0 O16 2.564789 1_555
Mg0 O28 2.571941 1_555
Mg1 O16 2.045561 1_455
Mg1 O2 2.084277 1_455
Mg1 O9 2.110164 1_555
Mg1 O13 2.110595 1_555
Mg1 O21 2.582368 1_555
Mg1 O19 2.585545 1_555
Mg2 O26 2.047945 1_655
Mg2 O25 2.085972 1_655
Mg2 O24 2.111877 1_555
Mg2 O20 2.112870 1_555
Mg2 O27 2.571548 1_555
Mg2 O11 2.580589 1_555
Mg3 O11 2.039590 1_555
Mg3 O0 2.081327 1_555
Mg3 O12 2.105832 1_555
Mg3 O7 2.114035 1_545
Mg3 O26 2.572238 1_555
Mg3 O4 2.609635 1_555
Mn0 O22 2.127866 1_555
Mn0 O12 2.154467 1_556
Mn0 O4 2.167500 1_556
Mn0 O6 2.235111 1_555
Mn0 O15 2.276165 1_555
Mn0 O1 2.695934 1_545
Mn0 O6 2.989148 1_455
Mn1 O13 2.133411 1_555
Mn1 O24 2.153228 1_555
Mn1 O27 2.178904 1_555
Mn1 O3 2.234864 1_555
Mn1 O18 2.274896 1_555
Mn1 O9 2.690805 1_555
Mn1 O3 2.991726 1_455
Mn2 O7 2.132812 1_555
Mn2 O1 2.155147 1_554
Mn2 O28 2.175323 1_554
Mn2 O17 2.236039 1_555
Mn2 O10 2.282197 1_555
Mn2 O12 2.684358 1_565
Mn2 O17 2.995160 1_655
Mn3 O4 2.148524 1_555
Mn3 O28 2.150835 1_554
Mn3 O0 2.227316 1_555
Mn3 O14 2.232196 1_554
Mn3 O17 2.333821 1_555
Mn3 O6 2.340000 1_554
Mn4 O20 2.132839 1_555
Mn4 O9 2.152375 1_555
Mn4 O21 2.176838 1_555
Mn4 O8 2.234130 1_555
Mn4 O31 2.268892 1_555
Mn4 O24 2.694830 1_555
Mn4 O8 2.992349 1_655
Mn5 O30 2.022304 1_555
Mn5 O23 2.022895 1_555
Mn5 O10 2.073627 1_555
Mn5 O31 2.074523 1_555
Mn6 O29 2.022500 1_555
Mn6 O5 2.023625 1_555
Mn6 O15 2.072120 1_555
Mn6 O18 2.073723 1_555
Mn7 O27 2.147441 1_555
Mn7 O21 2.148017 1_645
Mn7 O2 2.227542 1_545
Mn7 O25 2.228351 1_655
Mn7 O3 2.332259 1_555
Mn7 O8 2.346582 1_645
O0 P2 1.561528 1_555
O1 P7 1.570339 1_565
O2 P5 1.561128 1_555
O3 P1 1.562875 1_555
O4 P2 1.569029 1_455
O5 P1 1.522230 1_555
O6 P7 1.563193 1_555
O7 P3 1.559100 1_655
O8 P6 1.563077 1_555
O9 P1 1.570540 1_555
O10 P2 1.557498 1_555
O11 P4 1.534894 1_555
O12 P3 1.571077 1_545
O13 P1 1.559999 1_455
O14 P0 1.560990 1_555
O15 P0 1.557312 1_555
O16 P0 1.536094 1_655
O17 P3 1.562767 1_555
O18 P5 1.558248 1_545
O19 P5 1.535057 1_555
O20 P6 1.560192 1_655
O21 P5 1.569113 1_555
O22 P7 1.560008 1_455
O23 P3 1.522768 1_555
O24 P6 1.570518 1_555
O25 P4 1.560918 1_555
O26 P2 1.536262 1_455
O27 P4 1.569052 1_555
O28 P0 1.569762 1_655
O29 P7 1.522090 1_555
O30 P6 1.522224 1_555
O31 P4 1.557971 1_565
