# generated using pymatgen
data_BeNF3
_symmetry_space_group_name_H-M   'P 1'
_cell_length_a   4.71989200
_cell_length_b   4.81512600
_cell_length_c   12.89482000
_cell_angle_alpha   90.00000000
_cell_angle_beta   90.00000000
_cell_angle_gamma   90.00000000
_symmetry_Int_Tables_number   1
_chemical_formula_structural   BeNF3
_chemical_formula_sum   'Be4 N4 F12'
_cell_volume   293.05895824
_cell_formula_units_Z   4
loop_
 _symmetry_equiv_pos_site_id
 _symmetry_equiv_pos_as_xyz
  1  'x, y, z'
loop_
 _atom_site_type_symbol
 _atom_site_label
 _atom_site_symmetry_multiplicity
 _atom_site_fract_x
 _atom_site_fract_y
 _atom_site_fract_z
 _atom_site_occupancy
  Be  Be0  1  0.89375000  0.75000000  0.81529300  1
  Be  Be1  1  0.39375000  0.75000000  0.68470700  1
  Be  Be2  1  0.10625000  0.25000000  0.18470700  1
  Be  Be3  1  0.60625000  0.25000000  0.31529300  1
  N  N0  1  0.02811600  0.25000000  0.89140000  1
  N  N1  1  0.52811600  0.25000000  0.60860000  1
  N  N2  1  0.97188400  0.75000000  0.10860000  1
  N  N3  1  0.47188400  0.75000000  0.39140000  1
  F  F0  1  0.20797700  0.75000000  0.78394400  1
  F  F1  1  0.70797700  0.75000000  0.71605600  1
  F  F2  1  0.79202300  0.25000000  0.21605600  1
  F  F3  1  0.29202300  0.25000000  0.28394400  1
  F  F4  1  0.80865800  0.00853700  0.88773600  1
  F  F5  1  0.30865800  0.49146300  0.61226400  1
  F  F6  1  0.19134200  0.50853700  0.11226400  1
  F  F7  1  0.69134200  0.99146300  0.38773600  1
  F  F8  1  0.19134200  0.99146300  0.11226400  1
  F  F9  1  0.69134200  0.50853700  0.38773600  1
  F  F10  1  0.80865800  0.49146300  0.88773600  1
  F  F11  1  0.30865800  0.00853700  0.61226400  1
loop_
_geom_bond_atom_site_label_1
_geom_bond_atom_site_label_2
_geom_bond_distance
_geom_bond_site_symmetry_2
Be0 F0 1.537221 1_655
Be0 F1 1.551230 1_555
Be0 F4 1.607379 1_565
Be0 F10 1.607379 1_555
Be1 F1 1.537221 1_555
Be1 F0 1.551230 1_555
Be1 F5 1.607379 1_555
Be1 F11 1.607379 1_565
Be2 F2 1.537221 1_455
Be2 F3 1.551230 1_555
Be2 F6 1.607379 1_555
Be2 F8 1.607379 1_545
Be3 F3 1.537221 1_555
Be3 F2 1.551230 1_555
Be3 F7 1.607379 1_545
Be3 F9 1.607379 1_555
F4 N0 1.557872 1_655
F5 N1 1.557872 1_555
F6 N2 1.557872 1_455
F7 N3 1.557872 1_555
F8 N2 1.557872 1_455
F9 N3 1.557872 1_555
F10 N0 1.557872 1_655
F11 N1 1.557872 1_555
