# generated using pymatgen
data_H5C2S2N3
_symmetry_space_group_name_H-M   'P 1'
_cell_length_a   4.73365600
_cell_length_b   10.49833300
_cell_length_c   13.29444611
_cell_angle_alpha   90.00000000
_cell_angle_beta   95.27761986
_cell_angle_gamma   90.00000000
_symmetry_Int_Tables_number   1
_chemical_formula_structural   H5C2S2N3
_chemical_formula_sum   'H20 C8 S8 N12'
_cell_volume   657.87331273
_cell_formula_units_Z   4
loop_
 _symmetry_equiv_pos_site_id
 _symmetry_equiv_pos_as_xyz
  1  'x, y, z'
loop_
 _atom_site_type_symbol
 _atom_site_label
 _atom_site_symmetry_multiplicity
 _atom_site_fract_x
 _atom_site_fract_y
 _atom_site_fract_z
 _atom_site_occupancy
  H  H0  1  0.83492300  0.17894200  0.10969100  1
  H  H1  1  0.16507700  0.67894200  0.89030900  1
  H  H2  1  0.78668200  0.29740900  0.01891200  1
  H  H3  1  0.21331800  0.79740900  0.98108800  1
  H  H4  1  0.40214800  0.49810800  0.17856700  1
  H  H5  1  0.59785200  0.99810800  0.82143300  1
  H  H6  1  0.55622500  0.48615900  0.05934000  1
  H  H7  1  0.44377500  0.98615900  0.94066000  1
  H  H8  1  0.57204800  0.17688300  0.23909500  1
  H  H9  1  0.42795200  0.67688300  0.76090400  1
  H  H10  1  0.04046000  0.02255200  0.44901600  1
  H  H11  1  0.95954000  0.52255200  0.55098400  1
  H  H12  1  0.86718100  0.89681900  0.50364100  1
  H  H13  1  0.13281900  0.39681900  0.49635900  1
  H  H14  1  0.83673800  0.71486400  0.27338900  1
  H  H15  1  0.16326200  0.21486500  0.72661100  1
  H  H16  1  0.73122200  0.72054300  0.40061700  1
  H  H17  1  0.26877800  0.22054300  0.59938300  1
  H  H18  1  0.18441500  0.01573500  0.30258000  1
  H  H19  1  0.81558500  0.51573500  0.69742000  1
  C  C0  1  0.59617200  0.33165100  0.15040200  1
  C  C1  1  0.40382800  0.83165100  0.84959800  1
  C  C2  1  0.41284700  0.31610000  0.32342700  1
  C  C3  1  0.58715300  0.81610000  0.67657300  1
  C  C4  1  0.95797700  0.87064900  0.35600500  1
  C  C5  1  0.04202300  0.37064900  0.64399500  1
  C  C6  1  0.10706300  0.89837100  0.17924900  1
  C  C7  1  0.89293700  0.39837100  0.82075100  1
  S  S0  1  0.37631400  0.19680300  0.40911600  1
  S  S1  1  0.62368600  0.69680300  0.59088400  1
  S  S2  1  0.31246700  0.46816300  0.33668800  1
  S  S3  1  0.68753300  0.96816300  0.66331200  1
  S  S4  1  0.25335800  0.01648400  0.11272600  1
  S  S5  1  0.74664200  0.51648400  0.88727400  1
  S  S6  1  0.99577500  0.75727200  0.13052300  1
  S  S7  1  0.00422500  0.25727200  0.86947700  1
  N  N0  1  0.73922200  0.26292500  0.08783800  1
  N  N1  1  0.26077800  0.76292500  0.91216200  1
  N  N2  1  0.54341500  0.27359400  0.23937200  1
  N  N3  1  0.45658500  0.77359400  0.76062800  1
  N  N4  1  0.50483800  0.44795000  0.12608100  1
  N  N5  1  0.49516200  0.94795000  0.87391900  1
  N  N6  1  0.96927400  0.93113600  0.44439500  1
  N  N7  1  0.03072600  0.43113600  0.55560500  1
  N  N8  1  0.08759700  0.93049100  0.28076300  1
  N  N9  1  0.91240300  0.43049100  0.71923700  1
  N  N10  1  0.82825700  0.75929600  0.34238600  1
  N  N11  1  0.17174300  0.25929600  0.65761400  1
loop_
_geom_bond_atom_site_label_1
_geom_bond_atom_site_label_2
_geom_bond_distance
_geom_bond_site_symmetry_2
H0 N0 1.021165 1_555
H1 N1 1.021165 1_555
H2 N0 1.029112 1_555
H3 N1 1.029112 1_555
H4 N4 1.030950 1_555
H4 S2 2.205033 1_555
H5 N5 1.030950 1_555
H5 S3 2.205033 1_555
H6 N4 1.023257 1_555
H7 N5 1.023257 1_555
H8 N2 1.024363 1_555
H9 N3 1.024362 1_555
H10 N6 1.017137 1_445
H11 N7 1.017137 1_655
H12 N6 1.026525 1_555
H13 N7 1.026525 1_555
H14 N10 1.033136 1_555
H14 S6 2.153007 1_555
H15 N11 1.033131 1_555
H15 S7 2.153004 1_555
H16 N10 1.020405 1_555
H17 N11 1.020405 1_555
H18 N8 1.034696 1_545
H19 N9 1.034696 1_555
C0 N4 1.325314 1_555
C0 N0 1.332116 1_555
C0 N2 1.373765 1_555
C1 N5 1.325314 1_555
C1 N1 1.332116 1_555
C1 N3 1.373765 1_555
C2 N2 1.398899 1_555
C2 S2 1.679521 1_555
C2 S0 1.712440 1_555
C3 N3 1.398899 1_555
C3 S3 1.679521 1_555
C3 S1 1.712440 1_555
C4 N10 1.325140 1_555
C4 N6 1.332438 1_555
C4 N8 1.372834 1_655
C5 N11 1.325140 1_555
C5 N7 1.332438 1_555
C5 N9 1.372834 1_455
C6 N8 1.402292 1_555
C6 S6 1.681852 1_455
C6 S4 1.706444 1_565
C7 N9 1.402292 1_555
C7 S7 1.681852 1_655
C7 S5 1.706444 1_555
