# generated using pymatgen
data_LaTl(SO5)2
_symmetry_space_group_name_H-M   'P 1'
_cell_length_a   7.34430052
_cell_length_b   11.28753279
_cell_length_c   11.90318500
_cell_angle_alpha   90.00000000
_cell_angle_beta   90.00000000
_cell_angle_gamma   91.70753719
_symmetry_Int_Tables_number   1
_chemical_formula_structural   LaTl(SO5)2
_chemical_formula_sum   'La4 Tl4 S8 O40'
_cell_volume   986.32435211
_cell_formula_units_Z   4
loop_
 _symmetry_equiv_pos_site_id
 _symmetry_equiv_pos_as_xyz
  1  'x, y, z'
loop_
 _atom_site_type_symbol
 _atom_site_label
 _atom_site_symmetry_multiplicity
 _atom_site_fract_x
 _atom_site_fract_y
 _atom_site_fract_z
 _atom_site_occupancy
  La  La0  1  0.25030900  0.83675800  0.08159700  1
  La  La1  1  0.75030900  0.33675800  0.41840300  1
  La  La2  1  0.74969100  0.16324200  0.91840300  1
  La  La3  1  0.24969100  0.66324200  0.58159700  1
  Tl  Tl0  1  0.75061800  0.82221500  0.37052000  1
  Tl  Tl1  1  0.25061800  0.32221500  0.12948000  1
  Tl  Tl2  1  0.24938200  0.17778500  0.62948000  1
  Tl  Tl3  1  0.74938200  0.67778500  0.87052000  1
  S  S0  1  0.75350700  0.92856300  0.05912200  1
  S  S1  1  0.25350700  0.42856300  0.44087800  1
  S  S2  1  0.24649300  0.07143700  0.94087800  1
  S  S3  1  0.74649300  0.57143700  0.55912200  1
  S  S4  1  0.24828500  0.88114400  0.40797700  1
  S  S5  1  0.74828500  0.38114400  0.09202300  1
  S  S6  1  0.75171500  0.11885600  0.59202300  1
  S  S7  1  0.25171500  0.61885600  0.90797700  1
  O  O0  1  0.91449500  0.86343000  0.09778400  1
  O  O1  1  0.41449500  0.36343000  0.40221600  1
  O  O2  1  0.08550500  0.13657000  0.90221600  1
  O  O3  1  0.58550500  0.63657000  0.59778400  1
  O  O4  1  0.58664100  0.87241600  0.10907900  1
  O  O5  1  0.08664100  0.37241600  0.39092100  1
  O  O6  1  0.41335900  0.12758400  0.89092100  1
  O  O7  1  0.91335900  0.62758400  0.60907900  1
  O  O8  1  0.77122700  0.05596400  0.09389800  1
  O  O9  1  0.27122700  0.55596400  0.40610200  1
  O  O10  1  0.22877300  0.94403600  0.90610200  1
  O  O11  1  0.72877300  0.44403600  0.59389800  1
  O  O12  1  0.74108900  0.93104500  0.93326800  1
  O  O13  1  0.24108900  0.43104500  0.56673200  1
  O  O14  1  0.25891100  0.06895500  0.06673200  1
  O  O15  1  0.75891100  0.56895500  0.43326800  1
  O  O16  1  0.24762200  0.85759000  0.28353300  1
  O  O17  1  0.74762200  0.35759000  0.21646700  1
  O  O18  1  0.75237800  0.14241000  0.71646700  1
  O  O19  1  0.25237800  0.64241000  0.78353300  1
  O  O20  1  0.41022700  0.82204800  0.46017300  1
  O  O21  1  0.91022700  0.32204800  0.03982700  1
  O  O22  1  0.58977300  0.17795200  0.53982700  1
  O  O23  1  0.08977300  0.67795200  0.96017300  1
  O  O24  1  0.24452500  0.00718200  0.43058600  1
  O  O25  1  0.74452500  0.50718200  0.06941400  1
  O  O26  1  0.75547500  0.99281800  0.56941400  1
  O  O27  1  0.25547500  0.49281800  0.93058600  1
  O  O28  1  0.08901800  0.81282700  0.46123400  1
  O  O29  1  0.58901800  0.31282700  0.03876600  1
  O  O30  1  0.91098200  0.18717300  0.53876600  1
  O  O31  1  0.41098200  0.68717300  0.96123400  1
  O  O32  1  0.08073400  0.61220300  0.20823300  1
  O  O33  1  0.58073400  0.11220300  0.29176700  1
  O  O34  1  0.91926600  0.38779700  0.79176700  1
  O  O35  1  0.41926600  0.88779700  0.70823300  1
  O  O36  1  0.24086700  0.59429300  0.18300700  1
  O  O37  1  0.74086700  0.09429300  0.31699300  1
  O  O38  1  0.75913300  0.40570700  0.81699300  1
  O  O39  1  0.25913300  0.90570700  0.68300700  1
loop_
_geom_bond_atom_site_label_1
_geom_bond_atom_site_label_2
_geom_bond_distance
_geom_bond_site_symmetry_2
La0 O16 2.415294 1_555
La0 O10 2.422071 1_554
La0 O0 2.500948 1_455
La0 O4 2.512224 1_555
La0 O31 2.532725 1_554
La0 O23 2.562477 1_554
La0 O14 2.625778 1_565
La0 O36 2.990124 1_555
La1 O17 2.415294 1_555
La1 O11 2.422071 1_555
La1 O1 2.500948 1_555
La1 O5 2.512224 1_655
La1 O30 2.532725 1_555
La1 O22 2.562477 1_555
La1 O15 2.625778 1_555
La1 O37 2.990124 1_555
La2 O18 2.415294 1_555
La2 O8 2.422071 1_556
La2 O2 2.500948 1_655
La2 O6 2.512224 1_555
La2 O29 2.532725 1_556
La2 O21 2.562477 1_556
La2 O12 2.625778 1_545
La2 O38 2.990124 1_555
La3 O19 2.415294 1_555
La3 O9 2.422071 1_555
La3 O3 2.500948 1_555
La3 O7 2.512224 1_455
La3 O28 2.532725 1_555
La3 O20 2.562477 1_555
La3 O13 2.625778 1_555
La3 O39 2.990124 1_555
O0 S0 1.483924 1_555
O0 Tl0 3.488683 1_555
O1 S1 1.483924 1_555
O1 Tl1 3.488683 1_555
O2 S2 1.483924 1_555
O2 Tl2 3.488683 1_555
O3 S3 1.483924 1_555
O3 Tl3 3.488683 1_555
O4 S0 1.486895 1_555
O4 Tl0 3.390650 1_555
O5 S1 1.486895 1_555
O5 Tl1 3.390650 1_555
O6 S2 1.486895 1_555
O6 Tl2 3.390650 1_555
O7 S3 1.486895 1_555
O7 Tl3 3.390650 1_555
O8 S0 1.498366 1_545
O9 S1 1.498366 1_555
O10 S2 1.498366 1_565
O11 S3 1.498366 1_555
O12 S0 1.501149 1_556
O12 Tl3 2.957026 1_555
O13 S1 1.501149 1_555
O13 Tl2 2.957026 1_555
O14 S2 1.501149 1_554
O14 Tl1 2.957026 1_555
O15 S3 1.501149 1_555
O15 Tl0 2.957026 1_555
O16 S4 1.504933 1_555
O17 S5 1.504933 1_555
O18 S6 1.504933 1_555
O19 S7 1.504933 1_555
O20 S4 1.514200 1_555
O20 Tl0 2.718127 1_555
O21 S5 1.514200 1_555
O21 Tl1 2.718127 1_655
O22 S6 1.514200 1_555
O22 Tl2 2.718127 1_555
O23 S7 1.514200 1_555
O23 Tl3 2.718127 1_455
O24 S4 1.448960 1_545
O24 Tl2 3.051290 1_555
O25 S5 1.448960 1_555
O25 Tl3 3.051290 1_554
O26 S6 1.448960 1_565
O26 Tl0 3.051290 1_555
O27 S7 1.448960 1_555
O27 Tl1 3.051290 1_556
O28 S4 1.520185 1_555
O28 Tl0 2.714707 1_455
O29 S5 1.520185 1_555
O29 Tl1 2.714707 1_555
O30 S6 1.520185 1_555
O30 Tl2 2.714707 1_655
O31 S7 1.520185 1_555
O31 Tl3 2.714707 1_555
O32 O36 1.236256 1_555
O33 O37 1.236256 1_555
O34 O38 1.236256 1_555
O35 O39 1.236256 1_555
O36 Tl1 3.139391 1_555
O37 Tl0 3.139391 1_545
O38 Tl3 3.139391 1_555
O39 Tl2 3.139391 1_565
