# generated using pymatgen
data_Li7V3P8O29
_symmetry_space_group_name_H-M   'P 1'
_cell_length_a   9.84365400
_cell_length_b   9.84734597
_cell_length_c   13.90043474
_cell_angle_alpha   89.85281157
_cell_angle_beta   89.73276998
_cell_angle_gamma   60.08368398
_symmetry_Int_Tables_number   1
_chemical_formula_structural   Li7V3P8O29
_chemical_formula_sum   'Li14 V6 P16 O58'
_cell_volume   1167.87245230
_cell_formula_units_Z   2
loop_
 _symmetry_equiv_pos_site_id
 _symmetry_equiv_pos_as_xyz
  1  'x, y, z'
loop_
 _atom_site_type_symbol
 _atom_site_label
 _atom_site_symmetry_multiplicity
 _atom_site_fract_x
 _atom_site_fract_y
 _atom_site_fract_z
 _atom_site_occupancy
  Li  Li0  1  0.31379500  0.77408300  0.93913300  1
  Li  Li1  1  0.33468900  0.90078700  0.43648300  1
  Li  Li2  1  0.76296200  0.33922900  0.43764600  1
  Li  Li3  1  0.66393500  0.66836100  0.11634100  1
  Li  Li4  1  0.90958000  0.31716000  0.93634200  1
  Li  Li5  1  0.77456900  0.91141800  0.93960400  1
  Li  Li6  1  0.89749300  0.76615300  0.44040400  1
  Li  Li7  1  0.22790400  0.09728400  0.06254500  1
  Li  Li8  1  0.09537900  0.67622200  0.06008500  1
  Li  Li9  1  0.33268900  0.33009500  0.38444300  1
  Li  Li10  1  0.23266600  0.67348700  0.56232000  1
  Li  Li11  1  0.67277800  0.09584800  0.56195300  1
  Li  Li12  1  0.67766400  0.22710900  0.06382400  1
  Li  Li13  1  0.01421400  0.03733000  0.50268600  1
  V  V0  1  0.00340800  0.42930100  0.74566600  1
  V  V1  1  0.99837700  0.56566600  0.25179300  1
  V  V2  1  0.43310400  0.99846100  0.25019900  1
  V  V3  1  0.56589600  0.00019700  0.74926900  1
  V  V4  1  0.43310800  0.56520900  0.75116600  1
  V  V5  1  0.56796100  0.43206000  0.24925300  1
  P  P0  1  0.32199000  0.76699900  0.15653600  1
  P  P1  1  0.31586100  0.91077600  0.65601500  1
  P  P2  1  0.77274100  0.31530000  0.65850800  1
  P  P3  1  0.66785100  0.66525200  0.87149400  1
  P  P4  1  0.66906200  0.66521900  0.37680100  1
  P  P5  1  0.91258700  0.32084800  0.15368400  1
  P  P6  1  0.08498400  0.22396700  0.34219800  1
  P  P7  1  0.76986500  0.90779100  0.15744800  1
  P  P8  1  0.23114000  0.08747100  0.83996500  1
  P  P9  1  0.91295900  0.77138400  0.65845600  1
  P  P10  1  0.08687200  0.67880600  0.84217900  1
  P  P11  1  0.33487600  0.33409200  0.62689900  1
  P  P12  1  0.33037500  0.33400500  0.12525400  1
  P  P13  1  0.22709200  0.68099500  0.34402300  1
  P  P14  1  0.68129600  0.08970200  0.34456400  1
  P  P15  1  0.67870200  0.23131900  0.84228600  1
  O  O0  1  0.22846300  0.77301900  0.43127800  1
  O  O1  1  0.34046300  0.74173100  0.66412500  1
  O  O2  1  0.24496300  0.99838000  0.93079700  1
  O  O3  1  0.32664900  0.92014200  0.15465800  1
  O  O4  1  0.49007200  0.62879000  0.17324600  1
  O  O5  1  0.51370100  0.67125800  0.83397800  1
  O  O6  1  0.61876900  0.46928700  0.66864200  1
  O  O7  1  0.75466400  0.24484400  0.93249600  1
  O  O8  1  0.75350300  0.32838200  0.15311800  1
  O  O9  1  0.51678700  0.81034200  0.33851100  1
  O  O10  1  0.47046100  0.90980500  0.66771500  1
  O  O11  1  0.67611200  0.51322000  0.33929300  1
  O  O12  1  0.66554500  0.66852000  0.98007300  1
  O  O13  1  0.68532900  0.66765500  0.48384400  1
  O  O14  1  0.81466900  0.51321200  0.83387600  1
  O  O15  1  0.63059500  0.87937100  0.17094400  1
  O  O16  1  0.67157400  0.81431300  0.83248200  1
  O  O17  1  0.91506300  0.34043700  0.66428300  1
  O  O18  1  0.00956200  0.21042900  0.24208600  1
  O  O19  1  0.98588900  0.21867800  0.42326500  1
  O  O20  1  0.00495500  0.24988400  0.06277200  1
  O  O21  1  0.88557500  0.48840300  0.17261100  1
  O  O22  1  0.81662800  0.67034200  0.32897800  1
  O  O23  1  0.08392800  0.25103100  0.83969400  1
  O  O24  1  0.90434900  0.62252200  0.67107800  1
  O  O25  1  0.74615300  0.91907600  0.66186000  1
  O  O26  1  0.20875200  0.99905300  0.74919200  1
  O  O27  1  0.22598400  0.98359300  0.56547500  1
  O  O28  1  0.76878200  0.99649400  0.43288500  1
  O  O29  1  0.24984500  0.08026500  0.34507400  1
  O  O30  1  0.09779200  0.37498500  0.33564900  1
  O  O31  1  0.92343300  0.74820400  0.15721900  1
  O  O32  1  0.19442800  0.32415600  0.67034500  1
  O  O33  1  0.09441800  0.52162400  0.82295400  1
  O  O34  1  0.99789300  0.75797400  0.93240900  1
  O  O35  1  0.99852000  0.77692800  0.56923800  1
  O  O36  1  0.99962700  0.79184400  0.75134100  1
  O  O37  1  0.07586100  0.67014900  0.34464400  1
  O  O38  1  0.32764400  0.18590300  0.16267700  1
  O  O39  1  0.38088500  0.09838100  0.82075800  1
  O  O40  1  0.18047800  0.48096100  0.17545100  1
  O  O41  1  0.31367300  0.35352400  0.01854500  1
  O  O42  1  0.33678400  0.33862500  0.51858200  1
  O  O43  1  0.32419400  0.48933600  0.66630600  1
  O  O44  1  0.51572000  0.11210900  0.33373700  1
  O  O45  1  0.49114000  0.18883200  0.66396900  1
  O  O46  1  0.25187900  0.66176800  0.84235100  1
  O  O47  1  0.21554400  0.78051500  0.24888100  1
  O  O48  1  0.24683300  0.74629100  0.06767400  1
  O  O49  1  0.36993400  0.51622400  0.33527200  1
  O  O50  1  0.48081400  0.33211800  0.16328300  1
  O  O51  1  0.51873100  0.37919100  0.82302600  1
  O  O52  1  0.66239100  0.08327200  0.84234700  1
  O  O53  1  0.75591200  0.00198600  0.06848300  1
  O  O54  1  0.78246300  0.99923400  0.25017800  1
  O  O55  1  0.67186100  0.25001600  0.34411100  1
  O  O56  1  0.78327700  0.22151300  0.56949500  1
  O  O57  1  0.79074600  0.20780600  0.75138000  1
loop_
_geom_bond_atom_site_label_1
_geom_bond_atom_site_label_2
_geom_bond_distance
_geom_bond_site_symmetry_2
Li0 O2 1.964093 1_555
Li0 O48 1.966821 1_556
Li0 O46 2.022931 1_555
Li0 O5 2.242186 1_555
Li1 O29 1.990394 1_565
Li1 O0 1.998771 1_555
Li1 O27 2.035734 1_555
Li1 O9 2.062037 1_555
Li2 O19 1.913991 1_555
Li2 O55 2.017177 1_555
Li2 O11 2.018254 1_555
Li2 O56 2.122262 1_555
Li3 O12 1.894180 1_554
Li3 O15 2.080141 1_555
Li3 O4 2.087482 1_555
Li3 O21 2.159741 1_555
Li4 O20 1.948818 1_656
Li4 O7 1.979789 1_555
Li4 O23 2.010609 1_655
Li4 O14 2.197247 1_555
Li5 O34 1.952237 1_555
Li5 O53 1.969841 1_566
Li5 O52 2.012239 1_565
Li5 O16 2.268902 1_555
Li6 O28 1.973468 1_555
Li6 O37 2.019250 1_655
Li6 O35 2.080918 1_555
Li6 O22 2.165852 1_555
Li7 O20 1.945499 1_555
Li7 O3 1.983931 1_545
Li7 O2 2.042984 1_544
Li7 O38 2.129885 1_555
Li8 O48 1.933341 1_555
Li8 O34 1.989138 1_454
Li8 O31 1.994291 1_455
Li8 O40 2.315297 1_555
Li9 O42 1.868224 1_555
Li9 O44 2.118713 1_555
Li9 O49 2.150007 1_555
Li9 O30 2.235055 1_555
Li10 O35 2.003943 1_455
Li10 O0 2.057049 1_555
Li10 O1 2.076143 1_555
Li10 O43 2.135061 1_555
Li11 O56 2.017367 1_555
Li11 O28 2.034710 1_545
Li11 O25 2.055066 1_545
Li11 O45 2.096713 1_555
Li12 O53 1.951532 1_555
Li12 O8 1.962171 1_555
Li12 O7 2.013705 1_554
Li12 O50 2.172355 1_555
Li13 O19 1.995415 1_455
Li13 O27 2.074030 1_545
Li13 O56 2.279489 1_455
Li13 O0 2.593436 1_545
O0 P13 1.520016 1_555
O1 P1 1.561914 1_555
O1 V4 1.932720 1_555
O2 P8 1.503062 1_565
O3 P0 1.531594 1_555
O3 V2 2.069067 1_555
O4 P0 1.549064 1_555
O4 V5 1.993134 1_555
O5 P3 1.579764 1_555
O5 V4 1.971318 1_555
O6 P2 1.524152 1_555
O6 V4 1.952500 1_555
O7 P15 1.502735 1_555
O8 P5 1.530375 1_555
O8 V5 2.070785 1_555
O9 P4 1.561803 1_555
O9 V2 2.023066 1_555
O10 P1 1.526529 1_555
O10 V3 1.951713 1_565
O11 P4 1.554697 1_555
O11 V5 2.050575 1_555
O12 P3 1.509544 1_555
O13 P4 1.498810 1_555
O14 P3 1.562805 1_555
O14 V0 2.022531 1_655
O15 P7 1.540449 1_555
O15 V2 2.020113 1_555
O16 P3 1.580948 1_555
O16 V3 1.967662 1_565
O17 P2 1.541911 1_555
O17 V0 1.890795 1_655
O18 P5 1.603838 1_455
O18 P6 1.617046 1_555
O19 P6 1.504718 1_655
O20 P5 1.507339 1_455
O21 P5 1.557656 1_555
O21 V1 1.970195 1_555
O22 P4 1.618141 1_555
O22 V1 1.887517 1_555
O23 P8 1.538182 1_555
O23 V0 2.007055 1_555
O24 P9 1.519632 1_555
O24 V0 1.948015 1_655
O25 P9 1.559218 1_555
O25 V3 1.958033 1_565
O26 P8 1.611952 1_565
O26 P1 1.619781 1_555
O27 P1 1.501264 1_555
O28 P14 1.518871 1_565
O29 P6 1.532100 1_555
O29 V2 2.043558 1_545
O30 P6 1.556260 1_555
O30 V1 2.002162 1_455
O31 P7 1.544405 1_555
O31 V1 2.043946 1_555
O32 P11 1.553220 1_555
O32 V0 1.936271 1_555
O33 P10 1.536214 1_555
O33 V0 1.899926 1_555
O34 P10 1.503900 1_655
O35 P9 1.511995 1_555
O36 P9 1.618188 1_555
O36 P10 1.618744 1_655
O37 P13 1.544693 1_555
O37 V1 2.026066 1_455
O38 P12 1.559926 1_555
O38 V2 2.013384 1_545
O39 P8 1.552339 1_555
O39 V3 1.862983 1_555
O40 P12 1.619861 1_555
O40 V1 1.878953 1_455
O41 P12 1.494472 1_555
O42 P11 1.506507 1_555
O43 P11 1.578477 1_555
O43 V4 1.978487 1_555
O44 P14 1.539876 1_555
O44 V2 2.045861 1_545
O45 P11 1.576898 1_555
O45 V3 2.007804 1_555
O46 P10 1.547456 1_555
O46 V4 1.996576 1_555
O47 P13 1.614313 1_555
O47 P0 1.616348 1_555
O48 P0 1.508305 1_555
O49 P13 1.532418 1_555
O49 V5 2.070814 1_555
O50 P12 1.566066 1_555
O50 V5 1.997568 1_555
O51 P15 1.544816 1_555
O51 V4 1.876710 1_555
O52 P15 1.544228 1_555
O52 V3 2.009340 1_555
O53 P7 1.509031 1_545
O54 P7 1.614483 1_555
O54 P14 1.617288 1_565
O55 P14 1.534459 1_555
O55 V5 2.042027 1_555
O56 P2 1.517827 1_555
O57 P15 1.612636 1_555
O57 P2 1.620636 1_555
