# generated using pymatgen
data_Nd2ZnPtO6
_symmetry_space_group_name_H-M   'P 1'
_cell_length_a   5.84690800
_cell_length_b   5.50626000
_cell_length_c   9.60274491
_cell_angle_alpha   55.28679087
_cell_angle_beta   90.00000000
_cell_angle_gamma   90.00000000
_symmetry_Int_Tables_number   1
_chemical_formula_structural   Nd2ZnPtO6
_chemical_formula_sum   'Nd4 Zn2 Pt2 O12'
_cell_volume   254.13058409
_cell_formula_units_Z   2
loop_
 _symmetry_equiv_pos_site_id
 _symmetry_equiv_pos_as_xyz
  1  'x, y, z'
loop_
 _atom_site_type_symbol
 _atom_site_label
 _atom_site_symmetry_multiplicity
 _atom_site_fract_x
 _atom_site_fract_y
 _atom_site_fract_z
 _atom_site_occupancy
  Nd  Nd0  1  0.43107500  0.23227200  0.74900100  1
  Nd  Nd1  1  0.56892500  0.76772800  0.25099900  1
  Nd  Nd2  1  0.93107500  0.76772800  0.75099900  1
  Nd  Nd3  1  0.06892500  0.23227200  0.24900100  1
  Zn  Zn0  1  0.00000000  0.50000000  0.50000000  1
  Zn  Zn1  1  0.50000000  0.50000000  0.00000000  1
  Pt  Pt0  1  0.00000000  0.00000000  0.00000000  1
  Pt  Pt1  1  0.50000000  0.00000000  0.50000000  1
  O  O0  1  0.03505900  0.35524900  0.75240100  1
  O  O1  1  0.96494100  0.64475100  0.24759900  1
  O  O2  1  0.53505900  0.64475100  0.74759900  1
  O  O3  1  0.46494100  0.35524900  0.25240100  1
  O  O4  1  0.70462100  0.86702700  0.94420900  1
  O  O5  1  0.29537900  0.13297300  0.05579100  1
  O  O6  1  0.20462100  0.13297300  0.55579100  1
  O  O7  1  0.79537900  0.86702700  0.44420900  1
  O  O8  1  0.19506900  0.75167300  0.94680900  1
  O  O9  1  0.80493100  0.24832700  0.05319100  1
  O  O10  1  0.69506900  0.24832700  0.55319100  1
  O  O11  1  0.30493100  0.75167300  0.44680900  1
loop_
_geom_bond_atom_site_label_1
_geom_bond_atom_site_label_2
_geom_bond_distance
_geom_bond_site_symmetry_2
Nd0 O2 2.343806 1_555
Nd0 O10 2.395123 1_555
Nd0 O4 2.413065 1_545
Nd0 O0 2.417885 1_555
Nd0 O6 2.578715 1_555
Nd0 O8 2.605784 1_545
Nd0 O11 2.773426 1_555
Nd0 O5 2.787996 1_556
Nd1 O3 2.343806 1_555
Nd1 O11 2.395123 1_555
Nd1 O5 2.413065 1_565
Nd1 O1 2.417885 1_555
Nd1 O7 2.578715 1_555
Nd1 O9 2.605784 1_565
Nd1 O10 2.773426 1_555
Nd1 O4 2.787996 1_554
Nd2 O0 2.343806 1_655
Nd2 O8 2.395123 1_655
Nd2 O6 2.413065 1_665
Nd2 O2 2.417885 1_555
Nd2 O4 2.578715 1_555
Nd2 O10 2.605784 1_565
Nd2 O9 2.773426 1_556
Nd2 O7 2.787996 1_555
Nd3 O1 2.343806 1_455
Nd3 O9 2.395123 1_455
Nd3 O7 2.413065 1_445
Nd3 O3 2.417885 1_555
Nd3 O5 2.578715 1_555
Nd3 O11 2.605784 1_545
Nd3 O8 2.773426 1_554
Nd3 O6 2.787996 1_555
O0 Pt0 2.055334 1_556
O0 Zn0 2.086049 1_555
O1 Pt0 2.055334 1_665
O1 Zn0 2.086049 1_655
O2 Pt1 2.055334 1_565
O2 Zn1 2.086049 1_556
O3 Pt1 2.055334 1_555
O3 Zn1 2.086049 1_555
O4 Pt0 2.062183 1_666
O4 Zn1 2.137633 1_556
O5 Pt0 2.062183 1_555
O5 Zn1 2.137633 1_555
O6 Pt1 2.062183 1_555
O6 Zn0 2.137633 1_555
O7 Pt1 2.062183 1_565
O7 Zn0 2.137633 1_655
O8 Pt0 2.055932 1_566
O8 Zn1 2.133975 1_556
O9 Pt0 2.055932 1_655
O9 Zn1 2.133975 1_555
O10 Pt1 2.055932 1_555
O10 Zn0 2.133975 1_655
O11 Pt1 2.055932 1_565
O11 Zn0 2.133975 1_555
