# generated using pymatgen
data_Mg14CdSi
_symmetry_space_group_name_H-M   'P 1'
_cell_length_a   6.27168807
_cell_length_b   6.27168758
_cell_length_c   10.34358105
_cell_angle_alpha   90.00000000
_cell_angle_beta   90.00000000
_cell_angle_gamma   120.00000261
_symmetry_Int_Tables_number   1
_chemical_formula_structural   Mg14CdSi
_chemical_formula_sum   'Mg14 Cd1 Si1'
_cell_volume   352.34686246
_cell_formula_units_Z   1
loop_
 _symmetry_equiv_pos_site_id
 _symmetry_equiv_pos_as_xyz
  1  'x, y, z'
loop_
 _atom_site_type_symbol
 _atom_site_label
 _atom_site_symmetry_multiplicity
 _atom_site_fract_x
 _atom_site_fract_y
 _atom_site_fract_z
 _atom_site_occupancy
  Mg  Mg0  1  0.16564534  0.83282217  0.12500000  1
  Mg  Mg1  1  0.16689653  0.83344776  0.62500000  1
  Mg  Mg2  1  0.66717783  0.33435466  0.12500000  1
  Mg  Mg3  1  0.66655224  0.33310347  0.62500000  1
  Mg  Mg4  1  0.66717783  0.83282217  0.12500000  1
  Mg  Mg5  1  0.66655224  0.83344776  0.62500000  1
  Mg  Mg6  1  0.33197544  0.16802456  0.37382482  1
  Mg  Mg7  1  0.33197544  0.16802456  0.87617518  1
  Mg  Mg8  1  0.33197544  0.66395187  0.37382482  1
  Mg  Mg9  1  0.33197544  0.66395187  0.87617518  1
  Mg  Mg10  1  0.83604813  0.16802456  0.37382482  1
  Mg  Mg11  1  0.83604813  0.16802456  0.87617518  1
  Mg  Mg12  1  0.83333300  0.66666700  0.37620402  1
  Mg  Mg13  1  0.83333300  0.66666700  0.87379598  1
  Cd  Cd0  1  0.16666700  0.33333300  0.62500000  1
  Si  Si0  1  0.16666700  0.33333300  0.12500000  1
loop_
_geom_bond_atom_site_label_1
_geom_bond_atom_site_label_2
_geom_bond_distance
_geom_bond_site_symmetry_2
Mg0 Mg2 3.126232 1_455
Mg0 Mg4 3.126233 1_455
Mg0 Si0 3.135849 1_565
Mg0 Si0 3.135849 1_555
Mg0 Mg2 3.145455 1_565
Mg0 Mg4 3.145455 1_555
Mg0 Mg9 3.152596 1_554
Mg0 Mg8 3.152596 1_555
Mg0 Mg7 3.152602 1_564
Mg0 Mg6 3.152602 1_565
Mg0 Mg13 3.163733 1_454
Mg0 Mg12 3.163733 1_455
Mg1 Mg3 3.133685 1_565
Mg1 Mg5 3.133685 1_555
Mg1 Mg3 3.138003 1_455
Mg1 Mg5 3.138003 1_455
Mg1 Mg12 3.147216 1_455
Mg1 Mg13 3.147216 1_455
Mg1 Mg8 3.170546 1_555
Mg1 Mg9 3.170546 1_555
Mg1 Mg6 3.170552 1_565
Mg1 Mg7 3.170552 1_565
Mg2 Mg4 3.126232 1_555
Mg2 Si0 3.135849 1_555
Mg2 Si0 3.135849 1_655
Mg2 Mg4 3.145455 1_545
Mg2 Mg7 3.152602 1_554
Mg2 Mg6 3.152602 1_555
Mg3 Mg5 3.133685 1_545
Mg3 Mg5 3.138003 1_555
Mg3 Mg7 3.170552 1_555
Mg3 Mg6 3.170552 1_555
Mg4 Si0 3.135849 1_665
Mg4 Si0 3.135849 1_555
Mg4 Mg9 3.152602 1_554
Mg4 Mg8 3.152602 1_555
Mg5 Mg8 3.170552 1_555
Mg5 Mg9 3.170552 1_555
Mg6 Mg8 3.110301 1_555
Mg6 Si0 3.138275 1_555
Mg6 Mg8 3.161386 1_545
Mg7 Mg9 3.110301 1_555
Mg7 Si0 3.138275 1_556
Mg7 Mg9 3.161386 1_545
Mg8 Si0 3.138281 1_555
Mg9 Si0 3.138281 1_556
Mg10 Mg8 3.110301 1_655
Mg10 Mg6 3.110301 1_655
Mg10 Mg12 3.135975 1_545
Mg10 Mg12 3.135975 1_555
Mg10 Si0 3.138281 1_655
Mg10 Mg2 3.152596 1_555
Mg10 Mg4 3.152602 1_545
Mg10 Mg8 3.161386 1_545
Mg10 Mg6 3.161387 1_555
Mg10 Mg3 3.170546 1_555
Mg10 Mg5 3.170552 1_545
Mg11 Mg9 3.110301 1_655
Mg11 Mg7 3.110301 1_655
Mg11 Mg13 3.135975 1_545
Mg11 Mg13 3.135975 1_555
Mg11 Si0 3.138281 1_656
Mg11 Mg2 3.152596 1_556
Mg11 Mg4 3.152602 1_546
Mg11 Mg9 3.161386 1_545
Mg11 Mg7 3.161387 1_555
Mg11 Mg3 3.170546 1_555
Mg11 Mg5 3.170552 1_545
Mg12 Mg6 3.135975 1_665
Mg12 Mg6 3.135975 1_555
Mg12 Mg8 3.135975 1_555
Mg12 Mg8 3.135975 1_655
Mg12 Mg5 3.147210 1_555
Mg12 Mg3 3.147216 1_555
Mg12 Mg4 3.163727 1_555
Mg12 Mg2 3.163733 1_555
Mg13 Mg7 3.135975 1_665
Mg13 Mg7 3.135975 1_555
Mg13 Mg9 3.135975 1_555
Mg13 Mg9 3.135975 1_655
Mg13 Mg5 3.147210 1_555
Mg13 Mg3 3.147216 1_555
Mg13 Mg4 3.163727 1_556
Mg13 Mg2 3.163733 1_556
Cd0 Mg1 3.135844 1_555
Cd0 Mg5 3.135844 1_555
Cd0 Mg5 3.135844 1_445
Cd0 Mg1 3.135844 1_545
Cd0 Mg3 3.135844 1_455
Cd0 Mg3 3.135844 1_555
Cd0 Mg6 3.158243 1_555
Cd0 Mg7 3.158243 1_555
Cd0 Mg8 3.158249 1_555
Cd0 Mg9 3.158249 1_555
Cd0 Mg10 3.158249 1_455
Cd0 Mg11 3.158249 1_455
