# generated using pymatgen
data_BaLa3Mn4O12
_symmetry_space_group_name_H-M   'P 1'
_cell_length_a   6.85664410
_cell_length_b   6.85563547
_cell_length_c   6.82955631
_cell_angle_alpha   69.94358442
_cell_angle_beta   110.05060672
_cell_angle_gamma   71.51118601
_symmetry_Int_Tables_number   1
_chemical_formula_structural   BaLa3Mn4O12
_chemical_formula_sum   'Ba1 La3 Mn4 O12'
_cell_volume   246.52960540
_cell_formula_units_Z   1
loop_
 _symmetry_equiv_pos_site_id
 _symmetry_equiv_pos_as_xyz
  1  'x, y, z'
loop_
 _atom_site_type_symbol
 _atom_site_label
 _atom_site_symmetry_multiplicity
 _atom_site_fract_x
 _atom_site_fract_y
 _atom_site_fract_z
 _atom_site_occupancy
  Ba  Ba0  1  0.00001300  0.99999300  0.00001300  1
  La  La0  1  0.50000700  0.99999100  0.50001600  1
  La  La1  1  0.50000400  0.50000200  0.00001300  1
  La  La2  1  0.00000300  0.49999400  0.50002000  1
  Mn  Mn0  1  0.99993700  0.50006900  0.99987000  1
  Mn  Mn1  1  0.49998100  0.99989900  0.99999600  1
  Mn  Mn2  1  0.99993400  0.00010400  0.49992900  1
  Mn  Mn3  1  0.50004000  0.50000800  0.50001600  1
  O  O0  1  0.99703600  0.25620700  0.25749900  1
  O  O1  1  0.51508100  0.75349900  0.24816900  1
  O  O2  1  0.00298100  0.74377100  0.74253300  1
  O  O3  1  0.48492900  0.24651800  0.75182500  1
  O  O4  1  0.74354400  0.00295100  0.25721200  1
  O  O5  1  0.24649200  0.48485100  0.24814500  1
  O  O6  1  0.75352500  0.51513000  0.75189000  1
  O  O7  1  0.25647800  0.99703900  0.74281500  1
  O  O8  1  0.73173200  0.26821900  0.48434600  1
  O  O9  1  0.26827500  0.73175800  0.51567800  1
  O  O10  1  0.74400400  0.74438300  0.00004500  1
  O  O11  1  0.25600400  0.25561600  0.99997300  1
loop_
_geom_bond_atom_site_label_1
_geom_bond_atom_site_label_2
_geom_bond_distance
_geom_bond_site_symmetry_2
Ba0 O11 2.846556 1_564
Ba0 O10 2.846584 1_455
Ba0 O9 2.852824 1_555
Ba0 O8 2.852836 1_464
Ba0 O7 2.880626 1_554
Ba0 O4 2.880655 1_465
Ba0 O0 2.880730 1_465
Ba0 O2 2.880739 1_554
Ba0 O6 2.888938 1_464
Ba0 O5 2.888965 1_555
Ba0 O1 2.889073 1_555
Ba0 O3 2.889157 1_464
La0 O5 2.718982 1_565
La0 O6 2.718988 1_555
La0 O7 2.726774 1_555
La0 O4 2.726847 1_565
La0 O10 2.765905 1_556
La0 O11 2.765983 1_564
La0 O8 2.784250 1_565
La0 O9 2.784316 1_555
La0 O3 2.798089 1_565
La0 O1 2.798111 1_555
La0 O0 2.822748 1_465
La0 O2 2.822766 1_655
La1 O8 2.679681 1_555
La1 O9 2.679696 1_554
La1 O10 2.717290 1_555
La1 O11 2.717318 1_554
La1 O7 2.785584 1_554
La1 O4 2.785662 1_555
La1 O2 2.786024 1_554
La1 O0 2.786074 1_555
La1 O1 2.813762 1_555
La1 O6 2.813836 1_554
La1 O5 2.813838 1_555
La1 O3 2.813862 1_554
La2 O1 2.719801 1_455
La2 O3 2.719818 1_555
La2 O2 2.726476 1_555
La2 O0 2.726578 1_455
La2 O11 2.765504 1_555
La2 O10 2.765624 1_455
La2 O9 2.784762 1_555
La2 O8 2.784817 1_455
La2 O6 2.798295 1_455
La2 O5 2.798387 1_555
La2 O7 2.822129 1_545
La2 O4 2.822133 1_465
Mn0 O6 1.881719 1_555
Mn0 O5 1.882856 1_656
Mn0 O2 1.978348 1_655
Mn0 O0 1.979574 1_556
Mn0 O11 2.005842 1_655
Mn0 O10 2.005863 1_556
Mn1 O1 1.881998 1_556
Mn1 O3 1.883025 1_565
Mn1 O7 1.976505 1_555
Mn1 O4 1.977640 1_566
Mn1 O10 2.002089 1_556
Mn1 O11 2.002857 1_565
Mn2 O0 1.945714 1_555
Mn2 O2 1.946731 1_645
Mn2 O4 1.948462 1_555
Mn2 O7 1.948876 1_645
Mn2 O8 2.087941 1_555
Mn2 O9 2.088796 1_645
Mn3 O8 1.921573 1_555
Mn3 O9 1.921675 1_555
Mn3 O1 2.043099 1_555
Mn3 O3 2.043240 1_555
Mn3 O6 2.043805 1_555
Mn3 O5 2.044189 1_555
O0 O5 2.663346 1_655
O0 O7 2.687073 1_645
O0 O10 2.737117 1_555
O1 O4 2.662238 1_565
O1 O10 2.678354 1_555
O2 O6 2.663331 1_455
O2 O4 2.687101 1_465
O3 O7 2.662319 1_545
O10 O6 2.680392 1_554
O10 O7 2.733956 1_554
O11 O3 2.678496 1_555
O11 O5 2.680388 1_556
O11 O4 2.734035 1_556
O11 O2 2.736999 1_555
