# generated using pymatgen
data_Sr5Ca5P6(ClO12)2
_symmetry_space_group_name_H-M   'P 1'
_cell_length_a   7.03290100
_cell_length_b   9.86961800
_cell_length_c   9.88216862
_cell_angle_alpha   60.07028635
_cell_angle_beta   90.00000000
_cell_angle_gamma   90.00000000
_symmetry_Int_Tables_number   1
_chemical_formula_structural   Sr5Ca5P6(ClO12)2
_chemical_formula_sum   'Sr5 Ca5 P6 Cl2 O24'
_cell_volume   594.46308931
_cell_formula_units_Z   1
loop_
 _symmetry_equiv_pos_site_id
 _symmetry_equiv_pos_as_xyz
  1  'x, y, z'
loop_
 _atom_site_type_symbol
 _atom_site_label
 _atom_site_symmetry_multiplicity
 _atom_site_fract_x
 _atom_site_fract_y
 _atom_site_fract_z
 _atom_site_occupancy
  Sr  Sr0  1  0.50000000  0.74738000  0.25222700  1
  Sr  Sr1  1  0.50000000  0.00162000  0.74669400  1
  Sr  Sr2  1  0.00000000  0.74765300  0.99864900  1
  Sr  Sr3  1  0.00000000  0.25345200  0.74865700  1
  Sr  Sr4  1  0.00000000  0.99836100  0.25315600  1
  Ca  Ca0  1  0.74852900  0.33288200  0.33312500  1
  Ca  Ca1  1  0.24861100  0.66682700  0.66662100  1
  Ca  Ca2  1  0.75138900  0.66682700  0.66662100  1
  Ca  Ca3  1  0.25147100  0.33288200  0.33312500  1
  Ca  Ca4  1  0.50000000  0.26677000  0.98988800  1
  P  P0  1  0.50000000  0.41286000  0.62298600  1
  P  P1  1  0.50000000  0.96554100  0.41337300  1
  P  P2  1  0.50000000  0.61874700  0.96702900  1
  P  P3  1  0.00000000  0.58616500  0.37920500  1
  P  P4  1  0.00000000  0.03447300  0.58616100  1
  P  P5  1  0.00000000  0.37806300  0.03313200  1
  Cl  Cl0  1  0.25329200  0.00274300  0.00015200  1
  Cl  Cl1  1  0.74670800  0.00274300  0.00015200  1
  O  O0  1  0.50000000  0.35463300  0.50240000  1
  O  O1  1  0.50000000  0.14438000  0.35517000  1
  O  O2  1  0.50000000  0.50054500  0.14599000  1
  O  O3  1  0.00000000  0.64432500  0.49982800  1
  O  O4  1  0.00000000  0.85562300  0.64448600  1
  O  O5  1  0.00000000  0.50024400  0.85471700  1
  O  O6  1  0.67645800  0.35473900  0.73162200  1
  O  O7  1  0.67815800  0.91533600  0.35691400  1
  O  O8  1  0.67779400  0.72590700  0.91551300  1
  O  O9  1  0.17764500  0.64416600  0.27206700  1
  O  O10  1  0.17774700  0.08365500  0.64413300  1
  O  O11  1  0.18066300  0.27300000  0.07971600  1
  O  O12  1  0.82235500  0.64416600  0.27206700  1
  O  O13  1  0.82225300  0.08365500  0.64413300  1
  O  O14  1  0.81933700  0.27300000  0.07971600  1
  O  O15  1  0.32354200  0.35473900  0.73162200  1
  O  O16  1  0.32184200  0.91533600  0.35691400  1
  O  O17  1  0.32220600  0.72590700  0.91551300  1
  O  O18  1  0.50000000  0.59513100  0.53964200  1
  O  O19  1  0.50000000  0.86578500  0.59590200  1
  O  O20  1  0.50000000  0.53207900  0.87073200  1
  O  O21  1  0.00000000  0.40389800  0.46180700  1
  O  O22  1  0.00000000  0.13416600  0.40404700  1
  O  O23  1  0.00000000  0.45959500  0.13439800  1
loop_
_geom_bond_atom_site_label_1
_geom_bond_atom_site_label_2
_geom_bond_distance
_geom_bond_site_symmetry_2
Ca0 O22 2.468585 1_655
Ca0 O23 2.469371 1_655
Ca0 O21 2.475000 1_655
Ca0 O1 2.481804 1_555
Ca0 O2 2.481853 1_555
Ca0 O0 2.501557 1_555
Ca0 O13 2.867305 1_555
Ca0 O12 2.867505 1_555
Ca0 O14 2.888830 1_555
Ca1 O18 2.467216 1_555
Ca1 O19 2.469959 1_555
Ca1 O5 2.483093 1_555
Ca1 O4 2.484004 1_555
Ca1 O3 2.487674 1_555
Ca1 O20 2.507227 1_555
Ca1 O17 2.844051 1_555
Ca1 O16 2.856112 1_555
Ca1 O15 2.864181 1_555
Ca2 O18 2.467216 1_555
Ca2 O19 2.469959 1_555
Ca2 O5 2.483093 1_655
Ca2 O4 2.484004 1_655
Ca2 O3 2.487674 1_655
Ca2 O20 2.507227 1_555
Ca2 O8 2.844051 1_555
Ca2 O7 2.856112 1_555
Ca2 O6 2.864181 1_555
Ca3 O22 2.468585 1_555
Ca3 O23 2.469371 1_555
Ca3 O21 2.475000 1_555
Ca3 O1 2.481804 1_555
Ca3 O2 2.481853 1_555
Ca3 O0 2.501557 1_555
Ca3 O10 2.867305 1_555
Ca3 O9 2.867505 1_555
Ca3 O11 2.888830 1_555
Ca4 O20 2.272951 1_555
Ca4 O14 2.426966 1_556
Ca4 O11 2.426966 1_556
Ca4 O15 2.568384 1_555
Ca4 O6 2.568384 1_555
Ca4 Cl1 3.089894 1_556
Ca4 Cl0 3.089894 1_556
Ca4 O1 3.184099 1_556
Cl0 Sr0 3.050075 1_545
Cl0 Sr1 3.051540 1_554
Cl0 Sr4 3.052608 1_545
Cl0 Sr3 3.055514 1_554
Cl0 Sr2 3.090203 1_544
Cl0 O11 3.175935 1_555
Cl0 O15 3.186808 1_554
Cl0 O16 3.220466 1_545
Cl0 O10 3.239509 1_554
Cl0 O9 3.246342 1_545
Cl0 O17 3.268061 1_544
Cl0 Cl1 3.470146 1_555
Cl0 Cl1 3.562755 1_455
Cl1 Sr0 3.050075 1_545
Cl1 Sr1 3.051540 1_554
Cl1 Sr4 3.052608 1_645
Cl1 Sr3 3.055514 1_654
Cl1 Sr2 3.090203 1_644
Cl1 O14 3.175935 1_555
Cl1 O6 3.186808 1_554
Cl1 O7 3.220466 1_545
Cl1 O13 3.239509 1_554
Cl1 O12 3.246342 1_545
Cl1 O8 3.268061 1_544
O0 P0 1.560015 1_555
O0 Sr1 3.094161 1_555
O1 P1 1.559885 1_545
O2 P2 1.558801 1_554
O2 Sr0 3.096656 1_555
O3 P3 1.559866 1_555
O3 Sr4 3.106774 1_555
O4 P4 1.559752 1_565
O4 Sr2 3.108568 1_555
O5 P5 1.562422 1_556
O5 Sr3 3.094971 1_555
O6 P0 1.551507 1_555
O6 Sr3 2.457104 1_655
O7 P1 1.550038 1_555
O7 Sr4 2.451071 1_655
O7 Sr0 2.664450 1_555
O8 P2 1.550479 1_555
O8 Sr2 2.456000 1_655
O8 Sr1 2.687280 1_565
O9 P3 1.550731 1_555
O9 Sr0 2.452867 1_555
O9 Sr2 2.674109 1_554
O10 P4 1.550487 1_555
O10 Sr1 2.449563 1_555
O10 Sr3 2.676819 1_555
O11 P5 1.557305 1_555
O11 Sr4 2.695060 1_545
O12 P3 1.550731 1_655
O12 Sr0 2.452867 1_555
O12 Sr2 2.674109 1_654
O13 P4 1.550487 1_655
O13 Sr1 2.449563 1_555
O13 Sr3 2.676819 1_655
O14 P5 1.557305 1_655
O14 Sr4 2.695060 1_645
O15 P0 1.551507 1_555
O15 Sr3 2.457104 1_555
O16 P1 1.550038 1_555
O16 Sr4 2.451071 1_555
O16 Sr0 2.664450 1_555
O17 P2 1.550479 1_555
O17 Sr2 2.456000 1_555
O17 Sr1 2.687280 1_565
O18 P0 1.560787 1_555
O18 Sr0 2.462983 1_555
O19 P1 1.565513 1_555
O19 Sr1 2.451811 1_565
O20 P2 1.565098 1_555
O21 P3 1.561116 1_555
O21 Sr3 2.457671 1_555
O22 P4 1.562042 1_555
O22 Sr4 2.452421 1_545
O23 P5 1.566060 1_555
O23 Sr2 2.465074 1_554
