# generated using pymatgen
data_La21Mn8Sb7C12
_symmetry_space_group_name_H-M   'P 1'
_cell_length_a   11.64595535
_cell_length_b   11.64595535
_cell_length_c   11.64595535
_cell_angle_alpha   60.00000000
_cell_angle_beta   60.00000000
_cell_angle_gamma   60.00000000
_symmetry_Int_Tables_number   1
_chemical_formula_structural   La21Mn8Sb7C12
_chemical_formula_sum   'La21 Mn8 Sb7 C12'
_cell_volume   1116.88990114
_cell_formula_units_Z   1
loop_
 _symmetry_equiv_pos_site_id
 _symmetry_equiv_pos_as_xyz
  1  'x, y, z'
loop_
 _atom_site_type_symbol
 _atom_site_label
 _atom_site_symmetry_multiplicity
 _atom_site_fract_x
 _atom_site_fract_y
 _atom_site_fract_z
 _atom_site_occupancy
  La  La0  1  0.00000000  0.00000000  0.34033300  1
  La  La1  1  0.65966700  0.00000000  0.34033300  1
  La  La2  1  0.00000000  0.65966700  0.34033300  1
  La  La3  1  0.65966700  0.34033300  0.00000000  1
  La  La4  1  0.00000000  0.34033300  0.00000000  1
  La  La5  1  0.00000000  0.34033300  0.65966700  1
  La  La6  1  0.34033300  0.65966700  0.00000000  1
  La  La7  1  0.34033300  0.00000000  0.65966700  1
  La  La8  1  0.34033300  0.00000000  0.00000000  1
  La  La9  1  0.00000000  0.00000000  0.65966700  1
  La  La10  1  0.00000000  0.65966700  0.00000000  1
  La  La11  1  0.65966700  0.00000000  0.00000000  1
  La  La12  1  0.63505400  0.63505400  0.09483900  1
  La  La13  1  0.63505400  0.09483900  0.63505400  1
  La  La14  1  0.09483900  0.63505400  0.63505400  1
  La  La15  1  0.63505400  0.63505400  0.63505400  1
  La  La16  1  0.36494600  0.36494600  0.90516100  1
  La  La17  1  0.36494600  0.90516100  0.36494600  1
  La  La18  1  0.90516100  0.36494600  0.36494600  1
  La  La19  1  0.36494600  0.36494600  0.36494600  1
  La  La20  1  0.50000000  0.50000000  0.50000000  1
  Mn  Mn0  1  0.80189000  0.80189000  0.59432900  1
  Mn  Mn1  1  0.80189000  0.59432900  0.80189000  1
  Mn  Mn2  1  0.59432900  0.80189000  0.80189000  1
  Mn  Mn3  1  0.80189000  0.80189000  0.80189000  1
  Mn  Mn4  1  0.19811000  0.19811000  0.40567100  1
  Mn  Mn5  1  0.19811000  0.40567100  0.19811000  1
  Mn  Mn6  1  0.40567100  0.19811000  0.19811000  1
  Mn  Mn7  1  0.19811000  0.19811000  0.19811000  1
  Sb  Sb0  1  0.70896400  0.70896400  0.29103600  1
  Sb  Sb1  1  0.29103600  0.70896400  0.29103600  1
  Sb  Sb2  1  0.70896400  0.29103600  0.29103600  1
  Sb  Sb3  1  0.29103600  0.29103600  0.70896400  1
  Sb  Sb4  1  0.70896400  0.29103600  0.70896400  1
  Sb  Sb5  1  0.29103600  0.70896400  0.70896400  1
  Sb  Sb6  1  0.00000000  0.00000000  0.00000000  1
  C  C0  1  0.89364500  0.89364500  0.60635500  1
  C  C1  1  0.60635500  0.89364500  0.60635500  1
  C  C2  1  0.89364500  0.60635500  0.60635500  1
  C  C3  1  0.60635500  0.60635500  0.89364500  1
  C  C4  1  0.89364500  0.60635500  0.89364500  1
  C  C5  1  0.60635500  0.89364500  0.89364500  1
  C  C6  1  0.10635500  0.10635500  0.39364500  1
  C  C7  1  0.39364500  0.10635500  0.39364500  1
  C  C8  1  0.10635500  0.39364500  0.39364500  1
  C  C9  1  0.39364500  0.39364500  0.10635500  1
  C  C10  1  0.10635500  0.39364500  0.10635500  1
  C  C11  1  0.39364500  0.10635500  0.10635500  1
loop_
_geom_bond_atom_site_label_1
_geom_bond_atom_site_label_2
_geom_bond_distance
_geom_bond_site_symmetry_2
La0 Sb2 3.437671 1_455
La0 Sb1 3.437671 1_545
La0 Sb6 3.963503 1_555
La1 Sb2 3.437671 1_555
La1 Sb0 3.437671 1_545
La1 Sb6 3.963503 1_655
La2 Sb1 3.437671 1_555
La2 Sb0 3.437671 1_455
La2 Sb6 3.963503 1_565
La3 Sb2 3.437671 1_555
La3 Sb4 3.437671 1_554
La3 Sb6 3.963503 1_655
La4 Sb2 3.437671 1_455
La4 Sb3 3.437671 1_554
La4 Sb6 3.963503 1_555
La5 Sb3 3.437671 1_555
La5 Sb4 3.437671 1_455
La5 Sb6 3.963503 1_556
La6 Sb1 3.437671 1_555
La6 Sb5 3.437671 1_554
La6 Sb6 3.963503 1_565
La7 Sb3 3.437671 1_555
La7 Sb5 3.437671 1_545
La7 Sb6 3.963503 1_556
La8 Sb1 3.437671 1_545
La8 Sb3 3.437671 1_554
La8 Sb6 3.963503 1_555
La9 Sb4 3.437671 1_455
La9 Sb5 3.437671 1_545
La9 Sb6 3.963503 1_556
La10 Sb0 3.437671 1_455
La10 Sb5 3.437671 1_554
La10 Sb6 3.963503 1_565
La11 Sb0 3.437671 1_545
La11 Sb4 3.437671 1_554
La11 Sb6 3.963503 1_655
La12 Sb0 3.372970 1_555
La12 Sb2 3.372979 1_555
La12 Sb1 3.372979 1_555
La12 La20 3.852628 1_555
La13 Sb4 3.372970 1_555
La13 Sb2 3.372979 1_555
La13 Sb3 3.372979 1_555
La13 La20 3.852628 1_555
La14 Sb5 3.372970 1_555
La14 Sb1 3.372979 1_555
La14 Sb3 3.372979 1_555
La14 La20 3.852628 1_555
La15 Sb0 3.372981 1_555
La15 Sb4 3.372981 1_555
La15 Sb5 3.372981 1_555
La15 La20 3.852638 1_555
La16 Sb3 3.372970 1_555
La16 Sb5 3.372979 1_555
La16 Sb4 3.372979 1_555
La16 La20 3.852628 1_555
La17 Sb1 3.372970 1_555
La17 Sb5 3.372979 1_555
La17 Sb0 3.372979 1_555
La17 La20 3.852628 1_555
La18 Sb2 3.372970 1_555
La18 Sb0 3.372979 1_555
La18 Sb4 3.372979 1_555
La18 La20 3.852628 1_555
La19 Sb1 3.372981 1_555
La19 Sb2 3.372981 1_555
La19 Sb3 3.372981 1_555
La19 La20 3.852638 1_555
La20 Sb0 3.441609 1_555
La20 Sb4 3.441609 1_555
La20 Sb5 3.441609 1_555
La20 Sb2 3.441609 1_555
La20 Sb3 3.441609 1_555
La20 Sb1 3.441609 1_555
Mn0 Mn1 2.417246 1_555
Mn0 Mn2 2.417246 1_555
Mn0 Mn3 2.417246 1_555
Mn1 Mn2 2.417246 1_555
Mn1 Mn3 2.417246 1_555
Mn2 Mn3 2.417246 1_555
Mn4 Mn6 2.417246 1_555
Mn4 Mn7 2.417246 1_555
Mn4 Mn5 2.417246 1_555
Mn5 Mn6 2.417246 1_555
Mn5 Mn7 2.417246 1_555
Mn6 Mn7 2.417246 1_555
C0 Mn3 1.935061 1_555
C0 Mn0 1.935068 1_555
C0 La0 2.554591 1_665
C0 La9 2.554591 1_665
C0 La14 2.718720 1_655
C0 La13 2.718720 1_565
C1 Mn2 1.935058 1_555
C1 Mn0 1.935058 1_555
C1 La1 2.554591 1_565
C1 La7 2.554591 1_565
C1 La15 2.718716 1_555
C1 La13 2.718727 1_565
C2 Mn0 1.935058 1_555
C2 Mn1 1.935058 1_555
C2 La5 2.554591 1_655
C2 La2 2.554591 1_655
C2 La15 2.718716 1_555
C2 La14 2.718727 1_655
C3 Mn2 1.935058 1_555
C3 Mn1 1.935058 1_555
C3 La3 2.554591 1_556
C3 La6 2.554591 1_556
C3 La15 2.718716 1_555
C3 La12 2.718727 1_556
C4 Mn3 1.935061 1_555
C4 Mn1 1.935068 1_555
C4 La4 2.554591 1_656
C4 La10 2.554591 1_656
C4 La12 2.718720 1_556
C4 La14 2.718720 1_655
C5 Mn3 1.935061 1_555
C5 Mn2 1.935068 1_555
C5 La8 2.554591 1_566
C5 La11 2.554591 1_566
C5 La12 2.718720 1_556
C5 La13 2.718720 1_565
C6 Mn7 1.935061 1_555
C6 Mn4 1.935068 1_555
C6 La0 2.554591 1_555
C6 La9 2.554591 1_555
C6 La17 2.718720 1_545
C6 La18 2.718720 1_455
C7 Mn6 1.935058 1_555
C7 Mn4 1.935058 1_555
C7 La1 2.554591 1_555
C7 La7 2.554591 1_555
C7 La19 2.718716 1_555
C7 La17 2.718727 1_545
C8 Mn4 1.935058 1_555
C8 Mn5 1.935058 1_555
C8 La2 2.554591 1_555
C8 La5 2.554591 1_555
C8 La19 2.718716 1_555
C8 La18 2.718727 1_455
C9 Mn6 1.935058 1_555
C9 Mn5 1.935058 1_555
C9 La6 2.554591 1_555
C9 La3 2.554591 1_555
C9 La19 2.718716 1_555
C9 La16 2.718727 1_554
C10 Mn7 1.935061 1_555
C10 Mn5 1.935068 1_555
C10 La4 2.554591 1_555
C10 La10 2.554591 1_555
C10 La18 2.718720 1_455
C10 La16 2.718720 1_554
C11 Mn7 1.935061 1_555
C11 Mn6 1.935068 1_555
C11 La8 2.554591 1_555
C11 La11 2.554591 1_555
C11 La16 2.718720 1_554
C11 La17 2.718720 1_545
