# generated using pymatgen
data_Ir3Se
_symmetry_space_group_name_H-M   'P 1'
_cell_length_a   4.73880536
_cell_length_b   4.73880536
_cell_length_c   4.73880536
_cell_angle_alpha   129.67378164
_cell_angle_beta   129.67378164
_cell_angle_gamma   73.92881945
_symmetry_Int_Tables_number   1
_chemical_formula_structural   Ir3Se
_chemical_formula_sum   'Ir3 Se1'
_cell_volume   61.48907683
_cell_formula_units_Z   1
loop_
 _symmetry_equiv_pos_site_id
 _symmetry_equiv_pos_as_xyz
  1  'x, y, z'
loop_
 _atom_site_type_symbol
 _atom_site_label
 _atom_site_symmetry_multiplicity
 _atom_site_fract_x
 _atom_site_fract_y
 _atom_site_fract_z
 _atom_site_occupancy
  Ir  Ir0  1  0.75000000  0.25000000  0.50000000  1
  Ir  Ir1  1  0.25000000  0.75000000  0.50000000  1
  Ir  Ir2  1  0.50000000  0.50000000  0.00000000  1
  Se  Se0  1  0.00000000  0.00000000  0.00000000  1
loop_
_geom_bond_atom_site_label_1
_geom_bond_atom_site_label_2
_geom_bond_distance
_geom_bond_site_symmetry_2
Ir0 Ir2 2.764784 1_656
Ir0 Se0 2.764784 1_656
Ir0 Ir2 2.764784 1_556
Ir0 Se0 2.764784 1_555
Ir0 Ir2 2.764784 1_555
Ir0 Ir2 2.764784 1_545
Ir0 Se0 2.764784 1_655
Ir0 Se0 2.764784 1_666
Ir0 Ir1 2.849533 1_645
Ir0 Ir1 2.849533 1_656
Ir0 Ir1 2.849533 1_544
Ir0 Ir1 2.849533 1_555
Ir1 Ir2 2.764784 1_566
Ir1 Ir2 2.764784 1_455
Ir1 Se0 2.764784 1_565
Ir1 Ir2 2.764784 1_556
Ir1 Se0 2.764784 1_555
Ir1 Se0 2.764784 1_566
Ir1 Ir2 2.764784 1_555
Ir1 Se0 2.764784 1_666
Ir2 Se0 2.849533 1_554
Ir2 Se0 2.849533 1_565
Ir2 Se0 2.849533 1_655
Ir2 Se0 2.849533 1_666
