# generated using pymatgen
data_Mg6ZrV
_symmetry_space_group_name_H-M   'P 1'
_cell_length_a   4.95213200
_cell_length_b   6.27668400
_cell_length_c   11.03225500
_cell_angle_alpha   90.00000000
_cell_angle_beta   90.00000000
_cell_angle_gamma   90.00000000
_symmetry_Int_Tables_number   1
_chemical_formula_structural   Mg6ZrV
_chemical_formula_sum   'Mg12 Zr2 V2'
_cell_volume   342.91522572
_cell_formula_units_Z   2
loop_
 _symmetry_equiv_pos_site_id
 _symmetry_equiv_pos_as_xyz
  1  'x, y, z'
loop_
 _atom_site_type_symbol
 _atom_site_label
 _atom_site_symmetry_multiplicity
 _atom_site_fract_x
 _atom_site_fract_y
 _atom_site_fract_z
 _atom_site_occupancy
  Mg  Mg0  1  0.00000000  0.74161100  0.07931800  1
  Mg  Mg1  1  0.00000000  0.25838900  0.07931800  1
  Mg  Mg2  1  0.00000000  0.00000000  0.33530100  1
  Mg  Mg3  1  0.50000000  0.25410000  0.41921400  1
  Mg  Mg4  1  0.50000000  0.74590000  0.41921400  1
  Mg  Mg5  1  0.50000000  0.00000000  0.16769100  1
  Mg  Mg6  1  0.00000000  0.24161100  0.57931800  1
  Mg  Mg7  1  0.00000000  0.75838900  0.57931800  1
  Mg  Mg8  1  0.00000000  0.50000000  0.83530100  1
  Mg  Mg9  1  0.50000000  0.75410000  0.91921400  1
  Mg  Mg10  1  0.50000000  0.24590000  0.91921400  1
  Mg  Mg11  1  0.50000000  0.50000000  0.66769100  1
  Zr  Zr0  1  0.00000000  0.50000000  0.31868900  1
  Zr  Zr1  1  0.00000000  0.00000000  0.81868900  1
  V  V0  1  0.50000000  0.50000000  0.18125400  1
  V  V1  1  0.50000000  0.00000000  0.68125400  1
loop_
_geom_bond_atom_site_label_1
_geom_bond_atom_site_label_2
_geom_bond_distance
_geom_bond_site_symmetry_2
Mg0 Mg1 3.033032 1_555
Mg0 Mg9 3.042514 1_554
Mg0 Mg9 3.042514 1_454
Mg0 Zr0 3.045268 1_555
Mg0 Mg8 3.089821 1_554
Mg0 V0 3.113746 1_555
Mg0 V0 3.113746 1_455
Mg0 Mg5 3.116369 1_565
Mg0 Mg5 3.116369 1_465
Mg0 Mg1 3.243652 1_565
Mg0 Mg2 3.256638 1_565
Mg0 Zr1 3.301184 1_564
Mg1 Mg10 3.042514 1_454
Mg1 Mg10 3.042514 1_554
Mg1 Zr0 3.045268 1_555
Mg1 Mg8 3.089821 1_554
Mg1 V0 3.113746 1_555
Mg1 V0 3.113746 1_455
Mg1 Mg5 3.116369 1_455
Mg1 Mg5 3.116369 1_555
Mg1 Mg2 3.256638 1_555
Mg1 Zr1 3.301184 1_554
Mg2 Mg3 3.087335 1_455
Mg2 Mg4 3.087335 1_545
Mg2 Mg3 3.087335 1_555
Mg2 Mg4 3.087335 1_445
Mg2 Mg6 3.089821 1_555
Mg2 Mg7 3.089821 1_545
Mg2 Mg5 3.090329 1_455
Mg2 Mg5 3.090329 1_555
Mg2 Zr0 3.143689 1_545
Mg2 Zr0 3.143689 1_555
Mg3 Mg6 3.042514 1_655
Mg3 Mg6 3.042514 1_555
Mg3 V0 3.045334 1_555
Mg3 Mg4 3.086873 1_555
Mg3 Zr0 3.121381 1_655
Mg3 Zr0 3.121381 1_555
Mg3 Mg4 3.189811 1_545
Mg3 Mg5 3.200563 1_555
Mg3 V1 3.301663 1_555
Mg4 Mg7 3.042514 1_555
Mg4 Mg7 3.042514 1_655
Mg4 V0 3.045334 1_555
Mg4 Zr0 3.121381 1_655
Mg4 Zr0 3.121381 1_555
Mg4 Mg5 3.200563 1_565
Mg4 V1 3.301663 1_565
Mg5 V0 3.141907 1_545
Mg5 V0 3.141907 1_555
Mg5 Mg9 3.145904 1_544
Mg6 Mg7 3.033032 1_545
Mg6 Zr1 3.045268 1_555
Mg6 V1 3.113746 1_555
Mg6 V1 3.113746 1_455
Mg6 Mg7 3.243652 1_555
Mg6 Mg8 3.256638 1_555
Mg6 Zr0 3.301184 1_555
Mg7 Zr1 3.045268 1_565
Mg7 V1 3.113746 1_565
Mg7 V1 3.113746 1_465
Mg7 Mg8 3.256638 1_555
Mg7 Zr0 3.301184 1_555
Mg8 Mg9 3.087335 1_455
Mg8 Mg9 3.087335 1_555
Mg8 Zr1 3.143689 1_565
Mg8 Zr1 3.143689 1_555
Mg9 V1 3.045334 1_565
Mg9 Zr1 3.121381 1_565
Mg9 Zr1 3.121381 1_665
Mg9 V0 3.301663 1_556
Mg10 V1 3.045334 1_555
Mg10 Mg9 3.086873 1_545
Mg10 Mg8 3.087335 1_655
Mg10 Mg8 3.087335 1_555
Mg10 Zr1 3.121381 1_655
Mg10 Zr1 3.121381 1_555
Mg10 Mg5 3.145904 1_556
Mg10 Mg9 3.189811 1_555
Mg10 Mg11 3.200563 1_555
Mg10 V0 3.301663 1_556
Mg11 Mg8 3.090329 1_655
Mg11 Mg8 3.090329 1_555
Mg11 Mg6 3.116369 1_655
Mg11 Mg7 3.116369 1_555
Mg11 Mg7 3.116369 1_655
Mg11 Mg6 3.116369 1_555
Mg11 V1 3.141907 1_565
Mg11 V1 3.141907 1_555
Mg11 Mg3 3.145904 1_555
Mg11 Mg4 3.145904 1_555
Mg11 Mg9 3.200563 1_555
V0 Zr0 2.903415 1_555
V0 Zr0 2.903415 1_655
V1 Zr1 2.903415 1_555
V1 Zr1 2.903415 1_655
