# generated using pymatgen
data_BaLiGe2
_symmetry_space_group_name_H-M   'P 1'
_cell_length_a   4.65559997
_cell_length_b   7.44097267
_cell_length_c   11.91121965
_cell_angle_alpha   90.00000000
_cell_angle_beta   90.00000000
_cell_angle_gamma   90.00000000
_symmetry_Int_Tables_number   1
_chemical_formula_structural   BaLiGe2
_chemical_formula_sum   'Ba4 Li4 Ge8'
_cell_volume   412.63075973
_cell_formula_units_Z   4
loop_
 _symmetry_equiv_pos_site_id
 _symmetry_equiv_pos_as_xyz
  1  'x, y, z'
loop_
 _atom_site_type_symbol
 _atom_site_label
 _atom_site_symmetry_multiplicity
 _atom_site_fract_x
 _atom_site_fract_y
 _atom_site_fract_z
 _atom_site_occupancy
  Ba  Ba0  1  0.25000000  0.63469848  0.63990190  1
  Ba  Ba1  1  0.75000000  0.36530152  0.36009810  1
  Ba  Ba2  1  0.25000000  0.13469848  0.86009810  1
  Ba  Ba3  1  0.75000000  0.86530152  0.13990190  1
  Li  Li0  1  0.25000000  0.61572656  0.93713167  1
  Li  Li1  1  0.75000000  0.38427344  0.06286833  1
  Li  Li2  1  0.25000000  0.11572656  0.56286833  1
  Li  Li3  1  0.75000000  0.88427344  0.43713167  1
  Ge  Ge0  1  0.75000000  0.96602910  0.66059191  1
  Ge  Ge1  1  0.25000000  0.03397090  0.33940809  1
  Ge  Ge2  1  0.75000000  0.46602910  0.83940809  1
  Ge  Ge3  1  0.25000000  0.53397090  0.16059191  1
  Ge  Ge4  1  0.75000000  0.79836320  0.84645378  1
  Ge  Ge5  1  0.25000000  0.20163680  0.15354622  1
  Ge  Ge6  1  0.75000000  0.29836320  0.65354622  1
  Ge  Ge7  1  0.25000000  0.70163680  0.34645378  1
loop_
_geom_bond_atom_site_label_1
_geom_bond_atom_site_label_2
_geom_bond_distance
_geom_bond_site_symmetry_2
Ba0 Ge0 3.399661 1_555
Ba0 Ge0 3.399661 1_455
Ba0 Ge6 3.421751 1_555
Ba0 Ge6 3.421751 1_455
Ba0 Ge7 3.530635 1_555
Ba0 Li0 3.543182 1_555
Ba0 Ge2 3.555409 1_455
Ba0 Ge2 3.555409 1_555
Ba0 Ge4 3.599271 1_455
Ba0 Ge4 3.599271 1_555
Ba0 Li2 3.695055 1_565
Ba0 Li3 3.834161 1_455
Ba0 Li3 3.834161 1_555
Ba0 Li2 3.969170 1_555
Ba1 Ge1 3.399661 1_655
Ba1 Ge1 3.399661 1_555
Ba1 Ge7 3.421751 1_655
Ba1 Ge7 3.421751 1_555
Ba1 Ge6 3.530635 1_555
Ba1 Li1 3.543182 1_555
Ba1 Ge3 3.555409 1_555
Ba1 Ge3 3.555409 1_655
Ba1 Ge5 3.599271 1_655
Ba1 Ge5 3.599271 1_555
Ba1 Li3 3.695055 1_545
Ba1 Li2 3.834161 1_555
Ba1 Li2 3.834161 1_655
Ba1 Li3 3.969170 1_555
Ba2 Ge2 3.399661 1_455
Ba2 Ge2 3.399661 1_555
Ba2 Ge4 3.421751 1_445
Ba2 Ge4 3.421751 1_545
Ba2 Ge5 3.530635 1_556
Ba2 Li2 3.543182 1_555
Ba2 Ge0 3.555409 1_445
Ba2 Ge0 3.555409 1_545
Ba2 Ge6 3.599271 1_455
Ba2 Ge6 3.599271 1_555
Ba2 Li0 3.695055 1_555
Ba2 Li1 3.834161 1_556
Ba2 Li1 3.834161 1_456
Ba2 Li0 3.969170 1_545
Ba3 Ge3 3.399661 1_555
Ba3 Ge3 3.399661 1_655
Ba3 Ge5 3.421751 1_565
Ba3 Ge5 3.421751 1_665
Ba3 Ge4 3.530635 1_554
Ba3 Li3 3.543182 1_555
Ba3 Ge1 3.555409 1_565
Ba3 Ge1 3.555409 1_665
Ba3 Ge7 3.599271 1_655
Ba3 Ge7 3.599271 1_555
Ba3 Li1 3.695055 1_555
Ba3 Li0 3.834161 1_654
Ba3 Li0 3.834161 1_554
Ba3 Li1 3.969170 1_565
Li0 Li1 3.260029 1_556
Li0 Li1 3.260029 1_456
Li2 Li3 3.260029 1_445
Li2 Li3 3.260029 1_545
Ge0 Ge6 2.474313 1_565
Ge0 Ge4 2.541180 1_555
Ge0 Li3 2.730319 1_555
Ge0 Li2 2.830959 1_565
Ge0 Li2 2.830959 1_665
Ge1 Ge7 2.474313 1_545
Ge1 Ge5 2.541180 1_555
Ge1 Li2 2.730319 1_555
Ge1 Li3 2.830959 1_445
Ge1 Li3 2.830959 1_545
Ge2 Ge4 2.474313 1_555
Ge2 Ge6 2.541180 1_555
Ge2 Li1 2.730319 1_556
Ge2 Li0 2.830959 1_555
Ge2 Li0 2.830959 1_655
Ge3 Ge5 2.474313 1_555
Ge3 Ge7 2.541180 1_555
Ge3 Li0 2.730319 1_554
Ge3 Li1 2.830959 1_555
Ge3 Li1 2.830959 1_455
Ge4 Li0 2.903808 1_555
Ge4 Li0 2.903808 1_655
Ge5 Li1 2.903808 1_455
Ge5 Li1 2.903808 1_555
Ge6 Li2 2.903808 1_555
Ge6 Li2 2.903808 1_655
Ge7 Li3 2.903808 1_555
Ge7 Li3 2.903808 1_455
