# generated using pymatgen
data_Ca6P19Rh30
_symmetry_space_group_name_H-M   'P 1'
_cell_length_a   15.67797557
_cell_length_b   15.67797557
_cell_length_c   3.83216200
_cell_angle_alpha   90.00000000
_cell_angle_beta   90.00000000
_cell_angle_gamma   119.99999819
_symmetry_Int_Tables_number   1
_chemical_formula_structural   Ca6P19Rh30
_chemical_formula_sum   'Ca6 P19 Rh30'
_cell_volume   815.74508633
_cell_formula_units_Z   1
loop_
 _symmetry_equiv_pos_site_id
 _symmetry_equiv_pos_as_xyz
  1  'x, y, z'
loop_
 _atom_site_type_symbol
 _atom_site_label
 _atom_site_symmetry_multiplicity
 _atom_site_fract_x
 _atom_site_fract_y
 _atom_site_fract_z
 _atom_site_occupancy
  Ca  Ca0  1  0.42971200  0.36953600  0.25016000  1
  Ca  Ca1  1  0.93982400  0.57028800  0.25016000  1
  Ca  Ca2  1  0.63046400  0.06017600  0.25016000  1
  Ca  Ca3  1  0.23712500  0.96342200  0.75011100  1
  Ca  Ca4  1  0.72629700  0.76287500  0.75011100  1
  Ca  Ca5  1  0.03657800  0.27370300  0.75011100  1
  P  P0  1  0.58996300  0.78238700  0.24645400  1
  P  P1  1  0.19242400  0.41003700  0.24645400  1
  P  P2  1  0.21761300  0.80757600  0.24645400  1
  P  P3  1  0.07698600  0.55012600  0.75229100  1
  P  P4  1  0.47313900  0.92301400  0.75229100  1
  P  P5  1  0.44987400  0.52686100  0.75229100  1
  P  P6  1  0.70430400  0.60463500  0.24924400  1
  P  P7  1  0.90033100  0.29569600  0.24924400  1
  P  P8  1  0.39536500  0.09966900  0.24924400  1
  P  P9  1  0.96244900  0.72887200  0.75039800  1
  P  P10  1  0.76642300  0.03755100  0.75039800  1
  P  P11  1  0.27112800  0.23357700  0.75039800  1
  P  P12  1  0.10251600  0.98417100  0.25047100  1
  P  P13  1  0.88165500  0.89748400  0.25047100  1
  P  P14  1  0.01582900  0.11834500  0.25047100  1
  P  P15  1  0.56453800  0.34935100  0.74943400  1
  P  P16  1  0.78481300  0.43546200  0.74943400  1
  P  P17  1  0.65064900  0.21518700  0.74943400  1
  P  P18  1  0.33333300  0.66666700  0.42072200  1
  Rh  Rh0  1  0.56224900  0.61852700  0.24629700  1
  Rh  Rh1  1  0.05627900  0.43775100  0.24629700  1
  Rh  Rh2  1  0.38147300  0.94372100  0.24629700  1
  Rh  Rh3  1  0.10332600  0.71443300  0.75260800  1
  Rh  Rh4  1  0.61110700  0.89667400  0.75260800  1
  Rh  Rh5  1  0.28556700  0.38889300  0.75260800  1
  Rh  Rh6  1  0.55664600  0.23792900  0.24954500  1
  Rh  Rh7  1  0.68128300  0.44335400  0.24954500  1
  Rh  Rh8  1  0.76207100  0.31871700  0.24954500  1
  Rh  Rh9  1  0.10921900  0.09430300  0.75098700  1
  Rh  Rh10  1  0.98508400  0.89078100  0.75098700  1
  Rh  Rh11  1  0.90569700  0.01491600  0.75098700  1
  Rh  Rh12  1  0.35688600  0.53754000  0.25156000  1
  Rh  Rh13  1  0.18065400  0.64311400  0.25156000  1
  Rh  Rh14  1  0.46246000  0.81934600  0.25156000  1
  Rh  Rh15  1  0.31005000  0.79061600  0.74290300  1
  Rh  Rh16  1  0.48056600  0.68995000  0.74290300  1
  Rh  Rh17  1  0.20938400  0.51943400  0.74290300  1
  Rh  Rh18  1  0.74911000  0.92641800  0.25023700  1
  Rh  Rh19  1  0.17730800  0.25089000  0.25023700  1
  Rh  Rh20  1  0.07358200  0.82269200  0.25023700  1
  Rh  Rh21  1  0.91744300  0.40685700  0.74958500  1
  Rh  Rh22  1  0.48941500  0.08255700  0.74958500  1
  Rh  Rh23  1  0.59314300  0.51058500  0.74958500  1
  Rh  Rh24  1  0.25913900  0.12737400  0.25121400  1
  Rh  Rh25  1  0.86823500  0.74086100  0.25121400  1
  Rh  Rh26  1  0.87262600  0.13176500  0.25121400  1
  Rh  Rh27  1  0.40785800  0.20699700  0.74859100  1
  Rh  Rh28  1  0.79913900  0.59214200  0.74859100  1
  Rh  Rh29  1  0.79300300  0.20086100  0.74859100  1
loop_
_geom_bond_atom_site_label_1
_geom_bond_atom_site_label_2
_geom_bond_distance
_geom_bond_site_symmetry_2
Ca0 P15 2.982941 1_555
Ca0 P15 2.986513 1_554
Ca0 P5 3.007357 1_554
Ca0 P11 3.015518 1_554
Ca0 P11 3.016676 1_555
Ca0 P5 3.017745 1_555
Ca0 Rh27 3.063721 1_555
Ca0 Rh27 3.071233 1_554
Ca0 Rh23 3.074437 1_555
Ca0 Rh23 3.077182 1_554
Ca0 Rh5 3.085546 1_554
Ca0 Rh5 3.097175 1_555
Ca0 Rh12 3.353920 1_555
Ca0 Rh24 3.378280 1_555
Ca0 Rh0 3.383064 1_555
Ca0 Rh19 3.429069 1_555
Ca1 P16 2.982941 1_555
Ca1 P16 2.986513 1_554
Ca1 P3 3.007345 1_654
Ca1 P9 3.015517 1_554
Ca1 P9 3.016676 1_555
Ca1 P3 3.017733 1_655
Ca1 Rh28 3.063721 1_555
Ca1 Rh28 3.071233 1_554
Ca1 Rh21 3.074442 1_555
Ca1 Rh21 3.077187 1_554
Ca1 Rh3 3.085546 1_654
Ca1 Rh3 3.097175 1_655
Ca1 Rh13 3.353920 1_655
Ca1 Rh25 3.378280 1_555
Ca1 Rh1 3.383077 1_655
Ca1 Rh20 3.429069 1_655
Ca2 P17 2.982941 1_555
Ca2 P17 2.986513 1_554
Ca2 P4 3.007352 1_544
Ca2 P10 3.015517 1_554
Ca2 P10 3.016676 1_555
Ca2 P4 3.017740 1_545
Ca2 Rh29 3.063721 1_555
Ca2 Rh29 3.071233 1_554
Ca2 Rh22 3.074430 1_555
Ca2 Rh22 3.077175 1_554
Ca2 Rh4 3.085546 1_544
Ca2 Rh4 3.097175 1_545
Ca2 Rh14 3.353920 1_545
Ca2 Rh26 3.378280 1_555
Ca2 Rh2 3.383063 1_545
Ca2 Rh18 3.429068 1_545
Ca3 P12 2.985330 1_555
Ca3 P12 2.987100 1_556
Ca3 P2 2.988972 1_556
Ca3 P2 3.006886 1_555
Ca3 P8 3.012788 1_566
Ca3 P8 3.017011 1_565
Ca3 Rh20 3.074833 1_555
Ca3 Rh20 3.075435 1_556
Ca3 Rh24 3.081281 1_565
Ca3 Rh24 3.086534 1_566
Ca3 Rh2 3.087317 1_556
Ca3 Rh2 3.105406 1_555
Ca3 Rh3 3.383814 1_555
Ca3 Rh27 3.395011 1_565
Ca3 Rh15 3.427169 1_555
Ca3 Rh22 3.427237 1_565
Ca4 P13 2.985330 1_555
Ca4 P13 2.987100 1_556
Ca4 P0 2.988972 1_556
Ca4 P0 3.006886 1_555
Ca4 P6 3.012788 1_556
Ca4 P6 3.017011 1_555
Ca4 Rh18 3.074833 1_555
Ca4 Rh18 3.075435 1_556
Ca4 Rh25 3.081281 1_555
Ca4 Rh25 3.086534 1_556
Ca4 Rh0 3.087310 1_556
Ca4 Rh0 3.105399 1_555
Ca4 Rh4 3.383814 1_555
Ca4 Rh28 3.395011 1_555
Ca4 Rh16 3.427169 1_555
Ca4 Rh23 3.427237 1_555
Ca5 P14 2.985330 1_555
Ca5 P14 2.987100 1_556
Ca5 P1 2.988972 1_556
Ca5 P1 3.006886 1_555
Ca5 P7 3.012788 1_456
Ca5 P7 3.017011 1_455
Ca5 Rh19 3.074833 1_555
Ca5 Rh19 3.075435 1_556
Ca5 Rh26 3.081282 1_455
Ca5 Rh26 3.086534 1_456
Ca5 Rh1 3.087305 1_556
Ca5 Rh1 3.105394 1_555
Ca5 Rh5 3.383814 1_555
Ca5 Rh29 3.395011 1_455
Ca5 Rh17 3.427169 1_555
Ca5 Rh21 3.427223 1_455
P0 Rh14 2.343158 1_555
P0 Rh0 2.381657 1_555
P0 Rh18 2.385498 1_555
P0 Rh16 2.485097 1_555
P0 Rh16 2.505993 1_554
P0 Rh4 2.511568 1_554
P0 Rh4 2.547297 1_555
P1 Rh12 2.343159 1_555
P1 Rh1 2.381641 1_555
P1 Rh19 2.385498 1_555
P1 Rh17 2.485097 1_555
P1 Rh17 2.505993 1_554
P1 Rh5 2.511568 1_554
P1 Rh5 2.547297 1_555
P2 Rh13 2.343159 1_555
P2 Rh2 2.381651 1_555
P2 Rh20 2.385498 1_555
P2 Rh15 2.485097 1_555
P2 Rh15 2.505993 1_554
P2 Rh3 2.511568 1_554
P2 Rh3 2.547297 1_555
P3 Rh17 2.353789 1_555
P3 Rh21 2.384024 1_455
P3 Rh3 2.396359 1_555
P3 Rh13 2.461330 1_556
P3 Rh13 2.465688 1_555
P3 Rh1 2.494250 1_556
P3 Rh1 2.529295 1_555
P4 Rh15 2.353779 1_555
P4 Rh22 2.384011 1_565
P4 Rh4 2.396375 1_555
P4 Rh14 2.461335 1_556
P4 Rh14 2.465692 1_555
P4 Rh2 2.494230 1_556
P4 Rh2 2.529275 1_555
P5 Rh16 2.353773 1_555
P5 Rh23 2.384042 1_555
P5 Rh5 2.396365 1_555
P5 Rh12 2.461325 1_556
P5 Rh12 2.465682 1_555
P5 Rh0 2.494243 1_556
P5 Rh0 2.529288 1_555
P6 Rh0 2.343664 1_555
P6 Rh7 2.368811 1_555
P6 Rh25 2.382818 1_555
P6 Rh28 2.490381 1_555
P6 Rh28 2.494229 1_554
P6 Rh23 2.511589 1_554
P6 Rh23 2.513582 1_555
P7 Rh1 2.343673 1_655
P7 Rh8 2.368811 1_555
P7 Rh26 2.382818 1_555
P7 Rh29 2.490381 1_555
P7 Rh29 2.494229 1_554
P7 Rh21 2.511585 1_554
P7 Rh21 2.513578 1_555
P8 Rh2 2.343679 1_545
P8 Rh6 2.368811 1_555
P8 Rh24 2.382818 1_555
P8 Rh27 2.490381 1_555
P8 Rh27 2.494229 1_554
P8 Rh22 2.511595 1_554
P8 Rh22 2.513588 1_555
P9 Rh3 2.330131 1_655
P9 Rh28 2.379546 1_555
P9 Rh10 2.380889 1_555
P9 Rh25 2.480754 1_555
P9 Rh25 2.485580 1_556
P9 Rh20 2.511076 1_656
P9 Rh20 2.512017 1_655
P10 Rh4 2.330131 1_545
P10 Rh29 2.379546 1_555
P10 Rh11 2.380889 1_555
P10 Rh26 2.480754 1_555
P10 Rh26 2.485580 1_556
P10 Rh18 2.511075 1_546
P10 Rh18 2.512017 1_545
P11 Rh5 2.330131 1_555
P11 Rh27 2.379546 1_555
P11 Rh9 2.380889 1_555
P11 Rh24 2.480754 1_555
P11 Rh24 2.485580 1_556
P11 Rh19 2.511075 1_556
P11 Rh19 2.512017 1_555
P12 Rh20 2.338091 1_555
P12 Rh24 2.357387 1_565
P12 Rh9 2.544542 1_564
P12 Rh9 2.547518 1_565
P12 Rh10 2.549812 1_454
P12 Rh10 2.552782 1_455
P12 P14 3.021762 1_565
P12 P13 3.021762 1_455
P13 Rh18 2.338091 1_555
P13 Rh25 2.357386 1_555
P13 Rh10 2.544542 1_554
P13 Rh10 2.547518 1_555
P13 Rh11 2.549812 1_564
P13 Rh11 2.552782 1_565
P13 P14 3.021762 1_665
P14 Rh19 2.338091 1_555
P14 Rh26 2.357386 1_455
P14 Rh11 2.544542 1_454
P14 Rh11 2.547518 1_455
P14 Rh9 2.549812 1_554
P14 Rh9 2.552782 1_555
P15 Rh23 2.336100 1_555
P15 Rh27 2.352182 1_555
P15 Rh7 2.548402 1_555
P15 Rh7 2.549042 1_556
P15 Rh6 2.553520 1_555
P15 Rh6 2.554158 1_556
P15 P17 3.014418 1_555
P15 P16 3.014418 1_555
P16 Rh21 2.336115 1_555
P16 Rh28 2.352182 1_555
P16 Rh8 2.548402 1_555
P16 Rh8 2.549042 1_556
P16 Rh7 2.553520 1_555
P16 Rh7 2.554158 1_556
P16 P17 3.014418 1_555
P17 Rh22 2.336106 1_555
P17 Rh29 2.352182 1_555
P17 Rh6 2.548402 1_555
P17 Rh6 2.549042 1_556
P17 Rh8 2.553520 1_555
P17 Rh8 2.554158 1_556
P18 Rh13 2.324323 1_555
P18 Rh14 2.324328 1_555
P18 Rh12 2.324337 1_555
P18 Rh15 2.478559 1_555
P18 Rh17 2.478568 1_555
P18 Rh16 2.478573 1_555
Rh0 Rh23 2.746168 1_554
Rh0 Rh23 2.763695 1_555
Rh0 Rh12 2.809062 1_555
Rh0 Rh16 2.819499 1_555
Rh0 Rh16 2.837121 1_554
Rh1 Rh21 2.746168 1_454
Rh1 Rh21 2.763695 1_455
Rh1 Rh13 2.809060 1_555
Rh1 Rh17 2.819489 1_555
Rh1 Rh17 2.837112 1_554
Rh2 Rh22 2.746168 1_564
Rh2 Rh22 2.763695 1_565
Rh6 Rh8 2.810264 1_555
Rh6 Rh7 2.810264 1_555
Rh7 Rh8 2.810264 1_555
Rh10 Rh11 2.785500 1_565
Rh10 Rh9 2.785500 1_665
Rh10 Rh20 2.864630 1_656
Rh10 Rh20 2.868472 1_655
Rh10 Rh25 2.871022 1_555
Rh10 Rh25 2.872183 1_556
Rh11 Rh9 2.785500 1_655
Rh11 Rh18 2.864630 1_546
Rh11 Rh18 2.868472 1_545
Rh11 Rh26 2.871022 1_555
Rh11 Rh26 2.872183 1_556
Rh12 Rh5 2.780572 1_554
Rh12 Rh5 2.786101 1_555
Rh12 Rh17 2.883968 1_555
Rh12 Rh16 2.895090 1_555
Rh12 Rh17 2.927719 1_554
Rh12 Rh16 2.938675 1_554
Rh13 Rh3 2.780571 1_554
Rh13 Rh3 2.786101 1_555
Rh13 Rh15 2.883969 1_555
Rh13 Rh17 2.895090 1_555
Rh13 Rh15 2.927719 1_554
Rh13 Rh17 2.938675 1_554
Rh14 Rh4 2.780572 1_554
Rh14 Rh4 2.786101 1_555
Rh14 Rh2 2.809047 1_555
Rh14 Rh16 2.883968 1_555
Rh14 Rh15 2.895090 1_555
Rh14 Rh16 2.927719 1_554
Rh14 Rh15 2.938675 1_554
Rh15 Rh2 2.819489 1_555
Rh15 Rh2 2.837111 1_556
Rh15 Rh3 2.839205 1_555
Rh16 Rh4 2.839205 1_555
Rh17 Rh5 2.839204 1_555
Rh18 Rh4 2.743418 1_554
Rh18 Rh4 2.756081 1_555
Rh18 Rh26 2.807190 1_565
Rh19 Rh5 2.743418 1_554
Rh19 Rh5 2.756081 1_555
Rh19 Rh24 2.807190 1_555
Rh19 Rh9 2.864630 1_554
Rh19 Rh9 2.868472 1_555
Rh20 Rh3 2.743418 1_554
Rh20 Rh3 2.756081 1_555
Rh20 Rh25 2.807190 1_455
Rh21 Rh29 2.817048 1_555
Rh21 Rh8 2.854455 1_556
Rh21 Rh8 2.854661 1_555
Rh22 Rh27 2.817061 1_555
Rh22 Rh6 2.854456 1_556
Rh22 Rh6 2.854662 1_555
Rh23 Rh28 2.817046 1_555
Rh23 Rh7 2.854446 1_556
Rh23 Rh7 2.854652 1_555
Rh24 Rh27 2.777962 1_555
Rh24 Rh27 2.791794 1_554
Rh24 Rh9 2.871022 1_555
Rh24 Rh9 2.872183 1_554
Rh25 Rh28 2.777962 1_555
Rh25 Rh28 2.791794 1_554
Rh26 Rh29 2.777962 1_555
Rh26 Rh29 2.791793 1_554
Rh27 Rh6 2.864048 1_555
Rh27 Rh6 2.868935 1_556
Rh28 Rh7 2.864048 1_555
Rh28 Rh7 2.868935 1_556
Rh29 Rh8 2.864048 1_555
Rh29 Rh8 2.868935 1_556
