# generated using pymatgen
data_KMg30FeO32
_symmetry_space_group_name_H-M   'P 1'
_cell_length_a   8.59486900
_cell_length_b   8.59486900
_cell_length_c   8.59087100
_cell_angle_alpha   90.00000000
_cell_angle_beta   90.00000000
_cell_angle_gamma   90.00000000
_symmetry_Int_Tables_number   1
_chemical_formula_structural   KMg30FeO32
_chemical_formula_sum   'K1 Mg30 Fe1 O32'
_cell_volume   634.62287348
_cell_formula_units_Z   1
loop_
 _symmetry_equiv_pos_site_id
 _symmetry_equiv_pos_as_xyz
  1  'x, y, z'
loop_
 _atom_site_type_symbol
 _atom_site_label
 _atom_site_symmetry_multiplicity
 _atom_site_fract_x
 _atom_site_fract_y
 _atom_site_fract_z
 _atom_site_occupancy
  K  K0  1  0.00000000  0.00000000  0.50000000  1
  Mg  Mg0  1  0.50000000  0.00000000  0.00000000  1
  Mg  Mg1  1  0.50000000  0.00000000  0.50000000  1
  Mg  Mg2  1  0.00000000  0.50000000  0.00000000  1
  Mg  Mg3  1  0.00000000  0.50000000  0.50000000  1
  Mg  Mg4  1  0.50000000  0.50000000  0.00000000  1
  Mg  Mg5  1  0.50000000  0.50000000  0.50000000  1
  Mg  Mg6  1  0.25455500  0.00000000  0.25153900  1
  Mg  Mg7  1  0.25455500  0.00000000  0.74846100  1
  Mg  Mg8  1  0.74544500  0.00000000  0.25153900  1
  Mg  Mg9  1  0.74544500  0.00000000  0.74846100  1
  Mg  Mg10  1  0.25040800  0.50000000  0.25090000  1
  Mg  Mg11  1  0.25040800  0.50000000  0.74910000  1
  Mg  Mg12  1  0.74959200  0.50000000  0.25090000  1
  Mg  Mg13  1  0.74959200  0.50000000  0.74910000  1
  Mg  Mg14  1  0.00000000  0.25455500  0.25153900  1
  Mg  Mg15  1  0.00000000  0.25455500  0.74846100  1
  Mg  Mg16  1  0.50000000  0.25040800  0.25090000  1
  Mg  Mg17  1  0.50000000  0.25040800  0.74910000  1
  Mg  Mg18  1  0.00000000  0.74544500  0.25153900  1
  Mg  Mg19  1  0.00000000  0.74544500  0.74846100  1
  Mg  Mg20  1  0.50000000  0.74959200  0.25090000  1
  Mg  Mg21  1  0.50000000  0.74959200  0.74910000  1
  Mg  Mg22  1  0.25151400  0.25151400  0.00000000  1
  Mg  Mg23  1  0.25165300  0.25165300  0.50000000  1
  Mg  Mg24  1  0.74848600  0.25151400  0.00000000  1
  Mg  Mg25  1  0.74834700  0.25165300  0.50000000  1
  Mg  Mg26  1  0.25151400  0.74848600  0.00000000  1
  Mg  Mg27  1  0.25165300  0.74834700  0.50000000  1
  Mg  Mg28  1  0.74848600  0.74848600  0.00000000  1
  Mg  Mg29  1  0.74834700  0.74834700  0.50000000  1
  Fe  Fe0  1  0.00000000  0.00000000  0.00000000  1
  O  O0  1  0.00000000  0.24809800  0.00000000  1
  O  O1  1  0.00000000  0.27351500  0.50000000  1
  O  O2  1  0.50000000  0.25003800  0.00000000  1
  O  O3  1  0.50000000  0.25427000  0.50000000  1
  O  O4  1  0.00000000  0.75190200  0.00000000  1
  O  O5  1  0.00000000  0.72648500  0.50000000  1
  O  O6  1  0.50000000  0.74996200  0.00000000  1
  O  O7  1  0.50000000  0.74573000  0.50000000  1
  O  O8  1  0.24918800  0.24918800  0.24932400  1
  O  O9  1  0.24918800  0.24918800  0.75067600  1
  O  O10  1  0.75081200  0.24918800  0.24932400  1
  O  O11  1  0.75081200  0.24918800  0.75067600  1
  O  O12  1  0.24918800  0.75081200  0.24932400  1
  O  O13  1  0.24918800  0.75081200  0.75067600  1
  O  O14  1  0.75081200  0.75081200  0.24932400  1
  O  O15  1  0.75081200  0.75081200  0.75067600  1
  O  O16  1  0.00000000  0.00000000  0.22422800  1
  O  O17  1  0.00000000  0.00000000  0.77577200  1
  O  O18  1  0.50000000  0.00000000  0.24378000  1
  O  O19  1  0.50000000  0.00000000  0.75622000  1
  O  O20  1  0.00000000  0.50000000  0.24378000  1
  O  O21  1  0.00000000  0.50000000  0.75622000  1
  O  O22  1  0.50000000  0.50000000  0.24784900  1
  O  O23  1  0.50000000  0.50000000  0.75215100  1
  O  O24  1  0.24809800  0.00000000  0.00000000  1
  O  O25  1  0.27351500  0.00000000  0.50000000  1
  O  O26  1  0.75190200  0.00000000  0.00000000  1
  O  O27  1  0.72648500  0.00000000  0.50000000  1
  O  O28  1  0.25003800  0.50000000  0.00000000  1
  O  O29  1  0.25427000  0.50000000  0.50000000  1
  O  O30  1  0.74996200  0.50000000  0.00000000  1
  O  O31  1  0.74573000  0.50000000  0.50000000  1
loop_
_geom_bond_atom_site_label_1
_geom_bond_atom_site_label_2
_geom_bond_distance
_geom_bond_site_symmetry_2
K0 O1 2.350826 1_555
K0 O25 2.350826 1_555
K0 O5 2.350826 1_545
K0 O27 2.350826 1_455
K0 O17 2.369122 1_555
K0 O16 2.369122 1_555
Mg0 O19 2.094283 1_554
Mg0 O18 2.094283 1_555
Mg0 O2 2.149044 1_555
Mg0 O6 2.149044 1_545
Mg0 O26 2.165065 1_555
Mg0 O24 2.165065 1_555
Mg1 O27 1.946609 1_555
Mg1 O25 1.946609 1_555
Mg1 O7 2.185417 1_545
Mg1 O3 2.185417 1_555
Mg1 O18 2.201153 1_555
Mg1 O19 2.201153 1_555
Mg2 O21 2.094283 1_554
Mg2 O20 2.094283 1_555
Mg2 O28 2.149044 1_555
Mg2 O30 2.149044 1_455
Mg2 O4 2.165065 1_555
Mg2 O0 2.165065 1_555
Mg3 O5 1.946609 1_555
Mg3 O1 1.946609 1_555
Mg3 O29 2.185417 1_555
Mg3 O31 2.185417 1_455
Mg3 O20 2.201153 1_555
Mg3 O21 2.201153 1_555
Mg4 O22 2.129239 1_555
Mg4 O23 2.129239 1_554
Mg4 O30 2.148391 1_555
Mg4 O2 2.148391 1_555
Mg4 O28 2.148391 1_555
Mg4 O6 2.148391 1_555
Mg5 O31 2.112017 1_555
Mg5 O3 2.112017 1_555
Mg5 O7 2.112017 1_555
Mg5 O29 2.112017 1_555
Mg5 O23 2.166197 1_555
Mg5 O22 2.166197 1_555
Mg6 O18 2.110620 1_555
Mg6 O25 2.140708 1_555
Mg6 O8 2.142319 1_555
Mg6 O12 2.142319 1_545
Mg6 O24 2.161652 1_555
Mg6 O16 2.200411 1_555
Mg7 O19 2.110620 1_555
Mg7 O25 2.140708 1_555
Mg7 O9 2.142319 1_555
Mg7 O13 2.142319 1_545
Mg7 O24 2.161652 1_556
Mg7 O17 2.200411 1_555
Mg8 O18 2.110620 1_555
Mg8 O27 2.140708 1_555
Mg8 O10 2.142319 1_555
Mg8 O14 2.142319 1_545
Mg8 O26 2.161652 1_555
Mg8 O16 2.200411 1_655
Mg9 O19 2.110620 1_555
Mg9 O27 2.140708 1_555
Mg9 O11 2.142319 1_555
Mg9 O15 2.142319 1_545
Mg9 O26 2.161652 1_556
Mg9 O17 2.200411 1_655
Mg10 O29 2.140243 1_555
Mg10 O22 2.145371 1_555
Mg10 O20 2.153093 1_555
Mg10 O28 2.155452 1_555
Mg10 O12 2.155764 1_555
Mg10 O8 2.155764 1_555
Mg11 O29 2.140243 1_555
Mg11 O23 2.145371 1_555
Mg11 O21 2.153093 1_555
Mg11 O28 2.155452 1_556
Mg11 O13 2.155764 1_555
Mg11 O9 2.155764 1_555
Mg12 O31 2.140243 1_555
Mg12 O22 2.145371 1_555
Mg12 O20 2.153093 1_655
Mg12 O30 2.155452 1_555
Mg12 O14 2.155764 1_555
Mg12 O10 2.155764 1_555
Mg13 O31 2.140243 1_555
Mg13 O23 2.145371 1_555
Mg13 O21 2.153093 1_655
Mg13 O30 2.155452 1_556
Mg13 O15 2.155764 1_555
Mg13 O11 2.155764 1_555
Mg14 O20 2.110620 1_555
Mg14 O1 2.140708 1_555
Mg14 O8 2.142319 1_555
Mg14 O10 2.142319 1_455
Mg14 O0 2.161652 1_555
Mg14 O16 2.200411 1_555
Mg15 O21 2.110620 1_555
Mg15 O1 2.140708 1_555
Mg15 O9 2.142319 1_555
Mg15 O11 2.142319 1_455
Mg15 O0 2.161652 1_556
Mg15 O17 2.200411 1_555
Mg16 O3 2.140243 1_555
Mg16 O22 2.145371 1_555
Mg16 O18 2.153093 1_555
Mg16 O2 2.155452 1_555
Mg16 O10 2.155764 1_555
Mg16 O8 2.155764 1_555
Mg17 O3 2.140243 1_555
Mg17 O23 2.145371 1_555
Mg17 O19 2.153093 1_555
Mg17 O2 2.155452 1_556
Mg17 O11 2.155764 1_555
Mg17 O9 2.155764 1_555
Mg18 O20 2.110620 1_555
Mg18 O5 2.140708 1_555
Mg18 O12 2.142319 1_555
Mg18 O14 2.142319 1_455
Mg18 O4 2.161652 1_555
Mg18 O16 2.200411 1_565
Mg19 O21 2.110620 1_555
Mg19 O5 2.140708 1_555
Mg19 O13 2.142319 1_555
Mg19 O15 2.142319 1_455
Mg19 O4 2.161652 1_556
Mg19 O17 2.200411 1_565
Mg20 O7 2.140243 1_555
Mg20 O22 2.145371 1_555
Mg20 O18 2.153093 1_565
Mg20 O6 2.155452 1_555
Mg20 O14 2.155764 1_555
Mg20 O12 2.155764 1_555
Mg21 O7 2.140243 1_555
Mg21 O23 2.145371 1_555
Mg21 O19 2.153093 1_565
Mg21 O6 2.155452 1_556
Mg21 O15 2.155764 1_555
Mg21 O13 2.155764 1_555
Mg22 O2 2.135742 1_555
Mg22 O28 2.135742 1_555
Mg22 O8 2.142097 1_555
Mg22 O9 2.142097 1_554
Mg22 O0 2.161929 1_555
Mg22 O24 2.161929 1_555
Mg23 O3 2.134628 1_555
Mg23 O29 2.134628 1_555
Mg23 O8 2.153734 1_555
Mg23 O9 2.153734 1_555
Mg23 O25 2.171071 1_555
Mg23 O1 2.171071 1_555
Mg24 O30 2.135742 1_555
Mg24 O2 2.135742 1_555
Mg24 O10 2.142097 1_555
Mg24 O11 2.142097 1_554
Mg24 O26 2.161929 1_555
Mg24 O0 2.161929 1_655
Mg25 O3 2.134628 1_555
Mg25 O31 2.134628 1_555
Mg25 O11 2.153734 1_555
Mg25 O10 2.153734 1_555
Mg25 O1 2.171071 1_655
Mg25 O27 2.171071 1_555
Mg26 O6 2.135742 1_555
Mg26 O28 2.135742 1_555
Mg26 O13 2.142097 1_554
Mg26 O12 2.142097 1_555
Mg26 O4 2.161929 1_555
Mg26 O24 2.161929 1_565
Mg27 O7 2.134628 1_555
Mg27 O29 2.134628 1_555
Mg27 O13 2.153734 1_555
Mg27 O12 2.153734 1_555
Mg27 O25 2.171071 1_565
Mg27 O5 2.171071 1_555
Mg28 O6 2.135742 1_555
Mg28 O30 2.135742 1_555
Mg28 O15 2.142097 1_554
Mg28 O14 2.142097 1_555
Mg28 O4 2.161929 1_655
Mg28 O26 2.161929 1_565
Mg29 O7 2.134628 1_555
Mg29 O31 2.134628 1_555
Mg29 O14 2.153734 1_555
Mg29 O15 2.153734 1_555
Mg29 O27 2.171071 1_565
Mg29 O5 2.171071 1_655
Fe0 O16 1.926314 1_555
Fe0 O17 1.926314 1_554
Fe0 O24 2.132370 1_555
Fe0 O0 2.132370 1_555
Fe0 O26 2.132370 1_455
Fe0 O4 2.132370 1_545
