# generated using pymatgen
data_Zr2CuH2
_symmetry_space_group_name_H-M   'P 1'
_cell_length_a   12.65925568
_cell_length_b   12.65925568
_cell_length_c   12.65925568
_cell_angle_alpha   150.17191483
_cell_angle_beta   150.17191483
_cell_angle_gamma   42.68910924
_symmetry_Int_Tables_number   1
_chemical_formula_structural   Zr2CuH2
_chemical_formula_sum   'Zr16 Cu8 H16'
_cell_volume   500.65585509
_cell_formula_units_Z   8
loop_
 _symmetry_equiv_pos_site_id
 _symmetry_equiv_pos_as_xyz
  1  'x, y, z'
loop_
 _atom_site_type_symbol
 _atom_site_label
 _atom_site_symmetry_multiplicity
 _atom_site_fract_x
 _atom_site_fract_y
 _atom_site_fract_z
 _atom_site_occupancy
  Zr  Zr0_0  1  0.31929950  0.31929950  0.00000000  1
  Zr  Zr0_1  1  0.31929950  0.31929950  0.50000000  1
  Zr  Zr0_2  1  0.31929950  0.81929950  0.00000000  1
  Zr  Zr0_3  1  0.31929950  0.81929950  0.50000000  1
  Zr  Zr0_4  1  0.81929950  0.31929950  0.00000000  1
  Zr  Zr0_5  1  0.81929950  0.31929950  0.50000000  1
  Zr  Zr0_6  1  0.81929950  0.81929950  0.00000000  1
  Zr  Zr0_7  1  0.81929950  0.81929950  0.50000000  1
  Zr  Zr1_0  1  0.18070050  0.18070050  0.00000000  1
  Zr  Zr1_1  1  0.18070050  0.18070050  0.50000000  1
  Zr  Zr1_2  1  0.18070050  0.68070050  0.00000000  1
  Zr  Zr1_3  1  0.18070050  0.68070050  0.50000000  1
  Zr  Zr1_4  1  0.68070050  0.18070050  0.00000000  1
  Zr  Zr1_5  1  0.68070050  0.18070050  0.50000000  1
  Zr  Zr1_6  1  0.68070050  0.68070050  0.00000000  1
  Zr  Zr1_7  1  0.68070050  0.68070050  0.50000000  1
  Cu  Cu0_0  1  0.00000000  0.00000000  0.00000000  1
  Cu  Cu0_1  1  0.00000000  0.00000000  0.50000000  1
  Cu  Cu0_2  1  0.00000000  0.50000000  0.00000000  1
  Cu  Cu0_3  1  0.00000000  0.50000000  0.50000000  1
  Cu  Cu0_4  1  0.50000000  0.00000000  0.00000000  1
  Cu  Cu0_5  1  0.50000000  0.00000000  0.50000000  1
  Cu  Cu0_6  1  0.50000000  0.50000000  0.00000000  1
  Cu  Cu0_7  1  0.50000000  0.50000000  0.50000000  1
  H  H0_0  1  0.37500000  0.12500000  0.25000000  1
  H  H0_1  1  0.37500000  0.12500000  0.75000000  1
  H  H0_2  1  0.37500000  0.62500000  0.25000000  1
  H  H0_3  1  0.37500000  0.62500000  0.75000000  1
  H  H0_4  1  0.87500000  0.12500000  0.25000000  1
  H  H0_5  1  0.87500000  0.12500000  0.75000000  1
  H  H0_6  1  0.87500000  0.62500000  0.25000000  1
  H  H0_7  1  0.87500000  0.62500000  0.75000000  1
  H  H1_0  1  0.12500000  0.37500000  0.25000000  1
  H  H1_1  1  0.12500000  0.37500000  0.75000000  1
  H  H1_2  1  0.12500000  0.87500000  0.25000000  1
  H  H1_3  1  0.12500000  0.87500000  0.75000000  1
  H  H1_4  1  0.62500000  0.37500000  0.25000000  1
  H  H1_5  1  0.62500000  0.37500000  0.75000000  1
  H  H1_6  1  0.62500000  0.87500000  0.25000000  1
  H  H1_7  1  0.62500000  0.87500000  0.75000000  1
loop_
_geom_bond_atom_site_label_1
_geom_bond_atom_site_label_2
_geom_bond_distance
_geom_bond_site_symmetry_2
Cu0_0 Zr0_7 2.824586 1_444
Cu0_0 Zr0_4 2.824586 1_455
Cu0_0 Zr0_1 2.824586 1_555
Cu0_0 Zr0_2 2.824586 1_545
Cu0_0 Zr1_2 2.824586 1_545
Cu0_0 Zr1_4 2.824586 1_455
Cu0_0 Zr1_7 2.824586 1_444
Cu0_0 Zr1_1 2.824586 1_555
Cu0_0 Cu0_3 3.258108 1_555
Cu0_0 Cu0_5 3.258108 1_454
Cu0_0 Cu0_5 3.258108 1_555
Cu0_0 Cu0_3 3.258108 1_544
Cu0_1 Zr0_6 2.824586 1_445
Cu0_1 Zr0_3 2.824586 1_545
Cu0_1 Zr0_5 2.824586 1_455
Cu0_1 Zr0_0 2.824586 1_556
Cu0_1 Zr1_3 2.824586 1_545
Cu0_1 Zr1_6 2.824586 1_445
Cu0_1 Zr1_5 2.824586 1_455
Cu0_1 Zr1_0 2.824586 1_556
Cu0_1 Cu0_4 3.258108 1_556
Cu0_1 Cu0_2 3.258108 1_545
Cu0_1 Cu0_2 3.258108 1_556
Cu0_1 Cu0_4 3.258108 1_455
Cu0_2 Zr0_6 2.824586 1_455
Cu0_2 Zr0_5 2.824586 1_454
Cu0_2 Zr0_3 2.824586 1_555
Cu0_2 Zr0_0 2.824586 1_555
Cu0_2 Zr1_6 2.824586 1_455
Cu0_2 Zr1_3 2.824586 1_555
Cu0_2 Zr1_5 2.824586 1_454
Cu0_2 Zr1_0 2.824586 1_555
Cu0_2 Cu0_7 3.258108 1_454
Cu0_2 Cu0_7 3.258108 1_555
Cu0_3 Zr0_2 2.824586 1_556
Cu0_3 Zr0_7 2.824586 1_455
Cu0_3 Zr0_1 2.824586 1_555
Cu0_3 Zr0_4 2.824586 1_455
Cu0_3 Zr1_7 2.824586 1_455
Cu0_3 Zr1_2 2.824586 1_556
Cu0_3 Zr1_1 2.824586 1_555
Cu0_3 Zr1_4 2.824586 1_455
Cu0_3 Cu0_6 3.258108 1_455
Cu0_3 Cu0_6 3.258108 1_556
Cu0_4 Zr0_3 2.824586 1_544
Cu0_4 Zr0_5 2.824586 1_555
Cu0_4 Zr0_0 2.824586 1_555
Cu0_4 Zr0_6 2.824586 1_545
Cu0_4 Zr1_3 2.824586 1_544
Cu0_4 Zr1_0 2.824586 1_555
Cu0_4 Zr1_6 2.824586 1_545
Cu0_4 Zr1_5 2.824586 1_555
Cu0_4 Cu0_7 3.258108 1_544
Cu0_4 Cu0_7 3.258108 1_555
Cu0_5 Zr0_4 2.824586 1_556
Cu0_5 Zr0_7 2.824586 1_545
Cu0_5 Zr0_1 2.824586 1_555
Cu0_5 Zr0_2 2.824586 1_545
Cu0_5 Zr1_7 2.824586 1_545
Cu0_5 Zr1_2 2.824586 1_545
Cu0_5 Zr1_1 2.824586 1_555
Cu0_5 Zr1_4 2.824586 1_556
Cu0_5 Cu0_6 3.258108 1_545
Cu0_5 Cu0_6 3.258108 1_556
Cu0_6 Zr0_7 2.824586 1_555
Cu0_6 Zr0_4 2.824586 1_555
Cu0_6 Zr0_2 2.824586 1_555
Cu0_6 Zr0_1 2.824586 1_554
Cu0_6 Zr1_7 2.824586 1_555
Cu0_6 Zr1_1 2.824586 1_554
Cu0_6 Zr1_4 2.824586 1_555
Cu0_6 Zr1_2 2.824586 1_555
Cu0_7 Zr0_6 2.824586 1_556
Cu0_7 Zr0_5 2.824586 1_555
Cu0_7 Zr0_3 2.824586 1_555
Cu0_7 Zr0_0 2.824586 1_555
Cu0_7 Zr1_6 2.824586 1_556
Cu0_7 Zr1_0 2.824586 1_555
Cu0_7 Zr1_5 2.824586 1_555
Cu0_7 Zr1_3 2.824586 1_555
H0_0 Zr1_0 2.092644 1_555
H0_0 Zr1_5 2.092644 1_555
H0_0 Zr0_1 2.092644 1_555
H0_0 Zr0_2 2.092644 1_545
H0_0 H1_5 2.303830 1_555
H0_0 H1_0 2.303830 1_555
H0_0 H1_3 2.303830 1_544
H0_0 H1_6 2.303830 1_545
H0_1 Zr1_1 2.092644 1_555
H0_1 Zr1_4 2.092644 1_556
H0_1 Zr0_0 2.092644 1_556
H0_1 Zr0_3 2.092644 1_545
H0_1 H1_1 2.303830 1_555
H0_1 H1_2 2.303830 1_545
H0_1 H1_4 2.303830 1_556
H0_1 H1_7 2.303830 1_545
H0_2 Zr1_2 2.092644 1_555
H0_2 Zr1_7 2.092644 1_555
H0_2 Zr0_3 2.092644 1_555
H0_2 Zr0_0 2.092644 1_555
H0_2 H1_4 2.303830 1_555
H0_2 H1_1 2.303830 1_554
H0_2 H1_2 2.303830 1_555
H0_2 H1_7 2.303830 1_555
H0_3 Zr1_3 2.092644 1_555
H0_3 Zr1_6 2.092644 1_556
H0_3 Zr0_1 2.092644 1_555
H0_3 Zr0_2 2.092644 1_556
H0_3 H1_5 2.303830 1_555
H0_3 H1_6 2.303830 1_556
H0_3 H1_3 2.303830 1_555
H0_3 H1_0 2.303830 1_555
H0_4 Zr1_1 2.092644 1_655
H0_4 Zr1_4 2.092644 1_555
H0_4 Zr0_5 2.092644 1_555
H0_4 Zr0_6 2.092644 1_545
H0_4 H1_2 2.303830 1_645
H0_4 H1_1 2.303830 1_655
H0_4 H1_7 2.303830 1_544
H0_4 H1_4 2.303830 1_555
H0_5 Zr1_0 2.092644 1_656
H0_5 Zr1_5 2.092644 1_555
H0_5 Zr0_7 2.092644 1_545
H0_5 Zr0_4 2.092644 1_556
H0_5 H1_5 2.303830 1_555
H0_5 H1_0 2.303830 1_656
H0_5 H1_3 2.303830 1_645
H0_5 H1_6 2.303830 1_545
H0_6 Zr1_3 2.092644 1_655
H0_6 Zr1_6 2.092644 1_555
H0_6 Zr0_7 2.092644 1_555
H0_6 Zr0_4 2.092644 1_555
H0_6 H1_0 2.303830 1_655
H0_6 H1_5 2.303830 1_554
H0_6 H1_6 2.303830 1_555
H0_6 H1_3 2.303830 1_655
H0_7 Zr1_2 2.092644 1_656
H0_7 Zr1_7 2.092644 1_555
H0_7 Zr0_5 2.092644 1_555
H0_7 Zr0_6 2.092644 1_556
H0_7 H1_2 2.303830 1_656
H0_7 H1_7 2.303830 1_555
H0_7 H1_1 2.303830 1_655
H0_7 H1_4 2.303830 1_555
H1_0 Zr1_0 2.092644 1_555
H1_0 Zr1_3 2.092644 1_555
H1_0 Zr0_1 2.092644 1_555
H1_0 Zr0_4 2.092644 1_455
H1_1 Zr1_1 2.092644 1_555
H1_1 Zr1_2 2.092644 1_556
H1_1 Zr0_0 2.092644 1_556
H1_1 Zr0_5 2.092644 1_455
H1_2 Zr1_1 2.092644 1_565
H1_2 Zr1_2 2.092644 1_555
H1_2 Zr0_6 2.092644 1_455
H1_2 Zr0_3 2.092644 1_555
H1_3 Zr1_0 2.092644 1_566
H1_3 Zr1_3 2.092644 1_555
H1_3 Zr0_7 2.092644 1_455
H1_3 Zr0_2 2.092644 1_556
H1_4 Zr1_7 2.092644 1_555
H1_4 Zr1_4 2.092644 1_555
H1_4 Zr0_5 2.092644 1_555
H1_4 Zr0_0 2.092644 1_555
H1_5 Zr1_5 2.092644 1_555
H1_5 Zr1_6 2.092644 1_556
H1_5 Zr0_1 2.092644 1_555
H1_5 Zr0_4 2.092644 1_556
H1_6 Zr1_5 2.092644 1_565
H1_6 Zr1_6 2.092644 1_555
H1_6 Zr0_2 2.092644 1_555
H1_6 Zr0_7 2.092644 1_555
H1_7 Zr1_4 2.092644 1_566
H1_7 Zr1_7 2.092644 1_555
H1_7 Zr0_3 2.092644 1_555
H1_7 Zr0_6 2.092644 1_556
