# generated using pymatgen
data_Sm4Si2Se3O7
_symmetry_space_group_name_H-M   'P 1'
_cell_length_a   11.15777430
_cell_length_b   11.15777430
_cell_length_c   11.15777430
_cell_angle_alpha   114.41701832
_cell_angle_beta   114.41701832
_cell_angle_gamma   99.97684568
_symmetry_Int_Tables_number   1
_chemical_formula_structural   Sm4Si2Se3O7
_chemical_formula_sum   'Sm16 Si8 Se12 O28'
_cell_volume   1047.84103816
_cell_formula_units_Z   4
loop_
 _symmetry_equiv_pos_site_id
 _symmetry_equiv_pos_as_xyz
  1  'x, y, z'
loop_
 _atom_site_type_symbol
 _atom_site_label
 _atom_site_symmetry_multiplicity
 _atom_site_fract_x
 _atom_site_fract_y
 _atom_site_fract_z
 _atom_site_occupancy
  Sm  Sm0  1  0.92254500  0.42254500  0.84508900  1
  Sm  Sm1  1  0.17254500  0.82745500  0.00000000  1
  Sm  Sm2  1  0.82745500  0.17254500  0.00000000  1
  Sm  Sm3  1  0.57745500  0.07745500  0.15491100  1
  Sm  Sm4  1  0.82745500  0.82745500  0.65491100  1
  Sm  Sm5  1  0.57745500  0.42254500  0.50000000  1
  Sm  Sm6  1  0.92254500  0.07745500  0.50000000  1
  Sm  Sm7  1  0.17254500  0.17254500  0.34508900  1
  Sm  Sm8  1  0.54162700  0.30229600  0.76066900  1
  Sm  Sm9  1  0.54162700  0.78095800  0.23933100  1
  Sm  Sm10  1  0.69770400  0.45837300  0.23933100  1
  Sm  Sm11  1  0.53095800  0.79162700  0.73933100  1
  Sm  Sm12  1  0.05229600  0.79162700  0.26066900  1
  Sm  Sm13  1  0.20837300  0.46904200  0.26066900  1
  Sm  Sm14  1  0.20837300  0.94770400  0.73933100  1
  Sm  Sm15  1  0.21904200  0.45837300  0.76066900  1
  Si  Si0  1  0.78171800  0.90596500  0.12424700  1
  Si  Si1  1  0.78171800  0.65747000  0.87575300  1
  Si  Si2  1  0.09403500  0.21828200  0.87575300  1
  Si  Si3  1  0.40747000  0.03171800  0.37575300  1
  Si  Si4  1  0.65596500  0.03171800  0.62424700  1
  Si  Si5  1  0.96828200  0.59253000  0.62424700  1
  Si  Si6  1  0.96828200  0.34403500  0.37575300  1
  Si  Si7  1  0.34253000  0.21828200  0.12424700  1
  Se  Se0  1  0.00000000  0.00000000  0.00000000  1
  Se  Se1  1  0.75000000  0.25000000  0.50000000  1
  Se  Se2  1  0.25000000  0.75000000  0.50000000  1
  Se  Se3  1  0.50000000  0.50000000  0.00000000  1
  Se  Se4  1  0.37500000  0.47938500  0.60438500  1
  Se  Se5  1  0.22938500  0.12500000  0.60438500  1
  Se  Se6  1  0.52061500  0.62500000  0.39561500  1
  Se  Se7  1  0.87500000  0.77061500  0.39561500  1
  Se  Se8  1  0.37500000  0.77061500  0.89561500  1
  Se  Se9  1  0.52061500  0.12500000  0.89561500  1
  Se  Se10  1  0.22938500  0.62500000  0.10438500  1
  Se  Se11  1  0.87500000  0.47938500  0.10438500  1
  O  O0  1  0.26656000  0.26656000  0.00000000  1
  O  O1  1  0.01656000  0.51656000  0.50000000  1
  O  O2  1  0.48344000  0.98344000  0.50000000  1
  O  O3  1  0.73344000  0.73344000  0.00000000  1
  O  O4  1  0.70566500  0.47742800  0.77176300  1
  O  O5  1  0.70566500  0.93390200  0.22823700  1
  O  O6  1  0.52257200  0.29433500  0.22823700  1
  O  O7  1  0.68390200  0.95566500  0.72823700  1
  O  O8  1  0.22742800  0.95566500  0.27176300  1
  O  O9  1  0.04433500  0.31609800  0.27176300  1
  O  O10  1  0.04433500  0.77257200  0.72823700  1
  O  O11  1  0.06609800  0.29433500  0.77176300  1
  O  O12  1  0.79575500  0.55623600  0.52086100  1
  O  O13  1  0.03537600  0.27489400  0.47913900  1
  O  O14  1  0.44376400  0.20424500  0.47913900  1
  O  O15  1  0.02489400  0.04575500  0.73951800  1
  O  O16  1  0.30623600  0.28537600  0.26048200  1
  O  O17  1  0.95424500  0.97510600  0.26048200  1
  O  O18  1  0.71462400  0.69376400  0.73951800  1
  O  O19  1  0.72510600  0.96462400  0.52086100  1
  O  O20  1  0.95424500  0.69376400  0.97913900  1
  O  O21  1  0.71462400  0.97510600  0.02086100  1
  O  O22  1  0.30623600  0.04575500  0.02086100  1
  O  O23  1  0.72510600  0.20424500  0.76048200  1
  O  O24  1  0.44376400  0.96462400  0.23951800  1
  O  O25  1  0.79575500  0.27489400  0.23951800  1
  O  O26  1  0.03537600  0.55623600  0.76048200  1
  O  O27  1  0.02489400  0.28537600  0.97913900  1
loop_
_geom_bond_atom_site_label_1
_geom_bond_atom_site_label_2
_geom_bond_distance
_geom_bond_site_symmetry_2
Se0 Sm7 2.949097 1_555
Se0 Sm4 2.949097 1_444
Se0 Sm2 2.949105 1_455
Se0 Sm1 2.949105 1_545
Se1 Sm3 2.949097 1_555
Se1 Sm0 2.949097 1_555
Se1 Sm6 2.949105 1_555
Se1 Sm5 2.949105 1_555
Se2 Sm11 2.953507 1_555
Se2 Sm14 2.953507 1_555
Se2 Sm12 2.953507 1_555
Se2 Sm13 2.953507 1_555
Se3 Sm9 2.953507 1_555
Se3 Sm10 2.953507 1_555
Se3 Sm15 2.953507 1_554
Se3 Sm8 2.953507 1_554
Se4 Sm15 2.971395 1_555
Se4 Sm11 2.971395 1_555
Se4 Sm5 2.987056 1_555
Se4 Sm7 2.987058 1_555
Se4 Sm13 3.441337 1_555
Se4 Sm8 3.441337 1_555
Se4 Se8 3.519727 1_555
Se5 Sm14 2.971395 1_545
Se5 Sm8 2.971395 1_555
Se5 Sm6 2.987056 1_455
Se5 Sm7 2.987066 1_555
Se5 Sm15 3.441337 1_555
Se5 Sm12 3.441337 1_545
Se5 Se9 3.519727 1_555
Se6 Sm13 2.971395 1_555
Se6 Sm9 2.971395 1_555
Se6 Sm5 2.987056 1_555
Se6 Sm4 2.987058 1_555
Se6 Sm11 3.441337 1_555
Se6 Sm10 3.441337 1_555
Se7 Sm10 2.971395 1_555
Se7 Sm12 2.971395 1_655
Se7 Sm6 2.987056 1_565
Se7 Sm4 2.987066 1_555
Se7 Sm14 3.441337 1_655
Se7 Sm9 3.441337 1_555
Se8 Sm11 2.971395 1_555
Se8 Sm15 2.971395 1_555
Se8 Sm1 2.987056 1_556
Se8 Sm3 2.987058 1_566
Se8 Sm14 3.441337 1_555
Se8 Sm9 3.441337 1_556
Se9 Sm14 2.971395 1_545
Se9 Sm8 2.971395 1_555
Se9 Sm2 2.987056 1_556
Se9 Sm3 2.987066 1_556
Se9 Sm11 3.441337 1_545
Se9 Sm10 3.441337 1_556
Se10 Sm9 2.971395 1_555
Se10 Sm13 2.971395 1_555
Se10 Sm1 2.987056 1_555
Se10 Sm0 2.987058 1_454
Se10 Sm15 3.441337 1_554
Se10 Sm12 3.441337 1_555
Se10 Se6 3.519727 1_555
Se11 Sm12 2.971395 1_655
Se11 Sm10 2.971395 1_555
Se11 Sm2 2.987056 1_555
Se11 Sm0 2.987066 1_554
Se11 Sm8 3.441337 1_554
Se11 Sm13 3.441337 1_655
Se11 Se7 3.519727 1_555
O0 Si2 1.653677 1_554
O0 Si7 1.653679 1_555
O0 Se3 3.349307 1_555
O1 Si6 1.653677 1_455
O1 Si5 1.653679 1_455
O1 Se2 3.349307 1_555
O2 Si4 1.653677 1_565
O2 Si3 1.653679 1_565
O2 Se2 3.349307 1_555
O3 Si0 1.653677 1_555
O3 Si1 1.653679 1_554
O3 Se3 3.349307 1_555
O4 Si1 1.664384 1_555
O4 Sm8 2.357370 1_555
O4 Sm0 2.488198 1_555
O4 Sm5 2.488198 1_555
O4 Se1 3.345484 1_555
O4 Se11 3.386091 1_556
O4 Se4 3.386091 1_555
O5 Si0 1.664393 1_555
O5 Sm9 2.357370 1_555
O5 Sm3 2.488194 1_565
O5 Sm6 2.488198 1_565
O5 Se1 3.345484 1_565
O5 Se8 3.386091 1_554
O5 Se7 3.386091 1_555
O6 Si7 1.664384 1_555
O6 Sm10 2.357370 1_555
O6 Sm3 2.488198 1_555
O6 Sm5 2.488198 1_555
O6 Se1 3.345484 1_555
O6 Se6 3.386091 1_555
O6 Se9 3.386091 1_554
O7 Si4 1.664393 1_565
O7 Sm11 2.357370 1_555
O7 Sm4 2.488194 1_555
O7 Sm2 2.488198 1_566
O7 Se0 3.345484 1_666
O7 Se6 3.386091 1_555
O7 Se9 3.386091 1_565
O8 Si3 1.664384 1_565
O8 Sm12 2.357370 1_555
O8 Sm7 2.488198 1_565
O8 Sm1 2.488198 1_555
O8 Se0 3.345484 1_565
O8 Se10 3.386091 1_555
O8 Se5 3.386091 1_565
O9 Si6 1.664393 1_455
O9 Sm13 2.357370 1_555
O9 Sm7 2.488194 1_555
O9 Sm2 2.488198 1_455
O9 Se0 3.345484 1_555
O9 Se4 3.386091 1_555
O9 Se11 3.386091 1_455
O10 Si5 1.664384 1_455
O10 Sm14 2.357370 1_555
O10 Sm4 2.488198 1_455
O10 Sm1 2.488198 1_556
O10 Se0 3.345484 1_566
O10 Se7 3.386091 1_455
O10 Se8 3.386091 1_555
O11 Si2 1.664393 1_555
O11 Sm15 2.357370 1_555
O11 Sm0 2.488194 1_455
O11 Sm6 2.488198 1_455
O11 Se1 3.345484 1_455
O11 Se10 3.386091 1_556
O11 Se5 3.386091 1_555
O12 Si5 1.645647 1_555
O12 Sm10 2.483087 1_555
O12 Sm5 2.489462 1_555
O12 Sm4 2.640027 1_555
O12 Se6 3.181495 1_555
O12 Se1 3.260350 1_555
O12 Se7 3.392442 1_555
O13 Si6 1.645653 1_455
O13 Sm15 2.483086 1_555
O13 Sm6 2.489466 1_455
O13 Sm7 2.640024 1_555
O13 Se5 3.181488 1_555
O13 Se1 3.260361 1_455
O13 Se4 3.392433 1_555
O14 Si3 1.645647 1_555
O14 Sm8 2.483087 1_555
O14 Sm5 2.489462 1_555
O14 Sm7 2.640027 1_555
O14 Se4 3.181495 1_555
O14 Se1 3.260350 1_555
O14 Se5 3.392442 1_555
O15 Si2 1.645653 1_555
O15 Sm14 2.483086 1_545
O15 Sm4 2.489470 1_445
O15 Sm6 2.640017 1_455
O15 Se7 3.181488 1_445
O15 Se0 3.260361 1_556
O15 Se5 3.392433 1_555
O16 Si7 1.645669 1_555
O16 Sm13 2.483079 1_555
O16 Sm7 2.489449 1_555
O16 Sm5 2.640024 1_555
O16 Se4 3.181484 1_555
O16 Se0 3.260355 1_555
O16 Se6 3.392437 1_555
O17 Si0 1.645653 1_555
O17 Sm12 2.483086 1_655
O17 Sm7 2.489470 1_665
O17 Sm6 2.640017 1_565
O17 Se5 3.181488 1_665
O17 Se0 3.260361 1_665
O17 Se7 3.392433 1_555
O18 Si1 1.645669 1_555
O18 Sm11 2.483079 1_555
O18 Sm4 2.489449 1_555
O18 Sm5 2.640024 1_555
O18 Se6 3.181484 1_555
O18 Se0 3.260355 1_666
O18 Se4 3.392437 1_555
O19 Si4 1.645653 1_565
O19 Sm9 2.483086 1_555
O19 Sm6 2.489466 1_565
O19 Sm4 2.640024 1_555
O19 Se7 3.181488 1_555
O19 Se1 3.260361 1_565
O19 Se6 3.392433 1_555
O20 Si1 1.645647 1_555
O20 Sm12 2.483087 1_656
O20 Sm1 2.489462 1_656
O20 Sm0 2.640027 1_555
O20 Se10 3.181495 1_656
O20 Se0 3.260350 1_666
O20 Se11 3.392442 1_556
O21 Si0 1.645653 1_555
O21 Sm11 2.483086 1_554
O21 Sm2 2.489466 1_565
O21 Sm3 2.640024 1_565
O21 Se9 3.181488 1_564
O21 Se0 3.260361 1_665
O21 Se8 3.392433 1_554
O22 Si7 1.645647 1_555
O22 Sm14 2.483087 1_544
O22 Sm1 2.489462 1_545
O22 Sm3 2.640027 1_555
O22 Se8 3.181495 1_544
O22 Se0 3.260350 1_555
O22 Se9 3.392442 1_554
O23 Si4 1.645653 1_555
O23 Sm8 2.483086 1_555
O23 Sm0 2.489470 1_555
O23 Sm2 2.640017 1_556
O23 Se11 3.181488 1_556
O23 Se1 3.260361 1_555
O23 Se9 3.392433 1_555
O24 Si3 1.645669 1_565
O24 Sm9 2.483079 1_555
O24 Sm3 2.489449 1_565
O24 Sm1 2.640024 1_555
O24 Se8 3.181484 1_554
O24 Se1 3.260355 1_565
O24 Se10 3.392437 1_555
O25 Si6 1.645653 1_555
O25 Sm10 2.483086 1_555
O25 Sm3 2.489470 1_555
O25 Sm2 2.640017 1_555
O25 Se9 3.181488 1_554
O25 Se1 3.260361 1_555
O25 Se11 3.392433 1_555
O26 Si5 1.645669 1_455
O26 Sm15 2.483079 1_555
O26 Sm0 2.489449 1_455
O26 Sm1 2.640024 1_556
O26 Se10 3.181484 1_556
O26 Se1 3.260355 1_455
O26 Se8 3.392437 1_555
O27 Si2 1.645653 1_555
O27 Sm13 2.483086 1_556
O27 Sm2 2.489466 1_456
O27 Sm0 2.640024 1_455
O27 Se11 3.181488 1_456
O27 Se0 3.260361 1_556
O27 Se10 3.392433 1_556
