# generated using pymatgen
data_CaTiP2O7
_symmetry_space_group_name_H-M   'P 1'
_cell_length_a   8.87145800
_cell_length_b   7.42697500
_cell_length_c   9.45122135
_cell_angle_alpha   63.15715221
_cell_angle_beta   90.00000000
_cell_angle_gamma   90.00000000
_symmetry_Int_Tables_number   1
_chemical_formula_structural   CaTiP2O7
_chemical_formula_sum   'Ca4 Ti4 P8 O28'
_cell_volume   555.62358038
_cell_formula_units_Z   4
loop_
 _symmetry_equiv_pos_site_id
 _symmetry_equiv_pos_as_xyz
  1  'x, y, z'
loop_
 _atom_site_type_symbol
 _atom_site_label
 _atom_site_symmetry_multiplicity
 _atom_site_fract_x
 _atom_site_fract_y
 _atom_site_fract_z
 _atom_site_occupancy
  Ca  Ca0  1  0.94611300  0.71587400  0.14209700  1
  Ca  Ca1  1  0.44611300  0.28412600  0.35790300  1
  Ca  Ca2  1  0.55388700  0.71587400  0.64209700  1
  Ca  Ca3  1  0.05388700  0.28412600  0.85790300  1
  Ti  Ti0  1  0.06946300  0.21397900  0.39737700  1
  Ti  Ti1  1  0.93053700  0.78602100  0.60262300  1
  Ti  Ti2  1  0.56946300  0.78602100  0.10262300  1
  Ti  Ti3  1  0.43053700  0.21397900  0.89737700  1
  P  P0  1  0.72956300  0.05739400  0.75302900  1
  P  P1  1  0.24176000  0.52862500  0.03698500  1
  P  P2  1  0.77043700  0.05739400  0.25302900  1
  P  P3  1  0.25824000  0.52862500  0.53698500  1
  P  P4  1  0.22956300  0.94260600  0.74697100  1
  P  P5  1  0.74176000  0.47137500  0.46301500  1
  P  P6  1  0.75824000  0.47137500  0.96301500  1
  P  P7  1  0.27043700  0.94260600  0.24697100  1
  O  O0  1  0.17636000  0.73933600  0.90128200  1
  O  O1  1  0.62772500  0.09089900  0.32547300  1
  O  O2  1  0.87227500  0.09089900  0.82547300  1
  O  O3  1  0.38845200  0.56672600  0.10494000  1
  O  O4  1  0.82364000  0.26066400  0.09871800  1
  O  O5  1  0.09084500  0.98569300  0.63720300  1
  O  O6  1  0.61154800  0.43327400  0.89506000  1
  O  O7  1  0.10939500  0.46497700  0.15561800  1
  O  O8  1  0.23942400  0.38770300  0.45961700  1
  O  O9  1  0.90915500  0.01430700  0.36279700  1
  O  O10  1  0.40915500  0.98569300  0.13720300  1
  O  O11  1  0.75732500  0.90204100  0.18813400  1
  O  O12  1  0.25732500  0.09795900  0.31186600  1
  O  O13  1  0.32364000  0.73933600  0.40128200  1
  O  O14  1  0.59084500  0.01430700  0.86279700  1
  O  O15  1  0.12772500  0.90910100  0.17452700  1
  O  O16  1  0.24267500  0.09795900  0.81186600  1
  O  O17  1  0.89060500  0.53502300  0.84438200  1
  O  O18  1  0.26057600  0.38770300  0.95961700  1
  O  O19  1  0.73942400  0.61229700  0.04038300  1
  O  O20  1  0.88845200  0.43327400  0.39506000  1
  O  O21  1  0.39060500  0.46497700  0.65561800  1
  O  O22  1  0.60939500  0.53502300  0.34438200  1
  O  O23  1  0.37227500  0.90910100  0.67452700  1
  O  O24  1  0.74267500  0.90204100  0.68813400  1
  O  O25  1  0.11154800  0.56672600  0.60494000  1
  O  O26  1  0.76057600  0.61229700  0.54038300  1
  O  O27  1  0.67636000  0.26066400  0.59871800  1
loop_
_geom_bond_atom_site_label_1
_geom_bond_atom_site_label_2
_geom_bond_distance
_geom_bond_site_symmetry_2
Ca0 O15 2.268593 1_655
Ca0 O7 2.317727 1_655
Ca0 O11 2.334395 1_555
Ca0 O19 2.354986 1_555
Ca0 O20 2.418921 1_555
Ca0 O0 3.004111 1_654
Ca0 O2 3.100762 1_564
Ca1 O1 2.268593 1_555
Ca1 O22 2.317727 1_555
Ca1 O12 2.334395 1_555
Ca1 O8 2.354986 1_555
Ca1 O3 2.418921 1_555
Ca1 O27 3.004111 1_555
Ca1 O23 3.100762 1_545
Ca2 O23 2.268593 1_555
Ca2 O21 2.317727 1_555
Ca2 O24 2.334395 1_555
Ca2 O26 2.354986 1_555
Ca2 O6 2.418921 1_555
Ca2 O13 3.004111 1_555
Ca2 O1 3.100762 1_565
Ca3 O2 2.268593 1_455
Ca3 O17 2.317727 1_455
Ca3 O16 2.334395 1_555
Ca3 O18 2.354986 1_555
Ca3 O25 2.418921 1_555
Ca3 O4 3.004111 1_456
Ca3 O15 3.100762 1_546
O0 P1 1.618027 1_556
O0 P4 1.624972 1_555
O1 P2 1.512447 1_555
O2 P0 1.512447 1_555
O3 P1 1.533059 1_555
O3 Ti2 2.280268 1_555
O4 P6 1.618027 1_554
O4 P2 1.624972 1_555
O5 P4 1.547038 1_555
O5 Ti0 2.139555 1_565
O5 Ti1 2.183170 1_455
O6 P6 1.533059 1_555
O6 Ti3 2.280268 1_555
O7 P1 1.543005 1_555
O7 Ti0 2.230418 1_555
O8 P3 1.532684 1_555
O8 Ti0 2.229272 1_555
O9 P2 1.547038 1_555
O9 Ti1 2.139555 1_545
O9 Ti0 2.183170 1_655
O10 P7 1.547038 1_555
O10 Ti3 2.139555 1_564
O10 Ti2 2.183170 1_555
O11 P2 1.536250 1_565
O11 Ti2 2.191379 1_555
O12 P7 1.536250 1_545
O12 Ti0 2.191379 1_555
O13 P3 1.618027 1_555
O13 P7 1.624972 1_555
O14 P0 1.547038 1_555
O14 Ti2 2.139555 1_546
O14 Ti3 2.183170 1_555
O15 P7 1.512447 1_555
O16 P4 1.536250 1_545
O16 Ti3 2.191379 1_555
O17 P6 1.543005 1_555
O17 Ti1 2.230418 1_555
O18 P1 1.532684 1_556
O18 Ti3 2.229272 1_555
O19 P6 1.532684 1_554
O19 Ti2 2.229272 1_555
O20 P5 1.533059 1_555
O20 Ti0 2.280268 1_655
O21 P3 1.543005 1_555
O21 Ti3 2.230418 1_555
O22 P5 1.543005 1_555
O22 Ti2 2.230418 1_555
O23 P4 1.512447 1_555
O24 P0 1.536250 1_565
O24 Ti1 2.191379 1_555
O25 P3 1.533059 1_555
O25 Ti1 2.280268 1_455
O26 P5 1.532684 1_555
O26 Ti1 2.229272 1_555
O27 P5 1.618027 1_555
O27 P0 1.624972 1_555
