# generated using pymatgen
data_NaVH2(OF2)2
_symmetry_space_group_name_H-M   'P 1'
_cell_length_a   10.26389200
_cell_length_b   9.72752900
_cell_length_c   4.97654000
_cell_angle_alpha   90.00000000
_cell_angle_beta   90.00000000
_cell_angle_gamma   90.00000000
_symmetry_Int_Tables_number   1
_chemical_formula_structural   NaVH2(OF2)2
_chemical_formula_sum   'Na4 V4 H8 O8 F16'
_cell_volume   496.86923489
_cell_formula_units_Z   4
loop_
 _symmetry_equiv_pos_site_id
 _symmetry_equiv_pos_as_xyz
  1  'x, y, z'
loop_
 _atom_site_type_symbol
 _atom_site_label
 _atom_site_symmetry_multiplicity
 _atom_site_fract_x
 _atom_site_fract_y
 _atom_site_fract_z
 _atom_site_occupancy
  Na  Na0  1  0.36946800  0.09257700  0.31639500  1
  Na  Na1  1  0.63053200  0.90742300  0.81639500  1
  Na  Na2  1  0.13053200  0.59257700  0.81639500  1
  Na  Na3  1  0.86946800  0.40742300  0.31639500  1
  V  V0  1  0.39484900  0.72269500  0.27978500  1
  V  V1  1  0.60515100  0.27730500  0.77978500  1
  V  V2  1  0.10515100  0.22269500  0.77978500  1
  V  V3  1  0.89484900  0.77730500  0.27978500  1
  H  H0  1  0.31372000  0.37625600  0.00318100  1
  H  H1  1  0.68628000  0.62374400  0.50318100  1
  H  H2  1  0.18628000  0.87625600  0.50318100  1
  H  H3  1  0.81372000  0.12374400  0.00318100  1
  H  H4  1  0.21083000  0.37861700  0.23050500  1
  H  H5  1  0.78917000  0.62138300  0.73050500  1
  H  H6  1  0.28917000  0.87861700  0.73050500  1
  H  H7  1  0.71083000  0.12138300  0.23050500  1
  O  O0  1  0.22161500  0.39514200  0.03747400  1
  O  O1  1  0.77838500  0.60485800  0.53747400  1
  O  O2  1  0.27838500  0.89514200  0.53747400  1
  O  O3  1  0.72161500  0.10485800  0.03747400  1
  O  O4  1  0.97063900  0.88971700  0.10494500  1
  O  O5  1  0.02936100  0.11028300  0.60494500  1
  O  O6  1  0.52936100  0.38971700  0.60494500  1
  O  O7  1  0.47063900  0.61028300  0.10494500  1
  F  F0  1  0.48377100  0.24727800  0.04929900  1
  F  F1  1  0.51622900  0.75272200  0.54929900  1
  F  F2  1  0.01622900  0.74727800  0.54929900  1
  F  F3  1  0.98377100  0.25272200  0.04929900  1
  F  F4  1  0.45520200  0.88737100  0.12012200  1
  F  F5  1  0.54479800  0.11262900  0.62012200  1
  F  F6  1  0.04479800  0.38737100  0.62012200  1
  F  F7  1  0.95520200  0.61262900  0.12012200  1
  F  F8  1  0.25219700  0.24829900  0.56608700  1
  F  F9  1  0.74780300  0.75170100  0.06608700  1
  F  F10  1  0.24780300  0.74829900  0.06608700  1
  F  F11  1  0.75219700  0.25170100  0.56608700  1
  F  F12  1  0.20183800  0.11168800  0.00051700  1
  F  F13  1  0.79816200  0.88831200  0.50051700  1
  F  F14  1  0.29816200  0.61168800  0.50051700  1
  F  F15  1  0.70183800  0.38831200  0.00051700  1
loop_
_geom_bond_atom_site_label_1
_geom_bond_atom_site_label_2
_geom_bond_distance
_geom_bond_site_symmetry_2
Na0 O2 2.402699 1_545
Na1 O3 2.402699 1_566
Na2 O0 2.402699 1_556
Na3 O1 2.402699 1_555
H0 O0 0.978046 1_555
H1 O1 0.978046 1_555
H2 O2 0.978046 1_555
H3 O3 0.978046 1_555
H4 O0 0.980253 1_555
H5 O1 0.980253 1_555
H6 O2 0.980253 1_555
H7 O3 0.980253 1_555
O4 V3 1.599351 1_555
O5 V2 1.599351 1_555
O6 V1 1.599351 1_555
O7 V0 1.599351 1_555
F0 V1 1.853741 1_554
F0 H0 2.161749 1_555
F0 Na0 2.325466 1_555
F0 F5 2.582564 1_554
F1 V0 1.853741 1_555
F1 H1 2.161749 1_555
F1 Na1 2.325466 1_555
F1 F4 2.582564 1_555
F2 V3 1.853741 1_455
F2 H2 2.161749 1_555
F2 Na2 2.325466 1_555
F2 F7 2.582564 1_455
F3 V2 1.853741 1_654
F3 H3 2.161749 1_555
F3 Na3 2.325466 1_555
F3 F6 2.582564 1_654
F4 V0 1.892385 1_555
F4 Na1 2.358210 1_554
F4 Na0 2.390189 1_565
F4 H6 2.582795 1_554
F5 V1 1.892385 1_555
F5 Na0 2.358210 1_555
F5 Na1 2.390189 1_545
F5 H7 2.582795 1_555
F6 V2 1.892385 1_555
F6 Na3 2.358210 1_455
F6 Na2 2.390189 1_555
F6 F8 2.536514 1_555
F6 H4 2.582795 1_555
F7 V3 1.892385 1_555
F7 Na2 2.358210 1_654
F7 Na3 2.390189 1_555
F7 F9 2.536514 1_555
F7 H5 2.582795 1_554
F8 V2 1.863034 1_555
F8 H4 2.139227 1_555
F8 Na0 2.299443 1_555
F8 H0 2.584493 1_556
F9 V3 1.863034 1_555
F9 H5 2.139227 1_554
F9 Na1 2.299443 1_554
F9 H1 2.584493 1_555
F10 V0 1.863034 1_555
F10 H6 2.139227 1_554
F10 Na2 2.299443 1_554
F10 F4 2.536514 1_555
F10 H2 2.584493 1_555
F10 F14 2.589820 1_555
F11 V1 1.863034 1_555
F11 H7 2.139227 1_555
F11 Na3 2.299443 1_555
F11 F5 2.536514 1_555
F11 H3 2.584493 1_556
F11 F15 2.589820 1_556
F12 V2 1.832351 1_554
F12 Na0 2.337932 1_555
F12 F8 2.589820 1_554
F13 V3 1.832351 1_555
F13 Na1 2.337932 1_555
F13 F9 2.589820 1_555
F14 V0 1.832351 1_555
F14 Na2 2.337932 1_555
F15 V1 1.832351 1_554
F15 Na3 2.337932 1_555
