# generated using pymatgen
data_USiRu
_symmetry_space_group_name_H-M   'P 1'
_cell_length_a   4.20765568
_cell_length_b   6.53986833
_cell_length_c   7.48603040
_cell_angle_alpha   89.99722314
_cell_angle_beta   90.00000000
_cell_angle_gamma   90.00000000
_symmetry_Int_Tables_number   1
_chemical_formula_structural   USiRu
_chemical_formula_sum   'U4 Si4 Ru4'
_cell_volume   205.99694689
_cell_formula_units_Z   4
loop_
 _symmetry_equiv_pos_site_id
 _symmetry_equiv_pos_as_xyz
  1  'x, y, z'
loop_
 _atom_site_type_symbol
 _atom_site_label
 _atom_site_symmetry_multiplicity
 _atom_site_fract_x
 _atom_site_fract_y
 _atom_site_fract_z
 _atom_site_occupancy
  U  U0  1  0.25000000  0.34739155  0.49369934  1
  U  U1  1  0.25000000  0.15251054  -0.00628943  1
  U  U2  1  0.75000000  0.65258207  0.50630747  1
  U  U3  1  0.75000000  0.84753557  0.00628271  1
  Si  Si0  1  0.25000000  0.88757773  0.30496204  1
  Si  Si1  1  0.25000000  0.61242808  0.80497403  1
  Si  Si2  1  0.75000000  0.11242309  0.69502147  1
  Si  Si3  1  0.75000000  0.38757047  0.19503380  1
  Ru  Ru0  1  0.25000000  0.92808949  0.62854509  1
  Ru  Ru1  1  0.25000000  0.57198066  0.12851547  1
  Ru  Ru2  1  0.75000000  0.07194712  0.37146100  1
  Ru  Ru3  1  0.75000000  0.42796262  0.87148602  1
loop_
_geom_bond_atom_site_label_1
_geom_bond_atom_site_label_2
_geom_bond_distance
_geom_bond_site_symmetry_2
U0 U2 2.901492 1_455
U0 U2 2.901492 1_555
U1 U3 2.900508 1_545
U1 U3 2.900508 1_445
Si0 U1 2.903563 1_565
Si0 U2 3.009922 1_555
Si0 U2 3.009922 1_455
Si0 U3 3.081246 1_455
Si0 U3 3.081246 1_555
Si1 U0 2.904242 1_555
Si1 U3 3.010233 1_556
Si1 U3 3.010233 1_456
Si1 U2 3.081220 1_455
Si1 U2 3.081220 1_555
Si2 U3 2.903445 1_546
Si2 U0 3.009744 1_655
Si2 U0 3.009744 1_555
Si2 U1 3.081324 1_556
Si2 U1 3.081324 1_656
Si3 U2 2.904139 1_555
Si3 U1 3.010128 1_655
Si3 U1 3.010128 1_555
Si3 U0 3.081228 1_655
Si3 U0 3.081228 1_555
Ru0 Si0 2.436811 1_555
Ru0 Si1 2.450674 1_555
Ru0 Si2 2.475292 1_465
Ru0 Si2 2.475292 1_565
Ru0 U2 2.917196 1_555
Ru0 U2 2.917196 1_455
Ru0 U0 2.922036 1_565
Ru0 U1 3.102785 1_566
Ru1 Si1 2.436430 1_554
Ru1 Si0 2.450499 1_555
Ru1 Si3 2.475576 1_455
Ru1 Si3 2.475576 1_555
Ru1 U3 2.917322 1_455
Ru1 U3 2.917322 1_555
Ru1 U1 2.923053 1_555
Ru1 U0 3.103301 1_555
Ru2 Si2 2.436618 1_555
Ru2 Si3 2.450458 1_555
Ru2 Si0 2.475440 1_545
Ru2 Si0 2.475440 1_645
Ru2 U0 2.916943 1_655
Ru2 U0 2.916943 1_555
Ru2 U2 2.922424 1_545
Ru2 U3 3.102840 1_545
Ru3 Si3 2.436438 1_556
Ru3 Si2 2.450254 1_555
Ru3 Si1 2.475742 1_555
Ru3 Si1 2.475742 1_655
Ru3 U1 2.916887 1_556
Ru3 U1 2.916887 1_656
Ru3 U3 2.923663 1_556
Ru3 U2 3.103359 1_555
