# generated using pymatgen
data_KAl3(P2O9)4
_symmetry_space_group_name_H-M   'P 1'
_cell_length_a   9.75405693
_cell_length_b   9.75405693
_cell_length_c   17.21070291
_cell_angle_alpha   89.17744725
_cell_angle_beta   89.17744725
_cell_angle_gamma   58.59150918
_symmetry_Int_Tables_number   1
_chemical_formula_structural   KAl3(P2O9)4
_chemical_formula_sum   'K2 Al6 P16 O72'
_cell_volume   1397.33460015
_cell_formula_units_Z   2
loop_
 _symmetry_equiv_pos_site_id
 _symmetry_equiv_pos_as_xyz
  1  'x, y, z'
loop_
 _atom_site_type_symbol
 _atom_site_label
 _atom_site_symmetry_multiplicity
 _atom_site_fract_x
 _atom_site_fract_y
 _atom_site_fract_z
 _atom_site_occupancy
  K  K0  1  0.24140100  0.75859900  0.25000000  1
  K  K1  1  0.75859900  0.24140100  0.75000000  1
  Al  Al0  1  0.23633000  0.18976600  0.25979500  1
  Al  Al1  1  0.76367000  0.81023400  0.74020500  1
  Al  Al2  1  0.81023400  0.76367000  0.24020500  1
  Al  Al3  1  0.18976600  0.23633000  0.75979500  1
  Al  Al4  1  0.65917100  0.34082900  0.25000000  1
  Al  Al5  1  0.34082900  0.65917100  0.75000000  1
  P  P0  1  0.87384800  0.01377300  0.14073400  1
  P  P1  1  0.12615200  0.98622700  0.85926600  1
  P  P2  1  0.98622700  0.12615200  0.35926600  1
  P  P3  1  0.01377300  0.87384800  0.64073400  1
  P  P4  1  0.61120500  0.63571300  0.35528500  1
  P  P5  1  0.38879500  0.36428700  0.64471500  1
  P  P6  1  0.36428700  0.38879500  0.14471500  1
  P  P7  1  0.63571300  0.61120500  0.85528500  1
  P  P8  1  0.46821600  0.89064500  0.14570200  1
  P  P9  1  0.53178400  0.10935500  0.85429800  1
  P  P10  1  0.10935500  0.53178400  0.35429800  1
  P  P11  1  0.89064500  0.46821600  0.64570200  1
  P  P12  1  0.58070400  0.09077500  0.34352100  1
  P  P13  1  0.41929600  0.90922500  0.65647900  1
  P  P14  1  0.90922500  0.41929600  0.15647900  1
  P  P15  1  0.09077500  0.58070400  0.84352100  1
  O  O0  1  0.27897500  0.14515800  0.51382900  1
  O  O1  1  0.72102500  0.85484200  0.48617100  1
  O  O2  1  0.85484200  0.72102500  0.98617100  1
  O  O3  1  0.14515800  0.27897500  0.01382900  1
  O  O4  1  0.32581700  0.27576800  0.18942000  1
  O  O5  1  0.67418300  0.72423200  0.81058000  1
  O  O6  1  0.72423200  0.67418300  0.31058000  1
  O  O7  1  0.27576800  0.32581700  0.68942000  1
  O  O8  1  0.57883400  0.24437000  0.31994600  1
  O  O9  1  0.42116600  0.75563000  0.68005400  1
  O  O10  1  0.75563000  0.42116600  0.18005400  1
  O  O11  1  0.24437000  0.57883400  0.81994600  1
  O  O12  1  0.44232600  0.30900800  0.06477900  1
  O  O13  1  0.55767400  0.69099200  0.93522100  1
  O  O14  1  0.69099200  0.55767400  0.43522100  1
  O  O15  1  0.30900800  0.44232600  0.56477900  1
  O  O16  1  0.14096900  0.10176100  0.32254600  1
  O  O17  1  0.85903100  0.89823900  0.67745400  1
  O  O18  1  0.89823900  0.85903100  0.17745400  1
  O  O19  1  0.10176100  0.14096900  0.82254600  1
  O  O20  1  0.62879000  0.85733500  0.17607300  1
  O  O21  1  0.37121000  0.14266500  0.82392700  1
  O  O22  1  0.14266500  0.37121000  0.32392700  1
  O  O23  1  0.85733500  0.62879000  0.67607300  1
  O  O24  1  0.82422700  0.02058000  0.05347600  1
  O  O25  1  0.17577300  0.97942000  0.94652400  1
  O  O26  1  0.97942000  0.17577300  0.44652400  1
  O  O27  1  0.02058000  0.82422700  0.55347600  1
  O  O28  1  0.42927200  0.96871100  0.06329000  1
  O  O29  1  0.57072800  0.03128900  0.93671000  1
  O  O30  1  0.03128900  0.57072800  0.43671000  1
  O  O31  1  0.96871100  0.42927200  0.56329000  1
  O  O32  1  0.60074500  0.07405200  0.43478100  1
  O  O33  1  0.39925500  0.92594800  0.56521900  1
  O  O34  1  0.92594800  0.39925500  0.06521900  1
  O  O35  1  0.07405200  0.60074500  0.93478100  1
  O  O36  1  0.41979200  0.10775000  0.32333200  1
  O  O37  1  0.58020800  0.89225000  0.67666800  1
  O  O38  1  0.89225000  0.58020800  0.17666800  1
  O  O39  1  0.10775000  0.41979200  0.82333200  1
  O  O40  1  0.46635000  0.43033800  0.19442900  1
  O  O41  1  0.53365000  0.56966200  0.80557100  1
  O  O42  1  0.56966200  0.53365000  0.30557100  1
  O  O43  1  0.43033800  0.46635000  0.69442900  1
  O  O44  1  0.67028700  0.26569700  0.01682300  1
  O  O45  1  0.32971300  0.73430200  0.98317700  1
  O  O46  1  0.73430200  0.32971300  0.48317700  1
  O  O47  1  0.26569700  0.67028700  0.51682300  1
  O  O48  1  0.33485500  0.99646200  0.20419000  1
  O  O49  1  0.66514500  0.00353800  0.79581000  1
  O  O50  1  0.00353800  0.66514500  0.29581000  1
  O  O51  1  0.99646200  0.33485500  0.70419000  1
  O  O52  1  0.71846100  0.94265500  0.30451500  1
  O  O53  1  0.28153900  0.05734500  0.69548500  1
  O  O54  1  0.05734500  0.28153900  0.19548500  1
  O  O55  1  0.94265500  0.71846100  0.80451500  1
  O  O56  1  0.46736900  0.73629400  0.12864800  1
  O  O57  1  0.53263100  0.26370600  0.87135200  1
  O  O58  1  0.26370600  0.53263100  0.37135200  1
  O  O59  1  0.73629400  0.46736900  0.62864800  1
  O  O60  1  0.45662900  0.79146100  0.38003300  1
  O  O61  1  0.54337100  0.20853900  0.61996700  1
  O  O62  1  0.20853900  0.54337100  0.11996700  1
  O  O63  1  0.79146100  0.45662900  0.88003300  1
  O  O64  1  0.03541200  0.00539200  0.13376000  1
  O  O65  1  0.96458800  0.99460800  0.86624000  1
  O  O66  1  0.99460800  0.96458800  0.36624000  1
  O  O67  1  0.00539200  0.03541200  0.63376000  1
  O  O68  1  0.74848900  0.16093100  0.18530700  1
  O  O69  1  0.25151100  0.83906900  0.81469300  1
  O  O70  1  0.83906900  0.25151100  0.31469300  1
  O  O71  1  0.16093100  0.74848900  0.68530700  1
loop_
_geom_bond_atom_site_label_1
_geom_bond_atom_site_label_2
_geom_bond_distance
_geom_bond_site_symmetry_2
K0 O58 2.940840 1_555
K0 O56 2.940840 1_555
K0 O40 2.947261 1_555
K0 O42 2.947261 1_555
K0 O64 2.961429 1_565
K0 O66 2.961429 1_455
K0 O50 2.994448 1_555
K0 O48 2.994448 1_555
K0 O60 3.221074 1_555
K0 O62 3.221074 1_555
K0 O18 3.223310 1_455
K0 O16 3.223310 1_565
K1 O57 2.940840 1_555
K1 O59 2.940840 1_555
K1 O43 2.947261 1_555
K1 O41 2.947261 1_555
K1 O67 2.961429 1_655
K1 O65 2.961429 1_545
K1 O49 2.994448 1_555
K1 O51 2.994448 1_555
K1 O63 3.221074 1_555
K1 O61 3.221074 1_555
K1 O17 3.223310 1_545
K1 O19 3.223310 1_655
Al0 O54 1.863453 1_555
Al0 O22 1.878049 1_555
Al0 O48 1.879180 1_545
Al0 O16 1.882863 1_555
Al0 O36 1.891306 1_555
Al0 O4 1.906893 1_555
Al1 O55 1.863453 1_555
Al1 O23 1.878049 1_555
Al1 O49 1.879180 1_565
Al1 O17 1.882863 1_555
Al1 O37 1.891306 1_555
Al1 O5 1.906893 1_555
Al2 O52 1.863453 1_555
Al2 O20 1.878049 1_555
Al2 O50 1.879180 1_655
Al2 O18 1.882863 1_555
Al2 O38 1.891306 1_555
Al2 O6 1.906893 1_555
Al3 O53 1.863453 1_555
Al3 O21 1.878049 1_555
Al3 O51 1.879180 1_455
Al3 O19 1.882863 1_555
Al3 O39 1.891306 1_555
Al3 O7 1.906893 1_555
Al4 O70 1.874211 1_555
Al4 O68 1.874211 1_555
Al4 O40 1.878973 1_555
Al4 O42 1.878973 1_555
Al4 O8 1.912406 1_555
Al4 O10 1.912406 1_555
Al5 O71 1.874211 1_555
Al5 O69 1.874211 1_555
Al5 O41 1.878973 1_555
Al5 O43 1.878973 1_555
Al5 O11 1.912406 1_555
Al5 O9 1.912406 1_555
O0 O33 2.022732 1_545
O1 O32 2.022732 1_565
O2 O35 2.022732 1_655
O3 O34 2.022732 1_455
O4 P6 1.531915 1_555
O5 P7 1.531915 1_555
O6 P4 1.531915 1_555
O7 P5 1.531915 1_555
O8 P12 1.537454 1_555
O9 P13 1.537454 1_555
O10 P14 1.537454 1_555
O11 P15 1.537454 1_555
O12 P6 1.568765 1_555
O12 O44 2.186799 1_555
O13 P7 1.568765 1_555
O13 O45 2.186802 1_555
O14 P4 1.568765 1_555
O14 O46 2.186802 1_555
O15 P5 1.568765 1_555
O15 O47 2.186799 1_555
O16 P2 1.528668 1_455
O17 P3 1.528668 1_655
O18 P0 1.528668 1_565
O19 P1 1.528668 1_545
O20 P8 1.523204 1_555
O21 P9 1.523204 1_555
O22 P10 1.523204 1_555
O23 P11 1.523204 1_555
O24 P0 1.574325 1_555
O24 O44 2.147328 1_555
O25 P1 1.574325 1_555
O25 O45 2.147335 1_555
O26 P2 1.574325 1_555
O26 O46 2.147335 1_555
O27 P3 1.574325 1_555
O27 O47 2.147328 1_555
O28 P8 1.555271 1_555
O29 P9 1.555271 1_555
O30 P10 1.555271 1_555
O31 P11 1.555271 1_555
O32 P12 1.581133 1_555
O33 P13 1.581133 1_555
O34 P14 1.581133 1_555
O35 P15 1.581133 1_555
O36 P12 1.534524 1_555
O37 P13 1.534524 1_555
O38 P14 1.534524 1_555
O39 P15 1.534524 1_555
O40 P6 1.530429 1_555
O41 P7 1.530429 1_555
O42 P4 1.530429 1_555
O43 P5 1.530429 1_555
O44 O57 2.862976 1_554
O45 O56 2.862978 1_556
O46 O59 2.862978 1_555
O47 O58 2.862976 1_555
O48 P8 1.537390 1_555
O49 P9 1.537390 1_555
O50 P10 1.537390 1_555
O51 P11 1.537390 1_555
O52 P12 1.523843 1_565
O53 P13 1.523843 1_545
O54 P14 1.523843 1_455
O55 P15 1.523843 1_655
O56 P8 1.542276 1_555
O57 P9 1.542276 1_555
O58 P10 1.542276 1_555
O59 P11 1.542276 1_555
O60 P4 1.541229 1_555
O61 P5 1.541229 1_555
O62 P6 1.541229 1_555
O63 P7 1.541229 1_555
O64 P0 1.537902 1_455
O65 P1 1.537902 1_655
O66 P2 1.537902 1_565
O67 P3 1.537902 1_545
O68 P0 1.522933 1_555
O69 P1 1.522933 1_555
O70 P2 1.522933 1_555
O71 P3 1.522933 1_555
