# generated using pymatgen
data_Sm6Cu8P8O3
_symmetry_space_group_name_H-M   'P 1'
_cell_length_a   13.43096867
_cell_length_b   13.43096867
_cell_length_c   5.55683100
_cell_angle_alpha   90.00000000
_cell_angle_beta   90.00000000
_cell_angle_gamma   156.14637339
_symmetry_Int_Tables_number   1
_chemical_formula_structural   Sm6Cu8P8O3
_chemical_formula_sum   'Sm6 Cu8 P8 O3'
_cell_volume   405.37279879
_cell_formula_units_Z   1
loop_
 _symmetry_equiv_pos_site_id
 _symmetry_equiv_pos_as_xyz
  1  'x, y, z'
loop_
 _atom_site_type_symbol
 _atom_site_label
 _atom_site_symmetry_multiplicity
 _atom_site_fract_x
 _atom_site_fract_y
 _atom_site_fract_z
 _atom_site_occupancy
  Sm  Sm0  1  0.31446900  0.21663300  0.73446400  1
  Sm  Sm1  1  0.78336700  0.68553100  0.26553600  1
  Sm  Sm2  1  0.21663300  0.31446900  0.26553600  1
  Sm  Sm3  1  0.68553100  0.78336700  0.73446400  1
  Sm  Sm4  1  0.50000000  0.00000000  0.24978200  1
  Sm  Sm5  1  0.00000000  0.50000000  0.75021800  1
  Cu  Cu0  1  0.34631300  0.65368700  0.50000000  1
  Cu  Cu1  1  0.84479800  0.15520200  0.00000000  1
  Cu  Cu2  1  0.84607400  0.15392600  0.50000000  1
  Cu  Cu3  1  0.34615300  0.65384700  0.00000000  1
  Cu  Cu4  1  0.15392600  0.84607400  0.50000000  1
  Cu  Cu5  1  0.65384700  0.34615300  0.00000000  1
  Cu  Cu6  1  0.65368700  0.34631300  0.50000000  1
  Cu  Cu7  1  0.15520200  0.84479800  0.00000000  1
  P  P0  1  0.14051000  0.34913500  0.75527000  1
  P  P1  1  0.65086500  0.85949000  0.24473000  1
  P  P2  1  0.34913500  0.14051000  0.24473000  1
  P  P3  1  0.85949000  0.65086500  0.75527000  1
  P  P4  1  0.45719400  0.04370000  0.74904600  1
  P  P5  1  0.95630000  0.54280600  0.25095400  1
  P  P6  1  0.04370000  0.45719400  0.25095400  1
  P  P7  1  0.54280600  0.95630000  0.74904600  1
  O  O0  1  0.50000000  0.50000000  0.50000000  1
  O  O1  1  0.50000000  0.50000000  0.00000000  1
  O  O2  1  0.00000000  0.00000000  0.50000000  1
loop_
_geom_bond_atom_site_label_1
_geom_bond_atom_site_label_2
_geom_bond_distance
_geom_bond_site_symmetry_2
Cu0 P1 2.388042 1_555
Cu0 P0 2.388042 1_555
Cu0 P6 2.403977 1_555
Cu0 P7 2.403977 1_555
Cu0 Cu2 2.775679 1_565
Cu0 Cu2 2.775679 1_455
Cu0 Cu3 2.778419 1_555
Cu0 Cu3 2.778419 1_556
Cu0 Sm5 3.204193 1_555
Cu0 Sm4 3.204193 1_565
Cu0 Sm2 3.312615 1_555
Cu0 Sm3 3.312615 1_555
Cu1 P1 2.342089 1_545
Cu1 P0 2.342089 1_654
Cu1 P7 2.390162 1_544
Cu1 P6 2.390162 1_655
Cu1 Cu3 2.775900 1_545
Cu1 Cu3 2.775900 1_655
Cu1 Cu2 2.778618 1_555
Cu1 Cu2 2.778618 1_554
Cu1 Sm4 3.171770 1_555
Cu1 Sm5 3.171770 1_654
Cu2 P1 2.357865 1_545
Cu2 P0 2.357865 1_655
Cu2 P7 2.403207 1_545
Cu2 P6 2.403207 1_655
Cu2 Sm5 3.199233 1_655
Cu2 Sm4 3.199233 1_555
Cu3 P1 2.356045 1_555
Cu3 P0 2.356045 1_554
Cu3 P6 2.407666 1_555
Cu3 P7 2.407666 1_554
Cu3 Sm4 3.199820 1_565
Cu3 Sm5 3.199820 1_554
Cu4 P3 2.357865 1_455
Cu4 P2 2.357865 1_565
Cu4 P5 2.403207 1_455
Cu4 P4 2.403207 1_565
Cu4 Cu6 2.775679 1_455
Cu4 Cu6 2.775679 1_565
Cu4 Cu7 2.778618 1_556
Cu4 Cu7 2.778618 1_555
Cu4 Sm5 3.199233 1_555
Cu4 Sm4 3.199233 1_565
Cu5 P3 2.356045 1_554
Cu5 P2 2.356045 1_555
Cu5 P4 2.407666 1_554
Cu5 P5 2.407666 1_555
Cu5 Cu7 2.775900 1_655
Cu5 Cu7 2.775900 1_545
Cu5 Cu6 2.778419 1_555
Cu5 Cu6 2.778419 1_554
Cu5 Sm4 3.199820 1_555
Cu5 Sm5 3.199820 1_654
Cu6 P3 2.388042 1_555
Cu6 P2 2.388042 1_555
Cu6 P4 2.403977 1_555
Cu6 P5 2.403977 1_555
Cu6 Sm5 3.204193 1_655
Cu6 Sm4 3.204193 1_555
Cu6 Sm0 3.312615 1_555
Cu6 Sm1 3.312615 1_555
Cu7 P3 2.342089 1_454
Cu7 P2 2.342089 1_565
Cu7 P5 2.390162 1_455
Cu7 P4 2.390162 1_564
Cu7 Sm4 3.171770 1_565
Cu7 Sm5 3.171770 1_554
P0 Sm3 3.085603 1_555
P0 Sm2 3.088475 1_555
P0 Sm3 3.187525 1_445
P0 Sm2 3.189463 1_556
P1 Sm2 3.085603 1_555
P1 Sm3 3.088475 1_555
P1 Sm2 3.187525 1_665
P1 Sm3 3.189463 1_554
P2 Sm1 3.085603 1_555
P2 Sm0 3.088475 1_555
P2 Sm1 3.187525 1_445
P2 Sm0 3.189463 1_554
P3 Sm0 3.085603 1_555
P3 Sm1 3.088475 1_555
P3 Sm0 3.187525 1_665
P3 Sm1 3.189463 1_556
P4 P7 2.273561 1_545
P4 Sm5 2.997147 1_655
P4 Sm4 2.998192 1_555
P4 Sm5 3.001740 1_545
P4 Sm4 3.005762 1_556
P5 P6 2.273561 1_655
P5 Sm4 2.997147 1_555
P5 Sm5 2.998192 1_655
P5 Sm4 3.001740 1_665
P5 Sm5 3.005762 1_654
P6 Sm4 2.997147 1_565
P6 Sm5 2.998192 1_555
P6 Sm4 3.001740 1_455
P6 Sm5 3.005762 1_554
P7 Sm5 2.997147 1_555
P7 Sm4 2.998192 1_565
P7 Sm5 3.001740 1_665
P7 Sm4 3.005762 1_566
O0 Sm1 2.245962 1_555
O0 Sm3 2.245962 1_555
O0 Sm2 2.245962 1_555
O0 Sm0 2.245962 1_555
O0 O2 2.775672 1_665
O0 O2 2.775672 1_555
O0 O1 2.778415 1_555
O0 O1 2.778415 1_556
O1 Sm1 2.350334 1_555
O1 Sm3 2.350334 1_554
O1 Sm2 2.350334 1_555
O1 Sm0 2.350334 1_554
O2 Sm3 2.350231 1_445
O2 Sm1 2.350231 1_445
O2 Sm0 2.350231 1_555
O2 Sm2 2.350231 1_555
