# generated using pymatgen
data_K2Al2(SiO4)3
_symmetry_space_group_name_H-M   'P 1'
_cell_length_a   13.50428859
_cell_length_b   10.19213469
_cell_length_c   10.06854806
_cell_angle_alpha   83.59674811
_cell_angle_beta   48.59253024
_cell_angle_gamma   47.81072165
_symmetry_Int_Tables_number   1
_chemical_formula_structural   K2Al2(SiO4)3
_chemical_formula_sum   'K4 Al4 Si6 O24'
_cell_volume   616.88647382
_cell_formula_units_Z   2
loop_
 _symmetry_equiv_pos_site_id
 _symmetry_equiv_pos_as_xyz
  1  'x, y, z'
loop_
 _atom_site_type_symbol
 _atom_site_label
 _atom_site_symmetry_multiplicity
 _atom_site_fract_x
 _atom_site_fract_y
 _atom_site_fract_z
 _atom_site_occupancy
  K  K0  1  0.85490400  0.60897800  0.11362900  1
  K  K1  1  0.42248900  0.11362900  0.60897800  1
  K  K2  1  0.13637100  0.82751100  0.39509600  1
  K  K3  1  0.64102200  0.39509600  0.82751100  1
  Al  Al0  1  0.25018600  0.57243900  0.66390800  1
  Al  Al1  1  0.51346700  0.66390800  0.57243900  1
  Al  Al2  1  0.58609200  0.73653300  0.99981400  1
  Al  Al3  1  0.67756100  0.99981400  0.73653300  1
  Si  Si0  1  0.24076800  0.25923200  0.25923200  1
  Si  Si1  1  0.99076800  0.00923200  0.00923200  1
  Si  Si2  1  0.57748400  0.51251200  0.24237100  1
  Si  Si3  1  0.66763400  0.24237100  0.51251200  1
  Si  Si4  1  0.00762900  0.58236600  0.67251600  1
  Si  Si5  1  0.73748800  0.67251600  0.58236600  1
  O  O0  1  0.34949000  0.02508600  0.20666100  1
  O  O1  1  0.41876300  0.20666100  0.02508600  1
  O  O2  1  0.04333900  0.83123700  0.90051000  1
  O  O3  1  0.22491400  0.90051000  0.83123700  1
  O  O4  1  0.13124100  0.52334300  0.70848000  1
  O  O5  1  0.63693500  0.70848000  0.52334300  1
  O  O6  1  0.54152000  0.61306500  0.11875900  1
  O  O7  1  0.72665700  0.11875900  0.61306500  1
  O  O8  1  0.37412600  0.57083400  0.43180400  1
  O  O9  1  0.62323600  0.43180400  0.57083400  1
  O  O10  1  0.81819600  0.62676400  0.87587400  1
  O  O11  1  0.67916600  0.87587400  0.62676400  1
  O  O12  1  0.45220800  0.34867200  0.62010000  1
  O  O13  1  0.57901900  0.62010000  0.34867200  1
  O  O14  1  0.62990000  0.67098100  0.79779200  1
  O  O15  1  0.90132800  0.79779200  0.67098100  1
  O  O16  1  0.00778600  0.43359200  0.36416700  1
  O  O17  1  0.19445500  0.36416700  0.43359200  1
  O  O18  1  0.88583300  0.05554500  0.24221400  1
  O  O19  1  0.81640800  0.24221400  0.05554500  1
  O  O20  1  0.70293200  0.01055600  0.14163500  1
  O  O21  1  0.14487700  0.14163500  0.01055600  1
  O  O22  1  0.10836500  0.10512300  0.54706800  1
  O  O23  1  0.23944400  0.54706800  0.10512300  1
loop_
_geom_bond_atom_site_label_1
_geom_bond_atom_site_label_2
_geom_bond_distance
_geom_bond_site_symmetry_2
K0 O13 2.706134 1_555
K0 O10 2.713182 1_554
K0 O5 2.751602 1_555
K0 O4 2.758707 1_654
K0 O20 3.041881 1_565
K0 O21 3.126222 1_655
K0 K1 3.504746 1_565
K0 K1 3.504746 1_654
K1 O12 2.706124 1_555
K1 O11 2.713182 1_545
K1 O4 2.751604 1_555
K1 O5 2.758709 1_545
K1 O21 3.041881 1_556
K1 O20 3.126222 1_555
K2 O15 2.706126 1_455
K2 O8 2.713182 1_555
K2 O7 2.751600 1_465
K2 O6 2.758711 1_555
K2 O22 3.041881 1_565
K2 O23 3.126222 1_555
K2 K3 3.504746 1_554
K2 K3 3.504746 1_465
K3 O14 2.706134 1_555
K3 O9 2.713182 1_555
K3 O6 2.751610 1_556
K3 O7 2.758701 1_555
K3 O23 3.041881 1_556
K3 O22 3.126222 1_655
Al0 O8 1.749463 1_555
Al0 O4 1.762903 1_555
Al0 O12 1.764718 1_555
Al0 O2 1.771404 1_555
Al1 O9 1.749463 1_555
Al1 O5 1.762891 1_555
Al1 O13 1.764725 1_555
Al1 O3 1.771404 1_555
Al2 O10 1.749463 1_555
Al2 O6 1.762895 1_556
Al2 O14 1.764715 1_555
Al2 O0 1.771404 1_566
Al3 O11 1.749463 1_555
Al3 O7 1.762900 1_565
Al3 O15 1.764724 1_555
Al3 O1 1.771404 1_566
O0 Si0 1.636609 1_555
O0 O22 2.303950 1_555
O1 Si0 1.636609 1_555
O1 O23 2.303950 1_555
O2 Si1 1.636609 1_466
O2 O20 2.303950 1_466
O3 Si1 1.636609 1_466
O4 Si4 1.637604 1_555
O5 Si5 1.637604 1_555
O6 Si2 1.637604 1_555
O7 Si3 1.637604 1_555
O8 Si2 1.632285 1_555
O9 Si3 1.632276 1_555
O10 Si4 1.632278 1_655
O11 Si5 1.632286 1_555
O12 Si3 1.634053 1_555
O13 Si2 1.634028 1_555
O14 Si5 1.634043 1_555
O15 Si4 1.634044 1_655
O16 Si0 1.638573 1_555
O16 Si5 1.651240 1_455
O17 Si0 1.638573 1_555
O17 Si4 1.651235 1_555
O18 Si1 1.638573 1_555
O18 Si3 1.651241 1_555
O19 Si1 1.638573 1_555
O19 Si2 1.651240 1_555
O21 O3 2.303950 1_544
