# generated using pymatgen
data_SrCeCrSnO6
_symmetry_space_group_name_H-M   'P 1'
_cell_length_a   5.67623832
_cell_length_b   5.67623832
_cell_length_c   5.67623832
_cell_angle_alpha   60.00000000
_cell_angle_beta   60.00000000
_cell_angle_gamma   60.00000000
_symmetry_Int_Tables_number   1
_chemical_formula_structural   SrCeCrSnO6
_chemical_formula_sum   'Sr1 Ce1 Cr1 Sn1 O6'
_cell_volume   129.32034862
_cell_formula_units_Z   1
loop_
 _symmetry_equiv_pos_site_id
 _symmetry_equiv_pos_as_xyz
  1  'x, y, z'
loop_
 _atom_site_type_symbol
 _atom_site_label
 _atom_site_symmetry_multiplicity
 _atom_site_fract_x
 _atom_site_fract_y
 _atom_site_fract_z
 _atom_site_occupancy
  Sr  Sr0  1  0.25000000  0.25000000  0.25000000  1
  Ce  Ce0  1  0.75000000  0.75000000  0.75000000  1
  Cr  Cr0  1  0.00000000  0.00000000  0.00000000  1
  Sn  Sn0  1  0.50000000  0.50000000  0.50000000  1
  O  O0  1  0.75343805  0.24656195  0.24656195  1
  O  O1  1  0.24656195  0.75343805  0.75343805  1
  O  O2  1  0.75343805  0.24656195  0.75343805  1
  O  O3  1  0.24656195  0.75343805  0.24656195  1
  O  O4  1  0.75343805  0.75343805  0.24656195  1
  O  O5  1  0.24656195  0.24656195  0.75343805  1
loop_
_geom_bond_atom_site_label_1
_geom_bond_atom_site_label_2
_geom_bond_distance
_geom_bond_site_symmetry_2
Ce0 O1 2.838253 1_655
Ce0 O5 2.838253 1_655
Ce0 O5 2.838253 1_565
Ce0 O2 2.838253 1_555
Ce0 O3 2.838253 1_556
Ce0 O2 2.838253 1_565
Ce0 O0 2.838253 1_556
Ce0 O4 2.838253 1_555
Ce0 O1 2.838253 1_555
Ce0 O4 2.838253 1_556
Ce0 O0 2.838253 1_565
Ce0 O3 2.838253 1_655
Cr0 O3 1.979255 1_545
Cr0 O5 1.979255 1_554
Cr0 O0 1.979255 1_455
Cr0 O1 1.979255 1_544
Cr0 O4 1.979255 1_445
Cr0 O2 1.979255 1_454
O0 Sn0 2.034452 1_555
O0 Sr0 2.838253 1_655
O0 Sr0 2.838253 1_555
O1 Sn0 2.034452 1_555
O1 Sr0 2.838253 1_565
O1 Sr0 2.838253 1_556
O2 Sn0 2.034452 1_555
O2 Sr0 2.838253 1_655
O2 Sr0 2.838253 1_556
O3 Sn0 2.034452 1_555
O3 Sr0 2.838253 1_565
O3 Sr0 2.838253 1_555
O4 Sn0 2.034452 1_555
O4 Sr0 2.838253 1_565
O4 Sr0 2.838253 1_655
O5 Sn0 2.034452 1_555
O5 Sr0 2.838253 1_555
O5 Sr0 2.838253 1_556
