# generated using pymatgen
data_Ce3Co8Si
_symmetry_space_group_name_H-M   'P 1'
_cell_length_a   4.98037228
_cell_length_b   4.98037228
_cell_length_c   15.81175000
_cell_angle_alpha   90.00000000
_cell_angle_beta   90.00000000
_cell_angle_gamma   120.00000377
_symmetry_Int_Tables_number   1
_chemical_formula_structural   Ce3Co8Si
_chemical_formula_sum   'Ce6 Co16 Si2'
_cell_volume   339.65199468
_cell_formula_units_Z   2
loop_
 _symmetry_equiv_pos_site_id
 _symmetry_equiv_pos_as_xyz
  1  'x, y, z'
loop_
 _atom_site_type_symbol
 _atom_site_label
 _atom_site_symmetry_multiplicity
 _atom_site_fract_x
 _atom_site_fract_y
 _atom_site_fract_z
 _atom_site_occupancy
  Ce  Ce0  1  0.33333300  0.66666700  0.96004600  1
  Ce  Ce1  1  0.66666700  0.33333300  0.03995400  1
  Ce  Ce2  1  0.66666700  0.33333300  0.46004600  1
  Ce  Ce3  1  0.33333300  0.66666700  0.53995400  1
  Ce  Ce4  1  0.33333300  0.66666700  0.75000000  1
  Ce  Ce5  1  0.66666700  0.33333300  0.25000000  1
  Co  Co0  1  0.16641500  0.83358500  0.36979600  1
  Co  Co1  1  0.16641500  0.33283000  0.36979600  1
  Co  Co2  1  0.66717000  0.83358500  0.36979600  1
  Co  Co3  1  0.83358500  0.16641500  0.63020400  1
  Co  Co4  1  0.83358500  0.66717000  0.63020400  1
  Co  Co5  1  0.33283000  0.16641500  0.63020400  1
  Co  Co6  1  0.83358500  0.16641500  0.86979600  1
  Co  Co7  1  0.83358500  0.66717000  0.86979600  1
  Co  Co8  1  0.33283000  0.16641500  0.86979600  1
  Co  Co9  1  0.16641500  0.83358500  0.13020400  1
  Co  Co10  1  0.16641500  0.33283000  0.13020400  1
  Co  Co11  1  0.66717000  0.83358500  0.13020400  1
  Co  Co12  1  0.33333300  0.66666700  0.25000000  1
  Co  Co13  1  0.66666700  0.33333300  0.75000000  1
  Co  Co14  1  0.00000000  0.00000000  0.50000000  1
  Co  Co15  1  0.00000000  0.00000000  0.00000000  1
  Si  Si0  1  0.00000000  0.00000000  0.25000000  1
  Si  Si1  1  0.00000000  0.00000000  0.75000000  1
loop_
_geom_bond_atom_site_label_1
_geom_bond_atom_site_label_2
_geom_bond_distance
_geom_bond_site_symmetry_2
Ce0 Co8 2.870083 1_565
Ce0 Co7 2.870083 1_455
Ce0 Co6 2.870085 1_565
Ce0 Co6 2.870085 1_455
Ce0 Co7 2.870088 1_555
Ce0 Co8 2.870088 1_555
Ce0 Co15 2.943997 1_566
Ce0 Co15 2.944001 1_556
Ce0 Co15 2.944001 1_666
Ce0 Co9 3.051559 1_556
Ce0 Co10 3.051561 1_556
Ce0 Co11 3.051561 1_556
Ce0 Ce1 3.140766 1_456
Ce0 Ce1 3.140766 1_566
Ce0 Ce1 3.140775 1_556
Ce0 Ce4 3.321195 1_555
Ce1 Co10 2.870083 1_655
Ce1 Co11 2.870083 1_545
Ce1 Co9 2.870085 1_655
Ce1 Co9 2.870085 1_545
Ce1 Co11 2.870088 1_555
Ce1 Co10 2.870088 1_555
Ce1 Co15 2.943997 1_655
Ce1 Co15 2.944001 1_555
Ce1 Co15 2.944001 1_665
Ce1 Co6 3.051559 1_554
Ce1 Co7 3.051561 1_554
Ce1 Co8 3.051561 1_554
Ce1 Ce5 3.321195 1_555
Ce2 Co1 2.870083 1_655
Ce2 Co2 2.870083 1_545
Ce2 Co0 2.870085 1_655
Ce2 Co0 2.870085 1_545
Ce2 Co2 2.870088 1_555
Ce2 Co1 2.870088 1_555
Ce2 Co14 2.943997 1_655
Ce2 Co14 2.944001 1_555
Ce2 Co14 2.944001 1_665
Ce2 Co3 3.051559 1_555
Ce2 Co4 3.051561 1_555
Ce2 Co5 3.051561 1_555
Ce2 Ce3 3.140766 1_545
Ce2 Ce3 3.140766 1_655
Ce2 Ce3 3.140775 1_555
Ce2 Ce5 3.321195 1_555
Ce3 Co5 2.870083 1_565
Ce3 Co4 2.870083 1_455
Ce3 Co3 2.870085 1_565
Ce3 Co3 2.870085 1_455
Ce3 Co4 2.870088 1_555
Ce3 Co5 2.870088 1_555
Ce3 Co14 2.943997 1_565
Ce3 Co14 2.944001 1_665
Ce3 Co14 2.944001 1_555
Ce3 Co0 3.051559 1_555
Ce3 Co2 3.051561 1_555
Ce3 Co1 3.051561 1_555
Ce3 Ce4 3.321195 1_555
Ce4 Co13 2.875416 1_455
Ce4 Co13 2.875416 1_565
Ce4 Si1 2.875416 1_565
Ce4 Si1 2.875421 1_665
Ce4 Si1 2.875421 1_555
Ce4 Co13 2.875425 1_555
Ce4 Co8 3.128730 1_565
Ce4 Co5 3.128730 1_565
Ce4 Co7 3.128730 1_455
Ce4 Co4 3.128730 1_455
Ce4 Co6 3.128732 1_565
Ce4 Co3 3.128732 1_565
Ce4 Co6 3.128732 1_455
Ce4 Co3 3.128732 1_455
Ce4 Co7 3.128734 1_555
Ce4 Co4 3.128734 1_555
Ce4 Co8 3.128734 1_555
Ce4 Co5 3.128734 1_555
Ce5 Co12 2.875416 1_545
Ce5 Co12 2.875416 1_655
Ce5 Si0 2.875416 1_655
Ce5 Si0 2.875421 1_555
Ce5 Si0 2.875421 1_665
Ce5 Co12 2.875425 1_555
Ce5 Co1 3.128730 1_655
Ce5 Co2 3.128730 1_545
Ce5 Co10 3.128730 1_655
Ce5 Co11 3.128730 1_545
Ce5 Co0 3.128732 1_655
Ce5 Co0 3.128732 1_545
Ce5 Co9 3.128732 1_655
Ce5 Co9 3.128732 1_545
Ce5 Co2 3.128734 1_555
Ce5 Co1 3.128734 1_555
Ce5 Co11 3.128734 1_555
Ce5 Co10 3.128734 1_555
Co0 Si0 2.376701 1_565
Co0 Co12 2.379324 1_555
Co0 Co2 2.486426 1_455
Co0 Co1 2.486426 1_565
Co0 Co1 2.493946 1_555
Co0 Co2 2.493946 1_555
Co0 Co14 2.509828 1_565
Co1 Si0 2.376701 1_555
Co1 Co12 2.379327 1_555
Co1 Co2 2.486426 1_445
Co1 Co2 2.493946 1_555
Co1 Co14 2.509828 1_555
Co2 Si0 2.376701 1_665
Co3 Si1 2.376701 1_655
Co3 Co4 2.486426 1_545
Co3 Co5 2.486426 1_655
Co3 Co5 2.493946 1_555
Co3 Co4 2.493946 1_555
Co4 Si1 2.376701 1_665
Co4 Co5 2.486426 1_665
Co4 Co5 2.493946 1_555
Co5 Si1 2.376701 1_555
Co6 Si1 2.376701 1_655
Co6 Co7 2.486426 1_545
Co6 Co8 2.486426 1_655
Co6 Co8 2.493946 1_555
Co6 Co7 2.493946 1_555
Co7 Si1 2.376701 1_665
Co7 Co8 2.486426 1_665
Co7 Co8 2.493946 1_555
Co8 Si1 2.376701 1_555
Co9 Si0 2.376701 1_565
Co10 Si0 2.376701 1_555
Co10 Co12 2.379327 1_555
Co10 Co11 2.486426 1_445
Co10 Co9 2.486426 1_545
Co10 Co11 2.493946 1_555
Co10 Co9 2.493946 1_555
Co10 Co15 2.509828 1_555
Co11 Si0 2.376701 1_665
Co11 Co12 2.379327 1_555
Co11 Co9 2.486426 1_655
Co11 Co9 2.493946 1_555
Co11 Co15 2.509828 1_665
Co12 Co9 2.379324 1_555
Co12 Co2 2.379327 1_555
Co12 Si0 2.875416 1_565
Co12 Si0 2.875421 1_555
Co12 Si0 2.875421 1_665
Co13 Co6 2.379324 1_555
Co13 Co3 2.379324 1_555
Co13 Co5 2.379327 1_555
Co13 Co7 2.379327 1_555
Co13 Co4 2.379327 1_555
Co13 Co8 2.379327 1_555
Co13 Si1 2.875416 1_655
Co13 Si1 2.875421 1_665
Co13 Si1 2.875421 1_555
Co14 Co4 2.509828 1_445
Co14 Co5 2.509828 1_555
Co14 Co2 2.509828 1_445
Co14 Co3 2.509828 1_455
Co15 Co7 2.509828 1_444
Co15 Co8 2.509828 1_554
Co15 Co9 2.509828 1_545
Co15 Co6 2.509828 1_454
