# generated using pymatgen
data_Nd2Sb
_symmetry_space_group_name_H-M   'P 1'
_cell_length_a   4.56467255
_cell_length_b   4.56467242
_cell_length_c   9.49176158
_cell_angle_alpha   103.91098245
_cell_angle_beta   103.91098360
_cell_angle_gamma   90.00659233
_symmetry_Int_Tables_number   1
_chemical_formula_structural   Nd2Sb
_chemical_formula_sum   'Nd4 Sb2'
_cell_volume   185.98918046
_cell_formula_units_Z   2
loop_
 _symmetry_equiv_pos_site_id
 _symmetry_equiv_pos_as_xyz
  1  'x, y, z'
loop_
 _atom_site_type_symbol
 _atom_site_label
 _atom_site_symmetry_multiplicity
 _atom_site_fract_x
 _atom_site_fract_y
 _atom_site_fract_z
 _atom_site_occupancy
  Nd  Nd0  1  0.17991440  0.17991439  0.35981770  1
  Nd  Nd1  1  0.82006046  0.82006048  0.64013443  1
  Nd  Nd2  1  0.00001900  0.50001925  1.00003258  1
  Nd  Nd3  1  0.50001925  1.00001900  1.00003257  1
  Sb  Sb0  1  0.63793768  0.63793768  0.27611502  1
  Sb  Sb1  1  0.36204920  0.36204920  0.72386770  1
loop_
_geom_bond_atom_site_label_1
_geom_bond_atom_site_label_2
_geom_bond_distance
_geom_bond_site_symmetry_2
Nd0 Sb1 3.249597 1_555
Nd0 Sb0 3.312074 1_555
Nd0 Sb0 3.313239 1_545
Nd0 Sb0 3.313239 1_455
Nd0 Sb0 3.313679 1_445
Nd0 Nd2 3.939888 1_554
Nd0 Nd3 3.939888 1_544
Nd0 Nd2 3.939952 1_544
Nd0 Nd3 3.939952 1_444
Nd0 Nd1 4.083820 1_555
Nd0 Nd1 4.083870 1_445
Nd0 Nd1 4.084139 1_545
Nd0 Nd1 4.084139 1_455
Nd1 Sb0 3.249324 1_555
Nd1 Sb1 3.312157 1_555
Nd1 Sb1 3.313300 1_565
Nd1 Sb1 3.313300 1_655
Nd1 Sb1 3.313720 1_665
Nd1 Nd3 3.940691 1_555
Nd1 Nd2 3.940691 1_655
Nd1 Nd2 3.940793 1_665
Nd1 Nd3 3.940793 1_655
Nd2 Nd3 3.227525 1_445
Nd2 Nd3 3.227525 1_555
Nd2 Nd3 3.227895 1_455
Nd2 Nd3 3.227898 1_545
Nd2 Sb0 3.358543 1_556
Nd2 Sb1 3.359114 1_455
Nd2 Sb0 3.359258 1_456
Nd2 Sb1 3.359768 1_555
Nd3 Sb0 3.358543 1_566
Nd3 Sb1 3.359114 1_555
Nd3 Sb0 3.359258 1_556
Nd3 Sb1 3.359767 1_565
