# generated using pymatgen
data_LiLuZnFeO4
_symmetry_space_group_name_H-M   'P 1'
_cell_length_a   3.29657151
_cell_length_b   3.29657178
_cell_length_c   10.56421010
_cell_angle_alpha   82.19864937
_cell_angle_beta   97.80135291
_cell_angle_gamma   119.90122686
_symmetry_Int_Tables_number   1
_chemical_formula_structural   LiLuZnFeO4
_chemical_formula_sum   'Li1 Lu1 Zn1 Fe1 O4'
_cell_volume   98.29182972
_cell_formula_units_Z   1
loop_
 _symmetry_equiv_pos_site_id
 _symmetry_equiv_pos_as_xyz
  1  'x, y, z'
loop_
 _atom_site_type_symbol
 _atom_site_label
 _atom_site_symmetry_multiplicity
 _atom_site_fract_x
 _atom_site_fract_y
 _atom_site_fract_z
 _atom_site_occupancy
  Li  Li0  1  0.40847700  0.59152300  0.22286500  1
  Lu  Lu0  1  0.99844600  0.00155400  0.98042800  1
  Zn  Zn0  1  0.80449500  0.19550500  0.41994800  1
  Fe  Fe0  1  0.21482700  0.78517300  0.68081800  1
  O  O0  1  0.86827500  0.13172500  0.60939600  1
  O  O1  1  0.11667500  0.88332500  0.34552600  1
  O  O2  1  0.69751400  0.30248600  0.08942500  1
  O  O3  1  0.30200600  0.69799400  0.87302400  1
loop_
_geom_bond_atom_site_label_1
_geom_bond_atom_site_label_2
_geom_bond_distance
_geom_bond_site_symmetry_2
Li0 O1 2.264773 1_555
Li0 O1 2.309327 1_655
Li0 O1 2.309328 1_545
Li0 O2 2.331837 1_555
Li0 O2 2.372638 1_455
Li0 O2 2.372638 1_565
Lu0 O3 2.206862 1_545
Lu0 O3 2.206862 1_655
Lu0 O2 2.212603 1_556
Lu0 O3 2.214758 1_645
Lu0 O2 2.220638 1_656
Lu0 O2 2.220638 1_546
Fe0 O0 2.003207 1_465
Fe0 O3 2.013366 1_555
Fe0 O0 2.066007 1_565
Fe0 O0 2.066007 1_455
O0 Zn0 1.977243 1_555
O1 Zn0 2.056142 1_565
O1 Zn0 2.056143 1_455
O1 Zn0 2.057075 1_465
