# generated using pymatgen
data_CaV2O4
_symmetry_space_group_name_H-M   'P 1'
_cell_length_a   5.04128622
_cell_length_b   5.97589314
_cell_length_c   11.13460350
_cell_angle_alpha   90.00000000
_cell_angle_beta   90.00000000
_cell_angle_gamma   90.00000000
_symmetry_Int_Tables_number   1
_chemical_formula_structural   CaV2O4
_chemical_formula_sum   'Ca4 V8 O16'
_cell_volume   335.44315544
_cell_formula_units_Z   4
loop_
 _symmetry_equiv_pos_site_id
 _symmetry_equiv_pos_as_xyz
  1  'x, y, z'
loop_
 _atom_site_type_symbol
 _atom_site_label
 _atom_site_symmetry_multiplicity
 _atom_site_fract_x
 _atom_site_fract_y
 _atom_site_fract_z
 _atom_site_occupancy
  Ca  Ca0  1  0.34065550  0.00000000  0.50000000  1
  Ca  Ca1  1  0.65934450  0.50000000  0.00000000  1
  Ca  Ca2  1  0.03265454  0.00000000  0.00000000  1
  Ca  Ca3  1  0.96734546  0.50000000  0.50000000  1
  V  V0  1  0.01466939  0.50000000  0.23915143  1
  V  V1  1  0.01466939  0.50000000  0.76084857  1
  V  V2  1  0.98533061  0.00000000  0.26084857  1
  V  V3  1  0.98533061  0.00000000  0.73915143  1
  V  V4  1  0.50000000  0.25000000  0.25000000  1
  V  V5  1  0.50000000  0.75000000  0.75000000  1
  V  V6  1  0.50000000  0.75000000  0.25000000  1
  V  V7  1  0.50000000  0.25000000  0.75000000  1
  O  O0  1  0.34686726  0.50000000  0.14912577  1
  O  O1  1  0.34686726  0.50000000  0.85087423  1
  O  O2  1  0.65313274  0.00000000  0.35087423  1
  O  O3  1  0.65313274  0.00000000  0.64912577  1
  O  O4  1  0.68069926  0.50000000  0.33838680  1
  O  O5  1  0.68069926  0.50000000  0.66161320  1
  O  O6  1  0.31930074  0.00000000  0.16161320  1
  O  O7  1  0.31930074  0.00000000  0.83838680  1
  O  O8  1  0.16383224  0.25390602  0.35249933  1
  O  O9  1  0.16383224  0.74609398  0.64750067  1
  O  O10  1  0.83616776  0.75390602  0.14750067  1
  O  O11  1  0.83616776  0.24609398  0.85249933  1
  O  O12  1  0.83616776  0.24609398  0.14750067  1
  O  O13  1  0.83616776  0.75390602  0.85249933  1
  O  O14  1  0.16383224  0.74609398  0.35249933  1
  O  O15  1  0.16383224  0.25390602  0.64750067  1
loop_
_geom_bond_atom_site_label_1
_geom_bond_atom_site_label_2
_geom_bond_distance
_geom_bond_site_symmetry_2
Ca0 O2 2.288809 1_555
Ca0 O3 2.288809 1_555
Ca0 O9 2.407119 1_545
Ca0 O14 2.407119 1_545
Ca0 O15 2.407119 1_555
Ca0 O8 2.407119 1_555
Ca1 O1 2.288809 1_554
Ca1 O0 2.288809 1_555
Ca1 O12 2.407119 1_555
Ca1 O11 2.407119 1_554
Ca1 O13 2.407119 1_554
Ca1 O10 2.407119 1_555
Ca2 O6 2.307902 1_555
Ca2 O7 2.307902 1_554
Ca2 O13 2.416876 1_444
Ca2 O10 2.416876 1_445
Ca2 O11 2.416876 1_454
Ca2 O12 2.416876 1_455
Ca3 O5 2.307902 1_555
Ca3 O4 2.307902 1_555
Ca3 O14 2.416876 1_655
Ca3 O8 2.416876 1_655
Ca3 O15 2.416876 1_655
Ca3 O9 2.416876 1_655
O0 V0 1.951779 1_555
O0 V6 2.022247 1_555
O0 V4 2.022247 1_555
O1 V1 1.951779 1_555
O1 V7 2.022247 1_555
O1 V5 2.022247 1_555
O2 V2 1.951779 1_555
O2 V6 2.022247 1_545
O2 V4 2.022247 1_555
O3 V3 1.951779 1_555
O3 V7 2.022247 1_555
O3 V5 2.022247 1_545
O4 V4 2.007574 1_555
O4 V6 2.007574 1_555
O4 V0 2.013839 1_655
O5 V7 2.007574 1_555
O5 V5 2.007574 1_555
O5 V1 2.013839 1_655
O6 V6 2.007574 1_545
O6 V4 2.007574 1_555
O6 V2 2.013839 1_455
O7 V7 2.007574 1_555
O7 V5 2.007574 1_545
O7 V3 2.013839 1_455
O8 V2 2.037998 1_455
O8 V4 2.043320 1_555
O8 V0 2.078720 1_555
O9 V3 2.037998 1_465
O9 V5 2.043320 1_555
O9 V1 2.078720 1_555
O10 V0 2.037998 1_655
O10 V6 2.043320 1_555
O10 V2 2.078720 1_565
O11 V1 2.037998 1_655
O11 V7 2.043320 1_555
O11 V3 2.078720 1_555
O12 V0 2.037998 1_655
O12 V4 2.043320 1_555
O12 V2 2.078720 1_555
O13 V1 2.037998 1_655
O13 V5 2.043320 1_555
O13 V3 2.078720 1_565
O14 V2 2.037998 1_465
O14 V6 2.043320 1_555
O14 V0 2.078720 1_555
O15 V3 2.037998 1_455
O15 V7 2.043320 1_555
O15 V1 2.078720 1_555
