# generated using pymatgen
data_MgZr3U7O20
_symmetry_space_group_name_H-M   'P 1'
_cell_length_a   3.75086220
_cell_length_b   6.52272669
_cell_length_c   16.57751373
_cell_angle_alpha   93.13529636
_cell_angle_beta   96.48433782
_cell_angle_gamma   89.98526110
_symmetry_Int_Tables_number   1
_chemical_formula_structural   MgZr3U7O20
_chemical_formula_sum   'Mg1 Zr3 U7 O20'
_cell_volume   402.37796836
_cell_formula_units_Z   1
loop_
 _symmetry_equiv_pos_site_id
 _symmetry_equiv_pos_as_xyz
  1  'x, y, z'
loop_
 _atom_site_type_symbol
 _atom_site_label
 _atom_site_symmetry_multiplicity
 _atom_site_fract_x
 _atom_site_fract_y
 _atom_site_fract_z
 _atom_site_occupancy
  Mg  Mg0  1  0.95095492  0.65220080  0.90064385  1
  Zr  Zr0  1  0.38207222  0.78435749  0.76739082  1
  Zr  Zr1  1  0.20010266  0.39900238  0.39865532  1
  Zr  Zr2  1  0.51569238  0.51737943  0.03308166  1
  U  U0  1  0.89483325  0.27412738  0.78963218  1
  U  U1  1  0.79502036  0.58889806  0.58832308  1
  U  U2  1  0.70115574  0.90085579  0.40151818  1
  U  U3  1  0.29707454  0.09899474  0.59125305  1
  U  U4  1  0.10592881  0.71044343  0.21134010  1
  U  U5  1  0.60564085  0.20489124  0.21078565  1
  U  U6  1  0.00501240  0.02882432  0.01231258  1
  O  O0  1  0.92662776  0.92614410  0.84571897  1
  O  O1  1  0.48312551  0.78789073  0.96401502  1
  O  O2  1  0.77265167  0.92014116  0.54306966  1
  O  O3  1  0.32128551  0.76765201  0.64013585  1
  O  O4  1  0.41930194  0.51124068  0.83589578  1
  O  O5  1  0.97898704  0.37774175  0.95530118  1
  O  O6  1  0.86789973  0.62489297  0.73496777  1
  O  O7  1  0.17742979  0.71953088  0.35461134  1
  O  O8  1  0.82334104  0.26684793  0.64584302  1
  O  O9  1  0.62891545  0.88293827  0.25795426  1
  O  O10  1  0.26994737  0.41903029  0.53914160  1
  O  O11  1  0.72336220  0.56556209  0.44643598  1
  O  O12  1  0.37457730  0.10712183  0.74459027  1
  O  O13  1  0.67773217  0.23464518  0.35451601  1
  O  O14  1  0.58044920  0.53160488  0.16069212  1
  O  O15  1  0.13136259  0.38030681  0.26203046  1
  O  O16  1  0.22416925  0.08199842  0.44691647  1
  O  O17  1  0.03310182  0.67794025  0.06612520  1
  O  O18  1  0.07743228  0.03810147  0.15574312  1
  O  O19  1  0.52792124  0.19524621  0.05555044  1
loop_
_geom_bond_atom_site_label_1
_geom_bond_atom_site_label_2
_geom_bond_distance
_geom_bond_site_symmetry_2
Mg0 O0 2.046790 1_555
Mg0 O5 2.047622 1_555
Mg0 O1 2.297831 1_555
Mg0 O1 2.301511 1_655
Mg0 O4 2.320277 1_555
Mg0 O4 2.323918 1_655
Mg0 O17 2.721651 1_656
Mg0 O6 2.724938 1_555
O0 Zr0 2.414238 1_655
O0 Zr0 2.446217 1_555
O0 U0 2.497273 1_565
O0 O6 2.606670 1_555
O0 U6 2.788623 1_666
O0 O12 2.807277 1_665
O0 O12 2.814755 1_565
O0 O1 2.878177 1_655
O0 O1 2.890897 1_555
O1 Zr2 2.151392 1_556
O1 U6 2.540207 1_666
O1 U6 2.551875 1_566
O1 O17 2.641689 1_656
O1 O17 2.647212 1_556
O1 O4 2.700123 1_555
O1 O19 2.982019 1_566
O2 U3 2.323758 1_565
O2 U1 2.324015 1_555
O2 U3 2.326503 1_665
O2 U2 2.328032 1_555
O2 O3 2.690003 1_555
O2 O3 2.690620 1_655
O2 O8 2.749307 1_565
O3 Zr0 2.092935 1_555
O3 U1 2.342809 1_555
O3 U1 2.345716 1_455
O3 U3 2.347513 1_565
O3 O6 2.640700 1_555
O3 O6 2.644863 1_455
O4 Zr0 2.160593 1_555
O4 U0 2.517827 1_555
O4 U0 2.526104 1_455
O4 O6 2.636734 1_555
O4 O6 2.641938 1_455
O4 O5 2.886482 1_455
O4 O5 2.886618 1_555
O5 Zr2 2.414739 1_656
O5 Zr2 2.426676 1_556
O5 U6 2.509339 1_656
O5 U0 2.774938 1_555
O6 Zr0 2.189978 1_655
O6 Zr0 2.202400 1_555
O6 U1 2.413946 1_555
O6 U0 2.504419 1_555
O6 O8 2.689248 1_555
O7 Zr1 2.250403 1_555
O7 U2 2.325283 1_455
O7 U2 2.327672 1_555
O7 U4 2.357369 1_555
O7 O9 2.715137 1_555
O7 O9 2.716162 1_455
O8 U3 2.324528 1_555
O8 U3 2.330001 1_655
O8 U1 2.351456 1_555
O8 U0 2.366281 1_555
O9 U5 2.278861 1_565
O9 U4 2.296692 1_555
O9 U4 2.297931 1_655
O9 U2 2.361164 1_555
O10 U3 2.300351 1_555
O10 U1 2.300855 1_455
O10 U1 2.304530 1_555
O10 Zr1 2.310512 1_555
O10 O16 2.602493 1_555
O10 O11 2.630511 1_555
O10 O11 2.631840 1_455
O10 O3 2.742627 1_555
O10 O8 2.789711 1_455
O10 O8 2.790058 1_555
O11 Zr1 2.283778 1_555
O11 Zr1 2.286943 1_655
O11 U1 2.333670 1_555
O11 U2 2.347028 1_555
O11 O13 2.567452 1_555
O11 O7 2.641998 1_655
O11 O7 2.642169 1_555
O11 O2 2.734520 1_555
O12 Zr0 2.158837 1_545
O12 U0 2.266096 1_555
O12 U0 2.279409 1_455
O12 U3 2.523330 1_555
O12 O8 2.721823 1_555
O12 O3 2.728369 1_545
O12 O8 2.731514 1_455
O12 O4 2.962075 1_555
O13 Zr1 2.259106 1_555
O13 Zr1 2.261678 1_655
O13 U2 2.350558 1_545
O13 U5 2.364726 1_555
O13 O15 2.626378 1_655
O13 O15 2.627145 1_555
O13 O16 2.643526 1_555
O13 O16 2.644856 1_655
O13 O9 2.718656 1_545
O14 Zr2 2.098876 1_555
O14 U5 2.327171 1_555
O14 U4 2.337294 1_555
O14 U4 2.338980 1_655
O14 O17 2.648973 1_655
O14 O17 2.649408 1_555
O14 O19 2.719321 1_555
O14 O9 2.722914 1_555
O14 O15 2.730363 1_555
O14 O15 2.731732 1_655
O15 Zr1 2.247005 1_555
O15 U5 2.330122 1_555
O15 U5 2.331468 1_455
O15 U4 2.352033 1_555
O15 O7 2.617263 1_555
O15 O18 2.759951 1_555
O16 Zr1 2.255723 1_555
O16 U2 2.317135 1_545
O16 U2 2.319777 1_445
O16 U3 2.373920 1_555
O16 O2 2.705241 1_445
O16 O2 2.707414 1_545
O16 O7 2.739690 1_545
O17 Zr2 2.198565 1_555
O17 Zr2 2.204882 1_455
O17 U4 2.389633 1_555
O17 U6 2.499427 1_565
O17 O5 2.602523 1_454
O17 O18 2.704867 1_565
O18 U5 2.324409 1_455
O18 U5 2.329309 1_555
O18 U6 2.359957 1_555
O18 U4 2.371015 1_545
O18 O19 2.733058 1_455
O18 O19 2.735976 1_555
O18 O9 2.749154 1_445
O18 O9 2.751191 1_545
O19 Zr2 2.153493 1_555
O19 U6 2.257886 1_655
O19 U6 2.266608 1_555
O19 U5 2.554263 1_555
O19 O5 2.803658 1_454
O19 O5 2.809592 1_554
