# generated using pymatgen
data_K(CrS2)2
_symmetry_space_group_name_H-M   'P 1'
_cell_length_a   6.96630510
_cell_length_b   11.74640015
_cell_length_c   15.30016625
_cell_angle_alpha   89.72152789
_cell_angle_beta   90.00000000
_cell_angle_gamma   90.00000000
_symmetry_Int_Tables_number   1
_chemical_formula_structural   K(CrS2)2
_chemical_formula_sum   'K8 Cr16 S32'
_cell_volume   1251.98262838
_cell_formula_units_Z   8
loop_
 _symmetry_equiv_pos_site_id
 _symmetry_equiv_pos_as_xyz
  1  'x, y, z'
loop_
 _atom_site_type_symbol
 _atom_site_label
 _atom_site_symmetry_multiplicity
 _atom_site_fract_x
 _atom_site_fract_y
 _atom_site_fract_z
 _atom_site_occupancy
  K  K0_0  1  0.00000000  0.25000000  0.00000000  1
  K  K0_1  1  0.00000000  0.25000000  0.50000000  1
  K  K0_2  1  0.00000000  0.75000000  0.00000000  1
  K  K0_3  1  0.00000000  0.75000000  0.50000000  1
  K  K0_4  1  0.50000000  0.25000000  0.00000000  1
  K  K0_5  1  0.50000000  0.25000000  0.50000000  1
  K  K0_6  1  0.50000000  0.75000000  0.00000000  1
  K  K0_7  1  0.50000000  0.75000000  0.50000000  1
  Cr  Cr0_0  1  0.25000000  0.00000000  0.25000000  1
  Cr  Cr0_1  1  0.25000000  0.00000000  0.75000000  1
  Cr  Cr0_2  1  0.25000000  0.50000000  0.25000000  1
  Cr  Cr0_3  1  0.25000000  0.50000000  0.75000000  1
  Cr  Cr0_4  1  0.75000000  0.00000000  0.25000000  1
  Cr  Cr0_5  1  0.75000000  0.00000000  0.75000000  1
  Cr  Cr0_6  1  0.75000000  0.50000000  0.25000000  1
  Cr  Cr0_7  1  0.75000000  0.50000000  0.75000000  1
  Cr  Cr1_0  1  0.00000000  0.25000000  0.25000000  1
  Cr  Cr1_1  1  0.00000000  0.25000000  0.75000000  1
  Cr  Cr1_2  1  0.00000000  0.75000000  0.25000000  1
  Cr  Cr1_3  1  0.00000000  0.75000000  0.75000000  1
  Cr  Cr1_4  1  0.50000000  0.25000000  0.25000000  1
  Cr  Cr1_5  1  0.50000000  0.25000000  0.75000000  1
  Cr  Cr1_6  1  0.50000000  0.75000000  0.25000000  1
  Cr  Cr1_7  1  0.50000000  0.75000000  0.75000000  1
  S  S0_0  1  0.00000000  0.41890802  0.16272981  1
  S  S0_1  1  0.00000000  0.41890802  0.66272982  1
  S  S0_2  1  0.00000000  0.91890801  0.16272981  1
  S  S0_3  1  0.00000000  0.91890802  0.66272982  1
  S  S0_4  1  0.50000000  0.41890802  0.16272981  1
  S  S0_5  1  0.50000000  0.41890802  0.66272982  1
  S  S0_6  1  0.50000000  0.91890801  0.16272981  1
  S  S0_7  1  0.50000000  0.91890802  0.66272982  1
  S  S1_0  1  0.25000000  0.16835939  0.16258837  1
  S  S1_1  1  0.25000000  0.16835939  0.66258837  1
  S  S1_2  1  0.25000000  0.66835939  0.16258837  1
  S  S1_3  1  0.25000000  0.66835938  0.66258837  1
  S  S1_4  1  0.75000000  0.16835939  0.16258837  1
  S  S1_5  1  0.75000000  0.16835939  0.66258837  1
  S  S1_6  1  0.75000000  0.66835939  0.16258837  1
  S  S1_7  1  0.75000000  0.66835938  0.66258837  1
  S  S2_0  1  0.25000000  0.33164062  0.33741163  1
  S  S2_1  1  0.25000000  0.33164062  0.83741163  1
  S  S2_2  1  0.25000000  0.83164061  0.33741163  1
  S  S2_3  1  0.25000000  0.83164061  0.83741163  1
  S  S2_4  1  0.75000000  0.33164062  0.33741163  1
  S  S2_5  1  0.75000000  0.33164062  0.83741163  1
  S  S2_6  1  0.75000000  0.83164061  0.33741163  1
  S  S2_7  1  0.75000000  0.83164061  0.83741163  1
  S  S3_0  1  0.00000000  0.08109199  0.33727019  1
  S  S3_1  1  0.00000000  0.08109199  0.83727019  1
  S  S3_2  1  0.00000000  0.58109199  0.33727019  1
  S  S3_3  1  0.00000000  0.58109199  0.83727019  1
  S  S3_4  1  0.50000000  0.08109199  0.33727019  1
  S  S3_5  1  0.50000000  0.08109199  0.83727019  1
  S  S3_6  1  0.50000000  0.58109199  0.33727019  1
  S  S3_7  1  0.50000000  0.58109199  0.83727019  1
loop_
_geom_bond_atom_site_label_1
_geom_bond_atom_site_label_2
_geom_bond_distance
_geom_bond_site_symmetry_2
K0_0 S2_1 3.180856 1_554
K0_0 S2_5 3.180856 1_454
K0_0 S1_0 3.180856 1_555
K0_0 S1_4 3.180856 1_455
K0_0 S3_1 3.191173 1_554
K0_0 S0_0 3.191173 1_555
K0_0 K0_4 3.483153 1_555
K0_0 K0_4 3.483153 1_455
K0_1 S2_0 3.180856 1_555
K0_1 S2_4 3.180856 1_455
K0_1 S1_5 3.180856 1_455
K0_1 S1_1 3.180856 1_555
K0_1 S3_0 3.191173 1_555
K0_1 S0_1 3.191173 1_555
K0_1 K0_5 3.483153 1_455
K0_1 K0_5 3.483153 1_555
K0_2 S2_3 3.180856 1_554
K0_2 S2_7 3.180856 1_454
K0_2 S1_2 3.180856 1_555
K0_2 S1_6 3.180856 1_455
K0_2 S0_2 3.191173 1_555
K0_2 S3_3 3.191173 1_554
K0_2 K0_6 3.483153 1_455
K0_2 K0_6 3.483153 1_555
K0_3 S2_6 3.180856 1_455
K0_3 S2_2 3.180856 1_555
K0_3 S1_3 3.180856 1_555
K0_3 S1_7 3.180856 1_455
K0_3 S3_2 3.191173 1_555
K0_3 S0_3 3.191173 1_555
K0_3 K0_7 3.483153 1_555
K0_3 K0_7 3.483153 1_455
K0_4 S2_5 3.180856 1_554
K0_4 S2_1 3.180856 1_554
K0_4 S1_0 3.180856 1_555
K0_4 S1_4 3.180856 1_555
K0_4 S3_5 3.191173 1_554
K0_4 S0_4 3.191173 1_555
K0_5 S2_0 3.180856 1_555
K0_5 S2_4 3.180856 1_555
K0_5 S1_1 3.180856 1_555
K0_5 S1_5 3.180856 1_555
K0_5 S3_4 3.191173 1_555
K0_5 S0_5 3.191173 1_555
K0_6 S2_3 3.180856 1_554
K0_6 S2_7 3.180856 1_554
K0_6 S1_2 3.180856 1_555
K0_6 S1_6 3.180856 1_555
K0_6 S0_6 3.191173 1_555
K0_6 S3_7 3.191173 1_554
K0_7 S2_6 3.180856 1_555
K0_7 S2_2 3.180856 1_555
K0_7 S1_3 3.180856 1_555
K0_7 S1_7 3.180856 1_555
K0_7 S3_6 3.191173 1_555
K0_7 S0_7 3.191173 1_555
Cr0_0 S1_0 2.382001 1_555
Cr0_0 S2_2 2.382001 1_545
Cr0_0 S3_0 2.394926 1_555
Cr0_0 S3_4 2.394926 1_555
Cr0_0 S0_2 2.394926 1_545
Cr0_0 S0_6 2.394926 1_545
Cr0_1 S1_1 2.382001 1_555
Cr0_1 S2_3 2.382001 1_545
Cr0_1 S0_3 2.394926 1_545
Cr0_1 S0_7 2.394926 1_545
Cr0_1 S3_1 2.394926 1_555
Cr0_1 S3_5 2.394926 1_555
Cr0_2 S1_2 2.382001 1_555
Cr0_2 S2_0 2.382001 1_555
Cr0_2 S0_4 2.394926 1_555
Cr0_2 S0_0 2.394926 1_555
Cr0_2 S3_2 2.394926 1_555
Cr0_2 S3_6 2.394926 1_555
Cr0_3 S1_3 2.382001 1_555
Cr0_3 S2_1 2.382001 1_555
Cr0_3 S0_5 2.394926 1_555
Cr0_3 S0_1 2.394926 1_555
Cr0_3 S3_3 2.394926 1_555
Cr0_3 S3_7 2.394926 1_555
Cr0_4 S1_4 2.382001 1_555
Cr0_4 S2_6 2.382001 1_545
Cr0_4 S3_0 2.394926 1_655
Cr0_4 S3_4 2.394926 1_555
Cr0_4 S0_6 2.394926 1_545
Cr0_4 S0_2 2.394926 1_645
Cr0_5 S1_5 2.382001 1_555
Cr0_5 S2_7 2.382001 1_545
Cr0_5 S0_3 2.394926 1_645
Cr0_5 S0_7 2.394926 1_545
Cr0_5 S3_5 2.394926 1_555
Cr0_5 S3_1 2.394926 1_655
Cr0_6 S2_4 2.382001 1_555
Cr0_6 S1_6 2.382001 1_555
Cr0_6 S0_4 2.394926 1_555
Cr0_6 S0_0 2.394926 1_655
Cr0_6 S3_2 2.394926 1_655
Cr0_6 S3_6 2.394926 1_555
Cr0_7 S1_7 2.382001 1_555
Cr0_7 S2_5 2.382001 1_555
Cr0_7 S0_1 2.394926 1_655
Cr0_7 S0_5 2.394926 1_555
Cr0_7 S3_3 2.394926 1_655
Cr0_7 S3_7 2.394926 1_555
Cr1_0 S3_0 2.386134 1_555
Cr1_0 S0_0 2.386134 1_555
Cr1_0 S2_0 2.398724 1_555
Cr1_0 S2_4 2.398724 1_455
Cr1_0 S1_0 2.398724 1_555
Cr1_0 S1_4 2.398724 1_455
Cr1_1 S0_1 2.386134 1_555
Cr1_1 S3_1 2.386134 1_555
Cr1_1 S2_1 2.398724 1_555
Cr1_1 S2_5 2.398724 1_455
Cr1_1 S1_1 2.398724 1_555
Cr1_1 S1_5 2.398724 1_455
Cr1_2 S0_2 2.386134 1_555
Cr1_2 S3_2 2.386134 1_555
Cr1_2 S1_2 2.398724 1_555
Cr1_2 S1_6 2.398724 1_455
Cr1_2 S2_2 2.398724 1_555
Cr1_2 S2_6 2.398724 1_455
Cr1_3 S3_3 2.386134 1_555
Cr1_3 S0_3 2.386134 1_555
Cr1_3 S1_3 2.398724 1_555
Cr1_3 S1_7 2.398724 1_455
Cr1_3 S2_3 2.398724 1_555
Cr1_3 S2_7 2.398724 1_455
Cr1_4 S3_4 2.386134 1_555
Cr1_4 S0_4 2.386134 1_555
Cr1_4 S1_4 2.398724 1_555
Cr1_4 S2_0 2.398724 1_555
Cr1_4 S2_4 2.398724 1_555
Cr1_4 S1_0 2.398724 1_555
Cr1_5 S0_5 2.386134 1_555
Cr1_5 S3_5 2.386134 1_555
Cr1_5 S2_5 2.398724 1_555
Cr1_5 S2_1 2.398724 1_555
Cr1_5 S1_5 2.398724 1_555
Cr1_5 S1_1 2.398724 1_555
Cr1_6 S0_6 2.386134 1_555
Cr1_6 S3_6 2.386134 1_555
Cr1_6 S1_2 2.398724 1_555
Cr1_6 S1_6 2.398724 1_555
Cr1_6 S2_2 2.398724 1_555
Cr1_6 S2_6 2.398724 1_555
Cr1_7 S3_7 2.386134 1_555
Cr1_7 S0_7 2.386134 1_555
Cr1_7 S1_3 2.398724 1_555
Cr1_7 S1_7 2.398724 1_555
Cr1_7 S2_7 2.398724 1_555
Cr1_7 S2_3 2.398724 1_555
