# generated using pymatgen
data_Ba3IrN3
_symmetry_space_group_name_H-M   'P 1'
_cell_length_a   8.17949836
_cell_length_b   8.17920482
_cell_length_c   5.62738677
_cell_angle_alpha   90.00000000
_cell_angle_beta   90.00000000
_cell_angle_gamma   119.99924116
_symmetry_Int_Tables_number   1
_chemical_formula_structural   Ba3IrN3
_chemical_formula_sum   'Ba6 Ir2 N6'
_cell_volume   326.04569553
_cell_formula_units_Z   2
loop_
 _symmetry_equiv_pos_site_id
 _symmetry_equiv_pos_as_xyz
  1  'x, y, z'
loop_
 _atom_site_type_symbol
 _atom_site_label
 _atom_site_symmetry_multiplicity
 _atom_site_fract_x
 _atom_site_fract_y
 _atom_site_fract_z
 _atom_site_occupancy
  Ba  Ba0  1  0.90130929  0.63793249  0.25000000  1
  Ba  Ba1  1  0.73651634  0.09894942  0.25000000  1
  Ba  Ba2  1  0.36241111  0.26350377  0.25000000  1
  Ba  Ba3  1  0.09867064  0.36203488  0.75000000  1
  Ba  Ba4  1  0.26347828  0.90106078  0.75000000  1
  Ba  Ba5  1  0.63761269  0.73649602  0.75000000  1
  Ir  Ir0  1  0.66658056  0.33329109  0.75000000  1
  Ir  Ir1  1  0.33341736  0.66669417  0.25000000  1
  N  N0  1  0.88609253  0.57099650  0.75000000  1
  N  N1  1  0.68474114  0.11364885  0.75000000  1
  N  N2  1  0.42868323  0.31491197  0.75000000  1
  N  N3  1  0.11391868  0.42898575  0.25000000  1
  N  N4  1  0.31522646  0.88635240  0.25000000  1
  N  N5  1  0.57134169  0.68514393  0.25000000  1
loop_
_geom_bond_atom_site_label_1
_geom_bond_atom_site_label_2
_geom_bond_distance
_geom_bond_site_symmetry_2
Ba0 N0 2.857264 1_555
Ba0 N0 2.857264 1_554
Ba0 N5 2.911312 1_555
Ba0 N4 2.951612 1_655
Ba0 N3 2.986131 1_655
Ba1 N1 2.856850 1_554
Ba1 N1 2.856850 1_555
Ba1 N3 2.912631 1_655
Ba1 N5 2.950965 1_545
Ba1 N4 2.984337 1_545
Ba2 N2 2.856500 1_554
Ba2 N2 2.856500 1_555
Ba2 N4 2.911081 1_545
Ba2 N3 2.951988 1_555
Ba2 N5 2.986708 1_555
Ba3 N3 2.857272 1_555
Ba3 N3 2.857272 1_556
Ba3 N2 2.911246 1_555
Ba3 N1 2.951661 1_455
Ba3 N0 2.986014 1_455
Ba4 N4 2.856821 1_555
Ba4 N4 2.856821 1_556
Ba4 N0 2.912641 1_455
Ba4 N2 2.951280 1_565
Ba4 N1 2.984146 1_565
Ba5 N5 2.856475 1_555
Ba5 N5 2.856475 1_556
Ba5 N1 2.911276 1_565
Ba5 N0 2.952008 1_555
Ba5 N2 2.986309 1_555
Ir0 N0 1.874323 1_555
Ir0 N1 1.875187 1_555
Ir0 N2 1.875244 1_555
Ir1 N3 1.874289 1_555
Ir1 N5 1.875211 1_555
Ir1 N4 1.875456 1_555
