# generated using pymatgen
data_CaBi2(PO5)2
_symmetry_space_group_name_H-M   'P 1'
_cell_length_a   10.49656673
_cell_length_b   9.15834269
_cell_length_c   7.67089480
_cell_angle_alpha   76.60916740
_cell_angle_beta   58.08003197
_cell_angle_gamma   45.31080063
_symmetry_Int_Tables_number   1
_chemical_formula_structural   CaBi2(PO5)2
_chemical_formula_sum   'Ca2 Bi4 P4 O20'
_cell_volume   432.79184150
_cell_formula_units_Z   2
loop_
 _symmetry_equiv_pos_site_id
 _symmetry_equiv_pos_as_xyz
  1  'x, y, z'
loop_
 _atom_site_type_symbol
 _atom_site_label
 _atom_site_symmetry_multiplicity
 _atom_site_fract_x
 _atom_site_fract_y
 _atom_site_fract_z
 _atom_site_occupancy
  Ca  Ca0  1  0.50421600  0.99578400  0.99578400  1
  Ca  Ca1  1  0.25421600  0.74578400  0.74578400  1
  Bi  Bi0  1  0.87709700  0.38089200  0.38397000  1
  Bi  Bi1  1  0.35804100  0.38397000  0.38089200  1
  Bi  Bi2  1  0.86910800  0.37290300  0.89195900  1
  Bi  Bi3  1  0.86603000  0.89195900  0.37290300  1
  P  P0  1  0.04610500  0.55707800  0.95348400  1
  P  P1  1  0.69292200  0.20389500  0.80666700  1
  P  P2  1  0.44333300  0.95348400  0.55707800  1
  P  P3  1  0.29651600  0.80666700  0.20389500  1
  O  O0  1  0.55270900  0.72813300  0.48240100  1
  O  O1  1  0.66065000  0.19285100  0.32254700  1
  O  O2  1  0.30123100  0.68912300  0.38738300  1
  O  O3  1  0.76759900  0.01324300  0.69729100  1
  O  O4  1  0.22209300  0.05327900  0.74965900  1
  O  O5  1  0.43120800  0.07255500  0.37506200  1
  O  O6  1  0.05714900  0.58935000  0.42604800  1
  O  O7  1  0.82395200  0.32254600  0.19285100  1
  O  O8  1  0.92745300  0.42604800  0.58935000  1
  O  O9  1  0.19672100  0.02790700  0.27503000  1
  O  O10  1  0.23675700  0.48240100  0.72813300  1
  O  O11  1  0.50034100  0.27503000  0.02790700  1
  O  O12  1  0.97497000  0.74965900  0.05327900  1
  O  O13  1  0.17744500  0.81879200  0.12882600  1
  O  O14  1  0.12117400  0.37506200  0.07255500  1
  O  O15  1  0.87493800  0.12882600  0.81879200  1
  O  O16  1  0.86261700  0.62773800  0.94876900  1
  O  O17  1  0.62226200  0.38738300  0.68912300  1
  O  O18  1  0.52186700  0.69729100  0.01324300  1
  O  O19  1  0.56087700  0.94876900  0.62773800  1
loop_
_geom_bond_atom_site_label_1
_geom_bond_atom_site_label_2
_geom_bond_distance
_geom_bond_site_symmetry_2
Ca0 O3 2.582569 1_565
Ca0 O18 2.582569 1_556
Ca0 O11 2.595729 1_566
Ca0 O9 2.595736 1_566
Ca0 O19 2.633834 1_555
Ca0 O16 2.633839 1_555
Ca0 O5 2.716278 1_566
Ca0 O14 2.716283 1_566
Ca1 O0 2.582569 1_555
Ca1 O10 2.582569 1_555
Ca1 O12 2.595731 1_456
Ca1 O4 2.595738 1_565
Ca1 O17 2.633836 1_555
Ca1 O2 2.633842 1_555
Ca1 O15 2.716281 1_465
Ca1 O13 2.716286 1_556
Bi0 O7 2.095941 1_555
Bi0 O8 2.102917 1_555
Bi0 O9 2.331640 1_655
Bi0 O0 2.332492 1_555
Bi0 O14 2.380737 1_655
Bi0 O17 2.420227 1_555
Bi1 O1 2.095936 1_555
Bi1 O6 2.102917 1_555
Bi1 O11 2.331643 1_555
Bi1 O10 2.332492 1_555
Bi1 O5 2.380743 1_555
Bi1 O2 2.420221 1_555
Bi2 O8 2.095936 1_555
Bi2 O7 2.102918 1_556
Bi2 O4 2.331641 1_655
Bi2 O18 2.332492 1_556
Bi2 O15 2.380734 1_555
Bi2 O16 2.420230 1_555
Bi3 O6 2.095936 1_655
Bi3 O1 2.102917 1_565
Bi3 O12 2.331636 1_555
Bi3 O3 2.332492 1_565
Bi3 O13 2.380742 1_655
Bi3 O19 2.420222 1_555
O0 P2 1.557284 1_555
O1 O7 2.419051 1_555
O2 P3 1.561836 1_555
O3 P1 1.557284 1_555
O4 P2 1.556563 1_545
O5 P2 1.562782 1_545
O6 O8 2.419059 1_455
O9 P3 1.556560 1_545
O10 P0 1.557284 1_555
O11 P1 1.556565 1_554
O12 P0 1.556569 1_654
O13 P3 1.562776 1_555
O14 P0 1.562782 1_554
O15 P1 1.562786 1_555
O16 P0 1.561832 1_655
O17 P1 1.561836 1_555
O18 P3 1.557284 1_555
O19 P2 1.561842 1_555
