# generated using pymatgen
data_CaCr(GeO3)2
_symmetry_space_group_name_H-M   'P 1'
_cell_length_a   5.48808999
_cell_length_b   10.37442199
_cell_length_c   9.40772503
_cell_angle_alpha   90.00787519
_cell_angle_beta   90.00539426
_cell_angle_gamma   104.51739712
_symmetry_Int_Tables_number   1
_chemical_formula_structural   CaCr(GeO3)2
_chemical_formula_sum   'Ca4 Cr4 Ge8 O24'
_cell_volume   518.53396347
_cell_formula_units_Z   4
loop_
 _symmetry_equiv_pos_site_id
 _symmetry_equiv_pos_as_xyz
  1  'x, y, z'
loop_
 _atom_site_type_symbol
 _atom_site_label
 _atom_site_symmetry_multiplicity
 _atom_site_fract_x
 _atom_site_fract_y
 _atom_site_fract_z
 _atom_site_occupancy
  Ca  Ca0  1  0.25000800  0.50000000  0.19719700  1
  Ca  Ca1  1  0.74998500  0.99998500  0.69715300  1
  Ca  Ca2  1  0.75003900  0.50002000  0.80283900  1
  Ca  Ca3  1  0.25002900  0.00000100  0.30282700  1
  Cr  Cr0  1  0.75002300  0.00003000  0.09324300  1
  Cr  Cr1  1  0.75000200  0.50000300  0.40675000  1
  Cr  Cr2  1  0.25000300  0.49999800  0.59323400  1
  Cr  Cr3  1  0.25000000  0.00000200  0.90676700  1
  Ge  Ge0  1  0.06404500  0.28506900  0.90256200  1
  Ge  Ge1  1  0.56401500  0.78505200  0.40258200  1
  Ge  Ge2  1  0.43595100  0.71494200  0.90260200  1
  Ge  Ge3  1  0.93593000  0.21492700  0.40256900  1
  Ge  Ge4  1  0.93597300  0.71494700  0.09743300  1
  Ge  Ge5  1  0.43596100  0.21494000  0.59742100  1
  Ge  Ge6  1  0.56404900  0.28506500  0.09740800  1
  Ge  Ge7  1  0.06405700  0.78506400  0.59741600  1
  O  O0  1  0.88108000  0.35579000  0.03180900  1
  O  O1  1  0.38109300  0.85580000  0.53182300  1
  O  O2  1  0.61891800  0.64420400  0.03181500  1
  O  O3  1  0.11890400  0.14420000  0.53178400  1
  O  O4  1  0.11891200  0.64420600  0.96819500  1
  O  O5  1  0.61891000  0.14420200  0.46818000  1
  O  O6  1  0.38109600  0.35580600  0.96819600  1
  O  O7  1  0.88108000  0.85579200  0.46819500  1
  O  O8  1  0.51810500  0.36472000  0.25293200  1
  O  O9  1  0.01812700  0.86473400  0.75292700  1
  O  O10  1  0.98187000  0.63526400  0.25292800  1
  O  O11  1  0.48188900  0.13526000  0.75290500  1
  O  O12  1  0.48188100  0.63527300  0.74708900  1
  O  O13  1  0.98183100  0.13524100  0.24705600  1
  O  O14  1  0.01812600  0.36474900  0.74707700  1
  O  O15  1  0.51804900  0.86469900  0.24708400  1
  O  O16  1  0.98123700  0.11004600  0.90354400  1
  O  O17  1  0.48118400  0.61002300  0.40362000  1
  O  O18  1  0.51884000  0.88998100  0.90364200  1
  O  O19  1  0.01880600  0.38995900  0.40359400  1
  O  O20  1  0.01881300  0.88997400  0.09640200  1
  O  O21  1  0.51880100  0.38996800  0.59639600  1
  O  O22  1  0.48117800  0.11003300  0.09639300  1
  O  O23  1  0.98120100  0.61003100  0.59641100  1
loop_
_geom_bond_atom_site_label_1
_geom_bond_atom_site_label_2
_geom_bond_distance
_geom_bond_site_symmetry_2
Ca0 O8 2.333403 1_555
Ca0 O10 2.333420 1_455
Ca0 O17 2.440623 1_555
Ca0 O19 2.440989 1_555
Ca0 O0 2.690494 1_455
Ca0 O2 2.690836 1_555
Ca0 O6 2.817034 1_554
Ca0 O4 2.817343 1_554
Ca1 O11 2.333371 1_565
Ca1 O9 2.333450 1_655
Ca1 O16 2.440685 1_565
Ca1 O18 2.441422 1_555
Ca1 O1 2.689962 1_555
Ca1 O3 2.690838 1_665
Ca1 O7 2.816733 1_555
Ca1 O5 2.817158 1_565
Ca2 O14 2.333322 1_655
Ca2 O12 2.333484 1_555
Ca2 O21 2.441011 1_555
Ca2 O23 2.441028 1_555
Ca2 O4 2.690044 1_655
Ca2 O6 2.690849 1_555
Ca2 O2 2.816863 1_556
Ca2 O0 2.817144 1_556
Ca3 O15 2.333239 1_545
Ca3 O13 2.333597 1_455
Ca3 O20 2.440741 1_545
Ca3 O22 2.441117 1_555
Ca3 O5 2.690111 1_555
Ca3 O7 2.690910 1_445
Ca3 O3 2.816827 1_555
Ca3 O1 2.817201 1_545
Cr0 O22 2.079511 1_555
Cr0 O20 2.079657 1_645
Cr0 O13 2.187336 1_555
Cr0 O15 2.188924 1_545
Cr0 O18 2.316816 1_544
Cr0 O16 2.317901 1_554
Cr1 O17 2.079511 1_555
Cr1 O19 2.079630 1_655
Cr1 O8 2.187942 1_555
Cr1 O10 2.188201 1_555
Cr1 O23 2.317210 1_555
Cr1 O21 2.317557 1_555
Cr2 O21 2.079498 1_555
Cr2 O23 2.079541 1_455
Cr2 O12 2.188087 1_555
Cr2 O14 2.188290 1_555
Cr2 O19 2.317094 1_555
Cr2 O17 2.317242 1_555
Cr3 O16 2.079449 1_455
Cr3 O18 2.079620 1_545
Cr3 O9 2.187947 1_545
Cr3 O11 2.188483 1_555
Cr3 O22 2.316919 1_556
Cr3 O20 2.317419 1_546
Ge0 O14 1.729509 1_555
Ge0 O16 1.757814 1_455
Ge0 O6 1.818494 1_555
Ge0 O0 1.842382 1_456
Ge1 O15 1.729505 1_555
Ge1 O17 1.757877 1_555
Ge1 O7 1.818498 1_555
Ge1 O1 1.842343 1_555
Ge2 O12 1.729537 1_555
Ge2 O18 1.757974 1_555
Ge2 O4 1.818485 1_555
Ge2 O2 1.842281 1_556
Ge3 O13 1.729586 1_555
Ge3 O19 1.757903 1_655
Ge3 O5 1.818434 1_555
Ge3 O3 1.842257 1_655
Ge4 O10 1.729573 1_555
Ge4 O20 1.757857 1_655
Ge4 O2 1.818472 1_555
Ge4 O4 1.842346 1_654
Ge5 O11 1.729514 1_555
Ge5 O21 1.757866 1_555
Ge5 O3 1.818537 1_555
Ge5 O5 1.842383 1_555
Ge6 O8 1.729570 1_555
Ge6 O22 1.757903 1_555
Ge6 O0 1.818448 1_555
Ge6 O6 1.842242 1_554
Ge7 O9 1.729527 1_555
Ge7 O23 1.757912 1_455
Ge7 O1 1.818471 1_555
Ge7 O7 1.842311 1_455
