# generated using pymatgen
data_Hf8GeMo5
_symmetry_space_group_name_H-M   'P 1'
_cell_length_a   8.47163533
_cell_length_b   8.46989723
_cell_length_c   8.78765800
_cell_angle_alpha   90.00000000
_cell_angle_beta   90.00000000
_cell_angle_gamma   61.63603674
_symmetry_Int_Tables_number   1
_chemical_formula_structural   Hf8GeMo5
_chemical_formula_sum   'Hf16 Ge2 Mo10'
_cell_volume   554.84966107
_cell_formula_units_Z   2
loop_
 _symmetry_equiv_pos_site_id
 _symmetry_equiv_pos_as_xyz
  1  'x, y, z'
loop_
 _atom_site_type_symbol
 _atom_site_label
 _atom_site_symmetry_multiplicity
 _atom_site_fract_x
 _atom_site_fract_y
 _atom_site_fract_z
 _atom_site_occupancy
  Hf  Hf0  1  0.19353800  0.60496700  0.54724800  1
  Hf  Hf1  1  0.60484100  0.19365400  0.54717000  1
  Hf  Hf2  1  0.19907700  0.19909700  0.54881800  1
  Hf  Hf3  1  0.80670900  0.39542800  0.45856700  1
  Hf  Hf4  1  0.39554700  0.80661800  0.45859700  1
  Hf  Hf5  1  0.79410900  0.79404500  0.47153900  1
  Hf  Hf6  1  0.80670900  0.39542800  0.04143300  1
  Hf  Hf7  1  0.39554700  0.80661800  0.04140300  1
  Hf  Hf8  1  0.79410900  0.79404500  0.02846100  1
  Hf  Hf9  1  0.19353800  0.60496700  0.95275200  1
  Hf  Hf10  1  0.60484100  0.19365400  0.95283000  1
  Hf  Hf11  1  0.19907700  0.19909700  0.95118200  1
  Hf  Hf12  1  0.55050500  0.55033300  0.75000000  1
  Hf  Hf13  1  0.46764600  0.07011400  0.25000000  1
  Hf  Hf14  1  0.07024700  0.46757900  0.25000000  1
  Hf  Hf15  1  0.45997300  0.46010000  0.25000000  1
  Ge  Ge0  1  0.33702000  0.33730100  0.75000000  1
  Ge  Ge1  1  0.66414500  0.66397200  0.25000000  1
  Mo  Mo0  1  0.99785900  0.99783600  0.50109300  1
  Mo  Mo1  1  0.99785900  0.99783600  0.99890700  1
  Mo  Mo2  1  0.89288900  0.22031800  0.75000000  1
  Mo  Mo3  1  0.22035700  0.89285100  0.75000000  1
  Mo  Mo4  1  0.88731000  0.88733800  0.75000000  1
  Mo  Mo5  1  0.10732000  0.77907400  0.25000000  1
  Mo  Mo6  1  0.77916000  0.10722200  0.25000000  1
  Mo  Mo7  1  0.10991300  0.10977300  0.25000000  1
  Mo  Mo8  1  0.52412800  0.94639300  0.75000000  1
  Mo  Mo9  1  0.94602600  0.52434200  0.75000000  1
loop_
_geom_bond_atom_site_label_1
_geom_bond_atom_site_label_2
_geom_bond_distance
_geom_bond_site_symmetry_2
Hf0 Mo5 2.916826 1_555
Hf0 Mo0 2.957036 1_455
Hf0 Hf4 3.038079 1_555
Hf0 Hf5 3.051009 1_455
Hf0 Mo9 3.065624 1_455
Hf0 Mo3 3.114168 1_555
Hf0 Mo4 3.119207 1_455
Hf0 Hf14 3.228467 1_555
Hf0 Hf15 3.285106 1_555
Hf0 Hf12 3.347264 1_555
Hf0 Hf2 3.415662 1_555
Hf0 Hf1 3.569893 1_555
Hf1 Mo6 2.917041 1_555
Hf1 Mo0 2.958635 1_545
Hf1 Hf3 3.037844 1_555
Hf1 Hf5 3.051570 1_545
Hf1 Mo8 3.064489 1_545
Hf1 Mo2 3.115501 1_555
Hf1 Mo4 3.120190 1_545
Hf1 Hf13 3.228132 1_555
Hf1 Hf15 3.284385 1_555
Hf1 Hf12 3.345773 1_555
Hf1 Hf2 3.415855 1_555
Hf2 Mo7 2.929396 1_555
Hf2 Mo0 2.957792 1_445
Hf2 Hf3 3.031718 1_455
Hf2 Hf4 3.031908 1_545
Hf2 Mo3 3.072769 1_545
Hf2 Mo2 3.072986 1_455
Hf2 Mo8 3.112807 1_545
Hf2 Mo9 3.114313 1_455
Hf3 Mo2 2.874499 1_555
Hf3 Mo0 2.986814 1_545
Hf3 Mo7 3.147387 1_655
Hf3 Mo6 3.148624 1_555
Hf3 Mo9 3.220004 1_555
Hf3 Hf5 3.328813 1_555
Hf3 Hf4 3.568747 1_555
Hf4 Mo3 2.874655 1_555
Hf4 Mo0 2.988091 1_455
Hf4 Mo7 3.147238 1_565
Hf4 Mo5 3.149288 1_555
Hf4 Mo8 3.220382 1_555
Hf4 Hf5 3.329144 1_555
Hf5 Mo4 2.797946 1_555
Hf5 Mo0 2.976086 1_555
Hf5 Mo9 3.173196 1_555
Hf5 Mo8 3.174901 1_555
Hf5 Mo6 3.243931 1_565
Hf5 Mo5 3.244540 1_655
Hf6 Mo2 2.874499 1_554
Hf6 Mo1 2.986814 1_544
Hf6 Mo7 3.147387 1_655
Hf6 Mo6 3.148624 1_555
Hf6 Mo9 3.220004 1_554
Hf6 Hf8 3.328813 1_555
Hf6 Hf7 3.568747 1_555
Hf7 Mo3 2.874655 1_554
Hf7 Mo1 2.988091 1_454
Hf7 Hf9 3.038079 1_554
Hf7 Mo7 3.147238 1_565
Hf7 Mo5 3.149288 1_555
Hf7 Mo8 3.220382 1_554
Hf7 Hf8 3.329144 1_555
Hf8 Mo4 2.797946 1_554
Hf8 Mo1 2.976086 1_554
Hf8 Hf9 3.051009 1_654
Hf8 Mo9 3.173196 1_554
Hf8 Mo8 3.174901 1_554
Hf8 Mo6 3.243931 1_565
Hf8 Mo5 3.244540 1_655
Hf9 Mo5 2.916826 1_556
Hf9 Mo1 2.957036 1_455
Hf9 Mo9 3.065624 1_455
Hf9 Mo3 3.114168 1_555
Hf9 Mo4 3.119207 1_455
Hf10 Mo6 2.917041 1_556
Hf10 Mo1 2.958635 1_545
Hf10 Hf6 3.037844 1_556
Hf10 Hf8 3.051570 1_546
Hf10 Mo8 3.064489 1_545
Hf10 Mo2 3.115501 1_555
Hf10 Mo4 3.120190 1_545
Hf10 Hf13 3.228132 1_556
Hf10 Hf15 3.284385 1_556
Hf10 Hf12 3.345773 1_555
Hf10 Hf11 3.415855 1_555
Hf10 Hf9 3.569893 1_555
Hf11 Mo7 2.929396 1_556
Hf11 Mo1 2.957792 1_445
Hf11 Hf6 3.031718 1_456
Hf11 Hf7 3.031908 1_546
Hf11 Mo3 3.072769 1_545
Hf11 Mo2 3.072986 1_455
Hf11 Mo8 3.112807 1_545
Hf11 Mo9 3.114313 1_455
Hf11 Hf14 3.301452 1_556
Hf11 Hf13 3.302096 1_556
Hf11 Hf9 3.415662 1_555
Hf12 Mo2 2.919407 1_555
Hf12 Mo3 2.920523 1_555
Hf12 Hf7 3.207055 1_556
Hf12 Hf4 3.207055 1_555
Hf12 Hf6 3.207087 1_556
Hf12 Hf3 3.207087 1_555
Hf12 Mo9 3.251902 1_555
Hf12 Mo8 3.254376 1_555
Hf12 Hf9 3.347264 1_555
Hf13 Mo6 2.802031 1_555
Hf13 Mo7 2.886179 1_555
Hf13 Hf4 3.163750 1_545
Hf13 Hf7 3.163750 1_545
Hf13 Hf15 3.272760 1_555
Hf13 Hf5 3.280561 1_545
Hf13 Hf8 3.280561 1_545
Hf13 Hf2 3.302096 1_555
Hf13 Hf14 3.449458 1_555
Hf14 Mo5 2.801202 1_555
Hf14 Mo7 2.886127 1_555
Hf14 Hf3 3.164412 1_455
Hf14 Hf6 3.164412 1_455
Hf14 Hf9 3.228467 1_554
Hf14 Hf15 3.271997 1_555
Hf14 Hf8 3.280620 1_455
Hf14 Hf5 3.280620 1_455
Hf14 Hf2 3.301452 1_555
Hf15 Mo5 2.924985 1_555
Hf15 Mo6 2.926772 1_555
Hf15 Hf4 3.278736 1_555
Hf15 Hf7 3.278736 1_555
Hf15 Hf3 3.280077 1_555
Hf15 Hf6 3.280077 1_555
Hf15 Hf9 3.285106 1_554
Ge0 Hf11 2.676031 1_555
Ge0 Hf2 2.676031 1_555
Ge0 Hf9 2.678329 1_555
Ge0 Hf0 2.678329 1_555
Ge0 Hf1 2.679966 1_555
Ge0 Hf10 2.679966 1_555
Ge0 Mo8 2.913488 1_545
Ge0 Mo9 2.914721 1_455
Ge0 Hf12 3.102778 1_555
Ge1 Hf5 2.714506 1_555
Ge1 Hf8 2.714506 1_555
Ge1 Hf3 2.716854 1_555
Ge1 Hf6 2.716854 1_555
Ge1 Hf4 2.717631 1_555
Ge1 Hf7 2.717631 1_555
Ge1 Hf15 2.968392 1_555
Ge1 Hf13 3.027156 1_565
Ge1 Hf14 3.027465 1_655
Mo0 Mo4 2.714800 1_555
Mo0 Mo7 2.742969 1_665
Mo0 Mo6 2.743864 1_565
Mo0 Mo5 2.743957 1_655
Mo0 Mo2 2.744794 1_565
Mo0 Mo3 2.745073 1_655
Mo1 Mo4 2.714800 1_555
Mo1 Mo7 2.742969 1_666
Mo1 Mo6 2.743864 1_566
Mo1 Mo5 2.743957 1_656
Mo1 Mo2 2.744794 1_565
Mo1 Mo3 2.745073 1_655
Mo2 Mo9 2.816899 1_555
Mo2 Mo3 2.842211 1_645
Mo2 Mo4 2.843064 1_545
Mo3 Mo8 2.817284 1_555
Mo3 Mo4 2.843933 1_455
Mo4 Mo9 2.871781 1_555
Mo4 Mo8 2.873034 1_555
Mo5 Mo7 2.811489 1_565
Mo5 Mo6 2.848169 1_465
Mo6 Mo7 2.812348 1_655
Mo8 Mo9 3.662471 1_555
