# generated using pymatgen
data_SrCaMg14O16
_symmetry_space_group_name_H-M   'P 1'
_cell_length_a   8.73054200
_cell_length_b   8.73054200
_cell_length_c   4.43780300
_cell_angle_alpha   90.00000000
_cell_angle_beta   90.00000000
_cell_angle_gamma   90.00000000
_symmetry_Int_Tables_number   1
_chemical_formula_structural   SrCaMg14O16
_chemical_formula_sum   'Sr1 Ca1 Mg14 O16'
_cell_volume   338.25983391
_cell_formula_units_Z   1
loop_
 _symmetry_equiv_pos_site_id
 _symmetry_equiv_pos_as_xyz
  1  'x, y, z'
loop_
 _atom_site_type_symbol
 _atom_site_label
 _atom_site_symmetry_multiplicity
 _atom_site_fract_x
 _atom_site_fract_y
 _atom_site_fract_z
 _atom_site_occupancy
  Sr  Sr0  1  0.50000000  0.50000000  0.00000000  1
  Ca  Ca0  1  0.00000000  0.00000000  0.00000000  1
  Mg  Mg0  1  0.50000000  0.00000000  0.00000000  1
  Mg  Mg1  1  0.00000000  0.50000000  0.00000000  1
  Mg  Mg2  1  0.25516400  0.00000000  0.50000000  1
  Mg  Mg3  1  0.74483600  0.00000000  0.50000000  1
  Mg  Mg4  1  0.24117000  0.50000000  0.50000000  1
  Mg  Mg5  1  0.75883000  0.50000000  0.50000000  1
  Mg  Mg6  1  0.00000000  0.25516400  0.50000000  1
  Mg  Mg7  1  0.50000000  0.24117000  0.50000000  1
  Mg  Mg8  1  0.00000000  0.74483600  0.50000000  1
  Mg  Mg9  1  0.50000000  0.75883000  0.50000000  1
  Mg  Mg10  1  0.24802400  0.24802400  0.00000000  1
  Mg  Mg11  1  0.75197600  0.24802400  0.00000000  1
  Mg  Mg12  1  0.24802400  0.75197600  0.00000000  1
  Mg  Mg13  1  0.75197600  0.75197600  0.00000000  1
  O  O0  1  0.00000000  0.25995700  0.00000000  1
  O  O1  1  0.50000000  0.23006700  0.00000000  1
  O  O2  1  0.00000000  0.74004300  0.00000000  1
  O  O3  1  0.50000000  0.76993300  0.00000000  1
  O  O4  1  0.25032400  0.25032400  0.50000000  1
  O  O5  1  0.74967600  0.25032400  0.50000000  1
  O  O6  1  0.25032400  0.74967600  0.50000000  1
  O  O7  1  0.74967600  0.74967600  0.50000000  1
  O  O8  1  0.00000000  0.00000000  0.50000000  1
  O  O9  1  0.50000000  0.00000000  0.50000000  1
  O  O10  1  0.00000000  0.50000000  0.50000000  1
  O  O11  1  0.50000000  0.50000000  0.50000000  1
  O  O12  1  0.25995700  0.00000000  0.00000000  1
  O  O13  1  0.74004300  0.00000000  0.00000000  1
  O  O14  1  0.23006700  0.50000000  0.00000000  1
  O  O15  1  0.76993300  0.50000000  0.00000000  1
loop_
_geom_bond_atom_site_label_1
_geom_bond_atom_site_label_2
_geom_bond_distance
_geom_bond_site_symmetry_2
Ca0 O8 2.218901 1_554
Ca0 O8 2.218901 1_555
Ca0 O13 2.269566 1_455
Ca0 O12 2.269566 1_555
Ca0 O0 2.269566 1_555
Ca0 O2 2.269566 1_545
Mg0 O1 2.008610 1_555
Mg0 O3 2.008610 1_545
Mg0 O13 2.095705 1_555
Mg0 O12 2.095705 1_555
Mg0 O9 2.218901 1_554
Mg0 O9 2.218901 1_555
Mg1 O14 2.008610 1_555
Mg1 O15 2.008610 1_455
Mg1 O0 2.095705 1_555
Mg1 O2 2.095705 1_555
Mg1 O10 2.218901 1_555
Mg1 O10 2.218901 1_554
Mg2 O9 2.137551 1_555
Mg2 O4 2.185873 1_555
Mg2 O6 2.185873 1_545
Mg2 O12 2.219296 1_556
Mg2 O12 2.219296 1_555
Mg2 O8 2.227720 1_555
Mg3 O9 2.137551 1_555
Mg3 O7 2.185873 1_545
Mg3 O5 2.185873 1_555
Mg3 O13 2.219296 1_555
Mg3 O13 2.219296 1_556
Mg3 O8 2.227720 1_655
Mg4 O10 2.105545 1_555
Mg4 O4 2.181271 1_555
Mg4 O6 2.181271 1_555
Mg4 O14 2.221018 1_555
Mg4 O14 2.221018 1_556
Mg4 O11 2.259726 1_555
Mg5 O10 2.105545 1_655
Mg5 O5 2.181271 1_555
Mg5 O7 2.181271 1_555
Mg5 O15 2.221018 1_556
Mg5 O15 2.221018 1_555
Mg5 O11 2.259726 1_555
Mg6 O10 2.137551 1_555
Mg6 O4 2.185873 1_555
Mg6 O5 2.185873 1_455
Mg6 O0 2.219296 1_555
Mg6 O0 2.219296 1_556
Mg6 O8 2.227720 1_555
Mg7 O9 2.105545 1_555
Mg7 O4 2.181271 1_555
Mg7 O5 2.181271 1_555
Mg7 O1 2.221018 1_556
Mg7 O1 2.221018 1_555
Mg7 O11 2.259726 1_555
Mg8 O10 2.137551 1_555
Mg8 O7 2.185873 1_455
Mg8 O6 2.185873 1_555
Mg8 O2 2.219296 1_555
Mg8 O2 2.219296 1_556
Mg8 O8 2.227720 1_565
Mg9 O9 2.105545 1_565
Mg9 O6 2.181271 1_555
Mg9 O7 2.181271 1_555
Mg9 O3 2.221018 1_556
Mg9 O3 2.221018 1_555
Mg9 O11 2.259726 1_555
Mg10 O0 2.167889 1_555
Mg10 O12 2.167889 1_555
Mg10 O1 2.205466 1_555
Mg10 O14 2.205466 1_555
Mg10 O4 2.219083 1_554
Mg10 O4 2.219083 1_555
Mg11 O13 2.167889 1_555
Mg11 O0 2.167889 1_655
Mg11 O1 2.205466 1_555
Mg11 O15 2.205466 1_555
Mg11 O5 2.219083 1_554
Mg11 O5 2.219083 1_555
Mg12 O12 2.167889 1_565
Mg12 O2 2.167889 1_555
Mg12 O3 2.205466 1_555
Mg12 O14 2.205466 1_555
Mg12 O6 2.219083 1_555
Mg12 O6 2.219083 1_554
Mg13 O13 2.167889 1_565
Mg13 O2 2.167889 1_655
Mg13 O3 2.205466 1_555
Mg13 O15 2.205466 1_555
Mg13 O7 2.219083 1_554
Mg13 O7 2.219083 1_555
O1 Sr0 2.356661 1_555
O3 Sr0 2.356661 1_555
O11 Sr0 2.218901 1_555
O11 Sr0 2.218901 1_556
O14 Sr0 2.356661 1_555
O15 Sr0 2.356661 1_555
