# generated using pymatgen
data_CaMn6(OF2)4
_symmetry_space_group_name_H-M   'P 1'
_cell_length_a   5.41307532
_cell_length_b   7.63418266
_cell_length_c   6.34227649
_cell_angle_alpha   89.38624336
_cell_angle_beta   80.15919196
_cell_angle_gamma   92.90668967
_symmetry_Int_Tables_number   1
_chemical_formula_structural   CaMn6(OF2)4
_chemical_formula_sum   'Ca1 Mn6 O4 F8'
_cell_volume   257.85226328
_cell_formula_units_Z   1
loop_
 _symmetry_equiv_pos_site_id
 _symmetry_equiv_pos_as_xyz
  1  'x, y, z'
loop_
 _atom_site_type_symbol
 _atom_site_label
 _atom_site_symmetry_multiplicity
 _atom_site_fract_x
 _atom_site_fract_y
 _atom_site_fract_z
 _atom_site_occupancy
  Ca  Ca0  1  0.74666000  0.55284700  0.30248700  1
  Mn  Mn0  1  0.55962900  0.99685300  0.53777700  1
  Mn  Mn1  1  0.39366800  0.73015700  0.02713900  1
  Mn  Mn2  1  0.47816600  0.32424500  0.81540100  1
  Mn  Mn3  1  0.95573300  0.69009600  0.71544800  1
  Mn  Mn4  1  0.25224400  0.26533400  0.29544100  1
  Mn  Mn5  1  0.88480100  0.00644100  0.04030200  1
  O  O0  1  0.77407900  0.74980400  0.02243200  1
  O  O1  1  0.71593300  0.78567300  0.53364100  1
  O  O2  1  0.54853900  0.37998500  0.08755500  1
  O  O3  1  0.40822900  0.22509200  0.55297100  1
  F  F0  1  0.79757300  0.44184200  0.64267400  1
  F  F1  1  0.88973700  0.12328600  0.34468500  1
  F  F2  1  0.67945300  0.08666000  0.80981800  1
  F  F3  1  0.26728000  0.55293200  0.80375500  1
  F  F4  1  0.40321300  0.95737100  0.26444400  1
  F  F5  1  0.17127800  0.57706600  0.29581000  1
  F  F6  1  0.14439800  0.21929800  0.98356500  1
  F  F7  1  0.23493900  0.89334800  0.79965500  1
loop_
_geom_bond_atom_site_label_1
_geom_bond_atom_site_label_2
_geom_bond_distance
_geom_bond_site_symmetry_2
Ca0 O2 2.268162 1_555
Ca0 F5 2.289649 1_655
Ca0 O0 2.295155 1_555
Ca0 O1 2.310559 1_555
Ca0 F0 2.374222 1_555
Ca0 F5 3.136869 1_555
Mn0 O1 1.856705 1_555
Mn0 O3 1.959178 1_565
Mn1 O0 2.052129 1_555
Mn2 O2 1.878717 1_556
Mn2 O3 1.923498 1_555
Mn3 O1 2.033855 1_555
Mn3 O0 2.091757 1_556
Mn4 O3 1.990489 1_555
Mn4 O2 2.046195 1_555
Mn5 O0 2.029647 1_545
F0 Mn2 2.041929 1_555
F0 Mn3 2.127696 1_555
F0 O3 2.753149 1_555
F0 F5 2.866316 1_655
F0 F3 2.985854 1_655
F1 Mn5 2.138988 1_555
F1 Mn0 2.162437 1_545
F1 Mn4 2.165984 1_655
F1 F6 2.542724 1_654
F1 O3 2.862366 1_555
F1 O1 2.875206 1_545
F1 F2 2.979700 1_555
F2 Mn0 2.056792 1_545
F2 Mn5 2.086321 1_556
F2 Mn2 2.160280 1_555
F2 F7 2.768886 1_545
F3 Mn1 2.141100 1_556
F3 Mn2 2.141193 1_555
F3 Mn3 2.177979 1_455
F3 F7 2.613680 1_555
F3 F6 2.781538 1_555
F4 Mn0 2.073639 1_555
F4 Mn1 2.313027 1_555
F4 Mn4 2.526605 1_565
F4 Mn5 2.753140 1_565
F5 Mn1 2.198209 1_555
F5 Mn4 2.441553 1_555
F5 O2 2.758760 1_555
F5 Mn3 2.877349 1_455
F6 Mn2 2.054224 1_555
F6 Mn5 2.080326 1_456
F6 Mn4 2.183027 1_556
F6 F7 2.789824 1_545
F6 O3 2.856123 1_555
F7 Mn1 2.205834 1_556
F7 Mn3 2.243417 1_455
F7 Mn0 2.303309 1_555
F7 Mn5 2.423322 1_466
F7 O3 2.985672 1_565
