# generated using pymatgen
data_Nd2Si3Ni
_symmetry_space_group_name_H-M   'P 1'
_cell_length_a   4.07649815
_cell_length_b   4.07649815
_cell_length_c   8.42158200
_cell_angle_alpha   90.00000000
_cell_angle_beta   90.00000000
_cell_angle_gamma   120.00000244
_symmetry_Int_Tables_number   1
_chemical_formula_structural   Nd2Si3Ni
_chemical_formula_sum   'Nd2 Si3 Ni1'
_cell_volume   121.19893452
_cell_formula_units_Z   1
loop_
 _symmetry_equiv_pos_site_id
 _symmetry_equiv_pos_as_xyz
  1  'x, y, z'
loop_
 _atom_site_type_symbol
 _atom_site_label
 _atom_site_symmetry_multiplicity
 _atom_site_fract_x
 _atom_site_fract_y
 _atom_site_fract_z
 _atom_site_occupancy
  Nd  Nd0  1  0.66666700  0.33333300  0.24044400  1
  Nd  Nd1  1  0.66666700  0.33333300  0.75955600  1
  Si  Si0  1  0.00000000  0.00000000  0.50000000  1
  Si  Si1  1  0.33333300  0.66666700  0.00000000  1
  Si  Si2  1  0.33333300  0.66666700  0.50000000  1
  Ni  Ni0  1  0.00000000  0.00000000  0.00000000  1
loop_
_geom_bond_atom_site_label_1
_geom_bond_atom_site_label_2
_geom_bond_distance
_geom_bond_site_symmetry_2
Nd0 Si1 3.104765 1_545
Nd0 Si1 3.104765 1_655
Nd0 Ni0 3.104765 1_655
Nd0 Ni0 3.104767 1_555
Nd0 Ni0 3.104767 1_665
Nd0 Si1 3.104770 1_555
Nd0 Si2 3.212056 1_545
Nd0 Si2 3.212056 1_655
Nd0 Si0 3.212056 1_655
Nd0 Si0 3.212059 1_665
Nd0 Si0 3.212059 1_555
Nd0 Si2 3.212061 1_555
Nd1 Si1 3.104765 1_546
Nd1 Si1 3.104765 1_656
Nd1 Ni0 3.104765 1_656
Nd1 Ni0 3.104767 1_556
Nd1 Ni0 3.104767 1_666
Nd1 Si1 3.104770 1_556
Nd1 Si2 3.212056 1_545
Nd1 Si2 3.212056 1_655
Nd1 Si0 3.212056 1_655
Nd1 Si0 3.212059 1_665
Nd1 Si0 3.212059 1_555
Nd1 Si2 3.212061 1_555
Si0 Si2 2.353565 1_545
Si0 Si2 2.353568 1_555
Si0 Si2 2.353568 1_445
Ni0 Si1 2.353565 1_545
Ni0 Si1 2.353568 1_445
Ni0 Si1 2.353568 1_555
