# generated using pymatgen
data_K2ZrGe2O7
_symmetry_space_group_name_H-M   'P 1'
_cell_length_a   5.79360147
_cell_length_b   5.79360147
_cell_length_c   13.19888981
_cell_angle_alpha   77.15075612
_cell_angle_beta   77.15075612
_cell_angle_gamma   58.33508417
_symmetry_Int_Tables_number   1
_chemical_formula_structural   K2ZrGe2O7
_chemical_formula_sum   'K4 Zr2 Ge4 O14'
_cell_volume   364.64456520
_cell_formula_units_Z   2
loop_
 _symmetry_equiv_pos_site_id
 _symmetry_equiv_pos_as_xyz
  1  'x, y, z'
loop_
 _atom_site_type_symbol
 _atom_site_label
 _atom_site_symmetry_multiplicity
 _atom_site_fract_x
 _atom_site_fract_y
 _atom_site_fract_z
 _atom_site_occupancy
  K  K0  1  0.64062600  0.06513300  0.17775900  1
  K  K1  1  0.93486700  0.35937400  0.32224100  1
  K  K2  1  0.35937400  0.93486700  0.82224100  1
  K  K3  1  0.06513300  0.64062600  0.67775900  1
  Zr  Zr0  1  0.50000000  0.00000000  0.50000000  1
  Zr  Zr1  1  0.00000000  0.50000000  0.00000000  1
  Ge  Ge0  1  0.75796900  0.31659200  0.62215300  1
  Ge  Ge1  1  0.31659200  0.75796900  0.12215300  1
  Ge  Ge2  1  0.24203100  0.68340800  0.37784700  1
  Ge  Ge3  1  0.68340800  0.24203100  0.87784700  1
  O  O0  1  0.81210200  0.92409600  0.95578900  1
  O  O1  1  0.32805400  0.42313200  0.87285600  1
  O  O2  1  0.42313200  0.32805400  0.37285600  1
  O  O3  1  0.67194600  0.57686800  0.12714400  1
  O  O4  1  0.86040300  0.13959700  0.75000000  1
  O  O5  1  0.13959700  0.86040300  0.25000000  1
  O  O6  1  0.21328300  0.53681800  0.10101500  1
  O  O7  1  0.46318200  0.78671700  0.39898500  1
  O  O8  1  0.07590400  0.18789800  0.54421100  1
  O  O9  1  0.53681800  0.21328300  0.60101500  1
  O  O10  1  0.18789800  0.07590400  0.04421100  1
  O  O11  1  0.92409600  0.81210200  0.45578900  1
  O  O12  1  0.78671700  0.46318200  0.89898500  1
  O  O13  1  0.57686800  0.67194600  0.62714400  1
loop_
_geom_bond_atom_site_label_1
_geom_bond_atom_site_label_2
_geom_bond_distance
_geom_bond_site_symmetry_2
K0 O6 2.721135 1_555
K0 O5 2.792125 1_645
K0 O3 2.954509 1_545
K0 O2 2.970739 1_555
K0 O3 2.983147 1_555
K0 O0 3.025895 1_544
K0 O7 3.239722 1_545
K0 O6 3.259549 1_645
K0 O10 3.291983 1_655
K1 O7 2.721135 1_555
K1 O5 2.792125 1_645
K1 O2 2.954509 1_655
K1 O3 2.970739 1_555
K1 O2 2.983147 1_555
K1 O8 3.025895 1_655
K1 O6 3.239722 1_655
K1 O7 3.259549 1_645
K1 O11 3.291983 1_545
K2 O12 2.721135 1_555
K2 O4 2.792125 1_465
K2 O1 2.954509 1_565
K2 O13 2.970739 1_555
K2 O1 2.983147 1_555
K2 O10 3.025895 1_566
K2 O9 3.239722 1_565
K2 O12 3.259549 1_465
K2 O0 3.291983 1_455
K3 O9 2.721135 1_555
K3 O4 2.792125 1_465
K3 O13 2.954509 1_455
K3 O1 2.970739 1_555
K3 O13 2.983147 1_555
K3 O11 3.025895 1_455
K3 O12 3.239722 1_455
K3 O9 3.259549 1_465
K3 O8 3.291983 1_565
Ge0 O8 1.750309 1_655
Ge0 O13 1.762229 1_555
Ge0 O9 1.765252 1_555
Ge0 O4 1.813293 1_555
Ge1 O10 1.750309 1_565
Ge1 O3 1.762229 1_555
Ge1 O6 1.765252 1_555
Ge1 O5 1.813293 1_555
Ge2 O11 1.750309 1_455
Ge2 O2 1.762229 1_555
Ge2 O7 1.765252 1_555
Ge2 O5 1.813293 1_555
Ge3 O0 1.750309 1_545
Ge3 O1 1.762229 1_555
Ge3 O12 1.765252 1_555
Ge3 O4 1.813293 1_555
O0 Zr1 2.097438 1_656
O1 Zr1 2.156851 1_556
O2 Zr0 2.156851 1_555
O3 Zr1 2.156851 1_655
O6 Zr1 2.118029 1_555
O7 Zr0 2.118029 1_565
O8 Zr0 2.097438 1_555
O9 Zr0 2.118029 1_555
O10 Zr1 2.097438 1_555
O11 Zr0 2.097438 1_565
O12 Zr1 2.118029 1_656
O13 Zr0 2.156851 1_565
