# generated using pymatgen
data_Sc2MnB2Ir5
_symmetry_space_group_name_H-M   'P 1'
_cell_length_a   18.85058800
_cell_length_b   18.85058800
_cell_length_c   6.12524800
_cell_angle_alpha   90.00000000
_cell_angle_beta   90.00000000
_cell_angle_gamma   90.00000000
_symmetry_Int_Tables_number   1
_chemical_formula_structural   Sc2MnB2Ir5
_chemical_formula_sum   'Sc32 Mn16 B32 Ir80'
_cell_volume   2176.57421665
_cell_formula_units_Z   16
loop_
 _symmetry_equiv_pos_site_id
 _symmetry_equiv_pos_as_xyz
  1  'x, y, z'
loop_
 _atom_site_type_symbol
 _atom_site_label
 _atom_site_symmetry_multiplicity
 _atom_site_fract_x
 _atom_site_fract_y
 _atom_site_fract_z
 _atom_site_occupancy
  Sc  Sc0_0  1  0.33780950  0.08780950  0.00000000  1
  Sc  Sc0_1  1  0.33780950  0.08780950  0.50000000  1
  Sc  Sc0_2  1  0.33780950  0.58780950  0.00000000  1
  Sc  Sc0_3  1  0.33780950  0.58780950  0.50000000  1
  Sc  Sc0_4  1  0.83780950  0.08780950  0.00000000  1
  Sc  Sc0_5  1  0.83780950  0.08780950  0.50000000  1
  Sc  Sc0_6  1  0.83780950  0.58780950  0.00000000  1
  Sc  Sc0_7  1  0.83780950  0.58780950  0.50000000  1
  Sc  Sc1_0  1  0.16219050  0.41219050  0.00000000  1
  Sc  Sc1_1  1  0.16219050  0.41219050  0.50000000  1
  Sc  Sc1_2  1  0.16219050  0.91219050  0.00000000  1
  Sc  Sc1_3  1  0.16219050  0.91219050  0.50000000  1
  Sc  Sc1_4  1  0.66219050  0.41219050  0.00000000  1
  Sc  Sc1_5  1  0.66219050  0.41219050  0.50000000  1
  Sc  Sc1_6  1  0.66219050  0.91219050  0.00000000  1
  Sc  Sc1_7  1  0.66219050  0.91219050  0.50000000  1
  Sc  Sc2_0  1  0.08780950  0.16219050  0.00000000  1
  Sc  Sc2_1  1  0.08780950  0.16219050  0.50000000  1
  Sc  Sc2_2  1  0.08780950  0.66219050  0.00000000  1
  Sc  Sc2_3  1  0.08780950  0.66219050  0.50000000  1
  Sc  Sc2_4  1  0.58780950  0.16219050  0.00000000  1
  Sc  Sc2_5  1  0.58780950  0.16219050  0.50000000  1
  Sc  Sc2_6  1  0.58780950  0.66219050  0.00000000  1
  Sc  Sc2_7  1  0.58780950  0.66219050  0.50000000  1
  Sc  Sc3_0  1  0.41219050  0.33780950  0.00000000  1
  Sc  Sc3_1  1  0.41219050  0.33780950  0.50000000  1
  Sc  Sc3_2  1  0.41219050  0.83780950  0.00000000  1
  Sc  Sc3_3  1  0.41219050  0.83780950  0.50000000  1
  Sc  Sc3_4  1  0.91219050  0.33780950  0.00000000  1
  Sc  Sc3_5  1  0.91219050  0.33780950  0.50000000  1
  Sc  Sc3_6  1  0.91219050  0.83780950  0.00000000  1
  Sc  Sc3_7  1  0.91219050  0.83780950  0.50000000  1
  Mn  Mn0_0  1  0.00000000  0.00000000  0.00000000  1
  Mn  Mn0_1  1  0.00000000  0.00000000  0.50000000  1
  Mn  Mn0_2  1  0.00000000  0.50000000  0.00000000  1
  Mn  Mn0_3  1  0.00000000  0.50000000  0.50000000  1
  Mn  Mn0_4  1  0.50000000  0.00000000  0.00000000  1
  Mn  Mn0_5  1  0.50000000  0.00000000  0.50000000  1
  Mn  Mn0_6  1  0.50000000  0.50000000  0.00000000  1
  Mn  Mn0_7  1  0.50000000  0.50000000  0.50000000  1
  Mn  Mn1_0  1  0.25000000  0.25000000  0.00000000  1
  Mn  Mn1_1  1  0.25000000  0.25000000  0.50000000  1
  Mn  Mn1_2  1  0.25000000  0.75000000  0.00000000  1
  Mn  Mn1_3  1  0.25000000  0.75000000  0.50000000  1
  Mn  Mn1_4  1  0.75000000  0.25000000  0.00000000  1
  Mn  Mn1_5  1  0.75000000  0.25000000  0.50000000  1
  Mn  Mn1_6  1  0.75000000  0.75000000  0.00000000  1
  Mn  Mn1_7  1  0.75000000  0.75000000  0.50000000  1
  B  B0_0  1  0.06264150  0.31264150  0.00000000  1
  B  B0_1  1  0.06264150  0.31264150  0.50000000  1
  B  B0_2  1  0.06264150  0.81264150  0.00000000  1
  B  B0_3  1  0.06264150  0.81264150  0.50000000  1
  B  B0_4  1  0.56264150  0.31264150  0.00000000  1
  B  B0_5  1  0.56264150  0.31264150  0.50000000  1
  B  B0_6  1  0.56264150  0.81264150  0.00000000  1
  B  B0_7  1  0.56264150  0.81264150  0.50000000  1
  B  B1_0  1  0.43735850  0.18735850  0.00000000  1
  B  B1_1  1  0.43735850  0.18735850  0.50000000  1
  B  B1_2  1  0.43735850  0.68735850  0.00000000  1
  B  B1_3  1  0.43735850  0.68735850  0.50000000  1
  B  B1_4  1  0.93735850  0.18735850  0.00000000  1
  B  B1_5  1  0.93735850  0.18735850  0.50000000  1
  B  B1_6  1  0.93735850  0.68735850  0.00000000  1
  B  B1_7  1  0.93735850  0.68735850  0.50000000  1
  B  B2_0  1  0.31264150  0.43735850  0.00000000  1
  B  B2_1  1  0.31264150  0.43735850  0.50000000  1
  B  B2_2  1  0.31264150  0.93735850  0.00000000  1
  B  B2_3  1  0.31264150  0.93735850  0.50000000  1
  B  B2_4  1  0.81264150  0.43735850  0.00000000  1
  B  B2_5  1  0.81264150  0.43735850  0.50000000  1
  B  B2_6  1  0.81264150  0.93735850  0.00000000  1
  B  B2_7  1  0.81264150  0.93735850  0.50000000  1
  B  B3_0  1  0.18735850  0.06264150  0.00000000  1
  B  B3_1  1  0.18735850  0.06264150  0.50000000  1
  B  B3_2  1  0.18735850  0.56264150  0.00000000  1
  B  B3_3  1  0.18735850  0.56264150  0.50000000  1
  B  B3_4  1  0.68735850  0.06264150  0.00000000  1
  B  B3_5  1  0.68735850  0.06264150  0.50000000  1
  B  B3_6  1  0.68735850  0.56264150  0.00000000  1
  B  B3_7  1  0.68735850  0.56264150  0.50000000  1
  Ir  Ir0_0  1  0.10818500  0.03538150  0.25000000  1
  Ir  Ir0_1  1  0.10818500  0.03538150  0.75000000  1
  Ir  Ir0_2  1  0.10818500  0.53538150  0.25000000  1
  Ir  Ir0_3  1  0.10818500  0.53538150  0.75000000  1
  Ir  Ir0_4  1  0.60818500  0.03538150  0.25000000  1
  Ir  Ir0_5  1  0.60818500  0.03538150  0.75000000  1
  Ir  Ir0_6  1  0.60818500  0.53538150  0.25000000  1
  Ir  Ir0_7  1  0.60818500  0.53538150  0.75000000  1
  Ir  Ir1_0  1  0.39181500  0.46461850  0.25000000  1
  Ir  Ir1_1  1  0.39181500  0.46461850  0.75000000  1
  Ir  Ir1_2  1  0.39181500  0.96461850  0.25000000  1
  Ir  Ir1_3  1  0.39181500  0.96461850  0.75000000  1
  Ir  Ir1_4  1  0.89181500  0.46461850  0.25000000  1
  Ir  Ir1_5  1  0.89181500  0.46461850  0.75000000  1
  Ir  Ir1_6  1  0.89181500  0.96461850  0.25000000  1
  Ir  Ir1_7  1  0.89181500  0.96461850  0.75000000  1
  Ir  Ir2_0  1  0.03538150  0.39181500  0.25000000  1
  Ir  Ir2_1  1  0.03538150  0.39181500  0.75000000  1
  Ir  Ir2_2  1  0.03538150  0.89181500  0.25000000  1
  Ir  Ir2_3  1  0.03538150  0.89181500  0.75000000  1
  Ir  Ir2_4  1  0.53538150  0.39181500  0.25000000  1
  Ir  Ir2_5  1  0.53538150  0.39181500  0.75000000  1
  Ir  Ir2_6  1  0.53538150  0.89181500  0.25000000  1
  Ir  Ir2_7  1  0.53538150  0.89181500  0.75000000  1
  Ir  Ir3_0  1  0.35818500  0.21461850  0.25000000  1
  Ir  Ir3_1  1  0.35818500  0.21461850  0.75000000  1
  Ir  Ir3_2  1  0.35818500  0.71461850  0.25000000  1
  Ir  Ir3_3  1  0.35818500  0.71461850  0.75000000  1
  Ir  Ir3_4  1  0.85818500  0.21461850  0.25000000  1
  Ir  Ir3_5  1  0.85818500  0.21461850  0.75000000  1
  Ir  Ir3_6  1  0.85818500  0.71461850  0.25000000  1
  Ir  Ir3_7  1  0.85818500  0.71461850  0.75000000  1
  Ir  Ir4_0  1  0.46461850  0.10818500  0.25000000  1
  Ir  Ir4_1  1  0.46461850  0.10818500  0.75000000  1
  Ir  Ir4_2  1  0.46461850  0.60818500  0.25000000  1
  Ir  Ir4_3  1  0.46461850  0.60818500  0.75000000  1
  Ir  Ir4_4  1  0.96461850  0.10818500  0.25000000  1
  Ir  Ir4_5  1  0.96461850  0.10818500  0.75000000  1
  Ir  Ir4_6  1  0.96461850  0.60818500  0.25000000  1
  Ir  Ir4_7  1  0.96461850  0.60818500  0.75000000  1
  Ir  Ir5_0  1  0.14181500  0.28538150  0.25000000  1
  Ir  Ir5_1  1  0.14181500  0.28538150  0.75000000  1
  Ir  Ir5_2  1  0.14181500  0.78538150  0.25000000  1
  Ir  Ir5_3  1  0.14181500  0.78538150  0.75000000  1
  Ir  Ir5_4  1  0.64181500  0.28538150  0.25000000  1
  Ir  Ir5_5  1  0.64181500  0.28538150  0.75000000  1
  Ir  Ir5_6  1  0.64181500  0.78538150  0.25000000  1
  Ir  Ir5_7  1  0.64181500  0.78538150  0.75000000  1
  Ir  Ir6_0  1  0.28538150  0.35818500  0.25000000  1
  Ir  Ir6_1  1  0.28538150  0.35818500  0.75000000  1
  Ir  Ir6_2  1  0.28538150  0.85818500  0.25000000  1
  Ir  Ir6_3  1  0.28538150  0.85818500  0.75000000  1
  Ir  Ir6_4  1  0.78538150  0.35818500  0.25000000  1
  Ir  Ir6_5  1  0.78538150  0.35818500  0.75000000  1
  Ir  Ir6_6  1  0.78538150  0.85818500  0.25000000  1
  Ir  Ir6_7  1  0.78538150  0.85818500  0.75000000  1
  Ir  Ir7_0  1  0.21461850  0.14181500  0.25000000  1
  Ir  Ir7_1  1  0.21461850  0.14181500  0.75000000  1
  Ir  Ir7_2  1  0.21461850  0.64181500  0.25000000  1
  Ir  Ir7_3  1  0.21461850  0.64181500  0.75000000  1
  Ir  Ir7_4  1  0.71461850  0.14181500  0.25000000  1
  Ir  Ir7_5  1  0.71461850  0.14181500  0.75000000  1
  Ir  Ir7_6  1  0.71461850  0.64181500  0.25000000  1
  Ir  Ir7_7  1  0.71461850  0.64181500  0.75000000  1
  Ir  Ir8_0  1  0.25000000  0.00000000  0.25000000  1
  Ir  Ir8_1  1  0.25000000  0.00000000  0.75000000  1
  Ir  Ir8_2  1  0.25000000  0.50000000  0.25000000  1
  Ir  Ir8_3  1  0.25000000  0.50000000  0.75000000  1
  Ir  Ir8_4  1  0.75000000  0.00000000  0.25000000  1
  Ir  Ir8_5  1  0.75000000  0.00000000  0.75000000  1
  Ir  Ir8_6  1  0.75000000  0.50000000  0.25000000  1
  Ir  Ir8_7  1  0.75000000  0.50000000  0.75000000  1
  Ir  Ir9_0  1  0.00000000  0.25000000  0.25000000  1
  Ir  Ir9_1  1  0.00000000  0.25000000  0.75000000  1
  Ir  Ir9_2  1  0.00000000  0.75000000  0.25000000  1
  Ir  Ir9_3  1  0.00000000  0.75000000  0.75000000  1
  Ir  Ir9_4  1  0.50000000  0.25000000  0.25000000  1
  Ir  Ir9_5  1  0.50000000  0.25000000  0.75000000  1
  Ir  Ir9_6  1  0.50000000  0.75000000  0.25000000  1
  Ir  Ir9_7  1  0.50000000  0.75000000  0.75000000  1
loop_
_geom_bond_atom_site_label_1
_geom_bond_atom_site_label_2
_geom_bond_distance
_geom_bond_site_symmetry_2
Sc0_0 Sc0_1 3.062624 1_554
Sc0_0 Sc0_1 3.062624 1_555
Sc0_2 Sc0_3 3.062624 1_554
Sc0_2 Sc0_3 3.062624 1_555
Sc0_4 Sc0_5 3.062624 1_555
Sc0_4 Sc0_5 3.062624 1_554
Sc0_6 Sc0_7 3.062624 1_554
Sc0_6 Sc0_7 3.062624 1_555
Sc1_0 Sc1_1 3.062624 1_554
Sc1_0 Sc1_1 3.062624 1_555
Sc1_2 Sc1_3 3.062624 1_555
Sc1_2 Sc1_3 3.062624 1_554
Sc1_4 Sc1_5 3.062624 1_554
Sc1_4 Sc1_5 3.062624 1_555
Sc1_6 Sc1_7 3.062624 1_555
Sc1_6 Sc1_7 3.062624 1_554
Sc2_0 Sc2_1 3.062624 1_554
Sc2_0 Sc2_1 3.062624 1_555
Sc2_2 Sc2_3 3.062624 1_554
Sc2_2 Sc2_3 3.062624 1_555
Sc2_4 Sc2_5 3.062624 1_555
Sc2_4 Sc2_5 3.062624 1_554
Sc2_6 Sc2_7 3.062624 1_555
Sc2_6 Sc2_7 3.062624 1_554
Sc3_0 Sc3_1 3.062624 1_554
Sc3_0 Sc3_1 3.062624 1_555
Sc3_2 Sc3_3 3.062624 1_555
Sc3_2 Sc3_3 3.062624 1_554
Sc3_4 Sc3_5 3.062624 1_554
Sc3_4 Sc3_5 3.062624 1_555
Sc3_6 Sc3_7 3.062624 1_555
Sc3_6 Sc3_7 3.062624 1_554
Mn0_0 Mn0_1 3.062624 1_555
Mn0_0 Mn0_1 3.062624 1_554
Mn0_2 Mn0_3 3.062624 1_554
Mn0_2 Mn0_3 3.062624 1_555
Mn0_4 Mn0_5 3.062624 1_554
Mn0_4 Mn0_5 3.062624 1_555
Mn0_6 Mn0_7 3.062624 1_554
Mn0_6 Mn0_7 3.062624 1_555
Mn1_0 Mn1_1 3.062624 1_554
Mn1_0 Mn1_1 3.062624 1_555
Mn1_2 Mn1_3 3.062624 1_555
Mn1_2 Mn1_3 3.062624 1_554
Mn1_4 Mn1_5 3.062624 1_555
Mn1_4 Mn1_5 3.062624 1_554
Mn1_6 Mn1_7 3.062624 1_555
Mn1_6 Mn1_7 3.062624 1_554
B0_0 Ir5_1 2.199189 1_554
B0_0 Ir5_0 2.199189 1_555
B0_0 Ir2_1 2.199189 1_554
B0_0 Ir2_0 2.199189 1_555
B0_0 Ir9_1 2.265752 1_554
B0_0 Ir9_0 2.265752 1_555
B0_0 Sc1_0 2.653853 1_555
B0_0 Sc2_0 2.875498 1_555
B0_0 Sc3_4 2.875498 1_455
B0_1 Ir5_0 2.199189 1_555
B0_1 Ir5_1 2.199189 1_555
B0_1 Ir2_0 2.199189 1_555
B0_1 Ir2_1 2.199189 1_555
B0_1 Ir9_0 2.265752 1_555
B0_1 Ir9_1 2.265752 1_555
B0_1 Sc1_1 2.653853 1_555
B0_1 Sc2_1 2.875498 1_555
B0_1 Sc3_5 2.875498 1_455
B0_2 Ir5_3 2.199189 1_554
B0_2 Ir5_2 2.199189 1_555
B0_2 Ir2_3 2.199189 1_554
B0_2 Ir2_2 2.199189 1_555
B0_2 Ir9_3 2.265752 1_554
B0_2 Ir9_2 2.265752 1_555
B0_2 Sc1_2 2.653853 1_555
B0_2 Sc2_2 2.875498 1_555
B0_2 Sc3_6 2.875498 1_455
B0_3 Ir5_2 2.199189 1_555
B0_3 Ir5_3 2.199189 1_555
B0_3 Ir2_2 2.199189 1_555
B0_3 Ir2_3 2.199189 1_555
B0_3 Ir9_2 2.265752 1_555
B0_3 Ir9_3 2.265752 1_555
B0_3 Sc1_3 2.653853 1_555
B0_3 Sc2_3 2.875498 1_555
B0_3 Sc3_7 2.875498 1_455
B0_4 Ir5_5 2.199189 1_554
B0_4 Ir5_4 2.199189 1_555
B0_4 Ir2_5 2.199189 1_554
B0_4 Ir2_4 2.199189 1_555
B0_4 Ir9_5 2.265752 1_554
B0_4 Ir9_4 2.265752 1_555
B0_4 Sc1_4 2.653853 1_555
B0_4 Sc2_4 2.875498 1_555
B0_4 Sc3_0 2.875498 1_555
B0_5 Ir5_4 2.199189 1_555
B0_5 Ir5_5 2.199189 1_555
B0_5 Ir2_4 2.199189 1_555
B0_5 Ir2_5 2.199189 1_555
B0_5 Ir9_4 2.265752 1_555
B0_5 Ir9_5 2.265752 1_555
B0_5 Sc1_5 2.653853 1_555
B0_5 Sc2_5 2.875498 1_555
B0_5 Sc3_1 2.875498 1_555
B0_6 Ir5_7 2.199189 1_554
B0_6 Ir5_6 2.199189 1_555
B0_6 Ir2_7 2.199189 1_554
B0_6 Ir2_6 2.199189 1_555
B0_6 Ir9_7 2.265752 1_554
B0_6 Ir9_6 2.265752 1_555
B0_6 Sc1_6 2.653853 1_555
B0_6 Sc2_6 2.875498 1_555
B0_6 Sc3_2 2.875498 1_555
B0_7 Ir5_6 2.199189 1_555
B0_7 Ir5_7 2.199189 1_555
B0_7 Ir2_6 2.199189 1_555
B0_7 Ir2_7 2.199189 1_555
B0_7 Ir9_6 2.265752 1_555
B0_7 Ir9_7 2.265752 1_555
B0_7 Sc1_7 2.653853 1_555
B0_7 Sc2_7 2.875498 1_555
B0_7 Sc3_3 2.875498 1_555
B1_0 Ir4_1 2.199189 1_554
B1_0 Ir4_0 2.199189 1_555
B1_0 Ir3_1 2.199189 1_554
B1_0 Ir3_0 2.199189 1_555
B1_0 Ir9_5 2.265752 1_554
B1_0 Ir9_4 2.265752 1_555
B1_0 Sc0_0 2.653853 1_555
B1_0 Sc2_4 2.875498 1_555
B1_0 Sc3_0 2.875498 1_555
B1_1 Ir4_0 2.199189 1_555
B1_1 Ir4_1 2.199189 1_555
B1_1 Ir3_0 2.199189 1_555
B1_1 Ir3_1 2.199189 1_555
B1_1 Ir9_4 2.265752 1_555
B1_1 Ir9_5 2.265752 1_555
B1_1 Sc0_1 2.653853 1_555
B1_1 Sc2_5 2.875498 1_555
B1_1 Sc3_1 2.875498 1_555
B1_2 Ir4_3 2.199189 1_554
B1_2 Ir4_2 2.199189 1_555
B1_2 Ir3_3 2.199189 1_554
B1_2 Ir3_2 2.199189 1_555
B1_2 Ir9_7 2.265752 1_554
B1_2 Ir9_6 2.265752 1_555
B1_2 Sc0_2 2.653853 1_555
B1_2 Sc2_6 2.875498 1_555
B1_2 Sc3_2 2.875498 1_555
B1_3 Ir4_2 2.199189 1_555
B1_3 Ir4_3 2.199189 1_555
B1_3 Ir3_2 2.199189 1_555
B1_3 Ir3_3 2.199189 1_555
B1_3 Ir9_6 2.265752 1_555
B1_3 Ir9_7 2.265752 1_555
B1_3 Sc0_3 2.653853 1_555
B1_3 Sc2_7 2.875498 1_555
B1_3 Sc3_3 2.875498 1_555
B1_4 Ir4_5 2.199189 1_554
B1_4 Ir4_4 2.199189 1_555
B1_4 Ir3_5 2.199189 1_554
B1_4 Ir3_4 2.199189 1_555
B1_4 Ir9_1 2.265752 1_654
B1_4 Ir9_0 2.265752 1_655
B1_4 Sc0_4 2.653853 1_555
B1_4 Sc2_0 2.875498 1_655
B1_4 Sc3_4 2.875498 1_555
B1_5 Ir4_4 2.199189 1_555
B1_5 Ir4_5 2.199189 1_555
B1_5 Ir3_4 2.199189 1_555
B1_5 Ir3_5 2.199189 1_555
B1_5 Ir9_0 2.265752 1_655
B1_5 Ir9_1 2.265752 1_655
B1_5 Sc0_5 2.653853 1_555
B1_5 Sc2_1 2.875498 1_655
B1_5 Sc3_5 2.875498 1_555
B1_6 Ir4_7 2.199189 1_554
B1_6 Ir4_6 2.199189 1_555
B1_6 Ir3_7 2.199189 1_554
B1_6 Ir3_6 2.199189 1_555
B1_6 Ir9_2 2.265752 1_655
B1_6 Ir9_3 2.265752 1_654
B1_6 Sc0_6 2.653853 1_555
B1_6 Sc2_2 2.875498 1_655
B1_6 Sc3_6 2.875498 1_555
B1_7 Ir4_6 2.199189 1_555
B1_7 Ir4_7 2.199189 1_555
B1_7 Ir3_6 2.199189 1_555
B1_7 Ir3_7 2.199189 1_555
B1_7 Ir9_2 2.265752 1_655
B1_7 Ir9_3 2.265752 1_655
B1_7 Sc0_7 2.653853 1_555
B1_7 Sc2_3 2.875498 1_655
B1_7 Sc3_7 2.875498 1_555
B2_0 Ir6_1 2.199189 1_554
B2_0 Ir6_0 2.199189 1_555
B2_0 Ir1_1 2.199189 1_554
B2_0 Ir1_0 2.199189 1_555
B2_0 Ir8_3 2.265752 1_554
B2_0 Ir8_2 2.265752 1_555
B2_0 Sc3_0 2.653853 1_555
B2_0 Sc1_0 2.875498 1_555
B2_0 Sc0_2 2.875498 1_555
B2_1 Ir6_0 2.199189 1_555
B2_1 Ir6_1 2.199189 1_555
B2_1 Ir1_0 2.199189 1_555
B2_1 Ir1_1 2.199189 1_555
B2_1 Ir8_2 2.265752 1_555
B2_1 Ir8_3 2.265752 1_555
B2_1 Sc3_1 2.653853 1_555
B2_1 Sc1_1 2.875498 1_555
B2_1 Sc0_3 2.875498 1_555
B2_2 Ir6_3 2.199189 1_554
B2_2 Ir6_2 2.199189 1_555
B2_2 Ir1_3 2.199189 1_554
B2_2 Ir1_2 2.199189 1_555
B2_2 Ir8_1 2.265752 1_564
B2_2 Ir8_0 2.265752 1_565
B2_2 Sc3_2 2.653853 1_555
B2_2 Sc1_2 2.875498 1_555
B2_2 Sc0_0 2.875498 1_565
B2_3 Ir6_2 2.199189 1_555
B2_3 Ir6_3 2.199189 1_555
B2_3 Ir1_2 2.199189 1_555
B2_3 Ir1_3 2.199189 1_555
B2_3 Ir8_0 2.265752 1_565
B2_3 Ir8_1 2.265752 1_565
B2_3 Sc3_3 2.653853 1_555
B2_3 Sc1_3 2.875498 1_555
B2_3 Sc0_1 2.875498 1_565
B2_4 Ir6_5 2.199189 1_554
B2_4 Ir6_4 2.199189 1_555
B2_4 Ir1_5 2.199189 1_554
B2_4 Ir1_4 2.199189 1_555
B2_4 Ir8_7 2.265752 1_554
B2_4 Ir8_6 2.265752 1_555
B2_4 Sc3_4 2.653853 1_555
B2_4 Sc1_4 2.875498 1_555
B2_4 Sc0_6 2.875498 1_555
B2_5 Ir6_4 2.199189 1_555
B2_5 Ir6_5 2.199189 1_555
B2_5 Ir1_4 2.199189 1_555
B2_5 Ir1_5 2.199189 1_555
B2_5 Ir8_6 2.265752 1_555
B2_5 Ir8_7 2.265752 1_555
B2_5 Sc3_5 2.653853 1_555
B2_5 Sc1_5 2.875498 1_555
B2_5 Sc0_7 2.875498 1_555
B2_6 Ir6_7 2.199189 1_554
B2_6 Ir6_6 2.199189 1_555
B2_6 Ir1_7 2.199189 1_554
B2_6 Ir1_6 2.199189 1_555
B2_6 Ir8_5 2.265752 1_564
B2_6 Ir8_4 2.265752 1_565
B2_6 Sc3_6 2.653853 1_555
B2_6 Sc1_6 2.875498 1_555
B2_6 Sc0_4 2.875498 1_565
B2_7 Ir6_6 2.199189 1_555
B2_7 Ir6_7 2.199189 1_555
B2_7 Ir1_6 2.199189 1_555
B2_7 Ir1_7 2.199189 1_555
B2_7 Ir8_4 2.265752 1_565
B2_7 Ir8_5 2.265752 1_565
B2_7 Sc3_7 2.653853 1_555
B2_7 Sc1_7 2.875498 1_555
B2_7 Sc0_5 2.875498 1_565
B3_0 Ir0_1 2.199189 1_554
B3_0 Ir0_0 2.199189 1_555
B3_0 Ir7_1 2.199189 1_554
B3_0 Ir7_0 2.199189 1_555
B3_0 Ir8_1 2.265752 1_554
B3_0 Ir8_0 2.265752 1_555
B3_0 Sc2_0 2.653853 1_555
B3_0 Sc0_0 2.875498 1_555
B3_0 Sc1_2 2.875498 1_545
B3_1 Ir0_0 2.199189 1_555
B3_1 Ir0_1 2.199189 1_555
B3_1 Ir7_0 2.199189 1_555
B3_1 Ir7_1 2.199189 1_555
B3_1 Ir8_0 2.265752 1_555
B3_1 Ir8_1 2.265752 1_555
B3_1 Sc2_1 2.653853 1_555
B3_1 Sc0_1 2.875498 1_555
B3_1 Sc1_3 2.875498 1_545
B3_2 Ir0_3 2.199189 1_554
B3_2 Ir0_2 2.199189 1_555
B3_2 Ir7_3 2.199189 1_554
B3_2 Ir7_2 2.199189 1_555
B3_2 Ir8_3 2.265752 1_554
B3_2 Ir8_2 2.265752 1_555
B3_2 Sc2_2 2.653853 1_555
B3_2 Sc1_0 2.875498 1_555
B3_2 Sc0_2 2.875498 1_555
B3_3 Ir0_2 2.199189 1_555
B3_3 Ir0_3 2.199189 1_555
B3_3 Ir7_2 2.199189 1_555
B3_3 Ir7_3 2.199189 1_555
B3_3 Ir8_2 2.265752 1_555
B3_3 Ir8_3 2.265752 1_555
B3_3 Sc2_3 2.653853 1_555
B3_3 Sc1_1 2.875498 1_555
B3_3 Sc0_3 2.875498 1_555
B3_4 Ir0_5 2.199189 1_554
B3_4 Ir0_4 2.199189 1_555
B3_4 Ir7_5 2.199189 1_554
B3_4 Ir7_4 2.199189 1_555
B3_4 Ir8_5 2.265752 1_554
B3_4 Ir8_4 2.265752 1_555
B3_4 Sc2_4 2.653853 1_555
B3_4 Sc0_4 2.875498 1_555
B3_4 Sc1_6 2.875498 1_545
B3_5 Ir0_4 2.199189 1_555
B3_5 Ir0_5 2.199189 1_555
B3_5 Ir7_4 2.199189 1_555
B3_5 Ir7_5 2.199189 1_555
B3_5 Ir8_4 2.265752 1_555
B3_5 Ir8_5 2.265752 1_555
B3_5 Sc2_5 2.653853 1_555
B3_5 Sc0_5 2.875498 1_555
B3_5 Sc1_7 2.875498 1_545
B3_6 Ir0_7 2.199189 1_554
B3_6 Ir0_6 2.199189 1_555
B3_6 Ir7_7 2.199189 1_554
B3_6 Ir7_6 2.199189 1_555
B3_6 Ir8_7 2.265752 1_554
B3_6 Ir8_6 2.265752 1_555
B3_6 Sc2_6 2.653853 1_555
B3_6 Sc1_4 2.875498 1_555
B3_6 Sc0_6 2.875498 1_555
B3_7 Ir0_6 2.199189 1_555
B3_7 Ir0_7 2.199189 1_555
B3_7 Ir7_6 2.199189 1_555
B3_7 Ir7_7 2.199189 1_555
B3_7 Ir8_6 2.265752 1_555
B3_7 Ir8_7 2.265752 1_555
B3_7 Sc2_7 2.653853 1_555
B3_7 Sc0_7 2.875498 1_555
B3_7 Sc1_5 2.875498 1_555
Ir0_0 Mn0_0 2.636040 1_555
Ir0_0 Mn0_1 2.636040 1_555
Ir0_0 Ir8_0 2.755241 1_555
Ir0_0 Sc2_0 2.864711 1_555
Ir0_0 Sc2_1 2.864711 1_555
Ir0_0 Sc1_2 2.962099 1_545
Ir0_0 Sc1_3 2.962099 1_545
Ir0_0 Ir2_2 3.034400 1_545
Ir0_0 Ir4_4 3.034400 1_455
Ir0_1 Mn0_0 2.636040 1_556
Ir0_1 Mn0_1 2.636040 1_555
Ir0_1 Ir8_1 2.755241 1_555
Ir0_1 Sc2_0 2.864711 1_556
Ir0_1 Sc2_1 2.864711 1_555
Ir0_1 Sc1_2 2.962099 1_546
Ir0_1 Sc1_3 2.962099 1_545
Ir0_1 Ir2_3 3.034400 1_545
Ir0_1 Ir4_5 3.034400 1_455
Ir0_2 Mn0_2 2.636040 1_555
Ir0_2 Mn0_3 2.636040 1_555
Ir0_2 Ir8_2 2.755241 1_555
Ir0_2 Sc2_3 2.864711 1_555
Ir0_2 Sc2_2 2.864711 1_555
Ir0_2 Sc1_1 2.962099 1_555
Ir0_2 Sc1_0 2.962099 1_555
Ir0_2 Ir2_0 3.034400 1_555
Ir0_2 Ir4_6 3.034400 1_455
Ir0_3 Mn0_2 2.636040 1_556
Ir0_3 Mn0_3 2.636040 1_555
Ir0_3 Ir8_3 2.755241 1_555
Ir0_3 Sc2_2 2.864711 1_556
Ir0_3 Sc2_3 2.864711 1_555
Ir0_3 Sc1_0 2.962099 1_556
Ir0_3 Sc1_1 2.962099 1_555
Ir0_3 Ir2_1 3.034400 1_555
Ir0_3 Ir4_7 3.034400 1_455
Ir0_4 Mn0_4 2.636040 1_555
Ir0_4 Mn0_5 2.636040 1_555
Ir0_4 Ir8_4 2.755241 1_555
Ir0_4 Sc2_4 2.864711 1_555
Ir0_4 Sc2_5 2.864711 1_555
Ir0_4 Sc1_6 2.962099 1_545
Ir0_4 Sc1_7 2.962099 1_545
Ir0_4 Ir2_6 3.034400 1_545
Ir0_4 Ir4_0 3.034400 1_555
Ir0_5 Mn0_4 2.636040 1_556
Ir0_5 Mn0_5 2.636040 1_555
Ir0_5 Ir8_5 2.755241 1_555
Ir0_5 Sc2_4 2.864711 1_556
Ir0_5 Sc2_5 2.864711 1_555
Ir0_5 Sc1_6 2.962099 1_546
Ir0_5 Sc1_7 2.962099 1_545
Ir0_5 Ir2_7 3.034400 1_545
Ir0_5 Ir4_1 3.034400 1_555
Ir0_6 Mn0_6 2.636040 1_555
Ir0_6 Mn0_7 2.636040 1_555
Ir0_6 Ir8_6 2.755241 1_555
Ir0_6 Sc2_6 2.864711 1_555
Ir0_6 Sc2_7 2.864711 1_555
Ir0_6 Sc1_4 2.962099 1_555
Ir0_6 Sc1_5 2.962099 1_555
Ir0_6 Ir2_4 3.034400 1_555
Ir0_6 Ir4_2 3.034400 1_555
Ir0_7 Mn0_6 2.636040 1_556
Ir0_7 Mn0_7 2.636040 1_555
Ir0_7 Ir8_7 2.755241 1_555
Ir0_7 Sc2_6 2.864711 1_556
Ir0_7 Sc2_7 2.864711 1_555
Ir0_7 Sc1_4 2.962099 1_556
Ir0_7 Sc1_5 2.962099 1_555
Ir0_7 Ir2_5 3.034400 1_555
Ir0_7 Ir4_3 3.034400 1_555
Ir1_0 Mn0_6 2.636040 1_555
Ir1_0 Mn0_7 2.636040 1_555
Ir1_0 Ir8_2 2.755241 1_555
Ir1_0 Sc3_1 2.864711 1_555
Ir1_0 Sc3_0 2.864711 1_555
Ir1_0 Sc0_2 2.962099 1_555
Ir1_0 Sc0_3 2.962099 1_555
Ir1_0 Ir2_4 3.034400 1_555
Ir1_0 Ir4_2 3.034400 1_555
Ir1_1 Mn0_6 2.636040 1_556
Ir1_1 Mn0_7 2.636040 1_555
Ir1_1 Ir8_3 2.755241 1_555
Ir1_1 Sc3_0 2.864711 1_556
Ir1_1 Sc3_1 2.864711 1_555
Ir1_1 Sc0_2 2.962099 1_556
Ir1_1 Sc0_3 2.962099 1_555
Ir1_1 Ir2_5 3.034400 1_555
Ir1_1 Ir4_3 3.034400 1_555
Ir1_2 Mn0_5 2.636040 1_565
Ir1_2 Mn0_4 2.636040 1_565
Ir1_2 Ir8_0 2.755241 1_565
Ir1_2 Sc3_3 2.864711 1_555
Ir1_2 Sc3_2 2.864711 1_555
Ir1_2 Sc0_0 2.962099 1_565
Ir1_2 Sc0_1 2.962099 1_565
Ir1_2 Ir2_6 3.034400 1_555
Ir1_2 Ir4_0 3.034400 1_565
Ir1_3 Mn0_4 2.636040 1_566
Ir1_3 Mn0_5 2.636040 1_565
Ir1_3 Ir8_1 2.755241 1_565
Ir1_3 Sc3_2 2.864711 1_556
Ir1_3 Sc3_3 2.864711 1_555
Ir1_3 Sc0_0 2.962099 1_566
Ir1_3 Sc0_1 2.962099 1_565
Ir1_3 Ir2_7 3.034400 1_555
Ir1_3 Ir4_1 3.034400 1_565
Ir1_4 Mn0_3 2.636040 1_655
Ir1_4 Mn0_2 2.636040 1_655
Ir1_4 Ir8_6 2.755241 1_555
Ir1_4 Sc3_5 2.864711 1_555
Ir1_4 Sc3_4 2.864711 1_555
Ir1_4 Sc0_6 2.962099 1_555
Ir1_4 Sc0_7 2.962099 1_555
Ir1_4 Ir2_0 3.034400 1_655
Ir1_4 Ir4_6 3.034400 1_555
Ir1_5 Mn0_2 2.636040 1_656
Ir1_5 Mn0_3 2.636040 1_655
Ir1_5 Ir8_7 2.755241 1_555
Ir1_5 Sc3_4 2.864711 1_556
Ir1_5 Sc3_5 2.864711 1_555
Ir1_5 Sc0_6 2.962099 1_556
Ir1_5 Sc0_7 2.962099 1_555
Ir1_5 Ir2_1 3.034400 1_655
Ir1_5 Ir4_7 3.034400 1_555
Ir1_6 Mn0_1 2.636040 1_665
Ir1_6 Mn0_0 2.636040 1_665
Ir1_6 Ir8_4 2.755241 1_565
Ir1_6 Sc3_7 2.864711 1_555
Ir1_6 Sc3_6 2.864711 1_555
Ir1_6 Sc0_4 2.962099 1_565
Ir1_6 Sc0_5 2.962099 1_565
Ir1_6 Ir2_2 3.034400 1_655
Ir1_6 Ir4_4 3.034400 1_565
Ir1_7 Mn0_0 2.636040 1_666
Ir1_7 Mn0_1 2.636040 1_665
Ir1_7 Ir8_5 2.755241 1_565
Ir1_7 Sc3_6 2.864711 1_556
Ir1_7 Sc3_7 2.864711 1_555
Ir1_7 Sc0_4 2.962099 1_566
Ir1_7 Sc0_5 2.962099 1_565
Ir1_7 Ir2_3 3.034400 1_655
Ir1_7 Ir4_5 3.034400 1_565
Ir2_0 Mn0_3 2.636040 1_555
Ir2_0 Mn0_2 2.636040 1_555
Ir2_0 Ir9_0 2.755241 1_555
Ir2_0 Sc1_0 2.864711 1_555
Ir2_0 Sc1_1 2.864711 1_555
Ir2_0 Sc3_5 2.962099 1_455
Ir2_0 Sc3_4 2.962099 1_455
Ir2_1 Mn0_2 2.636040 1_556
Ir2_1 Mn0_3 2.636040 1_555
Ir2_1 Ir9_1 2.755241 1_555
Ir2_1 Sc1_0 2.864711 1_556
Ir2_1 Sc1_1 2.864711 1_555
Ir2_1 Sc3_4 2.962099 1_456
Ir2_1 Sc3_5 2.962099 1_455
Ir2_2 Mn0_0 2.636040 1_565
Ir2_2 Mn0_1 2.636040 1_565
Ir2_2 Ir9_2 2.755241 1_555
Ir2_2 Sc1_2 2.864711 1_555
Ir2_2 Sc1_3 2.864711 1_555
Ir2_2 Sc3_6 2.962099 1_455
Ir2_2 Sc3_7 2.962099 1_455
Ir2_3 Mn0_0 2.636040 1_566
Ir2_3 Mn0_1 2.636040 1_565
Ir2_3 Ir9_3 2.755241 1_555
Ir2_3 Sc1_2 2.864711 1_556
Ir2_3 Sc1_3 2.864711 1_555
Ir2_3 Sc3_6 2.962099 1_456
Ir2_3 Sc3_7 2.962099 1_455
Ir2_4 Mn0_6 2.636040 1_555
Ir2_4 Mn0_7 2.636040 1_555
Ir2_4 Ir9_4 2.755241 1_555
Ir2_4 Sc1_5 2.864711 1_555
Ir2_4 Sc1_4 2.864711 1_555
Ir2_4 Sc3_1 2.962099 1_555
Ir2_4 Sc3_0 2.962099 1_555
Ir2_5 Mn0_6 2.636040 1_556
Ir2_5 Mn0_7 2.636040 1_555
Ir2_5 Ir9_5 2.755241 1_555
Ir2_5 Sc1_4 2.864711 1_556
Ir2_5 Sc1_5 2.864711 1_555
Ir2_5 Sc3_0 2.962099 1_556
Ir2_5 Sc3_1 2.962099 1_555
Ir2_6 Mn0_5 2.636040 1_565
Ir2_6 Mn0_4 2.636040 1_565
Ir2_6 Ir9_6 2.755241 1_555
Ir2_6 Sc1_6 2.864711 1_555
Ir2_6 Sc1_7 2.864711 1_555
Ir2_6 Sc3_2 2.962099 1_555
Ir2_6 Sc3_3 2.962099 1_555
Ir2_7 Mn0_4 2.636040 1_566
Ir2_7 Mn0_5 2.636040 1_565
Ir2_7 Ir9_7 2.755241 1_555
Ir2_7 Sc1_6 2.864711 1_556
Ir2_7 Sc1_7 2.864711 1_555
Ir2_7 Sc3_2 2.962099 1_556
Ir2_7 Sc3_3 2.962099 1_555
Ir3_0 Mn1_1 2.636040 1_555
Ir3_0 Mn1_0 2.636040 1_555
Ir3_0 Ir9_4 2.755241 1_555
Ir3_0 Sc0_1 2.864711 1_555
Ir3_0 Sc0_0 2.864711 1_555
Ir3_0 Sc3_0 2.962099 1_555
Ir3_0 Sc3_1 2.962099 1_555
Ir3_0 Ir7_0 3.034400 1_555
Ir3_0 Ir6_0 3.034400 1_555
Ir3_1 Mn1_0 2.636040 1_556
Ir3_1 Mn1_1 2.636040 1_555
Ir3_1 Ir9_5 2.755241 1_555
Ir3_1 Sc0_0 2.864711 1_556
Ir3_1 Sc0_1 2.864711 1_555
Ir3_1 Sc3_0 2.962099 1_556
Ir3_1 Sc3_1 2.962099 1_555
Ir3_1 Ir7_1 3.034400 1_555
Ir3_1 Ir6_1 3.034400 1_555
Ir3_2 Mn1_3 2.636040 1_555
Ir3_2 Mn1_2 2.636040 1_555
Ir3_2 Ir9_6 2.755241 1_555
Ir3_2 Sc0_3 2.864711 1_555
Ir3_2 Sc0_2 2.864711 1_555
Ir3_2 Sc3_3 2.962099 1_555
Ir3_2 Sc3_2 2.962099 1_555
Ir3_2 Ir7_2 3.034400 1_555
Ir3_2 Ir6_2 3.034400 1_555
Ir3_3 Mn1_2 2.636040 1_556
Ir3_3 Mn1_3 2.636040 1_555
Ir3_3 Ir9_7 2.755241 1_555
Ir3_3 Sc0_2 2.864711 1_556
Ir3_3 Sc0_3 2.864711 1_555
Ir3_3 Sc3_2 2.962099 1_556
Ir3_3 Sc3_3 2.962099 1_555
Ir3_3 Ir7_3 3.034400 1_555
Ir3_3 Ir6_3 3.034400 1_555
Ir3_4 Mn1_4 2.636040 1_555
Ir3_4 Mn1_5 2.636040 1_555
Ir3_4 Ir9_0 2.755241 1_655
Ir3_4 Sc0_5 2.864711 1_555
Ir3_4 Sc0_4 2.864711 1_555
Ir3_4 Sc3_5 2.962099 1_555
Ir3_4 Sc3_4 2.962099 1_555
Ir3_4 Ir6_4 3.034400 1_555
Ir3_4 Ir7_4 3.034400 1_555
Ir3_5 Mn1_4 2.636040 1_556
Ir3_5 Mn1_5 2.636040 1_555
Ir3_5 Ir9_1 2.755241 1_655
Ir3_5 Sc0_4 2.864711 1_556
Ir3_5 Sc0_5 2.864711 1_555
Ir3_5 Sc3_4 2.962099 1_556
Ir3_5 Sc3_5 2.962099 1_555
Ir3_5 Ir6_5 3.034400 1_555
Ir3_5 Ir7_5 3.034400 1_555
Ir3_6 Mn1_6 2.636040 1_555
Ir3_6 Mn1_7 2.636040 1_555
Ir3_6 Ir9_2 2.755241 1_655
Ir3_6 Sc0_7 2.864711 1_555
Ir3_6 Sc0_6 2.864711 1_555
Ir3_6 Sc3_7 2.962099 1_555
Ir3_6 Sc3_6 2.962099 1_555
Ir3_6 Ir7_6 3.034400 1_555
Ir3_6 Ir6_6 3.034400 1_555
Ir3_7 Mn1_6 2.636040 1_556
Ir3_7 Mn1_7 2.636040 1_555
Ir3_7 Ir9_3 2.755241 1_655
Ir3_7 Sc0_6 2.864711 1_556
Ir3_7 Sc0_7 2.864711 1_555
Ir3_7 Sc3_6 2.962099 1_556
Ir3_7 Sc3_7 2.962099 1_555
Ir3_7 Ir7_7 3.034400 1_555
Ir3_7 Ir6_7 3.034400 1_555
Ir4_0 Mn0_4 2.636040 1_555
Ir4_0 Mn0_5 2.636040 1_555
Ir4_0 Ir9_4 2.755241 1_555
Ir4_0 Sc0_0 2.864711 1_555
Ir4_0 Sc0_1 2.864711 1_555
Ir4_0 Sc2_4 2.962099 1_555
Ir4_0 Sc2_5 2.962099 1_555
Ir4_1 Mn0_4 2.636040 1_556
Ir4_1 Mn0_5 2.636040 1_555
Ir4_1 Ir9_5 2.755241 1_555
Ir4_1 Sc0_0 2.864711 1_556
Ir4_1 Sc0_1 2.864711 1_555
Ir4_1 Sc2_4 2.962099 1_556
Ir4_1 Sc2_5 2.962099 1_555
Ir4_2 Mn0_6 2.636040 1_555
Ir4_2 Mn0_7 2.636040 1_555
Ir4_2 Ir9_6 2.755241 1_555
Ir4_2 Sc0_2 2.864711 1_555
Ir4_2 Sc0_3 2.864711 1_555
Ir4_2 Sc2_6 2.962099 1_555
Ir4_2 Sc2_7 2.962099 1_555
Ir4_3 Mn0_6 2.636040 1_556
Ir4_3 Mn0_7 2.636040 1_555
Ir4_3 Ir9_7 2.755241 1_555
Ir4_3 Sc0_2 2.864711 1_556
Ir4_3 Sc0_3 2.864711 1_555
Ir4_3 Sc2_6 2.962099 1_556
Ir4_3 Sc2_7 2.962099 1_555
Ir4_4 Mn0_1 2.636040 1_655
Ir4_4 Mn0_0 2.636040 1_655
Ir4_4 Ir9_0 2.755241 1_655
Ir4_4 Sc0_5 2.864711 1_555
Ir4_4 Sc0_4 2.864711 1_555
Ir4_4 Sc2_0 2.962099 1_655
Ir4_4 Sc2_1 2.962099 1_655
Ir4_5 Mn0_0 2.636040 1_656
Ir4_5 Mn0_1 2.636040 1_655
Ir4_5 Ir9_1 2.755241 1_655
Ir4_5 Sc0_4 2.864711 1_556
Ir4_5 Sc0_5 2.864711 1_555
Ir4_5 Sc2_0 2.962099 1_656
Ir4_5 Sc2_1 2.962099 1_655
Ir4_6 Mn0_3 2.636040 1_655
Ir4_6 Mn0_2 2.636040 1_655
Ir4_6 Ir9_2 2.755241 1_655
Ir4_6 Sc0_7 2.864711 1_555
Ir4_6 Sc0_6 2.864711 1_555
Ir4_6 Sc2_3 2.962099 1_655
Ir4_6 Sc2_2 2.962099 1_655
Ir4_7 Mn0_2 2.636040 1_656
Ir4_7 Mn0_3 2.636040 1_655
Ir4_7 Ir9_3 2.755241 1_655
Ir4_7 Sc0_6 2.864711 1_556
Ir4_7 Sc0_7 2.864711 1_555
Ir4_7 Sc2_2 2.962099 1_656
Ir4_7 Sc2_3 2.962099 1_655
Ir5_0 Mn1_0 2.636040 1_555
Ir5_0 Mn1_1 2.636040 1_555
Ir5_0 Ir9_0 2.755241 1_555
Ir5_0 Sc1_1 2.864711 1_555
Ir5_0 Sc1_0 2.864711 1_555
Ir5_0 Sc2_1 2.962099 1_555
Ir5_0 Sc2_0 2.962099 1_555
Ir5_0 Ir7_0 3.034400 1_555
Ir5_0 Ir6_0 3.034400 1_555
Ir5_1 Mn1_0 2.636040 1_556
Ir5_1 Mn1_1 2.636040 1_555
Ir5_1 Ir9_1 2.755241 1_555
Ir5_1 Sc1_0 2.864711 1_556
Ir5_1 Sc1_1 2.864711 1_555
Ir5_1 Sc2_0 2.962099 1_556
Ir5_1 Sc2_1 2.962099 1_555
Ir5_1 Ir7_1 3.034400 1_555
Ir5_1 Ir6_1 3.034400 1_555
Ir5_2 Mn1_3 2.636040 1_555
Ir5_2 Mn1_2 2.636040 1_555
Ir5_2 Ir9_2 2.755241 1_555
Ir5_2 Sc1_2 2.864711 1_555
Ir5_2 Sc1_3 2.864711 1_555
Ir5_2 Sc2_2 2.962099 1_555
Ir5_2 Sc2_3 2.962099 1_555
Ir5_2 Ir6_2 3.034400 1_555
Ir5_2 Ir7_2 3.034400 1_555
Ir5_3 Mn1_2 2.636040 1_556
Ir5_3 Mn1_3 2.636040 1_555
Ir5_3 Ir9_3 2.755241 1_555
Ir5_3 Sc1_2 2.864711 1_556
Ir5_3 Sc1_3 2.864711 1_555
Ir5_3 Sc2_2 2.962099 1_556
Ir5_3 Sc2_3 2.962099 1_555
Ir5_3 Ir6_3 3.034400 1_555
Ir5_3 Ir7_3 3.034400 1_555
Ir5_4 Mn1_4 2.636040 1_555
Ir5_4 Mn1_5 2.636040 1_555
Ir5_4 Ir9_4 2.755241 1_555
Ir5_4 Sc1_5 2.864711 1_555
Ir5_4 Sc1_4 2.864711 1_555
Ir5_4 Sc2_4 2.962099 1_555
Ir5_4 Sc2_5 2.962099 1_555
Ir5_4 Ir7_4 3.034400 1_555
Ir5_4 Ir6_4 3.034400 1_555
Ir5_5 Mn1_4 2.636040 1_556
Ir5_5 Mn1_5 2.636040 1_555
Ir5_5 Ir9_5 2.755241 1_555
Ir5_5 Sc1_4 2.864711 1_556
Ir5_5 Sc1_5 2.864711 1_555
Ir5_5 Sc2_4 2.962099 1_556
Ir5_5 Sc2_5 2.962099 1_555
Ir5_5 Ir7_5 3.034400 1_555
Ir5_5 Ir6_5 3.034400 1_555
Ir5_6 Mn1_6 2.636040 1_555
Ir5_6 Mn1_7 2.636040 1_555
Ir5_6 Ir9_6 2.755241 1_555
Ir5_6 Sc1_6 2.864711 1_555
Ir5_6 Sc1_7 2.864711 1_555
Ir5_6 Sc2_6 2.962099 1_555
Ir5_6 Sc2_7 2.962099 1_555
Ir5_6 Ir7_6 3.034400 1_555
Ir5_6 Ir6_6 3.034400 1_555
Ir5_7 Mn1_6 2.636040 1_556
Ir5_7 Mn1_7 2.636040 1_555
Ir5_7 Ir9_7 2.755241 1_555
Ir5_7 Sc1_6 2.864711 1_556
Ir5_7 Sc1_7 2.864711 1_555
Ir5_7 Sc2_6 2.962099 1_556
Ir5_7 Sc2_7 2.962099 1_555
Ir5_7 Ir7_7 3.034400 1_555
Ir5_7 Ir6_7 3.034400 1_555
Ir6_0 Mn1_1 2.636040 1_555
Ir6_0 Mn1_0 2.636040 1_555
Ir6_0 Ir8_2 2.755241 1_555
Ir6_0 Sc3_1 2.864711 1_555
Ir6_0 Sc3_0 2.864711 1_555
Ir6_0 Sc1_1 2.962099 1_555
Ir6_0 Sc1_0 2.962099 1_555
Ir6_1 Mn1_0 2.636040 1_556
Ir6_1 Mn1_1 2.636040 1_555
Ir6_1 Ir8_3 2.755241 1_555
Ir6_1 Sc3_0 2.864711 1_556
Ir6_1 Sc3_1 2.864711 1_555
Ir6_1 Sc1_0 2.962099 1_556
Ir6_1 Sc1_1 2.962099 1_555
Ir6_2 Mn1_2 2.636040 1_555
Ir6_2 Mn1_3 2.636040 1_555
Ir6_2 Ir8_0 2.755241 1_565
Ir6_2 Sc3_2 2.864711 1_555
Ir6_2 Sc3_3 2.864711 1_555
Ir6_2 Sc1_3 2.962099 1_555
Ir6_2 Sc1_2 2.962099 1_555
Ir6_3 Mn1_2 2.636040 1_556
Ir6_3 Mn1_3 2.636040 1_555
Ir6_3 Ir8_1 2.755241 1_565
Ir6_3 Sc3_2 2.864711 1_556
Ir6_3 Sc3_3 2.864711 1_555
Ir6_3 Sc1_2 2.962099 1_556
Ir6_3 Sc1_3 2.962099 1_555
Ir6_4 Mn1_5 2.636040 1_555
Ir6_4 Mn1_4 2.636040 1_555
Ir6_4 Ir8_6 2.755241 1_555
Ir6_4 Sc3_5 2.864711 1_555
Ir6_4 Sc3_4 2.864711 1_555
Ir6_4 Sc1_5 2.962099 1_555
Ir6_4 Sc1_4 2.962099 1_555
Ir6_5 Mn1_4 2.636040 1_556
Ir6_5 Mn1_5 2.636040 1_555
Ir6_5 Ir8_7 2.755241 1_555
Ir6_5 Sc3_4 2.864711 1_556
Ir6_5 Sc3_5 2.864711 1_555
Ir6_5 Sc1_4 2.962099 1_556
Ir6_5 Sc1_5 2.962099 1_555
Ir6_6 Mn1_6 2.636040 1_555
Ir6_6 Mn1_7 2.636040 1_555
Ir6_6 Ir8_4 2.755241 1_565
Ir6_6 Sc3_7 2.864711 1_555
Ir6_6 Sc3_6 2.864711 1_555
Ir6_6 Sc1_7 2.962099 1_555
Ir6_6 Sc1_6 2.962099 1_555
Ir6_7 Mn1_6 2.636040 1_556
Ir6_7 Mn1_7 2.636040 1_555
Ir6_7 Ir8_5 2.755241 1_565
Ir6_7 Sc3_6 2.864711 1_556
Ir6_7 Sc3_7 2.864711 1_555
Ir6_7 Sc1_6 2.962099 1_556
Ir6_7 Sc1_7 2.962099 1_555
Ir7_0 Mn1_0 2.636040 1_555
Ir7_0 Mn1_1 2.636040 1_555
Ir7_0 Ir8_0 2.755241 1_555
Ir7_0 Sc2_1 2.864711 1_555
Ir7_0 Sc2_0 2.864711 1_555
Ir7_0 Sc0_0 2.962099 1_555
Ir7_0 Sc0_1 2.962099 1_555
Ir7_1 Mn1_0 2.636040 1_556
Ir7_1 Mn1_1 2.636040 1_555
Ir7_1 Ir8_1 2.755241 1_555
Ir7_1 Sc2_0 2.864711 1_556
Ir7_1 Sc2_1 2.864711 1_555
Ir7_1 Sc0_0 2.962099 1_556
Ir7_1 Sc0_1 2.962099 1_555
Ir7_2 Mn1_2 2.636040 1_555
Ir7_2 Mn1_3 2.636040 1_555
Ir7_2 Ir8_2 2.755241 1_555
Ir7_2 Sc2_2 2.864711 1_555
Ir7_2 Sc2_3 2.864711 1_555
Ir7_2 Sc0_2 2.962099 1_555
Ir7_2 Sc0_3 2.962099 1_555
Ir7_3 Mn1_2 2.636040 1_556
Ir7_3 Mn1_3 2.636040 1_555
Ir7_3 Ir8_3 2.755241 1_555
Ir7_3 Sc2_2 2.864711 1_556
Ir7_3 Sc2_3 2.864711 1_555
Ir7_3 Sc0_2 2.962099 1_556
Ir7_3 Sc0_3 2.962099 1_555
Ir7_4 Mn1_5 2.636040 1_555
Ir7_4 Mn1_4 2.636040 1_555
Ir7_4 Ir8_4 2.755241 1_555
Ir7_4 Sc2_4 2.864711 1_555
Ir7_4 Sc2_5 2.864711 1_555
Ir7_4 Sc0_4 2.962099 1_555
Ir7_4 Sc0_5 2.962099 1_555
Ir7_5 Mn1_4 2.636040 1_556
Ir7_5 Mn1_5 2.636040 1_555
Ir7_5 Ir8_5 2.755241 1_555
Ir7_5 Sc2_4 2.864711 1_556
Ir7_5 Sc2_5 2.864711 1_555
Ir7_5 Sc0_4 2.962099 1_556
Ir7_5 Sc0_5 2.962099 1_555
Ir7_6 Mn1_6 2.636040 1_555
Ir7_6 Mn1_7 2.636040 1_555
Ir7_6 Ir8_6 2.755241 1_555
Ir7_6 Sc2_6 2.864711 1_555
Ir7_6 Sc2_7 2.864711 1_555
Ir7_6 Sc0_6 2.962099 1_555
Ir7_6 Sc0_7 2.962099 1_555
Ir7_7 Mn1_6 2.636040 1_556
Ir7_7 Mn1_7 2.636040 1_555
Ir7_7 Ir8_7 2.755241 1_555
Ir7_7 Sc2_6 2.864711 1_556
Ir7_7 Sc2_7 2.864711 1_555
Ir7_7 Sc0_6 2.962099 1_556
Ir7_7 Sc0_7 2.962099 1_555
Ir8_0 Sc0_1 2.797265 1_555
Ir8_0 Sc0_0 2.797265 1_555
Ir8_0 Sc1_2 2.797265 1_545
Ir8_0 Sc1_3 2.797265 1_545
Ir8_1 Sc0_0 2.797265 1_556
Ir8_1 Sc0_1 2.797265 1_555
Ir8_1 Sc1_2 2.797265 1_546
Ir8_1 Sc1_3 2.797265 1_545
Ir8_2 Sc0_2 2.797265 1_555
Ir8_2 Sc0_3 2.797265 1_555
Ir8_2 Sc1_1 2.797265 1_555
Ir8_2 Sc1_0 2.797265 1_555
Ir8_3 Sc0_2 2.797265 1_556
Ir8_3 Sc0_3 2.797265 1_555
Ir8_3 Sc1_0 2.797265 1_556
Ir8_3 Sc1_1 2.797265 1_555
Ir8_4 Sc0_5 2.797265 1_555
Ir8_4 Sc0_4 2.797265 1_555
Ir8_4 Sc1_6 2.797265 1_545
Ir8_4 Sc1_7 2.797265 1_545
Ir8_5 Sc0_4 2.797265 1_556
Ir8_5 Sc0_5 2.797265 1_555
Ir8_5 Sc1_6 2.797265 1_546
Ir8_5 Sc1_7 2.797265 1_545
Ir8_6 Sc0_6 2.797265 1_555
Ir8_6 Sc0_7 2.797265 1_555
Ir8_6 Sc1_4 2.797265 1_555
Ir8_6 Sc1_5 2.797265 1_555
Ir8_7 Sc0_6 2.797265 1_556
Ir8_7 Sc0_7 2.797265 1_555
Ir8_7 Sc1_4 2.797265 1_556
Ir8_7 Sc1_5 2.797265 1_555
Ir9_0 Sc2_0 2.797265 1_555
Ir9_0 Sc2_1 2.797265 1_555
Ir9_0 Sc3_5 2.797265 1_455
Ir9_0 Sc3_4 2.797265 1_455
Ir9_1 Sc2_0 2.797265 1_556
Ir9_1 Sc2_1 2.797265 1_555
Ir9_1 Sc3_4 2.797265 1_456
Ir9_1 Sc3_5 2.797265 1_455
Ir9_2 Sc2_2 2.797265 1_555
Ir9_2 Sc2_3 2.797265 1_555
Ir9_2 Sc3_6 2.797265 1_455
Ir9_2 Sc3_7 2.797265 1_455
Ir9_3 Sc2_2 2.797265 1_556
Ir9_3 Sc2_3 2.797265 1_555
Ir9_3 Sc3_6 2.797265 1_456
Ir9_3 Sc3_7 2.797265 1_455
Ir9_4 Sc2_4 2.797265 1_555
Ir9_4 Sc2_5 2.797265 1_555
Ir9_4 Sc3_1 2.797265 1_555
Ir9_4 Sc3_0 2.797265 1_555
Ir9_5 Sc2_4 2.797265 1_556
Ir9_5 Sc2_5 2.797265 1_555
Ir9_5 Sc3_0 2.797265 1_556
Ir9_5 Sc3_1 2.797265 1_555
Ir9_6 Sc2_7 2.797265 1_555
Ir9_6 Sc2_6 2.797265 1_555
Ir9_6 Sc3_3 2.797265 1_555
Ir9_6 Sc3_2 2.797265 1_555
Ir9_7 Sc2_6 2.797265 1_556
Ir9_7 Sc2_7 2.797265 1_555
Ir9_7 Sc3_2 2.797265 1_556
Ir9_7 Sc3_3 2.797265 1_555
