# generated using pymatgen
data_Li9Mn2Co5O16
_symmetry_space_group_name_H-M   'P 1'
_cell_length_a   5.11976900
_cell_length_b   7.63699515
_cell_length_c   7.82650450
_cell_angle_alpha   98.03196328
_cell_angle_beta   101.70798695
_cell_angle_gamma   103.27137966
_symmetry_Int_Tables_number   1
_chemical_formula_structural   Li9Mn2Co5O16
_chemical_formula_sum   'Li9 Mn2 Co5 O16'
_cell_volume   286.01736224
_cell_formula_units_Z   1
loop_
 _symmetry_equiv_pos_site_id
 _symmetry_equiv_pos_as_xyz
  1  'x, y, z'
loop_
 _atom_site_type_symbol
 _atom_site_label
 _atom_site_symmetry_multiplicity
 _atom_site_fract_x
 _atom_site_fract_y
 _atom_site_fract_z
 _atom_site_occupancy
  Li  Li0  1  0.49419100  0.12365200  0.86958100  1
  Li  Li1  1  0.49913400  0.99750500  0.50618400  1
  Li  Li2  1  0.49958600  0.37227800  0.62176200  1
  Li  Li3  1  0.50011600  0.24872700  0.25201000  1
  Li  Li4  1  0.50728500  0.62921000  0.38324700  1
  Li  Li5  1  0.49891200  0.50029000  0.00067700  1
  Li  Li6  1  0.49865800  0.87373600  0.12385000  1
  Li  Li7  1  0.50354600  0.75345300  0.74141300  1
  Li  Li8  1  0.00287500  0.87617300  0.62612300  1
  Mn  Mn0  1  0.00188100  0.00143900  0.99729400  1
  Mn  Mn1  1  0.99438900  0.50098800  0.50047700  1
  Co  Co0  1  0.00129900  0.75413100  0.25831500  1
  Co  Co1  1  0.99439300  0.62890400  0.86743100  1
  Co  Co2  1  0.00457500  0.37693900  0.12630400  1
  Co  Co3  1  0.00175200  0.24788400  0.74820100  1
  Co  Co4  1  0.00198200  0.12137800  0.38371000  1
  O  O0  1  0.78427400  0.12924000  0.12038700  1
  O  O1  1  0.78108800  0.01381500  0.76859200  1
  O  O2  1  0.78421800  0.37962800  0.87684200  1
  O  O3  1  0.76129200  0.25716300  0.49673400  1
  O  O4  1  0.77108500  0.61488900  0.62248300  1
  O  O5  1  0.76911900  0.50130000  0.26591500  1
  O  O6  1  0.76735400  0.88043300  0.36391500  1
  O  O7  1  0.76704300  0.76077000  0.99998400  1
  O  O8  1  0.22538800  0.13315300  0.62435900  1
  O  O9  1  0.22802700  0.99849000  0.23703400  1
  O  O10  1  0.21662000  0.37287100  0.37695200  1
  O  O11  1  0.24111800  0.23980200  0.00397400  1
  O  O12  1  0.22358200  0.61633100  0.12473800  1
  O  O13  1  0.21909200  0.49029800  0.73242900  1
  O  O14  1  0.22416500  0.86976100  0.88622400  1
  O  O15  1  0.23196000  0.73536700  0.49286300  1
loop_
_geom_bond_atom_site_label_1
_geom_bond_atom_site_label_2
_geom_bond_distance
_geom_bond_site_symmetry_2
Li0 O1 2.082653 1_555
Li0 O11 2.095710 1_556
Li0 O8 2.143706 1_555
Li0 O14 2.144929 1_545
Li0 O2 2.152123 1_555
Li0 O0 2.196580 1_556
Li1 O15 2.125146 1_555
Li1 O3 2.144419 1_565
Li1 O8 2.194947 1_565
Li1 O6 2.197952 1_555
Li1 O1 2.227088 1_565
Li1 O9 2.277403 1_555
Li2 O8 2.037412 1_555
Li2 O4 2.043659 1_555
Li2 O3 2.087628 1_555
Li2 O13 2.122679 1_555
Li2 O10 2.156107 1_555
Li2 O2 2.205154 1_555
Li3 O9 2.062835 1_545
Li3 O5 2.071252 1_555
Li3 O3 2.084993 1_555
Li3 O11 2.099582 1_555
Li3 O10 2.215960 1_555
Li3 O0 2.228334 1_555
Li4 O15 2.049724 1_555
Li4 O4 2.107275 1_555
Li4 O5 2.108239 1_555
Li4 O6 2.113469 1_555
Li4 O10 2.157578 1_555
Li4 O12 2.213361 1_555
Li5 O11 2.126693 1_555
Li5 O7 2.143366 1_554
Li5 O12 2.145634 1_555
Li5 O2 2.205701 1_554
Li5 O5 2.246837 1_555
Li5 O13 2.269415 1_554
Li6 O6 2.077755 1_555
Li6 O14 2.082929 1_554
Li6 O7 2.103171 1_554
Li6 O9 2.116743 1_555
Li6 O12 2.141146 1_555
Li6 O0 2.160404 1_565
Li7 O15 2.115549 1_555
Li7 O1 2.116585 1_565
Li7 O13 2.177150 1_555
Li7 O7 2.178125 1_555
Li7 O4 2.184049 1_555
Li7 O14 2.253746 1_555
Li8 O8 2.033980 1_565
Li8 O4 2.067365 1_455
Li8 O1 2.090919 1_465
Li8 O15 2.093279 1_555
Li8 O14 2.132438 1_555
Li8 O6 2.167680 1_455
Mn0 O11 1.934024 1_556
Mn0 O14 1.935133 1_545
Mn0 O1 1.940564 1_455
Mn0 O0 1.947824 1_456
Mn0 O7 1.957216 1_445
Mn0 O9 2.000936 1_546
Mn1 O4 1.908676 1_555
Mn1 O15 1.935595 1_655
Mn1 O3 1.960289 1_555
Mn1 O5 1.960492 1_555
Mn1 O13 1.965368 1_655
Mn1 O10 1.969691 1_655
Co0 O6 1.938416 1_455
Co0 O9 2.007116 1_555
Co0 O15 2.014025 1_555
Co0 O5 2.037598 1_455
Co0 O12 2.054472 1_555
Co0 O7 2.145044 1_454
Co1 O14 1.910410 1_655
Co1 O2 1.979465 1_555
Co1 O4 1.997681 1_555
Co1 O7 2.044892 1_555
Co1 O13 2.073688 1_655
Co1 O12 2.142025 1_656
Co2 O12 1.915852 1_555
Co2 O0 1.956386 1_455
Co2 O10 2.048413 1_555
Co2 O2 2.052565 1_454
Co2 O11 2.062241 1_555
Co2 O5 2.078304 1_455
Co3 O8 1.921402 1_555
Co3 O1 1.929491 1_455
Co3 O13 1.963306 1_555
Co3 O2 1.988169 1_455
Co3 O3 2.118906 1_455
Co3 O11 2.141616 1_556
Co4 O6 1.919085 1_445
Co4 O8 1.973532 1_555
Co4 O10 1.995549 1_555
Co4 O3 2.036932 1_455
Co4 O9 2.067536 1_545
Co4 O0 2.150885 1_455
