# generated using pymatgen
data_Sr2MnCrO6
_symmetry_space_group_name_H-M   'P 1'
_cell_length_a   5.50161588
_cell_length_b   6.70387544
_cell_length_c   6.70338888
_cell_angle_alpha   69.76109685
_cell_angle_beta   90.05631073
_cell_angle_gamma   90.05776671
_symmetry_Int_Tables_number   1
_chemical_formula_structural   Sr2MnCrO6
_chemical_formula_sum   'Sr4 Mn2 Cr2 O12'
_cell_volume   231.97048780
_cell_formula_units_Z   2
loop_
 _symmetry_equiv_pos_site_id
 _symmetry_equiv_pos_as_xyz
  1  'x, y, z'
loop_
 _atom_site_type_symbol
 _atom_site_label
 _atom_site_symmetry_multiplicity
 _atom_site_fract_x
 _atom_site_fract_y
 _atom_site_fract_z
 _atom_site_occupancy
  Sr  Sr0  1  0.99982200  0.00136200  0.99834300  1
  Sr  Sr1  1  0.99981000  0.49827100  0.50141700  1
  Sr  Sr2  1  0.50043900  0.25031900  0.24977500  1
  Sr  Sr3  1  0.50032200  0.74966800  0.75027800  1
  Mn  Mn0  1  0.49792900  0.74987800  0.24984800  1
  Mn  Mn1  1  0.50216300  0.24969200  0.74988900  1
  Cr  Cr0  1  0.00092200  0.50084300  0.00093300  1
  Cr  Cr1  1  0.00081900  0.99867900  0.49884400  1
  O  O0  1  0.99977500  0.25006300  0.25007300  1
  O  O1  1  0.99999700  0.74995000  0.74988900  1
  O  O2  1  0.50122700  0.99991700  0.00017200  1
  O  O3  1  0.50116300  0.50022300  0.49986400  1
  O  O4  1  0.74182600  0.37444900  0.87442600  1
  O  O5  1  0.75419400  0.87507900  0.37511200  1
  O  O6  1  0.25736600  0.62629900  0.12623000  1
  O  O7  1  0.24404900  0.12533700  0.62542300  1
  O  O8  1  0.75392900  0.62496100  0.12487400  1
  O  O9  1  0.74257700  0.12630600  0.62583400  1
  O  O10  1  0.24459000  0.37502000  0.87502400  1
  O  O11  1  0.25708000  0.87368400  0.37375300  1
loop_
_geom_bond_atom_site_label_1
_geom_bond_atom_site_label_2
_geom_bond_distance
_geom_bond_site_symmetry_2
Mn0 O6 1.896112 1_555
Mn0 O11 1.901539 1_555
Mn0 O3 1.915617 1_555
Mn0 O2 1.915788 1_555
Mn0 O8 1.968965 1_555
Mn0 O5 1.969824 1_555
Mn1 O9 1.898806 1_555
Mn1 O4 1.900954 1_555
Mn1 O2 1.917025 1_546
Mn1 O3 1.918936 1_555
Mn1 O7 1.970829 1_555
Mn1 O10 1.977364 1_555
Cr0 O0 1.916520 1_455
Cr0 O1 1.917409 1_454
Cr0 O8 1.926631 1_455
Cr0 O10 1.928224 1_554
Cr0 O6 1.971634 1_555
Cr0 O4 1.990314 1_454
Cr1 O1 1.915975 1_455
Cr1 O0 1.917452 1_465
Cr1 O5 1.920036 1_455
Cr1 O7 1.930169 1_565
Cr1 O11 1.970742 1_555
Cr1 O9 1.995987 1_465
O0 Sr2 2.747155 1_555
O0 Sr1 2.747211 1_555
O0 Sr0 2.752043 1_554
O0 Sr2 2.754462 1_655
O1 Sr0 2.748938 1_565
O1 Sr3 2.749022 1_555
O1 Sr1 2.750507 1_555
O1 Sr3 2.752597 1_655
O2 Sr0 2.743110 1_564
O2 Sr2 2.749687 1_565
O2 Sr3 2.750434 1_554
O2 Sr0 2.758565 1_464
O3 Sr1 2.743401 1_555
O3 Sr3 2.748885 1_555
O3 Sr2 2.749609 1_555
O3 Sr1 2.758282 1_455
O4 Sr3 2.709519 1_555
O4 Sr2 2.709729 1_556
O4 Sr1 2.743034 1_555
O4 Sr0 2.743673 1_555
O5 Sr0 2.728870 1_564
O5 Sr1 2.729243 1_555
O5 Sr3 2.742981 1_555
O5 Sr2 2.743253 1_565
O6 Sr3 2.717379 1_554
O6 Sr2 2.718024 1_555
O6 Sr0 2.752834 1_464
O6 Sr1 2.753342 1_455
O7 Sr0 2.704100 1_455
O7 Sr1 2.704398 1_455
O7 Sr3 2.752706 1_545
O7 Sr2 2.752718 1_555
O8 Sr0 2.726054 1_564
O8 Sr1 2.726682 1_555
O8 Sr3 2.737536 1_554
O8 Sr2 2.737549 1_555
O9 Sr2 2.714077 1_555
O9 Sr3 2.717652 1_545
O9 Sr1 2.733634 1_555
O9 Sr0 2.736472 1_555
O10 Sr1 2.707835 1_455
O10 Sr0 2.708183 1_455
O10 Sr3 2.743890 1_555
O10 Sr2 2.744678 1_556
O11 Sr3 2.719626 1_555
O11 Sr2 2.720661 1_565
O11 Sr0 2.752060 1_464
O11 Sr1 2.752214 1_455
