# generated using pymatgen
data_K2Au(IO3)5
_symmetry_space_group_name_H-M   'P 1'
_cell_length_a   8.37332537
_cell_length_b   8.37332537
_cell_length_c   11.87089300
_cell_angle_alpha   90.00000000
_cell_angle_beta   90.00000000
_cell_angle_gamma   90.76851248
_symmetry_Int_Tables_number   1
_chemical_formula_structural   K2Au(IO3)5
_chemical_formula_sum   'K4 Au2 I10 O30'
_cell_volume   832.22404042
_cell_formula_units_Z   2
loop_
 _symmetry_equiv_pos_site_id
 _symmetry_equiv_pos_as_xyz
  1  'x, y, z'
loop_
 _atom_site_type_symbol
 _atom_site_label
 _atom_site_symmetry_multiplicity
 _atom_site_fract_x
 _atom_site_fract_y
 _atom_site_fract_z
 _atom_site_occupancy
  K  K0  1  0.99360100  0.46966500  0.43079100  1
  K  K1  1  0.53033500  0.00639900  0.43079100  1
  K  K2  1  0.00639900  0.53033500  0.93079100  1
  K  K3  1  0.46966500  0.99360100  0.93079100  1
  Au  Au0  1  0.99044800  0.00955200  0.31467400  1
  Au  Au1  1  0.00955200  0.99044800  0.81467400  1
  I  I0  1  0.50090800  0.49909200  0.44315400  1
  I  I1  1  0.49909200  0.50090800  0.94315400  1
  I  I2  1  0.76310800  0.23689200  0.15465100  1
  I  I3  1  0.23689200  0.76310800  0.65465100  1
  I  I4  1  0.25725300  0.74274700  0.21027200  1
  I  I5  1  0.74274700  0.25725300  0.71027200  1
  I  I6  1  0.27468200  0.23776200  0.18770000  1
  I  I7  1  0.76223800  0.72531800  0.18770000  1
  I  I8  1  0.72531800  0.76223800  0.68770100  1
  I  I9  1  0.23776200  0.27468200  0.68770100  1
  O  O0  1  0.63910400  0.36089600  0.51156800  1
  O  O1  1  0.36089600  0.63910400  0.01156800  1
  O  O2  1  0.31318100  0.44838200  0.51727400  1
  O  O3  1  0.55161800  0.68681900  0.51727400  1
  O  O4  1  0.68681900  0.55161800  0.01727400  1
  O  O5  1  0.44838200  0.31318100  0.01727400  1
  O  O6  1  0.96202800  0.27840300  0.09930600  1
  O  O7  1  0.72159700  0.03797200  0.09930600  1
  O  O8  1  0.03797200  0.72159700  0.59930600  1
  O  O9  1  0.27840300  0.96202800  0.59930600  1
  O  O10  1  0.82000800  0.17999200  0.30633600  1
  O  O11  1  0.17999200  0.82000800  0.80633600  1
  O  O12  1  0.22570100  0.54091800  0.26504900  1
  O  O13  1  0.45908200  0.77429900  0.26504900  1
  O  O14  1  0.77429900  0.45908200  0.76504900  1
  O  O15  1  0.54091800  0.22570100  0.76504900  1
  O  O16  1  0.15894500  0.84105500  0.33855900  1
  O  O17  1  0.84105500  0.15894500  0.83855900  1
  O  O18  1  0.27812800  0.03768600  0.12665800  1
  O  O19  1  0.96231400  0.72187200  0.12665800  1
  O  O20  1  0.72187200  0.96231400  0.62665800  1
  O  O21  1  0.03768600  0.27812800  0.62665800  1
  O  O22  1  0.46104600  0.24560900  0.26782300  1
  O  O23  1  0.75439100  0.53895400  0.26782300  1
  O  O24  1  0.53895400  0.75439100  0.76782300  1
  O  O25  1  0.24560900  0.46104600  0.76782300  1
  O  O26  1  0.15738900  0.18586500  0.32317100  1
  O  O27  1  0.81413500  0.84261100  0.32317100  1
  O  O28  1  0.84261100  0.81413500  0.82317100  1
  O  O29  1  0.18586500  0.15738900  0.82317100  1
loop_
_geom_bond_atom_site_label_1
_geom_bond_atom_site_label_2
_geom_bond_distance
_geom_bond_site_symmetry_2
K0 O12 2.823637 1_655
K0 O23 2.849966 1_555
K0 O21 2.851401 1_655
K0 O2 2.873885 1_655
K0 O8 2.927240 1_655
K0 O26 3.040964 1_655
K0 O10 3.175547 1_555
K0 O0 3.238419 1_555
K0 O16 3.559594 1_655
K1 O13 2.823637 1_545
K1 O22 2.849966 1_555
K1 O20 2.851401 1_545
K1 O3 2.873885 1_545
K1 O9 2.927240 1_545
K1 O27 3.040964 1_545
K1 O10 3.175547 1_555
K1 O0 3.238419 1_555
K1 O16 3.559594 1_545
K2 O14 2.823637 1_455
K2 O25 2.849966 1_555
K2 O19 2.851401 1_456
K2 O4 2.873885 1_456
K2 O6 2.927240 1_456
K2 O28 3.040964 1_455
K2 O11 3.175547 1_555
K2 O1 3.238419 1_556
K2 O17 3.559594 1_455
K3 O15 2.823637 1_565
K3 O24 2.849966 1_555
K3 O18 2.851401 1_566
K3 O5 2.873885 1_566
K3 O7 2.927240 1_566
K3 O29 3.040964 1_565
K3 O11 3.175547 1_555
K3 O1 3.238419 1_556
K3 O17 3.559594 1_565
Au0 O26 2.021965 1_655
Au0 O27 2.021965 1_545
Au0 O16 2.028536 1_645
Au0 O10 2.034194 1_555
Au1 O29 2.021965 1_565
Au1 O28 2.021965 1_455
Au1 O17 2.028536 1_465
Au1 O11 2.034194 1_555
I0 O0 1.836715 1_555
I0 O3 1.845922 1_555
I0 O2 1.845922 1_555
I1 O1 1.836715 1_556
I1 O4 1.845922 1_556
I1 O5 1.845922 1_556
I2 O6 1.819677 1_555
I2 O7 1.819677 1_555
I2 O10 1.924156 1_555
I3 O9 1.819677 1_555
I3 O8 1.819677 1_555
I3 O11 1.924156 1_555
I4 O12 1.826659 1_555
I4 O13 1.826659 1_555
I4 O16 1.921600 1_555
I5 O15 1.826659 1_555
I5 O14 1.826659 1_555
I5 O17 1.921600 1_555
I6 O18 1.825881 1_555
I6 O22 1.827932 1_555
I6 O26 1.930843 1_555
I6 O5 2.565648 1_555
I7 O19 1.825881 1_555
I7 O23 1.827932 1_555
I7 O27 1.930843 1_555
I7 O4 2.565648 1_555
I8 O20 1.825886 1_555
I8 O24 1.827926 1_555
I8 O28 1.930833 1_555
I8 O3 2.565657 1_555
I9 O21 1.825886 1_555
I9 O25 1.827926 1_555
I9 O29 1.930833 1_555
I9 O2 2.565657 1_555
O22 O26 2.666971 1_555
O23 O27 2.666971 1_555
O24 O28 2.666971 1_555
O25 O29 2.666971 1_555
