# generated using pymatgen
data_Ho5SbPd2
_symmetry_space_group_name_H-M   'P 1'
_cell_length_a   8.68531603
_cell_length_b   8.68531603
_cell_length_c   8.68531603
_cell_angle_alpha   127.49335770
_cell_angle_beta   127.49335770
_cell_angle_gamma   77.44721813
_symmetry_Int_Tables_number   1
_chemical_formula_structural   Ho5SbPd2
_chemical_formula_sum   'Ho10 Sb2 Pd4'
_cell_volume   400.05654212
_cell_formula_units_Z   2
loop_
 _symmetry_equiv_pos_site_id
 _symmetry_equiv_pos_as_xyz
  1  'x, y, z'
loop_
 _atom_site_type_symbol
 _atom_site_label
 _atom_site_symmetry_multiplicity
 _atom_site_fract_x
 _atom_site_fract_y
 _atom_site_fract_z
 _atom_site_occupancy
  Ho  Ho0  1  0.00000000  -0.00000000  -0.00000000  1
  Ho  Ho1  1  0.50000000  0.50000000  -0.00000000  1
  Ho  Ho2  1  0.79789409  0.29789409  0.81116156  1
  Ho  Ho3  1  0.20210591  0.70210591  0.18883844  1
  Ho  Ho4  1  0.48673252  0.98673252  0.18883844  1
  Ho  Ho5  1  0.29789409  0.48673252  0.50000000  1
  Ho  Ho6  1  0.01326748  0.20210591  0.50000000  1
  Ho  Ho7  1  0.51326748  0.01326748  0.81116156  1
  Ho  Ho8  1  0.70210591  0.51326748  0.50000000  1
  Ho  Ho9  1  0.98673252  0.79789409  0.50000000  1
  Sb  Sb0  1  0.25000000  0.25000000  -0.00000000  1
  Sb  Sb1  1  0.75000000  0.75000000  -0.00000000  1
  Pd  Pd0  1  0.13669794  0.63669794  0.77339588  1
  Pd  Pd1  1  0.86330206  0.36330206  0.22660412  1
  Pd  Pd2  1  0.63669794  0.86330206  0.50000000  1
  Pd  Pd3  1  0.36330206  0.13669794  0.50000000  1
loop_
_geom_bond_atom_site_label_1
_geom_bond_atom_site_label_2
_geom_bond_distance
_geom_bond_site_symmetry_2
Ho0 Pd0 2.982584 1_544
Ho0 Pd3 2.982584 1_555
Ho0 Pd1 2.982584 1_455
Ho0 Pd2 2.982584 1_444
Ho0 Sb0 3.388023 1_555
Ho0 Sb1 3.388023 1_445
Ho0 Ho7 3.486018 1_454
Ho0 Ho4 3.486018 1_545
Ho0 Ho8 3.486018 1_444
Ho0 Ho5 3.486018 1_555
Ho0 Ho9 3.486018 1_444
Ho0 Ho6 3.486018 1_555
Ho0 Ho2 3.486018 1_454
Ho0 Ho3 3.486018 1_545
Ho1 Pd2 2.982584 1_555
Ho1 Pd1 2.982584 1_555
Ho1 Pd3 2.982584 1_554
Ho1 Pd0 2.982584 1_554
Ho1 Sb1 3.388023 1_555
Ho1 Sb0 3.388023 1_555
Ho1 Ho4 3.486018 1_555
Ho1 Ho7 3.486018 1_554
Ho1 Ho8 3.486018 1_555
Ho1 Ho5 3.486018 1_554
Ho1 Ho6 3.486018 1_554
Ho1 Ho9 3.486018 1_555
Ho1 Ho3 3.486018 1_555
Ho1 Ho2 3.486018 1_554
Ho2 Pd2 2.963832 1_545
Ho2 Pd3 2.963832 1_555
Ho2 Pd1 2.968936 1_556
Ho2 Sb1 3.249992 1_556
Ho2 Sb0 3.249992 1_656
Ho2 Ho4 3.381220 1_545
Ho2 Ho3 3.567895 1_656
Ho2 Ho8 3.772994 1_555
Ho2 Ho6 3.772994 1_655
Ho3 Pd3 2.963832 1_565
Ho3 Pd2 2.963832 1_555
Ho3 Pd0 2.968936 1_554
Ho3 Sb0 3.249992 1_555
Ho3 Sb1 3.249992 1_455
Ho3 Ho7 3.381220 1_565
Ho3 Ho5 3.772994 1_555
Ho3 Ho9 3.772994 1_455
Ho4 Pd2 2.963832 1_555
Ho4 Pd3 2.963832 1_565
Ho4 Pd0 2.968936 1_554
Ho4 Sb0 3.249992 1_565
Ho4 Sb1 3.249992 1_555
Ho4 Ho7 3.567895 1_564
Ho4 Ho6 3.772994 1_665
Ho4 Ho8 3.772994 1_565
Ho5 Pd1 2.963832 1_455
Ho5 Pd0 2.963832 1_555
Ho5 Pd3 2.968936 1_555
Ho5 Sb1 3.249992 1_556
Ho5 Sb0 3.249992 1_555
Ho5 Ho9 3.381220 1_455
Ho5 Ho8 3.567895 1_555
Ho5 Ho7 3.772994 1_565
Ho6 Pd0 2.963832 1_555
Ho6 Pd1 2.963832 1_455
Ho6 Pd3 2.968936 1_555
Ho6 Sb1 3.249992 1_445
Ho6 Sb0 3.249992 1_556
Ho6 Ho8 3.381220 1_455
Ho6 Ho9 3.567895 1_445
Ho7 Pd2 2.963832 1_545
Ho7 Pd3 2.963832 1_555
Ho7 Pd1 2.968936 1_556
Ho7 Sb1 3.249992 1_546
Ho7 Sb0 3.249992 1_556
Ho7 Ho9 3.772994 1_445
Ho8 Pd0 2.963832 1_655
Ho8 Pd1 2.963832 1_555
Ho8 Pd2 2.968936 1_555
Ho8 Sb1 3.249992 1_556
Ho8 Sb0 3.249992 1_555
Ho9 Pd1 2.963832 1_555
Ho9 Pd0 2.963832 1_655
Ho9 Pd2 2.968936 1_555
Ho9 Sb0 3.249992 1_666
Ho9 Sb1 3.249992 1_555
Pd0 Pd1 2.970841 1_455
Pd2 Pd3 2.970841 1_565
