# generated using pymatgen
data_MgTl4V4(TeO5)4
_symmetry_space_group_name_H-M   'P 1'
_cell_length_a   7.23542991
_cell_length_b   7.83090710
_cell_length_c   9.18203183
_cell_angle_alpha   87.60838666
_cell_angle_beta   89.10295695
_cell_angle_gamma   90.22011340
_symmetry_Int_Tables_number   1
_chemical_formula_structural   MgTl4V4(TeO5)4
_chemical_formula_sum   'Mg1 Tl4 V4 Te4 O20'
_cell_volume   519.73160049
_cell_formula_units_Z   1
loop_
 _symmetry_equiv_pos_site_id
 _symmetry_equiv_pos_as_xyz
  1  'x, y, z'
loop_
 _atom_site_type_symbol
 _atom_site_label
 _atom_site_symmetry_multiplicity
 _atom_site_fract_x
 _atom_site_fract_y
 _atom_site_fract_z
 _atom_site_occupancy
  Mg  Mg0  1  0.08369800  0.01867200  0.10237200  1
  Tl  Tl0  1  0.92775900  0.86585300  0.82528200  1
  Tl  Tl1  1  0.47393900  0.90474500  0.61003900  1
  Tl  Tl2  1  0.50923700  0.39525100  0.42093300  1
  Tl  Tl3  1  0.01289500  0.43537200  0.11020600  1
  V  V0  1  0.30188200  0.78057100  0.24813600  1
  V  V1  1  0.19549900  0.29544900  0.77014500  1
  V  V2  1  0.80108600  0.79296300  0.25118500  1
  V  V3  1  0.70593600  0.28320700  0.75585800  1
  Te  Te0  1  0.98469200  0.10692400  0.47416000  1
  Te  Te1  1  0.01180500  0.59978300  0.53124100  1
  Te  Te2  1  0.52051900  0.59933100  0.97944800  1
  Te  Te3  1  0.50083500  0.09779900  0.03931700  1
  O  O0  1  0.95448100  0.23135600  0.82659800  1
  O  O1  1  0.13542600  0.02160600  0.62440100  1
  O  O2  1  0.05930000  0.76089700  0.16297400  1
  O  O3  1  0.86608500  0.55268600  0.36685300  1
  O  O4  1  0.26061400  0.00079800  0.27613100  1
  O  O5  1  0.57178600  0.78474500  0.30995700  1
  O  O6  1  0.90202700  0.86688300  0.43445400  1
  O  O7  1  0.21052100  0.49441800  0.83183000  1
  O  O8  1  0.42234100  0.25568200  0.70264500  1
  O  O9  1  0.60934500  0.36078300  0.95994900  1
  O  O10  1  0.25305400  0.15483200  0.95968100  1
  O  O11  1  0.37498600  0.54814700  0.15000300  1
  O  O12  1  0.74513100  0.65899400  0.08025500  1
  O  O13  1  0.40197000  0.85854500  0.04474400  1
  O  O14  1  0.75820300  0.14322200  0.58108400  1
  O  O15  1  0.72619600  0.48728100  0.68178400  1
  O  O16  1  0.62977100  0.04900700  0.86522200  1
  O  O17  1  0.81754900  0.00119800  0.16845600  1
  O  O18  1  0.24325700  0.65431100  0.42959000  1
  O  O19  1  0.09960300  0.36168600  0.56792500  1
loop_
_geom_bond_atom_site_label_1
_geom_bond_atom_site_label_2
_geom_bond_distance
_geom_bond_site_symmetry_2
Mg0 O17 2.012387 1_455
Mg0 O10 2.044046 1_554
Mg0 O4 2.061634 1_555
Mg0 O2 2.077507 1_545
Mg0 O13 2.682315 1_545
Mg0 Tl0 3.084148 1_444
Mg0 Tl3 3.308621 1_555
Te1 Tl0 3.525380 1_455
O0 V1 1.872148 1_655
O0 V3 1.959829 1_555
O0 O10 2.559438 1_655
O0 O19 2.738037 1_655
O0 Tl0 2.868543 1_545
O0 Tl3 3.144658 1_656
O1 Te0 1.874753 1_455
O1 V1 2.613226 1_555
O1 Tl0 2.618945 1_445
O1 Tl1 2.621266 1_545
O1 O19 2.706036 1_555
O2 V0 1.940831 1_555
O2 V2 2.045186 1_455
O2 Tl3 2.635771 1_555
O2 Tl0 3.328876 1_454
O3 Te1 1.902448 1_655
O3 V2 2.178346 1_555
O3 O6 2.575717 1_555
O3 Tl3 2.763221 1_655
O3 Tl2 2.883970 1_555
O4 V0 1.779873 1_545
O4 Tl1 3.508969 1_545
O4 Tl2 3.862669 1_555
O5 V2 1.736712 1_555
O5 V0 2.042734 1_555
O5 O6 2.750449 1_555
O5 Tl1 3.022651 1_555
O5 Tl2 3.203400 1_555
O6 V2 1.953658 1_555
O6 Te0 2.019769 1_565
O6 Te1 2.382301 1_655
O7 V1 1.683625 1_555
O7 Tl3 2.928090 1_556
O7 Tl0 3.561558 1_455
O8 V1 1.778528 1_555
O8 V3 2.128944 1_555
O8 Tl2 2.826420 1_555
O8 Tl1 2.933894 1_545
O9 Te2 1.992046 1_555
O9 V3 2.103926 1_555
O9 Te3 2.287585 1_556
O9 Tl3 3.309155 1_656
O10 Te3 1.992043 1_556
O10 V1 2.069053 1_555
O10 O13 2.654922 1_546
O10 Tl3 3.156509 1_556
O11 Te2 1.901229 1_554
O11 V0 2.129264 1_555
O11 O13 2.583582 1_555
O11 Tl3 2.795778 1_555
O11 Tl2 2.898571 1_555
O12 Te2 1.947709 1_554
O12 V2 1.970242 1_555
O12 O2 2.543931 1_655
O12 Tl3 2.626448 1_655
O12 Tl0 3.069428 1_554
O13 Te3 2.001315 1_565
O13 V0 2.060124 1_555
O13 Te2 2.305312 1_554
O13 O16 2.710947 1_564
O13 O2 2.782509 1_555
O13 O5 2.784876 1_555
O14 Te0 1.925270 1_555
O14 V3 2.012713 1_555
O14 Tl1 2.774968 1_545
O14 Tl2 3.028293 1_555
O15 V3 1.715322 1_555
O15 Te1 2.598509 1_655
O15 Tl2 2.995567 1_555
O15 Tl0 3.606185 1_555
O16 Te3 1.891738 1_556
O16 V3 2.120574 1_555
O16 Tl0 2.623574 1_545
O16 O8 2.643391 1_555
O16 Tl1 2.886429 1_545
O17 V2 1.772735 1_545
O17 O6 2.698614 1_545
O18 Te1 1.941718 1_555
O18 V0 1.941809 1_555
O18 O19 2.764462 1_555
O18 Tl2 2.804305 1_555
O18 Tl1 3.116049 1_555
O19 Te1 1.989173 1_555
O19 V1 2.039820 1_555
O19 Te0 2.359159 1_455
O19 O8 2.773412 1_555
O19 Tl2 3.242601 1_555
