# generated using pymatgen
data_Li5Mn3O8
_symmetry_space_group_name_H-M   'P 1'
_cell_length_a   5.92777667
_cell_length_b   10.05170859
_cell_length_c   5.87248563
_cell_angle_alpha   105.73598445
_cell_angle_beta   59.65333130
_cell_angle_gamma   89.98520795
_symmetry_Int_Tables_number   1
_chemical_formula_structural   Li5Mn3O8
_chemical_formula_sum   'Li10 Mn6 O16'
_cell_volume   286.65098436
_cell_formula_units_Z   2
loop_
 _symmetry_equiv_pos_site_id
 _symmetry_equiv_pos_as_xyz
  1  'x, y, z'
loop_
 _atom_site_type_symbol
 _atom_site_label
 _atom_site_symmetry_multiplicity
 _atom_site_fract_x
 _atom_site_fract_y
 _atom_site_fract_z
 _atom_site_occupancy
  Li  Li0  1  0.74983000  0.24993900  0.49958100  1
  Li  Li1  1  0.25073000  0.74991900  0.49942600  1
  Li  Li2  1  0.51201700  0.99994100  0.99957100  1
  Li  Li3  1  0.98836600  0.49986900  0.99948400  1
  Li  Li4  1  0.24466700  0.25252100  0.50400500  1
  Li  Li5  1  0.75144200  0.75254100  0.50412400  1
  Li  Li6  1  0.52068100  0.00638500  0.50617900  1
  Li  Li7  1  0.97792700  0.49365800  0.49527600  1
  Li  Li8  1  0.02662000  0.99368900  0.49533800  1
  Li  Li9  1  0.47329300  0.50641000  0.50602800  1
  Mn  Mn0  1  0.48668900  0.49917400  0.99948700  1
  Mn  Mn1  1  0.25056100  0.75002600  0.99979700  1
  Mn  Mn2  1  0.75100500  0.75037600  0.00087900  1
  Mn  Mn3  1  0.01355500  0.99917400  0.99967100  1
  Mn  Mn4  1  0.74780500  0.25039500  0.00158400  1
  Mn  Mn5  1  0.24962100  0.24996700  0.99978500  1
  O  O0  1  0.34842900  0.38020300  0.23958600  1
  O  O1  1  0.91172100  0.88021200  0.23962000  1
  O  O2  1  0.15070500  0.11928000  0.76153900  1
  O  O3  1  0.58786900  0.61928300  0.76169900  1
  O  O4  1  0.89451900  0.35756600  0.21245200  1
  O  O5  1  0.39284900  0.85755400  0.21242400  1
  O  O6  1  0.13167700  0.12554400  0.22340100  1
  O  O7  1  0.61157100  0.61800500  0.21724500  1
  O  O8  1  0.67090900  0.11803400  0.21739100  1
  O  O9  1  0.14463400  0.62564600  0.22357700  1
  O  O10  1  0.60453300  0.14250600  0.78748000  1
  O  O11  1  0.10821200  0.64256300  0.78764600  1
  O  O12  1  0.36780400  0.37385700  0.77451100  1
  O  O13  1  0.88914300  0.88100500  0.77850400  1
  O  O14  1  0.83266700  0.38100200  0.77832900  1
  O  O15  1  0.35794800  0.87375500  0.77438200  1
loop_
_geom_bond_atom_site_label_1
_geom_bond_atom_site_label_2
_geom_bond_distance
_geom_bond_site_symmetry_2
Li0 O4 2.068265 1_555
Li0 O10 2.070208 1_555
Li0 O14 2.073425 1_555
Li0 O8 2.077230 1_555
Li0 O12 2.121256 1_555
Li0 O6 2.122830 1_655
Li1 O5 2.067776 1_555
Li1 O11 2.071058 1_555
Li1 O13 2.072195 1_455
Li1 O7 2.074739 1_555
Li1 O15 2.123145 1_555
Li1 O9 2.124225 1_555
Li2 O10 2.045459 1_565
Li2 O5 2.046594 1_556
Li2 O8 2.080092 1_566
Li2 O13 2.082400 1_555
Li2 O15 2.121995 1_555
Li2 O6 2.123371 1_566
Li3 O11 2.045697 1_655
Li3 O4 2.046297 1_556
Li3 O7 2.079182 1_556
Li3 O14 2.082356 1_555
Li3 O12 2.120616 1_655
Li3 O9 2.125608 1_656
Li4 O0 2.133767 1_555
Li4 O2 2.153850 1_555
Li4 O12 2.159860 1_555
Li4 O6 2.183553 1_555
Li4 O14 2.263180 1_455
Li4 O8 2.347615 1_555
Li5 O1 2.133760 1_555
Li5 O3 2.154059 1_555
Li5 O15 2.157107 1_555
Li5 O9 2.179944 1_655
Li5 O13 2.265157 1_555
Li5 O7 2.351737 1_555
Li6 O2 2.024558 1_555
Li6 O8 2.106042 1_555
Li6 O10 2.110005 1_555
Li6 O1 2.164977 1_545
Li6 O15 2.189268 1_545
Li6 O5 2.389508 1_545
Li7 O0 2.028875 1_655
Li7 O14 2.088524 1_555
Li7 O4 2.114720 1_555
Li7 O3 2.158712 1_555
Li7 O9 2.199570 1_655
Li7 O11 2.393981 1_655
Li8 O1 2.030975 1_455
Li8 O13 2.089266 1_455
Li8 O5 2.113404 1_555
Li8 O2 2.161115 1_565
Li8 O6 2.199593 1_565
Li8 O10 2.389511 1_465
Li9 O3 2.027222 1_555
Li9 O7 2.105660 1_555
Li9 O11 2.108506 1_555
Li9 O0 2.167824 1_555
Li9 O12 2.189929 1_555
Li9 O4 2.386325 1_555
Mn0 O7 1.933523 1_556
Mn0 O14 1.942763 1_555
Mn0 O3 1.958514 1_555
Mn0 O0 1.958887 1_556
Mn0 O9 1.963208 1_556
Mn0 O12 1.966574 1_555
Mn1 O9 1.934452 1_556
Mn1 O15 1.935512 1_555
Mn1 O11 1.940041 1_555
Mn1 O5 1.942005 1_556
Mn1 O3 1.963936 1_555
Mn1 O1 1.967448 1_456
Mn2 O11 1.951805 1_654
Mn2 O5 1.954266 1_555
Mn2 O7 1.981000 1_555
Mn2 O13 1.987478 1_554
Mn2 O1 2.221323 1_555
Mn2 O3 2.239106 1_554
Mn3 O8 1.932283 1_466
Mn3 O13 1.942466 1_455
Mn3 O1 1.958221 1_456
Mn3 O2 1.959974 1_565
Mn3 O6 1.963364 1_566
Mn3 O15 1.967778 1_555
Mn4 O4 1.953305 1_555
Mn4 O10 1.953995 1_554
Mn4 O8 1.978675 1_555
Mn4 O14 1.990717 1_554
Mn4 O0 2.219540 1_555
Mn4 O2 2.239825 1_654
Mn5 O6 1.934161 1_556
Mn5 O12 1.936296 1_555
Mn5 O10 1.940424 1_555
Mn5 O4 1.941691 1_456
Mn5 O2 1.964522 1_555
Mn5 O0 1.968197 1_556
