# generated using pymatgen
data_MgSi2
_symmetry_space_group_name_H-M   'P 1'
_cell_length_a   8.69545433
_cell_length_b   8.69545433
_cell_length_c   7.00023636
_cell_angle_alpha   86.09361759
_cell_angle_beta   86.09361759
_cell_angle_gamma   24.99045979
_symmetry_Int_Tables_number   1
_chemical_formula_structural   MgSi2
_chemical_formula_sum   'Mg4 Si8'
_cell_volume   223.06452453
_cell_formula_units_Z   4
loop_
 _symmetry_equiv_pos_site_id
 _symmetry_equiv_pos_as_xyz
  1  'x, y, z'
loop_
 _atom_site_type_symbol
 _atom_site_label
 _atom_site_symmetry_multiplicity
 _atom_site_fract_x
 _atom_site_fract_y
 _atom_site_fract_z
 _atom_site_occupancy
  Mg  Mg0  1  0.97317000  0.97317000  0.97349800  1
  Mg  Mg1  1  0.69981200  0.69981200  0.40736100  1
  Mg  Mg2  1  0.46925000  0.46925000  0.61721400  1
  Mg  Mg3  1  0.19206300  0.19206300  0.05421700  1
  Si  Si0  1  0.07522300  0.07522300  0.38490000  1
  Si  Si1  1  0.84537000  0.84537000  0.76579400  1
  Si  Si2  1  0.81475400  0.81475400  0.11363100  1
  Si  Si3  1  0.13950800  0.13950800  0.68739000  1
  Si  Si4  1  0.59087800  0.59087800  0.88230800  1
  Si  Si5  1  0.37211400  0.37211400  0.27576000  1
  Si  Si6  1  0.28995000  0.28995000  0.60943900  1
  Si  Si7  1  0.52031900  0.52031900  0.22848600  1
loop_
_geom_bond_atom_site_label_1
_geom_bond_atom_site_label_2
_geom_bond_distance
_geom_bond_site_symmetry_2
Mg0 Si1 2.694974 1_555
Mg0 Si7 2.750609 1_566
Mg0 Si7 2.750609 1_656
Mg0 Si4 2.786237 1_655
Mg0 Si4 2.786237 1_565
Mg0 Si2 2.797996 1_556
Mg0 Mg2 3.128484 1_655
Mg0 Mg2 3.128484 1_565
Mg0 Si5 3.233245 1_566
Mg0 Si5 3.233245 1_656
Mg1 Si2 2.734335 1_555
Mg1 Si0 2.843493 1_655
Mg1 Si0 2.843493 1_565
Mg1 Si3 2.854879 1_565
Mg1 Si3 2.854879 1_655
Mg1 Si6 2.860929 1_565
Mg1 Si6 2.860929 1_655
Mg1 Mg3 3.116626 1_655
Mg1 Mg3 3.116626 1_565
Mg2 Si7 2.797755 1_555
Mg2 Si4 2.871106 1_555
Mg2 Si1 2.956352 1_455
Mg2 Si1 2.956352 1_545
Mg2 Si5 2.997265 1_555
Mg2 Si0 3.002213 1_565
Mg2 Si0 3.002213 1_655
Mg2 Si6 3.048614 1_555
Mg3 Si3 2.776693 1_554
Mg3 Si2 2.858830 1_545
Mg3 Si2 2.858830 1_455
Mg3 Si4 2.868400 1_454
Mg3 Si4 2.868400 1_544
Mg3 Si0 2.941640 1_555
Mg3 Si6 3.425541 1_554
Si0 Si7 2.397868 1_455
Si0 Si7 2.397868 1_545
Si0 Si3 2.449025 1_555
Si1 Si6 2.401367 1_565
Si1 Si6 2.401367 1_655
Si1 Si2 2.454081 1_556
Si2 Si5 2.435216 1_655
Si2 Si5 2.435216 1_565
Si3 Si4 2.434283 1_545
Si3 Si4 2.434283 1_455
Si3 Si6 2.574482 1_555
Si4 Si7 2.627281 1_556
Si5 Si7 2.515039 1_555
Si5 Si6 2.635818 1_555
