# generated using pymatgen
data_Co2(PO3)5
_symmetry_space_group_name_H-M   'P 1'
_cell_length_a   8.48690300
_cell_length_b   5.29682400
_cell_length_c   13.51356406
_cell_angle_alpha   71.57566602
_cell_angle_beta   90.00000000
_cell_angle_gamma   90.00000000
_symmetry_Int_Tables_number   1
_chemical_formula_structural   Co2(PO3)5
_chemical_formula_sum   'Co4 P10 O30'
_cell_volume   576.34529479
_cell_formula_units_Z   2
loop_
 _symmetry_equiv_pos_site_id
 _symmetry_equiv_pos_as_xyz
  1  'x, y, z'
loop_
 _atom_site_type_symbol
 _atom_site_label
 _atom_site_symmetry_multiplicity
 _atom_site_fract_x
 _atom_site_fract_y
 _atom_site_fract_z
 _atom_site_occupancy
  Co  Co0  1  0.27975800  0.09882300  0.03771000  1
  Co  Co1  1  0.71215500  0.90349200  0.96499100  1
  Co  Co2  1  0.28784500  0.90349200  0.46499100  1
  Co  Co3  1  0.72024200  0.09882300  0.53771000  1
  P  P0  1  0.50387900  0.46191300  0.14483000  1
  P  P1  1  0.82480700  0.31807100  0.10014400  1
  P  P2  1  0.82392400  0.68509300  0.39988500  1
  P  P3  1  0.49612100  0.46191300  0.64483000  1
  P  P4  1  0.17607600  0.68509300  0.89988500  1
  P  P5  1  0.49432000  0.52550700  0.85904800  1
  P  P6  1  0.50568000  0.52550700  0.35904800  1
  P  P7  1  0.92982900  0.00237200  0.75009300  1
  P  P8  1  0.17519300  0.31807100  0.60014400  1
  P  P9  1  0.07017100  0.00237200  0.25009300  1
  O  O0  1  0.52321100  0.73987000  0.06989700  1
  O  O1  1  0.33177000  0.30725700  0.67123600  1
  O  O2  1  0.67080600  0.68038000  0.32875300  1
  O  O3  1  0.47061100  0.25023400  0.93626200  1
  O  O4  1  0.61638500  0.27822700  0.62331500  1
  O  O5  1  0.15805600  0.08812300  0.33047600  1
  O  O6  1  0.85515200  0.60073400  0.03476600  1
  O  O7  1  0.95205000  0.75970100  0.30948200  1
  O  O8  1  0.95045900  0.24212400  0.19340800  1
  O  O9  1  0.66823000  0.30725700  0.17123600  1
  O  O10  1  0.04954100  0.24212400  0.69340800  1
  O  O11  1  0.85634400  0.40730800  0.47018300  1
  O  O12  1  0.19687300  0.89866200  0.95060100  1
  O  O13  1  0.54917500  0.48502600  0.75346200  1
  O  O14  1  0.38361500  0.27822700  0.12331500  1
  O  O15  1  0.47678900  0.73987000  0.56989700  1
  O  O16  1  0.15234600  0.91279600  0.16794300  1
  O  O17  1  0.38685800  0.70886800  0.37987700  1
  O  O18  1  0.14484800  0.60073400  0.53476600  1
  O  O19  1  0.84194400  0.08812300  0.83047600  1
  O  O20  1  0.80312700  0.89866200  0.45060100  1
  O  O21  1  0.45082500  0.48502600  0.25346200  1
  O  O22  1  0.61314200  0.70886800  0.87987700  1
  O  O23  1  0.14365600  0.40730800  0.97018300  1
  O  O24  1  0.04795000  0.75970100  0.80948200  1
  O  O25  1  0.52938900  0.25023400  0.43626200  1
  O  O26  1  0.80975200  0.10862400  0.04801500  1
  O  O27  1  0.84765400  0.91279600  0.66794300  1
  O  O28  1  0.32919400  0.68038000  0.82875300  1
  O  O29  1  0.19024800  0.10862400  0.54801500  1
loop_
_geom_bond_atom_site_label_1
_geom_bond_atom_site_label_2
_geom_bond_distance
_geom_bond_site_symmetry_2
Co0 O14 1.926928 1_555
Co0 O12 1.947682 1_544
Co0 O23 1.973410 1_554
Co0 O16 2.035028 1_545
Co0 O3 2.109797 1_554
Co1 O22 1.959925 1_555
Co1 O26 1.973829 1_566
Co1 O6 1.994446 1_556
Co1 O19 2.085746 1_565
Co1 O0 2.134387 1_556
Co1 O3 2.697325 1_565
Co2 O17 1.959925 1_555
Co2 O29 1.973829 1_565
Co2 O18 1.994446 1_555
Co2 O5 2.085746 1_565
Co2 O15 2.134387 1_555
Co2 O25 2.697325 1_565
Co3 O4 1.926928 1_555
Co3 O20 1.947682 1_545
Co3 O11 1.973410 1_555
Co3 O27 2.035028 1_545
Co3 O25 2.109797 1_555
O0 P0 1.509159 1_555
O1 P3 1.599743 1_555
O1 P8 1.630125 1_555
O2 P6 1.610035 1_555
O2 P2 1.621259 1_555
O3 P5 1.514443 1_555
O4 P3 1.500581 1_555
O5 P9 1.501487 1_555
O6 P1 1.500801 1_555
O7 P2 1.589306 1_555
O7 P9 1.627639 1_665
O8 P1 1.602180 1_555
O8 P9 1.617656 1_655
O9 P0 1.599743 1_555
O9 P1 1.630125 1_555
O10 P8 1.602180 1_555
O10 P7 1.617656 1_455
O11 P2 1.503188 1_555
O12 P4 1.506861 1_555
O13 P3 1.576822 1_555
O13 P5 1.578601 1_555
O14 P0 1.500581 1_555
O15 P3 1.509159 1_555
O16 P9 1.508926 1_565
O17 P6 1.487364 1_555
O18 P8 1.500801 1_555
O19 P7 1.501487 1_555
O20 P2 1.506861 1_555
O21 P0 1.576822 1_555
O21 P6 1.578601 1_555
O22 P5 1.487364 1_555
O23 P4 1.503188 1_555
O24 P4 1.589306 1_555
O24 P7 1.627639 1_465
O25 P6 1.514443 1_555
O26 P1 1.495778 1_555
O27 P7 1.508926 1_565
O28 P5 1.610035 1_555
O28 P4 1.621259 1_555
O29 P8 1.495778 1_555
