# generated using pymatgen
data_ZnCr2O6
_symmetry_space_group_name_H-M   'P 1'
_cell_length_a   5.00722600
_cell_length_b   5.36669000
_cell_length_c   7.19366700
_cell_angle_alpha   90.00000000
_cell_angle_beta   90.00000000
_cell_angle_gamma   90.00000000
_symmetry_Int_Tables_number   1
_chemical_formula_structural   ZnCr2O6
_chemical_formula_sum   'Zn2 Cr4 O12'
_cell_volume   193.30987202
_cell_formula_units_Z   2
loop_
 _symmetry_equiv_pos_site_id
 _symmetry_equiv_pos_as_xyz
  1  'x, y, z'
loop_
 _atom_site_type_symbol
 _atom_site_label
 _atom_site_symmetry_multiplicity
 _atom_site_fract_x
 _atom_site_fract_y
 _atom_site_fract_z
 _atom_site_occupancy
  Zn  Zn0  1  0.53173300  0.28993500  0.50000000  1
  Zn  Zn1  1  0.03173300  0.71006500  0.00000000  1
  Cr  Cr0  1  0.52840800  0.76197500  0.73820400  1
  Cr  Cr1  1  0.02840800  0.23802500  0.76179600  1
  Cr  Cr2  1  0.02840800  0.23802500  0.23820400  1
  Cr  Cr3  1  0.52840800  0.76197500  0.26179600  1
  O  O0  1  0.70044700  0.04178900  0.31343700  1
  O  O1  1  0.20044700  0.95821100  0.18656300  1
  O  O2  1  0.74847600  0.51208200  0.68418000  1
  O  O3  1  0.24847600  0.48791800  0.81582000  1
  O  O4  1  0.24847600  0.48791800  0.18418000  1
  O  O5  1  0.74847600  0.51208200  0.31582000  1
  O  O6  1  0.20044700  0.95821100  0.81343700  1
  O  O7  1  0.70044700  0.04178900  0.68656300  1
  O  O8  1  0.14582600  0.23898300  0.50000000  1
  O  O9  1  0.64582600  0.76101700  0.00000000  1
  O  O10  1  0.37869500  0.74562600  0.50000000  1
  O  O11  1  0.87869500  0.25437400  0.00000000  1
loop_
_geom_bond_atom_site_label_1
_geom_bond_atom_site_label_2
_geom_bond_distance
_geom_bond_site_symmetry_2
Cr0 O7 1.770623 1_565
Cr0 O2 1.778715 1_555
Cr0 O10 1.872420 1_555
Cr0 O9 1.972921 1_556
Cr0 O6 2.024534 1_555
Cr0 O3 2.107048 1_555
Cr1 O6 1.770623 1_545
Cr1 O3 1.778715 1_555
Cr1 O11 1.872420 1_456
Cr1 O8 1.972921 1_555
Cr1 O7 2.024534 1_455
Cr1 O2 2.107048 1_455
Cr2 O1 1.770623 1_545
Cr2 O4 1.778715 1_555
Cr2 O11 1.872420 1_455
Cr2 O8 1.972921 1_555
Cr2 O0 2.024534 1_455
Cr2 O5 2.107048 1_455
Cr3 O0 1.770623 1_565
Cr3 O5 1.778715 1_555
Cr3 O10 1.872420 1_555
Cr3 O9 1.972921 1_555
Cr3 O1 2.024534 1_555
Cr3 O4 2.107048 1_555
O0 Zn0 2.070824 1_555
O1 Zn1 2.070824 1_555
O2 Zn0 2.086768 1_555
O3 Zn1 2.086768 1_556
O4 Zn1 2.086768 1_555
O5 Zn0 2.086768 1_555
O6 Zn1 2.070824 1_556
O7 Zn0 2.070824 1_555
O8 Zn0 1.951575 1_555
O9 Zn1 1.951575 1_655
O10 Zn0 2.562798 1_555
O11 Zn1 2.562798 1_655
