# generated using pymatgen
data_Ba3(AlGe)2
_symmetry_space_group_name_H-M   'P 1'
_cell_length_a   8.72360405
_cell_length_b   10.36281894
_cell_length_c   21.11656840
_cell_angle_alpha   104.18545756
_cell_angle_beta   101.92073119
_cell_angle_gamma   90.00000315
_symmetry_Int_Tables_number   1
_chemical_formula_structural   Ba3(AlGe)2
_chemical_formula_sum   'Ba24 Al16 Ge16'
_cell_volume   1808.25995658
_cell_formula_units_Z   8
loop_
 _symmetry_equiv_pos_site_id
 _symmetry_equiv_pos_as_xyz
  1  'x, y, z'
loop_
 _atom_site_type_symbol
 _atom_site_label
 _atom_site_symmetry_multiplicity
 _atom_site_fract_x
 _atom_site_fract_y
 _atom_site_fract_z
 _atom_site_occupancy
  Ba  Ba0_0  1  0.40799824  0.40809385  0.31599648  1
  Ba  Ba0_1  1  0.40799824  0.40809385  0.81599648  1
  Ba  Ba0_2  1  0.40799824  0.90809385  0.31599648  1
  Ba  Ba0_3  1  0.40799825  0.90809385  0.81599648  1
  Ba  Ba0_4  1  0.90799824  0.40809385  0.31599648  1
  Ba  Ba0_5  1  0.90799824  0.40809385  0.81599648  1
  Ba  Ba0_6  1  0.90799825  0.90809385  0.31599648  1
  Ba  Ba0_7  1  0.90799824  0.90809385  0.81599648  1
  Ba  Ba1_0  1  0.25000000  0.00000000  0.00000000  1
  Ba  Ba1_1  1  0.25000000  0.00000000  0.50000000  1
  Ba  Ba1_2  1  0.25000000  0.50000000  0.00000000  1
  Ba  Ba1_3  1  0.25000000  0.50000000  0.50000000  1
  Ba  Ba1_4  1  0.75000000  0.00000000  0.00000000  1
  Ba  Ba1_5  1  0.75000000  0.00000000  0.50000000  1
  Ba  Ba1_6  1  0.75000000  0.50000000  0.00000000  1
  Ba  Ba1_7  1  0.75000000  0.50000000  0.50000000  1
  Ba  Ba2_0  1  0.09200175  0.09190615  0.18400352  1
  Ba  Ba2_1  1  0.09200175  0.09190616  0.68400352  1
  Ba  Ba2_2  1  0.09200175  0.59190615  0.18400351  1
  Ba  Ba2_3  1  0.09200176  0.59190616  0.68400352  1
  Ba  Ba2_4  1  0.59200176  0.09190616  0.18400352  1
  Ba  Ba2_5  1  0.59200176  0.09190616  0.68400351  1
  Ba  Ba2_6  1  0.59200175  0.59190615  0.18400352  1
  Ba  Ba2_7  1  0.59200175  0.59190615  0.68400352  1
  Al  Al0_0  1  0.46772211  0.21729728  0.43544372  1
  Al  Al0_1  1  0.46772211  0.21729728  0.93544372  1
  Al  Al0_2  1  0.46772211  0.71729728  0.43544372  1
  Al  Al0_3  1  0.46772211  0.71729727  0.93544372  1
  Al  Al0_4  1  0.96772211  0.21729728  0.43544372  1
  Al  Al0_5  1  0.96772211  0.21729728  0.93544372  1
  Al  Al0_6  1  0.96772211  0.71729728  0.43544372  1
  Al  Al0_7  1  0.96772211  0.71729728  0.93544372  1
  Al  Al1_0  1  0.03227789  0.28270272  0.06455628  1
  Al  Al1_1  1  0.03227789  0.28270272  0.56455628  1
  Al  Al1_2  1  0.03227789  0.78270272  0.06455628  1
  Al  Al1_3  1  0.03227789  0.78270272  0.56455628  1
  Al  Al1_4  1  0.53227789  0.28270272  0.06455628  1
  Al  Al1_5  1  0.53227789  0.28270272  0.56455628  1
  Al  Al1_6  1  0.53227789  0.78270272  0.06455628  1
  Al  Al1_7  1  0.53227789  0.78270273  0.56455628  1
  Ge  Ge0_0  1  0.18287192  0.18348588  0.36574284  1
  Ge  Ge0_1  1  0.18287192  0.18348588  0.86574284  1
  Ge  Ge0_2  1  0.18287192  0.68348588  0.36574284  1
  Ge  Ge0_3  1  0.18287192  0.68348588  0.86574284  1
  Ge  Ge0_4  1  0.68287192  0.18348588  0.36574284  1
  Ge  Ge0_5  1  0.68287192  0.18348588  0.86574284  1
  Ge  Ge0_6  1  0.68287192  0.68348588  0.36574284  1
  Ge  Ge0_7  1  0.68287192  0.68348588  0.86574284  1
  Ge  Ge1_0  1  0.31712808  0.31651412  0.13425716  1
  Ge  Ge1_1  1  0.31712808  0.31651412  0.63425716  1
  Ge  Ge1_2  1  0.31712808  0.81651412  0.13425716  1
  Ge  Ge1_3  1  0.31712808  0.81651412  0.63425716  1
  Ge  Ge1_4  1  0.81712808  0.31651412  0.13425716  1
  Ge  Ge1_5  1  0.81712808  0.31651412  0.63425716  1
  Ge  Ge1_6  1  0.81712808  0.81651412  0.13425716  1
  Ge  Ge1_7  1  0.81712808  0.81651412  0.63425716  1
loop_
_geom_bond_atom_site_label_1
_geom_bond_atom_site_label_2
_geom_bond_distance
_geom_bond_site_symmetry_2
Ba0_0 Ge0_0 3.525434 1_555
Ba0_0 Ge0_4 3.525439 1_555
Ba0_0 Ge0_2 3.533806 1_555
Ba0_0 Ge0_6 3.533811 1_555
Ba0_0 Ge1_0 3.635274 1_555
Ba0_0 Ba1_3 4.278177 1_555
Ba0_0 Ba1_7 4.278178 1_555
Ba0_0 Ba2_6 4.292322 1_555
Ba0_0 Ba2_2 4.292322 1_555
Ba0_0 Ba2_4 4.295757 1_555
Ba0_0 Ba2_0 4.295757 1_555
Ba0_0 Ba0_4 4.361802 1_555
Ba0_0 Ba0_4 4.361802 1_455
Ba0_1 Ge0_1 3.525434 1_555
Ba0_1 Ge0_5 3.525439 1_555
Ba0_1 Ge0_3 3.533806 1_555
Ba0_1 Ge0_7 3.533811 1_555
Ba0_1 Ge1_1 3.635274 1_555
Ba0_1 Ba1_2 4.278177 1_556
Ba0_1 Ba1_6 4.278178 1_556
Ba0_1 Ba2_7 4.292322 1_555
Ba0_1 Ba2_3 4.292322 1_555
Ba0_1 Ba2_5 4.295757 1_555
Ba0_1 Ba2_1 4.295757 1_555
Ba0_1 Ba0_5 4.361802 1_455
Ba0_1 Ba0_5 4.361802 1_555
Ba0_2 Ge0_2 3.525434 1_555
Ba0_2 Ge0_6 3.525439 1_555
Ba0_2 Ge0_0 3.533806 1_565
Ba0_2 Ge0_4 3.533811 1_565
Ba0_2 Ge1_2 3.635274 1_555
Ba0_2 Ba1_1 4.278177 1_565
Ba0_2 Ba1_5 4.278178 1_565
Ba0_2 Ba2_4 4.292322 1_565
Ba0_2 Ba2_0 4.292322 1_565
Ba0_2 Ba2_6 4.295757 1_555
Ba0_2 Ba2_2 4.295757 1_555
Ba0_2 Ba0_6 4.361802 1_455
Ba0_2 Ba0_6 4.361802 1_555
Ba0_3 Ge0_3 3.525434 1_555
Ba0_3 Ge0_7 3.525439 1_555
Ba0_3 Ge0_1 3.533806 1_565
Ba0_3 Ge0_5 3.533811 1_565
Ba0_3 Ge1_3 3.635274 1_555
Ba0_3 Ba1_0 4.278177 1_566
Ba0_3 Ba1_4 4.278178 1_566
Ba0_3 Ba2_5 4.292322 1_565
Ba0_3 Ba2_1 4.292322 1_565
Ba0_3 Ba2_7 4.295757 1_555
Ba0_3 Ba2_3 4.295757 1_555
Ba0_3 Ba0_7 4.361802 1_555
Ba0_3 Ba0_7 4.361802 1_455
Ba0_4 Ge0_4 3.525434 1_555
Ba0_4 Ge0_0 3.525439 1_655
Ba0_4 Ge0_6 3.533806 1_555
Ba0_4 Ge0_2 3.533811 1_655
Ba0_4 Ge1_4 3.635274 1_555
Ba0_4 Ba1_7 4.278177 1_555
Ba0_4 Ba1_3 4.278178 1_655
Ba0_4 Ba2_2 4.292322 1_655
Ba0_4 Ba2_6 4.292322 1_555
Ba0_4 Ba2_0 4.295757 1_655
Ba0_4 Ba2_4 4.295757 1_555
Ba0_5 Ge0_5 3.525434 1_555
Ba0_5 Ge0_1 3.525439 1_655
Ba0_5 Ge0_7 3.533806 1_555
Ba0_5 Ge0_3 3.533811 1_655
Ba0_5 Ge1_5 3.635274 1_555
Ba0_5 Ba1_6 4.278177 1_556
Ba0_5 Ba1_2 4.278178 1_656
Ba0_5 Ba2_3 4.292322 1_655
Ba0_5 Ba2_7 4.292322 1_555
Ba0_5 Ba2_1 4.295757 1_655
Ba0_5 Ba2_5 4.295757 1_555
Ba0_6 Ge0_6 3.525434 1_555
Ba0_6 Ge0_2 3.525439 1_655
Ba0_6 Ge0_4 3.533806 1_565
Ba0_6 Ge0_0 3.533811 1_665
Ba0_6 Ge1_6 3.635274 1_555
Ba0_6 Ba1_5 4.278177 1_565
Ba0_6 Ba1_1 4.278178 1_665
Ba0_6 Ba2_0 4.292322 1_665
Ba0_6 Ba2_4 4.292322 1_565
Ba0_6 Ba2_2 4.295757 1_655
Ba0_6 Ba2_6 4.295757 1_555
Ba0_7 Ge0_7 3.525434 1_555
Ba0_7 Ge0_3 3.525439 1_655
Ba0_7 Ge0_5 3.533806 1_565
Ba0_7 Ge0_1 3.533811 1_665
Ba0_7 Ge1_7 3.635274 1_555
Ba0_7 Ba1_4 4.278177 1_566
Ba0_7 Ba1_0 4.278178 1_666
Ba0_7 Ba2_1 4.292322 1_665
Ba0_7 Ba2_5 4.292322 1_565
Ba0_7 Ba2_3 4.295757 1_655
Ba0_7 Ba2_7 4.295757 1_555
Ba1_0 Ge1_0 3.727631 1_555
Ba1_0 Ge0_3 3.727631 1_544
Ba1_0 Ge1_2 3.735251 1_545
Ba1_0 Ge0_1 3.735251 1_554
Ba1_0 Ba2_0 4.278177 1_555
Ba1_0 Ba2_4 4.278178 1_555
Ba1_0 Ba1_4 4.361802 1_455
Ba1_0 Ba1_4 4.361802 1_555
Ba1_1 Ge1_1 3.727631 1_555
Ba1_1 Ge0_2 3.727631 1_545
Ba1_1 Ge1_3 3.735251 1_545
Ba1_1 Ge0_0 3.735251 1_555
Ba1_1 Ba2_1 4.278177 1_555
Ba1_1 Ba2_5 4.278178 1_555
Ba1_1 Ba1_5 4.361802 1_555
Ba1_1 Ba1_5 4.361802 1_455
Ba1_2 Ge1_2 3.727631 1_555
Ba1_2 Ge0_1 3.727631 1_554
Ba1_2 Ge1_0 3.735251 1_555
Ba1_2 Ge0_3 3.735251 1_554
Ba1_2 Ba2_2 4.278177 1_555
Ba1_2 Ba2_6 4.278178 1_555
Ba1_2 Ba1_6 4.361802 1_555
Ba1_2 Ba1_6 4.361802 1_455
Ba1_3 Ge0_0 3.727631 1_555
Ba1_3 Ge1_3 3.727631 1_555
Ba1_3 Ge1_1 3.735251 1_555
Ba1_3 Ge0_2 3.735251 1_555
Ba1_3 Ba2_3 4.278177 1_555
Ba1_3 Ba2_7 4.278178 1_555
Ba1_3 Ba1_7 4.361802 1_555
Ba1_3 Ba1_7 4.361802 1_455
Ba1_4 Ge1_4 3.727631 1_555
Ba1_4 Ge0_7 3.727631 1_544
Ba1_4 Ge1_6 3.735251 1_545
Ba1_4 Ge0_5 3.735251 1_554
Ba1_4 Ba2_4 4.278177 1_555
Ba1_4 Ba2_0 4.278178 1_655
Ba1_5 Ge0_6 3.727631 1_545
Ba1_5 Ge1_5 3.727631 1_555
Ba1_5 Ge0_4 3.735251 1_555
Ba1_5 Ge1_7 3.735251 1_545
Ba1_5 Ba2_5 4.278177 1_555
Ba1_5 Ba2_1 4.278178 1_655
Ba1_6 Ge1_6 3.727631 1_555
Ba1_6 Ge0_5 3.727631 1_554
Ba1_6 Ge1_4 3.735251 1_555
Ba1_6 Ge0_7 3.735251 1_554
Ba1_6 Ba2_6 4.278177 1_555
Ba1_6 Ba2_2 4.278178 1_655
Ba1_7 Ge0_4 3.727631 1_555
Ba1_7 Ge1_7 3.727631 1_555
Ba1_7 Ge0_6 3.735251 1_555
Ba1_7 Ge1_5 3.735251 1_555
Ba1_7 Ba2_7 4.278177 1_555
Ba1_7 Ba2_3 4.278178 1_655
Ba2_0 Ge1_0 3.525434 1_555
Ba2_0 Ge1_4 3.525439 1_455
Ba2_0 Ge1_2 3.533806 1_545
Ba2_0 Ge1_6 3.533811 1_445
Ba2_0 Ge0_0 3.635274 1_555
Ba2_0 Ba2_4 4.361802 1_455
Ba2_0 Ba2_4 4.361802 1_555
Ba2_1 Ge1_1 3.525434 1_555
Ba2_1 Ge1_5 3.525439 1_455
Ba2_1 Ge1_3 3.533806 1_545
Ba2_1 Ge1_7 3.533811 1_445
Ba2_1 Ge0_1 3.635274 1_555
Ba2_1 Ba2_5 4.361802 1_455
Ba2_1 Ba2_5 4.361802 1_555
Ba2_2 Ge1_2 3.525434 1_555
Ba2_2 Ge1_6 3.525439 1_455
Ba2_2 Ge1_0 3.533806 1_555
Ba2_2 Ge1_4 3.533811 1_455
Ba2_2 Ge0_2 3.635274 1_555
Ba2_2 Ba2_6 4.361802 1_455
Ba2_2 Ba2_6 4.361802 1_555
Ba2_3 Ge1_3 3.525434 1_555
Ba2_3 Ge1_7 3.525439 1_455
Ba2_3 Ge1_1 3.533806 1_555
Ba2_3 Ge1_5 3.533811 1_455
Ba2_3 Ge0_3 3.635274 1_555
Ba2_3 Ba2_7 4.361802 1_555
Ba2_3 Ba2_7 4.361802 1_455
Ba2_4 Ge1_4 3.525434 1_555
Ba2_4 Ge1_0 3.525439 1_555
Ba2_4 Ge1_6 3.533806 1_545
Ba2_4 Ge1_2 3.533811 1_545
Ba2_4 Ge0_4 3.635274 1_555
Ba2_5 Ge1_5 3.525434 1_555
Ba2_5 Ge1_1 3.525439 1_555
Ba2_5 Ge1_7 3.533806 1_545
Ba2_5 Ge1_3 3.533811 1_545
Ba2_5 Ge0_5 3.635274 1_555
Ba2_6 Ge1_6 3.525434 1_555
Ba2_6 Ge1_2 3.525439 1_555
Ba2_6 Ge1_4 3.533806 1_555
Ba2_6 Ge1_0 3.533811 1_555
Ba2_6 Ge0_6 3.635274 1_555
Ba2_7 Ge1_7 3.525434 1_555
Ba2_7 Ge1_3 3.525439 1_555
Ba2_7 Ge1_5 3.533806 1_555
Ba2_7 Ge1_1 3.533811 1_555
Ba2_7 Ge0_7 3.635274 1_555
Al0_0 Al1_5 2.582608 1_555
Al0_0 Ge0_0 2.588479 1_555
Al0_0 Ge0_4 2.588482 1_555
Al0_0 Ba0_2 3.520860 1_545
Al0_0 Ba0_0 3.527634 1_555
Al0_0 Ba1_5 3.620849 1_555
Al0_0 Ba1_1 3.620851 1_555
Al0_0 Ba1_7 3.627744 1_555
Al0_0 Ba1_3 3.627747 1_555
Al0_1 Al1_4 2.582608 1_556
Al0_1 Ge0_1 2.588479 1_555
Al0_1 Ge0_5 2.588482 1_555
Al0_1 Ba0_3 3.520860 1_545
Al0_1 Ba0_1 3.527634 1_555
Al0_1 Ba1_4 3.620849 1_556
Al0_1 Ba1_0 3.620851 1_556
Al0_1 Ba1_6 3.627744 1_556
Al0_1 Ba1_2 3.627747 1_556
Al0_2 Al1_7 2.582608 1_555
Al0_2 Ge0_2 2.588479 1_555
Al0_2 Ge0_6 2.588482 1_555
Al0_2 Ba0_0 3.520860 1_555
Al0_2 Ba0_2 3.527634 1_555
Al0_2 Ba1_7 3.620849 1_555
Al0_2 Ba1_3 3.620851 1_555
Al0_2 Ba1_5 3.627744 1_565
Al0_2 Ba1_1 3.627747 1_565
Al0_3 Al1_6 2.582608 1_556
Al0_3 Ge0_3 2.588479 1_555
Al0_3 Ge0_7 2.588482 1_555
Al0_3 Ba0_1 3.520860 1_555
Al0_3 Ba0_3 3.527634 1_555
Al0_3 Ba1_6 3.620849 1_556
Al0_3 Ba1_2 3.620851 1_556
Al0_3 Ba1_4 3.627744 1_566
Al0_3 Ba1_0 3.627747 1_566
Al0_4 Al1_1 2.582608 1_655
Al0_4 Ge0_4 2.588479 1_555
Al0_4 Ge0_0 2.588482 1_655
Al0_4 Ba0_6 3.520860 1_545
Al0_4 Ba0_4 3.527634 1_555
Al0_4 Ba1_1 3.620849 1_655
Al0_4 Ba1_5 3.620851 1_555
Al0_4 Ba1_3 3.627744 1_655
Al0_4 Ba1_7 3.627747 1_555
Al0_5 Al1_0 2.582608 1_656
Al0_5 Ge0_5 2.588479 1_555
Al0_5 Ge0_1 2.588482 1_655
Al0_5 Ba0_7 3.520860 1_545
Al0_5 Ba0_5 3.527634 1_555
Al0_5 Ba1_0 3.620849 1_656
Al0_5 Ba1_4 3.620851 1_556
Al0_5 Ba1_2 3.627744 1_656
Al0_5 Ba1_6 3.627747 1_556
Al0_6 Al1_3 2.582608 1_655
Al0_6 Ge0_6 2.588479 1_555
Al0_6 Ge0_2 2.588482 1_655
Al0_6 Ba0_4 3.520860 1_555
Al0_6 Ba0_6 3.527634 1_555
Al0_6 Ba1_3 3.620849 1_655
Al0_6 Ba1_7 3.620851 1_555
Al0_6 Ba1_1 3.627744 1_665
Al0_6 Ba1_5 3.627747 1_565
Al0_7 Al1_2 2.582608 1_656
Al0_7 Ge0_7 2.588479 1_555
Al0_7 Ge0_3 2.588482 1_655
Al0_7 Ba0_5 3.520860 1_555
Al0_7 Ba0_7 3.527634 1_555
Al0_7 Ba1_2 3.620849 1_656
Al0_7 Ba1_6 3.620851 1_556
Al0_7 Ba1_0 3.627744 1_666
Al0_7 Ba1_4 3.627747 1_566
Al1_0 Ge1_0 2.588479 1_555
Al1_0 Ge1_4 2.588482 1_455
Al1_0 Ba2_2 3.520860 1_555
Al1_0 Ba2_0 3.527634 1_555
Al1_0 Ba1_6 3.620849 1_455
Al1_0 Ba1_2 3.620851 1_555
Al1_0 Ba1_4 3.627744 1_455
Al1_0 Ba1_0 3.627747 1_555
Al1_1 Ge1_1 2.588479 1_555
Al1_1 Ge1_5 2.588482 1_455
Al1_1 Ba2_3 3.520860 1_555
Al1_1 Ba2_1 3.527634 1_555
Al1_1 Ba1_7 3.620849 1_455
Al1_1 Ba1_3 3.620851 1_555
Al1_1 Ba1_5 3.627744 1_455
Al1_1 Ba1_1 3.627747 1_555
Al1_2 Ge1_2 2.588479 1_555
Al1_2 Ge1_6 2.588482 1_455
Al1_2 Ba2_0 3.520860 1_565
Al1_2 Ba2_2 3.527634 1_555
Al1_2 Ba1_4 3.620849 1_465
Al1_2 Ba1_0 3.620851 1_565
Al1_2 Ba1_6 3.627744 1_455
Al1_2 Ba1_2 3.627747 1_555
Al1_3 Ge1_3 2.588479 1_555
Al1_3 Ge1_7 2.588482 1_455
Al1_3 Ba2_1 3.520860 1_565
Al1_3 Ba2_3 3.527634 1_555
Al1_3 Ba1_5 3.620849 1_465
Al1_3 Ba1_1 3.620851 1_565
Al1_3 Ba1_7 3.627744 1_455
Al1_3 Ba1_3 3.627747 1_555
Al1_4 Ge1_4 2.588479 1_555
Al1_4 Ge1_0 2.588482 1_555
Al1_4 Ba2_6 3.520860 1_555
Al1_4 Ba2_4 3.527634 1_555
Al1_4 Ba1_2 3.620849 1_555
Al1_4 Ba1_6 3.620851 1_555
Al1_4 Ba1_0 3.627744 1_555
Al1_4 Ba1_4 3.627747 1_555
Al1_5 Ge1_5 2.588479 1_555
Al1_5 Ge1_1 2.588482 1_555
Al1_5 Ba2_7 3.520860 1_555
Al1_5 Ba2_5 3.527634 1_555
Al1_5 Ba1_3 3.620849 1_555
Al1_5 Ba1_7 3.620851 1_555
Al1_5 Ba1_1 3.627744 1_555
Al1_5 Ba1_5 3.627747 1_555
Al1_6 Ge1_6 2.588479 1_555
Al1_6 Ge1_2 2.588482 1_555
Al1_6 Ba2_4 3.520860 1_565
Al1_6 Ba2_6 3.527634 1_555
Al1_6 Ba1_0 3.620849 1_565
Al1_6 Ba1_4 3.620851 1_565
Al1_6 Ba1_2 3.627744 1_555
Al1_6 Ba1_6 3.627747 1_555
Al1_7 Ge1_7 2.588479 1_555
Al1_7 Ge1_3 2.588482 1_555
Al1_7 Ba2_5 3.520860 1_565
Al1_7 Ba2_7 3.527634 1_555
Al1_7 Ba1_1 3.620849 1_565
Al1_7 Ba1_5 3.620851 1_565
Al1_7 Ba1_3 3.627744 1_555
Al1_7 Ba1_7 3.627747 1_555
