# generated using pymatgen
data_Cr2P4Pb3O16
_symmetry_space_group_name_H-M   'P 1'
_cell_length_a   8.93737411
_cell_length_b   8.97124192
_cell_length_c   9.26671021
_cell_angle_alpha   90.00000000
_cell_angle_beta   116.76385677
_cell_angle_gamma   90.00000000
_symmetry_Int_Tables_number   1
_chemical_formula_structural   Cr2P4Pb3O16
_chemical_formula_sum   'Cr4 P8 Pb6 O32'
_cell_volume   663.40134711
_cell_formula_units_Z   2
loop_
 _symmetry_equiv_pos_site_id
 _symmetry_equiv_pos_as_xyz
  1  'x, y, z'
loop_
 _atom_site_type_symbol
 _atom_site_label
 _atom_site_symmetry_multiplicity
 _atom_site_fract_x
 _atom_site_fract_y
 _atom_site_fract_z
 _atom_site_occupancy
  Cr  Cr0  1  0.24825035  0.86911801  0.74422979  1
  Cr  Cr1  1  0.75174965  0.36911801  0.75577021  1
  Cr  Cr2  1  0.75174965  0.13088199  0.25577021  1
  Cr  Cr3  1  0.24825035  0.63088199  0.24422979  1
  P  P0  1  0.57490699  0.41064357  0.35908833  1
  P  P1  1  0.42509301  0.91064357  0.14091167  1
  P  P2  1  0.42509301  0.58935643  0.64091167  1
  P  P3  1  0.57490699  0.08935643  0.85908833  1
  P  P4  1  0.98084343  0.36154902  0.15625528  1
  P  P5  1  0.01915657  0.86154902  0.34374472  1
  P  P6  1  0.01915657  0.63845098  0.84374472  1
  P  P7  1  0.98084343  0.13845098  0.65625528  1
  Pb  Pb0  1  0.29908356  0.29265407  0.02688020  1
  Pb  Pb1  1  0.70091644  0.79265407  0.47311980  1
  Pb  Pb2  1  0.70091644  0.70734593  0.97311980  1
  Pb  Pb3  1  0.29908356  0.20734593  0.52688020  1
  Pb  Pb4  1  -0.00000000  -0.00000000  -0.00000000  1
  Pb  Pb5  1  -0.00000000  0.50000000  0.50000000  1
  O  O0  1  0.15612402  0.91004815  0.50843247  1
  O  O1  1  0.84387598  0.41004815  0.99156753  1
  O  O2  1  0.84387598  0.08995185  0.49156753  1
  O  O3  1  0.15612402  0.58995185  0.00843247  1
  O  O4  1  0.09404615  0.79423175  0.23689062  1
  O  O5  1  0.90595385  0.29423175  0.26310938  1
  O  O6  1  0.90595385  0.20576825  0.76310938  1
  O  O7  1  0.09404615  0.70576825  0.73689062  1
  O  O8  1  0.59056606  0.28258798  0.25596395  1
  O  O9  1  0.40943394  0.78258798  0.24403605  1
  O  O10  1  0.40943394  0.71741202  0.74403605  1
  O  O11  1  0.59056606  0.21741202  0.75596395  1
  O  O12  1  0.38823760  0.45411485  0.25850848  1
  O  O13  1  0.61176240  0.95411485  0.24149152  1
  O  O14  1  0.61176240  0.54588515  0.74149152  1
  O  O15  1  0.38823760  0.04588515  0.75850848  1
  O  O16  1  0.08042578  0.00352741  0.75738397  1
  O  O17  1  0.91957422  0.50352741  0.74261603  1
  O  O18  1  0.91957422  0.99647259  0.24261603  1
  O  O19  1  0.08042578  0.49647259  0.25738397  1
  O  O20  1  0.39109039  0.85010736  0.97648879  1
  O  O21  1  0.60890961  0.35010736  0.52351121  1
  O  O22  1  0.60890961  0.14989264  0.02351121  1
  O  O23  1  0.39109039  0.64989264  0.47648879  1
  O  O24  1  0.10060328  0.25181535  0.13502293  1
  O  O25  1  0.89939672  0.75181535  0.36497707  1
  O  O26  1  0.89939672  0.74818465  0.86497707  1
  O  O27  1  0.10060328  0.24818465  0.63502293  1
  O  O28  1  0.31345190  0.04295115  0.12929464  1
  O  O29  1  0.68654810  0.54295115  0.37070536  1
  O  O30  1  0.68654810  0.95704885  0.87070536  1
  O  O31  1  0.31345190  0.45704885  0.62929464  1
loop_
_geom_bond_atom_site_label_1
_geom_bond_atom_site_label_2
_geom_bond_distance
_geom_bond_site_symmetry_2
Cr0 O20 1.953595 1_555
Cr0 O16 1.970598 1_565
Cr0 O10 1.982382 1_555
Cr0 O15 1.987093 1_565
Cr0 O0 1.991719 1_555
Cr0 O7 1.991767 1_555
Cr1 O21 1.953595 1_555
Cr1 O17 1.970598 1_555
Cr1 O11 1.982382 1_555
Cr1 O14 1.987093 1_555
Cr1 O1 1.991719 1_555
Cr1 O6 1.991767 1_555
Cr2 O22 1.953595 1_555
Cr2 O18 1.970598 1_545
Cr2 O8 1.982382 1_555
Cr2 O13 1.987093 1_545
Cr2 O2 1.991719 1_555
Cr2 O5 1.991767 1_555
Cr3 O23 1.953595 1_555
Cr3 O19 1.970598 1_555
Cr3 O9 1.982382 1_555
Cr3 O12 1.987093 1_555
Cr3 O3 1.991719 1_555
Cr3 O4 1.991767 1_555
O0 P5 1.527844 1_555
O0 Pb3 2.928919 1_565
O1 P4 1.527844 1_556
O1 Pb2 2.928919 1_555
O2 P7 1.527844 1_555
O2 Pb1 2.928919 1_545
O3 P6 1.527844 1_554
O3 Pb0 2.928919 1_555
O4 P5 1.545982 1_555
O4 Pb4 2.696536 1_565
O4 Pb2 3.345509 1_454
O5 P4 1.545982 1_555
O5 Pb5 2.696536 1_655
O5 Pb3 3.345509 1_655
O6 P7 1.545982 1_555
O6 Pb4 2.696536 1_656
O6 Pb0 3.345509 1_656
O7 P6 1.545982 1_555
O7 Pb5 2.696536 1_555
O7 Pb1 3.345509 1_455
O8 P0 1.540466 1_555
O8 Pb0 2.514054 1_555
O9 P1 1.540466 1_555
O9 Pb1 2.514054 1_555
O10 P2 1.540466 1_555
O10 Pb2 2.514054 1_555
O11 P3 1.540466 1_555
O11 Pb3 2.514054 1_555
O12 P0 1.550386 1_555
O12 Pb0 2.408298 1_555
O13 P1 1.550386 1_555
O13 Pb1 2.408298 1_555
O14 P2 1.550386 1_555
O14 Pb2 2.408298 1_555
O15 P3 1.550386 1_555
O15 Pb3 2.408298 1_555
O16 P7 1.544117 1_455
O16 Pb4 2.650991 1_556
O17 P6 1.544117 1_655
O17 Pb5 2.650991 1_655
O18 P5 1.544117 1_655
O18 Pb4 2.650991 1_665
O19 P4 1.544117 1_455
O19 Pb5 2.650991 1_555
O20 P1 1.513873 1_556
O20 Pb2 3.063769 1_555
O21 P0 1.513873 1_555
O21 Pb3 3.063769 1_555
O22 P3 1.513873 1_554
O22 Pb0 3.063769 1_555
O23 P2 1.513873 1_555
O23 Pb1 3.063769 1_555
O24 P4 1.530732 1_455
O24 Pb0 2.426149 1_555
O24 Pb4 2.542496 1_555
O24 Pb3 3.269610 1_555
O25 P5 1.530732 1_655
O25 Pb1 2.426149 1_555
O25 Pb5 2.542496 1_655
O25 Pb2 3.269610 1_554
O26 P6 1.530732 1_655
O26 Pb2 2.426149 1_555
O26 Pb4 2.542496 1_666
O26 Pb1 3.269610 1_555
O27 P7 1.530732 1_455
O27 Pb3 2.426149 1_555
O27 Pb5 2.542496 1_555
O27 Pb0 3.269610 1_556
O28 P1 1.522923 1_545
O28 Pb0 2.413642 1_555
O28 Pb4 2.531618 1_555
O29 P0 1.522923 1_555
O29 Pb1 2.413642 1_555
O29 Pb5 2.531618 1_655
O30 P3 1.522923 1_565
O30 Pb2 2.413642 1_555
O30 Pb4 2.531618 1_666
O31 P2 1.522923 1_555
O31 Pb3 2.413642 1_555
O31 Pb5 2.531618 1_555
