# generated using pymatgen
data_ErGa2Ni
_symmetry_space_group_name_H-M   'P 1'
_cell_length_a   4.08059989
_cell_length_b   5.36135505
_cell_length_c   6.56253921
_cell_angle_alpha   90.00000000
_cell_angle_beta   90.00000000
_cell_angle_gamma   112.36818623
_symmetry_Int_Tables_number   1
_chemical_formula_structural   ErGa2Ni
_chemical_formula_sum   'Er2 Ga4 Ni2'
_cell_volume   132.76950843
_cell_formula_units_Z   2
loop_
 _symmetry_equiv_pos_site_id
 _symmetry_equiv_pos_as_xyz
  1  'x, y, z'
loop_
 _atom_site_type_symbol
 _atom_site_label
 _atom_site_symmetry_multiplicity
 _atom_site_fract_x
 _atom_site_fract_y
 _atom_site_fract_z
 _atom_site_occupancy
  Er  Er0  1  0.42683725  0.85367351  0.25000000  1
  Er  Er1  1  0.57316275  0.14632649  0.75000000  1
  Ga  Ga0  1  0.14281121  0.28562143  0.05408631  1
  Ga  Ga1  1  0.85718879  0.71437857  0.94591369  1
  Ga  Ga2  1  0.85718879  0.71437857  0.55408631  1
  Ga  Ga3  1  0.14281121  0.28562143  0.44591369  1
  Ni  Ni0  1  0.70962711  0.41925222  0.25000000  1
  Ni  Ni1  1  0.29037289  0.58074778  0.75000000  1
loop_
_geom_bond_atom_site_label_1
_geom_bond_atom_site_label_2
_geom_bond_distance
_geom_bond_site_symmetry_2
Er0 Ni0 2.804113 1_565
Er0 Ga2 2.936340 1_555
Er0 Ga1 2.936340 1_554
Er0 Ga1 2.936346 1_454
Er0 Ga2 2.936346 1_455
Er0 Ni0 2.966790 1_455
Er0 Ni0 2.966793 1_555
Er0 Ga0 3.095961 1_555
Er0 Ga3 3.095961 1_555
Er0 Ga3 3.225241 1_665
Er0 Ga0 3.225241 1_665
Er0 Ga0 3.225241 1_565
Er0 Ga3 3.225241 1_565
Er0 Er1 3.587759 1_565
Er0 Er1 3.587759 1_564
Er1 Ni1 2.804113 1_545
Er1 Ga0 2.936340 1_556
Er1 Ga3 2.936340 1_555
Er1 Ga3 2.936346 1_655
Er1 Ga0 2.936346 1_656
Er1 Ni1 2.966790 1_655
Er1 Ni1 2.966793 1_555
Er1 Ga2 3.095961 1_555
Er1 Ga1 3.095961 1_555
Er1 Ga1 3.225241 1_445
Er1 Ga2 3.225241 1_445
Er1 Ga2 3.225241 1_545
Er1 Ga1 3.225241 1_545
Ga0 Ni1 2.474541 1_554
Ga0 Ni0 2.500954 1_455
Ga0 Ni0 2.500957 1_555
Ga0 Ga3 2.571383 1_555
Ga0 Ga1 2.919807 1_444
Ga0 Ga1 3.030774 1_554
Ga0 Ga1 3.030780 1_454
Ga1 Ni0 2.474541 1_556
Ga1 Ni1 2.500954 1_655
Ga1 Ni1 2.500957 1_555
Ga1 Ga2 2.571383 1_555
Ga2 Ni0 2.474541 1_555
Ga2 Ni1 2.500954 1_655
Ga2 Ni1 2.500957 1_555
Ga2 Ga3 2.919807 1_665
Ga2 Ga3 3.030774 1_555
Ga2 Ga3 3.030780 1_655
Ga3 Ni1 2.474541 1_555
Ga3 Ni0 2.500954 1_455
Ga3 Ni0 2.500957 1_555
