# generated using pymatgen
data_Li7Mn4CoO12
_symmetry_space_group_name_H-M   'P 1'
_cell_length_a   2.87553283
_cell_length_b   11.73849986
_cell_length_c   6.78063845
_cell_angle_alpha   78.15361564
_cell_angle_beta   77.75939211
_cell_angle_gamma   90.00095564
_symmetry_Int_Tables_number   1
_chemical_formula_structural   Li7Mn4CoO12
_chemical_formula_sum   'Li7 Mn4 Co1 O12'
_cell_volume   218.68249689
_cell_formula_units_Z   1
loop_
 _symmetry_equiv_pos_site_id
 _symmetry_equiv_pos_as_xyz
  1  'x, y, z'
loop_
 _atom_site_type_symbol
 _atom_site_label
 _atom_site_symmetry_multiplicity
 _atom_site_fract_x
 _atom_site_fract_y
 _atom_site_fract_z
 _atom_site_occupancy
  Li  Li0  1  0.33676300  0.07645400  0.32654100  1
  Li  Li1  1  0.99660300  0.25086400  0.00672100  1
  Li  Li2  1  0.67004400  0.41578900  0.65998600  1
  Li  Li3  1  0.67028400  0.91482200  0.65947500  1
  Li  Li4  1  0.99642300  0.75185700  0.00712700  1
  Li  Li5  1  0.32991200  0.59021400  0.34010700  1
  Li  Li6  1  0.33328500  0.83333000  0.33344300  1
  Mn  Mn0  1  0.98867300  0.99453700  0.02268000  1
  Mn  Mn1  1  0.67798400  0.67213400  0.64400800  1
  Mn  Mn2  1  0.66535600  0.16535000  0.66931900  1
  Mn  Mn3  1  0.00136000  0.50131300  0.99728700  1
  Co  Co0  1  0.33333200  0.33333800  0.33333200  1
  O  O0  1  0.49542400  0.10974700  0.00910200  1
  O  O1  1  0.16351200  0.27886000  0.67303100  1
  O  O2  1  0.83165500  0.44347500  0.33665700  1
  O  O3  1  0.84784300  0.96319900  0.30436300  1
  O  O4  1  0.16564400  0.77892100  0.66864800  1
  O  O5  1  0.51011500  0.61869400  0.97978600  1
  O  O6  1  0.15651200  0.04796300  0.68691100  1
  O  O7  1  0.83504400  0.22319800  0.32999000  1
  O  O8  1  0.50327900  0.38781000  0.99351100  1
  O  O9  1  0.50097600  0.88774500  0.99804000  1
  O  O10  1  0.81877000  0.70346500  0.36237900  1
  O  O11  1  0.17120600  0.55692300  0.65755600  1
loop_
_geom_bond_atom_site_label_1
_geom_bond_atom_site_label_2
_geom_bond_distance
_geom_bond_site_symmetry_2
Li0 O3 1.984509 1_545
Li0 O3 1.984509 1_445
Li0 O0 2.057203 1_555
Li0 O7 2.247530 1_555
Li0 O7 2.247547 1_455
Li0 O6 2.340683 1_555
Li1 O7 2.098081 1_555
Li1 O8 2.144618 1_554
Li1 O8 2.144858 1_654
Li1 O1 2.166119 1_654
Li1 O0 2.190951 1_555
Li1 O0 2.191030 1_655
Li2 O2 2.098460 1_555
Li2 O1 2.144716 1_655
Li2 O1 2.144720 1_555
Li2 O8 2.165050 1_555
Li2 O11 2.190974 1_655
Li2 O11 2.191210 1_555
Li3 O4 2.138845 1_655
Li3 O4 2.139017 1_555
Li3 O6 2.159085 1_665
Li3 O6 2.159332 1_565
Li3 O9 2.198797 1_555
Li3 O3 2.301814 1_555
Li4 O9 2.138890 1_554
Li4 O9 2.138893 1_654
Li4 O5 2.159190 1_554
Li4 O5 2.159313 1_654
Li4 O4 2.198244 1_654
Li4 O10 2.302720 1_555
Li5 O10 1.984580 1_555
Li5 O10 1.984642 1_455
Li5 O11 2.057269 1_555
Li5 O2 2.247443 1_455
Li5 O2 2.247546 1_555
Li5 O5 2.340370 1_554
Li6 O10 2.074768 1_555
Li6 O3 2.074800 1_455
Li6 O3 2.074843 1_555
Li6 O10 2.074926 1_455
Li6 O4 2.178475 1_555
Li6 O9 2.179738 1_554
Mn0 O3 1.825081 1_555
Mn0 O9 1.936805 1_654
Mn0 O9 1.936841 1_554
Mn0 O0 1.962839 1_665
Mn0 O0 1.963029 1_565
Mn0 O6 2.181180 1_664
Mn1 O10 1.824731 1_555
Mn1 O4 1.936723 1_655
Mn1 O4 1.936845 1_555
Mn1 O11 1.962955 1_555
Mn1 O11 1.962968 1_655
Mn1 O5 2.181250 1_555
Mn2 O1 1.963900 1_555
Mn2 O1 1.963917 1_655
Mn2 O6 1.977795 1_655
Mn2 O6 1.977967 1_555
Mn2 O7 2.208082 1_555
Mn2 O0 2.208652 1_556
Mn3 O8 1.963836 1_455
Mn3 O8 1.964000 1_555
Mn3 O5 1.977880 1_555
Mn3 O5 1.977891 1_455
Mn3 O11 2.208328 1_555
Mn3 O2 2.208331 1_456
Co0 O7 1.936704 1_455
Co0 O2 1.936720 1_555
Co0 O2 1.936815 1_455
Co0 O7 1.936912 1_555
Co0 O1 2.207082 1_555
Co0 O8 2.207852 1_554
