# generated using pymatgen
data_HfW2
_symmetry_space_group_name_H-M   'P 1'
_cell_length_a   5.74533717
_cell_length_b   5.74533717
_cell_length_c   14.17629719
_cell_angle_alpha   97.38879537
_cell_angle_beta   97.38879537
_cell_angle_gamma   111.43006002
_symmetry_Int_Tables_number   1
_chemical_formula_structural   HfW2
_chemical_formula_sum   'Hf8 W16'
_cell_volume   424.08901627
_cell_formula_units_Z   8
loop_
 _symmetry_equiv_pos_site_id
 _symmetry_equiv_pos_as_xyz
  1  'x, y, z'
loop_
 _atom_site_type_symbol
 _atom_site_label
 _atom_site_symmetry_multiplicity
 _atom_site_fract_x
 _atom_site_fract_y
 _atom_site_fract_z
 _atom_site_occupancy
  Hf  Hf0_0  1  0.00000000  0.00000000  0.00000000  1
  Hf  Hf0_1  1  0.00000000  0.00000000  0.50000000  1
  Hf  Hf0_2  1  0.00000000  0.50000000  0.00000000  1
  Hf  Hf0_3  1  0.00000000  0.50000000  0.50000000  1
  Hf  Hf0_4  1  0.50000000  0.00000000  0.00000000  1
  Hf  Hf0_5  1  0.50000000  0.00000000  0.50000000  1
  Hf  Hf0_6  1  0.50000000  0.50000000  0.00000000  1
  Hf  Hf0_7  1  0.50000000  0.50000000  0.50000000  1
  W  W0_0  1  0.33664100  0.33664100  0.17328150  1
  W  W0_1  1  0.33664100  0.33664100  0.67328150  1
  W  W0_2  1  0.33664100  0.83664100  0.17328150  1
  W  W0_3  1  0.33664100  0.83664100  0.67328150  1
  W  W0_4  1  0.83664100  0.33664100  0.17328150  1
  W  W0_5  1  0.83664100  0.33664100  0.67328150  1
  W  W0_6  1  0.83664100  0.83664100  0.17328150  1
  W  W0_7  1  0.83664100  0.83664100  0.67328150  1
  W  W1_0  1  0.16335900  0.16335900  0.32671850  1
  W  W1_1  1  0.16335900  0.16335900  0.82671850  1
  W  W1_2  1  0.16335900  0.66335900  0.32671850  1
  W  W1_3  1  0.16335900  0.66335900  0.82671850  1
  W  W1_4  1  0.66335900  0.16335900  0.32671850  1
  W  W1_5  1  0.66335900  0.16335900  0.82671850  1
  W  W1_6  1  0.66335900  0.66335900  0.32671850  1
  W  W1_7  1  0.66335900  0.66335900  0.82671850  1
loop_
_geom_bond_atom_site_label_1
_geom_bond_atom_site_label_2
_geom_bond_distance
_geom_bond_site_symmetry_2
Hf0_0 Hf0_2 2.872669 1_545
Hf0_0 Hf0_2 2.872669 1_555
Hf0_0 Hf0_4 2.872669 1_455
Hf0_0 Hf0_4 2.872669 1_555
Hf0_0 W0_6 2.887630 1_445
Hf0_0 W1_1 2.887630 1_554
Hf0_0 W0_0 2.887632 1_555
Hf0_0 W1_7 2.887632 1_444
Hf0_0 Hf0_6 3.236402 1_445
Hf0_0 Hf0_6 3.236402 1_555
Hf0_0 W0_4 3.369494 1_455
Hf0_0 W0_2 3.369494 1_545
Hf0_0 W1_3 3.369494 1_544
Hf0_0 W1_5 3.369494 1_454
Hf0_1 Hf0_5 2.872669 1_555
Hf0_1 Hf0_5 2.872669 1_455
Hf0_1 Hf0_3 2.872669 1_555
Hf0_1 Hf0_3 2.872669 1_545
Hf0_1 W0_7 2.887630 1_445
Hf0_1 W1_0 2.887630 1_555
Hf0_1 W0_1 2.887632 1_555
Hf0_1 W1_6 2.887632 1_445
Hf0_1 Hf0_7 3.236402 1_445
Hf0_1 Hf0_7 3.236402 1_555
Hf0_1 W0_3 3.369494 1_545
Hf0_1 W0_5 3.369494 1_455
Hf0_1 W1_2 3.369494 1_545
Hf0_1 W1_4 3.369494 1_455
Hf0_2 Hf0_6 2.872669 1_455
Hf0_2 Hf0_6 2.872669 1_555
Hf0_2 W0_4 2.887630 1_455
Hf0_2 W1_3 2.887630 1_554
Hf0_2 W0_2 2.887632 1_555
Hf0_2 W1_5 2.887632 1_454
Hf0_2 Hf0_4 3.236402 1_565
Hf0_2 Hf0_4 3.236402 1_455
Hf0_2 W0_0 3.369494 1_555
Hf0_2 W0_6 3.369494 1_455
Hf0_2 W1_7 3.369494 1_454
Hf0_2 W1_1 3.369494 1_554
Hf0_3 Hf0_7 2.872669 1_455
Hf0_3 Hf0_7 2.872669 1_555
Hf0_3 W0_5 2.887630 1_455
Hf0_3 W1_2 2.887630 1_555
Hf0_3 W0_3 2.887632 1_555
Hf0_3 W1_4 2.887632 1_455
Hf0_3 Hf0_5 3.236402 1_565
Hf0_3 Hf0_5 3.236402 1_455
Hf0_3 W0_1 3.369494 1_555
Hf0_3 W0_7 3.369494 1_455
Hf0_3 W1_0 3.369494 1_555
Hf0_3 W1_6 3.369494 1_455
Hf0_4 Hf0_6 2.872669 1_555
Hf0_4 Hf0_6 2.872669 1_545
Hf0_4 W0_2 2.887630 1_545
Hf0_4 W1_5 2.887630 1_554
Hf0_4 W0_4 2.887632 1_555
Hf0_4 W1_3 2.887632 1_544
Hf0_4 W0_0 3.369494 1_555
Hf0_4 W0_6 3.369494 1_545
Hf0_4 W1_1 3.369494 1_554
Hf0_4 W1_7 3.369494 1_544
Hf0_5 Hf0_7 2.872669 1_555
Hf0_5 Hf0_7 2.872669 1_545
Hf0_5 W0_3 2.887630 1_545
Hf0_5 W1_4 2.887630 1_555
Hf0_5 W0_5 2.887632 1_555
Hf0_5 W1_2 2.887632 1_545
Hf0_5 W0_1 3.369494 1_555
Hf0_5 W0_7 3.369494 1_545
Hf0_5 W1_0 3.369494 1_555
Hf0_5 W1_6 3.369494 1_545
Hf0_6 W0_0 2.887630 1_555
Hf0_6 W1_7 2.887630 1_554
Hf0_6 W0_6 2.887632 1_555
Hf0_6 W1_1 2.887632 1_554
Hf0_6 W0_2 3.369494 1_555
Hf0_6 W0_4 3.369494 1_555
Hf0_6 W1_3 3.369494 1_554
Hf0_6 W1_5 3.369494 1_554
Hf0_7 W0_1 2.887630 1_555
Hf0_7 W1_6 2.887630 1_555
Hf0_7 W0_7 2.887632 1_555
Hf0_7 W1_0 2.887632 1_555
Hf0_7 W0_5 3.369494 1_555
Hf0_7 W0_3 3.369494 1_555
Hf0_7 W1_2 3.369494 1_555
Hf0_7 W1_4 3.369494 1_555
W0_0 W1_6 2.665207 1_555
W0_0 W1_0 2.665211 1_555
W0_0 W0_4 2.872669 1_455
W0_0 W0_2 2.872669 1_545
W0_0 W0_2 2.872669 1_555
W0_0 W0_4 2.872669 1_555
W0_0 W1_4 3.180945 1_555
W0_0 W1_2 3.180945 1_555
W0_0 W0_6 3.236402 1_445
W0_0 W0_6 3.236402 1_555
W0_1 W1_7 2.665207 1_555
W0_1 W1_1 2.665211 1_555
W0_1 W0_5 2.872669 1_555
W0_1 W0_3 2.872669 1_555
W0_1 W0_3 2.872669 1_545
W0_1 W0_5 2.872669 1_455
W0_1 W1_5 3.180945 1_555
W0_1 W1_3 3.180945 1_555
W0_1 W0_7 3.236402 1_445
W0_1 W0_7 3.236402 1_555
W0_2 W1_4 2.665207 1_565
W0_2 W1_2 2.665211 1_555
W0_2 W0_6 2.872669 1_455
W0_2 W0_6 2.872669 1_555
W0_2 W1_0 3.180945 1_565
W0_2 W1_6 3.180945 1_555
W0_2 W0_4 3.236402 1_565
W0_2 W0_4 3.236402 1_455
W0_3 W1_5 2.665207 1_565
W0_3 W1_3 2.665211 1_555
W0_3 W0_7 2.872669 1_455
W0_3 W0_7 2.872669 1_555
W0_3 W1_7 3.180945 1_555
W0_3 W1_1 3.180945 1_565
W0_3 W0_5 3.236402 1_565
W0_3 W0_5 3.236402 1_455
W0_4 W1_2 2.665207 1_655
W0_4 W1_4 2.665211 1_555
W0_4 W0_6 2.872669 1_545
W0_4 W0_6 2.872669 1_555
W0_4 W1_0 3.180945 1_655
W0_4 W1_6 3.180945 1_555
W0_5 W1_3 2.665207 1_655
W0_5 W1_5 2.665211 1_555
W0_5 W0_7 2.872669 1_555
W0_5 W0_7 2.872669 1_545
W0_5 W1_7 3.180945 1_555
W0_5 W1_1 3.180945 1_655
W0_6 W1_0 2.665207 1_665
W0_6 W1_6 2.665211 1_555
W0_6 W1_4 3.180945 1_565
W0_6 W1_2 3.180945 1_655
W0_7 W1_1 2.665207 1_665
W0_7 W1_7 2.665211 1_555
W0_7 W1_3 3.180945 1_655
W0_7 W1_5 3.180945 1_565
W1_0 W1_2 2.872669 1_555
W1_0 W1_2 2.872669 1_545
W1_0 W1_4 2.872669 1_455
W1_0 W1_4 2.872669 1_555
W1_0 W1_6 3.236402 1_555
W1_0 W1_6 3.236402 1_445
W1_1 W1_5 2.872669 1_555
W1_1 W1_3 2.872669 1_555
W1_1 W1_3 2.872669 1_545
W1_1 W1_5 2.872669 1_455
W1_1 W1_7 3.236402 1_445
W1_1 W1_7 3.236402 1_555
W1_2 W1_6 2.872669 1_455
W1_2 W1_6 2.872669 1_555
W1_2 W1_4 3.236402 1_455
W1_2 W1_4 3.236402 1_565
W1_3 W1_7 2.872669 1_555
W1_3 W1_7 2.872669 1_455
W1_3 W1_5 3.236402 1_455
W1_3 W1_5 3.236402 1_565
W1_4 W1_6 2.872669 1_555
W1_4 W1_6 2.872669 1_545
W1_5 W1_7 2.872669 1_555
W1_5 W1_7 2.872669 1_545
