# generated using pymatgen
data_TaMoW
_symmetry_space_group_name_H-M   'P 1'
_cell_length_a   14.24725283
_cell_length_b   13.86884950
_cell_length_c   5.58293176
_cell_angle_alpha   82.38171594
_cell_angle_beta   74.76321828
_cell_angle_gamma   22.85506578
_symmetry_Int_Tables_number   1
_chemical_formula_structural   TaMoW
_chemical_formula_sum   'Ta8 Mo8 W8'
_cell_volume   395.32667592
_cell_formula_units_Z   8
loop_
 _symmetry_equiv_pos_site_id
 _symmetry_equiv_pos_as_xyz
  1  'x, y, z'
loop_
 _atom_site_type_symbol
 _atom_site_label
 _atom_site_symmetry_multiplicity
 _atom_site_fract_x
 _atom_site_fract_y
 _atom_site_fract_z
 _atom_site_occupancy
  Ta  Ta0_0  1  0.33315397  0.33315397  0.16684603  1
  Ta  Ta0_1  1  0.33315397  0.33315397  0.66684603  1
  Ta  Ta0_2  1  0.33315397  0.83315397  0.16684603  1
  Ta  Ta0_3  1  0.33315397  0.83315397  0.66684603  1
  Ta  Ta0_4  1  0.83315397  0.33315397  0.16684603  1
  Ta  Ta0_5  1  0.83315397  0.33315397  0.66684603  1
  Ta  Ta0_6  1  0.83315397  0.83315397  0.16684603  1
  Ta  Ta0_7  1  0.83315397  0.83315397  0.66684603  1
  Mo  Mo0_0  1  0.49879964  0.49879964  0.00120036  1
  Mo  Mo0_1  1  0.49879964  0.49879964  0.50120036  1
  Mo  Mo0_2  1  0.49879964  0.99879963  0.00120036  1
  Mo  Mo0_3  1  0.49879964  0.99879964  0.50120036  1
  Mo  Mo0_4  1  0.99879964  0.49879963  0.00120036  1
  Mo  Mo0_5  1  0.99879964  0.49879963  0.50120037  1
  Mo  Mo0_6  1  0.99879964  0.99879964  0.00120036  1
  Mo  Mo0_7  1  0.99879964  0.99879964  0.50120036  1
  W  W0_0  1  0.16804689  0.16804689  0.33195311  1
  W  W0_1  1  0.16804689  0.16804689  0.83195311  1
  W  W0_2  1  0.16804689  0.66804689  0.33195311  1
  W  W0_3  1  0.16804689  0.66804689  0.83195311  1
  W  W0_4  1  0.66804689  0.16804689  0.33195311  1
  W  W0_5  1  0.66804689  0.16804689  0.83195311  1
  W  W0_6  1  0.66804689  0.66804689  0.33195311  1
  W  W0_7  1  0.66804689  0.66804689  0.83195311  1
loop_
_geom_bond_atom_site_label_1
_geom_bond_atom_site_label_2
_geom_bond_distance
_geom_bond_site_symmetry_2
Ta0_0 Ta0_6 2.791466 1_455
Ta0_0 Ta0_1 2.791466 1_554
Ta0_0 Ta0_6 2.791466 1_545
Ta0_0 Ta0_1 2.791466 1_555
Ta0_0 W0_2 2.795550 1_555
Ta0_0 W0_5 2.795550 1_554
Ta0_0 Ta0_7 3.203896 1_544
Ta0_0 Ta0_7 3.203896 1_455
Ta0_0 W0_4 3.236496 1_555
Ta0_0 W0_3 3.236496 1_554
Ta0_1 Ta0_7 2.791466 1_545
Ta0_1 Ta0_7 2.791466 1_455
Ta0_1 W0_3 2.795550 1_555
Ta0_1 W0_4 2.795550 1_555
Ta0_1 Ta0_6 3.203896 1_456
Ta0_1 Ta0_6 3.203896 1_545
Ta0_1 W0_5 3.236496 1_555
Ta0_1 W0_2 3.236496 1_555
Ta0_2 Ta0_3 2.791466 1_555
Ta0_2 Ta0_4 2.791466 1_555
Ta0_2 Ta0_4 2.791466 1_465
Ta0_2 Ta0_3 2.791466 1_554
Ta0_2 W0_7 2.795550 1_554
Ta0_2 W0_0 2.795550 1_565
Ta0_2 Ta0_5 3.203896 1_465
Ta0_2 Ta0_5 3.203896 1_554
Ta0_2 W0_6 3.236496 1_555
Ta0_2 W0_1 3.236496 1_564
Ta0_3 Ta0_5 2.791466 1_465
Ta0_3 Ta0_5 2.791466 1_555
Ta0_3 W0_6 2.795550 1_555
Ta0_3 W0_1 2.795550 1_565
Ta0_3 Ta0_4 3.203896 1_555
Ta0_3 Ta0_4 3.203896 1_466
Ta0_3 W0_7 3.236496 1_555
Ta0_3 W0_0 3.236496 1_565
Ta0_4 Ta0_5 2.791466 1_555
Ta0_4 Ta0_5 2.791466 1_554
Ta0_4 W0_6 2.795550 1_555
Ta0_4 W0_1 2.795550 1_654
Ta0_4 W0_0 3.236496 1_655
Ta0_4 W0_7 3.236496 1_554
Ta0_5 W0_7 2.795550 1_555
Ta0_5 W0_0 2.795550 1_655
Ta0_5 W0_6 3.236496 1_555
Ta0_5 W0_1 3.236496 1_655
Ta0_6 Ta0_7 2.791466 1_554
Ta0_6 Ta0_7 2.791466 1_555
Ta0_6 W0_4 2.795550 1_565
Ta0_6 W0_3 2.795550 1_654
Ta0_6 W0_5 3.236496 1_564
Ta0_6 W0_2 3.236496 1_655
Ta0_7 W0_5 2.795550 1_565
Ta0_7 W0_2 2.795550 1_655
Ta0_7 W0_4 3.236496 1_565
Ta0_7 W0_3 3.236496 1_655
Mo0_0 W0_2 2.704740 1_555
Mo0_0 W0_5 2.704740 1_554
Mo0_0 Ta0_2 2.783651 1_555
Mo0_0 Ta0_5 2.783651 1_554
Mo0_0 Mo0_1 2.791466 1_555
Mo0_0 Mo0_6 2.791466 1_455
Mo0_0 Mo0_6 2.791466 1_545
Mo0_0 Mo0_1 2.791466 1_554
Mo0_0 W0_4 3.158389 1_555
Mo0_0 W0_3 3.158389 1_554
Mo0_0 Mo0_7 3.203896 1_455
Mo0_0 Mo0_7 3.203896 1_544
Mo0_0 Ta0_4 3.226224 1_555
Mo0_0 Ta0_3 3.226224 1_554
Mo0_1 W0_3 2.704740 1_555
Mo0_1 W0_4 2.704740 1_555
Mo0_1 Ta0_4 2.783651 1_555
Mo0_1 Ta0_3 2.783651 1_555
Mo0_1 Mo0_7 2.791466 1_455
Mo0_1 Mo0_7 2.791466 1_545
Mo0_1 W0_5 3.158389 1_555
Mo0_1 W0_2 3.158389 1_555
Mo0_1 Mo0_6 3.203896 1_456
Mo0_1 Mo0_6 3.203896 1_545
Mo0_1 Ta0_2 3.226224 1_555
Mo0_1 Ta0_5 3.226224 1_555
Mo0_2 W0_0 2.704740 1_565
Mo0_2 W0_7 2.704740 1_554
Mo0_2 Ta0_7 2.783651 1_554
Mo0_2 Ta0_0 2.783651 1_565
Mo0_2 Mo0_3 2.791466 1_555
Mo0_2 Mo0_4 2.791466 1_465
Mo0_2 Mo0_4 2.791466 1_555
Mo0_2 Mo0_3 2.791466 1_554
Mo0_2 W0_1 3.158389 1_564
Mo0_2 W0_6 3.158389 1_555
Mo0_2 Mo0_5 3.203896 1_554
Mo0_2 Mo0_5 3.203896 1_465
Mo0_2 Ta0_6 3.226224 1_555
Mo0_2 Ta0_1 3.226224 1_564
Mo0_3 W0_1 2.704740 1_565
Mo0_3 W0_6 2.704740 1_555
Mo0_3 Ta0_6 2.783651 1_555
Mo0_3 Ta0_1 2.783651 1_565
Mo0_3 Mo0_5 2.791466 1_465
Mo0_3 Mo0_5 2.791466 1_555
Mo0_3 W0_0 3.158389 1_565
Mo0_3 W0_7 3.158389 1_555
Mo0_3 Mo0_4 3.203896 1_466
Mo0_3 Mo0_4 3.203896 1_555
Mo0_3 Ta0_7 3.226224 1_555
Mo0_3 Ta0_0 3.226224 1_565
Mo0_4 W0_1 2.704740 1_654
Mo0_4 W0_6 2.704740 1_555
Mo0_4 Ta0_6 2.783651 1_555
Mo0_4 Ta0_1 2.783651 1_654
Mo0_4 Mo0_5 2.791466 1_554
Mo0_4 Mo0_5 2.791466 1_555
Mo0_4 W0_0 3.158389 1_655
Mo0_4 W0_7 3.158389 1_554
Mo0_4 Ta0_7 3.226224 1_554
Mo0_4 Ta0_0 3.226224 1_655
Mo0_5 W0_0 2.704740 1_655
Mo0_5 W0_7 2.704740 1_555
Mo0_5 Ta0_7 2.783651 1_555
Mo0_5 Ta0_0 2.783651 1_655
Mo0_5 W0_1 3.158389 1_655
Mo0_5 W0_6 3.158389 1_555
Mo0_5 Ta0_6 3.226224 1_555
Mo0_5 Ta0_1 3.226224 1_655
Mo0_6 W0_3 2.704740 1_654
Mo0_6 W0_4 2.704740 1_565
Mo0_6 Ta0_4 2.783651 1_565
Mo0_6 Ta0_3 2.783651 1_654
Mo0_6 Mo0_7 2.791466 1_555
Mo0_6 Mo0_7 2.791466 1_554
Mo0_6 W0_2 3.158389 1_655
Mo0_6 W0_5 3.158389 1_564
Mo0_6 Ta0_2 3.226224 1_655
Mo0_6 Ta0_5 3.226224 1_564
Mo0_7 W0_2 2.704740 1_655
Mo0_7 W0_5 2.704740 1_565
Mo0_7 Ta0_2 2.783651 1_655
Mo0_7 Ta0_5 2.783651 1_565
Mo0_7 W0_3 3.158389 1_655
Mo0_7 W0_4 3.158389 1_565
Mo0_7 Ta0_3 3.226224 1_655
Mo0_7 Ta0_4 3.226224 1_565
W0_0 W0_6 2.791466 1_455
W0_0 W0_1 2.791466 1_555
W0_0 W0_1 2.791466 1_554
W0_0 W0_6 2.791466 1_545
W0_0 W0_7 3.203896 1_455
W0_0 W0_7 3.203896 1_544
W0_1 W0_7 2.791466 1_455
W0_1 W0_7 2.791466 1_545
W0_1 W0_6 3.203896 1_456
W0_1 W0_6 3.203896 1_545
W0_2 W0_3 2.791466 1_555
W0_2 W0_4 2.791466 1_465
W0_2 W0_4 2.791466 1_555
W0_2 W0_3 2.791466 1_554
W0_2 W0_5 3.203896 1_465
W0_2 W0_5 3.203896 1_554
W0_3 W0_5 2.791466 1_555
W0_3 W0_5 2.791466 1_465
W0_3 W0_4 3.203896 1_555
W0_3 W0_4 3.203896 1_466
W0_4 W0_5 2.791466 1_555
W0_4 W0_5 2.791466 1_554
W0_6 W0_7 2.791466 1_555
W0_6 W0_7 2.791466 1_554
