# generated using pymatgen
data_LiScMo3O8
_symmetry_space_group_name_H-M   'P 1'
_cell_length_a   4.81239600
_cell_length_b   6.18910238
_cell_length_c   6.18910200
_cell_angle_alpha   60.00000204
_cell_angle_beta   90.00000000
_cell_angle_gamma   90.00000000
_symmetry_Int_Tables_number   1
_chemical_formula_structural   LiScMo3O8
_chemical_formula_sum   'Li1 Sc1 Mo3 O8'
_cell_volume   159.64205328
_cell_formula_units_Z   1
loop_
 _symmetry_equiv_pos_site_id
 _symmetry_equiv_pos_as_xyz
  1  'x, y, z'
loop_
 _atom_site_type_symbol
 _atom_site_label
 _atom_site_symmetry_multiplicity
 _atom_site_fract_x
 _atom_site_fract_y
 _atom_site_fract_z
 _atom_site_occupancy
  Li  Li0  1  0.31944600  0.66666600  0.66666700  1
  Sc  Sc0  1  0.24483100  0.00000000  0.00000000  1
  Mo  Mo0  1  0.75255300  0.49720900  0.49720900  1
  Mo  Mo1  1  0.75255300  0.49720900  0.00558200  1
  Mo  Mo2  1  0.75255300  0.00558200  0.49720900  1
  O  O0  1  0.96175500  0.66666600  0.66666700  1
  O  O1  1  0.97123700  0.16674300  0.66651500  1
  O  O2  1  0.97123700  0.16674300  0.16674200  1
  O  O3  1  0.97123700  0.66651600  0.16674200  1
  O  O4  1  0.52751400  0.33333400  0.33333300  1
  O  O5  1  0.50769400  0.82474300  0.35051300  1
  O  O6  1  0.50769400  0.82474300  0.82474400  1
  O  O7  1  0.50769400  0.35051200  0.82474400  1
loop_
_geom_bond_atom_site_label_1
_geom_bond_atom_site_label_2
_geom_bond_distance
_geom_bond_site_symmetry_2
Li0 O0 1.721351 1_455
Li0 O6 1.921518 1_555
Li0 O5 1.921518 1_555
Li0 O7 1.921518 1_555
Mo0 O1 2.060478 1_555
Mo0 O3 2.060483 1_555
Mo0 O4 2.063710 1_555
Mo0 O0 2.076885 1_555
Mo0 O5 2.116995 1_555
Mo0 O7 2.116999 1_555
Mo1 O2 2.060478 1_555
Mo1 O3 2.060483 1_555
Mo1 O4 2.063710 1_555
Mo1 O0 2.076885 1_554
Mo1 O6 2.116995 1_554
Mo1 O7 2.116999 1_554
Mo2 O2 2.060483 1_555
Mo2 O1 2.060483 1_555
Mo2 O4 2.063715 1_555
Mo2 O0 2.076890 1_545
Mo2 O6 2.117000 1_545
Mo2 O5 2.117000 1_545
O1 Sc0 2.220031 1_656
O2 Sc0 2.220031 1_655
O3 Sc0 2.220026 1_665
O5 Sc0 2.264911 1_565
O6 Sc0 2.264911 1_566
O7 Sc0 2.264907 1_556
