# generated using pymatgen
data_MgFeSiO5
_symmetry_space_group_name_H-M   'P 1'
_cell_length_a   5.34287565
_cell_length_b   5.34287565
_cell_length_c   6.92963265
_cell_angle_alpha   75.20394037
_cell_angle_beta   75.20394037
_cell_angle_gamma   105.22968353
_symmetry_Int_Tables_number   1
_chemical_formula_structural   MgFeSiO5
_chemical_formula_sum   'Mg2 Fe2 Si2 O10'
_cell_volume   173.16405292
_cell_formula_units_Z   2
loop_
 _symmetry_equiv_pos_site_id
 _symmetry_equiv_pos_as_xyz
  1  'x, y, z'
loop_
 _atom_site_type_symbol
 _atom_site_label
 _atom_site_symmetry_multiplicity
 _atom_site_fract_x
 _atom_site_fract_y
 _atom_site_fract_z
 _atom_site_occupancy
  Mg  Mg0  1  0.83065300  0.16934700  0.75000000  1
  Mg  Mg1  1  0.16934700  0.83065300  0.25000000  1
  Fe  Fe0  1  0.50000000  0.50000000  0.50000000  1
  Fe  Fe1  1  0.50000000  0.50000000  0.00000000  1
  Si  Si0  1  0.17435700  0.82564300  0.75000000  1
  Si  Si1  1  0.82564300  0.17435700  0.25000000  1
  O  O0  1  0.39498100  0.83012500  0.87475600  1
  O  O1  1  0.16987500  0.60501900  0.62524400  1
  O  O2  1  0.60501900  0.16987500  0.12524400  1
  O  O3  1  0.83012500  0.39498100  0.37475600  1
  O  O4  1  0.78009900  0.86391300  0.41089300  1
  O  O5  1  0.13608700  0.21990100  0.08910700  1
  O  O6  1  0.21990100  0.13608700  0.58910700  1
  O  O7  1  0.86391300  0.78009900  0.91089300  1
  O  O8  1  0.41488900  0.58511100  0.25000000  1
  O  O9  1  0.58511100  0.41488900  0.75000000  1
loop_
_geom_bond_atom_site_label_1
_geom_bond_atom_site_label_2
_geom_bond_distance
_geom_bond_site_symmetry_2
Mg0 O9 2.084798 1_555
Mg0 O7 2.170453 1_545
Mg0 O6 2.170453 1_655
Mg0 O1 2.325085 1_655
Mg0 O0 2.325085 1_545
Mg0 O2 2.572805 1_556
Mg0 O3 2.572805 1_555
Mg1 O8 2.084798 1_555
Mg1 O4 2.170453 1_455
Mg1 O5 2.170453 1_565
Mg1 O2 2.325085 1_565
Mg1 O3 2.325085 1_455
Mg1 O0 2.572805 1_554
Mg1 O1 2.572805 1_555
Fe0 O9 1.877086 1_555
Fe0 O8 1.877086 1_555
Fe0 O4 1.946134 1_555
Fe0 O6 1.946134 1_555
Fe0 O1 2.041064 1_555
Fe0 O3 2.041064 1_555
Fe1 O8 1.877086 1_555
Fe1 O9 1.877086 1_554
Fe1 O7 1.946134 1_554
Fe1 O5 1.946134 1_555
Fe1 O2 2.041064 1_555
Fe1 O0 2.041064 1_554
O0 Si0 1.629013 1_555
O1 Si0 1.629013 1_555
O2 Si1 1.629013 1_555
O3 Si1 1.629013 1_555
O4 Si1 1.660808 1_565
O5 Si1 1.660808 1_455
O6 Si0 1.660808 1_545
O7 Si0 1.660808 1_655
