# generated using pymatgen
data_Li7Mn2(CoO4)3
_symmetry_space_group_name_H-M   'P 1'
_cell_length_a   2.97198600
_cell_length_b   7.60288429
_cell_length_c   9.87037455
_cell_angle_alpha   101.04541877
_cell_angle_beta   92.30566530
_cell_angle_gamma   99.24499028
_symmetry_Int_Tables_number   1
_chemical_formula_structural   Li7Mn2(CoO4)3
_chemical_formula_sum   'Li7 Mn2 Co3 O12'
_cell_volume   215.47162479
_cell_formula_units_Z   1
loop_
 _symmetry_equiv_pos_site_id
 _symmetry_equiv_pos_as_xyz
  1  'x, y, z'
loop_
 _atom_site_type_symbol
 _atom_site_label
 _atom_site_symmetry_multiplicity
 _atom_site_fract_x
 _atom_site_fract_y
 _atom_site_fract_z
 _atom_site_occupancy
  Li  Li0  1  0.09462200  0.17211400  0.75232100  1
  Li  Li1  1  0.59528900  0.17592000  0.24486200  1
  Li  Li2  1  0.74769800  0.50298800  0.75278200  1
  Li  Li3  1  0.24484100  0.48739700  0.23794100  1
  Li  Li4  1  0.41035900  0.83082600  0.75155000  1
  Li  Li5  1  0.91041000  0.83238400  0.25279700  1
  Li  Li6  1  0.65741800  0.33249100  0.00843500  1
  Mn  Mn0  1  0.00501600  0.00693200  0.00044600  1
  Mn  Mn1  1  0.82919000  0.66756100  0.49796100  1
  Co  Co0  1  0.50639500  0.00199900  0.50219800  1
  Co  Co1  1  0.16374700  0.32964000  0.50067700  1
  Co  Co2  1  0.32891600  0.65121800  0.99554400  1
  O  O0  1  0.51799800  0.07165700  0.89068900  1
  O  O1  1  0.08390300  0.08832000  0.38746600  1
  O  O2  1  0.22581900  0.44096100  0.88357700  1
  O  O3  1  0.70261800  0.42345300  0.38366600  1
  O  O4  1  0.90473400  0.75485200  0.88903000  1
  O  O5  1  0.40614300  0.76360200  0.38373900  1
  O  O6  1  0.63097300  0.24078800  0.61731500  1
  O  O7  1  0.10928400  0.22918600  0.11927900  1
  O  O8  1  0.25098600  0.57466600  0.61625700  1
  O  O9  1  0.77475000  0.59677400  0.11371700  1
  O  O10  1  0.92566400  0.91226400  0.61554100  1
  O  O11  1  0.47322700  0.91200700  0.10220900  1
loop_
_geom_bond_atom_site_label_1
_geom_bond_atom_site_label_2
_geom_bond_distance
_geom_bond_site_symmetry_2
Li0 O6 2.072949 1_455
Li0 O10 2.140692 1_445
Li0 O0 2.145236 1_555
Li0 O2 2.167266 1_555
Li0 O6 2.181590 1_555
Li0 O0 2.356454 1_455
Li1 O7 2.005748 1_555
Li1 O7 2.044490 1_655
Li1 O3 2.074741 1_555
Li1 O11 2.186934 1_545
Li1 O1 2.222783 1_555
Li1 O1 2.244780 1_655
Li2 O2 2.051635 1_655
Li2 O4 2.090160 1_555
Li2 O2 2.110471 1_555
Li2 O8 2.128814 1_655
Li2 O6 2.145059 1_555
Li2 O8 2.161464 1_555
Li3 O7 2.053029 1_555
Li3 O3 2.116417 1_555
Li3 O9 2.184721 1_455
Li3 O9 2.190995 1_555
Li3 O3 2.259383 1_455
Li3 O5 2.274566 1_555
Li4 O0 2.038122 1_565
Li4 O8 2.111104 1_555
Li4 O4 2.149114 1_455
Li4 O10 2.170277 1_455
Li4 O10 2.170306 1_555
Li4 O4 2.178628 1_555
Li5 O9 2.009235 1_555
Li5 O5 2.086365 1_555
Li5 O1 2.109612 1_665
Li5 O5 2.113730 1_655
Li5 O11 2.169339 1_555
Li5 O11 2.364967 1_655
Li6 O7 2.041399 1_655
Li6 O9 2.045593 1_555
Li6 O0 2.066193 1_554
Li6 O2 2.108642 1_554
Li6 O7 2.128196 1_555
Li6 O2 2.271978 1_654
Mn0 O7 1.835803 1_555
Mn0 O0 1.953908 1_454
Mn0 O0 1.958629 1_554
Mn0 O4 1.988419 1_444
Mn0 O11 1.988482 1_545
Mn0 O11 2.016590 1_445
Mn1 O3 1.948824 1_555
Mn1 O10 1.965927 1_555
Mn1 O5 1.970123 1_555
Mn1 O8 1.978965 1_655
Mn1 O5 2.193879 1_655
Mn1 O8 2.214177 1_555
Co0 O6 1.919342 1_555
Co0 O10 1.929547 1_545
Co0 O1 1.930009 1_555
Co0 O5 1.930665 1_545
Co0 O1 2.176748 1_655
Co0 O10 2.182961 1_445
Co1 O1 1.929868 1_555
Co1 O8 1.961064 1_555
Co1 O6 2.044676 1_555
Co1 O3 2.055035 1_455
Co1 O6 2.095203 1_455
Co1 O3 2.122478 1_555
Co2 O2 1.734671 1_555
Co2 O9 1.877336 1_556
Co2 O4 1.960947 1_455
Co2 O11 2.028358 1_556
Co2 O9 2.089234 1_456
Co2 O4 2.164177 1_555
