# generated using pymatgen
data_Mg6Si5
_symmetry_space_group_name_H-M   'P 1'
_cell_length_a   4.67933300
_cell_length_b   6.70273931
_cell_length_c   14.34490069
_cell_angle_alpha   98.65854719
_cell_angle_beta   92.17191538
_cell_angle_gamma   96.88480351
_symmetry_Int_Tables_number   1
_chemical_formula_structural   Mg6Si5
_chemical_formula_sum   'Mg12 Si10'
_cell_volume   440.86552641
_cell_formula_units_Z   2
loop_
 _symmetry_equiv_pos_site_id
 _symmetry_equiv_pos_as_xyz
  1  'x, y, z'
loop_
 _atom_site_type_symbol
 _atom_site_label
 _atom_site_symmetry_multiplicity
 _atom_site_fract_x
 _atom_site_fract_y
 _atom_site_fract_z
 _atom_site_occupancy
  Mg  Mg0  1  0.79393300  0.05297800  0.02578000  1
  Mg  Mg1  1  0.18672700  0.91608700  0.50948300  1
  Mg  Mg2  1  0.72111900  0.04379300  0.38052500  1
  Mg  Mg3  1  0.66071300  0.77266900  0.63415300  1
  Mg  Mg4  1  0.76695800  0.50681400  0.80158400  1
  Mg  Mg5  1  0.38140400  0.82621100  0.14679700  1
  Mg  Mg6  1  0.64369400  0.58101200  0.39688600  1
  Mg  Mg7  1  0.73807500  0.24137600  0.58905400  1
  Mg  Mg8  1  0.31139900  0.76520300  0.92216700  1
  Mg  Mg9  1  0.27476300  0.35473700  0.12970600  1
  Mg  Mg10  1  0.79739500  0.56583500  0.01702900  1
  Mg  Mg11  1  0.20994800  0.28826000  0.90794900  1
  Si  Si0  1  0.13397800  0.54907900  0.54947400  1
  Si  Si1  1  0.27624300  0.27130700  0.44812400  1
  Si  Si2  1  0.74376500  0.21330300  0.21932300  1
  Si  Si3  1  0.60994600  0.07407300  0.83066900  1
  Si  Si4  1  0.28686100  0.09597700  0.69141600  1
  Si  Si5  1  0.15716000  0.79035300  0.31969100  1
  Si  Si6  1  0.82537200  0.57468400  0.20326800  1
  Si  Si7  1  0.25121600  0.45689800  0.70562400  1
  Si  Si8  1  0.01619800  0.90954600  0.79409300  1
  Si  Si9  1  0.20967100  0.14976600  0.28078100  1
loop_
_geom_bond_atom_site_label_1
_geom_bond_atom_site_label_2
_geom_bond_distance
_geom_bond_site_symmetry_2
Mg0 Si2 2.851250 1_555
Mg0 Si3 2.925825 1_554
Mg0 Mg8 2.977626 1_544
Mg0 Mg9 3.020370 1_655
Mg0 Mg5 3.065161 1_545
Mg0 Mg11 3.074016 1_654
Mg0 Mg10 3.250681 1_545
Mg0 Mg10 3.456802 1_555
Mg0 Mg8 3.510302 1_644
Mg0 Mg9 3.572109 1_555
Mg0 Mg5 3.783549 1_645
Mg1 Si0 2.594509 1_555
Mg1 Si1 2.653098 1_565
Mg1 Si4 2.703498 1_565
Mg1 Si5 2.719248 1_555
Mg1 Mg2 3.085462 1_465
Mg1 Mg3 3.125664 1_555
Mg1 Mg7 3.223610 1_565
Mg1 Mg3 3.234941 1_455
Mg1 Mg2 3.274447 1_565
Mg1 Mg7 3.315700 1_465
Mg1 Mg6 3.367240 1_455
Mg2 Si2 2.725845 1_555
Mg2 Si9 2.818270 1_655
Mg2 Si1 2.840470 1_555
Mg2 Si5 2.886176 1_645
Mg2 Si1 2.903025 1_655
Mg2 Si9 2.955227 1_555
Mg2 Si5 2.985912 1_545
Mg2 Mg7 3.077704 1_555
Mg2 Mg6 3.124794 1_545
Mg2 Mg6 3.635539 1_555
Mg3 Si8 2.753855 1_655
Mg3 Si0 2.852361 1_555
Mg3 Si4 2.985466 1_565
Mg3 Si7 3.005408 1_555
Mg3 Si0 3.012854 1_655
Mg3 Si3 3.245865 1_565
Mg3 Mg4 3.256011 1_555
Mg3 Mg7 3.282743 1_565
Mg3 Mg6 3.446646 1_555
Mg3 Mg7 3.586683 1_555
Mg4 Si7 2.692007 1_555
Mg4 Si7 2.724168 1_655
Mg4 Si8 2.828534 1_655
Mg4 Si3 3.000626 1_555
Mg4 Mg8 3.191879 1_655
Mg4 Mg7 3.279685 1_555
Mg4 Mg8 3.286088 1_555
Mg5 Si5 2.761562 1_555
Mg5 Si9 2.884953 1_565
Mg5 Si2 2.947559 1_565
Mg5 Si6 2.989614 1_555
Mg5 Mg9 3.110491 1_555
Mg5 Si6 3.128500 1_455
Mg5 Mg8 3.185726 1_554
Mg6 Si1 2.739590 1_555
Mg6 Si6 2.931005 1_555
Mg6 Si5 2.971394 1_655
Mg6 Si5 3.069343 1_555
Mg6 Si0 3.158868 1_655
Mg6 Si0 3.307589 1_555
Mg6 Si2 3.355378 1_555
Mg7 Si0 2.743052 1_655
Mg7 Si4 2.781434 1_555
Mg7 Si1 2.948278 1_555
Mg7 Si7 2.964006 1_655
Mg7 Si7 3.228554 1_555
Mg7 Si4 3.231928 1_655
Mg7 Si1 3.294809 1_655
Mg8 Si8 2.623495 1_555
Mg8 Si3 2.867774 1_565
Mg8 Si7 3.443855 1_555
Mg9 Si9 2.742812 1_555
Mg9 Si2 2.831882 1_555
Mg9 Si6 2.855162 1_455
Mg9 Si6 2.887919 1_555
Mg9 Si2 2.961328 1_455
Mg10 Si6 2.661187 1_555
Mg10 Mg4 3.051756 1_554
Mg10 Mg8 3.073672 1_654
Mg10 Mg11 3.138496 1_654
Mg10 Mg8 3.138583 1_554
Mg10 Mg5 3.226623 1_555
Mg10 Mg9 3.279332 1_555
Mg10 Mg9 3.282832 1_655
Mg10 Mg11 3.322267 1_554
Mg10 Mg5 3.387021 1_655
Mg11 Si3 2.667519 1_555
Mg11 Si8 2.832099 1_545
Mg11 Si3 3.080781 1_455
Mg11 Mg9 3.142850 1_556
Mg11 Mg8 3.149469 1_555
Mg11 Mg4 3.151538 1_455
Mg11 Si7 3.273591 1_555
Mg11 Mg4 3.365492 1_555
Si0 Si1 2.361946 1_555
Si0 Si7 2.470820 1_555
Si1 Si9 2.411817 1_555
Si2 Si9 2.429305 1_655
Si2 Si6 2.453364 1_555
Si2 Si9 2.688772 1_555
Si3 Si8 2.347160 1_645
Si3 Si4 2.492000 1_555
Si3 Si8 2.862053 1_545
Si4 Si8 2.377206 1_545
Si4 Si7 2.423335 1_555
Si5 Si6 2.414071 1_455
Si5 Si9 2.539446 1_565
