# generated using pymatgen
data_Na3AlN2
_symmetry_space_group_name_H-M   'P 1'
_cell_length_a   9.27457300
_cell_length_b   10.70935440
_cell_length_c   10.70935467
_cell_angle_alpha   90.00000110
_cell_angle_beta   125.26439097
_cell_angle_gamma   54.73560799
_symmetry_Int_Tables_number   1
_chemical_formula_structural   Na3AlN2
_chemical_formula_sum   'Na24 Al8 N16'
_cell_volume   614.12935756
_cell_formula_units_Z   8
loop_
 _symmetry_equiv_pos_site_id
 _symmetry_equiv_pos_as_xyz
  1  'x, y, z'
loop_
 _atom_site_type_symbol
 _atom_site_label
 _atom_site_symmetry_multiplicity
 _atom_site_fract_x
 _atom_site_fract_y
 _atom_site_fract_z
 _atom_site_occupancy
  Na  Na0  1  0.19121700  0.06765600  0.96009000  1
  Na  Na1  1  0.80878300  0.75887300  0.53991000  1
  Na  Na2  1  0.80878300  0.43234400  0.76887300  1
  Na  Na3  1  0.19121700  0.74112700  0.73112700  1
  Na  Na4  1  0.27103800  0.76887300  0.29878300  1
  Na  Na5  1  0.72896200  0.73112700  0.02774600  1
  Na  Na6  1  0.27103800  0.96009000  0.47225400  1
  Na  Na7  1  0.72896200  0.53991000  0.20121700  1
  Na  Na8  1  0.67347100  0.02774600  0.74112700  1
  Na  Na9  1  0.67347100  0.29878300  0.43234400  1
  Na  Na10  1  0.32652900  0.20121700  0.75887300  1
  Na  Na11  1  0.32652900  0.47225400  0.06765600  1
  Na  Na12  1  0.80878300  0.93234400  0.03991000  1
  Na  Na13  1  0.19121700  0.24112700  0.46009000  1
  Na  Na14  1  0.19121700  0.56765600  0.23112700  1
  Na  Na15  1  0.80878300  0.25887300  0.26887300  1
  Na  Na16  1  0.72896200  0.23112700  0.70121700  1
  Na  Na17  1  0.27103800  0.26887300  0.97225400  1
  Na  Na18  1  0.72896200  0.03991000  0.52774600  1
  Na  Na19  1  0.27103800  0.46009000  0.79878300  1
  Na  Na20  1  0.32652900  0.97225400  0.25887300  1
  Na  Na21  1  0.32652900  0.70121700  0.56765600  1
  Na  Na22  1  0.67347100  0.79878300  0.24112700  1
  Na  Na23  1  0.67347100  0.52774600  0.93234400  1
  Al  Al0  1  0.20959500  0.00000000  0.70959500  1
  Al  Al1  1  0.79040500  0.70959500  0.79040500  1
  Al  Al2  1  0.79040500  0.50000000  0.50000000  1
  Al  Al3  1  0.20959500  0.79040500  0.00000000  1
  Al  Al4  1  0.79040500  0.00000000  0.29040500  1
  Al  Al5  1  0.20959500  0.29040500  0.20959500  1
  Al  Al6  1  0.20959500  0.50000000  0.50000000  1
  Al  Al7  1  0.79040500  0.20959500  0.00000000  1
  N  N0  1  0.00000000  0.00000000  0.50000000  1
  N  N1  1  0.00000000  0.50000000  0.00000000  1
  N  N2  1  0.00000000  0.50000000  0.50000000  1
  N  N3  1  0.00000000  0.00000000  0.00000000  1
  N  N4  1  0.50000000  0.92761100  0.75000000  1
  N  N5  1  0.50000000  0.57238900  0.25000000  1
  N  N6  1  0.00000000  0.25000000  0.67761100  1
  N  N7  1  0.00000000  0.75000000  0.82238900  1
  N  N8  1  0.64477800  0.67761100  0.57238900  1
  N  N9  1  0.35522200  0.82238900  0.92761100  1
  N  N10  1  0.50000000  0.07238900  0.25000000  1
  N  N11  1  0.50000000  0.42761100  0.75000000  1
  N  N12  1  0.00000000  0.75000000  0.32238900  1
  N  N13  1  0.00000000  0.25000000  0.17761100  1
  N  N14  1  0.35522200  0.32238900  0.42761100  1
  N  N15  1  0.64477800  0.17761100  0.07238900  1
loop_
_geom_bond_atom_site_label_1
_geom_bond_atom_site_label_2
_geom_bond_distance
_geom_bond_site_symmetry_2
Na0 Na20 2.596149 1_546
Na0 Na16 2.596154 1_455
Na0 Na22 2.634259 1_546
Na0 Na17 2.634266 1_555
Na0 Na2 2.764925 1_455
Na1 Na22 2.596149 1_555
Na1 Na19 2.596151 1_655
Na1 Na18 2.634255 1_565
Na1 Na20 2.634259 1_555
Na1 Na3 2.764925 1_655
Na2 Na23 2.596149 1_555
Na2 Na21 2.634259 1_555
Na4 Na6 2.764925 1_555
Na5 Na7 2.764925 1_555
Na10 Na13 2.596149 1_555
Na10 Na19 2.596152 1_555
Na10 Na17 2.634254 1_555
Na10 Na12 2.634259 1_546
Na10 Na8 2.764925 1_555
Na11 Na17 2.596144 1_554
Na11 Na14 2.596149 1_555
Na11 Na15 2.634259 1_555
Na11 Na19 2.634263 1_554
Na11 Na9 2.764925 1_555
Na12 Na8 2.596149 1_564
Na12 Na4 2.596154 1_655
Na12 Na5 2.634266 1_555
Na12 Na14 2.764925 1_655
Na13 Na7 2.596151 1_455
Na13 Na6 2.634255 1_545
Na13 Na8 2.634259 1_555
Na13 Na15 2.764925 1_455
Na14 Na5 2.596156 1_455
Na14 Na9 2.634259 1_555
Na14 Na4 2.634265 1_555
Na15 Na9 2.596149 1_555
Na15 Na6 2.596153 1_645
Na15 Na7 2.634254 1_555
Na16 Na8 2.596141 1_555
Na16 Na2 2.634265 1_555
Na16 Na9 2.634265 1_555
Na16 Na18 2.764925 1_555
Na17 Na2 2.596156 1_455
Na17 Na19 2.764925 1_555
Na18 Na3 2.596153 1_645
Na18 Na9 2.596155 1_555
Na18 Na8 2.634252 1_555
Na19 Na3 2.634254 1_555
Na20 Na4 2.596141 1_555
Na20 Na6 2.634252 1_555
Na20 Na22 2.764925 1_555
Na21 Na3 2.596149 1_555
Na21 Na6 2.596155 1_555
Na21 Na4 2.634265 1_555
Na21 Na23 2.764925 1_555
Na22 Na7 2.596152 1_555
Na22 Na5 2.634254 1_555
Na23 Na5 2.596144 1_556
Na23 Na3 2.634259 1_555
Na23 Na7 2.634263 1_556
Al0 N0 1.943904 1_555
Al0 N6 2.070207 1_555
Al0 N4 2.070207 1_545
Al0 N9 2.070207 1_545
Al1 N1 1.943904 1_656
Al1 N4 2.070207 1_555
Al1 N7 2.070207 1_655
Al1 N8 2.070207 1_555
Al2 N2 1.943904 1_655
Al2 N6 2.070207 1_655
Al2 N5 2.070207 1_555
Al2 N8 2.070207 1_555
Al3 N3 1.943904 1_565
Al3 N5 2.070207 1_555
Al3 N7 2.070207 1_554
Al3 N9 2.070207 1_554
Al4 N0 1.943904 1_655
Al4 N12 2.070207 1_645
Al4 N10 2.070207 1_555
Al4 N15 2.070207 1_555
Al5 N1 1.943904 1_555
Al5 N10 2.070207 1_555
Al5 N13 2.070207 1_555
Al5 N14 2.070207 1_555
Al6 N2 1.943904 1_555
Al6 N12 2.070207 1_555
Al6 N11 2.070207 1_555
Al6 N14 2.070207 1_555
Al7 N3 1.943904 1_655
Al7 N11 2.070207 1_554
Al7 N13 2.070207 1_655
Al7 N15 2.070207 1_555
N0 Na9 2.492349 1_455
N0 Na21 2.492349 1_545
N0 Na15 2.492349 1_455
N0 Na3 2.492349 1_545
N0 Na18 2.492358 1_455
N0 Na6 2.492358 1_545
N1 Na11 2.492349 1_555
N1 Na23 2.492349 1_454
N1 Na14 2.492349 1_555
N1 Na2 2.492349 1_454
N1 Na5 2.492353 1_455
N1 Na17 2.492353 1_554
N2 Na22 2.492349 1_455
N2 Na10 2.492349 1_555
N2 Na1 2.492349 1_455
N2 Na13 2.492349 1_555
N2 Na19 2.492350 1_555
N2 Na7 2.492350 1_455
N3 Na4 2.492346 1_545
N3 Na16 2.492346 1_454
N3 Na20 2.492349 1_545
N3 Na8 2.492349 1_454
N3 Na0 2.492349 1_554
N3 Na12 2.492349 1_445
N4 Na6 2.308995 1_555
N4 Na5 2.308999 1_556
N4 Na10 2.432335 1_565
N4 Na8 2.432335 1_565
N4 Na13 2.782838 1_565
N4 Na12 2.782838 1_556
N5 Na7 2.308987 1_555
N5 Na4 2.308991 1_555
N5 Na9 2.432335 1_555
N5 Na11 2.432335 1_555
N5 Na15 2.782838 1_555
N5 Na14 2.782838 1_555
N6 Na9 2.308995 1_455
N6 Na10 2.308995 1_555
N6 Na2 2.432335 1_455
N6 Na0 2.432335 1_555
N6 Na17 2.782840 1_555
N6 Na16 2.782847 1_455
N7 Na8 2.308995 1_465
N7 Na11 2.308995 1_556
N7 Na1 2.432335 1_455
N7 Na3 2.432335 1_555
N7 Na18 2.782834 1_465
N7 Na19 2.782841 1_555
N8 Na2 2.308995 1_555
N8 Na1 2.308995 1_555
N8 Na4 2.432330 1_555
N8 Na6 2.432331 1_555
N8 Na20 2.782838 1_555
N8 Na21 2.782838 1_555
N9 Na0 2.308995 1_565
N9 Na3 2.308995 1_555
N9 Na5 2.432326 1_556
N9 Na7 2.432335 1_556
N9 Na23 2.782838 1_555
N9 Na22 2.782838 1_556
N10 Na18 2.308995 1_555
N10 Na17 2.308999 1_554
N10 Na22 2.432335 1_545
N10 Na20 2.432335 1_545
N10 Na1 2.782838 1_545
N10 Na0 2.782838 1_554
N11 Na19 2.308987 1_555
N11 Na16 2.308991 1_555
N11 Na21 2.432335 1_555
N11 Na23 2.432335 1_555
N11 Na3 2.782838 1_555
N11 Na2 2.782838 1_555
N12 Na21 2.308995 1_555
N12 Na22 2.308995 1_455
N12 Na14 2.432335 1_555
N12 Na12 2.432335 1_455
N12 Na5 2.782840 1_455
N12 Na4 2.782847 1_555
N13 Na20 2.308995 1_545
N13 Na23 2.308995 1_454
N13 Na13 2.432335 1_555
N13 Na15 2.432335 1_455
N13 Na6 2.782834 1_545
N13 Na7 2.782841 1_455
N14 Na14 2.308995 1_555
N14 Na13 2.308995 1_555
N14 Na16 2.432330 1_555
N14 Na18 2.432331 1_555
N14 Na8 2.782838 1_555
N14 Na9 2.782838 1_555
N15 Na12 2.308995 1_545
N15 Na15 2.308995 1_555
N15 Na17 2.432326 1_554
N15 Na19 2.432335 1_554
N15 Na11 2.782838 1_555
N15 Na10 2.782838 1_554
