# generated using pymatgen
data_Li9Mn2Co5O16
_symmetry_space_group_name_H-M   'P 1'
_cell_length_a   5.00516100
_cell_length_b   5.81295449
_cell_length_c   10.06987436
_cell_angle_alpha   104.86990690
_cell_angle_beta   99.26144075
_cell_angle_gamma   92.14009231
_symmetry_Int_Tables_number   1
_chemical_formula_structural   Li9Mn2Co5O16
_chemical_formula_sum   'Li9 Mn2 Co5 O16'
_cell_volume   278.52633444
_cell_formula_units_Z   1
loop_
 _symmetry_equiv_pos_site_id
 _symmetry_equiv_pos_as_xyz
  1  'x, y, z'
loop_
 _atom_site_type_symbol
 _atom_site_label
 _atom_site_symmetry_multiplicity
 _atom_site_fract_x
 _atom_site_fract_y
 _atom_site_fract_z
 _atom_site_occupancy
  Li  Li0  1  0.25074400  0.87007600  0.74951200  1
  Li  Li1  1  0.24084200  0.38470800  0.26118300  1
  Li  Li2  1  0.75915800  0.61529200  0.73881700  1
  Li  Li3  1  0.74925600  0.12992400  0.25048800  1
  Li  Li4  1  0.24808900  0.37699200  0.74799800  1
  Li  Li5  1  0.25394100  0.88418800  0.25693300  1
  Li  Li6  1  0.74605900  0.11581200  0.74306700  1
  Li  Li7  1  0.75191100  0.62300800  0.25200200  1
  Li  Li8  1  0.00000000  0.50000000  0.50000000  1
  Mn  Mn0  1  0.00000000  0.00000000  0.00000000  1
  Mn  Mn1  1  0.00000000  0.50000000  0.00000000  1
  Co  Co0  1  0.50013100  0.74974500  0.99973800  1
  Co  Co1  1  0.50567400  0.25561200  0.50080300  1
  Co  Co2  1  0.00000000  0.00000000  0.50000000  1
  Co  Co3  1  0.49986900  0.25025500  0.00026200  1
  Co  Co4  1  0.49432600  0.74438800  0.49919700  1
  O  O0  1  0.14083900  0.17173200  0.88067800  1
  O  O1  1  0.15411200  0.69915500  0.38736600  1
  O  O2  1  0.62389900  0.95368400  0.89134900  1
  O  O3  1  0.60156400  0.44679800  0.39057300  1
  O  O4  1  0.14033600  0.67081400  0.87973400  1
  O  O5  1  0.14236200  0.18366200  0.39003400  1
  O  O6  1  0.62371500  0.45281300  0.89150000  1
  O  O7  1  0.61696400  0.95372700  0.39148300  1
  O  O8  1  0.39843600  0.55320200  0.60942700  1
  O  O9  1  0.37610100  0.04631600  0.10865100  1
  O  O10  1  0.84588800  0.30084500  0.61263400  1
  O  O11  1  0.85916100  0.82826800  0.11932200  1
  O  O12  1  0.38303600  0.04627300  0.60851700  1
  O  O13  1  0.37628500  0.54718700  0.10850000  1
  O  O14  1  0.85763800  0.81633800  0.60996600  1
  O  O15  1  0.85966400  0.32918600  0.12026600  1
loop_
_geom_bond_atom_site_label_1
_geom_bond_atom_site_label_2
_geom_bond_distance
_geom_bond_site_symmetry_2
Li0 O0 2.058924 1_565
Li0 O4 2.081254 1_555
Li0 O2 2.117022 1_555
Li0 O12 2.121704 1_565
Li0 O14 2.186857 1_455
Li0 O8 2.243424 1_555
Li1 O3 2.010080 1_555
Li1 O1 2.046661 1_555
Li1 O5 2.057524 1_555
Li1 O15 2.145979 1_455
Li1 O13 2.179106 1_555
Li1 O9 2.360151 1_555
Li2 O8 2.010080 1_555
Li2 O10 2.046661 1_555
Li2 O14 2.057524 1_555
Li2 O4 2.145979 1_655
Li2 O6 2.179106 1_555
Li2 O2 2.360151 1_555
Li3 O11 2.058924 1_545
Li3 O15 2.081254 1_555
Li3 O9 2.117022 1_555
Li3 O7 2.121704 1_545
Li3 O5 2.186857 1_655
Li3 O3 2.243424 1_555
Li4 O4 2.025835 1_555
Li4 O0 2.120875 1_555
Li4 O6 2.133969 1_555
Li4 O8 2.139298 1_555
Li4 O10 2.201588 1_455
Li4 O12 2.267439 1_555
Li5 O1 2.006956 1_555
Li5 O7 2.042605 1_555
Li5 O5 2.062719 1_565
Li5 O9 2.112991 1_565
Li5 O11 2.183970 1_455
Li5 O13 2.308255 1_555
Li6 O10 2.006956 1_555
Li6 O12 2.042605 1_555
Li6 O14 2.062719 1_545
Li6 O2 2.112991 1_545
Li6 O0 2.183970 1_655
Li6 O6 2.308255 1_555
Li7 O15 2.025835 1_555
Li7 O11 2.120875 1_555
Li7 O13 2.133969 1_555
Li7 O3 2.139298 1_555
Li7 O1 2.201588 1_655
Li7 O7 2.267439 1_555
Li8 O1 2.027432 1_555
Li8 O10 2.027432 1_455
Li8 O8 2.087714 1_555
Li8 O3 2.087714 1_455
Li8 O5 2.102869 1_555
Li8 O14 2.102869 1_455
Mn0 O11 1.942398 1_445
Mn0 O0 1.942398 1_554
Mn0 O9 1.990269 1_555
Mn0 O2 1.990269 1_444
Mn0 O15 2.192366 1_455
Mn0 O4 2.192366 1_544
Mn1 O15 1.945474 1_455
Mn1 O4 1.945474 1_554
Mn1 O6 1.990302 1_454
Mn1 O13 1.990302 1_555
Mn1 O11 2.185913 1_455
Mn1 O0 2.185913 1_554
Co0 O13 1.948344 1_556
Co0 O2 1.951235 1_555
Co0 O11 1.961569 1_556
Co0 O4 1.966484 1_555
Co0 O6 1.970030 1_555
Co0 O9 1.972029 1_566
Co1 O10 1.853176 1_555
Co1 O3 1.860740 1_555
Co1 O8 1.940151 1_555
Co1 O5 1.943372 1_555
Co1 O12 1.967240 1_555
Co1 O7 1.969894 1_545
Co2 O14 1.917726 1_445
Co2 O5 1.917726 1_555
Co2 O12 2.019467 1_555
Co2 O7 2.019467 1_445
Co2 O10 2.074617 1_455
Co2 O1 2.074617 1_545
Co3 O6 1.948344 1_554
Co3 O9 1.951235 1_555
Co3 O0 1.961569 1_554
Co3 O15 1.966484 1_555
Co3 O13 1.970030 1_555
Co3 O2 1.972029 1_544
Co4 O1 1.853176 1_555
Co4 O8 1.860740 1_555
Co4 O3 1.940151 1_555
Co4 O14 1.943372 1_555
Co4 O7 1.967240 1_555
Co4 O12 1.969894 1_565
