# generated using pymatgen
data_NpTe
_symmetry_space_group_name_H-M   'P 1'
_cell_length_a   7.55725400
_cell_length_b   7.55725400
_cell_length_c   7.55725400
_cell_angle_alpha   90.00000000
_cell_angle_beta   90.00000000
_cell_angle_gamma   90.00000000
_symmetry_Int_Tables_number   1
_chemical_formula_structural   NpTe
_chemical_formula_sum   'Np8 Te8'
_cell_volume   431.61055564
_cell_formula_units_Z   8
loop_
 _symmetry_equiv_pos_site_id
 _symmetry_equiv_pos_as_xyz
  1  'x, y, z'
loop_
 _atom_site_type_symbol
 _atom_site_label
 _atom_site_symmetry_multiplicity
 _atom_site_fract_x
 _atom_site_fract_y
 _atom_site_fract_z
 _atom_site_occupancy
  Np  Np0_0  1  0.00000000  0.00000000  0.00000000  1
  Np  Np0_1  1  0.00000000  0.00000000  0.50000000  1
  Np  Np0_2  1  0.00000000  0.50000000  0.00000000  1
  Np  Np0_3  1  0.00000000  0.50000000  0.50000000  1
  Np  Np0_4  1  0.50000000  0.00000000  0.00000000  1
  Np  Np0_5  1  0.50000000  0.00000000  0.50000000  1
  Np  Np0_6  1  0.50000000  0.50000000  0.00000000  1
  Np  Np0_7  1  0.50000000  0.50000000  0.50000000  1
  Te  Te0_0  1  0.25000000  0.25000000  0.25000000  1
  Te  Te0_1  1  0.25000000  0.25000000  0.75000000  1
  Te  Te0_2  1  0.25000000  0.75000000  0.25000000  1
  Te  Te0_3  1  0.25000000  0.75000000  0.75000000  1
  Te  Te0_4  1  0.75000000  0.25000000  0.25000000  1
  Te  Te0_5  1  0.75000000  0.25000000  0.75000000  1
  Te  Te0_6  1  0.75000000  0.75000000  0.25000000  1
  Te  Te0_7  1  0.75000000  0.75000000  0.75000000  1
loop_
_geom_bond_atom_site_label_1
_geom_bond_atom_site_label_2
_geom_bond_distance
_geom_bond_site_symmetry_2
Np0_0 Te0_7 3.272387 1_444
Np0_0 Te0_3 3.272387 1_544
Np0_0 Te0_1 3.272387 1_554
Np0_0 Te0_0 3.272387 1_555
Np0_0 Te0_5 3.272387 1_454
Np0_0 Te0_6 3.272387 1_445
Np0_0 Te0_4 3.272387 1_455
Np0_0 Te0_2 3.272387 1_545
Np0_0 Np0_1 3.778627 1_554
Np0_0 Np0_4 3.778627 1_555
Np0_0 Np0_1 3.778627 1_555
Np0_0 Np0_4 3.778627 1_455
Np0_0 Np0_2 3.778627 1_545
Np0_0 Np0_2 3.778627 1_555
Np0_1 Te0_3 3.272387 1_545
Np0_1 Te0_0 3.272387 1_555
Np0_1 Te0_7 3.272387 1_445
Np0_1 Te0_1 3.272387 1_555
Np0_1 Te0_5 3.272387 1_455
Np0_1 Te0_6 3.272387 1_445
Np0_1 Te0_4 3.272387 1_455
Np0_1 Te0_2 3.272387 1_545
Np0_1 Np0_5 3.778627 1_455
Np0_1 Np0_5 3.778627 1_555
Np0_1 Np0_3 3.778627 1_555
Np0_1 Np0_3 3.778627 1_545
Np0_2 Te0_1 3.272387 1_554
Np0_2 Te0_0 3.272387 1_555
Np0_2 Te0_7 3.272387 1_454
Np0_2 Te0_5 3.272387 1_454
Np0_2 Te0_2 3.272387 1_555
Np0_2 Te0_3 3.272387 1_554
Np0_2 Te0_4 3.272387 1_455
Np0_2 Te0_6 3.272387 1_455
Np0_2 Np0_6 3.778627 1_555
Np0_2 Np0_6 3.778627 1_455
Np0_2 Np0_3 3.778627 1_554
Np0_2 Np0_3 3.778627 1_555
Np0_3 Te0_3 3.272387 1_555
Np0_3 Te0_0 3.272387 1_555
Np0_3 Te0_6 3.272387 1_455
Np0_3 Te0_7 3.272387 1_455
Np0_3 Te0_1 3.272387 1_555
Np0_3 Te0_5 3.272387 1_455
Np0_3 Te0_2 3.272387 1_555
Np0_3 Te0_4 3.272387 1_455
Np0_3 Np0_7 3.778627 1_555
Np0_3 Np0_7 3.778627 1_455
Np0_4 Te0_1 3.272387 1_554
Np0_4 Te0_6 3.272387 1_545
Np0_4 Te0_3 3.272387 1_544
Np0_4 Te0_0 3.272387 1_555
Np0_4 Te0_7 3.272387 1_544
Np0_4 Te0_4 3.272387 1_555
Np0_4 Te0_5 3.272387 1_554
Np0_4 Te0_2 3.272387 1_545
Np0_4 Np0_6 3.778627 1_555
Np0_4 Np0_5 3.778627 1_554
Np0_4 Np0_5 3.778627 1_555
Np0_4 Np0_6 3.778627 1_545
Np0_5 Te0_6 3.272387 1_545
Np0_5 Te0_3 3.272387 1_545
Np0_5 Te0_0 3.272387 1_555
Np0_5 Te0_1 3.272387 1_555
Np0_5 Te0_4 3.272387 1_555
Np0_5 Te0_7 3.272387 1_545
Np0_5 Te0_5 3.272387 1_555
Np0_5 Te0_2 3.272387 1_545
Np0_5 Np0_7 3.778627 1_555
Np0_5 Np0_7 3.778627 1_545
Np0_6 Te0_6 3.272387 1_555
Np0_6 Te0_1 3.272387 1_554
Np0_6 Te0_0 3.272387 1_555
Np0_6 Te0_4 3.272387 1_555
Np0_6 Te0_5 3.272387 1_554
Np0_6 Te0_2 3.272387 1_555
Np0_6 Te0_3 3.272387 1_554
Np0_6 Te0_7 3.272387 1_554
Np0_6 Np0_7 3.778627 1_555
Np0_6 Np0_7 3.778627 1_554
Np0_7 Te0_6 3.272387 1_555
Np0_7 Te0_3 3.272387 1_555
Np0_7 Te0_0 3.272387 1_555
Np0_7 Te0_7 3.272387 1_555
Np0_7 Te0_1 3.272387 1_555
Np0_7 Te0_4 3.272387 1_555
Np0_7 Te0_2 3.272387 1_555
Np0_7 Te0_5 3.272387 1_555
Te0_0 Te0_1 3.778627 1_554
Te0_0 Te0_1 3.778627 1_555
Te0_0 Te0_4 3.778627 1_555
Te0_0 Te0_2 3.778627 1_555
Te0_0 Te0_4 3.778627 1_455
Te0_0 Te0_2 3.778627 1_545
Te0_1 Te0_3 3.778627 1_545
Te0_1 Te0_3 3.778627 1_555
Te0_1 Te0_5 3.778627 1_455
Te0_1 Te0_5 3.778627 1_555
Te0_2 Te0_6 3.778627 1_555
Te0_2 Te0_3 3.778627 1_555
Te0_2 Te0_3 3.778627 1_554
Te0_2 Te0_6 3.778627 1_455
Te0_3 Te0_7 3.778627 1_455
Te0_3 Te0_7 3.778627 1_555
Te0_4 Te0_6 3.778627 1_545
Te0_4 Te0_6 3.778627 1_555
Te0_4 Te0_5 3.778627 1_554
Te0_4 Te0_5 3.778627 1_555
Te0_5 Te0_7 3.778627 1_555
Te0_5 Te0_7 3.778627 1_545
Te0_6 Te0_7 3.778627 1_554
Te0_6 Te0_7 3.778627 1_555
