# generated using pymatgen
data_TbTaRu2
_symmetry_space_group_name_H-M   'P 1'
_cell_length_a   4.64011955
_cell_length_b   4.64011955
_cell_length_c   4.64011955
_cell_angle_alpha   60.00000000
_cell_angle_beta   60.00000000
_cell_angle_gamma   60.00000000
_symmetry_Int_Tables_number   1
_chemical_formula_structural   TbTaRu2
_chemical_formula_sum   'Tb1 Ta1 Ru2'
_cell_volume   70.64354954
_cell_formula_units_Z   1
loop_
 _symmetry_equiv_pos_site_id
 _symmetry_equiv_pos_as_xyz
  1  'x, y, z'
loop_
 _atom_site_type_symbol
 _atom_site_label
 _atom_site_symmetry_multiplicity
 _atom_site_fract_x
 _atom_site_fract_y
 _atom_site_fract_z
 _atom_site_occupancy
  Tb  Tb0  1  0.75000000  0.75000000  0.75000000  1
  Ta  Ta0  1  0.25000100  0.25000100  0.25000100  1
  Ru  Ru0  1  0.00000000  0.00000000  0.00000000  1
  Ru  Ru1  1  0.50000000  0.50000000  0.50000000  1
loop_
_geom_bond_atom_site_label_1
_geom_bond_atom_site_label_2
_geom_bond_distance
_geom_bond_site_symmetry_2
Ta0 Tb0 3.281053 1_545
Ta0 Tb0 3.281053 1_455
Ta0 Tb0 3.281053 1_554
Ta0 Tb0 3.281067 1_544
Ta0 Tb0 3.281067 1_454
Ta0 Tb0 3.281067 1_445
Ru0 Ta0 2.841478 1_554
Ru0 Ta0 2.841478 1_455
Ru0 Ta0 2.841478 1_545
Ru0 Tb0 2.841481 1_445
Ru0 Tb0 2.841481 1_444
Ru0 Tb0 2.841481 1_544
Ru0 Tb0 2.841481 1_454
Ru0 Ta0 2.841493 1_555
Ru0 Ru1 3.281060 1_545
Ru0 Ru1 3.281060 1_544
Ru0 Ru1 3.281060 1_554
Ru0 Ru1 3.281060 1_455
Ru0 Ru1 3.281060 1_454
Ru0 Ru1 3.281060 1_445
Ru1 Ta0 2.841470 1_555
Ru1 Tb0 2.841481 1_554
Ru1 Tb0 2.841481 1_455
Ru1 Tb0 2.841481 1_555
Ru1 Tb0 2.841481 1_545
Ru1 Ta0 2.841485 1_565
Ru1 Ta0 2.841485 1_655
Ru1 Ta0 2.841485 1_556
