# generated using pymatgen
data_Sr3Ca5Ti3Mn5O20
_symmetry_space_group_name_H-M   'P 1'
_cell_length_a   11.05294846
_cell_length_b   11.30016927
_cell_length_c   17.45693232
_cell_angle_alpha   108.83053603
_cell_angle_beta   108.44222253
_cell_angle_gamma   90.21113536
_symmetry_Int_Tables_number   1
_chemical_formula_structural   Sr3Ca5Ti3Mn5O20
_chemical_formula_sum   'Sr12 Ca20 Ti12 Mn20 O80'
_cell_volume   1944.05405746
_cell_formula_units_Z   4
loop_
 _symmetry_equiv_pos_site_id
 _symmetry_equiv_pos_as_xyz
  1  'x, y, z'
loop_
 _atom_site_type_symbol
 _atom_site_label
 _atom_site_symmetry_multiplicity
 _atom_site_fract_x
 _atom_site_fract_y
 _atom_site_fract_z
 _atom_site_occupancy
  Sr  Sr0  1  0.30540300  0.56083700  0.61341600  1
  Sr  Sr1  1  0.80933900  0.06147200  0.60929400  1
  Sr  Sr2  1  0.81266900  0.56322000  0.61287200  1
  Sr  Sr3  1  0.19111900  0.43379800  0.38484100  1
  Sr  Sr4  1  0.19523000  0.43908600  0.89099000  1
  Sr  Sr5  1  0.69625300  0.93277700  0.38365800  1
  Sr  Sr6  1  0.06117700  0.29895400  0.61083800  1
  Sr  Sr7  1  0.05804200  0.80191200  0.61365000  1
  Sr  Sr8  1  0.55799500  0.29913400  0.61297200  1
  Sr  Sr9  1  0.44272200  0.19850900  0.88617500  1
  Sr  Sr10  1  0.94667700  0.20130800  0.38583200  1
  Sr  Sr11  1  0.94931000  0.20381900  0.89084900  1
  Ca  Ca0  1  0.30202100  0.06938500  0.11211300  1
  Ca  Ca1  1  0.30141600  0.06587000  0.60748700  1
  Ca  Ca2  1  0.30136600  0.56487700  0.11467400  1
  Ca  Ca3  1  0.80278600  0.06723700  0.10774500  1
  Ca  Ca4  1  0.80563800  0.56793300  0.11241700  1
  Ca  Ca5  1  0.18833100  0.93347300  0.38687500  1
  Ca  Ca6  1  0.19619500  0.93508700  0.89372500  1
  Ca  Ca7  1  0.69999400  0.43354200  0.38816200  1
  Ca  Ca8  1  0.69601000  0.43835800  0.89124500  1
  Ca  Ca9  1  0.69161400  0.93295300  0.88846800  1
  Ca  Ca10  1  0.05676000  0.29285600  0.10993800  1
  Ca  Ca11  1  0.04978700  0.79716800  0.11277000  1
  Ca  Ca12  1  0.55059100  0.29189300  0.11042600  1
  Ca  Ca13  1  0.55791800  0.79368900  0.10999800  1
  Ca  Ca14  1  0.55749300  0.79607300  0.61047000  1
  Ca  Ca15  1  0.44456800  0.20566400  0.38773900  1
  Ca  Ca16  1  0.44496500  0.70454700  0.38738800  1
  Ca  Ca17  1  0.44416700  0.70667600  0.89107900  1
  Ca  Ca18  1  0.94076400  0.70300400  0.38722300  1
  Ca  Ca19  1  0.94454300  0.70656000  0.89410000  1
  Ti  Ti0  1  0.00285500  0.99954100  0.99918900  1
  Ti  Ti1  1  0.00439700  0.50031800  0.00403800  1
  Ti  Ti2  1  0.50392400  0.99937300  0.00211700  1
  Ti  Ti3  1  0.49958700  0.99802900  0.49770800  1
  Ti  Ti4  1  0.50401300  0.50259800  0.00265000  1
  Ti  Ti5  1  0.50287900  0.50025500  0.49674700  1
  Ti  Ti6  1  0.25599200  0.75307000  0.00792700  1
  Ti  Ti7  1  0.25377100  0.75123200  0.49882900  1
  Ti  Ti8  1  0.74977800  0.25235100  0.99958700  1
  Ti  Ti9  1  0.75191300  0.25082400  0.49706700  1
  Ti  Ti10  1  0.75442400  0.74950600  0.00030800  1
  Ti  Ti11  1  0.75339100  0.74705100  0.49632200  1
  Mn  Mn0  1  0.00470100  0.99593000  0.49643100  1
  Mn  Mn1  1  0.00143100  0.50040700  0.49684000  1
  Mn  Mn2  1  0.25774600  0.24963400  0.00316700  1
  Mn  Mn3  1  0.25393400  0.24693900  0.49839300  1
  Mn  Mn4  1  0.10961800  0.09207800  0.24682100  1
  Mn  Mn5  1  0.11436500  0.09288500  0.75526000  1
  Mn  Mn6  1  0.10878900  0.59696300  0.24872800  1
  Mn  Mn7  1  0.11376000  0.60467900  0.75710800  1
  Mn  Mn8  1  0.60263000  0.09704400  0.24667600  1
  Mn  Mn9  1  0.60644000  0.09395000  0.74836500  1
  Mn  Mn10  1  0.60703500  0.59000200  0.24731900  1
  Mn  Mn11  1  0.61257400  0.60357600  0.75309600  1
  Mn  Mn12  1  0.35886700  0.40395900  0.24837000  1
  Mn  Mn13  1  0.36875900  0.40733100  0.75330700  1
  Mn  Mn14  1  0.35702500  0.90496600  0.25058800  1
  Mn  Mn15  1  0.36753500  0.90271300  0.75049000  1
  Mn  Mn16  1  0.85125600  0.40309100  0.24424700  1
  Mn  Mn17  1  0.85969900  0.41014300  0.75382300  1
  Mn  Mn18  1  0.85897400  0.90381500  0.24465600  1
  Mn  Mn19  1  0.85674700  0.90028000  0.75104800  1
  O  O0  1  0.12673000  0.11432500  0.48950800  1
  O  O1  1  0.12486300  0.11302300  0.99078000  1
  O  O2  1  0.12264400  0.62566900  0.48831500  1
  O  O3  1  0.12626000  0.62663200  0.98963000  1
  O  O4  1  0.62242200  0.12193400  0.48506500  1
  O  O5  1  0.62907800  0.12032700  0.98808000  1
  O  O6  1  0.62304200  0.61595200  0.48291900  1
  O  O7  1  0.62730600  0.62135700  0.98549500  1
  O  O8  1  0.13587300  0.38918900  0.01976500  1
  O  O9  1  0.12605400  0.38190800  0.50428000  1
  O  O10  1  0.14285600  0.88063300  0.01742700  1
  O  O11  1  0.13779600  0.88142400  0.50943200  1
  O  O12  1  0.64138900  0.38107100  0.01751400  1
  O  O13  1  0.63483000  0.37793600  0.50798500  1
  O  O14  1  0.64290500  0.87960600  0.01710800  1
  O  O15  1  0.63312500  0.87026800  0.50767600  1
  O  O16  1  0.37493200  0.10643400  0.48317200  1
  O  O17  1  0.37692700  0.10683500  0.98619200  1
  O  O18  1  0.37689500  0.61980700  0.48503100  1
  O  O19  1  0.38048400  0.62098500  0.98902900  1
  O  O20  1  0.87700200  0.11600400  0.48998100  1
  O  O21  1  0.87541300  0.11567500  0.99109300  1
  O  O22  1  0.87291000  0.61653800  0.48688400  1
  O  O23  1  0.87458900  0.61671800  0.98584000  1
  O  O24  1  0.39230600  0.39116500  0.01719500  1
  O  O25  1  0.38514000  0.38130200  0.50626700  1
  O  O26  1  0.39146400  0.88245000  0.01520900  1
  O  O27  1  0.38864000  0.88184600  0.51379400  1
  O  O28  1  0.88840700  0.38776200  0.01792600  1
  O  O29  1  0.88106700  0.38029000  0.50583400  1
  O  O30  1  0.89352800  0.88510100  0.01790700  1
  O  O31  1  0.88493900  0.87570600  0.50681300  1
  O  O32  1  0.08401100  0.09271700  0.13133500  1
  O  O33  1  0.08410300  0.08303400  0.64041800  1
  O  O34  1  0.07865000  0.60285600  0.12781000  1
  O  O35  1  0.07496000  0.59170800  0.64172600  1
  O  O36  1  0.58342200  0.09592500  0.12513900  1
  O  O37  1  0.58049700  0.08488600  0.62442400  1
  O  O38  1  0.58870500  0.59713000  0.12702800  1
  O  O39  1  0.57487200  0.59133300  0.62492900  1
  O  O40  1  0.45056500  0.40518100  0.37053800  1
  O  O41  1  0.45854400  0.41132000  0.87695200  1
  O  O42  1  0.45016800  0.90185200  0.37155300  1
  O  O43  1  0.46331400  0.90635300  0.87532000  1
  O  O44  1  0.93309500  0.41223700  0.35756200  1
  O  O45  1  0.95240900  0.41388900  0.87688200  1
  O  O46  1  0.94841200  0.89768800  0.36289000  1
  O  O47  1  0.95406500  0.90556400  0.87622400  1
  O  O48  1  0.33416000  0.28091800  0.12704700  1
  O  O49  1  0.32413700  0.28843700  0.62811200  1
  O  O50  1  0.33419600  0.78028300  0.12811300  1
  O  O51  1  0.32904500  0.78697100  0.62530000  1
  O  O52  1  0.82869600  0.28698400  0.12864800  1
  O  O53  1  0.82345900  0.29669300  0.62725400  1
  O  O54  1  0.83462200  0.77736500  0.12528100  1
  O  O55  1  0.82271300  0.79031200  0.62577500  1
  O  O56  1  0.19186100  0.19786800  0.36500800  1
  O  O57  1  0.19331300  0.20882100  0.87320600  1
  O  O58  1  0.20454700  0.71556400  0.37253200  1
  O  O59  1  0.20498300  0.71582200  0.87430700  1
  O  O60  1  0.69616300  0.21305900  0.37135500  1
  O  O61  1  0.70013700  0.21927200  0.87572400  1
  O  O62  1  0.70329200  0.70557400  0.36985000  1
  O  O63  1  0.71158600  0.72427600  0.87659000  1
  O  O64  1  0.41430400  0.07921900  0.24854000  1
  O  O65  1  0.41701100  0.07421600  0.74210300  1
  O  O66  1  0.41967300  0.57828200  0.24875300  1
  O  O67  1  0.43021800  0.58326000  0.75916900  1
  O  O68  1  0.92567600  0.07212800  0.23918600  1
  O  O69  1  0.93458400  0.06973700  0.75145200  1
  O  O70  1  0.91974900  0.56843500  0.24822000  1
  O  O71  1  0.93650800  0.58590700  0.76154300  1
  O  O72  1  0.16806600  0.42113800  0.24050400  1
  O  O73  1  0.18456600  0.44331800  0.75287400  1
  O  O74  1  0.16831400  0.92329100  0.24838100  1
  O  O75  1  0.18629200  0.93476200  0.76177900  1
  O  O76  1  0.66968200  0.41311000  0.24601800  1
  O  O77  1  0.67601600  0.43230600  0.75863200  1
  O  O78  1  0.67161300  0.92551000  0.24024200  1
  O  O79  1  0.66953700  0.92141000  0.75197400  1
loop_
_geom_bond_atom_site_label_1
_geom_bond_atom_site_label_2
_geom_bond_distance
_geom_bond_site_symmetry_2
Ca0 O64 2.276544 1_555
Ca0 O48 2.332560 1_555
Ca0 O10 2.496621 1_545
Ca0 O32 2.539231 1_555
Ca0 O1 2.573132 1_554
Ca0 O26 2.658560 1_545
Ca0 O17 2.728743 1_554
Ca0 O36 3.052426 1_555
Ca1 O65 2.262767 1_555
Ca1 O49 2.423165 1_555
Ca1 O11 2.501070 1_545
Ca1 O0 2.547419 1_555
Ca1 O27 2.597261 1_545
Ca1 O33 2.634873 1_555
Ca1 O16 2.708335 1_555
Ca1 O37 3.004302 1_555
Ca2 O66 2.245997 1_555
Ca2 O50 2.383834 1_555
Ca2 O8 2.442294 1_555
Ca2 O34 2.568656 1_555
Ca2 O24 2.588385 1_555
Ca2 O3 2.705210 1_554
Ca2 O19 2.843383 1_554
Ca3 O68 2.249150 1_555
Ca3 O52 2.392707 1_555
Ca3 O14 2.481840 1_545
Ca3 O36 2.546395 1_555
Ca3 O30 2.574544 1_545
Ca3 O5 2.586500 1_554
Ca3 O21 2.615613 1_554
Ca3 O32 3.003565 1_655
Ca4 O70 2.304453 1_555
Ca4 O54 2.315114 1_555
Ca4 O38 2.502311 1_555
Ca4 O12 2.511928 1_555
Ca4 O28 2.550204 1_555
Ca4 O7 2.695910 1_554
Ca4 O23 2.759705 1_554
Ca4 O34 2.956943 1_655
Ca5 O74 2.321460 1_555
Ca5 O58 2.406639 1_555
Ca5 O0 2.503711 1_565
Ca5 O46 2.559539 1_455
Ca5 O16 2.560367 1_565
Ca5 O11 2.607919 1_555
Ca5 O27 2.809169 1_555
Ca5 O42 3.001759 1_555
Ca6 O75 2.269920 1_555
Ca6 O59 2.396646 1_555
Ca6 O1 2.488542 1_565
Ca6 O17 2.504329 1_565
Ca6 O47 2.603318 1_455
Ca6 O10 2.655200 1_556
Ca6 O26 2.727155 1_556
Ca7 O76 2.329482 1_555
Ca7 O60 2.411409 1_555
Ca7 O6 2.531899 1_555
Ca7 O22 2.546638 1_555
Ca7 O29 2.606349 1_555
Ca7 O13 2.662205 1_555
Ca7 O40 2.681640 1_555
Ca7 O44 2.788145 1_555
Ca8 O77 2.233117 1_555
Ca8 O61 2.404217 1_555
Ca8 O7 2.483087 1_555
Ca8 O23 2.538708 1_555
Ca8 O41 2.564212 1_555
Ca8 O12 2.720770 1_556
Ca8 O28 2.754890 1_556
Ca8 O45 2.929381 1_555
Ca9 O79 2.277146 1_555
Ca9 O63 2.317207 1_555
Ca9 O43 2.468593 1_555
Ca9 O5 2.525717 1_565
Ca9 O21 2.622676 1_565
Ca9 O14 2.707894 1_556
Ca9 O30 2.825943 1_556
Ca9 O47 2.985407 1_555
Ca10 O72 2.211295 1_555
Ca10 O32 2.413352 1_555
Ca10 O8 2.529354 1_555
Ca10 O28 2.535433 1_455
Ca10 O21 2.643582 1_454
Ca10 O52 2.645580 1_455
Ca10 O1 2.701174 1_554
Ca10 O48 2.992986 1_555
Ca11 O74 2.279875 1_555
Ca11 O34 2.305729 1_555
Ca11 O30 2.444993 1_455
Ca11 O54 2.471822 1_455
Ca11 O10 2.609112 1_555
Ca11 O23 2.675263 1_454
Ca11 O3 2.745272 1_554
Ca11 O50 3.081363 1_555
Ca12 O76 2.265857 1_555
Ca12 O36 2.327156 1_555
Ca12 O48 2.506470 1_555
Ca12 O24 2.521823 1_555
Ca12 O12 2.594419 1_555
Ca12 O17 2.677661 1_554
Ca12 O5 2.753996 1_554
Ca12 O52 2.991154 1_555
Ca13 O78 2.227049 1_555
Ca13 O38 2.346384 1_555
Ca13 O26 2.507567 1_555
Ca13 O14 2.535316 1_555
Ca13 O50 2.600106 1_555
Ca13 O19 2.608715 1_554
Ca13 O7 2.727219 1_554
Ca13 O54 2.996441 1_555
Ca14 O79 2.331246 1_555
Ca14 O39 2.408924 1_555
Ca14 O27 2.519383 1_555
Ca14 O15 2.556764 1_555
Ca14 O51 2.623397 1_555
Ca14 O18 2.671440 1_555
Ca14 O6 2.780578 1_555
Ca14 O55 2.861152 1_555
Ca15 O64 2.301992 1_555
Ca15 O40 2.371960 1_555
Ca15 O4 2.566040 1_555
Ca15 O16 2.576054 1_555
Ca15 O25 2.621154 1_555
Ca15 O13 2.675324 1_555
Ca15 O56 2.690969 1_555
Ca15 O60 2.887724 1_555
Ca16 O66 2.304546 1_555
Ca16 O42 2.336177 1_555
Ca16 O18 2.499654 1_555
Ca16 O6 2.583224 1_555
Ca16 O58 2.594495 1_555
Ca16 O15 2.628937 1_555
Ca16 O27 2.700995 1_555
Ca16 O62 2.966749 1_555
Ca17 O67 2.229806 1_555
Ca17 O43 2.376082 1_555
Ca17 O19 2.486404 1_555
Ca17 O59 2.572413 1_555
Ca17 O7 2.583199 1_555
Ca17 O26 2.647432 1_556
Ca17 O14 2.760357 1_556
Ca18 O70 2.348047 1_555
Ca18 O46 2.377398 1_555
Ca18 O22 2.541945 1_555
Ca18 O62 2.546530 1_555
Ca18 O2 2.585208 1_655
Ca18 O31 2.596443 1_555
Ca18 O11 2.758715 1_655
Ca18 O58 3.013313 1_655
Ca19 O71 2.248099 1_555
Ca19 O47 2.374344 1_555
Ca19 O23 2.453685 1_555
Ca19 O63 2.511724 1_555
Ca19 O3 2.549009 1_655
Ca19 O30 2.650314 1_556
Ca19 O10 2.749117 1_656
Ca19 O59 3.011193 1_655
Mn0 O0 1.953959 1_565
Mn0 O20 1.964209 1_465
Mn0 O11 1.970344 1_555
Mn0 O31 1.981977 1_455
Mn0 O46 2.112033 1_455
Mn0 O33 2.248976 1_565
Mn1 O9 1.928728 1_555
Mn1 O22 1.942943 1_455
Mn1 O29 1.973159 1_455
Mn1 O2 2.017140 1_555
Mn1 O44 2.177952 1_455
Mn1 O35 2.265142 1_555
Mn2 O48 1.965623 1_555
Mn2 O1 2.038120 1_554
Mn2 O57 2.041289 1_554
Mn2 O24 2.080632 1_555
Mn2 O8 2.086399 1_555
Mn2 O17 2.093068 1_554
Mn3 O0 1.985691 1_555
Mn3 O49 2.037161 1_555
Mn3 O25 2.037215 1_555
Mn3 O9 2.083547 1_555
Mn3 O16 2.085241 1_555
Mn3 O56 2.086385 1_555
Mn4 O56 1.930115 1_555
Mn4 O32 1.947546 1_555
Mn4 O68 2.001966 1_455
Mn4 O74 2.022618 1_545
Mn5 O33 1.890726 1_555
Mn5 O57 1.957213 1_555
Mn5 O75 1.980452 1_545
Mn5 O69 1.980610 1_455
Mn6 O34 2.053565 1_555
Mn6 O58 2.063928 1_555
Mn6 O72 2.069404 1_555
Mn6 O70 2.109803 1_455
Mn7 O35 1.877469 1_555
Mn7 O59 1.951049 1_555
Mn7 O73 1.975570 1_555
Mn7 O71 1.998198 1_455
Mn8 O36 2.060184 1_555
Mn8 O60 2.061328 1_555
Mn8 O78 2.067790 1_545
Mn8 O64 2.102025 1_555
Mn9 O37 2.058689 1_555
Mn9 O65 2.069172 1_555
Mn9 O79 2.086460 1_545
Mn9 O61 2.126258 1_555
Mn10 O62 2.039482 1_555
Mn10 O38 2.072992 1_555
Mn10 O66 2.083200 1_555
Mn10 O76 2.113401 1_555
Mn11 O67 2.067358 1_555
Mn11 O63 2.074535 1_555
Mn11 O77 2.081973 1_555
Mn11 O39 2.099670 1_555
Mn12 O40 2.046716 1_555
Mn12 O48 2.055160 1_555
Mn12 O66 2.076311 1_555
Mn12 O72 2.083521 1_555
Mn13 O41 2.056072 1_555
Mn13 O67 2.058862 1_555
Mn13 O49 2.059717 1_555
Mn13 O73 2.075709 1_555
Mn14 O42 2.047698 1_555
Mn14 O64 2.080861 1_565
Mn14 O50 2.081209 1_555
Mn14 O74 2.086257 1_555
Mn15 O51 2.056746 1_555
Mn15 O65 2.074222 1_565
Mn15 O43 2.086463 1_555
Mn15 O75 2.095743 1_555
Mn16 O44 1.864711 1_555
Mn16 O52 1.956009 1_555
Mn16 O70 1.985349 1_555
Mn16 O76 2.019952 1_555
Mn17 O45 2.053033 1_555
Mn17 O77 2.071147 1_555
Mn17 O53 2.072101 1_555
Mn17 O71 2.103840 1_555
Mn18 O46 2.010959 1_555
Mn18 O54 2.043767 1_555
Mn18 O78 2.066303 1_555
Mn18 O68 2.078842 1_565
Mn19 O55 2.046934 1_555
Mn19 O79 2.088365 1_555
Mn19 O47 2.088968 1_555
Mn19 O69 2.093402 1_565
O0 Sr10 2.662000 1_455
O0 Sr6 2.737408 1_555
O1 Ti0 1.928372 1_545
O1 Sr11 2.624776 1_455
O2 Ti7 1.948314 1_555
O2 Sr3 2.624024 1_555
O2 Sr7 2.729363 1_555
O2 Sr0 2.763901 1_555
O3 Ti6 1.897382 1_556
O3 Ti1 2.084908 1_556
O3 Sr4 2.554278 1_555
O4 Ti9 1.952342 1_555
O4 Ti3 2.056091 1_545
O4 Sr5 2.617795 1_545
O4 Sr1 2.751422 1_555
O4 Sr8 2.762719 1_555
O5 Ti8 1.915258 1_555
O5 Ti2 2.063615 1_546
O5 Sr9 2.626309 1_555
O6 Ti11 1.967836 1_555
O6 Ti5 1.981246 1_555
O6 Sr2 2.787111 1_555
O7 Ti10 1.910859 1_556
O7 Ti4 2.062013 1_556
O8 Ti1 1.935902 1_555
O8 Sr4 2.747832 1_554
O8 Sr11 2.773718 1_454
O9 Sr0 2.596497 1_555
O9 Sr6 2.611093 1_555
O9 Sr3 2.635003 1_555
O9 Sr10 2.650212 1_455
O10 Ti6 1.912921 1_555
O10 Ti0 2.069092 1_554
O11 Ti7 1.957058 1_555
O11 Sr7 2.637882 1_555
O12 Ti8 1.898716 1_554
O12 Ti4 2.062741 1_555
O12 Sr9 2.839429 1_554
O13 Ti9 1.940950 1_555
O13 Ti5 2.021134 1_555
O13 Sr2 2.611100 1_555
O13 Sr8 2.627906 1_555
O14 Ti10 1.931434 1_555
O14 Ti2 2.061434 1_555
O15 Ti11 1.935768 1_555
O15 Ti3 2.075700 1_555
O15 Sr1 2.630097 1_565
O15 Sr5 2.759028 1_555
O16 Ti3 1.858830 1_545
O16 Sr8 2.802087 1_555
O17 Ti2 1.872390 1_546
O17 Sr9 2.572141 1_555
O18 Ti5 1.953970 1_555
O18 Ti7 2.026570 1_555
O18 Sr3 2.648819 1_555
O18 Sr0 2.858706 1_555
O19 Ti4 1.929725 1_556
O19 Ti6 2.052926 1_556
O19 Sr4 2.612975 1_555
O20 Ti9 2.061549 1_555
O20 Sr10 2.615265 1_555
O20 Sr5 2.620272 1_545
O20 Sr1 2.662323 1_555
O20 Sr6 2.702811 1_655
O21 Ti0 1.932297 1_645
O21 Ti8 2.081804 1_555
O21 Sr11 2.597131 1_555
O22 Ti11 1.985594 1_555
O22 Sr2 2.724437 1_555
O22 Sr7 2.753768 1_655
O23 Ti1 1.971003 1_656
O23 Ti10 2.015367 1_556
O24 Ti4 1.888872 1_555
O24 Sr4 2.763057 1_554
O24 Sr9 2.807548 1_554
O25 Ti5 1.948374 1_555
O25 Sr8 2.619174 1_555
O25 Sr0 2.645355 1_555
O25 Sr3 2.718283 1_555
O26 Ti2 1.924990 1_555
O26 Ti6 2.034505 1_555
O27 Ti3 1.936575 1_555
O27 Ti7 1.989315 1_555
O28 Ti1 1.924529 1_655
O28 Ti8 2.036626 1_554
O28 Sr11 2.770079 1_554
O29 Ti9 1.975714 1_555
O29 Sr2 2.597680 1_555
O29 Sr6 2.638215 1_655
O29 Sr10 2.691068 1_555
O30 Ti0 1.936594 1_654
O30 Ti10 2.045970 1_555
O31 Ti11 1.976184 1_555
O31 Sr7 2.567584 1_655
O31 Sr1 2.615301 1_565
O31 Sr5 2.730496 1_555
O32 Ti0 2.085836 1_544
O33 Sr6 2.649382 1_555
O33 Sr1 2.905641 1_455
O33 Sr7 3.056590 1_545
O34 Ti1 1.984832 1_555
O35 Sr7 2.571820 1_555
O35 Sr0 2.746853 1_555
O35 Sr2 2.779676 1_455
O36 Ti2 1.964951 1_545
O37 Ti3 1.999177 1_545
O37 Sr8 2.499736 1_555
O37 Sr1 2.630594 1_555
O38 Ti4 1.985234 1_555
O39 Ti5 2.019975 1_555
O39 Sr2 2.714128 1_555
O39 Sr0 2.932433 1_555
O40 Ti5 2.001035 1_555
O40 Sr3 2.966146 1_555
O41 Ti4 1.992190 1_556
O41 Sr9 2.470674 1_555
O41 Sr4 3.006202 1_555
O42 Ti3 2.004747 1_555
O42 Sr5 2.673322 1_555
O43 Ti2 2.017879 1_556
O44 Sr10 2.581167 1_555
O44 Sr3 2.735019 1_655
O45 Ti1 2.000179 1_656
O45 Sr11 2.464547 1_555
O45 Sr4 2.622188 1_655
O46 Sr5 2.934492 1_555
O47 Ti0 1.954029 1_655
O49 Sr8 2.686320 1_555
O49 Sr6 2.832641 1_555
O49 Sr0 3.172486 1_555
O50 Ti6 1.917755 1_555
O51 Ti7 1.997357 1_555
O51 Sr0 2.501941 1_555
O51 Sr7 2.946633 1_555
O52 Ti8 2.043272 1_554
O53 Ti9 2.039236 1_555
O53 Sr1 2.572126 1_555
O53 Sr6 2.732597 1_655
O53 Sr8 2.866079 1_555
O53 Sr2 3.101618 1_555
O54 Ti10 1.993856 1_555
O55 Ti11 2.030159 1_555
O55 Sr2 2.501454 1_555
O55 Sr7 2.681666 1_655
O56 Sr3 2.575626 1_555
O56 Sr10 2.844776 1_455
O57 Sr4 2.518207 1_555
O57 Sr9 2.699774 1_555
O57 Sr11 2.811986 1_455
O58 Ti7 1.996299 1_555
O59 Ti6 2.113863 1_556
O60 Ti9 1.978829 1_555
O60 Sr10 2.707405 1_555
O61 Ti8 1.960174 1_555
O61 Sr11 2.694156 1_555
O61 Sr9 2.921404 1_555
O62 Ti11 1.989302 1_555
O62 Sr5 2.503937 1_555
O63 Ti10 1.981023 1_556
O65 Sr9 2.375598 1_555
O67 Sr0 2.408683 1_555
O68 Sr10 2.438748 1_555
O69 Sr11 2.368813 1_555
O69 Sr1 2.399894 1_555
O71 Sr2 2.448541 1_555
O72 Sr3 2.407284 1_555
O73 Sr4 2.392522 1_555
O73 Sr6 2.429435 1_555
O75 Sr7 2.471639 1_555
O77 Sr8 2.418408 1_555
O78 Sr5 2.405133 1_555
