# generated using pymatgen
data_BaSr7Ti6Mn2O24
_symmetry_space_group_name_H-M   'P 1'
_cell_length_a   7.86846871
_cell_length_b   7.86846871
_cell_length_c   7.92468100
_cell_angle_alpha   90.00000000
_cell_angle_beta   90.00000000
_cell_angle_gamma   90.01994697
_symmetry_Int_Tables_number   1
_chemical_formula_structural   BaSr7Ti6Mn2O24
_chemical_formula_sum   'Ba1 Sr7 Ti6 Mn2 O24'
_cell_volume   490.63915915
_cell_formula_units_Z   1
loop_
 _symmetry_equiv_pos_site_id
 _symmetry_equiv_pos_as_xyz
  1  'x, y, z'
loop_
 _atom_site_type_symbol
 _atom_site_label
 _atom_site_symmetry_multiplicity
 _atom_site_fract_x
 _atom_site_fract_y
 _atom_site_fract_z
 _atom_site_occupancy
  Ba  Ba0  1  0.24778400  0.24778400  0.50000000  1
  Sr  Sr0  1  0.75258000  0.24717200  0.50000000  1
  Sr  Sr1  1  0.75287000  0.24716600  0.00000000  1
  Sr  Sr2  1  0.24710100  0.24710100  0.00000000  1
  Sr  Sr3  1  0.75279600  0.75279600  0.50000000  1
  Sr  Sr4  1  0.75296900  0.75296900  0.00000000  1
  Sr  Sr5  1  0.24717200  0.75258000  0.50000000  1
  Sr  Sr6  1  0.24716600  0.75287000  0.00000000  1
  Ti  Ti0  1  0.50176700  0.99885200  0.75110200  1
  Ti  Ti1  1  0.50176700  0.99885200  0.24889800  1
  Ti  Ti2  1  0.99885200  0.50176700  0.75110200  1
  Ti  Ti3  1  0.99885200  0.50176700  0.24889800  1
  Ti  Ti4  1  0.50110300  0.50110300  0.75114800  1
  Ti  Ti5  1  0.50110300  0.50110300  0.24885200  1
  Mn  Mn0  1  0.99934800  0.99934800  0.75108700  1
  Mn  Mn1  1  0.99934800  0.99934800  0.24891300  1
  O  O0  1  0.99653600  0.24787300  0.75346600  1
  O  O1  1  0.99653600  0.24787300  0.24653400  1
  O  O2  1  0.50294400  0.24903500  0.75304200  1
  O  O3  1  0.50294400  0.24903500  0.24695800  1
  O  O4  1  0.99914200  0.75204500  0.75088400  1
  O  O5  1  0.99914200  0.75204500  0.24911600  1
  O  O6  1  0.50097800  0.75090600  0.75107300  1
  O  O7  1  0.50097800  0.75090600  0.24892700  1
  O  O8  1  0.75204500  0.99914200  0.75088400  1
  O  O9  1  0.75204500  0.99914200  0.24911600  1
  O  O10  1  0.24787300  0.99653600  0.75346600  1
  O  O11  1  0.24787300  0.99653600  0.24653400  1
  O  O12  1  0.75090600  0.50097800  0.75107300  1
  O  O13  1  0.75090600  0.50097800  0.24892700  1
  O  O14  1  0.24903500  0.50294400  0.75304200  1
  O  O15  1  0.24903500  0.50294400  0.24695800  1
  O  O16  1  0.99534000  0.99534000  0.50000000  1
  O  O17  1  0.99922000  0.99922000  0.00000000  1
  O  O18  1  0.50309400  0.99676300  0.50000000  1
  O  O19  1  0.50104500  0.99892900  0.00000000  1
  O  O20  1  0.99676300  0.50309400  0.50000000  1
  O  O21  1  0.99892900  0.50104500  0.00000000  1
  O  O22  1  0.50310300  0.50310300  0.50000000  1
  O  O23  1  0.50100700  0.50100700  0.00000000  1
loop_
_geom_bond_atom_site_label_1
_geom_bond_atom_site_label_2
_geom_bond_distance
_geom_bond_site_symmetry_2
Ba0 O16 2.808631 1_445
Ba0 O20 2.817740 1_455
Ba0 O18 2.817740 1_545
Ba0 O10 2.818316 1_545
Ba0 O0 2.818316 1_455
Ba0 O1 2.818316 1_455
Ba0 O11 2.818316 1_545
Ba0 O14 2.837632 1_555
Ba0 O2 2.837632 1_555
Ba0 O15 2.837632 1_555
Ba0 O3 2.837632 1_555
Ba0 O22 2.840617 1_555
Mn0 O8 1.945897 1_555
Mn0 O4 1.945897 1_555
Mn0 O0 1.955735 1_565
Mn0 O10 1.955735 1_655
Mn0 O17 1.972557 1_556
Mn0 O16 1.990284 1_555
Mn1 O9 1.945897 1_555
Mn1 O5 1.945897 1_555
Mn1 O1 1.955735 1_565
Mn1 O11 1.955735 1_655
Mn1 O17 1.972557 1_555
Mn1 O16 1.990284 1_555
O0 Ti2 1.997922 1_555
O0 Sr1 2.737323 1_556
O0 Sr2 2.775619 1_656
O0 Sr0 2.778373 1_555
O1 Ti3 1.997922 1_555
O1 Sr1 2.737323 1_555
O1 Sr2 2.775619 1_655
O1 Sr0 2.778373 1_555
O2 Ti0 1.968636 1_545
O2 Ti4 1.983504 1_555
O2 Sr1 2.774454 1_556
O2 Sr0 2.807073 1_555
O2 Sr2 2.807641 1_556
O3 Ti1 1.968636 1_545
O3 Ti5 1.983504 1_555
O3 Sr1 2.774454 1_555
O3 Sr0 2.807073 1_555
O3 Sr2 2.807641 1_555
O4 Ti2 1.969306 1_555
O4 Sr4 2.765751 1_556
O4 Sr6 2.775965 1_656
O4 Sr3 2.776715 1_555
O4 Sr5 2.785976 1_655
O5 Ti3 1.969306 1_555
O5 Sr4 2.765751 1_555
O5 Sr6 2.775965 1_655
O5 Sr3 2.776715 1_555
O5 Sr5 2.785976 1_655
O6 Ti0 1.950963 1_555
O6 Ti4 1.965568 1_555
O6 Sr4 2.796978 1_556
O6 Sr6 2.807157 1_556
O6 Sr3 2.808030 1_555
O6 Sr5 2.819088 1_555
O7 Ti1 1.950963 1_555
O7 Ti5 1.965568 1_555
O7 Sr4 2.796978 1_555
O7 Sr6 2.807157 1_555
O7 Sr3 2.808030 1_555
O7 Sr5 2.819088 1_555
O8 Ti0 1.969306 1_555
O8 Sr4 2.765751 1_556
O8 Sr1 2.775965 1_566
O8 Sr3 2.776715 1_555
O8 Sr0 2.785976 1_565
O9 Ti1 1.969306 1_555
O9 Sr4 2.765751 1_555
O9 Sr1 2.775965 1_565
O9 Sr3 2.776715 1_555
O9 Sr0 2.785976 1_565
O10 Ti0 1.997922 1_555
O10 Sr6 2.737323 1_556
O10 Sr2 2.775619 1_566
O10 Sr5 2.778373 1_555
O11 Ti1 1.997922 1_555
O11 Sr6 2.737323 1_555
O11 Sr2 2.775619 1_565
O11 Sr5 2.778373 1_555
O12 Ti2 1.950963 1_555
O12 Ti4 1.965568 1_555
O12 Sr4 2.796978 1_556
O12 Sr1 2.807157 1_556
O12 Sr3 2.808030 1_555
O12 Sr0 2.819088 1_555
O13 Ti3 1.950963 1_555
O13 Ti5 1.965568 1_555
O13 Sr4 2.796978 1_555
O13 Sr1 2.807157 1_555
O13 Sr3 2.808030 1_555
O13 Sr0 2.819088 1_555
O14 Ti2 1.968636 1_455
O14 Ti4 1.983504 1_555
O14 Sr6 2.774454 1_556
O14 Sr5 2.807073 1_555
O14 Sr2 2.807641 1_556
O15 Ti3 1.968636 1_455
O15 Ti5 1.983504 1_555
O15 Sr6 2.774454 1_555
O15 Sr5 2.807073 1_555
O15 Sr2 2.807641 1_555
O16 Sr3 2.698486 1_555
O16 Sr0 2.752776 1_565
O16 Sr5 2.752776 1_655
O17 Sr4 2.739729 1_555
O17 Sr1 2.750681 1_565
O17 Sr6 2.750681 1_655
O17 Sr2 2.757864 1_665
O18 Ti0 1.989999 1_555
O18 Ti1 1.989999 1_555
O18 Sr3 2.747362 1_555
O18 Sr0 2.780860 1_565
O18 Sr5 2.782790 1_555
O19 Ti1 1.972446 1_555
O19 Ti0 1.972446 1_554
O19 Sr4 2.770831 1_555
O19 Sr6 2.781435 1_555
O19 Sr1 2.781856 1_565
O19 Sr2 2.794368 1_565
O20 Ti2 1.989999 1_555
O20 Ti3 1.989999 1_555
O20 Sr3 2.747362 1_555
O20 Sr5 2.780860 1_655
O20 Sr0 2.782790 1_555
O21 Ti3 1.972446 1_555
O21 Ti2 1.972446 1_554
O21 Sr4 2.770831 1_555
O21 Sr1 2.781435 1_555
O21 Sr6 2.781856 1_655
O21 Sr2 2.794368 1_655
O22 Ti4 1.990392 1_555
O22 Ti5 1.990392 1_555
O22 Sr3 2.778024 1_555
O22 Sr5 2.812732 1_555
O22 Sr0 2.812732 1_555
O23 Ti5 1.972073 1_555
O23 Ti4 1.972073 1_554
O23 Sr4 2.803268 1_555
O23 Sr1 2.814171 1_555
O23 Sr6 2.814171 1_555
O23 Sr2 2.824897 1_555
