# generated using pymatgen
data_Ba2CeBiO6
_symmetry_space_group_name_H-M   'P 1'
_cell_length_a   8.88143270
_cell_length_b   8.88143270
_cell_length_c   8.88143270
_cell_angle_alpha   90.00000000
_cell_angle_beta   90.00000000
_cell_angle_gamma   90.00000000
_symmetry_Int_Tables_number   1
_chemical_formula_structural   Ba2CeBiO6
_chemical_formula_sum   'Ba8 Ce4 Bi4 O24'
_cell_volume   700.56605078
_cell_formula_units_Z   4
loop_
 _symmetry_equiv_pos_site_id
 _symmetry_equiv_pos_as_xyz
  1  'x, y, z'
loop_
 _atom_site_type_symbol
 _atom_site_label
 _atom_site_symmetry_multiplicity
 _atom_site_fract_x
 _atom_site_fract_y
 _atom_site_fract_z
 _atom_site_occupancy
  Ba  Ba0  1  0.50000000  0.50000000  0.50000000  1
  Ba  Ba1  1  -0.00000000  0.00000000  -0.00000000  1
  Ba  Ba2  1  0.00000000  0.00000000  0.50000000  1
  Ba  Ba3  1  0.00000000  0.50000000  -0.00000000  1
  Ba  Ba4  1  0.50000000  0.00000000  -0.00000000  1
  Ba  Ba5  1  0.50000000  0.50000000  -0.00000000  1
  Ba  Ba6  1  0.50000000  0.00000000  0.50000000  1
  Ba  Ba7  1  -0.00000000  0.50000000  0.50000000  1
  Ce  Ce0  1  0.25000000  0.25000000  0.25000000  1
  Ce  Ce1  1  0.25000000  0.75000000  0.75000000  1
  Ce  Ce2  1  0.75000000  0.25000000  0.75000000  1
  Ce  Ce3  1  0.75000000  0.75000000  0.25000000  1
  Bi  Bi0  1  0.75000000  0.75000000  0.75000000  1
  Bi  Bi1  1  0.75000000  0.25000000  0.25000000  1
  Bi  Bi2  1  0.25000000  0.75000000  0.25000000  1
  Bi  Bi3  1  0.25000000  0.25000000  0.75000000  1
  O  O0  1  0.22533284  0.27828106  0.49852420  1
  O  O1  1  0.22533284  0.72171894  0.50147580  1
  O  O2  1  0.77466716  0.27828106  0.50147580  1
  O  O3  1  0.77466716  0.72171894  0.49852420  1
  O  O4  1  0.27828106  0.49852420  0.22533284  1
  O  O5  1  0.72171894  0.50147580  0.22533284  1
  O  O6  1  0.27828106  0.50147580  0.77466716  1
  O  O7  1  0.72171894  0.49852420  0.77466716  1
  O  O8  1  0.49852420  0.22533284  0.27828106  1
  O  O9  1  0.50147580  0.22533284  0.72171894  1
  O  O10  1  0.50147580  0.77466716  0.27828106  1
  O  O11  1  0.49852420  0.77466716  0.72171894  1
  O  O12  1  0.27466716  0.22171894  0.00147580  1
  O  O13  1  0.27466716  0.77828106  0.99852420  1
  O  O14  1  0.72533284  0.22171894  0.99852420  1
  O  O15  1  0.72533284  0.77828106  0.00147580  1
  O  O16  1  0.22171894  0.00147580  0.27466716  1
  O  O17  1  0.77828106  0.99852420  0.27466716  1
  O  O18  1  0.22171894  0.99852420  0.72533284  1
  O  O19  1  0.77828106  0.00147580  0.72533284  1
  O  O20  1  0.00147580  0.27466716  0.22171894  1
  O  O21  1  0.99852420  0.27466716  0.77828106  1
  O  O22  1  0.99852420  0.72533284  0.22171894  1
  O  O23  1  0.00147580  0.72533284  0.77828106  1
loop_
_geom_bond_atom_site_label_1
_geom_bond_atom_site_label_2
_geom_bond_distance
_geom_bond_site_symmetry_2
Ba0 O6 3.135077 1_555
Ba0 O11 3.135077 1_555
Ba0 O10 3.135077 1_555
Ba0 O0 3.135077 1_555
Ba0 O9 3.135077 1_555
Ba0 O2 3.135077 1_555
Ba0 O4 3.135077 1_555
Ba0 O8 3.135077 1_555
Ba0 O1 3.135077 1_555
Ba0 O5 3.135077 1_555
Ba0 O7 3.135077 1_555
Ba0 O3 3.135077 1_555
Ba1 O23 3.135077 1_544
Ba1 O21 3.135077 1_454
Ba1 O12 3.135077 1_555
Ba1 O16 3.135077 1_555
Ba1 O20 3.135077 1_555
Ba1 O18 3.135077 1_544
Ba1 O22 3.135077 1_445
Ba1 O14 3.135077 1_454
Ba1 O13 3.135077 1_544
Ba1 O17 3.135077 1_445
Ba1 O15 3.135077 1_445
Ba1 O19 3.135077 1_454
Ba2 O16 2.807662 1_555
Ba2 O18 2.807662 1_545
Ba2 O17 2.807662 1_445
Ba2 O19 2.807662 1_455
Ba2 O1 3.180215 1_545
Ba2 O3 3.180215 1_445
Ba2 O2 3.180215 1_455
Ba2 O0 3.180215 1_555
Ba2 O21 3.472681 1_455
Ba2 O23 3.472681 1_545
Ba2 O22 3.472681 1_445
Ba2 O20 3.472681 1_555
Ba3 O21 2.807662 1_454
Ba3 O20 2.807662 1_555
Ba3 O23 2.807662 1_554
Ba3 O22 2.807662 1_455
Ba3 O7 3.180215 1_454
Ba3 O6 3.180215 1_554
Ba3 O5 3.180215 1_455
Ba3 O4 3.180215 1_555
Ba3 O15 3.472681 1_455
Ba3 O14 3.472681 1_454
Ba3 O13 3.472681 1_554
Ba3 O12 3.472681 1_555
Ba4 O12 2.807662 1_555
Ba4 O13 2.807662 1_544
Ba4 O14 2.807662 1_554
Ba4 O15 2.807662 1_545
Ba4 O11 3.180215 1_544
Ba4 O9 3.180215 1_554
Ba4 O10 3.180215 1_545
Ba4 O8 3.180215 1_555
Ba4 O17 3.472681 1_545
Ba4 O18 3.472681 1_544
Ba4 O16 3.472681 1_555
Ba4 O19 3.472681 1_554
Ba5 O6 2.807662 1_554
Ba5 O7 2.807662 1_554
Ba5 O4 2.807662 1_555
Ba5 O5 2.807662 1_555
Ba5 O13 3.180215 1_554
Ba5 O12 3.180215 1_555
Ba5 O14 3.180215 1_554
Ba5 O15 3.180215 1_555
Ba5 O9 3.472681 1_554
Ba5 O11 3.472681 1_554
Ba5 O8 3.472681 1_555
Ba5 O10 3.472681 1_555
Ba6 O10 2.807662 1_545
Ba6 O11 2.807662 1_545
Ba6 O8 2.807662 1_555
Ba6 O9 2.807662 1_555
Ba6 O19 3.180215 1_555
Ba6 O16 3.180215 1_555
Ba6 O17 3.180215 1_545
Ba6 O18 3.180215 1_545
Ba6 O1 3.472681 1_545
Ba6 O3 3.472681 1_545
Ba6 O0 3.472681 1_555
Ba6 O2 3.472681 1_555
Ba7 O2 2.807662 1_455
Ba7 O3 2.807662 1_455
Ba7 O0 2.807662 1_555
Ba7 O1 2.807662 1_555
Ba7 O20 3.180215 1_555
Ba7 O23 3.180215 1_555
Ba7 O21 3.180215 1_455
Ba7 O22 3.180215 1_455
Ba7 O5 3.472681 1_455
Ba7 O7 3.472681 1_455
Ba7 O4 3.472681 1_555
Ba7 O6 3.472681 1_555
Ce0 O8 2.232273 1_555
Ce0 O0 2.232273 1_555
Ce0 O12 2.232273 1_555
Ce0 O16 2.232273 1_555
Ce0 O20 2.232273 1_555
Ce0 O4 2.232273 1_555
Ce1 O11 2.232273 1_555
Ce1 O1 2.232273 1_555
Ce1 O13 2.232273 1_555
Ce1 O23 2.232273 1_555
Ce1 O18 2.232273 1_555
Ce1 O6 2.232273 1_555
Ce2 O21 2.232273 1_555
Ce2 O9 2.232273 1_555
Ce2 O7 2.232273 1_555
Ce2 O19 2.232273 1_555
Ce2 O2 2.232273 1_555
Ce2 O14 2.232273 1_555
Ce3 O22 2.232273 1_555
Ce3 O10 2.232273 1_555
Ce3 O3 2.232273 1_555
Ce3 O17 2.232273 1_555
Ce3 O15 2.232273 1_555
Ce3 O5 2.232273 1_555
Bi0 O15 2.258197 1_556
Bi0 O19 2.258197 1_565
Bi0 O23 2.258197 1_655
Bi0 O3 2.258197 1_555
Bi0 O11 2.258197 1_555
Bi0 O7 2.258197 1_555
Bi1 O20 2.258197 1_655
Bi1 O2 2.258197 1_555
Bi1 O14 2.258197 1_554
Bi1 O5 2.258197 1_555
Bi1 O8 2.258197 1_555
Bi1 O17 2.258197 1_545
Bi2 O16 2.258197 1_565
Bi2 O4 2.258197 1_555
Bi2 O1 2.258197 1_555
Bi2 O22 2.258197 1_455
Bi2 O13 2.258197 1_554
Bi2 O10 2.258197 1_555
Bi3 O12 2.258197 1_556
Bi3 O18 2.258197 1_545
Bi3 O21 2.258197 1_455
Bi3 O6 2.258197 1_555
Bi3 O0 2.258197 1_555
Bi3 O9 2.258197 1_555
