# generated using pymatgen
data_KMg3(SiO3)4
_symmetry_space_group_name_H-M   'P 1'
_cell_length_a   5.29427065
_cell_length_b   5.29427065
_cell_length_c   20.79198206
_cell_angle_alpha   87.50933358
_cell_angle_beta   87.50933358
_cell_angle_gamma   119.71586068
_symmetry_Int_Tables_number   1
_chemical_formula_structural   KMg3(SiO3)4
_chemical_formula_sum   'K2 Mg6 Si8 O24'
_cell_volume   504.24629194
_cell_formula_units_Z   2
loop_
 _symmetry_equiv_pos_site_id
 _symmetry_equiv_pos_as_xyz
  1  'x, y, z'
loop_
 _atom_site_type_symbol
 _atom_site_label
 _atom_site_symmetry_multiplicity
 _atom_site_fract_x
 _atom_site_fract_y
 _atom_site_fract_z
 _atom_site_occupancy
  K  K0  1  0.58593500  0.41406500  0.25000000  1
  K  K1  1  0.41406500  0.58593500  0.75000000  1
  Mg  Mg0  1  0.66375600  0.82906400  0.99995300  1
  Mg  Mg1  1  0.33624400  0.17093600  0.00004700  1
  Mg  Mg2  1  0.17093600  0.33624400  0.50004700  1
  Mg  Mg3  1  0.82906400  0.66375600  0.49995300  1
  Mg  Mg4  1  0.50000000  0.00000000  0.50000000  1
  Mg  Mg5  1  0.00000000  0.50000000  0.00000000  1
  Si  Si0  1  0.28785800  0.78118700  0.13312400  1
  Si  Si1  1  0.71214200  0.21881300  0.86687600  1
  Si  Si2  1  0.21881300  0.71214200  0.36687600  1
  Si  Si3  1  0.78118700  0.28785800  0.63312400  1
  Si  Si4  1  0.88834200  0.04765100  0.36676300  1
  Si  Si5  1  0.11165800  0.95234900  0.63323700  1
  Si  Si6  1  0.95234900  0.11165800  0.13323700  1
  Si  Si7  1  0.04765100  0.88834200  0.86676300  1
  O  O0  1  0.86103600  0.03040300  0.44433300  1
  O  O1  1  0.13896400  0.96959700  0.55566700  1
  O  O2  1  0.96959700  0.13896400  0.05566700  1
  O  O3  1  0.03040300  0.86103600  0.94433300  1
  O  O4  1  0.56366600  0.88816000  0.33663600  1
  O  O5  1  0.43633400  0.11184000  0.66336400  1
  O  O6  1  0.11184000  0.43633400  0.16336400  1
  O  O7  1  0.88816000  0.56366600  0.83663600  1
  O  O8  1  0.30971100  0.81885100  0.05549400  1
  O  O9  1  0.69028900  0.18114900  0.94450600  1
  O  O10  1  0.18114900  0.69028900  0.44450600  1
  O  O11  1  0.81885100  0.30971100  0.55549400  1
  O  O12  1  0.60897400  0.93228600  0.16474100  1
  O  O13  1  0.39102600  0.06771400  0.83525900  1
  O  O14  1  0.06771400  0.39102600  0.33525900  1
  O  O15  1  0.93228600  0.60897400  0.66474100  1
  O  O16  1  0.51521100  0.35791000  0.45261900  1
  O  O17  1  0.48478900  0.64209000  0.54738100  1
  O  O18  1  0.64209000  0.48478900  0.04738100  1
  O  O19  1  0.35791000  0.51521100  0.95261900  1
  O  O20  1  0.10932000  0.93585000  0.16502300  1
  O  O21  1  0.89068000  0.06415000  0.83497700  1
  O  O22  1  0.06415000  0.89068000  0.33497700  1
  O  O23  1  0.93585000  0.10932000  0.66502300  1
loop_
_geom_bond_atom_site_label_1
_geom_bond_atom_site_label_2
_geom_bond_distance
_geom_bond_site_symmetry_2
K0 O14 3.148243 1_555
K0 O12 3.148243 1_555
K0 O22 3.161102 1_545
K0 O20 3.161102 1_655
K0 O4 3.197909 1_555
K0 O6 3.197909 1_555
K0 O4 3.198615 1_545
K0 O6 3.198615 1_655
K0 O22 3.215834 1_655
K0 O20 3.215834 1_545
K0 O12 3.216504 1_545
K0 O14 3.216504 1_655
K1 O13 3.148243 1_555
K1 O15 3.148243 1_555
K1 O21 3.161102 1_455
K1 O23 3.161102 1_565
K1 O7 3.197909 1_555
K1 O5 3.197909 1_555
K1 O7 3.198615 1_455
K1 O5 3.198615 1_565
K1 O21 3.215834 1_565
K1 O23 3.215834 1_455
K1 O13 3.216504 1_565
K1 O15 3.216504 1_455
Mg0 O18 1.983546 1_556
Mg0 O19 1.991159 1_555
Mg0 O2 2.085676 1_566
Mg0 O9 2.088775 1_565
Mg0 O8 2.134451 1_556
Mg0 O3 2.143862 1_655
Mg1 O19 1.983546 1_554
Mg1 O18 1.991159 1_555
Mg1 O3 2.085676 1_544
Mg1 O8 2.088775 1_545
Mg1 O9 2.134451 1_554
Mg1 O2 2.143862 1_455
Mg2 O16 1.983546 1_555
Mg2 O17 1.991159 1_555
Mg2 O0 2.085676 1_455
Mg2 O11 2.088775 1_455
Mg2 O10 2.134451 1_555
Mg2 O1 2.143862 1_545
Mg3 O17 1.983546 1_555
Mg3 O16 1.991159 1_555
Mg3 O1 2.085676 1_655
Mg3 O10 2.088775 1_655
Mg3 O11 2.134451 1_555
Mg3 O0 2.143862 1_565
Mg4 O17 2.060853 1_545
Mg4 O16 2.060853 1_555
Mg4 O11 2.111666 1_555
Mg4 O10 2.111666 1_545
Mg4 O0 2.122637 1_555
Mg4 O1 2.122637 1_545
Mg5 O18 2.060853 1_455
Mg5 O19 2.060853 1_554
Mg5 O8 2.111666 1_555
Mg5 O9 2.111666 1_454
Mg5 O2 2.122637 1_455
Mg5 O3 2.122637 1_554
O0 Si4 1.607582 1_555
O1 Si5 1.607582 1_555
O2 Si6 1.607582 1_555
O3 Si7 1.607582 1_555
O4 Si2 1.661215 1_555
O4 Si4 1.661524 1_565
O5 Si3 1.661215 1_555
O5 Si5 1.661524 1_545
O6 Si0 1.661215 1_555
O6 Si6 1.661524 1_455
O7 Si1 1.661215 1_555
O7 Si7 1.661524 1_655
O8 Si0 1.609761 1_555
O9 Si1 1.609761 1_555
O10 Si2 1.609761 1_555
O11 Si3 1.609761 1_555
O12 Si0 1.660387 1_555
O12 Si6 1.663321 1_565
O13 Si1 1.660387 1_555
O13 Si7 1.663321 1_545
O14 Si2 1.660387 1_555
O14 Si4 1.663321 1_455
O15 Si3 1.660387 1_555
O15 Si5 1.663321 1_655
O20 Si6 1.659789 1_465
O20 Si0 1.662487 1_555
O21 Si7 1.659789 1_645
O21 Si1 1.662487 1_555
O22 Si4 1.659789 1_465
O22 Si2 1.662487 1_555
O23 Si5 1.659789 1_645
O23 Si3 1.662487 1_555
