# generated using pymatgen
data_LaAlZn
_symmetry_space_group_name_H-M   'P 1'
_cell_length_a   5.85054916
_cell_length_b   5.85054916
_cell_length_c   7.72846017
_cell_angle_alpha   50.11074812
_cell_angle_beta   50.11074812
_cell_angle_gamma   46.98967047
_symmetry_Int_Tables_number   1
_chemical_formula_structural   LaAlZn
_chemical_formula_sum   'La2 Al2 Zn2'
_cell_volume   138.27863362
_cell_formula_units_Z   2
loop_
 _symmetry_equiv_pos_site_id
 _symmetry_equiv_pos_as_xyz
  1  'x, y, z'
loop_
 _atom_site_type_symbol
 _atom_site_label
 _atom_site_symmetry_multiplicity
 _atom_site_fract_x
 _atom_site_fract_y
 _atom_site_fract_z
 _atom_site_occupancy
  La  La0  1  0.45793814  0.45793814  0.79485891  1
  La  La1  1  0.54206186  0.54206186  0.20514109  1
  Al  Al0  1  0.83803446  0.83803446  0.60033131  1
  Al  Al1  1  0.16196554  0.16196554  0.39966869  1
  Zn  Zn0  1  0.16376884  0.16376884  0.77413832  1
  Zn  Zn1  1  0.83623116  0.83623116  0.22586168  1
loop_
_geom_bond_atom_site_label_1
_geom_bond_atom_site_label_2
_geom_bond_distance
_geom_bond_site_symmetry_2
La0 Zn0 3.138443 1_565
La0 Zn0 3.138443 1_655
La0 Zn0 3.270725 1_555
La0 Zn1 3.294063 1_555
La0 Zn1 3.486703 1_456
La0 Zn1 3.486703 1_546
La0 La1 3.856487 1_556
La0 La1 3.952234 1_546
La0 La1 3.952234 1_456
La1 Zn1 3.138443 1_455
La1 Zn1 3.138443 1_545
La1 Zn1 3.270725 1_555
La1 Zn0 3.294063 1_555
La1 Zn0 3.486703 1_654
La1 Zn0 3.486703 1_564
Al0 Al1 2.636104 1_665
Al0 Zn0 2.688583 1_565
Al0 Zn0 2.688583 1_655
Al0 Zn1 2.907638 1_555
Al0 La1 3.195286 1_565
Al0 La1 3.195286 1_655
Al0 La0 3.212620 1_555
Al0 La1 3.342663 1_556
Al0 La0 3.472943 1_565
Al0 La0 3.472943 1_655
Al1 Zn1 2.688583 1_455
Al1 Zn1 2.688583 1_545
Al1 Zn0 2.907638 1_555
Al1 La0 3.195286 1_455
Al1 La0 3.195286 1_545
Al1 La1 3.212620 1_555
Al1 La0 3.342663 1_554
Al1 La1 3.472943 1_545
Al1 La1 3.472943 1_455
Zn0 Zn1 2.716738 1_446
