# generated using pymatgen
data_ZnCr2O4
_symmetry_space_group_name_H-M   'P 1'
_cell_length_a   5.98626455
_cell_length_b   5.98626455
_cell_length_c   5.98626455
_cell_angle_alpha   119.42436071
_cell_angle_beta   117.13581448
_cell_angle_gamma   93.01656088
_symmetry_Int_Tables_number   1
_chemical_formula_structural   ZnCr2O4
_chemical_formula_sum   'Zn2 Cr4 O8'
_cell_volume   155.32619385
_cell_formula_units_Z   2
loop_
 _symmetry_equiv_pos_site_id
 _symmetry_equiv_pos_as_xyz
  1  'x, y, z'
loop_
 _atom_site_type_symbol
 _atom_site_label
 _atom_site_symmetry_multiplicity
 _atom_site_fract_x
 _atom_site_fract_y
 _atom_site_fract_z
 _atom_site_occupancy
  Zn  Zn0  1  0.00000000  0.50000000  0.50000000  1
  Zn  Zn1  1  0.50000000  0.50000000  0.00000000  1
  Cr  Cr0  1  0.12410200  0.87410200  0.25000000  1
  Cr  Cr1  1  0.87589800  0.12589800  0.75000000  1
  Cr  Cr2  1  0.50000000  0.00000000  0.00000000  1
  Cr  Cr3  1  0.50000000  0.50000000  0.50000000  1
  O  O0  1  0.74623000  0.25898000  0.01275000  1
  O  O1  1  0.71154500  0.24195800  0.46958700  1
  O  O2  1  0.74623000  0.73348000  0.48725000  1
  O  O3  1  0.27237100  0.24195800  0.03041300  1
  O  O4  1  0.72762900  0.75804200  0.96958700  1
  O  O5  1  0.28845500  0.75804200  0.53041300  1
  O  O6  1  0.25377000  0.26652000  0.51275000  1
  O  O7  1  0.25377000  0.74102000  0.98725000  1
loop_
_geom_bond_atom_site_label_1
_geom_bond_atom_site_label_2
_geom_bond_distance
_geom_bond_site_symmetry_2
Cr0 O7 1.912800 1_554
Cr0 O6 1.912800 1_565
Cr0 O5 1.994938 1_555
Cr0 O4 1.994938 1_454
Cr1 O2 1.912800 1_545
Cr1 O0 1.912800 1_556
Cr1 O3 1.994938 1_656
Cr1 O1 1.994938 1_555
Cr2 O7 2.030417 1_544
Cr2 O0 2.030417 1_555
Cr2 O3 2.040299 1_555
Cr2 O5 2.040299 1_544
Cr2 O1 2.040299 1_555
Cr2 O4 2.040299 1_544
Cr3 O6 2.030417 1_555
Cr3 O2 2.030417 1_555
Cr3 O4 2.040299 1_555
Cr3 O3 2.040299 1_555
Cr3 O5 2.040299 1_555
Cr3 O1 2.040299 1_555
O0 Zn0 2.118868 1_655
O0 Zn1 2.118868 1_555
O1 Zn0 2.134751 1_655
O2 Zn0 2.118868 1_655
O2 Zn1 2.118868 1_555
O3 Zn1 2.134751 1_555
O4 Zn1 2.134751 1_556
O5 Zn0 2.134751 1_555
O6 Zn1 2.118868 1_556
O6 Zn0 2.118868 1_555
O7 Zn1 2.118868 1_556
O7 Zn0 2.118868 1_555
