# generated using pymatgen
data_Sc10V10O37
_symmetry_space_group_name_H-M   'P 1'
_cell_length_a   3.48836232
_cell_length_b   3.48836196
_cell_length_c   71.24056077
_cell_angle_alpha   60.68179735
_cell_angle_beta   60.68180100
_cell_angle_gamma   59.99999642
_symmetry_Int_Tables_number   1
_chemical_formula_structural   Sc10V10O37
_chemical_formula_sum   'Sc10 V10 O37'
_cell_volume   619.23426855
_cell_formula_units_Z   1
loop_
 _symmetry_equiv_pos_site_id
 _symmetry_equiv_pos_as_xyz
  1  'x, y, z'
loop_
 _atom_site_type_symbol
 _atom_site_label
 _atom_site_symmetry_multiplicity
 _atom_site_fract_x
 _atom_site_fract_y
 _atom_site_fract_z
 _atom_site_occupancy
  Sc  Sc0  1  0.01289216  0.01289216  0.54806618  1
  Sc  Sc1  1  0.03966452  0.03966452  0.49405032  1
  Sc  Sc2  1  0.03660429  0.03660429  0.59450936  1
  Sc  Sc3  1  0.99216784  0.99216784  0.65117482  1
  Sc  Sc4  1  0.99599523  0.99599523  0.75060072  1
  Sc  Sc5  1  0.00806787  0.00806787  0.69878982  1
  Sc  Sc6  1  0.99559045  0.99559045  0.80066143  1
  Sc  Sc7  1  0.98123023  0.98123023  0.85281547  1
  Sc  Sc8  1  0.98574332  0.98574332  0.95213850  1
  Sc  Sc9  1  0.97411446  0.97411446  0.90388283  1
  V  V0  1  0.97102940  0.97102940  0.00434559  1
  V  V1  1  0.99247492  0.99247492  0.05112876  1
  V  V2  1  0.00909580  0.00909580  0.09863563  1
  V  V3  1  0.02804117  0.02804117  0.14579382  1
  V  V4  1  0.01341695  0.01341695  0.19798746  1
  V  V5  1  0.01982310  0.01982310  0.29702654  1
  V  V6  1  0.99471526  0.99471526  0.25079271  1
  V  V7  1  0.99924794  0.99924794  0.35011281  1
  V  V8  1  0.03127284  0.03127284  0.39530907  1
  V  V9  1  0.04279625  0.04279625  0.44358056  1
  O  O0  1  0.23120853  0.23120853  0.01531872  1
  O  O1  1  0.21464627  0.21464627  0.06780306  1
  O  O2  1  0.72869093  0.72869093  0.04069636  1
  O  O3  1  0.26667953  0.26667953  0.10999807  1
  O  O4  1  0.72149580  0.72149580  0.09177563  1
  O  O5  1  0.22899636  0.22899636  0.16565055  1
  O  O6  1  0.76450637  0.76450637  0.13532404  1
  O  O7  1  0.68312489  0.68312489  0.19753127  1
  O  O8  1  0.26275655  0.26275655  0.26058652  1
  O  O9  1  0.79915428  0.79915427  0.23012686  1
  O  O10  1  0.73743726  0.73743726  0.28938441  1
  O  O11  1  0.26724841  0.26724841  0.35991274  1
  O  O12  1  0.24381289  0.24381289  0.41342807  1
  O  O13  1  0.80488062  0.80488062  0.32926791  1
  O  O14  1  0.76129886  0.76129886  0.38580517  1
  O  O15  1  0.29677137  0.29677137  0.45548429  1
  O  O16  1  0.74370533  0.74370533  0.43844420  1
  O  O17  1  0.75431972  0.75431972  0.48685204  1
  O  O18  1  0.28230551  0.28230551  0.55765417  1
  O  O19  1  0.82177695  0.82177695  0.52673346  1
  O  O20  1  0.23470731  0.23470731  0.61479390  1
  O  O21  1  0.26554947  0.26554947  0.66016758  1
  O  O22  1  0.76259542  0.76259542  0.58561069  1
  O  O23  1  0.24053902  0.24053902  0.71391915  1
  O  O24  1  0.79137804  0.79137804  0.63129329  1
  O  O25  1  0.24932578  0.24932578  0.76260113  1
  O  O26  1  0.74777013  0.74777013  0.68783448  1
  O  O27  1  0.23820970  0.23820970  0.81426855  1
  O  O28  1  0.75494523  0.75494523  0.73675822  1
  O  O29  1  0.74537940  0.74537940  0.78819309  1
  O  O30  1  0.24226546  0.24226546  0.86366018  1
  O  O31  1  0.74754600  0.74754600  0.83786810  1
  O  O32  1  0.21989586  0.21989586  0.91701562  1
  O  O33  1  0.73673662  0.73673662  0.88948951  1
  O  O34  1  0.17045017  0.17045017  0.97443247  1
  O  O35  1  0.70093528  0.70093528  0.94485971  1
  O  O36  1  0.66297067  0.66297067  0.00055440  1
loop_
_geom_bond_atom_site_label_1
_geom_bond_atom_site_label_2
_geom_bond_distance
_geom_bond_site_symmetry_2
O0 V1 2.104195 1_445
O0 V0 2.114702 1_455
O0 V0 2.114702 1_445
O0 V0 2.114702 1_545
O0 O36 2.192913 1_545
O0 O36 2.192913 1_455
O0 O36 2.192913 1_555
O0 O2 2.505966 1_545
O0 O2 2.505966 1_455
O0 O2 2.505966 1_445
O1 V2 1.811720 1_555
O1 V1 2.239686 1_455
O1 V1 2.239686 1_445
O1 V1 2.239686 1_545
O1 O4 2.457733 1_545
O1 O4 2.457733 1_455
O1 O4 2.457733 1_445
O1 O2 2.567722 1_455
O1 O2 2.567722 1_545
O1 O2 2.567722 1_555
O2 V1 2.105232 1_545
O2 V1 2.105232 1_555
O2 V1 2.105232 1_455
O2 V0 2.135969 1_555
O3 V3 2.103356 1_555
O3 V2 2.121789 1_565
O3 V2 2.121789 1_555
O3 V2 2.121789 1_655
O3 O4 2.280949 1_545
O3 O4 2.280949 1_455
O3 O4 2.280949 1_555
O3 O6 2.504160 1_545
O3 O6 2.504160 1_455
O3 O6 2.504161 1_445
O4 V2 2.053949 1_655
O4 V2 2.053949 1_665
O4 V2 2.053949 1_565
O4 V1 2.388407 1_555
O5 V4 1.900114 1_555
O5 V3 2.327573 1_565
O5 V3 2.327574 1_655
O5 V3 2.327574 1_555
O5 O6 2.689180 1_455
O5 O6 2.689180 1_545
O5 O6 2.689180 1_555
O5 O7 2.750547 1_545
O5 O7 2.750547 1_455
O5 O7 2.750547 1_445
O6 V3 2.105872 1_655
O6 V3 2.105872 1_665
O6 V3 2.105873 1_565
O6 V2 2.155808 1_665
O7 V4 2.014185 1_655
O7 V4 2.014185 1_665
O7 V4 2.014185 1_565
O7 O9 2.779326 1_555
O7 O9 2.779326 1_545
O7 O9 2.779326 1_455
O8 V6 2.094613 1_455
O8 V6 2.094613 1_545
O8 V6 2.094613 1_445
O8 V5 2.141213 1_555
O8 O9 2.694371 1_455
O8 O9 2.694371 1_545
O8 O9 2.694371 1_555
O9 V4 1.888509 1_665
O9 V6 2.351766 1_555
O9 V6 2.351766 1_545
O9 V6 2.351767 1_455
O10 V5 2.063460 1_655
O10 V5 2.063461 1_565
O10 V5 2.063461 1_665
O10 V6 2.267645 1_555
O10 O8 2.630520 1_565
O10 O8 2.630520 1_655
O10 O8 2.630520 1_665
O11 V8 2.079886 1_555
O11 V7 2.094712 1_455
O11 V7 2.094712 1_445
O11 V7 2.094712 1_545
O11 O14 2.524083 1_545
O11 O14 2.524083 1_455
O11 O14 2.524083 1_445
O11 O13 2.701611 1_455
O11 O13 2.701611 1_545
O11 O13 2.701611 1_555
O12 V9 1.771758 1_555
O12 V8 2.278102 1_565
O12 V8 2.278102 1_655
O12 V8 2.278102 1_555
O12 O16 2.493384 1_545
O12 O16 2.493384 1_455
O12 O16 2.493385 1_445
O12 O14 2.586646 1_455
O12 O14 2.586647 1_545
O12 O14 2.586647 1_555
O13 V5 1.894501 1_665
O13 V7 2.357216 1_555
O13 V7 2.357216 1_545
O13 V7 2.357216 1_455
O14 V8 2.089997 1_665
O14 V8 2.089997 1_655
O14 V8 2.089997 1_565
O14 V7 2.097280 1_555
O15 V9 2.132011 1_555
O15 V9 2.132011 1_565
O15 V9 2.132011 1_655
O15 O16 2.249172 1_545
O15 O16 2.249172 1_455
O15 O16 2.249172 1_555
O15 Sc1 2.266137 1_555
O15 O17 2.730107 1_545
O15 O17 2.730107 1_455
O15 O17 2.730108 1_445
O16 V9 2.036495 1_655
O16 V9 2.036495 1_665
O16 V9 2.036496 1_565
O16 V8 2.534617 1_665
O17 Sc1 2.057942 1_655
O17 Sc1 2.057942 1_665
O17 Sc1 2.057943 1_565
O17 V9 2.542629 1_665
O18 Sc0 2.091323 1_555
O18 Sc0 2.091323 1_565
O18 Sc0 2.091323 1_655
O18 Sc2 2.165608 1_555
O18 O22 2.598993 1_545
O18 O22 2.598993 1_455
O18 O22 2.598993 1_445
O18 O19 2.712442 1_455
O18 O19 2.712442 1_545
O18 O19 2.712443 1_555
O19 Sc1 1.920459 1_665
O19 Sc0 2.372237 1_655
O19 Sc0 2.372237 1_665
O19 Sc0 2.372237 1_565
O20 Sc3 2.137740 1_445
O20 O24 2.235209 1_455
O20 O24 2.235209 1_545
O20 O24 2.235209 1_445
O20 Sc2 2.340276 1_555
O20 Sc2 2.340276 1_565
O20 Sc2 2.340276 1_655
O20 O22 2.645141 1_455
O20 O22 2.645141 1_545
O20 O22 2.645142 1_555
O21 Sc3 2.082173 1_455
O21 Sc3 2.082173 1_545
O21 Sc3 2.082173 1_445
O21 Sc5 2.269440 1_555
O21 O26 2.588270 1_545
O21 O26 2.588270 1_455
O21 O26 2.588270 1_445
O21 O24 2.633410 1_455
O21 O24 2.633410 1_545
O21 O24 2.633410 1_555
O22 Sc2 2.080777 1_655
O22 Sc2 2.080777 1_665
O22 Sc2 2.080777 1_565
O22 Sc0 2.206113 1_665
O23 Sc4 2.155406 1_445
O23 Sc5 2.201486 1_565
O23 Sc5 2.201486 1_555
O23 Sc5 2.201486 1_655
O23 O28 2.420175 1_455
O23 O28 2.420175 1_545
O23 O28 2.420175 1_445
O23 O26 2.530908 1_455
O23 O26 2.530908 1_545
O23 O26 2.530908 1_555
O24 Sc2 2.161421 1_665
O24 Sc3 2.328304 1_545
O24 Sc3 2.328304 1_555
O24 Sc3 2.328305 1_455
O25 Sc4 2.133881 1_445
O25 Sc4 2.133882 1_455
O25 Sc4 2.133882 1_545
O25 Sc6 2.236420 1_445
O25 O29 2.513480 1_545
O25 O29 2.513480 1_455
O25 O29 2.513480 1_445
O25 O28 2.522330 1_455
O25 O28 2.522330 1_545
O25 O28 2.522331 1_555
O26 Sc5 2.114383 1_655
O26 Sc5 2.114384 1_665
O26 Sc5 2.114384 1_565
O26 Sc3 2.154119 1_555
O27 Sc6 2.166912 1_455
O27 Sc6 2.166912 1_545
O27 Sc6 2.166913 1_445
O27 Sc7 2.265014 1_445
O27 O31 2.445236 1_545
O27 O31 2.445236 1_455
O27 O31 2.445237 1_445
O27 O29 2.530580 1_455
O27 O29 2.530580 1_545
O27 O29 2.530580 1_555
O28 Sc4 2.172054 1_545
O28 Sc4 2.172054 1_555
O28 Sc4 2.172054 1_455
O28 Sc5 2.231020 1_665
O29 Sc6 2.143124 1_555
O29 Sc6 2.143124 1_545
O29 Sc6 2.143125 1_455
O29 Sc4 2.208925 1_555
O30 Sc7 2.112413 1_445
O30 Sc7 2.112414 1_455
O30 Sc7 2.112414 1_545
O30 Sc9 2.363480 1_445
O30 O31 2.520533 1_455
O30 O31 2.520533 1_545
O30 O31 2.520533 1_555
O30 O33 2.521850 1_545
O30 O33 2.521850 1_455
O30 O33 2.521850 1_445
O31 Sc6 2.186261 1_555
O31 Sc7 2.197190 1_545
O31 Sc7 2.197190 1_555
O31 Sc7 2.197190 1_455
O32 Sc8 2.063818 1_445
O32 Sc9 2.156784 1_455
O32 Sc9 2.156784 1_445
O32 Sc9 2.156784 1_545
O32 O33 2.583081 1_455
O32 O33 2.583081 1_545
O32 O33 2.583082 1_555
O32 O35 2.594822 1_545
O32 O35 2.594822 1_455
O32 O35 2.594822 1_445
O33 Sc7 2.154964 1_555
O33 Sc9 2.184380 1_555
O33 Sc9 2.184380 1_545
O33 Sc9 2.184381 1_455
O34 V0 1.757693 1_446
O34 Sc8 2.402561 1_445
O34 Sc8 2.402562 1_455
O34 Sc8 2.402562 1_545
O34 O36 2.532234 1_546
O34 O36 2.532234 1_456
O34 O36 2.532234 1_446
O34 O35 2.660038 1_455
O34 O35 2.660038 1_545
O34 O35 2.660038 1_555
O35 Sc8 2.058920 1_555
O35 Sc8 2.058920 1_545
O35 Sc8 2.058920 1_455
O35 Sc9 2.407798 1_555
O36 V0 2.026290 1_545
O36 V0 2.026290 1_555
O36 V0 2.026290 1_455
