# generated using pymatgen
data_LiH2N
_symmetry_space_group_name_H-M   'P 1'
_cell_length_a   3.76045400
_cell_length_b   3.76045400
_cell_length_c   8.23894500
_cell_angle_alpha   90.00000000
_cell_angle_beta   90.00000000
_cell_angle_gamma   90.00000000
_symmetry_Int_Tables_number   1
_chemical_formula_structural   LiH2N
_chemical_formula_sum   'Li4 H8 N4'
_cell_volume   116.50703895
_cell_formula_units_Z   4
loop_
 _symmetry_equiv_pos_site_id
 _symmetry_equiv_pos_as_xyz
  1  'x, y, z'
loop_
 _atom_site_type_symbol
 _atom_site_label
 _atom_site_symmetry_multiplicity
 _atom_site_fract_x
 _atom_site_fract_y
 _atom_site_fract_z
 _atom_site_occupancy
  Li  Li0  1  0.00000000  0.00000000  0.75000000  1
  Li  Li1  1  0.00000000  0.00000000  0.25000000  1
  Li  Li2  1  0.50000000  0.50000000  0.75000000  1
  Li  Li3  1  0.50000000  0.50000000  0.25000000  1
  H  H0  1  0.35285700  0.85285700  0.45749300  1
  H  H1  1  0.35285700  0.14714300  0.95749300  1
  H  H2  1  0.64714300  0.85285700  0.95749300  1
  H  H3  1  0.64714300  0.14714300  0.45749300  1
  H  H4  1  0.14714300  0.64714300  0.04250700  1
  H  H5  1  0.14714300  0.35285700  0.54250700  1
  H  H6  1  0.85285700  0.64714300  0.54250700  1
  H  H7  1  0.85285700  0.35285700  0.04250700  1
  N  N0  1  0.00000000  0.50000000  0.12549200  1
  N  N1  1  0.00000000  0.50000000  0.62549200  1
  N  N2  1  0.50000000  0.00000000  0.37450800  1
  N  N3  1  0.50000000  0.00000000  0.87450800  1
loop_
_geom_bond_atom_site_label_1
_geom_bond_atom_site_label_2
_geom_bond_distance
_geom_bond_site_symmetry_2
Li0 N3 2.141856 1_555
Li0 N3 2.141856 1_455
Li0 N1 2.141856 1_555
Li0 N1 2.141856 1_545
Li0 Li2 2.659043 1_545
Li0 Li2 2.659043 1_455
Li0 Li2 2.659043 1_555
Li0 Li2 2.659043 1_445
Li1 N2 2.141856 1_555
Li1 N0 2.141856 1_545
Li1 N2 2.141856 1_455
Li1 N0 2.141856 1_555
Li1 Li3 2.659043 1_445
Li1 Li3 2.659043 1_455
Li1 Li3 2.659043 1_545
Li1 Li3 2.659043 1_555
Li2 N3 2.141856 1_565
Li2 N3 2.141856 1_555
Li2 N1 2.141856 1_555
Li2 N1 2.141856 1_655
Li3 N2 2.141856 1_555
Li3 N0 2.141856 1_655
Li3 N0 2.141856 1_555
Li3 N2 2.141856 1_565
H0 N2 1.039131 1_565
H0 Li1 2.233676 1_565
H0 Li3 2.233676 1_555
H1 N3 1.039131 1_555
H1 Li0 2.233676 1_555
H1 Li2 2.233676 1_555
H2 N3 1.039131 1_565
H2 Li2 2.233676 1_555
H2 Li0 2.233676 1_665
H3 N2 1.039131 1_555
H3 Li3 2.233676 1_555
H3 Li1 2.233676 1_655
H4 N0 1.039131 1_555
H4 Li3 2.233676 1_555
H4 Li1 2.233676 1_565
H5 N1 1.039131 1_555
H5 Li2 2.233676 1_555
H5 Li0 2.233676 1_555
H6 N1 1.039131 1_655
H6 Li0 2.233676 1_665
H6 Li2 2.233676 1_555
H7 N0 1.039131 1_655
H7 Li3 2.233676 1_555
H7 Li1 2.233676 1_655
