# generated using pymatgen
data_Mo(Br2N)2
_symmetry_space_group_name_H-M   'P 1'
_cell_length_a   8.69423697
_cell_length_b   8.69423697
_cell_length_c   8.69423697
_cell_angle_alpha   104.27546376
_cell_angle_beta   104.27546376
_cell_angle_gamma   120.45303757
_symmetry_Int_Tables_number   1
_chemical_formula_structural   Mo(Br2N)2
_chemical_formula_sum   'Mo2 Br8 N4'
_cell_volume   491.74698668
_cell_formula_units_Z   2
loop_
 _symmetry_equiv_pos_site_id
 _symmetry_equiv_pos_as_xyz
  1  'x, y, z'
loop_
 _atom_site_type_symbol
 _atom_site_label
 _atom_site_symmetry_multiplicity
 _atom_site_fract_x
 _atom_site_fract_y
 _atom_site_fract_z
 _atom_site_occupancy
  Mo  Mo0  1  0.85066200  0.85066200  0.00000000  1
  Mo  Mo1  1  0.14933800  0.14933800  0.00000000  1
  Br  Br0  1  0.78758100  0.01235000  0.22476800  1
  Br  Br1  1  0.78758100  0.56281300  0.77523200  1
  Br  Br2  1  0.56281300  0.78758100  0.77523200  1
  Br  Br3  1  0.01235000  0.78758100  0.22476800  1
  Br  Br4  1  0.21241900  0.98765000  0.77523200  1
  Br  Br5  1  0.21241900  0.43718700  0.22476800  1
  Br  Br6  1  0.43718700  0.21241900  0.22476800  1
  Br  Br7  1  0.98765000  0.21241900  0.77523200  1
  N  N0  1  0.27057300  0.27057300  0.54114700  1
  N  N1  1  0.72942700  0.72942700  0.45885300  1
  N  N2  1  0.72942700  0.27057300  0.00000000  1
  N  N3  1  0.27057300  0.72942700  0.00000000  1
loop_
_geom_bond_atom_site_label_1
_geom_bond_atom_site_label_2
_geom_bond_distance
_geom_bond_site_symmetry_2
Mo0 Mo1 2.578958 1_665
Br0 Mo0 2.459889 1_545
Br0 N2 3.455682 1_555
Br0 N0 3.455694 1_655
Br0 N3 3.487681 1_545
Br0 N1 3.487681 1_545
Br1 Mo0 2.459885 1_556
Br1 N3 3.455689 1_656
Br1 N1 3.455697 1_555
Br1 N0 3.487681 1_555
Br1 N2 3.487681 1_556
Br2 Mo0 2.459885 1_556
Br2 N2 3.455689 1_566
Br2 N1 3.455697 1_555
Br2 N0 3.487681 1_555
Br2 N3 3.487681 1_556
Br3 Mo0 2.459889 1_455
Br3 N3 3.455682 1_555
Br3 N0 3.455694 1_565
Br3 N2 3.487681 1_455
Br3 N1 3.487681 1_455
Br4 Mo1 2.459889 1_566
Br4 N3 3.455682 1_556
Br4 N1 3.455694 1_455
Br4 N2 3.487681 1_566
Br4 N0 3.487681 1_565
Br5 Mo1 2.459885 1_555
Br5 N2 3.455689 1_455
Br5 N0 3.455697 1_555
Br5 N1 3.487681 1_555
Br5 N3 3.487681 1_555
Br6 Mo1 2.459885 1_555
Br6 N3 3.455689 1_545
Br6 N0 3.455697 1_555
Br6 N1 3.487681 1_555
Br6 N2 3.487681 1_555
Br7 Mo1 2.459889 1_656
Br7 N2 3.455682 1_556
Br7 N1 3.455694 1_545
Br7 N3 3.487681 1_656
Br7 N0 3.487681 1_655
