# generated using pymatgen
data_MoS3
_symmetry_space_group_name_H-M   'P 1'
_cell_length_a   6.17467200
_cell_length_b   6.80778000
_cell_length_c   16.36744775
_cell_angle_alpha   85.12178654
_cell_angle_beta   90.00000000
_cell_angle_gamma   90.00000000
_symmetry_Int_Tables_number   1
_chemical_formula_structural   MoS3
_chemical_formula_sum   'Mo8 S24'
_cell_volume   685.52669153
_cell_formula_units_Z   8
loop_
 _symmetry_equiv_pos_site_id
 _symmetry_equiv_pos_as_xyz
  1  'x, y, z'
loop_
 _atom_site_type_symbol
 _atom_site_label
 _atom_site_symmetry_multiplicity
 _atom_site_fract_x
 _atom_site_fract_y
 _atom_site_fract_z
 _atom_site_occupancy
  Mo  Mo0_0  1  0.25000000  0.05356700  0.12257750  1
  Mo  Mo0_1  1  0.25000000  0.05356700  0.62257750  1
  Mo  Mo0_2  1  0.25000000  0.55356700  0.12257750  1
  Mo  Mo0_3  1  0.25000000  0.55356700  0.62257750  1
  Mo  Mo0_4  1  0.75000000  0.05356700  0.12257750  1
  Mo  Mo0_5  1  0.75000000  0.05356700  0.62257750  1
  Mo  Mo0_6  1  0.75000000  0.55356700  0.12257750  1
  Mo  Mo0_7  1  0.75000000  0.55356700  0.62257750  1
  S  S0_0  1  0.25000000  0.02929150  0.25767200  1
  S  S0_1  1  0.25000000  0.02929150  0.75767200  1
  S  S0_2  1  0.25000000  0.52929150  0.25767200  1
  S  S0_3  1  0.25000000  0.52929150  0.75767200  1
  S  S0_4  1  0.75000000  0.02929150  0.25767200  1
  S  S0_5  1  0.75000000  0.02929150  0.75767200  1
  S  S0_6  1  0.75000000  0.52929150  0.25767200  1
  S  S0_7  1  0.75000000  0.52929150  0.75767200  1
  S  S1_0  1  0.00000000  0.18616550  0.32490600  1
  S  S1_1  1  0.00000000  0.18616550  0.82490600  1
  S  S1_2  1  0.00000000  0.68616550  0.32490600  1
  S  S1_3  1  0.00000000  0.68616550  0.82490600  1
  S  S1_4  1  0.50000000  0.18616550  0.32490600  1
  S  S1_5  1  0.50000000  0.18616550  0.82490600  1
  S  S1_6  1  0.50000000  0.68616550  0.32490600  1
  S  S1_7  1  0.50000000  0.68616550  0.82490600  1
  S  S2_0  1  0.00000000  0.31157600  0.06924450  1
  S  S2_1  1  0.00000000  0.31157600  0.56924450  1
  S  S2_2  1  0.00000000  0.81157600  0.06924450  1
  S  S2_3  1  0.00000000  0.81157600  0.56924450  1
  S  S2_4  1  0.50000000  0.31157600  0.06924450  1
  S  S2_5  1  0.50000000  0.31157600  0.56924450  1
  S  S2_6  1  0.50000000  0.81157600  0.06924450  1
  S  S2_7  1  0.50000000  0.81157600  0.56924450  1
loop_
_geom_bond_atom_site_label_1
_geom_bond_atom_site_label_2
_geom_bond_distance
_geom_bond_site_symmetry_2
Mo0_0 S0_0 2.203260 1_555
Mo0_0 S2_0 2.443219 1_555
Mo0_0 S2_4 2.443219 1_555
Mo0_0 S2_2 2.470524 1_545
Mo0_0 S2_6 2.470524 1_545
Mo0_1 S0_1 2.203260 1_555
Mo0_1 S2_5 2.443219 1_555
Mo0_1 S2_1 2.443219 1_555
Mo0_1 S2_3 2.470524 1_545
Mo0_1 S2_7 2.470524 1_545
Mo0_2 S0_2 2.203260 1_555
Mo0_2 S2_6 2.443219 1_555
Mo0_2 S2_2 2.443219 1_555
Mo0_2 S2_4 2.470524 1_555
Mo0_2 S2_0 2.470524 1_555
Mo0_3 S0_3 2.203260 1_555
Mo0_3 S2_7 2.443219 1_555
Mo0_3 S2_3 2.443219 1_555
Mo0_3 S2_5 2.470524 1_555
Mo0_3 S2_1 2.470524 1_555
Mo0_4 S0_4 2.203260 1_555
Mo0_4 S2_4 2.443219 1_555
Mo0_4 S2_0 2.443219 1_655
Mo0_4 S2_6 2.470524 1_545
Mo0_4 S2_2 2.470524 1_645
Mo0_5 S0_5 2.203260 1_555
Mo0_5 S2_5 2.443219 1_555
Mo0_5 S2_1 2.443219 1_655
Mo0_5 S2_7 2.470524 1_545
Mo0_5 S2_3 2.470524 1_645
Mo0_6 S0_6 2.203260 1_555
Mo0_6 S2_6 2.443219 1_555
Mo0_6 S2_2 2.443219 1_655
Mo0_6 S2_4 2.470524 1_555
Mo0_6 S2_0 2.470524 1_655
Mo0_7 S0_7 2.203260 1_555
Mo0_7 S2_7 2.443219 1_555
Mo0_7 S2_3 2.443219 1_655
Mo0_7 S2_5 2.470524 1_555
Mo0_7 S2_1 2.470524 1_655
S0_0 S1_4 2.221334 1_555
S0_0 S1_0 2.221334 1_555
S0_0 S1_2 2.934835 1_545
S0_0 S1_6 2.934835 1_545
S0_1 S1_5 2.221334 1_555
S0_1 S1_1 2.221334 1_555
S0_1 S1_7 2.934835 1_545
S0_1 S1_3 2.934835 1_545
S0_2 S1_2 2.221334 1_555
S0_2 S1_6 2.221334 1_555
S0_2 S1_0 2.934835 1_555
S0_2 S1_4 2.934835 1_555
S0_3 S1_3 2.221334 1_555
S0_3 S1_7 2.221334 1_555
S0_3 S1_5 2.934835 1_555
S0_3 S1_1 2.934835 1_555
S0_4 S1_4 2.221334 1_555
S0_4 S1_0 2.221334 1_655
S0_4 S1_6 2.934835 1_545
S0_4 S1_2 2.934835 1_645
S0_5 S1_5 2.221334 1_555
S0_5 S1_1 2.221334 1_655
S0_5 S1_7 2.934835 1_545
S0_5 S1_3 2.934835 1_645
S0_6 S1_6 2.221334 1_555
S0_6 S1_2 2.221334 1_655
S0_6 S1_4 2.934835 1_555
S0_6 S1_0 2.934835 1_655
S0_7 S1_7 2.221334 1_555
S0_7 S1_3 2.221334 1_655
S0_7 S1_5 2.934835 1_555
S0_7 S1_1 2.934835 1_655
S1_0 S1_4 3.087336 1_455
S1_0 S1_4 3.087336 1_555
S1_1 S1_5 3.087336 1_455
S1_1 S1_5 3.087336 1_555
S1_2 S1_6 3.087336 1_555
S1_2 S1_6 3.087336 1_455
S1_3 S1_7 3.087336 1_455
S1_3 S1_7 3.087336 1_555
S2_0 S2_4 3.087336 1_455
S2_0 S2_4 3.087336 1_555
S2_1 S2_5 3.087336 1_455
S2_1 S2_5 3.087336 1_555
S2_2 S2_6 3.087336 1_455
S2_2 S2_6 3.087336 1_555
S2_3 S2_7 3.087336 1_555
S2_3 S2_7 3.087336 1_455
