# generated using pymatgen
data_GdTiNbBi2O9
_symmetry_space_group_name_H-M   'P 1'
_cell_length_a   5.50872200
_cell_length_b   5.43065400
_cell_length_c   12.91968858
_cell_angle_alpha   78.29209116
_cell_angle_beta   90.00000000
_cell_angle_gamma   90.00000000
_symmetry_Int_Tables_number   1
_chemical_formula_structural   GdTiNbBi2O9
_chemical_formula_sum   'Gd2 Ti2 Nb2 Bi4 O18'
_cell_volume   378.46361907
_cell_formula_units_Z   2
loop_
 _symmetry_equiv_pos_site_id
 _symmetry_equiv_pos_as_xyz
  1  'x, y, z'
loop_
 _atom_site_type_symbol
 _atom_site_label
 _atom_site_symmetry_multiplicity
 _atom_site_fract_x
 _atom_site_fract_y
 _atom_site_fract_z
 _atom_site_occupancy
  Gd  Gd0  1  0.49065900  0.24177000  0.00021600  1
  Gd  Gd1  1  0.99065900  0.75823000  0.99978400  1
  Ti  Ti0  1  0.52908800  0.66495300  0.16867600  1
  Ti  Ti1  1  0.02908800  0.33504700  0.83132400  1
  Nb  Nb0  1  0.53383900  0.82288600  0.83115500  1
  Nb  Nb1  1  0.03383900  0.17711400  0.16884500  1
  Bi  Bi0  1  0.48021700  0.02112000  0.39737900  1
  Bi  Bi1  1  0.47510200  0.42594600  0.60198200  1
  Bi  Bi2  1  0.98021700  0.97888000  0.60262100  1
  Bi  Bi3  1  0.97510200  0.57405400  0.39801800  1
  O  O0  1  0.74566300  0.25786000  0.49893300  1
  O  O1  1  0.74413600  0.75531700  0.50124100  1
  O  O2  1  0.24566300  0.74214000  0.50106700  1
  O  O3  1  0.24413600  0.24468300  0.49875900  1
  O  O4  1  0.57876500  0.65752900  0.99955500  1
  O  O5  1  0.07876500  0.34247100  0.00044500  1
  O  O6  1  0.85387200  0.47578700  0.17336800  1
  O  O7  1  0.85889800  0.64107600  0.82692400  1
  O  O8  1  0.35387200  0.52421300  0.82663200  1
  O  O9  1  0.35889800  0.35892400  0.17307600  1
  O  O10  1  0.54886500  0.68050300  0.30668000  1
  O  O11  1  0.54508600  0.98357800  0.68722800  1
  O  O12  1  0.04886500  0.31949700  0.69332000  1
  O  O13  1  0.04508600  0.01642200  0.31277200  1
  O  O14  1  0.76729400  0.98239500  0.11847400  1
  O  O15  1  0.76831500  0.10001300  0.88125900  1
  O  O16  1  0.26729400  0.01760500  0.88152600  1
  O  O17  1  0.26831500  0.89998700  0.11874100  1
loop_
_geom_bond_atom_site_label_1
_geom_bond_atom_site_label_2
_geom_bond_distance
_geom_bond_site_symmetry_2
Gd0 O4 2.307741 1_554
Gd0 O5 2.334125 1_555
Gd0 O14 2.401520 1_545
Gd0 O15 2.402978 1_554
Gd0 O16 2.470837 1_554
Gd0 O17 2.477240 1_545
Gd0 O9 2.548703 1_555
Gd0 O8 2.560061 1_554
Gd1 O5 2.307741 1_656
Gd1 O4 2.334125 1_555
Gd1 O16 2.401520 1_665
Gd1 O17 2.402978 1_656
Gd1 O14 2.470837 1_556
Gd1 O15 2.477240 1_565
Gd1 O7 2.548703 1_555
Gd1 O6 2.560061 1_556
Nb0 O11 1.887994 1_555
Nb0 O8 1.911958 1_555
Nb0 O16 1.994235 1_565
Nb0 O7 2.050904 1_555
Nb0 O15 2.178939 1_565
Nb0 O4 2.192782 1_555
Nb1 O13 1.887994 1_555
Nb1 O6 1.911958 1_455
Nb1 O14 1.994235 1_445
Nb1 O9 2.050904 1_555
Nb1 O17 2.178939 1_545
Nb1 O5 2.192782 1_555
Bi0 O2 2.221653 1_545
Bi0 O1 2.282946 1_545
Bi0 O3 2.350806 1_555
Bi0 O10 2.411947 1_545
Bi0 O0 2.489416 1_555
Bi0 O13 2.636762 1_555
Bi1 O3 2.213393 1_555
Bi1 O0 2.306600 1_555
Bi1 O2 2.310264 1_555
Bi1 O11 2.461520 1_545
Bi1 O1 2.478921 1_555
Bi1 O12 2.638763 1_555
Bi2 O0 2.221653 1_565
Bi2 O3 2.282946 1_665
Bi2 O1 2.350806 1_555
Bi2 O12 2.411947 1_665
Bi2 O2 2.489416 1_655
Bi2 O11 2.636762 1_555
Bi3 O1 2.213393 1_555
Bi3 O2 2.306600 1_655
Bi3 O0 2.310264 1_555
Bi3 O13 2.461520 1_665
Bi3 O3 2.478921 1_655
Bi3 O10 2.638763 1_555
O0 O1 2.707738 1_555
O0 O1 2.723256 1_545
O0 O3 2.746894 1_655
O0 O3 2.763712 1_555
O0 O11 2.808385 1_545
O0 O12 3.090339 1_655
O1 O2 2.746894 1_555
O1 O2 2.763712 1_655
O1 O10 2.838167 1_555
O1 O13 3.047438 1_665
O1 O11 3.117969 1_555
O2 O3 2.707738 1_555
O2 O3 2.723256 1_565
O4 Ti0 2.210532 1_556
O4 O6 2.722883 1_556
O4 O7 2.728491 1_555
O4 O9 2.765329 1_556
O4 O8 2.776089 1_555
O5 Ti1 2.210532 1_554
O5 O8 2.722883 1_554
O5 O9 2.728491 1_555
O5 O7 2.765329 1_454
O5 O6 2.776089 1_455
O6 Ti0 2.057857 1_555
O7 Ti1 1.898917 1_655
O8 Ti1 2.057857 1_555
O9 Ti0 1.898917 1_555
O10 Ti0 1.805293 1_555
O10 O2 3.090339 1_555
O11 O3 3.047438 1_565
O12 Ti1 1.805293 1_555
O12 O3 2.838167 1_555
O13 O2 2.808385 1_545
O13 O3 3.117969 1_555
O14 Ti0 2.158861 1_555
O14 O6 2.740025 1_555
O14 O4 2.766171 1_554
O14 O5 2.807653 1_665
O15 Ti1 1.942882 1_655
O15 O4 2.776681 1_545
O15 O5 2.802218 1_656
O16 Ti1 2.158861 1_555
O16 O8 2.740025 1_555
O16 O5 2.766171 1_556
O16 O4 2.807653 1_545
O17 Ti0 1.942882 1_555
O17 O5 2.776681 1_565
O17 O4 2.802218 1_554
