# generated using pymatgen
data_FeMoP
_symmetry_space_group_name_H-M   'P 1'
_cell_length_a   3.62898034
_cell_length_b   5.88435711
_cell_length_c   6.67891595
_cell_angle_alpha   90.00012247
_cell_angle_beta   90.00000000
_cell_angle_gamma   90.00000000
_symmetry_Int_Tables_number   1
_chemical_formula_structural   FeMoP
_chemical_formula_sum   'Fe4 Mo4 P4'
_cell_volume   142.62301562
_cell_formula_units_Z   4
loop_
 _symmetry_equiv_pos_site_id
 _symmetry_equiv_pos_as_xyz
  1  'x, y, z'
loop_
 _atom_site_type_symbol
 _atom_site_label
 _atom_site_symmetry_multiplicity
 _atom_site_fract_x
 _atom_site_fract_y
 _atom_site_fract_z
 _atom_site_occupancy
  Fe  Fe0  1  0.25000000  0.86075076  0.93724021  1
  Fe  Fe1  1  0.25000000  0.36076899  0.56270123  1
  Fe  Fe2  1  0.75000000  0.13924924  0.06275979  1
  Fe  Fe3  1  0.75000000  0.63923101  0.43729877  1
  Mo  Mo0  1  0.25000000  0.97316580  0.32726886  1
  Mo  Mo1  1  0.25000000  0.47319032  0.17281716  1
  Mo  Mo2  1  0.75000000  0.02683420  0.67273114  1
  Mo  Mo3  1  0.75000000  0.52680968  0.82718284  1
  P  P0  1  0.25000000  0.22930142  0.88052129  1
  P  P1  1  0.25000000  0.72930172  0.61948842  1
  P  P2  1  0.75000000  0.77069858  0.11947871  1
  P  P3  1  0.75000000  0.27069828  0.38051158  1
loop_
_geom_bond_atom_site_label_1
_geom_bond_atom_site_label_2
_geom_bond_distance
_geom_bond_site_symmetry_2
Fe0 P0 2.201522 1_565
Fe0 P2 2.248252 1_456
Fe0 P2 2.248252 1_556
Fe0 P1 2.258800 1_555
Fe0 Fe2 2.584722 1_566
Fe0 Fe2 2.584722 1_466
Fe0 Mo0 2.687643 1_556
Fe0 Mo2 2.714495 1_565
Fe0 Mo2 2.714495 1_465
Fe0 Mo1 2.770646 1_556
Fe0 Mo3 2.773810 1_555
Fe0 Mo3 2.773810 1_455
Fe1 P1 2.201495 1_555
Fe1 P3 2.248100 1_555
Fe1 P3 2.248100 1_455
Fe1 P0 2.259269 1_555
Fe1 Fe3 2.584335 1_555
Fe1 Fe3 2.584335 1_455
Fe1 Mo1 2.686719 1_555
Fe1 Mo3 2.714282 1_555
Fe1 Mo3 2.714282 1_455
Fe1 Mo0 2.770299 1_545
Fe1 Mo2 2.773738 1_455
Fe1 Mo2 2.773738 1_555
Fe2 P2 2.201522 1_545
Fe2 P0 2.248252 1_654
Fe2 P0 2.248252 1_554
Fe2 P3 2.258800 1_555
Fe2 Mo2 2.687643 1_554
Fe2 Mo0 2.714495 1_645
Fe2 Mo0 2.714495 1_545
Fe2 Mo3 2.770646 1_554
Fe2 Mo1 2.773810 1_555
Fe2 Mo1 2.773810 1_655
Fe3 P3 2.201495 1_555
Fe3 P1 2.248100 1_555
Fe3 P1 2.248100 1_655
Fe3 P2 2.259269 1_555
Fe3 Mo3 2.686719 1_555
Fe3 Mo1 2.714282 1_555
Fe3 Mo1 2.714282 1_655
Fe3 Mo2 2.770299 1_565
Fe3 Mo0 2.773738 1_555
Fe3 Mo0 2.773738 1_655
Mo0 P1 2.422470 1_555
Mo0 P3 2.546386 1_565
Mo0 P3 2.546386 1_465
Mo0 P2 2.576393 1_455
Mo0 P2 2.576393 1_555
Mo0 Mo2 2.952253 1_565
Mo0 Mo2 2.952253 1_465
Mo1 P0 2.422962 1_554
Mo1 P2 2.546379 1_555
Mo1 P2 2.546379 1_455
Mo1 P3 2.576119 1_555
Mo1 P3 2.576119 1_455
Mo1 Mo3 2.953122 1_554
Mo1 Mo3 2.953122 1_454
Mo2 P3 2.422470 1_555
Mo2 P1 2.546386 1_645
Mo2 P1 2.546386 1_545
Mo2 P0 2.576393 1_555
Mo2 P0 2.576393 1_655
Mo3 P2 2.422962 1_556
Mo3 P0 2.546379 1_555
Mo3 P0 2.546379 1_655
Mo3 P1 2.576119 1_655
Mo3 P1 2.576119 1_555
