# generated using pymatgen
data_Sr3Gd2(BO3)4
_symmetry_space_group_name_H-M   'P 1'
_cell_length_a   7.42484900
_cell_length_b   8.76714000
_cell_length_c   16.50026200
_cell_angle_alpha   90.00000000
_cell_angle_beta   90.00000000
_cell_angle_gamma   90.00000000
_symmetry_Int_Tables_number   1
_chemical_formula_structural   Sr3Gd2(BO3)4
_chemical_formula_sum   'Sr12 Gd8 B16 O48'
_cell_volume   1074.07945073
_cell_formula_units_Z   4
loop_
 _symmetry_equiv_pos_site_id
 _symmetry_equiv_pos_as_xyz
  1  'x, y, z'
loop_
 _atom_site_type_symbol
 _atom_site_label
 _atom_site_symmetry_multiplicity
 _atom_site_fract_x
 _atom_site_fract_y
 _atom_site_fract_z
 _atom_site_occupancy
  Sr  Sr0  1  0.02873000  0.32999400  0.45778100  1
  Sr  Sr1  1  0.97127000  0.67000600  0.95778100  1
  Sr  Sr2  1  0.52873000  0.17000600  0.45778100  1
  Sr  Sr3  1  0.47127000  0.82999400  0.95778100  1
  Sr  Sr4  1  0.17849300  0.84747400  0.41374500  1
  Sr  Sr5  1  0.82150700  0.15252600  0.91374500  1
  Sr  Sr6  1  0.67849300  0.65252600  0.41374500  1
  Sr  Sr7  1  0.32150700  0.34747400  0.91374500  1
  Sr  Sr8  1  0.31317900  0.35168300  0.66419600  1
  Sr  Sr9  1  0.68682100  0.64831700  0.16419600  1
  Sr  Sr10  1  0.81317900  0.14831700  0.66419600  1
  Sr  Sr11  1  0.18682100  0.85168300  0.16419600  1
  Gd  Gd0  1  0.31853700  0.46610400  0.28961800  1
  Gd  Gd1  1  0.68146300  0.53389600  0.78961800  1
  Gd  Gd2  1  0.81853700  0.03389600  0.28961800  1
  Gd  Gd3  1  0.18146300  0.96610400  0.78961800  1
  Gd  Gd4  1  0.03034500  0.33001300  0.11974700  1
  Gd  Gd5  1  0.96965500  0.66998700  0.61974700  1
  Gd  Gd6  1  0.53034500  0.16998700  0.11974700  1
  Gd  Gd7  1  0.46965500  0.83001300  0.61974700  1
  B  B0  1  0.17048300  0.06255000  0.99812600  1
  B  B1  1  0.82951700  0.93745000  0.49812600  1
  B  B2  1  0.67048300  0.43745000  0.99812600  1
  B  B3  1  0.32951700  0.56255000  0.49812600  1
  B  B4  1  0.00708800  0.37308700  0.78640200  1
  B  B5  1  0.99291200  0.62691300  0.28640200  1
  B  B6  1  0.50708800  0.12691300  0.78640200  1
  B  B7  1  0.49291200  0.87308700  0.28640200  1
  B  B8  1  0.16034400  0.04476800  0.58532500  1
  B  B9  1  0.83965600  0.95523200  0.08532500  1
  B  B10  1  0.66034400  0.45523200  0.58532500  1
  B  B11  1  0.33965600  0.54476800  0.08532500  1
  B  B12  1  0.21502600  0.14895100  0.28727000  1
  B  B13  1  0.78497400  0.85104900  0.78727000  1
  B  B14  1  0.71502600  0.35104900  0.28727000  1
  B  B15  1  0.28497400  0.64895100  0.78727000  1
  O  O0  1  0.24093700  0.22235700  0.21330200  1
  O  O1  1  0.75906300  0.77764300  0.71330200  1
  O  O2  1  0.74093700  0.27764300  0.21330200  1
  O  O3  1  0.25906300  0.72235700  0.71330200  1
  O  O4  1  0.09325000  0.19110600  0.58385600  1
  O  O5  1  0.90675000  0.80889400  0.08385600  1
  O  O6  1  0.59325000  0.30889400  0.58385600  1
  O  O7  1  0.40675000  0.69110600  0.08385600  1
  O  O8  1  0.09115500  0.20680200  0.00159400  1
  O  O9  1  0.90884500  0.79319800  0.50159400  1
  O  O10  1  0.59115500  0.29319800  0.00159400  1
  O  O11  1  0.40884500  0.70680200  0.50159400  1
  O  O12  1  0.12950800  0.01021400  0.29146300  1
  O  O13  1  0.87049200  0.98978600  0.79146300  1
  O  O14  1  0.62950800  0.48978600  0.29146300  1
  O  O15  1  0.37049200  0.51021400  0.79146300  1
  O  O16  1  0.19857400  0.50139500  0.03520500  1
  O  O17  1  0.80142600  0.49860500  0.53520500  1
  O  O18  1  0.69857400  0.99860500  0.03520500  1
  O  O19  1  0.30142600  0.00139500  0.53520500  1
  O  O20  1  0.11030400  0.24142900  0.78412500  1
  O  O21  1  0.88969600  0.75857100  0.28412500  1
  O  O22  1  0.61030400  0.25857100  0.78412500  1
  O  O23  1  0.38969600  0.74142900  0.28412500  1
  O  O24  1  0.04772800  0.55161600  0.21489500  1
  O  O25  1  0.95227200  0.44838400  0.71489500  1
  O  O26  1  0.54772800  0.94838400  0.21489500  1
  O  O27  1  0.45227200  0.05161600  0.71489500  1
  O  O28  1  0.26953800  0.22654700  0.35520900  1
  O  O29  1  0.73046200  0.77345300  0.85520900  1
  O  O30  1  0.76953800  0.27345300  0.35520900  1
  O  O31  1  0.23046200  0.72654700  0.85520900  1
  O  O32  1  0.38320600  0.46391300  0.43811800  1
  O  O33  1  0.61679400  0.53608700  0.93811800  1
  O  O34  1  0.88320600  0.03608700  0.43811800  1
  O  O35  1  0.11679400  0.96391300  0.93811800  1
  O  O36  1  0.40765800  0.43936300  0.14113000  1
  O  O37  1  0.59234200  0.56063700  0.64113000  1
  O  O38  1  0.90765800  0.06063700  0.14113000  1
  O  O39  1  0.09234200  0.93936300  0.64113000  1
  O  O40  1  0.30689000  0.02805000  0.05311500  1
  O  O41  1  0.69311000  0.97195000  0.55311500  1
  O  O42  1  0.80689000  0.47195000  0.05311500  1
  O  O43  1  0.19311000  0.52805000  0.55311500  1
  O  O44  1  0.05960500  0.57041500  0.35877800  1
  O  O45  1  0.94039500  0.42958500  0.85877800  1
  O  O46  1  0.55960500  0.92958500  0.35877800  1
  O  O47  1  0.44039500  0.07041500  0.85877800  1
loop_
_geom_bond_atom_site_label_1
_geom_bond_atom_site_label_2
_geom_bond_distance
_geom_bond_site_symmetry_2
Gd0 O14 2.318429 1_555
Gd0 O28 2.390529 1_555
Gd0 O44 2.415511 1_555
Gd0 O23 2.472621 1_555
Gd0 O24 2.474911 1_555
Gd0 O32 2.496965 1_555
Gd0 O0 2.546420 1_555
Gd0 O36 2.548680 1_555
Gd1 O15 2.318429 1_555
Gd1 O29 2.390529 1_555
Gd1 O45 2.415511 1_555
Gd1 O22 2.472621 1_555
Gd1 O25 2.474911 1_555
Gd1 O33 2.496965 1_555
Gd1 O1 2.546420 1_555
Gd1 O37 2.548680 1_555
Gd2 O12 2.318429 1_655
Gd2 O30 2.390529 1_555
Gd2 O46 2.415511 1_545
Gd2 O21 2.472621 1_545
Gd2 O26 2.474911 1_545
Gd2 O34 2.496965 1_555
Gd2 O2 2.546420 1_555
Gd2 O38 2.548680 1_555
Gd3 O13 2.318429 1_455
Gd3 O31 2.390529 1_555
Gd3 O47 2.415511 1_565
Gd3 O20 2.472621 1_565
Gd3 O27 2.474911 1_565
Gd3 O35 2.496965 1_555
Gd3 O3 2.546420 1_555
Gd3 O39 2.548680 1_555
Gd4 O8 2.274087 1_555
Gd4 O42 2.347327 1_455
Gd4 O0 2.391373 1_555
Gd4 O16 2.400773 1_555
Gd4 O24 2.501204 1_555
Gd4 O38 2.555721 1_455
Gd4 O2 2.685358 1_455
Gd5 O9 2.274087 1_555
Gd5 O43 2.347327 1_655
Gd5 O1 2.391373 1_555
Gd5 O17 2.400773 1_555
Gd5 O25 2.501204 1_555
Gd5 O39 2.555721 1_655
Gd5 O3 2.685358 1_655
Gd6 O10 2.274087 1_555
Gd6 O40 2.347327 1_555
Gd6 O2 2.391373 1_555
Gd6 O18 2.400773 1_545
Gd6 O26 2.501204 1_545
Gd6 O36 2.555721 1_555
Gd6 O0 2.685358 1_555
Gd7 O11 2.274087 1_555
Gd7 O41 2.347327 1_555
Gd7 O3 2.391373 1_555
Gd7 O19 2.400773 1_565
Gd7 O27 2.501204 1_565
Gd7 O37 2.555721 1_555
Gd7 O1 2.685358 1_555
B0 O35 1.373724 1_545
B0 O40 1.393020 1_556
B0 O8 1.396282 1_556
B1 O34 1.373724 1_565
B1 O41 1.393020 1_555
B1 O9 1.396282 1_555
B2 O33 1.373724 1_555
B2 O42 1.393020 1_556
B2 O10 1.396282 1_556
B3 O32 1.373724 1_555
B3 O43 1.393020 1_555
B3 O11 1.396282 1_555
B4 O45 1.384458 1_455
B4 O20 1.386019 1_555
B4 O25 1.411935 1_455
B5 O44 1.384458 1_655
B5 O21 1.386019 1_555
B5 O24 1.411935 1_655
B6 O47 1.384458 1_555
B6 O22 1.386019 1_555
B6 O27 1.411935 1_555
B7 O46 1.384458 1_555
B7 O23 1.386019 1_555
B7 O26 1.411935 1_555
B8 O4 1.376501 1_555
B8 O19 1.387730 1_555
B8 O39 1.398841 1_545
B9 O5 1.376501 1_555
B9 O18 1.387730 1_555
B9 O38 1.398841 1_565
B10 O6 1.376501 1_555
B10 O17 1.387730 1_555
B10 O37 1.398841 1_555
B11 O7 1.376501 1_555
B11 O16 1.387730 1_555
B11 O36 1.398841 1_555
B12 O28 1.372328 1_555
B12 O12 1.373830 1_555
B12 O0 1.393119 1_555
B13 O29 1.372328 1_555
B13 O13 1.373830 1_555
B13 O1 1.393119 1_555
B14 O30 1.372328 1_555
B14 O14 1.373830 1_555
B14 O2 1.393119 1_555
B15 O31 1.372328 1_555
B15 O15 1.373830 1_555
B15 O3 1.393119 1_555
O4 Sr0 2.457578 1_555
O4 Sr10 2.494450 1_455
O4 Sr8 2.530947 1_555
O5 Sr1 2.457578 1_554
O5 Sr11 2.494450 1_655
O5 Sr9 2.530947 1_555
O6 Sr2 2.457578 1_555
O6 Sr8 2.494450 1_555
O6 Sr10 2.530947 1_555
O7 Sr3 2.457578 1_554
O7 Sr9 2.494450 1_555
O7 Sr11 2.530947 1_555
O8 Sr5 2.517133 1_454
O8 Sr7 2.558784 1_554
O9 Sr4 2.517133 1_655
O9 Sr6 2.558784 1_555
O10 Sr7 2.517133 1_554
O10 Sr5 2.558784 1_554
O11 Sr6 2.517133 1_555
O11 Sr4 2.558784 1_555
O12 Sr4 2.497797 1_545
O12 Sr11 2.553928 1_545
O13 Sr5 2.497797 1_565
O13 Sr10 2.553928 1_565
O14 Sr6 2.497797 1_555
O14 Sr9 2.553928 1_555
O15 Sr7 2.497797 1_555
O15 Sr8 2.553928 1_555
O16 Sr1 2.581773 1_454
O16 Sr7 2.582758 1_554
O17 Sr0 2.581773 1_655
O17 Sr6 2.582758 1_555
O18 Sr3 2.581773 1_554
O18 Sr5 2.582758 1_564
O19 Sr2 2.581773 1_555
O19 Sr4 2.582758 1_545
O20 Sr8 2.668186 1_555
O20 Sr7 2.810297 1_555
O20 Sr10 3.073953 1_455
O20 Sr5 3.127255 1_455
O21 Sr9 2.668186 1_555
O21 Sr6 2.810297 1_555
O21 Sr11 3.073953 1_655
O21 Sr4 3.127255 1_655
O22 Sr10 2.668186 1_555
O22 Sr5 2.810297 1_555
O22 Sr8 3.073953 1_555
O22 Sr7 3.127255 1_555
O23 Sr11 2.668186 1_555
O23 Sr4 2.810297 1_555
O23 Sr9 3.073953 1_555
O23 Sr6 3.127255 1_555
O24 Sr9 2.932447 1_455
O24 Sr11 2.947390 1_555
O25 Sr8 2.932447 1_655
O25 Sr10 2.947390 1_555
O26 Sr11 2.932447 1_555
O26 Sr9 2.947390 1_555
O27 Sr10 2.932447 1_555
O27 Sr8 2.947390 1_555
O28 Sr2 2.610309 1_555
O28 Sr0 2.623696 1_555
O29 Sr3 2.610309 1_555
O29 Sr1 2.623696 1_555
O30 Sr0 2.610309 1_655
O30 Sr2 2.623696 1_555
O31 Sr1 2.610309 1_455
O31 Sr3 2.623696 1_555
O32 Sr6 2.775428 1_555
O32 Sr2 2.812870 1_555
O32 Sr0 2.900139 1_555
O33 Sr7 2.775428 1_555
O33 Sr3 2.812870 1_555
O33 Sr1 2.900139 1_555
O34 Sr4 2.775428 1_645
O34 Sr0 2.812870 1_655
O34 Sr2 2.900139 1_555
O35 Sr5 2.775428 1_465
O35 Sr1 2.812870 1_455
O35 Sr3 2.900139 1_555
O36 Sr9 2.792325 1_555
O37 Sr8 2.792325 1_555
O38 Sr11 2.792325 1_645
O39 Sr10 2.792325 1_465
O40 Sr11 2.558319 1_545
O40 Sr3 2.641796 1_544
O41 Sr10 2.558319 1_565
O41 Sr2 2.641796 1_565
O42 Sr9 2.558319 1_555
O42 Sr1 2.641796 1_554
O43 Sr8 2.558319 1_555
O43 Sr0 2.641796 1_555
O44 Sr0 2.676558 1_555
O44 Sr4 2.738962 1_555
O44 Sr6 3.057453 1_455
O45 Sr1 2.676558 1_555
O45 Sr5 2.738962 1_555
O45 Sr7 3.057453 1_655
O46 Sr2 2.676558 1_565
O46 Sr6 2.738962 1_555
O46 Sr4 3.057453 1_555
O47 Sr3 2.676558 1_545
O47 Sr7 2.738962 1_555
O47 Sr5 3.057453 1_555
