# generated using pymatgen
data_H9CN9
_symmetry_space_group_name_H-M   'P 1'
_cell_length_a   4.96340656
_cell_length_b   8.68480047
_cell_length_c   9.49443627
_cell_angle_alpha   109.81651771
_cell_angle_beta   98.61541795
_cell_angle_gamma   100.31954028
_symmetry_Int_Tables_number   1
_chemical_formula_structural   H9CN9
_chemical_formula_sum   'H18 C2 N18'
_cell_volume   368.87545253
_cell_formula_units_Z   2
loop_
 _symmetry_equiv_pos_site_id
 _symmetry_equiv_pos_as_xyz
  1  'x, y, z'
loop_
 _atom_site_type_symbol
 _atom_site_label
 _atom_site_symmetry_multiplicity
 _atom_site_fract_x
 _atom_site_fract_y
 _atom_site_fract_z
 _atom_site_occupancy
  H  H0  1  0.16614400  0.62493000  0.94023700  1
  H  H1  1  0.83385600  0.37507000  0.05976300  1
  H  H2  1  0.27302000  0.81832000  0.07369700  1
  H  H3  1  0.72698000  0.18168000  0.92630300  1
  H  H4  1  0.45594700  0.81886600  0.86842600  1
  H  H5  1  0.54405300  0.18113400  0.13157400  1
  H  H6  1  0.71946800  0.82263700  0.00233900  1
  H  H7  1  0.28053200  0.17736300  0.99766100  1
  H  H8  1  0.89830900  0.52225100  0.66305300  1
  H  H9  1  0.10169100  0.47774900  0.33694700  1
  H  H10  1  0.87946300  0.32599900  0.65474600  1
  H  H11  1  0.12053700  0.67400100  0.34525400  1
  H  H12  1  0.57140800  0.55574700  0.81032000  1
  H  H13  1  0.42859200  0.44425300  0.18968000  1
  H  H14  1  0.44468800  0.35940100  0.65195000  1
  H  H15  1  0.55531200  0.64059900  0.34805000  1
  H  H16  1  0.58814000  0.36981200  0.83471500  1
  H  H17  1  0.41186000  0.63018800  0.16528500  1
  C  C0  1  0.75595400  0.94622100  0.60942900  1
  C  C1  1  0.24404600  0.05377900  0.39057100  1
  N  N0  1  0.59522900  0.04199200  0.56163200  1
  N  N1  1  0.40477100  0.95800800  0.43836800  1
  N  N2  1  0.75597400  0.78304200  0.53544800  1
  N  N3  1  0.24402600  0.21695800  0.46455200  1
  N  N4  1  0.94769700  0.75150400  0.62848400  1
  N  N5  1  0.05230300  0.24849600  0.37151600  1
  N  N6  1  0.06051100  0.89079700  0.75588100  1
  N  N7  1  0.93948900  0.10920300  0.24411900  1
  N  N8  1  0.94460600  0.01519900  0.74642600  1
  N  N9  1  0.05539400  0.98480100  0.25357400  1
  N  N10  1  0.33944500  0.71322300  0.01808300  1
  N  N11  1  0.66055500  0.28677700  0.98191700  1
  N  N12  1  0.53288800  0.75027900  0.92738400  1
  N  N13  1  0.46711200  0.24972100  0.07261600  1
  N  N14  1  0.87821800  0.44534600  0.72513300  1
  N  N15  1  0.12178200  0.55465400  0.27486700  1
  N  N16  1  0.59837500  0.43088800  0.75485200  1
  N  N17  1  0.40162500  0.56911200  0.24514800  1
loop_
_geom_bond_atom_site_label_1
_geom_bond_atom_site_label_2
_geom_bond_distance
_geom_bond_site_symmetry_2
H0 N10 1.031066 1_556
H1 N11 1.031066 1_554
H2 N10 1.026554 1_555
H3 N11 1.026554 1_555
H4 N12 1.028363 1_555
H5 N13 1.028363 1_555
H6 N12 1.024596 1_554
H7 N13 1.024596 1_556
H8 N14 1.031559 1_555
H9 N15 1.031559 1_555
H10 N14 1.027067 1_555
H11 N15 1.027067 1_555
H12 N16 1.075665 1_555
H13 N17 1.075665 1_555
H14 N16 1.057182 1_555
H14 N3 1.795359 1_555
H15 N17 1.057182 1_555
H15 N2 1.795359 1_555
H16 N16 1.064649 1_555
H17 N17 1.064649 1_555
C0 N2 1.351634 1_555
C0 N8 1.353996 1_565
C0 N0 1.385398 1_565
C1 N3 1.351634 1_555
C1 N9 1.353996 1_545
C1 N1 1.385398 1_545
N0 N1 1.279855 1_545
N2 N4 1.329064 1_555
N3 N5 1.329064 1_555
N4 N6 1.342503 1_655
N5 N7 1.342503 1_455
N6 N8 1.333888 1_465
N7 N9 1.333888 1_645
N14 N16 1.450376 1_555
N15 N17 1.450376 1_555
