# generated using pymatgen
data_Ca2IrN3
_symmetry_space_group_name_H-M   'P 1'
_cell_length_a   6.11700188
_cell_length_b   10.87808225
_cell_length_c   11.92870200
_cell_angle_alpha   90.00000000
_cell_angle_beta   90.00000000
_cell_angle_gamma   27.23114895
_symmetry_Int_Tables_number   1
_chemical_formula_structural   Ca2IrN3
_chemical_formula_sum   'Ca8 Ir4 N12'
_cell_volume   363.20556740
_cell_formula_units_Z   4
loop_
 _symmetry_equiv_pos_site_id
 _symmetry_equiv_pos_as_xyz
  1  'x, y, z'
loop_
 _atom_site_type_symbol
 _atom_site_label
 _atom_site_symmetry_multiplicity
 _atom_site_fract_x
 _atom_site_fract_y
 _atom_site_fract_z
 _atom_site_occupancy
  Ca  Ca0  1  0.00000000  0.45184400  0.64926600  1
  Ca  Ca1  1  0.00000000  0.54815600  0.35073400  1
  Ca  Ca2  1  0.00000000  0.04815600  0.14926600  1
  Ca  Ca3  1  0.00000000  0.95184400  0.85073400  1
  Ca  Ca4  1  0.00000000  0.13386500  0.57610000  1
  Ca  Ca5  1  0.00000000  0.86613500  0.42390000  1
  Ca  Ca6  1  0.00000000  0.36613500  0.07610000  1
  Ca  Ca7  1  0.00000000  0.63386500  0.92390000  1
  Ir  Ir0  1  0.00000000  0.25126100  0.84872300  1
  Ir  Ir1  1  0.00000000  0.74873900  0.15127700  1
  Ir  Ir2  1  0.00000000  0.24873900  0.34872300  1
  Ir  Ir3  1  0.00000000  0.75126100  0.65127700  1
  N  N0  1  0.00000000  0.15501500  0.97850600  1
  N  N1  1  0.00000000  0.84498500  0.02149400  1
  N  N2  1  0.00000000  0.34498500  0.47850600  1
  N  N3  1  0.00000000  0.65501500  0.52149400  1
  N  N4  1  0.00000000  0.43341000  0.85823100  1
  N  N5  1  0.00000000  0.56659000  0.14176900  1
  N  N6  1  0.00000000  0.06659000  0.35823100  1
  N  N7  1  0.00000000  0.93341000  0.64176900  1
  N  N8  1  0.50000000  0.45366900  0.75000000  1
  N  N9  1  0.50000000  0.04633100  0.25000000  1
  N  N10  1  0.50000000  0.54633100  0.25000000  1
  N  N11  1  0.50000000  0.95366900  0.75000000  1
loop_
_geom_bond_atom_site_label_1
_geom_bond_atom_site_label_2
_geom_bond_distance
_geom_bond_site_symmetry_2
Ca0 N2 2.345286 1_555
Ca0 N4 2.500734 1_555
Ca0 N3 2.684704 1_555
Ca0 N7 2.807625 1_455
Ca0 N7 2.807625 1_645
Ca1 N3 2.345286 1_555
Ca1 N5 2.500734 1_555
Ca1 N2 2.684704 1_555
Ca1 N6 2.807625 1_655
Ca1 N6 2.807625 1_465
Ca2 N0 2.345286 1_554
Ca2 N6 2.500734 1_555
Ca2 N1 2.684704 1_545
Ca2 N5 2.807625 1_645
Ca2 N5 2.807625 1_455
Ca3 N1 2.345286 1_556
Ca3 N7 2.500734 1_555
Ca3 N0 2.684704 1_565
Ca3 N4 2.807625 1_465
Ca3 N4 2.807625 1_655
Ca4 N7 2.317002 1_545
Ca4 N2 2.574796 1_555
Ca4 N11 2.615027 1_545
Ca4 N8 2.615027 1_455
Ca4 N6 2.699966 1_555
Ca4 N3 2.883015 1_645
Ca4 N3 2.883015 1_455
Ca5 N6 2.317002 1_565
Ca5 N3 2.574796 1_555
Ca5 N9 2.615027 1_465
Ca5 N10 2.615027 1_555
Ca5 N7 2.699966 1_555
Ca5 N2 2.883015 1_465
Ca5 N2 2.883015 1_655
Ca6 N5 2.317002 1_555
Ca6 N0 2.574796 1_554
Ca6 N10 2.615027 1_455
Ca6 N9 2.615027 1_555
Ca6 N4 2.699966 1_554
Ca6 N1 2.883015 1_455
Ca6 N1 2.883015 1_645
Ca7 N4 2.317002 1_555
Ca7 N1 2.574796 1_556
Ca7 N8 2.615027 1_555
Ca7 N11 2.615027 1_455
Ca7 N5 2.699966 1_556
Ca7 N0 2.883015 1_655
Ca7 N0 2.883015 1_465
Ir0 N0 1.868929 1_555
Ir0 N8 1.900918 1_455
Ir0 N11 1.900918 1_545
Ir0 N4 1.984675 1_555
Ir1 N1 1.868929 1_555
Ir1 N10 1.900918 1_555
Ir1 N9 1.900918 1_465
Ir1 N5 1.984675 1_555
Ir2 N2 1.868929 1_555
Ir2 N9 1.900918 1_555
Ir2 N10 1.900918 1_455
Ir2 N6 1.984675 1_555
Ir3 N3 1.868929 1_555
Ir3 N11 1.900918 1_455
Ir3 N8 1.900918 1_555
Ir3 N7 1.984675 1_555
