# generated using pymatgen
data_Ba3BiIr2O9
_symmetry_space_group_name_H-M   'P 1'
_cell_length_a   5.99688632
_cell_length_b   5.99688632
_cell_length_c   14.97971228
_cell_angle_alpha   88.98462422
_cell_angle_beta   88.98462422
_cell_angle_gamma   119.63595605
_symmetry_Int_Tables_number   1
_chemical_formula_structural   Ba3BiIr2O9
_chemical_formula_sum   'Ba6 Bi2 Ir4 O18'
_cell_volume   467.94764683
_cell_formula_units_Z   2
loop_
 _symmetry_equiv_pos_site_id
 _symmetry_equiv_pos_as_xyz
  1  'x, y, z'
loop_
 _atom_site_type_symbol
 _atom_site_label
 _atom_site_symmetry_multiplicity
 _atom_site_fract_x
 _atom_site_fract_y
 _atom_site_fract_z
 _atom_site_occupancy
  Ba  Ba0  1  0.99295600  0.00704400  0.25000000  1
  Ba  Ba1  1  0.00704400  0.99295600  0.75000000  1
  Ba  Ba2  1  0.32513100  0.65968100  0.09473900  1
  Ba  Ba3  1  0.34031900  0.67486900  0.40526100  1
  Ba  Ba4  1  0.67486900  0.34031900  0.90526100  1
  Ba  Ba5  1  0.65968100  0.32513100  0.59473900  1
  Bi  Bi0  1  0.00000000  0.00000000  0.00000000  1
  Bi  Bi1  1  0.00000000  0.00000000  0.50000000  1
  Ir  Ir0  1  0.35256000  0.67915600  0.83427200  1
  Ir  Ir1  1  0.32084400  0.64744000  0.66572800  1
  Ir  Ir2  1  0.64744000  0.32084400  0.16572800  1
  Ir  Ir3  1  0.67915600  0.35256000  0.33427200  1
  O  O0  1  0.50473700  0.49526300  0.25000000  1
  O  O1  1  0.49526300  0.50473700  0.75000000  1
  O  O2  1  0.78784400  0.14066800  0.09254200  1
  O  O3  1  0.85933200  0.21215600  0.40745800  1
  O  O4  1  0.21215600  0.85933200  0.90745800  1
  O  O5  1  0.14066800  0.78784400  0.59254200  1
  O  O6  1  0.97288000  0.49529900  0.23908700  1
  O  O7  1  0.50470100  0.02712000  0.26091300  1
  O  O8  1  0.02712000  0.50470100  0.76091300  1
  O  O9  1  0.49529900  0.97288000  0.73908700  1
  O  O10  1  0.31789700  0.13892200  0.10195200  1
  O  O11  1  0.86107800  0.68210300  0.39804800  1
  O  O12  1  0.68210300  0.86107800  0.89804800  1
  O  O13  1  0.13892200  0.31789700  0.60195200  1
  O  O14  1  0.39905900  0.21837000  0.42729300  1
  O  O15  1  0.78163000  0.60094100  0.07270700  1
  O  O16  1  0.60094100  0.78163000  0.57270700  1
  O  O17  1  0.21837000  0.39905900  0.92729300  1
loop_
_geom_bond_atom_site_label_1
_geom_bond_atom_site_label_2
_geom_bond_distance
_geom_bond_site_symmetry_2
Ba0 O11 2.757077 1_545
Ba0 O10 2.757077 1_655
Ba0 O3 2.954503 1_555
Ba0 O2 2.954503 1_555
Ba0 O6 2.991123 1_555
Ba0 O7 2.991123 1_555
Ba0 O0 3.017400 1_655
Ba0 O0 3.017400 1_545
Ba0 O7 3.018659 1_655
Ba0 O6 3.018659 1_545
Ba0 O14 3.447677 1_655
Ba0 O15 3.447677 1_545
Ba1 O12 2.757077 1_455
Ba1 O13 2.757077 1_565
Ba1 O4 2.954503 1_555
Ba1 O5 2.954503 1_555
Ba1 O8 2.991123 1_555
Ba1 O9 2.991123 1_555
Ba1 O1 3.017400 1_565
Ba1 O1 3.017400 1_455
Ba1 O8 3.018659 1_565
Ba1 O9 3.018659 1_455
Ba1 O17 3.447677 1_565
Ba1 O16 3.447677 1_455
Ba2 O6 2.795120 1_455
Ba2 O2 2.845794 1_565
Ba2 O17 2.889707 1_554
Ba2 O10 2.899536 1_565
Ba2 O0 2.932449 1_555
Ba2 O15 2.941616 1_555
Ba2 O10 3.101637 1_555
Ba2 O15 3.124567 1_455
Ba2 O7 3.186537 1_565
Ba2 O2 3.187405 1_455
Ba2 O4 3.242435 1_554
Ba2 O12 3.437420 1_554
Ba3 O7 2.795120 1_565
Ba3 O3 2.845794 1_455
Ba3 O16 2.889707 1_555
Ba3 O11 2.899536 1_455
Ba3 O0 2.932449 1_555
Ba3 O14 2.941616 1_555
Ba3 O11 3.101637 1_555
Ba3 O14 3.124567 1_565
Ba3 O6 3.186537 1_455
Ba3 O3 3.187405 1_565
Ba3 O5 3.242435 1_555
Ba3 O13 3.437420 1_555
Ba4 O8 2.795120 1_655
Ba4 O4 2.845794 1_545
Ba4 O15 2.889707 1_556
Ba4 O12 2.899536 1_545
Ba4 O1 2.932449 1_555
Ba4 O17 2.941616 1_555
Ba4 O12 3.101637 1_555
Ba4 O17 3.124567 1_655
Ba4 O9 3.186537 1_545
Ba4 O4 3.187405 1_655
Ba4 O2 3.242435 1_556
Ba4 O10 3.437420 1_556
Ba5 O9 2.795120 1_545
Ba5 O5 2.845794 1_655
Ba5 O14 2.889707 1_555
Ba5 O13 2.899536 1_655
Ba5 O1 2.932449 1_555
Ba5 O16 2.941616 1_555
Ba5 O13 3.101637 1_555
Ba5 O16 3.124567 1_545
Ba5 O8 3.186537 1_655
Ba5 O5 3.187405 1_545
Ba5 O3 3.242435 1_555
Ba5 O11 3.437420 1_555
Bi0 O10 2.288741 1_555
Bi0 O12 2.288741 1_444
Bi0 O4 2.300511 1_544
Bi0 O2 2.300511 1_455
Bi0 O15 2.320740 1_445
Bi0 O17 2.320740 1_554
Bi1 O13 2.288741 1_555
Bi1 O11 2.288741 1_445
Bi1 O3 2.300511 1_455
Bi1 O5 2.300511 1_545
Bi1 O14 2.320740 1_555
Bi1 O16 2.320740 1_445
Ir0 O17 1.987751 1_555
Ir0 O12 1.994995 1_555
Ir0 O4 1.996821 1_555
Ir0 O8 2.051445 1_555
Ir0 O9 2.060333 1_555
Ir0 O1 2.076954 1_555
Ir1 O16 1.987751 1_555
Ir1 O13 1.994995 1_555
Ir1 O5 1.996821 1_555
Ir1 O9 2.051445 1_555
Ir1 O8 2.060333 1_555
Ir1 O1 2.076954 1_555
Ir2 O15 1.987751 1_555
Ir2 O10 1.994995 1_555
Ir2 O2 1.996821 1_555
Ir2 O6 2.051445 1_555
Ir2 O7 2.060333 1_555
Ir2 O0 2.076954 1_555
Ir3 O14 1.987751 1_555
Ir3 O11 1.994995 1_555
Ir3 O3 1.996821 1_555
Ir3 O7 2.051445 1_555
Ir3 O6 2.060333 1_555
Ir3 O0 2.076954 1_555
O2 O7 2.889969 1_555
O3 O6 2.889969 1_555
O4 O9 2.889969 1_555
O5 O8 2.889969 1_555
O10 O15 2.809964 1_555
O10 O2 2.814076 1_555
O10 O7 2.855747 1_555
O11 O14 2.809964 1_555
O11 O3 2.814076 1_555
O11 O6 2.855747 1_555
O12 O17 2.809964 1_555
O12 O4 2.814076 1_555
O12 O9 2.855747 1_555
O13 O16 2.809964 1_555
O13 O5 2.814076 1_555
O13 O8 2.855747 1_555
O14 O3 2.789525 1_555
O15 O2 2.789525 1_555
O16 O5 2.789525 1_555
O17 O4 2.789525 1_555
