# generated using pymatgen
data_Ni5O4
_symmetry_space_group_name_H-M   'P 1'
_cell_length_a   5.09476545
_cell_length_b   5.09476545
_cell_length_c   5.09476545
_cell_angle_alpha   99.35883055
_cell_angle_beta   99.35883055
_cell_angle_gamma   132.43597732
_symmetry_Int_Tables_number   1
_chemical_formula_structural   Ni5O4
_chemical_formula_sum   'Ni5 O4'
_cell_volume   89.31197940
_cell_formula_units_Z   1
loop_
 _symmetry_equiv_pos_site_id
 _symmetry_equiv_pos_as_xyz
  1  'x, y, z'
loop_
 _atom_site_type_symbol
 _atom_site_label
 _atom_site_symmetry_multiplicity
 _atom_site_fract_x
 _atom_site_fract_y
 _atom_site_fract_z
 _atom_site_occupancy
  Ni  Ni0  1  0.40465300  0.79132700  0.19598000  1
  Ni  Ni1  1  0.00000000  0.00000000  0.00000000  1
  Ni  Ni2  1  0.59534700  0.20867300  0.80402000  1
  Ni  Ni3  1  0.20867300  0.40465300  0.61332600  1
  Ni  Ni4  1  0.79132700  0.59534700  0.38667400  1
  O  O0  1  0.10233400  0.69792600  0.80026000  1
  O  O1  1  0.69792600  0.89766600  0.59559300  1
  O  O2  1  0.30207400  0.10233400  0.40440700  1
  O  O3  1  0.89766600  0.30207400  0.19974000  1
loop_
_geom_bond_atom_site_label_1
_geom_bond_atom_site_label_2
_geom_bond_distance
_geom_bond_site_symmetry_2
Ni0 O3 2.056243 1_565
Ni0 O3 2.056243 1_455
Ni0 O1 2.056821 1_555
Ni0 O0 2.086233 1_554
Ni0 O2 2.159211 1_565
Ni1 O2 2.102837 1_555
Ni1 O1 2.102837 1_444
Ni1 O3 2.102841 1_455
Ni1 O0 2.102841 1_544
Ni2 O0 2.056243 1_655
Ni2 O0 2.056243 1_545
Ni2 O2 2.056821 1_555
Ni2 O3 2.086233 1_556
Ni2 O1 2.159211 1_545
Ni3 O1 2.056240 1_555
Ni3 O1 2.056245 1_445
Ni3 O0 2.056817 1_555
Ni3 O2 2.086235 1_555
Ni3 O3 2.159213 1_455
Ni4 O2 2.056240 1_555
Ni4 O2 2.056245 1_665
Ni4 O3 2.056817 1_555
Ni4 O1 2.086235 1_555
Ni4 O0 2.159213 1_655
