# generated using pymatgen
data_Sm2MgNi2
_symmetry_space_group_name_H-M   'P 1'
_cell_length_a   14.87860118
_cell_length_b   14.87860118
_cell_length_c   7.56677338
_cell_angle_alpha   90.00000000
_cell_angle_beta   90.00000000
_cell_angle_gamma   89.98448663
_symmetry_Int_Tables_number   1
_chemical_formula_structural   Sm2MgNi2
_chemical_formula_sum   'Sm32 Mg16 Ni32'
_cell_volume   1675.07754413
_cell_formula_units_Z   16
loop_
 _symmetry_equiv_pos_site_id
 _symmetry_equiv_pos_as_xyz
  1  'x, y, z'
loop_
 _atom_site_type_symbol
 _atom_site_label
 _atom_site_symmetry_multiplicity
 _atom_site_fract_x
 _atom_site_fract_y
 _atom_site_fract_z
 _atom_site_occupancy
  Sm  Sm0_0  1  0.33699722  0.08699722  0.25000000  1
  Sm  Sm0_1  1  0.33699722  0.08699722  0.75000000  1
  Sm  Sm0_2  1  0.33699722  0.58699722  0.25000000  1
  Sm  Sm0_3  1  0.33699722  0.58699722  0.75000000  1
  Sm  Sm0_4  1  0.83699722  0.08699722  0.25000000  1
  Sm  Sm0_5  1  0.83699722  0.08699722  0.75000000  1
  Sm  Sm0_6  1  0.83699722  0.58699722  0.25000000  1
  Sm  Sm0_7  1  0.83699722  0.58699722  0.75000000  1
  Sm  Sm1_0  1  0.16300278  0.41300278  0.25000000  1
  Sm  Sm1_1  1  0.16300278  0.41300278  0.75000000  1
  Sm  Sm1_2  1  0.16300278  0.91300278  0.25000000  1
  Sm  Sm1_3  1  0.16300278  0.91300278  0.75000000  1
  Sm  Sm1_4  1  0.66300278  0.41300278  0.25000000  1
  Sm  Sm1_5  1  0.66300278  0.41300278  0.75000000  1
  Sm  Sm1_6  1  0.66300278  0.91300278  0.25000000  1
  Sm  Sm1_7  1  0.66300278  0.91300278  0.75000000  1
  Sm  Sm2_0  1  0.08710468  0.16289532  0.25000000  1
  Sm  Sm2_1  1  0.08710468  0.16289532  0.75000000  1
  Sm  Sm2_2  1  0.08710468  0.66289532  0.25000000  1
  Sm  Sm2_3  1  0.08710468  0.66289532  0.75000000  1
  Sm  Sm2_4  1  0.58710468  0.16289532  0.25000000  1
  Sm  Sm2_5  1  0.58710468  0.16289532  0.75000000  1
  Sm  Sm2_6  1  0.58710468  0.66289532  0.25000000  1
  Sm  Sm2_7  1  0.58710468  0.66289532  0.75000000  1
  Sm  Sm3_0  1  0.41289532  0.33710468  0.25000000  1
  Sm  Sm3_1  1  0.41289532  0.33710468  0.75000000  1
  Sm  Sm3_2  1  0.41289532  0.83710468  0.25000000  1
  Sm  Sm3_3  1  0.41289532  0.83710468  0.75000000  1
  Sm  Sm3_4  1  0.91289532  0.33710468  0.25000000  1
  Sm  Sm3_5  1  0.91289532  0.33710468  0.75000000  1
  Sm  Sm3_6  1  0.91289532  0.83710468  0.25000000  1
  Sm  Sm3_7  1  0.91289532  0.83710468  0.75000000  1
  Mg  Mg0_0  1  0.00000000  0.00000000  0.00000000  1
  Mg  Mg0_1  1  0.00000000  0.00000000  0.50000000  1
  Mg  Mg0_2  1  0.00000000  0.50000000  0.00000000  1
  Mg  Mg0_3  1  0.00000000  0.50000000  0.50000000  1
  Mg  Mg0_4  1  0.50000000  0.00000000  0.00000000  1
  Mg  Mg0_5  1  0.50000000  0.00000000  0.50000000  1
  Mg  Mg0_6  1  0.50000000  0.50000000  0.00000000  1
  Mg  Mg0_7  1  0.50000000  0.50000000  0.50000000  1
  Mg  Mg1_0  1  0.25000000  0.25000000  0.00000000  1
  Mg  Mg1_1  1  0.25000000  0.25000000  0.50000000  1
  Mg  Mg1_2  1  0.25000000  0.75000000  0.00000000  1
  Mg  Mg1_3  1  0.25000000  0.75000000  0.50000000  1
  Mg  Mg1_4  1  0.75000000  0.25000000  0.00000000  1
  Mg  Mg1_5  1  0.75000000  0.25000000  0.50000000  1
  Mg  Mg1_6  1  0.75000000  0.75000000  0.00000000  1
  Mg  Mg1_7  1  0.75000000  0.75000000  0.50000000  1
  Ni  Ni0_0  1  0.05860691  0.30860691  0.00000000  1
  Ni  Ni0_1  1  0.05860691  0.30860691  0.50000000  1
  Ni  Ni0_2  1  0.05860691  0.80860692  0.00000000  1
  Ni  Ni0_3  1  0.05860691  0.80860692  0.50000000  1
  Ni  Ni0_4  1  0.55860692  0.30860691  0.00000000  1
  Ni  Ni0_5  1  0.55860692  0.30860691  0.50000000  1
  Ni  Ni0_6  1  0.55860691  0.80860691  0.00000000  1
  Ni  Ni0_7  1  0.55860691  0.80860691  0.50000000  1
  Ni  Ni1_0  1  0.44139308  0.19139308  0.00000000  1
  Ni  Ni1_1  1  0.44139308  0.19139308  0.50000000  1
  Ni  Ni1_2  1  0.44139308  0.69139309  0.00000000  1
  Ni  Ni1_3  1  0.44139308  0.69139309  0.50000000  1
  Ni  Ni1_4  1  0.94139309  0.19139308  0.00000000  1
  Ni  Ni1_5  1  0.94139309  0.19139308  0.50000000  1
  Ni  Ni1_6  1  0.94139308  0.69139308  0.00000000  1
  Ni  Ni1_7  1  0.94139308  0.69139308  0.50000000  1
  Ni  Ni2_0  1  0.30866358  0.44133641  0.00000000  1
  Ni  Ni2_1  1  0.30866358  0.44133641  0.50000000  1
  Ni  Ni2_2  1  0.30866359  0.94133641  0.00000000  1
  Ni  Ni2_3  1  0.30866359  0.94133641  0.50000000  1
  Ni  Ni2_4  1  0.80866358  0.44133641  0.00000000  1
  Ni  Ni2_5  1  0.80866358  0.44133641  0.50000000  1
  Ni  Ni2_6  1  0.80866358  0.94133641  0.00000000  1
  Ni  Ni2_7  1  0.80866358  0.94133641  0.50000000  1
  Ni  Ni3_0  1  0.19133641  0.05866359  0.00000000  1
  Ni  Ni3_1  1  0.19133641  0.05866359  0.50000000  1
  Ni  Ni3_2  1  0.19133642  0.55866358  0.00000000  1
  Ni  Ni3_3  1  0.19133642  0.55866358  0.50000000  1
  Ni  Ni3_4  1  0.69133641  0.05866359  0.00000000  1
  Ni  Ni3_5  1  0.69133641  0.05866359  0.50000000  1
  Ni  Ni3_6  1  0.69133641  0.55866358  0.00000000  1
  Ni  Ni3_7  1  0.69133641  0.55866358  0.50000000  1
loop_
_geom_bond_atom_site_label_1
_geom_bond_atom_site_label_2
_geom_bond_distance
_geom_bond_site_symmetry_2
Mg0_0 Ni3_0 2.977844 1_555
Mg0_0 Ni2_6 2.977844 1_445
Mg0_0 Ni0_2 2.977952 1_545
Mg0_0 Ni1_4 2.977952 1_455
Mg0_0 Sm3_6 3.336752 1_445
Mg0_0 Sm3_7 3.336752 1_444
Mg0_0 Sm2_0 3.336752 1_555
Mg0_0 Sm2_1 3.336752 1_554
Mg0_0 Sm0_4 3.336783 1_455
Mg0_0 Sm0_5 3.336783 1_454
Mg0_0 Sm1_2 3.336783 1_545
Mg0_0 Sm1_3 3.336783 1_544
Mg0_0 Mg0_1 3.783387 1_554
Mg0_0 Mg0_1 3.783387 1_555
Mg0_1 Ni3_1 2.977844 1_555
Mg0_1 Ni2_7 2.977844 1_445
Mg0_1 Ni0_3 2.977952 1_545
Mg0_1 Ni1_5 2.977952 1_455
Mg0_1 Sm3_6 3.336752 1_445
Mg0_1 Sm3_7 3.336752 1_445
Mg0_1 Sm2_0 3.336752 1_555
Mg0_1 Sm2_1 3.336752 1_555
Mg0_1 Sm0_4 3.336783 1_455
Mg0_1 Sm0_5 3.336783 1_455
Mg0_1 Sm1_2 3.336783 1_545
Mg0_1 Sm1_3 3.336783 1_545
Mg0_2 Ni3_2 2.977844 1_555
Mg0_2 Ni2_4 2.977844 1_455
Mg0_2 Ni1_6 2.977952 1_455
Mg0_2 Ni0_0 2.977952 1_555
Mg0_2 Sm3_4 3.336752 1_455
Mg0_2 Sm3_5 3.336752 1_454
Mg0_2 Sm2_2 3.336752 1_555
Mg0_2 Sm2_3 3.336752 1_554
Mg0_2 Sm0_6 3.336783 1_455
Mg0_2 Sm0_7 3.336783 1_454
Mg0_2 Sm1_1 3.336783 1_554
Mg0_2 Sm1_0 3.336783 1_555
Mg0_2 Mg0_3 3.783387 1_555
Mg0_2 Mg0_3 3.783387 1_554
Mg0_3 Ni3_3 2.977844 1_555
Mg0_3 Ni2_5 2.977844 1_455
Mg0_3 Ni1_7 2.977952 1_455
Mg0_3 Ni0_1 2.977952 1_555
Mg0_3 Sm3_4 3.336752 1_455
Mg0_3 Sm3_5 3.336752 1_455
Mg0_3 Sm2_2 3.336752 1_555
Mg0_3 Sm2_3 3.336752 1_555
Mg0_3 Sm0_6 3.336783 1_455
Mg0_3 Sm0_7 3.336783 1_455
Mg0_3 Sm1_1 3.336783 1_555
Mg0_3 Sm1_0 3.336783 1_555
Mg0_4 Ni3_4 2.977844 1_555
Mg0_4 Ni2_2 2.977844 1_545
Mg0_4 Ni1_0 2.977952 1_555
Mg0_4 Ni0_6 2.977952 1_545
Mg0_4 Sm2_4 3.336752 1_555
Mg0_4 Sm2_5 3.336752 1_554
Mg0_4 Sm3_2 3.336752 1_545
Mg0_4 Sm3_3 3.336752 1_544
Mg0_4 Sm1_7 3.336783 1_544
Mg0_4 Sm1_6 3.336783 1_545
Mg0_4 Sm0_0 3.336783 1_555
Mg0_4 Sm0_1 3.336783 1_554
Mg0_4 Mg0_5 3.783387 1_554
Mg0_4 Mg0_5 3.783387 1_555
Mg0_5 Ni3_5 2.977844 1_555
Mg0_5 Ni2_3 2.977844 1_545
Mg0_5 Ni1_1 2.977952 1_555
Mg0_5 Ni0_7 2.977952 1_545
Mg0_5 Sm2_4 3.336752 1_555
Mg0_5 Sm2_5 3.336752 1_555
Mg0_5 Sm3_2 3.336752 1_545
Mg0_5 Sm3_3 3.336752 1_545
Mg0_5 Sm1_7 3.336783 1_545
Mg0_5 Sm1_6 3.336783 1_545
Mg0_5 Sm0_1 3.336783 1_555
Mg0_5 Sm0_0 3.336783 1_555
Mg0_6 Ni3_6 2.977844 1_555
Mg0_6 Ni2_0 2.977844 1_555
Mg0_6 Ni0_4 2.977952 1_555
Mg0_6 Ni1_2 2.977952 1_555
Mg0_6 Sm3_0 3.336752 1_555
Mg0_6 Sm3_1 3.336752 1_554
Mg0_6 Sm2_7 3.336752 1_554
Mg0_6 Sm2_6 3.336752 1_555
Mg0_6 Sm0_3 3.336783 1_554
Mg0_6 Sm0_2 3.336783 1_555
Mg0_6 Sm1_4 3.336783 1_555
Mg0_6 Sm1_5 3.336783 1_554
Mg0_6 Mg0_7 3.783387 1_554
Mg0_6 Mg0_7 3.783387 1_555
Mg0_7 Ni3_7 2.977844 1_555
Mg0_7 Ni2_1 2.977844 1_555
Mg0_7 Ni0_5 2.977952 1_555
Mg0_7 Ni1_3 2.977952 1_555
Mg0_7 Sm3_0 3.336752 1_555
Mg0_7 Sm3_1 3.336752 1_555
Mg0_7 Sm2_7 3.336752 1_555
Mg0_7 Sm2_6 3.336752 1_555
Mg0_7 Sm0_3 3.336783 1_555
Mg0_7 Sm0_2 3.336783 1_555
Mg0_7 Sm1_5 3.336783 1_555
Mg0_7 Sm1_4 3.336783 1_555
Mg1_0 Ni2_0 2.977844 1_555
Mg1_0 Ni3_0 2.977844 1_555
Mg1_0 Ni0_0 2.977952 1_555
Mg1_0 Ni1_0 2.977952 1_555
Mg1_0 Sm2_1 3.336752 1_554
Mg1_0 Sm2_0 3.336752 1_555
Mg1_0 Sm3_0 3.336752 1_555
Mg1_0 Sm3_1 3.336752 1_554
Mg1_0 Sm0_0 3.336783 1_555
Mg1_0 Sm1_0 3.336783 1_555
Mg1_0 Sm0_1 3.336783 1_554
Mg1_0 Sm1_1 3.336783 1_554
Mg1_0 Mg1_1 3.783387 1_555
Mg1_0 Mg1_1 3.783387 1_554
Mg1_1 Ni3_1 2.977844 1_555
Mg1_1 Ni2_1 2.977844 1_555
Mg1_1 Ni0_1 2.977952 1_555
Mg1_1 Ni1_1 2.977952 1_555
Mg1_1 Sm2_1 3.336752 1_555
Mg1_1 Sm2_0 3.336752 1_555
Mg1_1 Sm3_0 3.336752 1_555
Mg1_1 Sm3_1 3.336752 1_555
Mg1_1 Sm0_1 3.336783 1_555
Mg1_1 Sm0_0 3.336783 1_555
Mg1_1 Sm1_0 3.336783 1_555
Mg1_1 Sm1_1 3.336783 1_555
Mg1_2 Ni2_2 2.977844 1_555
Mg1_2 Ni3_2 2.977844 1_555
Mg1_2 Ni0_2 2.977952 1_555
Mg1_2 Ni1_2 2.977952 1_555
Mg1_2 Sm2_3 3.336752 1_554
Mg1_2 Sm2_2 3.336752 1_555
Mg1_2 Sm3_2 3.336752 1_555
Mg1_2 Sm3_3 3.336752 1_554
Mg1_2 Sm0_2 3.336783 1_555
Mg1_2 Sm0_3 3.336783 1_554
Mg1_2 Sm1_2 3.336783 1_555
Mg1_2 Sm1_3 3.336783 1_554
Mg1_2 Mg1_3 3.783387 1_554
Mg1_2 Mg1_3 3.783387 1_555
Mg1_3 Ni2_3 2.977844 1_555
Mg1_3 Ni3_3 2.977844 1_555
Mg1_3 Ni0_3 2.977952 1_555
Mg1_3 Ni1_3 2.977952 1_555
Mg1_3 Sm2_3 3.336752 1_555
Mg1_3 Sm2_2 3.336752 1_555
Mg1_3 Sm3_2 3.336752 1_555
Mg1_3 Sm3_3 3.336752 1_555
Mg1_3 Sm0_2 3.336783 1_555
Mg1_3 Sm0_3 3.336783 1_555
Mg1_3 Sm1_2 3.336783 1_555
Mg1_3 Sm1_3 3.336783 1_555
Mg1_4 Ni2_4 2.977844 1_555
Mg1_4 Ni3_4 2.977844 1_555
Mg1_4 Ni1_4 2.977952 1_555
Mg1_4 Ni0_4 2.977952 1_555
Mg1_4 Sm3_4 3.336752 1_555
Mg1_4 Sm3_5 3.336752 1_554
Mg1_4 Sm2_4 3.336752 1_555
Mg1_4 Sm2_5 3.336752 1_554
Mg1_4 Sm0_4 3.336783 1_555
Mg1_4 Sm0_5 3.336783 1_554
Mg1_4 Sm1_4 3.336783 1_555
Mg1_4 Sm1_5 3.336783 1_554
Mg1_4 Mg1_5 3.783387 1_554
Mg1_4 Mg1_5 3.783387 1_555
Mg1_5 Ni2_5 2.977844 1_555
Mg1_5 Ni3_5 2.977844 1_555
Mg1_5 Ni1_5 2.977952 1_555
Mg1_5 Ni0_5 2.977952 1_555
Mg1_5 Sm3_4 3.336752 1_555
Mg1_5 Sm3_5 3.336752 1_555
Mg1_5 Sm2_5 3.336752 1_555
Mg1_5 Sm2_4 3.336752 1_555
Mg1_5 Sm0_5 3.336783 1_555
Mg1_5 Sm0_4 3.336783 1_555
Mg1_5 Sm1_5 3.336783 1_555
Mg1_5 Sm1_4 3.336783 1_555
Mg1_6 Ni3_6 2.977844 1_555
Mg1_6 Ni2_6 2.977844 1_555
Mg1_6 Ni0_6 2.977952 1_555
Mg1_6 Ni1_6 2.977952 1_555
Mg1_6 Sm2_6 3.336752 1_555
Mg1_6 Sm2_7 3.336752 1_554
Mg1_6 Sm3_6 3.336752 1_555
Mg1_6 Sm3_7 3.336752 1_554
Mg1_6 Sm0_7 3.336783 1_554
Mg1_6 Sm0_6 3.336783 1_555
Mg1_6 Sm1_7 3.336783 1_554
Mg1_6 Sm1_6 3.336783 1_555
Mg1_6 Mg1_7 3.783387 1_555
Mg1_6 Mg1_7 3.783387 1_554
Mg1_7 Ni3_7 2.977844 1_555
Mg1_7 Ni2_7 2.977844 1_555
Mg1_7 Ni0_7 2.977952 1_555
Mg1_7 Ni1_7 2.977952 1_555
Mg1_7 Sm2_6 3.336752 1_555
Mg1_7 Sm2_7 3.336752 1_555
Mg1_7 Sm3_6 3.336752 1_555
Mg1_7 Sm3_7 3.336752 1_555
Mg1_7 Sm0_6 3.336783 1_555
Mg1_7 Sm0_7 3.336783 1_555
Mg1_7 Sm1_6 3.336783 1_555
Mg1_7 Sm1_7 3.336783 1_555
Ni0_0 Ni1_4 2.466691 1_455
Ni0_0 Sm1_0 2.899150 1_555
Ni0_0 Sm1_1 2.899150 1_554
Ni0_0 Sm2_1 2.908255 1_554
Ni0_0 Sm2_0 2.908255 1_555
Ni0_0 Sm3_4 2.908255 1_455
Ni0_0 Sm3_5 2.908255 1_454
Ni0_1 Ni1_5 2.466691 1_455
Ni0_1 Sm1_0 2.899150 1_555
Ni0_1 Sm1_1 2.899150 1_555
Ni0_1 Sm2_1 2.908255 1_555
Ni0_1 Sm2_0 2.908255 1_555
Ni0_1 Sm3_4 2.908255 1_455
Ni0_1 Sm3_5 2.908255 1_455
Ni0_2 Ni1_6 2.466691 1_455
Ni0_2 Sm1_2 2.899150 1_555
Ni0_2 Sm1_3 2.899150 1_554
Ni0_2 Sm3_7 2.908255 1_454
Ni0_2 Sm3_6 2.908255 1_455
Ni0_2 Sm2_2 2.908255 1_555
Ni0_2 Sm2_3 2.908255 1_554
Ni0_3 Ni1_7 2.466691 1_455
Ni0_3 Sm1_3 2.899150 1_555
Ni0_3 Sm1_2 2.899150 1_555
Ni0_3 Sm3_7 2.908255 1_455
Ni0_3 Sm3_6 2.908255 1_455
Ni0_3 Sm2_2 2.908255 1_555
Ni0_3 Sm2_3 2.908255 1_555
Ni0_4 Ni1_0 2.466691 1_555
Ni0_4 Sm1_5 2.899150 1_554
Ni0_4 Sm1_4 2.899150 1_555
Ni0_4 Sm2_5 2.908255 1_554
Ni0_4 Sm2_4 2.908255 1_555
Ni0_4 Sm3_0 2.908255 1_555
Ni0_4 Sm3_1 2.908255 1_554
Ni0_5 Ni1_1 2.466691 1_555
Ni0_5 Sm1_5 2.899150 1_555
Ni0_5 Sm1_4 2.899150 1_555
Ni0_5 Sm2_4 2.908255 1_555
Ni0_5 Sm2_5 2.908255 1_555
Ni0_5 Sm3_0 2.908255 1_555
Ni0_5 Sm3_1 2.908255 1_555
Ni0_6 Ni1_2 2.466691 1_555
Ni0_6 Sm1_6 2.899150 1_555
Ni0_6 Sm1_7 2.899150 1_554
Ni0_6 Sm3_2 2.908255 1_555
Ni0_6 Sm3_3 2.908255 1_554
Ni0_6 Sm2_7 2.908255 1_554
Ni0_6 Sm2_6 2.908255 1_555
Ni0_7 Ni1_3 2.466691 1_555
Ni0_7 Sm1_6 2.899150 1_555
Ni0_7 Sm1_7 2.899150 1_555
Ni0_7 Sm3_3 2.908255 1_555
Ni0_7 Sm3_2 2.908255 1_555
Ni0_7 Sm2_6 2.908255 1_555
Ni0_7 Sm2_7 2.908255 1_555
Ni1_0 Sm0_1 2.899150 1_554
Ni1_0 Sm0_0 2.899150 1_555
Ni1_0 Sm3_0 2.908255 1_555
Ni1_0 Sm3_1 2.908255 1_554
Ni1_0 Sm2_5 2.908255 1_554
Ni1_0 Sm2_4 2.908255 1_555
Ni1_1 Sm0_1 2.899150 1_555
Ni1_1 Sm0_0 2.899150 1_555
Ni1_1 Sm3_1 2.908255 1_555
Ni1_1 Sm3_0 2.908255 1_555
Ni1_1 Sm2_5 2.908255 1_555
Ni1_1 Sm2_4 2.908255 1_555
Ni1_2 Sm0_3 2.899150 1_554
Ni1_2 Sm0_2 2.899150 1_555
Ni1_2 Sm3_2 2.908255 1_555
Ni1_2 Sm3_3 2.908255 1_554
Ni1_2 Sm2_6 2.908255 1_555
Ni1_2 Sm2_7 2.908255 1_554
Ni1_3 Sm0_3 2.899150 1_555
Ni1_3 Sm0_2 2.899150 1_555
Ni1_3 Sm3_2 2.908255 1_555
Ni1_3 Sm3_3 2.908255 1_555
Ni1_3 Sm2_6 2.908255 1_555
Ni1_3 Sm2_7 2.908255 1_555
Ni1_4 Sm0_4 2.899150 1_555
Ni1_4 Sm0_5 2.899150 1_554
Ni1_4 Sm2_0 2.908255 1_655
Ni1_4 Sm2_1 2.908255 1_654
Ni1_4 Sm3_4 2.908255 1_555
Ni1_4 Sm3_5 2.908255 1_554
Ni1_5 Sm0_5 2.899150 1_555
Ni1_5 Sm0_4 2.899150 1_555
Ni1_5 Sm2_0 2.908255 1_655
Ni1_5 Sm2_1 2.908255 1_655
Ni1_5 Sm3_4 2.908255 1_555
Ni1_5 Sm3_5 2.908255 1_555
Ni1_6 Sm0_7 2.899150 1_554
Ni1_6 Sm0_6 2.899150 1_555
Ni1_6 Sm2_2 2.908255 1_655
Ni1_6 Sm2_3 2.908255 1_654
Ni1_6 Sm3_6 2.908255 1_555
Ni1_6 Sm3_7 2.908255 1_554
Ni1_7 Sm0_6 2.899150 1_555
Ni1_7 Sm0_7 2.899150 1_555
Ni1_7 Sm2_2 2.908255 1_655
Ni1_7 Sm2_3 2.908255 1_655
Ni1_7 Sm3_6 2.908255 1_555
Ni1_7 Sm3_7 2.908255 1_555
Ni2_0 Ni3_2 2.468408 1_555
Ni2_0 Sm3_0 2.896084 1_555
Ni2_0 Sm3_1 2.896084 1_554
Ni2_0 Sm1_0 2.907507 1_555
Ni2_0 Sm1_1 2.907507 1_554
Ni2_0 Sm0_2 2.907507 1_555
Ni2_0 Sm0_3 2.907507 1_554
Ni2_1 Ni3_3 2.468408 1_555
Ni2_1 Sm3_0 2.896084 1_555
Ni2_1 Sm3_1 2.896084 1_555
Ni2_1 Sm1_0 2.907507 1_555
Ni2_1 Sm1_1 2.907507 1_555
Ni2_1 Sm0_2 2.907507 1_555
Ni2_1 Sm0_3 2.907507 1_555
Ni2_2 Ni3_0 2.468408 1_565
Ni2_2 Sm3_2 2.896084 1_555
Ni2_2 Sm3_3 2.896084 1_554
Ni2_2 Sm1_2 2.907507 1_555
Ni2_2 Sm1_3 2.907507 1_554
Ni2_2 Sm0_0 2.907507 1_565
Ni2_2 Sm0_1 2.907507 1_564
Ni2_3 Ni3_1 2.468408 1_565
Ni2_3 Sm3_2 2.896084 1_555
Ni2_3 Sm3_3 2.896084 1_555
Ni2_3 Sm1_2 2.907507 1_555
Ni2_3 Sm1_3 2.907507 1_555
Ni2_3 Sm0_0 2.907507 1_565
Ni2_3 Sm0_1 2.907507 1_565
Ni2_4 Ni3_6 2.468408 1_555
Ni2_4 Sm3_5 2.896084 1_554
Ni2_4 Sm3_4 2.896084 1_555
Ni2_4 Sm1_4 2.907507 1_555
Ni2_4 Sm1_5 2.907507 1_554
Ni2_4 Sm0_7 2.907507 1_554
Ni2_4 Sm0_6 2.907507 1_555
Ni2_5 Ni3_7 2.468408 1_555
Ni2_5 Sm3_5 2.896084 1_555
Ni2_5 Sm3_4 2.896084 1_555
Ni2_5 Sm1_5 2.907507 1_555
Ni2_5 Sm1_4 2.907507 1_555
Ni2_5 Sm0_6 2.907507 1_555
Ni2_5 Sm0_7 2.907507 1_555
Ni2_6 Ni3_4 2.468408 1_565
Ni2_6 Sm3_7 2.896084 1_554
Ni2_6 Sm3_6 2.896084 1_555
Ni2_6 Sm0_4 2.907507 1_565
Ni2_6 Sm1_7 2.907507 1_554
Ni2_6 Sm1_6 2.907507 1_555
Ni2_6 Sm0_5 2.907507 1_564
Ni2_7 Ni3_5 2.468408 1_565
Ni2_7 Sm3_6 2.896084 1_555
Ni2_7 Sm3_7 2.896084 1_555
Ni2_7 Sm0_4 2.907507 1_565
Ni2_7 Sm1_7 2.907507 1_555
Ni2_7 Sm1_6 2.907507 1_555
Ni2_7 Sm0_5 2.907507 1_565
Ni3_0 Sm2_1 2.896084 1_554
Ni3_0 Sm2_0 2.896084 1_555
Ni3_0 Sm1_2 2.907507 1_545
Ni3_0 Sm1_3 2.907507 1_544
Ni3_0 Sm0_0 2.907507 1_555
Ni3_0 Sm0_1 2.907507 1_554
Ni3_1 Sm2_1 2.896084 1_555
Ni3_1 Sm2_0 2.896084 1_555
Ni3_1 Sm1_2 2.907507 1_545
Ni3_1 Sm0_1 2.907507 1_555
Ni3_1 Sm1_3 2.907507 1_545
Ni3_1 Sm0_0 2.907507 1_555
Ni3_2 Sm2_3 2.896084 1_554
Ni3_2 Sm2_2 2.896084 1_555
Ni3_2 Sm1_0 2.907507 1_555
Ni3_2 Sm1_1 2.907507 1_554
Ni3_2 Sm0_2 2.907507 1_555
Ni3_2 Sm0_3 2.907507 1_554
Ni3_3 Sm2_3 2.896084 1_555
Ni3_3 Sm2_2 2.896084 1_555
Ni3_3 Sm1_0 2.907507 1_555
Ni3_3 Sm1_1 2.907507 1_555
Ni3_3 Sm0_2 2.907507 1_555
Ni3_3 Sm0_3 2.907507 1_555
Ni3_4 Sm2_5 2.896084 1_554
Ni3_4 Sm2_4 2.896084 1_555
Ni3_4 Sm0_4 2.907507 1_555
Ni3_4 Sm0_5 2.907507 1_554
Ni3_4 Sm1_7 2.907507 1_544
Ni3_4 Sm1_6 2.907507 1_545
Ni3_5 Sm2_4 2.896084 1_555
Ni3_5 Sm2_5 2.896084 1_555
Ni3_5 Sm0_5 2.907507 1_555
Ni3_5 Sm0_4 2.907507 1_555
Ni3_5 Sm1_7 2.907507 1_545
Ni3_5 Sm1_6 2.907507 1_545
Ni3_6 Sm2_6 2.896084 1_555
Ni3_6 Sm2_7 2.896084 1_554
Ni3_6 Sm1_4 2.907507 1_555
Ni3_6 Sm1_5 2.907507 1_554
Ni3_6 Sm0_7 2.907507 1_554
Ni3_6 Sm0_6 2.907507 1_555
Ni3_7 Sm2_6 2.896084 1_555
Ni3_7 Sm2_7 2.896084 1_555
Ni3_7 Sm1_5 2.907507 1_555
Ni3_7 Sm1_4 2.907507 1_555
Ni3_7 Sm0_6 2.907507 1_555
Ni3_7 Sm0_7 2.907507 1_555
