# generated using pymatgen
data_Li7Mn4CoO12
_symmetry_space_group_name_H-M   'P 1'
_cell_length_a   2.97647000
_cell_length_b   5.09860567
_cell_length_c   15.06526081
_cell_angle_alpha   96.26771915
_cell_angle_beta   93.73462827
_cell_angle_gamma   103.75308158
_symmetry_Int_Tables_number   1
_chemical_formula_structural   Li7Mn4CoO12
_chemical_formula_sum   'Li7 Mn4 Co1 O12'
_cell_volume   219.76116500
_cell_formula_units_Z   1
loop_
 _symmetry_equiv_pos_site_id
 _symmetry_equiv_pos_as_xyz
  1  'x, y, z'
loop_
 _atom_site_type_symbol
 _atom_site_label
 _atom_site_symmetry_multiplicity
 _atom_site_fract_x
 _atom_site_fract_y
 _atom_site_fract_z
 _atom_site_occupancy
  Li  Li0  1  0.19991800  0.42677300  0.92718700  1
  Li  Li1  1  0.80008200  0.57322700  0.07281300  1
  Li  Li2  1  0.51368900  0.76441700  0.24970900  1
  Li  Li3  1  0.16456000  0.90995000  0.41757000  1
  Li  Li4  1  0.83544000  0.09005000  0.58243000  1
  Li  Li5  1  0.48631100  0.23558300  0.75029100  1
  Li  Li6  1  0.50000000  0.00000000  0.00000000  1
  Mn  Mn0  1  0.84427800  0.83308400  0.83932800  1
  Mn  Mn1  1  0.15572200  0.16691600  0.16067200  1
  Mn  Mn2  1  0.82489400  0.32994800  0.33407700  1
  Mn  Mn3  1  0.17510600  0.67005200  0.66592300  1
  Co  Co0  1  0.50000000  0.50000000  0.50000000  1
  O  O0  1  0.45766000  0.08147000  0.86939800  1
  O  O1  1  0.17509200  0.29521600  0.05256100  1
  O  O2  1  0.78811400  0.42299700  0.20905200  1
  O  O3  1  0.52441900  0.61231300  0.37988400  1
  O  O4  1  0.17424700  0.76843700  0.54285000  1
  O  O5  1  0.86464500  0.94404800  0.71219400  1
  O  O6  1  0.82490800  0.70478400  0.94743900  1
  O  O7  1  0.54234000  0.91853000  0.13060200  1
  O  O8  1  0.13535500  0.05595200  0.28780600  1
  O  O9  1  0.82575300  0.23156300  0.45715000  1
  O  O10  1  0.47558100  0.38768700  0.62011600  1
  O  O11  1  0.21188600  0.57700300  0.79094800  1
loop_
_geom_bond_atom_site_label_1
_geom_bond_atom_site_label_2
_geom_bond_distance
_geom_bond_site_symmetry_2
Li0 O6 2.012572 1_455
Li0 O6 2.034884 1_555
Li0 O1 2.072235 1_556
Li0 O0 2.200137 1_555
Li0 O11 2.267256 1_555
Li0 O0 2.510760 1_455
Li1 O1 2.012572 1_655
Li1 O1 2.034884 1_555
Li1 O6 2.072235 1_554
Li1 O7 2.200137 1_555
Li1 O2 2.267256 1_555
Li1 O7 2.510760 1_655
Li2 O7 2.034802 1_555
Li2 O8 2.080947 1_665
Li2 O8 2.121499 1_565
Li2 O2 2.140342 1_555
Li2 O3 2.187268 1_555
Li2 O2 2.424225 1_455
Li3 O4 2.093741 1_555
Li3 O3 2.106295 1_555
Li3 O3 2.133491 1_455
Li3 O8 2.170214 1_565
Li3 O9 2.170828 1_465
Li3 O9 2.239810 1_565
Li4 O9 2.093741 1_555
Li4 O10 2.106295 1_555
Li4 O10 2.133491 1_655
Li4 O5 2.170214 1_545
Li4 O4 2.170828 1_645
Li4 O4 2.239810 1_545
Li5 O0 2.034802 1_555
Li5 O5 2.080947 1_445
Li5 O5 2.121499 1_545
Li5 O11 2.140342 1_555
Li5 O10 2.187268 1_555
Li5 O11 2.424225 1_655
Li6 O7 2.056875 1_545
Li6 O0 2.056875 1_554
Li6 O1 2.087940 1_555
Li6 O6 2.087940 1_544
Li6 O1 2.241576 1_655
Li6 O6 2.241576 1_444
Mn0 O6 1.819589 1_555
Mn0 O0 1.941356 1_565
Mn0 O0 1.951897 1_665
Mn0 O11 2.002139 1_655
Mn0 O11 2.055226 1_555
Mn0 O5 2.056109 1_555
Mn1 O1 1.819589 1_555
Mn1 O7 1.941356 1_545
Mn1 O7 1.951897 1_445
Mn1 O2 2.002139 1_455
Mn1 O2 2.055226 1_555
Mn1 O8 2.056109 1_555
Mn2 O8 1.943332 1_655
Mn2 O3 1.955614 1_555
Mn2 O9 1.972941 1_555
Mn2 O2 1.994419 1_555
Mn2 O8 2.210781 1_555
Mn2 O3 2.248266 1_655
Mn3 O5 1.943332 1_455
Mn3 O10 1.955614 1_555
Mn3 O4 1.972941 1_555
Mn3 O11 1.994419 1_555
Mn3 O5 2.210781 1_555
Mn3 O10 2.248266 1_455
Co0 O4 1.936402 1_555
Co0 O9 1.936402 1_555
Co0 O10 1.957391 1_555
Co0 O3 1.957391 1_555
Co0 O4 2.156342 1_655
Co0 O9 2.156342 1_455
