# generated using pymatgen
data_Ca3Co2(GeO4)3
_symmetry_space_group_name_H-M   'P 1'
_cell_length_a   10.75007553
_cell_length_b   10.75007553
_cell_length_c   10.75007553
_cell_angle_alpha   109.47122063
_cell_angle_beta   109.47122063
_cell_angle_gamma   109.47122063
_symmetry_Int_Tables_number   1
_chemical_formula_structural   Ca3Co2(GeO4)3
_chemical_formula_sum   'Ca12 Co8 Ge12 O48'
_cell_volume   956.34073737
_cell_formula_units_Z   4
loop_
 _symmetry_equiv_pos_site_id
 _symmetry_equiv_pos_as_xyz
  1  'x, y, z'
loop_
 _atom_site_type_symbol
 _atom_site_label
 _atom_site_symmetry_multiplicity
 _atom_site_fract_x
 _atom_site_fract_y
 _atom_site_fract_z
 _atom_site_occupancy
  Ca  Ca0  1  0.25000000  0.87500000  0.62500000  1
  Ca  Ca1  1  0.75000000  0.62500000  0.87500000  1
  Ca  Ca2  1  0.62500000  0.87500000  0.75000000  1
  Ca  Ca3  1  0.87500000  0.62500000  0.25000000  1
  Ca  Ca4  1  0.62500000  0.25000000  0.87500000  1
  Ca  Ca5  1  0.87500000  0.75000000  0.62500000  1
  Ca  Ca6  1  0.75000000  0.12500000  0.37500000  1
  Ca  Ca7  1  0.25000000  0.37500000  0.12500000  1
  Ca  Ca8  1  0.37500000  0.12500000  0.25000000  1
  Ca  Ca9  1  0.12500000  0.37500000  0.75000000  1
  Ca  Ca10  1  0.37500000  0.75000000  0.12500000  1
  Ca  Ca11  1  0.12500000  0.25000000  0.37500000  1
  Co  Co0  1  0.50000000  0.50000000  0.50000000  1
  Co  Co1  1  0.50000000  0.00000000  0.50000000  1
  Co  Co2  1  0.00000000  0.50000000  0.50000000  1
  Co  Co3  1  0.50000000  0.50000000  0.00000000  1
  Co  Co4  1  0.00000000  0.00000000  0.50000000  1
  Co  Co5  1  0.00000000  0.50000000  0.00000000  1
  Co  Co6  1  0.50000000  0.00000000  0.00000000  1
  Co  Co7  1  0.00000000  0.00000000  0.00000000  1
  Ge  Ge0  1  0.12500000  0.75000000  0.87500000  1
  Ge  Ge1  1  0.87500000  0.25000000  0.12500000  1
  Ge  Ge2  1  0.62500000  0.37500000  0.25000000  1
  Ge  Ge3  1  0.75000000  0.87500000  0.12500000  1
  Ge  Ge4  1  0.87500000  0.12500000  0.75000000  1
  Ge  Ge5  1  0.25000000  0.62500000  0.37500000  1
  Ge  Ge6  1  0.75000000  0.37500000  0.62500000  1
  Ge  Ge7  1  0.25000000  0.12500000  0.87500000  1
  Ge  Ge8  1  0.12500000  0.87500000  0.25000000  1
  Ge  Ge9  1  0.37500000  0.62500000  0.75000000  1
  Ge  Ge10  1  0.62500000  0.75000000  0.37500000  1
  Ge  Ge11  1  0.37500000  0.25000000  0.62500000  1
  O  O0  1  0.41575200  0.81518300  0.79761900  1
  O  O1  1  0.88186700  0.39943200  0.08424800  1
  O  O2  1  0.10056800  0.98243500  0.68481700  1
  O  O3  1  0.51756500  0.61813300  0.70238100  1
  O  O4  1  0.68481700  0.08424800  0.70238100  1
  O  O5  1  0.61813300  0.70238100  0.51756500  1
  O  O6  1  0.61813300  0.41575200  0.10056800  1
  O  O7  1  0.70238100  0.51756500  0.61813300  1
  O  O8  1  0.81518300  0.51756500  0.39943200  1
  O  O9  1  0.98243500  0.79761900  0.88186700  1
  O  O10  1  0.79761900  0.88186700  0.98243500  1
  O  O11  1  0.70238100  0.68481700  0.08424800  1
  O  O12  1  0.41575200  0.10056800  0.61813300  1
  O  O13  1  0.39943200  0.81518300  0.51756500  1
  O  O14  1  0.08424800  0.70238100  0.68481700  1
  O  O15  1  0.10056800  0.61813300  0.41575200  1
  O  O16  1  0.51756500  0.39943200  0.81518300  1
  O  O17  1  0.08424800  0.88186700  0.39943200  1
  O  O18  1  0.98243500  0.68481700  0.10056800  1
  O  O19  1  0.18481700  0.48243500  0.60056800  1
  O  O20  1  0.68481700  0.10056800  0.98243500  1
  O  O21  1  0.79761900  0.41575200  0.81518300  1
  O  O22  1  0.39943200  0.08424800  0.88186700  1
  O  O23  1  0.88186700  0.98243500  0.79761900  1
  O  O24  1  0.58424800  0.18481700  0.20238100  1
  O  O25  1  0.11813300  0.60056800  0.91575200  1
  O  O26  1  0.89943200  0.01756500  0.31518300  1
  O  O27  1  0.48243500  0.38186700  0.29761900  1
  O  O28  1  0.31518300  0.91575200  0.29761900  1
  O  O29  1  0.38186700  0.29761900  0.48243500  1
  O  O30  1  0.38186700  0.58424800  0.89943200  1
  O  O31  1  0.29761900  0.48243500  0.38186700  1
  O  O32  1  0.11813300  0.01756500  0.20238100  1
  O  O33  1  0.60056800  0.91575200  0.11813300  1
  O  O34  1  0.20238100  0.58424800  0.18481700  1
  O  O35  1  0.18481700  0.20238100  0.58424800  1
  O  O36  1  0.31518300  0.89943200  0.01756500  1
  O  O37  1  0.01756500  0.31518300  0.89943200  1
  O  O38  1  0.91575200  0.11813300  0.60056800  1
  O  O39  1  0.48243500  0.60056800  0.18481700  1
  O  O40  1  0.89943200  0.38186700  0.58424800  1
  O  O41  1  0.91575200  0.29761900  0.31518300  1
  O  O42  1  0.60056800  0.18481700  0.48243500  1
  O  O43  1  0.58424800  0.89943200  0.38186700  1
  O  O44  1  0.29761900  0.31518300  0.91575200  1
  O  O45  1  0.20238100  0.11813300  0.01756500  1
  O  O46  1  0.01756500  0.20238100  0.11813300  1
  O  O47  1  0.81518300  0.79761900  0.41575200  1
loop_
_geom_bond_atom_site_label_1
_geom_bond_atom_site_label_2
_geom_bond_distance
_geom_bond_site_symmetry_2
Ca0 O22 2.399645 1_565
Ca0 O15 2.399645 1_555
Ca0 O13 2.399648 1_555
Ca0 O2 2.399648 1_555
Ca0 O12 2.527244 1_565
Ca0 O17 2.527244 1_555
Ca0 O0 2.527252 1_555
Ca0 O14 2.527252 1_555
Ca1 O10 2.399645 1_555
Ca1 O7 2.399645 1_555
Ca1 O11 2.399645 1_556
Ca1 O21 2.399645 1_555
Ca1 O18 2.527240 1_556
Ca1 O16 2.527240 1_555
Ca1 O9 2.527244 1_555
Ca1 O3 2.527244 1_555
Ca2 O23 2.399645 1_555
Ca2 O3 2.399645 1_555
Ca2 O4 2.399645 1_565
Ca2 O0 2.399645 1_555
Ca2 O20 2.527240 1_565
Ca2 O13 2.527240 1_555
Ca2 O10 2.527244 1_555
Ca2 O5 2.527244 1_555
Ca3 O17 2.399645 1_655
Ca3 O6 2.399645 1_555
Ca3 O8 2.399648 1_555
Ca3 O18 2.399648 1_555
Ca3 O15 2.527244 1_655
Ca3 O1 2.527244 1_555
Ca3 O47 2.527252 1_555
Ca3 O11 2.527252 1_555
Ca4 O1 2.399645 1_556
Ca4 O12 2.399645 1_555
Ca4 O16 2.399648 1_555
Ca4 O20 2.399648 1_555
Ca4 O6 2.527244 1_556
Ca4 O22 2.527244 1_555
Ca4 O21 2.527252 1_555
Ca4 O4 2.527252 1_555
Ca5 O9 2.399645 1_555
Ca5 O5 2.399645 1_555
Ca5 O14 2.399645 1_655
Ca5 O47 2.399645 1_555
Ca5 O2 2.527240 1_655
Ca5 O8 2.527240 1_555
Ca5 O23 2.527244 1_555
Ca5 O7 2.527244 1_555
Ca6 O40 2.399645 1_555
Ca6 O33 2.399645 1_545
Ca6 O42 2.399648 1_555
Ca6 O26 2.399648 1_555
Ca6 O43 2.527244 1_545
Ca6 O38 2.527244 1_555
Ca6 O41 2.527252 1_555
Ca6 O24 2.527252 1_555
Ca7 O31 2.399645 1_555
Ca7 O45 2.399645 1_555
Ca7 O44 2.399645 1_554
Ca7 O34 2.399645 1_555
Ca7 O37 2.527240 1_554
Ca7 O39 2.527240 1_555
Ca7 O46 2.527244 1_555
Ca7 O27 2.527244 1_555
Ca8 O27 2.399645 1_555
Ca8 O32 2.399645 1_555
Ca8 O28 2.399645 1_545
Ca8 O24 2.399645 1_555
Ca8 O36 2.527240 1_545
Ca8 O42 2.527240 1_555
Ca8 O45 2.527244 1_555
Ca8 O29 2.527244 1_555
Ca9 O30 2.399645 1_555
Ca9 O38 2.399645 1_455
Ca9 O19 2.399648 1_555
Ca9 O37 2.399648 1_555
Ca9 O40 2.527244 1_455
Ca9 O25 2.527244 1_555
Ca9 O44 2.527252 1_555
Ca9 O35 2.527252 1_555
Ca10 O43 2.399645 1_555
Ca10 O25 2.399645 1_554
Ca10 O39 2.399648 1_555
Ca10 O36 2.399648 1_555
Ca10 O30 2.527244 1_554
Ca10 O33 2.527244 1_555
Ca10 O28 2.527252 1_555
Ca10 O34 2.527252 1_555
Ca11 O29 2.399645 1_555
Ca11 O46 2.399645 1_555
Ca11 O41 2.399645 1_455
Ca11 O35 2.399645 1_555
Ca11 O26 2.527240 1_455
Ca11 O19 2.527240 1_555
Ca11 O32 2.527244 1_555
Ca11 O31 2.527244 1_555
Co0 O3 2.026331 1_555
Co0 O7 2.026331 1_555
Co0 O5 2.026331 1_555
Co0 O31 2.026331 1_555
Co0 O27 2.026331 1_555
Co0 O29 2.026331 1_555
Co1 O12 2.026331 1_555
Co1 O43 2.026331 1_545
Co1 O4 2.026336 1_555
Co1 O28 2.026336 1_545
Co1 O42 2.026340 1_555
Co1 O13 2.026340 1_545
Co2 O15 2.026331 1_555
Co2 O40 2.026331 1_455
Co2 O14 2.026336 1_555
Co2 O41 2.026336 1_455
Co2 O19 2.026340 1_555
Co2 O8 2.026340 1_455
Co3 O6 2.026331 1_555
Co3 O30 2.026331 1_554
Co3 O11 2.026336 1_555
Co3 O44 2.026336 1_554
Co3 O39 2.026340 1_555
Co3 O16 2.026340 1_554
Co4 O17 2.026331 1_545
Co4 O38 2.026331 1_455
Co4 O35 2.026336 1_555
Co4 O47 2.026336 1_445
Co4 O2 2.026340 1_545
Co4 O26 2.026340 1_455
Co5 O1 2.026331 1_455
Co5 O25 2.026331 1_554
Co5 O34 2.026336 1_555
Co5 O21 2.026336 1_454
Co5 O18 2.026340 1_455
Co5 O37 2.026340 1_554
Co6 O22 2.026331 1_554
Co6 O33 2.026331 1_545
Co6 O24 2.026336 1_555
Co6 O0 2.026336 1_544
Co6 O20 2.026340 1_554
Co6 O36 2.026340 1_545
Co7 O45 2.026331 1_555
Co7 O32 2.026331 1_555
Co7 O46 2.026331 1_555
Co7 O9 2.026331 1_444
Co7 O23 2.026331 1_444
Co7 O10 2.026331 1_444
Ge0 O14 1.785927 1_555
Ge0 O36 1.785932 1_556
Ge0 O25 1.785938 1_555
Ge0 O9 1.785938 1_455
Ge1 O41 1.785927 1_555
Ge1 O20 1.785932 1_554
Ge1 O1 1.785938 1_555
Ge1 O46 1.785938 1_655
Ge2 O24 1.785927 1_555
Ge2 O8 1.785932 1_555
Ge2 O27 1.785938 1_555
Ge2 O6 1.785938 1_555
Ge3 O11 1.785927 1_555
Ge3 O26 1.785932 1_565
Ge3 O33 1.785938 1_555
Ge3 O10 1.785938 1_554
Ge4 O4 1.785927 1_555
Ge4 O37 1.785932 1_655
Ge4 O38 1.785938 1_555
Ge4 O23 1.785938 1_545
Ge5 O34 1.785927 1_555
Ge5 O13 1.785932 1_555
Ge5 O31 1.785938 1_555
Ge5 O15 1.785938 1_555
Ge6 O21 1.785927 1_555
Ge6 O42 1.785932 1_555
Ge6 O7 1.785938 1_555
Ge6 O40 1.785938 1_555
Ge7 O44 1.785927 1_555
Ge7 O2 1.785932 1_545
Ge7 O22 1.785938 1_555
Ge7 O45 1.785938 1_556
Ge8 O28 1.785927 1_555
Ge8 O18 1.785932 1_455
Ge8 O17 1.785938 1_555
Ge8 O32 1.785938 1_565
Ge9 O0 1.785927 1_555
Ge9 O19 1.785932 1_555
Ge9 O3 1.785938 1_555
Ge9 O30 1.785938 1_555
Ge10 O47 1.785927 1_555
Ge10 O39 1.785932 1_555
Ge10 O5 1.785938 1_555
Ge10 O43 1.785938 1_555
Ge11 O35 1.785927 1_555
Ge11 O16 1.785932 1_555
Ge11 O29 1.785938 1_555
Ge11 O12 1.785938 1_555
