# generated using pymatgen
data_MgSc
_symmetry_space_group_name_H-M   'P 1'
_cell_length_a   7.19615868
_cell_length_b   10.18045078
_cell_length_c   10.17737618
_cell_angle_alpha   90.00000000
_cell_angle_beta   90.00000000
_cell_angle_gamma   90.00000000
_symmetry_Int_Tables_number   1
_chemical_formula_structural   MgSc
_chemical_formula_sum   'Mg16 Sc16'
_cell_volume   745.59599611
_cell_formula_units_Z   16
loop_
 _symmetry_equiv_pos_site_id
 _symmetry_equiv_pos_as_xyz
  1  'x, y, z'
loop_
 _atom_site_type_symbol
 _atom_site_label
 _atom_site_symmetry_multiplicity
 _atom_site_fract_x
 _atom_site_fract_y
 _atom_site_fract_z
 _atom_site_occupancy
  Mg  Mg0_0  1  0.25000000  0.37500000  0.12064982  1
  Mg  Mg0_1  1  0.25000000  0.37500000  0.62064981  1
  Mg  Mg0_2  1  0.25000000  0.87500000  0.12064982  1
  Mg  Mg0_3  1  0.25000000  0.87500000  0.62064981  1
  Mg  Mg0_4  1  0.75000000  0.37500000  0.12064982  1
  Mg  Mg0_5  1  0.75000000  0.37500000  0.62064981  1
  Mg  Mg0_6  1  0.75000000  0.87500000  0.12064982  1
  Mg  Mg0_7  1  0.75000000  0.87500000  0.62064981  1
  Mg  Mg1_0  1  0.25000000  0.12500000  0.37935019  1
  Mg  Mg1_1  1  0.25000000  0.12500000  0.87935019  1
  Mg  Mg1_2  1  0.25000000  0.62500000  0.37935019  1
  Mg  Mg1_3  1  0.25000000  0.62500000  0.87935019  1
  Mg  Mg1_4  1  0.75000000  0.12500000  0.37935019  1
  Mg  Mg1_5  1  0.75000000  0.12500000  0.87935019  1
  Mg  Mg1_6  1  0.75000000  0.62500000  0.37935019  1
  Mg  Mg1_7  1  0.75000000  0.62500000  0.87935019  1
  Sc  Sc0_0  1  0.00000000  0.37500000  0.37175870  1
  Sc  Sc0_1  1  0.00000000  0.37500000  0.87175870  1
  Sc  Sc0_2  1  0.00000000  0.87500000  0.37175870  1
  Sc  Sc0_3  1  0.00000000  0.87500000  0.87175870  1
  Sc  Sc0_4  1  0.50000000  0.37500000  0.37175870  1
  Sc  Sc0_5  1  0.50000000  0.37500000  0.87175870  1
  Sc  Sc0_6  1  0.50000000  0.87500000  0.37175870  1
  Sc  Sc0_7  1  0.50000000  0.87500000  0.87175870  1
  Sc  Sc1_0  1  0.00000000  0.12500000  0.12824130  1
  Sc  Sc1_1  1  0.00000000  0.12500000  0.62824130  1
  Sc  Sc1_2  1  0.00000000  0.62500000  0.12824130  1
  Sc  Sc1_3  1  0.00000000  0.62500000  0.62824130  1
  Sc  Sc1_4  1  0.50000000  0.12500000  0.12824130  1
  Sc  Sc1_5  1  0.50000000  0.12500000  0.62824130  1
  Sc  Sc1_6  1  0.50000000  0.62500000  0.12824130  1
  Sc  Sc1_7  1  0.50000000  0.62500000  0.62824130  1
loop_
_geom_bond_atom_site_label_1
_geom_bond_atom_site_label_2
_geom_bond_distance
_geom_bond_site_symmetry_2
Mg0_0 Sc0_1 3.106916 1_554
Mg0_0 Sc0_5 3.106916 1_554
Mg0_0 Sc1_0 3.117709 1_555
Mg0_0 Sc1_4 3.117709 1_555
Mg0_0 Sc1_6 3.117709 1_555
Mg0_0 Sc1_2 3.117709 1_555
Mg0_0 Sc0_0 3.125346 1_555
Mg0_0 Sc0_4 3.125346 1_555
Mg0_0 Mg1_1 3.536741 1_554
Mg0_0 Mg1_3 3.536741 1_554
Mg0_0 Mg0_4 3.598079 1_455
Mg0_0 Mg0_4 3.598079 1_555
Mg0_0 Mg1_0 3.661928 1_555
Mg0_0 Mg1_2 3.661928 1_555
Mg0_1 Sc0_4 3.106916 1_555
Mg0_1 Sc0_0 3.106916 1_555
Mg0_1 Sc1_1 3.117709 1_555
Mg0_1 Sc1_5 3.117709 1_555
Mg0_1 Sc1_3 3.117709 1_555
Mg0_1 Sc1_7 3.117709 1_555
Mg0_1 Sc0_1 3.125346 1_555
Mg0_1 Sc0_5 3.125346 1_555
Mg0_1 Mg1_0 3.536741 1_555
Mg0_1 Mg1_2 3.536741 1_555
Mg0_1 Mg0_5 3.598079 1_455
Mg0_1 Mg0_5 3.598079 1_555
Mg0_1 Mg1_1 3.661928 1_555
Mg0_1 Mg1_3 3.661928 1_555
Mg0_2 Sc0_7 3.106916 1_554
Mg0_2 Sc0_3 3.106916 1_554
Mg0_2 Sc1_6 3.117709 1_555
Mg0_2 Sc1_2 3.117709 1_555
Mg0_2 Sc1_4 3.117709 1_565
Mg0_2 Sc1_0 3.117709 1_565
Mg0_2 Sc0_6 3.125346 1_555
Mg0_2 Sc0_2 3.125346 1_555
Mg0_2 Mg1_3 3.536741 1_554
Mg0_2 Mg1_1 3.536741 1_564
Mg0_2 Mg0_6 3.598079 1_455
Mg0_2 Mg0_6 3.598079 1_555
Mg0_2 Mg1_2 3.661928 1_555
Mg0_2 Mg1_0 3.661928 1_565
Mg0_3 Sc0_2 3.106916 1_555
Mg0_3 Sc0_6 3.106916 1_555
Mg0_3 Sc1_3 3.117709 1_555
Mg0_3 Sc1_7 3.117709 1_555
Mg0_3 Sc1_5 3.117709 1_565
Mg0_3 Sc1_1 3.117709 1_565
Mg0_3 Sc0_3 3.125346 1_555
Mg0_3 Sc0_7 3.125346 1_555
Mg0_3 Mg1_2 3.536741 1_555
Mg0_3 Mg1_0 3.536741 1_565
Mg0_3 Mg0_7 3.598079 1_455
Mg0_3 Mg0_7 3.598079 1_555
Mg0_3 Mg1_3 3.661928 1_555
Mg0_3 Mg1_1 3.661928 1_565
Mg0_4 Sc0_5 3.106916 1_554
Mg0_4 Sc0_1 3.106916 1_654
Mg0_4 Sc1_0 3.117709 1_655
Mg0_4 Sc1_4 3.117709 1_555
Mg0_4 Sc1_6 3.117709 1_555
Mg0_4 Sc1_2 3.117709 1_655
Mg0_4 Sc0_0 3.125346 1_655
Mg0_4 Sc0_4 3.125346 1_555
Mg0_4 Mg1_5 3.536741 1_554
Mg0_4 Mg1_7 3.536741 1_554
Mg0_4 Mg1_4 3.661928 1_555
Mg0_4 Mg1_6 3.661928 1_555
Mg0_5 Sc0_4 3.106916 1_555
Mg0_5 Sc0_0 3.106916 1_655
Mg0_5 Sc1_5 3.117709 1_555
Mg0_5 Sc1_1 3.117709 1_655
Mg0_5 Sc1_3 3.117709 1_655
Mg0_5 Sc1_7 3.117709 1_555
Mg0_5 Sc0_5 3.125346 1_555
Mg0_5 Sc0_1 3.125346 1_655
Mg0_5 Mg1_4 3.536741 1_555
Mg0_5 Mg1_6 3.536741 1_555
Mg0_5 Mg1_5 3.661928 1_555
Mg0_5 Mg1_7 3.661928 1_555
Mg0_6 Sc0_7 3.106916 1_554
Mg0_6 Sc0_3 3.106916 1_654
Mg0_6 Sc1_2 3.117709 1_655
Mg0_6 Sc1_6 3.117709 1_555
Mg0_6 Sc1_0 3.117709 1_665
Mg0_6 Sc1_4 3.117709 1_565
Mg0_6 Sc0_6 3.125346 1_555
Mg0_6 Sc0_2 3.125346 1_655
Mg0_6 Mg1_7 3.536741 1_554
Mg0_6 Mg1_5 3.536741 1_564
Mg0_6 Mg1_6 3.661928 1_555
Mg0_6 Mg1_4 3.661928 1_565
Mg0_7 Sc0_6 3.106916 1_555
Mg0_7 Sc0_2 3.106916 1_655
Mg0_7 Sc1_3 3.117709 1_655
Mg0_7 Sc1_7 3.117709 1_555
Mg0_7 Sc1_5 3.117709 1_565
Mg0_7 Sc1_1 3.117709 1_665
Mg0_7 Sc0_3 3.125346 1_655
Mg0_7 Sc0_7 3.125346 1_555
Mg0_7 Mg1_6 3.536741 1_555
Mg0_7 Mg1_4 3.536741 1_565
Mg0_7 Mg1_7 3.661928 1_555
Mg0_7 Mg1_5 3.661928 1_565
Mg1_0 Sc1_5 3.106916 1_555
Mg1_0 Sc1_1 3.106916 1_555
Mg1_0 Sc0_0 3.117709 1_555
Mg1_0 Sc0_4 3.117709 1_555
Mg1_0 Sc0_2 3.117709 1_545
Mg1_0 Sc0_6 3.117709 1_545
Mg1_0 Sc1_0 3.125346 1_555
Mg1_0 Sc1_4 3.125346 1_555
Mg1_0 Mg1_4 3.598079 1_555
Mg1_0 Mg1_4 3.598079 1_455
Mg1_1 Sc1_4 3.106916 1_556
Mg1_1 Sc1_0 3.106916 1_556
Mg1_1 Sc0_5 3.117709 1_555
Mg1_1 Sc0_1 3.117709 1_555
Mg1_1 Sc0_3 3.117709 1_545
Mg1_1 Sc0_7 3.117709 1_545
Mg1_1 Sc1_1 3.125346 1_555
Mg1_1 Sc1_5 3.125346 1_555
Mg1_1 Mg1_5 3.598079 1_455
Mg1_1 Mg1_5 3.598079 1_555
Mg1_2 Sc1_3 3.106916 1_555
Mg1_2 Sc1_7 3.106916 1_555
Mg1_2 Sc0_2 3.117709 1_555
Mg1_2 Sc0_6 3.117709 1_555
Mg1_2 Sc0_0 3.117709 1_555
Mg1_2 Sc0_4 3.117709 1_555
Mg1_2 Sc1_6 3.125346 1_555
Mg1_2 Sc1_2 3.125346 1_555
Mg1_2 Mg1_6 3.598079 1_455
Mg1_2 Mg1_6 3.598079 1_555
Mg1_3 Sc1_6 3.106916 1_556
Mg1_3 Sc1_2 3.106916 1_556
Mg1_3 Sc0_3 3.117709 1_555
Mg1_3 Sc0_7 3.117709 1_555
Mg1_3 Sc0_1 3.117709 1_555
Mg1_3 Sc0_5 3.117709 1_555
Mg1_3 Sc1_3 3.125346 1_555
Mg1_3 Sc1_7 3.125346 1_555
Mg1_3 Mg1_7 3.598079 1_455
Mg1_3 Mg1_7 3.598079 1_555
Mg1_4 Sc1_5 3.106916 1_555
Mg1_4 Sc1_1 3.106916 1_655
Mg1_4 Sc0_0 3.117709 1_655
Mg1_4 Sc0_4 3.117709 1_555
Mg1_4 Sc0_2 3.117709 1_645
Mg1_4 Sc0_6 3.117709 1_545
Mg1_4 Sc1_0 3.125346 1_655
Mg1_4 Sc1_4 3.125346 1_555
Mg1_5 Sc1_4 3.106916 1_556
Mg1_5 Sc1_0 3.106916 1_656
Mg1_5 Sc0_5 3.117709 1_555
Mg1_5 Sc0_1 3.117709 1_655
Mg1_5 Sc0_7 3.117709 1_545
Mg1_5 Sc0_3 3.117709 1_645
Mg1_5 Sc1_1 3.125346 1_655
Mg1_5 Sc1_5 3.125346 1_555
Mg1_6 Sc1_3 3.106916 1_655
Mg1_6 Sc1_7 3.106916 1_555
Mg1_6 Sc0_6 3.117709 1_555
Mg1_6 Sc0_2 3.117709 1_655
Mg1_6 Sc0_0 3.117709 1_655
Mg1_6 Sc0_4 3.117709 1_555
Mg1_6 Sc1_2 3.125346 1_655
Mg1_6 Sc1_6 3.125346 1_555
Mg1_7 Sc1_6 3.106916 1_556
Mg1_7 Sc1_2 3.106916 1_656
Mg1_7 Sc0_3 3.117709 1_655
Mg1_7 Sc0_7 3.117709 1_555
Mg1_7 Sc0_5 3.117709 1_555
Mg1_7 Sc0_1 3.117709 1_655
Mg1_7 Sc1_3 3.125346 1_655
Mg1_7 Sc1_7 3.125346 1_555
Sc0_0 Sc1_0 3.552451 1_555
Sc0_0 Sc1_2 3.552451 1_555
Sc0_0 Sc0_4 3.598079 1_555
Sc0_0 Sc0_4 3.598079 1_455
Sc0_0 Sc1_1 3.645733 1_555
Sc0_0 Sc1_3 3.645733 1_555
Sc0_1 Sc1_1 3.552451 1_555
Sc0_1 Sc1_3 3.552451 1_555
Sc0_1 Sc0_5 3.598079 1_555
Sc0_1 Sc0_5 3.598079 1_455
Sc0_1 Sc1_0 3.645733 1_556
Sc0_1 Sc1_2 3.645733 1_556
Sc0_2 Sc1_2 3.552451 1_555
Sc0_2 Sc1_0 3.552451 1_565
Sc0_2 Sc0_6 3.598079 1_555
Sc0_2 Sc0_6 3.598079 1_455
Sc0_2 Sc1_3 3.645733 1_555
Sc0_2 Sc1_1 3.645733 1_565
Sc0_3 Sc1_3 3.552451 1_555
Sc0_3 Sc1_1 3.552451 1_565
Sc0_3 Sc0_7 3.598079 1_555
Sc0_3 Sc0_7 3.598079 1_455
Sc0_3 Sc1_2 3.645733 1_556
Sc0_3 Sc1_0 3.645733 1_566
Sc0_4 Sc1_4 3.552451 1_555
Sc0_4 Sc1_6 3.552451 1_555
Sc0_4 Sc1_5 3.645733 1_555
Sc0_4 Sc1_7 3.645733 1_555
Sc0_5 Sc1_5 3.552451 1_555
Sc0_5 Sc1_7 3.552451 1_555
Sc0_5 Sc1_4 3.645733 1_556
Sc0_5 Sc1_6 3.645733 1_556
Sc0_6 Sc1_6 3.552451 1_555
Sc0_6 Sc1_4 3.552451 1_565
Sc0_6 Sc1_7 3.645733 1_555
Sc0_6 Sc1_5 3.645733 1_565
Sc0_7 Sc1_7 3.552451 1_555
Sc0_7 Sc1_5 3.552451 1_565
Sc0_7 Sc1_6 3.645733 1_556
Sc0_7 Sc1_4 3.645733 1_566
Sc1_0 Sc1_4 3.598079 1_555
Sc1_0 Sc1_4 3.598079 1_455
Sc1_1 Sc1_5 3.598079 1_455
Sc1_1 Sc1_5 3.598079 1_555
Sc1_2 Sc1_6 3.598079 1_555
Sc1_2 Sc1_6 3.598079 1_455
Sc1_3 Sc1_7 3.598079 1_455
Sc1_3 Sc1_7 3.598079 1_555
