# generated using pymatgen
data_EuMg2Fe
_symmetry_space_group_name_H-M   'P 1'
_cell_length_a   4.84176569
_cell_length_b   4.84176569
_cell_length_c   5.13784100
_cell_angle_alpha   90.00000000
_cell_angle_beta   90.00000000
_cell_angle_gamma   119.99999580
_symmetry_Int_Tables_number   1
_chemical_formula_structural   EuMg2Fe
_chemical_formula_sum   'Eu1 Mg2 Fe1'
_cell_volume   104.30829529
_cell_formula_units_Z   1
loop_
 _symmetry_equiv_pos_site_id
 _symmetry_equiv_pos_as_xyz
  1  'x, y, z'
loop_
 _atom_site_type_symbol
 _atom_site_label
 _atom_site_symmetry_multiplicity
 _atom_site_fract_x
 _atom_site_fract_y
 _atom_site_fract_z
 _atom_site_occupancy
  Eu  Eu0  1  0.00000000  0.00000000  0.50000000  1
  Mg  Mg0  1  0.66666700  0.33333300  0.97844000  1
  Mg  Mg1  1  0.33333300  0.66666700  0.02156000  1
  Fe  Fe0  1  0.00000000  0.00000000  0.00000000  1
loop_
_geom_bond_atom_site_label_1
_geom_bond_atom_site_label_2
_geom_bond_distance
_geom_bond_site_symmetry_2
Eu0 Fe0 2.568920 1_556
Eu0 Fe0 2.568920 1_555
Eu0 Mg1 3.722460 1_545
Eu0 Mg0 3.722460 1_455
Eu0 Mg1 3.722464 1_445
Eu0 Mg1 3.722464 1_555
Eu0 Mg0 3.722464 1_555
Eu0 Mg0 3.722464 1_445
Eu0 Mg0 3.872334 1_454
Eu0 Mg1 3.872334 1_546
Eu0 Mg0 3.872337 1_554
Eu0 Mg0 3.872337 1_444
Eu0 Mg1 3.872337 1_446
Eu0 Mg1 3.872337 1_556
Mg0 Mg1 2.804157 1_546
Mg0 Mg1 2.804157 1_656
Mg0 Mg1 2.804166 1_556
Fe0 Mg0 2.797586 1_454
Fe0 Mg1 2.797586 1_545
Fe0 Mg0 2.797590 1_554
Fe0 Mg0 2.797590 1_444
Fe0 Mg1 2.797590 1_445
Fe0 Mg1 2.797590 1_555
