# generated using pymatgen
data_Li9Mn2Co5O16
_symmetry_space_group_name_H-M   'P 1'
_cell_length_a   3.02799300
_cell_length_b   9.83270278
_cell_length_c   10.11735365
_cell_angle_alpha   77.01748281
_cell_angle_beta   88.69460039
_cell_angle_gamma   87.33057161
_symmetry_Int_Tables_number   1
_chemical_formula_structural   Li9Mn2Co5O16
_chemical_formula_sum   'Li9 Mn2 Co5 O16'
_cell_volume   293.18578569
_cell_formula_units_Z   1
loop_
 _symmetry_equiv_pos_site_id
 _symmetry_equiv_pos_as_xyz
  1  'x, y, z'
loop_
 _atom_site_type_symbol
 _atom_site_label
 _atom_site_symmetry_multiplicity
 _atom_site_fract_x
 _atom_site_fract_y
 _atom_site_fract_z
 _atom_site_occupancy
  Li  Li0  1  0.99923600  0.74852100  0.87803700  1
  Li  Li1  1  0.49861400  0.49738700  0.49504000  1
  Li  Li2  1  0.00285400  0.24969600  0.12827200  1
  Li  Li3  1  0.50038400  0.00169900  0.74752800  1
  Li  Li4  1  0.50069900  0.50261900  0.00474600  1
  Li  Li5  1  0.00306200  0.24965100  0.62368100  1
  Li  Li6  1  0.50084000  0.99920200  0.25146100  1
  Li  Li7  1  0.99352800  0.75123400  0.37003900  1
  Li  Li8  1  0.99952800  0.49958900  0.25026400  1
  Mn  Mn0  1  0.00692500  0.99703300  0.00113900  1
  Mn  Mn1  1  0.49750700  0.75089600  0.62397300  1
  Co  Co0  1  0.50638800  0.25039400  0.87508100  1
  Co  Co1  1  0.00391600  0.00475700  0.49647300  1
  Co  Co2  1  0.49144800  0.73800000  0.12995100  1
  Co  Co3  1  0.99510000  0.49850600  0.75143000  1
  Co  Co4  1  0.49994600  0.26085700  0.37120700  1
  O  O0  1  0.47473400  0.86767900  0.95436600  1
  O  O1  1  0.96121000  0.62240500  0.57081200  1
  O  O2  1  0.49690200  0.36021400  0.20547400  1
  O  O3  1  0.01532800  0.12416800  0.82238400  1
  O  O4  1  0.96638600  0.63412900  0.06875600  1
  O  O5  1  0.50616500  0.37406100  0.69910700  1
  O  O6  1  0.96690800  0.12737400  0.32300400  1
  O  O7  1  0.51058200  0.87868900  0.44684700  1
  O  O8  1  0.48312400  0.62322900  0.80154600  1
  O  O9  1  0.02740000  0.36491600  0.43238400  1
  O  O10  1  0.53800500  0.12582400  0.05288300  1
  O  O11  1  0.03465900  0.88002600  0.67701000  1
  O  O12  1  0.99624200  0.37534900  0.92913600  1
  O  O13  1  0.49533200  0.13014400  0.54459800  1
  O  O14  1  0.02593000  0.87256100  0.17769500  1
  O  O15  1  0.50111800  0.63919300  0.29568300  1
loop_
_geom_bond_atom_site_label_1
_geom_bond_atom_site_label_2
_geom_bond_distance
_geom_bond_site_symmetry_2
Li0 O4 2.006190 1_556
Li0 O8 2.114717 1_655
Li0 O11 2.154397 1_655
Li0 O0 2.157889 1_655
Li0 O0 2.160737 1_555
Li0 O8 2.285109 1_555
Li1 O5 2.146698 1_555
Li1 O1 2.166467 1_555
Li1 O9 2.172475 1_555
Li1 O15 2.179236 1_555
Li1 O9 2.189217 1_655
Li1 O1 2.219684 1_455
Li2 O6 2.068279 1_455
Li2 O2 2.076015 1_455
Li2 O12 2.113558 1_454
Li2 O2 2.148244 1_555
Li2 O10 2.161603 1_455
Li2 O10 2.206432 1_555
Li3 O3 2.091704 1_555
Li3 O11 2.124979 1_545
Li3 O13 2.155263 1_555
Li3 O11 2.169835 1_645
Li3 O0 2.210173 1_545
Li3 O3 2.256854 1_655
Li4 O8 2.130589 1_554
Li4 O12 2.146071 1_554
Li4 O4 2.160461 1_555
Li4 O2 2.192677 1_555
Li4 O4 2.200623 1_455
Li4 O12 2.268447 1_454
Li5 O9 2.012835 1_555
Li5 O13 2.108977 1_555
Li5 O3 2.109475 1_555
Li5 O5 2.130321 1_455
Li5 O13 2.243067 1_455
Li5 O5 2.246214 1_555
Li6 O7 2.063891 1_555
Li6 O10 2.116142 1_565
Li6 O6 2.173920 1_565
Li6 O14 2.192882 1_555
Li6 O14 2.194229 1_655
Li6 O6 2.211975 1_465
Li7 O14 2.044234 1_655
Li7 O15 2.074578 1_655
Li7 O7 2.127916 1_555
Li7 O15 2.139908 1_555
Li7 O1 2.141662 1_555
Li7 O7 2.302485 1_655
Li8 O4 2.009209 1_555
Li8 O9 2.013975 1_655
Li8 O2 2.099355 1_655
Li8 O15 2.105208 1_555
Li8 O2 2.214609 1_555
Li8 O15 2.216217 1_655
Mn0 O14 1.925582 1_555
Mn0 O3 1.954275 1_564
Mn0 O0 1.979967 1_554
Mn0 O10 1.997583 1_465
Mn0 O0 2.221395 1_454
Mn0 O10 2.233756 1_565
Mn1 O7 1.944626 1_555
Mn1 O8 1.947714 1_555
Mn1 O1 1.990636 1_555
Mn1 O11 1.992578 1_555
Mn1 O1 2.249172 1_455
Mn1 O11 2.254726 1_655
Co0 O5 1.917203 1_555
Co0 O10 1.937102 1_556
Co0 O3 2.069129 1_655
Co0 O12 2.069166 1_455
Co0 O12 2.125414 1_555
Co0 O3 2.130957 1_555
Co1 O6 1.895258 1_455
Co1 O11 1.959522 1_545
Co1 O13 2.046304 1_455
Co1 O7 2.051775 1_545
Co1 O13 2.108284 1_555
Co1 O7 2.122837 1_445
Co2 O15 1.738950 1_555
Co2 O4 1.897718 1_555
Co2 O0 1.940247 1_554
Co2 O14 2.013272 1_555
Co2 O4 2.105800 1_455
Co2 O14 2.263934 1_655
Co3 O12 1.928886 1_555
Co3 O1 1.957201 1_555
Co3 O8 2.056903 1_555
Co3 O5 2.061456 1_655
Co3 O8 2.104064 1_655
Co3 O5 2.113020 1_555
Co4 O2 1.740674 1_555
Co4 O9 1.893462 1_555
Co4 O13 1.927959 1_555
Co4 O6 2.010741 1_555
Co4 O9 2.112490 1_655
Co4 O6 2.255302 1_455
