# generated using pymatgen
data_DyAl7Au3
_symmetry_space_group_name_H-M   'P 1'
_cell_length_a   8.38060428
_cell_length_b   8.38060428
_cell_length_c   8.38060463
_cell_angle_alpha   57.34452266
_cell_angle_beta   57.34452266
_cell_angle_gamma   57.34453745
_symmetry_Int_Tables_number   1
_chemical_formula_structural   DyAl7Au3
_chemical_formula_sum   'Dy2 Al14 Au6'
_cell_volume   390.76856729
_cell_formula_units_Z   2
loop_
 _symmetry_equiv_pos_site_id
 _symmetry_equiv_pos_as_xyz
  1  'x, y, z'
loop_
 _atom_site_type_symbol
 _atom_site_label
 _atom_site_symmetry_multiplicity
 _atom_site_fract_x
 _atom_site_fract_y
 _atom_site_fract_z
 _atom_site_occupancy
  Dy  Dy0  1  0.50000000  0.50000000  0.50000000  1
  Dy  Dy1  1  0.00000000  -0.00000000  -0.00000000  1
  Al  Al0  1  0.43184491  0.64706050  0.83203347  1
  Al  Al1  1  0.83203347  0.43184491  0.64706050  1
  Al  Al2  1  0.64706050  0.83203347  0.43184491  1
  Al  Al3  1  0.06815509  0.66796653  0.85293950  1
  Al  Al4  1  0.85293950  0.06815509  0.66796653  1
  Al  Al5  1  0.66796653  0.85293950  0.06815509  1
  Al  Al6  1  0.56815509  0.35293950  0.16796653  1
  Al  Al7  1  0.16796653  0.56815509  0.35293950  1
  Al  Al8  1  0.25000000  0.25000000  0.25000000  1
  Al  Al9  1  0.75000000  0.75000000  0.75000000  1
  Al  Al10  1  0.33203347  0.14706050  0.93184491  1
  Al  Al11  1  0.14706050  0.93184491  0.33203347  1
  Al  Al12  1  0.93184491  0.33203347  0.14706050  1
  Al  Al13  1  0.35293950  0.16796653  0.56815509  1
  Au  Au0  1  0.75000000  0.07448806  0.42551194  1
  Au  Au1  1  0.42551194  0.75000000  0.07448806  1
  Au  Au2  1  0.07448806  0.42551194  0.75000000  1
  Au  Au3  1  0.25000000  0.92551194  0.57448806  1
  Au  Au4  1  0.57448806  0.25000000  0.92551194  1
  Au  Au5  1  0.92551194  0.57448806  0.25000000  1
loop_
_geom_bond_atom_site_label_1
_geom_bond_atom_site_label_2
_geom_bond_distance
_geom_bond_site_symmetry_2
Al0 Au1 2.569369 1_556
Al0 Au3 2.589025 1_555
Al0 Au4 2.649580 1_555
Al0 Al2 2.789798 1_555
Al0 Al1 2.789798 1_555
Al0 Al9 2.861870 1_555
Al0 Al3 2.869124 1_555
Al0 Al6 2.872258 1_556
Al0 Dy0 3.288522 1_555
Al0 Dy1 3.357310 1_566
Al1 Au2 2.569369 1_655
Al1 Au4 2.589025 1_555
Al1 Au5 2.649580 1_555
Al1 Al2 2.789798 1_555
Al1 Al9 2.861870 1_555
Al1 Al4 2.869124 1_555
Al1 Al7 2.872258 1_655
Al1 Dy0 3.288522 1_555
Al1 Dy1 3.357309 1_656
Al2 Au0 2.569369 1_565
Al2 Au5 2.589026 1_555
Al2 Au3 2.649580 1_555
Al2 Al9 2.861870 1_555
Al2 Al5 2.869124 1_555
Al2 Dy0 3.288521 1_555
Al2 Dy1 3.357309 1_665
Al3 Au2 2.569369 1_555
Al3 Au3 2.589025 1_555
Al3 Au5 2.649580 1_456
Al3 Al5 2.789798 1_456
Al3 Al4 2.789798 1_465
Al3 Al9 2.861870 1_455
Al3 Dy1 3.288522 1_566
Al3 Dy0 3.357309 1_555
Al4 Au0 2.569369 1_555
Al4 Au4 2.589025 1_555
Al4 Au3 2.649580 1_645
Al4 Al5 2.789798 1_546
Al4 Al9 2.861870 1_545
Al4 Dy1 3.288522 1_656
Al4 Dy0 3.357310 1_555
Al5 Au1 2.569369 1_555
Al5 Au5 2.589026 1_555
Al5 Au4 2.649580 1_564
Al5 Al9 2.861870 1_554
Al5 Dy1 3.288521 1_665
Al5 Dy0 3.357309 1_555
Al6 Au4 2.569369 1_554
Al6 Au0 2.589025 1_555
Al6 Au1 2.649580 1_555
Al6 Al7 2.789798 1_555
Al6 Al8 2.861870 1_555
Al6 Dy0 3.288522 1_555
Al6 Dy1 3.357310 1_655
Al7 Au5 2.569369 1_455
Al7 Au1 2.589025 1_555
Al7 Au2 2.649580 1_555
Al7 Al8 2.861870 1_555
Al7 Dy0 3.288522 1_555
Al7 Dy1 3.357309 1_565
Al8 Au3 2.609535 1_545
Al8 Au4 2.609535 1_554
Al8 Au5 2.609536 1_455
Al9 Au0 2.609535 1_565
Al9 Au1 2.609535 1_556
Al9 Au2 2.609536 1_655
Al10 Au4 2.569369 1_555
Al10 Au2 2.589026 1_555
Al10 Au1 2.649580 1_546
Al10 Al11 2.789798 1_546
Al10 Al12 2.789798 1_456
Al10 Al8 2.861870 1_556
Al10 Al13 2.869124 1_555
Al10 Al5 2.872259 1_546
Al10 Dy1 3.288521 1_556
Al10 Dy0 3.357309 1_555
Al11 Au3 2.569369 1_555
Al11 Au1 2.589025 1_555
Al11 Au0 2.649580 1_465
Al11 Al12 2.789798 1_465
Al11 Al8 2.861870 1_565
Al11 Al7 2.869124 1_555
Al11 Al4 2.872258 1_465
Al11 Dy1 3.288522 1_565
Al11 Dy0 3.357310 1_555
Al12 Au5 2.569369 1_555
Al12 Au0 2.589025 1_555
Al12 Au2 2.649580 1_654
Al12 Al8 2.861870 1_655
Al12 Al6 2.869124 1_555
Al12 Al3 2.872258 1_654
Al12 Dy1 3.288522 1_655
Al12 Dy0 3.357309 1_555
Al13 Au3 2.569369 1_545
Al13 Au2 2.589026 1_555
Al13 Au0 2.649580 1_555
Al13 Al6 2.789798 1_555
Al13 Al7 2.789798 1_555
Al13 Al8 2.861870 1_555
Al13 Al2 2.872259 1_545
Al13 Dy0 3.288521 1_555
Al13 Dy1 3.357309 1_556
Au0 Dy1 3.228625 1_655
Au0 Dy0 3.228625 1_555
Au1 Dy0 3.228625 1_555
Au1 Dy1 3.228625 1_565
Au2 Dy0 3.228625 1_555
Au2 Dy1 3.228625 1_556
Au3 Dy1 3.228625 1_566
Au3 Dy0 3.228625 1_555
Au4 Dy0 3.228625 1_555
Au4 Dy1 3.228625 1_656
Au5 Dy0 3.228625 1_555
Au5 Dy1 3.228625 1_665
