# generated using pymatgen
data_AsSeS2(NF3)2
_symmetry_space_group_name_H-M   'P 1'
_cell_length_a   16.43551000
_cell_length_b   10.22507600
_cell_length_c   13.57136081
_cell_angle_alpha   49.26904606
_cell_angle_beta   90.00000000
_cell_angle_gamma   90.00000000
_symmetry_Int_Tables_number   1
_chemical_formula_structural   AsSeS2(NF3)2
_chemical_formula_sum   'As8 Se8 S16 N16 F48'
_cell_volume   1728.29300389
_cell_formula_units_Z   8
loop_
 _symmetry_equiv_pos_site_id
 _symmetry_equiv_pos_as_xyz
  1  'x, y, z'
loop_
 _atom_site_type_symbol
 _atom_site_label
 _atom_site_symmetry_multiplicity
 _atom_site_fract_x
 _atom_site_fract_y
 _atom_site_fract_z
 _atom_site_occupancy
  As  As0  1  0.84518000  0.60654400  0.13749000  1
  As  As1  1  0.15482000  0.39345600  0.86251000  1
  As  As2  1  0.34518000  0.39345600  0.36251000  1
  As  As3  1  0.65482000  0.60654400  0.63749000  1
  As  As4  1  0.94189300  0.92921300  0.30630200  1
  As  As5  1  0.05810700  0.07078700  0.69369800  1
  As  As6  1  0.44189300  0.07078700  0.19369800  1
  As  As7  1  0.55810700  0.92921300  0.80630200  1
  Se  Se0  1  0.38362100  0.78120800  0.59337600  1
  Se  Se1  1  0.61637900  0.21879200  0.40662400  1
  Se  Se2  1  0.88362100  0.21879200  0.90662400  1
  Se  Se3  1  0.11637900  0.78120800  0.09337600  1
  Se  Se4  1  0.70770800  0.32819000  0.03093500  1
  Se  Se5  1  0.29229200  0.67181000  0.96906500  1
  Se  Se6  1  0.20770800  0.67181000  0.46906500  1
  Se  Se7  1  0.79229200  0.32819000  0.53093500  1
  S  S0  1  0.61445900  0.38977100  0.46367100  1
  S  S1  1  0.38554100  0.61022900  0.53632900  1
  S  S2  1  0.11445900  0.61022900  0.03632900  1
  S  S3  1  0.88554100  0.38977100  0.96367100  1
  S  S4  1  0.69027600  0.95800600  0.24138200  1
  S  S5  1  0.30972400  0.04199400  0.75861800  1
  S  S6  1  0.19027600  0.04199400  0.25861800  1
  S  S7  1  0.80972400  0.95800600  0.74138200  1
  S  S8  1  0.29790300  0.84367100  0.02663900  1
  S  S9  1  0.70209700  0.15632900  0.97336100  1
  S  S10  1  0.79790300  0.15632900  0.47336100  1
  S  S11  1  0.20209700  0.84367100  0.52663900  1
  S  S12  1  0.60136600  0.58886900  0.19569700  1
  S  S13  1  0.39863400  0.41113100  0.80430300  1
  S  S14  1  0.10136600  0.41113100  0.30430300  1
  S  S15  1  0.89863400  0.58886900  0.69569700  1
  N  N0  1  0.60755600  0.40517300  0.23831000  1
  N  N1  1  0.39244400  0.59482700  0.76169000  1
  N  N2  1  0.10755600  0.59482700  0.26169000  1
  N  N3  1  0.89244400  0.40517300  0.73831000  1
  N  N4  1  0.19788000  0.85853000  0.30112800  1
  N  N5  1  0.80212000  0.14147000  0.69887200  1
  N  N6  1  0.69788000  0.14147000  0.19887200  1
  N  N7  1  0.30212000  0.85853000  0.80112800  1
  N  N8  1  0.69000100  0.97540100  0.11703400  1
  N  N9  1  0.30999900  0.02459900  0.88296600  1
  N  N10  1  0.19000100  0.02459900  0.38296600  1
  N  N11  1  0.80999900  0.97540100  0.61703400  1
  N  N12  1  0.60334900  0.57194200  0.31975000  1
  N  N13  1  0.39665100  0.42805800  0.68025000  1
  N  N14  1  0.10334900  0.42805800  0.18025000  1
  N  N15  1  0.89665100  0.57194200  0.81975000  1
  F  F0  1  0.37101500  0.95428300  0.33110000  1
  F  F1  1  0.62898500  0.04571700  0.66890000  1
  F  F2  1  0.87101500  0.04571700  0.16890000  1
  F  F3  1  0.12898500  0.95428300  0.83110000  1
  F  F4  1  0.49195400  0.90670600  0.71529100  1
  F  F5  1  0.50804600  0.09329400  0.28470900  1
  F  F6  1  0.99195400  0.09329400  0.78470900  1
  F  F7  1  0.00804600  0.90670600  0.21529100  1
  F  F8  1  0.51138600  0.18185000  0.06172900  1
  F  F9  1  0.48861400  0.81815000  0.93827100  1
  F  F10  1  0.01138600  0.81815000  0.43827100  1
  F  F11  1  0.98861400  0.18185000  0.56172900  1
  F  F12  1  0.75823600  0.68541900  0.03608200  1
  F  F13  1  0.24176400  0.31458100  0.96391800  1
  F  F14  1  0.25823600  0.31458100  0.46391800  1
  F  F15  1  0.74176400  0.68541900  0.53608200  1
  F  F16  1  0.86117500  0.81324600  0.08677900  1
  F  F17  1  0.13882500  0.18675400  0.91322100  1
  F  F18  1  0.36117500  0.18675400  0.41322100  1
  F  F19  1  0.63882500  0.81324600  0.58677900  1
  F  F20  1  0.92923800  0.52350400  0.24407700  1
  F  F21  1  0.07076200  0.47649600  0.75592300  1
  F  F22  1  0.42923800  0.47649600  0.25592300  1
  F  F23  1  0.57076200  0.52350400  0.74407700  1
  F  F24  1  0.78040300  0.54971900  0.26893000  1
  F  F25  1  0.21959700  0.45028100  0.73107000  1
  F  F26  1  0.28040300  0.45028100  0.23107000  1
  F  F27  1  0.71959700  0.54971900  0.76893000  1
  F  F28  1  0.48797300  0.87132100  0.26244500  1
  F  F29  1  0.51202700  0.12867900  0.73755500  1
  F  F30  1  0.98797300  0.12867900  0.23755500  1
  F  F31  1  0.01202700  0.87132100  0.76244500  1
  F  F32  1  0.87296600  0.95747900  0.39135300  1
  F  F33  1  0.12703400  0.04252100  0.60864700  1
  F  F34  1  0.37296600  0.04252100  0.10864700  1
  F  F35  1  0.62703400  0.95747900  0.89135300  1
  F  F36  1  0.90758600  0.65403900  0.01175200  1
  F  F37  1  0.09241400  0.34596100  0.98824800  1
  F  F38  1  0.40758600  0.34596100  0.48824800  1
  F  F39  1  0.59241400  0.65403900  0.51175200  1
  F  F40  1  0.89279500  0.73445000  0.37080800  1
  F  F41  1  0.10720500  0.26555000  0.62919200  1
  F  F42  1  0.39279500  0.26555000  0.12919200  1
  F  F43  1  0.60720500  0.73445000  0.87080800  1
  F  F44  1  0.82484500  0.39828000  0.19055400  1
  F  F45  1  0.17515500  0.60172000  0.80944600  1
  F  F46  1  0.32484500  0.60172000  0.30944600  1
  F  F47  1  0.67515500  0.39828000  0.69055400  1
loop_
_geom_bond_atom_site_label_1
_geom_bond_atom_site_label_2
_geom_bond_distance
_geom_bond_site_symmetry_2
As0 F16 1.763965 1_555
As0 F36 1.765869 1_555
As0 F20 1.766120 1_555
As0 F12 1.771427 1_555
As0 F44 1.778712 1_555
As0 F24 1.816721 1_555
As1 F17 1.763965 1_555
As1 F37 1.765869 1_555
As1 F21 1.766120 1_555
As1 F13 1.771427 1_555
As1 F45 1.778712 1_555
As1 F25 1.816721 1_555
As2 F18 1.763965 1_555
As2 F38 1.765869 1_555
As2 F22 1.766120 1_555
As2 F14 1.771427 1_555
As2 F46 1.778712 1_555
As2 F26 1.816721 1_555
As3 F19 1.763965 1_555
As3 F39 1.765869 1_555
As3 F23 1.766120 1_555
As3 F15 1.771427 1_555
As3 F47 1.778712 1_555
As3 F27 1.816721 1_555
As4 F40 1.763046 1_555
As4 F30 1.766504 1_565
As4 F7 1.769639 1_655
As4 F32 1.770468 1_555
As4 F10 1.774136 1_655
As4 F2 1.831507 1_565
As5 F41 1.763046 1_555
As5 F31 1.766504 1_545
As5 F6 1.769639 1_455
As5 F33 1.770468 1_555
As5 F11 1.774136 1_455
As5 F3 1.831507 1_545
As6 F42 1.763046 1_555
As6 F28 1.766504 1_545
As6 F5 1.769639 1_555
As6 F34 1.770468 1_555
As6 F8 1.774136 1_555
As6 F0 1.831507 1_545
As7 F43 1.763046 1_555
As7 F29 1.766504 1_565
As7 F4 1.769639 1_555
As7 F35 1.770468 1_555
As7 F9 1.774136 1_555
As7 F1 1.831507 1_565
S0 Se1 2.328780 1_555
S1 Se0 2.328780 1_555
S2 Se3 2.328780 1_555
S3 Se2 2.328780 1_555
S8 Se5 2.344991 1_554
S9 Se4 2.344991 1_556
S10 Se7 2.344991 1_555
S11 Se6 2.344991 1_555
N0 S12 1.566924 1_555
N0 Se1 1.785976 1_555
N1 S13 1.566924 1_555
N1 Se0 1.785976 1_555
N2 S14 1.566924 1_555
N2 Se3 1.785976 1_555
N3 S15 1.566924 1_555
N3 Se2 1.785976 1_555
N4 S6 1.566912 1_565
N4 Se6 1.785235 1_555
N5 S7 1.566912 1_545
N5 Se7 1.785235 1_555
N6 S4 1.566912 1_545
N6 Se4 1.785235 1_555
N7 S5 1.566912 1_565
N7 Se5 1.785235 1_555
N8 S4 1.577289 1_555
N8 S9 1.598887 1_564
N9 S5 1.577289 1_555
N9 S8 1.598887 1_546
N10 S6 1.577289 1_555
N10 S11 1.598887 1_545
N11 S7 1.577289 1_555
N11 S10 1.598887 1_565
N12 S12 1.576436 1_555
N12 S0 1.603141 1_555
N13 S13 1.576436 1_555
N13 S1 1.603141 1_555
N14 S14 1.576436 1_555
N14 S2 1.603141 1_555
N15 S15 1.576436 1_555
N15 S3 1.603141 1_555
F0 F28 2.512830 1_555
F0 F5 2.514198 1_565
F0 F34 2.524815 1_565
F0 F42 2.526876 1_565
F1 F29 2.512830 1_555
F1 F4 2.514198 1_545
F1 F35 2.524815 1_545
F1 F43 2.526876 1_545
F2 F30 2.512830 1_555
F2 F7 2.514198 1_645
F2 F32 2.524815 1_545
F2 F40 2.526876 1_545
F3 F31 2.512830 1_555
F3 F6 2.514198 1_465
F3 F33 2.524815 1_565
F3 F41 2.526876 1_565
F12 F44 2.486185 1_555
F12 F24 2.514335 1_555
F13 F45 2.486185 1_555
F13 F25 2.514335 1_555
F14 F46 2.486185 1_555
F14 F26 2.514335 1_555
F15 F47 2.486185 1_555
F15 F27 2.514335 1_555
F16 F24 2.537957 1_555
F17 F25 2.537957 1_555
F18 F26 2.537957 1_555
F19 F27 2.537957 1_555
F20 F24 2.507468 1_555
F21 F25 2.507468 1_555
F22 F26 2.507468 1_555
F23 F27 2.507468 1_555
F24 F44 2.492416 1_555
F25 F45 2.492416 1_555
F26 F46 2.492416 1_555
F27 F47 2.492416 1_555
