# generated using pymatgen
data_CsU2(AsO9)2
_symmetry_space_group_name_H-M   'P 1'
_cell_length_a   7.24487100
_cell_length_b   14.58136100
_cell_length_c   22.20103529
_cell_angle_alpha   49.64367812
_cell_angle_beta   90.00000000
_cell_angle_gamma   90.00000000
_symmetry_Int_Tables_number   1
_chemical_formula_structural   CsU2(AsO9)2
_chemical_formula_sum   'Cs4 U8 As8 O72'
_cell_volume   1787.20861704
_cell_formula_units_Z   4
loop_
 _symmetry_equiv_pos_site_id
 _symmetry_equiv_pos_as_xyz
  1  'x, y, z'
loop_
 _atom_site_type_symbol
 _atom_site_label
 _atom_site_symmetry_multiplicity
 _atom_site_fract_x
 _atom_site_fract_y
 _atom_site_fract_z
 _atom_site_occupancy
  Cs  Cs0  1  0.87850400  0.80300700  0.24860100  1
  Cs  Cs1  1  0.62149600  0.80300700  0.74860100  1
  Cs  Cs2  1  0.12149600  0.19699300  0.75139900  1
  Cs  Cs3  1  0.37850400  0.19699300  0.25139900  1
  U  U0  1  0.75082800  0.92822200  0.44654800  1
  U  U1  1  0.74917200  0.92822200  0.94654800  1
  U  U2  1  0.24917200  0.07177800  0.55345200  1
  U  U3  1  0.25082800  0.07177800  0.05345200  1
  U  U4  1  0.74898200  0.43159800  0.44274900  1
  U  U5  1  0.75101800  0.43159800  0.94274900  1
  U  U6  1  0.25101800  0.56840200  0.55725100  1
  U  U7  1  0.24898200  0.56840200  0.05725100  1
  As  As0  1  0.75095800  0.62549000  0.49958400  1
  As  As1  1  0.74904200  0.62549000  0.99958400  1
  As  As2  1  0.24904200  0.37451000  0.50041600  1
  As  As3  1  0.25095800  0.37451000  0.00041600  1
  As  As4  1  0.75042200  0.12647700  0.49865600  1
  As  As5  1  0.74957800  0.12647700  0.99865600  1
  As  As6  1  0.24957800  0.87352300  0.50134400  1
  As  As7  1  0.25042200  0.87352300  0.00134400  1
  O  O0  1  0.74830800  0.32476800  0.55020200  1
  O  O1  1  0.75169200  0.32476800  0.05020200  1
  O  O2  1  0.25169200  0.67523200  0.44979800  1
  O  O3  1  0.24830800  0.67523200  0.94979800  1
  O  O4  1  0.75595100  0.82301000  0.55417100  1
  O  O5  1  0.74404900  0.82301000  0.05417100  1
  O  O6  1  0.24404900  0.17699000  0.44582900  1
  O  O7  1  0.25595100  0.17699000  0.94582900  1
  O  O8  1  0.75546600  0.54433000  0.33421800  1
  O  O9  1  0.74453400  0.54433000  0.83421800  1
  O  O10  1  0.24453400  0.45567000  0.66578200  1
  O  O11  1  0.25546600  0.45567000  0.16578200  1
  O  O12  1  0.73744200  0.03884500  0.33876200  1
  O  O13  1  0.76255800  0.03884500  0.83876200  1
  O  O14  1  0.26255800  0.96115500  0.66123800  1
  O  O15  1  0.23744200  0.96115500  0.16123800  1
  O  O16  1  0.55923300  0.55414200  0.55895300  1
  O  O17  1  0.94076700  0.55414200  0.05895300  1
  O  O18  1  0.44076700  0.44585800  0.44104700  1
  O  O19  1  0.05923300  0.44585800  0.94104700  1
  O  O20  1  0.56204600  0.05242800  0.55868300  1
  O  O21  1  0.93795400  0.05242800  0.05868300  1
  O  O22  1  0.43795400  0.94757200  0.44131700  1
  O  O23  1  0.06204600  0.94757200  0.94131700  1
  O  O24  1  0.77810900  0.08967800  0.43984400  1
  O  O25  1  0.72189100  0.08967800  0.93984400  1
  O  O26  1  0.22189100  0.91032200  0.56015600  1
  O  O27  1  0.27810900  0.91032200  0.06015600  1
  O  O28  1  0.77664200  0.59242900  0.43859700  1
  O  O29  1  0.72335800  0.59242900  0.93859700  1
  O  O30  1  0.22335800  0.40757100  0.56140300  1
  O  O31  1  0.27664200  0.40757100  0.06140300  1
  O  O32  1  0.72241600  0.28003900  0.44022100  1
  O  O33  1  0.77758400  0.28003900  0.94022100  1
  O  O34  1  0.27758400  0.71996100  0.55977900  1
  O  O35  1  0.22241600  0.71996100  0.05977900  1
  O  O36  1  0.72625800  0.77854600  0.44128900  1
  O  O37  1  0.77374200  0.77854600  0.94128900  1
  O  O38  1  0.27374200  0.22145400  0.55871100  1
  O  O39  1  0.22625800  0.22145400  0.05871100  1
  O  O40  1  0.94165200  0.57856000  0.55957400  1
  O  O41  1  0.55834800  0.57856000  0.05957400  1
  O  O42  1  0.05834800  0.42144000  0.44042600  1
  O  O43  1  0.44165200  0.42144000  0.94042600  1
  O  O44  1  0.93910200  0.07954400  0.55940800  1
  O  O45  1  0.56089800  0.07954400  0.05940800  1
  O  O46  1  0.06089800  0.92045600  0.44059200  1
  O  O47  1  0.43910200  0.92045600  0.94059200  1
  O  O48  1  0.60179800  0.06742300  0.71049500  1
  O  O49  1  0.89820200  0.06742300  0.21049500  1
  O  O50  1  0.39820200  0.93257700  0.28950500  1
  O  O51  1  0.10179800  0.93257700  0.78950500  1
  O  O52  1  0.38664500  0.58205000  0.74010400  1
  O  O53  1  0.11335500  0.58205000  0.24010400  1
  O  O54  1  0.61335500  0.41795000  0.25989600  1
  O  O55  1  0.88664500  0.41795000  0.75989600  1
  O  O56  1  0.76968500  0.05996900  0.70578000  1
  O  O57  1  0.73031500  0.05996900  0.20578000  1
  O  O58  1  0.23031500  0.94003100  0.29422000  1
  O  O59  1  0.26968500  0.94003100  0.79422000  1
  O  O60  1  0.05523300  0.70624300  0.72155800  1
  O  O61  1  0.44476700  0.70624300  0.22155800  1
  O  O62  1  0.94476700  0.29375700  0.27844200  1
  O  O63  1  0.55523300  0.29375700  0.77844200  1
  O  O64  1  0.60902200  0.27594700  0.73439600  1
  O  O65  1  0.89097800  0.27594700  0.23439600  1
  O  O66  1  0.39097800  0.72405300  0.26560400  1
  O  O67  1  0.10902200  0.72405300  0.76560400  1
  O  O68  1  0.87264900  0.52554700  0.72431700  1
  O  O69  1  0.62735100  0.52554700  0.22431700  1
  O  O70  1  0.12735100  0.47445300  0.27568300  1
  O  O71  1  0.37264900  0.47445300  0.77568300  1
loop_
_geom_bond_atom_site_label_1
_geom_bond_atom_site_label_2
_geom_bond_distance
_geom_bond_site_symmetry_2
Cs0 O8 3.057687 1_555
Cs0 O15 3.170100 1_655
Cs0 O28 3.315352 1_555
Cs0 O21 3.366147 1_565
Cs0 O49 3.372990 1_565
Cs0 O57 3.388545 1_565
Cs0 O61 3.650041 1_555
Cs0 O66 3.657942 1_555
Cs0 O53 3.754734 1_655
Cs0 O58 3.759640 1_655
Cs0 O66 3.832755 1_655
Cs0 O5 4.246884 1_555
Cs1 O9 3.057687 1_555
Cs1 O14 3.170100 1_555
Cs1 O29 3.315352 1_555
Cs1 O20 3.366147 1_565
Cs1 O48 3.372990 1_565
Cs1 O56 3.388545 1_565
Cs1 O60 3.650041 1_655
Cs1 O67 3.657942 1_655
Cs1 O52 3.754734 1_555
Cs1 O59 3.759640 1_555
Cs1 O67 3.832755 1_555
Cs1 O4 4.246884 1_555
Cs2 O10 3.057687 1_555
Cs2 O13 3.170100 1_455
Cs2 O30 3.315352 1_555
Cs2 O23 3.366147 1_545
Cs2 O51 3.372990 1_545
Cs2 O59 3.388545 1_545
Cs2 O63 3.650041 1_555
Cs2 O64 3.657942 1_555
Cs2 O55 3.754734 1_455
Cs2 O56 3.759640 1_455
Cs2 O64 3.832755 1_455
Cs2 O7 4.246884 1_555
Cs3 O11 3.057687 1_555
Cs3 O12 3.170100 1_555
Cs3 O31 3.315352 1_555
Cs3 O22 3.366147 1_545
Cs3 O50 3.372990 1_545
Cs3 O58 3.388545 1_545
Cs3 O62 3.650041 1_455
Cs3 O65 3.657942 1_455
Cs3 O54 3.754734 1_555
Cs3 O57 3.759640 1_555
Cs3 O65 3.832755 1_555
Cs3 O6 4.246884 1_555
As0 O28 1.716271 1_555
As0 O36 1.716714 1_555
As0 O40 1.723499 1_555
As0 O16 1.724273 1_555
As1 O29 1.716271 1_555
As1 O37 1.716714 1_555
As1 O41 1.723499 1_556
As1 O17 1.724273 1_556
As2 O30 1.716271 1_555
As2 O38 1.716714 1_555
As2 O42 1.723499 1_555
As2 O18 1.724273 1_555
As3 O31 1.716271 1_555
As3 O39 1.716714 1_555
As3 O43 1.723499 1_554
As3 O19 1.724273 1_554
As4 O24 1.714734 1_555
As4 O20 1.714896 1_555
As4 O44 1.720663 1_555
As4 O32 1.725084 1_555
As5 O25 1.714734 1_555
As5 O21 1.714896 1_556
As5 O45 1.720663 1_556
As5 O33 1.725084 1_555
As6 O26 1.714734 1_555
As6 O22 1.714896 1_555
As6 O46 1.720663 1_555
As6 O34 1.725084 1_555
As7 O27 1.714734 1_555
As7 O23 1.714896 1_554
As7 O47 1.720663 1_554
As7 O35 1.725084 1_555
O0 U4 1.817932 1_555
O1 U5 1.817932 1_554
O2 U6 1.817932 1_555
O3 U7 1.817932 1_556
O4 U0 1.821181 1_555
O5 U1 1.821181 1_554
O6 U2 1.821181 1_555
O7 U3 1.821181 1_556
O8 U4 1.838617 1_555
O9 U5 1.838617 1_555
O10 U6 1.838617 1_555
O11 U7 1.838617 1_555
O12 U0 1.827194 1_545
O13 U1 1.827194 1_545
O14 U2 1.827194 1_565
O15 U3 1.827194 1_565
O16 U6 2.240687 1_555
O17 U7 2.240687 1_655
O18 U4 2.240687 1_555
O19 U5 2.240687 1_455
O20 U2 2.277879 1_555
O21 U3 2.277879 1_655
O22 U0 2.277879 1_555
O23 U1 2.277879 1_455
O24 U0 2.269341 1_545
O25 U1 2.269341 1_545
O26 U2 2.269341 1_565
O27 U3 2.269341 1_565
O28 U4 2.295289 1_555
O29 U5 2.295289 1_555
O30 U6 2.295289 1_555
O31 U7 2.295289 1_555
O32 U4 2.254915 1_555
O33 U5 2.254915 1_555
O34 U6 2.254915 1_555
O35 U7 2.254915 1_555
O36 U0 2.266835 1_555
O37 U1 2.266835 1_555
O38 U2 2.266835 1_555
O39 U3 2.266835 1_555
O40 U6 2.248998 1_655
O41 U7 2.248998 1_555
O42 U4 2.248998 1_455
O43 U5 2.248998 1_555
O44 U2 2.257452 1_655
O45 U3 2.257452 1_555
O46 U0 2.257452 1_455
O47 U1 2.257452 1_555
O48 O56 1.231641 1_555
O49 O57 1.231641 1_555
O50 O58 1.231641 1_555
O51 O59 1.231641 1_555
O52 O71 1.220959 1_555
O53 O70 1.220959 1_555
O54 O69 1.220959 1_555
O55 O68 1.220959 1_555
O60 O67 1.226542 1_555
O61 O66 1.226542 1_555
O62 O65 1.226542 1_555
O63 O64 1.226542 1_555
