# generated using pymatgen
data_DyAlZn
_symmetry_space_group_name_H-M   'P 1'
_cell_length_a   4.44082215
_cell_length_b   4.44108753
_cell_length_c   7.17731886
_cell_angle_alpha   90.00000000
_cell_angle_beta   90.00000000
_cell_angle_gamma   119.99802342
_symmetry_Int_Tables_number   1
_chemical_formula_structural   DyAlZn
_chemical_formula_sum   'Dy2 Al2 Zn2'
_cell_volume   122.58977134
_cell_formula_units_Z   2
loop_
 _symmetry_equiv_pos_site_id
 _symmetry_equiv_pos_as_xyz
  1  'x, y, z'
loop_
 _atom_site_type_symbol
 _atom_site_label
 _atom_site_symmetry_multiplicity
 _atom_site_fract_x
 _atom_site_fract_y
 _atom_site_fract_z
 _atom_site_occupancy
  Dy  Dy0  1  0.00000000  0.00000000  0.50000000  1
  Dy  Dy1  1  0.00000000  0.00000000  0.00000000  1
  Al  Al0  1  0.33327280  0.66654760  0.25000000  1
  Al  Al1  1  0.66672720  0.33345240  0.75000000  1
  Zn  Zn0  1  0.33340222  0.66680645  0.75000000  1
  Zn  Zn1  1  0.66659778  0.33319355  0.25000000  1
loop_
_geom_bond_atom_site_label_1
_geom_bond_atom_site_label_2
_geom_bond_distance
_geom_bond_site_symmetry_2
Dy0 Zn0 3.129236 1_545
Dy0 Zn1 3.129236 1_455
Dy0 Zn1 3.129242 1_555
Dy0 Zn0 3.129242 1_445
Dy0 Zn1 3.130025 1_445
Dy0 Zn0 3.130025 1_555
Dy0 Dy1 3.588659 1_556
Dy0 Dy1 3.588659 1_555
Dy1 Zn0 3.129236 1_544
Dy1 Zn1 3.129236 1_455
Dy1 Zn1 3.129242 1_555
Dy1 Zn0 3.129242 1_444
Dy1 Zn1 3.130025 1_445
Dy1 Zn0 3.130025 1_554
Al0 Zn1 2.563993 1_455
Al0 Zn1 2.564008 1_555
Al0 Zn1 2.564034 1_565
Al0 Dy1 3.129210 1_555
Al0 Dy0 3.129210 1_555
Al0 Dy0 3.129644 1_565
Al0 Dy1 3.129644 1_565
Al0 Dy1 3.129650 1_665
Al0 Dy0 3.129650 1_665
Al0 Zn0 3.588660 1_555
Al0 Zn0 3.588660 1_554
Al1 Zn0 2.563993 1_655
Al1 Zn0 2.564008 1_555
Al1 Zn0 2.564034 1_545
Al1 Dy1 3.129210 1_666
Al1 Dy0 3.129210 1_665
Al1 Dy1 3.129644 1_656
Al1 Dy0 3.129644 1_655
Al1 Dy0 3.129650 1_555
Al1 Dy1 3.129650 1_556
Al1 Zn1 3.588660 1_556
Al1 Zn1 3.588660 1_555
