# generated using pymatgen
data_Li4Co5SnO12
_symmetry_space_group_name_H-M   'P 1'
_cell_length_a   5.14423922
_cell_length_b   5.08263634
_cell_length_c   19.84436496
_cell_angle_alpha   92.59813264
_cell_angle_beta   84.91444944
_cell_angle_gamma   120.32927570
_symmetry_Int_Tables_number   1
_chemical_formula_structural   Li4Co5SnO12
_chemical_formula_sum   'Li8 Co10 Sn2 O24'
_cell_volume   446.08165943
_cell_formula_units_Z   2
loop_
 _symmetry_equiv_pos_site_id
 _symmetry_equiv_pos_as_xyz
  1  'x, y, z'
loop_
 _atom_site_type_symbol
 _atom_site_label
 _atom_site_symmetry_multiplicity
 _atom_site_fract_x
 _atom_site_fract_y
 _atom_site_fract_z
 _atom_site_occupancy
  Li  Li0  1  0.20813400  0.33663400  0.37041100  1
  Li  Li1  1  0.71592900  0.34533300  0.86965100  1
  Li  Li2  1  0.63243200  0.33897200  0.12986600  1
  Li  Li3  1  0.12868500  0.33810800  0.63005300  1
  Li  Li4  1  0.87139200  0.66465400  0.37054100  1
  Li  Li5  1  0.37126900  0.66131800  0.87093400  1
  Li  Li6  1  0.29424700  0.66737800  0.12880100  1
  Li  Li7  1  0.78805800  0.66113100  0.62979800  1
  Co  Co0  1  0.74865500  0.99766400  0.75009800  1
  Co  Co1  1  0.58498500  0.66687100  0.24962200  1
  Co  Co2  1  0.08328500  0.66653500  0.75004100  1
  Co  Co3  1  0.91834900  0.33312700  0.24968400  1
  Co  Co4  1  0.41651200  0.33322000  0.75006300  1
  Co  Co5  1  0.25015100  0.99999800  0.25006700  1
  Co  Co6  1  0.83121200  0.66673500  0.50011700  1
  Co  Co7  1  0.33275700  0.66515500  0.99992000  1
  Co  Co8  1  0.66788100  0.33486100  0.99966200  1
  Co  Co9  1  0.16484200  0.33352300  0.50020200  1
  Sn  Sn0  1  0.99584300  0.99748700  0.00014800  1
  Sn  Sn1  1  0.50316700  0.00040700  0.50003900  1
  O  O0  1  0.91241300  0.00018800  0.29812000  1
  O  O1  1  0.40856400  0.99604900  0.79777100  1
  O  O2  1  0.58957100  0.00002800  0.20185400  1
  O  O3  1  0.08694100  0.99536900  0.70245500  1
  O  O4  1  0.33130100  0.98902700  0.05330300  1
  O  O5  1  0.82556200  0.99892100  0.55761700  1
  O  O6  1  0.17043700  0.00204200  0.44517200  1
  O  O7  1  0.66188000  0.99267700  0.94399800  1
  O  O8  1  0.63727000  0.64964400  0.05798100  1
  O  O9  1  0.13755800  0.64988100  0.55620200  1
  O  O10  1  0.51972700  0.65507300  0.44258800  1
  O  O11  1  0.00872000  0.65038700  0.94268200  1
  O  O12  1  0.99059700  0.35090800  0.05638900  1
  O  O13  1  0.48620400  0.34878700  0.55671800  1
  O  O14  1  0.86384900  0.34609800  0.44264900  1
  O  O15  1  0.35855900  0.35749900  0.94506900  1
  O  O16  1  0.29878700  0.33442500  0.19801200  1
  O  O17  1  0.78039200  0.35993000  0.69941300  1
  O  O18  1  0.96389400  0.66460600  0.19810200  1
  O  O19  1  0.41715200  0.64384700  0.69954300  1
  O  O20  1  0.53625200  0.33650200  0.30165100  1
  O  O21  1  0.07999100  0.36063000  0.80082600  1
  O  O22  1  0.20018700  0.66384900  0.30171500  1
  O  O23  1  0.72640900  0.64452300  0.80045400  1
loop_
_geom_bond_atom_site_label_1
_geom_bond_atom_site_label_2
_geom_bond_distance
_geom_bond_site_symmetry_2
Li0 O20 2.074527 1_555
Li0 O10 2.194799 1_555
Li0 O14 2.196293 1_455
Li0 O0 2.198561 1_455
Li0 O22 2.215876 1_555
Li0 O6 2.230554 1_555
Li1 O23 2.072280 1_555
Li1 O11 2.144218 1_655
Li1 O21 2.188145 1_655
Li1 O1 2.240919 1_545
Li1 O7 2.265062 1_545
Li1 O15 2.289550 1_555
Li2 O16 2.080007 1_555
Li2 O8 2.164979 1_555
Li2 O18 2.199161 1_555
Li2 O2 2.200192 1_555
Li2 O12 2.223365 1_555
Li2 O4 2.293744 1_545
Li3 O19 2.087603 1_555
Li3 O9 2.187815 1_555
Li3 O17 2.206047 1_455
Li3 O5 2.219819 1_445
Li3 O13 2.221523 1_555
Li3 O3 2.222491 1_545
Li4 O22 2.079234 1_655
Li4 O10 2.185852 1_555
Li4 O14 2.192564 1_555
Li4 O0 2.196199 1_565
Li4 O20 2.220382 1_555
Li4 O6 2.238297 1_665
Li5 O21 2.092968 1_555
Li5 O15 2.154087 1_555
Li5 O7 2.189454 1_555
Li5 O1 2.210007 1_555
Li5 O11 2.222700 1_555
Li5 O23 2.234902 1_555
Li6 O18 2.083919 1_455
Li6 O12 2.177847 1_455
Li6 O8 2.192371 1_555
Li6 O4 2.193246 1_555
Li6 O2 2.200531 1_565
Li6 O16 2.237641 1_555
Li7 O17 2.091590 1_555
Li7 O13 2.176122 1_555
Li7 O3 2.204961 1_655
Li7 O5 2.208169 1_555
Li7 O19 2.222034 1_555
Li7 O9 2.235946 1_655
Co0 O1 1.910135 1_555
Co0 O3 1.910549 1_655
Co0 O23 2.041610 1_555
Co0 O19 2.047224 1_555
Co0 O17 2.064889 1_565
Co0 O21 2.069324 1_665
Co1 O20 1.906450 1_555
Co1 O16 1.915621 1_555
Co1 O2 1.966635 1_565
Co1 O0 1.972583 1_565
Co1 O18 2.124398 1_555
Co1 O22 2.143647 1_555
Co2 O21 1.883024 1_555
Co2 O17 1.883881 1_455
Co2 O3 1.947733 1_555
Co2 O1 1.951645 1_555
Co2 O19 1.962574 1_555
Co2 O23 1.964896 1_455
Co3 O22 1.907991 1_655
Co3 O18 1.912160 1_555
Co3 O2 1.968448 1_555
Co3 O0 1.969376 1_555
Co3 O16 2.124473 1_655
Co3 O20 2.144863 1_555
Co4 O19 1.906667 1_555
Co4 O23 1.906985 1_555
Co4 O1 1.975923 1_545
Co4 O3 1.977944 1_545
Co4 O21 1.988146 1_555
Co4 O17 1.988671 1_555
Co5 O0 1.906774 1_465
Co5 O2 1.915118 1_565
Co5 O16 1.924259 1_565
Co5 O22 1.924612 1_555
Co5 O20 1.924925 1_565
Co5 O18 1.926767 1_455
Co6 O13 1.984330 1_555
Co6 O6 1.991510 1_665
Co6 O5 2.005615 1_555
Co6 O14 2.014569 1_555
Co6 O10 2.024009 1_555
Co6 O9 2.045847 1_655
Co7 O15 1.917622 1_555
Co7 O4 1.919623 1_556
Co7 O7 1.963960 1_555
Co7 O12 1.969326 1_456
Co7 O8 2.059263 1_556
Co7 O11 2.067850 1_555
Co8 O11 1.974282 1_655
Co8 O8 1.994539 1_556
Co8 O4 1.997468 1_546
Co8 O7 2.005888 1_545
Co8 O12 2.053326 1_556
Co8 O15 2.054445 1_555
Co9 O9 1.969359 1_555
Co9 O6 1.976995 1_555
Co9 O5 2.015441 1_445
Co9 O10 2.024132 1_555
Co9 O14 2.031266 1_455
Co9 O13 2.046476 1_555
O4 Sn0 2.119960 1_455
O5 Sn1 2.098933 1_565
O6 Sn1 2.112075 1_555
O7 Sn0 2.118523 1_556
O8 Sn0 2.088153 1_555
O9 Sn1 2.092338 1_565
O10 Sn1 2.083305 1_565
O11 Sn0 2.083129 1_456
O12 Sn0 2.082049 1_545
O13 Sn1 2.089527 1_555
O14 Sn1 2.083540 1_555
O15 Sn0 2.096672 1_446
