# generated using pymatgen
data_Ti3AlNi12
_symmetry_space_group_name_H-M   'P 1'
_cell_length_a   5.07313990
_cell_length_b   5.07313990
_cell_length_c   8.26353200
_cell_angle_alpha   90.00000000
_cell_angle_beta   90.00000000
_cell_angle_gamma   119.99999868
_symmetry_Int_Tables_number   1
_chemical_formula_structural   Ti3AlNi12
_chemical_formula_sum   'Ti3 Al1 Ni12'
_cell_volume   184.18320595
_cell_formula_units_Z   1
loop_
 _symmetry_equiv_pos_site_id
 _symmetry_equiv_pos_as_xyz
  1  'x, y, z'
loop_
 _atom_site_type_symbol
 _atom_site_label
 _atom_site_symmetry_multiplicity
 _atom_site_fract_x
 _atom_site_fract_y
 _atom_site_fract_z
 _atom_site_occupancy
  Ti  Ti0  1  0.33333300  0.66666700  0.00000000  1
  Ti  Ti1  1  0.00000000  0.00000000  0.75171400  1
  Ti  Ti2  1  0.00000000  0.00000000  0.24828600  1
  Al  Al0  1  0.66666700  0.33333300  0.50000000  1
  Ni  Ni0  1  0.17131400  0.82868600  0.50000000  1
  Ni  Ni1  1  0.17131400  0.34262700  0.50000000  1
  Ni  Ni2  1  0.65737300  0.82868600  0.50000000  1
  Ni  Ni3  1  0.82798300  0.17201700  0.00000000  1
  Ni  Ni4  1  0.82798300  0.65596500  0.00000000  1
  Ni  Ni5  1  0.34403500  0.17201700  0.00000000  1
  Ni  Ni6  1  0.99977300  0.49988600  0.74945500  1
  Ni  Ni7  1  0.50011400  0.49988600  0.74945500  1
  Ni  Ni8  1  0.50011400  0.00022700  0.74945500  1
  Ni  Ni9  1  0.99977300  0.49988600  0.25054500  1
  Ni  Ni10  1  0.50011400  0.49988600  0.25054500  1
  Ni  Ni11  1  0.50011400  0.00022700  0.25054500  1
loop_
_geom_bond_atom_site_label_1
_geom_bond_atom_site_label_2
_geom_bond_distance
_geom_bond_site_symmetry_2
Al0 Ni7 2.528060 1_555
Al0 Ni10 2.528060 1_555
Al0 Ni6 2.528060 1_555
Al0 Ni8 2.528060 1_555
Al0 Ni9 2.528060 1_555
Al0 Ni11 2.528060 1_555
Al0 Ni2 2.536899 1_555
Al0 Ni1 2.536899 1_555
Al0 Ni1 2.536899 1_655
Al0 Ni2 2.536899 1_545
Al0 Ni0 2.536899 1_655
Al0 Ni0 2.536899 1_545
Ni0 Ni2 2.465845 1_555
Ni0 Ni1 2.465845 1_555
Ni0 Ni6 2.517417 1_455
Ni0 Ni8 2.517417 1_565
Ni0 Ni9 2.517417 1_455
Ni0 Ni11 2.517417 1_565
Ni0 Ti1 2.567606 1_565
Ni0 Ti2 2.567606 1_565
Ni0 Ni1 2.607295 1_565
Ni0 Ni2 2.607295 1_455
Ni1 Ni2 2.465845 1_555
Ni1 Ni6 2.517417 1_455
Ni1 Ni9 2.517417 1_455
Ni1 Ni7 2.517417 1_555
Ni1 Ni10 2.517417 1_555
Ni1 Ti1 2.567603 1_555
Ni1 Ti2 2.567603 1_555
Ni1 Ni2 2.607295 1_445
Ni2 Ni8 2.517417 1_565
Ni2 Ni7 2.517417 1_555
Ni2 Ti1 2.567603 1_665
Ni2 Ti2 2.567603 1_665
Ni3 Ni5 2.455136 1_555
Ni3 Ni4 2.455136 1_555
Ni3 Ni9 2.522514 1_555
Ni3 Ni8 2.522514 1_554
Ni3 Ni6 2.522514 1_554
Ni3 Ti0 2.537006 1_545
Ni3 Ti0 2.537006 1_655
Ni3 Ti2 2.548370 1_655
Ni3 Ti1 2.548370 1_654
Ni3 Ni4 2.618004 1_545
Ni3 Ni5 2.618004 1_655
Ni4 Ni5 2.455136 1_555
Ni4 Ni9 2.522514 1_555
Ni4 Ni6 2.522514 1_554
Ni4 Ni7 2.522514 1_554
Ni4 Ti0 2.537001 1_655
Ni4 Ti0 2.537011 1_555
Ni4 Ti2 2.548373 1_665
Ni4 Ti1 2.548373 1_664
Ni4 Ni5 2.618004 1_665
Ni5 Ni8 2.522514 1_554
Ni5 Ni7 2.522514 1_554
Ni5 Ti0 2.537001 1_545
Ni5 Ti0 2.537011 1_555
Ni5 Ti2 2.548373 1_555
Ni5 Ti1 2.548373 1_554
Ni6 Ni7 2.534840 1_555
Ni6 Ni8 2.534840 1_555
Ni6 Ti0 2.536562 1_656
Ni6 Ti1 2.536636 1_655
Ni6 Ti1 2.536641 1_665
Ni6 Ni7 2.538300 1_655
Ni6 Ni8 2.538300 1_665
Ni7 Ni8 2.534840 1_555
Ni7 Ti0 2.536567 1_556
Ni7 Ti1 2.536639 1_555
Ni7 Ti1 2.536639 1_665
Ni7 Ni8 2.538300 1_565
Ni8 Ti0 2.536562 1_546
Ni8 Ti1 2.536636 1_655
Ni8 Ti1 2.536641 1_555
Ni9 Ti0 2.536562 1_655
Ni9 Ti2 2.536636 1_655
Ni9 Ti2 2.536641 1_665
Ni10 Ni2 2.517417 1_555
Ni10 Ni4 2.522514 1_555
Ni10 Ni5 2.522514 1_555
Ni10 Ni9 2.534840 1_555
Ni10 Ni11 2.534840 1_555
Ni10 Ti0 2.536567 1_555
Ni10 Ti2 2.536639 1_665
Ni10 Ti2 2.536639 1_555
Ni10 Ni11 2.538300 1_565
Ni10 Ni9 2.538300 1_455
Ni11 Ni2 2.517417 1_545
Ni11 Ni5 2.522514 1_555
Ni11 Ni3 2.522514 1_555
Ni11 Ni9 2.534840 1_555
Ni11 Ti0 2.536562 1_545
Ni11 Ti2 2.536636 1_655
Ni11 Ti2 2.536641 1_555
Ni11 Ni9 2.538300 1_445
