# generated using pymatgen
data_YbF3
_symmetry_space_group_name_H-M   'P 1'
_cell_length_a   4.00932738
_cell_length_b   4.00932738
_cell_length_c   4.00932738
_cell_angle_alpha   127.54430020
_cell_angle_beta   127.54430020
_cell_angle_gamma   77.36441538
_symmetry_Int_Tables_number   1
_chemical_formula_structural   YbF3
_chemical_formula_sum   'Yb1 F3'
_cell_volume   39.30494275
_cell_formula_units_Z   1
loop_
 _symmetry_equiv_pos_site_id
 _symmetry_equiv_pos_as_xyz
  1  'x, y, z'
loop_
 _atom_site_type_symbol
 _atom_site_label
 _atom_site_symmetry_multiplicity
 _atom_site_fract_x
 _atom_site_fract_y
 _atom_site_fract_z
 _atom_site_occupancy
  Yb  Yb0  1  0.00000000  0.00000000  0.00000000  1
  F  F0  1  0.75000000  0.25000000  0.50000000  1
  F  F1  1  0.25000000  0.75000000  0.50000000  1
  F  F2  1  0.50000000  0.50000000  0.00000000  1
loop_
_geom_bond_atom_site_label_1
_geom_bond_atom_site_label_2
_geom_bond_distance
_geom_bond_site_symmetry_2
F0 F2 2.363995 1_555
F0 Yb0 2.363995 1_666
F0 F2 2.363995 1_556
F0 Yb0 2.363995 1_655
F0 Yb0 2.363995 1_656
F0 F2 2.363995 1_545
F0 F2 2.363995 1_656
F0 Yb0 2.363995 1_555
F0 F1 2.505831 1_555
F0 F1 2.505831 1_645
F0 F1 2.505831 1_544
F0 F1 2.505831 1_656
F1 F2 2.363995 1_555
F1 Yb0 2.363995 1_566
F1 Yb0 2.363995 1_666
F1 F2 2.363995 1_556
F1 F2 2.363995 1_566
F1 Yb0 2.363995 1_565
F1 Yb0 2.363995 1_555
F1 F2 2.363995 1_455
F2 Yb0 2.505831 1_554
F2 Yb0 2.505831 1_666
F2 Yb0 2.505831 1_655
F2 Yb0 2.505831 1_565
