# generated using pymatgen
data_KThTi2O6
_symmetry_space_group_name_H-M   'P 1'
_cell_length_a   3.95625400
_cell_length_b   3.95625400
_cell_length_c   7.84261900
_cell_angle_alpha   90.00000000
_cell_angle_beta   90.00000000
_cell_angle_gamma   90.00000000
_symmetry_Int_Tables_number   1
_chemical_formula_structural   KThTi2O6
_chemical_formula_sum   'K1 Th1 Ti2 O6'
_cell_volume   122.75224683
_cell_formula_units_Z   1
loop_
 _symmetry_equiv_pos_site_id
 _symmetry_equiv_pos_as_xyz
  1  'x, y, z'
loop_
 _atom_site_type_symbol
 _atom_site_label
 _atom_site_symmetry_multiplicity
 _atom_site_fract_x
 _atom_site_fract_y
 _atom_site_fract_z
 _atom_site_occupancy
  K  K0  1  0.50000000  0.50000000  0.00000000  1
  Th  Th0  1  0.50000000  0.50000000  0.50000000  1
  Ti  Ti0  1  0.00000000  0.00000000  0.24596800  1
  Ti  Ti1  1  0.00000000  0.00000000  0.75403200  1
  O  O0  1  0.00000000  0.00000000  0.50000000  1
  O  O1  1  0.00000000  0.50000000  0.28540300  1
  O  O2  1  0.00000000  0.50000000  0.71459700  1
  O  O3  1  0.50000000  0.00000000  0.28540300  1
  O  O4  1  0.50000000  0.00000000  0.71459700  1
  O  O5  1  0.00000000  0.00000000  0.00000000  1
loop_
_geom_bond_atom_site_label_1
_geom_bond_atom_site_label_2
_geom_bond_distance
_geom_bond_site_symmetry_2
K0 O5 2.797494 1_555
K0 O5 2.797494 1_655
K0 O5 2.797494 1_565
K0 O5 2.797494 1_665
K0 O1 2.987140 1_655
K0 O3 2.987140 1_555
K0 O3 2.987140 1_565
K0 O1 2.987140 1_555
K0 O4 2.987140 1_564
K0 O4 2.987140 1_554
K0 O2 2.987140 1_654
K0 O2 2.987140 1_554
O0 Ti1 1.992276 1_555
O0 Ti0 1.992276 1_555
O0 O2 2.597207 1_555
O0 O2 2.597207 1_545
O0 O4 2.597207 1_455
O0 O4 2.597207 1_555
O0 O1 2.597207 1_555
O0 O3 2.597207 1_455
O0 O1 2.597207 1_545
O0 O3 2.597207 1_555
O0 Th0 2.797494 1_455
O0 Th0 2.797494 1_445
O0 Th0 2.797494 1_555
O0 Th0 2.797494 1_545
O1 Ti0 2.002158 1_555
O1 Ti0 2.002158 1_565
O1 Th0 2.597207 1_455
O1 Th0 2.597207 1_555
O2 Ti1 2.002158 1_565
O2 Ti1 2.002158 1_555
O2 Th0 2.597207 1_455
O2 Th0 2.597207 1_555
O3 Ti0 2.002158 1_555
O3 Ti0 2.002158 1_655
O3 Th0 2.597207 1_545
O3 Th0 2.597207 1_555
O4 Ti1 2.002158 1_555
O4 Ti1 2.002158 1_655
O4 Th0 2.597207 1_555
O4 Th0 2.597207 1_545
O5 Ti0 1.929033 1_555
O5 Ti1 1.929033 1_554
