# generated using pymatgen
data_V5Si3B
_symmetry_space_group_name_H-M   'P 1'
_cell_length_a   4.85381300
_cell_length_b   7.21015887
_cell_length_c   7.20873878
_cell_angle_alpha   120.00652350
_cell_angle_beta   90.00000000
_cell_angle_gamma   90.00000000
_symmetry_Int_Tables_number   1
_chemical_formula_structural   V5Si3B
_chemical_formula_sum   'V10 Si6 B2'
_cell_volume   218.46870916
_cell_formula_units_Z   2
loop_
 _symmetry_equiv_pos_site_id
 _symmetry_equiv_pos_as_xyz
  1  'x, y, z'
loop_
 _atom_site_type_symbol
 _atom_site_label
 _atom_site_symmetry_multiplicity
 _atom_site_fract_x
 _atom_site_fract_y
 _atom_site_fract_z
 _atom_site_occupancy
  V  V0  1  0.50000000  0.33332000  0.66664800  1
  V  V1  1  0.50000000  0.66667200  0.33335200  1
  V  V2  1  0.00000000  0.66668000  0.33335200  1
  V  V3  1  0.00000000  0.33332800  0.66664800  1
  V  V4  1  0.75000200  0.24729000  0.00000000  1
  V  V5  1  0.75000000  0.75269100  0.75268600  1
  V  V6  1  0.75000000  0.00000400  0.24731400  1
  V  V7  1  0.25000200  0.75271000  0.00000000  1
  V  V8  1  0.25000000  0.24730900  0.24731400  1
  V  V9  1  0.25000000  0.99999600  0.75268600  1
  Si  Si0  1  0.74999400  0.59827800  0.00000000  1
  Si  Si1  1  0.75000300  0.40169900  0.40171600  1
  Si  Si2  1  0.75000300  0.99998300  0.59828400  1
  Si  Si3  1  0.24999400  0.40172200  0.00000000  1
  Si  Si4  1  0.25000300  0.59830100  0.59828400  1
  Si  Si5  1  0.25000300  0.00001700  0.40171600  1
  B  B0  1  0.49999900  0.00000200  0.00000000  1
  B  B1  1  0.99999900  0.99999800  0.00000000  1
loop_
_geom_bond_atom_site_label_1
_geom_bond_atom_site_label_2
_geom_bond_distance
_geom_bond_site_symmetry_2
V0 V3 2.426907 1_555
V0 V3 2.426907 1_655
V0 V6 3.019883 1_555
V0 V8 3.019898 1_555
V0 V4 3.020392 1_556
V0 V7 3.020419 1_556
V0 V9 3.020593 1_545
V0 V5 3.020652 1_555
V1 V2 2.426907 1_655
V1 V2 2.426907 1_555
V1 V5 3.019881 1_555
V1 V9 3.019900 1_555
V1 V4 3.020392 1_555
V1 V7 3.020419 1_555
V1 V8 3.020600 1_555
V1 V6 3.020645 1_565
V2 V9 3.019883 1_555
V2 V5 3.019898 1_455
V2 V7 3.020392 1_555
V2 V4 3.020419 1_455
V2 V6 3.020593 1_465
V2 V8 3.020652 1_555
V3 V8 3.019881 1_555
V3 V6 3.019900 1_455
V3 V7 3.020392 1_556
V3 V4 3.020419 1_456
V3 V5 3.020600 1_455
V3 V9 3.020645 1_545
Si0 V0 2.510968 1_554
Si0 V1 2.510968 1_555
Si0 V3 2.510980 1_654
Si0 V2 2.510980 1_655
Si0 V6 2.530462 1_565
Si0 V5 2.530468 1_554
Si0 V4 2.530679 1_555
Si0 V7 2.670117 1_555
Si0 V7 2.670187 1_655
Si0 Si3 2.810397 1_555
Si0 Si3 2.810397 1_655
Si1 V3 2.510886 1_655
Si1 V0 2.510933 1_555
Si1 V1 2.511392 1_555
Si1 V2 2.511427 1_655
Si1 V4 2.529993 1_555
Si1 V5 2.530130 1_555
Si1 V6 2.530416 1_555
Si1 V8 2.669939 1_655
Si1 V8 2.669965 1_555
Si1 Si4 2.810362 1_555
Si1 Si4 2.810362 1_655
Si2 V2 2.510885 1_655
Si2 V1 2.510933 1_555
Si2 V0 2.511392 1_565
Si2 V3 2.511427 1_665
Si2 V4 2.529993 1_566
Si2 V6 2.530127 1_565
Si2 V5 2.530409 1_555
Si2 V9 2.669938 1_655
Si2 V9 2.669964 1_555
Si2 Si5 2.810362 1_565
Si2 Si5 2.810362 1_665
Si3 V2 2.510968 1_555
Si3 V3 2.510968 1_554
Si3 V1 2.510980 1_555
Si3 V0 2.510980 1_554
Si3 V9 2.530462 1_544
Si3 V8 2.530468 1_555
Si3 V7 2.530679 1_555
Si3 V4 2.670117 1_455
Si3 V4 2.670187 1_555
Si4 V1 2.510886 1_555
Si4 V2 2.510933 1_555
Si4 V3 2.511392 1_555
Si4 V0 2.511427 1_555
Si4 V7 2.529993 1_556
Si4 V8 2.530130 1_555
Si4 V9 2.530416 1_555
Si4 V5 2.669939 1_555
Si4 V5 2.669965 1_455
Si5 V0 2.510885 1_555
Si5 V3 2.510933 1_555
Si5 V2 2.511392 1_545
Si5 V1 2.511427 1_545
Si5 V7 2.529993 1_545
Si5 V9 2.530127 1_545
Si5 V8 2.530409 1_555
Si5 V6 2.669938 1_555
Si5 V6 2.669964 1_455
B0 V8 2.156576 1_555
B0 V9 2.156579 1_544
B0 V5 2.156594 1_544
B0 V6 2.156597 1_555
B0 V4 2.156743 1_555
B0 V7 2.156751 1_545
B0 B1 2.426907 1_445
B0 B1 2.426907 1_545
B1 V5 2.156576 1_554
B1 V6 2.156579 1_565
B1 V8 2.156594 1_665
B1 V9 2.156597 1_654
B1 V7 2.156743 1_655
B1 V4 2.156751 1_565
