# generated using pymatgen
data_KNa2(NiO2)2
_symmetry_space_group_name_H-M   'P 1'
_cell_length_a   11.16728700
_cell_length_b   5.82120200
_cell_length_c   9.08019390
_cell_angle_alpha   65.70186353
_cell_angle_beta   90.00000000
_cell_angle_gamma   90.00000000
_symmetry_Int_Tables_number   1
_chemical_formula_structural   KNa2(NiO2)2
_chemical_formula_sum   'K4 Na8 Ni8 O16'
_cell_volume   537.98780745
_cell_formula_units_Z   4
loop_
 _symmetry_equiv_pos_site_id
 _symmetry_equiv_pos_as_xyz
  1  'x, y, z'
loop_
 _atom_site_type_symbol
 _atom_site_label
 _atom_site_symmetry_multiplicity
 _atom_site_fract_x
 _atom_site_fract_y
 _atom_site_fract_z
 _atom_site_occupancy
  K  K0  1  0.88811000  0.16776100  0.04671200  1
  K  K1  1  0.61189000  0.16776100  0.54671200  1
  K  K2  1  0.11189000  0.83223900  0.95328800  1
  K  K3  1  0.38811000  0.83223900  0.45328800  1
  Na  Na0  1  0.92052700  0.10950900  0.60881100  1
  Na  Na1  1  0.57947300  0.10950900  0.10881100  1
  Na  Na2  1  0.07947300  0.89049100  0.39118900  1
  Na  Na3  1  0.42052700  0.89049100  0.89118900  1
  Na  Na4  1  0.79725700  0.89189400  0.37461300  1
  Na  Na5  1  0.70274300  0.89189400  0.87461300  1
  Na  Na6  1  0.20274300  0.10810600  0.62538700  1
  Na  Na7  1  0.29725700  0.10810600  0.12538700  1
  Ni  Ni0  1  0.91769500  0.54551800  0.69627300  1
  Ni  Ni1  1  0.58230500  0.54551800  0.19627300  1
  Ni  Ni2  1  0.08230500  0.45448200  0.30372700  1
  Ni  Ni3  1  0.41769500  0.45448200  0.80372700  1
  Ni  Ni4  1  0.16689300  0.49393800  0.75952300  1
  Ni  Ni5  1  0.33310700  0.49393800  0.25952300  1
  Ni  Ni6  1  0.83310700  0.50606200  0.24047700  1
  Ni  Ni7  1  0.66689300  0.50606200  0.74047700  1
  O  O0  1  0.77914700  0.77328800  0.66049500  1
  O  O1  1  0.72085300  0.77328800  0.16049500  1
  O  O2  1  0.22085300  0.22671200  0.33950500  1
  O  O3  1  0.27914700  0.22671200  0.83950500  1
  O  O4  1  0.04788100  0.28883500  0.74908400  1
  O  O5  1  0.45211900  0.28883500  0.24908400  1
  O  O6  1  0.95211900  0.71116500  0.25091600  1
  O  O7  1  0.54788100  0.71116500  0.75091600  1
  O  O8  1  0.28544200  0.70106300  0.76907800  1
  O  O9  1  0.21455800  0.70106300  0.26907800  1
  O  O10  1  0.71455800  0.29893700  0.23092200  1
  O  O11  1  0.78544200  0.29893700  0.73092200  1
  O  O12  1  0.05600200  0.76229600  0.67853400  1
  O  O13  1  0.44399800  0.76229600  0.17853400  1
  O  O14  1  0.94399800  0.23770400  0.32146600  1
  O  O15  1  0.55600200  0.23770400  0.82146600  1
loop_
_geom_bond_atom_site_label_1
_geom_bond_atom_site_label_2
_geom_bond_distance
_geom_bond_site_symmetry_2
K0 O6 2.637760 1_545
K0 O14 2.759596 1_555
K0 O1 2.806545 1_545
K0 O10 2.861516 1_555
K0 O11 2.884064 1_554
K0 Na4 2.922029 1_545
K0 Ni0 3.051496 1_554
K0 O4 3.068586 1_654
K0 Ni6 3.194143 1_555
K0 K2 3.484683 1_644
K1 O7 2.637760 1_545
K1 O15 2.759596 1_555
K1 O0 2.806545 1_545
K1 O11 2.861516 1_555
K1 O10 2.884064 1_555
K1 Na5 2.922029 1_545
K1 Ni1 3.051496 1_555
K1 O5 3.068586 1_555
K1 Ni7 3.194143 1_555
K1 K3 3.484683 1_545
K2 O4 2.637760 1_565
K2 O12 2.759596 1_555
K2 O3 2.806545 1_565
K2 O8 2.861516 1_555
K2 O9 2.884064 1_556
K2 Na6 2.922029 1_565
K2 Ni2 3.051496 1_556
K2 O6 3.068586 1_456
K2 Ni4 3.194143 1_555
K3 O5 2.637760 1_565
K3 O13 2.759596 1_555
K3 O2 2.806545 1_565
K3 O9 2.861516 1_555
K3 O8 2.884064 1_555
K3 Na7 2.922029 1_565
K3 Ni3 3.051496 1_555
K3 O7 3.068586 1_555
K3 Ni5 3.194143 1_555
Na0 O12 2.392028 1_645
Na0 O11 2.393167 1_555
Na0 O0 2.405766 1_545
Na0 O4 2.414315 1_655
Na0 O14 2.414717 1_555
Na1 O13 2.392028 1_545
Na1 O10 2.393167 1_555
Na1 O1 2.405766 1_545
Na1 O5 2.414315 1_555
Na1 O15 2.414717 1_554
Na2 O14 2.392028 1_465
Na2 O9 2.393167 1_555
Na2 O2 2.405766 1_565
Na2 O6 2.414315 1_455
Na2 O12 2.414717 1_555
Na3 O15 2.392028 1_565
Na3 O8 2.393167 1_555
Na3 O3 2.405766 1_565
Na3 O7 2.414315 1_555
Na3 O13 2.414717 1_556
Na4 O10 2.371797 1_565
Na4 O0 2.404398 1_555
Na4 O1 2.467680 1_555
Na4 O14 2.484156 1_565
Na4 O6 2.516277 1_555
Na4 Ni0 3.091699 1_555
Na5 O11 2.371797 1_565
Na5 O1 2.404398 1_556
Na5 O0 2.467680 1_555
Na5 O15 2.484156 1_565
Na5 O7 2.516277 1_555
Na5 Ni1 3.091699 1_556
Na6 O8 2.371797 1_545
Na6 O2 2.404398 1_555
Na6 O3 2.467680 1_555
Na6 O12 2.484156 1_545
Na6 O4 2.516277 1_555
Na6 Ni2 3.091699 1_555
Na7 O9 2.371797 1_545
Na7 O3 2.404398 1_554
Na7 O2 2.467680 1_555
Na7 O13 2.484156 1_545
Na7 O5 2.516277 1_555
Na7 Ni3 3.091699 1_554
Ni0 O12 1.958725 1_655
Ni0 O0 1.975574 1_555
Ni0 O11 1.992223 1_555
Ni0 O4 1.996629 1_655
Ni1 O13 1.958725 1_555
Ni1 O1 1.975574 1_555
Ni1 O10 1.992223 1_555
Ni1 O5 1.996629 1_555
Ni2 O14 1.958725 1_455
Ni2 O2 1.975574 1_555
Ni2 O9 1.992223 1_555
Ni2 O6 1.996629 1_455
Ni3 O15 1.958725 1_555
Ni3 O3 1.975574 1_555
Ni3 O8 1.992223 1_555
Ni3 O7 1.996629 1_555
Ni4 O4 1.814932 1_555
Ni4 O8 1.816591 1_555
Ni4 O12 1.889246 1_555
Ni4 O3 1.894456 1_555
Ni5 O5 1.814932 1_555
Ni5 O9 1.816591 1_555
Ni5 O13 1.889246 1_555
Ni5 O2 1.894456 1_555
Ni6 O6 1.814932 1_555
Ni6 O10 1.816591 1_555
Ni6 O14 1.889246 1_555
Ni6 O1 1.894456 1_555
Ni7 O7 1.814932 1_555
Ni7 O11 1.816591 1_555
Ni7 O15 1.889246 1_555
Ni7 O0 1.894456 1_555
