# generated using pymatgen
data_MoPO7
_symmetry_space_group_name_H-M   'P 1'
_cell_length_a   6.50412800
_cell_length_b   6.62235400
_cell_length_c   7.42585682
_cell_angle_alpha   69.34666581
_cell_angle_beta   90.00000000
_cell_angle_gamma   90.00000000
_symmetry_Int_Tables_number   1
_chemical_formula_structural   MoPO7
_chemical_formula_sum   'Mo2 P2 O14'
_cell_volume   299.29492060
_cell_formula_units_Z   2
loop_
 _symmetry_equiv_pos_site_id
 _symmetry_equiv_pos_as_xyz
  1  'x, y, z'
loop_
 _atom_site_type_symbol
 _atom_site_label
 _atom_site_symmetry_multiplicity
 _atom_site_fract_x
 _atom_site_fract_y
 _atom_site_fract_z
 _atom_site_occupancy
  Mo  Mo0  1  0.25000000  0.81529500  0.24680400  1
  Mo  Mo1  1  0.75000000  0.18470500  0.75319600  1
  P  P0  1  0.25000000  0.34746500  0.62980300  1
  P  P1  1  0.75000000  0.65253500  0.37019700  1
  O  O0  1  0.05928900  0.21285100  0.70566700  1
  O  O1  1  0.55928900  0.78714900  0.29433300  1
  O  O2  1  0.94071100  0.78714900  0.29433300  1
  O  O3  1  0.44071100  0.21285100  0.70566700  1
  O  O4  1  0.25000000  0.47646000  0.41705700  1
  O  O5  1  0.75000000  0.52354000  0.58294300  1
  O  O6  1  0.25000000  0.53902800  0.74067500  1
  O  O7  1  0.75000000  0.46097200  0.25932500  1
  O  O8  1  0.25000000  0.08625800  0.20867800  1
  O  O9  1  0.75000000  0.91374200  0.79132200  1
  O  O10  1  0.25000000  0.74272800  0.61564200  1
  O  O11  1  0.75000000  0.25727200  0.38435800  1
  O  O12  1  0.25000000  0.79587800  0.02350600  1
  O  O13  1  0.75000000  0.20412200  0.97649400  1
loop_
_geom_bond_atom_site_label_1
_geom_bond_atom_site_label_2
_geom_bond_distance
_geom_bond_site_symmetry_2
Mo0 O12 1.707777 1_555
Mo0 O8 1.715137 1_565
Mo0 O1 2.039525 1_555
Mo0 O2 2.039525 1_455
Mo0 O4 2.152254 1_555
Mo1 O13 1.707777 1_555
Mo1 O9 1.715137 1_545
Mo1 O0 2.039525 1_655
Mo1 O3 2.039525 1_555
Mo1 O5 2.152254 1_555
O0 P0 1.515393 1_555
O1 P1 1.515393 1_555
O2 P1 1.515393 1_555
O3 P0 1.515393 1_555
O4 P0 1.507834 1_555
O5 P1 1.507834 1_555
O6 P0 1.738961 1_555
O7 P1 1.738961 1_555
O10 O6 1.340992 1_555
O11 O7 1.340992 1_555
