# generated using pymatgen
data_Na4Mg11AlSi12(HO10)4
_symmetry_space_group_name_H-M   'P 1'
_cell_length_a   8.92488260
_cell_length_b   9.77769018
_cell_length_c   10.50303467
_cell_angle_alpha   115.12031402
_cell_angle_beta   96.97242609
_cell_angle_gamma   65.07189048
_symmetry_Int_Tables_number   1
_chemical_formula_structural   Na4Mg11AlSi12(HO10)4
_chemical_formula_sum   'Na4 Mg11 Al1 Si12 H4 O40'
_cell_volume   750.69472871
_cell_formula_units_Z   1
loop_
 _symmetry_equiv_pos_site_id
 _symmetry_equiv_pos_as_xyz
  1  'x, y, z'
loop_
 _atom_site_type_symbol
 _atom_site_label
 _atom_site_symmetry_multiplicity
 _atom_site_fract_x
 _atom_site_fract_y
 _atom_site_fract_z
 _atom_site_occupancy
  Na  Na0  1  0.60761100  0.63633500  0.42591700  1
  Na  Na1  1  0.39209400  0.36647500  0.57780000  1
  Na  Na2  1  0.63505300  0.60913100  0.94788600  1
  Na  Na3  1  0.36750500  0.39036200  0.04947200  1
  Mg  Mg0  1  0.94727800  0.94588000  0.84655000  1
  Mg  Mg1  1  0.04919300  0.05164300  0.15170100  1
  Mg  Mg2  1  0.81842900  0.85280300  0.53544700  1
  Mg  Mg3  1  0.17759800  0.14961800  0.46705300  1
  Mg  Mg4  1  0.93525800  0.93984100  0.34659700  1
  Mg  Mg5  1  0.06426500  0.05814800  0.65297500  1
  Mg  Mg6  1  0.85021600  0.81572000  0.05104500  1
  Mg  Mg7  1  0.15181500  0.17962700  0.94555500  1
  Mg  Mg8  1  0.50139700  0.99716600  0.99641200  1
  Mg  Mg9  1  0.99571900  0.50157900  0.50353400  1
  Mg  Mg10  1  0.72834500  0.72741400  0.73901800  1
  Al  Al0  1  0.27033500  0.27131000  0.26022800  1
  Si  Si0  1  0.65410300  0.23071100  0.25090900  1
  Si  Si1  1  0.33978700  0.76968100  0.75038600  1
  Si  Si2  1  0.77562100  0.33751300  0.06174000  1
  Si  Si3  1  0.22526700  0.66076800  0.93842100  1
  Si  Si4  1  0.76342700  0.33557700  0.54891700  1
  Si  Si5  1  0.23800800  0.65877800  0.44673700  1
  Si  Si6  1  0.55451200  0.95172000  0.29816700  1
  Si  Si7  1  0.44444100  0.05083700  0.69911200  1
  Si  Si8  1  0.95585900  0.55775800  0.20774400  1
  Si  Si9  1  0.04617000  0.44116400  0.79601900  1
  Si  Si10  1  0.66783200  0.23298800  0.75581400  1
  Si  Si11  1  0.33169100  0.76858500  0.24362000  1
  H  H0  1  0.66363800  0.05426300  0.91455200  1
  H  H1  1  0.33335800  0.95687900  0.09086400  1
  H  H2  1  0.95590100  0.33349800  0.30463800  1
  H  H3  1  0.05597600  0.66469000  0.69394500  1
  O  O0  1  0.73251300  0.94625700  0.91775500  1
  O  O1  1  0.26766800  0.06853200  0.09117100  1
  O  O2  1  0.66639200  0.36085300  0.69029400  1
  O  O3  1  0.33564100  0.63901200  0.30868700  1
  O  O4  1  0.82694600  0.06128700  0.20845200  1
  O  O5  1  0.16870400  0.94031100  0.79225500  1
  O  O6  1  0.94171000  0.16529900  0.01329500  1
  O  O7  1  0.05956000  0.83362700  0.98719600  1
  O  O8  1  0.93527900  0.16572300  0.51042200  1
  O  O9  1  0.06608600  0.82830500  0.48689300  1
  O  O10  1  0.81532000  0.49877000  0.10055000  1
  O  O11  1  0.19122100  0.49674000  0.90023800  1
  O  O12  1  0.94695300  0.73063100  0.67059900  1
  O  O13  1  0.06713300  0.26952900  0.32783300  1
  O  O14  1  0.60931600  0.88592800  0.13025400  1
  O  O15  1  0.39126800  0.11557900  0.86821500  1
  O  O16  1  0.96681500  0.70842400  0.18558700  1
  O  O17  1  0.03671400  0.28725900  0.81435700  1
  O  O18  1  0.68479900  0.36249700  0.20354100  1
  O  O19  1  0.30803300  0.63474100  0.79249100  1
  O  O20  1  0.78224700  0.50126300  0.56821100  1
  O  O21  1  0.22726800  0.48279500  0.41704600  1
  O  O22  1  0.87351000  0.61139900  0.86142800  1
  O  O23  1  0.13348200  0.38364000  0.14943100  1
  O  O24  1  0.50446600  0.78320700  0.82757100  1
  O  O25  1  0.47933400  0.22498800  0.18232500  1
  O  O26  1  0.88727100  0.60991700  0.36830300  1
  O  O27  1  0.11367500  0.39021000  0.63436400  1
  O  O28  1  0.49491600  0.80822100  0.29923300  1
  O  O29  1  0.50156600  0.19897200  0.70290700  1
  O  O30  1  0.83676100  0.06391800  0.71156000  1
  O  O31  1  0.16182900  0.93731700  0.28796800  1
  O  O32  1  0.62772200  0.31522200  0.42460000  1
  O  O33  1  0.36744600  0.68042900  0.57571800  1
  O  O34  1  0.64589200  0.33550000  0.93250100  1
  O  O35  1  0.35592400  0.66374400  0.06724600  1
  O  O36  1  0.61342800  0.87678100  0.63325300  1
  O  O37  1  0.38147400  0.13117600  0.35763600  1
  O  O38  1  0.70505200  0.96131300  0.40156800  1
  O  O39  1  0.29096500  0.04222400  0.59827200  1
loop_
_geom_bond_atom_site_label_1
_geom_bond_atom_site_label_2
_geom_bond_distance
_geom_bond_site_symmetry_2
Na0 O28 2.399042 1_555
Na0 O20 2.404618 1_555
Na0 O36 2.449640 1_555
Na0 O26 2.520531 1_555
Na0 O18 2.573892 1_555
Na0 O3 2.580060 1_555
Na0 O33 2.592209 1_555
Na0 O32 3.062528 1_555
Na1 O29 2.351632 1_555
Na1 O21 2.434194 1_555
Na1 O19 2.501554 1_555
Na1 O37 2.502581 1_555
Na1 O27 2.517251 1_555
Na1 O32 2.551698 1_555
Na1 O2 2.575185 1_555
Na1 O33 2.993124 1_555
Na2 O24 2.376681 1_555
Na2 O10 2.388120 1_556
Na2 O22 2.424953 1_555
Na2 O14 2.495549 1_556
Na2 O34 2.571423 1_555
Na2 O35 2.670449 1_556
Na2 O2 2.706681 1_555
Na3 O11 2.328087 1_554
Na3 O25 2.403103 1_555
Na3 O15 2.482494 1_554
Na3 O23 2.485075 1_555
Na3 O35 2.557110 1_555
Na3 O34 2.651082 1_554
Na3 O3 2.718312 1_555
Na3 O18 3.053416 1_555
Mg0 O5 2.095249 1_655
Mg0 O30 2.098876 1_565
Mg0 O6 2.100845 1_566
Mg0 O7 2.116853 1_655
Mg0 O12 2.132196 1_555
Mg0 O0 2.138455 1_555
Mg1 O7 2.069635 1_544
Mg1 O31 2.090529 1_545
Mg1 O4 2.092897 1_455
Mg1 O6 2.098282 1_455
Mg1 O13 2.203634 1_555
Mg1 O1 2.212451 1_555
Mg2 O38 2.035442 1_555
Mg2 O36 2.085171 1_555
Mg2 O26 2.142765 1_555
Mg2 O12 2.155704 1_555
Mg2 O30 2.163011 1_565
Mg2 O9 2.219584 1_655
Mg3 O39 2.005084 1_555
Mg3 O27 2.133000 1_555
Mg3 O13 2.148478 1_555
Mg3 O37 2.172369 1_555
Mg3 O31 2.175699 1_545
Mg3 O8 2.191030 1_455
Mg4 O16 2.094907 1_555
Mg4 O38 2.102407 1_555
Mg4 O9 2.144121 1_655
Mg4 O4 2.145798 1_565
Mg4 O8 2.147627 1_565
Mg4 O31 2.171660 1_655
Mg5 O17 2.089220 1_555
Mg5 O39 2.094921 1_555
Mg5 O5 2.128611 1_545
Mg5 O8 2.138049 1_455
Mg5 O30 2.163748 1_455
Mg5 O9 2.177451 1_545
Mg6 O16 2.040044 1_555
Mg6 O22 2.091171 1_554
Mg6 O14 2.119223 1_555
Mg6 O7 2.156577 1_654
Mg6 O0 2.173076 1_554
Mg6 O4 2.198685 1_565
Mg7 O17 2.009451 1_555
Mg7 O15 2.116734 1_555
Mg7 O5 2.157162 1_545
Mg7 O1 2.160548 1_556
Mg7 O6 2.161490 1_456
Mg7 O23 2.185049 1_556
Mg8 O15 2.040231 1_565
Mg8 O14 2.042829 1_556
Mg8 O24 2.082238 1_555
Mg8 O0 2.093801 1_555
Mg8 O1 2.125147 1_566
Mg8 O25 2.200966 1_566
Mg9 O27 2.033496 1_655
Mg9 O26 2.038545 1_555
Mg9 O12 2.076378 1_555
Mg9 O20 2.100538 1_555
Mg9 O13 2.114531 1_655
Mg9 O21 2.263554 1_655
Mg10 O22 2.052621 1_555
Mg10 O24 2.063147 1_555
Mg10 O36 2.063259 1_555
Mg10 O20 2.069813 1_555
Mg10 O12 2.176074 1_555
Mg10 O0 2.178026 1_555
Al0 O23 1.913536 1_555
Al0 O25 1.922931 1_555
Al0 O37 1.925131 1_555
Al0 O21 1.930932 1_555
Al0 O1 2.030993 1_555
Al0 O13 2.035491 1_555
H0 O0 0.985982 1_545
H0 Mg8 2.130436 1_545
H0 O15 2.288540 1_555
H0 Mg0 2.361431 1_545
H1 O1 0.996743 1_565
H1 Mg8 2.139969 1_554
H1 O14 2.296582 1_555
H1 Mg1 2.368268 1_565
H2 O13 0.991625 1_655
H2 Mg9 2.142042 1_555
H2 O26 2.301436 1_555
H2 Mg1 2.345274 1_655
H3 O12 0.984917 1_455
H3 Mg9 2.141535 1_455
H3 O27 2.312308 1_555
H3 O19 2.313956 1_555
H3 Mg0 2.336000 1_455
O2 Si10 1.658786 1_555
O2 Si4 1.684096 1_555
O3 Si11 1.662827 1_555
O3 Si5 1.681018 1_555
O4 Si0 1.645720 1_555
O5 Si1 1.643462 1_555
O6 Si2 1.625786 1_555
O7 Si3 1.627269 1_555
O8 Si4 1.645387 1_555
O9 Si5 1.642980 1_555
O10 Si2 1.633373 1_555
O10 Si8 1.699742 1_555
O11 Si3 1.631105 1_555
O11 Si9 1.706840 1_555
O14 Si6 1.656587 1_555
O15 Si7 1.666510 1_555
O16 Si8 1.628484 1_555
O17 Si9 1.632738 1_555
O18 Si2 1.658951 1_555
O18 Si0 1.690539 1_555
O19 Si3 1.656757 1_555
O19 Si1 1.690482 1_555
O20 Si4 1.623621 1_555
O21 Si5 1.656338 1_555
O22 Si9 1.655629 1_655
O23 Si8 1.691736 1_455
O24 Si1 1.618140 1_555
O25 Si0 1.649709 1_555
O26 Si8 1.654045 1_555
O27 Si9 1.664653 1_555
O28 Si11 1.640323 1_555
O28 Si6 1.701635 1_555
O29 Si10 1.637163 1_555
O29 Si7 1.711131 1_555
O30 Si10 1.624407 1_555
O31 Si11 1.627183 1_555
O32 Si0 1.651256 1_555
O32 Si4 1.676300 1_555
O33 Si1 1.660459 1_555
O33 Si5 1.672498 1_555
O34 Si2 1.672850 1_556
O34 Si10 1.682353 1_555
O35 Si3 1.674365 1_554
O35 Si11 1.681461 1_555
O36 Si7 1.655167 1_565
O37 Si6 1.695105 1_545
O38 Si6 1.630604 1_555
O39 Si7 1.635348 1_555
