# generated using pymatgen
data_AlP(HO2)2
_symmetry_space_group_name_H-M   'P 1'
_cell_length_a   9.03722400
_cell_length_b   5.27559600
_cell_length_c   10.47064562
_cell_angle_alpha   60.27434557
_cell_angle_beta   90.00000000
_cell_angle_gamma   90.00000000
_symmetry_Int_Tables_number   1
_chemical_formula_structural   AlP(HO2)2
_chemical_formula_sum   'Al4 P4 H8 O16'
_cell_volume   433.51551589
_cell_formula_units_Z   4
loop_
 _symmetry_equiv_pos_site_id
 _symmetry_equiv_pos_as_xyz
  1  'x, y, z'
loop_
 _atom_site_type_symbol
 _atom_site_label
 _atom_site_symmetry_multiplicity
 _atom_site_fract_x
 _atom_site_fract_y
 _atom_site_fract_z
 _atom_site_occupancy
  Al  Al0  1  0.69857600  0.19456300  0.84783500  1
  Al  Al1  1  0.30142400  0.80543700  0.15216500  1
  Al  Al2  1  0.19857600  0.80543700  0.65216500  1
  Al  Al3  1  0.80142400  0.19456300  0.34783500  1
  P  P0  1  0.34385500  0.14951700  0.80305500  1
  P  P1  1  0.65614500  0.85048300  0.19694500  1
  P  P2  1  0.84385500  0.85048300  0.69694500  1
  P  P3  1  0.15614500  0.14951700  0.30305500  1
  H  H0  1  0.13554400  0.46053000  0.95447600  1
  H  H1  1  0.86445600  0.53947000  0.04552400  1
  H  H2  1  0.63554400  0.53947000  0.54552400  1
  H  H3  1  0.36445600  0.46053000  0.45447600  1
  H  H4  1  0.01985200  0.38187700  0.65126500  1
  H  H5  1  0.98014800  0.61812300  0.34873500  1
  H  H6  1  0.51985200  0.61812300  0.84873500  1
  H  H7  1  0.48014800  0.38187700  0.15126500  1
  O  O0  1  0.27238900  0.45250300  0.73745000  1
  O  O1  1  0.72761100  0.54749700  0.26255000  1
  O  O2  1  0.77238900  0.54749700  0.76255000  1
  O  O3  1  0.22761100  0.45250300  0.23745000  1
  O  O4  1  0.51287500  0.18164300  0.80309500  1
  O  O5  1  0.48712500  0.81835700  0.19690500  1
  O  O6  1  0.01287500  0.81835700  0.69690500  1
  O  O7  1  0.98712500  0.18164300  0.30309500  1
  O  O8  1  0.28641800  0.95380100  0.96064600  1
  O  O9  1  0.71358200  0.04619900  0.03935400  1
  O  O10  1  0.78641800  0.04619900  0.53935400  1
  O  O11  1  0.21358200  0.95380100  0.46064600  1
  O  O12  1  0.30495600  0.01073100  0.70867800  1
  O  O13  1  0.69504400  0.98926900  0.29132200  1
  O  O14  1  0.80495600  0.98926900  0.79132200  1
  O  O15  1  0.19504400  0.01073100  0.20867800  1
loop_
_geom_bond_atom_site_label_1
_geom_bond_atom_site_label_2
_geom_bond_distance
_geom_bond_site_symmetry_2
Al0 O2 1.749381 1_555
Al0 O4 1.752766 1_555
Al0 O14 1.755828 1_545
Al0 O9 1.759492 1_556
Al1 O3 1.749381 1_555
Al1 O5 1.752766 1_555
Al1 O15 1.755828 1_565
Al1 O8 1.759492 1_554
Al2 O0 1.749381 1_555
Al2 O6 1.752766 1_555
Al2 O12 1.755828 1_565
Al2 O11 1.759492 1_555
Al3 O1 1.749381 1_555
Al3 O7 1.752766 1_555
Al3 O13 1.755828 1_545
Al3 O10 1.759492 1_555
H0 O15 2.596333 1_556
H0 O0 2.605851 1_555
H0 O6 2.648993 1_555
H0 H1 2.734580 1_456
H0 O8 2.966806 1_555
H0 O8 2.972962 1_545
H0 O3 3.057538 1_556
H1 O14 2.596333 1_554
H1 O1 2.605851 1_555
H1 O7 2.648993 1_555
H1 O9 2.966806 1_555
H1 O9 2.972962 1_565
H1 O2 3.057538 1_554
H2 O13 2.596333 1_555
H2 O2 2.605851 1_555
H2 O4 2.648993 1_555
H2 H3 2.734580 1_555
H2 O10 2.966806 1_555
H2 O10 2.972962 1_565
H2 O1 3.057538 1_555
H3 O12 2.596333 1_555
H3 O3 2.605851 1_555
H3 O5 2.648993 1_555
H3 O11 2.966806 1_555
H3 O11 2.972962 1_545
H3 O0 3.057538 1_555
H4 O0 2.548569 1_555
H4 O6 2.574103 1_555
H4 O14 2.683284 1_445
H4 O6 2.767961 1_545
H4 H5 2.793047 1_455
H4 O2 2.851705 1_455
H4 O12 3.109104 1_555
H5 O1 2.548569 1_555
H5 O7 2.574103 1_555
H5 O15 2.683284 1_665
H5 O7 2.767961 1_565
H5 O3 2.851705 1_655
H5 O13 3.109104 1_555
H6 O2 2.548569 1_555
H6 O4 2.574103 1_555
H6 O12 2.683284 1_565
H6 O4 2.767961 1_565
H6 H7 2.793047 1_556
H6 O0 2.851705 1_555
H6 O14 3.109104 1_555
H7 O3 2.548569 1_555
H7 O5 2.574103 1_555
H7 O13 2.683284 1_545
H7 O5 2.767961 1_545
H7 O1 2.851705 1_555
H7 O15 3.109104 1_555
O0 P0 1.534631 1_555
O1 P1 1.534631 1_555
O2 P2 1.534631 1_555
O3 P3 1.534631 1_555
O4 P0 1.536869 1_555
O5 P1 1.536869 1_555
O6 P2 1.536869 1_455
O7 P3 1.536869 1_655
O8 P0 1.539059 1_565
O9 P1 1.539059 1_545
O10 P2 1.539059 1_545
O11 P3 1.539059 1_565
O12 P0 1.534178 1_555
O13 P1 1.534178 1_555
O14 P2 1.534178 1_555
O15 P3 1.534178 1_555
