# generated using pymatgen
data_Ca5V3O12
_symmetry_space_group_name_H-M   'P 1'
_cell_length_a   6.79726900
_cell_length_b   10.52093500
_cell_length_c   16.29278200
_cell_angle_alpha   90.00000000
_cell_angle_beta   90.00000000
_cell_angle_gamma   90.00000000
_symmetry_Int_Tables_number   1
_chemical_formula_structural   Ca5V3O12
_chemical_formula_sum   'Ca20 V12 O48'
_cell_volume   1165.15590747
_cell_formula_units_Z   4
loop_
 _symmetry_equiv_pos_site_id
 _symmetry_equiv_pos_as_xyz
  1  'x, y, z'
loop_
 _atom_site_type_symbol
 _atom_site_label
 _atom_site_symmetry_multiplicity
 _atom_site_fract_x
 _atom_site_fract_y
 _atom_site_fract_z
 _atom_site_occupancy
  Ca  Ca0  1  0.04344800  0.17951100  0.75000000  1
  Ca  Ca1  1  0.95655200  0.82048900  0.25000000  1
  Ca  Ca2  1  0.45655200  0.67951100  0.25000000  1
  Ca  Ca3  1  0.54344800  0.32048900  0.75000000  1
  Ca  Ca4  1  0.37469200  0.06785800  0.59147900  1
  Ca  Ca5  1  0.62530800  0.93214200  0.40852100  1
  Ca  Ca6  1  0.12530800  0.56785800  0.40852100  1
  Ca  Ca7  1  0.62530800  0.93214200  0.09147900  1
  Ca  Ca8  1  0.87469200  0.43214200  0.59147900  1
  Ca  Ca9  1  0.37469200  0.06785800  0.90852100  1
  Ca  Ca10  1  0.87469200  0.43214200  0.90852100  1
  Ca  Ca11  1  0.12530800  0.56785800  0.09147900  1
  Ca  Ca12  1  0.18721000  0.17022900  0.10601800  1
  Ca  Ca13  1  0.81279000  0.82977100  0.89398200  1
  Ca  Ca14  1  0.31279000  0.67022900  0.89398200  1
  Ca  Ca15  1  0.81279000  0.82977100  0.60601800  1
  Ca  Ca16  1  0.68721000  0.32977100  0.10601800  1
  Ca  Ca17  1  0.18721000  0.17022900  0.39398200  1
  Ca  Ca18  1  0.68721000  0.32977100  0.39398200  1
  Ca  Ca19  1  0.31279000  0.67022900  0.60601800  1
  V  V0  1  0.36190100  0.37247600  0.57190900  1
  V  V1  1  0.63809900  0.62752400  0.42809100  1
  V  V2  1  0.13809900  0.87247600  0.42809100  1
  V  V3  1  0.63809900  0.62752400  0.07190900  1
  V  V4  1  0.86190100  0.12752400  0.57190900  1
  V  V5  1  0.36190100  0.37247600  0.92809100  1
  V  V6  1  0.86190100  0.12752400  0.92809100  1
  V  V7  1  0.13809900  0.87247600  0.07190900  1
  V  V8  1  0.02532600  0.57621600  0.75000000  1
  V  V9  1  0.97467400  0.42378400  0.25000000  1
  V  V10  1  0.47467400  0.07621600  0.25000000  1
  V  V11  1  0.52532600  0.92378400  0.75000000  1
  O  O0  1  0.27788200  0.58120000  0.75000000  1
  O  O1  1  0.72211800  0.41880000  0.25000000  1
  O  O2  1  0.22211800  0.08120000  0.25000000  1
  O  O3  1  0.77788200  0.91880000  0.75000000  1
  O  O4  1  0.27333700  0.27222200  0.65188300  1
  O  O5  1  0.72666300  0.72777800  0.34811700  1
  O  O6  1  0.22666300  0.77222200  0.34811700  1
  O  O7  1  0.72666300  0.72777800  0.15188300  1
  O  O8  1  0.77333700  0.22777800  0.65188300  1
  O  O9  1  0.27333700  0.27222200  0.84811700  1
  O  O10  1  0.77333700  0.22777800  0.84811700  1
  O  O11  1  0.22666300  0.77222200  0.15188300  1
  O  O12  1  0.18740300  0.48955000  0.54006500  1
  O  O13  1  0.81259700  0.51045000  0.45993500  1
  O  O14  1  0.31259700  0.98955000  0.45993500  1
  O  O15  1  0.81259700  0.51045000  0.04006500  1
  O  O16  1  0.68740300  0.01045000  0.54006500  1
  O  O17  1  0.18740300  0.48955000  0.95993500  1
  O  O18  1  0.68740300  0.01045000  0.95993500  1
  O  O19  1  0.31259700  0.98955000  0.04006500  1
  O  O20  1  0.04495400  0.03455400  0.62053100  1
  O  O21  1  0.95504600  0.96544600  0.37946900  1
  O  O22  1  0.45504600  0.53455400  0.37946900  1
  O  O23  1  0.95504600  0.96544600  0.12053100  1
  O  O24  1  0.54495400  0.46544600  0.62053100  1
  O  O25  1  0.04495400  0.03455400  0.87946900  1
  O  O26  1  0.54495400  0.46544600  0.87946900  1
  O  O27  1  0.45504600  0.53455400  0.12053100  1
  O  O28  1  0.04698300  0.35281000  0.15791700  1
  O  O29  1  0.95301700  0.64719000  0.84208300  1
  O  O30  1  0.45301700  0.85281000  0.84208300  1
  O  O31  1  0.95301700  0.64719000  0.65791700  1
  O  O32  1  0.54698300  0.14719000  0.15791700  1
  O  O33  1  0.04698300  0.35281000  0.34208300  1
  O  O34  1  0.54698300  0.14719000  0.34208300  1
  O  O35  1  0.45301700  0.85281000  0.65791700  1
  O  O36  1  0.42900400  0.26837500  0.00920200  1
  O  O37  1  0.57099600  0.73162500  0.99079800  1
  O  O38  1  0.07099600  0.76837500  0.99079800  1
  O  O39  1  0.57099600  0.73162500  0.50920200  1
  O  O40  1  0.92900400  0.23162500  0.00920200  1
  O  O41  1  0.42900400  0.26837500  0.49079800  1
  O  O42  1  0.92900400  0.23162500  0.49079800  1
  O  O43  1  0.07099600  0.76837500  0.50920200  1
  O  O44  1  0.42876100  0.07751300  0.75000000  1
  O  O45  1  0.57123900  0.92248700  0.25000000  1
  O  O46  1  0.07123900  0.57751300  0.25000000  1
  O  O47  1  0.92876100  0.42248700  0.75000000  1
loop_
_geom_bond_atom_site_label_1
_geom_bond_atom_site_label_2
_geom_bond_distance
_geom_bond_site_symmetry_2
Ca0 O4 2.438998 1_555
Ca0 O9 2.438998 1_555
Ca0 O8 2.486836 1_455
Ca0 O10 2.486836 1_455
Ca0 O25 2.602997 1_555
Ca0 O20 2.602997 1_555
Ca0 O47 2.672557 1_455
Ca0 O44 2.830395 1_555
Ca0 O3 3.283611 1_445
Ca1 O7 2.438998 1_555
Ca1 O5 2.438998 1_555
Ca1 O6 2.486836 1_655
Ca1 O11 2.486836 1_655
Ca1 O23 2.602997 1_555
Ca1 O21 2.602997 1_555
Ca1 O46 2.672557 1_655
Ca1 O45 2.830395 1_555
Ca1 O2 3.283611 1_665
Ca2 O11 2.438998 1_555
Ca2 O6 2.438998 1_555
Ca2 O5 2.486836 1_555
Ca2 O7 2.486836 1_555
Ca2 O22 2.602997 1_555
Ca2 O27 2.602997 1_555
Ca2 O45 2.672557 1_555
Ca2 O46 2.830395 1_555
Ca2 O1 3.283611 1_555
Ca3 O10 2.438998 1_555
Ca3 O8 2.438998 1_555
Ca3 O9 2.486836 1_555
Ca3 O4 2.486836 1_555
Ca3 O26 2.602997 1_555
Ca3 O24 2.602997 1_555
Ca3 O44 2.672557 1_555
Ca3 O47 2.830395 1_555
Ca3 O0 3.283611 1_555
Ca4 O20 2.317397 1_555
Ca4 O14 2.334587 1_545
Ca4 O16 2.363175 1_555
Ca4 O4 2.462949 1_555
Ca4 O35 2.564000 1_545
Ca4 O44 2.610743 1_555
Ca4 O41 2.697710 1_555
Ca5 O21 2.317397 1_555
Ca5 O16 2.334587 1_565
Ca5 O14 2.363175 1_555
Ca5 O5 2.462949 1_555
Ca5 O34 2.564000 1_565
Ca5 O45 2.610743 1_555
Ca5 O39 2.697710 1_555
Ca6 O22 2.317397 1_555
Ca6 O12 2.334587 1_555
Ca6 O13 2.363175 1_455
Ca6 O6 2.462949 1_555
Ca6 O33 2.564000 1_555
Ca6 O46 2.610743 1_555
Ca6 O43 2.697710 1_555
Ca7 O23 2.317397 1_555
Ca7 O18 2.334587 1_564
Ca7 O19 2.363175 1_555
Ca7 O7 2.462949 1_555
Ca7 O32 2.564000 1_565
Ca7 O45 2.610743 1_555
Ca7 O37 2.697710 1_554
Ca8 O24 2.317397 1_555
Ca8 O13 2.334587 1_555
Ca8 O12 2.363175 1_655
Ca8 O8 2.462949 1_555
Ca8 O31 2.564000 1_555
Ca8 O47 2.610743 1_555
Ca8 O42 2.697710 1_555
Ca9 O25 2.317397 1_555
Ca9 O19 2.334587 1_546
Ca9 O18 2.363175 1_555
Ca9 O9 2.462949 1_555
Ca9 O30 2.564000 1_545
Ca9 O44 2.610743 1_555
Ca9 O36 2.697710 1_556
Ca10 O26 2.317397 1_555
Ca10 O15 2.334587 1_556
Ca10 O17 2.363175 1_655
Ca10 O10 2.462949 1_555
Ca10 O29 2.564000 1_555
Ca10 O47 2.610743 1_555
Ca10 O40 2.697710 1_556
Ca11 O27 2.317397 1_555
Ca11 O17 2.334587 1_554
Ca11 O15 2.363175 1_455
Ca11 O11 2.462949 1_555
Ca11 O28 2.564000 1_555
Ca11 O46 2.610743 1_555
Ca11 O38 2.697710 1_554
Ca12 O28 2.305095 1_555
Ca12 O19 2.344043 1_545
Ca12 O40 2.446590 1_455
Ca12 O36 2.501131 1_555
Ca12 O2 2.537074 1_555
Ca12 O32 2.598865 1_555
Ca12 O23 2.681074 1_445
Ca13 O29 2.305095 1_555
Ca13 O18 2.344043 1_565
Ca13 O38 2.446590 1_655
Ca13 O37 2.501131 1_555
Ca13 O3 2.537074 1_555
Ca13 O30 2.598865 1_555
Ca13 O25 2.681074 1_665
Ca14 O30 2.305095 1_555
Ca14 O17 2.344043 1_555
Ca14 O37 2.446590 1_555
Ca14 O38 2.501131 1_555
Ca14 O0 2.537074 1_555
Ca14 O29 2.598865 1_455
Ca14 O26 2.681074 1_555
Ca15 O31 2.305095 1_555
Ca15 O16 2.344043 1_565
Ca15 O43 2.446590 1_655
Ca15 O39 2.501131 1_555
Ca15 O3 2.537074 1_555
Ca15 O35 2.598865 1_555
Ca15 O20 2.681074 1_665
Ca16 O32 2.305095 1_555
Ca16 O15 2.344043 1_555
Ca16 O36 2.446590 1_555
Ca16 O40 2.501131 1_555
Ca16 O1 2.537074 1_555
Ca16 O28 2.598865 1_655
Ca16 O27 2.681074 1_555
Ca17 O33 2.305095 1_555
Ca17 O14 2.344043 1_545
Ca17 O42 2.446590 1_455
Ca17 O41 2.501131 1_555
Ca17 O2 2.537074 1_555
Ca17 O34 2.598865 1_555
Ca17 O21 2.681074 1_445
Ca18 O34 2.305095 1_555
Ca18 O13 2.344043 1_555
Ca18 O41 2.446590 1_555
Ca18 O42 2.501131 1_555
Ca18 O1 2.537074 1_555
Ca18 O33 2.598865 1_655
Ca18 O22 2.681074 1_555
Ca19 O35 2.305095 1_555
Ca19 O12 2.344043 1_555
Ca19 O39 2.446590 1_555
Ca19 O43 2.501131 1_555
Ca19 O0 2.537074 1_555
Ca19 O31 2.598865 1_455
Ca19 O24 2.681074 1_555
O0 V8 1.717492 1_555
O1 V9 1.717492 1_555
O2 V10 1.717492 1_555
O3 V11 1.717492 1_555
O4 V0 1.781217 1_555
O5 V1 1.781217 1_555
O6 V2 1.781217 1_555
O7 V3 1.781217 1_555
O8 V4 1.781217 1_555
O9 V5 1.781217 1_555
O10 V6 1.781217 1_555
O11 V7 1.781217 1_555
O12 V0 1.786951 1_555
O13 V1 1.786951 1_555
O14 V2 1.786951 1_555
O15 V3 1.786951 1_555
O16 V4 1.786951 1_555
O17 V5 1.786951 1_555
O18 V6 1.786951 1_555
O19 V7 1.786951 1_555
O20 V4 1.769883 1_455
O21 V2 1.769883 1_655
O22 V1 1.769883 1_555
O23 V7 1.769883 1_655
O24 V0 1.769883 1_555
O25 V6 1.769883 1_455
O26 V5 1.769883 1_555
O27 V3 1.769883 1_555
O28 V9 1.746431 1_455
O29 V8 1.746431 1_655
O30 V11 1.746431 1_555
O31 V8 1.746431 1_655
O32 V10 1.746431 1_555
O33 V9 1.746431 1_455
O34 V10 1.746431 1_555
O35 V11 1.746431 1_555
O36 V5 1.775956 1_554
O37 V3 1.775956 1_556
O38 V7 1.775956 1_556
O39 V1 1.775956 1_555
O40 V6 1.775956 1_554
O41 V0 1.775956 1_555
O42 V4 1.775956 1_555
O43 V2 1.775956 1_555
O44 V11 1.745488 1_545
O45 V10 1.745488 1_565
O46 V9 1.745488 1_455
O47 V8 1.745488 1_655
