# generated using pymatgen
data_CaEu4O5
_symmetry_space_group_name_H-M   'P 1'
_cell_length_a   6.17650339
_cell_length_b   6.17650339
_cell_length_c   6.17650339
_cell_angle_alpha   99.61279054
_cell_angle_beta   99.61279054
_cell_angle_gamma   131.76080080
_symmetry_Int_Tables_number   1
_chemical_formula_structural   CaEu4O5
_chemical_formula_sum   'Ca1 Eu4 O5'
_cell_volume   160.41781692
_cell_formula_units_Z   1
loop_
 _symmetry_equiv_pos_site_id
 _symmetry_equiv_pos_as_xyz
  1  'x, y, z'
loop_
 _atom_site_type_symbol
 _atom_site_label
 _atom_site_symmetry_multiplicity
 _atom_site_fract_x
 _atom_site_fract_y
 _atom_site_fract_z
 _atom_site_occupancy
  Ca  Ca0  1  0.00000000  0.00000000  0.00000000  1
  Eu  Eu0  1  0.79943500  0.59993300  0.39936900  1
  Eu  Eu1  1  0.40006700  0.79943500  0.19950200  1
  Eu  Eu2  1  0.59993300  0.20056500  0.80049800  1
  Eu  Eu3  1  0.20056500  0.40006700  0.60063100  1
  O  O0  1  0.50000000  0.50000000  0.00000000  1
  O  O1  1  0.29279600  0.09847800  0.39127400  1
  O  O2  1  0.90152200  0.29279600  0.19431800  1
  O  O3  1  0.09847800  0.70720400  0.80568200  1
  O  O4  1  0.70720400  0.90152200  0.60872600  1
loop_
_geom_bond_atom_site_label_1
_geom_bond_atom_site_label_2
_geom_bond_distance
_geom_bond_site_symmetry_2
Ca0 O1 2.462746 1_555
Ca0 O4 2.462746 1_444
Ca0 O3 2.462746 1_544
Ca0 O2 2.462746 1_455
Ca0 O0 2.523983 1_445
Ca0 O0 2.523983 1_555
Eu0 O4 2.514272 1_555
Eu0 O0 2.516623 1_555
Eu0 O1 2.524562 1_555
Eu0 O1 2.524567 1_665
Eu0 O3 2.532798 1_655
Eu0 O2 2.580303 1_555
Eu1 O3 2.514275 1_554
Eu1 O0 2.516618 1_555
Eu1 O2 2.524565 1_565
Eu1 O2 2.524565 1_455
Eu1 O1 2.532803 1_565
Eu1 O4 2.580300 1_555
Eu2 O2 2.514275 1_556
Eu2 O0 2.516618 1_556
Eu2 O3 2.524565 1_655
Eu2 O3 2.524565 1_545
Eu2 O4 2.532803 1_545
Eu2 O1 2.580300 1_555
Eu3 O1 2.514272 1_555
Eu3 O0 2.516623 1_556
Eu3 O4 2.524562 1_555
Eu3 O4 2.524567 1_445
Eu3 O2 2.532798 1_455
Eu3 O3 2.580303 1_555
