# generated using pymatgen
data_Er5Ir2
_symmetry_space_group_name_H-M   'P 1'
_cell_length_a   6.46356200
_cell_length_b   7.16172011
_cell_length_c   8.41069047
_cell_angle_alpha   96.32314732
_cell_angle_beta   112.59698939
_cell_angle_gamma   90.00000000
_symmetry_Int_Tables_number   1
_chemical_formula_structural   Er5Ir2
_chemical_formula_sum   'Er10 Ir4'
_cell_volume   356.87701606
_cell_formula_units_Z   2
loop_
 _symmetry_equiv_pos_site_id
 _symmetry_equiv_pos_as_xyz
  1  'x, y, z'
loop_
 _atom_site_type_symbol
 _atom_site_label
 _atom_site_symmetry_multiplicity
 _atom_site_fract_x
 _atom_site_fract_y
 _atom_site_fract_z
 _atom_site_occupancy
  Er  Er0  1  0.96977100  0.91847800  0.18158100  1
  Er  Er1  1  0.78819000  0.58152200  0.81841900  1
  Er  Er2  1  0.03022900  0.08152200  0.81841900  1
  Er  Er3  1  0.21181000  0.41847800  0.18158100  1
  Er  Er4  1  0.65400300  0.81880300  0.44272600  1
  Er  Er5  1  0.21127700  0.68119700  0.55727400  1
  Er  Er6  1  0.34599700  0.18119700  0.55727400  1
  Er  Er7  1  0.78872300  0.31880300  0.44272600  1
  Er  Er8  1  0.42723900  0.75000000  0.00000000  1
  Er  Er9  1  0.57276100  0.25000000  0.00000000  1
  Ir  Ir0  1  0.82747400  0.57337600  0.21872600  1
  Ir  Ir1  1  0.60874800  0.92662400  0.78127400  1
  Ir  Ir2  1  0.17252600  0.42662400  0.78127400  1
  Ir  Ir3  1  0.39125200  0.07337600  0.21872600  1
loop_
_geom_bond_atom_site_label_1
_geom_bond_atom_site_label_2
_geom_bond_distance
_geom_bond_site_symmetry_2
Er0 Ir0 2.728162 1_555
Er0 Ir3 2.831865 1_665
Er0 Ir1 3.284798 1_554
Er0 Er8 3.400526 1_555
Er0 Er1 3.485971 1_554
Er0 Er6 3.496210 1_665
Er0 Er9 3.513033 1_565
Er0 Er2 3.542412 1_664
Er0 Er5 3.563878 1_655
Er0 Er4 3.645519 1_555
Er0 Er7 3.873184 1_565
Er1 Ir1 2.728162 1_555
Er1 Ir2 2.831865 1_655
Er1 Ir0 3.284798 1_556
Er1 Er8 3.400526 1_556
Er1 Er7 3.496210 1_555
Er1 Er9 3.513033 1_556
Er1 Er3 3.542412 1_656
Er1 Er4 3.563878 1_555
Er1 Er5 3.645519 1_555
Er1 Er6 3.873184 1_555
Er2 Ir2 2.728162 1_555
Er2 Ir1 2.831865 1_445
Er2 Ir3 3.284798 1_556
Er2 Er9 3.400526 1_556
Er2 Er3 3.485971 1_556
Er2 Er4 3.496210 1_445
Er2 Er8 3.513033 1_546
Er2 Er7 3.563878 1_455
Er2 Er6 3.645519 1_555
Er2 Er5 3.873184 1_545
Er3 Ir3 2.728162 1_555
Er3 Ir0 2.831865 1_455
Er3 Ir2 3.284798 1_554
Er3 Er9 3.400526 1_555
Er3 Er5 3.496210 1_555
Er3 Er8 3.513033 1_555
Er3 Er6 3.563878 1_555
Er3 Er7 3.645519 1_555
Er3 Er4 3.873184 1_555
Er4 Ir3 2.838204 1_565
Er4 Ir0 2.964795 1_555
Er4 Ir1 2.990886 1_555
Er4 Er8 3.414399 1_555
Er4 Er5 3.523620 1_655
Er4 Er5 3.523620 1_555
Er4 Er6 3.542691 1_565
Er4 Er7 3.685214 1_555
Er4 Er7 3.685214 1_565
Er5 Ir2 2.838204 1_555
Er5 Ir1 2.964795 1_555
Er5 Ir0 2.990886 1_455
Er5 Er8 3.414399 1_556
Er5 Er7 3.542691 1_455
Er5 Er6 3.685214 1_555
Er5 Er6 3.685214 1_565
Er6 Ir1 2.838204 1_545
Er6 Ir2 2.964795 1_555
Er6 Ir3 2.990886 1_555
Er6 Er9 3.414399 1_556
Er6 Er7 3.523620 1_455
Er6 Er7 3.523620 1_555
Er7 Ir0 2.838204 1_555
Er7 Ir3 2.964795 1_555
Er7 Ir2 2.990886 1_655
Er7 Er9 3.414399 1_555
Er8 Ir3 2.862215 1_565
Er8 Ir2 2.862215 1_554
Er8 Ir0 2.920938 1_555
Er8 Ir1 2.920938 1_554
Er9 Ir0 2.862215 1_555
Er9 Ir1 2.862215 1_544
Er9 Ir3 2.920938 1_555
Er9 Ir2 2.920938 1_554
