# generated using pymatgen
data_Ba3GeS5
_symmetry_space_group_name_H-M   'P 1'
_cell_length_a   8.70987386
_cell_length_b   9.63072002
_cell_length_c   12.15399268
_cell_angle_alpha   90.00000000
_cell_angle_beta   90.00000000
_cell_angle_gamma   90.00000000
_symmetry_Int_Tables_number   1
_chemical_formula_structural   Ba3GeS5
_chemical_formula_sum   'Ba12 Ge4 S20'
_cell_volume   1019.50554755
_cell_formula_units_Z   4
loop_
 _symmetry_equiv_pos_site_id
 _symmetry_equiv_pos_as_xyz
  1  'x, y, z'
loop_
 _atom_site_type_symbol
 _atom_site_label
 _atom_site_symmetry_multiplicity
 _atom_site_fract_x
 _atom_site_fract_y
 _atom_site_fract_z
 _atom_site_occupancy
  Ba  Ba0  1  0.92301170  0.51848026  0.31782227  1
  Ba  Ba1  1  0.57698830  0.98151974  0.81782227  1
  Ba  Ba2  1  0.07698830  0.01848026  0.68217773  1
  Ba  Ba3  1  0.42301170  0.48151974  0.18217773  1
  Ba  Ba4  1  0.07698830  0.48151974  0.68217773  1
  Ba  Ba5  1  0.42301170  0.01848026  0.18217773  1
  Ba  Ba6  1  0.92301170  0.98151974  0.31782227  1
  Ba  Ba7  1  0.57698830  0.51848026  0.81782227  1
  Ba  Ba8  1  0.38677939  0.75000000  0.48031469  1
  Ba  Ba9  1  0.11322061  0.75000000  0.98031469  1
  Ba  Ba10  1  0.61322061  0.25000000  0.51968531  1
  Ba  Ba11  1  0.88677939  0.25000000  0.01968531  1
  Ge  Ge0  1  0.69442989  0.75000000  0.09930538  1
  Ge  Ge1  1  0.80557011  0.75000000  0.59930538  1
  Ge  Ge2  1  0.30557011  0.25000000  0.90069462  1
  Ge  Ge3  1  0.19442989  0.25000000  0.40069462  1
  S  S0  1  0.81955585  0.56095218  0.05633599  1
  S  S1  1  0.68044415  0.93904782  0.55633599  1
  S  S2  1  0.18044415  0.06095218  0.94366401  1
  S  S3  1  0.31955585  0.43904782  0.44366401  1
  S  S4  1  0.18044415  0.43904782  0.94366401  1
  S  S5  1  0.31955585  0.06095218  0.44366401  1
  S  S6  1  0.81955585  0.93904782  0.05633599  1
  S  S7  1  0.68044415  0.56095218  0.55633599  1
  S  S8  1  0.48201973  0.75000000  0.00251176  1
  S  S9  1  0.01798027  0.75000000  0.50251176  1
  S  S10  1  0.51798027  0.25000000  0.99748824  1
  S  S11  1  0.98201973  0.25000000  0.49748824  1
  S  S12  1  0.65043222  0.75000000  0.27929152  1
  S  S13  1  0.84956778  0.75000000  0.77929152  1
  S  S14  1  0.34956778  0.25000000  0.72070848  1
  S  S15  1  0.15043222  0.25000000  0.22070848  1
  S  S16  1  0.18148439  0.75000000  0.23460298  1
  S  S17  1  0.31851561  0.75000000  0.73460298  1
  S  S18  1  0.81851561  0.25000000  0.76539702  1
  S  S19  1  0.68148439  0.25000000  0.26539702  1
loop_
_geom_bond_atom_site_label_1
_geom_bond_atom_site_label_2
_geom_bond_distance
_geom_bond_site_symmetry_2
Ba0 S9 3.270247 1_655
Ba0 S12 3.290499 1_555
Ba0 S16 3.326077 1_655
Ba0 S0 3.328604 1_555
Ba0 S19 3.393679 1_555
Ba0 S11 3.423177 1_555
Ba0 S15 3.464444 1_655
Ba0 S7 3.610337 1_555
Ba0 S3 3.854036 1_655
Ba1 S8 3.270247 1_556
Ba1 S13 3.290499 1_555
Ba1 S17 3.326077 1_555
Ba1 S1 3.328604 1_555
Ba1 S18 3.393679 1_565
Ba1 S10 3.423177 1_565
Ba1 S14 3.464444 1_565
Ba1 S6 3.610337 1_556
Ba1 S2 3.854036 1_565
Ba2 S11 3.270247 1_455
Ba2 S14 3.290499 1_555
Ba2 S18 3.326077 1_455
Ba2 S2 3.328604 1_555
Ba2 S17 3.393679 1_545
Ba2 S9 3.423177 1_545
Ba2 S13 3.464444 1_445
Ba2 S5 3.610337 1_555
Ba2 S1 3.854036 1_445
Ba3 S10 3.270247 1_554
Ba3 S15 3.290499 1_555
Ba3 S19 3.326077 1_555
Ba3 S3 3.328604 1_555
Ba3 S16 3.393679 1_555
Ba3 S8 3.423177 1_555
Ba3 S12 3.464444 1_555
Ba3 S4 3.610337 1_554
Ba3 S0 3.854036 1_555
Ba4 S11 3.270247 1_455
Ba4 S14 3.290499 1_555
Ba4 S18 3.326077 1_455
Ba4 S4 3.328604 1_555
Ba4 S17 3.393679 1_555
Ba4 S9 3.423177 1_555
Ba4 S13 3.464444 1_455
Ba4 S3 3.610337 1_555
Ba4 S7 3.854036 1_455
Ba5 S10 3.270247 1_554
Ba5 S15 3.290499 1_555
Ba5 S19 3.326077 1_555
Ba5 S5 3.328604 1_555
Ba5 S16 3.393679 1_545
Ba5 S8 3.423177 1_545
Ba5 S12 3.464444 1_545
Ba5 S2 3.610337 1_554
Ba5 S6 3.854036 1_545
Ba6 S9 3.270247 1_655
Ba6 S12 3.290499 1_555
Ba6 S16 3.326077 1_655
Ba6 S6 3.328604 1_555
Ba6 S19 3.393679 1_565
Ba6 S11 3.423177 1_565
Ba6 S15 3.464444 1_665
Ba6 S1 3.610337 1_555
Ba6 S5 3.854036 1_665
Ba7 S8 3.270247 1_556
Ba7 S13 3.290499 1_555
Ba7 S17 3.326077 1_555
Ba7 S7 3.328604 1_555
Ba7 S18 3.393679 1_555
Ba7 S10 3.423177 1_555
Ba7 S14 3.464444 1_555
Ba7 S0 3.610337 1_556
Ba7 S4 3.854036 1_555
Ba8 S5 3.083737 1_565
Ba8 S3 3.083737 1_555
Ba8 S17 3.147290 1_555
Ba8 S9 3.223503 1_555
Ba8 S7 3.272734 1_555
Ba8 S1 3.272734 1_555
Ba8 S12 3.353024 1_555
Ba8 S16 3.480766 1_555
Ba9 S2 3.083737 1_565
Ba9 S4 3.083737 1_555
Ba9 S16 3.147290 1_556
Ba9 S8 3.223503 1_556
Ba9 S6 3.272734 1_456
Ba9 S0 3.272734 1_456
Ba9 S13 3.353024 1_455
Ba9 S17 3.480766 1_555
Ba10 S1 3.083737 1_545
Ba10 S7 3.083737 1_555
Ba10 S19 3.147290 1_555
Ba10 S11 3.223503 1_555
Ba10 S5 3.272734 1_555
Ba10 S3 3.272734 1_555
Ba10 S14 3.353024 1_555
Ba10 S18 3.480766 1_555
Ba11 S6 3.083737 1_545
Ba11 S0 3.083737 1_555
Ba11 S18 3.147290 1_554
Ba11 S10 3.223503 1_554
Ba11 S4 3.272734 1_654
Ba11 S2 3.272734 1_654
Ba11 S15 3.353024 1_655
Ba11 S19 3.480766 1_555
Ge0 S6 2.185247 1_555
Ge0 S0 2.185247 1_555
Ge0 S8 2.192425 1_555
Ge0 S12 2.220862 1_555
Ge1 S7 2.185247 1_555
Ge1 S1 2.185247 1_555
Ge1 S9 2.192425 1_655
Ge1 S13 2.220862 1_555
Ge2 S4 2.185247 1_555
Ge2 S2 2.185247 1_555
Ge2 S10 2.192425 1_555
Ge2 S14 2.220862 1_555
Ge3 S3 2.185247 1_555
Ge3 S5 2.185247 1_555
Ge3 S11 2.192425 1_455
Ge3 S15 2.220862 1_555
S10 S19 3.553962 1_556
S11 S18 3.553962 1_555
S16 S9 3.553962 1_555
S17 S8 3.553962 1_556
