# generated using pymatgen
data_Mg4Si3
_symmetry_space_group_name_H-M   'P 1'
_cell_length_a   7.00017171
_cell_length_b   13.15409787
_cell_length_c   7.01912410
_cell_angle_alpha   118.06117266
_cell_angle_beta   71.18968807
_cell_angle_gamma   101.05852462
_symmetry_Int_Tables_number   1
_chemical_formula_structural   Mg4Si3
_chemical_formula_sum   'Mg16 Si12'
_cell_volume   539.26395964
_cell_formula_units_Z   4
loop_
 _symmetry_equiv_pos_site_id
 _symmetry_equiv_pos_as_xyz
  1  'x, y, z'
loop_
 _atom_site_type_symbol
 _atom_site_label
 _atom_site_symmetry_multiplicity
 _atom_site_fract_x
 _atom_site_fract_y
 _atom_site_fract_z
 _atom_site_occupancy
  Mg  Mg0  1  0.09396300  0.02033500  0.64829400  1
  Mg  Mg1  1  0.43842500  0.17067300  0.88588700  1
  Mg  Mg2  1  0.12792900  0.52321800  0.69412900  1
  Mg  Mg3  1  0.42320900  0.72470400  0.85948600  1
  Mg  Mg4  1  0.13839600  0.14330200  0.32356200  1
  Mg  Mg5  1  0.80351100  0.11030900  0.12554600  1
  Mg  Mg6  1  0.16402800  0.60646200  0.17250700  1
  Mg  Mg7  1  0.73595600  0.64089400  0.01588500  1
  Mg  Mg8  1  0.21219900  0.32608500  0.76580200  1
  Mg  Mg9  1  0.77106300  0.32359100  0.63045000  1
  Mg  Mg10  1  0.08359600  0.74569200  0.68773000  1
  Mg  Mg11  1  0.77187900  0.73847600  0.49896300  1
  Mg  Mg12  1  0.54071000  0.33624600  0.31955800  1
  Mg  Mg13  1  0.08984500  0.34633300  0.22793500  1
  Mg  Mg14  1  0.45773100  0.83835500  0.40621800  1
  Mg  Mg15  1  0.04076500  0.84565400  0.18920500  1
  Si  Si0  1  0.85194700  0.44410400  0.06265900  1
  Si  Si1  1  0.49068300  0.50230200  0.75773800  1
  Si  Si2  1  0.76585700  0.03514400  0.45389400  1
  Si  Si3  1  0.28560400  0.95685700  0.88451100  1
  Si  Si4  1  0.47139000  0.15565800  0.47773300  1
  Si  Si5  1  0.83994000  0.22278000  0.87847300  1
  Si  Si6  1  0.42113200  0.61836200  0.40627000  1
  Si  Si7  1  0.73787800  0.86187600  0.01944200  1
  Si  Si8  1  0.47962500  0.43993700  0.05735200  1
  Si  Si9  1  0.82766600  0.53038200  0.51973300  1
  Si  Si10  1  0.41502900  0.96600100  0.19503800  1
  Si  Si11  1  0.66320400  0.96213800  0.75282500  1
loop_
_geom_bond_atom_site_label_1
_geom_bond_atom_site_label_2
_geom_bond_distance
_geom_bond_site_symmetry_2
Mg0 Si3 2.900451 1_545
Mg0 Si11 2.903979 1_445
Mg0 Si5 2.963078 1_455
Mg0 Mg15 3.046586 1_545
Mg0 Si10 3.090258 1_545
Mg0 Mg5 3.091482 1_456
Mg0 Si2 3.101274 1_455
Mg0 Si4 3.121430 1_555
Mg0 Mg1 3.188635 1_555
Mg0 Mg4 3.275209 1_555
Mg0 Mg14 3.289853 1_545
Mg0 Mg10 3.736397 1_545
Mg1 Si4 2.712677 1_555
Mg1 Si5 2.751833 1_555
Mg1 Si3 2.807462 1_545
Mg1 Mg12 3.015286 1_556
Mg1 Si11 3.028274 1_545
Mg1 Si2 3.102580 1_555
Mg1 Si8 3.146153 1_556
Mg1 Mg13 3.197374 1_556
Mg1 Mg4 3.250873 1_556
Mg1 Mg8 3.334876 1_555
Mg1 Mg9 3.403937 1_555
Mg2 Si9 2.787293 1_455
Mg2 Si1 2.799645 1_555
Mg2 Si6 2.929306 1_555
Mg2 Mg3 3.032400 1_555
Mg2 Mg8 3.054641 1_555
Mg2 Mg7 3.060984 1_456
Mg2 Mg6 3.085365 1_556
Mg2 Si0 3.169440 1_456
Mg2 Mg9 3.230342 1_455
Mg3 Si7 2.744542 1_556
Mg3 Si1 2.763790 1_555
Mg3 Si6 2.812871 1_555
Mg3 Si10 2.928229 1_556
Mg3 Mg6 3.178085 1_556
Mg3 Si3 3.286163 1_555
Mg3 Mg7 3.290572 1_556
Mg4 Si2 2.815059 1_455
Mg4 Si4 2.819035 1_555
Mg4 Si3 2.895637 1_544
Mg4 Si10 2.937624 1_545
Mg4 Mg5 2.959569 1_455
Mg4 Mg8 3.036334 1_555
Mg4 Mg9 3.292048 1_455
Mg5 Si5 2.691723 1_554
Mg5 Si4 2.703780 1_555
Mg5 Si11 2.780855 1_544
Mg5 Si2 2.830361 1_555
Mg5 Si7 2.966461 1_545
Mg5 Si10 3.044996 1_545
Mg5 Mg9 3.294442 1_555
Mg6 Si6 2.740545 1_555
Mg6 Si0 2.770435 1_455
Mg6 Si1 2.955974 1_554
Mg6 Si8 3.061277 1_555
Mg6 Si9 3.189949 1_455
Mg7 Si1 2.693006 1_554
Mg7 Si7 2.892634 1_555
Mg7 Si9 2.967623 1_554
Mg7 Si8 2.976494 1_555
Mg7 Si6 3.012043 1_555
Mg7 Si0 3.040672 1_555
Mg8 Si4 2.708509 1_555
Mg8 Si1 2.737755 1_555
Mg8 Si5 2.754316 1_455
Mg8 Si0 2.860294 1_456
Mg8 Si8 2.906330 1_556
Mg8 Mg9 3.501903 1_455
Mg9 Si4 2.806060 1_555
Mg9 Si5 2.824932 1_555
Mg9 Si0 2.876775 1_556
Mg9 Si8 2.902445 1_556
Mg9 Si1 2.973178 1_555
Mg9 Si9 3.088195 1_555
Mg9 Si2 3.389060 1_555
Mg10 Si6 2.772361 1_555
Mg10 Si3 2.786773 1_555
Mg10 Si7 2.837423 1_456
Mg10 Mg11 2.862288 1_455
Mg10 Si9 2.982497 1_455
Mg10 Mg2 3.023816 1_555
Mg10 Mg15 3.053663 1_556
Mg10 Mg3 3.097515 1_555
Mg10 Mg6 3.098517 1_555
Mg10 Mg14 3.154909 1_555
Mg10 Mg7 3.348673 1_456
Mg11 Si11 2.731639 1_555
Mg11 Si6 2.742797 1_555
Mg11 Si9 2.913546 1_555
Mg11 Mg3 2.944902 1_555
Mg11 Mg15 3.079702 1_655
Mg11 Mg7 3.088600 1_555
Mg11 Mg14 3.134027 1_555
Mg11 Mg6 3.135356 1_655
Mg11 Si7 3.169605 1_556
Mg12 Si1 2.762547 1_555
Mg12 Si8 2.919510 1_555
Mg12 Si0 2.949392 1_555
Mg12 Si4 2.966930 1_555
Mg12 Si5 2.978327 1_554
Mg12 Si9 3.001163 1_555
Mg12 Mg9 3.178643 1_555
Mg12 Mg5 3.278062 1_555
Mg12 Mg8 3.278424 1_555
Mg12 Mg4 3.412867 1_555
Mg12 Mg13 3.455754 1_555
Mg12 Mg2 3.613072 1_555
Mg13 Si9 2.835455 1_455
Mg13 Si8 2.895852 1_555
Mg13 Mg8 2.968098 1_554
Mg13 Si0 3.040449 1_455
Mg13 Mg2 3.058430 1_555
Mg13 Mg9 3.086240 1_455
Mg13 Si5 3.105533 1_454
Mg13 Mg4 3.143323 1_555
Mg13 Mg5 3.258150 1_455
Mg13 Mg6 3.545423 1_555
Mg14 Si10 2.815266 1_555
Mg14 Si6 2.855922 1_555
Mg14 Si11 2.875791 1_555
Mg14 Si3 2.888052 1_555
Mg14 Si7 2.904488 1_555
Mg14 Si2 2.995608 1_565
Mg14 Mg7 3.138563 1_555
Mg14 Mg6 3.359159 1_555
Mg14 Mg3 3.475947 1_554
Mg15 Si10 2.790844 1_555
Mg15 Si7 2.828951 1_455
Mg15 Si2 2.923283 1_465
Mg15 Mg3 3.037908 1_554
Mg15 Si3 3.044491 1_554
Mg15 Mg7 3.110268 1_455
Mg15 Mg6 3.359634 1_555
Si0 Si5 2.566967 1_554
Si0 Si8 2.608288 1_555
Si0 Si9 2.811859 1_555
Si1 Si9 2.489348 1_555
Si1 Si8 2.568172 1_556
Si2 Si4 2.751662 1_555
Si2 Si7 2.864819 1_545
Si2 Si5 2.971119 1_555
Si6 Si8 2.447094 1_555
Si10 Si4 2.405564 1_565
Si10 Si7 2.511103 1_555
Si10 Si3 2.563409 1_554
Si10 Si11 3.010523 1_554
Si11 Si3 2.502088 1_555
Si11 Si2 2.549490 1_565
Si11 Si7 2.955036 1_556
Si11 Si5 3.208539 1_565
