# generated using pymatgen
data_Ba2CoN2
_symmetry_space_group_name_H-M   'P 1'
_cell_length_a   4.11972000
_cell_length_b   4.12187300
_cell_length_c   7.06246201
_cell_angle_alpha   106.96667965
_cell_angle_beta   106.95755335
_cell_angle_gamma   90.00000000
_symmetry_Int_Tables_number   1
_chemical_formula_structural   Ba2CoN2
_chemical_formula_sum   'Ba2 Co1 N2'
_cell_volume   109.24434012
_cell_formula_units_Z   1
loop_
 _symmetry_equiv_pos_site_id
 _symmetry_equiv_pos_as_xyz
  1  'x, y, z'
loop_
 _atom_site_type_symbol
 _atom_site_label
 _atom_site_symmetry_multiplicity
 _atom_site_fract_x
 _atom_site_fract_y
 _atom_site_fract_z
 _atom_site_occupancy
  Ba  Ba0  1  0.85795000  0.85795000  0.21589900  1
  Ba  Ba1  1  0.14205000  0.14205000  0.78410100  1
  Co  Co0  1  0.50000000  0.50000000  0.50000000  1
  N  N0  1  0.36679600  0.36679600  0.23359200  1
  N  N1  1  0.63320400  0.63320400  0.76640800  1
loop_
_geom_bond_atom_site_label_1
_geom_bond_atom_site_label_2
_geom_bond_distance
_geom_bond_site_symmetry_2
Ba0 N1 2.891729 1_554
Ba0 N0 2.916063 1_665
Ba0 N0 2.916066 1_655
Ba0 N0 2.916066 1_565
Ba0 N0 2.916069 1_555
Ba0 Ba1 3.655438 1_665
Ba1 N0 2.891729 1_556
Ba1 N1 2.916063 1_445
Ba1 N1 2.916066 1_455
Ba1 N1 2.916066 1_545
Ba1 N1 2.916069 1_555
Co0 N0 1.713894 1_555
Co0 N1 1.713894 1_555
