# generated using pymatgen
data_BS4N4F3
_symmetry_space_group_name_H-M   'P 1'
_cell_length_a   10.91721700
_cell_length_b   7.49552000
_cell_length_c   12.86729308
_cell_angle_alpha   59.23468288
_cell_angle_beta   90.00000000
_cell_angle_gamma   90.00000000
_symmetry_Int_Tables_number   1
_chemical_formula_structural   BS4N4F3
_chemical_formula_sum   'B4 S16 N16 F12'
_cell_volume   904.75376363
_cell_formula_units_Z   4
loop_
 _symmetry_equiv_pos_site_id
 _symmetry_equiv_pos_as_xyz
  1  'x, y, z'
loop_
 _atom_site_type_symbol
 _atom_site_label
 _atom_site_symmetry_multiplicity
 _atom_site_fract_x
 _atom_site_fract_y
 _atom_site_fract_z
 _atom_site_occupancy
  B  B0  1  0.40307500  0.79149300  0.69875600  1
  B  B1  1  0.90307500  0.20850700  0.80124400  1
  B  B2  1  0.59692500  0.20850700  0.30124400  1
  B  B3  1  0.09692500  0.79149300  0.19875600  1
  S  S0  1  0.92685900  0.64363000  0.09098800  1
  S  S1  1  0.42685900  0.35637000  0.40901200  1
  S  S2  1  0.07314100  0.35637000  0.90901200  1
  S  S3  1  0.57314100  0.64363000  0.59098800  1
  S  S4  1  0.95232100  0.22894200  0.31359700  1
  S  S5  1  0.45232100  0.77105800  0.18640300  1
  S  S6  1  0.04767900  0.77105800  0.68640300  1
  S  S7  1  0.54767900  0.22894200  0.81359700  1
  S  S8  1  0.84383900  0.41413000  0.44976300  1
  S  S9  1  0.34383900  0.58587000  0.05023700  1
  S  S10  1  0.15616100  0.58587000  0.55023700  1
  S  S11  1  0.65616100  0.41413000  0.94976300  1
  S  S12  1  0.83387000  0.81810600  0.21812900  1
  S  S13  1  0.33387000  0.18189400  0.28187100  1
  S  S14  1  0.16613000  0.18189400  0.78187100  1
  S  S15  1  0.66613000  0.81810600  0.71812900  1
  N  N0  1  0.43771500  0.70902200  0.08564000  1
  N  N1  1  0.43791700  0.60299400  0.32313500  1
  N  N2  1  0.06208300  0.60299400  0.82313500  1
  N  N3  1  0.56208300  0.39700600  0.67686500  1
  N  N4  1  0.93771500  0.29097800  0.41436000  1
  N  N5  1  0.56228500  0.29097800  0.91436000  1
  N  N6  1  0.06228500  0.70902200  0.58564000  1
  N  N7  1  0.93791700  0.39700600  0.17686500  1
  N  N8  1  0.80171600  0.63807600  0.35275700  1
  N  N9  1  0.30171600  0.36192400  0.14724300  1
  N  N10  1  0.19828400  0.36192400  0.64724300  1
  N  N11  1  0.45973800  0.23941400  0.33176800  1
  N  N12  1  0.54026200  0.76058600  0.66823200  1
  N  N13  1  0.04026200  0.23941400  0.83176800  1
  N  N14  1  0.95973800  0.76058600  0.16823200  1
  N  N15  1  0.69828400  0.63807600  0.85275700  1
  F  F0  1  0.15219800  0.59579100  0.27056300  1
  F  F1  1  0.58973400  0.09866000  0.24005000  1
  F  F2  1  0.91026600  0.09866000  0.74005000  1
  F  F3  1  0.41026600  0.90134000  0.75995000  1
  F  F4  1  0.08973400  0.90134000  0.25995000  1
  F  F5  1  0.83933100  0.09620100  0.91162000  1
  F  F6  1  0.66066900  0.09620100  0.41162000  1
  F  F7  1  0.16066900  0.90379900  0.08838000  1
  F  F8  1  0.34780200  0.59579100  0.77056300  1
  F  F9  1  0.84780200  0.40420900  0.72943700  1
  F  F10  1  0.65219800  0.40420900  0.22943700  1
  F  F11  1  0.33933100  0.90379900  0.58838000  1
loop_
_geom_bond_atom_site_label_1
_geom_bond_atom_site_label_2
_geom_bond_distance
_geom_bond_site_symmetry_2
B0 F3 1.402620 1_555
B0 F8 1.408193 1_555
B0 F11 1.409569 1_555
B0 N12 1.595030 1_555
B1 F2 1.402620 1_555
B1 F9 1.408193 1_555
B1 F5 1.409569 1_555
B1 N13 1.595030 1_655
B2 F1 1.402620 1_555
B2 F10 1.408193 1_555
B2 F6 1.409569 1_555
B2 N11 1.595030 1_555
B3 F4 1.402620 1_555
B3 F0 1.408193 1_555
B3 F7 1.409569 1_555
B3 N14 1.595030 1_455
N0 S5 1.593567 1_555
N0 S9 1.593785 1_555
N1 S5 1.561929 1_555
N1 S1 1.600962 1_555
N2 S6 1.561929 1_555
N2 S2 1.600962 1_555
N3 S7 1.561929 1_555
N3 S3 1.600962 1_555
N4 S4 1.593567 1_555
N4 S8 1.593785 1_555
N5 S7 1.593567 1_555
N5 S11 1.593785 1_555
N6 S6 1.593567 1_555
N6 S10 1.593785 1_555
N7 S4 1.561929 1_555
N7 S0 1.600962 1_555
N8 S8 1.563218 1_555
N8 S12 1.597981 1_555
N9 S9 1.563218 1_555
N9 S13 1.597981 1_555
N10 S10 1.563218 1_555
N10 S14 1.597981 1_555
N11 S13 1.664186 1_555
N11 S1 1.666322 1_555
N12 S15 1.664186 1_555
N12 S3 1.666322 1_555
N13 S14 1.664186 1_555
N13 S2 1.666322 1_555
N14 S12 1.664186 1_555
N14 S0 1.666322 1_555
N15 S11 1.563218 1_555
N15 S15 1.597981 1_555
