# generated using pymatgen
data_Mg14NbCd
_symmetry_space_group_name_H-M   'P 1'
_cell_length_a   6.36756009
_cell_length_b   6.36755957
_cell_length_c   10.01238727
_cell_angle_alpha   90.00000000
_cell_angle_beta   90.00000000
_cell_angle_gamma   120.00000265
_symmetry_Int_Tables_number   1
_chemical_formula_structural   Mg14NbCd
_chemical_formula_sum   'Mg14 Nb1 Cd1'
_cell_volume   351.57203926
_cell_formula_units_Z   1
loop_
 _symmetry_equiv_pos_site_id
 _symmetry_equiv_pos_as_xyz
  1  'x, y, z'
loop_
 _atom_site_type_symbol
 _atom_site_label
 _atom_site_symmetry_multiplicity
 _atom_site_fract_x
 _atom_site_fract_y
 _atom_site_fract_z
 _atom_site_occupancy
  Mg  Mg0  1  0.17006344  0.83503122  0.12500000  1
  Mg  Mg1  1  0.16573704  0.83286802  0.62500000  1
  Mg  Mg2  1  0.66496878  0.32993656  0.12500000  1
  Mg  Mg3  1  0.66713198  0.33426296  0.62500000  1
  Mg  Mg4  1  0.66496878  0.83503122  0.12500000  1
  Mg  Mg5  1  0.66713198  0.83286802  0.62500000  1
  Mg  Mg6  1  0.32769499  0.17230501  0.37066914  1
  Mg  Mg7  1  0.32769499  0.17230501  0.87933086  1
  Mg  Mg8  1  0.32769499  0.65539098  0.37066914  1
  Mg  Mg9  1  0.32769499  0.65539098  0.87933086  1
  Mg  Mg10  1  0.84460902  0.17230501  0.37066914  1
  Mg  Mg11  1  0.84460902  0.17230501  0.87933086  1
  Mg  Mg12  1  0.83333300  0.66666700  0.37257222  1
  Mg  Mg13  1  0.83333300  0.66666700  0.87742778  1
  Nb  Nb0  1  0.16666700  0.33333300  0.12500000  1
  Cd  Cd0  1  0.16666700  0.33333300  0.62500000  1
loop_
_geom_bond_atom_site_label_1
_geom_bond_atom_site_label_2
_geom_bond_distance
_geom_bond_site_symmetry_2
Mg0 Mg9 3.084532 1_554
Mg0 Mg8 3.084532 1_555
Mg0 Mg7 3.084539 1_564
Mg0 Mg6 3.084539 1_565
Mg0 Mg13 3.097165 1_454
Mg0 Mg12 3.097165 1_455
Mg0 Mg2 3.151339 1_565
Mg0 Mg4 3.151339 1_555
Mg0 Nb0 3.183835 1_555
Mg0 Nb0 3.183835 1_565
Mg0 Mg2 3.216220 1_455
Mg0 Mg4 3.216221 1_455
Mg1 Mg13 3.122143 1_455
Mg1 Mg12 3.122143 1_455
Mg1 Mg8 3.160782 1_555
Mg1 Mg9 3.160782 1_555
Mg1 Mg6 3.160789 1_565
Mg1 Mg7 3.160789 1_565
Mg1 Mg3 3.174897 1_455
Mg1 Mg5 3.174898 1_455
Mg1 Mg3 3.192662 1_565
Mg1 Mg5 3.192662 1_555
Mg2 Mg7 3.084539 1_554
Mg2 Mg6 3.084539 1_555
Mg2 Mg4 3.151339 1_545
Mg2 Nb0 3.183835 1_555
Mg2 Nb0 3.183835 1_655
Mg2 Mg4 3.216220 1_555
Mg3 Mg6 3.160789 1_555
Mg3 Mg7 3.160789 1_555
Mg3 Mg5 3.174897 1_555
Mg3 Mg5 3.192662 1_545
Mg4 Mg9 3.084539 1_554
Mg4 Mg8 3.084539 1_555
Mg4 Nb0 3.183835 1_555
Mg4 Nb0 3.183835 1_665
Mg5 Mg8 3.160789 1_555
Mg5 Mg9 3.160789 1_555
Mg6 Nb0 3.033868 1_555
Mg6 Mg8 3.076079 1_555
Mg6 Mg8 3.291481 1_545
Mg7 Nb0 3.033868 1_556
Mg7 Mg9 3.076079 1_555
Mg7 Mg9 3.291481 1_545
Mg8 Nb0 3.033874 1_555
Mg9 Nb0 3.033874 1_556
Mg10 Nb0 3.033874 1_655
Mg10 Mg8 3.076079 1_655
Mg10 Mg6 3.076079 1_655
Mg10 Mg2 3.084532 1_555
Mg10 Mg4 3.084538 1_545
Mg10 Mg3 3.160782 1_555
Mg10 Mg5 3.160788 1_545
Mg10 Mg12 3.184444 1_545
Mg10 Mg12 3.184444 1_555
Mg10 Mg8 3.291481 1_545
Mg10 Mg6 3.291481 1_555
Mg11 Nb0 3.033874 1_656
Mg11 Mg9 3.076079 1_655
Mg11 Mg7 3.076079 1_655
Mg11 Mg2 3.084532 1_556
Mg11 Mg4 3.084538 1_546
Mg11 Mg3 3.160782 1_555
Mg11 Mg5 3.160788 1_545
Mg11 Mg13 3.184444 1_545
Mg11 Mg13 3.184444 1_555
Mg11 Mg9 3.291481 1_545
Mg11 Mg7 3.291481 1_555
Mg12 Mg4 3.097159 1_555
Mg12 Mg2 3.097165 1_555
Mg12 Mg5 3.122137 1_555
Mg12 Mg3 3.122143 1_555
Mg12 Mg6 3.184444 1_665
Mg12 Mg6 3.184444 1_555
Mg12 Mg8 3.184444 1_655
Mg12 Mg8 3.184444 1_555
Mg13 Mg4 3.097159 1_556
Mg13 Mg2 3.097165 1_556
Mg13 Mg5 3.122137 1_555
Mg13 Mg3 3.122143 1_555
Mg13 Mg7 3.184444 1_665
Mg13 Mg7 3.184444 1_555
Mg13 Mg9 3.184444 1_655
Mg13 Mg9 3.184444 1_555
Cd0 Mg6 3.104596 1_555
Cd0 Mg7 3.104596 1_555
Cd0 Mg9 3.104602 1_555
Cd0 Mg8 3.104602 1_555
Cd0 Mg10 3.104602 1_455
Cd0 Mg11 3.104602 1_455
Cd0 Mg1 3.183784 1_545
Cd0 Mg1 3.183784 1_555
Cd0 Mg5 3.183784 1_445
Cd0 Mg5 3.183784 1_555
Cd0 Mg3 3.183784 1_455
Cd0 Mg3 3.183784 1_555
