# generated using pymatgen
data_Ca7(Mg3Si7)2
_symmetry_space_group_name_H-M   'P 1'
_cell_length_a   4.21525700
_cell_length_b   12.93437446
_cell_length_c   12.93437446
_cell_angle_alpha   120.00000237
_cell_angle_beta   90.00000000
_cell_angle_gamma   90.00000000
_symmetry_Int_Tables_number   1
_chemical_formula_structural   Ca7(Mg3Si7)2
_chemical_formula_sum   'Ca7 Mg6 Si14'
_cell_volume   610.72477709
_cell_formula_units_Z   1
loop_
 _symmetry_equiv_pos_site_id
 _symmetry_equiv_pos_as_xyz
  1  'x, y, z'
loop_
 _atom_site_type_symbol
 _atom_site_label
 _atom_site_symmetry_multiplicity
 _atom_site_fract_x
 _atom_site_fract_y
 _atom_site_fract_z
 _atom_site_occupancy
  Ca  Ca0  1  0.00000000  0.81339000  0.18661000  1
  Ca  Ca1  1  0.00000000  0.18661000  0.81339000  1
  Ca  Ca2  1  0.00000000  0.37322000  0.18661000  1
  Ca  Ca3  1  0.00000000  0.62678000  0.81339000  1
  Ca  Ca4  1  0.00000000  0.81339000  0.62678000  1
  Ca  Ca5  1  0.00000000  0.18661000  0.37322000  1
  Ca  Ca6  1  0.00000000  0.00000000  0.00000000  1
  Mg  Mg0  1  0.50000000  0.41368100  0.58631900  1
  Mg  Mg1  1  0.50000000  0.58631900  0.41368100  1
  Mg  Mg2  1  0.50000000  0.17263800  0.58631900  1
  Mg  Mg3  1  0.50000000  0.82736200  0.41368100  1
  Mg  Mg4  1  0.50000000  0.41368100  0.82736200  1
  Mg  Mg5  1  0.50000000  0.58631900  0.17263800  1
  Si  Si0  1  0.50000000  0.64316400  0.64316400  1
  Si  Si1  1  0.50000000  0.35683600  0.35683600  1
  Si  Si2  1  0.50000000  0.00000000  0.35683600  1
  Si  Si3  1  0.50000000  0.00000000  0.64316400  1
  Si  Si4  1  0.50000000  0.35683600  0.00000000  1
  Si  Si5  1  0.50000000  0.64316400  0.00000000  1
  Si  Si6  1  0.50000000  0.81896900  0.81896900  1
  Si  Si7  1  0.50000000  0.18103100  0.18103100  1
  Si  Si8  1  0.50000000  0.00000000  0.18103100  1
  Si  Si9  1  0.50000000  0.00000000  0.81896900  1
  Si  Si10  1  0.50000000  0.18103100  0.00000000  1
  Si  Si11  1  0.50000000  0.81896900  0.00000000  1
  Si  Si12  1  0.00000000  0.66666700  0.33333300  1
  Si  Si13  1  0.00000000  0.33333300  0.66666700  1
loop_
_geom_bond_atom_site_label_1
_geom_bond_atom_site_label_2
_geom_bond_distance
_geom_bond_site_symmetry_2
Ca0 Si2 3.130715 1_465
Ca0 Si2 3.130715 1_565
Ca0 Si5 3.130715 1_555
Ca0 Si5 3.130715 1_455
Ca0 Si8 3.232236 1_565
Ca0 Si11 3.232236 1_555
Ca0 Si11 3.232236 1_455
Ca0 Si8 3.232236 1_465
Ca0 Si12 3.287034 1_555
Ca0 Mg3 3.545430 1_455
Ca0 Mg3 3.545430 1_555
Ca0 Mg5 3.545430 1_555
Ca0 Mg5 3.545430 1_455
Ca1 Si4 3.130715 1_456
Ca1 Si4 3.130715 1_556
Ca1 Si3 3.130715 1_455
Ca1 Si3 3.130715 1_555
Ca1 Si9 3.232236 1_555
Ca1 Si10 3.232236 1_456
Ca1 Si9 3.232236 1_455
Ca1 Si10 3.232236 1_556
Ca1 Si13 3.287034 1_555
Ca1 Mg4 3.545430 1_455
Ca1 Mg4 3.545430 1_555
Ca1 Mg2 3.545430 1_555
Ca1 Mg2 3.545430 1_455
Ca2 Si4 3.130715 1_455
Ca2 Si4 3.130715 1_555
Ca2 Si1 3.130715 1_555
Ca2 Si1 3.130715 1_455
Ca2 Si10 3.232236 1_555
Ca2 Si10 3.232236 1_455
Ca2 Si7 3.232236 1_455
Ca2 Si7 3.232236 1_555
Ca2 Si12 3.287046 1_555
Ca2 Mg1 3.545430 1_455
Ca2 Mg1 3.545430 1_555
Ca2 Mg5 3.545430 1_455
Ca2 Mg5 3.545430 1_555
Ca3 Si5 3.130715 1_456
Ca3 Si5 3.130715 1_556
Ca3 Si0 3.130715 1_455
Ca3 Si0 3.130715 1_555
Ca3 Si11 3.232236 1_556
Ca3 Si11 3.232236 1_456
Ca3 Si6 3.232236 1_455
Ca3 Si6 3.232236 1_555
Ca3 Si13 3.287046 1_555
Ca3 Mg0 3.545430 1_455
Ca3 Mg0 3.545430 1_555
Ca3 Mg4 3.545430 1_455
Ca3 Mg4 3.545430 1_555
Ca4 Si3 3.130715 1_565
Ca4 Si3 3.130715 1_465
Ca4 Si0 3.130715 1_555
Ca4 Si0 3.130715 1_455
Ca4 Si9 3.232236 1_465
Ca4 Si9 3.232236 1_565
Ca4 Si6 3.232236 1_555
Ca4 Si6 3.232236 1_455
Ca4 Si12 3.287046 1_555
Ca4 Mg1 3.545430 1_455
Ca4 Mg1 3.545430 1_555
Ca4 Mg3 3.545430 1_555
Ca4 Mg3 3.545430 1_455
Ca5 Si2 3.130715 1_455
Ca5 Si2 3.130715 1_555
Ca5 Si1 3.130715 1_555
Ca5 Si1 3.130715 1_455
Ca5 Si8 3.232236 1_455
Ca5 Si8 3.232236 1_555
Ca5 Si7 3.232236 1_455
Ca5 Si7 3.232236 1_555
Ca5 Si13 3.287046 1_555
Ca5 Mg0 3.545430 1_555
Ca5 Mg0 3.545430 1_455
Ca5 Mg2 3.545430 1_555
Ca5 Mg2 3.545430 1_455
Ca6 Si7 3.150369 1_455
Ca6 Si7 3.150369 1_555
Ca6 Si6 3.150369 1_544
Ca6 Si6 3.150369 1_444
Ca6 Si10 3.150369 1_455
Ca6 Si10 3.150369 1_555
Ca6 Si8 3.150369 1_455
Ca6 Si8 3.150369 1_555
Ca6 Si9 3.150369 1_454
Ca6 Si11 3.150369 1_545
Ca6 Si11 3.150369 1_445
Ca6 Si9 3.150369 1_554
Mg0 Si1 2.677410 1_555
Mg0 Si0 2.677410 1_555
Mg0 Si13 2.771683 1_555
Mg0 Si13 2.771683 1_655
Mg0 Mg4 3.117740 1_555
Mg0 Mg2 3.117740 1_555
Mg1 Si1 2.677410 1_555
Mg1 Si0 2.677410 1_555
Mg1 Si12 2.771683 1_655
Mg1 Si12 2.771683 1_555
Mg1 Mg3 3.117740 1_555
Mg1 Mg5 3.117740 1_555
Mg2 Si2 2.677410 1_555
Mg2 Si3 2.677411 1_555
Mg2 Si13 2.771676 1_555
Mg2 Si13 2.771676 1_655
Mg2 Mg4 3.117740 1_555
Mg3 Si3 2.677410 1_565
Mg3 Si2 2.677411 1_565
Mg3 Si12 2.771676 1_655
Mg3 Si12 2.771676 1_555
Mg3 Mg5 3.117740 1_555
Mg4 Si5 2.677410 1_556
Mg4 Si4 2.677411 1_556
Mg4 Si13 2.771676 1_555
Mg4 Si13 2.771676 1_655
Mg5 Si4 2.677410 1_555
Mg5 Si5 2.677411 1_555
Mg5 Si12 2.771676 1_655
Mg5 Si12 2.771676 1_555
Si0 Si6 2.273928 1_555
Si1 Si7 2.273928 1_555
Si2 Si8 2.273928 1_555
Si3 Si9 2.273928 1_555
Si6 Si9 2.341523 1_565
Si7 Si8 2.341523 1_555
Si10 Si4 2.273928 1_555
Si10 Si9 2.341523 1_554
Si10 Si7 2.341523 1_555
Si11 Si5 2.273928 1_555
Si11 Si8 2.341523 1_565
Si11 Si6 2.341523 1_554
