# generated using pymatgen
data_PrNdSb
_symmetry_space_group_name_H-M   'P 1'
_cell_length_a   9.52398120
_cell_length_b   9.52398120
_cell_length_c   9.52398120
_cell_angle_alpha   152.07445709
_cell_angle_beta   152.07445709
_cell_angle_gamma   39.90458031
_symmetry_Int_Tables_number   1
_chemical_formula_structural   PrNdSb
_chemical_formula_sum   'Pr2 Nd2 Sb2'
_cell_volume   189.11086473
_cell_formula_units_Z   2
loop_
 _symmetry_equiv_pos_site_id
 _symmetry_equiv_pos_as_xyz
  1  'x, y, z'
loop_
 _atom_site_type_symbol
 _atom_site_label
 _atom_site_symmetry_multiplicity
 _atom_site_fract_x
 _atom_site_fract_y
 _atom_site_fract_z
 _atom_site_occupancy
  Pr  Pr0  1  0.67991248  0.67991248  0.00000000  1
  Pr  Pr1  1  0.32008752  0.32008752  0.00000000  1
  Nd  Nd0  1  -0.00000000  0.50000000  0.50000000  1
  Nd  Nd1  1  0.50000000  -0.00000000  0.50000000  1
  Sb  Sb0  1  0.86327490  0.86327490  -0.00000000  1
  Sb  Sb1  1  0.13672510  0.13672510  0.00000000  1
loop_
_geom_bond_atom_site_label_1
_geom_bond_atom_site_label_2
_geom_bond_distance
_geom_bond_site_symmetry_2
Pr0 Sb0 3.283040 1_555
Pr0 Sb1 3.340664 1_554
Pr0 Sb1 3.340664 1_565
Pr0 Sb1 3.340664 1_655
Pr0 Sb1 3.340664 1_666
Pr0 Pr1 4.106231 1_666
Pr0 Pr1 4.106231 1_655
Pr0 Pr1 4.106231 1_565
Pr0 Pr1 4.106231 1_554
Pr1 Sb1 3.283040 1_555
Pr1 Sb0 3.340664 1_444
Pr1 Sb0 3.340664 1_545
Pr1 Sb0 3.340664 1_455
Pr1 Sb0 3.340664 1_556
Nd0 Nd1 3.249940 1_465
Nd0 Nd1 3.249940 1_566
Nd0 Nd1 3.249940 1_454
Nd0 Nd1 3.249940 1_555
Nd0 Sb1 3.357653 1_555
Nd0 Sb1 3.357653 1_566
Nd0 Sb0 3.357653 1_456
Nd0 Sb0 3.357653 1_445
Nd0 Pr1 3.956973 1_455
Nd0 Pr1 3.956973 1_556
Nd0 Pr0 3.956973 1_556
Nd0 Pr0 3.956973 1_455
Nd1 Sb1 3.357653 1_555
Nd1 Sb1 3.357653 1_656
Nd1 Sb0 3.357653 1_546
Nd1 Sb0 3.357653 1_445
Nd1 Pr1 3.956973 1_556
Nd1 Pr1 3.956973 1_545
Nd1 Pr0 3.956973 1_545
Nd1 Pr0 3.956973 1_556
