# generated using pymatgen
data_Li9Mn2Co5O16
_symmetry_space_group_name_H-M   'P 1'
_cell_length_a   4.97231400
_cell_length_b   5.84194797
_cell_length_c   10.42936677
_cell_angle_alpha   90.72168885
_cell_angle_beta   96.57292030
_cell_angle_gamma   105.93171255
_symmetry_Int_Tables_number   1
_chemical_formula_structural   Li9Mn2Co5O16
_chemical_formula_sum   'Li9 Mn2 Co5 O16'
_cell_volume   289.09350464
_cell_formula_units_Z   1
loop_
 _symmetry_equiv_pos_site_id
 _symmetry_equiv_pos_as_xyz
  1  'x, y, z'
loop_
 _atom_site_type_symbol
 _atom_site_label
 _atom_site_symmetry_multiplicity
 _atom_site_fract_x
 _atom_site_fract_y
 _atom_site_fract_z
 _atom_site_occupancy
  Li  Li0  1  0.00934500  0.25375400  0.25815300  1
  Li  Li1  1  0.49514200  0.87365700  0.62271400  1
  Li  Li2  1  0.99331500  0.99444200  0.50407200  1
  Li  Li3  1  0.49342600  0.62426000  0.87085800  1
  Li  Li4  1  0.99690700  0.74742700  0.73856600  1
  Li  Li5  1  0.50827900  0.37917400  0.13355900  1
  Li  Li6  1  0.99613700  0.50038000  0.00047700  1
  Li  Li7  1  0.50334100  0.12617200  0.37059700  1
  Li  Li8  1  0.00078700  0.50159700  0.50183600  1
  Mn  Mn0  1  0.99896000  0.99869700  0.00141700  1
  Mn  Mn1  1  0.99296400  0.24619700  0.74622900  1
  Co  Co0  1  0.51108600  0.62561500  0.38435100  1
  Co  Co1  1  0.50241800  0.87609200  0.12663700  1
  Co  Co2  1  0.49250400  0.12342000  0.87008900  1
  Co  Co3  1  0.00930900  0.75103700  0.25275100  1
  Co  Co4  1  0.49949900  0.38158100  0.61725200  1
  O  O0  1  0.74680300  0.16474800  0.06477900  1
  O  O1  1  0.27094600  0.79457000  0.42541300  1
  O  O2  1  0.76067900  0.91721000  0.31532600  1
  O  O3  1  0.24514900  0.53099000  0.69360300  1
  O  O4  1  0.73387000  0.68028100  0.56053000  1
  O  O5  1  0.22820200  0.29023500  0.92078400  1
  O  O6  1  0.74301000  0.41114700  0.81377500  1
  O  O7  1  0.26533100  0.05171600  0.18500300  1
  O  O8  1  0.28162100  0.33379000  0.44051300  1
  O  O9  1  0.74450000  0.96068100  0.81104100  1
  O  O10  1  0.23396800  0.07111800  0.68726000  1
  O  O11  1  0.74997600  0.70483200  0.06751900  1
  O  O12  1  0.25408600  0.83847700  0.93566900  1
  O  O13  1  0.73261600  0.45942800  0.31561700  1
  O  O14  1  0.24574600  0.58507100  0.18048100  1
  O  O15  1  0.76007900  0.20220000  0.58313600  1
loop_
_geom_bond_atom_site_label_1
_geom_bond_atom_site_label_2
_geom_bond_distance
_geom_bond_site_symmetry_2
Li0 O2 2.147920 1_445
Li0 O7 2.149334 1_555
Li0 O8 2.170100 1_555
Li0 O13 2.185058 1_455
Li0 O14 2.189223 1_555
Li0 O0 2.245018 1_455
Li1 O4 1.999953 1_555
Li1 O15 2.084707 1_565
Li1 O10 2.115018 1_565
Li1 O9 2.173674 1_555
Li1 O1 2.204213 1_555
Li1 O3 2.231757 1_555
Li2 O4 2.068967 1_555
Li2 O10 2.107950 1_665
Li2 O15 2.112923 1_565
Li2 O2 2.141594 1_555
Li2 O1 2.249914 1_655
Li2 O8 2.261652 1_665
Li3 O3 2.078778 1_555
Li3 O12 2.102317 1_555
Li3 O6 2.107896 1_555
Li3 O5 2.141994 1_555
Li3 O9 2.161613 1_555
Li3 O11 2.258914 1_556
Li4 O10 2.048851 1_665
Li4 O3 2.077646 1_655
Li4 O4 2.110977 1_555
Li4 O9 2.179534 1_555
Li4 O6 2.229888 1_555
Li4 O12 2.267413 1_655
Li5 O13 2.067589 1_555
Li5 O7 2.076603 1_555
Li5 O14 2.093749 1_555
Li5 O0 2.116157 1_555
Li5 O11 2.122600 1_555
Li5 O5 2.449499 1_554
Li6 O11 2.095493 1_555
Li6 O14 2.101340 1_655
Li6 O5 2.121550 1_654
Li6 O6 2.168082 1_554
Li6 O0 2.172613 1_555
Li6 O12 2.201014 1_654
Li7 O8 2.028319 1_555
Li7 O1 2.089280 1_545
Li7 O13 2.092381 1_555
Li7 O2 2.113871 1_545
Li7 O7 2.123250 1_555
Li7 O15 2.399283 1_555
Li8 O4 2.038695 1_455
Li8 O8 2.064014 1_555
Li8 O15 2.081135 1_455
Li8 O1 2.094378 1_555
Li8 O13 2.196677 1_455
Li8 O3 2.196890 1_555
Mn0 O12 1.946888 1_654
Mn0 O0 1.947043 1_565
Mn0 O11 2.003400 1_555
Mn0 O5 2.024096 1_664
Mn0 O7 2.166906 1_665
Mn0 O9 2.202706 1_554
Mn1 O15 1.917001 1_555
Mn1 O3 1.917529 1_655
Mn1 O10 1.919935 1_655
Mn1 O6 1.952012 1_555
Mn1 O9 1.963072 1_545
Mn1 O5 2.020904 1_655
Co0 O1 1.826693 1_555
Co0 O13 1.849353 1_555
Co0 O8 1.913538 1_555
Co0 O4 2.007560 1_555
Co0 O2 2.008761 1_555
Co0 O14 2.343332 1_555
Co1 O7 1.904068 1_565
Co1 O11 1.931488 1_555
Co1 O0 1.954074 1_565
Co1 O14 1.957436 1_555
Co1 O12 2.194709 1_554
Co1 O2 2.195363 1_555
Co2 O9 1.915464 1_545
Co2 O6 1.940302 1_555
Co2 O12 1.942961 1_545
Co2 O5 1.950775 1_555
Co2 O10 2.142498 1_555
Co2 O0 2.238819 1_556
Co3 O14 1.923671 1_555
Co3 O2 1.929836 1_455
Co3 O13 2.042745 1_455
Co3 O7 2.053019 1_565
Co3 O1 2.066484 1_555
Co3 O11 2.166372 1_455
Co4 O15 1.935232 1_555
Co4 O3 1.953069 1_555
Co4 O4 1.954604 1_555
Co4 O8 2.003272 1_555
Co4 O10 2.122564 1_555
Co4 O6 2.237170 1_555
