# generated using pymatgen
data_CeTl(WO4)2
_symmetry_space_group_name_H-M   'P 1'
_cell_length_a   7.74620879
_cell_length_b   7.74620879
_cell_length_c   7.46796069
_cell_angle_alpha   63.24988600
_cell_angle_beta   63.24988600
_cell_angle_gamma   89.71228630
_symmetry_Int_Tables_number   1
_chemical_formula_structural   CeTl(WO4)2
_chemical_formula_sum   'Ce2 Tl2 W4 O16'
_cell_volume   346.18271430
_cell_formula_units_Z   2
loop_
 _symmetry_equiv_pos_site_id
 _symmetry_equiv_pos_as_xyz
  1  'x, y, z'
loop_
 _atom_site_type_symbol
 _atom_site_label
 _atom_site_symmetry_multiplicity
 _atom_site_fract_x
 _atom_site_fract_y
 _atom_site_fract_z
 _atom_site_occupancy
  Ce  Ce0  1  0.77654700  0.22345300  0.75000000  1
  Ce  Ce1  1  0.22345300  0.77654700  0.25000000  1
  Tl  Tl0  1  0.20440900  0.79559100  0.75000000  1
  Tl  Tl1  1  0.79559100  0.20440900  0.25000000  1
  W  W0  1  0.70016900  0.68669900  0.78421700  1
  W  W1  1  0.29983100  0.31330100  0.21578300  1
  W  W2  1  0.31330100  0.29983100  0.71578300  1
  W  W3  1  0.68669900  0.70016900  0.28421700  1
  O  O0  1  0.62239100  0.75221900  0.55685900  1
  O  O1  1  0.37760900  0.24778100  0.44314100  1
  O  O2  1  0.24778100  0.37760900  0.94314100  1
  O  O3  1  0.75221900  0.62239100  0.05685900  1
  O  O4  1  0.38173300  0.06811700  0.86923100  1
  O  O5  1  0.61826700  0.93188300  0.13076900  1
  O  O6  1  0.93188300  0.61826700  0.63076900  1
  O  O7  1  0.06811700  0.38173300  0.36923100  1
  O  O8  1  0.58513300  0.37105000  0.97115400  1
  O  O9  1  0.41486700  0.62895000  0.02884600  1
  O  O10  1  0.62895000  0.41486700  0.52884600  1
  O  O11  1  0.37105000  0.58513300  0.47115400  1
  O  O12  1  0.78514900  0.95211700  0.68675700  1
  O  O13  1  0.21485100  0.04788300  0.31324300  1
  O  O14  1  0.04788300  0.21485100  0.81324300  1
  O  O15  1  0.95211700  0.78514900  0.18675700  1
loop_
_geom_bond_atom_site_label_1
_geom_bond_atom_site_label_2
_geom_bond_distance
_geom_bond_site_symmetry_2
Ce0 O14 2.347137 1_655
Ce0 O12 2.347137 1_545
Ce0 O8 2.389917 1_555
Ce0 O10 2.389917 1_555
Ce0 O5 2.407934 1_546
Ce0 O7 2.407934 1_655
Ce0 O4 2.866190 1_555
Ce0 O6 2.866190 1_555
Ce1 O13 2.347137 1_565
Ce1 O15 2.347137 1_455
Ce1 O11 2.389917 1_555
Ce1 O9 2.389917 1_555
Ce1 O6 2.407934 1_455
Ce1 O4 2.407934 1_564
Ce1 O7 2.866190 1_555
Ce1 O5 2.866190 1_555
O0 W0 1.909320 1_555
O0 W3 2.092911 1_555
O0 O10 2.712264 1_555
O0 O11 2.787146 1_555
O0 O9 2.793726 1_556
O0 Tl0 2.982919 1_555
O0 Tl1 3.061771 1_565
O1 W1 1.909320 1_555
O1 W2 2.092911 1_555
O1 O11 2.712264 1_555
O1 O10 2.787146 1_555
O1 O8 2.793726 1_554
O1 Tl1 2.982919 1_555
O1 Tl0 3.061771 1_545
O2 W2 1.909320 1_555
O2 W1 2.092911 1_556
O2 O8 2.712264 1_555
O2 O9 2.787146 1_556
O2 Tl0 2.982919 1_555
O2 Tl1 3.061771 1_456
O3 W3 1.909320 1_555
O3 W0 2.092911 1_554
O3 O9 2.712264 1_555
O3 O8 2.787146 1_554
O3 Tl1 2.982919 1_555
O3 Tl0 3.061771 1_654
O4 W2 1.871243 1_555
O4 Tl0 3.155679 1_545
O5 W3 1.871243 1_555
O5 Tl1 3.155679 1_565
O6 W0 1.871243 1_555
O6 O8 2.620439 1_555
O6 Tl0 3.155679 1_655
O7 W1 1.871243 1_555
O7 O9 2.620439 1_555
O7 Tl1 3.155679 1_455
O8 W1 2.015319 1_556
O8 W0 2.133228 1_555
O8 O9 2.480519 1_556
O8 Tl1 3.045578 1_556
O9 W0 2.015319 1_554
O9 W1 2.133228 1_555
O9 Tl0 3.045578 1_554
O10 W3 2.015319 1_555
O10 W2 2.133228 1_555
O10 O11 2.480519 1_555
O10 O4 2.620439 1_555
O10 O3 2.793726 1_555
O10 Tl1 3.045578 1_555
O11 W2 2.015319 1_555
O11 W3 2.133228 1_555
O11 O5 2.620439 1_555
O11 O2 2.793726 1_555
O11 Tl0 3.045578 1_555
O12 W0 1.850773 1_555
O12 Tl1 2.913822 1_565
O12 Tl0 3.614736 1_655
O13 W1 1.850773 1_555
O13 Tl0 2.913822 1_545
O13 Tl1 3.614736 1_455
O14 W2 1.850773 1_555
O14 Tl1 2.913822 1_456
O14 Tl0 3.614736 1_545
O15 W3 1.850773 1_555
O15 Tl0 2.913822 1_654
O15 Tl1 3.614736 1_565
