# generated using pymatgen
data_Li9Mn2Co5O16
_symmetry_space_group_name_H-M   'P 1'
_cell_length_a   3.00394800
_cell_length_b   5.00789767
_cell_length_c   19.39540666
_cell_angle_alpha   94.32445007
_cell_angle_beta   92.83618957
_cell_angle_gamma   91.80530136
_symmetry_Int_Tables_number   1
_chemical_formula_structural   Li9Mn2Co5O16
_chemical_formula_sum   'Li9 Mn2 Co5 O16'
_cell_volume   290.40514789
_cell_formula_units_Z   1
loop_
 _symmetry_equiv_pos_site_id
 _symmetry_equiv_pos_as_xyz
  1  'x, y, z'
loop_
 _atom_site_type_symbol
 _atom_site_label
 _atom_site_symmetry_multiplicity
 _atom_site_fract_x
 _atom_site_fract_y
 _atom_site_fract_z
 _atom_site_occupancy
  Li  Li0  1  0.06712500  0.69933500  0.13264800  1
  Li  Li1  1  0.67675800  0.56132900  0.37068400  1
  Li  Li2  1  0.31020200  0.43896200  0.62475200  1
  Li  Li3  1  0.93205700  0.31297000  0.87307900  1
  Li  Li4  1  0.57522200  0.18806300  0.13250900  1
  Li  Li5  1  0.19239800  0.05109600  0.37160400  1
  Li  Li6  1  0.81320800  0.93614300  0.62352200  1
  Li  Li7  1  0.43296000  0.81378000  0.87172500  1
  Li  Li8  1  0.62516000  0.87577300  0.25089800  1
  Mn  Mn0  1  0.00224100  0.00133200  0.00119900  1
  Mn  Mn1  1  0.50208200  0.50061500  0.00107500  1
  Co  Co0  1  0.24850600  0.74854800  0.49861400  1
  Co  Co1  1  0.87320400  0.62495300  0.74924100  1
  Co  Co2  1  0.12530500  0.37491300  0.25072900  1
  Co  Co3  1  0.74860200  0.24929000  0.49903600  1
  Co  Co4  1  0.37434900  0.12499900  0.74893800  1
  O  O0  1  0.57037900  0.83471600  0.06079100  1
  O  O1  1  0.15676500  0.67782100  0.30609900  1
  O  O2  1  0.76624400  0.58818900  0.55731900  1
  O  O3  1  0.43901900  0.46115400  0.80652900  1
  O  O4  1  0.06839800  0.33678000  0.05864000  1
  O  O5  1  0.63839700  0.23571400  0.30419600  1
  O  O6  1  0.27273800  0.08586000  0.55723500  1
  O  O7  1  0.89366900  0.95690300  0.80588000  1
  O  O8  1  0.61150300  0.51549100  0.19685200  1
  O  O9  1  0.22846000  0.40881300  0.44228300  1
  O  O10  1  0.85594300  0.29285200  0.69296700  1
  O  O11  1  0.43141500  0.16636000  0.94115200  1
  O  O12  1  0.09384100  0.07165700  0.19516600  1
  O  O13  1  0.73045300  0.91099900  0.44012800  1
  O  O14  1  0.30884500  0.78775600  0.69253300  1
  O  O15  1  0.93455000  0.66683300  0.94197700  1
loop_
_geom_bond_atom_site_label_1
_geom_bond_atom_site_label_2
_geom_bond_distance
_geom_bond_site_symmetry_2
Li0 O8 2.129255 1_455
Li0 O12 2.143193 1_565
Li0 O0 2.151541 1_455
Li0 O4 2.228210 1_555
Li0 O0 2.230212 1_555
Li0 O8 2.266871 1_555
Li1 O5 1.997896 1_555
Li1 O1 2.055370 1_655
Li1 O1 2.079279 1_555
Li1 O13 2.124040 1_555
Li1 O9 2.146055 1_555
Li1 O9 2.295730 1_655
Li2 O2 2.099038 1_555
Li2 O10 2.099923 1_455
Li2 O14 2.105711 1_555
Li2 O6 2.116140 1_555
Li2 O2 2.225293 1_455
Li2 O10 2.231672 1_555
Li3 O3 2.105904 1_555
Li3 O7 2.124457 1_545
Li3 O11 2.133539 1_655
Li3 O15 2.137098 1_555
Li3 O3 2.191742 1_655
Li3 O11 2.194790 1_555
Li4 O8 1.981075 1_555
Li4 O12 2.033557 1_555
Li4 O12 2.054373 1_655
Li4 O0 2.165984 1_545
Li4 O4 2.223010 1_555
Li4 O4 2.259108 1_655
Li5 O13 2.108553 1_445
Li5 O5 2.153285 1_555
Li5 O9 2.168603 1_555
Li5 O1 2.176179 1_545
Li5 O13 2.206918 1_545
Li5 O5 2.323262 1_455
Li6 O2 2.081868 1_555
Li6 O6 2.091982 1_665
Li6 O14 2.140795 1_655
Li6 O10 2.151123 1_565
Li6 O6 2.206010 1_565
Li6 O14 2.217882 1_555
Li7 O7 2.076160 1_555
Li7 O3 2.094111 1_555
Li7 O11 2.138568 1_565
Li7 O15 2.164794 1_555
Li7 O7 2.185304 1_455
Li7 O15 2.218876 1_455
Li8 O5 2.007430 1_565
Li8 O8 2.015364 1_555
Li8 O1 2.080867 1_555
Li8 O12 2.082403 1_665
Li8 O12 2.183107 1_565
Li8 O1 2.183975 1_655
Mn0 O4 1.943587 1_555
Mn0 O15 1.957561 1_444
Mn0 O11 1.981937 1_554
Mn0 O0 1.985120 1_445
Mn0 O0 2.232655 1_545
Mn0 O11 2.239755 1_454
Mn1 O4 1.957466 1_555
Mn1 O0 1.961014 1_555
Mn1 O11 1.964087 1_554
Mn1 O15 1.979279 1_554
Mn1 O4 2.202700 1_655
Mn1 O15 2.225562 1_454
Co0 O9 1.949011 1_555
Co0 O6 1.961100 1_565
Co0 O2 2.065882 1_455
Co0 O13 2.066897 1_555
Co0 O2 2.097977 1_555
Co0 O13 2.101103 1_455
Co1 O10 1.917075 1_555
Co1 O7 1.919770 1_555
Co1 O14 1.948701 1_655
Co1 O3 1.955006 1_555
Co1 O14 2.187760 1_555
Co1 O3 2.198814 1_655
Co2 O1 1.788455 1_555
Co2 O12 1.791852 1_555
Co2 O5 1.973716 1_455
Co2 O8 1.979359 1_555
Co2 O5 1.988841 1_555
Co2 O8 1.997388 1_455
Co3 O2 1.964721 1_555
Co3 O13 1.968389 1_545
Co3 O9 2.035868 1_655
Co3 O6 2.052486 1_555
Co3 O9 2.081405 1_555
Co3 O6 2.113678 1_655
Co4 O14 1.940871 1_545
Co4 O3 1.947744 1_555
Co4 O10 2.048020 1_555
Co4 O7 2.057853 1_445
Co4 O10 2.088767 1_455
Co4 O7 2.101059 1_545
