# generated using pymatgen
data_Na(CrS2)2
_symmetry_space_group_name_H-M   'P 1'
_cell_length_a   14.77411473
_cell_length_b   14.77411473
_cell_length_c   11.26408163
_cell_angle_alpha   72.40560559
_cell_angle_beta   72.40560559
_cell_angle_gamma   26.44711787
_symmetry_Int_Tables_number   1
_chemical_formula_structural   Na(CrS2)2
_chemical_formula_sum   'Na8 Cr16 S32'
_cell_volume   1040.89147797
_cell_formula_units_Z   8
loop_
 _symmetry_equiv_pos_site_id
 _symmetry_equiv_pos_as_xyz
  1  'x, y, z'
loop_
 _atom_site_type_symbol
 _atom_site_label
 _atom_site_symmetry_multiplicity
 _atom_site_fract_x
 _atom_site_fract_y
 _atom_site_fract_z
 _atom_site_occupancy
  Na  Na0_0  1  0.25000000  0.25000000  0.25000000  1
  Na  Na0_1  1  0.25000000  0.25000000  0.75000000  1
  Na  Na0_2  1  0.25000000  0.75000000  0.25000000  1
  Na  Na0_3  1  0.25000000  0.75000000  0.75000000  1
  Na  Na0_4  1  0.75000000  0.25000000  0.25000000  1
  Na  Na0_5  1  0.75000000  0.25000000  0.75000000  1
  Na  Na0_6  1  0.75000000  0.75000000  0.25000000  1
  Na  Na0_7  1  0.75000000  0.75000000  0.75000000  1
  Cr  Cr0_0  1  0.37655650  0.37655650  0.10173650  1
  Cr  Cr0_1  1  0.37655650  0.37655650  0.60173650  1
  Cr  Cr0_2  1  0.37655650  0.87655650  0.10173650  1
  Cr  Cr0_3  1  0.37655650  0.87655650  0.60173650  1
  Cr  Cr0_4  1  0.87655650  0.37655650  0.10173650  1
  Cr  Cr0_5  1  0.87655650  0.37655650  0.60173650  1
  Cr  Cr0_6  1  0.87655650  0.87655650  0.10173650  1
  Cr  Cr0_7  1  0.87655650  0.87655650  0.60173650  1
  Cr  Cr1_0  1  0.12344350  0.12344350  0.39826350  1
  Cr  Cr1_1  1  0.12344350  0.12344350  0.89826350  1
  Cr  Cr1_2  1  0.12344350  0.62344350  0.39826350  1
  Cr  Cr1_3  1  0.12344350  0.62344350  0.89826350  1
  Cr  Cr1_4  1  0.62344350  0.12344350  0.39826350  1
  Cr  Cr1_5  1  0.62344350  0.12344350  0.89826350  1
  Cr  Cr1_6  1  0.62344350  0.62344350  0.39826350  1
  Cr  Cr1_7  1  0.62344350  0.62344350  0.89826350  1
  S  S0_0  1  0.17961450  0.17961450  0.00029850  1
  S  S0_1  1  0.17961450  0.17961450  0.50029850  1
  S  S0_2  1  0.17961450  0.67961450  0.00029850  1
  S  S0_3  1  0.17961450  0.67961450  0.50029850  1
  S  S0_4  1  0.67961450  0.17961450  0.00029850  1
  S  S0_5  1  0.67961450  0.17961450  0.50029850  1
  S  S0_6  1  0.67961450  0.67961450  0.00029850  1
  S  S0_7  1  0.67961450  0.67961450  0.50029850  1
  S  S1_0  1  0.32038550  0.32038550  0.49970150  1
  S  S1_1  1  0.32038550  0.32038550  0.99970150  1
  S  S1_2  1  0.32038550  0.82038550  0.49970150  1
  S  S1_3  1  0.32038550  0.82038550  0.99970150  1
  S  S1_4  1  0.82038550  0.32038550  0.49970150  1
  S  S1_5  1  0.82038550  0.32038550  0.99970150  1
  S  S1_6  1  0.82038550  0.82038550  0.49970150  1
  S  S1_7  1  0.82038550  0.82038550  0.99970150  1
  S  S2_0  1  0.41844350  0.41844350  0.25791850  1
  S  S2_1  1  0.41844350  0.41844350  0.75791850  1
  S  S2_2  1  0.41844350  0.91844350  0.25791850  1
  S  S2_3  1  0.41844350  0.91844350  0.75791850  1
  S  S2_4  1  0.91844350  0.41844350  0.25791850  1
  S  S2_5  1  0.91844350  0.41844350  0.75791850  1
  S  S2_6  1  0.91844350  0.91844350  0.25791850  1
  S  S2_7  1  0.91844350  0.91844350  0.75791850  1
  S  S3_0  1  0.08155650  0.08155650  0.24208150  1
  S  S3_1  1  0.08155650  0.08155650  0.74208150  1
  S  S3_2  1  0.08155650  0.58155650  0.24208150  1
  S  S3_3  1  0.08155650  0.58155650  0.74208150  1
  S  S3_4  1  0.58155650  0.08155650  0.24208150  1
  S  S3_5  1  0.58155650  0.08155650  0.74208150  1
  S  S3_6  1  0.58155650  0.58155650  0.24208150  1
  S  S3_7  1  0.58155650  0.58155650  0.74208150  1
loop_
_geom_bond_atom_site_label_1
_geom_bond_atom_site_label_2
_geom_bond_distance
_geom_bond_site_symmetry_2
Na0_0 S3_4 2.870004 1_555
Na0_0 S3_2 2.870004 1_555
Na0_0 S2_4 2.870004 1_455
Na0_0 S2_2 2.870004 1_545
Na0_0 S1_1 2.916011 1_554
Na0_0 S0_1 2.916011 1_555
Na0_0 Na0_6 3.379596 1_455
Na0_0 Na0_6 3.379596 1_545
Na0_1 S3_3 2.870004 1_555
Na0_1 S3_5 2.870004 1_555
Na0_1 S2_3 2.870004 1_545
Na0_1 S2_5 2.870004 1_455
Na0_1 S1_0 2.916011 1_555
Na0_1 S0_0 2.916011 1_556
Na0_1 Na0_7 3.379596 1_545
Na0_1 Na0_7 3.379596 1_455
Na0_2 S3_6 2.870004 1_555
Na0_2 S3_0 2.870004 1_565
Na0_2 S2_6 2.870004 1_455
Na0_2 S2_0 2.870004 1_555
Na0_2 S1_3 2.916011 1_554
Na0_2 S0_3 2.916011 1_555
Na0_2 Na0_4 3.379596 1_465
Na0_2 Na0_4 3.379596 1_555
Na0_3 S3_7 2.870004 1_555
Na0_3 S3_1 2.870004 1_565
Na0_3 S2_7 2.870004 1_455
Na0_3 S2_1 2.870004 1_555
Na0_3 S1_2 2.916011 1_555
Na0_3 S0_2 2.916011 1_556
Na0_3 Na0_5 3.379596 1_465
Na0_3 Na0_5 3.379596 1_555
Na0_4 S3_6 2.870004 1_555
Na0_4 S3_0 2.870004 1_655
Na0_4 S2_0 2.870004 1_555
Na0_4 S2_6 2.870004 1_545
Na0_4 S1_5 2.916011 1_554
Na0_4 S0_5 2.916011 1_555
Na0_5 S3_7 2.870004 1_555
Na0_5 S3_1 2.870004 1_655
Na0_5 S2_7 2.870004 1_545
Na0_5 S2_1 2.870004 1_555
Na0_5 S1_4 2.916011 1_555
Na0_5 S0_4 2.916011 1_556
Na0_6 S3_2 2.870004 1_655
Na0_6 S3_4 2.870004 1_565
Na0_6 S2_2 2.870004 1_555
Na0_6 S2_4 2.870004 1_555
Na0_6 S1_7 2.916011 1_554
Na0_6 S0_7 2.916011 1_555
Na0_7 S3_3 2.870004 1_655
Na0_7 S3_5 2.870004 1_565
Na0_7 S2_3 2.870004 1_555
Na0_7 S2_5 2.870004 1_555
Na0_7 S1_6 2.916011 1_555
Na0_7 S0_6 2.916011 1_556
Cr0_0 S1_1 2.254959 1_554
Cr0_0 S0_4 2.325358 1_555
Cr0_0 S0_2 2.325358 1_555
Cr0_0 S3_2 2.399844 1_555
Cr0_0 S3_4 2.399844 1_555
Cr0_0 S2_0 2.421366 1_555
Cr0_1 S1_0 2.254959 1_555
Cr0_1 S0_3 2.325358 1_555
Cr0_1 S0_5 2.325358 1_555
Cr0_1 S3_3 2.399844 1_555
Cr0_1 S3_5 2.399844 1_555
Cr0_1 S2_1 2.421366 1_555
Cr0_2 S1_3 2.254959 1_554
Cr0_2 S0_0 2.325358 1_565
Cr0_2 S0_6 2.325358 1_555
Cr0_2 S3_6 2.399844 1_555
Cr0_2 S3_0 2.399844 1_565
Cr0_2 S2_2 2.421366 1_555
Cr0_3 S1_2 2.254959 1_555
Cr0_3 S0_7 2.325358 1_555
Cr0_3 S0_1 2.325358 1_565
Cr0_3 S3_1 2.399844 1_565
Cr0_3 S3_7 2.399844 1_555
Cr0_3 S2_3 2.421366 1_555
Cr0_4 S1_5 2.254959 1_554
Cr0_4 S0_6 2.325358 1_555
Cr0_4 S0_0 2.325358 1_655
Cr0_4 S3_0 2.399844 1_655
Cr0_4 S3_6 2.399844 1_555
Cr0_4 S2_4 2.421366 1_555
Cr0_5 S1_4 2.254959 1_555
Cr0_5 S0_7 2.325358 1_555
Cr0_5 S0_1 2.325358 1_655
Cr0_5 S3_1 2.399844 1_655
Cr0_5 S3_7 2.399844 1_555
Cr0_5 S2_5 2.421366 1_555
Cr0_6 S1_7 2.254959 1_554
Cr0_6 S0_2 2.325358 1_655
Cr0_6 S0_4 2.325358 1_565
Cr0_6 S3_4 2.399844 1_565
Cr0_6 S3_2 2.399844 1_655
Cr0_6 S2_6 2.421366 1_555
Cr0_7 S1_6 2.254959 1_555
Cr0_7 S0_5 2.325358 1_565
Cr0_7 S0_3 2.325358 1_655
Cr0_7 S3_3 2.399844 1_655
Cr0_7 S3_5 2.399844 1_565
Cr0_7 S2_7 2.421366 1_555
Cr1_0 S0_1 2.254959 1_555
Cr1_0 S1_2 2.325358 1_545
Cr1_0 S1_4 2.325358 1_455
Cr1_0 S2_4 2.399844 1_455
Cr1_0 S2_2 2.399844 1_545
Cr1_0 S3_0 2.421366 1_555
Cr1_1 S0_0 2.254959 1_556
Cr1_1 S1_3 2.325358 1_545
Cr1_1 S1_5 2.325358 1_455
Cr1_1 S2_3 2.399844 1_545
Cr1_1 S2_5 2.399844 1_455
Cr1_1 S3_1 2.421366 1_555
Cr1_2 S0_3 2.254959 1_555
Cr1_2 S1_6 2.325358 1_455
Cr1_2 S1_0 2.325358 1_555
Cr1_2 S2_6 2.399844 1_455
Cr1_2 S2_0 2.399844 1_555
Cr1_2 S3_2 2.421366 1_555
Cr1_3 S0_2 2.254959 1_556
Cr1_3 S1_7 2.325358 1_455
Cr1_3 S1_1 2.325358 1_555
Cr1_3 S2_1 2.399844 1_555
Cr1_3 S2_7 2.399844 1_455
Cr1_3 S3_3 2.421366 1_555
Cr1_4 S0_5 2.254959 1_555
Cr1_4 S1_6 2.325358 1_545
Cr1_4 S1_0 2.325358 1_555
Cr1_4 S2_6 2.399844 1_545
Cr1_4 S2_0 2.399844 1_555
Cr1_4 S3_4 2.421366 1_555
Cr1_5 S0_4 2.254959 1_556
Cr1_5 S1_1 2.325358 1_555
Cr1_5 S1_7 2.325358 1_545
Cr1_5 S2_1 2.399844 1_555
Cr1_5 S2_7 2.399844 1_545
Cr1_5 S3_5 2.421366 1_555
Cr1_6 S0_7 2.254959 1_555
Cr1_6 S1_2 2.325358 1_555
Cr1_6 S1_4 2.325358 1_555
Cr1_6 S2_4 2.399844 1_555
Cr1_6 S2_2 2.399844 1_555
Cr1_6 S3_6 2.421366 1_555
Cr1_7 S0_6 2.254959 1_556
Cr1_7 S1_5 2.325358 1_555
Cr1_7 S1_3 2.325358 1_555
Cr1_7 S2_3 2.399844 1_555
Cr1_7 S2_5 2.399844 1_555
Cr1_7 S3_7 2.421366 1_555
S0_0 S2_2 3.286388 1_545
S0_0 S2_4 3.286388 1_455
S0_1 S2_5 3.286388 1_455
S0_1 S2_3 3.286388 1_545
S0_2 S2_6 3.286388 1_455
S0_2 S2_0 3.286388 1_555
S0_3 S2_1 3.286388 1_555
S0_3 S2_7 3.286388 1_455
S0_4 S2_6 3.286388 1_545
S0_4 S2_0 3.286388 1_555
S0_5 S2_1 3.286388 1_555
S0_5 S2_7 3.286388 1_545
S0_6 S2_4 3.286388 1_555
S0_6 S2_2 3.286388 1_555
S0_7 S2_5 3.286388 1_555
S0_7 S2_3 3.286388 1_555
S1_0 S3_4 3.286388 1_555
S1_0 S3_2 3.286388 1_555
S1_1 S3_3 3.286388 1_555
S1_1 S3_5 3.286388 1_555
S1_2 S3_0 3.286388 1_565
S1_2 S3_6 3.286388 1_555
S1_3 S3_1 3.286388 1_565
S1_3 S3_7 3.286388 1_555
S1_4 S3_6 3.286388 1_555
S1_4 S3_0 3.286388 1_655
S1_5 S3_7 3.286388 1_555
S1_5 S3_1 3.286388 1_655
S1_6 S3_4 3.286388 1_565
S1_6 S3_2 3.286388 1_655
S1_7 S3_3 3.286388 1_655
S1_7 S3_5 3.286388 1_565
