# generated using pymatgen
data_SmSi2Ni
_symmetry_space_group_name_H-M   'P 1'
_cell_length_a   4.01015959
_cell_length_b   4.08828699
_cell_length_c   8.42464426
_cell_angle_alpha   104.04232972
_cell_angle_beta   90.00000000
_cell_angle_gamma   90.00000000
_symmetry_Int_Tables_number   1
_chemical_formula_structural   SmSi2Ni
_chemical_formula_sum   'Sm2 Si4 Ni2'
_cell_volume   133.99191606
_cell_formula_units_Z   2
loop_
 _symmetry_equiv_pos_site_id
 _symmetry_equiv_pos_as_xyz
  1  'x, y, z'
loop_
 _atom_site_type_symbol
 _atom_site_label
 _atom_site_symmetry_multiplicity
 _atom_site_fract_x
 _atom_site_fract_y
 _atom_site_fract_z
 _atom_site_occupancy
  Sm  Sm0  1  0.25000000  0.39359513  0.78719127  1
  Sm  Sm1  1  0.75000000  0.60640487  0.21280873  1
  Si  Si0  1  0.25000000  0.04079693  0.08159486  1
  Si  Si1  1  0.75000000  0.95920307  0.91840514  1
  Si  Si2  1  0.25000000  0.74980377  0.49960653  1
  Si  Si3  1  0.75000000  0.25019623  0.50039347  1
  Ni  Ni0  1  0.25000000  0.18032442  0.36064985  1
  Ni  Ni1  1  0.75000000  0.81967558  0.63935015  1
loop_
_geom_bond_atom_site_label_1
_geom_bond_atom_site_label_2
_geom_bond_distance
_geom_bond_site_symmetry_2
Si0 Si1 2.408150 1_444
Si0 Si1 2.408150 1_544
Si0 Sm1 3.057595 1_545
Si0 Sm1 3.057595 1_445
Si0 Sm1 3.057600 1_555
Si0 Sm1 3.057600 1_455
Si0 Sm0 3.157210 1_544
Si0 Sm0 3.157210 1_554
Si1 Sm0 3.057595 1_565
Si1 Sm0 3.057595 1_665
Si1 Sm0 3.057600 1_655
Si1 Sm0 3.057600 1_555
Si1 Sm1 3.157210 1_566
Si1 Sm1 3.157210 1_556
Si2 Sm1 3.084562 1_555
Si2 Sm1 3.084562 1_455
Si2 Sm0 3.114944 1_565
Si2 Sm0 3.114950 1_555
Si3 Sm0 3.084562 1_555
Si3 Sm0 3.084562 1_655
Si3 Sm1 3.114944 1_545
Si3 Sm1 3.114950 1_555
Ni0 Si0 2.280685 1_555
Ni0 Si3 2.307544 1_455
Ni0 Si3 2.307544 1_555
Ni0 Si2 2.338433 1_545
Ni0 Si2 2.338440 1_555
Ni0 Sm1 3.107863 1_445
Ni0 Sm1 3.107863 1_545
Ni0 Sm1 3.107869 1_555
Ni0 Sm1 3.107869 1_455
Ni1 Si1 2.280685 1_555
Ni1 Si2 2.307544 1_555
Ni1 Si2 2.307544 1_655
Ni1 Si3 2.338433 1_565
Ni1 Si3 2.338440 1_555
Ni1 Sm0 3.107863 1_565
Ni1 Sm0 3.107863 1_665
Ni1 Sm0 3.107869 1_555
Ni1 Sm0 3.107869 1_655
