# generated using pymatgen
data_Li4MnNi5(PO4)6
_symmetry_space_group_name_H-M   'P 1'
_cell_length_a   8.33573000
_cell_length_b   8.40325983
_cell_length_c   8.40529104
_cell_angle_alpha   63.19001364
_cell_angle_beta   63.51304308
_cell_angle_gamma   63.42619754
_symmetry_Int_Tables_number   1
_chemical_formula_structural   Li4MnNi5(PO4)6
_chemical_formula_sum   'Li4 Mn1 Ni5 P6 O24'
_cell_volume   447.42975389
_cell_formula_units_Z   1
loop_
 _symmetry_equiv_pos_site_id
 _symmetry_equiv_pos_as_xyz
  1  'x, y, z'
loop_
 _atom_site_type_symbol
 _atom_site_label
 _atom_site_symmetry_multiplicity
 _atom_site_fract_x
 _atom_site_fract_y
 _atom_site_fract_z
 _atom_site_occupancy
  Li  Li0  1  0.24970300  0.64628700  0.85247700  1
  Li  Li1  1  0.72873700  0.35523800  0.14736500  1
  Li  Li2  1  0.35898900  0.14453900  0.72846800  1
  Li  Li3  1  0.14411100  0.72729600  0.35742700  1
  Mn  Mn0  1  0.14588400  0.14644300  0.14916300  1
  Ni  Ni0  1  0.98859200  0.99972000  0.99732800  1
  Ni  Ni1  1  0.64380200  0.64507900  0.64097300  1
  Ni  Ni2  1  0.50771800  0.49924900  0.49729600  1
  Ni  Ni3  1  0.85650400  0.85629100  0.85470800  1
  Ni  Ni4  1  0.35482800  0.35113300  0.35390700  1
  P  P0  1  0.94761400  0.55171600  0.25539400  1
  P  P1  1  0.55407000  0.25160900  0.94927100  1
  P  P2  1  0.25282300  0.94970300  0.55213500  1
  P  P3  1  0.75408200  0.04739000  0.45346700  1
  P  P4  1  0.44647300  0.75264700  0.04698500  1
  P  P5  1  0.05413300  0.45337300  0.75495100  1
  O  O0  1  0.52258500  0.32197100  0.10323800  1
  O  O1  1  0.32468100  0.10174900  0.52130500  1
  O  O2  1  0.10114100  0.51656200  0.33025700  1
  O  O3  1  0.94977900  0.73787500  0.08930500  1
  O  O4  1  0.98777900  0.38500800  0.18946900  1
  O  O5  1  0.75001400  0.56625100  0.40088700  1
  O  O6  1  0.74659600  0.09761700  0.93020100  1
  O  O7  1  0.54706800  0.41128800  0.75927900  1
  O  O8  1  0.82833600  0.01047400  0.60354400  1
  O  O9  1  0.39745900  0.74865900  0.56861300  1
  O  O10  1  0.91025000  0.06940600  0.24790000  1
  O  O11  1  0.60763500  0.81789000  0.99658900  1
  O  O12  1  0.38693300  0.18265200  0.99286000  1
  O  O13  1  0.10194100  0.92780800  0.74967900  1
  O  O14  1  0.60380500  0.24908900  0.42621100  1
  O  O15  1  0.18587800  0.98856300  0.38755300  1
  O  O16  1  0.42525000  0.60249800  0.24803400  1
  O  O17  1  0.24323400  0.91269800  0.07293000  1
  O  O18  1  0.25330800  0.42099400  0.60258700  1
  O  O19  1  0.03881900  0.60121000  0.82214200  1
  O  O20  1  0.06816200  0.24969700  0.91360300  1
  O  O21  1  0.88774900  0.49432000  0.69921400  1
  O  O22  1  0.68991100  0.89240800  0.48000300  1
  O  O23  1  0.45362700  0.69259700  0.89628500  1
loop_
_geom_bond_atom_site_label_1
_geom_bond_atom_site_label_2
_geom_bond_distance
_geom_bond_site_symmetry_2
Li0 O13 2.087722 1_555
Li0 O19 2.093153 1_555
Li0 O9 2.103568 1_555
Li0 O23 2.110914 1_555
Li0 O7 2.437511 1_555
Li0 O3 2.454914 1_456
Li1 O14 2.035072 1_555
Li1 O0 2.064114 1_555
Li1 O10 2.197866 1_555
Li1 O4 2.468849 1_555
Li1 O16 2.531146 1_555
Li1 O20 2.649620 1_654
Li2 O18 2.018797 1_555
Li2 O1 2.084244 1_555
Li2 O20 2.244590 1_555
Li2 O12 2.503184 1_555
Li2 O14 2.521296 1_555
Li2 O17 2.685343 1_546
Li3 O16 2.046006 1_555
Li3 O2 2.078857 1_555
Li3 O17 2.203829 1_555
Li3 O15 2.503907 1_555
Li3 O18 2.547997 1_555
Li3 O10 2.666773 1_465
Mn0 O12 1.920336 1_554
Mn0 O15 1.920510 1_545
Mn0 O4 1.929025 1_455
Mn0 O10 2.040788 1_455
Mn0 O17 2.042714 1_545
Mn0 O20 2.045567 1_554
Ni0 O6 2.043538 1_565
Ni0 O3 2.103148 1_556
Ni0 O13 2.111949 1_655
Ni0 O10 2.179159 1_566
Ni0 O17 2.199843 1_656
Ni0 O20 2.201023 1_665
Ni1 O21 2.000809 1_555
Ni1 O22 2.003039 1_555
Ni1 O9 2.093209 1_555
Ni1 O5 2.093416 1_555
Ni1 O7 2.106787 1_555
Ni1 O23 2.109463 1_555
Ni2 O5 2.049117 1_555
Ni2 O7 2.112354 1_555
Ni2 O9 2.124876 1_555
Ni2 O14 2.148790 1_555
Ni2 O16 2.173973 1_555
Ni2 O18 2.182118 1_555
Ni3 O11 1.968487 1_555
Ni3 O8 1.973116 1_565
Ni3 O19 2.054951 1_655
Ni3 O6 2.081930 1_565
Ni3 O13 2.082462 1_655
Ni3 O3 2.094819 1_556
Ni4 O1 1.982552 1_555
Ni4 O2 1.984784 1_555
Ni4 O0 1.996452 1_555
Ni4 O14 2.115339 1_555
Ni4 O18 2.124727 1_555
Ni4 O16 2.132148 1_555
O0 P1 1.530268 1_554
O1 P2 1.518558 1_545
O2 P0 1.527541 1_455
O3 P0 1.558582 1_555
O4 P0 1.580112 1_555
O5 P0 1.543212 1_555
O6 P1 1.541217 1_555
O7 P1 1.560200 1_555
O8 P3 1.497412 1_555
O9 P2 1.562827 1_555
O10 P3 1.623301 1_555
O11 P4 1.492190 1_556
O12 P1 1.576873 1_555
O13 P2 1.562488 1_555
O14 P3 1.581311 1_555
O15 P2 1.565174 1_555
O16 P4 1.577542 1_555
O17 P4 1.619566 1_555
O18 P5 1.576133 1_555
O19 P5 1.518320 1_555
O20 P5 1.619412 1_555
O21 P5 1.506202 1_655
O22 P3 1.512230 1_565
O23 P4 1.531323 1_556
