# generated using pymatgen
data_Ce2Au
_symmetry_space_group_name_H-M   'P 1'
_cell_length_a   5.00225200
_cell_length_b   7.28195000
_cell_length_c   9.23565700
_cell_angle_alpha   90.00000000
_cell_angle_beta   90.00000000
_cell_angle_gamma   90.00000000
_symmetry_Int_Tables_number   1
_chemical_formula_structural   Ce2Au
_chemical_formula_sum   'Ce8 Au4'
_cell_volume   336.41941755
_cell_formula_units_Z   4
loop_
 _symmetry_equiv_pos_site_id
 _symmetry_equiv_pos_as_xyz
  1  'x, y, z'
loop_
 _atom_site_type_symbol
 _atom_site_label
 _atom_site_symmetry_multiplicity
 _atom_site_fract_x
 _atom_site_fract_y
 _atom_site_fract_z
 _atom_site_occupancy
  Ce  Ce0  1  0.75000000  0.65930600  0.57068700  1
  Ce  Ce1  1  0.75000000  0.15930600  0.92931300  1
  Ce  Ce2  1  0.25000000  0.34069400  0.42931300  1
  Ce  Ce3  1  0.25000000  0.84069400  0.07068700  1
  Ce  Ce4  1  0.75000000  0.01325300  0.31784700  1
  Ce  Ce5  1  0.75000000  0.51325300  0.18215300  1
  Ce  Ce6  1  0.25000000  0.98674700  0.68215300  1
  Ce  Ce7  1  0.25000000  0.48674700  0.81784700  1
  Au  Au0  1  0.75000000  0.24497200  0.61036400  1
  Au  Au1  1  0.75000000  0.74497200  0.88963600  1
  Au  Au2  1  0.25000000  0.75502800  0.38963600  1
  Au  Au3  1  0.25000000  0.25502800  0.11036400  1
loop_
_geom_bond_atom_site_label_1
_geom_bond_atom_site_label_2
_geom_bond_distance
_geom_bond_site_symmetry_2
Ce0 Ce4 3.477932 1_565
Ce0 Ce6 3.605666 1_555
Ce0 Ce6 3.605666 1_655
Ce0 Ce7 3.611820 1_555
Ce0 Ce7 3.611820 1_655
Ce0 Ce2 3.652859 1_555
Ce0 Ce2 3.652859 1_655
Ce0 Ce5 3.742662 1_555
Ce1 Ce5 3.477932 1_556
Ce1 Ce7 3.605666 1_555
Ce1 Ce7 3.605666 1_655
Ce1 Ce6 3.611820 1_645
Ce1 Ce6 3.611820 1_545
Ce1 Ce3 3.652859 1_646
Ce1 Ce3 3.652859 1_546
Ce1 Ce4 3.742662 1_556
Ce2 Ce6 3.477932 1_545
Ce2 Ce4 3.605666 1_455
Ce2 Ce4 3.605666 1_555
Ce2 Ce5 3.611820 1_455
Ce2 Ce5 3.611820 1_555
Ce2 Ce7 3.742662 1_555
Ce3 Ce7 3.477932 1_554
Ce3 Ce5 3.605666 1_455
Ce3 Ce5 3.605666 1_555
Ce3 Ce4 3.611820 1_465
Ce3 Ce4 3.611820 1_565
Ce3 Ce6 3.742662 1_554
Ce4 Ce5 3.850619 1_555
Ce4 Ce5 3.850619 1_545
Ce6 Ce7 3.850619 1_555
Ce6 Ce7 3.850619 1_565
Au0 Ce1 3.011032 1_555
Au0 Ce0 3.039331 1_555
Au0 Ce2 3.088285 1_555
Au0 Ce2 3.088285 1_655
Au0 Ce4 3.185243 1_555
Au0 Ce6 3.198603 1_545
Au0 Ce6 3.198603 1_645
Au0 Ce7 3.609336 1_655
Au0 Ce7 3.609336 1_555
Au1 Ce0 3.011032 1_555
Au1 Ce1 3.039331 1_565
Au1 Ce3 3.088285 1_656
Au1 Ce3 3.088285 1_556
Au1 Ce5 3.185243 1_556
Au1 Ce7 3.198603 1_655
Au1 Ce7 3.198603 1_555
Au1 Ce6 3.609336 1_655
Au1 Ce6 3.609336 1_555
Au2 Ce3 3.011032 1_555
Au2 Ce2 3.039331 1_555
Au2 Ce0 3.088285 1_555
Au2 Ce0 3.088285 1_455
Au2 Ce6 3.185243 1_555
Au2 Ce4 3.198603 1_565
Au2 Ce4 3.198603 1_465
Au2 Ce5 3.609336 1_455
Au2 Ce5 3.609336 1_555
Au3 Ce2 3.011032 1_555
Au3 Ce3 3.039331 1_545
Au3 Ce1 3.088285 1_454
Au3 Ce1 3.088285 1_554
Au3 Ce7 3.185243 1_554
Au3 Ce5 3.198603 1_555
Au3 Ce5 3.198603 1_455
Au3 Ce4 3.609336 1_555
Au3 Ce4 3.609336 1_455
