# generated using pymatgen
data_SiO2
_symmetry_space_group_name_H-M   'P 1'
_cell_length_a   13.23330494
_cell_length_b   13.23328045
_cell_length_c   15.80633425
_cell_angle_alpha   89.99867028
_cell_angle_beta   90.00017959
_cell_angle_gamma   119.99997407
_symmetry_Int_Tables_number   1
_chemical_formula_structural   SiO2
_chemical_formula_sum   'Si34 O68'
_cell_volume   2397.16398036
_cell_formula_units_Z   34
loop_
 _symmetry_equiv_pos_site_id
 _symmetry_equiv_pos_as_xyz
  1  'x, y, z'
loop_
 _atom_site_type_symbol
 _atom_site_label
 _atom_site_symmetry_multiplicity
 _atom_site_fract_x
 _atom_site_fract_y
 _atom_site_fract_z
 _atom_site_occupancy
  Si  Si0  1  0.67254679  0.15839452  0.46350759  1
  Si  Si1  1  0.84951634  0.53248871  0.46350574  1
  Si  Si2  1  0.47541216  0.33533270  0.46350664  1
  Si  Si3  1  0.32576449  0.85909051  0.96350233  1
  Si  Si4  1  0.14882270  0.48500910  0.96350175  1
  Si  Si5  1  0.52290318  0.68212096  0.96350704  1
  Si  Si6  1  0.32575973  0.85909350  0.52210154  1
  Si  Si7  1  0.14881261  0.48499508  0.52210159  1
  Si  Si8  1  0.52291075  0.68212839  0.52209243  1
  Si  Si9  1  0.67255822  0.15838169  0.02210217  1
  Si  Si10  1  0.84951757  0.53248707  0.02209867  1
  Si  Si11  1  0.47541038  0.33533968  0.02209575  1
  Si  Si12  1  0.44966030  0.12538102  0.56097950  1
  Si  Si13  1  0.88252626  0.34261089  0.56096995  1
  Si  Si14  1  0.66529269  0.55821995  0.56096915  1
  Si  Si15  1  0.54864919  0.89209203  0.06097057  1
  Si  Si16  1  0.11581037  0.67487509  0.06097336  1
  Si  Si17  1  0.33302162  0.45923701  0.06097402  1
  Si  Si18  1  0.54864597  0.89210696  0.42462961  1
  Si  Si19  1  0.11579704  0.67488017  0.42464077  1
  Si  Si20  1  0.33303152  0.45924185  0.42463223  1
  Si  Si21  1  0.44966854  0.12537602  0.92464205  1
  Si  Si22  1  0.88254038  0.34261676  0.92463367  1
  Si  Si23  1  0.66531126  0.55824681  0.92462680  1
  Si  Si24  1  0.52691783  0.22151732  0.74281513  1
  Si  Si25  1  0.78639382  0.32371563  0.74280782  1
  Si  Si26  1  0.68419460  0.48098087  0.74280022  1
  Si  Si27  1  0.47139791  0.79596186  0.24280396  1
  Si  Si28  1  0.21193846  0.69376661  0.24281022  1
  Si  Si29  1  0.31412963  0.53649006  0.24280819  1
  Si  Si30  1  0.66583459  0.34209287  0.34491891  1
  Si  Si31  1  0.33250692  0.67542062  0.84490919  1
  Si  Si32  1  0.33249303  0.67540433  0.64066642  1
  Si  Si33  1  0.66582508  0.34206352  0.14067288  1
  O  O0  1  0.80336533  0.22738353  0.50342346  1
  O  O1  1  0.78053082  0.59431271  0.50342463  1
  O  O2  1  0.41357863  0.20452311  0.50342354  1
  O  O3  1  0.19495204  0.79010437  0.00342292  1
  O  O4  1  0.21780104  0.42316813  0.00342289  1
  O  O5  1  0.58472495  0.81293896  0.00342476  1
  O  O6  1  0.19495197  0.79012296  0.48217266  1
  O  O7  1  0.21780659  0.42317913  0.48217305  1
  O  O8  1  0.58472434  0.81294706  0.48217646  1
  O  O9  1  0.80337001  0.22738890  0.98217641  1
  O  O10  1  0.78054459  0.59432354  0.98217158  1
  O  O11  1  0.41358594  0.20453278  0.98217351  1
  O  O12  1  0.66431606  0.22471831  0.37890295  1
  O  O13  1  0.78319502  0.45792951  0.37890936  1
  O  O14  1  0.54997621  0.34358869  0.37890560  1
  O  O15  1  0.33400570  0.79277512  0.87889940  1
  O  O16  1  0.21514072  0.55956315  0.87889804  1
  O  O17  1  0.44834456  0.67389056  0.87890696  1
  O  O18  1  0.33398432  0.79275939  0.60669382  1
  O  O19  1  0.21513364  0.55953886  0.60670279  1
  O  O20  1  0.44834901  0.67389395  0.60668917  1
  O  O21  1  0.66432634  0.22470182  0.10670161  1
  O  O22  1  0.78318262  0.45792285  0.10669143  1
  O  O23  1  0.54996118  0.34355258  0.10669539  1
  O  O24  1  0.64464298  0.02821312  0.43921455  1
  O  O25  1  0.97968770  0.63476358  0.43920617  1
  O  O26  1  0.37314920  0.36324893  0.43921533  1
  O  O27  1  0.35367065  0.98926842  0.93921219  1
  O  O28  1  0.01864600  0.38273416  0.93921496  1
  O  O29  1  0.62518882  0.65423688  0.93920593  1
  O  O30  1  0.35367557  0.98927162  0.54639051  1
  O  O31  1  0.01863254  0.38272549  0.54638604  1
  O  O32  1  0.62518124  0.65421814  0.54638151  1
  O  O33  1  0.64464941  0.02820232  0.04638455  1
  O  O34  1  0.97969830  0.63475871  0.04638510  1
  O  O35  1  0.37315035  0.36325728  0.04638856  1
  O  O36  1  0.58036113  0.15308753  0.53455661  1
  O  O37  1  0.85482201  0.44560132  0.53454933  1
  O  O38  1  0.56230344  0.42751532  0.53455184  1
  O  O39  1  0.41794753  0.86438288  0.03454619  1
  O  O40  1  0.14351752  0.57188415  0.03455105  1
  O  O41  1  0.43601586  0.58993452  0.03455213  1
  O  O42  1  0.41794847  0.86438483  0.45106791  1
  O  O43  1  0.14350918  0.57189336  0.45107136  1
  O  O44  1  0.43601159  0.58993220  0.45106434  1
  O  O45  1  0.58036348  0.15308596  0.95107398  1
  O  O46  1  0.85482021  0.44559399  0.95106565  1
  O  O47  1  0.56231946  0.42754239  0.95106501  1
  O  O48  1  0.44927294  0.15478531  0.66045215  1
  O  O49  1  0.85312425  0.31281431  0.66044093  1
  O  O50  1  0.69509958  0.55862260  0.66043880  1
  O  O51  1  0.54903988  0.86269448  0.16043914  1
  O  O52  1  0.14520727  0.70467051  0.16044687  1
  O  O53  1  0.30322297  0.45884522  0.16044521  1
  O  O54  1  0.54903736  0.86268643  0.32516801  1
  O  O55  1  0.14520781  0.70467185  0.32517002  1
  O  O56  1  0.30321533  0.45883839  0.32516728  1
  O  O57  1  0.44927532  0.15478457  0.82517241  1
  O  O58  1  0.85312335  0.31280198  0.82516690  1
  O  O59  1  0.69510270  0.55861570  0.82516289  1
  O  O60  1  0.55897579  0.35830163  0.74281263  1
  O  O61  1  0.64960708  0.21899672  0.74280632  1
  O  O62  1  0.78892381  0.44892777  0.74281095  1
  O  O63  1  0.43934162  0.65917695  0.24280742  1
  O  O64  1  0.34872160  0.79849875  0.24281450  1
  O  O65  1  0.20941260  0.56855750  0.24280732  1
  O  O66  1  0.66584810  0.34211389  0.24279731  1
  O  O67  1  0.33251443  0.67542825  0.74279189  1
loop_
_geom_bond_atom_site_label_1
_geom_bond_atom_site_label_2
_geom_bond_distance
_geom_bond_site_symmetry_2
O0 Si0 1.627274 1_555
O0 Si13 1.628674 1_555
O1 Si1 1.627198 1_555
O1 Si14 1.628689 1_555
O2 Si2 1.627159 1_555
O2 Si12 1.628652 1_555
O3 Si3 1.627226 1_554
O3 Si16 1.628644 1_555
O4 Si4 1.627294 1_554
O4 Si17 1.628626 1_555
O5 Si5 1.627288 1_554
O5 Si15 1.628658 1_555
O6 Si6 1.627235 1_555
O6 Si19 1.628657 1_555
O7 Si7 1.627265 1_555
O7 Si20 1.628588 1_555
O8 Si8 1.627259 1_555
O8 Si18 1.628731 1_555
O9 Si9 1.627259 1_556
O9 Si22 1.628631 1_555
O10 Si10 1.627226 1_556
O10 Si23 1.628685 1_555
O11 Si11 1.627196 1_556
O11 Si21 1.628626 1_555
O12 Si0 1.632811 1_555
O12 Si30 1.634100 1_555
O13 Si1 1.632751 1_555
O13 Si30 1.633949 1_555
O14 Si2 1.632776 1_555
O14 Si30 1.634015 1_555
O15 Si3 1.632806 1_555
O15 Si31 1.634026 1_555
O16 Si4 1.632780 1_555
O16 Si31 1.634084 1_555
O17 Si5 1.632802 1_555
O17 Si31 1.634028 1_555
O18 Si6 1.632702 1_555
O18 Si32 1.633964 1_555
O19 Si7 1.632744 1_555
O19 Si32 1.633979 1_555
O20 Si8 1.632770 1_555
O20 Si32 1.634029 1_555
O21 Si9 1.632755 1_555
O21 Si33 1.634018 1_555
O22 Si10 1.632736 1_555
O22 Si33 1.634002 1_555
O23 Si11 1.632791 1_555
O23 Si33 1.633990 1_555
O24 Si0 1.617245 1_555
O24 Si18 1.619557 1_545
O25 Si1 1.617160 1_555
O25 Si19 1.619527 1_655
O26 Si2 1.617151 1_555
O26 Si20 1.619573 1_555
O27 Si3 1.617162 1_555
O27 Si21 1.619530 1_565
O28 Si4 1.617170 1_555
O28 Si22 1.619515 1_455
O29 Si5 1.617204 1_555
O29 Si23 1.619582 1_555
O30 Si6 1.617140 1_555
O30 Si12 1.619560 1_565
O31 Si7 1.617156 1_555
O31 Si13 1.619536 1_455
O32 Si8 1.617186 1_555
O32 Si14 1.619590 1_555
O33 Si9 1.617141 1_555
O33 Si15 1.619598 1_545
O34 Si10 1.617190 1_555
O34 Si16 1.619615 1_655
O35 Si11 1.617137 1_555
O35 Si17 1.619527 1_555
O36 Si12 1.632860 1_555
O36 Si0 1.633602 1_555
O37 Si13 1.632773 1_555
O37 Si1 1.633598 1_555
O38 Si14 1.632858 1_555
O38 Si2 1.633614 1_555
O39 Si15 1.632868 1_555
O39 Si3 1.633581 1_554
O40 Si16 1.632828 1_555
O40 Si4 1.633576 1_554
O41 Si17 1.632818 1_555
O41 Si5 1.633582 1_554
O42 Si18 1.632818 1_555
O42 Si6 1.633533 1_555
O43 Si19 1.632835 1_555
O43 Si7 1.633546 1_555
O44 Si20 1.632759 1_555
O44 Si8 1.633534 1_555
O45 Si21 1.632811 1_555
O45 Si9 1.633509 1_556
O46 Si22 1.632805 1_555
O46 Si10 1.633559 1_556
O47 Si23 1.632933 1_555
O47 Si11 1.633606 1_556
O48 Si24 1.619599 1_555
O48 Si12 1.620364 1_555
O49 Si25 1.619572 1_555
O49 Si13 1.620327 1_555
O50 Si26 1.619544 1_555
O50 Si14 1.620334 1_555
O51 Si27 1.619582 1_555
O51 Si15 1.620268 1_555
O52 Si28 1.619535 1_555
O52 Si16 1.620371 1_555
O53 Si29 1.619621 1_555
O53 Si17 1.620350 1_555
O54 Si27 1.619564 1_555
O54 Si18 1.620253 1_555
O55 Si28 1.619502 1_555
O55 Si19 1.620329 1_555
O56 Si29 1.619564 1_555
O56 Si20 1.620290 1_555
O57 Si24 1.619489 1_555
O57 Si21 1.620324 1_555
O58 Si25 1.619515 1_555
O58 Si22 1.620331 1_555
O59 Si26 1.619534 1_555
O59 Si23 1.620251 1_555
O60 Si24 1.639679 1_555
O60 Si26 1.640513 1_555
O61 Si25 1.639675 1_555
O61 Si24 1.640517 1_555
O62 Si26 1.639675 1_555
O62 Si25 1.640484 1_555
O63 Si27 1.639694 1_555
O63 Si29 1.640515 1_555
O64 Si28 1.639694 1_555
O64 Si27 1.640456 1_555
O65 Si29 1.639647 1_555
O65 Si28 1.640470 1_555
O66 Si30 1.614168 1_555
O66 Si33 1.614213 1_555
O67 Si31 1.614100 1_555
O67 Si32 1.614229 1_555
