# generated using pymatgen
data_La7SmMn6(FeO12)2
_symmetry_space_group_name_H-M   'P 1'
_cell_length_a   7.87718157
_cell_length_b   7.87718157
_cell_length_c   7.90359400
_cell_angle_alpha   90.00000000
_cell_angle_beta   90.00000000
_cell_angle_gamma   90.00568842
_symmetry_Int_Tables_number   1
_chemical_formula_structural   La7SmMn6(FeO12)2
_chemical_formula_sum   'La7 Sm1 Mn6 Fe2 O24'
_cell_volume   490.41792256
_cell_formula_units_Z   1
loop_
 _symmetry_equiv_pos_site_id
 _symmetry_equiv_pos_as_xyz
  1  'x, y, z'
loop_
 _atom_site_type_symbol
 _atom_site_label
 _atom_site_symmetry_multiplicity
 _atom_site_fract_x
 _atom_site_fract_y
 _atom_site_fract_z
 _atom_site_occupancy
  La  La0  1  0.25143200  0.25143200  0.00000000  1
  La  La1  1  0.74858400  0.25145500  0.00000000  1
  La  La2  1  0.25145500  0.74858400  0.00000000  1
  La  La3  1  0.74855800  0.74855800  0.00000000  1
  La  La4  1  0.74853600  0.25144300  0.50000000  1
  La  La5  1  0.25144300  0.74853600  0.50000000  1
  La  La6  1  0.74857100  0.74857100  0.50000000  1
  Sm  Sm0  1  0.25151700  0.25151700  0.50000000  1
  Mn  Mn0  1  0.49978000  0.00023600  0.74976400  1
  Mn  Mn1  1  0.00023600  0.49978000  0.74976400  1
  Mn  Mn2  1  0.49976100  0.49976100  0.74976700  1
  Mn  Mn3  1  0.49978000  0.00023600  0.25023600  1
  Mn  Mn4  1  0.00023600  0.49978000  0.25023600  1
  Mn  Mn5  1  0.49976100  0.49976100  0.25023300  1
  Fe  Fe0  1  0.00027400  0.00027400  0.74973400  1
  Fe  Fe1  1  0.00027400  0.00027400  0.25026600  1
  O  O0  1  0.00004200  0.00004200  0.00000000  1
  O  O1  1  0.49995200  0.00005200  0.00000000  1
  O  O2  1  0.00005200  0.49995200  0.00000000  1
  O  O3  1  0.49995200  0.49995200  0.00000000  1
  O  O4  1  0.00101300  0.00101300  0.50000000  1
  O  O5  1  0.49888100  0.00111700  0.50000000  1
  O  O6  1  0.00111700  0.49888100  0.50000000  1
  O  O7  1  0.49883600  0.49883600  0.50000000  1
  O  O8  1  0.00106900  0.25006300  0.74892800  1
  O  O9  1  0.49886800  0.24954100  0.74887200  1
  O  O10  1  0.00005200  0.74998200  0.74995800  1
  O  O11  1  0.49995500  0.75045100  0.74995000  1
  O  O12  1  0.00106900  0.25006300  0.25107200  1
  O  O13  1  0.49886800  0.24954100  0.25112800  1
  O  O14  1  0.00005200  0.74998200  0.25004200  1
  O  O15  1  0.49995500  0.75045100  0.25005000  1
  O  O16  1  0.25006300  0.00106900  0.74892800  1
  O  O17  1  0.74998200  0.00005200  0.74995800  1
  O  O18  1  0.24954100  0.49886800  0.74887200  1
  O  O19  1  0.75045100  0.49995500  0.74995000  1
  O  O20  1  0.25006300  0.00106900  0.25107200  1
  O  O21  1  0.74998200  0.00005200  0.25004200  1
  O  O22  1  0.24954100  0.49886800  0.25112800  1
  O  O23  1  0.75045100  0.49995500  0.25005000  1
loop_
_geom_bond_atom_site_label_1
_geom_bond_atom_site_label_2
_geom_bond_distance
_geom_bond_site_symmetry_2
La0 O3 2.768380 1_555
La0 O22 2.781851 1_555
La0 O13 2.781851 1_555
La0 O18 2.781851 1_554
La0 O9 2.781851 1_554
La0 O2 2.784631 1_555
La0 O1 2.784631 1_555
La0 O20 2.797720 1_555
La0 O12 2.797720 1_555
La0 O16 2.797720 1_554
La0 O8 2.797720 1_554
La0 O0 2.800350 1_555
La1 O3 2.769150 1_555
La1 O19 2.781667 1_554
La1 O23 2.781667 1_555
La1 O2 2.784720 1_655
La1 O1 2.785104 1_555
La1 O13 2.794463 1_555
La1 O9 2.794463 1_554
La1 O17 2.797747 1_554
La1 O21 2.797747 1_555
La1 O0 2.801135 1_655
La1 O12 2.809530 1_655
La1 O8 2.809530 1_654
La2 O3 2.769150 1_555
La2 O11 2.781667 1_554
La2 O15 2.781667 1_555
La2 O1 2.784720 1_565
La2 O2 2.785104 1_555
La2 O22 2.794463 1_555
La2 O18 2.794463 1_554
La2 O14 2.797747 1_555
La2 O10 2.797747 1_554
La2 O0 2.801135 1_565
La2 O20 2.809530 1_565
La2 O16 2.809530 1_564
La3 O3 2.769338 1_555
La3 O19 2.782242 1_554
La3 O11 2.782242 1_554
La3 O15 2.782242 1_555
La3 O23 2.782242 1_555
La3 O1 2.785746 1_565
La3 O2 2.785746 1_655
La3 O10 2.798253 1_654
La3 O14 2.798253 1_655
La3 O17 2.798253 1_564
La3 O21 2.798253 1_565
La3 O0 2.801397 1_665
La4 O7 2.768979 1_555
La4 O23 2.781174 1_555
La4 O19 2.781174 1_555
La4 O9 2.781559 1_555
La4 O13 2.781559 1_555
La4 O5 2.784763 1_555
La4 O6 2.785119 1_655
La4 O21 2.797212 1_555
La4 O17 2.797212 1_555
La4 O8 2.797856 1_655
La4 O12 2.797856 1_655
La4 O4 2.801359 1_655
La5 O7 2.768979 1_555
La5 O15 2.781174 1_555
La5 O11 2.781174 1_555
La5 O18 2.781559 1_555
La5 O22 2.781559 1_555
La5 O6 2.784763 1_555
La5 O5 2.785119 1_565
La5 O14 2.797212 1_555
La5 O10 2.797212 1_555
La5 O16 2.797856 1_565
La5 O20 2.797856 1_565
La5 O4 2.801359 1_565
La6 O23 2.781752 1_555
La6 O15 2.781752 1_555
La6 O11 2.781752 1_555
La6 O19 2.781752 1_555
La6 O7 2.781914 1_555
La6 O6 2.797643 1_655
La6 O5 2.797643 1_565
La6 O21 2.797712 1_565
La6 O10 2.797712 1_655
La6 O17 2.797712 1_565
La6 O14 2.797712 1_655
La6 O4 2.812069 1_665
Mn0 O9 1.963847 1_555
Mn0 O16 1.967089 1_555
Mn0 O11 1.967603 1_545
Mn0 O17 1.970888 1_555
Mn0 O5 1.974058 1_555
Mn0 O1 1.977765 1_556
Mn1 O18 1.963847 1_555
Mn1 O8 1.967089 1_555
Mn1 O19 1.967603 1_455
Mn1 O10 1.970888 1_555
Mn1 O6 1.974058 1_555
Mn1 O2 1.977765 1_556
Mn2 O9 1.971053 1_555
Mn2 O18 1.971053 1_555
Mn2 O7 1.974084 1_555
Mn2 O19 1.974732 1_555
Mn2 O11 1.974732 1_555
Mn2 O3 1.977741 1_556
Mn3 O13 1.963847 1_555
Mn3 O20 1.967089 1_555
Mn3 O15 1.967603 1_545
Mn3 O21 1.970888 1_555
Mn3 O5 1.974058 1_555
Mn3 O1 1.977765 1_555
Mn4 O22 1.963847 1_555
Mn4 O12 1.967089 1_555
Mn4 O23 1.967603 1_455
Mn4 O14 1.970888 1_555
Mn4 O6 1.974058 1_555
Mn4 O2 1.977765 1_555
Mn5 O13 1.971053 1_555
Mn5 O22 1.971053 1_555
Mn5 O7 1.974084 1_555
Mn5 O23 1.974732 1_555
Mn5 O15 1.974732 1_555
Mn5 O3 1.977741 1_555
Fe0 O8 1.967653 1_555
Fe0 O16 1.967653 1_555
Fe0 O10 1.971597 1_545
Fe0 O17 1.971597 1_455
Fe0 O4 1.973813 1_555
Fe0 O0 1.978003 1_556
Fe1 O20 1.967653 1_555
Fe1 O12 1.967653 1_555
Fe1 O21 1.971597 1_455
Fe1 O14 1.971597 1_545
Fe1 O4 1.973813 1_555
Fe1 O0 1.978003 1_555
O4 Sm0 2.790480 1_555
O5 Sm0 2.772739 1_555
O6 Sm0 2.772739 1_555
O7 Sm0 2.755001 1_555
O8 Sm0 2.786203 1_555
O9 Sm0 2.768690 1_555
O12 Sm0 2.786203 1_555
O13 Sm0 2.768690 1_555
O16 Sm0 2.786203 1_555
O18 Sm0 2.768690 1_555
O20 Sm0 2.786203 1_555
O22 Sm0 2.768690 1_555
