# generated using pymatgen
data_Ge2SbO6
_symmetry_space_group_name_H-M   'P 1'
_cell_length_a   7.00139285
_cell_length_b   7.00139285
_cell_length_c   5.74505398
_cell_angle_alpha   76.13483395
_cell_angle_beta   76.13483395
_cell_angle_gamma   84.66354706
_symmetry_Int_Tables_number   1
_chemical_formula_structural   Ge2SbO6
_chemical_formula_sum   'Ge4 Sb2 O12'
_cell_volume   265.25814981
_cell_formula_units_Z   2
loop_
 _symmetry_equiv_pos_site_id
 _symmetry_equiv_pos_as_xyz
  1  'x, y, z'
loop_
 _atom_site_type_symbol
 _atom_site_label
 _atom_site_symmetry_multiplicity
 _atom_site_fract_x
 _atom_site_fract_y
 _atom_site_fract_z
 _atom_site_occupancy
  Ge  Ge0  1  0.21699900  0.38093700  0.75731700  1
  Ge  Ge1  1  0.61906300  0.78300100  0.74268300  1
  Ge  Ge2  1  0.78300100  0.61906300  0.24268300  1
  Ge  Ge3  1  0.38093700  0.21699900  0.25731700  1
  Sb  Sb0  1  0.11488300  0.88511700  0.75000000  1
  Sb  Sb1  1  0.88511700  0.11488300  0.25000000  1
  O  O0  1  0.38712300  0.33605700  0.49398400  1
  O  O1  1  0.66394300  0.61287700  0.00601600  1
  O  O2  1  0.61287700  0.66394300  0.50601600  1
  O  O3  1  0.33605700  0.38712300  0.99398400  1
  O  O4  1  0.61348200  0.09819600  0.19045300  1
  O  O5  1  0.90180400  0.38651800  0.30954700  1
  O  O6  1  0.38651800  0.90180400  0.80954700  1
  O  O7  1  0.09819600  0.61348200  0.69045300  1
  O  O8  1  0.04831000  0.17815700  0.87305600  1
  O  O9  1  0.82184300  0.95169000  0.62694400  1
  O  O10  1  0.95169000  0.82184300  0.12694400  1
  O  O11  1  0.17815700  0.04831000  0.37305600  1
loop_
_geom_bond_atom_site_label_1
_geom_bond_atom_site_label_2
_geom_bond_distance
_geom_bond_site_symmetry_2
Ge0 O7 1.758337 1_555
Ge0 O0 1.760907 1_555
Ge0 O3 1.767355 1_555
Ge0 O8 1.826407 1_555
Ge1 O6 1.758337 1_555
Ge1 O1 1.760907 1_556
Ge1 O2 1.767355 1_555
Ge1 O9 1.826407 1_555
Ge2 O5 1.758337 1_555
Ge2 O2 1.760907 1_555
Ge2 O1 1.767355 1_555
Ge2 O10 1.826407 1_555
Ge3 O4 1.758337 1_555
Ge3 O3 1.760907 1_554
Ge3 O0 1.767355 1_555
Ge3 O11 1.826407 1_555
O4 Sb1 2.029760 1_555
O5 Sb1 2.029760 1_555
O6 Sb0 2.029760 1_555
O7 Sb0 2.029760 1_555
O8 Sb1 2.154037 1_456
O8 Sb0 2.299095 1_545
O9 Sb1 2.154037 1_565
O9 Sb0 2.299095 1_655
O10 Sb0 2.154037 1_654
O10 Sb1 2.299095 1_565
O11 Sb0 2.154037 1_545
O11 Sb1 2.299095 1_455
