# generated using pymatgen
data_LaSbSe
_symmetry_space_group_name_H-M   'P 1'
_cell_length_a   4.28121900
_cell_length_b   4.30616991
_cell_length_c   18.58419500
_cell_angle_alpha   90.00000000
_cell_angle_beta   90.00000000
_cell_angle_gamma   89.94601954
_symmetry_Int_Tables_number   1
_chemical_formula_structural   LaSbSe
_chemical_formula_sum   'La4 Sb4 Se4'
_cell_volume   342.61168219
_cell_formula_units_Z   4
loop_
 _symmetry_equiv_pos_site_id
 _symmetry_equiv_pos_as_xyz
  1  'x, y, z'
loop_
 _atom_site_type_symbol
 _atom_site_label
 _atom_site_symmetry_multiplicity
 _atom_site_fract_x
 _atom_site_fract_y
 _atom_site_fract_z
 _atom_site_occupancy
  La  La0  1  0.75510100  0.76906700  0.85129100  1
  La  La1  1  0.74489900  0.73093300  0.35129100  1
  La  La2  1  0.24489900  0.23093300  0.14870900  1
  La  La3  1  0.25510100  0.26906700  0.64870900  1
  Sb  Sb0  1  0.25135500  0.77387500  0.50169500  1
  Sb  Sb1  1  0.24864500  0.72612500  0.00169500  1
  Sb  Sb2  1  0.74864500  0.22612500  0.49830500  1
  Sb  Sb3  1  0.75135500  0.27387500  0.99830500  1
  Se  Se0  1  0.75717900  0.76645200  0.68501000  1
  Se  Se1  1  0.74282100  0.73354800  0.18501000  1
  Se  Se2  1  0.24282100  0.23354800  0.31499000  1
  Se  Se3  1  0.25717900  0.26645200  0.81499000  1
loop_
_geom_bond_atom_site_label_1
_geom_bond_atom_site_label_2
_geom_bond_distance
_geom_bond_site_symmetry_2
La0 Se0 3.090232 1_555
La0 Se3 3.094855 1_565
La0 Se3 3.109916 1_665
La0 Se3 3.113263 1_555
La0 Se3 3.122678 1_655
La0 Sb3 3.465825 1_555
La0 Sb3 3.491436 1_565
La0 Sb1 3.508688 1_656
La0 Sb1 3.542463 1_556
La1 Se1 3.090232 1_555
La1 Se2 3.094855 1_655
La1 Se2 3.109916 1_555
La1 Se2 3.113263 1_665
La1 Se2 3.122678 1_565
La1 Sb2 3.465825 1_565
La1 Sb2 3.491436 1_555
La1 Sb0 3.508688 1_555
La1 Sb0 3.542463 1_655
La2 Se2 3.090232 1_555
La2 Se1 3.094855 1_545
La2 Se1 3.109916 1_445
La2 Se1 3.113263 1_555
La2 Se1 3.122678 1_455
La2 Sb1 3.465825 1_555
La2 Sb1 3.491436 1_545
La2 Sb3 3.508688 1_454
La2 Sb3 3.542463 1_554
La3 Se3 3.090232 1_555
La3 Se0 3.094855 1_455
La3 Se0 3.109916 1_555
La3 Se0 3.113263 1_445
La3 Se0 3.122678 1_545
La3 Sb0 3.465825 1_545
La3 Sb0 3.491436 1_555
La3 Sb2 3.508688 1_555
La3 Sb2 3.542463 1_455
Sb0 Sb2 2.887399 1_565
Sb0 Sb2 2.901846 1_465
Sb0 Sb2 3.176581 1_555
Sb0 Sb2 3.195158 1_455
Sb1 Sb3 2.887399 1_454
Sb1 Sb3 2.901846 1_554
Sb1 Sb3 3.176581 1_464
Sb1 Sb3 3.195158 1_564
