# generated using pymatgen
data_SrNi5As3
_symmetry_space_group_name_H-M   'P 1'
_cell_length_a   12.70100078
_cell_length_b   12.70100078
_cell_length_c   23.69418656
_cell_angle_alpha   90.00000000
_cell_angle_beta   90.00000000
_cell_angle_gamma   145.80967994
_symmetry_Int_Tables_number   1
_chemical_formula_structural   SrNi5As3
_chemical_formula_sum   'Sr16 Ni80 As48'
_cell_volume   2147.88214238
_cell_formula_units_Z   16
loop_
 _symmetry_equiv_pos_site_id
 _symmetry_equiv_pos_as_xyz
  1  'x, y, z'
loop_
 _atom_site_type_symbol
 _atom_site_label
 _atom_site_symmetry_multiplicity
 _atom_site_fract_x
 _atom_site_fract_y
 _atom_site_fract_z
 _atom_site_occupancy
  Sr  Sr0_0  1  0.08218613  0.41781387  0.12500000  1
  Sr  Sr0_1  1  0.08218613  0.41781387  0.62500000  1
  Sr  Sr0_2  1  0.08218613  0.91781387  0.12500000  1
  Sr  Sr0_3  1  0.08218613  0.91781387  0.62500000  1
  Sr  Sr0_4  1  0.58218613  0.41781387  0.12500000  1
  Sr  Sr0_5  1  0.58218613  0.41781387  0.62500000  1
  Sr  Sr0_6  1  0.58218613  0.91781387  0.12500000  1
  Sr  Sr0_7  1  0.58218613  0.91781387  0.62500000  1
  Sr  Sr1_0  1  0.41781387  0.08218613  0.37500000  1
  Sr  Sr1_1  1  0.41781387  0.08218613  0.87500000  1
  Sr  Sr1_2  1  0.41781387  0.58218613  0.37500000  1
  Sr  Sr1_3  1  0.41781387  0.58218613  0.87500000  1
  Sr  Sr1_4  1  0.91781387  0.08218613  0.37500000  1
  Sr  Sr1_5  1  0.91781387  0.08218613  0.87500000  1
  Sr  Sr1_6  1  0.91781387  0.58218613  0.37500000  1
  Sr  Sr1_7  1  0.91781387  0.58218613  0.87500000  1
  Ni  Ni0_0  1  0.09646175  0.40353825  0.46655910  1
  Ni  Ni0_1  1  0.09646175  0.40353825  0.96655910  1
  Ni  Ni0_2  1  0.09646175  0.90353825  0.46655910  1
  Ni  Ni0_3  1  0.09646175  0.90353825  0.96655910  1
  Ni  Ni0_4  1  0.59646175  0.40353825  0.46655910  1
  Ni  Ni0_5  1  0.59646175  0.40353825  0.96655910  1
  Ni  Ni0_6  1  0.59646175  0.90353825  0.46655910  1
  Ni  Ni0_7  1  0.59646175  0.90353825  0.96655910  1
  Ni  Ni1_0  1  0.40353825  0.09646175  0.21655910  1
  Ni  Ni1_1  1  0.40353825  0.09646175  0.71655910  1
  Ni  Ni1_2  1  0.40353825  0.59646175  0.21655910  1
  Ni  Ni1_3  1  0.40353825  0.59646175  0.71655910  1
  Ni  Ni1_4  1  0.90353825  0.09646175  0.21655910  1
  Ni  Ni1_5  1  0.90353825  0.09646175  0.71655910  1
  Ni  Ni1_6  1  0.90353825  0.59646175  0.21655910  1
  Ni  Ni1_7  1  0.90353825  0.59646175  0.71655910  1
  Ni  Ni2_0  1  0.00000000  0.00000000  0.00000000  1
  Ni  Ni2_1  1  0.00000000  0.00000000  0.50000000  1
  Ni  Ni2_2  1  0.00000000  0.50000000  0.00000000  1
  Ni  Ni2_3  1  0.00000000  0.50000000  0.50000000  1
  Ni  Ni2_4  1  0.50000000  0.00000000  0.00000000  1
  Ni  Ni2_5  1  0.50000000  0.00000000  0.50000000  1
  Ni  Ni2_6  1  0.50000000  0.50000000  0.00000000  1
  Ni  Ni2_7  1  0.50000000  0.50000000  0.50000000  1
  Ni  Ni3_0  1  0.00000000  0.00000000  0.25000000  1
  Ni  Ni3_1  1  0.00000000  0.00000000  0.75000000  1
  Ni  Ni3_2  1  0.00000000  0.50000000  0.25000000  1
  Ni  Ni3_3  1  0.00000000  0.50000000  0.75000000  1
  Ni  Ni3_4  1  0.50000000  0.00000000  0.25000000  1
  Ni  Ni3_5  1  0.50000000  0.00000000  0.75000000  1
  Ni  Ni3_6  1  0.50000000  0.50000000  0.25000000  1
  Ni  Ni3_7  1  0.50000000  0.50000000  0.75000000  1
  Ni  Ni4_0  1  0.27398939  0.22601061  0.32232374  1
  Ni  Ni4_1  1  0.27398939  0.22601061  0.82232374  1
  Ni  Ni4_2  1  0.27398939  0.72601061  0.32232374  1
  Ni  Ni4_3  1  0.27398939  0.72601061  0.82232374  1
  Ni  Ni4_4  1  0.77398939  0.22601061  0.32232374  1
  Ni  Ni4_5  1  0.77398939  0.22601061  0.82232374  1
  Ni  Ni4_6  1  0.77398939  0.72601061  0.32232374  1
  Ni  Ni4_7  1  0.77398939  0.72601061  0.82232374  1
  Ni  Ni5_0  1  0.22601061  0.27398939  0.17767626  1
  Ni  Ni5_1  1  0.22601061  0.27398939  0.67767626  1
  Ni  Ni5_2  1  0.22601061  0.77398939  0.17767626  1
  Ni  Ni5_3  1  0.22601061  0.77398939  0.67767626  1
  Ni  Ni5_4  1  0.72601061  0.27398939  0.17767626  1
  Ni  Ni5_5  1  0.72601061  0.27398939  0.67767626  1
  Ni  Ni5_6  1  0.72601061  0.77398939  0.17767626  1
  Ni  Ni5_7  1  0.72601061  0.77398939  0.67767626  1
  Ni  Ni6_0  1  0.22601061  0.27398939  0.07232374  1
  Ni  Ni6_1  1  0.22601061  0.27398939  0.57232375  1
  Ni  Ni6_2  1  0.22601061  0.77398939  0.07232374  1
  Ni  Ni6_3  1  0.22601061  0.77398939  0.57232375  1
  Ni  Ni6_4  1  0.72601061  0.27398939  0.07232374  1
  Ni  Ni6_5  1  0.72601061  0.27398939  0.57232375  1
  Ni  Ni6_6  1  0.72601061  0.77398939  0.07232374  1
  Ni  Ni6_7  1  0.72601061  0.77398939  0.57232375  1
  Ni  Ni7_0  1  0.09646175  0.40353825  0.28344090  1
  Ni  Ni7_1  1  0.09646175  0.40353825  0.78344090  1
  Ni  Ni7_2  1  0.09646175  0.90353825  0.28344090  1
  Ni  Ni7_3  1  0.09646175  0.90353825  0.78344090  1
  Ni  Ni7_4  1  0.59646175  0.40353825  0.28344090  1
  Ni  Ni7_5  1  0.59646175  0.40353825  0.78344090  1
  Ni  Ni7_6  1  0.59646175  0.90353825  0.28344090  1
  Ni  Ni7_7  1  0.59646175  0.90353825  0.78344090  1
  Ni  Ni8_0  1  0.40353825  0.09646175  0.03344090  1
  Ni  Ni8_1  1  0.40353825  0.09646175  0.53344090  1
  Ni  Ni8_2  1  0.40353825  0.59646175  0.03344090  1
  Ni  Ni8_3  1  0.40353825  0.59646175  0.53344090  1
  Ni  Ni8_4  1  0.90353825  0.09646175  0.03344090  1
  Ni  Ni8_5  1  0.90353825  0.09646175  0.53344090  1
  Ni  Ni8_6  1  0.90353825  0.59646175  0.03344090  1
  Ni  Ni8_7  1  0.90353825  0.59646175  0.53344090  1
  Ni  Ni9_0  1  0.27398939  0.22601061  0.42767626  1
  Ni  Ni9_1  1  0.27398939  0.22601061  0.92767626  1
  Ni  Ni9_2  1  0.27398939  0.72601061  0.42767626  1
  Ni  Ni9_3  1  0.27398939  0.72601061  0.92767626  1
  Ni  Ni9_4  1  0.77398939  0.22601061  0.42767626  1
  Ni  Ni9_5  1  0.77398939  0.22601061  0.92767626  1
  Ni  Ni9_6  1  0.77398939  0.72601061  0.42767626  1
  Ni  Ni9_7  1  0.77398939  0.72601061  0.92767626  1
  As  As0_0  1  0.31064683  0.18935317  0.22988581  1
  As  As0_1  1  0.31064683  0.18935317  0.72988581  1
  As  As0_2  1  0.31064683  0.68935317  0.22988581  1
  As  As0_3  1  0.31064683  0.68935317  0.72988581  1
  As  As0_4  1  0.81064682  0.18935317  0.22988581  1
  As  As0_5  1  0.81064682  0.18935317  0.72988581  1
  As  As0_6  1  0.81064682  0.68935317  0.22988581  1
  As  As0_7  1  0.81064682  0.68935317  0.72988581  1
  As  As1_0  1  0.05662632  0.44337368  0.37500000  1
  As  As1_1  1  0.05662632  0.44337368  0.87500000  1
  As  As1_2  1  0.05662632  0.94337368  0.37500000  1
  As  As1_3  1  0.05662632  0.94337368  0.87500000  1
  As  As1_4  1  0.55662632  0.44337368  0.37500000  1
  As  As1_5  1  0.55662632  0.44337368  0.87500000  1
  As  As1_6  1  0.55662632  0.94337368  0.37500000  1
  As  As1_7  1  0.55662632  0.94337368  0.87500000  1
  As  As2_0  1  0.31064683  0.18935317  0.02011419  1
  As  As2_1  1  0.31064683  0.18935317  0.52011419  1
  As  As2_2  1  0.31064683  0.68935317  0.02011419  1
  As  As2_3  1  0.31064683  0.68935317  0.52011419  1
  As  As2_4  1  0.81064682  0.18935317  0.02011419  1
  As  As2_5  1  0.81064682  0.18935317  0.52011419  1
  As  As2_6  1  0.81064682  0.68935317  0.02011419  1
  As  As2_7  1  0.81064682  0.68935317  0.52011419  1
  As  As3_0  1  0.18935318  0.31064682  0.47988581  1
  As  As3_1  1  0.18935318  0.31064682  0.97988581  1
  As  As3_2  1  0.18935318  0.81064682  0.47988581  1
  As  As3_3  1  0.18935318  0.81064682  0.97988581  1
  As  As3_4  1  0.68935318  0.31064682  0.47988581  1
  As  As3_5  1  0.68935318  0.31064682  0.97988581  1
  As  As3_6  1  0.68935318  0.81064682  0.47988581  1
  As  As3_7  1  0.68935318  0.81064682  0.97988581  1
  As  As4_0  1  0.44337369  0.05662631  0.12500000  1
  As  As4_1  1  0.44337369  0.05662631  0.62500000  1
  As  As4_2  1  0.44337369  0.55662631  0.12500000  1
  As  As4_3  1  0.44337369  0.55662631  0.62500000  1
  As  As4_4  1  0.94337369  0.05662631  0.12500000  1
  As  As4_5  1  0.94337369  0.05662631  0.62500000  1
  As  As4_6  1  0.94337368  0.55662631  0.12500000  1
  As  As4_7  1  0.94337368  0.55662631  0.62500000  1
  As  As5_0  1  0.18935318  0.31064682  0.27011419  1
  As  As5_1  1  0.18935318  0.31064682  0.77011419  1
  As  As5_2  1  0.18935318  0.81064682  0.27011419  1
  As  As5_3  1  0.18935318  0.81064682  0.77011419  1
  As  As5_4  1  0.68935318  0.31064682  0.27011419  1
  As  As5_5  1  0.68935318  0.31064682  0.77011419  1
  As  As5_6  1  0.68935318  0.81064682  0.27011419  1
  As  As5_7  1  0.68935318  0.81064682  0.77011419  1
loop_
_geom_bond_atom_site_label_1
_geom_bond_atom_site_label_2
_geom_bond_distance
_geom_bond_site_symmetry_2
Sr0_0 Sr0_6 3.733581 1_555
Sr0_0 Sr0_6 3.733581 1_445
Sr0_1 Sr0_7 3.733581 1_445
Sr0_1 Sr0_7 3.733581 1_555
Sr0_2 Sr0_4 3.733581 1_565
Sr0_2 Sr0_4 3.733581 1_455
Sr0_3 Sr0_5 3.733581 1_565
Sr0_3 Sr0_5 3.733581 1_455
Sr1_0 Sr1_6 3.733581 1_555
Sr1_0 Sr1_6 3.733581 1_445
Sr1_1 Sr1_7 3.733581 1_555
Sr1_1 Sr1_7 3.733581 1_445
Sr1_2 Sr1_4 3.733581 1_455
Sr1_2 Sr1_4 3.733581 1_565
Sr1_3 Sr1_5 3.733581 1_455
Sr1_3 Sr1_5 3.733581 1_565
Ni0_0 Ni2_3 2.472464 1_555
Ni0_0 Ni9_4 2.725786 1_455
Ni0_0 Ni9_2 2.725786 1_555
Ni0_0 Ni8_5 2.813655 1_455
Ni0_0 Ni8_3 2.813655 1_555
Ni0_0 Sr1_4 3.345522 1_455
Ni0_0 Sr1_2 3.345522 1_555
Ni0_1 Ni2_2 2.472464 1_556
Ni0_1 Ni9_5 2.725786 1_455
Ni0_1 Ni9_3 2.725786 1_555
Ni0_1 Ni8_2 2.813655 1_556
Ni0_1 Ni8_4 2.813655 1_456
Ni0_1 Sr1_5 3.345522 1_455
Ni0_1 Sr1_3 3.345522 1_555
Ni0_2 Ni2_1 2.472464 1_565
Ni0_2 Ni9_0 2.725786 1_565
Ni0_2 Ni9_6 2.725786 1_455
Ni0_2 Ni8_7 2.813655 1_455
Ni0_2 Ni8_1 2.813655 1_565
Ni0_2 Sr1_0 3.345522 1_565
Ni0_2 Sr1_6 3.345522 1_455
Ni0_3 Ni2_0 2.472464 1_566
Ni0_3 Ni9_1 2.725786 1_565
Ni0_3 Ni9_7 2.725786 1_455
Ni0_3 Ni8_6 2.813655 1_456
Ni0_3 Ni8_0 2.813655 1_566
Ni0_3 Sr1_1 3.345522 1_565
Ni0_3 Sr1_7 3.345522 1_455
Ni0_4 Ni2_7 2.472464 1_555
Ni0_4 Ni9_6 2.725786 1_555
Ni0_4 Ni9_0 2.725786 1_555
Ni0_4 Ni8_1 2.813655 1_555
Ni0_4 Ni8_7 2.813655 1_555
Ni0_4 Sr1_0 3.345522 1_555
Ni0_4 Sr1_6 3.345522 1_555
Ni0_5 Ni2_6 2.472464 1_556
Ni0_5 Ni9_7 2.725786 1_555
Ni0_5 Ni9_1 2.725786 1_555
Ni0_5 Ni8_0 2.813655 1_556
Ni0_5 Ni8_6 2.813655 1_556
Ni0_5 Sr1_1 3.345522 1_555
Ni0_5 Sr1_7 3.345522 1_555
Ni0_6 Ni2_5 2.472464 1_565
Ni0_6 Ni9_4 2.725786 1_565
Ni0_6 Ni9_2 2.725786 1_555
Ni0_6 Ni8_5 2.813655 1_565
Ni0_6 Ni8_3 2.813655 1_555
Ni0_6 Sr1_2 3.345522 1_555
Ni0_6 Sr1_4 3.345522 1_565
Ni0_7 Ni2_4 2.472464 1_566
Ni0_7 Ni9_5 2.725786 1_565
Ni0_7 Ni9_3 2.725786 1_555
Ni0_7 Ni8_4 2.813655 1_566
Ni0_7 Ni8_2 2.813655 1_556
Ni0_7 Sr1_3 3.345522 1_555
Ni0_7 Sr1_5 3.345522 1_565
Ni1_0 Ni3_4 2.472464 1_555
Ni1_0 Ni5_4 2.725786 1_555
Ni1_0 Ni5_2 2.725786 1_545
Ni1_0 Ni7_4 2.813655 1_555
Ni1_0 Ni7_2 2.813655 1_545
Ni1_0 Sr0_2 3.345522 1_545
Ni1_0 Sr0_4 3.345522 1_555
Ni1_1 Ni3_5 2.472464 1_555
Ni1_1 Ni5_5 2.725786 1_555
Ni1_1 Ni5_3 2.725786 1_545
Ni1_1 Ni7_5 2.813655 1_555
Ni1_1 Ni7_3 2.813655 1_545
Ni1_1 Sr0_5 3.345522 1_555
Ni1_1 Sr0_3 3.345522 1_545
Ni1_2 Ni3_6 2.472464 1_555
Ni1_2 Ni5_0 2.725786 1_555
Ni1_2 Ni5_6 2.725786 1_555
Ni1_2 Ni7_6 2.813655 1_555
Ni1_2 Ni7_0 2.813655 1_555
Ni1_2 Sr0_6 3.345522 1_555
Ni1_2 Sr0_0 3.345522 1_555
Ni1_3 Ni3_7 2.472464 1_555
Ni1_3 Ni5_1 2.725786 1_555
Ni1_3 Ni5_7 2.725786 1_555
Ni1_3 Ni7_1 2.813655 1_555
Ni1_3 Ni7_7 2.813655 1_555
Ni1_3 Sr0_7 3.345522 1_555
Ni1_3 Sr0_1 3.345522 1_555
Ni1_4 Ni3_0 2.472464 1_655
Ni1_4 Ni5_0 2.725786 1_655
Ni1_4 Ni5_6 2.725786 1_545
Ni1_4 Ni7_6 2.813655 1_545
Ni1_4 Ni7_0 2.813655 1_655
Ni1_4 Sr0_6 3.345522 1_545
Ni1_4 Sr0_0 3.345522 1_655
Ni1_5 Ni3_1 2.472464 1_655
Ni1_5 Ni5_1 2.725786 1_655
Ni1_5 Ni5_7 2.725786 1_545
Ni1_5 Ni7_1 2.813655 1_655
Ni1_5 Ni7_7 2.813655 1_545
Ni1_5 Sr0_7 3.345522 1_545
Ni1_5 Sr0_1 3.345522 1_655
Ni1_6 Ni3_2 2.472464 1_655
Ni1_6 Ni5_2 2.725786 1_655
Ni1_6 Ni5_4 2.725786 1_555
Ni1_6 Ni7_2 2.813655 1_655
Ni1_6 Ni7_4 2.813655 1_555
Ni1_6 Sr0_2 3.345522 1_655
Ni1_6 Sr0_4 3.345522 1_555
Ni1_7 Ni3_3 2.472464 1_655
Ni1_7 Ni5_3 2.725786 1_655
Ni1_7 Ni5_5 2.725786 1_555
Ni1_7 Ni7_3 2.813655 1_655
Ni1_7 Ni7_5 2.813655 1_555
Ni1_7 Sr0_3 3.345522 1_655
Ni1_7 Sr0_5 3.345522 1_555
Ni2_0 Ni8_4 2.472464 1_455
Ni2_0 Ni9_1 2.600147 1_554
Ni2_0 Ni9_7 2.600147 1_444
Ni2_0 Ni6_0 2.600147 1_555
Ni2_0 Ni6_6 2.600147 1_445
Ni2_1 Ni8_5 2.472464 1_455
Ni2_1 Ni9_0 2.600147 1_555
Ni2_1 Ni6_1 2.600147 1_555
Ni2_1 Ni9_6 2.600147 1_445
Ni2_1 Ni6_7 2.600147 1_445
Ni2_2 Ni8_6 2.472464 1_455
Ni2_2 Ni9_3 2.600147 1_554
Ni2_2 Ni6_2 2.600147 1_555
Ni2_2 Ni9_5 2.600147 1_454
Ni2_2 Ni6_4 2.600147 1_455
Ni2_3 Ni8_7 2.472464 1_455
Ni2_3 Ni9_2 2.600147 1_555
Ni2_3 Ni6_3 2.600147 1_555
Ni2_3 Ni9_4 2.600147 1_455
Ni2_3 Ni6_5 2.600147 1_455
Ni2_4 Ni8_0 2.472464 1_555
Ni2_4 Ni6_4 2.600147 1_555
Ni2_4 Ni9_5 2.600147 1_554
Ni2_4 Ni9_3 2.600147 1_544
Ni2_4 Ni6_2 2.600147 1_545
Ni2_5 Ni8_1 2.472464 1_555
Ni2_5 Ni9_4 2.600147 1_555
Ni2_5 Ni9_2 2.600147 1_545
Ni2_5 Ni6_5 2.600147 1_555
Ni2_5 Ni6_3 2.600147 1_545
Ni2_6 Ni8_2 2.472464 1_555
Ni2_6 Ni9_1 2.600147 1_554
Ni2_6 Ni9_7 2.600147 1_554
Ni2_6 Ni6_6 2.600147 1_555
Ni2_6 Ni6_0 2.600147 1_555
Ni2_7 Ni8_3 2.472464 1_555
Ni2_7 Ni9_0 2.600147 1_555
Ni2_7 Ni9_6 2.600147 1_555
Ni2_7 Ni6_7 2.600147 1_555
Ni2_7 Ni6_1 2.600147 1_555
Ni3_0 Ni7_2 2.472464 1_545
Ni3_0 Ni5_0 2.600147 1_555
Ni3_0 Ni5_6 2.600147 1_445
Ni3_0 Ni4_0 2.600147 1_555
Ni3_0 Ni4_6 2.600147 1_445
Ni3_1 Ni7_3 2.472464 1_545
Ni3_1 Ni4_1 2.600147 1_555
Ni3_1 Ni4_7 2.600147 1_445
Ni3_1 Ni5_1 2.600147 1_555
Ni3_1 Ni5_7 2.600147 1_445
Ni3_2 Ni7_0 2.472464 1_555
Ni3_2 Ni5_2 2.600147 1_555
Ni3_2 Ni5_4 2.600147 1_455
Ni3_2 Ni4_2 2.600147 1_555
Ni3_2 Ni4_4 2.600147 1_455
Ni3_3 Ni7_1 2.472464 1_555
Ni3_3 Ni4_3 2.600147 1_555
Ni3_3 Ni4_5 2.600147 1_455
Ni3_3 Ni5_3 2.600147 1_555
Ni3_3 Ni5_5 2.600147 1_455
Ni3_4 Ni7_6 2.472464 1_545
Ni3_4 Ni5_4 2.600147 1_555
Ni3_4 Ni5_2 2.600147 1_545
Ni3_4 Ni4_4 2.600147 1_555
Ni3_4 Ni4_2 2.600147 1_545
Ni3_5 Ni7_7 2.472464 1_545
Ni3_5 Ni4_5 2.600147 1_555
Ni3_5 Ni4_3 2.600147 1_545
Ni3_5 Ni5_5 2.600147 1_555
Ni3_5 Ni5_3 2.600147 1_545
Ni3_6 Ni7_4 2.472464 1_555
Ni3_6 Ni4_0 2.600147 1_555
Ni3_6 Ni5_6 2.600147 1_555
Ni3_6 Ni4_6 2.600147 1_555
Ni3_6 Ni5_0 2.600147 1_555
Ni3_7 Ni7_5 2.472464 1_555
Ni3_7 Ni4_1 2.600147 1_555
Ni3_7 Ni4_7 2.600147 1_555
Ni3_7 Ni5_1 2.600147 1_555
Ni3_7 Ni5_7 2.600147 1_555
Ni4_0 Ni9_0 2.496242 1_555
Ni4_0 Ni7_4 2.725786 1_555
Ni4_0 Ni7_2 2.725786 1_545
Ni4_0 Sr1_4 3.418819 1_455
Ni4_0 Sr1_2 3.418819 1_555
Ni4_1 Ni9_1 2.496242 1_555
Ni4_1 Ni7_5 2.725786 1_555
Ni4_1 Ni7_3 2.725786 1_545
Ni4_1 Sr1_5 3.418819 1_455
Ni4_1 Sr1_3 3.418819 1_555
Ni4_2 Ni9_2 2.496242 1_555
Ni4_2 Ni7_0 2.725786 1_555
Ni4_2 Ni7_6 2.725786 1_555
Ni4_2 Sr1_6 3.418819 1_455
Ni4_2 Sr1_0 3.418819 1_565
Ni4_3 Ni9_3 2.496242 1_555
Ni4_3 Ni7_1 2.725786 1_555
Ni4_3 Ni7_7 2.725786 1_555
Ni4_3 Sr1_7 3.418819 1_455
Ni4_3 Sr1_1 3.418819 1_565
Ni4_4 Ni9_4 2.496242 1_555
Ni4_4 Ni7_0 2.725786 1_655
Ni4_4 Ni7_6 2.725786 1_545
Ni4_4 Sr1_6 3.418819 1_555
Ni4_4 Sr1_0 3.418819 1_555
Ni4_5 Ni9_5 2.496242 1_555
Ni4_5 Ni7_1 2.725786 1_655
Ni4_5 Ni7_7 2.725786 1_545
Ni4_5 Sr1_7 3.418819 1_555
Ni4_5 Sr1_1 3.418819 1_555
Ni4_6 Ni9_6 2.496242 1_555
Ni4_6 Ni7_4 2.725786 1_555
Ni4_6 Ni7_2 2.725786 1_655
Ni4_6 Sr1_2 3.418819 1_555
Ni4_6 Sr1_4 3.418819 1_565
Ni4_7 Ni9_7 2.496242 1_555
Ni4_7 Ni7_5 2.725786 1_555
Ni4_7 Ni7_3 2.725786 1_655
Ni4_7 Sr1_3 3.418819 1_555
Ni4_7 Sr1_5 3.418819 1_565
Ni5_0 Ni6_0 2.496242 1_555
Ni5_0 Sr0_4 3.418819 1_555
Ni5_0 Sr0_2 3.418819 1_545
Ni5_1 Ni6_1 2.496242 1_555
Ni5_1 Sr0_5 3.418819 1_555
Ni5_1 Sr0_3 3.418819 1_545
Ni5_2 Ni6_2 2.496242 1_555
Ni5_2 Sr0_0 3.418819 1_555
Ni5_2 Sr0_6 3.418819 1_555
Ni5_3 Ni6_3 2.496242 1_555
Ni5_3 Sr0_1 3.418819 1_555
Ni5_3 Sr0_7 3.418819 1_555
Ni5_4 Ni6_4 2.496242 1_555
Ni5_4 Sr0_0 3.418819 1_655
Ni5_4 Sr0_6 3.418819 1_545
Ni5_5 Ni6_5 2.496242 1_555
Ni5_5 Sr0_1 3.418819 1_655
Ni5_5 Sr0_7 3.418819 1_545
Ni5_6 Ni6_6 2.496242 1_555
Ni5_6 Sr0_2 3.418819 1_655
Ni5_6 Sr0_4 3.418819 1_555
Ni5_7 Ni6_7 2.496242 1_555
Ni5_7 Sr0_5 3.418819 1_555
Ni5_7 Sr0_3 3.418819 1_655
Ni6_0 Ni8_2 2.725786 1_555
Ni6_0 Ni8_4 2.725786 1_455
Ni6_0 Sr0_4 3.418819 1_555
Ni6_0 Sr0_2 3.418819 1_545
Ni6_1 Ni8_3 2.725786 1_555
Ni6_1 Ni8_5 2.725786 1_455
Ni6_1 Sr0_5 3.418819 1_555
Ni6_1 Sr0_3 3.418819 1_545
Ni6_2 Ni8_6 2.725786 1_455
Ni6_2 Ni8_0 2.725786 1_565
Ni6_2 Sr0_0 3.418819 1_555
Ni6_2 Sr0_6 3.418819 1_555
Ni6_3 Ni8_7 2.725786 1_455
Ni6_3 Ni8_1 2.725786 1_565
Ni6_3 Sr0_1 3.418819 1_555
Ni6_3 Sr0_7 3.418819 1_555
Ni6_4 Ni8_6 2.725786 1_555
Ni6_4 Ni8_0 2.725786 1_555
Ni6_4 Sr0_0 3.418819 1_655
Ni6_4 Sr0_6 3.418819 1_545
Ni6_5 Ni8_7 2.725786 1_555
Ni6_5 Ni8_1 2.725786 1_555
Ni6_5 Sr0_1 3.418819 1_655
Ni6_5 Sr0_7 3.418819 1_545
Ni6_6 Ni8_2 2.725786 1_555
Ni6_6 Ni8_4 2.725786 1_565
Ni6_6 Sr0_2 3.418819 1_655
Ni6_6 Sr0_4 3.418819 1_555
Ni6_7 Ni8_3 2.725786 1_555
Ni6_7 Ni8_5 2.725786 1_565
Ni6_7 Sr0_3 3.418819 1_655
Ni6_7 Sr0_5 3.418819 1_555
Ni7_0 Sr1_4 3.345522 1_455
Ni7_0 Sr1_2 3.345522 1_555
Ni7_1 Sr1_5 3.345522 1_455
Ni7_1 Sr1_3 3.345522 1_555
Ni7_2 Sr1_0 3.345522 1_565
Ni7_2 Sr1_6 3.345522 1_455
Ni7_3 Sr1_7 3.345522 1_455
Ni7_3 Sr1_1 3.345522 1_565
Ni7_4 Sr1_0 3.345522 1_555
Ni7_4 Sr1_6 3.345522 1_555
Ni7_5 Sr1_1 3.345522 1_555
Ni7_5 Sr1_7 3.345522 1_555
Ni7_6 Sr1_2 3.345522 1_555
Ni7_6 Sr1_4 3.345522 1_565
Ni7_7 Sr1_3 3.345522 1_555
Ni7_7 Sr1_5 3.345522 1_565
Ni8_0 Sr0_4 3.345522 1_555
Ni8_0 Sr0_2 3.345522 1_545
Ni8_1 Sr0_5 3.345522 1_555
Ni8_1 Sr0_3 3.345522 1_545
Ni8_2 Sr0_6 3.345522 1_555
Ni8_2 Sr0_0 3.345522 1_555
Ni8_3 Sr0_7 3.345522 1_555
Ni8_3 Sr0_1 3.345522 1_555
Ni8_4 Sr0_6 3.345522 1_545
Ni8_4 Sr0_0 3.345522 1_655
Ni8_5 Sr0_1 3.345522 1_655
Ni8_5 Sr0_7 3.345522 1_545
Ni8_6 Sr0_2 3.345522 1_655
Ni8_6 Sr0_4 3.345522 1_555
Ni8_7 Sr0_5 3.345522 1_555
Ni8_7 Sr0_3 3.345522 1_655
Ni9_0 Sr1_4 3.418819 1_455
Ni9_0 Sr1_2 3.418819 1_555
Ni9_1 Sr1_5 3.418819 1_455
Ni9_1 Sr1_3 3.418819 1_555
Ni9_2 Sr1_6 3.418819 1_455
Ni9_2 Sr1_0 3.418819 1_565
Ni9_3 Sr1_7 3.418819 1_455
Ni9_3 Sr1_1 3.418819 1_565
Ni9_4 Sr1_6 3.418819 1_555
Ni9_4 Sr1_0 3.418819 1_555
Ni9_5 Sr1_1 3.418819 1_555
Ni9_5 Sr1_7 3.418819 1_555
Ni9_6 Sr1_2 3.418819 1_555
Ni9_6 Sr1_4 3.418819 1_565
Ni9_7 Sr1_3 3.418819 1_555
Ni9_7 Sr1_5 3.418819 1_565
As0_0 Ni1_0 2.277372 1_555
As0_0 Ni4_0 2.364173 1_555
As0_0 Ni5_0 2.398563 1_555
As0_0 Ni7_4 2.418943 1_555
As0_0 Ni7_2 2.418943 1_545
As0_0 Ni3_6 2.424924 1_555
As0_0 Ni3_0 2.424924 1_555
As0_0 Sr0_4 3.151911 1_555
As0_0 Sr0_2 3.151911 1_545
As0_1 Ni1_1 2.277372 1_555
As0_1 Ni4_1 2.364173 1_555
As0_1 Ni5_1 2.398563 1_555
As0_1 Ni7_5 2.418943 1_555
As0_1 Ni7_3 2.418943 1_545
As0_1 Ni3_7 2.424924 1_555
As0_1 Ni3_1 2.424924 1_555
As0_1 Sr0_3 3.151911 1_545
As0_1 Sr0_5 3.151911 1_555
As0_2 Ni1_2 2.277372 1_555
As0_2 Ni4_2 2.364173 1_555
As0_2 Ni5_2 2.398563 1_555
As0_2 Ni7_0 2.418943 1_555
As0_2 Ni7_6 2.418943 1_555
As0_2 Ni3_2 2.424924 1_555
As0_2 Ni3_4 2.424924 1_565
As0_2 Sr0_0 3.151911 1_555
As0_2 Sr0_6 3.151911 1_555
As0_3 Ni1_3 2.277372 1_555
As0_3 Ni4_3 2.364173 1_555
As0_3 Ni5_3 2.398563 1_555
As0_3 Ni7_1 2.418943 1_555
As0_3 Ni7_7 2.418943 1_555
As0_3 Ni3_3 2.424924 1_555
As0_3 Ni3_5 2.424924 1_565
As0_3 Sr0_1 3.151911 1_555
As0_3 Sr0_7 3.151911 1_555
As0_4 Ni1_4 2.277372 1_555
As0_4 Ni4_4 2.364173 1_555
As0_4 Ni5_4 2.398563 1_555
As0_4 Ni7_6 2.418943 1_545
As0_4 Ni7_0 2.418943 1_655
As0_4 Ni3_4 2.424924 1_555
As0_4 Ni3_2 2.424924 1_655
As0_4 Sr0_6 3.151911 1_545
As0_4 Sr0_0 3.151911 1_655
As0_5 Ni1_5 2.277372 1_555
As0_5 Ni4_5 2.364173 1_555
As0_5 Ni5_5 2.398563 1_555
As0_5 Ni7_7 2.418943 1_545
As0_5 Ni7_1 2.418943 1_655
As0_5 Ni3_5 2.424924 1_555
As0_5 Ni3_3 2.424924 1_655
As0_5 Sr0_7 3.151911 1_545
As0_5 Sr0_1 3.151911 1_655
As0_6 Ni1_6 2.277372 1_555
As0_6 Ni4_6 2.364173 1_555
As0_6 Ni5_6 2.398563 1_555
As0_6 Ni7_2 2.418943 1_655
As0_6 Ni7_4 2.418943 1_555
As0_6 Ni3_6 2.424924 1_555
As0_6 Ni3_0 2.424924 1_665
As0_6 Sr0_4 3.151911 1_555
As0_6 Sr0_2 3.151911 1_655
As0_7 Ni1_7 2.277372 1_555
As0_7 Ni4_7 2.364173 1_555
As0_7 Ni5_7 2.398563 1_555
As0_7 Ni7_5 2.418943 1_555
As0_7 Ni7_3 2.418943 1_655
As0_7 Ni3_7 2.424924 1_555
As0_7 Ni3_1 2.424924 1_665
As0_7 Sr0_3 3.151911 1_655
As0_7 Sr0_5 3.151911 1_555
As1_0 Ni0_0 2.375255 1_555
As1_0 Ni7_0 2.375255 1_555
As1_0 Ni9_2 2.381309 1_555
As1_0 Ni9_4 2.381309 1_455
As1_0 Ni4_2 2.381309 1_555
As1_0 Ni4_4 2.381309 1_455
As1_0 Sr1_2 3.282185 1_555
As1_0 Sr1_4 3.282185 1_455
As1_0 Sr1_6 3.370323 1_455
As1_1 Ni0_1 2.375255 1_555
As1_1 Ni7_1 2.375255 1_555
As1_1 Ni9_3 2.381309 1_555
As1_1 Ni9_5 2.381309 1_455
As1_1 Ni4_3 2.381309 1_555
As1_1 Ni4_5 2.381309 1_455
As1_1 Sr1_3 3.282185 1_555
As1_1 Sr1_5 3.282185 1_455
As1_1 Sr1_7 3.370323 1_455
As1_2 Ni0_2 2.375255 1_555
As1_2 Ni7_2 2.375255 1_555
As1_2 Ni9_0 2.381309 1_565
As1_2 Ni9_6 2.381309 1_455
As1_2 Ni4_0 2.381309 1_565
As1_2 Ni4_6 2.381309 1_455
As1_2 Sr1_0 3.282185 1_565
As1_2 Sr1_6 3.282185 1_455
As1_2 Sr1_4 3.370323 1_465
As1_3 Ni0_3 2.375255 1_555
As1_3 Ni7_3 2.375255 1_555
As1_3 Ni9_1 2.381309 1_565
As1_3 Ni9_7 2.381309 1_455
As1_3 Ni4_1 2.381309 1_565
As1_3 Ni4_7 2.381309 1_455
As1_3 Sr1_1 3.282185 1_565
As1_3 Sr1_7 3.282185 1_455
As1_3 Sr1_5 3.370323 1_465
As1_4 Ni0_4 2.375255 1_555
As1_4 Ni7_4 2.375255 1_555
As1_4 Ni9_6 2.381309 1_555
As1_4 Ni9_0 2.381309 1_555
As1_4 Ni4_6 2.381309 1_555
As1_4 Ni4_0 2.381309 1_555
As1_4 Sr1_0 3.282185 1_555
As1_4 Sr1_6 3.282185 1_555
As1_4 Sr1_2 3.370323 1_555
As1_5 Ni0_5 2.375255 1_555
As1_5 Ni7_5 2.375255 1_555
As1_5 Ni9_7 2.381309 1_555
As1_5 Ni9_1 2.381309 1_555
As1_5 Ni4_7 2.381309 1_555
As1_5 Ni4_1 2.381309 1_555
As1_5 Sr1_1 3.282185 1_555
As1_5 Sr1_7 3.282185 1_555
As1_5 Sr1_3 3.370323 1_555
As1_6 Ni0_6 2.375255 1_555
As1_6 Ni7_6 2.375255 1_555
As1_6 Ni9_4 2.381309 1_565
As1_6 Ni9_2 2.381309 1_555
As1_6 Ni4_2 2.381309 1_555
As1_6 Ni4_4 2.381309 1_565
As1_6 Sr1_2 3.282185 1_555
As1_6 Sr1_4 3.282185 1_565
As1_6 Sr1_0 3.370323 1_565
As1_7 Ni0_7 2.375255 1_555
As1_7 Ni7_7 2.375255 1_555
As1_7 Ni9_3 2.381309 1_555
As1_7 Ni9_5 2.381309 1_565
As1_7 Ni4_5 2.381309 1_565
As1_7 Ni4_3 2.381309 1_555
As1_7 Sr1_3 3.282185 1_555
As1_7 Sr1_5 3.282185 1_565
As1_7 Sr1_1 3.370323 1_565
As2_0 Ni8_0 2.277372 1_555
As2_0 Ni9_1 2.364173 1_554
As2_0 Ni6_0 2.398563 1_555
As2_0 Ni0_5 2.418943 1_554
As2_0 Ni0_3 2.418943 1_544
As2_0 Ni2_6 2.424924 1_555
As2_0 Ni2_0 2.424924 1_555
As2_0 Sr0_4 3.151911 1_555
As2_0 Sr0_2 3.151911 1_545
As2_1 Ni8_1 2.277372 1_555
As2_1 Ni9_0 2.364173 1_555
As2_1 Ni6_1 2.398563 1_555
As2_1 Ni0_4 2.418943 1_555
As2_1 Ni0_2 2.418943 1_545
As2_1 Ni2_7 2.424924 1_555
As2_1 Ni2_1 2.424924 1_555
As2_1 Sr0_3 3.151911 1_545
As2_1 Sr0_5 3.151911 1_555
As2_2 Ni8_2 2.277372 1_555
As2_2 Ni9_3 2.364173 1_554
As2_2 Ni6_2 2.398563 1_555
As2_2 Ni0_1 2.418943 1_554
As2_2 Ni0_7 2.418943 1_554
As2_2 Ni2_2 2.424924 1_555
As2_2 Ni2_4 2.424924 1_565
As2_2 Sr0_0 3.151911 1_555
As2_2 Sr0_6 3.151911 1_555
As2_3 Ni8_3 2.277372 1_555
As2_3 Ni9_2 2.364173 1_555
As2_3 Ni6_3 2.398563 1_555
As2_3 Ni0_0 2.418943 1_555
As2_3 Ni0_6 2.418943 1_555
As2_3 Ni2_3 2.424924 1_555
As2_3 Ni2_5 2.424924 1_565
As2_3 Sr0_1 3.151911 1_555
As2_3 Sr0_7 3.151911 1_555
As2_4 Ni8_4 2.277372 1_555
As2_4 Ni9_5 2.364173 1_554
As2_4 Ni6_4 2.398563 1_555
As2_4 Ni0_1 2.418943 1_654
As2_4 Ni0_7 2.418943 1_544
As2_4 Ni2_4 2.424924 1_555
As2_4 Ni2_2 2.424924 1_655
As2_4 Sr0_6 3.151911 1_545
As2_4 Sr0_0 3.151911 1_655
As2_5 Ni8_5 2.277372 1_555
As2_5 Ni9_4 2.364173 1_555
As2_5 Ni6_5 2.398563 1_555
As2_5 Ni0_6 2.418943 1_545
As2_5 Ni0_0 2.418943 1_655
As2_5 Ni2_5 2.424924 1_555
As2_5 Ni2_3 2.424924 1_655
As2_5 Sr0_7 3.151911 1_545
As2_5 Sr0_1 3.151911 1_655
As2_6 Ni8_6 2.277372 1_555
As2_6 Ni9_7 2.364173 1_554
As2_6 Ni6_6 2.398563 1_555
As2_6 Ni0_3 2.418943 1_654
As2_6 Ni0_5 2.418943 1_554
As2_6 Ni2_6 2.424924 1_555
As2_6 Ni2_0 2.424924 1_665
As2_6 Sr0_4 3.151911 1_555
As2_6 Sr0_2 3.151911 1_655
As2_7 Ni8_7 2.277372 1_555
As2_7 Ni9_6 2.364173 1_555
As2_7 Ni6_7 2.398563 1_555
As2_7 Ni0_4 2.418943 1_555
As2_7 Ni0_2 2.418943 1_655
As2_7 Ni2_7 2.424924 1_555
As2_7 Ni2_1 2.424924 1_665
As2_7 Sr0_3 3.151911 1_655
As2_7 Sr0_5 3.151911 1_555
As3_0 Ni0_0 2.277372 1_555
As3_0 Ni6_1 2.364173 1_555
As3_0 Ni9_0 2.398563 1_555
As3_0 Ni8_3 2.418943 1_555
As3_0 Ni8_5 2.418943 1_455
As3_0 Ni2_1 2.424924 1_555
As3_0 Ni2_7 2.424924 1_555
As3_0 Sr1_4 3.151911 1_455
As3_0 Sr1_2 3.151911 1_555
As3_1 Ni0_1 2.277372 1_555
As3_1 Ni6_0 2.364173 1_556
As3_1 Ni9_1 2.398563 1_555
As3_1 Ni8_2 2.418943 1_556
As3_1 Ni8_4 2.418943 1_456
As3_1 Ni2_0 2.424924 1_556
As3_1 Ni2_6 2.424924 1_556
As3_1 Sr1_5 3.151911 1_455
As3_1 Sr1_3 3.151911 1_555
As3_2 Ni0_2 2.277372 1_555
As3_2 Ni6_3 2.364173 1_555
As3_2 Ni9_2 2.398563 1_555
As3_2 Ni8_7 2.418943 1_455
As3_2 Ni8_1 2.418943 1_565
As3_2 Ni2_5 2.424924 1_565
As3_2 Ni2_3 2.424924 1_555
As3_2 Sr1_6 3.151911 1_455
As3_2 Sr1_0 3.151911 1_565
As3_3 Ni0_3 2.277372 1_555
As3_3 Ni6_2 2.364173 1_556
As3_3 Ni9_3 2.398563 1_555
As3_3 Ni8_6 2.418943 1_456
As3_3 Ni8_0 2.418943 1_566
As3_3 Ni2_4 2.424924 1_566
As3_3 Ni2_2 2.424924 1_556
As3_3 Sr1_7 3.151911 1_455
As3_3 Sr1_1 3.151911 1_565
As3_4 Ni0_4 2.277372 1_555
As3_4 Ni6_5 2.364173 1_555
As3_4 Ni9_4 2.398563 1_555
As3_4 Ni8_7 2.418943 1_555
As3_4 Ni8_1 2.418943 1_555
As3_4 Ni2_5 2.424924 1_555
As3_4 Ni2_3 2.424924 1_655
As3_4 Sr1_0 3.151911 1_555
As3_4 Sr1_6 3.151911 1_555
As3_5 Ni0_5 2.277372 1_555
As3_5 Ni6_4 2.364173 1_556
As3_5 Ni9_5 2.398563 1_555
As3_5 Ni8_0 2.418943 1_556
As3_5 Ni8_6 2.418943 1_556
As3_5 Ni2_4 2.424924 1_556
As3_5 Ni2_2 2.424924 1_656
As3_5 Sr1_1 3.151911 1_555
As3_5 Sr1_7 3.151911 1_555
As3_6 Ni0_6 2.277372 1_555
As3_6 Ni6_7 2.364173 1_555
As3_6 Ni9_6 2.398563 1_555
As3_6 Ni8_3 2.418943 1_555
As3_6 Ni8_5 2.418943 1_565
As3_6 Ni2_1 2.424924 1_665
As3_6 Ni2_7 2.424924 1_555
As3_6 Sr1_2 3.151911 1_555
As3_6 Sr1_4 3.151911 1_565
As3_7 Ni0_7 2.277372 1_555
As3_7 Ni6_6 2.364173 1_556
As3_7 Ni9_7 2.398563 1_555
As3_7 Ni8_2 2.418943 1_556
As3_7 Ni8_4 2.418943 1_566
As3_7 Ni2_0 2.424924 1_666
As3_7 Ni2_6 2.424924 1_556
As3_7 Sr1_3 3.151911 1_555
As3_7 Sr1_5 3.151911 1_565
As4_0 Ni1_0 2.375255 1_555
As4_0 Ni8_0 2.375255 1_555
As4_0 Ni5_4 2.381309 1_555
As4_0 Ni6_4 2.381309 1_555
As4_0 Ni5_2 2.381309 1_545
As4_0 Ni6_2 2.381309 1_545
As4_0 Sr0_4 3.282185 1_555
As4_0 Sr0_2 3.282185 1_545
As4_0 Sr0_6 3.370323 1_545
As4_1 Ni1_1 2.375255 1_555
As4_1 Ni8_1 2.375255 1_555
As4_1 Ni6_5 2.381309 1_555
As4_1 Ni6_3 2.381309 1_545
As4_1 Ni5_5 2.381309 1_555
As4_1 Ni5_3 2.381309 1_545
As4_1 Sr0_5 3.282185 1_555
As4_1 Sr0_3 3.282185 1_545
As4_1 Sr0_7 3.370323 1_545
As4_2 Ni1_2 2.375255 1_555
As4_2 Ni8_2 2.375255 1_555
As4_2 Ni6_6 2.381309 1_555
As4_2 Ni5_6 2.381309 1_555
As4_2 Ni6_0 2.381309 1_555
As4_2 Ni5_0 2.381309 1_555
As4_2 Sr0_6 3.282185 1_555
As4_2 Sr0_0 3.282185 1_555
As4_2 Sr0_4 3.370323 1_555
As4_3 Ni1_3 2.375255 1_555
As4_3 Ni8_3 2.375255 1_555
As4_3 Ni6_7 2.381309 1_555
As4_3 Ni6_1 2.381309 1_555
As4_3 Ni5_7 2.381309 1_555
As4_3 Ni5_1 2.381309 1_555
As4_3 Sr0_7 3.282185 1_555
As4_3 Sr0_1 3.282185 1_555
As4_3 Sr0_5 3.370323 1_555
As4_4 Ni1_4 2.375255 1_555
As4_4 Ni8_4 2.375255 1_555
As4_4 Ni6_0 2.381309 1_655
As4_4 Ni5_0 2.381309 1_655
As4_4 Ni6_6 2.381309 1_545
As4_4 Ni5_6 2.381309 1_545
As4_4 Sr0_6 3.282185 1_545
As4_4 Sr0_0 3.282185 1_655
As4_4 Sr0_2 3.370323 1_645
As4_5 Ni1_5 2.375255 1_555
As4_5 Ni8_5 2.375255 1_555
As4_5 Ni6_1 2.381309 1_655
As4_5 Ni5_1 2.381309 1_655
As4_5 Ni6_7 2.381309 1_545
As4_5 Ni5_7 2.381309 1_545
As4_5 Sr0_7 3.282185 1_545
As4_5 Sr0_1 3.282185 1_655
As4_5 Sr0_3 3.370323 1_645
As4_6 Ni1_6 2.375255 1_555
As4_6 Ni8_6 2.375255 1_555
As4_6 Ni6_2 2.381309 1_655
As4_6 Ni5_2 2.381309 1_655
As4_6 Ni6_4 2.381309 1_555
As4_6 Ni5_4 2.381309 1_555
As4_6 Sr0_4 3.282185 1_555
As4_6 Sr0_2 3.282185 1_655
As4_6 Sr0_0 3.370323 1_655
As4_7 Ni1_7 2.375255 1_555
As4_7 Ni8_7 2.375255 1_555
As4_7 Ni6_3 2.381309 1_655
As4_7 Ni6_5 2.381309 1_555
As4_7 Ni5_3 2.381309 1_655
As4_7 Ni5_5 2.381309 1_555
As4_7 Sr0_3 3.282185 1_655
As4_7 Sr0_5 3.282185 1_555
As4_7 Sr0_1 3.370323 1_655
As5_0 Ni7_0 2.277372 1_555
As5_0 Ni5_0 2.364173 1_555
As5_0 Ni4_0 2.398563 1_555
As5_0 Ni1_2 2.418943 1_555
As5_0 Ni1_4 2.418943 1_455
As5_0 Ni3_0 2.424924 1_555
As5_0 Ni3_6 2.424924 1_555
As5_0 Sr1_4 3.151911 1_455
As5_0 Sr1_2 3.151911 1_555
As5_1 Ni7_1 2.277372 1_555
As5_1 Ni5_1 2.364173 1_555
As5_1 Ni4_1 2.398563 1_555
As5_1 Ni1_3 2.418943 1_555
As5_1 Ni1_5 2.418943 1_455
As5_1 Ni3_1 2.424924 1_555
As5_1 Ni3_7 2.424924 1_555
As5_1 Sr1_5 3.151911 1_455
As5_1 Sr1_3 3.151911 1_555
As5_2 Ni7_2 2.277372 1_555
As5_2 Ni5_2 2.364173 1_555
As5_2 Ni4_2 2.398563 1_555
As5_2 Ni1_6 2.418943 1_455
As5_2 Ni1_0 2.418943 1_565
As5_2 Ni3_2 2.424924 1_555
As5_2 Ni3_4 2.424924 1_565
As5_2 Sr1_6 3.151911 1_455
As5_2 Sr1_0 3.151911 1_565
As5_3 Ni7_3 2.277372 1_555
As5_3 Ni5_3 2.364173 1_555
As5_3 Ni4_3 2.398563 1_555
As5_3 Ni1_7 2.418943 1_455
As5_3 Ni1_1 2.418943 1_565
As5_3 Ni3_3 2.424924 1_555
As5_3 Ni3_5 2.424924 1_565
As5_3 Sr1_7 3.151911 1_455
As5_3 Sr1_1 3.151911 1_565
As5_4 Ni7_4 2.277372 1_555
As5_4 Ni5_4 2.364173 1_555
As5_4 Ni4_4 2.398563 1_555
As5_4 Ni1_6 2.418943 1_555
As5_4 Ni1_0 2.418943 1_555
As5_4 Ni3_4 2.424924 1_555
As5_4 Ni3_2 2.424924 1_655
As5_4 Sr1_0 3.151911 1_555
As5_4 Sr1_6 3.151911 1_555
As5_5 Ni7_5 2.277372 1_555
As5_5 Ni5_5 2.364173 1_555
As5_5 Ni4_5 2.398563 1_555
As5_5 Ni1_7 2.418943 1_555
As5_5 Ni1_1 2.418943 1_555
As5_5 Ni3_5 2.424924 1_555
As5_5 Ni3_3 2.424924 1_655
As5_5 Sr1_7 3.151911 1_555
As5_5 Sr1_1 3.151911 1_555
As5_6 Ni7_6 2.277372 1_555
As5_6 Ni5_6 2.364173 1_555
As5_6 Ni4_6 2.398563 1_555
As5_6 Ni1_2 2.418943 1_555
As5_6 Ni1_4 2.418943 1_565
As5_6 Ni3_0 2.424924 1_665
As5_6 Ni3_6 2.424924 1_555
As5_6 Sr1_2 3.151911 1_555
As5_6 Sr1_4 3.151911 1_565
As5_7 Ni7_7 2.277372 1_555
As5_7 Ni5_7 2.364173 1_555
As5_7 Ni4_7 2.398563 1_555
As5_7 Ni1_3 2.418943 1_555
As5_7 Ni1_5 2.418943 1_565
As5_7 Ni3_1 2.424924 1_665
As5_7 Ni3_7 2.424924 1_555
As5_7 Sr1_3 3.151911 1_555
As5_7 Sr1_5 3.151911 1_565
