# generated using pymatgen
data_Li4MnCo2O7
_symmetry_space_group_name_H-M   'P 1'
_cell_length_a   5.15001998
_cell_length_b   7.71852731
_cell_length_c   7.65829315
_cell_angle_alpha   64.20479296
_cell_angle_beta   83.14441006
_cell_angle_gamma   108.31304288
_symmetry_Int_Tables_number   1
_chemical_formula_structural   Li4MnCo2O7
_chemical_formula_sum   'Li8 Mn2 Co4 O14'
_cell_volume   248.25229381
_cell_formula_units_Z   2
loop_
 _symmetry_equiv_pos_site_id
 _symmetry_equiv_pos_as_xyz
  1  'x, y, z'
loop_
 _atom_site_type_symbol
 _atom_site_label
 _atom_site_symmetry_multiplicity
 _atom_site_fract_x
 _atom_site_fract_y
 _atom_site_fract_z
 _atom_site_occupancy
  Li  Li0  1  0.56766100  0.07075900  0.78773800  1
  Li  Li1  1  0.00546400  0.50422400  0.49943500  1
  Li  Li2  1  0.42961700  0.93622500  0.21631800  1
  Li  Li3  1  0.86540600  0.36329300  0.93100200  1
  Li  Li4  1  0.27945600  0.78114300  0.64197100  1
  Li  Li5  1  0.71692700  0.21619300  0.34840900  1
  Li  Li6  1  0.14023300  0.63103600  0.07465300  1
  Li  Li7  1  0.28354000  0.28646400  0.14232800  1
  Mn  Mn0  1  0.99977600  0.00172700  0.00059900  1
  Mn  Mn1  1  0.14209000  0.14406700  0.56831800  1
  Co  Co0  1  0.42348000  0.42780700  0.71693500  1
  Co  Co1  1  0.87069700  0.86026700  0.42724100  1
  Co  Co2  1  0.70289400  0.70290900  0.86224000  1
  Co  Co3  1  0.56324200  0.56805400  0.28319200  1
  O  O0  1  0.13092000  0.90835900  0.81997000  1
  O  O1  1  0.52695900  0.31503200  0.54405400  1
  O  O2  1  0.00114500  0.76517900  0.23623700  1
  O  O3  1  0.38877000  0.18008100  0.95338500  1
  O  O4  1  0.85605000  0.61536800  0.66911200  1
  O  O5  1  0.27232400  0.03929300  0.40807600  1
  O  O6  1  0.71811500  0.48355000  0.10277700  1
  O  O7  1  0.99338200  0.22833300  0.75623600  1
  O  O8  1  0.45043800  0.66467200  0.46917600  1
  O  O9  1  0.85613100  0.08500500  0.18123200  1
  O  O10  1  0.31342100  0.54254100  0.87609400  1
  O  O11  1  0.75049500  0.96802200  0.60950600  1
  O  O12  1  0.14921100  0.38384000  0.33768600  1
  O  O13  1  0.60215500  0.82656000  0.03608000  1
loop_
_geom_bond_atom_site_label_1
_geom_bond_atom_site_label_2
_geom_bond_distance
_geom_bond_site_symmetry_2
Li0 O7 2.070510 1_555
Li0 O3 2.076338 1_555
Li0 O1 2.088294 1_555
Li0 O13 2.091073 1_546
Li0 O11 2.117289 1_545
Li0 O0 2.125465 1_545
Li1 O12 2.039839 1_555
Li1 O4 2.040312 1_455
Li1 O2 2.150760 1_555
Li1 O7 2.156147 1_455
Li1 O8 2.163087 1_555
Li1 O1 2.329226 1_455
Li2 O9 2.054555 1_565
Li2 O2 2.132871 1_555
Li2 O5 2.140890 1_565
Li2 O13 2.146627 1_555
Li2 O3 2.166343 1_564
Li2 O8 2.193840 1_555
Li3 O6 2.105815 1_556
Li3 O4 2.120432 1_555
Li3 O9 2.149343 1_556
Li3 O10 2.161148 1_655
Li3 O7 2.178325 1_555
Li3 O3 2.358350 1_555
Li4 O10 2.010119 1_555
Li4 O5 2.033605 1_565
Li4 O4 2.083796 1_455
Li4 O8 2.142278 1_555
Li4 O0 2.189880 1_555
Li4 O11 2.317800 1_555
Li5 O6 2.099519 1_555
Li5 O9 2.131604 1_555
Li5 O5 2.135056 1_555
Li5 O11 2.157425 1_545
Li5 O12 2.165867 1_655
Li5 O1 2.213133 1_555
Li6 O6 2.046428 1_455
Li6 O12 2.105469 1_555
Li6 O2 2.118008 1_555
Li6 O10 2.130117 1_554
Li6 O0 2.200383 1_554
Li6 O13 2.283013 1_555
Li7 O3 2.046504 1_554
Li7 O5 2.075690 1_555
Li7 O10 2.077046 1_554
Li7 O12 2.083297 1_555
Li7 O9 2.154331 1_455
Li7 O6 2.170817 1_555
Mn0 O3 1.923527 1_654
Mn0 O9 1.924175 1_555
Mn0 O2 1.932289 1_645
Mn0 O7 1.940273 1_554
Mn0 O0 1.959464 1_644
Mn0 O13 1.975525 1_545
Mn1 O5 1.902075 1_555
Mn1 O12 1.908683 1_555
Mn1 O1 1.938950 1_555
Mn1 O11 1.940633 1_445
Mn1 O0 1.970703 1_545
Mn1 O7 1.986250 1_455
Co0 O3 1.913525 1_555
Co0 O10 1.918627 1_555
Co0 O8 1.928856 1_555
Co0 O1 1.980069 1_555
Co0 O4 2.123644 1_555
Co0 O7 2.159122 1_455
Co1 O9 1.958411 1_565
Co1 O4 1.959494 1_555
Co1 O2 2.034520 1_655
Co1 O11 2.037390 1_555
Co1 O5 2.040613 1_665
Co1 O8 2.103677 1_555
Co2 O6 1.915625 1_556
Co2 O10 1.959924 1_555
Co2 O11 2.029310 1_555
Co2 O4 2.047533 1_555
Co2 O13 2.050501 1_556
Co2 O0 2.159811 1_655
Co3 O6 1.954163 1_555
Co3 O8 1.980270 1_555
Co3 O13 1.993642 1_555
Co3 O12 2.026899 1_555
Co3 O1 2.031255 1_555
Co3 O2 2.168916 1_655
