# generated using pymatgen
data_Y5(CoTe)2
_symmetry_space_group_name_H-M   'P 1'
_cell_length_a   15.79833864
_cell_length_b   15.79833864
_cell_length_c   30.02839964
_cell_angle_alpha   90.00000000
_cell_angle_beta   90.00000000
_cell_angle_gamma   151.08356989
_symmetry_Int_Tables_number   1
_chemical_formula_structural   Y5(CoTe)2
_chemical_formula_sum   'Y80 Co32 Te32'
_cell_volume   3623.94429291
_cell_formula_units_Z   16
loop_
 _symmetry_equiv_pos_site_id
 _symmetry_equiv_pos_as_xyz
  1  'x, y, z'
loop_
 _atom_site_type_symbol
 _atom_site_label
 _atom_site_symmetry_multiplicity
 _atom_site_fract_x
 _atom_site_fract_y
 _atom_site_fract_z
 _atom_site_occupancy
  Y  Y0_0  1  0.48071688  0.01928311  0.06149058  1
  Y  Y0_1  1  0.48071688  0.01928311  0.56149058  1
  Y  Y0_2  1  0.48071688  0.51928312  0.06149058  1
  Y  Y0_3  1  0.48071688  0.51928312  0.56149058  1
  Y  Y0_4  1  0.98071688  0.01928311  0.06149058  1
  Y  Y0_5  1  0.98071688  0.01928311  0.56149058  1
  Y  Y0_6  1  0.98071688  0.51928312  0.06149058  1
  Y  Y0_7  1  0.98071688  0.51928312  0.56149058  1
  Y  Y1_0  1  0.01928312  0.48071688  0.43850943  1
  Y  Y1_1  1  0.01928312  0.48071688  0.93850943  1
  Y  Y1_2  1  0.01928312  0.98071688  0.43850943  1
  Y  Y1_3  1  0.01928312  0.98071688  0.93850943  1
  Y  Y1_4  1  0.51928312  0.48071688  0.43850943  1
  Y  Y1_5  1  0.51928312  0.48071688  0.93850943  1
  Y  Y1_6  1  0.51928312  0.98071688  0.43850943  1
  Y  Y1_7  1  0.51928312  0.98071688  0.93850943  1
  Y  Y2_0  1  0.01928312  0.48071688  0.31149058  1
  Y  Y2_1  1  0.01928312  0.48071688  0.81149058  1
  Y  Y2_2  1  0.01928312  0.98071688  0.31149058  1
  Y  Y2_3  1  0.01928312  0.98071688  0.81149058  1
  Y  Y2_4  1  0.51928312  0.48071688  0.31149058  1
  Y  Y2_5  1  0.51928312  0.48071688  0.81149058  1
  Y  Y2_6  1  0.51928312  0.98071688  0.31149058  1
  Y  Y2_7  1  0.51928312  0.98071688  0.81149058  1
  Y  Y3_0  1  0.48071688  0.01928311  0.18850943  1
  Y  Y3_1  1  0.48071688  0.01928311  0.68850943  1
  Y  Y3_2  1  0.48071688  0.51928312  0.18850943  1
  Y  Y3_3  1  0.48071688  0.51928312  0.68850943  1
  Y  Y3_4  1  0.98071688  0.01928311  0.18850943  1
  Y  Y3_5  1  0.98071688  0.01928311  0.68850943  1
  Y  Y3_6  1  0.98071688  0.51928312  0.18850943  1
  Y  Y3_7  1  0.98071688  0.51928312  0.68850943  1
  Y  Y4_0  1  0.37198478  0.12801522  0.31483975  1
  Y  Y4_1  1  0.37198478  0.12801522  0.81483976  1
  Y  Y4_2  1  0.37198478  0.62801522  0.31483975  1
  Y  Y4_3  1  0.37198478  0.62801522  0.81483976  1
  Y  Y4_4  1  0.87198478  0.12801522  0.31483975  1
  Y  Y4_5  1  0.87198478  0.12801522  0.81483976  1
  Y  Y4_6  1  0.87198478  0.62801522  0.31483975  1
  Y  Y4_7  1  0.87198478  0.62801522  0.81483976  1
  Y  Y5_0  1  0.12801522  0.37198478  0.18516025  1
  Y  Y5_1  1  0.12801522  0.37198478  0.68516025  1
  Y  Y5_2  1  0.12801522  0.87198478  0.18516025  1
  Y  Y5_3  1  0.12801522  0.87198478  0.68516025  1
  Y  Y5_4  1  0.62801522  0.37198478  0.18516025  1
  Y  Y5_5  1  0.62801522  0.37198478  0.68516025  1
  Y  Y5_6  1  0.62801522  0.87198478  0.18516025  1
  Y  Y5_7  1  0.62801522  0.87198478  0.68516025  1
  Y  Y6_0  1  0.12801522  0.37198478  0.06483976  1
  Y  Y6_1  1  0.12801522  0.37198478  0.56483976  1
  Y  Y6_2  1  0.12801522  0.87198478  0.06483976  1
  Y  Y6_3  1  0.12801522  0.87198478  0.56483976  1
  Y  Y6_4  1  0.62801522  0.37198478  0.06483976  1
  Y  Y6_5  1  0.62801522  0.37198478  0.56483976  1
  Y  Y6_6  1  0.62801522  0.87198478  0.06483976  1
  Y  Y6_7  1  0.62801522  0.87198478  0.56483976  1
  Y  Y7_0  1  0.37198478  0.12801522  0.43516025  1
  Y  Y7_1  1  0.37198478  0.12801522  0.93516025  1
  Y  Y7_2  1  0.37198478  0.62801522  0.43516025  1
  Y  Y7_3  1  0.37198478  0.62801522  0.93516025  1
  Y  Y7_4  1  0.87198478  0.12801522  0.43516025  1
  Y  Y7_5  1  0.87198478  0.12801522  0.93516025  1
  Y  Y7_6  1  0.87198478  0.62801522  0.43516025  1
  Y  Y7_7  1  0.87198478  0.62801522  0.93516025  1
  Y  Y8_0  1  0.30165070  0.19834931  0.12500000  1
  Y  Y8_1  1  0.30165070  0.19834931  0.62500000  1
  Y  Y8_2  1  0.30165070  0.69834931  0.12500000  1
  Y  Y8_3  1  0.30165070  0.69834931  0.62500000  1
  Y  Y8_4  1  0.80165069  0.19834931  0.12500000  1
  Y  Y8_5  1  0.80165069  0.19834931  0.62500000  1
  Y  Y8_6  1  0.80165070  0.69834931  0.12500000  1
  Y  Y8_7  1  0.80165070  0.69834931  0.62500000  1
  Y  Y9_0  1  0.19834930  0.30165070  0.37500000  1
  Y  Y9_1  1  0.19834930  0.30165070  0.87500000  1
  Y  Y9_2  1  0.19834931  0.80165069  0.37500000  1
  Y  Y9_3  1  0.19834931  0.80165069  0.87500000  1
  Y  Y9_4  1  0.69834931  0.30165070  0.37500000  1
  Y  Y9_5  1  0.69834931  0.30165070  0.87500000  1
  Y  Y9_6  1  0.69834931  0.80165069  0.37500000  1
  Y  Y9_7  1  0.69834931  0.80165069  0.87500000  1
  Co  Co0_0  1  0.20525548  0.29474452  0.12500000  1
  Co  Co0_1  1  0.20525548  0.29474452  0.62500000  1
  Co  Co0_2  1  0.20525548  0.79474452  0.12500000  1
  Co  Co0_3  1  0.20525548  0.79474452  0.62500000  1
  Co  Co0_4  1  0.70525548  0.29474452  0.12500000  1
  Co  Co0_5  1  0.70525548  0.29474452  0.62500000  1
  Co  Co0_6  1  0.70525548  0.79474452  0.12500000  1
  Co  Co0_7  1  0.70525548  0.79474452  0.62500000  1
  Co  Co1_0  1  0.29474452  0.20525548  0.37500000  1
  Co  Co1_1  1  0.29474452  0.20525548  0.87500000  1
  Co  Co1_2  1  0.29474452  0.70525548  0.37500000  1
  Co  Co1_3  1  0.29474452  0.70525548  0.87500000  1
  Co  Co1_4  1  0.79474452  0.20525548  0.37500000  1
  Co  Co1_5  1  0.79474452  0.20525548  0.87500000  1
  Co  Co1_6  1  0.79474452  0.70525548  0.37500000  1
  Co  Co1_7  1  0.79474452  0.70525548  0.87500000  1
  Co  Co2_0  1  0.41204676  0.08795324  0.12500000  1
  Co  Co2_1  1  0.41204676  0.08795324  0.62500000  1
  Co  Co2_2  1  0.41204676  0.58795324  0.12500000  1
  Co  Co2_3  1  0.41204676  0.58795324  0.62500000  1
  Co  Co2_4  1  0.91204676  0.08795324  0.12500000  1
  Co  Co2_5  1  0.91204676  0.08795324  0.62500000  1
  Co  Co2_6  1  0.91204676  0.58795324  0.12500000  1
  Co  Co2_7  1  0.91204676  0.58795324  0.62500000  1
  Co  Co3_0  1  0.08795324  0.41204676  0.37500000  1
  Co  Co3_1  1  0.08795324  0.41204676  0.87500000  1
  Co  Co3_2  1  0.08795324  0.91204676  0.37500000  1
  Co  Co3_3  1  0.08795324  0.91204676  0.87500000  1
  Co  Co3_4  1  0.58795324  0.41204676  0.37500000  1
  Co  Co3_5  1  0.58795324  0.41204676  0.87500000  1
  Co  Co3_6  1  0.58795324  0.91204676  0.37500000  1
  Co  Co3_7  1  0.58795324  0.91204676  0.87500000  1
  Te  Te0_0  1  0.30893905  0.19106095  0.01903690  1
  Te  Te0_1  1  0.30893905  0.19106095  0.51903690  1
  Te  Te0_2  1  0.30893905  0.69106095  0.01903690  1
  Te  Te0_3  1  0.30893905  0.69106095  0.51903690  1
  Te  Te0_4  1  0.80893905  0.19106095  0.01903690  1
  Te  Te0_5  1  0.80893905  0.19106095  0.51903690  1
  Te  Te0_6  1  0.80893905  0.69106095  0.01903690  1
  Te  Te0_7  1  0.80893905  0.69106095  0.51903690  1
  Te  Te1_0  1  0.19106095  0.30893905  0.48096310  1
  Te  Te1_1  1  0.19106095  0.30893905  0.98096310  1
  Te  Te1_2  1  0.19106095  0.80893905  0.48096310  1
  Te  Te1_3  1  0.19106095  0.80893905  0.98096310  1
  Te  Te1_4  1  0.69106095  0.30893905  0.48096310  1
  Te  Te1_5  1  0.69106095  0.30893905  0.98096310  1
  Te  Te1_6  1  0.69106095  0.80893905  0.48096310  1
  Te  Te1_7  1  0.69106095  0.80893905  0.98096310  1
  Te  Te2_0  1  0.19106095  0.30893905  0.26903690  1
  Te  Te2_1  1  0.19106095  0.30893905  0.76903690  1
  Te  Te2_2  1  0.19106095  0.80893905  0.26903690  1
  Te  Te2_3  1  0.19106095  0.80893905  0.76903690  1
  Te  Te2_4  1  0.69106095  0.30893905  0.26903690  1
  Te  Te2_5  1  0.69106095  0.30893905  0.76903690  1
  Te  Te2_6  1  0.69106095  0.80893905  0.26903690  1
  Te  Te2_7  1  0.69106095  0.80893905  0.76903690  1
  Te  Te3_0  1  0.30893905  0.19106095  0.23096310  1
  Te  Te3_1  1  0.30893905  0.19106095  0.73096310  1
  Te  Te3_2  1  0.30893905  0.69106095  0.23096310  1
  Te  Te3_3  1  0.30893905  0.69106095  0.73096310  1
  Te  Te3_4  1  0.80893905  0.19106095  0.23096310  1
  Te  Te3_5  1  0.80893905  0.19106095  0.73096310  1
  Te  Te3_6  1  0.80893905  0.69106095  0.23096310  1
  Te  Te3_7  1  0.80893905  0.69106095  0.73096310  1
loop_
_geom_bond_atom_site_label_1
_geom_bond_atom_site_label_2
_geom_bond_distance
_geom_bond_site_symmetry_2
Y0_0 Y8_4 3.498111 1_555
Y0_0 Y8_2 3.498111 1_545
Y0_0 Y6_4 3.711274 1_555
Y0_0 Y6_2 3.711274 1_545
Y0_0 Y1_7 3.876860 1_544
Y0_1 Y8_5 3.498111 1_555
Y0_1 Y8_3 3.498111 1_545
Y0_1 Y6_5 3.711274 1_555
Y0_1 Y6_3 3.711274 1_545
Y0_1 Y1_6 3.876860 1_545
Y0_2 Y8_6 3.498111 1_555
Y0_2 Y8_0 3.498111 1_555
Y0_2 Y6_0 3.711274 1_555
Y0_2 Y6_6 3.711274 1_555
Y0_2 Y1_5 3.876860 1_554
Y0_3 Y8_7 3.498111 1_555
Y0_3 Y8_1 3.498111 1_555
Y0_3 Y6_7 3.711274 1_555
Y0_3 Y6_1 3.711274 1_555
Y0_3 Y1_4 3.876860 1_555
Y0_4 Y8_6 3.498111 1_545
Y0_4 Y8_0 3.498111 1_655
Y0_4 Y6_0 3.711274 1_655
Y0_4 Y6_6 3.711274 1_545
Y0_4 Y1_3 3.876860 1_644
Y0_5 Y8_7 3.498111 1_545
Y0_5 Y8_1 3.498111 1_655
Y0_5 Y6_1 3.711274 1_655
Y0_5 Y6_7 3.711274 1_545
Y0_5 Y1_2 3.876860 1_645
Y0_6 Y8_2 3.498111 1_655
Y0_6 Y8_4 3.498111 1_555
Y0_6 Y6_2 3.711274 1_655
Y0_6 Y6_4 3.711274 1_555
Y0_6 Y1_1 3.876860 1_654
Y0_7 Y8_5 3.498111 1_555
Y0_7 Y8_3 3.498111 1_655
Y0_7 Y6_3 3.711274 1_655
Y0_7 Y6_5 3.711274 1_555
Y0_7 Y1_0 3.876860 1_655
Y1_0 Y9_4 3.498111 1_455
Y1_0 Y9_2 3.498111 1_555
Y1_0 Y7_2 3.711274 1_555
Y1_0 Y7_4 3.711274 1_455
Y1_1 Y9_5 3.498111 1_455
Y1_1 Y9_3 3.498111 1_555
Y1_1 Y7_3 3.711274 1_555
Y1_1 Y7_5 3.711274 1_455
Y1_2 Y9_6 3.498111 1_455
Y1_2 Y9_0 3.498111 1_565
Y1_2 Y7_0 3.711274 1_565
Y1_2 Y7_6 3.711274 1_455
Y1_3 Y9_7 3.498111 1_455
Y1_3 Y9_1 3.498111 1_565
Y1_3 Y7_1 3.711274 1_565
Y1_3 Y7_7 3.711274 1_455
Y1_4 Y9_6 3.498111 1_555
Y1_4 Y9_0 3.498111 1_555
Y1_4 Y7_6 3.711274 1_555
Y1_4 Y7_0 3.711274 1_555
Y1_5 Y9_7 3.498111 1_555
Y1_5 Y9_1 3.498111 1_555
Y1_5 Y7_1 3.711274 1_555
Y1_5 Y7_7 3.711274 1_555
Y1_6 Y9_2 3.498111 1_555
Y1_6 Y9_4 3.498111 1_565
Y1_6 Y7_4 3.711274 1_565
Y1_6 Y7_2 3.711274 1_555
Y1_7 Y9_5 3.498111 1_565
Y1_7 Y9_3 3.498111 1_555
Y1_7 Y7_3 3.711274 1_555
Y1_7 Y7_5 3.711274 1_565
Y2_0 Y9_2 3.498111 1_555
Y2_0 Y9_4 3.498111 1_455
Y2_0 Y4_2 3.711274 1_555
Y2_0 Y4_4 3.711274 1_455
Y2_0 Y3_6 3.876860 1_455
Y2_1 Y9_5 3.498111 1_455
Y2_1 Y9_3 3.498111 1_555
Y2_1 Y4_3 3.711274 1_555
Y2_1 Y4_5 3.711274 1_455
Y2_1 Y3_7 3.876860 1_455
Y2_2 Y9_6 3.498111 1_455
Y2_2 Y9_0 3.498111 1_565
Y2_2 Y4_0 3.711274 1_565
Y2_2 Y4_6 3.711274 1_455
Y2_2 Y3_4 3.876860 1_465
Y2_3 Y9_7 3.498111 1_455
Y2_3 Y9_1 3.498111 1_565
Y2_3 Y4_1 3.711274 1_565
Y2_3 Y4_7 3.711274 1_455
Y2_3 Y3_5 3.876860 1_465
Y2_4 Y9_6 3.498111 1_555
Y2_4 Y9_0 3.498111 1_555
Y2_4 Y4_6 3.711274 1_555
Y2_4 Y4_0 3.711274 1_555
Y2_4 Y3_2 3.876860 1_555
Y2_5 Y9_7 3.498111 1_555
Y2_5 Y9_1 3.498111 1_555
Y2_5 Y4_7 3.711274 1_555
Y2_5 Y4_1 3.711274 1_555
Y2_5 Y3_3 3.876860 1_555
Y2_6 Y9_4 3.498111 1_565
Y2_6 Y9_2 3.498111 1_555
Y2_6 Y4_4 3.711274 1_565
Y2_6 Y4_2 3.711274 1_555
Y2_6 Y3_0 3.876860 1_565
Y2_7 Y9_5 3.498111 1_565
Y2_7 Y9_3 3.498111 1_555
Y2_7 Y4_3 3.711274 1_555
Y2_7 Y4_5 3.711274 1_565
Y2_7 Y3_1 3.876860 1_565
Y3_0 Y8_4 3.498111 1_555
Y3_0 Y8_2 3.498111 1_545
Y3_0 Y5_4 3.711274 1_555
Y3_0 Y5_2 3.711274 1_545
Y3_1 Y8_5 3.498111 1_555
Y3_1 Y8_3 3.498111 1_545
Y3_1 Y5_5 3.711274 1_555
Y3_1 Y5_3 3.711274 1_545
Y3_2 Y8_6 3.498111 1_555
Y3_2 Y8_0 3.498111 1_555
Y3_2 Y5_6 3.711274 1_555
Y3_2 Y5_0 3.711274 1_555
Y3_3 Y8_7 3.498111 1_555
Y3_3 Y8_1 3.498111 1_555
Y3_3 Y5_7 3.711274 1_555
Y3_3 Y5_1 3.711274 1_555
Y3_4 Y8_6 3.498111 1_545
Y3_4 Y8_0 3.498111 1_655
Y3_4 Y5_0 3.711274 1_655
Y3_4 Y5_6 3.711274 1_545
Y3_5 Y8_7 3.498111 1_545
Y3_5 Y8_1 3.498111 1_655
Y3_5 Y5_1 3.711274 1_655
Y3_5 Y5_7 3.711274 1_545
Y3_6 Y8_2 3.498111 1_655
Y3_6 Y8_4 3.498111 1_555
Y3_6 Y5_4 3.711274 1_555
Y3_6 Y5_2 3.711274 1_655
Y3_7 Y8_5 3.498111 1_555
Y3_7 Y8_3 3.498111 1_655
Y3_7 Y5_3 3.711274 1_655
Y3_7 Y5_5 3.711274 1_555
Y4_0 Y9_4 3.551357 1_555
Y4_0 Y9_2 3.551357 1_545
Y4_1 Y9_5 3.551357 1_555
Y4_1 Y9_3 3.551357 1_545
Y4_2 Y9_0 3.551357 1_555
Y4_2 Y9_6 3.551357 1_555
Y4_3 Y9_1 3.551357 1_555
Y4_3 Y9_7 3.551357 1_555
Y4_4 Y9_0 3.551357 1_655
Y4_4 Y9_6 3.551357 1_545
Y4_5 Y9_1 3.551357 1_655
Y4_5 Y9_7 3.551357 1_545
Y4_6 Y9_4 3.551357 1_555
Y4_6 Y9_2 3.551357 1_655
Y4_7 Y9_5 3.551357 1_555
Y4_7 Y9_3 3.551357 1_655
Y5_0 Y8_2 3.551357 1_555
Y5_0 Y8_4 3.551357 1_455
Y5_1 Y8_3 3.551357 1_555
Y5_1 Y8_5 3.551357 1_455
Y5_2 Y8_6 3.551357 1_455
Y5_2 Y8_0 3.551357 1_565
Y5_3 Y8_1 3.551357 1_565
Y5_3 Y8_7 3.551357 1_455
Y5_4 Y8_0 3.551357 1_555
Y5_4 Y8_6 3.551357 1_555
Y5_5 Y8_1 3.551357 1_555
Y5_5 Y8_7 3.551357 1_555
Y5_6 Y8_2 3.551357 1_555
Y5_6 Y8_4 3.551357 1_565
Y5_7 Y8_3 3.551357 1_555
Y5_7 Y8_5 3.551357 1_565
Y6_0 Y8_2 3.551357 1_555
Y6_0 Y8_4 3.551357 1_455
Y6_1 Y8_3 3.551357 1_555
Y6_1 Y8_5 3.551357 1_455
Y6_2 Y8_0 3.551357 1_565
Y6_2 Y8_6 3.551357 1_455
Y6_3 Y8_1 3.551357 1_565
Y6_3 Y8_7 3.551357 1_455
Y6_4 Y8_0 3.551357 1_555
Y6_4 Y8_6 3.551357 1_555
Y6_5 Y8_1 3.551357 1_555
Y6_5 Y8_7 3.551357 1_555
Y6_6 Y8_2 3.551357 1_555
Y6_6 Y8_4 3.551357 1_565
Y6_7 Y8_3 3.551357 1_555
Y6_7 Y8_5 3.551357 1_565
Y7_0 Y9_4 3.551357 1_555
Y7_0 Y9_2 3.551357 1_545
Y7_1 Y9_5 3.551357 1_555
Y7_1 Y9_3 3.551357 1_545
Y7_2 Y9_0 3.551357 1_555
Y7_2 Y9_6 3.551357 1_555
Y7_3 Y9_1 3.551357 1_555
Y7_3 Y9_7 3.551357 1_555
Y7_4 Y9_0 3.551357 1_655
Y7_4 Y9_6 3.551357 1_545
Y7_5 Y9_1 3.551357 1_655
Y7_5 Y9_7 3.551357 1_545
Y7_6 Y9_4 3.551357 1_555
Y7_6 Y9_2 3.551357 1_655
Y7_7 Y9_5 3.551357 1_555
Y7_7 Y9_3 3.551357 1_655
Y8_0 Y8_6 3.944433 1_445
Y8_0 Y8_6 3.944433 1_555
Y8_1 Y8_7 3.944433 1_445
Y8_1 Y8_7 3.944433 1_555
Y8_2 Y8_4 3.944433 1_565
Y8_2 Y8_4 3.944433 1_455
Y8_3 Y8_5 3.944433 1_565
Y8_3 Y8_5 3.944433 1_455
Y9_0 Y9_6 3.944433 1_555
Y9_0 Y9_6 3.944433 1_445
Y9_1 Y9_7 3.944433 1_555
Y9_1 Y9_7 3.944433 1_445
Y9_2 Y9_4 3.944433 1_565
Y9_2 Y9_4 3.944433 1_455
Y9_3 Y9_5 3.944433 1_455
Y9_3 Y9_5 3.944433 1_565
Co0_0 Co2_4 2.374312 1_455
Co0_0 Co2_2 2.374312 1_555
Co0_0 Y0_2 2.851926 1_555
Co0_0 Y0_4 2.851926 1_455
Co0_0 Y3_2 2.851926 1_555
Co0_0 Y3_4 2.851926 1_455
Co0_0 Y8_0 2.949309 1_555
Co0_0 Y6_0 2.974630 1_555
Co0_0 Y5_0 2.974630 1_555
Co0_1 Co2_5 2.374312 1_455
Co0_1 Co2_3 2.374312 1_555
Co0_1 Y0_3 2.851926 1_555
Co0_1 Y0_5 2.851926 1_455
Co0_1 Y3_5 2.851926 1_455
Co0_1 Y3_3 2.851926 1_555
Co0_1 Y8_1 2.949309 1_555
Co0_1 Y6_1 2.974630 1_555
Co0_1 Y5_1 2.974630 1_555
Co0_2 Co2_6 2.374312 1_455
Co0_2 Co2_0 2.374312 1_565
Co0_2 Y0_6 2.851926 1_455
Co0_2 Y0_0 2.851926 1_565
Co0_2 Y3_6 2.851926 1_455
Co0_2 Y3_0 2.851926 1_565
Co0_2 Y8_2 2.949309 1_555
Co0_2 Y6_2 2.974630 1_555
Co0_2 Y5_2 2.974630 1_555
Co0_3 Co2_7 2.374312 1_455
Co0_3 Co2_1 2.374312 1_565
Co0_3 Y0_1 2.851926 1_565
Co0_3 Y0_7 2.851926 1_455
Co0_3 Y3_7 2.851926 1_455
Co0_3 Y3_1 2.851926 1_565
Co0_3 Y8_3 2.949309 1_555
Co0_3 Y6_3 2.974630 1_555
Co0_3 Y5_3 2.974630 1_555
Co0_4 Co2_0 2.374312 1_555
Co0_4 Co2_6 2.374312 1_555
Co0_4 Y0_6 2.851926 1_555
Co0_4 Y3_6 2.851926 1_555
Co0_4 Y0_0 2.851926 1_555
Co0_4 Y3_0 2.851926 1_555
Co0_4 Y8_4 2.949309 1_555
Co0_4 Y6_4 2.974630 1_555
Co0_4 Y5_4 2.974630 1_555
Co0_5 Co2_1 2.374312 1_555
Co0_5 Co2_7 2.374312 1_555
Co0_5 Y0_7 2.851926 1_555
Co0_5 Y0_1 2.851926 1_555
Co0_5 Y3_1 2.851926 1_555
Co0_5 Y3_7 2.851926 1_555
Co0_5 Y8_5 2.949309 1_555
Co0_5 Y6_5 2.974630 1_555
Co0_5 Y5_5 2.974630 1_555
Co0_6 Co2_2 2.374312 1_555
Co0_6 Co2_4 2.374312 1_565
Co0_6 Y0_2 2.851926 1_555
Co0_6 Y3_2 2.851926 1_555
Co0_6 Y0_4 2.851926 1_565
Co0_6 Y3_4 2.851926 1_565
Co0_6 Y8_6 2.949309 1_555
Co0_6 Y6_6 2.974630 1_555
Co0_6 Y5_6 2.974630 1_555
Co0_7 Co2_3 2.374312 1_555
Co0_7 Co2_5 2.374312 1_565
Co0_7 Y0_5 2.851926 1_565
Co0_7 Y0_3 2.851926 1_555
Co0_7 Y3_3 2.851926 1_555
Co0_7 Y3_5 2.851926 1_565
Co0_7 Y8_7 2.949309 1_555
Co0_7 Y6_7 2.974630 1_555
Co0_7 Y5_7 2.974630 1_555
Co1_0 Co3_4 2.374312 1_555
Co1_0 Co3_2 2.374312 1_545
Co1_0 Y2_2 2.851926 1_545
Co1_0 Y2_4 2.851926 1_555
Co1_0 Y1_4 2.851926 1_555
Co1_0 Y1_2 2.851926 1_545
Co1_0 Y9_0 2.949309 1_555
Co1_0 Y7_0 2.974630 1_555
Co1_0 Y4_0 2.974630 1_555
Co1_1 Co3_5 2.374312 1_555
Co1_1 Co3_3 2.374312 1_545
Co1_1 Y1_3 2.851926 1_545
Co1_1 Y1_5 2.851926 1_555
Co1_1 Y2_5 2.851926 1_555
Co1_1 Y2_3 2.851926 1_545
Co1_1 Y9_1 2.949309 1_555
Co1_1 Y4_1 2.974630 1_555
Co1_1 Y7_1 2.974630 1_555
Co1_2 Co3_0 2.374312 1_555
Co1_2 Co3_6 2.374312 1_555
Co1_2 Y2_6 2.851926 1_555
Co1_2 Y2_0 2.851926 1_555
Co1_2 Y1_6 2.851926 1_555
Co1_2 Y1_0 2.851926 1_555
Co1_2 Y9_2 2.949309 1_555
Co1_2 Y4_2 2.974630 1_555
Co1_2 Y7_2 2.974630 1_555
Co1_3 Co3_1 2.374312 1_555
Co1_3 Co3_7 2.374312 1_555
Co1_3 Y2_7 2.851926 1_555
Co1_3 Y1_7 2.851926 1_555
Co1_3 Y2_1 2.851926 1_555
Co1_3 Y1_1 2.851926 1_555
Co1_3 Y9_3 2.949309 1_555
Co1_3 Y4_3 2.974630 1_555
Co1_3 Y7_3 2.974630 1_555
Co1_4 Co3_0 2.374312 1_655
Co1_4 Co3_6 2.374312 1_545
Co1_4 Y2_0 2.851926 1_655
Co1_4 Y2_6 2.851926 1_545
Co1_4 Y1_0 2.851926 1_655
Co1_4 Y1_6 2.851926 1_545
Co1_4 Y9_4 2.949309 1_555
Co1_4 Y7_4 2.974630 1_555
Co1_4 Y4_4 2.974630 1_555
Co1_5 Co3_1 2.374312 1_655
Co1_5 Co3_7 2.374312 1_545
Co1_5 Y2_1 2.851926 1_655
Co1_5 Y1_1 2.851926 1_655
Co1_5 Y2_7 2.851926 1_545
Co1_5 Y1_7 2.851926 1_545
Co1_5 Y9_5 2.949309 1_555
Co1_5 Y7_5 2.974630 1_555
Co1_5 Y4_5 2.974630 1_555
Co1_6 Co3_2 2.374312 1_655
Co1_6 Co3_4 2.374312 1_555
Co1_6 Y2_2 2.851926 1_655
Co1_6 Y2_4 2.851926 1_555
Co1_6 Y1_2 2.851926 1_655
Co1_6 Y1_4 2.851926 1_555
Co1_6 Y9_6 2.949309 1_555
Co1_6 Y4_6 2.974630 1_555
Co1_6 Y7_6 2.974630 1_555
Co1_7 Co3_3 2.374312 1_655
Co1_7 Co3_5 2.374312 1_555
Co1_7 Y2_3 2.851926 1_655
Co1_7 Y1_3 2.851926 1_655
Co1_7 Y1_5 2.851926 1_555
Co1_7 Y2_5 2.851926 1_555
Co1_7 Y9_7 2.949309 1_555
Co1_7 Y4_7 2.974630 1_555
Co1_7 Y7_7 2.974630 1_555
Co2_0 Y0_0 2.837484 1_555
Co2_0 Y3_0 2.837484 1_555
Co2_0 Y6_2 2.870069 1_545
Co2_0 Y6_4 2.870069 1_555
Co2_0 Y5_2 2.870069 1_545
Co2_0 Y5_4 2.870069 1_555
Co2_0 Y8_0 3.377679 1_555
Co2_1 Y0_1 2.837484 1_555
Co2_1 Y3_1 2.837484 1_555
Co2_1 Y6_3 2.870069 1_545
Co2_1 Y6_5 2.870069 1_555
Co2_1 Y5_3 2.870069 1_545
Co2_1 Y5_5 2.870069 1_555
Co2_1 Y8_1 3.377679 1_555
Co2_2 Y0_2 2.837484 1_555
Co2_2 Y3_2 2.837484 1_555
Co2_2 Y6_0 2.870069 1_555
Co2_2 Y6_6 2.870069 1_555
Co2_2 Y5_6 2.870069 1_555
Co2_2 Y5_0 2.870069 1_555
Co2_2 Y8_2 3.377679 1_555
Co2_3 Y0_3 2.837484 1_555
Co2_3 Y3_3 2.837484 1_555
Co2_3 Y6_7 2.870069 1_555
Co2_3 Y6_1 2.870069 1_555
Co2_3 Y5_1 2.870069 1_555
Co2_3 Y5_7 2.870069 1_555
Co2_3 Y8_3 3.377679 1_555
Co2_4 Y0_4 2.837484 1_555
Co2_4 Y3_4 2.837484 1_555
Co2_4 Y6_6 2.870069 1_545
Co2_4 Y6_0 2.870069 1_655
Co2_4 Y5_6 2.870069 1_545
Co2_4 Y5_0 2.870069 1_655
Co2_4 Y8_4 3.377679 1_555
Co2_5 Y0_5 2.837484 1_555
Co2_5 Y3_5 2.837484 1_555
Co2_5 Y6_7 2.870069 1_545
Co2_5 Y6_1 2.870069 1_655
Co2_5 Y5_7 2.870069 1_545
Co2_5 Y5_1 2.870069 1_655
Co2_5 Y8_5 3.377679 1_555
Co2_6 Y0_6 2.837484 1_555
Co2_6 Y3_6 2.837484 1_555
Co2_6 Y6_4 2.870069 1_555
Co2_6 Y6_2 2.870069 1_655
Co2_6 Y5_4 2.870069 1_555
Co2_6 Y5_2 2.870069 1_655
Co2_6 Y8_6 3.377679 1_555
Co2_7 Y0_7 2.837484 1_555
Co2_7 Y3_7 2.837484 1_555
Co2_7 Y6_5 2.870069 1_555
Co2_7 Y6_3 2.870069 1_655
Co2_7 Y5_5 2.870069 1_555
Co2_7 Y5_3 2.870069 1_655
Co2_7 Y8_7 3.377679 1_555
Co3_0 Y2_0 2.837484 1_555
Co3_0 Y1_0 2.837484 1_555
Co3_0 Y7_4 2.870069 1_455
Co3_0 Y4_4 2.870069 1_455
Co3_0 Y7_2 2.870069 1_555
Co3_0 Y4_2 2.870069 1_555
Co3_0 Y9_0 3.377679 1_555
Co3_1 Y1_1 2.837484 1_555
Co3_1 Y2_1 2.837484 1_555
Co3_1 Y4_5 2.870069 1_455
Co3_1 Y7_5 2.870069 1_455
Co3_1 Y4_3 2.870069 1_555
Co3_1 Y7_3 2.870069 1_555
Co3_1 Y9_1 3.377679 1_555
Co3_2 Y2_2 2.837484 1_555
Co3_2 Y1_2 2.837484 1_555
Co3_2 Y4_6 2.870069 1_455
Co3_2 Y7_6 2.870069 1_455
Co3_2 Y4_0 2.870069 1_565
Co3_2 Y7_0 2.870069 1_565
Co3_2 Y9_2 3.377679 1_555
Co3_3 Y1_3 2.837484 1_555
Co3_3 Y2_3 2.837484 1_555
Co3_3 Y7_1 2.870069 1_565
Co3_3 Y4_7 2.870069 1_455
Co3_3 Y4_1 2.870069 1_565
Co3_3 Y7_7 2.870069 1_455
Co3_3 Y9_3 3.377679 1_555
Co3_4 Y2_4 2.837484 1_555
Co3_4 Y1_4 2.837484 1_555
Co3_4 Y4_6 2.870069 1_555
Co3_4 Y7_6 2.870069 1_555
Co3_4 Y4_0 2.870069 1_555
Co3_4 Y7_0 2.870069 1_555
Co3_4 Y9_4 3.377679 1_555
Co3_5 Y2_5 2.837484 1_555
Co3_5 Y1_5 2.837484 1_555
Co3_5 Y4_7 2.870069 1_555
Co3_5 Y7_7 2.870069 1_555
Co3_5 Y4_1 2.870069 1_555
Co3_5 Y7_1 2.870069 1_555
Co3_5 Y9_5 3.377679 1_555
Co3_6 Y2_6 2.837484 1_555
Co3_6 Y1_6 2.837484 1_555
Co3_6 Y4_4 2.870069 1_565
Co3_6 Y4_2 2.870069 1_555
Co3_6 Y7_4 2.870069 1_565
Co3_6 Y7_2 2.870069 1_555
Co3_6 Y9_6 3.377679 1_555
Co3_7 Y2_7 2.837484 1_555
Co3_7 Y1_7 2.837484 1_555
Co3_7 Y7_5 2.870069 1_565
Co3_7 Y4_5 2.870069 1_565
Co3_7 Y4_3 2.870069 1_555
Co3_7 Y7_3 2.870069 1_555
Co3_7 Y9_7 3.377679 1_555
Te0_0 Y7_1 3.172475 1_554
Te0_0 Y8_0 3.189707 1_555
Te0_0 Y6_2 3.201252 1_545
Te0_0 Y6_4 3.201252 1_555
Te0_0 Y1_3 3.347989 1_544
Te0_0 Y1_5 3.347989 1_554
Te0_0 Y0_4 3.353000 1_455
Te0_0 Y0_2 3.353000 1_555
Te0_0 Te1_1 3.783475 1_554
Te0_1 Y7_0 3.172475 1_555
Te0_1 Y8_1 3.189707 1_555
Te0_1 Y6_3 3.201252 1_545
Te0_1 Y6_5 3.201252 1_555
Te0_1 Y1_2 3.347989 1_545
Te0_1 Y1_4 3.347989 1_555
Te0_1 Y0_5 3.353000 1_455
Te0_1 Y0_3 3.353000 1_555
Te0_1 Te1_0 3.783475 1_555
Te0_2 Y7_3 3.172475 1_554
Te0_2 Y8_2 3.189707 1_555
Te0_2 Y6_0 3.201252 1_555
Te0_2 Y6_6 3.201252 1_555
Te0_2 Y1_1 3.347989 1_554
Te0_2 Y1_7 3.347989 1_554
Te0_2 Y0_6 3.353000 1_455
Te0_2 Y0_0 3.353000 1_565
Te0_2 Te1_3 3.783475 1_554
Te0_3 Y7_2 3.172475 1_555
Te0_3 Y8_3 3.189707 1_555
Te0_3 Y6_1 3.201252 1_555
Te0_3 Y6_7 3.201252 1_555
Te0_3 Y1_0 3.347989 1_555
Te0_3 Y1_6 3.347989 1_555
Te0_3 Y0_7 3.353000 1_455
Te0_3 Y0_1 3.353000 1_565
Te0_3 Te1_2 3.783475 1_555
Te0_4 Y7_5 3.172475 1_554
Te0_4 Y8_4 3.189707 1_555
Te0_4 Y6_6 3.201252 1_545
Te0_4 Y6_0 3.201252 1_655
Te0_4 Y1_7 3.347989 1_544
Te0_4 Y1_1 3.347989 1_654
Te0_4 Y0_0 3.353000 1_555
Te0_4 Y0_6 3.353000 1_555
Te0_4 Te1_5 3.783475 1_554
Te0_5 Y7_4 3.172475 1_555
Te0_5 Y8_5 3.189707 1_555
Te0_5 Y6_7 3.201252 1_545
Te0_5 Y6_1 3.201252 1_655
Te0_5 Y1_6 3.347989 1_545
Te0_5 Y1_0 3.347989 1_655
Te0_5 Y0_1 3.353000 1_555
Te0_5 Y0_7 3.353000 1_555
Te0_5 Te1_4 3.783475 1_555
Te0_6 Y7_7 3.172475 1_554
Te0_6 Y8_6 3.189707 1_555
Te0_6 Y6_4 3.201252 1_555
Te0_6 Y6_2 3.201252 1_655
Te0_6 Y1_5 3.347989 1_554
Te0_6 Y1_3 3.347989 1_654
Te0_6 Y0_2 3.353000 1_555
Te0_6 Y0_4 3.353000 1_565
Te0_6 Te1_7 3.783475 1_554
Te0_7 Y7_6 3.172475 1_555
Te0_7 Y8_7 3.189707 1_555
Te0_7 Y6_5 3.201252 1_555
Te0_7 Y6_3 3.201252 1_655
Te0_7 Y1_4 3.347989 1_555
Te0_7 Y1_2 3.347989 1_655
Te0_7 Y0_3 3.353000 1_555
Te0_7 Y0_5 3.353000 1_565
Te0_7 Te1_6 3.783475 1_555
Te1_0 Y6_1 3.172475 1_555
Te1_0 Y9_0 3.189707 1_555
Te1_0 Y7_4 3.201252 1_455
Te1_0 Y7_2 3.201252 1_555
Te1_0 Y0_5 3.347989 1_455
Te1_0 Y0_3 3.347989 1_555
Te1_0 Y1_2 3.353000 1_545
Te1_0 Y1_4 3.353000 1_555
Te1_1 Y6_0 3.172475 1_556
Te1_1 Y9_1 3.189707 1_555
Te1_1 Y7_5 3.201252 1_455
Te1_1 Y7_3 3.201252 1_555
Te1_1 Y0_4 3.347989 1_456
Te1_1 Y0_2 3.347989 1_556
Te1_1 Y1_3 3.353000 1_545
Te1_1 Y1_5 3.353000 1_555
Te1_2 Y6_3 3.172475 1_555
Te1_2 Y9_2 3.189707 1_555
Te1_2 Y7_6 3.201252 1_455
Te1_2 Y7_0 3.201252 1_565
Te1_2 Y0_7 3.347989 1_455
Te1_2 Y0_1 3.347989 1_565
Te1_2 Y1_0 3.353000 1_555
Te1_2 Y1_6 3.353000 1_555
Te1_3 Y6_2 3.172475 1_556
Te1_3 Y9_3 3.189707 1_555
Te1_3 Y7_7 3.201252 1_455
Te1_3 Y7_1 3.201252 1_565
Te1_3 Y0_6 3.347989 1_456
Te1_3 Y0_0 3.347989 1_566
Te1_3 Y1_1 3.353000 1_555
Te1_3 Y1_7 3.353000 1_555
Te1_4 Y6_5 3.172475 1_555
Te1_4 Y9_4 3.189707 1_555
Te1_4 Y7_0 3.201252 1_555
Te1_4 Y7_6 3.201252 1_555
Te1_4 Y0_1 3.347989 1_555
Te1_4 Y0_7 3.347989 1_555
Te1_4 Y1_6 3.353000 1_545
Te1_4 Y1_0 3.353000 1_655
Te1_5 Y6_4 3.172475 1_556
Te1_5 Y9_5 3.189707 1_555
Te1_5 Y7_1 3.201252 1_555
Te1_5 Y7_7 3.201252 1_555
Te1_5 Y0_0 3.347989 1_556
Te1_5 Y0_6 3.347989 1_556
Te1_5 Y1_7 3.353000 1_545
Te1_5 Y1_1 3.353000 1_655
Te1_6 Y6_7 3.172475 1_555
Te1_6 Y9_6 3.189707 1_555
Te1_6 Y7_2 3.201252 1_555
Te1_6 Y7_4 3.201252 1_565
Te1_6 Y0_3 3.347989 1_555
Te1_6 Y0_5 3.347989 1_565
Te1_6 Y1_4 3.353000 1_555
Te1_6 Y1_2 3.353000 1_655
Te1_7 Y6_6 3.172475 1_556
Te1_7 Y9_7 3.189707 1_555
Te1_7 Y7_3 3.201252 1_555
Te1_7 Y7_5 3.201252 1_565
Te1_7 Y0_2 3.347989 1_556
Te1_7 Y0_4 3.347989 1_566
Te1_7 Y1_5 3.353000 1_555
Te1_7 Y1_3 3.353000 1_655
Te2_0 Y5_0 3.172475 1_555
Te2_0 Y9_0 3.189707 1_555
Te2_0 Y4_4 3.201252 1_455
Te2_0 Y4_2 3.201252 1_555
Te2_0 Y3_4 3.347989 1_455
Te2_0 Y3_2 3.347989 1_555
Te2_0 Y2_2 3.353000 1_545
Te2_0 Y2_4 3.353000 1_555
Te2_0 Te3_0 3.783475 1_555
Te2_1 Y5_1 3.172475 1_555
Te2_1 Y9_1 3.189707 1_555
Te2_1 Y4_5 3.201252 1_455
Te2_1 Y4_3 3.201252 1_555
Te2_1 Y3_5 3.347989 1_455
Te2_1 Y3_3 3.347989 1_555
Te2_1 Y2_3 3.353000 1_545
Te2_1 Y2_5 3.353000 1_555
Te2_1 Te3_1 3.783475 1_555
Te2_2 Y5_2 3.172475 1_555
Te2_2 Y9_2 3.189707 1_555
Te2_2 Y4_6 3.201252 1_455
Te2_2 Y4_0 3.201252 1_565
Te2_2 Y3_6 3.347989 1_455
Te2_2 Y3_0 3.347989 1_565
Te2_2 Y2_0 3.353000 1_555
Te2_2 Y2_6 3.353000 1_555
Te2_2 Te3_2 3.783475 1_555
Te2_3 Y5_3 3.172475 1_555
Te2_3 Y9_3 3.189707 1_555
Te2_3 Y4_7 3.201252 1_455
Te2_3 Y4_1 3.201252 1_565
Te2_3 Y3_7 3.347989 1_455
Te2_3 Y3_1 3.347989 1_565
Te2_3 Y2_1 3.353000 1_555
Te2_3 Y2_7 3.353000 1_555
Te2_3 Te3_3 3.783475 1_555
Te2_4 Y5_4 3.172475 1_555
Te2_4 Y9_4 3.189707 1_555
Te2_4 Y4_0 3.201252 1_555
Te2_4 Y4_6 3.201252 1_555
Te2_4 Y3_0 3.347989 1_555
Te2_4 Y3_6 3.347989 1_555
Te2_4 Y2_6 3.353000 1_545
Te2_4 Y2_0 3.353000 1_655
Te2_4 Te3_4 3.783475 1_555
Te2_5 Y5_5 3.172475 1_555
Te2_5 Y9_5 3.189707 1_555
Te2_5 Y4_1 3.201252 1_555
Te2_5 Y4_7 3.201252 1_555
Te2_5 Y3_1 3.347989 1_555
Te2_5 Y3_7 3.347989 1_555
Te2_5 Y2_7 3.353000 1_545
Te2_5 Y2_1 3.353000 1_655
Te2_5 Te3_5 3.783475 1_555
Te2_6 Y5_6 3.172475 1_555
Te2_6 Y9_6 3.189707 1_555
Te2_6 Y4_2 3.201252 1_555
Te2_6 Y4_4 3.201252 1_565
Te2_6 Y3_2 3.347989 1_555
Te2_6 Y3_4 3.347989 1_565
Te2_6 Y2_4 3.353000 1_555
Te2_6 Y2_2 3.353000 1_655
Te2_6 Te3_6 3.783475 1_555
Te2_7 Y5_7 3.172475 1_555
Te2_7 Y9_7 3.189707 1_555
Te2_7 Y4_3 3.201252 1_555
Te2_7 Y4_5 3.201252 1_565
Te2_7 Y3_3 3.347989 1_555
Te2_7 Y3_5 3.347989 1_565
Te2_7 Y2_5 3.353000 1_555
Te2_7 Y2_3 3.353000 1_655
Te2_7 Te3_7 3.783475 1_555
Te3_0 Y4_0 3.172475 1_555
Te3_0 Y8_0 3.189707 1_555
Te3_0 Y5_2 3.201252 1_545
Te3_0 Y5_4 3.201252 1_555
Te3_0 Y2_2 3.347989 1_545
Te3_0 Y2_4 3.347989 1_555
Te3_0 Y3_4 3.353000 1_455
Te3_0 Y3_2 3.353000 1_555
Te3_1 Y4_1 3.172475 1_555
Te3_1 Y8_1 3.189707 1_555
Te3_1 Y5_3 3.201252 1_545
Te3_1 Y5_5 3.201252 1_555
Te3_1 Y2_3 3.347989 1_545
Te3_1 Y2_5 3.347989 1_555
Te3_1 Y3_5 3.353000 1_455
Te3_1 Y3_3 3.353000 1_555
Te3_2 Y4_2 3.172475 1_555
Te3_2 Y8_2 3.189707 1_555
Te3_2 Y5_0 3.201252 1_555
Te3_2 Y5_6 3.201252 1_555
Te3_2 Y2_0 3.347989 1_555
Te3_2 Y2_6 3.347989 1_555
Te3_2 Y3_6 3.353000 1_455
Te3_2 Y3_0 3.353000 1_565
Te3_3 Y4_3 3.172475 1_555
Te3_3 Y8_3 3.189707 1_555
Te3_3 Y5_1 3.201252 1_555
Te3_3 Y5_7 3.201252 1_555
Te3_3 Y2_1 3.347989 1_555
Te3_3 Y2_7 3.347989 1_555
Te3_3 Y3_7 3.353000 1_455
Te3_3 Y3_1 3.353000 1_565
Te3_4 Y4_4 3.172475 1_555
Te3_4 Y8_4 3.189707 1_555
Te3_4 Y5_6 3.201252 1_545
Te3_4 Y5_0 3.201252 1_655
Te3_4 Y2_6 3.347989 1_545
Te3_4 Y2_0 3.347989 1_655
Te3_4 Y3_0 3.353000 1_555
Te3_4 Y3_6 3.353000 1_555
Te3_5 Y4_5 3.172475 1_555
Te3_5 Y8_5 3.189707 1_555
Te3_5 Y5_7 3.201252 1_545
Te3_5 Y5_1 3.201252 1_655
Te3_5 Y2_7 3.347989 1_545
Te3_5 Y2_1 3.347989 1_655
Te3_5 Y3_1 3.353000 1_555
Te3_5 Y3_7 3.353000 1_555
Te3_6 Y4_6 3.172475 1_555
Te3_6 Y8_6 3.189707 1_555
Te3_6 Y5_4 3.201252 1_555
Te3_6 Y5_2 3.201252 1_655
Te3_6 Y2_4 3.347989 1_555
Te3_6 Y2_2 3.347989 1_655
Te3_6 Y3_2 3.353000 1_555
Te3_6 Y3_4 3.353000 1_565
Te3_7 Y4_7 3.172475 1_555
Te3_7 Y8_7 3.189707 1_555
Te3_7 Y5_5 3.201252 1_555
Te3_7 Y5_3 3.201252 1_655
Te3_7 Y2_5 3.347989 1_555
Te3_7 Y2_3 3.347989 1_655
Te3_7 Y3_3 3.353000 1_555
Te3_7 Y3_5 3.353000 1_565
