# generated using pymatgen
data_TaNb(AgO3)2
_symmetry_space_group_name_H-M   'P 1'
_cell_length_a   4.00859700
_cell_length_b   4.00859700
_cell_length_c   8.02223300
_cell_angle_alpha   90.00000000
_cell_angle_beta   90.00000000
_cell_angle_gamma   90.00000000
_symmetry_Int_Tables_number   1
_chemical_formula_structural   TaNb(AgO3)2
_chemical_formula_sum   'Ta1 Nb1 Ag2 O6'
_cell_volume   128.90805801
_cell_formula_units_Z   1
loop_
 _symmetry_equiv_pos_site_id
 _symmetry_equiv_pos_as_xyz
  1  'x, y, z'
loop_
 _atom_site_type_symbol
 _atom_site_label
 _atom_site_symmetry_multiplicity
 _atom_site_fract_x
 _atom_site_fract_y
 _atom_site_fract_z
 _atom_site_occupancy
  Ta  Ta0  1  0.50000000  0.50000000  0.50000000  1
  Nb  Nb0  1  0.50000000  0.50000000  0.00000000  1
  Ag  Ag0  1  0.00000000  0.00000000  0.74998700  1
  Ag  Ag1  1  0.00000000  0.00000000  0.25001300  1
  O  O0  1  0.50000000  0.00000000  0.00000000  1
  O  O1  1  0.50000000  0.00000000  0.50000000  1
  O  O2  1  0.50000000  0.50000000  0.74852300  1
  O  O3  1  0.50000000  0.50000000  0.25147700  1
  O  O4  1  0.00000000  0.50000000  0.00000000  1
  O  O5  1  0.00000000  0.50000000  0.50000000  1
loop_
_geom_bond_atom_site_label_1
_geom_bond_atom_site_label_2
_geom_bond_distance
_geom_bond_site_symmetry_2
Nb0 O0 2.004298 1_555
Nb0 O4 2.004298 1_555
Nb0 O4 2.004298 1_655
Nb0 O0 2.004298 1_565
Nb0 O3 2.017407 1_555
Nb0 O2 2.017407 1_554
Ag0 O2 2.834530 1_455
Ag0 O2 2.834530 1_555
Ag0 O2 2.834530 1_545
Ag0 O2 2.834530 1_445
Ag0 O1 2.835323 1_555
Ag0 O1 2.835323 1_455
Ag0 O5 2.835323 1_555
Ag0 O5 2.835323 1_545
Ag0 O4 2.835471 1_556
Ag0 O4 2.835471 1_546
Ag0 O0 2.835471 1_456
Ag0 O0 2.835471 1_556
Ag1 O3 2.834530 1_545
Ag1 O3 2.834530 1_455
Ag1 O3 2.834530 1_555
Ag1 O3 2.834530 1_445
Ag1 O1 2.835323 1_455
Ag1 O1 2.835323 1_555
Ag1 O5 2.835323 1_555
Ag1 O5 2.835323 1_545
Ag1 O0 2.835471 1_555
Ag1 O0 2.835471 1_455
Ag1 O4 2.835471 1_555
Ag1 O4 2.835471 1_545
O1 Ta0 2.004298 1_545
O1 Ta0 2.004298 1_555
O2 Ta0 1.993709 1_555
O3 Ta0 1.993709 1_555
O5 Ta0 2.004298 1_455
O5 Ta0 2.004298 1_555
