# generated using pymatgen
data_SrMgF4
_symmetry_space_group_name_H-M   'P 1'
_cell_length_a   7.78532819
_cell_length_b   7.78532819
_cell_length_c   5.60093100
_cell_angle_alpha   90.00000000
_cell_angle_beta   90.00000000
_cell_angle_gamma   149.64145125
_symmetry_Int_Tables_number   1
_chemical_formula_structural   SrMgF4
_chemical_formula_sum   'Sr2 Mg2 F8'
_cell_volume   171.57641562
_cell_formula_units_Z   2
loop_
 _symmetry_equiv_pos_site_id
 _symmetry_equiv_pos_as_xyz
  1  'x, y, z'
loop_
 _atom_site_type_symbol
 _atom_site_label
 _atom_site_symmetry_multiplicity
 _atom_site_fract_x
 _atom_site_fract_y
 _atom_site_fract_z
 _atom_site_occupancy
  Sr  Sr0  1  0.66900400  0.33099600  0.75000000  1
  Sr  Sr1  1  0.33099600  0.66900400  0.25000000  1
  Mg  Mg0  1  0.08840700  0.91159300  0.25000000  1
  Mg  Mg1  1  0.91159300  0.08840700  0.75000000  1
  F  F0  1  0.00000000  0.00000000  0.00000000  1
  F  F1  1  0.00000000  0.00000000  0.50000000  1
  F  F2  1  0.18601300  0.81398700  0.49801200  1
  F  F3  1  0.81398700  0.18601300  0.50198800  1
  F  F4  1  0.39888700  0.60111300  0.75000000  1
  F  F5  1  0.60111300  0.39888700  0.25000000  1
  F  F6  1  0.18601300  0.81398700  0.00198800  1
  F  F7  1  0.81398700  0.18601300  0.99801200  1
loop_
_geom_bond_atom_site_label_1
_geom_bond_atom_site_label_2
_geom_bond_distance
_geom_bond_site_symmetry_2
F0 Mg0 1.930192 1_545
F0 Mg1 1.930192 1_454
F0 F6 2.795317 1_545
F0 F7 2.795317 1_454
F1 Mg0 1.930192 1_545
F1 Mg1 1.930192 1_455
F1 F2 2.795317 1_545
F1 F3 2.795317 1_455
F2 Mg0 2.020148 1_555
F2 Sr0 2.492552 1_455
F2 Sr0 2.492552 1_565
F2 Sr1 2.583876 1_555
F2 F5 2.777203 1_455
F2 F5 2.777203 1_565
F2 F6 2.778196 1_555
F2 F3 2.802572 1_565
F2 F3 2.802572 1_455
F2 F6 2.822735 1_556
F3 Mg1 2.020148 1_555
F3 Sr1 2.492552 1_545
F3 Sr1 2.492552 1_655
F3 Sr0 2.583876 1_555
F3 F4 2.777203 1_545
F3 F4 2.777203 1_655
F3 F7 2.778196 1_555
F3 F7 2.822735 1_554
F4 Mg1 2.047434 1_565
F4 Mg1 2.047434 1_455
F4 F7 2.777203 1_565
F4 F7 2.777203 1_455
F4 Sr1 2.980515 1_555
F4 Sr1 2.980515 1_556
F5 Mg0 2.047434 1_655
F5 Mg0 2.047434 1_545
F5 F6 2.777203 1_655
F5 F6 2.777203 1_545
F5 Sr0 2.980515 1_555
F5 Sr0 2.980515 1_554
F6 Mg0 2.020148 1_555
F6 Sr0 2.492552 1_454
F6 Sr0 2.492552 1_564
F6 Sr1 2.583876 1_555
F6 F7 2.802572 1_454
F6 F7 2.802572 1_564
F7 Mg1 2.020148 1_555
F7 Sr1 2.492552 1_546
F7 Sr1 2.492552 1_656
F7 Sr0 2.583876 1_555
