# generated using pymatgen
data_Li9Mn2Co5O16
_symmetry_space_group_name_H-M   'P 1'
_cell_length_a   5.16684500
_cell_length_b   5.91198998
_cell_length_c   10.03461003
_cell_angle_alpha   87.51833411
_cell_angle_beta   100.70593828
_cell_angle_gamma   109.41283087
_symmetry_Int_Tables_number   1
_chemical_formula_structural   Li9Mn2Co5O16
_chemical_formula_sum   'Li9 Mn2 Co5 O16'
_cell_volume   284.00596320
_cell_formula_units_Z   1
loop_
 _symmetry_equiv_pos_site_id
 _symmetry_equiv_pos_as_xyz
  1  'x, y, z'
loop_
 _atom_site_type_symbol
 _atom_site_label
 _atom_site_symmetry_multiplicity
 _atom_site_fract_x
 _atom_site_fract_y
 _atom_site_fract_z
 _atom_site_occupancy
  Li  Li0  1  0.99343300  0.50504200  0.99962500  1
  Li  Li1  1  0.99911600  0.25266500  0.25314500  1
  Li  Li2  1  0.49948900  0.61960400  0.87077700  1
  Li  Li3  1  0.50715600  0.37723800  0.12837000  1
  Li  Li4  1  0.99389000  0.73305000  0.74298500  1
  Li  Li5  1  0.48600700  0.87574800  0.62499600  1
  Li  Li6  1  0.01286200  0.00625200  0.50453300  1
  Li  Li7  1  0.50373900  0.12736100  0.37639900  1
  Li  Li8  1  0.50008000  0.37587200  0.62553900  1
  Mn  Mn0  1  0.99966500  0.99832200  0.00020000  1
  Mn  Mn1  1  0.50071100  0.12891100  0.87094600  1
  Co  Co0  1  0.99844400  0.74723600  0.25390800  1
  Co  Co1  1  0.99946500  0.50230600  0.49964600  1
  Co  Co2  1  0.00644100  0.25346800  0.74290300  1
  Co  Co3  1  0.49975500  0.87380600  0.12531700  1
  Co  Co4  1  0.50016700  0.62470700  0.37693700  1
  O  O0  1  0.24964100  0.28399700  0.92579200  1
  O  O1  1  0.22850000  0.05342400  0.18481700  1
  O  O2  1  0.73834400  0.41770900  0.81734100  1
  O  O3  1  0.72087600  0.17162100  0.05827400  1
  O  O4  1  0.21510000  0.54449000  0.67878900  1
  O  O5  1  0.75855800  0.66394200  0.54421300  1
  O  O6  1  0.23192700  0.79843700  0.44060400  1
  O  O7  1  0.72908300  0.91193700  0.30447400  1
  O  O8  1  0.76796100  0.70253400  0.06362400  1
  O  O9  1  0.77342400  0.44612400  0.31965200  1
  O  O10  1  0.27972000  0.82478600  0.94520300  1
  O  O11  1  0.26800900  0.58546700  0.19559100  1
  O  O12  1  0.74649700  0.96739200  0.81827800  1
  O  O13  1  0.25673300  0.06141500  0.70173500  1
  O  O14  1  0.79044400  0.21287500  0.56451300  1
  O  O15  1  0.24476400  0.35226000  0.44087500  1
loop_
_geom_bond_atom_site_label_1
_geom_bond_atom_site_label_2
_geom_bond_distance
_geom_bond_site_symmetry_2
Li0 O2 2.020697 1_555
Li0 O8 2.092823 1_556
Li0 O10 2.100375 1_655
Li0 O3 2.139459 1_556
Li0 O11 2.168344 1_656
Li0 O0 2.367974 1_655
Li1 O15 2.053597 1_655
Li1 O9 2.086899 1_555
Li1 O11 2.125448 1_655
Li1 O1 2.135916 1_655
Li1 O7 2.139752 1_545
Li1 O3 2.167698 1_555
Li2 O0 2.091702 1_555
Li2 O2 2.125034 1_555
Li2 O8 2.131219 1_556
Li2 O12 2.132040 1_555
Li2 O10 2.151224 1_555
Li2 O4 2.157867 1_555
Li3 O8 2.104957 1_555
Li3 O1 2.106068 1_555
Li3 O3 2.108738 1_555
Li3 O9 2.111153 1_555
Li3 O0 2.193405 1_554
Li3 O11 2.211338 1_555
Li4 O4 2.036353 1_655
Li4 O13 2.042310 1_665
Li4 O2 2.094024 1_555
Li4 O5 2.112600 1_555
Li4 O10 2.245489 1_655
Li4 O12 2.398085 1_555
Li5 O6 2.031707 1_555
Li5 O4 2.110188 1_555
Li5 O13 2.116048 1_565
Li5 O12 2.122055 1_555
Li5 O14 2.231802 1_565
Li5 O5 2.427435 1_555
Li6 O5 2.082664 1_445
Li6 O14 2.104503 1_455
Li6 O6 2.112950 1_545
Li6 O13 2.113342 1_555
Li6 O15 2.137777 1_555
Li6 O7 2.225024 1_445
Li7 O9 2.067268 1_555
Li7 O1 2.133797 1_555
Li7 O14 2.135210 1_555
Li7 O6 2.140365 1_545
Li7 O7 2.208189 1_545
Li7 O15 2.357055 1_555
Li8 O5 2.030430 1_555
Li8 O15 2.045780 1_555
Li8 O2 2.059011 1_555
Li8 O13 2.074101 1_555
Li8 O4 2.182099 1_555
Li8 O14 2.215370 1_555
Mn0 O8 1.921271 1_555
Mn0 O0 1.969046 1_664
Mn0 O1 1.979515 1_665
Mn0 O12 2.014876 1_554
Mn0 O10 2.187122 1_654
Mn0 O3 2.192904 1_565
Mn1 O2 1.866629 1_555
Mn1 O13 1.886918 1_555
Mn1 O12 1.975618 1_545
Mn1 O0 1.981406 1_555
Mn1 O10 1.981698 1_545
Mn1 O3 1.986706 1_556
Co0 O9 1.939953 1_555
Co0 O1 1.984317 1_665
Co0 O6 2.005827 1_655
Co0 O8 2.030660 1_555
Co0 O7 2.085313 1_555
Co0 O11 2.105647 1_655
Co1 O14 1.858563 1_555
Co1 O6 1.906678 1_655
Co1 O4 1.909188 1_655
Co1 O5 1.922761 1_555
Co1 O9 1.935703 1_555
Co1 O15 1.952288 1_655
Co2 O4 1.861510 1_555
Co2 O14 1.903782 1_455
Co2 O12 1.998261 1_445
Co2 O0 2.000179 1_555
Co2 O13 2.085047 1_555
Co2 O2 2.181956 1_455
Co3 O11 1.920847 1_555
Co3 O3 1.924499 1_565
Co3 O10 1.925101 1_554
Co3 O7 1.937236 1_555
Co3 O8 2.152830 1_555
Co3 O1 2.191699 1_565
Co4 O15 1.886681 1_555
Co4 O5 1.910233 1_555
Co4 O7 1.920604 1_555
Co4 O11 1.960790 1_555
Co4 O6 2.171637 1_555
Co4 O9 2.187118 1_555
