# generated using pymatgen
data_Ca5Sn3H
_symmetry_space_group_name_H-M   'P 1'
_cell_length_a   9.44522888
_cell_length_b   9.44522888
_cell_length_c   9.44522888
_cell_angle_alpha   128.63989556
_cell_angle_beta   128.63989556
_cell_angle_gamma   75.59069112
_symmetry_Int_Tables_number   1
_chemical_formula_structural   Ca5Sn3H
_chemical_formula_sum   'Ca10 Sn6 H2'
_cell_volume   500.15588497
_cell_formula_units_Z   2
loop_
 _symmetry_equiv_pos_site_id
 _symmetry_equiv_pos_as_xyz
  1  'x, y, z'
loop_
 _atom_site_type_symbol
 _atom_site_label
 _atom_site_symmetry_multiplicity
 _atom_site_fract_x
 _atom_site_fract_y
 _atom_site_fract_z
 _atom_site_occupancy
  Ca  Ca0  1  0.50000000  0.50000000  -0.00000000  1
  Ca  Ca1  1  0.00000000  -0.00000000  -0.00000000  1
  Ca  Ca2  1  0.51017781  0.01017781  0.82371338  1
  Ca  Ca3  1  0.18646443  0.68646443  0.17628662  1
  Ca  Ca4  1  0.01017781  0.18646443  0.50000000  1
  Ca  Ca5  1  0.68646443  0.51017781  0.50000000  1
  Ca  Ca6  1  0.48982219  0.98982219  0.17628662  1
  Ca  Ca7  1  0.81353557  0.31353557  0.82371338  1
  Ca  Ca8  1  0.98982219  0.81353557  0.50000000  1
  Ca  Ca9  1  0.31353557  0.48982219  0.50000000  1
  Sn  Sn0  1  0.25000000  0.25000000  -0.00000000  1
  Sn  Sn1  1  0.75000000  0.75000000  -0.00000000  1
  Sn  Sn2  1  0.87410004  0.37410004  0.24820108  1
  Sn  Sn3  1  0.12589996  0.62589996  0.75179892  1
  Sn  Sn4  1  0.37410004  0.12589996  0.50000000  1
  Sn  Sn5  1  0.62589996  0.87410004  0.50000000  1
  H  H0  1  0.25000000  0.75000000  0.50000000  1
  H  H1  1  0.75000000  0.25000000  0.50000000  1
loop_
_geom_bond_atom_site_label_1
_geom_bond_atom_site_label_2
_geom_bond_distance
_geom_bond_site_symmetry_2
Ca0 Sn5 3.231191 1_555
Ca0 Sn4 3.231191 1_554
Ca0 Sn3 3.231194 1_554
Ca0 Sn2 3.231194 1_555
Ca0 Sn0 3.731833 1_555
Ca0 Sn1 3.731833 1_555
Ca0 Ca8 3.813686 1_555
Ca0 Ca5 3.813686 1_555
Ca0 Ca4 3.813686 1_554
Ca0 Ca7 3.813686 1_554
Ca0 Ca3 3.813686 1_555
Ca0 Ca2 3.813686 1_554
Ca0 Ca9 3.813686 1_554
Ca0 Ca6 3.813686 1_555
Ca1 Sn5 3.231191 1_444
Ca1 Sn4 3.231191 1_555
Ca1 Sn3 3.231194 1_544
Ca1 Sn2 3.231194 1_455
Ca1 Sn1 3.731833 1_445
Ca1 Sn0 3.731833 1_555
Ca1 Ca6 3.813686 1_545
Ca1 Ca7 3.813686 1_454
Ca1 Ca4 3.813686 1_555
Ca1 Ca5 3.813686 1_444
Ca1 Ca9 3.813686 1_555
Ca1 Ca8 3.813686 1_444
Ca1 Ca3 3.813686 1_545
Ca1 Ca2 3.813686 1_454
Ca2 H0 2.380162 1_545
Ca2 Sn5 3.280537 1_545
Ca2 Sn4 3.280537 1_555
Ca2 Sn2 3.341233 1_556
Ca2 Sn1 3.401741 1_546
Ca2 Sn0 3.401741 1_556
Ca3 H0 2.380162 1_555
Ca3 Sn4 3.280537 1_565
Ca3 Sn5 3.280537 1_555
Ca3 Sn3 3.341243 1_554
Ca3 Sn0 3.401741 1_555
Ca3 Sn1 3.401741 1_455
Ca4 H1 2.380162 1_455
Ca4 Sn2 3.280530 1_455
Ca4 Sn3 3.280540 1_555
Ca4 Sn4 3.341234 1_555
Ca4 Sn1 3.401741 1_445
Ca4 Sn0 3.401741 1_556
Ca5 H1 2.380162 1_555
Ca5 Sn2 3.280530 1_555
Ca5 Sn3 3.280540 1_655
Ca5 Sn5 3.341234 1_555
Ca5 Sn0 3.401741 1_555
Ca5 Sn1 3.401741 1_556
Ca6 H1 2.380162 1_565
Ca6 Sn4 3.280537 1_565
Ca6 Sn5 3.280537 1_555
Ca6 Sn3 3.341233 1_554
Ca6 Sn0 3.401741 1_565
Ca6 Sn1 3.401741 1_555
Ca7 H1 2.380162 1_555
Ca7 Sn4 3.280537 1_555
Ca7 Sn5 3.280537 1_545
Ca7 Sn2 3.341243 1_556
Ca7 Sn0 3.401741 1_656
Ca7 Sn1 3.401741 1_556
Ca8 H0 2.380162 1_655
Ca8 Sn3 3.280530 1_655
Ca8 Sn2 3.280540 1_555
Ca8 Sn5 3.341234 1_555
Ca8 Sn1 3.401741 1_555
Ca8 Sn0 3.401741 1_666
Ca9 H0 2.380162 1_555
Ca9 Sn3 3.280530 1_555
Ca9 Sn2 3.280540 1_455
Ca9 Sn4 3.341234 1_555
Ca9 Sn0 3.401741 1_555
Ca9 Sn1 3.401741 1_556
Sn2 Sn3 2.915046 1_655
Sn4 Sn5 2.915058 1_545
