# generated using pymatgen
data_TaZn2NiO6
_symmetry_space_group_name_H-M   'P 1'
_cell_length_a   7.57602400
_cell_length_b   5.19889800
_cell_length_c   5.38299275
_cell_angle_alpha   86.26412867
_cell_angle_beta   90.00000000
_cell_angle_gamma   90.00000000
_symmetry_Int_Tables_number   1
_chemical_formula_structural   TaZn2NiO6
_chemical_formula_sum   'Ta2 Zn4 Ni2 O12'
_cell_volume   211.56926860
_cell_formula_units_Z   2
loop_
 _symmetry_equiv_pos_site_id
 _symmetry_equiv_pos_as_xyz
  1  'x, y, z'
loop_
 _atom_site_type_symbol
 _atom_site_label
 _atom_site_symmetry_multiplicity
 _atom_site_fract_x
 _atom_site_fract_y
 _atom_site_fract_z
 _atom_site_occupancy
  Ta  Ta0  1  0.00000000  0.00000000  0.50000000  1
  Ta  Ta1  1  0.50000000  0.00000000  0.50000000  1
  Zn  Zn0  1  0.75000000  0.98829500  0.03096500  1
  Zn  Zn1  1  0.75000000  0.50530700  0.55296100  1
  Zn  Zn2  1  0.25000000  0.49469300  0.44703900  1
  Zn  Zn3  1  0.25000000  0.01170500  0.96903500  1
  Ni  Ni0  1  0.00000000  0.50000000  0.00000000  1
  Ni  Ni1  1  0.50000000  0.50000000  0.00000000  1
  O  O0  1  0.43721700  0.17973400  0.17659700  1
  O  O1  1  0.56885500  0.69174600  0.32399200  1
  O  O2  1  0.56278300  0.82026600  0.82340300  1
  O  O3  1  0.06885500  0.30825400  0.67600800  1
  O  O4  1  0.25000000  0.87056200  0.54887200  1
  O  O5  1  0.43114500  0.30825400  0.67600800  1
  O  O6  1  0.93114500  0.69174600  0.32399200  1
  O  O7  1  0.06278300  0.17973400  0.17659700  1
  O  O8  1  0.75000000  0.37349200  0.92561100  1
  O  O9  1  0.93721700  0.82026600  0.82340300  1
  O  O10  1  0.25000000  0.62650800  0.07438900  1
  O  O11  1  0.75000000  0.12943800  0.45112800  1
loop_
_geom_bond_atom_site_label_1
_geom_bond_atom_site_label_2
_geom_bond_distance
_geom_bond_site_symmetry_2
Ni0 O9 1.922493 1_454
Ni0 O7 1.922493 1_555
Ni0 O8 2.052925 1_454
Ni0 O10 2.052925 1_555
Ni0 O6 2.129348 1_455
Ni0 O3 2.129348 1_554
Ni1 O2 1.922493 1_554
Ni1 O0 1.922493 1_555
Ni1 O10 2.052925 1_555
Ni1 O8 2.052925 1_554
Ni1 O1 2.129348 1_555
Ni1 O5 2.129348 1_554
O0 Ta1 1.979405 1_555
O0 Zn3 2.037259 1_554
O0 Zn2 2.668878 1_555
O0 Zn0 2.705928 1_545
O1 Ta1 1.983912 1_565
O1 Zn1 2.046054 1_555
O1 Zn0 2.536032 1_555
O1 Zn2 2.689831 1_555
O2 Ta1 1.979405 1_565
O2 Zn0 2.037259 1_556
O2 Zn1 2.668878 1_555
O2 Zn3 2.705928 1_565
O3 Ta0 1.983912 1_555
O3 Zn2 2.046054 1_555
O3 Zn3 2.536032 1_555
O3 Zn1 2.689831 1_455
O4 Ta1 2.021445 1_565
O4 Ta0 2.021445 1_565
O4 Zn2 2.063638 1_555
O4 Zn3 2.422842 1_565
O5 Ta1 1.983912 1_555
O5 Zn2 2.046054 1_555
O5 Zn3 2.536032 1_555
O5 Zn1 2.689831 1_555
O6 Ta0 1.983912 1_665
O6 Zn1 2.046054 1_555
O6 Zn0 2.536032 1_555
O6 Zn2 2.689831 1_655
O7 Ta0 1.979405 1_555
O7 Zn3 2.037259 1_554
O7 Zn2 2.668878 1_555
O7 Zn0 2.705928 1_445
O8 Zn0 2.045491 1_546
O8 Zn1 2.077116 1_555
O9 Ta0 1.979405 1_665
O9 Zn0 2.037259 1_556
O9 Zn1 2.668878 1_555
O9 Zn3 2.705928 1_665
O10 Zn3 2.045491 1_564
O10 Zn2 2.077116 1_555
O11 Ta0 2.021445 1_655
O11 Ta1 2.021445 1_555
O11 Zn1 2.063638 1_555
O11 Zn0 2.422842 1_545
