# generated using pymatgen
data_CrSb(PO4)2
_symmetry_space_group_name_H-M   'P 1'
_cell_length_a   10.89059141
_cell_length_b   5.89276301
_cell_length_c   4.94989417
_cell_angle_alpha   90.00126619
_cell_angle_beta   95.56940692
_cell_angle_gamma   89.99203544
_symmetry_Int_Tables_number   1
_chemical_formula_structural   CrSb(PO4)2
_chemical_formula_sum   'Cr2 Sb2 P4 O16'
_cell_volume   316.16322192
_cell_formula_units_Z   2
loop_
 _symmetry_equiv_pos_site_id
 _symmetry_equiv_pos_as_xyz
  1  'x, y, z'
loop_
 _atom_site_type_symbol
 _atom_site_label
 _atom_site_symmetry_multiplicity
 _atom_site_fract_x
 _atom_site_fract_y
 _atom_site_fract_z
 _atom_site_occupancy
  Cr  Cr0  1  0.20176300  0.74958900  0.42776000  1
  Cr  Cr1  1  0.79822800  0.25024900  0.57216800  1
  Sb  Sb0  1  0.26625800  0.24993100  0.95510600  1
  Sb  Sb1  1  0.73378100  0.75016500  0.04487300  1
  P  P0  1  0.07239000  0.24987700  0.38140200  1
  P  P1  1  0.37769100  0.75001300  0.88046600  1
  P  P2  1  0.62231000  0.25004500  0.11955500  1
  P  P3  1  0.92758000  0.75009300  0.61860700  1
  O  O0  1  0.06797500  0.75002800  0.67209900  1
  O  O1  1  0.10876300  0.25004400  0.69158900  1
  O  O2  1  0.13156300  0.04038900  0.24469500  1
  O  O3  1  0.13147100  0.45944200  0.24456900  1
  O  O4  1  0.31148700  0.95279300  0.70104100  1
  O  O5  1  0.31154000  0.54711100  0.70105500  1
  O  O6  1  0.33138700  0.74986800  0.16304100  1
  O  O7  1  0.48511600  0.25003200  0.12218700  1
  O  O8  1  0.51489300  0.75001400  0.87790200  1
  O  O9  1  0.66860600  0.24995000  0.83698700  1
  O  O10  1  0.68850800  0.04721800  0.29899900  1
  O  O11  1  0.68850500  0.45284700  0.29896300  1
  O  O12  1  0.86850000  0.54054400  0.75538900  1
  O  O13  1  0.86845200  0.95967200  0.75531200  1
  O  O14  1  0.89123300  0.75004200  0.30839000  1
  O  O15  1  0.93199800  0.25004200  0.32784500  1
loop_
_geom_bond_atom_site_label_1
_geom_bond_atom_site_label_2
_geom_bond_distance
_geom_bond_site_symmetry_2
Cr0 O0 1.981860 1_555
Cr0 O6 2.017142 1_555
Cr0 O3 2.048689 1_555
Cr0 O2 2.051174 1_565
Cr0 O5 2.090142 1_555
Cr0 O4 2.092409 1_555
Cr1 O15 1.981649 1_555
Cr1 O9 2.017481 1_555
Cr1 O12 2.049406 1_555
Cr1 O13 2.050322 1_545
Cr1 O11 2.089983 1_555
Cr1 O10 2.091476 1_555
O0 P3 1.526211 1_455
O1 P0 1.547996 1_555
O1 Sb0 2.051610 1_555
O2 P0 1.575270 1_555
O2 Sb0 2.477895 1_554
O3 P0 1.575631 1_555
O3 Sb0 2.477823 1_554
O4 P1 1.616171 1_555
O4 Sb0 2.238291 1_565
O5 P1 1.616560 1_555
O5 Sb0 2.238753 1_555
O6 P1 1.532192 1_554
O7 P2 1.495444 1_555
O7 Sb0 2.445895 1_554
O8 P1 1.495496 1_555
O8 Sb1 2.446070 1_556
O9 P2 1.532123 1_556
O10 P2 1.616398 1_555
O10 Sb1 2.238207 1_545
O11 P2 1.616305 1_555
O11 Sb1 2.239484 1_555
O12 P3 1.575434 1_555
O12 Sb1 2.477732 1_556
O13 P3 1.575465 1_555
O13 Sb1 2.477535 1_556
O14 P3 1.548094 1_555
O14 Sb1 2.051247 1_555
O15 P0 1.526204 1_655
