# generated using pymatgen
data_Be3SiO6
_symmetry_space_group_name_H-M   'P 1'
_cell_length_a   4.69468200
_cell_length_b   5.26673800
_cell_length_c   17.37395040
_cell_angle_alpha   73.37528194
_cell_angle_beta   90.00000000
_cell_angle_gamma   90.00000000
_symmetry_Int_Tables_number   1
_chemical_formula_structural   Be3SiO6
_chemical_formula_sum   'Be12 Si4 O24'
_cell_volume   411.62551979
_cell_formula_units_Z   4
loop_
 _symmetry_equiv_pos_site_id
 _symmetry_equiv_pos_as_xyz
  1  'x, y, z'
loop_
 _atom_site_type_symbol
 _atom_site_label
 _atom_site_symmetry_multiplicity
 _atom_site_fract_x
 _atom_site_fract_y
 _atom_site_fract_z
 _atom_site_occupancy
  Be  Be0  1  0.09773400  0.04759900  0.61707200  1
  Be  Be1  1  0.59773400  0.95240100  0.88292800  1
  Be  Be2  1  0.90226600  0.95240100  0.38292800  1
  Be  Be3  1  0.40226600  0.04759900  0.11707200  1
  Be  Be4  1  0.40947500  0.69206600  0.46023500  1
  Be  Be5  1  0.90947500  0.30793400  0.03976500  1
  Be  Be6  1  0.59052500  0.30793400  0.53976500  1
  Be  Be7  1  0.09052500  0.69206600  0.96023500  1
  Be  Be8  1  0.58271700  0.50220000  0.79617400  1
  Be  Be9  1  0.08271700  0.49780000  0.70382600  1
  Be  Be10  1  0.41728300  0.49780000  0.20382600  1
  Be  Be11  1  0.91728300  0.50220000  0.29617400  1
  Si  Si0  1  0.08358100  0.26229500  0.87655100  1
  Si  Si1  1  0.58358100  0.73770500  0.62344900  1
  Si  Si2  1  0.91641900  0.73770500  0.12344900  1
  Si  Si3  1  0.41641900  0.26229500  0.37655100  1
  O  O0  1  0.92533200  0.75929800  0.64337100  1
  O  O1  1  0.42533200  0.24070200  0.85662900  1
  O  O2  1  0.07466800  0.24070200  0.35662900  1
  O  O3  1  0.57466800  0.75929800  0.14337100  1
  O  O4  1  0.92570000  0.43410100  0.79228700  1
  O  O5  1  0.42570000  0.56589900  0.70771300  1
  O  O6  1  0.07430000  0.56589900  0.20771300  1
  O  O7  1  0.57430000  0.43410100  0.29228700  1
  O  O8  1  0.43383200  0.03395400  0.59457300  1
  O  O9  1  0.93383200  0.96604600  0.90542700  1
  O  O10  1  0.56616800  0.96604600  0.40542700  1
  O  O11  1  0.06616800  0.03395400  0.09457300  1
  O  O12  1  0.51407200  0.59165400  0.55494100  1
  O  O13  1  0.01407200  0.40834600  0.94505900  1
  O  O14  1  0.48592800  0.40834600  0.44505900  1
  O  O15  1  0.98592800  0.59165400  0.05494100  1
  O  O16  1  0.92269200  0.24883800  0.54935000  1
  O  O17  1  0.42269200  0.75116200  0.95065000  1
  O  O18  1  0.07730800  0.75116200  0.45065000  1
  O  O19  1  0.57730800  0.24883800  0.04935000  1
  O  O20  1  0.05620700  0.23267600  0.67453400  1
  O  O21  1  0.55620700  0.76732400  0.82546600  1
  O  O22  1  0.94379300  0.76732400  0.32546600  1
  O  O23  1  0.44379300  0.23267600  0.17453400  1
loop_
_geom_bond_atom_site_label_1
_geom_bond_atom_site_label_2
_geom_bond_distance
_geom_bond_site_symmetry_2
Be0 O16 1.571449 1_455
Be0 O20 1.594261 1_555
Be0 O8 1.632092 1_555
Be0 O0 1.665061 1_445
Be1 O17 1.571449 1_555
Be1 O21 1.594261 1_555
Be1 O9 1.632092 1_555
Be1 O1 1.665061 1_565
Be2 O18 1.571449 1_655
Be2 O22 1.594261 1_555
Be2 O10 1.632092 1_555
Be2 O2 1.665061 1_665
Be3 O19 1.571449 1_555
Be3 O23 1.594261 1_555
Be3 O11 1.632092 1_555
Be3 O3 1.665061 1_545
Be4 O18 1.589570 1_555
Be4 O14 1.629926 1_555
Be4 O12 1.652359 1_555
Be4 O10 1.656455 1_555
Be5 O19 1.589570 1_555
Be5 O15 1.629926 1_555
Be5 O13 1.652359 1_654
Be5 O11 1.656455 1_655
Be6 O16 1.589570 1_555
Be6 O12 1.629926 1_555
Be6 O14 1.652359 1_555
Be6 O8 1.656455 1_555
Be7 O17 1.589570 1_555
Be7 O13 1.629926 1_555
Be7 O15 1.652359 1_456
Be7 O9 1.656455 1_455
Be8 O21 1.621995 1_555
Be8 O1 1.648700 1_555
Be8 O5 1.650155 1_555
Be8 O4 1.655231 1_555
Be9 O20 1.621995 1_555
Be9 O0 1.648700 1_455
Be9 O4 1.650155 1_455
Be9 O5 1.655231 1_555
Be10 O23 1.621995 1_555
Be10 O3 1.648700 1_555
Be10 O7 1.650155 1_555
Be10 O6 1.655231 1_555
Be11 O22 1.621995 1_555
Be11 O2 1.648700 1_655
Be11 O6 1.650155 1_655
Be11 O7 1.655231 1_555
O0 Si1 1.652089 1_555
O1 Si0 1.652089 1_555
O2 Si3 1.652089 1_555
O3 Si2 1.652089 1_555
O4 Si0 1.659347 1_655
O5 Si1 1.659347 1_555
O6 Si2 1.659347 1_455
O7 Si3 1.659347 1_555
O8 Si1 1.653016 1_545
O9 Si0 1.653016 1_665
O10 Si3 1.653016 1_565
O11 Si2 1.653016 1_445
O12 Si1 1.624428 1_555
O13 Si0 1.624428 1_555
O14 Si3 1.624428 1_555
O15 Si2 1.624428 1_555
