# generated using pymatgen
data_TaVO4
_symmetry_space_group_name_H-M   'P 1'
_cell_length_a   5.65096542
_cell_length_b   5.64934674
_cell_length_c   5.64933815
_cell_angle_alpha   73.11142652
_cell_angle_beta   66.78612348
_cell_angle_gamma   108.36804223
_symmetry_Int_Tables_number   1
_chemical_formula_structural   TaVO4
_chemical_formula_sum   'Ta2 V2 O8'
_cell_volume   138.38557990
_cell_formula_units_Z   2
loop_
 _symmetry_equiv_pos_site_id
 _symmetry_equiv_pos_as_xyz
  1  'x, y, z'
loop_
 _atom_site_type_symbol
 _atom_site_label
 _atom_site_symmetry_multiplicity
 _atom_site_fract_x
 _atom_site_fract_y
 _atom_site_fract_z
 _atom_site_occupancy
  Ta  Ta0  1  0.00000700  0.99998900  0.99998200  1
  Ta  Ta1  1  0.49999300  0.00001100  0.50001800  1
  V  V0  1  0.25000000  0.50000000  0.25000000  1
  V  V1  1  0.75000000  0.49999900  0.74999900  1
  O  O0  1  0.75000000  0.19271200  0.05728800  1
  O  O1  1  0.25000000  0.19270200  0.55729800  1
  O  O2  1  0.75000000  0.80728800  0.44271200  1
  O  O3  1  0.25000000  0.80729800  0.94270200  1
  O  O4  1  0.29795600  0.29799100  0.00003500  1
  O  O5  1  0.79792500  0.29797600  0.50005100  1
  O  O6  1  0.70207400  0.70202400  0.99994900  1
  O  O7  1  0.20204400  0.70200900  0.49996500  1
loop_
_geom_bond_atom_site_label_1
_geom_bond_atom_site_label_2
_geom_bond_distance
_geom_bond_site_symmetry_2
O0 Ta1 2.024797 1_555
O0 Ta0 2.024799 1_644
O0 V1 2.067908 1_554
O0 O5 2.824951 1_555
O0 O6 2.824954 1_544
O0 O4 2.825695 1_655
O0 O7 2.825697 1_545
O1 Ta0 2.024582 1_545
O1 Ta1 2.024584 1_555
O1 V0 2.067975 1_555
O1 O4 2.824934 1_556
O1 O7 2.824938 1_545
O1 O5 2.825540 1_555
O1 O6 2.825544 1_445
O2 Ta0 2.024797 1_654
O2 Ta1 2.024799 1_565
O2 V1 2.067908 1_555
O2 O6 2.824953 1_554
O2 O5 2.824955 1_565
O2 O7 2.825695 1_555
O2 O4 2.825697 1_665
O3 Ta1 2.024582 1_565
O3 Ta0 2.024584 1_555
O3 V0 2.067975 1_556
O3 O7 2.824934 1_555
O3 O4 2.824938 1_566
O3 O5 2.825542 1_565
O3 O6 2.825546 1_455
O4 Ta0 1.970616 1_544
O4 V0 2.049276 1_555
O4 V1 2.050511 1_554
O5 Ta1 1.970371 1_555
O5 V1 2.049256 1_555
O5 V0 2.050651 1_655
O6 Ta0 1.970374 1_655
O6 V1 2.049274 1_555
O6 V0 2.050647 1_556
O7 Ta1 1.970616 1_565
O7 V0 2.049276 1_555
O7 V1 2.050511 1_455
