# generated using pymatgen
data_Mg2Si3
_symmetry_space_group_name_H-M   'P 1'
_cell_length_a   5.53560967
_cell_length_b   5.53560967
_cell_length_c   17.34016893
_cell_angle_alpha   87.07417081
_cell_angle_beta   87.07417081
_cell_angle_gamma   43.78664116
_symmetry_Int_Tables_number   1
_chemical_formula_structural   Mg2Si3
_chemical_formula_sum   'Mg8 Si12'
_cell_volume   367.12710364
_cell_formula_units_Z   4
loop_
 _symmetry_equiv_pos_site_id
 _symmetry_equiv_pos_as_xyz
  1  'x, y, z'
loop_
 _atom_site_type_symbol
 _atom_site_label
 _atom_site_symmetry_multiplicity
 _atom_site_fract_x
 _atom_site_fract_y
 _atom_site_fract_z
 _atom_site_occupancy
  Mg  Mg0  1  0.13896300  0.13896300  0.97698300  1
  Mg  Mg1  1  0.34581900  0.34581900  0.53952800  1
  Mg  Mg2  1  0.97301200  0.97301200  0.81195500  1
  Mg  Mg3  1  0.61087900  0.61087900  0.67344700  1
  Mg  Mg4  1  0.65418100  0.65418100  0.46047200  1
  Mg  Mg5  1  0.86103700  0.86103700  0.02301700  1
  Mg  Mg6  1  0.38912100  0.38912100  0.32655300  1
  Mg  Mg7  1  0.02698800  0.02698800  0.18804500  1
  Si  Si0  1  0.27732000  0.27732000  0.83515300  1
  Si  Si1  1  0.91095100  0.91095100  0.66127600  1
  Si  Si2  1  0.65046900  0.65046900  0.84088700  1
  Si  Si3  1  0.30028600  0.30028600  0.69708700  1
  Si  Si4  1  0.92757600  0.92757600  0.44485000  1
  Si  Si5  1  0.54561700  0.54561700  0.07369100  1
  Si  Si6  1  0.69971400  0.69971400  0.30291300  1
  Si  Si7  1  0.72268000  0.72268000  0.16484700  1
  Si  Si8  1  0.08904900  0.08904900  0.33872400  1
  Si  Si9  1  0.34953100  0.34953100  0.15911300  1
  Si  Si10  1  0.45438300  0.45438300  0.92630900  1
  Si  Si11  1  0.07242400  0.07242400  0.55515000  1
loop_
_geom_bond_atom_site_label_1
_geom_bond_atom_site_label_2
_geom_bond_distance
_geom_bond_site_symmetry_2
Mg0 Si0 2.771998 1_555
Mg0 Si5 2.795584 1_546
Mg0 Si5 2.795584 1_456
Mg0 Mg5 2.921960 1_446
Mg0 Si10 2.968394 1_455
Mg0 Si10 2.968394 1_545
Mg0 Si2 3.132589 1_455
Mg0 Si2 3.132589 1_545
Mg0 Mg5 3.209750 1_546
Mg0 Mg5 3.209750 1_456
Mg0 Si10 3.310283 1_555
Mg1 Si4 2.740354 1_545
Mg1 Si4 2.740354 1_455
Mg1 Si3 2.746372 1_555
Mg1 Si11 2.806683 1_555
Mg1 Si1 3.052955 1_545
Mg1 Si1 3.052955 1_455
Mg1 Si11 3.134048 1_655
Mg1 Si11 3.134048 1_565
Mg1 Mg4 3.211276 1_455
Mg1 Mg4 3.211276 1_545
Mg1 Mg4 3.381709 1_555
Mg2 Si1 2.723315 1_555
Mg2 Si2 2.817111 1_565
Mg2 Si2 2.817111 1_655
Mg2 Si10 2.861365 1_655
Mg2 Si10 2.861365 1_565
Mg2 Si0 2.893909 1_565
Mg2 Si0 2.893909 1_655
Mg2 Si0 3.173729 1_665
Mg2 Si2 3.323773 1_555
Mg2 Mg3 3.414759 1_655
Mg2 Mg3 3.414759 1_565
Mg3 Si3 2.881361 1_655
Mg3 Si3 2.881361 1_565
Mg3 Si1 2.927618 1_545
Mg3 Si1 2.927618 1_455
Mg3 Si11 2.951877 1_655
Mg3 Si11 2.951877 1_565
Mg3 Si2 2.953857 1_555
Mg3 Si1 3.078179 1_555
Mg3 Si3 3.194428 1_555
Mg4 Si11 2.740354 1_565
Mg4 Si11 2.740354 1_655
Mg4 Si6 2.746372 1_555
Mg4 Si4 2.806683 1_555
Mg4 Si8 3.052955 1_655
Mg4 Si8 3.052955 1_565
Mg4 Si4 3.134048 1_455
Mg4 Si4 3.134048 1_545
Mg5 Si7 2.771998 1_555
Mg5 Si10 2.795584 1_564
Mg5 Si10 2.795584 1_654
Mg5 Si5 2.968394 1_655
Mg5 Si5 2.968394 1_565
Mg5 Si9 3.132589 1_655
Mg5 Si9 3.132589 1_565
Mg5 Si5 3.310283 1_555
Mg6 Si6 2.881361 1_455
Mg6 Si6 2.881361 1_545
Mg6 Si8 2.927618 1_655
Mg6 Si8 2.927618 1_565
Mg6 Si4 2.951877 1_545
Mg6 Si4 2.951877 1_455
Mg6 Si9 2.953857 1_555
Mg6 Si8 3.078179 1_555
Mg6 Si6 3.194428 1_555
Mg6 Mg7 3.414759 1_655
Mg6 Mg7 3.414759 1_565
Mg7 Si8 2.723315 1_555
Mg7 Si9 2.817111 1_455
Mg7 Si9 2.817111 1_545
Mg7 Si5 2.861365 1_455
Mg7 Si5 2.861365 1_545
Mg7 Si7 2.893909 1_455
Mg7 Si7 2.893909 1_545
Mg7 Si7 3.173729 1_445
Mg7 Si9 3.323773 1_555
Si0 Si3 2.392734 1_555
Si0 Si2 2.440144 1_545
Si0 Si2 2.440144 1_455
Si0 Si10 2.474530 1_555
Si1 Si11 2.408771 1_665
Si1 Si3 2.420930 1_655
Si1 Si3 2.420930 1_565
Si4 Si8 2.408771 1_665
Si5 Si9 2.433795 1_555
Si5 Si7 2.474530 1_555
Si6 Si7 2.392734 1_555
Si6 Si8 2.420930 1_565
Si6 Si8 2.420930 1_655
Si7 Si9 2.440144 1_565
Si7 Si9 2.440144 1_655
Si10 Si2 2.433795 1_555
Si10 Si5 2.770045 1_556
Si11 Si4 2.487035 1_445
