# generated using pymatgen
data_Sr4LiMn2Cu3(SO)4
_symmetry_space_group_name_H-M   'P 1'
_cell_length_a   5.83710645
_cell_length_b   6.22769522
_cell_length_c   9.04800478
_cell_angle_alpha   94.17207077
_cell_angle_beta   69.84004050
_cell_angle_gamma   93.46565200
_symmetry_Int_Tables_number   1
_chemical_formula_structural   Sr4LiMn2Cu3(SO)4
_chemical_formula_sum   'Sr4 Li1 Mn2 Cu3 S4 O4'
_cell_volume   307.72142970
_cell_formula_units_Z   1
loop_
 _symmetry_equiv_pos_site_id
 _symmetry_equiv_pos_as_xyz
  1  'x, y, z'
loop_
 _atom_site_type_symbol
 _atom_site_label
 _atom_site_symmetry_multiplicity
 _atom_site_fract_x
 _atom_site_fract_y
 _atom_site_fract_z
 _atom_site_occupancy
  Sr  Sr0  1  0.37444000  0.96230500  0.22583000  1
  Sr  Sr1  1  0.91451500  0.44389600  0.18556400  1
  Sr  Sr2  1  0.06930900  0.60807000  0.77760500  1
  Sr  Sr3  1  0.62647700  0.02131600  0.80789600  1
  Li  Li0  1  0.12482500  0.20597500  0.85700900  1
  Mn  Mn0  1  0.50183700  0.49427200  0.99635200  1
  Mn  Mn1  1  0.98275800  0.94255900  0.06769700  1
  Cu  Cu0  1  0.47638500  0.28115500  0.51855100  1
  Cu  Cu1  1  0.54590400  0.71993300  0.47923900  1
  Cu  Cu2  1  0.98255600  0.27689100  0.49815300  1
  S  S0  1  0.18353400  0.01663900  0.61558500  1
  S  S1  1  0.65590200  0.51622300  0.65380300  1
  S  S2  1  0.34249300  0.47976700  0.33804300  1
  S  S3  1  0.80296100  0.00596500  0.35786800  1
  O  O0  1  0.26088500  0.18280200  0.01523000  1
  O  O1  1  0.72094500  0.80194100  0.99253400  1
  O  O2  1  0.81575600  0.31739700  0.94708600  1
  O  O3  1  0.21226600  0.69164300  0.01595500  1
loop_
_geom_bond_atom_site_label_1
_geom_bond_atom_site_label_2
_geom_bond_distance
_geom_bond_site_symmetry_2
Li0 O2 1.859029 1_455
Li0 O0 1.878461 1_556
Li0 S0 2.331845 1_555
Li0 Mn1 2.492740 1_446
Li0 Sr2 2.722531 1_555
Li0 Sr3 3.087096 1_555
Mn0 O2 2.092664 1_555
Mn0 O3 2.100498 1_556
Mn0 O1 2.234087 1_555
Mn0 O0 2.307095 1_556
Mn0 S2 2.912009 1_556
Mn0 S1 2.925607 1_555
Mn1 O1 2.008186 1_554
Mn1 O3 2.042063 1_655
Mn1 O0 2.092350 1_665
Mn1 S3 2.480008 1_565
Cu0 S1 2.275183 1_555
Cu0 S0 2.289558 1_555
Cu0 S2 2.469580 1_555
Cu0 S3 2.608978 1_555
Cu0 Cu1 2.768759 1_555
Cu0 Cu2 2.897789 1_555
Cu0 Cu2 2.949660 1_455
Cu0 Li0 3.093415 1_555
Cu0 Sr2 3.366985 1_555
Cu1 S3 2.335848 1_565
Cu1 S1 2.367582 1_555
Cu1 S2 2.414902 1_555
Cu1 S0 2.784333 1_565
Cu1 Sr2 3.221043 1_555
Cu1 Sr1 3.238364 1_555
Cu1 Sr0 3.287124 1_555
Cu2 S3 2.438975 1_555
Cu2 S2 2.440610 1_655
Cu2 S1 2.455144 1_555
Cu2 S0 2.543958 1_655
Cu2 Sr1 3.238981 1_555
Cu2 Sr2 3.301662 1_655
Cu2 Sr3 3.307820 1_555
Cu2 Sr0 3.331124 1_645
S0 Sr2 2.954942 1_545
S0 Sr3 3.115389 1_455
S0 Sr0 3.309947 1_545
S1 Sr2 3.001344 1_655
S1 Sr2 3.287188 1_555
S1 Sr3 3.336180 1_565
S2 Sr1 3.157851 1_555
S2 Sr0 3.215887 1_555
S2 Sr1 3.233787 1_455
S2 Sr0 3.304060 1_545
S3 Sr0 3.112570 1_545
S3 Sr0 3.153427 1_645
S3 Sr1 3.161788 1_555
O0 Sr3 2.511996 1_554
O0 Sr1 2.644216 1_455
O0 Sr0 2.705055 1_545
O1 Sr3 2.453495 1_565
O1 Sr0 2.557076 1_556
O1 Sr2 2.569801 1_655
O2 Sr1 2.482733 1_556
O2 Sr2 2.516843 1_655
O2 Sr3 2.565467 1_555
O3 Sr1 2.436825 1_455
O3 Sr2 2.577341 1_554
O3 Sr0 2.814918 1_555
O3 Sr3 3.229513 1_564
