# generated using pymatgen
data_BaTiFe3(BiO4)3
_symmetry_space_group_name_H-M   'P 1'
_cell_length_a   9.98012454
_cell_length_b   9.98012454
_cell_length_c   9.98012428
_cell_angle_alpha   32.99552780
_cell_angle_beta   32.99552780
_cell_angle_gamma   32.99552717
_symmetry_Int_Tables_number   1
_chemical_formula_structural   BaTiFe3(BiO4)3
_chemical_formula_sum   'Ba1 Ti1 Fe3 Bi3 O12'
_cell_volume   262.34076064
_cell_formula_units_Z   1
loop_
 _symmetry_equiv_pos_site_id
 _symmetry_equiv_pos_as_xyz
  1  'x, y, z'
loop_
 _atom_site_type_symbol
 _atom_site_label
 _atom_site_symmetry_multiplicity
 _atom_site_fract_x
 _atom_site_fract_y
 _atom_site_fract_z
 _atom_site_occupancy
  Ba  Ba0  1  0.25935600  0.25935600  0.25935600  1
  Ti  Ti0  1  0.87902800  0.87902800  0.87902800  1
  Fe  Fe0  1  0.38562300  0.38562300  0.38562300  1
  Fe  Fe1  1  0.63359700  0.63359700  0.63359700  1
  Fe  Fe2  1  0.13693700  0.13693700  0.13693700  1
  Bi  Bi0  1  0.74393600  0.74393600  0.74393600  1
  Bi  Bi1  1  0.99301500  0.99301500  0.99301500  1
  Bi  Bi2  1  0.49345800  0.49345800  0.49345800  1
  O  O0  1  0.80045200  0.75398800  0.24771300  1
  O  O1  1  0.35076800  0.20584300  0.75080400  1
  O  O2  1  0.75398800  0.24771300  0.80045200  1
  O  O3  1  0.20584300  0.75080400  0.35076800  1
  O  O4  1  0.24771300  0.80045200  0.75398800  1
  O  O5  1  0.75080400  0.35076800  0.20584300  1
  O  O6  1  0.07359700  0.51934900  0.95190800  1
  O  O7  1  0.58398800  0.00488400  0.46369700  1
  O  O8  1  0.51934900  0.95190800  0.07359700  1
  O  O9  1  0.00488400  0.46369700  0.58398800  1
  O  O10  1  0.95190800  0.07359700  0.51934900  1
  O  O11  1  0.46369700  0.58398800  0.00488400  1
loop_
_geom_bond_atom_site_label_1
_geom_bond_atom_site_label_2
_geom_bond_distance
_geom_bond_site_symmetry_2
Ba0 O0 2.713692 1_455
Ba0 O4 2.713692 1_545
Ba0 O2 2.713692 1_554
Ba0 O6 2.775299 1_554
Ba0 O8 2.775299 1_545
Ba0 O10 2.775299 1_455
Ba0 O0 2.976068 1_545
Ba0 O2 2.976068 1_455
Ba0 O4 2.976068 1_554
Ba0 O9 3.114278 1_555
Ba0 O7 3.114278 1_555
Ba0 O11 3.114278 1_555
Fe0 O11 1.991879 1_555
Fe0 O7 1.991879 1_555
Fe0 O9 1.991879 1_555
Fe0 O1 2.138783 1_555
Fe0 O3 2.138783 1_555
Fe0 O5 2.138783 1_555
Fe1 O0 1.971040 1_555
Fe1 O4 1.971041 1_555
Fe1 O2 1.971041 1_555
Fe1 O11 2.154592 1_556
Fe1 O9 2.154592 1_655
Fe1 O7 2.154592 1_565
Fe2 O1 2.024626 1_554
Fe2 O5 2.024627 1_455
Fe2 O3 2.024627 1_545
Fe2 O10 2.112981 1_455
Fe2 O8 2.112981 1_545
Fe2 O6 2.112981 1_554
Bi0 O7 2.334590 1_565
Bi0 O9 2.334590 1_655
Bi0 O11 2.334590 1_556
Bi0 O5 2.527669 1_556
Bi0 O1 2.527669 1_565
Bi0 O3 2.527669 1_655
Bi1 O4 2.273682 1_655
Bi1 O2 2.273682 1_565
Bi1 O0 2.273682 1_556
Bi1 O7 2.588533 1_566
Bi1 O11 2.588533 1_656
Bi1 O9 2.588533 1_665
Bi2 O5 2.284498 1_555
Bi2 O3 2.284498 1_555
Bi2 O1 2.284498 1_555
Bi2 O6 2.562505 1_555
Bi2 O10 2.562505 1_555
Bi2 O8 2.562505 1_555
O0 Ti0 2.193224 1_554
O0 O2 2.676617 1_564
O0 O4 2.676617 1_654
O1 O8 2.806415 1_546
O2 Ti0 2.193224 1_545
O2 O4 2.676617 1_645
O4 Ti0 2.193224 1_455
O5 O6 2.806415 1_654
O6 Ti0 1.866109 1_455
O8 Ti0 1.866109 1_554
O10 Ti0 1.866109 1_545
O10 O3 2.806415 1_645
