# generated using pymatgen
data_LiCo(CO3)2
_symmetry_space_group_name_H-M   'P 1'
_cell_length_a   6.53065791
_cell_length_b   10.47478148
_cell_length_c   7.69048099
_cell_angle_alpha   96.34799579
_cell_angle_beta   93.84565868
_cell_angle_gamma   97.02930473
_symmetry_Int_Tables_number   1
_chemical_formula_structural   LiCo(CO3)2
_chemical_formula_sum   'Li4 Co4 C8 O24'
_cell_volume   517.19354959
_cell_formula_units_Z   4
loop_
 _symmetry_equiv_pos_site_id
 _symmetry_equiv_pos_as_xyz
  1  'x, y, z'
loop_
 _atom_site_type_symbol
 _atom_site_label
 _atom_site_symmetry_multiplicity
 _atom_site_fract_x
 _atom_site_fract_y
 _atom_site_fract_z
 _atom_site_occupancy
  Li  Li0  1  0.31779300  0.22215200  0.32455600  1
  Li  Li1  1  0.74077500  0.75173400  0.31362200  1
  Li  Li2  1  0.54658300  0.13167800  0.82072100  1
  Li  Li3  1  0.02683300  0.64489900  0.83694700  1
  Co  Co0  1  0.46648000  0.49637400  0.00485200  1
  Co  Co1  1  0.89178000  0.34585300  0.50778000  1
  Co  Co2  1  0.94011200  0.98904800  0.00526900  1
  Co  Co3  1  0.35965000  0.82294100  0.50221000  1
  C  C0  1  0.73045900  0.17334200  0.21033700  1
  C  C1  1  0.30136500  0.68852300  0.21382500  1
  C  C2  1  0.26612700  0.32620000  0.72129700  1
  C  C3  1  0.74287600  0.81755800  0.71798200  1
  C  C4  1  0.57649000  0.45963700  0.29846200  1
  C  C5  1  0.07849000  0.96682200  0.29911400  1
  C  C6  1  0.77408500  0.38349500  0.79967300  1
  C  C7  1  0.25894500  0.87885500  0.79988000  1
  O  O0  1  0.75213700  0.11130800  0.05161700  1
  O  O1  1  0.27395300  0.61700100  0.05991000  1
  O  O2  1  0.16531000  0.31059400  0.56064800  1
  O  O3  1  0.64503700  0.79540100  0.55705200  1
  O  O4  1  0.12484400  0.07085600  0.22565300  1
  O  O5  1  0.63887500  0.56129200  0.21988700  1
  O  O6  1  0.89867400  0.47061000  0.74167400  1
  O  O7  1  0.39613600  0.95584700  0.73859300  1
  O  O8  1  0.42103500  0.38434600  0.21679500  1
  O  O9  1  0.92285200  0.88634600  0.21600600  1
  O  O10  1  0.74465900  0.26969100  0.70442400  1
  O  O11  1  0.20275900  0.76609500  0.70588000  1
  O  O12  1  0.57532600  0.14400500  0.29031000  1
  O  O13  1  0.18500100  0.66679000  0.33868600  1
  O  O14  1  0.30496600  0.23153400  0.79565300  1
  O  O15  1  0.76462100  0.72676200  0.80779600  1
  O  O16  1  0.88051100  0.26578100  0.27154700  1
  O  O17  1  0.44693300  0.78534500  0.24596400  1
  O  O18  1  0.31761500  0.44802500  0.78653200  1
  O  O19  1  0.81543400  0.93887300  0.77121500  1
  O  O20  1  0.66665600  0.44247000  0.44489100  1
  O  O21  1  0.17431800  0.94692700  0.44061400  1
  O  O22  1  0.68683700  0.40182600  0.94369200  1
  O  O23  1  0.18027800  0.90676800  0.94584100  1
loop_
_geom_bond_atom_site_label_1
_geom_bond_atom_site_label_2
_geom_bond_distance
_geom_bond_site_symmetry_2
Li0 O4 1.947825 1_555
Li0 O12 1.979085 1_555
Li0 O8 2.033164 1_555
Li0 O2 2.289732 1_555
Li1 O9 1.977152 1_555
Li1 O3 2.035317 1_555
Li1 O17 2.036936 1_555
Li1 O5 2.057821 1_555
Li2 O7 1.993257 1_545
Li2 O14 2.007184 1_555
Li2 O10 2.132266 1_555
Li2 O0 2.198825 1_556
Li3 O6 1.954039 1_455
Li3 O11 2.007226 1_555
Li3 O15 2.017013 1_455
Li3 O1 2.342037 1_556
Co0 O18 1.868993 1_554
Co0 O22 1.899898 1_554
Co0 O1 1.923184 1_555
Co0 O5 1.943952 1_555
Co0 O8 2.127072 1_555
Co1 O2 1.894716 1_655
Co1 O16 1.907737 1_555
Co1 O20 1.948508 1_555
Co1 O10 2.029947 1_555
Co1 O6 2.097671 1_555
Co2 O0 1.901747 1_565
Co2 O19 1.915365 1_554
Co2 O23 1.936905 1_654
Co2 O9 2.043758 1_555
Co2 O4 2.052765 1_665
Co3 O3 1.946221 1_555
Co3 O21 1.954449 1_555
Co3 O11 2.032220 1_555
Co3 O17 2.097019 1_555
Co3 O13 2.110422 1_555
Co3 O7 2.144925 1_555
C0 O12 1.244301 1_555
C0 O16 1.313213 1_555
C0 O0 1.342579 1_555
C1 O13 1.286572 1_555
C1 O17 1.292473 1_555
C1 O1 1.317978 1_555
C2 O14 1.241815 1_555
C2 O18 1.312990 1_555
C2 O2 1.344054 1_555
C3 O15 1.251778 1_555
C3 O19 1.310914 1_555
C3 O3 1.337148 1_555
C4 O20 1.276300 1_555
C4 O8 1.286891 1_555
C4 O5 1.316853 1_555
C5 O21 1.268851 1_555
C5 O4 1.294862 1_565
C5 O9 1.317655 1_455
C6 O6 1.284763 1_555
C6 O22 1.285555 1_555
C6 O10 1.313960 1_555
C7 O7 1.280282 1_555
C7 O23 1.284911 1_555
C7 O11 1.312190 1_555
