# generated using pymatgen
data_Li6MnV3(PO4)6
_symmetry_space_group_name_H-M   'P 1'
_cell_length_a   8.72693600
_cell_length_b   8.76024013
_cell_length_c   12.26272138
_cell_angle_alpha   89.95410000
_cell_angle_beta   89.23855671
_cell_angle_gamma   89.80423786
_symmetry_Int_Tables_number   1
_chemical_formula_structural   Li6MnV3(PO4)6
_chemical_formula_sum   'Li12 Mn2 V6 P12 O48'
_cell_volume   937.39719840
_cell_formula_units_Z   2
loop_
 _symmetry_equiv_pos_site_id
 _symmetry_equiv_pos_as_xyz
  1  'x, y, z'
loop_
 _atom_site_type_symbol
 _atom_site_label
 _atom_site_symmetry_multiplicity
 _atom_site_fract_x
 _atom_site_fract_y
 _atom_site_fract_z
 _atom_site_occupancy
  Li  Li0  1  0.07630600  0.90308300  0.30237800  1
  Li  Li1  1  0.08258500  0.29554600  0.24138600  1
  Li  Li2  1  0.21087400  0.22761500  0.82143900  1
  Li  Li3  1  0.28942400  0.72691900  0.67883000  1
  Li  Li4  1  0.41905500  0.79523500  0.25897100  1
  Li  Li5  1  0.42394200  0.40317300  0.19743300  1
  Li  Li6  1  0.57907600  0.59522000  0.80241700  1
  Li  Li7  1  0.58440500  0.20510500  0.74124700  1
  Li  Li8  1  0.71086300  0.27335100  0.32192000  1
  Li  Li9  1  0.78766500  0.77221800  0.17925200  1
  Li  Li10  1  0.91555800  0.70281500  0.75961100  1
  Li  Li11  1  0.92252800  0.09827000  0.69777400  1
  Mn  Mn0  1  0.74598700  0.95711400  0.38971300  1
  Mn  Mn1  1  0.75591400  0.53293100  0.60666700  1
  V  V0  1  0.24633300  0.46958100  0.38954100  1
  V  V1  1  0.24649900  0.54109800  0.88859000  1
  V  V2  1  0.25414700  0.96886000  0.11010600  1
  V  V3  1  0.25309500  0.04270200  0.61113800  1
  V  V4  1  0.74620700  0.03071000  0.89060800  1
  V  V5  1  0.75291800  0.45834200  0.11156400  1
  P  P0  1  0.03867200  0.75277000  0.50673400  1
  P  P1  1  0.10500500  0.61241400  0.14695100  1
  P  P2  1  0.10628500  0.90155400  0.85123400  1
  P  P3  1  0.39480900  0.11193100  0.35314700  1
  P  P4  1  0.39580400  0.40170700  0.64816700  1
  P  P5  1  0.46095800  0.25188100  0.99369200  1
  P  P6  1  0.53885100  0.74766700  0.00603000  1
  P  P7  1  0.60384700  0.59732700  0.34810000  1
  P  P8  1  0.60700700  0.88690700  0.64494800  1
  P  P9  1  0.89291200  0.09808800  0.15034600  1
  P  P10  1  0.89470800  0.38791300  0.85525400  1
  P  P11  1  0.95993500  0.25204700  0.49370500  1
  O  O0  1  0.04901700  0.13716700  0.56603500  1
  O  O1  1  0.06511900  0.32954400  0.40734800  1
  O  O2  1  0.06952900  0.40472400  0.83407900  1
  O  O3  1  0.07153800  0.10369700  0.15287200  1
  O  O4  1  0.11523000  0.64325600  0.42478500  1
  O  O5  1  0.14749000  0.58626900  0.02716800  1
  O  O6  1  0.14933100  0.77840300  0.18129600  1
  O  O7  1  0.15080100  0.02471000  0.76283700  1
  O  O8  1  0.15842700  0.74005900  0.81255900  1
  O  O9  1  0.16599200  0.83609800  0.57065100  1
  O  O10  1  0.17145500  0.94885000  0.95914500  1
  O  O11  1  0.19295900  0.49196400  0.21729800  1
  O  O12  1  0.30728500  0.99190600  0.28321300  1
  O  O13  1  0.32969100  0.44890500  0.54037100  1
  O  O14  1  0.33308700  0.33356900  0.92951400  1
  O  O15  1  0.34268600  0.23946000  0.68621500  1
  O  O16  1  0.35027100  0.27769900  0.31871100  1
  O  O17  1  0.34977600  0.52406800  0.73651200  1
  O  O18  1  0.35211500  0.08540100  0.47313400  1
  O  O19  1  0.38411300  0.14209800  0.07598200  1
  O  O20  1  0.42504200  0.60383700  0.34659800  1
  O  O21  1  0.43219800  0.90493900  0.66510100  1
  O  O22  1  0.43612100  0.82662100  0.09329600  1
  O  O23  1  0.44925100  0.63503500  0.93395300  1
  O  O24  1  0.55016900  0.36477400  0.06520900  1
  O  O25  1  0.56394000  0.17268100  0.90631800  1
  O  O26  1  0.57003100  0.09503100  0.33344300  1
  O  O27  1  0.57463800  0.39319400  0.65180100  1
  O  O28  1  0.61559900  0.85787200  0.92374600  1
  O  O29  1  0.64346000  0.91126000  0.52350000  1
  O  O30  1  0.64778400  0.47246600  0.26090800  1
  O  O31  1  0.65198500  0.72018400  0.67950100  1
  O  O32  1  0.65346400  0.75737100  0.30775800  1
  O  O33  1  0.66710400  0.66551700  0.06946700  1
  O  O34  1  0.67073000  0.55054300  0.45574600  1
  O  O35  1  0.69409900  0.00641100  0.71569600  1
  O  O36  1  0.80576000  0.50950200  0.78854400  1
  O  O37  1  0.82808100  0.05060200  0.04211900  1
  O  O38  1  0.83286300  0.17351300  0.43021900  1
  O  O39  1  0.84173100  0.25977900  0.18812400  1
  O  O40  1  0.84775100  0.97454900  0.23912500  1
  O  O41  1  0.85053900  0.22170700  0.81984800  1
  O  O42  1  0.85536800  0.41027300  0.97590700  1
  O  O43  1  0.88925100  0.36173300  0.58075800  1
  O  O44  1  0.92767200  0.89512200  0.84822500  1
  O  O45  1  0.93058000  0.59504000  0.16718900  1
  O  O46  1  0.93762600  0.67412300  0.59517400  1
  O  O47  1  0.94908000  0.86638600  0.43410800  1
loop_
_geom_bond_atom_site_label_1
_geom_bond_atom_site_label_2
_geom_bond_distance
_geom_bond_site_symmetry_2
Li0 O6 1.943296 1_555
Li0 O47 1.974702 1_455
Li0 O12 2.172953 1_555
Li0 O40 2.236910 1_455
Li0 O3 2.539256 1_565
Li1 O11 1.994670 1_555
Li1 O3 2.004697 1_555
Li1 O1 2.060624 1_555
Li1 O39 2.232518 1_455
Li1 O16 2.537116 1_555
Li2 O14 1.949807 1_555
Li2 O2 1.983684 1_555
Li2 O7 1.992279 1_555
Li2 O15 2.008360 1_555
Li3 O9 1.965651 1_555
Li3 O17 1.984196 1_555
Li3 O8 1.989711 1_555
Li3 O21 2.005025 1_555
Li4 O20 1.991653 1_555
Li4 O12 1.997438 1_555
Li4 O22 2.053443 1_555
Li4 O32 2.163398 1_555
Li4 O6 2.555753 1_555
Li5 O16 1.951949 1_555
Li5 O24 1.976490 1_555
Li5 O11 2.168927 1_555
Li5 O30 2.199910 1_555
Li5 O20 2.538065 1_555
Li6 O31 1.962594 1_555
Li6 O23 1.989133 1_555
Li6 O36 2.118352 1_555
Li6 O17 2.257946 1_555
Li6 O27 2.559796 1_555
Li7 O27 1.980886 1_555
Li7 O35 2.006442 1_555
Li7 O25 2.049356 1_555
Li7 O15 2.242545 1_555
Li7 O41 2.531083 1_555
Li8 O38 1.921338 1_555
Li8 O30 1.976780 1_555
Li8 O39 1.989966 1_555
Li8 O26 1.994711 1_555
Li9 O32 1.955365 1_555
Li9 O33 1.959463 1_555
Li9 O45 1.992168 1_555
Li9 O40 1.993572 1_555
Li10 O36 1.978119 1_555
Li10 O44 2.009291 1_555
Li10 O46 2.038744 1_555
Li10 O8 2.249879 1_655
Li10 O31 2.517235 1_555
Li11 O41 1.943663 1_555
Li11 O0 1.974508 1_655
Li11 O35 2.160757 1_555
Li11 O7 2.247894 1_655
Li11 O44 2.563060 1_545
Mn0 O29 1.901541 1_555
Mn0 O47 2.021073 1_555
Mn0 O40 2.044240 1_555
Mn0 O26 2.075555 1_565
Mn0 O38 2.106319 1_565
Mn0 O32 2.181238 1_555
Mn1 O43 1.919162 1_555
Mn1 O34 2.009195 1_555
Mn1 O46 2.017829 1_555
Mn1 O31 2.069256 1_555
Mn1 O27 2.072768 1_555
Mn1 O36 2.286933 1_555
O0 P11 1.554161 1_455
O0 V3 2.044008 1_555
O1 P11 1.549900 1_455
O1 V0 2.014256 1_555
O2 P10 1.551667 1_455
O2 V1 2.073784 1_555
O3 P9 1.560519 1_455
O3 V2 2.043478 1_545
O4 P0 1.534910 1_555
O4 V0 1.945917 1_555
O5 P1 1.527407 1_555
O5 V1 1.936658 1_554
O6 P1 1.565435 1_555
O6 V2 2.090313 1_555
O7 P2 1.574714 1_545
O7 V3 2.058795 1_555
O8 P2 1.557048 1_555
O8 V1 2.122537 1_555
O9 P0 1.552861 1_555
O9 V3 2.030005 1_565
O10 P2 1.506218 1_555
O10 V2 2.003823 1_556
O11 P1 1.567581 1_555
O11 V0 2.177504 1_555
O12 P3 1.564847 1_565
O12 V2 2.188474 1_555
O13 P4 1.506304 1_555
O13 V0 2.004320 1_555
O14 P5 1.547166 1_555
O14 V1 2.031555 1_555
O15 P4 1.565383 1_555
O15 V3 2.112045 1_555
O16 P3 1.561315 1_555
O16 V0 2.091335 1_555
O17 P4 1.572051 1_555
O17 V1 2.065733 1_555
O18 P3 1.530761 1_555
O18 V3 1.926883 1_555
O19 P5 1.542010 1_554
O19 V2 1.939790 1_545
O20 P7 1.561620 1_555
O20 V0 2.020535 1_555
O21 P8 1.549747 1_555
O21 V3 2.085833 1_565
O22 P6 1.548785 1_555
O22 V2 2.023685 1_555
O23 P6 1.546354 1_556
O23 V1 2.038199 1_555
O24 P5 1.542109 1_554
O24 V5 2.040363 1_555
O25 P5 1.551900 1_555
O25 V4 2.023051 1_555
O26 P3 1.551546 1_555
O27 P4 1.563424 1_555
O28 P6 1.543913 1_556
O28 V4 1.937858 1_565
O29 P8 1.533637 1_555
O30 P7 1.573141 1_555
O30 V5 2.041062 1_555
O31 P8 1.570438 1_555
O32 P7 1.547656 1_555
O33 P6 1.546777 1_555
O33 V5 2.029947 1_555
O34 P7 1.506359 1_555
O35 P8 1.565477 1_545
O35 V4 2.209073 1_555
O36 P10 1.554390 1_555
O37 P9 1.508955 1_555
O37 V4 2.007355 1_554
O38 P11 1.529110 1_555
O39 P9 1.552957 1_555
O39 V5 2.124939 1_555
O40 P9 1.581576 1_565
O41 P10 1.570456 1_555
O41 V4 2.090106 1_555
O42 P10 1.527010 1_555
O42 V5 1.924324 1_556
O43 P11 1.556745 1_555
O44 P2 1.560882 1_655
O44 V4 2.038407 1_565
O45 P1 1.547035 1_655
O45 V5 2.084535 1_555
O46 P0 1.551127 1_655
O47 P0 1.551407 1_655
