# generated using pymatgen
data_TaReSe4
_symmetry_space_group_name_H-M   'P 1'
_cell_length_a   6.90787764
_cell_length_b   6.90787764
_cell_length_c   25.84402400
_cell_angle_alpha   90.00000000
_cell_angle_beta   90.00000000
_cell_angle_gamma   120.00001574
_symmetry_Int_Tables_number   1
_chemical_formula_structural   TaReSe4
_chemical_formula_sum   'Ta8 Re8 Se32'
_cell_volume   1068.02144103
_cell_formula_units_Z   8
loop_
 _symmetry_equiv_pos_site_id
 _symmetry_equiv_pos_as_xyz
  1  'x, y, z'
loop_
 _atom_site_type_symbol
 _atom_site_label
 _atom_site_symmetry_multiplicity
 _atom_site_fract_x
 _atom_site_fract_y
 _atom_site_fract_z
 _atom_site_occupancy
  Ta  Ta0_0  1  0.16666650  0.33333350  0.00000000  1
  Ta  Ta0_1  1  0.16666650  0.33333350  0.50000000  1
  Ta  Ta0_2  1  0.16666650  0.83333350  0.00000000  1
  Ta  Ta0_3  1  0.16666650  0.83333350  0.50000000  1
  Ta  Ta0_4  1  0.66666650  0.33333350  0.00000000  1
  Ta  Ta0_5  1  0.66666650  0.33333350  0.50000000  1
  Ta  Ta0_6  1  0.66666650  0.83333350  0.00000000  1
  Ta  Ta0_7  1  0.66666650  0.83333350  0.50000000  1
  Re  Re0_0  1  0.33333350  0.16666650  0.25000000  1
  Re  Re0_1  1  0.33333350  0.16666650  0.75000000  1
  Re  Re0_2  1  0.33333350  0.66666650  0.25000000  1
  Re  Re0_3  1  0.33333350  0.66666650  0.75000000  1
  Re  Re0_4  1  0.83333350  0.16666650  0.25000000  1
  Re  Re0_5  1  0.83333350  0.16666650  0.75000000  1
  Re  Re0_6  1  0.83333350  0.66666650  0.25000000  1
  Re  Re0_7  1  0.83333350  0.66666650  0.75000000  1
  Se  Se0_0  1  0.33333350  0.16666650  0.06508450  1
  Se  Se0_1  1  0.33333350  0.16666650  0.56508450  1
  Se  Se0_2  1  0.33333350  0.66666650  0.06508450  1
  Se  Se0_3  1  0.33333350  0.66666650  0.56508450  1
  Se  Se0_4  1  0.83333350  0.16666650  0.06508450  1
  Se  Se0_5  1  0.83333350  0.16666650  0.56508450  1
  Se  Se0_6  1  0.83333350  0.66666650  0.06508450  1
  Se  Se0_7  1  0.83333350  0.66666650  0.56508450  1
  Se  Se1_0  1  0.16666650  0.33333350  0.18911600  1
  Se  Se1_1  1  0.16666650  0.33333350  0.68911600  1
  Se  Se1_2  1  0.16666650  0.83333350  0.18911600  1
  Se  Se1_3  1  0.16666650  0.83333350  0.68911600  1
  Se  Se1_4  1  0.66666650  0.33333350  0.18911600  1
  Se  Se1_5  1  0.66666650  0.33333350  0.68911600  1
  Se  Se1_6  1  0.66666650  0.83333350  0.18911600  1
  Se  Se1_7  1  0.66666650  0.83333350  0.68911600  1
  Se  Se2_0  1  0.16666650  0.33333350  0.31088400  1
  Se  Se2_1  1  0.16666650  0.33333350  0.81088400  1
  Se  Se2_2  1  0.16666650  0.83333350  0.31088400  1
  Se  Se2_3  1  0.16666650  0.83333350  0.81088400  1
  Se  Se2_4  1  0.66666650  0.33333350  0.31088400  1
  Se  Se2_5  1  0.66666650  0.33333350  0.81088400  1
  Se  Se2_6  1  0.66666650  0.83333350  0.31088400  1
  Se  Se2_7  1  0.66666650  0.83333350  0.81088400  1
  Se  Se3_0  1  0.33333350  0.16666650  0.43491550  1
  Se  Se3_1  1  0.33333350  0.16666650  0.93491550  1
  Se  Se3_2  1  0.33333350  0.66666650  0.43491550  1
  Se  Se3_3  1  0.33333350  0.66666650  0.93491550  1
  Se  Se3_4  1  0.83333350  0.16666650  0.43491550  1
  Se  Se3_5  1  0.83333350  0.16666650  0.93491550  1
  Se  Se3_6  1  0.83333350  0.66666650  0.43491550  1
  Se  Se3_7  1  0.83333350  0.66666650  0.93491550  1
loop_
_geom_bond_atom_site_label_1
_geom_bond_atom_site_label_2
_geom_bond_distance
_geom_bond_site_symmetry_2
Re0_0 Se2_4 2.540161 1_555
Re0_0 Se2_2 2.540161 1_545
Re0_0 Se1_4 2.540161 1_555
Re0_0 Se1_2 2.540161 1_545
Re0_0 Se2_0 2.540166 1_555
Re0_0 Se1_0 2.540166 1_555
Re0_1 Se2_5 2.540161 1_555
Re0_1 Se2_3 2.540161 1_545
Re0_1 Se1_5 2.540161 1_555
Re0_1 Se1_3 2.540161 1_545
Re0_1 Se2_1 2.540166 1_555
Re0_1 Se1_1 2.540166 1_555
Re0_2 Se2_6 2.540161 1_555
Re0_2 Se2_0 2.540161 1_555
Re0_2 Se1_0 2.540161 1_555
Re0_2 Se1_6 2.540161 1_555
Re0_2 Se2_2 2.540166 1_555
Re0_2 Se1_2 2.540166 1_555
Re0_3 Se2_1 2.540161 1_555
Re0_3 Se2_7 2.540161 1_555
Re0_3 Se1_1 2.540161 1_555
Re0_3 Se1_7 2.540161 1_555
Re0_3 Se2_3 2.540166 1_555
Re0_3 Se1_3 2.540166 1_555
Re0_4 Se2_6 2.540161 1_545
Re0_4 Se2_0 2.540161 1_655
Re0_4 Se1_6 2.540161 1_545
Re0_4 Se1_0 2.540161 1_655
Re0_4 Se2_4 2.540166 1_555
Re0_4 Se1_4 2.540166 1_555
Re0_5 Se2_7 2.540161 1_545
Re0_5 Se2_1 2.540161 1_655
Re0_5 Se1_7 2.540161 1_545
Re0_5 Se1_1 2.540161 1_655
Re0_5 Se2_5 2.540166 1_555
Re0_5 Se1_5 2.540166 1_555
Re0_6 Se2_4 2.540161 1_555
Re0_6 Se2_2 2.540161 1_655
Re0_6 Se1_4 2.540161 1_555
Re0_6 Se1_2 2.540161 1_655
Re0_6 Se2_6 2.540166 1_555
Re0_6 Se1_6 2.540166 1_555
Re0_7 Se2_3 2.540161 1_655
Re0_7 Se2_5 2.540161 1_555
Re0_7 Se1_5 2.540161 1_555
Re0_7 Se1_3 2.540161 1_655
Re0_7 Se2_7 2.540166 1_555
Re0_7 Se1_7 2.540166 1_555
Se0_0 Ta0_4 2.608799 1_555
Se0_0 Ta0_2 2.608799 1_545
Se0_0 Ta0_0 2.608804 1_555
Se0_0 Se0_6 3.453938 1_555
Se0_0 Se0_6 3.453938 1_445
Se0_0 Se0_4 3.453939 1_555
Se0_0 Se0_2 3.453939 1_555
Se0_0 Se0_2 3.453939 1_545
Se0_0 Se0_4 3.453939 1_455
Se0_1 Ta0_5 2.608799 1_555
Se0_1 Ta0_3 2.608799 1_545
Se0_1 Ta0_1 2.608804 1_555
Se0_1 Se0_7 3.453938 1_555
Se0_1 Se0_7 3.453938 1_445
Se0_1 Se0_5 3.453939 1_555
Se0_1 Se0_5 3.453939 1_455
Se0_1 Se0_3 3.453939 1_545
Se0_1 Se0_3 3.453939 1_555
Se0_2 Ta0_6 2.608799 1_555
Se0_2 Ta0_0 2.608799 1_555
Se0_2 Ta0_2 2.608804 1_555
Se0_2 Se0_4 3.453938 1_455
Se0_2 Se0_4 3.453938 1_565
Se0_2 Se0_6 3.453939 1_455
Se0_2 Se0_6 3.453939 1_555
Se0_3 Ta0_1 2.608799 1_555
Se0_3 Ta0_7 2.608799 1_555
Se0_3 Ta0_3 2.608804 1_555
Se0_3 Se0_5 3.453938 1_455
Se0_3 Se0_5 3.453938 1_565
Se0_3 Se0_7 3.453939 1_455
Se0_3 Se0_7 3.453939 1_555
Se0_4 Ta0_6 2.608799 1_545
Se0_4 Ta0_0 2.608799 1_655
Se0_4 Ta0_4 2.608804 1_555
Se0_4 Se0_6 3.453939 1_545
Se0_4 Se0_6 3.453939 1_555
Se0_5 Ta0_7 2.608799 1_545
Se0_5 Ta0_1 2.608799 1_655
Se0_5 Ta0_5 2.608804 1_555
Se0_5 Se0_7 3.453939 1_555
Se0_5 Se0_7 3.453939 1_545
Se0_6 Ta0_2 2.608799 1_655
Se0_6 Ta0_4 2.608799 1_555
Se0_6 Ta0_6 2.608804 1_555
Se0_7 Ta0_3 2.608799 1_655
Se0_7 Ta0_5 2.608799 1_555
Se0_7 Ta0_7 2.608804 1_555
Se1_0 Se1_6 3.453938 1_445
Se1_0 Se1_6 3.453938 1_555
Se1_0 Se1_4 3.453939 1_555
Se1_0 Se1_4 3.453939 1_455
Se1_0 Se1_2 3.453939 1_555
Se1_0 Se1_2 3.453939 1_545
Se1_1 Se1_7 3.453938 1_445
Se1_1 Se1_7 3.453938 1_555
Se1_1 Se1_3 3.453939 1_545
Se1_1 Se1_3 3.453939 1_555
Se1_1 Se1_5 3.453939 1_455
Se1_1 Se1_5 3.453939 1_555
Se1_2 Se1_4 3.453938 1_455
Se1_2 Se1_4 3.453938 1_565
Se1_2 Se1_6 3.453939 1_555
Se1_2 Se1_6 3.453939 1_455
Se1_3 Se1_5 3.453938 1_565
Se1_3 Se1_5 3.453938 1_455
Se1_3 Se1_7 3.453939 1_555
Se1_3 Se1_7 3.453939 1_455
Se1_4 Se1_6 3.453939 1_555
Se1_4 Se1_6 3.453939 1_545
Se1_5 Se1_7 3.453939 1_555
Se1_5 Se1_7 3.453939 1_545
Se2_0 Se2_6 3.453938 1_555
Se2_0 Se2_6 3.453938 1_445
Se2_0 Se2_4 3.453939 1_455
Se2_0 Se2_2 3.453939 1_555
Se2_0 Se2_2 3.453939 1_545
Se2_0 Se2_4 3.453939 1_555
Se2_1 Se2_7 3.453938 1_445
Se2_1 Se2_7 3.453938 1_555
Se2_1 Se2_5 3.453939 1_555
Se2_1 Se2_3 3.453939 1_545
Se2_1 Se2_5 3.453939 1_455
Se2_1 Se2_3 3.453939 1_555
Se2_2 Se2_4 3.453938 1_565
Se2_2 Se2_4 3.453938 1_455
Se2_2 Se2_6 3.453939 1_555
Se2_2 Se2_6 3.453939 1_455
Se2_3 Se2_5 3.453938 1_455
Se2_3 Se2_5 3.453938 1_565
Se2_3 Se2_7 3.453939 1_555
Se2_3 Se2_7 3.453939 1_455
Se2_4 Se2_6 3.453939 1_555
Se2_4 Se2_6 3.453939 1_545
Se2_5 Se2_7 3.453939 1_555
Se2_5 Se2_7 3.453939 1_545
Se3_0 Ta0_5 2.608799 1_555
Se3_0 Ta0_3 2.608799 1_545
Se3_0 Ta0_1 2.608804 1_555
Se3_0 Se3_6 3.453938 1_555
Se3_0 Se3_6 3.453938 1_445
Se3_0 Se3_4 3.453939 1_555
Se3_0 Se3_2 3.453939 1_545
Se3_0 Se3_4 3.453939 1_455
Se3_0 Se3_2 3.453939 1_555
Se3_1 Ta0_4 2.608799 1_556
Se3_1 Ta0_2 2.608799 1_546
Se3_1 Ta0_0 2.608804 1_556
Se3_1 Se3_7 3.453938 1_555
Se3_1 Se3_7 3.453938 1_445
Se3_1 Se3_5 3.453939 1_555
Se3_1 Se3_5 3.453939 1_455
Se3_1 Se3_3 3.453939 1_555
Se3_1 Se3_3 3.453939 1_545
Se3_2 Ta0_1 2.608799 1_555
Se3_2 Ta0_7 2.608799 1_555
Se3_2 Ta0_3 2.608804 1_555
Se3_2 Se3_4 3.453938 1_455
Se3_2 Se3_4 3.453938 1_565
Se3_2 Se3_6 3.453939 1_555
Se3_2 Se3_6 3.453939 1_455
Se3_3 Ta0_0 2.608799 1_556
Se3_3 Ta0_6 2.608799 1_556
Se3_3 Ta0_2 2.608804 1_556
Se3_3 Se3_5 3.453938 1_455
Se3_3 Se3_5 3.453938 1_565
Se3_3 Se3_7 3.453939 1_455
Se3_3 Se3_7 3.453939 1_555
Se3_4 Ta0_7 2.608799 1_545
Se3_4 Ta0_1 2.608799 1_655
Se3_4 Ta0_5 2.608804 1_555
Se3_4 Se3_6 3.453939 1_555
Se3_4 Se3_6 3.453939 1_545
Se3_5 Ta0_6 2.608799 1_546
Se3_5 Ta0_0 2.608799 1_656
Se3_5 Ta0_4 2.608804 1_556
Se3_5 Se3_7 3.453939 1_555
Se3_5 Se3_7 3.453939 1_545
Se3_6 Ta0_3 2.608799 1_655
Se3_6 Ta0_5 2.608799 1_555
Se3_6 Ta0_7 2.608804 1_555
Se3_7 Ta0_4 2.608799 1_556
Se3_7 Ta0_2 2.608799 1_656
Se3_7 Ta0_6 2.608804 1_556
