# generated using pymatgen
data_SrCaLaSbO6
_symmetry_space_group_name_H-M   'P 1'
_cell_length_a   8.48697753
_cell_length_b   8.45891970
_cell_length_c   8.48787665
_cell_angle_alpha   90.00000000
_cell_angle_beta   90.00000000
_cell_angle_gamma   90.00000000
_symmetry_Int_Tables_number   1
_chemical_formula_structural   SrCaLaSbO6
_chemical_formula_sum   'Sr4 Ca4 La4 Sb4 O24'
_cell_volume   609.35027877
_cell_formula_units_Z   4
loop_
 _symmetry_equiv_pos_site_id
 _symmetry_equiv_pos_as_xyz
  1  'x, y, z'
loop_
 _atom_site_type_symbol
 _atom_site_label
 _atom_site_symmetry_multiplicity
 _atom_site_fract_x
 _atom_site_fract_y
 _atom_site_fract_z
 _atom_site_occupancy
  Sr  Sr0  1  0.00000000  0.50000000  0.50000000  1
  Sr  Sr1  1  0.50000000  -0.00000000  0.50000000  1
  Sr  Sr2  1  0.50000000  0.50000000  0.00000000  1
  Sr  Sr3  1  0.50000000  0.00000000  -0.00000000  1
  Ca  Ca0  1  0.00000000  0.50000000  -0.00000000  1
  Ca  Ca1  1  0.00000000  -0.00000000  0.50000000  1
  Ca  Ca2  1  0.00000000  -0.00000000  0.00000000  1
  Ca  Ca3  1  0.50000000  0.50000000  0.50000000  1
  La  La0  1  0.75224962  0.75033521  0.75029479  1
  La  La1  1  0.24775038  0.24966479  0.75029479  1
  La  La2  1  0.24775038  0.75033521  0.24970521  1
  La  La3  1  0.75224962  0.24966479  0.24970521  1
  Sb  Sb0  1  0.24729282  0.24974032  0.25070651  1
  Sb  Sb1  1  0.75270718  0.75025968  0.25070651  1
  Sb  Sb2  1  0.75270718  0.24974032  0.74929349  1
  Sb  Sb3  1  0.24729282  0.75025968  0.74929349  1
  O  O0  1  0.02021043  0.19446049  0.29605086  1
  O  O1  1  0.97978957  0.80553951  0.29605086  1
  O  O2  1  0.97978957  0.19446049  0.70394914  1
  O  O3  1  0.02021043  0.80553951  0.70394914  1
  O  O4  1  0.28459461  0.02090695  0.19964549  1
  O  O5  1  0.28459461  0.97909305  0.80035451  1
  O  O6  1  0.71540539  0.97909305  0.19964549  1
  O  O7  1  0.71540539  0.02090695  0.80035451  1
  O  O8  1  0.19183736  0.29312605  0.02235214  1
  O  O9  1  0.80816264  0.29312605  0.97764786  1
  O  O10  1  0.19183736  0.70687395  0.97764786  1
  O  O11  1  0.80816264  0.70687395  0.02235214  1
  O  O12  1  0.47861620  0.29467918  0.21296014  1
  O  O13  1  0.52138380  0.70532082  0.21296014  1
  O  O14  1  0.52138380  0.29467918  0.78703986  1
  O  O15  1  0.47861620  0.70532082  0.78703986  1
  O  O16  1  0.21290349  0.48001138  0.29709394  1
  O  O17  1  0.21290349  0.51998862  0.70290606  1
  O  O18  1  0.78709651  0.51998862  0.29709394  1
  O  O19  1  0.78709651  0.48001138  0.70290606  1
  O  O20  1  0.29760426  0.21559495  0.48050380  1
  O  O21  1  0.70239574  0.21559495  0.51949620  1
  O  O22  1  0.29760426  0.78440505  0.51949620  1
  O  O23  1  0.70239574  0.78440505  0.48050380  1
loop_
_geom_bond_atom_site_label_1
_geom_bond_atom_site_label_2
_geom_bond_distance
_geom_bond_site_symmetry_2
Ca0 O9 2.397712 1_454
Ca0 O10 2.397712 1_554
Ca0 O11 2.397712 1_455
Ca0 O8 2.397712 1_555
Ca0 O18 3.106840 1_455
Ca0 O19 3.106840 1_454
Ca0 O16 3.106840 1_555
Ca0 O17 3.106840 1_554
Ca1 O1 2.394137 1_445
Ca1 O3 2.394137 1_545
Ca1 O2 2.394137 1_455
Ca1 O0 2.394137 1_555
Ca1 O23 3.119733 1_445
Ca1 O20 3.119733 1_555
Ca1 O22 3.119733 1_545
Ca1 O21 3.119733 1_455
Ca2 O6 2.955797 1_445
Ca2 O5 2.955797 1_544
Ca2 O7 2.955797 1_454
Ca2 O4 2.955797 1_555
Ca2 O11 2.972345 1_445
Ca2 O9 2.972345 1_454
Ca2 O10 2.972345 1_544
Ca2 O8 2.972345 1_555
Ca2 O2 3.008252 1_454
Ca2 O3 3.008252 1_544
Ca2 O1 3.008252 1_445
Ca2 O0 3.008252 1_555
Ca3 O20 2.960684 1_555
Ca3 O21 2.960684 1_555
Ca3 O22 2.960684 1_555
Ca3 O23 2.960684 1_555
Ca3 O17 2.988584 1_555
Ca3 O18 2.988584 1_555
Ca3 O19 2.988584 1_555
Ca3 O16 2.988584 1_555
Ca3 O13 2.997537 1_555
Ca3 O15 2.997537 1_555
Ca3 O14 2.997537 1_555
Ca3 O12 2.997537 1_555
La0 O19 2.340515 1_555
La0 O23 2.346478 1_555
La0 O7 2.348760 1_565
La0 O3 2.354716 1_655
La0 O15 2.373907 1_555
La0 O11 2.385936 1_556
La1 O17 2.340515 1_555
La1 O20 2.346478 1_555
La1 O5 2.348760 1_545
La1 O2 2.354716 1_455
La1 O14 2.373907 1_555
La1 O8 2.385936 1_556
La2 O16 2.340515 1_555
La2 O22 2.346478 1_555
La2 O4 2.348760 1_565
La2 O1 2.354716 1_455
La2 O13 2.373907 1_555
La2 O10 2.385936 1_554
La3 O18 2.340515 1_555
La3 O21 2.346478 1_555
La3 O6 2.348760 1_545
La3 O0 2.354716 1_655
La3 O12 2.373907 1_555
La3 O9 2.385936 1_554
O0 Sb0 2.020162 1_555
O0 O4 2.803491 1_555
O0 O20 2.832937 1_555
O0 Sr0 3.115434 1_555
O1 Sb1 2.020162 1_555
O1 O6 2.803491 1_555
O1 O23 2.832937 1_555
O1 Sr0 3.115434 1_655
O2 Sb2 2.020162 1_555
O2 O7 2.803491 1_555
O2 O21 2.832937 1_555
O2 Sr0 3.115434 1_655
O3 Sb3 2.020162 1_555
O3 O5 2.803491 1_555
O3 Sr0 3.115434 1_555
O4 Sb0 2.008713 1_555
O4 Sr3 2.498986 1_555
O4 Sr1 3.142081 1_555
O5 Sb3 2.008713 1_555
O5 Sr3 2.498986 1_566
O5 Sr1 3.142081 1_565
O6 Sb1 2.008713 1_555
O6 Sr3 2.498986 1_565
O6 Sr1 3.142081 1_565
O7 Sb2 2.008713 1_555
O7 Sr3 2.498986 1_556
O7 Sr1 3.142081 1_555
O8 Sb0 2.028050 1_555
O8 Sr2 3.152524 1_555
O9 Sb2 2.028050 1_555
O9 Sr2 3.152524 1_556
O10 Sb3 2.028050 1_555
O10 O17 2.822968 1_555
O10 Sr2 3.152524 1_556
O11 Sb1 2.028050 1_555
O11 O18 2.822968 1_555
O11 Sr2 3.152524 1_555
O12 Sb0 2.025203 1_555
O12 Sr2 2.513310 1_555
O12 O20 2.822135 1_555
O12 O16 2.837806 1_555
O12 O4 2.843811 1_555
O12 Sr3 3.084424 1_555
O13 Sb1 2.025203 1_555
O13 Sr2 2.513310 1_555
O13 O23 2.822135 1_555
O13 O18 2.837806 1_555
O13 O6 2.843811 1_555
O13 Sr3 3.084424 1_565
O14 Sb2 2.025203 1_555
O14 Sr2 2.513310 1_556
O14 O21 2.822135 1_555
O14 O19 2.837806 1_555
O14 O7 2.843811 1_555
O14 Sr3 3.084424 1_556
O15 Sb3 2.025203 1_555
O15 Sr2 2.513310 1_556
O15 O22 2.822135 1_555
O15 O17 2.837806 1_555
O15 O5 2.843811 1_555
O15 Sr3 3.084424 1_566
O16 Sb0 2.008558 1_555
O16 Sr0 2.501923 1_555
O16 O20 2.818329 1_555
O16 O8 2.822968 1_555
O17 Sb3 2.008558 1_555
O17 Sr0 2.501923 1_555
O17 O22 2.818329 1_555
O18 Sb1 2.008558 1_555
O18 Sr0 2.501923 1_655
O18 O23 2.818329 1_555
O19 Sb2 2.008558 1_555
O19 Sr0 2.501923 1_655
O19 O21 2.818329 1_555
O19 O9 2.822968 1_555
O20 Sb0 2.017464 1_555
O20 Sr1 2.510748 1_555
O21 Sb2 2.017464 1_555
O21 Sr1 2.510748 1_555
O22 Sb3 2.017464 1_555
O22 Sr1 2.510748 1_565
O22 O3 2.832937 1_555
O23 Sb1 2.017464 1_555
O23 Sr1 2.510748 1_565
