# generated using pymatgen
data_Na2Gd4NCl9O
_symmetry_space_group_name_H-M   'P 1'
_cell_length_a   8.19409248
_cell_length_b   9.27887195
_cell_length_c   11.13651300
_cell_angle_alpha   90.00000000
_cell_angle_beta   90.00000000
_cell_angle_gamma   106.49098908
_symmetry_Int_Tables_number   1
_chemical_formula_structural   Na2Gd4NCl9O
_chemical_formula_sum   'Na4 Gd8 N2 Cl18 O2'
_cell_volume   811.89984977
_cell_formula_units_Z   2
loop_
 _symmetry_equiv_pos_site_id
 _symmetry_equiv_pos_as_xyz
  1  'x, y, z'
loop_
 _atom_site_type_symbol
 _atom_site_label
 _atom_site_symmetry_multiplicity
 _atom_site_fract_x
 _atom_site_fract_y
 _atom_site_fract_z
 _atom_site_occupancy
  Na  Na0  1  0.22144100  0.42811000  0.98958300  1
  Na  Na1  1  0.22276200  0.42855200  0.51239800  1
  Na  Na2  1  0.77855900  0.57189000  0.48958300  1
  Na  Na3  1  0.77723800  0.57144800  0.01239800  1
  Gd  Gd0  1  0.29375800  0.95526500  0.45067200  1
  Gd  Gd1  1  0.28698700  0.95361000  0.03995200  1
  Gd  Gd2  1  0.39018100  0.78342100  0.75255100  1
  Gd  Gd3  1  0.40371300  0.16894200  0.75273100  1
  Gd  Gd4  1  0.59628700  0.83105800  0.25273100  1
  Gd  Gd5  1  0.60981900  0.21657900  0.25255100  1
  Gd  Gd6  1  0.70624200  0.04473500  0.95067200  1
  Gd  Gd7  1  0.71301300  0.04639000  0.53995200  1
  N  N0  1  0.43931400  0.98469000  0.87406300  1
  N  N1  1  0.56068600  0.01531000  0.37406300  1
  Cl  Cl0  1  0.10966700  0.69711500  0.58705200  1
  Cl  Cl1  1  0.10537500  0.69247600  0.91419400  1
  Cl  Cl2  1  0.24162200  0.74876400  0.24948400  1
  Cl  Cl3  1  0.11980800  0.11717800  0.59648500  1
  Cl  Cl4  1  0.11609800  0.12021100  0.90358300  1
  Cl  Cl5  1  0.25982000  0.14261800  0.24945300  1
  Cl  Cl6  1  0.34997400  0.46605800  0.75193500  1
  Cl  Cl7  1  0.49497800  0.69529500  0.00502300  1
  Cl  Cl8  1  0.49555300  0.69472100  0.49788000  1
  Cl  Cl9  1  0.50502200  0.30470500  0.50502300  1
  Cl  Cl10  1  0.50444700  0.30527900  0.99788000  1
  Cl  Cl11  1  0.65002600  0.53394200  0.25193500  1
  Cl  Cl12  1  0.74018000  0.85738200  0.74945300  1
  Cl  Cl13  1  0.88019200  0.88282200  0.09648500  1
  Cl  Cl14  1  0.88390200  0.87978800  0.40358300  1
  Cl  Cl15  1  0.75837800  0.25123600  0.74948400  1
  Cl  Cl16  1  0.89033300  0.30288500  0.08705200  1
  Cl  Cl17  1  0.89462500  0.30752400  0.41419400  1
  O  O0  1  0.44124200  0.98482100  0.62296100  1
  O  O1  1  0.55875800  0.01517900  0.12296100  1
loop_
_geom_bond_atom_site_label_1
_geom_bond_atom_site_label_2
_geom_bond_distance
_geom_bond_site_symmetry_2
Gd0 O0 2.242526 1_555
Gd0 N1 2.265047 1_565
Gd1 N0 2.202213 1_554
Gd1 O1 2.327623 1_565
Gd2 N0 2.248148 1_555
Gd2 O0 2.303521 1_555
Gd3 N0 2.262064 1_545
Gd3 O0 2.323821 1_545
Gd4 N1 2.262064 1_565
Gd4 O1 2.323821 1_565
Gd5 N1 2.248148 1_555
Gd5 O1 2.303521 1_555
Gd6 O1 2.242526 1_556
Gd6 N0 2.265047 1_545
Gd7 N1 2.202213 1_555
Gd7 O0 2.327623 1_545
N0 O0 2.796444 1_555
N1 O1 2.796444 1_555
Cl0 Na2 2.845989 1_455
Cl0 Gd0 2.875498 1_555
Cl0 Gd2 2.876907 1_555
Cl0 Na1 3.011800 1_555
Cl0 Cl8 3.320347 1_555
Cl0 Cl14 3.500026 1_455
Cl0 Cl1 3.643527 1_555
Cl0 Cl3 3.876366 1_565
Cl0 Cl2 3.903480 1_555
Cl1 Na3 2.823563 1_456
Cl1 Gd1 2.828415 1_556
Cl1 Gd2 2.877644 1_555
Cl1 Na0 2.991851 1_555
Cl1 Cl7 3.341876 1_556
Cl1 Cl13 3.534904 1_456
Cl1 Cl2 3.889808 1_556
Cl2 Gd4 2.787521 1_555
Cl2 Gd0 2.899861 1_555
Cl2 Gd1 2.965616 1_555
Cl2 Cl7 3.542946 1_555
Cl2 Cl8 3.581272 1_555
Cl2 Cl5 3.615021 1_565
Cl3 Gd3 2.834773 1_555
Cl3 Gd0 2.853315 1_545
Cl3 Na1 2.924432 1_555
Cl3 O0 3.220074 1_545
Cl3 Gd7 3.270442 1_455
Cl3 Cl9 3.303087 1_555
Cl3 Cl4 3.420323 1_555
Cl4 Gd1 2.808168 1_546
Cl4 Gd3 2.824178 1_555
Cl4 Na0 2.902496 1_555
Cl4 Gd6 3.272462 1_455
Cl5 Gd5 2.753136 1_555
Cl5 Gd0 2.897491 1_545
Cl5 Gd1 2.964853 1_545
Cl5 Cl9 3.561451 1_555
Cl6 Na0 2.833201 1_555
Cl6 Na1 2.849186 1_555
Cl6 Gd2 2.868704 1_555
Cl6 Gd3 2.912679 1_555
Cl6 Cl7 3.527798 1_556
Cl6 Cl8 3.534499 1_555
Cl6 Cl9 3.535053 1_555
Cl7 Na0 2.836361 1_554
Cl7 Na3 2.861048 1_555
Cl7 Gd4 3.048316 1_555
Cl7 Gd2 3.116105 1_554
Cl7 O1 3.150796 1_565
Cl7 N0 3.200164 1_554
Cl7 Gd6 3.269509 1_564
Cl7 Gd1 3.334681 1_555
Cl8 Na1 2.826316 1_555
Cl8 Na2 2.861067 1_555
Cl8 Gd4 3.023629 1_555
Cl8 Gd2 3.141667 1_555
Cl8 O0 3.172428 1_555
Cl8 N1 3.183349 1_565
Cl8 Gd7 3.277404 1_565
Cl8 Gd0 3.335357 1_555
Cl9 Na2 2.836361 1_555
Cl9 Na1 2.861048 1_555
Cl9 Gd3 3.048316 1_555
Cl9 Gd5 3.116105 1_555
Cl9 O0 3.150796 1_545
Cl9 N1 3.200164 1_555
Cl9 Gd0 3.269509 1_545
Cl9 Gd7 3.334681 1_555
Cl10 Na3 2.826316 1_556
Cl10 Na0 2.861067 1_555
Cl10 Gd3 3.023629 1_555
Cl10 Gd5 3.141667 1_556
Cl10 O1 3.172428 1_556
Cl10 N0 3.183349 1_545
Cl10 Gd1 3.277404 1_546
Cl10 Cl16 3.320347 1_556
Cl10 Cl4 3.327985 1_555
Cl10 Gd6 3.335357 1_555
Cl10 Cl6 3.521617 1_555
Cl10 Cl5 3.525285 1_556
Cl10 Cl11 3.534499 1_556
Cl10 Cl15 3.581272 1_555
Cl11 Na2 2.833201 1_555
Cl11 Na3 2.849186 1_555
Cl11 Gd5 2.868704 1_555
Cl11 Gd4 2.912679 1_555
Cl11 Cl8 3.521617 1_555
Cl11 Cl9 3.527798 1_555
Cl11 Cl7 3.535053 1_555
Cl12 Gd2 2.753136 1_555
Cl12 Gd6 2.897491 1_565
Cl12 Gd7 2.964853 1_565
Cl12 Cl8 3.525285 1_555
Cl12 Cl7 3.561451 1_556
Cl12 Cl15 3.615021 1_565
Cl12 Cl4 3.757293 1_665
Cl12 Cl3 3.759300 1_665
Cl13 Gd4 2.834773 1_555
Cl13 Gd6 2.853315 1_564
Cl13 Na3 2.924432 1_555
Cl13 O1 3.220074 1_565
Cl13 Gd1 3.270442 1_655
Cl13 Cl4 3.284234 1_664
Cl13 Cl7 3.303087 1_555
Cl13 Cl14 3.420323 1_555
Cl13 Cl5 3.759300 1_665
Cl13 Cl16 3.876366 1_565
Cl13 Cl2 3.913183 1_655
Cl14 Gd7 2.808174 1_565
Cl14 Gd4 2.824179 1_555
Cl14 Na2 2.902488 1_555
Cl14 Gd0 3.272462 1_655
Cl14 Cl3 3.284238 1_665
Cl14 Cl8 3.327983 1_555
Cl14 Cl5 3.757296 1_665
Cl14 Cl2 3.877911 1_655
Cl15 Gd3 2.787521 1_555
Cl15 Gd6 2.899861 1_555
Cl15 Gd7 2.965616 1_555
Cl15 Cl9 3.542946 1_555
Cl15 Cl4 3.877916 1_655
Cl15 Cl17 3.889808 1_555
Cl15 Cl16 3.903480 1_556
Cl15 Cl3 3.913183 1_655
Cl16 Na0 2.845989 1_654
Cl16 Gd6 2.875498 1_554
Cl16 Gd5 2.876907 1_555
Cl16 Na3 3.011800 1_555
Cl16 Cl4 3.500032 1_654
Cl16 Cl17 3.643527 1_555
Cl17 Na1 2.823563 1_655
Cl17 Gd7 2.828415 1_555
Cl17 Gd5 2.877644 1_555
Cl17 Na2 2.991851 1_555
Cl17 Cl9 3.341876 1_555
Cl17 Cl3 3.534904 1_655
