# generated using pymatgen
data_Mg4Si3
_symmetry_space_group_name_H-M   'P 1'
_cell_length_a   4.68572500
_cell_length_b   7.50570353
_cell_length_c   7.61663056
_cell_angle_alpha   85.65086201
_cell_angle_beta   81.55960878
_cell_angle_gamma   82.34095216
_symmetry_Int_Tables_number   1
_chemical_formula_structural   Mg4Si3
_chemical_formula_sum   'Mg8 Si6'
_cell_volume   262.17614143
_cell_formula_units_Z   2
loop_
 _symmetry_equiv_pos_site_id
 _symmetry_equiv_pos_as_xyz
  1  'x, y, z'
loop_
 _atom_site_type_symbol
 _atom_site_label
 _atom_site_symmetry_multiplicity
 _atom_site_fract_x
 _atom_site_fract_y
 _atom_site_fract_z
 _atom_site_occupancy
  Mg  Mg0  1  0.05227400  0.02635200  0.29445000  1
  Mg  Mg1  1  0.54335000  0.79322000  0.53250400  1
  Mg  Mg2  1  0.31585300  0.45198900  0.76997900  1
  Mg  Mg3  1  0.81154100  0.25996300  0.97700600  1
  Mg  Mg4  1  0.18845900  0.74003700  0.02299400  1
  Mg  Mg5  1  0.45665000  0.20678000  0.46749600  1
  Mg  Mg6  1  0.68414700  0.54801100  0.23002100  1
  Mg  Mg7  1  0.94772600  0.97364800  0.70555000  1
  Si  Si0  1  0.38630400  0.07540100  0.87067700  1
  Si  Si1  1  0.61369600  0.92459900  0.12932300  1
  Si  Si2  1  0.76290400  0.62984900  0.83262800  1
  Si  Si3  1  0.88430500  0.37520600  0.57757000  1
  Si  Si4  1  0.11569500  0.62479400  0.42243000  1
  Si  Si5  1  0.23709600  0.37015100  0.16737200  1
loop_
_geom_bond_atom_site_label_1
_geom_bond_atom_site_label_2
_geom_bond_distance
_geom_bond_site_symmetry_2
Mg0 Si1 2.776900 1_445
Mg0 Si1 2.779280 1_545
Mg0 Si5 2.883814 1_555
Mg0 Mg5 2.974768 1_555
Mg0 Mg4 3.036662 1_545
Mg0 Si4 3.085976 1_545
Mg0 Mg5 3.089308 1_455
Mg0 Mg7 3.100703 1_445
Mg0 Mg3 3.134218 1_454
Mg0 Mg1 3.363718 1_545
Mg0 Mg1 3.376079 1_445
Mg0 Si3 3.454621 1_455
Mg1 Si4 2.765083 1_555
Mg1 Si2 2.777848 1_555
Mg1 Si4 2.844347 1_655
Mg1 Mg7 2.974768 1_555
Mg1 Mg6 3.000629 1_555
Mg1 Mg5 3.087911 1_565
Mg1 Mg7 3.089308 1_455
Mg1 Si1 3.137124 1_555
Mg1 Mg2 3.229039 1_555
Mg1 Si0 3.393709 1_565
Mg2 Si2 2.744683 1_555
Mg2 Si2 2.744928 1_455
Mg2 Si3 2.806684 1_455
Mg2 Si3 2.854410 1_555
Mg2 Si0 2.860676 1_555
Mg2 Mg4 2.948659 1_556
Mg2 Mg5 3.000629 1_555
Mg2 Si5 3.020847 1_556
Mg2 Si4 3.074598 1_555
Mg2 Mg3 3.101153 1_455
Mg2 Mg3 3.129959 1_555
Mg3 Si0 2.815085 1_555
Mg3 Si5 2.869273 1_656
Mg3 Si0 2.891968 1_655
Mg3 Si1 2.899091 1_546
Mg3 Si2 2.900119 1_555
Mg3 Si5 2.911068 1_556
Mg3 Mg6 2.948659 1_556
Mg3 Mg7 3.036662 1_545
Mg3 Si3 3.081452 1_555
Mg4 Si1 2.815085 1_555
Mg4 Si2 2.869273 1_454
Mg4 Si1 2.891968 1_455
Mg4 Si0 2.899091 1_564
Mg4 Si5 2.900119 1_555
Mg4 Si2 2.911068 1_554
Mg4 Si4 3.081452 1_555
Mg4 Mg6 3.101153 1_455
Mg4 Mg6 3.129959 1_555
Mg4 Mg7 3.134218 1_454
Mg5 Si3 2.765083 1_555
Mg5 Si5 2.777848 1_555
Mg5 Si3 2.844347 1_455
Mg5 Si0 3.137124 1_555
Mg5 Mg6 3.229039 1_555
Mg5 Mg7 3.363718 1_545
Mg5 Mg7 3.376079 1_445
Mg5 Si1 3.393709 1_545
Mg6 Si5 2.744683 1_555
Mg6 Si5 2.744928 1_655
Mg6 Si4 2.806684 1_655
Mg6 Si4 2.854410 1_555
Mg6 Si1 2.860676 1_555
Mg6 Si2 3.020847 1_554
Mg6 Si3 3.074598 1_555
Mg7 Si0 2.776900 1_665
Mg7 Si0 2.779280 1_565
Mg7 Si2 2.883814 1_555
Mg7 Si3 3.085976 1_565
Mg7 Si4 3.454621 1_655
Si0 Si1 2.500781 1_546
Si0 Si5 3.220563 1_556
Si1 Si2 3.220563 1_554
Si2 Si3 2.774797 1_555
Si2 Si4 3.313702 1_655
Si3 Si4 2.431211 1_655
Si3 Si5 3.313702 1_655
Si4 Si5 2.774797 1_555
