# generated using pymatgen
data_YTl2P2S7
_symmetry_space_group_name_H-M   'P 1'
_cell_length_a   12.03001253
_cell_length_b   12.03001253
_cell_length_c   18.92261415
_cell_angle_alpha   60.72945839
_cell_angle_beta   60.72945839
_cell_angle_gamma   32.54384170
_symmetry_Int_Tables_number   1
_chemical_formula_structural   YTl2P2S7
_chemical_formula_sum   'Y4 Tl8 P8 S28'
_cell_volume   1267.75658015
_cell_formula_units_Z   4
loop_
 _symmetry_equiv_pos_site_id
 _symmetry_equiv_pos_as_xyz
  1  'x, y, z'
loop_
 _atom_site_type_symbol
 _atom_site_label
 _atom_site_symmetry_multiplicity
 _atom_site_fract_x
 _atom_site_fract_y
 _atom_site_fract_z
 _atom_site_occupancy
  Y  Y0  1  0.88433600  0.79705700  0.23864000  1
  Y  Y1  1  0.20294300  0.11566400  0.26136000  1
  Y  Y2  1  0.11566400  0.20294300  0.76136000  1
  Y  Y3  1  0.79705700  0.88433600  0.73864000  1
  Tl  Tl0  1  0.82718600  0.80865000  0.02621400  1
  Tl  Tl1  1  0.19135000  0.17281400  0.47378600  1
  Tl  Tl2  1  0.17281400  0.19135000  0.97378600  1
  Tl  Tl3  1  0.80865000  0.82718600  0.52621400  1
  Tl  Tl4  1  0.53930100  0.48401500  0.11983700  1
  Tl  Tl5  1  0.51598500  0.46069900  0.38016300  1
  Tl  Tl6  1  0.46069900  0.51598500  0.88016300  1
  Tl  Tl7  1  0.48401500  0.53930100  0.61983700  1
  P  P0  1  0.67143100  0.66188700  0.35982000  1
  P  P1  1  0.33811300  0.32856900  0.14018000  1
  P  P2  1  0.32856900  0.33811300  0.64018000  1
  P  P3  1  0.66188700  0.67143100  0.85982000  1
  P  P4  1  0.97658300  0.92332300  0.30891100  1
  P  P5  1  0.07667700  0.02341700  0.19108900  1
  P  P6  1  0.02341700  0.07667700  0.69108900  1
  P  P7  1  0.92332300  0.97658300  0.80891100  1
  S  S0  1  0.86554800  0.35205000  0.39016900  1
  S  S1  1  0.64795000  0.13445200  0.10983100  1
  S  S2  1  0.13445200  0.64795000  0.60983100  1
  S  S3  1  0.35205000  0.86554800  0.89016900  1
  S  S4  1  0.17691600  0.62485400  0.30550900  1
  S  S5  1  0.37514600  0.82308400  0.19449100  1
  S  S6  1  0.82308400  0.37514600  0.69449100  1
  S  S7  1  0.62485400  0.17691600  0.80550900  1
  S  S8  1  0.16588900  0.63029700  0.09005600  1
  S  S9  1  0.36970300  0.83411100  0.40994400  1
  S  S10  1  0.83411100  0.36970300  0.90994400  1
  S  S11  1  0.63029700  0.16588900  0.59005600  1
  S  S12  1  0.88830500  0.31562300  0.19530900  1
  S  S13  1  0.68437700  0.11169500  0.30469100  1
  S  S14  1  0.11169500  0.68437700  0.80469100  1
  S  S15  1  0.31562300  0.88830500  0.69530900  1
  S  S16  1  0.75251800  0.71311300  0.40083900  1
  S  S17  1  0.28688700  0.24748200  0.09916100  1
  S  S18  1  0.24748200  0.28688700  0.59916100  1
  S  S19  1  0.71311300  0.75251800  0.90083900  1
  S  S20  1  0.22356400  0.33212000  0.26519100  1
  S  S21  1  0.66788000  0.77643600  0.23480900  1
  S  S22  1  0.77643600  0.66788000  0.73480900  1
  S  S23  1  0.33212000  0.22356400  0.76519100  1
  S  S24  1  0.99551200  0.94968300  0.39804600  1
  S  S25  1  0.05031700  0.00448800  0.10195400  1
  S  S26  1  0.00448800  0.05031700  0.60195400  1
  S  S27  1  0.94968300  0.99551200  0.89804600  1
loop_
_geom_bond_atom_site_label_1
_geom_bond_atom_site_label_2
_geom_bond_distance
_geom_bond_site_symmetry_2
P0 S16 2.038483 1_555
P0 S0 2.054136 1_555
P0 S9 2.059980 1_555
P0 S21 2.075688 1_555
P1 S17 2.038483 1_555
P1 S1 2.054136 1_555
P1 S8 2.059980 1_555
P1 S20 2.075688 1_555
P2 S18 2.038483 1_555
P2 S2 2.054136 1_555
P2 S11 2.059980 1_555
P2 S23 2.075688 1_555
P3 S19 2.038483 1_555
P3 S3 2.054136 1_555
P3 S10 2.059980 1_555
P3 S22 2.075688 1_555
P4 S24 2.004398 1_555
P4 S13 2.041042 1_565
P4 S4 2.046880 1_655
P4 P5 2.250484 1_665
P5 S25 2.004398 1_555
P5 S12 2.041042 1_455
P5 S5 2.046880 1_545
P6 S26 2.004398 1_555
P6 S15 2.041042 1_545
P6 S6 2.046880 1_455
P6 P7 2.250484 1_445
P7 S27 2.004398 1_555
P7 S14 2.041042 1_655
P7 S7 2.046880 1_565
S0 Y1 2.854121 1_655
S0 Tl5 3.270797 1_555
S0 Tl1 3.315781 1_655
S0 Tl7 4.202853 1_555
S1 Y0 2.854121 1_545
S1 Tl4 3.270797 1_555
S1 Tl0 3.315781 1_545
S1 Tl6 4.202853 1_554
S2 Y3 2.854121 1_455
S2 Tl7 3.270797 1_555
S2 Tl3 3.315781 1_455
S2 Tl5 4.202853 1_555
S3 Y2 2.854121 1_565
S3 Tl6 3.270797 1_555
S3 Tl2 3.315781 1_565
S3 Tl4 4.202853 1_556
S4 Y0 2.789234 1_455
S4 Tl5 3.443789 1_555
S4 Tl4 3.551082 1_555
S4 Tl3 4.081741 1_455
S5 Y1 2.789234 1_565
S5 Tl4 3.443789 1_555
S5 Tl5 3.551082 1_555
S5 Tl2 4.081741 1_564
S6 Y2 2.789234 1_655
S6 Tl7 3.443789 1_555
S6 Tl6 3.551082 1_555
S6 Tl1 4.081741 1_655
S7 Y3 2.789234 1_545
S7 Tl6 3.443789 1_555
S7 Tl7 3.551082 1_555
S7 Tl0 4.081741 1_546
S8 Y0 2.854687 1_455
S8 Tl0 3.194486 1_455
S8 Tl4 3.430991 1_555
S8 Tl6 3.686171 1_554
S9 Y1 2.854687 1_565
S9 Tl1 3.194486 1_565
S9 Tl5 3.430991 1_555
S9 Tl7 3.686171 1_555
S10 Y2 2.854687 1_655
S10 Tl2 3.194486 1_655
S10 Tl6 3.430991 1_555
S10 Tl4 3.686171 1_556
S11 Y3 2.854687 1_545
S11 Tl3 3.194486 1_545
S11 Tl7 3.430991 1_555
S11 Tl5 3.686171 1_555
S12 Y1 2.830354 1_655
S12 Tl4 3.530684 1_555
S12 Tl5 3.579511 1_555
S12 Tl2 3.872002 1_654
S13 Y0 2.830354 1_545
S13 Tl5 3.530684 1_555
S13 Tl4 3.579511 1_555
S13 Tl3 3.872002 1_545
S14 Y3 2.830354 1_455
S14 Tl6 3.530684 1_555
S14 Tl7 3.579511 1_555
S14 Tl0 3.872002 1_456
S15 Y2 2.830354 1_565
S15 Tl7 3.530684 1_555
S15 Tl6 3.579511 1_555
S15 Tl1 3.872002 1_565
S16 Y0 2.804331 1_555
S16 Tl1 3.538857 1_655
S16 Tl1 3.670418 1_565
S16 Tl3 3.778902 1_555
S17 Y1 2.804331 1_555
S17 Tl0 3.538857 1_545
S17 Tl0 3.670418 1_455
S17 Tl2 3.778902 1_554
S18 Y2 2.804331 1_555
S18 Tl3 3.538857 1_455
S18 Tl3 3.670418 1_545
S18 Tl1 3.778902 1_555
S19 Y3 2.804331 1_555
S19 Tl2 3.538857 1_565
S19 Tl2 3.670418 1_655
S19 Tl0 3.778902 1_556
S20 Y1 2.852841 1_555
S20 Y0 2.994080 1_455
S20 Tl1 3.429618 1_555
S21 Y0 2.852841 1_555
S21 Y1 2.994080 1_565
S21 Tl0 3.429618 1_555
S22 Y3 2.852841 1_555
S22 Y2 2.994080 1_655
S22 Tl3 3.429618 1_555
S23 Y2 2.852841 1_555
S23 Y3 2.994080 1_545
S23 Tl2 3.429618 1_555
S24 Tl3 3.140983 1_555
S24 Tl5 3.357017 1_565
S24 Tl5 3.420434 1_655
S24 Y1 3.734007 1_665
S25 Tl2 3.140983 1_554
S25 Tl4 3.357017 1_455
S25 Tl4 3.420434 1_545
S25 Y0 3.734007 1_445
S26 Tl1 3.140983 1_555
S26 Tl7 3.357017 1_545
S26 Tl7 3.420434 1_455
S26 Y3 3.734007 1_445
S27 Tl0 3.140983 1_556
S27 Tl6 3.357017 1_655
S27 Tl6 3.420434 1_565
S27 Y2 3.734007 1_665
