# generated using pymatgen
data_CsU(OF)3
_symmetry_space_group_name_H-M   'P 1'
_cell_length_a   11.69476100
_cell_length_b   6.17766900
_cell_length_c   9.46858499
_cell_angle_alpha   85.34140520
_cell_angle_beta   90.00000000
_cell_angle_gamma   90.00000000
_symmetry_Int_Tables_number   1
_chemical_formula_structural   CsU(OF)3
_chemical_formula_sum   'Cs4 U4 O12 F12'
_cell_volume   681.81088573
_cell_formula_units_Z   4
loop_
 _symmetry_equiv_pos_site_id
 _symmetry_equiv_pos_as_xyz
  1  'x, y, z'
loop_
 _atom_site_type_symbol
 _atom_site_label
 _atom_site_symmetry_multiplicity
 _atom_site_fract_x
 _atom_site_fract_y
 _atom_site_fract_z
 _atom_site_occupancy
  Cs  Cs0  1  0.21254200  0.41466700  0.48792300  1
  Cs  Cs1  1  0.71254200  0.58533300  0.01207700  1
  Cs  Cs2  1  0.78745800  0.58533300  0.51207700  1
  Cs  Cs3  1  0.28745800  0.41466700  0.98792300  1
  U  U0  1  0.03910500  0.89280200  0.19546600  1
  U  U1  1  0.53910500  0.10719800  0.30453400  1
  U  U2  1  0.96089500  0.10719800  0.80453400  1
  U  U3  1  0.46089500  0.89280200  0.69546600  1
  O  O0  1  0.12626400  0.13380500  0.21721100  1
  O  O1  1  0.62626400  0.86619500  0.28278900  1
  O  O2  1  0.87373600  0.86619500  0.78278900  1
  O  O3  1  0.37373600  0.13380500  0.71721100  1
  O  O4  1  0.94225700  0.66428700  0.17663200  1
  O  O5  1  0.44225700  0.33571300  0.32336800  1
  O  O6  1  0.05774300  0.33571300  0.82336800  1
  O  O7  1  0.55774300  0.66428700  0.67663200  1
  O  O8  1  0.88778900  0.03544600  0.33523500  1
  O  O9  1  0.38778900  0.96455400  0.16476500  1
  O  O10  1  0.11221100  0.96455400  0.66476500  1
  O  O11  1  0.61221100  0.03544600  0.83523500  1
  F  F0  1  0.09069600  0.90643700  0.95549400  1
  F  F1  1  0.59069600  0.09356300  0.54450600  1
  F  F2  1  0.90930400  0.09356300  0.04450600  1
  F  F3  1  0.40930400  0.90643700  0.45549400  1
  F  F4  1  0.18738500  0.68171900  0.20895300  1
  F  F5  1  0.68738500  0.31828100  0.29104700  1
  F  F6  1  0.81261500  0.31828100  0.79104700  1
  F  F7  1  0.31261500  0.68171900  0.70895300  1
  F  F8  1  0.03181800  0.79650700  0.42760000  1
  F  F9  1  0.53181800  0.20349300  0.07240000  1
  F  F10  1  0.96818200  0.20349300  0.57240000  1
  F  F11  1  0.46818200  0.79650700  0.92760000  1
loop_
_geom_bond_atom_site_label_1
_geom_bond_atom_site_label_2
_geom_bond_distance
_geom_bond_site_symmetry_2
Cs0 F7 3.005362 1_555
Cs0 F4 3.012917 1_555
Cs0 O5 3.163244 1_555
Cs0 F8 3.184131 1_555
Cs0 F10 3.215403 1_455
Cs0 O3 3.265835 1_555
Cs0 O10 3.340090 1_545
Cs0 O0 3.364712 1_555
Cs0 O6 3.654006 1_555
Cs0 F3 3.803570 1_555
Cs1 F6 3.005362 1_554
Cs1 F5 3.012917 1_555
Cs1 O4 3.163244 1_555
Cs1 F9 3.184131 1_555
Cs1 F11 3.215403 1_554
Cs1 O2 3.265835 1_554
Cs1 O11 3.340090 1_564
Cs1 O1 3.364712 1_555
Cs1 O7 3.654006 1_554
Cs1 F2 3.803570 1_555
Cs2 F5 3.005362 1_555
Cs2 F6 3.012917 1_555
Cs2 O7 3.163244 1_555
Cs2 F10 3.184131 1_555
Cs2 F8 3.215403 1_655
Cs2 O1 3.265835 1_555
Cs2 O8 3.340090 1_565
Cs2 O2 3.364712 1_555
Cs2 O4 3.654006 1_555
Cs2 F1 3.803570 1_555
Cs3 F4 3.005362 1_556
Cs3 F7 3.012917 1_555
Cs3 O6 3.163244 1_555
Cs3 F11 3.184131 1_555
Cs3 F9 3.215403 1_556
Cs3 O0 3.265835 1_556
Cs3 O9 3.340090 1_546
Cs3 O3 3.364712 1_555
Cs3 O5 3.654006 1_556
Cs3 F0 3.803570 1_555
O0 U0 1.829700 1_545
O0 O8 3.047257 1_455
O0 O9 3.283051 1_545
O1 U1 1.829700 1_565
O1 O9 3.047257 1_555
O1 O8 3.283051 1_565
O2 U2 1.829700 1_565
O3 U3 1.829700 1_545
O4 U0 1.829858 1_655
O4 O8 2.911649 1_565
O5 U1 1.829858 1_555
O5 O9 2.911649 1_545
O6 U2 1.829858 1_455
O7 U3 1.829858 1_555
O8 U0 2.418447 1_645
O9 U1 2.418447 1_565
O10 U2 2.418447 1_465
O10 O6 2.911649 1_565
O10 O2 3.047257 1_455
O10 O3 3.283051 1_565
O11 U3 2.418447 1_545
O11 O7 2.911649 1_545
O11 O3 3.047257 1_555
O11 O2 3.283051 1_545
F0 U0 2.345826 1_556
F0 U2 2.365933 1_465
F0 F2 2.589404 1_466
F0 O10 2.758538 1_555
F0 O6 2.864861 1_565
F0 F4 2.902436 1_556
F0 O0 2.975275 1_566
F0 O4 3.021061 1_456
F0 O2 3.039707 1_455
F1 U1 2.345826 1_555
F1 U3 2.365933 1_545
F1 F3 2.589404 1_545
F1 O11 2.758538 1_555
F1 O7 2.864861 1_545
F1 F5 2.902436 1_555
F1 O1 2.975275 1_545
F1 O5 3.021061 1_555
F1 O3 3.039707 1_555
F2 U2 2.345826 1_554
F2 U0 2.365933 1_645
F2 O8 2.758538 1_555
F2 O4 2.864861 1_545
F2 F6 2.902436 1_554
F2 O2 2.975275 1_544
F2 O6 3.021061 1_654
F2 O0 3.039707 1_655
F3 U3 2.345826 1_555
F3 U1 2.365933 1_565
F3 O9 2.758538 1_555
F3 O5 2.864861 1_565
F3 F7 2.902436 1_555
F3 O3 2.975275 1_565
F3 O7 3.021061 1_555
F3 O1 3.039707 1_555
F4 U0 2.167205 1_555
F4 O4 2.885941 1_455
F4 F8 2.887437 1_555
F4 O0 2.890062 1_565
F4 O9 2.932925 1_555
F5 U1 2.167205 1_555
F5 O5 2.885941 1_555
F5 F9 2.887437 1_555
F5 O1 2.890062 1_545
F5 O8 2.932925 1_555
F6 U2 2.167205 1_555
F6 O6 2.885941 1_655
F6 O2 2.890062 1_545
F6 O11 2.932925 1_555
F7 U3 2.167205 1_555
F7 O7 2.885941 1_555
F7 O3 2.890062 1_565
F7 O10 2.932925 1_555
F8 U0 2.231562 1_555
F8 O8 2.360329 1_465
F8 O10 2.717194 1_555
F8 O4 2.779634 1_455
F8 O0 2.975901 1_565
F9 U1 2.231562 1_555
F9 O9 2.360329 1_545
F9 O11 2.717194 1_554
F9 O5 2.779634 1_555
F9 O1 2.975901 1_545
F10 U2 2.231562 1_555
F10 O10 2.360329 1_645
F10 O8 2.717194 1_555
F10 O6 2.779634 1_655
F10 F6 2.887437 1_555
F10 O2 2.975901 1_545
F10 F8 3.052031 1_645
F11 U3 2.231562 1_555
F11 O11 2.360329 1_565
F11 O9 2.717194 1_556
F11 O7 2.779634 1_555
F11 F7 2.887437 1_555
F11 O3 2.975901 1_565
F11 F9 3.052031 1_566
