# generated using pymatgen
data_BP(PbO2)4
_symmetry_space_group_name_H-M   'P 1'
_cell_length_a   7.12055100
_cell_length_b   10.34281400
_cell_length_c   13.12869882
_cell_angle_alpha   67.04089159
_cell_angle_beta   90.00000000
_cell_angle_gamma   90.00000000
_symmetry_Int_Tables_number   1
_chemical_formula_structural   BP(PbO2)4
_chemical_formula_sum   'B4 P4 Pb16 O32'
_cell_volume   890.29005235
_cell_formula_units_Z   4
loop_
 _symmetry_equiv_pos_site_id
 _symmetry_equiv_pos_as_xyz
  1  'x, y, z'
loop_
 _atom_site_type_symbol
 _atom_site_label
 _atom_site_symmetry_multiplicity
 _atom_site_fract_x
 _atom_site_fract_y
 _atom_site_fract_z
 _atom_site_occupancy
  B  B0  1  0.73367200  0.54162900  0.13774400  1
  B  B1  1  0.23367200  0.45837100  0.36225600  1
  B  B2  1  0.26632800  0.45837100  0.86225600  1
  B  B3  1  0.76632800  0.54162900  0.63774400  1
  P  P0  1  0.74963100  0.10143400  0.10110600  1
  P  P1  1  0.24963100  0.89856600  0.39889400  1
  P  P2  1  0.25036900  0.89856600  0.89889400  1
  P  P3  1  0.75036900  0.10143400  0.60110600  1
  Pb  Pb0  1  0.22637700  0.13220300  0.06761400  1
  Pb  Pb1  1  0.72637700  0.86779700  0.43238600  1
  Pb  Pb2  1  0.77362300  0.86779700  0.93238600  1
  Pb  Pb3  1  0.27362300  0.13220300  0.56761400  1
  Pb  Pb4  1  0.19529300  0.54816000  0.07472600  1
  Pb  Pb5  1  0.69529300  0.45184000  0.42527400  1
  Pb  Pb6  1  0.80470700  0.45184000  0.92527400  1
  Pb  Pb7  1  0.30470700  0.54816000  0.57472600  1
  Pb  Pb8  1  0.99179500  0.24122600  0.29315000  1
  Pb  Pb9  1  0.49179500  0.75877400  0.20685000  1
  Pb  Pb10  1  0.00820500  0.75877400  0.70685000  1
  Pb  Pb11  1  0.50820500  0.24122600  0.79315000  1
  Pb  Pb12  1  0.49116100  0.23176300  0.26541000  1
  Pb  Pb13  1  0.99116100  0.76823700  0.23459000  1
  Pb  Pb14  1  0.50883900  0.76823700  0.73459000  1
  Pb  Pb15  1  0.00883900  0.23176300  0.76541000  1
  O  O0  1  0.21913300  0.29151300  0.16242200  1
  O  O1  1  0.71913300  0.70848700  0.33757800  1
  O  O2  1  0.78086700  0.70848700  0.83757800  1
  O  O3  1  0.28086700  0.29151300  0.66242200  1
  O  O4  1  0.85858800  0.06616300  0.21203800  1
  O  O5  1  0.35858800  0.93383700  0.28796200  1
  O  O6  1  0.14141200  0.93383700  0.78796200  1
  O  O7  1  0.64141200  0.06616300  0.71203800  1
  O  O8  1  0.67340600  0.96290100  0.09583700  1
  O  O9  1  0.17340600  0.03709900  0.40416300  1
  O  O10  1  0.32659400  0.03709900  0.90416300  1
  O  O11  1  0.82659400  0.96290100  0.59583700  1
  O  O12  1  0.88888300  0.17304300  0.00254000  1
  O  O13  1  0.38888300  0.82695700  0.49746000  1
  O  O14  1  0.11111700  0.82695700  0.99746000  1
  O  O15  1  0.61111700  0.17304300  0.50254000  1
  O  O16  1  0.25054700  0.31460100  0.88788600  1
  O  O17  1  0.75054700  0.68539900  0.61211400  1
  O  O18  1  0.74945300  0.68539900  0.11211400  1
  O  O19  1  0.24945300  0.31460100  0.38788600  1
  O  O20  1  0.58386000  0.20622600  0.08949500  1
  O  O21  1  0.08386000  0.79377400  0.41050500  1
  O  O22  1  0.41614000  0.79377400  0.91050500  1
  O  O23  1  0.91614000  0.20622600  0.58949500  1
  O  O24  1  0.58669900  0.47012400  0.20527000  1
  O  O25  1  0.08669900  0.52987600  0.29473000  1
  O  O26  1  0.41330100  0.52987600  0.79473000  1
  O  O27  1  0.91330100  0.47012400  0.70527000  1
  O  O28  1  0.13273700  0.52530000  0.90337200  1
  O  O29  1  0.63273700  0.47470000  0.59662800  1
  O  O30  1  0.86726300  0.47470000  0.09662800  1
  O  O31  1  0.36726300  0.52530000  0.40337200  1
loop_
_geom_bond_atom_site_label_1
_geom_bond_atom_site_label_2
_geom_bond_distance
_geom_bond_site_symmetry_2
B0 O24 1.384417 1_555
B0 O18 1.395217 1_555
B0 O30 1.402479 1_555
B1 O25 1.384417 1_555
B1 O19 1.395217 1_555
B1 O31 1.402479 1_555
B2 O26 1.384417 1_555
B2 O16 1.395217 1_555
B2 O28 1.402479 1_555
B3 O27 1.384417 1_555
B3 O17 1.395217 1_555
B3 O29 1.402479 1_555
O0 Pb8 2.267196 1_455
O0 Pb12 2.304372 1_555
O0 Pb0 2.422175 1_555
O0 Pb4 2.452803 1_555
O0 O20 3.016353 1_555
O0 O30 3.055599 1_455
O1 Pb9 2.267196 1_555
O1 Pb13 2.304372 1_555
O1 Pb1 2.422175 1_555
O1 Pb5 2.452803 1_555
O1 O21 3.016353 1_655
O1 O31 3.055599 1_555
O2 Pb10 2.267196 1_655
O2 Pb14 2.304372 1_555
O2 Pb2 2.422175 1_555
O2 Pb6 2.452803 1_555
O2 O22 3.016353 1_555
O2 O28 3.055599 1_655
O3 Pb11 2.267196 1_555
O3 Pb15 2.304372 1_555
O3 Pb3 2.422175 1_555
O3 Pb7 2.452803 1_555
O4 P0 1.562559 1_555
O4 Pb8 2.610812 1_555
O4 Pb1 2.972205 1_545
O4 Pb13 3.124422 1_545
O4 Pb0 3.147981 1_655
O5 P1 1.562559 1_555
O5 Pb9 2.610812 1_555
O5 Pb0 2.972205 1_565
O5 Pb12 3.124422 1_565
O5 Pb1 3.147981 1_555
O6 P2 1.562559 1_555
O6 Pb10 2.610812 1_555
O6 Pb3 2.972205 1_565
O6 Pb15 3.124422 1_565
O6 Pb2 3.147981 1_455
O7 P3 1.562559 1_555
O7 Pb11 2.610812 1_555
O7 Pb2 2.972205 1_545
O7 Pb14 3.124422 1_545
O7 Pb3 3.147981 1_555
O8 P0 1.558743 1_565
O8 Pb9 2.419355 1_555
O8 Pb2 2.779999 1_554
O8 Pb13 3.103236 1_555
O9 P1 1.558743 1_545
O9 Pb8 2.419355 1_455
O9 Pb3 2.779999 1_555
O9 Pb12 3.103236 1_555
O10 P2 1.558743 1_545
O10 Pb11 2.419355 1_555
O10 Pb0 2.779999 1_556
O10 Pb15 3.103236 1_555
O11 P3 1.558743 1_565
O11 Pb10 2.419355 1_655
O11 Pb1 2.779999 1_555
O11 Pb14 3.103236 1_555
O12 P0 1.567979 1_555
O12 Pb0 2.530193 1_655
O12 Pb6 2.724172 1_554
O12 Pb15 3.052119 1_654
O13 P1 1.567979 1_555
O13 Pb1 2.530193 1_555
O13 Pb7 2.724172 1_555
O13 Pb14 3.052119 1_555
O14 P2 1.567979 1_555
O14 Pb2 2.530193 1_455
O14 Pb4 2.724172 1_556
O14 Pb13 3.052119 1_456
O15 P3 1.567979 1_555
O15 Pb3 2.530193 1_555
O15 Pb5 2.724172 1_555
O15 Pb12 3.052119 1_555
O16 Pb0 2.384004 1_556
O16 Pb11 2.495046 1_555
O16 Pb15 2.712290 1_555
O17 Pb1 2.384004 1_555
O17 Pb10 2.495046 1_655
O17 Pb14 2.712290 1_555
O18 Pb2 2.384004 1_554
O18 Pb9 2.495046 1_555
O18 Pb13 2.712290 1_555
O19 Pb3 2.384004 1_555
O19 Pb8 2.495046 1_455
O19 Pb12 2.712290 1_555
O20 P0 1.569191 1_555
O20 Pb12 2.513026 1_555
O20 Pb0 2.705495 1_555
O20 Pb6 3.049877 1_554
O21 P1 1.569191 1_555
O21 Pb13 2.513026 1_455
O21 Pb1 2.705495 1_455
O21 Pb7 3.049877 1_555
O22 P2 1.569191 1_555
O22 Pb14 2.513026 1_555
O22 Pb2 2.705495 1_555
O22 Pb4 3.049877 1_556
O23 P3 1.569191 1_555
O23 Pb15 2.513026 1_655
O23 Pb3 2.705495 1_655
O23 O3 3.016353 1_655
O23 Pb5 3.049877 1_555
O24 Pb12 2.376013 1_555
O24 Pb5 2.924074 1_555
O24 Pb9 3.068931 1_555
O24 Pb4 3.205797 1_555
O25 Pb13 2.376013 1_455
O25 Pb4 2.924074 1_555
O25 Pb8 3.068931 1_455
O25 Pb5 3.205797 1_455
O26 Pb14 2.376013 1_555
O26 Pb7 2.924074 1_555
O26 Pb11 3.068931 1_555
O26 Pb6 3.205797 1_555
O27 Pb15 2.376013 1_655
O27 Pb6 2.924074 1_555
O27 Pb10 3.068931 1_655
O27 Pb7 3.205797 1_655
O28 Pb4 2.393788 1_556
O28 Pb6 2.438290 1_455
O28 Pb10 2.900636 1_555
O29 Pb5 2.393788 1_555
O29 Pb7 2.438290 1_555
O29 Pb11 2.900636 1_555
O29 O3 3.055599 1_555
O30 Pb6 2.393788 1_554
O30 Pb4 2.438290 1_655
O30 Pb8 2.900636 1_555
O31 Pb7 2.393788 1_555
O31 Pb5 2.438290 1_555
O31 Pb9 2.900636 1_555
