# generated using pymatgen
data_ThMg(N3O13)2
_symmetry_space_group_name_H-M   'P 1'
_cell_length_a   8.54715100
_cell_length_b   9.04398000
_cell_length_c   13.21162274
_cell_angle_alpha   82.61073970
_cell_angle_beta   90.00000000
_cell_angle_gamma   90.00000000
_symmetry_Int_Tables_number   1
_chemical_formula_structural   ThMg(N3O13)2
_chemical_formula_sum   'Th2 Mg2 N12 O52'
_cell_volume   1012.78062108
_cell_formula_units_Z   2
loop_
 _symmetry_equiv_pos_site_id
 _symmetry_equiv_pos_as_xyz
  1  'x, y, z'
loop_
 _atom_site_type_symbol
 _atom_site_label
 _atom_site_symmetry_multiplicity
 _atom_site_fract_x
 _atom_site_fract_y
 _atom_site_fract_z
 _atom_site_occupancy
  Th  Th0  1  0.00000000  0.00000000  0.00000000  1
  Th  Th1  1  0.50000000  0.00000000  0.50000000  1
  Mg  Mg0  1  0.00000000  0.50000000  0.50000000  1
  Mg  Mg1  1  0.50000000  0.50000000  0.00000000  1
  N  N0  1  0.67278800  0.96299000  0.08518400  1
  N  N1  1  0.17278800  0.03701000  0.41481600  1
  N  N2  1  0.32721200  0.03701000  0.91481600  1
  N  N3  1  0.82721200  0.96299000  0.58518400  1
  N  N4  1  0.11925600  0.79901800  0.18631000  1
  N  N5  1  0.61925600  0.20098200  0.31369000  1
  N  N6  1  0.88074400  0.20098200  0.81369000  1
  N  N7  1  0.38074400  0.79901800  0.68631000  1
  N  N8  1  0.05547000  0.28149100  0.09813100  1
  N  N9  1  0.55547000  0.71850900  0.40186900  1
  N  N10  1  0.94453000  0.71850900  0.90186900  1
  N  N11  1  0.44453000  0.28149100  0.59813100  1
  O  O0  1  0.76100400  0.07430900  0.09922300  1
  O  O1  1  0.26100400  0.92569100  0.40077700  1
  O  O2  1  0.23899600  0.92569100  0.90077700  1
  O  O3  1  0.73899600  0.07430900  0.59922300  1
  O  O4  1  0.73565500  0.86961800  0.03033100  1
  O  O5  1  0.23565500  0.13038200  0.46966900  1
  O  O6  1  0.26434500  0.13038200  0.96966900  1
  O  O7  1  0.76434500  0.86961800  0.53033100  1
  O  O8  1  0.54153000  0.94570000  0.12051400  1
  O  O9  1  0.04153000  0.05430000  0.37948600  1
  O  O10  1  0.45847000  0.05430000  0.87948600  1
  O  O11  1  0.95847000  0.94570000  0.62051400  1
  O  O12  1  0.21427100  0.85409200  0.11749300  1
  O  O13  1  0.71427100  0.14590800  0.38250700  1
  O  O14  1  0.78572900  0.14590800  0.88250700  1
  O  O15  1  0.28572900  0.85409200  0.61749300  1
  O  O16  1  0.97739900  0.83938700  0.17902900  1
  O  O17  1  0.47739900  0.16061300  0.32097100  1
  O  O18  1  0.02260100  0.16061300  0.82097100  1
  O  O19  1  0.52260100  0.83938700  0.67902900  1
  O  O20  1  0.16775100  0.70597600  0.25805300  1
  O  O21  1  0.66775100  0.29402400  0.24194700  1
  O  O22  1  0.83224900  0.29402400  0.74194700  1
  O  O23  1  0.33224900  0.70597600  0.75805300  1
  O  O24  1  0.98326200  0.28296300  0.01263500  1
  O  O25  1  0.48326200  0.71703700  0.48736500  1
  O  O26  1  0.01673800  0.71703700  0.98736500  1
  O  O27  1  0.51673800  0.28296300  0.51263500  1
  O  O28  1  0.08502200  0.15186100  0.14571100  1
  O  O29  1  0.58502200  0.84813900  0.35428900  1
  O  O30  1  0.91497800  0.84813900  0.85428900  1
  O  O31  1  0.41497800  0.15186100  0.64571100  1
  O  O32  1  0.09510400  0.39704200  0.13117200  1
  O  O33  1  0.59510400  0.60295800  0.36882800  1
  O  O34  1  0.90489600  0.60295800  0.86882800  1
  O  O35  1  0.40489600  0.39704200  0.63117200  1
  O  O36  1  0.48486100  0.30486300  0.10215000  1
  O  O37  1  0.98486100  0.69513700  0.39785000  1
  O  O38  1  0.51513900  0.69513700  0.89785000  1
  O  O39  1  0.01513900  0.30486300  0.60215000  1
  O  O40  1  0.51597700  0.60345400  0.13847700  1
  O  O41  1  0.01597700  0.39654600  0.36152300  1
  O  O42  1  0.48402300  0.39654600  0.86152300  1
  O  O43  1  0.98402300  0.60345400  0.63847700  1
  O  O44  1  0.72728500  0.52313500  0.06851600  1
  O  O45  1  0.22728500  0.47686500  0.43148400  1
  O  O46  1  0.27271500  0.47686500  0.93148400  1
  O  O47  1  0.77271500  0.52313500  0.56851600  1
  O  O48  1  0.66853500  0.58793600  0.14343400  1
  O  O49  1  0.16853500  0.41206400  0.35656600  1
  O  O50  1  0.33146500  0.41206400  0.85656600  1
  O  O51  1  0.83146500  0.58793600  0.64343400  1
loop_
_geom_bond_atom_site_label_1
_geom_bond_atom_site_label_2
_geom_bond_distance
_geom_bond_site_symmetry_2
Mg0 O37 2.083271 1_455
Mg0 O39 2.083271 1_555
Mg0 O43 2.163666 1_455
Mg0 O41 2.163666 1_555
Mg0 O45 2.164658 1_555
Mg0 O47 2.164658 1_455
Mg1 O38 2.083271 1_554
Mg1 O36 2.083271 1_555
Mg1 O40 2.163666 1_555
Mg1 O42 2.163666 1_554
Mg1 O44 2.164658 1_555
Mg1 O46 2.164658 1_554
N0 O8 1.217443 1_555
N0 O0 1.290164 1_565
N0 O4 1.297855 1_555
N1 O9 1.217443 1_555
N1 O1 1.290164 1_545
N1 O5 1.297855 1_555
N2 O10 1.217443 1_555
N2 O2 1.290164 1_545
N2 O6 1.297855 1_555
N3 O11 1.217443 1_555
N3 O3 1.290164 1_565
N3 O7 1.297855 1_555
N4 O20 1.254244 1_555
N4 O16 1.266336 1_455
N4 O12 1.271906 1_555
N5 O21 1.254244 1_555
N5 O17 1.266336 1_555
N5 O13 1.271906 1_555
N6 O22 1.254244 1_555
N6 O18 1.266336 1_655
N6 O14 1.271906 1_555
N7 O23 1.254244 1_555
N7 O19 1.266336 1_555
N7 O15 1.271906 1_555
N8 O32 1.230757 1_555
N8 O28 1.282124 1_555
N8 O24 1.285719 1_455
N9 O33 1.230757 1_555
N9 O29 1.282124 1_555
N9 O25 1.285719 1_555
N10 O34 1.230757 1_555
N10 O30 1.282124 1_555
N10 O26 1.285719 1_655
N11 O35 1.230757 1_555
N11 O31 1.282124 1_555
N11 O27 1.285719 1_555
O0 Th0 2.563098 1_655
O1 Th1 2.563098 1_565
O2 Th0 2.563098 1_566
O3 Th1 2.563098 1_555
O4 Th0 2.556239 1_665
O5 Th1 2.556239 1_555
O6 Th0 2.556239 1_556
O7 Th1 2.556239 1_565
O12 Th0 2.641598 1_565
O13 Th1 2.641598 1_555
O14 Th0 2.641598 1_656
O15 Th1 2.641598 1_565
O16 Th0 2.618786 1_665
O17 Th1 2.618786 1_555
O18 Th0 2.618786 1_556
O19 Th1 2.618786 1_565
O20 O37 2.412012 1_455
O21 O36 2.412012 1_555
O22 O39 2.412012 1_655
O23 O38 2.412012 1_555
O24 Th0 2.589839 1_655
O25 Th1 2.589839 1_565
O26 Th0 2.589839 1_566
O27 Th1 2.589839 1_555
O28 Th0 2.607757 1_555
O29 Th1 2.607757 1_565
O30 Th0 2.607757 1_666
O31 Th1 2.607757 1_555
O36 O40 2.815471 1_555
O37 O41 2.815471 1_655
O38 O42 2.815471 1_555
O39 O43 2.815471 1_455
O40 O48 1.312201 1_555
O41 O49 1.312201 1_555
O42 O50 1.312201 1_555
O43 O51 1.312201 1_555
O44 O48 1.313203 1_555
O45 O49 1.313203 1_555
O46 O50 1.313203 1_555
O47 O51 1.313203 1_555
