# generated using pymatgen
data_SrMg14Mn
_symmetry_space_group_name_H-M   'P 1'
_cell_length_a   6.53713856
_cell_length_b   6.47458797
_cell_length_c   10.43599395
_cell_angle_alpha   90.00000000
_cell_angle_beta   90.00000000
_cell_angle_gamma   119.68398378
_symmetry_Int_Tables_number   1
_chemical_formula_structural   SrMg14Mn
_chemical_formula_sum   'Sr1 Mg14 Mn1'
_cell_volume   383.74121845
_cell_formula_units_Z   1
loop_
 _symmetry_equiv_pos_site_id
 _symmetry_equiv_pos_as_xyz
  1  'x, y, z'
loop_
 _atom_site_type_symbol
 _atom_site_label
 _atom_site_symmetry_multiplicity
 _atom_site_fract_x
 _atom_site_fract_y
 _atom_site_fract_z
 _atom_site_occupancy
  Sr  Sr0  1  0.16117457  0.83058679  0.12500000  1
  Mg  Mg0  1  0.16436669  0.33218285  0.62500000  1
  Mg  Mg1  1  0.16761209  0.83380555  0.62500000  1
  Mg  Mg2  1  0.65588382  0.33696059  0.12500000  1
  Mg  Mg3  1  0.66652410  0.33079996  0.62500000  1
  Mg  Mg4  1  0.65588382  0.81892223  0.12500000  1
  Mg  Mg5  1  0.66652410  0.83572313  0.62500000  1
  Mg  Mg6  1  0.33661897  0.17773271  0.38111603  1
  Mg  Mg7  1  0.33661897  0.17773271  0.86888397  1
  Mg  Mg8  1  0.33661897  0.65888726  0.38111603  1
  Mg  Mg9  1  0.33661897  0.65888726  0.86888397  1
  Mg  Mg10  1  0.84129106  0.17064603  0.36371476  1
  Mg  Mg11  1  0.84129106  0.17064603  0.88628524  1
  Mg  Mg12  1  0.82642426  0.66321263  0.38755224  1
  Mg  Mg13  1  0.82642426  0.66321263  0.86244776  1
  Mn  Mn0  1  0.18012428  0.34006164  0.12500000  1
loop_
_geom_bond_atom_site_label_1
_geom_bond_atom_site_label_2
_geom_bond_distance
_geom_bond_site_symmetry_2
Mg0 Mg6 3.140243 1_555
Mg0 Mg7 3.140243 1_555
Mg0 Mg8 3.140249 1_555
Mg0 Mg9 3.140249 1_555
Mg0 Mg1 3.237346 1_555
Mg0 Mg1 3.237346 1_545
Mg0 Mg5 3.250041 1_445
Mg0 Mg3 3.250041 1_455
Mg0 Mg10 3.286624 1_455
Mg0 Mg11 3.286624 1_455
Mg0 Mg5 3.287115 1_555
Mg0 Mg3 3.287116 1_555
Mg1 Mg13 3.145659 1_455
Mg1 Mg12 3.145659 1_455
Mg1 Mg8 3.196937 1_555
Mg1 Mg9 3.196937 1_555
Mg1 Mg6 3.196943 1_565
Mg1 Mg7 3.196943 1_565
Mg1 Mg3 3.255326 1_565
Mg1 Mg5 3.255326 1_555
Mg1 Mg3 3.281848 1_455
Mg1 Mg5 3.281848 1_455
Mg2 Mn0 3.120098 1_555
Mg2 Mg4 3.120503 1_555
Mg2 Mg6 3.229809 1_555
Mg2 Mg7 3.229809 1_554
Mg2 Sr0 3.266414 1_655
Mg2 Sr0 3.272041 1_545
Mg2 Mg4 3.354085 1_545
Mg2 Mn0 3.417134 1_655
Mg3 Mg6 3.161372 1_555
Mg3 Mg7 3.161372 1_555
Mg3 Mg5 3.205418 1_545
Mg3 Mg5 3.269169 1_555
Mg4 Mn0 3.120097 1_555
Mg4 Mg9 3.229809 1_554
Mg4 Mg8 3.229809 1_555
Mg4 Sr0 3.266414 1_655
Mg4 Sr0 3.272041 1_555
Mg4 Mn0 3.417134 1_665
Mg5 Mg8 3.161372 1_555
Mg5 Mg9 3.161372 1_555
Mg6 Mg8 3.115277 1_555
Mg6 Mn0 3.218716 1_555
Mg6 Sr0 3.310297 1_545
Mg6 Mg8 3.359311 1_545
Mg7 Mg9 3.115277 1_555
Mg7 Mn0 3.218716 1_556
Mg7 Sr0 3.310297 1_546
Mg7 Mg9 3.359311 1_545
Mg8 Mn0 3.218723 1_555
Mg8 Sr0 3.310290 1_555
Mg9 Mn0 3.218723 1_556
Mg9 Sr0 3.310290 1_556
Mg10 Mn0 3.147894 1_655
Mg10 Mg2 3.182360 1_555
Mg10 Mg4 3.182367 1_545
Mg10 Mg8 3.220676 1_655
Mg10 Mg6 3.220676 1_655
Mg10 Mg12 3.247936 1_545
Mg10 Mg12 3.247936 1_555
Mg10 Mg3 3.314980 1_555
Mg10 Mg5 3.314986 1_545
Mg10 Mg8 3.327032 1_545
Mg10 Mg6 3.327033 1_555
Mg11 Mn0 3.147894 1_656
Mg11 Mg2 3.182360 1_556
Mg11 Mg4 3.182367 1_546
Mg11 Mg9 3.220676 1_655
Mg11 Mg7 3.220676 1_655
Mg11 Mg13 3.247936 1_545
Mg11 Mg13 3.247936 1_555
Mg11 Mg3 3.314980 1_555
Mg11 Mg5 3.314986 1_545
Mg11 Mg9 3.327032 1_545
Mg11 Mg7 3.327033 1_555
Mg12 Mg5 3.104355 1_555
Mg12 Mg3 3.104362 1_555
Mg12 Mg6 3.188857 1_555
Mg12 Mg8 3.188857 1_555
Mg12 Mg4 3.298486 1_555
Mg12 Mg2 3.298492 1_555
Mg12 Sr0 3.334949 1_655
Mg12 Mg6 3.349844 1_665
Mg12 Mg8 3.349844 1_655
Mg13 Mg5 3.104355 1_555
Mg13 Mg3 3.104362 1_555
Mg13 Mg7 3.188857 1_555
Mg13 Mg9 3.188857 1_555
Mg13 Mg4 3.298486 1_556
Mg13 Mg2 3.298492 1_556
Mg13 Sr0 3.334949 1_656
Mg13 Mg7 3.349844 1_665
Mg13 Mg9 3.349844 1_655
Mn0 Sr0 3.239082 1_545
Mn0 Sr0 3.239082 1_555
