# generated using pymatgen
data_K3NaP2H8O11
_symmetry_space_group_name_H-M   'P 1'
_cell_length_a   12.09425100
_cell_length_b   5.77843300
_cell_length_c   17.52259577
_cell_angle_alpha   87.69207139
_cell_angle_beta   90.00000000
_cell_angle_gamma   90.00000000
_symmetry_Int_Tables_number   1
_chemical_formula_structural   K3NaP2H8O11
_chemical_formula_sum   'K12 Na4 P8 H32 O44'
_cell_volume   1223.58761699
_cell_formula_units_Z   4
loop_
 _symmetry_equiv_pos_site_id
 _symmetry_equiv_pos_as_xyz
  1  'x, y, z'
loop_
 _atom_site_type_symbol
 _atom_site_label
 _atom_site_symmetry_multiplicity
 _atom_site_fract_x
 _atom_site_fract_y
 _atom_site_fract_z
 _atom_site_occupancy
  K  K0  1  0.57323700  0.28184700  0.07486500  1
  K  K1  1  0.42676300  0.71815300  0.92513500  1
  K  K2  1  0.07323700  0.71815300  0.42513500  1
  K  K3  1  0.92676300  0.28184700  0.57486500  1
  K  K4  1  0.34372600  0.77062300  0.52894600  1
  K  K5  1  0.65627400  0.22937700  0.47105400  1
  K  K6  1  0.84372600  0.22937700  0.97105400  1
  K  K7  1  0.15627400  0.77062300  0.02894600  1
  K  K8  1  0.54467300  0.76388600  0.32364500  1
  K  K9  1  0.45532700  0.23611400  0.67635500  1
  K  K10  1  0.04467300  0.23611400  0.17635500  1
  K  K11  1  0.95532700  0.76388600  0.82364500  1
  Na  Na0  1  0.41320400  0.80154600  0.14038200  1
  Na  Na1  1  0.58679600  0.19845400  0.85961800  1
  Na  Na2  1  0.91320400  0.19845400  0.35961800  1
  Na  Na3  1  0.08679600  0.80154600  0.64038200  1
  P  P0  1  0.79297800  0.72269000  0.42709000  1
  P  P1  1  0.20702200  0.27731000  0.57291000  1
  P  P2  1  0.29297800  0.27731000  0.07291000  1
  P  P3  1  0.70702200  0.72269000  0.92709000  1
  P  P4  1  0.86441300  0.73067400  0.26226700  1
  P  P5  1  0.13558700  0.26932600  0.73773300  1
  P  P6  1  0.36441300  0.26932600  0.23773300  1
  P  P7  1  0.63558700  0.73067400  0.76226700  1
  H  H0  1  0.59104700  0.24984900  0.27208600  1
  H  H1  1  0.40895300  0.75015100  0.72791400  1
  H  H2  1  0.09104700  0.75015100  0.22791400  1
  H  H3  1  0.90895300  0.24984900  0.77208600  1
  H  H4  1  0.62585600  0.80594400  0.05945100  1
  H  H5  1  0.37414400  0.19405600  0.94054900  1
  H  H6  1  0.12585600  0.19405600  0.44054900  1
  H  H7  1  0.87414400  0.80594400  0.55945100  1
  H  H8  1  0.29432500  0.89392700  0.34780900  1
  H  H9  1  0.70567500  0.10607300  0.65219100  1
  H  H10  1  0.79432500  0.10607300  0.15219100  1
  H  H11  1  0.20567500  0.89392700  0.84780900  1
  H  H12  1  0.81250900  0.36856700  0.16635300  1
  H  H13  1  0.18749100  0.63143300  0.83364700  1
  H  H14  1  0.31250900  0.63143300  0.33364700  1
  H  H15  1  0.68749100  0.36856700  0.66635300  1
  H  H16  1  0.71503000  0.34094200  0.28106800  1
  H  H17  1  0.28497000  0.65905800  0.71893200  1
  H  H18  1  0.21503000  0.65905800  0.21893200  1
  H  H19  1  0.78497000  0.34094200  0.78106800  1
  H  H20  1  0.67380000  0.77622100  0.14410300  1
  H  H21  1  0.32620000  0.22377900  0.85589700  1
  H  H22  1  0.17380000  0.22377900  0.35589700  1
  H  H23  1  0.82620000  0.77622100  0.64410300  1
  H  H24  1  0.90036400  0.77403700  0.02848200  1
  H  H25  1  0.09963600  0.22596300  0.97151800  1
  H  H26  1  0.40036400  0.22596300  0.47151800  1
  H  H27  1  0.59963600  0.77403700  0.52848200  1
  H  H28  1  0.89772000  0.80984800  0.11641000  1
  H  H29  1  0.10228000  0.19015200  0.88359000  1
  H  H30  1  0.39772000  0.19015200  0.38359000  1
  H  H31  1  0.60228000  0.80984800  0.61641000  1
  O  O0  1  0.87572500  0.46645300  0.25822900  1
  O  O1  1  0.12427500  0.53354700  0.74177100  1
  O  O2  1  0.37572500  0.53354700  0.24177100  1
  O  O3  1  0.62427500  0.46645300  0.75822900  1
  O  O4  1  0.80100900  0.83266400  0.19225800  1
  O  O5  1  0.19899100  0.16733600  0.80774200  1
  O  O6  1  0.30100900  0.16733600  0.30774200  1
  O  O7  1  0.69899100  0.83266400  0.69225800  1
  O  O8  1  0.79093700  0.26273100  0.12598500  1
  O  O9  1  0.20906300  0.73726900  0.87401500  1
  O  O10  1  0.29093700  0.73726900  0.37401500  1
  O  O11  1  0.70906300  0.26273100  0.62598500  1
  O  O12  1  0.94751900  0.82366800  0.07170100  1
  O  O13  1  0.05248100  0.17633200  0.92829900  1
  O  O14  1  0.44751900  0.17633200  0.42829900  1
  O  O15  1  0.55248100  0.82366800  0.57170100  1
  O  O16  1  0.67139600  0.71446300  0.45095500  1
  O  O17  1  0.32860400  0.28553700  0.54904500  1
  O  O18  1  0.17139600  0.28553700  0.04904500  1
  O  O19  1  0.82860400  0.71446300  0.95095500  1
  O  O20  1  0.60537700  0.76162600  0.11297300  1
  O  O21  1  0.39462300  0.23837400  0.88702700  1
  O  O22  1  0.10537700  0.23837400  0.38702700  1
  O  O23  1  0.89462300  0.76162600  0.61297300  1
  O  O24  1  0.97274900  0.85897000  0.27807100  1
  O  O25  1  0.02725100  0.14103000  0.72192900  1
  O  O26  1  0.47274900  0.14103000  0.22192900  1
  O  O27  1  0.52725100  0.85897000  0.77807100  1
  O  O28  1  0.78189100  0.78546600  0.33389400  1
  O  O29  1  0.21810900  0.21453400  0.66610600  1
  O  O30  1  0.28189100  0.21453400  0.16610600  1
  O  O31  1  0.71810900  0.78546600  0.83389400  1
  O  O32  1  0.64576800  0.31025300  0.30876200  1
  O  O33  1  0.35423200  0.68974700  0.69123800  1
  O  O34  1  0.14576800  0.68974700  0.19123800  1
  O  O35  1  0.85423200  0.31025300  0.80876200  1
  O  O36  1  0.85507600  0.49373700  0.43827600  1
  O  O37  1  0.14492400  0.50626300  0.56172400  1
  O  O38  1  0.35507600  0.50626300  0.06172400  1
  O  O39  1  0.64492400  0.49373700  0.93827600  1
  O  O40  1  0.85711100  0.92633000  0.46039800  1
  O  O41  1  0.14288900  0.07367000  0.53960200  1
  O  O42  1  0.35711100  0.07367000  0.03960200  1
  O  O43  1  0.64288900  0.92633000  0.96039800  1
loop_
_geom_bond_atom_site_label_1
_geom_bond_atom_site_label_2
_geom_bond_distance
_geom_bond_site_symmetry_2
K0 O8 2.781882 1_555
K0 O39 2.782650 1_554
K0 O20 2.903812 1_555
K0 O26 2.934431 1_555
K0 O38 2.944867 1_555
K0 O42 2.953151 1_555
K0 O43 3.047102 1_544
K1 O9 2.781882 1_555
K1 O38 2.782650 1_556
K1 O21 2.903812 1_555
K1 O27 2.934431 1_555
K1 O39 2.944867 1_555
K1 O43 2.953151 1_555
K1 O42 3.047102 1_566
K2 O10 2.781882 1_555
K2 O37 2.782650 1_555
K2 O22 2.903812 1_555
K2 O24 2.934431 1_455
K2 O36 2.944867 1_455
K2 O40 2.953151 1_455
K2 O41 3.047102 1_565
K3 O11 2.781882 1_555
K3 O36 2.782650 1_555
K3 O23 2.903812 1_555
K3 O25 2.934431 1_655
K3 O37 2.944867 1_655
K3 O41 2.953151 1_655
K3 O40 3.047102 1_545
K4 O15 2.654808 1_555
K4 O10 2.803034 1_555
K4 O17 2.816912 1_555
K4 O33 2.866109 1_555
K4 O37 2.893734 1_555
K4 O41 3.004595 1_565
K4 O17 3.015769 1_565
K5 O14 2.654808 1_555
K5 O11 2.803034 1_555
K5 O16 2.816912 1_555
K5 O32 2.866109 1_555
K5 O36 2.893734 1_555
K5 O40 3.004595 1_545
K5 O16 3.015769 1_545
K6 O13 2.654808 1_655
K6 O8 2.803034 1_556
K6 O19 2.816912 1_555
K6 O35 2.866109 1_555
K6 O39 2.893734 1_555
K6 O43 3.004595 1_545
K6 O19 3.015769 1_545
K7 O12 2.654808 1_455
K7 O9 2.803034 1_554
K7 O18 2.816912 1_555
K7 O34 2.866109 1_555
K7 O38 2.893734 1_555
K7 O42 3.004595 1_565
K7 O18 3.015769 1_565
K8 O16 2.712130 1_555
K8 O2 2.856331 1_555
K8 O28 2.877606 1_555
K8 O26 2.893075 1_565
K8 O32 2.913612 1_555
K8 O14 3.282617 1_565
K9 O17 2.712130 1_555
K9 O3 2.856331 1_555
K9 O29 2.877606 1_555
K9 O27 2.893075 1_545
K9 O33 2.913612 1_555
K9 O15 3.282617 1_545
K10 O18 2.712130 1_555
K10 O0 2.856331 1_455
K10 O30 2.877606 1_555
K10 O24 2.893075 1_445
K10 O34 2.913612 1_555
K10 O12 3.282617 1_445
K11 O19 2.712130 1_555
K11 O1 2.856331 1_655
K11 O31 2.877606 1_555
K11 O25 2.893075 1_665
K11 O35 2.913612 1_555
K11 O13 3.282617 1_665
Na0 O38 2.344077 1_555
Na0 O2 2.353377 1_555
Na0 O20 2.386347 1_555
Na0 O42 2.414059 1_565
Na0 O26 2.575731 1_565
Na0 O30 2.916675 1_565
Na1 O39 2.344077 1_555
Na1 O3 2.353377 1_555
Na1 O21 2.386347 1_555
Na1 O43 2.414059 1_545
Na1 O27 2.575731 1_545
Na1 O31 2.916675 1_545
Na2 O36 2.344077 1_555
Na2 O0 2.353377 1_555
Na2 O22 2.386347 1_655
Na2 O40 2.414059 1_545
Na2 O24 2.575731 1_545
Na2 O28 2.916675 1_545
Na3 O37 2.344077 1_555
Na3 O1 2.353377 1_555
Na3 O23 2.386347 1_455
Na3 O41 2.414059 1_565
Na3 O25 2.575731 1_565
Na3 O29 2.916675 1_565
H0 O32 0.995438 1_555
H0 O26 1.805356 1_555
H0 K8 2.968485 1_545
H1 O33 0.995438 1_555
H1 O27 1.805356 1_555
H1 K9 2.968485 1_565
H2 O34 0.995438 1_555
H2 O24 1.805356 1_455
H2 K10 2.968485 1_565
H3 O35 0.995438 1_555
H3 O25 1.805356 1_655
H3 K11 2.968485 1_545
H4 O20 0.993546 1_555
H4 O43 1.855167 1_554
H4 K0 2.846070 1_565
H5 O21 0.993546 1_555
H5 O42 1.855167 1_556
H5 K1 2.846070 1_545
H6 O22 0.993546 1_555
H6 O41 1.855167 1_555
H6 K2 2.846070 1_545
H7 O23 0.993546 1_555
H7 O40 1.855167 1_555
H7 K3 2.846070 1_565
H8 O10 0.999258 1_555
H8 O6 1.704735 1_565
H9 O11 0.999258 1_555
H9 O7 1.704735 1_545
H10 O8 0.999258 1_555
H10 O4 1.704735 1_545
H11 O9 0.999258 1_555
H11 O5 1.704735 1_565
H12 O8 0.988569 1_555
H12 O0 1.889341 1_555
H12 K10 2.913713 1_655
H13 O9 0.988569 1_555
H13 O1 1.889341 1_555
H13 K11 2.913713 1_455
H14 O10 0.988569 1_555
H14 O2 1.889341 1_555
H14 K8 2.913713 1_555
H15 O11 0.988569 1_555
H15 O3 1.889341 1_555
H15 K9 2.913713 1_555
H16 O32 0.980662 1_555
H16 O0 2.107111 1_555
H16 Na2 2.868032 1_555
H17 O33 0.980662 1_555
H17 O1 2.107111 1_555
H17 Na3 2.868032 1_555
H18 O34 0.980662 1_555
H18 O2 2.107111 1_555
H18 Na0 2.868032 1_555
H19 O35 0.980662 1_555
H19 O3 2.107111 1_555
H19 Na1 2.868032 1_555
H20 O20 0.996575 1_555
H20 O4 1.790954 1_555
H20 K8 3.510483 1_555
H21 O21 0.996575 1_555
H21 O5 1.790954 1_555
H21 K9 3.510483 1_555
H22 O22 0.996575 1_555
H22 O6 1.790954 1_555
H22 K10 3.510483 1_555
H23 O23 0.996575 1_555
H23 O7 1.790954 1_555
H23 K11 3.510483 1_555
H24 O12 0.999252 1_555
H24 O19 1.659772 1_554
H24 K6 2.862088 1_564
H25 O13 0.999252 1_555
H25 O18 1.659772 1_556
H25 K7 2.862088 1_546
H26 O14 0.999252 1_555
H26 O17 1.659772 1_555
H26 K4 2.862088 1_545
H27 O15 0.999252 1_555
H27 O16 1.659772 1_555
H27 K5 2.862088 1_565
H28 O12 0.988850 1_555
H28 O4 1.779312 1_555
H29 O13 0.988850 1_555
H29 O5 1.779312 1_555
H30 O14 0.988850 1_555
H30 O6 1.779312 1_555
H31 O15 0.988850 1_555
H31 O7 1.779312 1_555
O0 P4 1.537365 1_555
O1 P5 1.537365 1_555
O2 P6 1.537365 1_555
O3 P7 1.537365 1_555
O4 P4 1.543374 1_555
O5 P5 1.543374 1_555
O6 P6 1.543374 1_555
O7 P7 1.543374 1_555
O16 P0 1.528965 1_555
O17 P1 1.528965 1_555
O18 P2 1.528965 1_555
O19 P3 1.528965 1_555
O24 P4 1.536086 1_555
O25 P5 1.536086 1_555
O26 P6 1.536086 1_555
O27 P7 1.536086 1_555
O28 P4 1.644259 1_555
O28 P0 1.663929 1_555
O29 P5 1.644259 1_555
O29 P1 1.663929 1_555
O30 P6 1.644259 1_555
O30 P2 1.663929 1_555
O31 P7 1.644259 1_555
O31 P3 1.663929 1_555
O36 P0 1.527049 1_555
O37 P1 1.527049 1_555
O38 P2 1.527049 1_555
O39 P3 1.527049 1_555
O40 P0 1.543451 1_555
O41 P1 1.543451 1_555
O42 P2 1.543451 1_555
O43 P3 1.543451 1_555
