# generated using pymatgen
data_Y(BRu)2
_symmetry_space_group_name_H-M   'P 1'
_cell_length_a   9.23455400
_cell_length_b   9.23455400
_cell_length_c   9.77478157
_cell_angle_alpha   118.18800546
_cell_angle_beta   118.18800546
_cell_angle_gamma   90.00000000
_symmetry_Int_Tables_number   1
_chemical_formula_structural   Y(BRu)2
_chemical_formula_sum   'Y8 B16 Ru16'
_cell_volume   620.28596143
_cell_formula_units_Z   8
loop_
 _symmetry_equiv_pos_site_id
 _symmetry_equiv_pos_as_xyz
  1  'x, y, z'
loop_
 _atom_site_type_symbol
 _atom_site_label
 _atom_site_symmetry_multiplicity
 _atom_site_fract_x
 _atom_site_fract_y
 _atom_site_fract_z
 _atom_site_occupancy
  Y  Y0  1  0.12500000  0.37500000  0.25000000  1
  Y  Y1  1  0.12500000  0.87500000  0.25000000  1
  Y  Y2  1  0.12500000  0.87500000  0.75000000  1
  Y  Y3  1  0.62500000  0.37500000  0.25000000  1
  Y  Y4  1  0.62500000  0.87500000  0.75000000  1
  Y  Y5  1  0.62500000  0.87500000  0.25000000  1
  Y  Y6  1  0.62500000  0.37500000  0.75000000  1
  Y  Y7  1  0.12500000  0.37500000  0.75000000  1
  B  B0  1  0.29463700  0.39870900  0.58571700  1
  B  B1  1  0.29107900  0.18700700  0.58571700  1
  B  B2  1  0.43700700  0.04463700  0.08571700  1
  B  B3  1  0.45536300  0.06299300  0.91428300  1
  B  B4  1  0.95536300  0.35129100  0.91428300  1
  B  B5  1  0.64870900  0.04107900  0.08571700  1
  B  B6  1  0.45892100  0.85129100  0.91428300  1
  B  B7  1  0.95892100  0.56299300  0.91428300  1
  B  B8  1  0.31299300  0.20892100  0.41428300  1
  B  B9  1  0.81299300  0.70536300  0.41428300  1
  B  B10  1  0.10129100  0.20536300  0.41428300  1
  B  B11  1  0.60129100  0.70892100  0.41428300  1
  B  B12  1  0.79463700  0.68700700  0.58571700  1
  B  B13  1  0.79107900  0.89870900  0.58571700  1
  B  B14  1  0.14870900  0.54463700  0.08571700  1
  B  B15  1  0.93700700  0.54107900  0.08571700  1
  Ru  Ru0  1  0.53830300  0.19028500  0.37875600  1
  Ru  Ru1  1  0.84045400  0.18847200  0.37875600  1
  Ru  Ru2  1  0.43847200  0.28830300  0.87875600  1
  Ru  Ru3  1  0.21169700  0.06152800  0.12124400  1
  Ru  Ru4  1  0.71169700  0.55971500  0.12124400  1
  Ru  Ru5  1  0.44028500  0.59045400  0.87875600  1
  Ru  Ru6  1  0.90954600  0.05971500  0.12124400  1
  Ru  Ru7  1  0.40954600  0.56152800  0.12124400  1
  Ru  Ru8  1  0.31152800  0.65954600  0.62124400  1
  Ru  Ru9  1  0.81152800  0.46169700  0.62124400  1
  Ru  Ru10  1  0.30971500  0.96169700  0.62124400  1
  Ru  Ru11  1  0.80971500  0.15954600  0.62124400  1
  Ru  Ru12  1  0.03830300  0.68847200  0.37875600  1
  Ru  Ru13  1  0.34045400  0.69028500  0.37875600  1
  Ru  Ru14  1  0.94028500  0.78830300  0.87875600  1
  Ru  Ru15  1  0.93847200  0.09045400  0.87875600  1
loop_
_geom_bond_atom_site_label_1
_geom_bond_atom_site_label_2
_geom_bond_distance
_geom_bond_site_symmetry_2
B0 B8 1.844508 1_555
B0 B10 1.879000 1_555
B0 B1 1.955250 1_555
B0 Ru5 2.172046 1_555
B0 Ru8 2.259516 1_555
B0 Y6 2.763629 1_555
B0 Y0 2.781236 1_555
B0 Y7 2.790934 1_555
B1 B10 1.844508 1_555
B1 B8 1.879019 1_555
B1 Ru2 2.172042 1_555
B1 Ru10 2.259516 1_545
B1 Y7 2.763625 1_555
B1 Y1 2.781232 1_545
B1 Y6 2.790945 1_555
B2 B3 1.844517 1_554
B2 B6 1.879009 1_544
B2 B5 1.955250 1_555
B2 Ru0 2.172042 1_555
B2 Ru3 2.259516 1_555
B2 Y3 2.763632 1_555
B2 Y2 2.781232 1_544
B2 Y5 2.790937 1_545
B3 B5 1.879009 1_556
B3 B6 1.955250 1_545
B3 Ru10 2.172042 1_545
B3 Ru2 2.259516 1_555
B3 Y2 2.763632 1_545
B3 Y3 2.781232 1_556
B3 Y4 2.790937 1_545
B4 B7 1.955250 1_555
B4 Ru11 2.172046 1_555
B4 Ru15 2.259516 1_555
B4 Y6 2.763629 1_555
B4 Y0 2.781236 1_656
B4 Y7 2.790934 1_655
B5 B6 1.844498 1_544
B5 Ru1 2.172046 1_555
B5 Ru6 2.259516 1_555
B5 Y5 2.763621 1_545
B5 Y4 2.781236 1_544
B5 Y3 2.790941 1_555
B6 Ru8 2.172046 1_555
B6 Ru5 2.259516 1_555
B6 Y4 2.763621 1_555
B6 Y5 2.781236 1_556
B6 Y2 2.790941 1_555
B7 Ru9 2.172042 1_555
B7 Ru14 2.259516 1_555
B7 Y7 2.763625 1_655
B7 Y1 2.781232 1_656
B7 Y6 2.790945 1_555
B8 Ru3 2.172042 1_555
B8 Ru0 2.259516 1_555
B8 Y0 2.763625 1_555
B8 Y6 2.781232 1_555
B8 Y1 2.790945 1_545
B9 Ru4 2.172042 1_555
B9 Ru12 2.259516 1_655
B9 Y3 2.763632 1_555
B9 Y2 2.781232 1_655
B9 Y5 2.790937 1_555
B10 B8 1.955250 1_555
B10 Ru6 2.172046 1_455
B10 Ru1 2.259516 1_455
B10 Y1 2.763629 1_545
B10 Y7 2.781236 1_555
B10 Y0 2.790934 1_555
B11 B13 1.844498 1_555
B11 B12 1.879009 1_555
B11 B9 1.955250 1_555
B11 Ru7 2.172046 1_555
B11 Ru13 2.259516 1_555
B11 Y5 2.763621 1_555
B11 Y4 2.781236 1_555
B11 Y3 2.790941 1_555
B12 B9 1.844517 1_555
B12 B13 1.955250 1_555
B12 Ru14 2.172042 1_555
B12 Ru9 2.259516 1_555
B12 Y2 2.763632 1_655
B12 Y3 2.781232 1_555
B12 Y4 2.790937 1_555
B13 B9 1.879009 1_555
B13 Ru15 2.172046 1_565
B13 Ru11 2.259516 1_565
B13 Y4 2.763621 1_555
B13 Y5 2.781236 1_555
B13 Y2 2.790941 1_655
B14 B7 1.844508 1_454
B14 B4 1.879000 1_454
B14 B15 1.955250 1_455
B14 Ru13 2.172046 1_555
B14 Ru7 2.259516 1_555
B14 Y1 2.763629 1_555
B14 Y7 2.781236 1_554
B14 Y0 2.790934 1_555
B15 B4 1.844508 1_554
B15 B7 1.879019 1_554
B15 Ru12 2.172042 1_655
B15 Ru4 2.259516 1_555
B15 Y0 2.763625 1_655
B15 Y6 2.781232 1_554
B15 Y1 2.790945 1_655
Ru0 Ru3 2.616598 1_555
Ru0 Ru9 2.646466 1_555
Ru0 Ru11 2.646476 1_555
Ru0 Ru1 2.790280 1_555
Ru0 Y3 2.848623 1_555
Ru0 Y6 2.850698 1_555
Ru0 Y5 2.862167 1_545
Ru1 Ru6 2.616585 1_555
Ru1 Ru9 2.646476 1_555
Ru1 Ru11 2.646486 1_555
Ru1 Y5 2.848635 1_545
Ru1 Y7 2.850695 1_655
Ru1 Y3 2.862164 1_555
Ru2 Ru4 2.646466 1_556
Ru2 Ru7 2.646476 1_556
Ru2 Ru5 2.790280 1_555
Ru2 Y7 2.848631 1_555
Ru2 Y3 2.850698 1_556
Ru2 Y6 2.862159 1_555
Ru3 Ru6 2.790280 1_455
Ru3 Y0 2.848631 1_555
Ru3 Y2 2.850698 1_544
Ru3 Y1 2.862159 1_545
Ru4 Ru5 2.646476 1_554
Ru4 Ru7 2.790280 1_555
Ru4 Y3 2.848623 1_555
Ru4 Y6 2.850698 1_554
Ru4 Y5 2.862167 1_555
Ru5 Ru8 2.616585 1_555
Ru5 Ru7 2.646486 1_556
Ru5 Y6 2.848628 1_555
Ru5 Y5 2.850695 1_556
Ru5 Y7 2.862171 1_555
Ru6 Y1 2.848628 1_645
Ru6 Y4 2.850695 1_544
Ru6 Y0 2.862171 1_655
Ru7 Y5 2.848635 1_555
Ru7 Y7 2.850695 1_554
Ru7 Y3 2.862164 1_555
Ru8 Y4 2.848635 1_555
Ru8 Y0 2.850695 1_555
Ru8 Y2 2.862164 1_555
Ru9 Y7 2.848631 1_655
Ru9 Y3 2.850698 1_555
Ru9 Y6 2.862159 1_555
Ru10 Ru2 2.616598 1_565
Ru10 Ru12 2.646466 1_555
Ru10 Ru13 2.646476 1_555
Ru10 Ru8 2.790280 1_555
Ru10 Y2 2.848623 1_555
Ru10 Y1 2.850698 1_555
Ru10 Y4 2.862167 1_555
Ru11 Ru15 2.616585 1_555
Ru11 Ru9 2.790280 1_555
Ru11 Y6 2.848628 1_555
Ru11 Y5 2.850695 1_545
Ru11 Y7 2.862171 1_655
Ru12 Ru4 2.616598 1_455
Ru12 Ru8 2.646476 1_555
Ru12 Ru13 2.790280 1_555
Ru12 Y0 2.848631 1_555
Ru12 Y2 2.850698 1_555
Ru12 Y1 2.862159 1_555
Ru13 Ru7 2.616585 1_555
Ru13 Ru8 2.646486 1_555
Ru13 Y1 2.848628 1_555
Ru13 Y4 2.850695 1_555
Ru13 Y0 2.862171 1_555
Ru14 Ru9 2.616598 1_555
Ru14 Ru3 2.646466 1_666
Ru14 Ru6 2.646476 1_566
Ru14 Ru15 2.790280 1_565
Ru14 Y2 2.848623 1_655
Ru14 Y1 2.850698 1_656
Ru14 Y4 2.862167 1_555
Ru15 Ru3 2.646476 1_656
Ru15 Ru6 2.646486 1_556
Ru15 Y4 2.848635 1_545
Ru15 Y0 2.850695 1_656
Ru15 Y2 2.862164 1_645
