# generated using pymatgen
data_Th14Ag51
_symmetry_space_group_name_H-M   'P 1'
_cell_length_a   13.00067181
_cell_length_b   13.00067181
_cell_length_c   9.52367000
_cell_angle_alpha   90.00000000
_cell_angle_beta   90.00000000
_cell_angle_gamma   119.99999904
_symmetry_Int_Tables_number   1
_chemical_formula_structural   Th14Ag51
_chemical_formula_sum   'Th14 Ag51'
_cell_volume   1394.01216779
_cell_formula_units_Z   1
loop_
 _symmetry_equiv_pos_site_id
 _symmetry_equiv_pos_as_xyz
  1  'x, y, z'
loop_
 _atom_site_type_symbol
 _atom_site_label
 _atom_site_symmetry_multiplicity
 _atom_site_fract_x
 _atom_site_fract_y
 _atom_site_fract_z
 _atom_site_occupancy
  Th  Th0  1  0.66666700  0.33333300  0.30604800  1
  Th  Th1  1  0.66666700  0.33333300  0.69395200  1
  Th  Th2  1  0.93623400  0.22343400  0.00000000  1
  Th  Th3  1  0.77656600  0.71280000  0.00000000  1
  Th  Th4  1  0.28720000  0.06376600  0.00000000  1
  Th  Th5  1  0.38061400  0.44748300  0.00000000  1
  Th  Th6  1  0.55251700  0.93313000  0.00000000  1
  Th  Th7  1  0.06687000  0.61938600  0.00000000  1
  Th  Th8  1  0.34150500  0.86294800  0.50000000  1
  Th  Th9  1  0.13705200  0.47855700  0.50000000  1
  Th  Th10  1  0.52144300  0.65849500  0.50000000  1
  Th  Th11  1  0.99302100  0.80553200  0.50000000  1
  Th  Th12  1  0.19446800  0.18748900  0.50000000  1
  Th  Th13  1  0.81251100  0.00697900  0.50000000  1
  Ag  Ag0  1  0.28965100  0.84168400  0.15294400  1
  Ag  Ag1  1  0.15831600  0.44796700  0.15294400  1
  Ag  Ag2  1  0.55203300  0.71034900  0.15294400  1
  Ag  Ag3  1  0.04822400  0.83174200  0.15112500  1
  Ag  Ag4  1  0.16825800  0.21648200  0.15112500  1
  Ag  Ag5  1  0.78351800  0.95177600  0.15112500  1
  Ag  Ag6  1  0.04822400  0.83174200  0.84887500  1
  Ag  Ag7  1  0.16825800  0.21648200  0.84887500  1
  Ag  Ag8  1  0.78351800  0.95177600  0.84887500  1
  Ag  Ag9  1  0.28965100  0.84168400  0.84705600  1
  Ag  Ag10  1  0.15831600  0.44796700  0.84705600  1
  Ag  Ag11  1  0.55203300  0.71034900  0.84705600  1
  Ag  Ag12  1  0.00154900  0.23190200  0.33106300  1
  Ag  Ag13  1  0.76809800  0.76964700  0.33106300  1
  Ag  Ag14  1  0.23035300  0.99845100  0.33106300  1
  Ag  Ag15  1  0.32818800  0.43435400  0.33209200  1
  Ag  Ag16  1  0.56564600  0.89383400  0.33209200  1
  Ag  Ag17  1  0.10616600  0.67181200  0.33209200  1
  Ag  Ag18  1  0.32818800  0.43435400  0.66790800  1
  Ag  Ag19  1  0.56564600  0.89383400  0.66790800  1
  Ag  Ag20  1  0.10616600  0.67181200  0.66790800  1
  Ag  Ag21  1  0.00154900  0.23190200  0.66893700  1
  Ag  Ag22  1  0.76809800  0.76964700  0.66893700  1
  Ag  Ag23  1  0.23035300  0.99845100  0.66893700  1
  Ag  Ag24  1  0.33333300  0.66666700  0.00000000  1
  Ag  Ag25  1  0.00000000  0.00000000  0.00000000  1
  Ag  Ag26  1  0.33333300  0.66666700  0.29611300  1
  Ag  Ag27  1  0.00000000  0.00000000  0.29631000  1
  Ag  Ag28  1  0.00000000  0.00000000  0.70369000  1
  Ag  Ag29  1  0.33333300  0.66666700  0.70388700  1
  Ag  Ag30  1  0.47656900  0.06799700  0.23372800  1
  Ag  Ag31  1  0.93200300  0.40857300  0.23372800  1
  Ag  Ag32  1  0.59142700  0.52343100  0.23372800  1
  Ag  Ag33  1  0.86152500  0.60280200  0.23858600  1
  Ag  Ag34  1  0.39719800  0.25872400  0.23858600  1
  Ag  Ag35  1  0.74127600  0.13847500  0.23858600  1
  Ag  Ag36  1  0.86152500  0.60280200  0.76141400  1
  Ag  Ag37  1  0.39719800  0.25872400  0.76141400  1
  Ag  Ag38  1  0.74127600  0.13847500  0.76141400  1
  Ag  Ag39  1  0.47656900  0.06799700  0.76627200  1
  Ag  Ag40  1  0.93200300  0.40857300  0.76627200  1
  Ag  Ag41  1  0.59142700  0.52343100  0.76627200  1
  Ag  Ag42  1  0.84632600  0.27423700  0.50000000  1
  Ag  Ag43  1  0.72576300  0.57208900  0.50000000  1
  Ag  Ag44  1  0.42791100  0.15367400  0.50000000  1
  Ag  Ag45  1  0.48588300  0.39352100  0.50000000  1
  Ag  Ag46  1  0.60647900  0.09236200  0.50000000  1
  Ag  Ag47  1  0.90763800  0.51411700  0.50000000  1
  Ag  Ag48  1  0.63913000  0.19739500  0.00000000  1
  Ag  Ag49  1  0.80260500  0.44173500  0.00000000  1
  Ag  Ag50  1  0.55826500  0.36087000  0.00000000  1
loop_
_geom_bond_atom_site_label_1
_geom_bond_atom_site_label_2
_geom_bond_distance
_geom_bond_site_symmetry_2
Th0 Th1 3.694270 1_555
Ag0 Ag30 2.829134 1_565
Ag0 Ag17 2.865372 1_555
Ag0 Ag9 2.913176 1_554
Ag0 Ag26 2.941248 1_555
Ag0 Ag24 2.985544 1_555
Ag0 Ag14 3.032629 1_555
Ag0 Ag3 3.076173 1_555
Ag0 Th7 3.239147 1_555
Ag0 Th4 3.248180 1_565
Ag0 Th6 3.339318 1_555
Ag0 Th8 3.356959 1_555
Ag1 Ag31 2.829138 1_455
Ag1 Ag15 2.865372 1_555
Ag1 Ag10 2.913176 1_554
Ag1 Ag26 2.941256 1_555
Ag1 Ag24 2.985552 1_555
Ag1 Ag12 3.032629 1_555
Ag1 Ag4 3.076173 1_555
Ag1 Th5 3.239152 1_555
Ag1 Th2 3.248180 1_455
Ag1 Th7 3.339307 1_555
Ag1 Th9 3.356959 1_555
Ag2 Ag32 2.829126 1_555
Ag2 Ag26 2.941260 1_555
Ag2 Ag24 2.985555 1_555
Ag2 Ag5 3.076173 1_555
Ag2 Th6 3.239141 1_555
Ag2 Th3 3.248180 1_555
Ag2 Th5 3.339316 1_555
Ag2 Th10 3.356959 1_555
Ag3 Ag33 2.866998 1_455
Ag3 Ag6 2.878529 1_554
Ag3 Th7 3.228210 1_555
Ag3 Th11 3.380251 1_455
Ag3 Th4 3.383986 1_565
Ag3 Th3 3.387411 1_455
Ag4 Ag7 2.878529 1_554
Ag4 Th5 3.228204 1_555
Ag4 Th12 3.380251 1_555
Ag4 Th2 3.383986 1_455
Ag4 Th4 3.387411 1_555
Ag5 Ag8 2.878529 1_554
Ag5 Th6 3.228198 1_555
Ag5 Th13 3.380251 1_565
Ag5 Th3 3.383986 1_555
Ag5 Th2 3.387411 1_565
Ag6 Ag9 3.076173 1_555
Ag6 Th7 3.228210 1_556
Ag6 Th11 3.380251 1_455
Ag6 Th4 3.383986 1_566
Ag6 Th3 3.387411 1_456
Ag7 Th5 3.228204 1_556
Ag7 Th12 3.380251 1_555
Ag7 Th2 3.383986 1_456
Ag7 Th4 3.387411 1_556
Ag8 Th6 3.228198 1_556
Ag8 Th13 3.380251 1_565
Ag8 Th3 3.383986 1_556
Ag8 Th2 3.387411 1_566
Ag9 Th7 3.239147 1_556
Ag9 Th4 3.248180 1_566
Ag9 Th6 3.339318 1_556
Ag9 Th8 3.356959 1_555
Ag10 Ag40 2.829138 1_455
Ag10 Ag18 2.865372 1_555
Ag10 Ag29 2.941256 1_555
Ag10 Ag24 2.985552 1_556
Ag10 Ag21 3.032629 1_555
Ag10 Ag7 3.076173 1_555
Ag10 Th5 3.239152 1_556
Ag10 Th2 3.248180 1_456
Ag10 Th7 3.339307 1_556
Ag10 Th9 3.356959 1_555
Ag11 Ag41 2.829126 1_555
Ag11 Ag19 2.865372 1_555
Ag11 Ag2 2.913176 1_556
Ag11 Ag29 2.941260 1_555
Ag11 Ag24 2.985555 1_556
Ag11 Ag22 3.032629 1_555
Ag11 Ag8 3.076173 1_555
Ag11 Th6 3.239141 1_556
Ag11 Th3 3.248180 1_556
Ag11 Th5 3.339316 1_556
Ag11 Th10 3.356959 1_555
Ag12 Ag42 2.841566 1_455
Ag12 Ag4 2.847570 1_555
Ag12 Ag31 3.004820 1_455
Ag12 Ag27 3.023036 1_555
Ag12 Ag35 3.096873 1_455
Ag12 Th13 3.161117 1_455
Ag12 Th9 3.213365 1_555
Ag12 Ag21 3.217800 1_555
Ag12 Th2 3.252795 1_455
Ag12 Th12 3.265051 1_555
Ag13 Ag43 2.841566 1_555
Ag13 Ag5 2.847570 1_555
Ag13 Ag32 3.004811 1_555
Ag13 Ag27 3.023036 1_665
Ag13 Ag2 3.032629 1_555
Ag13 Ag33 3.096862 1_555
Ag13 Th11 3.161117 1_555
Ag13 Th10 3.213365 1_555
Ag13 Ag22 3.217800 1_555
Ag13 Th3 3.252795 1_555
Ag13 Th13 3.265051 1_565
Ag14 Ag44 2.841566 1_565
Ag14 Ag3 2.847570 1_555
Ag14 Ag30 3.004808 1_565
Ag14 Ag27 3.023036 1_565
Ag14 Ag34 3.096871 1_565
Ag14 Th12 3.161117 1_565
Ag14 Th8 3.213365 1_555
Ag14 Ag23 3.217800 1_555
Ag14 Th4 3.252795 1_565
Ag14 Th11 3.265051 1_455
Ag15 Ag45 2.851375 1_555
Ag15 Ag34 2.976571 1_555
Ag15 Ag26 3.006930 1_555
Ag15 Ag4 3.070355 1_555
Ag15 Ag32 3.157133 1_555
Ag15 Th10 3.168529 1_555
Ag15 Ag18 3.198201 1_555
Ag15 Th12 3.209400 1_555
Ag15 Th5 3.221837 1_555
Ag15 Th9 3.238838 1_555
Ag16 Ag46 2.851375 1_565
Ag16 Ag2 2.865372 1_555
Ag16 Ag35 2.976580 1_565
Ag16 Ag26 3.006923 1_555
Ag16 Ag5 3.070355 1_555
Ag16 Ag30 3.157144 1_565
Ag16 Th8 3.168529 1_555
Ag16 Ag19 3.198201 1_555
Ag16 Th13 3.209400 1_565
Ag16 Th6 3.221834 1_555
Ag16 Th10 3.238838 1_555
Ag17 Ag47 2.851375 1_455
Ag17 Ag33 2.976583 1_455
Ag17 Ag26 3.006917 1_555
Ag17 Ag3 3.070355 1_555
Ag17 Ag31 3.157135 1_455
Ag17 Th9 3.168529 1_555
Ag17 Ag20 3.198201 1_555
Ag17 Th11 3.209400 1_455
Ag17 Th7 3.221836 1_555
Ag17 Th8 3.238838 1_555
Ag18 Ag45 2.851375 1_555
Ag18 Ag37 2.976571 1_555
Ag18 Ag29 3.006930 1_555
Ag18 Ag7 3.070355 1_555
Ag18 Ag41 3.157133 1_555
Ag18 Th10 3.168529 1_555
Ag18 Th12 3.209400 1_555
Ag18 Th5 3.221837 1_556
Ag18 Th9 3.238838 1_555
Ag19 Ag46 2.851375 1_565
Ag19 Ag38 2.976580 1_565
Ag19 Ag29 3.006923 1_555
Ag19 Ag8 3.070355 1_555
Ag19 Ag39 3.157144 1_565
Ag19 Th8 3.168529 1_555
Ag19 Th13 3.209400 1_565
Ag19 Th6 3.221834 1_556
Ag19 Th10 3.238838 1_555
Ag20 Ag47 2.851375 1_455
Ag20 Ag9 2.865372 1_555
Ag20 Ag36 2.976583 1_455
Ag20 Ag29 3.006917 1_555
Ag20 Ag6 3.070355 1_555
Ag20 Ag40 3.157135 1_455
Ag20 Th9 3.168529 1_555
Ag20 Th11 3.209400 1_455
Ag20 Th7 3.221836 1_556
Ag20 Th8 3.238838 1_555
Ag21 Ag42 2.841566 1_455
Ag21 Ag7 2.847570 1_555
Ag21 Ag40 3.004820 1_455
Ag21 Ag28 3.023036 1_555
Ag21 Ag38 3.096873 1_455
Ag21 Th13 3.161117 1_455
Ag21 Th9 3.213365 1_555
Ag21 Th2 3.252795 1_456
Ag21 Th12 3.265051 1_555
Ag22 Ag43 2.841566 1_555
Ag22 Ag8 2.847570 1_555
Ag22 Ag41 3.004811 1_555
Ag22 Ag28 3.023036 1_665
Ag22 Ag36 3.096862 1_555
Ag22 Th11 3.161117 1_555
Ag22 Th10 3.213365 1_555
Ag22 Th3 3.252795 1_556
Ag22 Th13 3.265051 1_565
Ag23 Ag44 2.841566 1_565
Ag23 Ag6 2.847570 1_555
Ag23 Ag39 3.004808 1_565
Ag23 Ag28 3.023036 1_565
Ag23 Ag9 3.032629 1_555
Ag23 Ag37 3.096871 1_565
Ag23 Th12 3.161117 1_565
Ag23 Th8 3.213365 1_555
Ag23 Th4 3.252795 1_566
Ag23 Th11 3.265051 1_455
Ag24 Ag26 2.820082 1_555
Ag24 Ag29 2.820082 1_554
Ag24 Ag9 2.985544 1_554
Ag24 Th7 3.201424 1_555
Ag24 Th6 3.201433 1_555
Ag24 Th5 3.201450 1_555
Ag25 Ag28 2.821959 1_554
Ag25 Ag27 2.821959 1_555
Ag25 Ag3 2.936150 1_545
Ag25 Ag6 2.936150 1_544
Ag25 Ag5 2.936150 1_445
Ag25 Ag8 2.936150 1_444
Ag25 Ag4 2.936150 1_555
Ag25 Ag7 2.936150 1_554
Ag25 Th2 3.396047 1_455
Ag25 Th4 3.396047 1_555
Ag25 Th3 3.396047 1_445
Ag26 Th8 3.165784 1_555
Ag26 Th9 3.165789 1_555
Ag26 Th10 3.165795 1_555
Ag27 Ag3 2.908837 1_545
Ag27 Ag5 2.908837 1_445
Ag27 Ag4 2.908837 1_555
Ag27 Th13 3.151798 1_455
Ag27 Th11 3.151798 1_445
Ag27 Th12 3.151798 1_555
Ag28 Ag6 2.908837 1_545
Ag28 Ag8 2.908837 1_445
Ag28 Ag7 2.908837 1_555
Ag28 Th13 3.151798 1_455
Ag28 Th11 3.151798 1_445
Ag28 Th12 3.151798 1_555
Ag29 Ag9 2.941248 1_555
Ag29 Th8 3.165784 1_555
Ag29 Th9 3.165789 1_555
Ag29 Th10 3.165795 1_555
Ag30 Ag48 2.948902 1_555
Ag30 Ag44 2.962462 1_555
Ag30 Ag46 2.974646 1_555
Ag30 Ag35 3.087313 1_555
Ag30 Ag34 3.126314 1_555
Ag30 Th0 3.155370 1_555
Ag30 Th6 3.276470 1_545
Ag30 Th4 3.299018 1_555
Ag30 Th8 3.455350 1_545
Ag31 Ag49 2.948896 1_555
Ag31 Ag42 2.962467 1_555
Ag31 Ag47 2.974639 1_555
Ag31 Ag33 3.087313 1_555
Ag31 Ag35 3.126314 1_555
Ag31 Th0 3.155364 1_555
Ag31 Th7 3.276456 1_655
Ag31 Th2 3.299028 1_555
Ag31 Th9 3.455352 1_655
Ag32 Ag50 2.948905 1_555
Ag32 Ag43 2.962468 1_555
Ag32 Ag45 2.974643 1_555
Ag32 Ag34 3.087313 1_555
Ag32 Ag33 3.126314 1_555
Ag32 Th0 3.155388 1_555
Ag32 Th5 3.276453 1_555
Ag32 Th3 3.299023 1_555
Ag32 Th10 3.455344 1_555
Ag33 Ag49 2.920698 1_555
Ag33 Ag47 2.928846 1_555
Ag33 Ag43 2.961100 1_555
Ag33 Th3 3.163462 1_555
Ag33 Th0 3.198199 1_555
Ag33 Th11 3.400228 1_555
Ag33 Th7 3.429395 1_655
Ag34 Ag4 2.866993 1_555
Ag34 Ag50 2.920696 1_555
Ag34 Ag45 2.928841 1_555
Ag34 Ag44 2.961107 1_555
Ag34 Th4 3.163469 1_555
Ag34 Th0 3.198205 1_555
Ag34 Th12 3.400227 1_555
Ag34 Th5 3.429376 1_555
Ag35 Ag5 2.867006 1_545
Ag35 Ag48 2.920690 1_555
Ag35 Ag46 2.928840 1_555
Ag35 Ag42 2.961102 1_555
Ag35 Th2 3.163470 1_555
Ag35 Th0 3.198181 1_555
Ag35 Th13 3.400235 1_555
Ag35 Th6 3.429387 1_545
Ag36 Ag6 2.866998 1_655
Ag36 Ag49 2.920698 1_556
Ag36 Ag47 2.928846 1_555
Ag36 Ag43 2.961100 1_555
Ag36 Ag40 3.087313 1_555
Ag36 Ag41 3.126314 1_555
Ag36 Th3 3.163462 1_556
Ag36 Th1 3.198199 1_555
Ag36 Th11 3.400228 1_555
Ag36 Th7 3.429395 1_656
Ag37 Ag7 2.866993 1_555
Ag37 Ag50 2.920696 1_556
Ag37 Ag45 2.928841 1_555
Ag37 Ag44 2.961107 1_555
Ag37 Ag41 3.087313 1_555
Ag37 Ag39 3.126314 1_555
Ag37 Th4 3.163469 1_556
Ag37 Th1 3.198205 1_555
Ag37 Th12 3.400227 1_555
Ag37 Th5 3.429376 1_556
Ag38 Ag8 2.867006 1_545
Ag38 Ag48 2.920690 1_556
Ag38 Ag46 2.928840 1_555
Ag38 Ag42 2.961102 1_555
Ag38 Ag39 3.087313 1_555
Ag38 Ag40 3.126314 1_555
Ag38 Th2 3.163470 1_556
Ag38 Th1 3.198181 1_555
Ag38 Th13 3.400235 1_555
Ag38 Th6 3.429387 1_546
Ag39 Ag9 2.829134 1_545
Ag39 Ag48 2.948902 1_556
Ag39 Ag44 2.962462 1_555
Ag39 Ag46 2.974646 1_555
Ag39 Th1 3.155370 1_555
Ag39 Th6 3.276470 1_546
Ag39 Th4 3.299018 1_556
Ag39 Th8 3.455350 1_545
Ag40 Ag49 2.948896 1_556
Ag40 Ag42 2.962467 1_555
Ag40 Ag47 2.974639 1_555
Ag40 Th1 3.155364 1_555
Ag40 Th7 3.276456 1_656
Ag40 Th2 3.299028 1_556
Ag40 Th9 3.455352 1_655
Ag41 Ag50 2.948905 1_556
Ag41 Ag43 2.962468 1_555
Ag41 Ag45 2.974643 1_555
Ag41 Th1 3.155388 1_555
Ag41 Th5 3.276453 1_556
Ag41 Th3 3.299023 1_556
Ag41 Th10 3.455344 1_555
Ag42 Ag47 2.806280 1_555
Ag42 Ag46 2.817967 1_555
Ag42 Th13 3.276916 1_555
Ag42 Th1 3.354414 1_555
Ag42 Th0 3.354414 1_555
Ag42 Th9 3.361802 1_655
Ag43 Ag45 2.806280 1_555
Ag43 Ag47 2.817966 1_555
Ag43 Th11 3.276916 1_555
Ag43 Th1 3.354424 1_555
Ag43 Th0 3.354424 1_555
Ag43 Th10 3.361802 1_555
Ag44 Ag46 2.806280 1_555
Ag44 Ag45 2.817967 1_555
Ag44 Th12 3.276916 1_555
Ag44 Th1 3.354421 1_555
Ag44 Th0 3.354421 1_555
Ag44 Th8 3.361802 1_545
Ag45 Th10 3.238531 1_555
Ag45 Th12 3.373444 1_555
Ag45 Th0 3.374499 1_555
Ag45 Th1 3.374499 1_555
Ag46 Th8 3.238531 1_545
Ag46 Th13 3.373444 1_555
Ag46 Th0 3.374489 1_555
Ag46 Th1 3.374489 1_555
Ag47 Th9 3.238531 1_655
Ag47 Th11 3.373444 1_555
Ag47 Th0 3.374492 1_555
Ag47 Th1 3.374492 1_555
Ag48 Ag50 2.802923 1_555
Ag48 Ag49 2.802923 1_555
Ag48 Th6 3.033618 1_545
Ag48 Th1 3.333804 1_554
Ag48 Th0 3.333804 1_555
Ag48 Th2 3.704907 1_555
Ag49 Ag50 2.802923 1_555
Ag49 Th7 3.033615 1_655
Ag49 Th1 3.333806 1_554
Ag49 Th0 3.333806 1_555
Ag49 Th3 3.704907 1_555
Ag50 Th5 3.033605 1_555
Ag50 Th1 3.333810 1_554
Ag50 Th0 3.333810 1_555
Ag50 Th4 3.704907 1_555
