# generated using pymatgen
data_CoTe(PbO3)2
_symmetry_space_group_name_H-M   'P 1'
_cell_length_a   8.11721607
_cell_length_b   9.82788027
_cell_length_c   8.11317570
_cell_angle_alpha   66.62977190
_cell_angle_beta   89.26050405
_cell_angle_gamma   113.37995005
_symmetry_Int_Tables_number   1
_chemical_formula_structural   CoTe(PbO3)2
_chemical_formula_sum   'Co4 Te4 Pb8 O24'
_cell_volume   534.09163383
_cell_formula_units_Z   4
loop_
 _symmetry_equiv_pos_site_id
 _symmetry_equiv_pos_as_xyz
  1  'x, y, z'
loop_
 _atom_site_type_symbol
 _atom_site_label
 _atom_site_symmetry_multiplicity
 _atom_site_fract_x
 _atom_site_fract_y
 _atom_site_fract_z
 _atom_site_occupancy
  Co  Co0  1  0.49996700  0.00005200  0.49998500  1
  Co  Co1  1  0.74999700  0.49998900  0.74999400  1
  Co  Co2  1  0.00006100  0.99997800  0.00005500  1
  Co  Co3  1  0.24999400  0.49997200  0.25004500  1
  Te  Te0  1  0.24990300  0.50003600  0.75010600  1
  Te  Te1  1  0.49979500  0.99996600  0.00019600  1
  Te  Te2  1  0.75009000  0.49997700  0.24988800  1
  Te  Te3  1  0.00021400  0.00002700  0.49981600  1
  Pb  Pb0  1  0.12636800  0.74756200  0.87425500  1
  Pb  Pb1  1  0.37653600  0.24771400  0.12383200  1
  Pb  Pb2  1  0.62661600  0.74725400  0.37339100  1
  Pb  Pb3  1  0.87537500  0.24693500  0.62374900  1
  Pb  Pb4  1  0.37333200  0.25283300  0.62643800  1
  Pb  Pb5  1  0.62395000  0.75324700  0.87559000  1
  Pb  Pb6  1  0.87369800  0.25218000  0.12616400  1
  Pb  Pb7  1  0.12406600  0.75205400  0.37700700  1
  O  O0  1  0.02560000  0.52973300  0.71167300  1
  O  O1  1  0.27610100  0.02987000  0.96205600  1
  O  O2  1  0.52587200  0.52948800  0.21270800  1
  O  O3  1  0.77577300  0.02981300  0.46196500  1
  O  O4  1  0.39296300  0.73917100  0.66027600  1
  O  O5  1  0.64307400  0.23918200  0.91014300  1
  O  O6  1  0.89202800  0.73935600  0.15965100  1
  O  O7  1  0.14282300  0.23938100  0.41031200  1
  O  O8  1  0.20893300  0.47727200  0.00035100  1
  O  O9  1  0.45839600  0.97649900  0.25105400  1
  O  O10  1  0.70873100  0.47674200  0.50081000  1
  O  O11  1  0.95860500  0.97724400  0.75045100  1
  O  O12  1  0.47407400  0.47022600  0.78815700  1
  O  O13  1  0.72386100  0.97033800  0.03776200  1
  O  O14  1  0.97429600  0.47033300  0.28750000  1
  O  O15  1  0.22444500  0.97026700  0.53805100  1
  O  O16  1  0.10790100  0.26075800  0.84008300  1
  O  O17  1  0.35717900  0.76065900  0.08962900  1
  O  O18  1  0.60705400  0.26074600  0.33985800  1
  O  O19  1  0.85697800  0.76082000  0.58977400  1
  O  O20  1  0.29117900  0.52298700  0.49961400  1
  O  O21  1  0.54148400  0.02320400  0.74923200  1
  O  O22  1  0.79144400  0.52337500  0.99906900  1
  O  O23  1  0.04124600  0.02276500  0.24931200  1
loop_
_geom_bond_atom_site_label_1
_geom_bond_atom_site_label_2
_geom_bond_distance
_geom_bond_site_symmetry_2
Co0 O18 2.137815 1_555
Co0 O9 2.138410 1_545
Co0 O15 2.138631 1_545
Co0 O21 2.139238 1_555
Co0 O4 2.139499 1_545
Co0 O3 2.140963 1_555
Co1 O22 2.138749 1_555
Co1 O5 2.138825 1_555
Co1 O10 2.138865 1_555
Co1 O19 2.139049 1_555
Co1 O0 2.139577 1_655
Co1 O12 2.141985 1_555
Co2 O6 2.136133 1_455
Co2 O23 2.137474 1_565
Co2 O16 2.137867 1_564
Co2 O11 2.140323 1_454
Co2 O1 2.142398 1_564
Co2 O13 2.144335 1_455
Co3 O7 2.137102 1_555
Co3 O17 2.137999 1_555
Co3 O14 2.140152 1_455
Co3 O8 2.140498 1_555
Co3 O20 2.140917 1_555
Co3 O2 2.141932 1_555
O0 Te0 1.965099 1_555
O0 Pb7 2.576154 1_555
O0 Pb0 2.805413 1_555
O0 Pb3 2.936989 1_455
O0 Pb6 3.196242 1_456
O1 Te1 1.960877 1_546
O1 Pb4 2.584031 1_555
O1 Pb1 2.800476 1_556
O1 Pb0 2.931969 1_545
O1 Pb7 3.199654 1_546
O2 Te2 1.962475 1_555
O2 Pb5 2.594826 1_554
O2 Pb2 2.792948 1_555
O2 Pb1 2.932674 1_555
O2 Pb4 3.189557 1_555
O3 Te3 1.966081 1_655
O3 Pb6 2.583049 1_555
O3 Pb3 2.794648 1_555
O3 Pb2 2.937858 1_545
O3 Pb5 3.188500 1_545
O4 Te0 1.963756 1_555
O4 Pb5 2.580049 1_555
O4 Pb0 2.803898 1_555
O4 Pb2 2.939510 1_555
O4 Pb7 3.190600 1_555
O5 Te1 1.964403 1_546
O5 Pb6 2.581661 1_556
O5 Pb1 2.802884 1_556
O5 Pb3 2.931349 1_555
O5 Pb4 3.198192 1_555
O6 Te2 1.964355 1_555
O6 Pb7 2.597437 1_655
O6 Pb2 2.792436 1_555
O6 Pb0 2.933024 1_654
O6 Pb5 3.190734 1_554
O7 Te3 1.965404 1_555
O7 Pb4 2.581741 1_555
O7 Pb3 2.801776 1_455
O7 Pb1 2.935942 1_555
O7 Pb6 3.196982 1_455
O8 Te0 1.961088 1_554
O8 Pb6 2.588388 1_455
O8 Pb0 2.797639 1_554
O8 Pb1 2.936397 1_555
O8 Pb5 3.195612 1_554
O9 Te1 1.963881 1_555
O9 Pb7 2.581457 1_555
O9 Pb1 2.802203 1_565
O9 Pb2 2.937375 1_555
O9 Pb6 3.196350 1_565
O10 Te2 1.965183 1_555
O10 Pb4 2.586024 1_555
O10 Pb2 2.797268 1_555
O10 Pb3 2.932206 1_555
O10 Pb7 3.195741 1_655
O11 Te3 1.964726 1_665
O11 Pb5 2.581813 1_555
O11 Pb3 2.795673 1_565
O11 Pb0 2.938508 1_655
O11 Pb4 3.192984 1_665
O12 Te0 1.964201 1_555
O12 Pb1 2.582888 1_556
O12 Pb4 2.796404 1_555
O12 Pb5 2.936312 1_555
O12 Pb2 3.196551 1_555
O13 Te1 1.962116 1_555
O13 Pb2 2.584457 1_555
O13 Pb5 2.796820 1_554
O13 Pb6 2.931029 1_565
O13 Pb3 3.190734 1_564
O14 Te2 1.963351 1_555
O14 Pb3 2.588419 1_555
O14 Pb6 2.800236 1_555
O14 Pb7 2.935573 1_655
O14 Pb0 3.188228 1_654
O15 Te3 1.964623 1_565
O15 Pb0 2.586351 1_555
O15 Pb7 2.798905 1_555
O15 Pb4 2.936884 1_565
O15 Pb1 3.194435 1_565
O16 Te0 1.963832 1_555
O16 Pb3 2.594748 1_455
O16 Pb4 2.792230 1_555
O16 Pb6 2.934626 1_456
O16 Pb1 3.191912 1_556
O17 Te1 1.965098 1_555
O17 Pb0 2.579063 1_554
O17 Pb5 2.799726 1_554
O17 Pb7 2.937088 1_555
O17 Pb2 3.196697 1_555
O18 Te2 1.964377 1_555
O18 Pb1 2.581086 1_555
O18 Pb6 2.803771 1_555
O18 Pb4 2.938856 1_555
O18 Pb3 3.191126 1_555
O19 Te3 1.964377 1_665
O19 Pb2 2.582407 1_555
O19 Pb7 2.803058 1_655
O19 Pb5 2.932366 1_555
O19 Pb0 3.200548 1_655
O20 Te0 1.962675 1_555
O20 Pb2 2.587429 1_555
O20 Pb4 2.794322 1_555
O20 Pb7 2.929086 1_555
O20 Pb3 3.200576 1_455
O21 Te1 1.965809 1_546
O21 Pb3 2.576808 1_555
O21 Pb5 2.794182 1_545
O21 Pb4 2.940181 1_555
O21 Pb0 3.195120 1_545
O22 Te2 1.963773 1_556
O22 Pb0 2.583775 1_655
O22 Pb6 2.804015 1_556
O22 Pb5 2.938234 1_555
O22 Pb1 3.194041 1_556
O23 Te3 1.963312 1_555
O23 Pb1 2.588197 1_555
O23 Pb7 2.802568 1_545
O23 Pb6 2.934790 1_455
O23 Pb2 3.192170 1_445
