# generated using pymatgen
data_MgSbF5
_symmetry_space_group_name_H-M   'P 1'
_cell_length_a   10.15096000
_cell_length_b   5.67715000
_cell_length_c   8.06366346
_cell_angle_alpha   59.97877009
_cell_angle_beta   90.00000000
_cell_angle_gamma   90.00000000
_symmetry_Int_Tables_number   1
_chemical_formula_structural   MgSbF5
_chemical_formula_sum   'Mg4 Sb4 F20'
_cell_volume   402.35329686
_cell_formula_units_Z   4
loop_
 _symmetry_equiv_pos_site_id
 _symmetry_equiv_pos_as_xyz
  1  'x, y, z'
loop_
 _atom_site_type_symbol
 _atom_site_label
 _atom_site_symmetry_multiplicity
 _atom_site_fract_x
 _atom_site_fract_y
 _atom_site_fract_z
 _atom_site_occupancy
  Mg  Mg0  1  0.02605600  0.47326200  0.81086200  1
  Mg  Mg1  1  0.52605600  0.52673800  0.68913800  1
  Mg  Mg2  1  0.97394400  0.52673800  0.18913800  1
  Mg  Mg3  1  0.47394400  0.47326200  0.31086200  1
  Sb  Sb0  1  0.77695200  0.06155800  0.66897700  1
  Sb  Sb1  1  0.27695200  0.93844200  0.83102300  1
  Sb  Sb2  1  0.22304800  0.93844200  0.33102300  1
  Sb  Sb3  1  0.72304800  0.06155800  0.16897700  1
  F  F0  1  0.93121100  0.30178000  0.68479900  1
  F  F1  1  0.43121100  0.69822000  0.81520100  1
  F  F2  1  0.06878900  0.69822000  0.31520100  1
  F  F3  1  0.56878900  0.30178000  0.18479900  1
  F  F4  1  0.60273800  0.36452200  0.53315300  1
  F  F5  1  0.10273800  0.63547800  0.96684700  1
  F  F6  1  0.39726200  0.63547800  0.46684700  1
  F  F7  1  0.89726200  0.36452200  0.03315300  1
  F  F8  1  0.42189200  0.18302800  0.83626200  1
  F  F9  1  0.92189200  0.81697200  0.66373800  1
  F  F10  1  0.57810800  0.81697200  0.16373800  1
  F  F11  1  0.07810800  0.18302800  0.33626200  1
  F  F12  1  0.15395100  0.16204400  0.93707500  1
  F  F13  1  0.65395100  0.83795600  0.56292500  1
  F  F14  1  0.84604900  0.83795600  0.06292500  1
  F  F15  1  0.34604900  0.16204400  0.43707500  1
  F  F16  1  0.67500700  0.30262500  0.88690700  1
  F  F17  1  0.17500700  0.69737500  0.61309300  1
  F  F18  1  0.32499300  0.69737500  0.11309300  1
  F  F19  1  0.82499300  0.30262500  0.38690700  1
loop_
_geom_bond_atom_site_label_1
_geom_bond_atom_site_label_2
_geom_bond_distance
_geom_bond_site_symmetry_2
F0 Mg0 1.974404 1_655
F0 Sb0 2.121848 1_555
F0 F19 2.630804 1_555
F1 Mg1 1.974404 1_555
F1 Sb1 2.121848 1_555
F1 F18 2.630804 1_556
F2 Mg2 1.974404 1_455
F2 Sb2 2.121848 1_555
F3 Mg3 1.974404 1_555
F3 Sb3 2.121848 1_555
F4 Mg1 2.048214 1_555
F4 Mg3 2.048430 1_555
F4 Sb0 2.323842 1_555
F4 F6 2.485879 1_555
F4 F8 2.808136 1_555
F5 Mg0 2.048214 1_555
F5 Mg2 2.048430 1_456
F5 Sb1 2.323842 1_555
F5 F7 2.485879 1_456
F5 F9 2.808136 1_455
F6 Mg3 2.048214 1_555
F6 Mg1 2.048430 1_555
F6 Sb2 2.323842 1_555
F6 F8 2.806670 1_555
F7 Mg2 2.048214 1_555
F7 Mg0 2.048430 1_654
F7 Sb3 2.323842 1_555
F7 F9 2.806670 1_554
F8 Mg1 2.004144 1_555
F8 Sb1 2.037946 1_545
F9 Mg0 2.004144 1_655
F9 Sb0 2.037946 1_565
F10 Mg3 2.004144 1_555
F10 Sb3 2.037946 1_565
F10 F16 2.719132 1_564
F10 F18 2.739863 1_555
F10 F4 2.806670 1_555
F10 F6 2.808136 1_555
F10 F14 2.824139 1_555
F11 Mg2 2.004144 1_455
F11 Sb2 2.037946 1_545
F11 F17 2.719132 1_545
F11 F19 2.739863 1_455
F11 F5 2.806670 1_554
F11 F7 2.808136 1_455
F11 F15 2.824139 1_555
F12 Mg0 2.010878 1_555
F12 Sb1 2.233373 1_545
F12 F8 2.824139 1_555
F12 F17 2.856987 1_555
F12 F5 2.863143 1_555
F12 F18 2.870795 1_546
F13 Mg1 2.010878 1_555
F13 Sb0 2.233373 1_565
F13 F9 2.824139 1_555
F13 F16 2.856987 1_555
F13 F4 2.863143 1_555
F13 F19 2.870795 1_565
F14 Mg2 2.010878 1_555
F14 Sb3 2.233373 1_565
F14 F19 2.856987 1_555
F14 F7 2.863143 1_555
F14 F16 2.870795 1_564
F15 Mg3 2.010878 1_555
F15 Sb2 2.233373 1_545
F15 F18 2.856987 1_555
F15 F6 2.863143 1_555
F15 F17 2.870795 1_545
F16 Sb3 2.041910 1_556
F16 Mg1 2.101859 1_555
F16 F3 2.630804 1_556
F16 F7 2.649309 1_556
F16 F8 2.739863 1_555
F16 F4 2.792075 1_555
F17 Sb2 2.041910 1_555
F17 Mg0 2.101859 1_555
F17 F2 2.630804 1_555
F17 F6 2.649309 1_555
F17 F9 2.739863 1_455
F17 F5 2.792075 1_555
F18 Sb1 2.041910 1_554
F18 Mg3 2.101859 1_555
F18 F5 2.649309 1_554
F18 F8 2.719132 1_564
F18 F6 2.792075 1_555
F19 Sb0 2.041910 1_555
F19 Mg2 2.101859 1_555
F19 F4 2.649309 1_555
F19 F9 2.719132 1_545
F19 F7 2.792075 1_555
