# generated using pymatgen
data_Tb3Ni7B2
_symmetry_space_group_name_H-M   'P 1'
_cell_length_a   5.05814702
_cell_length_b   5.05814702
_cell_length_c   14.16984481
_cell_angle_alpha   90.00000000
_cell_angle_beta   90.00000000
_cell_angle_gamma   119.99933138
_symmetry_Int_Tables_number   1
_chemical_formula_structural   Tb3Ni7B2
_chemical_formula_sum   'Tb6 Ni14 B4'
_cell_volume   313.96522541
_cell_formula_units_Z   2
loop_
 _symmetry_equiv_pos_site_id
 _symmetry_equiv_pos_as_xyz
  1  'x, y, z'
loop_
 _atom_site_type_symbol
 _atom_site_label
 _atom_site_symmetry_multiplicity
 _atom_site_fract_x
 _atom_site_fract_y
 _atom_site_fract_z
 _atom_site_occupancy
  Tb  Tb0  1  0.66665992  0.33334008  0.03165707  1
  Tb  Tb1  1  0.33334008  0.66665992  0.96834293  1
  Tb  Tb2  1  0.33334008  0.66665992  0.53165707  1
  Tb  Tb3  1  0.66665992  0.33334008  0.46834293  1
  Tb  Tb4  1  0.66667526  0.33332474  0.25000000  1
  Tb  Tb5  1  0.33332474  0.66667526  0.75000000  1
  Ni  Ni0  1  0.83483404  0.66967106  0.64928358  1
  Ni  Ni1  1  0.83483729  0.16516271  0.64930530  1
  Ni  Ni2  1  0.33032894  0.16516596  0.64928358  1
  Ni  Ni3  1  0.16516596  0.33032894  0.35071642  1
  Ni  Ni4  1  0.16516271  0.83483729  0.35069470  1
  Ni  Ni5  1  0.66967106  0.83483404  0.35071642  1
  Ni  Ni6  1  0.16516596  0.33032894  0.14928358  1
  Ni  Ni7  1  0.16516271  0.83483729  0.14930530  1
  Ni  Ni8  1  0.66967106  0.83483404  0.14928358  1
  Ni  Ni9  1  0.83483404  0.66967106  0.85071642  1
  Ni  Ni10  1  0.83483729  0.16516271  0.85069470  1
  Ni  Ni11  1  0.33032894  0.16516596  0.85071642  1
  Ni  Ni12  1  0.00000000  -0.00000000  0.50000000  1
  Ni  Ni13  1  0.00000000  -0.00000000  -0.00000000  1
  B  B0  1  0.66663684  0.33336316  0.75000000  1
  B  B1  1  0.33336316  0.66663684  0.25000000  1
  B  B2  1  0.00001844  0.99998156  0.75000000  1
  B  B3  1  0.99998156  0.00001844  0.25000000  1
loop_
_geom_bond_atom_site_label_1
_geom_bond_atom_site_label_2
_geom_bond_distance
_geom_bond_site_symmetry_2
Tb0 Tb1 3.054900 1_554
Tb0 Tb1 3.055098 1_654
Tb0 Tb1 3.055098 1_544
Tb0 Tb4 3.093885 1_555
Tb1 Tb5 3.093885 1_555
Tb2 Tb3 3.054900 1_555
Tb2 Tb3 3.055098 1_565
Tb2 Tb3 3.055098 1_455
Tb2 Tb5 3.093885 1_555
Tb3 Tb4 3.093885 1_555
Ni0 Ni1 2.506261 1_565
Ni0 Ni2 2.506311 1_665
Ni0 Ni1 2.551886 1_555
Ni0 Ni2 2.551887 1_555
Ni0 Ni12 2.562897 1_665
Ni0 Tb5 2.903930 1_655
Ni0 Tb5 2.904031 1_555
Ni0 Tb3 2.957061 1_555
Ni0 Tb2 3.028885 1_555
Ni0 Tb2 3.028983 1_655
Ni1 Ni2 2.506261 1_655
Ni1 Ni2 2.551886 1_555
Ni1 Ni12 2.563134 1_655
Ni1 Tb5 2.903852 1_655
Ni1 Tb5 2.903852 1_545
Ni1 Tb3 2.957372 1_555
Ni1 Tb2 3.029124 1_655
Ni1 Tb2 3.029124 1_545
Ni2 Tb5 2.903930 1_545
Ni2 Tb5 2.904031 1_555
Ni2 Tb3 2.957061 1_555
Ni2 Tb2 3.028885 1_555
Ni2 Tb2 3.028983 1_545
Ni3 Ni4 2.506261 1_545
Ni3 Ni5 2.506311 1_445
Ni3 Ni4 2.551886 1_555
Ni3 Ni5 2.551887 1_555
Ni3 Tb4 2.903930 1_455
Ni3 Tb4 2.904031 1_555
Ni3 Tb2 2.957061 1_555
Ni3 Tb3 3.028885 1_555
Ni3 Tb3 3.028983 1_455
Ni4 Ni5 2.506261 1_455
Ni4 Ni5 2.551886 1_555
Ni4 Tb4 2.903852 1_565
Ni4 Tb4 2.903852 1_455
Ni4 Tb2 2.957372 1_555
Ni4 Tb3 3.029124 1_565
Ni4 Tb3 3.029124 1_455
Ni5 Tb4 2.903930 1_565
Ni5 Tb4 2.904031 1_555
Ni5 Tb2 2.957061 1_555
Ni5 Tb3 3.028885 1_555
Ni5 Tb3 3.028983 1_565
Ni6 Ni7 2.506261 1_545
Ni6 Ni8 2.506311 1_445
Ni6 Ni7 2.551886 1_555
Ni6 Ni8 2.551887 1_555
Ni6 Tb4 2.903930 1_455
Ni6 Tb4 2.904031 1_555
Ni6 Tb1 2.957061 1_554
Ni6 Tb0 3.028885 1_555
Ni6 Tb0 3.028983 1_455
Ni7 Ni8 2.506261 1_455
Ni7 Ni8 2.551886 1_555
Ni7 Tb4 2.903852 1_565
Ni7 Tb4 2.903852 1_455
Ni7 Tb1 2.957372 1_554
Ni7 Tb0 3.029124 1_565
Ni7 Tb0 3.029124 1_455
Ni8 Tb4 2.903930 1_565
Ni8 Tb4 2.904031 1_555
Ni8 Tb1 2.957061 1_554
Ni8 Tb0 3.028885 1_555
Ni8 Tb0 3.028983 1_565
Ni9 Tb5 2.903930 1_655
Ni9 Tb5 2.904031 1_555
Ni9 Tb0 2.957061 1_556
Ni9 Tb1 3.028885 1_555
Ni9 Tb1 3.028983 1_655
Ni10 Ni9 2.506261 1_545
Ni10 Ni11 2.506261 1_655
Ni10 Ni9 2.551886 1_555
Ni10 Ni11 2.551886 1_555
Ni10 Ni13 2.563134 1_656
Ni10 Tb5 2.903852 1_655
Ni10 Tb5 2.903852 1_545
Ni10 Tb0 2.957372 1_556
Ni10 Tb1 3.029124 1_655
Ni10 Tb1 3.029124 1_545
Ni11 Ni9 2.506311 1_445
Ni11 Ni9 2.551887 1_555
Ni11 Ni13 2.562897 1_556
Ni11 Tb5 2.903930 1_545
Ni11 Tb5 2.904031 1_555
Ni11 Tb0 2.957061 1_556
Ni11 Tb1 3.028885 1_555
Ni11 Tb1 3.028983 1_545
Ni12 Ni5 2.562897 1_445
Ni12 Ni3 2.562897 1_555
Ni12 Ni2 2.562897 1_555
Ni12 Ni4 2.563134 1_545
Ni12 Tb3 2.954564 1_555
Ni12 Tb3 2.954564 1_445
Ni12 Tb2 2.954564 1_555
Ni12 Tb2 2.954564 1_445
Ni12 Tb3 2.954622 1_455
Ni12 Tb2 2.954622 1_545
Ni13 Ni6 2.562897 1_555
Ni13 Ni9 2.562897 1_444
Ni13 Ni8 2.562897 1_445
Ni13 Ni7 2.563134 1_545
Ni13 Tb0 2.954564 1_555
Ni13 Tb1 2.954564 1_554
Ni13 Tb0 2.954564 1_445
Ni13 Tb1 2.954564 1_444
Ni13 Tb0 2.954622 1_455
Ni13 Tb1 2.954622 1_544
B0 Ni11 2.051107 1_555
B0 Ni9 2.051107 1_555
B0 Ni2 2.051107 1_555
B0 Ni0 2.051107 1_555
B0 Ni10 2.051175 1_555
B0 Ni1 2.051175 1_555
B0 Tb5 2.920127 1_555
B0 Tb5 2.920435 1_655
B0 Tb5 2.920435 1_545
B1 Ni5 2.051107 1_555
B1 Ni8 2.051107 1_555
B1 Ni6 2.051107 1_555
B1 Ni3 2.051107 1_555
B1 Ni4 2.051175 1_555
B1 Ni7 2.051175 1_555
B1 Tb4 2.920127 1_555
B1 Tb4 2.920435 1_455
B1 Tb4 2.920435 1_565
B2 Ni10 2.032255 1_465
B2 Ni1 2.032255 1_465
B2 Ni0 2.032319 1_455
B2 Ni2 2.032319 1_565
B2 Ni9 2.032319 1_455
B2 Ni11 2.032319 1_565
B2 Tb5 2.920076 1_555
B2 Tb5 2.920461 1_565
B2 Tb5 2.920461 1_455
B3 Ni4 2.032255 1_645
B3 Ni7 2.032255 1_645
B3 Ni5 2.032319 1_545
B3 Ni3 2.032319 1_655
B3 Ni8 2.032319 1_545
B3 Ni6 2.032319 1_655
B3 Tb4 2.920076 1_555
B3 Tb4 2.920461 1_655
B3 Tb4 2.920461 1_545
