# generated using pymatgen
data_Ba4MgTl8O16
_symmetry_space_group_name_H-M   'P 1'
_cell_length_a   11.17481939
_cell_length_b   12.21383404
_cell_length_c   3.55768883
_cell_angle_alpha   90.00000000
_cell_angle_beta   90.00000000
_cell_angle_gamma   87.04565082
_symmetry_Int_Tables_number   1
_chemical_formula_structural   Ba4MgTl8O16
_chemical_formula_sum   'Ba4 Mg1 Tl8 O16'
_cell_volume   484.93428541
_cell_formula_units_Z   1
loop_
 _symmetry_equiv_pos_site_id
 _symmetry_equiv_pos_as_xyz
  1  'x, y, z'
loop_
 _atom_site_type_symbol
 _atom_site_label
 _atom_site_symmetry_multiplicity
 _atom_site_fract_x
 _atom_site_fract_y
 _atom_site_fract_z
 _atom_site_occupancy
  Ba  Ba0  1  0.24470491  0.34777183  0.75000000  1
  Ba  Ba1  1  0.26495191  0.87910853  0.25000000  1
  Ba  Ba2  1  0.74567324  0.13767435  0.75000000  1
  Ba  Ba3  1  0.75315257  0.66329740  0.25000000  1
  Mg  Mg0  1  0.20954127  0.63074624  0.25000000  1
  Tl  Tl0  1  0.02517156  0.58749241  0.75000000  1
  Tl  Tl1  1  0.07196834  0.11353747  0.75000000  1
  Tl  Tl2  1  0.46297989  0.61360076  0.25000000  1
  Tl  Tl3  1  0.42205760  0.11537421  0.25000000  1
  Tl  Tl4  1  0.58344316  0.89875222  0.75000000  1
  Tl  Tl5  1  0.56578802  0.38427644  0.75000000  1
  Tl  Tl6  1  0.93937716  0.89085052  0.25000000  1
  Tl  Tl7  1  0.89113052  0.37178607  0.25000000  1
  O  O0  1  0.03553048  0.70900706  0.25000000  1
  O  O1  1  0.08828935  0.92986527  0.75000000  1
  O  O2  1  0.13143593  0.48908793  0.25000000  1
  O  O3  1  0.20905034  0.16376043  0.25000000  1
  O  O4  1  0.27443320  0.67605803  0.75000000  1
  O  O5  1  0.39030947  0.98773495  0.75000000  1
  O  O6  1  0.42085490  0.43624780  0.25000000  1
  O  O7  1  0.46602898  0.22456302  0.75000000  1
  O  O8  1  0.53615397  0.78395012  0.25000000  1
  O  O9  1  0.59377791  0.56747842  0.75000000  1
  O  O10  1  0.61569082  0.02257071  0.25000000  1
  O  O11  1  0.69504069  0.31738777  0.25000000  1
  O  O12  1  0.81067735  0.83568758  0.75000000  1
  O  O13  1  0.85477180  0.51319904  0.75000000  1
  O  O14  1  0.92220589  0.07496527  0.25000000  1
  O  O15  1  0.98205877  0.28521012  0.75000000  1
loop_
_geom_bond_atom_site_label_1
_geom_bond_atom_site_label_2
_geom_bond_distance
_geom_bond_site_symmetry_2
Ba0 O2 2.742326 1_555
Ba0 O2 2.742326 1_556
Ba0 O7 2.828060 1_555
Ba0 O6 2.902773 1_556
Ba0 O6 2.902773 1_555
Ba0 O3 2.909730 1_555
Ba0 O3 2.909730 1_556
Ba0 O15 3.070736 1_455
Ba1 O5 2.660545 1_555
Ba1 O5 2.660545 1_554
Ba1 O1 2.705514 1_555
Ba1 O1 2.705514 1_554
Ba1 O4 3.049418 1_555
Ba1 O4 3.049418 1_554
Ba1 Mg0 3.127121 1_555
Ba1 O8 3.189432 1_555
Ba1 O3 3.500535 1_565
Ba2 O10 2.731494 1_556
Ba2 O10 2.731494 1_555
Ba2 O14 2.736201 1_556
Ba2 O14 2.736201 1_555
Ba2 O11 2.859089 1_556
Ba2 O11 2.859089 1_555
Ba2 O7 3.248053 1_555
Ba2 O15 3.273478 1_555
Ba3 O13 2.756833 1_555
Ba3 O13 2.756833 1_554
Ba3 O8 2.771909 1_555
Ba3 O9 2.814371 1_555
Ba3 O9 2.814371 1_554
Ba3 O12 2.854883 1_554
Ba3 O12 2.854883 1_555
Ba3 O0 3.232739 1_655
Mg0 O2 1.977632 1_555
Mg0 O4 2.009426 1_554
Mg0 O4 2.009426 1_555
Mg0 O0 2.122101 1_555
Mg0 Tl2 2.829078 1_555
O0 Tl0 2.323387 1_555
O0 Tl0 2.323387 1_554
O0 Tl6 2.416901 1_455
O1 Tl1 2.241355 1_565
O1 Tl6 2.498443 1_456
O1 Tl6 2.498443 1_455
O2 Tl0 2.423188 1_555
O2 Tl0 2.423188 1_554
O2 Tl7 3.108125 1_455
O3 Tl3 2.422842 1_555
O3 Tl1 2.446230 1_555
O3 Tl1 2.446230 1_554
O4 Tl2 2.831939 1_555
O4 Tl2 2.831939 1_556
O5 Tl4 2.365875 1_555
O5 Tl3 2.403651 1_565
O5 Tl3 2.403651 1_566
O6 Tl2 2.240302 1_555
O6 Tl5 2.466648 1_554
O6 Tl5 2.466648 1_555
O7 Tl3 2.291683 1_555
O7 Tl3 2.291683 1_556
O7 Tl5 2.296127 1_555
O8 Tl2 2.274422 1_555
O8 Tl4 2.342225 1_555
O8 Tl4 2.342225 1_554
O9 Tl5 2.275264 1_555
O9 Tl2 2.352266 1_555
O9 Tl2 2.352266 1_556
O10 Tl4 2.374315 1_545
O10 Tl4 2.374315 1_544
O10 Tl3 2.390412 1_555
O11 Tl7 2.322321 1_555
O11 Tl5 2.407552 1_554
O11 Tl5 2.407552 1_555
O12 Tl6 2.405519 1_556
O12 Tl6 2.405519 1_555
O12 Tl4 2.615289 1_555
O13 Tl0 2.151145 1_655
O13 Tl7 2.498046 1_555
O13 Tl7 2.498046 1_556
O13 O9 2.957452 1_555
O14 Tl6 2.247043 1_545
O14 Tl1 2.503665 1_655
O14 Tl1 2.503665 1_654
O15 Tl1 2.277894 1_655
O15 Tl7 2.281261 1_555
O15 Tl7 2.281261 1_556
