# generated using pymatgen
data_Li9Mn2Co5O16
_symmetry_space_group_name_H-M   'P 1'
_cell_length_a   5.93267203
_cell_length_b   5.93267203
_cell_length_c   10.34420895
_cell_angle_alpha   71.16282156
_cell_angle_beta   71.16282156
_cell_angle_gamma   58.06287299
_symmetry_Int_Tables_number   1
_chemical_formula_structural   Li9Mn2Co5O16
_chemical_formula_sum   'Li9 Mn2 Co5 O16'
_cell_volume   287.13134735
_cell_formula_units_Z   1
loop_
 _symmetry_equiv_pos_site_id
 _symmetry_equiv_pos_as_xyz
  1  'x, y, z'
loop_
 _atom_site_type_symbol
 _atom_site_label
 _atom_site_symmetry_multiplicity
 _atom_site_fract_x
 _atom_site_fract_y
 _atom_site_fract_z
 _atom_site_occupancy
  Li  Li0  1  0.50490800  0.50490800  0.99518700  1
  Li  Li1  1  0.00710200  0.00710200  0.99179700  1
  Li  Li2  1  0.74756200  0.24721100  0.26001700  1
  Li  Li3  1  0.24721100  0.74756200  0.26001700  1
  Li  Li4  1  0.99779000  0.99779000  0.50512100  1
  Li  Li5  1  0.49741700  0.49741700  0.50929200  1
  Li  Li6  1  0.25188900  0.74789700  0.73648400  1
  Li  Li7  1  0.74789700  0.25188900  0.73648400  1
  Li  Li8  1  0.24999200  0.24999200  0.74692400  1
  Mn  Mn0  1  0.99987500  0.50083200  0.99696500  1
  Mn  Mn1  1  0.50083200  0.99987500  0.99696500  1
  Co  Co0  1  0.24820700  0.24820700  0.25833900  1
  Co  Co1  1  0.74875700  0.74875700  0.25107500  1
  Co  Co2  1  0.50171200  0.00131000  0.50749100  1
  Co  Co3  1  0.00131000  0.50171200  0.50749100  1
  Co  Co4  1  0.75229900  0.75229900  0.74947100  1
  O  O0  1  0.36704600  0.36704600  0.89370400  1
  O  O1  1  0.87033900  0.87033900  0.89130400  1
  O  O2  1  0.60813800  0.09742900  0.12765100  1
  O  O3  1  0.09742900  0.60813800  0.12765100  1
  O  O4  1  0.86394700  0.86394700  0.37970500  1
  O  O5  1  0.36739300  0.36739300  0.37213100  1
  O  O6  1  0.09573600  0.62840700  0.62774400  1
  O  O7  1  0.62840700  0.09573600  0.62774400  1
  O  O8  1  0.63549300  0.63549300  0.11054300  1
  O  O9  1  0.13518200  0.13518200  0.10964500  1
  O  O10  1  0.87866000  0.39349800  0.36426400  1
  O  O11  1  0.39349800  0.87866000  0.36426400  1
  O  O12  1  0.13307700  0.13307700  0.61162800  1
  O  O13  1  0.62547000  0.62547000  0.62524700  1
  O  O14  1  0.40918600  0.88623900  0.87882700  1
  O  O15  1  0.88623900  0.40918600  0.87882700  1
loop_
_geom_bond_atom_site_label_1
_geom_bond_atom_site_label_2
_geom_bond_distance
_geom_bond_site_symmetry_2
Li0 O15 2.052579 1_555
Li0 O14 2.052579 1_555
Li0 O0 2.063129 1_555
Li0 O8 2.110257 1_556
Li0 O2 2.221065 1_556
Li0 O3 2.221065 1_556
Li1 O1 2.045250 1_445
Li1 O9 2.109034 1_556
Li1 O14 2.121650 1_545
Li1 O15 2.121650 1_455
Li1 O2 2.204720 1_456
Li1 O3 2.204720 1_546
Li2 O5 2.020836 1_555
Li2 O4 2.062232 1_545
Li2 O10 2.093094 1_555
Li2 O8 2.209655 1_555
Li2 O9 2.211382 1_655
Li2 O2 2.375557 1_555
Li3 O5 2.020836 1_555
Li3 O4 2.062232 1_455
Li3 O11 2.093094 1_555
Li3 O8 2.209655 1_555
Li3 O9 2.211382 1_565
Li3 O3 2.375557 1_555
Li4 O7 2.020564 1_565
Li4 O6 2.020564 1_655
Li4 O12 2.079848 1_665
Li4 O10 2.198749 1_565
Li4 O11 2.198749 1_655
Li4 O4 2.222970 1_555
Li5 O13 2.092954 1_555
Li5 O7 2.134055 1_555
Li5 O6 2.134055 1_555
Li5 O10 2.162688 1_555
Li5 O11 2.162688 1_555
Li5 O5 2.290459 1_555
Li6 O13 1.988326 1_555
Li6 O12 2.089187 1_565
Li6 O6 2.123353 1_555
Li6 O1 2.210655 1_455
Li6 O0 2.219972 1_555
Li6 O14 2.488071 1_555
Li7 O13 1.988326 1_555
Li7 O12 2.089187 1_655
Li7 O7 2.123353 1_555
Li7 O1 2.210655 1_545
Li7 O0 2.219972 1_555
Li7 O15 2.488071 1_555
Li8 O7 2.040853 1_555
Li8 O6 2.040853 1_555
Li8 O15 2.045764 1_455
Li8 O14 2.045764 1_545
Li8 O12 2.164169 1_555
Li8 O0 2.267550 1_555
Mn0 O15 1.895359 1_555
Mn0 O0 1.931763 1_655
Mn0 O1 1.950283 1_555
Mn0 O8 1.957200 1_556
Mn0 O9 1.959044 1_656
Mn0 O3 2.004617 1_656
Mn1 O14 1.895359 1_555
Mn1 O0 1.931763 1_565
Mn1 O1 1.950283 1_555
Mn1 O8 1.957200 1_556
Mn1 O9 1.959044 1_566
Mn1 O2 2.004617 1_566
Co0 O11 1.951789 1_545
Co0 O10 1.951789 1_455
Co0 O5 1.997349 1_555
Co0 O2 2.020731 1_555
Co0 O3 2.020731 1_555
Co0 O9 2.252287 1_555
Co1 O11 1.917713 1_555
Co1 O10 1.917713 1_555
Co1 O2 1.939471 1_565
Co1 O3 1.939471 1_655
Co1 O4 2.091153 1_555
Co1 O8 2.180726 1_555
Co2 O12 1.941169 1_555
Co2 O7 1.981256 1_555
Co2 O4 2.009495 1_545
Co2 O13 2.021424 1_545
Co2 O5 2.058692 1_555
Co2 O11 2.222901 1_545
Co3 O12 1.941169 1_555
Co3 O6 1.981256 1_555
Co3 O4 2.009495 1_455
Co3 O13 2.021424 1_455
Co3 O5 2.058692 1_555
Co3 O10 2.222901 1_455
Co4 O6 1.906217 1_655
Co4 O7 1.906217 1_565
Co4 O15 1.944709 1_555
Co4 O14 1.944709 1_555
Co4 O13 2.152037 1_555
Co4 O1 2.231399 1_555
