# generated using pymatgen
data_Nb2NiS4
_symmetry_space_group_name_H-M   'P 1'
_cell_length_a   6.74578000
_cell_length_b   20.82075200
_cell_length_c   31.31146800
_cell_angle_alpha   90.00000000
_cell_angle_beta   90.00000000
_cell_angle_gamma   90.00000000
_symmetry_Int_Tables_number   1
_chemical_formula_structural   Nb2NiS4
_chemical_formula_sum   'Nb64 Ni32 S128'
_cell_volume   4397.76495492
_cell_formula_units_Z   32
loop_
 _symmetry_equiv_pos_site_id
 _symmetry_equiv_pos_as_xyz
  1  'x, y, z'
loop_
 _atom_site_type_symbol
 _atom_site_label
 _atom_site_symmetry_multiplicity
 _atom_site_fract_x
 _atom_site_fract_y
 _atom_site_fract_z
 _atom_site_occupancy
  Nb  Nb0_0  1  0.37500000  0.22237200  0.46110900  1
  Nb  Nb0_1  1  0.37500000  0.22237200  0.96110900  1
  Nb  Nb0_2  1  0.37500000  0.72237200  0.46110900  1
  Nb  Nb0_3  1  0.37500000  0.72237200  0.96110900  1
  Nb  Nb0_4  1  0.87500000  0.22237200  0.46110900  1
  Nb  Nb0_5  1  0.87500000  0.22237200  0.96110900  1
  Nb  Nb0_6  1  0.87500000  0.72237200  0.46110900  1
  Nb  Nb0_7  1  0.87500000  0.72237200  0.96110900  1
  Nb  Nb1_0  1  0.37500000  0.47237200  0.28889100  1
  Nb  Nb1_1  1  0.37500000  0.47237200  0.78889100  1
  Nb  Nb1_2  1  0.37500000  0.97237200  0.28889100  1
  Nb  Nb1_3  1  0.37500000  0.97237200  0.78889100  1
  Nb  Nb1_4  1  0.87500000  0.47237200  0.28889100  1
  Nb  Nb1_5  1  0.87500000  0.47237200  0.78889100  1
  Nb  Nb1_6  1  0.87500000  0.97237200  0.28889100  1
  Nb  Nb1_7  1  0.87500000  0.97237200  0.78889100  1
  Nb  Nb2_0  1  0.12500000  0.27762800  0.03889100  1
  Nb  Nb2_1  1  0.12500000  0.27762800  0.53889100  1
  Nb  Nb2_2  1  0.12500000  0.77762800  0.03889100  1
  Nb  Nb2_3  1  0.12500000  0.77762800  0.53889100  1
  Nb  Nb2_4  1  0.62500000  0.27762800  0.03889100  1
  Nb  Nb2_5  1  0.62500000  0.27762800  0.53889100  1
  Nb  Nb2_6  1  0.62500000  0.77762800  0.03889100  1
  Nb  Nb2_7  1  0.62500000  0.77762800  0.53889100  1
  Nb  Nb3_0  1  0.12500000  0.02762800  0.21110900  1
  Nb  Nb3_1  1  0.12500000  0.02762800  0.71110900  1
  Nb  Nb3_2  1  0.12500000  0.52762800  0.21110900  1
  Nb  Nb3_3  1  0.12500000  0.52762800  0.71110900  1
  Nb  Nb3_4  1  0.62500000  0.02762800  0.21110900  1
  Nb  Nb3_5  1  0.62500000  0.02762800  0.71110900  1
  Nb  Nb3_6  1  0.62500000  0.52762800  0.21110900  1
  Nb  Nb3_7  1  0.62500000  0.52762800  0.71110900  1
  Nb  Nb4_0  1  0.37500000  0.18264150  0.21898450  1
  Nb  Nb4_1  1  0.37500000  0.18264150  0.71898450  1
  Nb  Nb4_2  1  0.37500000  0.68264150  0.21898450  1
  Nb  Nb4_3  1  0.37500000  0.68264150  0.71898450  1
  Nb  Nb4_4  1  0.87500000  0.18264150  0.21898450  1
  Nb  Nb4_5  1  0.87500000  0.18264150  0.71898450  1
  Nb  Nb4_6  1  0.87500000  0.68264150  0.21898450  1
  Nb  Nb4_7  1  0.87500000  0.68264150  0.71898450  1
  Nb  Nb5_0  1  0.37500000  0.43264150  0.03101550  1
  Nb  Nb5_1  1  0.37500000  0.43264150  0.53101550  1
  Nb  Nb5_2  1  0.37500000  0.93264150  0.03101550  1
  Nb  Nb5_3  1  0.37500000  0.93264150  0.53101550  1
  Nb  Nb5_4  1  0.87500000  0.43264150  0.03101550  1
  Nb  Nb5_5  1  0.87500000  0.43264150  0.53101550  1
  Nb  Nb5_6  1  0.87500000  0.93264150  0.03101550  1
  Nb  Nb5_7  1  0.87500000  0.93264150  0.53101550  1
  Nb  Nb6_0  1  0.12500000  0.31735850  0.28101550  1
  Nb  Nb6_1  1  0.12500000  0.31735850  0.78101550  1
  Nb  Nb6_2  1  0.12500000  0.81735850  0.28101550  1
  Nb  Nb6_3  1  0.12500000  0.81735850  0.78101550  1
  Nb  Nb6_4  1  0.62500000  0.31735850  0.28101550  1
  Nb  Nb6_5  1  0.62500000  0.31735850  0.78101550  1
  Nb  Nb6_6  1  0.62500000  0.81735850  0.28101550  1
  Nb  Nb6_7  1  0.62500000  0.81735850  0.78101550  1
  Nb  Nb7_0  1  0.12500000  0.06735850  0.46898450  1
  Nb  Nb7_1  1  0.12500000  0.06735850  0.96898450  1
  Nb  Nb7_2  1  0.12500000  0.56735850  0.46898450  1
  Nb  Nb7_3  1  0.12500000  0.56735850  0.96898450  1
  Nb  Nb7_4  1  0.62500000  0.06735850  0.46898450  1
  Nb  Nb7_5  1  0.62500000  0.06735850  0.96898450  1
  Nb  Nb7_6  1  0.62500000  0.56735850  0.46898450  1
  Nb  Nb7_7  1  0.62500000  0.56735850  0.96898450  1
  Ni  Ni0_0  1  0.37500000  0.16713950  0.13252000  1
  Ni  Ni0_1  1  0.37500000  0.16713950  0.63252000  1
  Ni  Ni0_2  1  0.37500000  0.66713950  0.13252000  1
  Ni  Ni0_3  1  0.37500000  0.66713950  0.63252000  1
  Ni  Ni0_4  1  0.87500000  0.16713950  0.13252000  1
  Ni  Ni0_5  1  0.87500000  0.16713950  0.63252000  1
  Ni  Ni0_6  1  0.87500000  0.66713950  0.13252000  1
  Ni  Ni0_7  1  0.87500000  0.66713950  0.63252000  1
  Ni  Ni1_0  1  0.37500000  0.41713950  0.11748000  1
  Ni  Ni1_1  1  0.37500000  0.41713950  0.61748000  1
  Ni  Ni1_2  1  0.37500000  0.91713950  0.11748000  1
  Ni  Ni1_3  1  0.37500000  0.91713950  0.61748000  1
  Ni  Ni1_4  1  0.87500000  0.41713950  0.11748000  1
  Ni  Ni1_5  1  0.87500000  0.41713950  0.61748000  1
  Ni  Ni1_6  1  0.87500000  0.91713950  0.11748000  1
  Ni  Ni1_7  1  0.87500000  0.91713950  0.61748000  1
  Ni  Ni2_0  1  0.12500000  0.33286050  0.36748000  1
  Ni  Ni2_1  1  0.12500000  0.33286050  0.86748000  1
  Ni  Ni2_2  1  0.12500000  0.83286050  0.36748000  1
  Ni  Ni2_3  1  0.12500000  0.83286050  0.86748000  1
  Ni  Ni2_4  1  0.62500000  0.33286050  0.36748000  1
  Ni  Ni2_5  1  0.62500000  0.33286050  0.86748000  1
  Ni  Ni2_6  1  0.62500000  0.83286050  0.36748000  1
  Ni  Ni2_7  1  0.62500000  0.83286050  0.86748000  1
  Ni  Ni3_0  1  0.12500000  0.08286050  0.38252000  1
  Ni  Ni3_1  1  0.12500000  0.08286050  0.88252000  1
  Ni  Ni3_2  1  0.12500000  0.58286050  0.38252000  1
  Ni  Ni3_3  1  0.12500000  0.58286050  0.88252000  1
  Ni  Ni3_4  1  0.62500000  0.08286050  0.38252000  1
  Ni  Ni3_5  1  0.62500000  0.08286050  0.88252000  1
  Ni  Ni3_6  1  0.62500000  0.58286050  0.38252000  1
  Ni  Ni3_7  1  0.62500000  0.58286050  0.88252000  1
  S  S0_0  1  0.37500000  0.08216500  0.25993800  1
  S  S0_1  1  0.37500000  0.08216500  0.75993800  1
  S  S0_2  1  0.37500000  0.58216500  0.25993800  1
  S  S0_3  1  0.37500000  0.58216500  0.75993800  1
  S  S0_4  1  0.87500000  0.08216500  0.25993800  1
  S  S0_5  1  0.87500000  0.08216500  0.75993800  1
  S  S0_6  1  0.87500000  0.58216500  0.25993800  1
  S  S0_7  1  0.87500000  0.58216500  0.75993800  1
  S  S1_0  1  0.37500000  0.33216500  0.49006200  1
  S  S1_1  1  0.37500000  0.33216500  0.99006200  1
  S  S1_2  1  0.37500000  0.83216500  0.49006200  1
  S  S1_3  1  0.37500000  0.83216500  0.99006200  1
  S  S1_4  1  0.87500000  0.33216500  0.49006200  1
  S  S1_5  1  0.87500000  0.33216500  0.99006200  1
  S  S1_6  1  0.87500000  0.83216500  0.49006200  1
  S  S1_7  1  0.87500000  0.83216500  0.99006200  1
  S  S2_0  1  0.12500000  0.41783500  0.24006200  1
  S  S2_1  1  0.12500000  0.41783500  0.74006200  1
  S  S2_2  1  0.12500000  0.91783500  0.24006200  1
  S  S2_3  1  0.12500000  0.91783500  0.74006200  1
  S  S2_4  1  0.62500000  0.41783500  0.24006200  1
  S  S2_5  1  0.62500000  0.41783500  0.74006200  1
  S  S2_6  1  0.62500000  0.91783500  0.24006200  1
  S  S2_7  1  0.62500000  0.91783500  0.74006200  1
  S  S3_0  1  0.12500000  0.16783500  0.00993800  1
  S  S3_1  1  0.12500000  0.16783500  0.50993800  1
  S  S3_2  1  0.12500000  0.66783500  0.00993800  1
  S  S3_3  1  0.12500000  0.66783500  0.50993800  1
  S  S3_4  1  0.62500000  0.16783500  0.00993800  1
  S  S3_5  1  0.62500000  0.16783500  0.50993800  1
  S  S3_6  1  0.62500000  0.66783500  0.00993800  1
  S  S3_7  1  0.62500000  0.66783500  0.50993800  1
  S  S4_0  1  0.37500000  0.11846100  0.41836600  1
  S  S4_1  1  0.37500000  0.11846100  0.91836600  1
  S  S4_2  1  0.37500000  0.61846100  0.41836600  1
  S  S4_3  1  0.37500000  0.61846100  0.91836600  1
  S  S4_4  1  0.87500000  0.11846100  0.41836600  1
  S  S4_5  1  0.87500000  0.11846100  0.91836600  1
  S  S4_6  1  0.87500000  0.61846100  0.41836600  1
  S  S4_7  1  0.87500000  0.61846100  0.91836600  1
  S  S5_0  1  0.37500000  0.36846100  0.33163400  1
  S  S5_1  1  0.37500000  0.36846100  0.83163400  1
  S  S5_2  1  0.37500000  0.86846100  0.33163400  1
  S  S5_3  1  0.37500000  0.86846100  0.83163400  1
  S  S5_4  1  0.87500000  0.36846100  0.33163400  1
  S  S5_5  1  0.87500000  0.36846100  0.83163400  1
  S  S5_6  1  0.87500000  0.86846100  0.33163400  1
  S  S5_7  1  0.87500000  0.86846100  0.83163400  1
  S  S6_0  1  0.12500000  0.38153900  0.08163400  1
  S  S6_1  1  0.12500000  0.38153900  0.58163400  1
  S  S6_2  1  0.12500000  0.88153900  0.08163400  1
  S  S6_3  1  0.12500000  0.88153900  0.58163400  1
  S  S6_4  1  0.62500000  0.38153900  0.08163400  1
  S  S6_5  1  0.62500000  0.38153900  0.58163400  1
  S  S6_6  1  0.62500000  0.88153900  0.08163400  1
  S  S6_7  1  0.62500000  0.88153900  0.58163400  1
  S  S7_0  1  0.12500000  0.13153900  0.16836600  1
  S  S7_1  1  0.12500000  0.13153900  0.66836600  1
  S  S7_2  1  0.12500000  0.63153900  0.16836600  1
  S  S7_3  1  0.12500000  0.63153900  0.66836600  1
  S  S7_4  1  0.62500000  0.13153900  0.16836600  1
  S  S7_5  1  0.62500000  0.13153900  0.66836600  1
  S  S7_6  1  0.62500000  0.63153900  0.16836600  1
  S  S7_7  1  0.62500000  0.63153900  0.66836600  1
  S  S8_0  1  0.37500000  0.23152050  0.29331400  1
  S  S8_1  1  0.37500000  0.23152050  0.79331400  1
  S  S8_2  1  0.37500000  0.73152050  0.29331400  1
  S  S8_3  1  0.37500000  0.73152050  0.79331400  1
  S  S8_4  1  0.87500000  0.23152050  0.29331400  1
  S  S8_5  1  0.87500000  0.23152050  0.79331400  1
  S  S8_6  1  0.87500000  0.73152050  0.29331400  1
  S  S8_7  1  0.87500000  0.73152050  0.79331400  1
  S  S9_0  1  0.37500000  0.48152050  0.45668600  1
  S  S9_1  1  0.37500000  0.48152050  0.95668600  1
  S  S9_2  1  0.37500000  0.98152050  0.45668600  1
  S  S9_3  1  0.37500000  0.98152050  0.95668600  1
  S  S9_4  1  0.87500000  0.48152050  0.45668600  1
  S  S9_5  1  0.87500000  0.48152050  0.95668600  1
  S  S9_6  1  0.87500000  0.98152050  0.45668600  1
  S  S9_7  1  0.87500000  0.98152050  0.95668600  1
  S  S10_0  1  0.12500000  0.26847950  0.20668600  1
  S  S10_1  1  0.12500000  0.26847950  0.70668600  1
  S  S10_2  1  0.12500000  0.76847950  0.20668600  1
  S  S10_3  1  0.12500000  0.76847950  0.70668600  1
  S  S10_4  1  0.62500000  0.26847950  0.20668600  1
  S  S10_5  1  0.62500000  0.26847950  0.70668600  1
  S  S10_6  1  0.62500000  0.76847950  0.20668600  1
  S  S10_7  1  0.62500000  0.76847950  0.70668600  1
  S  S11_0  1  0.12500000  0.01847950  0.04331400  1
  S  S11_1  1  0.12500000  0.01847950  0.54331400  1
  S  S11_2  1  0.12500000  0.51847950  0.04331400  1
  S  S11_3  1  0.12500000  0.51847950  0.54331400  1
  S  S11_4  1  0.62500000  0.01847950  0.04331400  1
  S  S11_5  1  0.62500000  0.01847950  0.54331400  1
  S  S11_6  1  0.62500000  0.51847950  0.04331400  1
  S  S11_7  1  0.62500000  0.51847950  0.54331400  1
  S  S12_0  1  0.37500000  0.24913750  0.09258250  1
  S  S12_1  1  0.37500000  0.24913750  0.59258250  1
  S  S12_2  1  0.37500000  0.74913750  0.09258250  1
  S  S12_3  1  0.37500000  0.74913750  0.59258250  1
  S  S12_4  1  0.87500000  0.24913750  0.09258250  1
  S  S12_5  1  0.87500000  0.24913750  0.59258250  1
  S  S12_6  1  0.87500000  0.74913750  0.09258250  1
  S  S12_7  1  0.87500000  0.74913750  0.59258250  1
  S  S13_0  1  0.37500000  0.49913750  0.15741750  1
  S  S13_1  1  0.37500000  0.49913750  0.65741750  1
  S  S13_2  1  0.37500000  0.99913750  0.15741750  1
  S  S13_3  1  0.37500000  0.99913750  0.65741750  1
  S  S13_4  1  0.87500000  0.49913750  0.15741750  1
  S  S13_5  1  0.87500000  0.49913750  0.65741750  1
  S  S13_6  1  0.87500000  0.99913750  0.15741750  1
  S  S13_7  1  0.87500000  0.99913750  0.65741750  1
  S  S14_0  1  0.12500000  0.25086250  0.40741750  1
  S  S14_1  1  0.12500000  0.25086250  0.90741750  1
  S  S14_2  1  0.12500000  0.75086250  0.40741750  1
  S  S14_3  1  0.12500000  0.75086250  0.90741750  1
  S  S14_4  1  0.62500000  0.25086250  0.40741750  1
  S  S14_5  1  0.62500000  0.25086250  0.90741750  1
  S  S14_6  1  0.62500000  0.75086250  0.40741750  1
  S  S14_7  1  0.62500000  0.75086250  0.90741750  1
  S  S15_0  1  0.12500000  0.00086250  0.34258250  1
  S  S15_1  1  0.12500000  0.00086250  0.84258250  1
  S  S15_2  1  0.12500000  0.50086250  0.34258250  1
  S  S15_3  1  0.12500000  0.50086250  0.84258250  1
  S  S15_4  1  0.62500000  0.00086250  0.34258250  1
  S  S15_5  1  0.62500000  0.00086250  0.84258250  1
  S  S15_6  1  0.62500000  0.50086250  0.34258250  1
  S  S15_7  1  0.62500000  0.50086250  0.84258250  1
loop_
_geom_bond_atom_site_label_1
_geom_bond_atom_site_label_2
_geom_bond_distance
_geom_bond_site_symmetry_2
Nb0_0 S14_0 2.454032 1_555
Nb0_0 S14_4 2.454032 1_555
Nb0_0 S1_0 2.459172 1_555
Nb0_0 S3_5 2.543820 1_555
Nb0_0 S3_1 2.543820 1_555
Nb0_0 S4_0 2.543998 1_555
Nb0_1 S14_1 2.454032 1_555
Nb0_1 S14_5 2.454032 1_555
Nb0_1 S1_1 2.459172 1_555
Nb0_1 S3_0 2.543820 1_556
Nb0_1 S3_4 2.543820 1_556
Nb0_1 S4_1 2.543998 1_555
Nb0_2 S14_2 2.454032 1_555
Nb0_2 S14_6 2.454032 1_555
Nb0_2 S1_2 2.459172 1_555
Nb0_2 S3_3 2.543820 1_555
Nb0_2 S3_7 2.543820 1_555
Nb0_2 S4_2 2.543998 1_555
Nb0_3 S14_7 2.454032 1_555
Nb0_3 S14_3 2.454032 1_555
Nb0_3 S1_3 2.459172 1_555
Nb0_3 S3_2 2.543820 1_556
Nb0_3 S3_6 2.543820 1_556
Nb0_3 S4_3 2.543998 1_555
Nb0_4 S14_0 2.454032 1_655
Nb0_4 S14_4 2.454032 1_555
Nb0_4 S1_4 2.459172 1_555
Nb0_4 S3_1 2.543820 1_655
Nb0_4 S3_5 2.543820 1_555
Nb0_4 S4_4 2.543998 1_555
Nb0_5 S14_1 2.454032 1_655
Nb0_5 S14_5 2.454032 1_555
Nb0_5 S1_5 2.459172 1_555
Nb0_5 S3_0 2.543820 1_656
Nb0_5 S3_4 2.543820 1_556
Nb0_5 S4_5 2.543998 1_555
Nb0_6 S14_2 2.454032 1_655
Nb0_6 S14_6 2.454032 1_555
Nb0_6 S1_6 2.459172 1_555
Nb0_6 S3_3 2.543820 1_655
Nb0_6 S3_7 2.543820 1_555
Nb0_6 S4_6 2.543998 1_555
Nb0_7 S14_3 2.454032 1_655
Nb0_7 S14_7 2.454032 1_555
Nb0_7 S1_7 2.459172 1_555
Nb0_7 S3_2 2.543820 1_656
Nb0_7 S3_6 2.543820 1_556
Nb0_7 S4_7 2.543998 1_555
Nb1_0 S15_6 2.454032 1_555
Nb1_0 S15_2 2.454032 1_555
Nb1_0 S0_2 2.459172 1_555
Nb1_0 S2_0 2.543820 1_555
Nb1_0 S2_4 2.543820 1_555
Nb1_0 S5_0 2.543998 1_555
Nb1_1 S15_7 2.454032 1_555
Nb1_1 S15_3 2.454032 1_555
Nb1_1 S0_3 2.459172 1_555
Nb1_1 S2_1 2.543820 1_555
Nb1_1 S2_5 2.543820 1_555
Nb1_1 S5_1 2.543998 1_555
Nb1_2 S15_0 2.454032 1_565
Nb1_2 S15_4 2.454032 1_565
Nb1_2 S0_0 2.459172 1_565
Nb1_2 S2_2 2.543820 1_555
Nb1_2 S2_6 2.543820 1_555
Nb1_2 S5_2 2.543998 1_555
Nb1_3 S15_5 2.454032 1_565
Nb1_3 S15_1 2.454032 1_565
Nb1_3 S0_1 2.459172 1_565
Nb1_3 S2_7 2.543820 1_555
Nb1_3 S2_3 2.543820 1_555
Nb1_3 S5_3 2.543998 1_555
Nb1_4 S15_2 2.454032 1_655
Nb1_4 S15_6 2.454032 1_555
Nb1_4 S0_6 2.459172 1_555
Nb1_4 S2_0 2.543820 1_655
Nb1_4 S2_4 2.543820 1_555
Nb1_4 S5_4 2.543998 1_555
Nb1_5 S15_3 2.454032 1_655
Nb1_5 S15_7 2.454032 1_555
Nb1_5 S0_7 2.459172 1_555
Nb1_5 S2_1 2.543820 1_655
Nb1_5 S2_5 2.543820 1_555
Nb1_5 S5_5 2.543998 1_555
Nb1_6 S15_0 2.454032 1_665
Nb1_6 S15_4 2.454032 1_565
Nb1_6 S0_4 2.459172 1_565
Nb1_6 S2_2 2.543820 1_655
Nb1_6 S2_6 2.543820 1_555
Nb1_6 S5_6 2.543998 1_555
Nb1_7 S15_1 2.454032 1_665
Nb1_7 S15_5 2.454032 1_565
Nb1_7 S0_5 2.459172 1_565
Nb1_7 S2_3 2.543820 1_655
Nb1_7 S2_7 2.543820 1_555
Nb1_7 S5_7 2.543998 1_555
Nb2_0 S12_4 2.454032 1_455
Nb2_0 S12_0 2.454032 1_555
Nb2_0 S3_0 2.459172 1_555
Nb2_0 S1_1 2.543820 1_554
Nb2_0 S1_5 2.543820 1_454
Nb2_0 S6_0 2.543998 1_555
Nb2_1 S12_5 2.454032 1_455
Nb2_1 S12_1 2.454032 1_555
Nb2_1 S3_1 2.459172 1_555
Nb2_1 S1_4 2.543820 1_455
Nb2_1 S1_0 2.543820 1_555
Nb2_1 S6_1 2.543998 1_555
Nb2_2 S12_6 2.454032 1_455
Nb2_2 S12_2 2.454032 1_555
Nb2_2 S3_2 2.459172 1_555
Nb2_2 S1_7 2.543820 1_454
Nb2_2 S1_3 2.543820 1_554
Nb2_2 S6_2 2.543998 1_555
Nb2_3 S12_7 2.454032 1_455
Nb2_3 S12_3 2.454032 1_555
Nb2_3 S3_3 2.459172 1_555
Nb2_3 S1_6 2.543820 1_455
Nb2_3 S1_2 2.543820 1_555
Nb2_3 S6_3 2.543998 1_555
Nb2_4 S12_0 2.454032 1_555
Nb2_4 S12_4 2.454032 1_555
Nb2_4 S3_4 2.459172 1_555
Nb2_4 S1_1 2.543820 1_554
Nb2_4 S1_5 2.543820 1_554
Nb2_4 S6_4 2.543998 1_555
Nb2_5 S12_1 2.454032 1_555
Nb2_5 S12_5 2.454032 1_555
Nb2_5 S3_5 2.459172 1_555
Nb2_5 S1_0 2.543820 1_555
Nb2_5 S1_4 2.543820 1_555
Nb2_5 S6_5 2.543998 1_555
Nb2_6 S12_2 2.454032 1_555
Nb2_6 S12_6 2.454032 1_555
Nb2_6 S3_6 2.459172 1_555
Nb2_6 S1_3 2.543820 1_554
Nb2_6 S1_7 2.543820 1_554
Nb2_6 S6_6 2.543998 1_555
Nb2_7 S12_3 2.454032 1_555
Nb2_7 S12_7 2.454032 1_555
Nb2_7 S3_7 2.459172 1_555
Nb2_7 S1_2 2.543820 1_555
Nb2_7 S1_6 2.543820 1_555
Nb2_7 S6_7 2.543998 1_555
Nb3_0 S13_6 2.454032 1_445
Nb3_0 S13_2 2.454032 1_545
Nb3_0 S2_2 2.459172 1_545
Nb3_0 S0_4 2.543820 1_455
Nb3_0 S0_0 2.543820 1_555
Nb3_0 S7_0 2.543998 1_555
Nb3_1 S13_7 2.454032 1_445
Nb3_1 S13_3 2.454032 1_545
Nb3_1 S2_3 2.459172 1_545
Nb3_1 S0_5 2.543820 1_455
Nb3_1 S0_1 2.543820 1_555
Nb3_1 S7_1 2.543998 1_555
Nb3_2 S13_4 2.454032 1_455
Nb3_2 S13_0 2.454032 1_555
Nb3_2 S2_0 2.459172 1_555
Nb3_2 S0_6 2.543820 1_455
Nb3_2 S0_2 2.543820 1_555
Nb3_2 S7_2 2.543998 1_555
Nb3_3 S13_5 2.454032 1_455
Nb3_3 S13_1 2.454032 1_555
Nb3_3 S2_1 2.459172 1_555
Nb3_3 S0_7 2.543820 1_455
Nb3_3 S0_3 2.543820 1_555
Nb3_3 S7_3 2.543998 1_555
Nb3_4 S13_2 2.454032 1_545
Nb3_4 S13_6 2.454032 1_545
Nb3_4 S2_6 2.459172 1_545
Nb3_4 S0_0 2.543820 1_555
Nb3_4 S0_4 2.543820 1_555
Nb3_4 S7_4 2.543998 1_555
Nb3_5 S13_3 2.454032 1_545
Nb3_5 S13_7 2.454032 1_545
Nb3_5 S2_7 2.459172 1_545
Nb3_5 S0_1 2.543820 1_555
Nb3_5 S0_5 2.543820 1_555
Nb3_5 S7_5 2.543998 1_555
Nb3_6 S13_0 2.454032 1_555
Nb3_6 S13_4 2.454032 1_555
Nb3_6 S2_4 2.459172 1_555
Nb3_6 S0_2 2.543820 1_555
Nb3_6 S0_6 2.543820 1_555
Nb3_6 S7_6 2.543998 1_555
Nb3_7 S13_1 2.454032 1_555
Nb3_7 S13_5 2.454032 1_555
Nb3_7 S2_5 2.459172 1_555
Nb3_7 S0_3 2.543820 1_555
Nb3_7 S0_7 2.543820 1_555
Nb3_7 S7_7 2.543998 1_555
Nb4_0 S0_0 2.453727 1_555
Nb4_0 S10_0 2.487270 1_555
Nb4_0 S10_4 2.487270 1_555
Nb4_0 S8_0 2.540146 1_555
Nb4_0 S7_0 2.547197 1_555
Nb4_0 S7_4 2.547197 1_555
Nb4_0 Ni0_0 2.726502 1_555
Nb4_1 S0_1 2.453727 1_555
Nb4_1 S10_1 2.487270 1_555
Nb4_1 S10_5 2.487270 1_555
Nb4_1 S8_1 2.540146 1_555
Nb4_1 S7_1 2.547197 1_555
Nb4_1 S7_5 2.547197 1_555
Nb4_1 Ni0_1 2.726502 1_555
Nb4_2 S0_2 2.453727 1_555
Nb4_2 S10_6 2.487270 1_555
Nb4_2 S10_2 2.487270 1_555
Nb4_2 S8_2 2.540146 1_555
Nb4_2 S7_2 2.547197 1_555
Nb4_2 S7_6 2.547197 1_555
Nb4_2 Ni0_2 2.726502 1_555
Nb4_3 S0_3 2.453727 1_555
Nb4_3 S10_3 2.487270 1_555
Nb4_3 S10_7 2.487270 1_555
Nb4_3 S8_3 2.540146 1_555
Nb4_3 S7_7 2.547197 1_555
Nb4_3 S7_3 2.547197 1_555
Nb4_3 Ni0_3 2.726502 1_555
Nb4_4 S0_4 2.453727 1_555
Nb4_4 S10_0 2.487270 1_655
Nb4_4 S10_4 2.487270 1_555
Nb4_4 S8_4 2.540146 1_555
Nb4_4 S7_0 2.547197 1_655
Nb4_4 S7_4 2.547197 1_555
Nb4_4 Ni0_4 2.726502 1_555
Nb4_5 S0_5 2.453727 1_555
Nb4_5 S10_1 2.487270 1_655
Nb4_5 S10_5 2.487270 1_555
Nb4_5 S8_5 2.540146 1_555
Nb4_5 S7_1 2.547197 1_655
Nb4_5 S7_5 2.547197 1_555
Nb4_5 Ni0_5 2.726502 1_555
Nb4_6 S0_6 2.453727 1_555
Nb4_6 S10_2 2.487270 1_655
Nb4_6 S10_6 2.487270 1_555
Nb4_6 S8_6 2.540146 1_555
Nb4_6 S7_2 2.547197 1_655
Nb4_6 S7_6 2.547197 1_555
Nb4_6 Ni0_6 2.726502 1_555
Nb4_7 S0_7 2.453727 1_555
Nb4_7 S10_3 2.487270 1_655
Nb4_7 S10_7 2.487270 1_555
Nb4_7 S8_7 2.540146 1_555
Nb4_7 S7_3 2.547197 1_655
Nb4_7 S7_7 2.547197 1_555
Nb4_7 Ni0_7 2.726502 1_555
Nb5_0 S1_1 2.453727 1_554
Nb5_0 S11_2 2.487270 1_555
Nb5_0 S11_6 2.487270 1_555
Nb5_0 S9_1 2.540146 1_554
Nb5_0 S6_0 2.547197 1_555
Nb5_0 S6_4 2.547197 1_555
Nb5_0 Ni1_0 2.726502 1_555
Nb5_1 S1_0 2.453727 1_555
Nb5_1 S11_3 2.487270 1_555
Nb5_1 S11_7 2.487270 1_555
Nb5_1 S9_0 2.540146 1_555
Nb5_1 S6_1 2.547197 1_555
Nb5_1 S6_5 2.547197 1_555
Nb5_1 Ni1_1 2.726502 1_555
Nb5_2 S1_3 2.453727 1_554
Nb5_2 S11_0 2.487270 1_565
Nb5_2 S11_4 2.487270 1_565
Nb5_2 S9_3 2.540146 1_554
Nb5_2 S6_2 2.547197 1_555
Nb5_2 S6_6 2.547197 1_555
Nb5_2 Ni1_2 2.726502 1_555
Nb5_3 S1_2 2.453727 1_555
Nb5_3 S11_1 2.487270 1_565
Nb5_3 S11_5 2.487270 1_565
Nb5_3 S9_2 2.540146 1_555
Nb5_3 S6_3 2.547197 1_555
Nb5_3 S6_7 2.547197 1_555
Nb5_3 Ni1_3 2.726502 1_555
Nb5_4 S1_5 2.453727 1_554
Nb5_4 S11_2 2.487270 1_655
Nb5_4 S11_6 2.487270 1_555
Nb5_4 S9_5 2.540146 1_554
Nb5_4 S6_0 2.547197 1_655
Nb5_4 S6_4 2.547197 1_555
Nb5_4 Ni1_4 2.726502 1_555
Nb5_5 S1_4 2.453727 1_555
Nb5_5 S11_3 2.487270 1_655
Nb5_5 S11_7 2.487270 1_555
Nb5_5 S9_4 2.540146 1_555
Nb5_5 S6_1 2.547197 1_655
Nb5_5 S6_5 2.547197 1_555
Nb5_5 Ni1_5 2.726502 1_555
Nb5_6 S1_7 2.453727 1_554
Nb5_6 S11_0 2.487270 1_665
Nb5_6 S11_4 2.487270 1_565
Nb5_6 S9_7 2.540146 1_554
Nb5_6 S6_2 2.547197 1_655
Nb5_6 S6_6 2.547197 1_555
Nb5_6 Ni1_6 2.726502 1_555
Nb5_7 S1_6 2.453727 1_555
Nb5_7 S11_1 2.487270 1_665
Nb5_7 S11_5 2.487270 1_565
Nb5_7 S9_6 2.540146 1_555
Nb5_7 S6_3 2.547197 1_655
Nb5_7 S6_7 2.547197 1_555
Nb5_7 Ni1_7 2.726502 1_555
Nb6_0 S2_0 2.453727 1_555
Nb6_0 S8_4 2.487270 1_455
Nb6_0 S8_0 2.487270 1_555
Nb6_0 S10_0 2.540146 1_555
Nb6_0 S5_4 2.547197 1_455
Nb6_0 S5_0 2.547197 1_555
Nb6_0 Ni2_0 2.726502 1_555
Nb6_1 S2_1 2.453727 1_555
Nb6_1 S8_5 2.487270 1_455
Nb6_1 S8_1 2.487270 1_555
Nb6_1 S10_1 2.540146 1_555
Nb6_1 S5_5 2.547197 1_455
Nb6_1 S5_1 2.547197 1_555
Nb6_1 Ni2_1 2.726502 1_555
Nb6_2 S2_2 2.453727 1_555
Nb6_2 S8_6 2.487270 1_455
Nb6_2 S8_2 2.487270 1_555
Nb6_2 S10_2 2.540146 1_555
Nb6_2 S5_6 2.547197 1_455
Nb6_2 S5_2 2.547197 1_555
Nb6_2 Ni2_2 2.726502 1_555
Nb6_3 S2_3 2.453727 1_555
Nb6_3 S8_7 2.487270 1_455
Nb6_3 S8_3 2.487270 1_555
Nb6_3 S10_3 2.540146 1_555
Nb6_3 S5_7 2.547197 1_455
Nb6_3 S5_3 2.547197 1_555
Nb6_3 Ni2_3 2.726502 1_555
Nb6_4 S2_4 2.453727 1_555
Nb6_4 S8_0 2.487270 1_555
Nb6_4 S8_4 2.487270 1_555
Nb6_4 S10_4 2.540146 1_555
Nb6_4 S5_0 2.547197 1_555
Nb6_4 S5_4 2.547197 1_555
Nb6_4 Ni2_4 2.726502 1_555
Nb6_5 S2_5 2.453727 1_555
Nb6_5 S8_1 2.487270 1_555
Nb6_5 S8_5 2.487270 1_555
Nb6_5 S10_5 2.540146 1_555
Nb6_5 S5_1 2.547197 1_555
Nb6_5 S5_5 2.547197 1_555
Nb6_5 Ni2_5 2.726502 1_555
Nb6_6 S2_6 2.453727 1_555
Nb6_6 S8_2 2.487270 1_555
Nb6_6 S8_6 2.487270 1_555
Nb6_6 S10_6 2.540146 1_555
Nb6_6 S5_2 2.547197 1_555
Nb6_6 S5_6 2.547197 1_555
Nb6_6 Ni2_6 2.726502 1_555
Nb6_7 S2_7 2.453727 1_555
Nb6_7 S8_3 2.487270 1_555
Nb6_7 S8_7 2.487270 1_555
Nb6_7 S10_7 2.540146 1_555
Nb6_7 S5_3 2.547197 1_555
Nb6_7 S5_7 2.547197 1_555
Nb6_7 Ni2_7 2.726502 1_555
Nb7_0 S3_1 2.453727 1_555
Nb7_0 S9_6 2.487270 1_445
Nb7_0 S9_2 2.487270 1_545
Nb7_0 S11_1 2.540146 1_555
Nb7_0 S4_4 2.547197 1_455
Nb7_0 S4_0 2.547197 1_555
Nb7_0 Ni3_0 2.726502 1_555
Nb7_1 S3_0 2.453727 1_556
Nb7_1 S9_7 2.487270 1_445
Nb7_1 S9_3 2.487270 1_545
Nb7_1 S11_0 2.540146 1_556
Nb7_1 S4_5 2.547197 1_455
Nb7_1 S4_1 2.547197 1_555
Nb7_1 Ni3_1 2.726502 1_555
Nb7_2 S3_3 2.453727 1_555
Nb7_2 S9_4 2.487270 1_455
Nb7_2 S9_0 2.487270 1_555
Nb7_2 S11_3 2.540146 1_555
Nb7_2 S4_6 2.547197 1_455
Nb7_2 S4_2 2.547197 1_555
Nb7_2 Ni3_2 2.726502 1_555
Nb7_3 S3_2 2.453727 1_556
Nb7_3 S9_5 2.487270 1_455
Nb7_3 S9_1 2.487270 1_555
Nb7_3 S11_2 2.540146 1_556
Nb7_3 S4_7 2.547197 1_455
Nb7_3 S4_3 2.547197 1_555
Nb7_3 Ni3_3 2.726502 1_555
Nb7_4 S3_5 2.453727 1_555
Nb7_4 S9_6 2.487270 1_545
Nb7_4 S9_2 2.487270 1_545
Nb7_4 S11_5 2.540146 1_555
Nb7_4 S4_0 2.547197 1_555
Nb7_4 S4_4 2.547197 1_555
Nb7_4 Ni3_4 2.726502 1_555
Nb7_5 S3_4 2.453727 1_556
Nb7_5 S9_3 2.487270 1_545
Nb7_5 S9_7 2.487270 1_545
Nb7_5 S11_4 2.540146 1_556
Nb7_5 S4_1 2.547197 1_555
Nb7_5 S4_5 2.547197 1_555
Nb7_5 Ni3_5 2.726502 1_555
Nb7_6 S3_7 2.453727 1_555
Nb7_6 S9_0 2.487270 1_555
Nb7_6 S9_4 2.487270 1_555
Nb7_6 S11_7 2.540146 1_555
Nb7_6 S4_2 2.547197 1_555
Nb7_6 S4_6 2.547197 1_555
Nb7_6 Ni3_6 2.726502 1_555
Nb7_7 S3_6 2.453727 1_556
Nb7_7 S9_1 2.487270 1_555
Nb7_7 S9_5 2.487270 1_555
Nb7_7 S11_6 2.540146 1_556
Nb7_7 S4_3 2.547197 1_555
Nb7_7 S4_7 2.547197 1_555
Nb7_7 Ni3_7 2.726502 1_555
Ni0_0 S12_0 2.116245 1_555
Ni0_0 S7_0 2.157146 1_555
Ni0_0 S7_4 2.157146 1_555
Ni0_1 S12_1 2.116245 1_555
Ni0_1 S7_5 2.157146 1_555
Ni0_1 S7_1 2.157146 1_555
Ni0_2 S12_2 2.116245 1_555
Ni0_2 S7_6 2.157146 1_555
Ni0_2 S7_2 2.157146 1_555
Ni0_3 S12_3 2.116245 1_555
Ni0_3 S7_3 2.157146 1_555
Ni0_3 S7_7 2.157146 1_555
Ni0_4 S12_4 2.116245 1_555
Ni0_4 S7_0 2.157146 1_655
Ni0_4 S7_4 2.157146 1_555
Ni0_5 S12_5 2.116245 1_555
Ni0_5 S7_1 2.157146 1_655
Ni0_5 S7_5 2.157146 1_555
Ni0_6 S12_6 2.116245 1_555
Ni0_6 S7_2 2.157146 1_655
Ni0_6 S7_6 2.157146 1_555
Ni0_7 S12_7 2.116245 1_555
Ni0_7 S7_3 2.157146 1_655
Ni0_7 S7_7 2.157146 1_555
Ni1_0 S13_0 2.116245 1_555
Ni1_0 S6_4 2.157146 1_555
Ni1_0 S6_0 2.157146 1_555
Ni1_1 S13_1 2.116245 1_555
Ni1_1 S6_1 2.157146 1_555
Ni1_1 S6_5 2.157146 1_555
Ni1_2 S13_2 2.116245 1_555
Ni1_2 S6_2 2.157146 1_555
Ni1_2 S6_6 2.157146 1_555
Ni1_3 S13_3 2.116245 1_555
Ni1_3 S6_3 2.157146 1_555
Ni1_3 S6_7 2.157146 1_555
Ni1_4 S13_4 2.116245 1_555
Ni1_4 S6_0 2.157146 1_655
Ni1_4 S6_4 2.157146 1_555
Ni1_5 S13_5 2.116245 1_555
Ni1_5 S6_1 2.157146 1_655
Ni1_5 S6_5 2.157146 1_555
Ni1_6 S13_6 2.116245 1_555
Ni1_6 S6_2 2.157146 1_655
Ni1_6 S6_6 2.157146 1_555
Ni1_7 S13_7 2.116245 1_555
Ni1_7 S6_3 2.157146 1_655
Ni1_7 S6_7 2.157146 1_555
Ni2_0 S14_0 2.116245 1_555
Ni2_0 S5_4 2.157146 1_455
Ni2_0 S5_0 2.157146 1_555
Ni2_1 S14_1 2.116245 1_555
Ni2_1 S5_5 2.157146 1_455
Ni2_1 S5_1 2.157146 1_555
Ni2_2 S14_2 2.116245 1_555
Ni2_2 S5_6 2.157146 1_455
Ni2_2 S5_2 2.157146 1_555
Ni2_3 S14_3 2.116245 1_555
Ni2_3 S5_7 2.157146 1_455
Ni2_3 S5_3 2.157146 1_555
Ni2_4 S14_4 2.116245 1_555
Ni2_4 S5_0 2.157146 1_555
Ni2_4 S5_4 2.157146 1_555
Ni2_5 S14_5 2.116245 1_555
Ni2_5 S5_1 2.157146 1_555
Ni2_5 S5_5 2.157146 1_555
Ni2_6 S14_6 2.116245 1_555
Ni2_6 S5_2 2.157146 1_555
Ni2_6 S5_6 2.157146 1_555
Ni2_7 S14_7 2.116245 1_555
Ni2_7 S5_3 2.157146 1_555
Ni2_7 S5_7 2.157146 1_555
Ni3_0 S15_0 2.116245 1_555
Ni3_0 S4_4 2.157146 1_455
Ni3_0 S4_0 2.157146 1_555
Ni3_1 S15_1 2.116245 1_555
Ni3_1 S4_5 2.157146 1_455
Ni3_1 S4_1 2.157146 1_555
Ni3_2 S15_2 2.116245 1_555
Ni3_2 S4_6 2.157146 1_455
Ni3_2 S4_2 2.157146 1_555
Ni3_3 S15_3 2.116245 1_555
Ni3_3 S4_7 2.157146 1_455
Ni3_3 S4_3 2.157146 1_555
Ni3_4 S15_4 2.116245 1_555
Ni3_4 S4_0 2.157146 1_555
Ni3_4 S4_4 2.157146 1_555
Ni3_5 S15_5 2.116245 1_555
Ni3_5 S4_1 2.157146 1_555
Ni3_5 S4_5 2.157146 1_555
Ni3_6 S15_6 2.116245 1_555
Ni3_6 S4_2 2.157146 1_555
Ni3_6 S4_6 2.157146 1_555
Ni3_7 S15_7 2.116245 1_555
Ni3_7 S4_3 2.157146 1_555
Ni3_7 S4_7 2.157146 1_555
S0_0 S8_0 3.280599 1_555
S0_0 S0_4 3.372890 1_455
S0_0 S0_4 3.372890 1_555
S0_1 S8_1 3.280599 1_555
S0_1 S0_5 3.372890 1_455
S0_1 S0_5 3.372890 1_555
S0_2 S8_2 3.280599 1_555
S0_2 S0_6 3.372890 1_455
S0_2 S0_6 3.372890 1_555
S0_3 S8_3 3.280599 1_555
S0_3 S0_7 3.372890 1_455
S0_3 S0_7 3.372890 1_555
S0_4 S8_4 3.280599 1_555
S0_5 S8_5 3.280599 1_555
S0_6 S8_6 3.280599 1_555
S0_7 S8_7 3.280599 1_555
S1_0 S9_0 3.280599 1_555
S1_0 S1_4 3.372890 1_455
S1_0 S1_4 3.372890 1_555
S1_1 S9_1 3.280599 1_555
S1_1 S1_5 3.372890 1_455
S1_1 S1_5 3.372890 1_555
S1_2 S9_2 3.280599 1_555
S1_2 S1_6 3.372890 1_455
S1_2 S1_6 3.372890 1_555
S1_3 S9_3 3.280599 1_555
S1_3 S1_7 3.372890 1_455
S1_3 S1_7 3.372890 1_555
S1_4 S9_4 3.280599 1_555
S1_5 S9_5 3.280599 1_555
S1_6 S9_6 3.280599 1_555
S1_7 S9_7 3.280599 1_555
S2_0 S2_4 3.372890 1_455
S2_0 S2_4 3.372890 1_555
S2_1 S2_5 3.372890 1_455
S2_1 S2_5 3.372890 1_555
S2_2 S2_6 3.372890 1_555
S2_2 S2_6 3.372890 1_455
S2_3 S2_7 3.372890 1_455
S2_3 S2_7 3.372890 1_555
S3_0 S3_4 3.372890 1_555
S3_0 S3_4 3.372890 1_455
S3_1 S3_5 3.372890 1_455
S3_1 S3_5 3.372890 1_555
S3_2 S3_6 3.372890 1_555
S3_2 S3_6 3.372890 1_455
S3_3 S3_7 3.372890 1_555
S3_3 S3_7 3.372890 1_455
S8_0 S8_4 3.372890 1_455
S8_0 S8_4 3.372890 1_555
S8_1 S8_5 3.372890 1_455
S8_1 S8_5 3.372890 1_555
S8_2 S8_6 3.372890 1_455
S8_2 S8_6 3.372890 1_555
S8_3 S8_7 3.372890 1_455
S8_3 S8_7 3.372890 1_555
S9_0 S9_4 3.372890 1_455
S9_0 S9_4 3.372890 1_555
S9_1 S9_5 3.372890 1_455
S9_1 S9_5 3.372890 1_555
S9_2 S9_6 3.372890 1_455
S9_2 S9_6 3.372890 1_555
S9_3 S9_7 3.372890 1_455
S9_3 S9_7 3.372890 1_555
S10_0 S2_0 3.280599 1_555
S10_0 S10_4 3.372890 1_455
S10_0 S10_4 3.372890 1_555
S10_1 S2_1 3.280599 1_555
S10_1 S10_5 3.372890 1_455
S10_1 S10_5 3.372890 1_555
S10_2 S2_2 3.280599 1_555
S10_2 S10_6 3.372890 1_555
S10_2 S10_6 3.372890 1_455
S10_3 S2_3 3.280599 1_555
S10_3 S10_7 3.372890 1_455
S10_3 S10_7 3.372890 1_555
S10_4 S2_4 3.280599 1_555
S10_5 S2_5 3.280599 1_555
S10_6 S2_6 3.280599 1_555
S10_7 S2_7 3.280599 1_555
S11_0 S3_0 3.280599 1_555
S11_0 S11_4 3.372890 1_555
S11_0 S11_4 3.372890 1_455
S11_1 S3_1 3.280599 1_555
S11_1 S11_5 3.372890 1_455
S11_1 S11_5 3.372890 1_555
S11_2 S3_2 3.280599 1_555
S11_2 S11_6 3.372890 1_555
S11_2 S11_6 3.372890 1_455
S11_3 S3_3 3.280599 1_555
S11_3 S11_7 3.372890 1_555
S11_3 S11_7 3.372890 1_455
S11_4 S3_4 3.280599 1_555
S11_5 S3_5 3.280599 1_555
S11_6 S3_6 3.280599 1_555
S11_7 S3_7 3.280599 1_555
