# generated using pymatgen
data_Zr7(Se2N)4
_symmetry_space_group_name_H-M   'P 1'
_cell_length_a   7.78920655
_cell_length_b   12.80838670
_cell_length_c   9.64046485
_cell_angle_alpha   90.77139949
_cell_angle_beta   64.71831767
_cell_angle_gamma   36.95700642
_symmetry_Int_Tables_number   1
_chemical_formula_structural   Zr7(Se2N)4
_chemical_formula_sum   'Zr7 Se8 N4'
_cell_volume   396.21359710
_cell_formula_units_Z   1
loop_
 _symmetry_equiv_pos_site_id
 _symmetry_equiv_pos_as_xyz
  1  'x, y, z'
loop_
 _atom_site_type_symbol
 _atom_site_label
 _atom_site_symmetry_multiplicity
 _atom_site_fract_x
 _atom_site_fract_y
 _atom_site_fract_z
 _atom_site_occupancy
  Zr  Zr0  1  0.00759900  0.07624700  0.00687700  1
  Zr  Zr1  1  0.16331500  0.50104000  0.61103200  1
  Zr  Zr2  1  0.61704200  0.77165400  0.12829900  1
  Zr  Zr3  1  0.29041600  0.60159100  0.25870400  1
  Zr  Zr4  1  0.71477300  0.55274600  0.37390600  1
  Zr  Zr5  1  0.23452400  0.24282900  0.89417100  1
  Zr  Zr6  1  0.83336200  0.32799200  0.73427100  1
  Se  Se0  1  0.03925600  0.74781600  0.07502900  1
  Se  Se1  1  0.62109200  0.62286100  0.68914400  1
  Se  Se2  1  0.50854700  0.16539000  0.05475900  1
  Se  Se3  1  0.94351200  0.23876200  0.40425600  1
  Se  Se4  1  0.50118200  0.12747200  0.52408100  1
  Se  Se5  1  0.01482200  0.77795100  0.62739300  1
  Se  Se6  1  0.42986500  0.34624400  0.78477700  1
  Se  Se7  1  0.52475700  0.84375200  0.46801200  1
  N  N0  1  0.47863800  0.37524800  0.30024000  1
  N  N1  1  0.54141100  0.82232800  0.94743800  1
  N  N2  1  0.90921100  0.26561900  0.93407800  1
  N  N3  1  0.63417500  0.58885700  0.17973200  1
loop_
_geom_bond_atom_site_label_1
_geom_bond_atom_site_label_2
_geom_bond_distance
_geom_bond_site_symmetry_2
Se0 Zr6 2.641687 1_554
Se0 Zr3 2.768179 1_555
Se0 Zr2 2.849741 1_455
Se0 Se1 3.284374 1_554
Se0 Se6 3.297389 1_554
Se0 Se7 3.310555 1_455
Se0 Se2 3.334039 1_465
Se0 Se4 3.364110 1_465
Se0 Se3 3.607245 1_365
Se1 Zr1 2.749426 1_655
Se1 Zr4 2.749513 1_555
Se1 Zr6 2.804620 1_555
Se1 Zr0 2.934254 1_566
Se1 Se4 3.268236 1_655
Se1 Se7 3.353834 1_555
Se1 Se3 3.471654 1_555
Se1 Se2 3.580490 1_466
Se2 Zr4 2.573956 1_455
Se2 Zr5 2.723347 1_554
Se2 Zr0 2.826154 1_655
Se2 Se5 3.383557 1_644
Se2 Se6 3.431003 1_554
Se2 Se3 3.499191 1_455
Se3 Zr2 2.807647 1_645
Se3 Zr6 2.857921 1_555
Se3 Zr4 2.908448 1_555
Se3 Zr1 3.005953 1_555
Se3 Se6 3.144025 1_555
Se3 Se5 3.334337 1_555
Se3 Se7 3.510802 1_645
Se4 Zr6 2.695598 1_455
Se4 Zr5 2.801868 1_555
Se4 Zr1 2.899326 1_555
Se4 Zr3 3.103607 1_645
Se4 Se6 3.256837 1_555
Se4 Se5 3.455313 1_645
Se4 Se7 3.511077 1_545
Se5 Zr1 2.686112 1_555
Se5 Zr4 2.704381 1_555
Se5 Zr5 2.721759 1_465
Se5 Zr3 2.803775 1_555
Se6 Zr5 2.658917 1_555
Se6 Zr2 2.685783 1_456
Se6 Zr1 2.743759 1_555
Se6 Zr6 2.772234 1_555
Se6 Se7 3.603456 1_645
Se7 Zr4 2.617626 1_555
Se7 Zr6 2.905518 1_465
Se7 Zr2 2.990313 1_555
Se7 Zr3 3.041295 1_655
N0 Zr0 2.044215 1_655
N0 Zr3 2.110543 1_555
N0 Zr1 2.205804 1_555
N0 Se3 3.194561 1_555
N0 Se2 3.352148 1_555
N0 Se7 3.471103 1_455
N1 Zr2 2.026111 1_556
N1 Zr0 2.120668 1_566
N1 Zr1 2.298136 1_655
N1 Se1 3.014535 1_555
N1 Se5 3.213338 1_655
N1 Se3 3.418107 1_466
N2 Zr0 2.120757 1_656
N2 Zr5 2.153189 1_655
N2 Zr6 2.226387 1_555
N2 Zr3 2.269108 1_556
N2 Se7 3.451770 1_645
N3 Zr5 2.154556 1_654
N3 Zr4 2.162219 1_555
N3 Zr3 2.309398 1_555
N3 Zr2 2.309530 1_555
N3 Se4 3.681751 1_465
