# generated using pymatgen
data_CoBP(HO3)2
_symmetry_space_group_name_H-M   'P 1'
_cell_length_a   7.96601804
_cell_length_b   7.96601804
_cell_length_c   12.68726400
_cell_angle_alpha   90.00000000
_cell_angle_beta   90.00000000
_cell_angle_gamma   120.00000032
_symmetry_Int_Tables_number   1
_chemical_formula_structural   CoBP(HO3)2
_chemical_formula_sum   'Co6 B6 P6 H12 O36'
_cell_volume   697.23820831
_cell_formula_units_Z   6
loop_
 _symmetry_equiv_pos_site_id
 _symmetry_equiv_pos_as_xyz
  1  'x, y, z'
loop_
 _atom_site_type_symbol
 _atom_site_label
 _atom_site_symmetry_multiplicity
 _atom_site_fract_x
 _atom_site_fract_y
 _atom_site_fract_z
 _atom_site_occupancy
  Co  Co0  1  0.97829900  0.14680200  0.34120700  1
  Co  Co1  1  0.85319800  0.83149700  0.67454100  1
  Co  Co2  1  0.16850300  0.02170100  0.00787400  1
  Co  Co3  1  0.84785600  0.76284700  0.17427400  1
  Co  Co4  1  0.23715300  0.08500900  0.50760800  1
  Co  Co5  1  0.91499100  0.15214400  0.84094100  1
  B  B0  1  0.52676600  0.74461900  0.53483800  1
  B  B1  1  0.25538100  0.78214700  0.86817200  1
  B  B2  1  0.21785300  0.47323400  0.20150500  1
  B  B3  1  0.58336100  0.27426800  0.13231200  1
  B  B4  1  0.72573200  0.30909200  0.46564600  1
  B  B5  1  0.69090800  0.41663900  0.79897900  1
  P  P0  1  0.78389100  0.68688100  0.43055000  1
  P  P1  1  0.31311900  0.09701100  0.76388400  1
  P  P2  1  0.90298900  0.21610900  0.09721700  1
  P  P3  1  0.27945400  0.98728000  0.25850000  1
  P  P4  1  0.01272000  0.29217500  0.59183400  1
  P  P5  1  0.70782500  0.72054600  0.92516700  1
  H  H0  1  0.70904800  0.44387900  0.26375700  1
  H  H1  1  0.55612100  0.26516900  0.59709100  1
  H  H2  1  0.73483100  0.29095200  0.93042400  1
  H  H3  1  0.30907400  0.78764400  0.37111700  1
  H  H4  1  0.21235600  0.52143000  0.70445100  1
  H  H5  1  0.47857000  0.69092600  0.03778400  1
  H  H6  1  0.49210400  0.63048700  0.21789000  1
  H  H7  1  0.36951300  0.86161700  0.55122400  1
  H  H8  1  0.13838300  0.50789600  0.88455700  1
  H  H9  1  0.64652500  0.14157300  0.33235700  1
  H  H10  1  0.85842700  0.50495200  0.66569100  1
  H  H11  1  0.49504800  0.35347500  0.99902400  1
  O  O0  1  0.69349900  0.46380100  0.18800600  1
  O  O1  1  0.53619900  0.22969700  0.52134000  1
  O  O2  1  0.77030300  0.30650100  0.85467300  1
  O  O3  1  0.39235000  0.79358000  0.49376900  1
  O  O4  1  0.20642000  0.59877000  0.82710300  1
  O  O5  1  0.40123000  0.60765000  0.16043600  1
  O  O6  1  0.19232200  0.39351800  0.29538200  1
  O  O7  1  0.60648200  0.79880400  0.62871600  1
  O  O8  1  0.20119600  0.80767800  0.96204900  1
  O  O9  1  0.73592700  0.17293700  0.39226500  1
  O  O10  1  0.82706300  0.56299000  0.72559900  1
  O  O11  1  0.43701000  0.26407300  0.05893200  1
  O  O12  1  0.83527500  0.80930100  0.32869300  1
  O  O13  1  0.19069900  0.02597400  0.66202700  1
  O  O14  1  0.97402600  0.16472500  0.99536000  1
  O  O15  1  0.23573700  0.08116100  0.35135200  1
  O  O16  1  0.91883900  0.15457600  0.68468600  1
  O  O17  1  0.84542400  0.76426300  0.01801900  1
  O  O18  1  0.57285600  0.63754100  0.46153300  1
  O  O19  1  0.36245900  0.93531500  0.79486700  1
  O  O20  1  0.06468500  0.42714400  0.12820000  1
  O  O21  1  0.49194600  0.12151500  0.21629200  1
  O  O22  1  0.87848500  0.37043100  0.54962600  1
  O  O23  1  0.62956900  0.50805400  0.88295900  1
  O  O24  1  0.76609800  0.48659000  0.40118300  1
  O  O25  1  0.51341000  0.27950900  0.73451700  1
  O  O26  1  0.72049100  0.23390200  0.06785000  1
  O  O27  1  0.26730400  0.79418600  0.29685800  1
  O  O28  1  0.20581400  0.47311800  0.63019200  1
  O  O29  1  0.52688200  0.73269600  0.96352500  1
  O  O30  1  0.93262100  0.79246500  0.51783700  1
  O  O31  1  0.20753500  0.14015700  0.85117100  1
  O  O32  1  0.85984300  0.06737900  0.18450400  1
  O  O33  1  0.13835600  0.93940900  0.16665600  1
  O  O34  1  0.06059100  0.19894700  0.49999000  1
  O  O35  1  0.80105300  0.86164400  0.83332300  1
loop_
_geom_bond_atom_site_label_1
_geom_bond_atom_site_label_2
_geom_bond_distance
_geom_bond_site_symmetry_2
Co0 O6 1.938190 1_655
Co0 O34 2.094821 1_655
Co0 O9 2.143057 1_555
Co0 O32 2.155544 1_555
Co0 O12 2.342731 1_545
Co0 O15 2.359645 1_655
Co1 O7 1.938190 1_555
Co1 O35 2.094809 1_555
Co1 O10 2.143057 1_555
Co1 O30 2.155553 1_555
Co1 O13 2.342731 1_665
Co1 O16 2.359645 1_565
Co2 O8 1.938190 1_544
Co2 O33 2.094809 1_545
Co2 O11 2.143056 1_555
Co2 O31 2.155544 1_554
Co2 O14 2.342731 1_454
Co2 O17 2.359645 1_445
Co3 O17 1.982630 1_555
Co3 O12 2.005582 1_555
Co3 O33 2.021868 1_655
Co3 O0 2.070752 1_555
Co3 O32 2.383137 1_565
Co3 H6 2.541857 1_555
Co4 O15 1.982643 1_555
Co4 O13 2.005582 1_555
Co4 O34 2.021868 1_555
Co4 O1 2.070752 1_555
Co4 O30 2.383133 1_445
Co4 H7 2.541857 1_545
Co5 O16 1.982630 1_555
Co5 O14 2.005582 1_555
Co5 O35 2.021868 1_545
Co5 O2 2.070745 1_555
Co5 O31 2.383129 1_655
Co5 H8 2.541857 1_655
B0 O7 1.316843 1_555
B0 O3 1.409881 1_555
B0 O18 1.428474 1_555
B1 O8 1.316831 1_555
B1 O4 1.409881 1_555
B1 O19 1.428474 1_555
B2 O6 1.316831 1_555
B2 O5 1.409881 1_555
B2 O20 1.428474 1_555
B3 O11 1.462132 1_555
B3 O0 1.491294 1_555
B3 O21 1.503364 1_555
B3 O26 1.522113 1_555
B4 O9 1.462134 1_555
B4 O1 1.491294 1_555
B4 O22 1.503363 1_555
B4 O24 1.522133 1_555
B5 O10 1.462129 1_555
B5 O2 1.491294 1_555
B5 O23 1.503369 1_555
B5 O25 1.522122 1_555
H0 O0 0.991890 1_555
H0 O24 1.790998 1_555
H1 O1 0.991892 1_555
H1 O25 1.790999 1_555
H2 O2 0.991892 1_555
H2 O26 1.790997 1_556
H3 O27 1.009161 1_555
H4 O28 1.009161 1_555
H5 O29 1.009161 1_554
H6 O5 0.978153 1_555
H7 O3 0.978163 1_555
H8 O4 0.978153 1_555
H9 O9 0.984576 1_555
H9 O21 1.874425 1_555
H10 O10 0.984576 1_555
H10 O22 1.874425 1_555
H11 O11 0.984576 1_556
H11 O23 1.874425 1_555
O12 P0 1.545766 1_555
O13 P1 1.545766 1_555
O14 P2 1.545770 1_556
O15 P3 1.526036 1_545
O16 P4 1.526039 1_655
O17 P5 1.526040 1_554
O18 P0 1.573016 1_555
O19 P1 1.573024 1_565
O20 P2 1.573018 1_455
O21 P3 1.576528 1_545
O22 P4 1.576522 1_655
O23 P5 1.576529 1_555
O24 P0 1.574310 1_555
O25 P1 1.574310 1_555
O26 P2 1.574310 1_555
O27 P3 1.569508 1_555
O28 P4 1.569505 1_555
O29 P5 1.569501 1_555
O30 P0 1.530047 1_555
O31 P1 1.530047 1_555
O32 P2 1.530047 1_555
O33 P3 1.529037 1_555
O34 P4 1.529042 1_555
O35 P5 1.529038 1_555
