# generated using pymatgen
data_Ba16Re6O37
_symmetry_space_group_name_H-M   'P 1'
_cell_length_a   10.97212517
_cell_length_b   10.97212517
_cell_length_c   15.83502220
_cell_angle_alpha   87.59165092
_cell_angle_beta   87.59165092
_cell_angle_gamma   31.55844282
_symmetry_Int_Tables_number   1
_chemical_formula_structural   Ba16Re6O37
_chemical_formula_sum   'Ba16 Re6 O37'
_cell_volume   996.76528065
_cell_formula_units_Z   1
loop_
 _symmetry_equiv_pos_site_id
 _symmetry_equiv_pos_as_xyz
  1  'x, y, z'
loop_
 _atom_site_type_symbol
 _atom_site_label
 _atom_site_symmetry_multiplicity
 _atom_site_fract_x
 _atom_site_fract_y
 _atom_site_fract_z
 _atom_site_occupancy
  Ba  Ba0  1  0.54855000  0.54855000  0.85782200  1
  Ba  Ba1  1  0.45145000  0.45145000  0.14217800  1
  Ba  Ba2  1  0.18129900  0.18129900  0.95491200  1
  Ba  Ba3  1  0.81870100  0.81870100  0.04508800  1
  Ba  Ba4  1  0.42034500  0.42034500  0.64829900  1
  Ba  Ba5  1  0.57965500  0.57965500  0.35170100  1
  Ba  Ba6  1  0.91278300  0.91278300  0.79882400  1
  Ba  Ba7  1  0.08721700  0.08721700  0.20117600  1
  Ba  Ba8  1  0.60699200  0.60699200  0.60296700  1
  Ba  Ba9  1  0.39300800  0.39300800  0.39703300  1
  Ba  Ba10  1  0.73578600  0.73578600  0.79947600  1
  Ba  Ba11  1  0.26421400  0.26421400  0.20052400  1
  Ba  Ba12  1  0.23609100  0.23609100  0.60072100  1
  Ba  Ba13  1  0.76390900  0.76390900  0.39927900  1
  Ba  Ba14  1  0.00000000  0.00000000  0.00000000  1
  Ba  Ba15  1  0.00000000  0.00000000  0.50000000  1
  Re  Re0  1  0.35801700  0.35801700  0.92956100  1
  Re  Re1  1  0.64198300  0.64198300  0.07043900  1
  Re  Re2  1  0.08081400  0.08081400  0.73472400  1
  Re  Re3  1  0.91918600  0.91918600  0.26527600  1
  Re  Re4  1  0.82712500  0.82712500  0.60908600  1
  Re  Re5  1  0.17287500  0.17287500  0.39091400  1
  O  O0  1  0.33612900  0.33612900  0.05049400  1
  O  O1  1  0.66387100  0.66387100  0.94950600  1
  O  O2  1  0.91592600  0.91592600  0.62578200  1
  O  O3  1  0.08407400  0.08407400  0.37421800  1
  O  O4  1  0.73714700  0.73714700  0.60598400  1
  O  O5  1  0.26285300  0.26285300  0.39401600  1
  O  O6  1  0.39754800  0.39754800  0.82253700  1
  O  O7  1  0.60245200  0.60245200  0.17746300  1
  O  O8  1  0.07316200  0.52026800  0.90934500  1
  O  O9  1  0.52026800  0.07316200  0.90934500  1
  O  O10  1  0.92683800  0.47973200  0.09065500  1
  O  O11  1  0.47973200  0.92683800  0.09065500  1
  O  O12  1  0.06682400  0.60327800  0.52849100  1
  O  O13  1  0.60327800  0.06682400  0.52849100  1
  O  O14  1  0.93317600  0.39672200  0.47150900  1
  O  O15  1  0.39672200  0.93317600  0.47150900  1
  O  O16  1  0.78560700  0.25170500  0.72426600  1
  O  O17  1  0.25170500  0.78560700  0.72426600  1
  O  O18  1  0.21439300  0.74829500  0.27573400  1
  O  O19  1  0.74829500  0.21439300  0.27573400  1
  O  O20  1  0.05842700  0.05842700  0.85483600  1
  O  O21  1  0.94157300  0.94157300  0.14516400  1
  O  O22  1  0.09701600  0.09701600  0.61763200  1
  O  O23  1  0.90298400  0.90298400  0.38236800  1
  O  O24  1  0.91768700  0.36726800  0.75280500  1
  O  O25  1  0.36726800  0.91768700  0.75280500  1
  O  O26  1  0.08231300  0.63273200  0.24719500  1
  O  O27  1  0.63273200  0.08231300  0.24719500  1
  O  O28  1  0.18448200  0.64871100  0.95695900  1
  O  O29  1  0.64871100  0.18448200  0.95695900  1
  O  O30  1  0.81551800  0.35128900  0.04304100  1
  O  O31  1  0.35128900  0.81551800  0.04304100  1
  O  O32  1  0.50000000  0.50000000  0.50000000  1
  O  O33  1  0.04375600  0.59593100  0.69736000  1
  O  O34  1  0.59593100  0.04375600  0.69736000  1
  O  O35  1  0.95624400  0.40406900  0.30264000  1
  O  O36  1  0.40406900  0.95624400  0.30264000  1
loop_
_geom_bond_atom_site_label_1
_geom_bond_atom_site_label_2
_geom_bond_distance
_geom_bond_site_symmetry_2
Ba0 O17 2.743238 1_555
Ba0 O16 2.743238 1_555
Ba0 O1 2.889133 1_555
Ba0 O20 2.991175 1_655
Ba0 O20 2.991175 1_565
Ba0 O25 3.018049 1_555
Ba0 O24 3.018049 1_555
Ba0 O6 3.261282 1_555
Ba0 O30 3.354240 1_556
Ba0 O31 3.354240 1_556
Ba0 O29 3.430084 1_555
Ba0 O28 3.430084 1_555
Ba1 O18 2.743238 1_555
Ba1 O19 2.743238 1_555
Ba1 O0 2.889133 1_555
Ba1 O21 2.991175 1_545
Ba1 O21 2.991175 1_455
Ba1 O26 3.018049 1_555
Ba1 O27 3.018049 1_555
Ba1 O7 3.261282 1_555
Ba1 O28 3.354240 1_554
Ba1 O29 3.354240 1_554
Ba1 O30 3.430084 1_555
Ba1 O31 3.430084 1_555
Ba2 O11 2.764848 1_546
Ba2 O10 2.764848 1_456
Ba2 O8 2.843759 1_555
Ba2 O9 2.843759 1_555
Ba2 O31 2.919695 1_546
Ba2 O30 2.919695 1_456
Ba2 O1 3.007953 1_545
Ba2 O1 3.007953 1_455
Ba2 O20 3.098872 1_555
Ba2 O25 3.597628 1_545
Ba2 O24 3.597628 1_455
Ba3 O9 2.764848 1_564
Ba3 O8 2.764848 1_654
Ba3 O11 2.843759 1_555
Ba3 O10 2.843759 1_555
Ba3 O29 2.919695 1_564
Ba3 O28 2.919695 1_654
Ba3 O0 3.007953 1_565
Ba3 O0 3.007953 1_655
Ba3 O21 3.098872 1_555
Ba3 O27 3.597628 1_565
Ba3 O26 3.597628 1_655
Ba4 O34 2.770934 1_555
Ba4 O33 2.770934 1_555
Ba4 O6 2.779961 1_555
Ba4 O32 2.828265 1_555
Ba4 O17 2.917672 1_555
Ba4 O16 2.917672 1_555
Ba4 O2 3.006825 1_455
Ba4 O2 3.006825 1_545
Ba4 O12 3.115096 1_555
Ba4 O13 3.115096 1_555
Ba5 O36 2.770934 1_555
Ba5 O35 2.770934 1_555
Ba5 O7 2.779961 1_555
Ba5 O32 2.828265 1_555
Ba5 O19 2.917672 1_555
Ba5 O18 2.917672 1_555
Ba5 O3 3.006825 1_565
Ba5 O3 3.006825 1_655
Ba5 O14 3.115096 1_555
Ba5 O15 3.115096 1_555
Ba6 O2 2.738029 1_555
Ba6 O16 2.845337 1_565
Ba6 O17 2.845337 1_655
Ba6 O33 2.914460 1_655
Ba6 O34 2.914460 1_565
Ba6 O28 2.974872 1_655
Ba6 O29 2.974872 1_565
Ba6 O6 3.022615 1_655
Ba6 O6 3.022615 1_565
Ba6 O20 3.237947 1_665
Ba6 O8 3.378935 1_655
Ba6 O9 3.378935 1_565
Ba7 O3 2.738029 1_555
Ba7 O18 2.845337 1_545
Ba7 O19 2.845337 1_455
Ba7 O36 2.914460 1_545
Ba7 O35 2.914460 1_455
Ba7 O31 2.974872 1_545
Ba7 O30 2.974872 1_455
Ba7 O7 3.022615 1_545
Ba7 O7 3.022615 1_455
Ba7 O21 3.237947 1_445
Ba7 O11 3.378935 1_545
Ba7 O10 3.378935 1_455
Ba8 O4 2.751025 1_555
Ba8 O32 2.843418 1_555
Ba8 O14 2.858420 1_555
Ba8 O15 2.858420 1_555
Ba8 O22 2.999381 1_565
Ba8 O22 2.999381 1_655
Ba8 O25 3.007241 1_555
Ba8 O24 3.007241 1_555
Ba8 O17 3.064936 1_555
Ba8 O16 3.064936 1_555
Ba9 O5 2.751025 1_555
Ba9 O32 2.843418 1_555
Ba9 O13 2.858420 1_555
Ba9 O12 2.858420 1_555
Ba9 O23 2.999381 1_545
Ba9 O23 2.999381 1_455
Ba9 O26 3.007241 1_555
Ba9 O27 3.007241 1_555
Ba9 O18 3.064936 1_555
Ba9 O19 3.064936 1_555
Ba10 O24 2.693132 1_555
Ba10 O25 2.693132 1_555
Ba10 O34 2.701895 1_565
Ba10 O33 2.701895 1_655
Ba10 O8 2.756656 1_655
Ba10 O9 2.756656 1_565
Ba10 O1 2.763204 1_555
Ba10 O4 3.062830 1_555
Ba11 O27 2.693132 1_555
Ba11 O26 2.693132 1_555
Ba11 O35 2.701895 1_455
Ba11 O36 2.701895 1_545
Ba11 O11 2.756656 1_545
Ba11 O10 2.756656 1_455
Ba11 O0 2.763204 1_555
Ba11 O5 3.062830 1_555
Ba12 O13 2.833461 1_555
Ba12 O12 2.833461 1_555
Ba12 O34 2.901800 1_555
Ba12 O33 2.901800 1_555
Ba12 O15 2.936790 1_545
Ba12 O14 2.936790 1_455
Ba12 O22 2.937406 1_555
Ba12 O4 2.984938 1_545
Ba12 O4 2.984938 1_455
Ba12 O5 3.297200 1_555
Ba12 O24 3.330354 1_455
Ba12 O25 3.330354 1_545
Ba13 O14 2.833461 1_555
Ba13 O15 2.833461 1_555
Ba13 O35 2.901800 1_555
Ba13 O36 2.901800 1_555
Ba13 O13 2.936790 1_565
Ba13 O12 2.936790 1_655
Ba13 O23 2.937406 1_555
Ba13 O5 2.984938 1_565
Ba13 O5 2.984938 1_655
Ba13 O4 3.297200 1_555
Ba13 O26 3.330354 1_655
Ba13 O27 3.330354 1_565
Ba14 O30 2.495351 1_455
Ba14 O31 2.495351 1_545
Ba14 O29 2.495351 1_454
Ba14 O28 2.495351 1_544
Ba14 O21 2.560963 1_445
Ba14 O20 2.560963 1_554
Ba15 O3 2.609672 1_555
Ba15 O2 2.609672 1_445
Ba15 O22 2.828461 1_555
Ba15 O23 2.828461 1_445
Ba15 O32 2.983664 1_545
Ba15 O32 2.983664 1_455
O0 Re0 1.950251 1_554
O0 O28 2.603830 1_554
O0 O29 2.603830 1_554
O1 Re1 1.950251 1_556
O1 O30 2.603830 1_556
O1 O31 2.603830 1_556
O2 Re4 1.905182 1_555
O2 O33 2.643108 1_655
O2 O34 2.643108 1_565
O3 Re5 1.905182 1_555
O3 O35 2.643108 1_455
O3 O36 2.643108 1_545
O4 Re4 1.902872 1_555
O5 Re5 1.902872 1_555
O6 Re0 1.856184 1_555
O7 Re1 1.856184 1_555
O8 Re0 1.895806 1_555
O9 Re0 1.895806 1_555
O10 Re1 1.895806 1_555
O10 O30 2.673322 1_555
O11 Re1 1.895806 1_555
O11 O31 2.673322 1_555
O12 Re4 1.884403 1_455
O12 O33 2.679710 1_555
O13 Re4 1.884403 1_545
O13 O34 2.679710 1_555
O14 Re5 1.884403 1_655
O14 O35 2.679710 1_555
O15 Re5 1.884403 1_565
O15 O36 2.679710 1_555
O16 Re2 1.924407 1_655
O16 O20 2.658173 1_655
O16 O24 2.673372 1_555
O16 O22 2.698033 1_655
O17 Re2 1.924407 1_565
O17 O20 2.658173 1_565
O17 O25 2.673372 1_555
O17 O22 2.698033 1_565
O18 Re3 1.924407 1_455
O18 O21 2.658173 1_455
O18 O26 2.673372 1_555
O18 O23 2.698033 1_455
O19 Re3 1.924407 1_545
O19 O21 2.658173 1_545
O19 O27 2.673372 1_555
O19 O23 2.698033 1_545
O20 Re2 1.939712 1_555
O20 O25 2.703631 1_545
O20 O24 2.703631 1_455
O21 Re3 1.939712 1_555
O21 O26 2.703631 1_655
O21 O27 2.703631 1_565
O22 Re2 1.870708 1_555
O23 Re3 1.870708 1_555
O24 Re2 1.899875 1_655
O25 Re2 1.899875 1_565
O26 Re3 1.899875 1_455
O27 Re3 1.899875 1_545
O28 Re0 1.919343 1_555
O28 O6 2.585716 1_555
O28 O8 2.673322 1_555
O29 Re0 1.919343 1_555
O29 O6 2.585716 1_555
O29 O9 2.673322 1_555
O30 Re1 1.919343 1_555
O30 O7 2.585716 1_555
O31 Re1 1.919343 1_555
O31 O7 2.585716 1_555
O33 Re4 1.934967 1_455
O33 O34 2.672319 1_465
O33 O4 2.673817 1_455
O34 Re4 1.934967 1_545
O34 O4 2.673817 1_545
O35 Re5 1.934967 1_655
O35 O36 2.672319 1_645
O35 O5 2.673817 1_655
O36 Re5 1.934967 1_565
O36 O5 2.673817 1_565
