# generated using pymatgen
data_CsPSe6
_symmetry_space_group_name_H-M   'P 1'
_cell_length_a   12.95010649
_cell_length_b   7.03486274
_cell_length_c   13.24317349
_cell_angle_alpha   59.56217679
_cell_angle_beta   90.00000000
_cell_angle_gamma   90.00000000
_symmetry_Int_Tables_number   1
_chemical_formula_structural   CsPSe6
_chemical_formula_sum   'Cs4 P4 Se24'
_cell_volume   1040.20441442
_cell_formula_units_Z   4
loop_
 _symmetry_equiv_pos_site_id
 _symmetry_equiv_pos_as_xyz
  1  'x, y, z'
loop_
 _atom_site_type_symbol
 _atom_site_label
 _atom_site_symmetry_multiplicity
 _atom_site_fract_x
 _atom_site_fract_y
 _atom_site_fract_z
 _atom_site_occupancy
  Cs  Cs0  1  0.97848665  0.00130632  0.74940367  1
  Cs  Cs1  1  0.02151335  0.00130632  0.24940367  1
  Cs  Cs2  1  0.50182394  0.50889134  0.00000103  1
  Cs  Cs3  1  0.49817606  0.50889134  0.50000103  1
  P  P0  1  0.15159179  0.50079310  0.74963957  1
  P  P1  1  0.84840821  0.50079310  0.24963957  1
  P  P2  1  0.65941460  0.50181929  0.75004989  1
  P  P3  1  0.34058540  0.50181929  0.25004989  1
  Se  Se0  1  0.76369611  0.50646552  0.88816629  1
  Se  Se1  1  0.23770545  0.49533491  0.11128946  1
  Se  Se2  1  0.76229455  0.49533491  0.61128946  1
  Se  Se3  1  0.23630389  0.50646552  0.38816629  1
  Se  Se4  1  0.67758631  0.06732895  0.42428518  1
  Se  Se5  1  0.32260740  0.93605948  0.57660963  1
  Se  Se6  1  0.67739260  0.93605948  0.07660963  1
  Se  Se7  1  0.32241369  0.06732895  0.92428518  1
  Se  Se8  1  0.25300379  0.74344738  0.76880681  1
  Se  Se9  1  0.74603418  0.25887010  0.23122703  1
  Se  Se10  1  0.25396582  0.25887010  0.73122703  1
  Se  Se11  1  0.74699621  0.74344738  0.26880681  1
  Se  Se12  1  0.57470588  0.80512607  0.67982994  1
  Se  Se13  1  0.42748669  0.20111152  0.32088880  1
  Se  Se14  1  0.57251331  0.20111152  0.82088880  1
  Se  Se15  1  0.42529412  0.80512607  0.17982994  1
  Se  Se16  1  0.82844081  0.14158862  0.97392410  1
  Se  Se17  1  0.17166065  0.85911327  0.02575894  1
  Se  Se18  1  0.82833935  0.85911327  0.52575894  1
  Se  Se19  1  0.17155919  0.14158862  0.47392410  1
  Se  Se20  1  0.06518948  0.35273677  0.91033476  1
  Se  Se21  1  0.93421374  0.64840936  0.08868592  1
  Se  Se22  1  0.06578626  0.64840936  0.58868592  1
  Se  Se23  1  0.93481052  0.35273677  0.41033476  1
loop_
_geom_bond_atom_site_label_1
_geom_bond_atom_site_label_2
_geom_bond_distance
_geom_bond_site_symmetry_2
Cs0 Se23 3.917563 1_555
Cs0 Se21 3.921551 1_546
Cs0 Se8 3.939868 1_645
Cs0 Se10 3.952979 1_655
Cs0 Se18 4.068816 1_545
Cs0 Se16 4.069832 1_555
Cs0 Se22 4.088329 1_655
Cs0 Se0 4.092769 1_545
Cs0 Se20 4.094848 1_645
Cs0 Se2 4.101427 1_555
Cs0 Se19 4.109396 1_655
Cs0 Se17 4.116276 1_646
Cs0 Se20 4.153739 1_655
Cs0 Se22 4.162357 1_645
Cs1 Se20 3.917563 1_554
Cs1 Se22 3.921551 1_545
Cs1 Se11 3.939868 1_445
Cs1 Se9 3.952979 1_455
Cs1 Se17 4.068816 1_545
Cs1 Se19 4.069832 1_555
Cs1 Se21 4.088329 1_455
Cs1 Se3 4.092769 1_545
Cs1 Se23 4.094848 1_445
Cs1 Se1 4.101427 1_555
Cs1 Se16 4.109396 1_454
Cs1 Se18 4.116276 1_445
Cs1 Se23 4.153739 1_455
Cs1 Se21 4.162357 1_445
Cs2 Se0 3.704069 1_554
Cs2 Se1 3.706439 1_555
Cs2 Se12 3.776128 1_554
Cs2 Se13 3.788273 1_555
Cs2 Se15 4.003155 1_555
Cs2 Se14 4.044280 1_554
Cs2 Se9 4.124938 1_555
Cs2 Se8 4.166663 1_554
Cs2 Se7 4.224415 1_564
Cs2 Se6 4.277330 1_545
Cs2 Se6 4.279973 1_555
Cs2 Se14 4.298223 1_564
Cs2 Se7 4.382778 1_554
Cs2 Se15 4.383929 1_545
Cs3 Se3 3.704069 1_555
Cs3 Se2 3.706439 1_555
Cs3 Se15 3.776128 1_555
Cs3 Se14 3.788273 1_555
Cs3 Se12 4.003155 1_555
Cs3 Se13 4.044280 1_555
Cs3 Se10 4.124938 1_555
Cs3 Se11 4.166663 1_555
Cs3 Se4 4.224415 1_565
Cs3 Se5 4.277330 1_545
Cs3 Se5 4.279973 1_555
Cs3 Se13 4.298223 1_565
Cs3 Se4 4.382778 1_555
Cs3 Se12 4.383929 1_545
P0 Se22 2.147987 1_555
P0 Se20 2.149388 1_555
P0 Se10 2.265834 1_555
P0 Se8 2.267640 1_555
P1 Se21 2.147987 1_555
P1 Se23 2.149388 1_555
P1 Se9 2.265834 1_555
P1 Se11 2.267640 1_555
P2 Se12 2.147208 1_555
P2 Se14 2.147297 1_555
P2 Se0 2.287134 1_555
P2 Se2 2.288872 1_555
P3 Se15 2.147208 1_555
P3 Se13 2.147297 1_555
P3 Se3 2.287134 1_555
P3 Se1 2.288872 1_555
Se0 Se16 2.372319 1_555
Se1 Se17 2.372060 1_555
Se4 Se9 2.376456 1_555
Se5 Se8 2.373316 1_555
Se10 Se7 2.376456 1_555
Se11 Se6 2.373316 1_555
Se12 Se4 3.210232 1_565
Se13 Se5 3.223698 1_545
Se14 Se6 3.223698 1_546
Se15 Se7 3.210232 1_564
Se16 Se6 2.402900 1_546
Se16 Se21 3.298580 1_546
Se16 Se20 3.323859 1_655
Se17 Se7 2.401747 1_564
Se17 Se20 3.304276 1_564
Se17 Se21 3.330981 1_455
Se18 Se2 2.372060 1_555
Se18 Se4 2.401747 1_565
Se18 Se23 3.304276 1_565
Se18 Se22 3.330981 1_655
Se19 Se3 2.372319 1_555
Se19 Se5 2.402900 1_545
Se19 Se22 3.298580 1_545
Se19 Se23 3.323859 1_455
