# generated using pymatgen
data_NaNdFeWO6
_symmetry_space_group_name_H-M   'P 1'
_cell_length_a   5.55606800
_cell_length_b   5.60151800
_cell_length_c   8.11166461
_cell_angle_alpha   90.00000000
_cell_angle_beta   90.31135769
_cell_angle_gamma   90.00000000
_symmetry_Int_Tables_number   1
_chemical_formula_structural   NaNdFeWO6
_chemical_formula_sum   'Na2 Nd2 Fe2 W2 O12'
_cell_volume   252.45086408
_cell_formula_units_Z   2
loop_
 _symmetry_equiv_pos_site_id
 _symmetry_equiv_pos_as_xyz
  1  'x, y, z'
loop_
 _atom_site_type_symbol
 _atom_site_label
 _atom_site_symmetry_multiplicity
 _atom_site_fract_x
 _atom_site_fract_y
 _atom_site_fract_z
 _atom_site_occupancy
  Na  Na0  1  0.74480900  0.99266500  0.49799100  1
  Na  Na1  1  0.25519100  0.49266500  0.50200900  1
  Nd  Nd0  1  0.75967500  0.06225300  0.00134500  1
  Nd  Nd1  1  0.24032500  0.56225300  0.99865500  1
  Fe  Fe0  1  0.75141300  0.51789800  0.25868500  1
  Fe  Fe1  1  0.24858700  0.01789800  0.74131500  1
  W  W0  1  0.74315100  0.51230000  0.73798200  1
  W  W1  1  0.25684900  0.01230000  0.26201800  1
  O  O0  1  0.95057700  0.78427500  0.80950900  1
  O  O1  1  0.04942300  0.28427500  0.19049100  1
  O  O2  1  0.97620900  0.80787300  0.19240300  1
  O  O3  1  0.02379100  0.30787300  0.80759700  1
  O  O4  1  0.46123600  0.70186000  0.72234400  1
  O  O5  1  0.53876400  0.20186000  0.27765600  1
  O  O6  1  0.56674300  0.21967100  0.71724200  1
  O  O7  1  0.43325700  0.71967100  0.28275800  1
  O  O8  1  0.66078700  0.48747500  0.98822400  1
  O  O9  1  0.33921300  0.98747500  0.01177600  1
  O  O10  1  0.83130400  0.53853100  0.51736700  1
  O  O11  1  0.16869600  0.03853100  0.48263300  1
loop_
_geom_bond_atom_site_label_1
_geom_bond_atom_site_label_2
_geom_bond_distance
_geom_bond_site_symmetry_2
Na0 O11 2.373062 1_665
Na0 O6 2.403720 1_565
Na0 O5 2.419886 1_565
Na0 O10 2.593444 1_555
Na0 O7 2.889651 1_555
Na0 O4 2.911864 1_555
Na0 O2 2.983898 1_555
Na0 O0 3.003933 1_555
Na0 O10 3.099069 1_565
Na1 O10 2.373062 1_455
Na1 O7 2.403720 1_555
Na1 O4 2.419886 1_555
Na1 O11 2.593444 1_555
Na1 O6 2.889651 1_555
Na1 O5 2.911864 1_555
Na1 O3 2.983898 1_555
Na1 O1 3.003933 1_555
Na1 O11 3.099069 1_565
Nd0 O9 2.375331 1_545
Nd0 O2 2.420617 1_545
Nd0 O8 2.446622 1_554
Nd0 O0 2.447239 1_544
Nd0 O1 2.542742 1_655
Nd0 O3 2.557616 1_654
Nd0 O5 2.677976 1_555
Nd0 O6 2.685273 1_554
Nd1 O8 2.375331 1_555
Nd1 O3 2.420617 1_555
Nd1 O9 2.446622 1_556
Nd1 O1 2.447239 1_556
Nd1 O0 2.542742 1_455
Nd1 O2 2.557616 1_456
Nd1 O4 2.677976 1_555
Nd1 O7 2.685273 1_556
Fe0 O7 2.108095 1_555
Fe0 O2 2.120066 1_555
Fe0 O5 2.134366 1_555
Fe0 O10 2.145531 1_555
Fe0 O1 2.184044 1_655
Fe0 O8 2.254711 1_554
Fe1 O6 2.108095 1_555
Fe1 O3 2.120066 1_555
Fe1 O4 2.134366 1_545
Fe1 O11 2.145531 1_555
Fe1 O0 2.184044 1_445
Fe1 O9 2.254711 1_546
O0 W0 1.994626 1_555
O0 O3 2.699457 1_655
O0 O8 2.735569 1_555
O1 W1 1.994626 1_555
O1 O2 2.699457 1_445
O1 O9 2.735569 1_545
O2 W1 2.012919 1_665
O2 O7 2.685062 1_655
O2 O9 2.694215 1_655
O3 W0 2.012919 1_455
O3 O6 2.685062 1_455
O3 O8 2.694215 1_455
O4 W0 1.896001 1_555
O4 O8 2.701271 1_555
O5 W1 1.896001 1_555
O5 O9 2.701271 1_545
O6 W0 1.916779 1_555
O6 O8 2.709719 1_555
O7 W1 1.916779 1_565
O7 O9 2.709719 1_555
O8 W0 2.087884 1_555
O9 W1 2.087884 1_565
O10 W0 1.863736 1_555
O11 W1 1.863736 1_555
