# generated using pymatgen
data_K4Mo2H6S2O9
_symmetry_space_group_name_H-M   'P 1'
_cell_length_a   6.57840312
_cell_length_b   6.57840312
_cell_length_c   19.03299004
_cell_angle_alpha   82.89026505
_cell_angle_beta   82.89026505
_cell_angle_gamma   80.16671267
_symmetry_Int_Tables_number   1
_chemical_formula_structural   K4Mo2H6S2O9
_chemical_formula_sum   'K8 Mo4 H12 S4 O18'
_cell_volume   800.87030400
_cell_formula_units_Z   2
loop_
 _symmetry_equiv_pos_site_id
 _symmetry_equiv_pos_as_xyz
  1  'x, y, z'
loop_
 _atom_site_type_symbol
 _atom_site_label
 _atom_site_symmetry_multiplicity
 _atom_site_fract_x
 _atom_site_fract_y
 _atom_site_fract_z
 _atom_site_occupancy
  K  K0  1  0.19355600  0.22251400  0.71495700  1
  K  K1  1  0.77748600  0.80644400  0.78504300  1
  K  K2  1  0.80644400  0.77748600  0.28504300  1
  K  K3  1  0.22251400  0.19355600  0.21495700  1
  K  K4  1  0.13032900  0.73829800  0.56038600  1
  K  K5  1  0.26170200  0.86967100  0.93961400  1
  K  K6  1  0.86967100  0.26170200  0.43961400  1
  K  K7  1  0.73829800  0.13032900  0.06038600  1
  Mo  Mo0  1  0.69215500  0.45914600  0.62101700  1
  Mo  Mo1  1  0.54085400  0.30784500  0.87898300  1
  Mo  Mo2  1  0.30784500  0.54085400  0.37898300  1
  Mo  Mo3  1  0.45914600  0.69215500  0.12101700  1
  H  H0  1  0.79916600  0.70689800  0.96601500  1
  H  H1  1  0.29310200  0.20083400  0.53398500  1
  H  H2  1  0.20083400  0.29310200  0.03398500  1
  H  H3  1  0.70689800  0.79916600  0.46601500  1
  H  H4  1  0.93553600  0.53774100  0.92287800  1
  H  H5  1  0.46225900  0.06446400  0.57712200  1
  H  H6  1  0.06446400  0.46225900  0.07712200  1
  H  H7  1  0.53774100  0.93553600  0.42287800  1
  H  H8  1  0.28897300  0.72604100  0.78950100  1
  H  H9  1  0.27395900  0.71102700  0.71049900  1
  H  H10  1  0.71102700  0.27395900  0.21049900  1
  H  H11  1  0.72604100  0.28897300  0.28950100  1
  S  S0  1  0.11029600  0.76448700  0.12430400  1
  S  S1  1  0.23551300  0.88970400  0.37569600  1
  S  S2  1  0.88970400  0.23551300  0.87569600  1
  S  S3  1  0.76448700  0.11029600  0.62430400  1
  O  O0  1  0.85696300  0.54302600  0.67535700  1
  O  O1  1  0.45697400  0.14303700  0.82464300  1
  O  O2  1  0.14303700  0.45697400  0.32464300  1
  O  O3  1  0.54302600  0.85696300  0.17535600  1
  O  O4  1  0.75048000  0.57127500  0.53187700  1
  O  O5  1  0.42872500  0.24952000  0.96812300  1
  O  O6  1  0.24952000  0.42872500  0.46812300  1
  O  O7  1  0.57127500  0.75048000  0.03187700  1
  O  O8  1  0.42273700  0.53767500  0.64996100  1
  O  O9  1  0.46232500  0.57726300  0.85003900  1
  O  O10  1  0.57726300  0.46232500  0.35003900  1
  O  O11  1  0.53767500  0.42273700  0.14996100  1
  O  O12  1  0.92038300  0.68567100  0.92971300  1
  O  O13  1  0.31432900  0.07961700  0.57028700  1
  O  O14  1  0.07961700  0.31432900  0.07028700  1
  O  O15  1  0.68567100  0.92038300  0.42971300  1
  O  O16  1  0.20748800  0.79251200  0.75000000  1
  O  O17  1  0.79251200  0.20748800  0.25000000  1
loop_
_geom_bond_atom_site_label_1
_geom_bond_atom_site_label_2
_geom_bond_distance
_geom_bond_site_symmetry_2
K0 O16 2.813271 1_545
K0 O1 2.819636 1_555
K0 O8 2.841268 1_555
K0 O0 2.888190 1_455
K0 O13 2.990111 1_555
K0 S2 3.443103 1_455
K0 S3 3.704256 1_455
K1 O16 2.813271 1_655
K1 O0 2.819636 1_555
K1 O9 2.841268 1_555
K1 O1 2.888190 1_565
K1 O12 2.990111 1_555
K1 S3 3.443103 1_565
K1 S2 3.704256 1_565
K2 O17 2.813271 1_565
K2 O3 2.819651 1_555
K2 O10 2.841268 1_555
K2 O2 2.888190 1_655
K2 O15 2.990111 1_555
K2 S0 3.443103 1_655
K2 S1 3.704256 1_655
K3 O17 2.813271 1_455
K3 O2 2.819636 1_555
K3 O11 2.841268 1_555
K3 O3 2.888195 1_545
K3 O14 2.990111 1_555
K3 S1 3.443103 1_545
K3 S0 3.704256 1_545
K4 O13 2.762549 1_565
K4 O8 2.781416 1_555
K4 O6 2.800856 1_555
K4 O0 2.965059 1_455
K4 O4 3.027650 1_455
K4 S3 3.355759 1_465
K4 S1 3.548816 1_555
K5 O12 2.762549 1_455
K5 O9 2.781416 1_555
K5 O7 2.800856 1_556
K5 O1 2.965059 1_565
K5 O5 3.027650 1_565
K5 S2 3.355759 1_465
K5 S0 3.548816 1_556
K6 O15 2.762549 1_545
K6 O10 2.781416 1_555
K6 O4 2.800856 1_555
K6 O2 2.965059 1_655
K6 O6 3.027650 1_655
K6 S1 3.355759 1_645
K6 S3 3.548816 1_555
K7 O14 2.762549 1_655
K7 O11 2.781416 1_555
K7 O5 2.800856 1_554
K7 O3 2.965047 1_545
K7 O7 3.027650 1_545
K7 S0 3.355759 1_645
K7 S2 3.548816 1_554
Mo0 O0 1.781226 1_555
Mo0 O4 1.787599 1_555
Mo0 O8 1.796543 1_555
Mo0 S3 2.257351 1_555
Mo1 O1 1.781226 1_555
Mo1 O5 1.787599 1_555
Mo1 O9 1.796543 1_555
Mo1 S2 2.257351 1_555
Mo2 O2 1.781226 1_555
Mo2 O6 1.787599 1_555
Mo2 O10 1.796543 1_555
Mo2 S1 2.257351 1_555
Mo3 O3 1.781213 1_555
Mo3 O7 1.787599 1_555
Mo3 O11 1.796543 1_555
Mo3 S0 2.257351 1_555
H0 O12 0.991073 1_555
H0 O7 1.837941 1_556
H0 K7 3.438755 1_566
H1 O13 0.991073 1_555
H1 O6 1.837941 1_555
H1 K6 3.438755 1_455
H2 O14 0.991073 1_555
H2 O5 1.837941 1_554
H2 K5 3.438755 1_544
H3 O15 0.991073 1_555
H3 O4 1.837941 1_555
H3 K4 3.438755 1_655
H4 O12 0.984308 1_555
H4 S2 2.358795 1_555
H4 K1 3.160283 1_555
H5 O13 0.984308 1_555
H5 S3 2.358795 1_555
H5 K0 3.160283 1_555
H6 O14 0.984308 1_555
H6 S0 2.358795 1_555
H6 K3 3.160283 1_555
H7 O15 0.984308 1_555
H7 S1 2.358795 1_555
H7 K2 3.160283 1_555
H8 O16 0.991012 1_555
H8 O9 1.803012 1_555
H8 K5 3.093772 1_555
H9 O16 0.991012 1_555
H9 O8 1.803012 1_555
H9 K4 3.093772 1_555
H10 O17 0.991012 1_555
H10 O11 1.803012 1_555
H10 K7 3.093772 1_555
H11 O17 0.991012 1_555
H11 O10 1.803012 1_555
H11 K6 3.093772 1_555
