# generated using pymatgen
data_Sr2Ge2Pb
_symmetry_space_group_name_H-M   'P 1'
_cell_length_a   15.94726408
_cell_length_b   15.94726408
_cell_length_c   9.32858132
_cell_angle_alpha   90.00000000
_cell_angle_beta   90.00000000
_cell_angle_gamma   150.65905106
_symmetry_Int_Tables_number   1
_chemical_formula_structural   Sr2Ge2Pb
_chemical_formula_sum   'Sr16 Ge16 Pb8'
_cell_volume   1162.48941609
_cell_formula_units_Z   8
loop_
 _symmetry_equiv_pos_site_id
 _symmetry_equiv_pos_as_xyz
  1  'x, y, z'
loop_
 _atom_site_type_symbol
 _atom_site_label
 _atom_site_symmetry_multiplicity
 _atom_site_fract_x
 _atom_site_fract_y
 _atom_site_fract_z
 _atom_site_occupancy
  Sr  Sr0_0  1  0.18415791  0.31584209  0.25000000  1
  Sr  Sr0_1  1  0.18415791  0.31584209  0.75000000  1
  Sr  Sr0_2  1  0.18415791  0.81584209  0.25000000  1
  Sr  Sr0_3  1  0.18415791  0.81584209  0.75000000  1
  Sr  Sr0_4  1  0.68415791  0.31584209  0.25000000  1
  Sr  Sr0_5  1  0.68415791  0.31584209  0.75000000  1
  Sr  Sr0_6  1  0.68415791  0.81584209  0.25000000  1
  Sr  Sr0_7  1  0.68415791  0.81584209  0.75000000  1
  Sr  Sr1_0  1  0.31584209  0.18415791  0.25000000  1
  Sr  Sr1_1  1  0.31584209  0.18415791  0.75000000  1
  Sr  Sr1_2  1  0.31584209  0.68415791  0.25000000  1
  Sr  Sr1_3  1  0.31584209  0.68415791  0.75000000  1
  Sr  Sr1_4  1  0.81584209  0.18415791  0.25000000  1
  Sr  Sr1_5  1  0.81584209  0.18415791  0.75000000  1
  Sr  Sr1_6  1  0.81584209  0.68415791  0.25000000  1
  Sr  Sr1_7  1  0.81584209  0.68415791  0.75000000  1
  Ge  Ge0_0  1  0.10079334  0.39920666  0.00000000  1
  Ge  Ge0_1  1  0.10079334  0.39920666  0.50000000  1
  Ge  Ge0_2  1  0.10079335  0.89920665  0.00000000  1
  Ge  Ge0_3  1  0.10079335  0.89920665  0.50000000  1
  Ge  Ge0_4  1  0.60079335  0.39920666  0.00000000  1
  Ge  Ge0_5  1  0.60079335  0.39920666  0.50000000  1
  Ge  Ge0_6  1  0.60079335  0.89920665  0.00000000  1
  Ge  Ge0_7  1  0.60079335  0.89920665  0.50000000  1
  Ge  Ge1_0  1  0.39920666  0.10079334  0.00000000  1
  Ge  Ge1_1  1  0.39920666  0.10079334  0.50000000  1
  Ge  Ge1_2  1  0.39920666  0.60079335  0.00000000  1
  Ge  Ge1_3  1  0.39920666  0.60079335  0.50000000  1
  Ge  Ge1_4  1  0.89920665  0.10079335  0.00000000  1
  Ge  Ge1_5  1  0.89920665  0.10079335  0.50000000  1
  Ge  Ge1_6  1  0.89920665  0.60079335  0.00000000  1
  Ge  Ge1_7  1  0.89920665  0.60079335  0.50000000  1
  Pb  Pb0_0  1  0.00000000  0.00000000  0.00000000  1
  Pb  Pb0_1  1  0.00000000  0.00000000  0.50000000  1
  Pb  Pb0_2  1  0.00000000  0.50000000  0.00000000  1
  Pb  Pb0_3  1  0.00000000  0.50000000  0.50000000  1
  Pb  Pb0_4  1  0.50000000  0.00000000  0.00000000  1
  Pb  Pb0_5  1  0.50000000  0.00000000  0.50000000  1
  Pb  Pb0_6  1  0.50000000  0.50000000  0.00000000  1
  Pb  Pb0_7  1  0.50000000  0.50000000  0.50000000  1
loop_
_geom_bond_atom_site_label_1
_geom_bond_atom_site_label_2
_geom_bond_distance
_geom_bond_site_symmetry_2
Sr0_0 Sr0_6 4.038795 1_445
Sr0_0 Sr0_6 4.038795 1_555
Sr0_0 Sr1_0 4.063078 1_555
Sr0_1 Sr0_7 4.038795 1_445
Sr0_1 Sr0_7 4.038795 1_555
Sr0_1 Sr1_1 4.063078 1_555
Sr0_2 Sr0_4 4.038795 1_565
Sr0_2 Sr0_4 4.038795 1_455
Sr0_2 Sr1_2 4.063078 1_555
Sr0_3 Sr0_5 4.038795 1_565
Sr0_3 Sr0_5 4.038795 1_455
Sr0_3 Sr1_3 4.063078 1_555
Sr0_4 Sr1_4 4.063078 1_555
Sr0_5 Sr1_5 4.063078 1_555
Sr0_6 Sr1_6 4.063078 1_555
Sr0_7 Sr1_7 4.063078 1_555
Sr1_0 Sr1_6 4.038795 1_555
Sr1_0 Sr1_6 4.038795 1_445
Sr1_1 Sr1_7 4.038795 1_555
Sr1_1 Sr1_7 4.038795 1_445
Sr1_2 Sr1_4 4.038795 1_565
Sr1_2 Sr1_4 4.038795 1_455
Sr1_3 Sr1_5 4.038795 1_565
Sr1_3 Sr1_5 4.038795 1_455
Ge0_0 Ge1_2 2.511840 1_555
Ge0_0 Ge1_4 2.511840 1_455
Ge0_0 Pb0_2 3.109950 1_555
Ge0_0 Sr1_4 3.268002 1_455
Ge0_0 Sr1_5 3.268002 1_454
Ge0_0 Sr1_2 3.268002 1_555
Ge0_0 Sr1_3 3.268002 1_554
Ge0_0 Sr0_0 3.472040 1_555
Ge0_0 Sr0_1 3.472040 1_554
Ge0_1 Ge1_5 2.511840 1_455
Ge0_1 Ge1_3 2.511840 1_555
Ge0_1 Pb0_3 3.109950 1_555
Ge0_1 Sr1_4 3.268002 1_455
Ge0_1 Sr1_5 3.268002 1_455
Ge0_1 Sr1_3 3.268002 1_555
Ge0_1 Sr1_2 3.268002 1_555
Ge0_1 Sr0_0 3.472040 1_555
Ge0_1 Sr0_1 3.472040 1_555
Ge0_2 Ge1_6 2.511840 1_455
Ge0_2 Ge1_0 2.511840 1_565
Ge0_2 Pb0_0 3.109950 1_565
Ge0_2 Sr1_0 3.268002 1_565
Ge0_2 Sr1_1 3.268002 1_564
Ge0_2 Sr1_7 3.268002 1_454
Ge0_2 Sr1_6 3.268002 1_455
Ge0_2 Sr0_2 3.472040 1_555
Ge0_2 Sr0_3 3.472040 1_554
Ge0_3 Ge1_7 2.511840 1_455
Ge0_3 Ge1_1 2.511840 1_565
Ge0_3 Pb0_1 3.109950 1_565
Ge0_3 Sr1_0 3.268002 1_565
Ge0_3 Sr1_1 3.268002 1_565
Ge0_3 Sr1_7 3.268002 1_455
Ge0_3 Sr1_6 3.268002 1_455
Ge0_3 Sr0_2 3.472040 1_555
Ge0_3 Sr0_3 3.472040 1_555
Ge0_4 Ge1_6 2.511840 1_555
Ge0_4 Ge1_0 2.511840 1_555
Ge0_4 Pb0_6 3.109950 1_555
Ge0_4 Sr1_0 3.268002 1_555
Ge0_4 Sr1_1 3.268002 1_554
Ge0_4 Sr1_6 3.268002 1_555
Ge0_4 Sr1_7 3.268002 1_554
Ge0_4 Sr0_4 3.472040 1_555
Ge0_4 Sr0_5 3.472040 1_554
Ge0_5 Ge1_7 2.511840 1_555
Ge0_5 Ge1_1 2.511840 1_555
Ge0_5 Pb0_7 3.109950 1_555
Ge0_5 Sr1_0 3.268002 1_555
Ge0_5 Sr1_1 3.268002 1_555
Ge0_5 Sr1_6 3.268002 1_555
Ge0_5 Sr1_7 3.268002 1_555
Ge0_5 Sr0_4 3.472040 1_555
Ge0_5 Sr0_5 3.472040 1_555
Ge0_6 Ge1_4 2.511840 1_565
Ge0_6 Ge1_2 2.511840 1_555
Ge0_6 Pb0_4 3.109950 1_565
Ge0_6 Sr1_4 3.268002 1_565
Ge0_6 Sr1_5 3.268002 1_564
Ge0_6 Sr1_3 3.268002 1_554
Ge0_6 Sr1_2 3.268002 1_555
Ge0_6 Sr0_6 3.472040 1_555
Ge0_6 Sr0_7 3.472040 1_554
Ge0_7 Ge1_5 2.511840 1_565
Ge0_7 Ge1_3 2.511840 1_555
Ge0_7 Pb0_5 3.109950 1_565
Ge0_7 Sr1_5 3.268002 1_565
Ge0_7 Sr1_4 3.268002 1_565
Ge0_7 Sr1_3 3.268002 1_555
Ge0_7 Sr1_2 3.268002 1_555
Ge0_7 Sr0_6 3.472040 1_555
Ge0_7 Sr0_7 3.472040 1_555
Ge1_0 Pb0_4 3.109950 1_555
Ge1_0 Sr0_3 3.268002 1_544
Ge1_0 Sr0_2 3.268002 1_545
Ge1_0 Sr0_5 3.268002 1_554
Ge1_0 Sr0_4 3.268002 1_555
Ge1_0 Sr1_0 3.472040 1_555
Ge1_0 Sr1_1 3.472040 1_554
Ge1_1 Pb0_5 3.109950 1_555
Ge1_1 Sr0_3 3.268002 1_545
Ge1_1 Sr0_2 3.268002 1_545
Ge1_1 Sr0_5 3.268002 1_555
Ge1_1 Sr0_4 3.268002 1_555
Ge1_1 Sr1_0 3.472040 1_555
Ge1_1 Sr1_1 3.472040 1_555
Ge1_2 Pb0_6 3.109950 1_555
Ge1_2 Sr0_1 3.268002 1_554
Ge1_2 Sr0_0 3.268002 1_555
Ge1_2 Sr0_6 3.268002 1_555
Ge1_2 Sr0_7 3.268002 1_554
Ge1_2 Sr1_2 3.472040 1_555
Ge1_2 Sr1_3 3.472040 1_554
Ge1_3 Pb0_7 3.109950 1_555
Ge1_3 Sr0_1 3.268002 1_555
Ge1_3 Sr0_0 3.268002 1_555
Ge1_3 Sr0_6 3.268002 1_555
Ge1_3 Sr0_7 3.268002 1_555
Ge1_3 Sr1_2 3.472040 1_555
Ge1_3 Sr1_3 3.472040 1_555
Ge1_4 Pb0_0 3.109950 1_655
Ge1_4 Sr0_0 3.268002 1_655
Ge1_4 Sr0_1 3.268002 1_654
Ge1_4 Sr0_6 3.268002 1_545
Ge1_4 Sr0_7 3.268002 1_544
Ge1_4 Sr1_4 3.472040 1_555
Ge1_4 Sr1_5 3.472040 1_554
Ge1_5 Pb0_1 3.109950 1_655
Ge1_5 Sr0_0 3.268002 1_655
Ge1_5 Sr0_1 3.268002 1_655
Ge1_5 Sr0_6 3.268002 1_545
Ge1_5 Sr0_7 3.268002 1_545
Ge1_5 Sr1_4 3.472040 1_555
Ge1_5 Sr1_5 3.472040 1_555
Ge1_6 Pb0_2 3.109950 1_655
Ge1_6 Sr0_3 3.268002 1_654
Ge1_6 Sr0_2 3.268002 1_655
Ge1_6 Sr0_5 3.268002 1_554
Ge1_6 Sr0_4 3.268002 1_555
Ge1_6 Sr1_6 3.472040 1_555
Ge1_6 Sr1_7 3.472040 1_554
Ge1_7 Pb0_3 3.109950 1_655
Ge1_7 Sr0_3 3.268002 1_655
Ge1_7 Sr0_2 3.268002 1_655
Ge1_7 Sr0_5 3.268002 1_555
Ge1_7 Sr0_4 3.268002 1_555
Ge1_7 Sr1_6 3.472040 1_555
Ge1_7 Sr1_7 3.472040 1_555
Pb0_0 Sr0_7 3.693781 1_444
Pb0_0 Sr1_7 3.693781 1_444
Pb0_0 Sr1_6 3.693781 1_445
Pb0_0 Sr0_6 3.693781 1_445
Pb0_0 Sr1_1 3.693781 1_554
Pb0_0 Sr1_0 3.693781 1_555
Pb0_0 Sr0_0 3.693781 1_555
Pb0_0 Sr0_1 3.693781 1_554
Pb0_0 Pb0_6 4.038795 1_555
Pb0_0 Pb0_6 4.038795 1_445
Pb0_1 Sr0_7 3.693781 1_445
Pb0_1 Sr1_6 3.693781 1_445
Pb0_1 Sr0_6 3.693781 1_445
Pb0_1 Sr1_7 3.693781 1_445
Pb0_1 Sr1_1 3.693781 1_555
Pb0_1 Sr1_0 3.693781 1_555
Pb0_1 Sr0_0 3.693781 1_555
Pb0_1 Sr0_1 3.693781 1_555
Pb0_1 Pb0_7 4.038795 1_555
Pb0_1 Pb0_7 4.038795 1_445
Pb0_2 Sr1_2 3.693781 1_555
Pb0_2 Sr0_5 3.693781 1_454
Pb0_2 Sr1_3 3.693781 1_554
Pb0_2 Sr1_4 3.693781 1_455
Pb0_2 Sr0_4 3.693781 1_455
Pb0_2 Sr1_5 3.693781 1_454
Pb0_2 Sr0_2 3.693781 1_555
Pb0_2 Sr0_3 3.693781 1_554
Pb0_2 Pb0_4 4.038795 1_565
Pb0_2 Pb0_4 4.038795 1_455
Pb0_3 Sr1_2 3.693781 1_555
Pb0_3 Sr0_5 3.693781 1_455
Pb0_3 Sr1_3 3.693781 1_555
Pb0_3 Sr1_4 3.693781 1_455
Pb0_3 Sr0_4 3.693781 1_455
Pb0_3 Sr1_5 3.693781 1_455
Pb0_3 Sr0_3 3.693781 1_555
Pb0_3 Sr0_2 3.693781 1_555
Pb0_3 Pb0_5 4.038795 1_455
Pb0_3 Pb0_5 4.038795 1_565
Pb0_4 Sr1_5 3.693781 1_554
Pb0_4 Sr0_3 3.693781 1_544
Pb0_4 Sr1_3 3.693781 1_544
Pb0_4 Sr1_2 3.693781 1_545
Pb0_4 Sr0_5 3.693781 1_554
Pb0_4 Sr0_2 3.693781 1_545
Pb0_4 Sr1_4 3.693781 1_555
Pb0_4 Sr0_4 3.693781 1_555
Pb0_5 Sr0_3 3.693781 1_545
Pb0_5 Sr1_2 3.693781 1_545
Pb0_5 Sr0_5 3.693781 1_555
Pb0_5 Sr0_2 3.693781 1_545
Pb0_5 Sr1_4 3.693781 1_555
Pb0_5 Sr1_5 3.693781 1_555
Pb0_5 Sr1_3 3.693781 1_545
Pb0_5 Sr0_4 3.693781 1_555
Pb0_6 Sr1_6 3.693781 1_555
Pb0_6 Sr1_7 3.693781 1_554
Pb0_6 Sr0_6 3.693781 1_555
Pb0_6 Sr0_7 3.693781 1_554
Pb0_6 Sr1_1 3.693781 1_554
Pb0_6 Sr1_0 3.693781 1_555
Pb0_6 Sr0_1 3.693781 1_554
Pb0_6 Sr0_0 3.693781 1_555
Pb0_7 Sr0_7 3.693781 1_555
Pb0_7 Sr1_6 3.693781 1_555
Pb0_7 Sr1_7 3.693781 1_555
Pb0_7 Sr0_6 3.693781 1_555
Pb0_7 Sr1_1 3.693781 1_555
Pb0_7 Sr1_0 3.693781 1_555
Pb0_7 Sr0_0 3.693781 1_555
Pb0_7 Sr0_1 3.693781 1_555
