# generated using pymatgen
data_PrIn3Pt
_symmetry_space_group_name_H-M   'P 1'
_cell_length_a   10.08944400
_cell_length_b   10.08944400
_cell_length_c   10.08944400
_cell_angle_alpha   90.00000000
_cell_angle_beta   90.00000000
_cell_angle_gamma   90.00000000
_symmetry_Int_Tables_number   1
_chemical_formula_structural   PrIn3Pt
_chemical_formula_sum   'Pr8 In24 Pt8'
_cell_volume   1027.07392245
_cell_formula_units_Z   8
loop_
 _symmetry_equiv_pos_site_id
 _symmetry_equiv_pos_as_xyz
  1  'x, y, z'
loop_
 _atom_site_type_symbol
 _atom_site_label
 _atom_site_symmetry_multiplicity
 _atom_site_fract_x
 _atom_site_fract_y
 _atom_site_fract_z
 _atom_site_occupancy
  Pr  Pr0  1  0.00000000  0.00000000  0.00000000  1
  Pr  Pr1  1  0.50000000  0.50000000  0.50000000  1
  Pr  Pr2  1  0.25000000  0.00000000  0.50000000  1
  Pr  Pr3  1  0.75000000  0.00000000  0.50000000  1
  Pr  Pr4  1  0.50000000  0.25000000  0.00000000  1
  Pr  Pr5  1  0.50000000  0.75000000  0.00000000  1
  Pr  Pr6  1  0.00000000  0.50000000  0.25000000  1
  Pr  Pr7  1  0.00000000  0.50000000  0.75000000  1
  In  In0  1  0.00000000  0.15201500  0.31581100  1
  In  In1  1  0.00000000  0.84798500  0.68418900  1
  In  In2  1  0.00000000  0.84798500  0.31581100  1
  In  In3  1  0.00000000  0.15201500  0.68418900  1
  In  In4  1  0.31581100  0.00000000  0.15201500  1
  In  In5  1  0.65201500  0.50000000  0.18418900  1
  In  In6  1  0.68418900  0.00000000  0.84798500  1
  In  In7  1  0.34798500  0.50000000  0.81581100  1
  In  In8  1  0.31581100  0.00000000  0.84798500  1
  In  In9  1  0.34798500  0.50000000  0.18418900  1
  In  In10  1  0.68418900  0.00000000  0.15201500  1
  In  In11  1  0.65201500  0.50000000  0.81581100  1
  In  In12  1  0.15201500  0.31581100  0.00000000  1
  In  In13  1  0.50000000  0.81581100  0.34798500  1
  In  In14  1  0.84798500  0.68418900  0.00000000  1
  In  In15  1  0.50000000  0.18418900  0.65201500  1
  In  In16  1  0.15201500  0.68418900  0.00000000  1
  In  In17  1  0.50000000  0.18418900  0.34798500  1
  In  In18  1  0.84798500  0.31581100  0.00000000  1
  In  In19  1  0.50000000  0.81581100  0.65201500  1
  In  In20  1  0.18418900  0.65201500  0.50000000  1
  In  In21  1  0.81581100  0.34798500  0.50000000  1
  In  In22  1  0.18418900  0.34798500  0.50000000  1
  In  In23  1  0.81581100  0.65201500  0.50000000  1
  Pt  Pt0  1  0.25000000  0.25000000  0.25000000  1
  Pt  Pt1  1  0.75000000  0.75000000  0.75000000  1
  Pt  Pt2  1  0.75000000  0.75000000  0.25000000  1
  Pt  Pt3  1  0.75000000  0.25000000  0.75000000  1
  Pt  Pt4  1  0.25000000  0.25000000  0.75000000  1
  Pt  Pt5  1  0.25000000  0.75000000  0.25000000  1
  Pt  Pt6  1  0.25000000  0.75000000  0.75000000  1
  Pt  Pt7  1  0.75000000  0.25000000  0.25000000  1
loop_
_geom_bond_atom_site_label_1
_geom_bond_atom_site_label_2
_geom_bond_distance
_geom_bond_site_symmetry_2
Pr2 Pt6 3.567157 1_545
Pr2 Pt5 3.567157 1_545
Pr2 Pt0 3.567157 1_555
Pr2 Pt4 3.567157 1_555
Pr3 Pt3 3.567157 1_555
Pr3 Pt2 3.567157 1_545
Pr3 Pt7 3.567157 1_555
Pr3 Pt1 3.567157 1_545
Pr4 Pt4 3.567157 1_554
Pr4 Pt3 3.567157 1_554
Pr4 Pt0 3.567157 1_555
Pr4 Pt7 3.567157 1_555
Pr5 Pt1 3.567157 1_554
Pr5 Pt5 3.567157 1_555
Pr5 Pt2 3.567157 1_555
Pr5 Pt6 3.567157 1_554
Pr6 Pt5 3.567157 1_555
Pr6 Pt2 3.567157 1_455
Pr6 Pt7 3.567157 1_455
Pr6 Pt0 3.567157 1_555
Pr7 Pt3 3.567157 1_455
Pr7 Pt6 3.567157 1_555
Pr7 Pt1 3.567157 1_455
Pr7 Pt4 3.567157 1_555
In0 Pt0 2.789364 1_555
In0 Pt7 2.789364 1_455
In0 In2 3.067494 1_545
In0 In22 3.288840 1_555
In0 In21 3.288840 1_455
In0 Pr2 3.488295 1_555
In0 Pr3 3.488295 1_455
In0 Pr0 3.536277 1_555
In0 Pr6 3.573211 1_555
In0 In3 3.716729 1_555
In1 Pt6 2.789364 1_555
In1 Pt1 2.789364 1_455
In1 In3 3.067494 1_565
In1 In23 3.288840 1_455
In1 In20 3.288840 1_555
In1 Pr2 3.488295 1_565
In1 Pr3 3.488295 1_465
In1 Pr0 3.536277 1_566
In1 Pr7 3.573211 1_555
In1 In2 3.716729 1_555
In2 Pt2 2.789364 1_455
In2 Pt5 2.789364 1_555
In2 In23 3.288840 1_455
In2 In20 3.288840 1_555
In2 Pr2 3.488295 1_565
In2 Pr3 3.488295 1_465
In2 Pr0 3.536277 1_565
In2 Pr6 3.573211 1_555
In3 Pt4 2.789364 1_555
In3 Pt3 2.789364 1_455
In3 Pr3 3.488295 1_455
In3 Pr2 3.488295 1_555
In3 Pr0 3.536277 1_556
In3 Pr7 3.573211 1_555
In4 Pt0 2.789364 1_555
In4 Pt5 2.789364 1_545
In4 In8 3.067494 1_554
In4 Pr5 3.488295 1_545
In4 Pr4 3.488295 1_555
In4 Pr0 3.536277 1_555
In4 Pr2 3.573211 1_555
In5 Pt7 2.789364 1_555
In5 Pt2 2.789364 1_555
In5 In9 3.067494 1_555
In5 Pr4 3.488295 1_555
In5 Pr5 3.488295 1_555
In5 Pr1 3.536277 1_555
In5 Pr6 3.573211 1_655
In6 Pt1 2.789364 1_545
In6 Pt3 2.789364 1_555
In6 Pr5 3.488295 1_546
In6 Pr4 3.488295 1_556
In6 Pr0 3.536277 1_656
In6 Pr3 3.573211 1_555
In6 In8 3.716729 1_555
In7 Pt4 2.789364 1_555
In7 Pt6 2.789364 1_555
In7 Pr4 3.488295 1_556
In7 Pr5 3.488295 1_556
In7 Pr1 3.536277 1_555
In7 Pr7 3.573211 1_555
In7 In9 3.716729 1_556
In8 Pt4 2.789364 1_555
In8 Pt6 2.789364 1_545
In8 Pr4 3.488295 1_556
In8 Pr5 3.488295 1_546
In8 Pr0 3.536277 1_556
In8 Pr2 3.573211 1_555
In9 Pt5 2.789364 1_555
In9 Pt0 2.789364 1_555
In9 Pr4 3.488295 1_555
In9 Pr5 3.488295 1_555
In9 Pr1 3.536277 1_555
In9 Pr6 3.573211 1_555
In10 Pt2 2.789364 1_545
In10 Pt7 2.789364 1_555
In10 In6 3.067494 1_554
In10 In17 3.288840 1_555
In10 In13 3.288840 1_545
In10 Pr4 3.488295 1_555
In10 Pr5 3.488295 1_545
In10 Pr0 3.536277 1_655
In10 Pr3 3.573211 1_555
In10 In4 3.716729 1_555
In11 Pt1 2.789364 1_555
In11 Pt3 2.789364 1_555
In11 In7 3.067494 1_555
In11 In14 3.288840 1_556
In11 In18 3.288840 1_556
In11 Pr4 3.488295 1_556
In11 Pr5 3.488295 1_556
In11 Pr1 3.536277 1_555
In11 Pr7 3.573211 1_655
In11 In5 3.716729 1_556
In12 Pt0 2.789364 1_555
In12 Pt4 2.789364 1_554
In12 In18 3.067494 1_455
In12 In7 3.288840 1_554
In12 In9 3.288840 1_555
In12 Pr7 3.488295 1_554
In12 Pr6 3.488295 1_555
In12 Pr0 3.536277 1_555
In12 Pr4 3.573211 1_555
In12 In16 3.716729 1_555
In13 Pt5 2.789364 1_555
In13 Pt2 2.789364 1_555
In13 In19 3.067494 1_555
In13 In4 3.288840 1_565
In13 Pr2 3.488295 1_565
In13 Pr3 3.488295 1_565
In13 Pr1 3.536277 1_555
In13 Pr5 3.573211 1_555
In13 In17 3.716729 1_565
In14 Pt1 2.789364 1_554
In14 Pt2 2.789364 1_555
In14 In16 3.067494 1_655
In14 In5 3.288840 1_555
In14 Pr6 3.488295 1_655
In14 Pr7 3.488295 1_654
In14 Pr0 3.536277 1_665
In14 Pr5 3.573211 1_555
In14 In18 3.716729 1_555
In15 Pt4 2.789364 1_555
In15 Pt3 2.789364 1_555
In15 In17 3.067494 1_555
In15 In6 3.288840 1_555
In15 In8 3.288840 1_555
In15 Pr3 3.488295 1_555
In15 Pr2 3.488295 1_555
In15 Pr1 3.536277 1_555
In15 Pr4 3.573211 1_556
In15 In19 3.716729 1_545
In16 Pt5 2.789364 1_555
In16 Pt6 2.789364 1_554
In16 In9 3.288840 1_555
In16 In7 3.288840 1_554
In16 Pr7 3.488295 1_554
In16 Pr6 3.488295 1_555
In16 Pr0 3.536277 1_565
In16 Pr5 3.573211 1_555
In17 Pt7 2.789364 1_555
In17 Pt0 2.789364 1_555
In17 In4 3.288840 1_555
In17 Pr3 3.488295 1_555
In17 Pr2 3.488295 1_555
In17 Pr1 3.536277 1_555
In17 Pr4 3.573211 1_555
In18 Pt7 2.789364 1_555
In18 Pt3 2.789364 1_554
In18 In5 3.288840 1_555
In18 Pr6 3.488295 1_655
In18 Pr7 3.488295 1_654
In18 Pr0 3.536277 1_655
In18 Pr4 3.573211 1_555
In19 Pt1 2.789364 1_555
In19 Pt6 2.789364 1_555
In19 In6 3.288840 1_565
In19 In8 3.288840 1_565
In19 Pr2 3.488295 1_565
In19 Pr3 3.488295 1_565
In19 Pr1 3.536277 1_555
In19 Pr5 3.573211 1_556
In20 Pt5 2.789364 1_555
In20 Pt6 2.789364 1_555
In20 In22 3.067494 1_555
In20 Pr7 3.488295 1_555
In20 Pr6 3.488295 1_555
In20 Pr1 3.536277 1_555
In20 Pr2 3.573211 1_565
In20 In23 3.716729 1_455
In21 Pt7 2.789364 1_555
In21 Pt3 2.789364 1_555
In21 In23 3.067494 1_555
In21 In3 3.288840 1_655
In21 Pr6 3.488295 1_655
In21 Pr7 3.488295 1_655
In21 Pr1 3.536277 1_555
In21 Pr3 3.573211 1_555
In21 In22 3.716729 1_655
In22 Pt4 2.789364 1_555
In22 Pt0 2.789364 1_555
In22 In3 3.288840 1_555
In22 Pr7 3.488295 1_555
In22 Pr6 3.488295 1_555
In22 Pr1 3.536277 1_555
In22 Pr2 3.573211 1_555
In23 Pt1 2.789364 1_555
In23 Pt2 2.789364 1_555
In23 Pr6 3.488295 1_655
In23 Pr7 3.488295 1_655
In23 Pr1 3.536277 1_555
In23 Pr3 3.573211 1_565
