# generated using pymatgen
data_MgV4(GeO4)4
_symmetry_space_group_name_H-M   'P 1'
_cell_length_a   4.83820477
_cell_length_b   5.33324005
_cell_length_c   11.15723688
_cell_angle_alpha   94.71907509
_cell_angle_beta   90.94332633
_cell_angle_gamma   90.49935625
_symmetry_Int_Tables_number   1
_chemical_formula_structural   MgV4(GeO4)4
_chemical_formula_sum   'Mg1 V4 Ge4 O16'
_cell_volume   286.86413474
_cell_formula_units_Z   1
loop_
 _symmetry_equiv_pos_site_id
 _symmetry_equiv_pos_as_xyz
  1  'x, y, z'
loop_
 _atom_site_type_symbol
 _atom_site_label
 _atom_site_symmetry_multiplicity
 _atom_site_fract_x
 _atom_site_fract_y
 _atom_site_fract_z
 _atom_site_occupancy
  Mg  Mg0  1  0.49553800  0.26859800  0.23521600  1
  V  V0  1  0.95632600  0.78167100  0.57675600  1
  V  V1  1  0.51741600  0.74303200  0.06710100  1
  V  V2  1  0.46564100  0.24363900  0.91722100  1
  V  V3  1  0.99020300  0.26223900  0.43547400  1
  Ge  Ge0  1  0.02051400  0.75322500  0.84270400  1
  Ge  Ge1  1  0.44661000  0.36979400  0.64633700  1
  Ge  Ge2  1  0.43183600  0.79699300  0.37072600  1
  Ge  Ge3  1  0.94968800  0.20071500  0.12902600  1
  O  O0  1  0.28666700  0.08637100  0.34419900  1
  O  O1  1  0.22458900  0.61256900  0.46604400  1
  O  O2  1  0.28547500  0.12265300  0.08219200  1
  O  O3  1  0.20735300  0.13057600  0.57779600  1
  O  O4  1  0.40378800  0.62266200  0.22843400  1
  O  O5  1  0.22212100  0.04239900  0.84506700  1
  O  O6  1  0.20650700  0.61235300  0.69862600  1
  O  O7  1  0.24402800  0.56562600  0.94413200  1
  O  O8  1  0.73176600  0.39225500  0.03705600  1
  O  O9  1  0.89723200  0.37872400  0.27385000  1
  O  O10  1  0.75095600  0.95410600  0.17867100  1
  O  O11  1  0.64765900  0.33644900  0.77889500  1
  O  O12  1  0.74985500  0.91665200  0.44762400  1
  O  O13  1  0.74833600  0.88610100  0.94383600  1
  O  O14  1  0.72083800  0.45185400  0.54296800  1
  O  O15  1  0.78968300  0.84374300  0.71227200  1
loop_
_geom_bond_atom_site_label_1
_geom_bond_atom_site_label_2
_geom_bond_distance
_geom_bond_site_symmetry_2
Mg0 O0 1.913651 1_555
Mg0 O4 1.950769 1_555
Mg0 O9 2.053954 1_555
Mg0 O2 2.064980 1_555
Mg0 O10 2.150820 1_545
Ge0 O5 1.815726 1_565
Ge0 O13 1.855560 1_455
Ge0 O7 1.901570 1_555
Ge0 O15 1.915613 1_455
Ge0 O6 1.954231 1_555
Ge1 O11 1.778795 1_555
Ge1 O6 1.813181 1_555
Ge1 O3 1.826759 1_555
Ge1 O14 1.845345 1_555
Ge2 O0 1.746412 1_565
Ge2 O4 1.775137 1_555
Ge2 O1 1.814903 1_555
Ge2 O12 1.833062 1_555
Ge3 O10 1.753989 1_545
Ge3 O2 1.757744 1_655
Ge3 O9 1.828093 1_555
Ge3 O8 1.834052 1_555
O0 V3 1.971950 1_455
O1 V0 1.978292 1_455
O1 V3 2.176851 1_455
O2 V2 2.191460 1_554
O2 V1 2.318709 1_545
O3 V3 2.063916 1_455
O3 V0 2.212315 1_445
O4 V1 2.042308 1_555
O5 V2 1.729940 1_555
O6 V0 2.072759 1_455
O7 V2 2.036304 1_555
O7 V1 2.057173 1_556
O8 V2 1.955723 1_554
O8 V1 2.151691 1_555
O9 V3 2.000644 1_555
O10 V1 1.947930 1_555
O10 O13 2.615176 1_554
O11 V2 1.888191 1_555
O12 V0 1.930730 1_555
O12 V3 2.185534 1_565
O13 V1 1.982489 1_556
O13 V2 2.391686 1_565
O13 O15 2.586095 1_555
O14 V3 2.008576 1_555
O14 V0 2.091909 1_555
O15 V0 1.734406 1_555
O15 O6 2.373953 1_655
