# generated using pymatgen
data_TlS
_symmetry_space_group_name_H-M   'P 1'
_cell_length_a   7.19127000
_cell_length_b   7.19127000
_cell_length_c   7.19127000
_cell_angle_alpha   90.00000000
_cell_angle_beta   90.00000000
_cell_angle_gamma   90.00000000
_symmetry_Int_Tables_number   1
_chemical_formula_structural   TlS
_chemical_formula_sum   'Tl8 S8'
_cell_volume   371.89195593
_cell_formula_units_Z   8
loop_
 _symmetry_equiv_pos_site_id
 _symmetry_equiv_pos_as_xyz
  1  'x, y, z'
loop_
 _atom_site_type_symbol
 _atom_site_label
 _atom_site_symmetry_multiplicity
 _atom_site_fract_x
 _atom_site_fract_y
 _atom_site_fract_z
 _atom_site_occupancy
  Tl  Tl0_0  1  0.25000000  0.25000000  0.25000000  1
  Tl  Tl0_1  1  0.25000000  0.25000000  0.75000000  1
  Tl  Tl0_2  1  0.25000000  0.75000000  0.25000000  1
  Tl  Tl0_3  1  0.25000000  0.75000000  0.75000000  1
  Tl  Tl0_4  1  0.75000000  0.25000000  0.25000000  1
  Tl  Tl0_5  1  0.75000000  0.25000000  0.75000000  1
  Tl  Tl0_6  1  0.75000000  0.75000000  0.25000000  1
  Tl  Tl0_7  1  0.75000000  0.75000000  0.75000000  1
  S  S0_0  1  0.00000000  0.00000000  0.00000000  1
  S  S0_1  1  0.00000000  0.00000000  0.50000000  1
  S  S0_2  1  0.00000000  0.50000000  0.00000000  1
  S  S0_3  1  0.00000000  0.50000000  0.50000000  1
  S  S0_4  1  0.50000000  0.00000000  0.00000000  1
  S  S0_5  1  0.50000000  0.00000000  0.50000000  1
  S  S0_6  1  0.50000000  0.50000000  0.00000000  1
  S  S0_7  1  0.50000000  0.50000000  0.50000000  1
loop_
_geom_bond_atom_site_label_1
_geom_bond_atom_site_label_2
_geom_bond_distance
_geom_bond_site_symmetry_2
Tl0_0 Tl0_2 3.595635 1_545
Tl0_0 Tl0_4 3.595635 1_455
Tl0_0 Tl0_1 3.595635 1_554
Tl0_0 Tl0_4 3.595635 1_555
Tl0_0 Tl0_1 3.595635 1_555
Tl0_0 Tl0_2 3.595635 1_555
Tl0_1 Tl0_3 3.595635 1_545
Tl0_1 Tl0_5 3.595635 1_455
Tl0_1 Tl0_3 3.595635 1_555
Tl0_1 Tl0_5 3.595635 1_555
Tl0_2 Tl0_6 3.595635 1_455
Tl0_2 Tl0_3 3.595635 1_554
Tl0_2 Tl0_3 3.595635 1_555
Tl0_2 Tl0_6 3.595635 1_555
Tl0_3 Tl0_7 3.595635 1_455
Tl0_3 Tl0_7 3.595635 1_555
Tl0_4 Tl0_5 3.595635 1_554
Tl0_4 Tl0_6 3.595635 1_545
Tl0_4 Tl0_6 3.595635 1_555
Tl0_4 Tl0_5 3.595635 1_555
Tl0_5 Tl0_7 3.595635 1_545
Tl0_5 Tl0_7 3.595635 1_555
Tl0_6 Tl0_7 3.595635 1_554
Tl0_6 Tl0_7 3.595635 1_555
S0_0 Tl0_7 3.113911 1_444
S0_0 Tl0_3 3.113911 1_544
S0_0 Tl0_6 3.113911 1_445
S0_0 Tl0_5 3.113911 1_454
S0_0 Tl0_2 3.113911 1_545
S0_0 Tl0_4 3.113911 1_455
S0_0 Tl0_1 3.113911 1_554
S0_0 Tl0_0 3.113911 1_555
S0_0 S0_1 3.595635 1_555
S0_0 S0_4 3.595635 1_455
S0_0 S0_2 3.595635 1_545
S0_0 S0_4 3.595635 1_555
S0_0 S0_1 3.595635 1_554
S0_0 S0_2 3.595635 1_555
S0_1 Tl0_6 3.113911 1_445
S0_1 Tl0_7 3.113911 1_445
S0_1 Tl0_2 3.113911 1_545
S0_1 Tl0_4 3.113911 1_455
S0_1 Tl0_3 3.113911 1_545
S0_1 Tl0_5 3.113911 1_455
S0_1 Tl0_0 3.113911 1_555
S0_1 Tl0_1 3.113911 1_555
S0_1 S0_5 3.595635 1_555
S0_1 S0_3 3.595635 1_555
S0_1 S0_3 3.595635 1_545
S0_1 S0_5 3.595635 1_455
S0_2 Tl0_5 3.113911 1_454
S0_2 Tl0_4 3.113911 1_455
S0_2 Tl0_1 3.113911 1_554
S0_2 Tl0_7 3.113911 1_454
S0_2 Tl0_3 3.113911 1_554
S0_2 Tl0_6 3.113911 1_455
S0_2 Tl0_0 3.113911 1_555
S0_2 Tl0_2 3.113911 1_555
S0_2 S0_6 3.595635 1_455
S0_2 S0_6 3.595635 1_555
S0_2 S0_3 3.595635 1_555
S0_2 S0_3 3.595635 1_554
S0_3 Tl0_4 3.113911 1_455
S0_3 Tl0_5 3.113911 1_455
S0_3 Tl0_6 3.113911 1_455
S0_3 Tl0_0 3.113911 1_555
S0_3 Tl0_2 3.113911 1_555
S0_3 Tl0_7 3.113911 1_455
S0_3 Tl0_1 3.113911 1_555
S0_3 Tl0_3 3.113911 1_555
S0_3 S0_7 3.595635 1_455
S0_3 S0_7 3.595635 1_555
S0_4 Tl0_3 3.113911 1_544
S0_4 Tl0_2 3.113911 1_545
S0_4 Tl0_1 3.113911 1_554
S0_4 Tl0_6 3.113911 1_545
S0_4 Tl0_5 3.113911 1_554
S0_4 Tl0_7 3.113911 1_544
S0_4 Tl0_0 3.113911 1_555
S0_4 Tl0_4 3.113911 1_555
S0_4 S0_5 3.595635 1_555
S0_4 S0_6 3.595635 1_555
S0_4 S0_6 3.595635 1_545
S0_4 S0_5 3.595635 1_554
S0_5 Tl0_2 3.113911 1_545
S0_5 Tl0_6 3.113911 1_545
S0_5 Tl0_3 3.113911 1_545
S0_5 Tl0_0 3.113911 1_555
S0_5 Tl0_1 3.113911 1_555
S0_5 Tl0_7 3.113911 1_545
S0_5 Tl0_4 3.113911 1_555
S0_5 Tl0_5 3.113911 1_555
S0_5 S0_7 3.595635 1_545
S0_5 S0_7 3.595635 1_555
S0_6 Tl0_1 3.113911 1_554
S0_6 Tl0_5 3.113911 1_554
S0_6 Tl0_3 3.113911 1_554
S0_6 Tl0_0 3.113911 1_555
S0_6 Tl0_2 3.113911 1_555
S0_6 Tl0_7 3.113911 1_554
S0_6 Tl0_4 3.113911 1_555
S0_6 Tl0_6 3.113911 1_555
S0_6 S0_7 3.595635 1_555
S0_6 S0_7 3.595635 1_554
S0_7 Tl0_0 3.113911 1_555
S0_7 Tl0_2 3.113911 1_555
S0_7 Tl0_1 3.113911 1_555
S0_7 Tl0_4 3.113911 1_555
S0_7 Tl0_3 3.113911 1_555
S0_7 Tl0_6 3.113911 1_555
S0_7 Tl0_5 3.113911 1_555
S0_7 Tl0_7 3.113911 1_555
