# generated using pymatgen
data_Th2(CoAs)3
_symmetry_space_group_name_H-M   'P 1'
_cell_length_a   4.02492630
_cell_length_b   3.97774204
_cell_length_c   21.38782967
_cell_angle_alpha   89.92349592
_cell_angle_beta   40.61503898
_cell_angle_gamma   60.17682192
_symmetry_Int_Tables_number   1
_chemical_formula_structural   Th2(CoAs)3
_chemical_formula_sum   'Th2 Co3 As3'
_cell_volume   144.24074044
_cell_formula_units_Z   1
loop_
 _symmetry_equiv_pos_site_id
 _symmetry_equiv_pos_as_xyz
  1  'x, y, z'
loop_
 _atom_site_type_symbol
 _atom_site_label
 _atom_site_symmetry_multiplicity
 _atom_site_fract_x
 _atom_site_fract_y
 _atom_site_fract_z
 _atom_site_occupancy
  Th  Th0  1  0.34856200  0.58035500  0.77588700  1
  Th  Th1  1  0.65416300  0.41792500  0.22358300  1
  Co  Co0  1  0.84158400  0.32989100  0.06050000  1
  Co  Co1  1  0.15027200  0.67502800  0.94040700  1
  Co  Co2  1  0.50041300  0.49949600  0.50035300  1
  As  As0  1  0.31003800  0.59260900  0.41186000  1
  As  As1  1  0.69165700  0.40600100  0.58827900  1
  As  As2  1  0.50331200  0.49869500  0.99913100  1
loop_
_geom_bond_atom_site_label_1
_geom_bond_atom_site_label_2
_geom_bond_distance
_geom_bond_site_symmetry_2
Co0 Co1 2.620681 1_654
Co0 Co1 2.623010 1_644
Co0 Co1 2.637804 1_744
Co0 Th1 2.810085 1_465
Co0 Th1 2.856626 1_455
Co0 Th1 2.933191 1_555
Co0 Th0 2.956324 1_744
Co1 Th0 2.826689 1_645
Co1 Th0 2.866456 1_655
Co1 Th0 2.932787 1_555
Co1 Th1 2.941696 1_366
As0 Co2 2.484619 1_455
As0 Co2 2.485252 1_465
As0 Co2 2.494823 1_555
As0 As1 2.924928 1_455
As0 As1 2.943662 1_465
As0 As1 2.981798 1_365
As0 Th1 3.024748 1_645
As0 Th1 3.026633 1_655
As0 Th1 3.033007 1_555
As1 Co2 2.485622 1_555
As1 Co2 2.485867 1_655
As1 Co2 2.486825 1_645
As1 Th0 3.021718 1_555
As1 Th0 3.024215 1_465
As1 Th0 3.025141 1_455
As2 Co1 2.377466 1_645
As2 Co0 2.386074 1_466
As2 Co1 2.387278 1_655
As2 Co0 2.395082 1_456
As2 Co1 2.409236 1_555
As2 Co0 2.414298 1_556
As2 Th0 3.244287 1_745
As2 Th1 3.247058 1_366
As2 Th0 3.277166 1_645
As2 Th1 3.286872 1_466
As2 Th0 3.303171 1_655
As2 Th1 3.317876 1_456
