# generated using pymatgen
data_Mg3Si4
_symmetry_space_group_name_H-M   'P 1'
_cell_length_a   3.95887300
_cell_length_b   7.32078518
_cell_length_c   9.74712813
_cell_angle_alpha   100.70419614
_cell_angle_beta   99.31975743
_cell_angle_gamma   89.48113822
_symmetry_Int_Tables_number   1
_chemical_formula_structural   Mg3Si4
_chemical_formula_sum   'Mg6 Si8'
_cell_volume   273.84783752
_cell_formula_units_Z   2
loop_
 _symmetry_equiv_pos_site_id
 _symmetry_equiv_pos_as_xyz
  1  'x, y, z'
loop_
 _atom_site_type_symbol
 _atom_site_label
 _atom_site_symmetry_multiplicity
 _atom_site_fract_x
 _atom_site_fract_y
 _atom_site_fract_z
 _atom_site_occupancy
  Mg  Mg0  1  0.24407400  0.89658000  0.20622700  1
  Mg  Mg1  1  0.33651400  0.78876600  0.60368300  1
  Mg  Mg2  1  0.21521900  0.33128900  0.01855600  1
  Mg  Mg3  1  0.65621600  0.59940600  0.88348900  1
  Mg  Mg4  1  0.88619800  0.14647000  0.46218400  1
  Mg  Mg5  1  0.33435400  0.48005600  0.34574200  1
  Si  Si0  1  0.83019600  0.03366100  0.74641700  1
  Si  Si1  1  0.03867000  0.33746800  0.73991800  1
  Si  Si2  1  0.79902200  0.77506300  0.38250400  1
  Si  Si3  1  0.76008000  0.56744900  0.15842400  1
  Si  Si4  1  0.69197300  0.03365600  0.98473100  1
  Si  Si5  1  0.80011100  0.24346100  0.20466000  1
  Si  Si6  1  0.47687100  0.40884200  0.60938900  1
  Si  Si7  1  0.17070000  0.85796300  0.90082700  1
loop_
_geom_bond_atom_site_label_1
_geom_bond_atom_site_label_2
_geom_bond_distance
_geom_bond_site_symmetry_2
Mg0 Si2 2.807141 1_555
Mg0 Si2 2.902514 1_455
Mg0 Si7 2.904184 1_554
Mg0 Si3 3.011895 1_455
Mg0 Si5 3.076200 1_465
Mg0 Si4 3.111604 1_464
Mg0 Si3 3.161947 1_555
Mg0 Si4 3.299876 1_564
Mg0 Mg4 3.313708 1_465
Mg0 Si5 3.379522 1_565
Mg0 Mg4 3.516786 1_565
Mg1 Si0 2.688081 1_565
Mg1 Si2 2.761037 1_455
Mg1 Si6 2.840277 1_555
Mg1 Si0 3.013167 1_465
Mg1 Si7 3.023379 1_555
Mg1 Si2 3.034015 1_555
Mg1 Mg5 3.051463 1_555
Mg1 Mg3 3.349103 1_555
Mg1 Mg4 3.521163 1_465
Mg2 Si1 2.701300 1_554
Mg2 Si3 2.782076 1_555
Mg2 Si5 2.796871 1_455
Mg2 Si3 2.820972 1_455
Mg2 Si5 2.848054 1_555
Mg2 Si4 2.877299 1_554
Mg2 Si4 2.956516 1_454
Mg2 Mg5 3.132248 1_555
Mg2 Mg3 3.224954 1_554
Mg2 Mg3 3.228155 1_454
Mg3 Si7 2.688186 1_555
Mg3 Si3 2.698062 1_556
Mg3 Si1 2.750413 1_655
Mg3 Si7 2.756696 1_655
Mg3 Si6 2.758123 1_555
Mg3 Si1 3.097164 1_555
Mg3 Si4 3.146068 1_565
Mg4 Si2 2.694612 1_545
Mg4 Si5 2.702157 1_555
Mg4 Si1 2.779895 1_655
Mg4 Si6 2.836712 1_555
Mg4 Si6 3.031015 1_655
Mg4 Si0 3.075515 1_555
Mg4 Mg5 3.486375 1_555
Mg4 Mg5 3.487140 1_655
Mg5 Si6 2.686402 1_555
Mg5 Si5 2.757504 1_455
Mg5 Si2 2.783451 1_555
Mg5 Si3 2.823963 1_455
Mg5 Si3 2.834362 1_555
Mg5 Si5 2.858240 1_555
Mg5 Si2 3.026499 1_455
Si0 Si1 2.394646 1_655
Si0 Si7 2.401535 1_645
Si0 Si4 2.471218 1_555
Si1 Si6 2.424753 1_555
Si1 Si6 2.479458 1_455
Si2 Si3 2.401315 1_555
Si3 Si5 2.494195 1_555
Si4 Si5 2.372612 1_556
Si4 Si7 2.385902 1_545
Si4 Si7 2.445841 1_645
