# generated using pymatgen
data_LaH2SNO7
_symmetry_space_group_name_H-M   'P 1'
_cell_length_a   8.60322800
_cell_length_b   8.60322800
_cell_length_c   10.39135100
_cell_angle_alpha   90.00000000
_cell_angle_beta   90.00000000
_cell_angle_gamma   90.00000000
_symmetry_Int_Tables_number   1
_chemical_formula_structural   LaH2SNO7
_chemical_formula_sum   'La4 H8 S4 N4 O28'
_cell_volume   769.12137267
_cell_formula_units_Z   4
loop_
 _symmetry_equiv_pos_site_id
 _symmetry_equiv_pos_as_xyz
  1  'x, y, z'
loop_
 _atom_site_type_symbol
 _atom_site_label
 _atom_site_symmetry_multiplicity
 _atom_site_fract_x
 _atom_site_fract_y
 _atom_site_fract_z
 _atom_site_occupancy
  La  La0  1  0.17516900  0.63796400  0.04734100  1
  La  La1  1  0.36203600  0.17516900  0.29734100  1
  La  La2  1  0.82483100  0.36203600  0.54734100  1
  La  La3  1  0.63796400  0.82483100  0.79734100  1
  H  H0  1  0.36926400  0.58473100  0.28900200  1
  H  H1  1  0.32084800  0.89647200  0.58893200  1
  H  H2  1  0.63073600  0.41526900  0.78900200  1
  H  H3  1  0.67915200  0.10352800  0.08893200  1
  H  H4  1  0.89647200  0.67915200  0.33893200  1
  H  H5  1  0.41526900  0.36926400  0.53900200  1
  H  H6  1  0.58473100  0.63073600  0.03900200  1
  H  H7  1  0.10352800  0.32084800  0.83893200  1
  S  S0  1  0.75400800  0.15067900  0.28773600  1
  S  S1  1  0.15067900  0.24599200  0.03773600  1
  S  S2  1  0.24599200  0.84932100  0.78773600  1
  S  S3  1  0.84932100  0.75400800  0.53773600  1
  N  N0  1  0.93042800  0.12180500  0.78697700  1
  N  N1  1  0.12180500  0.06957200  0.53697700  1
  N  N2  1  0.87819500  0.93042800  0.03697700  1
  N  N3  1  0.06957200  0.87819500  0.28697700  1
  O  O0  1  0.38776700  0.42400900  0.35573800  1
  O  O1  1  0.13630700  0.37432800  0.14068300  1
  O  O2  1  0.74630400  0.97806100  0.99153800  1
  O  O3  1  0.57599100  0.38776700  0.60573800  1
  O  O4  1  0.17647800  0.69090600  0.81069200  1
  O  O5  1  0.42400900  0.61223300  0.10573800  1
  O  O6  1  0.82917400  0.05835600  0.71727400  1
  O  O7  1  0.82502800  0.63864100  0.41084000  1
  O  O8  1  0.94164400  0.82917400  0.96727400  1
  O  O9  1  0.36135900  0.82502800  0.66084000  1
  O  O10  1  0.30909400  0.17647800  0.06069200  1
  O  O11  1  0.32187200  0.36479100  0.47715700  1
  O  O12  1  0.69090600  0.82352200  0.56069200  1
  O  O13  1  0.61223300  0.57599100  0.85573800  1
  O  O14  1  0.36479100  0.67812800  0.22715700  1
  O  O15  1  0.62567200  0.13630700  0.39068300  1
  O  O16  1  0.97806100  0.25369600  0.74153800  1
  O  O17  1  0.05835600  0.17082600  0.46727400  1
  O  O18  1  0.63864100  0.17497200  0.16084000  1
  O  O19  1  0.67812800  0.63520900  0.97715700  1
  O  O20  1  0.25369600  0.02193900  0.49153800  1
  O  O21  1  0.37432800  0.86369300  0.89068300  1
  O  O22  1  0.86369300  0.62567200  0.64068300  1
  O  O23  1  0.17497200  0.36135900  0.91084000  1
  O  O24  1  0.02193900  0.74630400  0.24153800  1
  O  O25  1  0.63520900  0.32187200  0.72715700  1
  O  O26  1  0.82352200  0.30909400  0.31069200  1
  O  O27  1  0.17082600  0.94164400  0.21727400  1
loop_
_geom_bond_atom_site_label_1
_geom_bond_atom_site_label_2
_geom_bond_distance
_geom_bond_site_symmetry_2
La0 O5 2.236153 1_555
La0 O1 2.489368 1_555
La0 O4 2.500953 1_554
La0 O14 2.504425 1_555
La0 O24 2.584338 1_555
La0 O8 2.726663 1_454
La0 O23 2.770361 1_554
La0 O21 3.058946 1_554
La1 O0 2.236153 1_555
La1 O15 2.489368 1_555
La1 O10 2.500953 1_555
La1 O11 2.504425 1_555
La1 O20 2.584338 1_555
La1 O27 2.726663 1_545
La1 O18 2.770361 1_555
La1 O1 3.058946 1_555
La2 O3 2.236153 1_555
La2 O22 2.489368 1_555
La2 O26 2.500953 1_555
La2 O25 2.504425 1_555
La2 O16 2.584338 1_555
La2 O17 2.726663 1_655
La2 O7 2.770361 1_555
La2 O15 3.058946 1_555
La3 O13 2.236153 1_555
La3 O21 2.489368 1_555
La3 O12 2.500953 1_555
La3 O19 2.504425 1_555
La3 O2 2.584338 1_555
La3 O6 2.726663 1_565
La3 O9 2.770361 1_555
La3 O22 3.058946 1_555
H0 O14 1.029622 1_555
H0 O0 1.555052 1_555
H1 O9 1.028398 1_555
H1 O20 1.588449 1_565
H2 O25 1.029622 1_555
H2 O13 1.555052 1_555
H3 O18 1.028398 1_555
H3 O2 1.588449 1_544
H4 O7 1.028398 1_555
H4 O24 1.588449 1_655
H5 O11 1.029622 1_555
H5 O3 1.555052 1_555
H6 O19 1.029622 1_554
H6 O5 1.555052 1_555
H7 O23 1.028398 1_555
H7 O16 1.588449 1_455
N0 O6 1.257548 1_555
N0 O16 1.295530 1_555
N1 O17 1.257548 1_555
N1 O20 1.295530 1_555
N2 O8 1.257548 1_554
N2 O2 1.295530 1_554
N3 O27 1.257548 1_555
N3 O24 1.295530 1_555
O0 O11 1.474058 1_555
O1 S1 1.542309 1_555
O4 S2 1.507317 1_555
O7 S3 1.663597 1_555
O9 S2 1.663597 1_555
O10 S1 1.507317 1_555
O12 S3 1.507317 1_555
O13 O19 1.474058 1_555
O14 O5 1.474058 1_555
O15 S0 1.542309 1_555
O18 S0 1.663597 1_555
O21 S2 1.542309 1_555
O22 S3 1.542309 1_555
O23 S1 1.663597 1_556
O25 O3 1.474058 1_555
O26 S0 1.507317 1_555
