# generated using pymatgen
data_Mg6MoC
_symmetry_space_group_name_H-M   'P 1'
_cell_length_a   4.80177800
_cell_length_b   5.52541900
_cell_length_c   10.73386800
_cell_angle_alpha   90.00000000
_cell_angle_beta   90.00000000
_cell_angle_gamma   90.00000000
_symmetry_Int_Tables_number   1
_chemical_formula_structural   Mg6MoC
_chemical_formula_sum   'Mg12 Mo2 C2'
_cell_volume   284.78921893
_cell_formula_units_Z   2
loop_
 _symmetry_equiv_pos_site_id
 _symmetry_equiv_pos_as_xyz
  1  'x, y, z'
loop_
 _atom_site_type_symbol
 _atom_site_label
 _atom_site_symmetry_multiplicity
 _atom_site_fract_x
 _atom_site_fract_y
 _atom_site_fract_z
 _atom_site_occupancy
  Mg  Mg0  1  0.50000000  0.24942100  0.42663600  1
  Mg  Mg1  1  0.50000000  0.75057900  0.42663600  1
  Mg  Mg2  1  0.00000000  0.75528200  0.08058700  1
  Mg  Mg3  1  0.00000000  0.24471800  0.08058700  1
  Mg  Mg4  1  0.00000000  0.00000000  0.32445800  1
  Mg  Mg5  1  0.00000000  0.50000000  0.30887700  1
  Mg  Mg6  1  0.50000000  0.74942100  0.92663600  1
  Mg  Mg7  1  0.50000000  0.25057900  0.92663600  1
  Mg  Mg8  1  0.00000000  0.25528200  0.58058700  1
  Mg  Mg9  1  0.00000000  0.74471800  0.58058700  1
  Mg  Mg10  1  0.00000000  0.50000000  0.82445800  1
  Mg  Mg11  1  0.00000000  0.00000000  0.80887700  1
  Mo  Mo0  1  0.50000000  0.00000000  0.17966300  1
  Mo  Mo1  1  0.50000000  0.50000000  0.67966300  1
  C  C0  1  0.50000000  0.50000000  0.17255100  1
  C  C1  1  0.50000000  0.00000000  0.67255100  1
loop_
_geom_bond_atom_site_label_1
_geom_bond_atom_site_label_2
_geom_bond_distance
_geom_bond_site_symmetry_2
Mg0 Mg1 2.756311 1_545
Mg0 Mg1 2.769108 1_555
Mg0 Mg8 2.914797 1_555
Mg0 Mg8 2.914797 1_655
Mg0 Mg4 2.977663 1_655
Mg0 Mg4 2.977663 1_555
Mg0 Mo0 2.987806 1_555
Mg0 Mg5 3.046141 1_655
Mg0 Mg5 3.046141 1_555
Mg0 Mo1 3.048511 1_555
Mg1 Mg9 2.914797 1_555
Mg1 Mg9 2.914797 1_655
Mg1 Mg4 2.977663 1_565
Mg1 Mg4 2.977663 1_665
Mg1 Mo0 2.987806 1_565
Mg1 Mg5 3.046141 1_655
Mg1 Mg5 3.046141 1_555
Mg1 Mo1 3.048511 1_555
Mg2 Mg3 2.704339 1_565
Mg2 Mg3 2.821080 1_555
Mg2 Mg5 2.827411 1_555
Mg2 Mg6 2.914797 1_554
Mg2 Mg6 2.914797 1_454
Mg2 Mg4 2.946287 1_565
Mg2 Mo0 2.953573 1_565
Mg2 Mo0 2.953573 1_465
Mg3 Mg5 2.827411 1_555
Mg3 Mg7 2.914797 1_554
Mg3 Mg7 2.914797 1_454
Mg3 Mg4 2.946287 1_555
Mg3 Mo0 2.953573 1_455
Mg3 Mo0 2.953573 1_555
Mg4 Mg5 2.767767 1_545
Mg4 Mg5 2.767767 1_555
Mg4 Mo0 2.860042 1_555
Mg4 Mo0 2.860042 1_455
Mg4 Mg8 3.089988 1_555
Mg4 Mg9 3.089988 1_545
Mg5 Mg8 3.214705 1_555
Mg5 Mg9 3.214705 1_555
Mg6 Mg7 2.756311 1_555
Mg6 Mg7 2.769108 1_565
Mg6 Mo1 2.987806 1_555
Mg6 Mo0 3.048511 1_566
Mg7 Mo1 2.987806 1_555
Mg7 Mo0 3.048511 1_556
Mg8 Mg9 2.704339 1_555
Mg8 Mg9 2.821080 1_545
Mg8 Mo1 2.953573 1_455
Mg8 Mo1 2.953573 1_555
Mg9 Mo1 2.953573 1_455
Mg9 Mo1 2.953573 1_555
Mg10 Mg11 2.767767 1_555
Mg10 Mg11 2.767767 1_565
Mg10 Mo1 2.860042 1_455
Mg10 Mo1 2.860042 1_555
Mg10 Mg8 2.946287 1_555
Mg10 Mg9 2.946287 1_555
Mg10 Mg6 2.977663 1_455
Mg10 Mg6 2.977663 1_555
Mg10 Mg7 2.977663 1_455
Mg10 Mg7 2.977663 1_555
Mg10 Mg2 3.089988 1_556
Mg10 Mg3 3.089988 1_556
Mg11 Mg8 2.827411 1_555
Mg11 Mg9 2.827411 1_545
Mg11 Mg6 3.046141 1_445
Mg11 Mg7 3.046141 1_455
Mg11 Mg7 3.046141 1_555
Mg11 Mg6 3.046141 1_545
Mg11 Mg2 3.214705 1_546
Mg11 Mg3 3.214705 1_556
C0 Mo0 2.763764 1_565
C0 Mo0 2.763764 1_555
C0 Mg5 2.811677 1_655
C0 Mg5 2.811677 1_555
C0 Mg2 2.954372 1_555
C0 Mg2 2.954372 1_655
C0 Mg3 2.954372 1_555
C0 Mg3 2.954372 1_655
C0 Mg7 2.977734 1_554
C0 Mg6 2.977734 1_554
C0 Mg1 3.058633 1_555
C0 Mg0 3.058633 1_555
C1 Mo1 2.763764 1_555
C1 Mo1 2.763764 1_545
C1 Mg11 2.811677 1_655
C1 Mg11 2.811677 1_555
C1 Mg9 2.954372 1_645
C1 Mg8 2.954372 1_655
C1 Mg9 2.954372 1_545
C1 Mg8 2.954372 1_555
C1 Mg0 2.977734 1_555
C1 Mg1 2.977734 1_545
C1 Mg6 3.058633 1_545
C1 Mg7 3.058633 1_555
