# generated using pymatgen
data_U2TeSeS2
_symmetry_space_group_name_H-M   'P 1'
_cell_length_a   7.61068400
_cell_length_b   13.55582600
_cell_length_c   22.19760800
_cell_angle_alpha   90.00000000
_cell_angle_beta   90.00000000
_cell_angle_gamma   90.00000000
_symmetry_Int_Tables_number   1
_chemical_formula_structural   U2TeSeS2
_chemical_formula_sum   'U32 Te16 Se16 S32'
_cell_volume   2290.10741809
_cell_formula_units_Z   16
loop_
 _symmetry_equiv_pos_site_id
 _symmetry_equiv_pos_as_xyz
  1  'x, y, z'
loop_
 _atom_site_type_symbol
 _atom_site_label
 _atom_site_symmetry_multiplicity
 _atom_site_fract_x
 _atom_site_fract_y
 _atom_site_fract_z
 _atom_site_occupancy
  U  U0_0  1  0.37500000  0.09175150  0.33481500  1
  U  U0_1  1  0.37500000  0.09175150  0.83481500  1
  U  U0_2  1  0.37500000  0.59175150  0.33481500  1
  U  U0_3  1  0.37500000  0.59175150  0.83481500  1
  U  U0_4  1  0.87500000  0.09175150  0.33481500  1
  U  U0_5  1  0.87500000  0.09175150  0.83481500  1
  U  U0_6  1  0.87500000  0.59175150  0.33481500  1
  U  U0_7  1  0.87500000  0.59175150  0.83481500  1
  U  U1_0  1  0.37500000  0.34175150  0.41518500  1
  U  U1_1  1  0.37500000  0.34175150  0.91518500  1
  U  U1_2  1  0.37500000  0.84175150  0.41518500  1
  U  U1_3  1  0.37500000  0.84175150  0.91518500  1
  U  U1_4  1  0.87500000  0.34175150  0.41518500  1
  U  U1_5  1  0.87500000  0.34175150  0.91518500  1
  U  U1_6  1  0.87500000  0.84175150  0.41518500  1
  U  U1_7  1  0.87500000  0.84175150  0.91518500  1
  U  U2_0  1  0.12500000  0.39723400  0.17256200  1
  U  U2_1  1  0.12500000  0.39723400  0.67256200  1
  U  U2_2  1  0.12500000  0.89723400  0.17256200  1
  U  U2_3  1  0.12500000  0.89723400  0.67256200  1
  U  U2_4  1  0.62500000  0.39723400  0.17256200  1
  U  U2_5  1  0.62500000  0.39723400  0.67256200  1
  U  U2_6  1  0.62500000  0.89723400  0.17256200  1
  U  U2_7  1  0.62500000  0.89723400  0.67256200  1
  U  U3_0  1  0.12500000  0.14723400  0.07743800  1
  U  U3_1  1  0.12500000  0.14723400  0.57743800  1
  U  U3_2  1  0.12500000  0.64723400  0.07743800  1
  U  U3_3  1  0.12500000  0.64723400  0.57743800  1
  U  U3_4  1  0.62500000  0.14723400  0.07743800  1
  U  U3_5  1  0.62500000  0.14723400  0.57743800  1
  U  U3_6  1  0.62500000  0.64723400  0.07743800  1
  U  U3_7  1  0.62500000  0.64723400  0.57743800  1
  Te  Te0_0  1  0.12500000  0.12321350  0.22944300  1
  Te  Te0_1  1  0.12500000  0.12321350  0.72944300  1
  Te  Te0_2  1  0.12500000  0.62321350  0.22944300  1
  Te  Te0_3  1  0.12500000  0.62321350  0.72944300  1
  Te  Te0_4  1  0.62500000  0.12321350  0.22944300  1
  Te  Te0_5  1  0.62500000  0.12321350  0.72944300  1
  Te  Te0_6  1  0.62500000  0.62321350  0.22944300  1
  Te  Te0_7  1  0.62500000  0.62321350  0.72944300  1
  Te  Te1_0  1  0.12500000  0.37321350  0.02055700  1
  Te  Te1_1  1  0.12500000  0.37321350  0.52055700  1
  Te  Te1_2  1  0.12500000  0.87321350  0.02055700  1
  Te  Te1_3  1  0.12500000  0.87321350  0.52055700  1
  Te  Te1_4  1  0.62500000  0.37321350  0.02055700  1
  Te  Te1_5  1  0.62500000  0.37321350  0.52055700  1
  Te  Te1_6  1  0.62500000  0.87321350  0.02055700  1
  Te  Te1_7  1  0.62500000  0.87321350  0.52055700  1
  Se  Se0_0  1  0.37500000  0.39328050  0.26927850  1
  Se  Se0_1  1  0.37500000  0.39328050  0.76927850  1
  Se  Se0_2  1  0.37500000  0.89328050  0.26927850  1
  Se  Se0_3  1  0.37500000  0.89328050  0.76927850  1
  Se  Se0_4  1  0.87500000  0.39328050  0.26927850  1
  Se  Se0_5  1  0.87500000  0.39328050  0.76927850  1
  Se  Se0_6  1  0.87500000  0.89328050  0.26927850  1
  Se  Se0_7  1  0.87500000  0.89328050  0.76927850  1
  Se  Se1_0  1  0.37500000  0.14328050  0.48072150  1
  Se  Se1_1  1  0.37500000  0.14328050  0.98072150  1
  Se  Se1_2  1  0.37500000  0.64328050  0.48072150  1
  Se  Se1_3  1  0.37500000  0.64328050  0.98072150  1
  Se  Se1_4  1  0.87500000  0.14328050  0.48072150  1
  Se  Se1_5  1  0.87500000  0.14328050  0.98072150  1
  Se  Se1_6  1  0.87500000  0.64328050  0.48072150  1
  Se  Se1_7  1  0.87500000  0.64328050  0.98072150  1
  S  S0_0  1  0.37500000  0.01429650  0.11946600  1
  S  S0_1  1  0.37500000  0.01429650  0.61946600  1
  S  S0_2  1  0.37500000  0.51429650  0.11946600  1
  S  S0_3  1  0.37500000  0.51429650  0.61946600  1
  S  S0_4  1  0.87500000  0.01429650  0.11946600  1
  S  S0_5  1  0.87500000  0.01429650  0.61946600  1
  S  S0_6  1  0.87500000  0.51429650  0.11946600  1
  S  S0_7  1  0.87500000  0.51429650  0.61946600  1
  S  S1_0  1  0.37500000  0.26429650  0.13053400  1
  S  S1_1  1  0.37500000  0.26429650  0.63053400  1
  S  S1_2  1  0.37500000  0.76429650  0.13053400  1
  S  S1_3  1  0.37500000  0.76429650  0.63053400  1
  S  S1_4  1  0.87500000  0.26429650  0.13053400  1
  S  S1_5  1  0.87500000  0.26429650  0.63053400  1
  S  S1_6  1  0.87500000  0.76429650  0.13053400  1
  S  S1_7  1  0.87500000  0.76429650  0.63053400  1
  S  S2_0  1  0.12500000  0.48022400  0.38450900  1
  S  S2_1  1  0.12500000  0.48022400  0.88450900  1
  S  S2_2  1  0.12500000  0.98022400  0.38450900  1
  S  S2_3  1  0.12500000  0.98022400  0.88450900  1
  S  S2_4  1  0.62500000  0.48022400  0.38450900  1
  S  S2_5  1  0.62500000  0.48022400  0.88450900  1
  S  S2_6  1  0.62500000  0.98022400  0.38450900  1
  S  S2_7  1  0.62500000  0.98022400  0.88450900  1
  S  S3_0  1  0.12500000  0.23022400  0.36549100  1
  S  S3_1  1  0.12500000  0.23022400  0.86549100  1
  S  S3_2  1  0.12500000  0.73022400  0.36549100  1
  S  S3_3  1  0.12500000  0.73022400  0.86549100  1
  S  S3_4  1  0.62500000  0.23022400  0.36549100  1
  S  S3_5  1  0.62500000  0.23022400  0.86549100  1
  S  S3_6  1  0.62500000  0.73022400  0.36549100  1
  S  S3_7  1  0.62500000  0.73022400  0.86549100  1
loop_
_geom_bond_atom_site_label_1
_geom_bond_atom_site_label_2
_geom_bond_distance
_geom_bond_site_symmetry_2
Te0_0 U0_4 3.045161 1_455
Te0_0 U0_0 3.045161 1_555
Te0_0 U2_2 3.313346 1_545
Te0_0 U3_0 3.389823 1_555
Te0_0 Te0_4 3.805342 1_455
Te0_0 Te0_4 3.805342 1_555
Te0_1 U0_5 3.045161 1_455
Te0_1 U0_1 3.045161 1_555
Te0_1 U2_3 3.313346 1_545
Te0_1 U3_1 3.389823 1_555
Te0_1 Te0_5 3.805342 1_455
Te0_1 Te0_5 3.805342 1_555
Te0_2 U0_6 3.045161 1_455
Te0_2 U0_2 3.045161 1_555
Te0_2 U2_0 3.313346 1_555
Te0_2 U3_2 3.389823 1_555
Te0_2 Te0_6 3.805342 1_455
Te0_2 Te0_6 3.805342 1_555
Te0_3 U0_7 3.045161 1_455
Te0_3 U0_3 3.045161 1_555
Te0_3 U2_1 3.313346 1_555
Te0_3 U3_3 3.389823 1_555
Te0_3 Te0_7 3.805342 1_455
Te0_3 Te0_7 3.805342 1_555
Te0_4 U0_0 3.045161 1_555
Te0_4 U0_4 3.045161 1_555
Te0_4 U2_6 3.313346 1_545
Te0_4 U3_4 3.389823 1_555
Te0_5 U0_5 3.045161 1_555
Te0_5 U0_1 3.045161 1_555
Te0_5 U2_7 3.313346 1_545
Te0_5 U3_5 3.389823 1_555
Te0_6 U0_6 3.045161 1_555
Te0_6 U0_2 3.045161 1_555
Te0_6 U2_4 3.313346 1_555
Te0_6 U3_6 3.389823 1_555
Te0_7 U0_7 3.045161 1_555
Te0_7 U0_3 3.045161 1_555
Te0_7 U2_5 3.313346 1_555
Te0_7 U3_7 3.389823 1_555
Te1_0 U1_5 3.045161 1_454
Te1_0 U1_1 3.045161 1_554
Te1_0 U3_0 3.313346 1_555
Te1_0 U2_0 3.389823 1_555
Te1_0 Te1_4 3.805342 1_455
Te1_0 Te1_4 3.805342 1_555
Te1_1 U1_4 3.045161 1_455
Te1_1 U1_0 3.045161 1_555
Te1_1 U3_1 3.313346 1_555
Te1_1 U2_1 3.389823 1_555
Te1_1 Te1_5 3.805342 1_455
Te1_1 Te1_5 3.805342 1_555
Te1_2 U1_7 3.045161 1_454
Te1_2 U1_3 3.045161 1_554
Te1_2 U3_2 3.313346 1_555
Te1_2 U2_2 3.389823 1_555
Te1_2 Te1_6 3.805342 1_455
Te1_2 Te1_6 3.805342 1_555
Te1_3 U1_6 3.045161 1_455
Te1_3 U1_2 3.045161 1_555
Te1_3 U3_3 3.313346 1_555
Te1_3 U2_3 3.389823 1_555
Te1_3 Te1_7 3.805342 1_455
Te1_3 Te1_7 3.805342 1_555
Te1_4 U1_5 3.045161 1_554
Te1_4 U1_1 3.045161 1_554
Te1_4 U3_4 3.313346 1_555
Te1_4 U2_4 3.389823 1_555
Te1_5 U1_4 3.045161 1_555
Te1_5 U1_0 3.045161 1_555
Te1_5 U3_5 3.313346 1_555
Te1_5 U2_5 3.389823 1_555
Te1_6 U1_7 3.045161 1_554
Te1_6 U1_3 3.045161 1_554
Te1_6 U3_6 3.313346 1_555
Te1_6 U2_6 3.389823 1_555
Te1_7 U1_6 3.045161 1_555
Te1_7 U1_2 3.045161 1_555
Te1_7 U3_7 3.313346 1_555
Te1_7 U2_7 3.389823 1_555
Se0_0 U2_0 2.869164 1_555
Se0_0 U2_4 2.869164 1_555
Se0_0 U0_2 3.058556 1_555
Se0_0 U1_0 3.313245 1_555
Se0_0 Te0_6 3.757303 1_555
Se0_0 Te0_2 3.757303 1_555
Se0_0 Se0_4 3.805342 1_455
Se0_0 Se0_4 3.805342 1_555
Se0_1 U2_1 2.869164 1_555
Se0_1 U2_5 2.869164 1_555
Se0_1 U0_3 3.058556 1_555
Se0_1 U1_1 3.313245 1_555
Se0_1 Te0_3 3.757303 1_555
Se0_1 Te0_7 3.757303 1_555
Se0_1 Se0_5 3.805342 1_455
Se0_1 Se0_5 3.805342 1_555
Se0_2 U2_2 2.869164 1_555
Se0_2 U2_6 2.869164 1_555
Se0_2 U0_0 3.058556 1_565
Se0_2 U1_2 3.313245 1_555
Se0_2 Te0_4 3.757303 1_565
Se0_2 Te0_0 3.757303 1_565
Se0_2 Se0_6 3.805342 1_455
Se0_2 Se0_6 3.805342 1_555
Se0_3 U2_7 2.869164 1_555
Se0_3 U2_3 2.869164 1_555
Se0_3 U0_1 3.058556 1_565
Se0_3 U1_3 3.313245 1_555
Se0_3 Te0_5 3.757303 1_565
Se0_3 Te0_1 3.757303 1_565
Se0_3 Se0_7 3.805342 1_455
Se0_3 Se0_7 3.805342 1_555
Se0_4 U2_0 2.869164 1_655
Se0_4 U2_4 2.869164 1_555
Se0_4 U0_6 3.058556 1_555
Se0_4 U1_4 3.313245 1_555
Se0_4 Te0_2 3.757303 1_655
Se0_4 Te0_6 3.757303 1_555
Se0_5 U2_1 2.869164 1_655
Se0_5 U2_5 2.869164 1_555
Se0_5 U0_7 3.058556 1_555
Se0_5 U1_5 3.313245 1_555
Se0_5 Te0_3 3.757303 1_655
Se0_5 Te0_7 3.757303 1_555
Se0_6 U2_2 2.869164 1_655
Se0_6 U2_6 2.869164 1_555
Se0_6 U0_4 3.058556 1_565
Se0_6 U1_6 3.313245 1_555
Se0_6 Te0_0 3.757303 1_665
Se0_6 Te0_4 3.757303 1_565
Se0_7 U2_3 2.869164 1_655
Se0_7 U2_7 2.869164 1_555
Se0_7 U0_5 3.058556 1_565
Se0_7 U1_7 3.313245 1_555
Se0_7 Te0_1 3.757303 1_665
Se0_7 Te0_5 3.757303 1_565
Se1_0 U3_1 2.869164 1_555
Se1_0 U3_5 2.869164 1_555
Se1_0 U1_0 3.058556 1_555
Se1_0 U0_0 3.313245 1_555
Se1_0 Te1_1 3.757303 1_555
Se1_0 Te1_5 3.757303 1_555
Se1_0 Se1_4 3.805342 1_455
Se1_0 Se1_4 3.805342 1_555
Se1_1 U3_0 2.869164 1_556
Se1_1 U3_4 2.869164 1_556
Se1_1 U1_1 3.058556 1_555
Se1_1 U0_1 3.313245 1_555
Se1_1 Te1_0 3.757303 1_556
Se1_1 Te1_4 3.757303 1_556
Se1_1 Se1_5 3.805342 1_455
Se1_1 Se1_5 3.805342 1_555
Se1_2 U3_3 2.869164 1_555
Se1_2 U3_7 2.869164 1_555
Se1_2 U1_2 3.058556 1_555
Se1_2 U0_2 3.313245 1_555
Se1_2 Te1_3 3.757303 1_555
Se1_2 Te1_7 3.757303 1_555
Se1_2 Se1_6 3.805342 1_455
Se1_2 Se1_6 3.805342 1_555
Se1_3 U3_2 2.869164 1_556
Se1_3 U3_6 2.869164 1_556
Se1_3 U1_3 3.058556 1_555
Se1_3 U0_3 3.313245 1_555
Se1_3 Te1_2 3.757303 1_556
Se1_3 Te1_6 3.757303 1_556
Se1_3 Se1_7 3.805342 1_455
Se1_3 Se1_7 3.805342 1_555
Se1_4 U3_1 2.869164 1_655
Se1_4 U3_5 2.869164 1_555
Se1_4 U1_4 3.058556 1_555
Se1_4 U0_4 3.313245 1_555
Se1_4 Te1_1 3.757303 1_655
Se1_4 Te1_5 3.757303 1_555
Se1_5 U3_0 2.869164 1_656
Se1_5 U3_4 2.869164 1_556
Se1_5 U1_5 3.058556 1_555
Se1_5 U0_5 3.313245 1_555
Se1_5 Te1_0 3.757303 1_656
Se1_5 Te1_4 3.757303 1_556
Se1_6 U3_3 2.869164 1_655
Se1_6 U3_7 2.869164 1_555
Se1_6 U1_6 3.058556 1_555
Se1_6 U0_6 3.313245 1_555
Se1_6 Te1_3 3.757303 1_655
Se1_6 Te1_7 3.757303 1_555
Se1_7 U3_2 2.869164 1_656
Se1_7 U3_6 2.869164 1_556
Se1_7 U1_7 3.058556 1_555
Se1_7 U0_7 3.313245 1_555
Se1_7 Te1_2 3.757303 1_656
Se1_7 Te1_6 3.757303 1_556
S0_0 U2_2 2.743620 1_545
S0_0 U2_6 2.743620 1_545
S0_0 U3_4 2.781723 1_555
S0_0 U3_0 2.781723 1_555
S0_0 S1_0 3.397850 1_555
S0_0 S1_2 3.397850 1_545
S0_0 Te0_4 3.429239 1_555
S0_0 Te0_0 3.429239 1_555
S0_0 Te1_2 3.478248 1_545
S0_0 Te1_6 3.478248 1_545
S0_0 Se1_1 3.541517 1_554
S0_1 U2_3 2.743620 1_545
S0_1 U2_7 2.743620 1_545
S0_1 U3_1 2.781723 1_555
S0_1 U3_5 2.781723 1_555
S0_1 S1_1 3.397850 1_555
S0_1 S1_3 3.397850 1_545
S0_1 Te0_5 3.429239 1_555
S0_1 Te0_1 3.429239 1_555
S0_1 Te1_7 3.478248 1_545
S0_1 Te1_3 3.478248 1_545
S0_1 Se1_0 3.541517 1_555
S0_2 U2_4 2.743620 1_555
S0_2 U2_0 2.743620 1_555
S0_2 U3_2 2.781723 1_555
S0_2 U3_6 2.781723 1_555
S0_2 S1_2 3.397850 1_555
S0_2 S1_0 3.397850 1_555
S0_2 Te0_2 3.429239 1_555
S0_2 Te0_6 3.429239 1_555
S0_2 Te1_0 3.478248 1_555
S0_2 Te1_4 3.478248 1_555
S0_2 Se1_3 3.541517 1_554
S0_3 U2_1 2.743620 1_555
S0_3 U2_5 2.743620 1_555
S0_3 U3_3 2.781723 1_555
S0_3 U3_7 2.781723 1_555
S0_3 S1_3 3.397850 1_555
S0_3 S1_1 3.397850 1_555
S0_3 Te0_3 3.429239 1_555
S0_3 Te0_7 3.429239 1_555
S0_3 Te1_1 3.478248 1_555
S0_3 Te1_5 3.478248 1_555
S0_3 Se1_2 3.541517 1_555
S0_4 U2_2 2.743620 1_645
S0_4 U2_6 2.743620 1_545
S0_4 U3_0 2.781723 1_655
S0_4 U3_4 2.781723 1_555
S0_4 S1_4 3.397850 1_555
S0_4 S1_6 3.397850 1_545
S0_4 Te0_0 3.429239 1_655
S0_4 Te0_4 3.429239 1_555
S0_4 Te1_2 3.478248 1_645
S0_4 Te1_6 3.478248 1_545
S0_4 Se1_5 3.541517 1_554
S0_5 U2_3 2.743620 1_645
S0_5 U2_7 2.743620 1_545
S0_5 U3_1 2.781723 1_655
S0_5 U3_5 2.781723 1_555
S0_5 S1_5 3.397850 1_555
S0_5 S1_7 3.397850 1_545
S0_5 Te0_1 3.429239 1_655
S0_5 Te0_5 3.429239 1_555
S0_5 Te1_3 3.478248 1_645
S0_5 Te1_7 3.478248 1_545
S0_5 Se1_4 3.541517 1_555
S0_6 U2_0 2.743620 1_655
S0_6 U2_4 2.743620 1_555
S0_6 U3_2 2.781723 1_655
S0_6 U3_6 2.781723 1_555
S0_6 S1_6 3.397850 1_555
S0_6 S1_4 3.397850 1_555
S0_6 Te0_2 3.429239 1_655
S0_6 Te0_6 3.429239 1_555
S0_6 Te1_0 3.478248 1_655
S0_6 Te1_4 3.478248 1_555
S0_6 Se1_7 3.541517 1_554
S0_7 U2_1 2.743620 1_655
S0_7 U2_5 2.743620 1_555
S0_7 U3_3 2.781723 1_655
S0_7 U3_7 2.781723 1_555
S0_7 S1_7 3.397850 1_555
S0_7 S1_5 3.397850 1_555
S0_7 Te0_3 3.429239 1_655
S0_7 Te0_7 3.429239 1_555
S0_7 Te1_1 3.478248 1_655
S0_7 Te1_5 3.478248 1_555
S0_7 Se1_6 3.541517 1_555
S1_0 U3_4 2.743620 1_555
S1_0 U3_0 2.743620 1_555
S1_0 U2_0 2.781723 1_555
S1_0 U2_4 2.781723 1_555
S1_0 Te1_0 3.429239 1_555
S1_0 Te1_4 3.429239 1_555
S1_0 Te0_4 3.478248 1_555
S1_0 Te0_0 3.478248 1_555
S1_0 Se0_0 3.541517 1_555
S1_1 U3_1 2.743620 1_555
S1_1 U3_5 2.743620 1_555
S1_1 U2_1 2.781723 1_555
S1_1 U2_5 2.781723 1_555
S1_1 Te1_1 3.429239 1_555
S1_1 Te1_5 3.429239 1_555
S1_1 Te0_1 3.478248 1_555
S1_1 Te0_5 3.478248 1_555
S1_1 Se0_1 3.541517 1_555
S1_2 U3_2 2.743620 1_555
S1_2 U3_6 2.743620 1_555
S1_2 U2_2 2.781723 1_555
S1_2 U2_6 2.781723 1_555
S1_2 Te1_6 3.429239 1_555
S1_2 Te1_2 3.429239 1_555
S1_2 Te0_6 3.478248 1_555
S1_2 Te0_2 3.478248 1_555
S1_2 Se0_2 3.541517 1_555
S1_3 U3_3 2.743620 1_555
S1_3 U3_7 2.743620 1_555
S1_3 U2_7 2.781723 1_555
S1_3 U2_3 2.781723 1_555
S1_3 Te1_3 3.429239 1_555
S1_3 Te1_7 3.429239 1_555
S1_3 Te0_3 3.478248 1_555
S1_3 Te0_7 3.478248 1_555
S1_3 Se0_3 3.541517 1_555
S1_4 U3_0 2.743620 1_655
S1_4 U3_4 2.743620 1_555
S1_4 U2_0 2.781723 1_655
S1_4 U2_4 2.781723 1_555
S1_4 Te1_0 3.429239 1_655
S1_4 Te1_4 3.429239 1_555
S1_4 Te0_0 3.478248 1_655
S1_4 Te0_4 3.478248 1_555
S1_4 Se0_4 3.541517 1_555
S1_5 U3_1 2.743620 1_655
S1_5 U3_5 2.743620 1_555
S1_5 U2_1 2.781723 1_655
S1_5 U2_5 2.781723 1_555
S1_5 Te1_1 3.429239 1_655
S1_5 Te1_5 3.429239 1_555
S1_5 Te0_1 3.478248 1_655
S1_5 Te0_5 3.478248 1_555
S1_5 Se0_5 3.541517 1_555
S1_6 U3_2 2.743620 1_655
S1_6 U3_6 2.743620 1_555
S1_6 U2_2 2.781723 1_655
S1_6 U2_6 2.781723 1_555
S1_6 Te1_2 3.429239 1_655
S1_6 Te1_6 3.429239 1_555
S1_6 Te0_2 3.478248 1_655
S1_6 Te0_6 3.478248 1_555
S1_6 Se0_6 3.541517 1_555
S1_7 U3_3 2.743620 1_655
S1_7 U3_7 2.743620 1_555
S1_7 U2_3 2.781723 1_655
S1_7 U2_7 2.781723 1_555
S1_7 Te1_3 3.429239 1_655
S1_7 Te1_7 3.429239 1_555
S1_7 Te0_3 3.478248 1_655
S1_7 Te0_7 3.478248 1_555
S1_7 Se0_7 3.541517 1_555
S2_0 U0_6 2.668828 1_455
S2_0 U0_2 2.668828 1_555
S2_0 U1_4 2.758145 1_455
S2_0 U1_0 2.758145 1_555
S2_0 Te1_1 3.350272 1_555
S2_0 Se0_4 3.398792 1_455
S2_0 Se0_0 3.398792 1_555
S2_0 Se1_6 3.614835 1_455
S2_0 Se1_2 3.614835 1_555
S2_1 U0_7 2.668828 1_455
S2_1 U0_3 2.668828 1_555
S2_1 U1_5 2.758145 1_455
S2_1 U1_1 2.758145 1_555
S2_1 Te1_0 3.350272 1_556
S2_1 Se0_5 3.398792 1_455
S2_1 Se0_1 3.398792 1_555
S2_1 Se1_7 3.614835 1_455
S2_1 Se1_3 3.614835 1_555
S2_2 U0_4 2.668828 1_465
S2_2 U0_0 2.668828 1_565
S2_2 U1_6 2.758145 1_455
S2_2 U1_2 2.758145 1_555
S2_2 Te1_3 3.350272 1_555
S2_2 Se0_6 3.398792 1_455
S2_2 Se0_2 3.398792 1_555
S2_2 Se1_4 3.614835 1_465
S2_2 Se1_0 3.614835 1_565
S2_3 U0_5 2.668828 1_465
S2_3 U0_1 2.668828 1_565
S2_3 U1_7 2.758145 1_455
S2_3 U1_3 2.758145 1_555
S2_3 Te1_2 3.350272 1_556
S2_3 Se0_7 3.398792 1_455
S2_3 Se0_3 3.398792 1_555
S2_3 Se1_5 3.614835 1_465
S2_3 Se1_1 3.614835 1_565
S2_4 U0_6 2.668828 1_555
S2_4 U0_2 2.668828 1_555
S2_4 U1_4 2.758145 1_555
S2_4 U1_0 2.758145 1_555
S2_4 Te1_5 3.350272 1_555
S2_4 Se0_4 3.398792 1_555
S2_4 Se0_0 3.398792 1_555
S2_4 Se1_2 3.614835 1_555
S2_4 Se1_6 3.614835 1_555
S2_5 U0_7 2.668828 1_555
S2_5 U0_3 2.668828 1_555
S2_5 U1_5 2.758145 1_555
S2_5 U1_1 2.758145 1_555
S2_5 Te1_4 3.350272 1_556
S2_5 Se0_5 3.398792 1_555
S2_5 Se0_1 3.398792 1_555
S2_5 Se1_7 3.614835 1_555
S2_5 Se1_3 3.614835 1_555
S2_6 U0_4 2.668828 1_565
S2_6 U0_0 2.668828 1_565
S2_6 U1_6 2.758145 1_555
S2_6 U1_2 2.758145 1_555
S2_6 Te1_7 3.350272 1_555
S2_6 Se0_2 3.398792 1_555
S2_6 Se0_6 3.398792 1_555
S2_6 Se1_0 3.614835 1_565
S2_6 Se1_4 3.614835 1_565
S2_7 U0_5 2.668828 1_565
S2_7 U0_1 2.668828 1_565
S2_7 U1_7 2.758145 1_555
S2_7 U1_3 2.758145 1_555
S2_7 Te1_6 3.350272 1_556
S2_7 Se0_3 3.398792 1_555
S2_7 Se0_7 3.398792 1_555
S2_7 Se1_5 3.614835 1_565
S2_7 Se1_1 3.614835 1_565
S3_0 U1_4 2.668828 1_455
S3_0 U1_0 2.668828 1_555
S3_0 U0_4 2.758145 1_455
S3_0 U0_0 2.758145 1_555
S3_0 Te0_0 3.350272 1_555
S3_0 Se1_4 3.398792 1_455
S3_0 Se1_0 3.398792 1_555
S3_0 Se0_4 3.614835 1_455
S3_0 Se0_0 3.614835 1_555
S3_1 U1_5 2.668828 1_455
S3_1 U1_1 2.668828 1_555
S3_1 U0_5 2.758145 1_455
S3_1 U0_1 2.758145 1_555
S3_1 Te0_1 3.350272 1_555
S3_1 Se1_5 3.398792 1_455
S3_1 Se1_1 3.398792 1_555
S3_1 Se0_5 3.614835 1_455
S3_1 Se0_1 3.614835 1_555
S3_2 U1_6 2.668828 1_455
S3_2 U1_2 2.668828 1_555
S3_2 U0_6 2.758145 1_455
S3_2 U0_2 2.758145 1_555
S3_2 Te0_2 3.350272 1_555
S3_2 Se1_6 3.398792 1_455
S3_2 Se1_2 3.398792 1_555
S3_2 Se0_6 3.614835 1_455
S3_2 Se0_2 3.614835 1_555
S3_3 U1_7 2.668828 1_455
S3_3 U1_3 2.668828 1_555
S3_3 U0_7 2.758145 1_455
S3_3 U0_3 2.758145 1_555
S3_3 Te0_3 3.350272 1_555
S3_3 Se1_7 3.398792 1_455
S3_3 Se1_3 3.398792 1_555
S3_3 Se0_7 3.614835 1_455
S3_3 Se0_3 3.614835 1_555
S3_4 U1_0 2.668828 1_555
S3_4 U1_4 2.668828 1_555
S3_4 U0_4 2.758145 1_555
S3_4 U0_0 2.758145 1_555
S3_4 Te0_4 3.350272 1_555
S3_4 Se1_0 3.398792 1_555
S3_4 Se1_4 3.398792 1_555
S3_4 Se0_4 3.614835 1_555
S3_4 Se0_0 3.614835 1_555
S3_5 U1_1 2.668828 1_555
S3_5 U1_5 2.668828 1_555
S3_5 U0_5 2.758145 1_555
S3_5 U0_1 2.758145 1_555
S3_5 Te0_5 3.350272 1_555
S3_5 Se1_5 3.398792 1_555
S3_5 Se1_1 3.398792 1_555
S3_5 Se0_5 3.614835 1_555
S3_5 Se0_1 3.614835 1_555
S3_6 U1_6 2.668828 1_555
S3_6 U1_2 2.668828 1_555
S3_6 U0_6 2.758145 1_555
S3_6 U0_2 2.758145 1_555
S3_6 Te0_6 3.350272 1_555
S3_6 Se1_6 3.398792 1_555
S3_6 Se1_2 3.398792 1_555
S3_6 Se0_6 3.614835 1_555
S3_6 Se0_2 3.614835 1_555
S3_7 U1_7 2.668828 1_555
S3_7 U1_3 2.668828 1_555
S3_7 U0_7 2.758145 1_555
S3_7 U0_3 2.758145 1_555
S3_7 Te0_7 3.350272 1_555
S3_7 Se1_7 3.398792 1_555
S3_7 Se1_3 3.398792 1_555
S3_7 Se0_7 3.614835 1_555
S3_7 Se0_3 3.614835 1_555
