# generated using pymatgen
data_SmU2Se5
_symmetry_space_group_name_H-M   'P 1'
_cell_length_a   7.80654600
_cell_length_b   8.25330200
_cell_length_c   12.44249600
_cell_angle_alpha   90.00000000
_cell_angle_beta   90.00000000
_cell_angle_gamma   90.00000000
_symmetry_Int_Tables_number   1
_chemical_formula_structural   SmU2Se5
_chemical_formula_sum   'Sm4 U8 Se20'
_cell_volume   801.66730127
_cell_formula_units_Z   4
loop_
 _symmetry_equiv_pos_site_id
 _symmetry_equiv_pos_as_xyz
  1  'x, y, z'
loop_
 _atom_site_type_symbol
 _atom_site_label
 _atom_site_symmetry_multiplicity
 _atom_site_fract_x
 _atom_site_fract_y
 _atom_site_fract_z
 _atom_site_occupancy
  Sm  Sm0  1  0.91867400  0.75000000  0.99443000  1
  Sm  Sm1  1  0.08132600  0.25000000  0.00557000  1
  Sm  Sm2  1  0.41867400  0.25000000  0.50557000  1
  Sm  Sm3  1  0.58132600  0.75000000  0.49443000  1
  U  U0  1  0.98607600  0.00022600  0.68126600  1
  U  U1  1  0.01392400  0.99977400  0.31873400  1
  U  U2  1  0.48607600  0.99977400  0.81873400  1
  U  U3  1  0.01392400  0.50022600  0.31873400  1
  U  U4  1  0.51392400  0.00022600  0.18126600  1
  U  U5  1  0.98607600  0.49977400  0.68126600  1
  U  U6  1  0.51392400  0.49977400  0.18126600  1
  U  U7  1  0.48607600  0.50022600  0.81873400  1
  Se  Se0  1  0.70408800  0.75000000  0.71673200  1
  Se  Se1  1  0.29591200  0.25000000  0.28326800  1
  Se  Se2  1  0.20408800  0.25000000  0.78326800  1
  Se  Se3  1  0.79591200  0.75000000  0.21673200  1
  Se  Se4  1  0.17563700  0.75000000  0.81541900  1
  Se  Se5  1  0.82436300  0.25000000  0.18458100  1
  Se  Se6  1  0.67563700  0.25000000  0.68458100  1
  Se  Se7  1  0.32436300  0.75000000  0.31541900  1
  Se  Se8  1  0.52968500  0.75000000  0.00028400  1
  Se  Se9  1  0.47031500  0.25000000  0.99971600  1
  Se  Se10  1  0.02968500  0.25000000  0.49971600  1
  Se  Se11  1  0.97031500  0.75000000  0.50028400  1
  Se  Se12  1  0.83477800  0.45556400  0.89301300  1
  Se  Se13  1  0.16522200  0.54443600  0.10698700  1
  Se  Se14  1  0.33477800  0.54443600  0.60698700  1
  Se  Se15  1  0.16522200  0.95556400  0.10698700  1
  Se  Se16  1  0.66522200  0.45556400  0.39301300  1
  Se  Se17  1  0.83477800  0.04443600  0.89301300  1
  Se  Se18  1  0.66522200  0.04443600  0.39301300  1
  Se  Se19  1  0.33477800  0.95556400  0.60698700  1
loop_
_geom_bond_atom_site_label_1
_geom_bond_atom_site_label_2
_geom_bond_distance
_geom_bond_site_symmetry_2
Se0 Sm3 2.927309 1_555
Se0 U2 2.959209 1_555
Se0 U7 2.959209 1_555
Se0 U5 3.050524 1_555
Se0 U0 3.050524 1_565
Se0 Se11 3.401832 1_555
Se0 Se17 3.428851 1_565
Se0 Se12 3.428851 1_555
Se0 Se19 3.613154 1_555
Se0 Se14 3.613154 1_555
Se1 Sm2 2.927309 1_555
Se1 U6 2.959209 1_555
Se1 U4 2.959209 1_555
Se1 U3 3.050524 1_555
Se1 U1 3.050524 1_545
Se1 Se10 3.401832 1_555
Se1 Se13 3.428851 1_555
Se1 Se15 3.428851 1_545
Se1 Se16 3.613154 1_555
Se1 Se18 3.613154 1_555
Se2 Sm1 2.927309 1_556
Se2 U0 2.959209 1_455
Se2 U5 2.959209 1_455
Se2 U7 3.050524 1_555
Se2 U2 3.050524 1_545
Se2 Se9 3.401832 1_555
Se3 Sm0 2.927309 1_554
Se3 U1 2.959209 1_655
Se3 U3 2.959209 1_655
Se3 U6 3.050524 1_555
Se3 U4 3.050524 1_565
Se3 Se8 3.401832 1_555
Se4 Sm0 2.997511 1_455
Se4 U5 3.039917 1_455
Se4 U0 3.039917 1_465
Se4 U2 3.181896 1_555
Se4 U7 3.181896 1_555
Se4 Se8 3.595822 1_556
Se5 Sm1 2.997511 1_655
Se5 U3 3.039917 1_655
Se5 U1 3.039917 1_645
Se5 U6 3.181896 1_555
Se5 U4 3.181896 1_555
Se5 Se9 3.595822 1_554
Se6 Sm2 2.997511 1_555
Se6 U7 3.039917 1_555
Se6 U2 3.039917 1_545
Se6 U5 3.181896 1_555
Se6 U0 3.181896 1_555
Se7 Sm3 2.997511 1_555
Se7 U6 3.039917 1_555
Se7 U4 3.039917 1_565
Se7 U1 3.181896 1_555
Se7 U3 3.181896 1_555
Se8 Sm0 3.037534 1_554
Se8 U6 3.057950 1_555
Se8 U4 3.057950 1_565
Se8 U2 3.077061 1_554
Se8 U7 3.077061 1_554
Se9 Sm1 3.037534 1_556
Se9 U7 3.057950 1_555
Se9 U2 3.057950 1_545
Se9 U6 3.077061 1_556
Se9 U4 3.077061 1_556
Se10 Sm2 3.037534 1_555
Se10 U3 3.057950 1_555
Se10 U1 3.057950 1_545
Se10 U5 3.077061 1_455
Se10 U0 3.077061 1_455
Se10 Se16 3.568781 1_455
Se10 Se18 3.568781 1_455
Se10 Se6 3.595822 1_455
Se10 Se14 3.655039 1_555
Se10 Se19 3.655039 1_545
Se11 Sm3 3.037534 1_555
Se11 U5 3.057950 1_555
Se11 U0 3.057950 1_565
Se11 U1 3.077061 1_655
Se11 U3 3.077061 1_655
Se11 Se19 3.568781 1_655
Se11 Se14 3.568781 1_655
Se11 Se7 3.595822 1_655
Se11 Se18 3.655039 1_565
Se11 Se16 3.655039 1_555
Se12 Sm0 2.815408 1_555
Se12 U7 2.898309 1_555
Se12 U5 2.910259 1_555
Se12 Sm1 2.923044 1_656
Se12 Se6 3.338802 1_555
Se12 Se17 3.393164 1_555
Se12 Se9 3.568781 1_555
Se12 Se2 3.613154 1_655
Se12 Se8 3.655039 1_556
Se13 Sm1 2.815408 1_555
Se13 U6 2.898309 1_555
Se13 U3 2.910259 1_555
Se13 Sm0 2.923044 1_454
Se13 Se7 3.338802 1_555
Se13 Se15 3.393164 1_555
Se13 Se8 3.568781 1_555
Se13 Se3 3.613154 1_455
Se13 Se9 3.655039 1_554
Se14 Sm2 2.815408 1_555
Se14 U5 2.898309 1_455
Se14 U7 2.910259 1_555
Se14 Sm3 2.923044 1_555
Se14 Se4 3.338802 1_555
Se14 Se19 3.393164 1_555
Se14 Se2 3.428851 1_555
Se15 Sm1 2.815408 1_565
Se15 U4 2.898309 1_565
Se15 U1 2.910259 1_555
Se15 Sm0 2.923044 1_454
Se15 Se7 3.338802 1_555
Se15 Se8 3.568781 1_555
Se15 Se3 3.613154 1_455
Se15 Se9 3.655039 1_564
Se16 Sm3 2.815408 1_555
Se16 U3 2.898309 1_655
Se16 U6 2.910259 1_555
Se16 Sm2 2.923044 1_555
Se16 Se5 3.338802 1_555
Se16 Se18 3.393164 1_555
Se16 Se3 3.428851 1_555
Se17 Sm0 2.815408 1_545
Se17 U2 2.898309 1_545
Se17 U0 2.910259 1_555
Se17 Sm1 2.923044 1_656
Se17 Se6 3.338802 1_555
Se17 Se9 3.568781 1_555
Se17 Se2 3.613154 1_655
Se17 Se8 3.655039 1_546
Se18 Sm3 2.815408 1_545
Se18 U1 2.898309 1_645
Se18 U4 2.910259 1_555
Se18 Sm2 2.923044 1_555
Se18 Se5 3.338802 1_555
Se18 Se3 3.428851 1_545
Se19 Sm2 2.815408 1_565
Se19 U0 2.898309 1_465
Se19 U2 2.910259 1_555
Se19 Sm3 2.923044 1_555
Se19 Se4 3.338802 1_555
Se19 Se2 3.428851 1_565
