# generated using pymatgen
data_Sc3RhC4
_symmetry_space_group_name_H-M   'P 1'
_cell_length_a   6.73206339
_cell_length_b   6.73206339
_cell_length_c   6.73206339
_cell_angle_alpha   150.68712403
_cell_angle_beta   141.20511513
_cell_angle_gamma   49.35629668
_symmetry_Int_Tables_number   1
_chemical_formula_structural   Sc3RhC4
_chemical_formula_sum   'Sc3 Rh1 C4'
_cell_volume   93.18851553
_cell_formula_units_Z   1
loop_
 _symmetry_equiv_pos_site_id
 _symmetry_equiv_pos_as_xyz
  1  'x, y, z'
loop_
 _atom_site_type_symbol
 _atom_site_label
 _atom_site_symmetry_multiplicity
 _atom_site_fract_x
 _atom_site_fract_y
 _atom_site_fract_z
 _atom_site_occupancy
  Sc  Sc0  1  0.50000000  0.50000000  0.00000000  1
  Sc  Sc1  1  0.81099334  0.31099334  0.50000000  1
  Sc  Sc2  1  0.18900666  0.68900666  0.50000000  1
  Rh  Rh0  1  0.00000000  -0.00000000  0.00000000  1
  C  C0  1  0.21055364  0.87149475  0.33905889  1
  C  C1  1  0.78944636  0.12850525  0.66094111  1
  C  C2  1  0.46756415  0.12850525  0.33905889  1
  C  C3  1  0.53243585  0.87149475  0.66094111  1
loop_
_geom_bond_atom_site_label_1
_geom_bond_atom_site_label_2
_geom_bond_distance
_geom_bond_site_symmetry_2
Rh0 Sc0 2.810775 1_545
Rh0 Sc0 2.810775 1_455
Rh0 Sc0 2.810775 1_556
Rh0 Sc0 2.810775 1_444
Rh0 Sc2 2.872033 1_544
Rh0 Sc1 2.872033 1_455
Rh0 Sc2 2.872033 1_555
Rh0 Sc1 2.872033 1_444
C0 C3 1.439358 1_555
C0 Rh0 2.184155 1_565
C0 Sc2 2.345761 1_555
C0 Sc1 2.397520 1_454
C0 Sc1 2.397520 1_465
C0 Sc0 2.427170 1_566
C0 Sc0 2.427170 1_555
C1 C2 1.439358 1_555
C1 Rh0 2.184155 1_656
C1 Sc1 2.345761 1_555
C1 Sc2 2.397520 1_645
C1 Sc2 2.397520 1_656
C1 Sc0 2.427170 1_545
C1 Sc0 2.427170 1_556
C2 Rh0 2.184155 1_555
C2 Sc1 2.345761 1_555
C2 Sc2 2.397520 1_544
C2 Sc2 2.397520 1_555
C2 Sc0 2.427170 1_545
C2 Sc0 2.427170 1_556
C3 Rh0 2.184155 1_666
C3 Sc2 2.345761 1_555
C3 Sc1 2.397520 1_566
C3 Sc1 2.397520 1_555
C3 Sc0 2.427170 1_566
C3 Sc0 2.427170 1_555
