# generated using pymatgen
data_Sr2MgIrO6
_symmetry_space_group_name_H-M   'P 1'
_cell_length_a   5.63775247
_cell_length_b   5.63775247
_cell_length_c   5.63775247
_cell_angle_alpha   60.00000000
_cell_angle_beta   60.00000000
_cell_angle_gamma   60.00000000
_symmetry_Int_Tables_number   1
_chemical_formula_structural   Sr2MgIrO6
_chemical_formula_sum   'Sr2 Mg1 Ir1 O6'
_cell_volume   126.70770161
_cell_formula_units_Z   1
loop_
 _symmetry_equiv_pos_site_id
 _symmetry_equiv_pos_as_xyz
  1  'x, y, z'
loop_
 _atom_site_type_symbol
 _atom_site_label
 _atom_site_symmetry_multiplicity
 _atom_site_fract_x
 _atom_site_fract_y
 _atom_site_fract_z
 _atom_site_occupancy
  Sr  Sr0  1  0.25000000  0.25000000  0.25000000  1
  Sr  Sr1  1  0.75000000  0.75000000  0.75000000  1
  Mg  Mg0  1  0.00000000  0.00000000  0.00000000  1
  Ir  Ir0  1  0.50000000  0.50000000  0.50000000  1
  O  O0  1  0.74382800  0.25617200  0.25617200  1
  O  O1  1  0.25617200  0.74382800  0.25617200  1
  O  O2  1  0.74382800  0.25617200  0.74382800  1
  O  O3  1  0.74382800  0.74382800  0.25617200  1
  O  O4  1  0.25617200  0.74382800  0.74382800  1
  O  O5  1  0.25617200  0.25617200  0.74382800  1
loop_
_geom_bond_atom_site_label_1
_geom_bond_atom_site_label_2
_geom_bond_distance
_geom_bond_site_symmetry_2
Mg0 O1 2.042456 1_545
Mg0 O0 2.042456 1_455
Mg0 O5 2.042456 1_554
Mg0 O2 2.042456 1_454
Mg0 O4 2.042456 1_544
Mg0 O3 2.042456 1_445
Ir0 O4 1.944037 1_555
Ir0 O3 1.944037 1_555
Ir0 O2 1.944037 1_555
Ir0 O0 1.944037 1_555
Ir0 O1 1.944037 1_555
Ir0 O5 1.944037 1_555
O0 Sr0 2.819306 1_555
O0 Sr1 2.819306 1_545
O0 Sr1 2.819306 1_554
O0 Sr0 2.819306 1_655
O1 Sr0 2.819306 1_555
O1 Sr1 2.819306 1_554
O1 Sr1 2.819306 1_455
O1 Sr0 2.819306 1_565
O2 Sr1 2.819306 1_545
O2 Sr0 2.819306 1_556
O2 Sr0 2.819306 1_655
O2 Sr1 2.819306 1_555
O3 Sr1 2.819306 1_554
O3 Sr0 2.819306 1_565
O3 Sr0 2.819306 1_655
O3 Sr1 2.819306 1_555
O4 Sr1 2.819306 1_455
O4 Sr0 2.819306 1_556
O4 Sr0 2.819306 1_565
O4 Sr1 2.819306 1_555
O5 Sr0 2.819306 1_555
O5 Sr1 2.819306 1_545
O5 Sr1 2.819306 1_455
O5 Sr0 2.819306 1_556
