# generated using pymatgen
data_Re3HgO9
_symmetry_space_group_name_H-M   'P 1'
_cell_length_a   14.87948921
_cell_length_b   14.87948921
_cell_length_c   7.57872600
_cell_angle_alpha   90.00000000
_cell_angle_beta   90.00000000
_cell_angle_gamma   120.00000538
_symmetry_Int_Tables_number   1
_chemical_formula_structural   Re3HgO9
_chemical_formula_sum   'Re24 Hg8 O72'
_cell_volume   1453.12461559
_cell_formula_units_Z   8
loop_
 _symmetry_equiv_pos_site_id
 _symmetry_equiv_pos_as_xyz
  1  'x, y, z'
loop_
 _atom_site_type_symbol
 _atom_site_label
 _atom_site_symmetry_multiplicity
 _atom_site_fract_x
 _atom_site_fract_y
 _atom_site_fract_z
 _atom_site_occupancy
  Re  Re0_0  1  0.25000000  0.25000000  0.24812500  1
  Re  Re0_1  1  0.25000000  0.25000000  0.74812500  1
  Re  Re0_2  1  0.25000000  0.75000000  0.24812500  1
  Re  Re0_3  1  0.25000000  0.75000000  0.74812500  1
  Re  Re0_4  1  0.75000000  0.25000000  0.24812500  1
  Re  Re0_5  1  0.75000000  0.25000000  0.74812500  1
  Re  Re0_6  1  0.75000000  0.75000000  0.24812500  1
  Re  Re0_7  1  0.75000000  0.75000000  0.74812500  1
  Re  Re1_0  1  0.25000000  0.00000000  0.24812500  1
  Re  Re1_1  1  0.25000000  0.00000000  0.74812500  1
  Re  Re1_2  1  0.25000000  0.50000000  0.24812500  1
  Re  Re1_3  1  0.25000000  0.50000000  0.74812500  1
  Re  Re1_4  1  0.75000000  0.00000000  0.24812500  1
  Re  Re1_5  1  0.75000000  0.00000000  0.74812500  1
  Re  Re1_6  1  0.75000000  0.50000000  0.24812500  1
  Re  Re1_7  1  0.75000000  0.50000000  0.74812500  1
  Re  Re2_0  1  0.00000000  0.25000000  0.24812500  1
  Re  Re2_1  1  0.00000000  0.25000000  0.74812500  1
  Re  Re2_2  1  1.00000000  0.75000000  0.24812500  1
  Re  Re2_3  1  1.00000000  0.75000000  0.74812500  1
  Re  Re2_4  1  0.50000000  0.25000000  0.24812500  1
  Re  Re2_5  1  0.50000000  0.25000000  0.74812500  1
  Re  Re2_6  1  0.50000000  0.75000000  0.24812500  1
  Re  Re2_7  1  0.50000000  0.75000000  0.74812500  1
  Hg  Hg0_0  1  0.00000000  0.00000000  0.37201800  1
  Hg  Hg0_1  1  0.00000000  0.00000000  0.87201800  1
  Hg  Hg0_2  1  1.00000000  0.50000000  0.37201800  1
  Hg  Hg0_3  1  1.00000000  0.50000000  0.87201800  1
  Hg  Hg0_4  1  0.50000000  0.00000000  0.37201800  1
  Hg  Hg0_5  1  0.50000000  0.00000000  0.87201800  1
  Hg  Hg0_6  1  0.50000000  0.50000000  0.37201800  1
  Hg  Hg0_7  1  0.50000000  0.50000000  0.87201800  1
  O  O0_0  1  0.28740500  0.39370250  0.25083350  1
  O  O0_1  1  0.28740500  0.39370250  0.75083350  1
  O  O0_2  1  0.28740500  0.89370250  0.25083350  1
  O  O0_3  1  0.28740500  0.89370250  0.75083350  1
  O  O0_4  1  0.78740500  0.39370250  0.25083350  1
  O  O0_5  1  0.78740500  0.39370250  0.75083350  1
  O  O0_6  1  0.78740500  0.89370250  0.25083350  1
  O  O0_7  1  0.78740500  0.89370250  0.75083350  1
  O  O1_0  1  0.10629750  0.39370250  0.25083350  1
  O  O1_1  1  0.10629750  0.39370250  0.75083350  1
  O  O1_2  1  0.10629750  0.89370250  0.25083350  1
  O  O1_3  1  0.10629750  0.89370250  0.75083350  1
  O  O1_4  1  0.60629750  0.39370250  0.25083350  1
  O  O1_5  1  0.60629750  0.39370250  0.75083350  1
  O  O1_6  1  0.60629750  0.89370250  0.25083350  1
  O  O1_7  1  0.60629750  0.89370250  0.75083350  1
  O  O2_0  1  0.10629750  0.21259500  0.25083350  1
  O  O2_1  1  0.10629750  0.21259500  0.75083350  1
  O  O2_2  1  0.10629750  0.71259500  0.25083350  1
  O  O2_3  1  0.10629750  0.71259500  0.75083350  1
  O  O2_4  1  0.60629750  0.21259500  0.25083350  1
  O  O2_5  1  0.60629750  0.21259500  0.75083350  1
  O  O2_6  1  0.60629750  0.71259500  0.25083350  1
  O  O2_7  1  0.60629750  0.71259500  0.75083350  1
  O  O3_0  1  0.39370250  0.28740500  0.25083350  1
  O  O3_1  1  0.39370250  0.28740500  0.75083350  1
  O  O3_2  1  0.39370250  0.78740500  0.25083350  1
  O  O3_3  1  0.39370250  0.78740500  0.75083350  1
  O  O3_4  1  0.89370250  0.28740500  0.25083350  1
  O  O3_5  1  0.89370250  0.28740500  0.75083350  1
  O  O3_6  1  0.89370250  0.78740500  0.25083350  1
  O  O3_7  1  0.89370250  0.78740500  0.75083350  1
  O  O4_0  1  0.39370250  0.10629750  0.25083350  1
  O  O4_1  1  0.39370250  0.10629750  0.75083350  1
  O  O4_2  1  0.39370250  0.60629750  0.25083350  1
  O  O4_3  1  0.39370250  0.60629750  0.75083350  1
  O  O4_4  1  0.89370250  0.10629750  0.25083350  1
  O  O4_5  1  0.89370250  0.10629750  0.75083350  1
  O  O4_6  1  0.89370250  0.60629750  0.25083350  1
  O  O4_7  1  0.89370250  0.60629750  0.75083350  1
  O  O5_0  1  0.21259500  0.10629750  0.25083350  1
  O  O5_1  1  0.21259500  0.10629750  0.75083350  1
  O  O5_2  1  0.21259500  0.60629750  0.25083350  1
  O  O5_3  1  0.21259500  0.60629750  0.75083350  1
  O  O5_4  1  0.71259500  0.10629750  0.25083350  1
  O  O5_5  1  0.71259500  0.10629750  0.75083350  1
  O  O5_6  1  0.71259500  0.60629750  0.25083350  1
  O  O5_7  1  0.71259500  0.60629750  0.75083350  1
  O  O6_0  1  0.25000000  0.25000000  0.49920150  1
  O  O6_1  1  0.25000000  0.25000000  0.99920150  1
  O  O6_2  1  0.25000000  0.75000000  0.49920150  1
  O  O6_3  1  0.25000000  0.75000000  0.99920150  1
  O  O6_4  1  0.75000000  0.25000000  0.49920150  1
  O  O6_5  1  0.75000000  0.25000000  0.99920150  1
  O  O6_6  1  0.75000000  0.75000000  0.49920150  1
  O  O6_7  1  0.75000000  0.75000000  0.99920150  1
  O  O7_0  1  0.25000000  0.00000000  0.49920150  1
  O  O7_1  1  0.25000000  0.00000000  0.99920150  1
  O  O7_2  1  0.25000000  0.50000000  0.49920150  1
  O  O7_3  1  0.25000000  0.50000000  0.99920150  1
  O  O7_4  1  0.75000000  0.00000000  0.49920150  1
  O  O7_5  1  0.75000000  0.00000000  0.99920150  1
  O  O7_6  1  0.75000000  0.50000000  0.49920150  1
  O  O7_7  1  0.75000000  0.50000000  0.99920150  1
  O  O8_0  1  0.00000000  0.25000000  0.49920150  1
  O  O8_1  1  0.00000000  0.25000000  0.99920150  1
  O  O8_2  1  1.00000000  0.75000000  0.49920150  1
  O  O8_3  1  1.00000000  0.75000000  0.99920150  1
  O  O8_4  1  0.50000000  0.25000000  0.49920150  1
  O  O8_5  1  0.50000000  0.25000000  0.99920150  1
  O  O8_6  1  0.50000000  0.75000000  0.49920150  1
  O  O8_7  1  0.50000000  0.75000000  0.99920150  1
loop_
_geom_bond_atom_site_label_1
_geom_bond_atom_site_label_2
_geom_bond_distance
_geom_bond_site_symmetry_2
Hg0_0 O5_0 2.889356 1_555
Hg0_0 O3_6 2.889356 1_445
Hg0_0 O2_0 2.889356 1_555
Hg0_0 O0_6 2.889356 1_445
Hg0_0 O1_2 2.889356 1_545
Hg0_0 O4_4 2.889356 1_455
Hg0_0 Hg0_1 3.789363 1_554
Hg0_0 Hg0_1 3.789363 1_555
Hg0_1 O5_1 2.889356 1_555
Hg0_1 O2_1 2.889356 1_555
Hg0_1 O3_7 2.889356 1_445
Hg0_1 O0_7 2.889356 1_445
Hg0_1 O1_3 2.889356 1_545
Hg0_1 O4_5 2.889356 1_455
Hg0_2 O3_4 2.889356 1_555
Hg0_2 O2_2 2.889356 1_655
Hg0_2 O0_4 2.889356 1_555
Hg0_2 O5_2 2.889356 1_655
Hg0_2 O4_6 2.889356 1_555
Hg0_2 O1_0 2.889356 1_655
Hg0_2 Hg0_3 3.789363 1_554
Hg0_2 Hg0_3 3.789363 1_555
Hg0_3 O5_3 2.889356 1_655
Hg0_3 O3_5 2.889356 1_555
Hg0_3 O0_5 2.889356 1_555
Hg0_3 O2_3 2.889356 1_655
Hg0_3 O1_1 2.889356 1_655
Hg0_3 O4_7 2.889356 1_555
Hg0_4 O2_4 2.889356 1_555
Hg0_4 O3_2 2.889356 1_545
Hg0_4 O0_2 2.889356 1_545
Hg0_4 O5_4 2.889356 1_555
Hg0_4 O4_0 2.889356 1_555
Hg0_4 O1_6 2.889356 1_545
Hg0_4 Hg0_5 3.789363 1_554
Hg0_4 Hg0_5 3.789363 1_555
Hg0_5 O2_5 2.889356 1_555
Hg0_5 O3_3 2.889356 1_545
Hg0_5 O5_5 2.889356 1_555
Hg0_5 O0_3 2.889356 1_545
Hg0_5 O4_1 2.889356 1_555
Hg0_5 O1_7 2.889356 1_545
Hg0_6 O3_0 2.889356 1_555
Hg0_6 O0_0 2.889356 1_555
Hg0_6 O5_6 2.889356 1_555
Hg0_6 O2_6 2.889356 1_555
Hg0_6 O4_2 2.889356 1_555
Hg0_6 O1_4 2.889356 1_555
Hg0_6 Hg0_7 3.789363 1_554
Hg0_6 Hg0_7 3.789363 1_555
Hg0_7 O3_1 2.889356 1_555
Hg0_7 O0_1 2.889356 1_555
Hg0_7 O2_7 2.889356 1_555
Hg0_7 O5_7 2.889356 1_555
Hg0_7 O4_3 2.889356 1_555
Hg0_7 O1_5 2.889356 1_555
O0_0 Re0_0 1.921486 1_555
O0_0 Re1_2 1.921486 1_555
O0_0 O6_0 2.689756 1_555
O0_0 O7_2 2.689757 1_555
O0_0 O2_0 2.694787 1_555
O0_0 O1_0 2.694787 1_555
O0_0 O6_1 2.707125 1_554
O0_0 O7_3 2.707125 1_554
O0_1 Re0_1 1.921486 1_555
O0_1 Re1_3 1.921486 1_555
O0_1 O6_1 2.689756 1_555
O0_1 O7_3 2.689757 1_555
O0_1 O2_1 2.694787 1_555
O0_1 O1_1 2.694787 1_555
O0_1 O6_0 2.707125 1_555
O0_1 O7_2 2.707125 1_555
O0_2 Re0_2 1.921486 1_555
O0_2 Re1_0 1.921486 1_565
O0_2 O6_2 2.689756 1_555
O0_2 O7_0 2.689757 1_565
O0_2 O2_2 2.694787 1_555
O0_2 O1_2 2.694787 1_555
O0_2 O6_3 2.707125 1_554
O0_2 O7_1 2.707125 1_564
O0_3 Re0_3 1.921486 1_555
O0_3 Re1_1 1.921486 1_565
O0_3 O6_3 2.689756 1_555
O0_3 O7_1 2.689757 1_565
O0_3 O2_3 2.694787 1_555
O0_3 O1_3 2.694787 1_555
O0_3 O6_2 2.707125 1_555
O0_3 O7_0 2.707125 1_565
O0_4 Re0_4 1.921486 1_555
O0_4 Re1_6 1.921486 1_555
O0_4 O6_4 2.689756 1_555
O0_4 O7_6 2.689757 1_555
O0_4 O2_4 2.694787 1_555
O0_4 O1_4 2.694787 1_555
O0_4 O6_5 2.707125 1_554
O0_4 O7_7 2.707125 1_554
O0_5 Re0_5 1.921486 1_555
O0_5 Re1_7 1.921486 1_555
O0_5 O6_5 2.689756 1_555
O0_5 O7_7 2.689757 1_555
O0_5 O2_5 2.694787 1_555
O0_5 O1_5 2.694787 1_555
O0_5 O6_4 2.707125 1_555
O0_5 O7_6 2.707125 1_555
O0_6 Re0_6 1.921486 1_555
O0_6 Re1_4 1.921486 1_565
O0_6 O6_6 2.689756 1_555
O0_6 O7_4 2.689757 1_565
O0_6 O2_6 2.694787 1_555
O0_6 O1_6 2.694787 1_555
O0_6 O6_7 2.707125 1_554
O0_6 O7_5 2.707125 1_564
O0_7 Re0_7 1.921486 1_555
O0_7 Re1_5 1.921486 1_565
O0_7 O6_7 2.689756 1_555
O0_7 O7_5 2.689757 1_565
O0_7 O2_7 2.694787 1_555
O0_7 O1_7 2.694787 1_555
O0_7 O6_6 2.707125 1_555
O0_7 O7_4 2.707125 1_565
O1_0 Re2_0 1.921486 1_555
O1_0 Re1_2 1.921486 1_555
O1_0 O8_0 2.689756 1_555
O1_0 O7_2 2.689756 1_555
O1_0 O2_0 2.694787 1_555
O1_0 O8_1 2.707125 1_554
O1_0 O7_3 2.707125 1_554
O1_1 Re2_1 1.921486 1_555
O1_1 Re1_3 1.921486 1_555
O1_1 O8_1 2.689756 1_555
O1_1 O7_3 2.689756 1_555
O1_1 O2_1 2.694787 1_555
O1_1 O8_0 2.707125 1_555
O1_1 O7_2 2.707125 1_555
O1_2 Re2_2 1.921486 1_455
O1_2 Re1_0 1.921486 1_565
O1_2 O8_2 2.689756 1_455
O1_2 O7_0 2.689756 1_565
O1_2 O2_2 2.694787 1_555
O1_2 O8_3 2.707125 1_454
O1_2 O7_1 2.707125 1_564
O1_3 Re2_3 1.921486 1_455
O1_3 Re1_1 1.921486 1_565
O1_3 O8_3 2.689756 1_455
O1_3 O7_1 2.689756 1_565
O1_3 O2_3 2.694787 1_555
O1_3 O8_2 2.707125 1_455
O1_3 O7_0 2.707125 1_565
O1_4 Re2_4 1.921486 1_555
O1_4 Re1_6 1.921486 1_555
O1_4 O8_4 2.689756 1_555
O1_4 O7_6 2.689756 1_555
O1_4 O2_4 2.694787 1_555
O1_4 O8_5 2.707125 1_554
O1_4 O7_7 2.707125 1_554
O1_5 Re2_5 1.921486 1_555
O1_5 Re1_7 1.921486 1_555
O1_5 O8_5 2.689756 1_555
O1_5 O7_7 2.689756 1_555
O1_5 O2_5 2.694787 1_555
O1_5 O8_4 2.707125 1_555
O1_5 O7_6 2.707125 1_555
O1_6 Re2_6 1.921486 1_555
O1_6 Re1_4 1.921486 1_565
O1_6 O8_6 2.689756 1_555
O1_6 O7_4 2.689756 1_565
O1_6 O2_6 2.694787 1_555
O1_6 O8_7 2.707125 1_554
O1_6 O7_5 2.707125 1_564
O1_7 Re2_7 1.921486 1_555
O1_7 Re1_5 1.921486 1_565
O1_7 O8_7 2.689756 1_555
O1_7 O7_5 2.689756 1_565
O1_7 O2_7 2.694787 1_555
O1_7 O8_6 2.707125 1_555
O1_7 O7_4 2.707125 1_565
O2_0 Re0_0 1.921486 1_555
O2_0 Re2_0 1.921486 1_555
O2_0 O6_0 2.689756 1_555
O2_0 O8_0 2.689757 1_555
O2_0 O6_1 2.707125 1_554
O2_0 O8_1 2.707125 1_554
O2_1 Re0_1 1.921486 1_555
O2_1 Re2_1 1.921486 1_555
O2_1 O6_1 2.689756 1_555
O2_1 O8_1 2.689757 1_555
O2_1 O6_0 2.707125 1_555
O2_1 O8_0 2.707125 1_555
O2_2 Re0_2 1.921486 1_555
O2_2 Re2_2 1.921486 1_455
O2_2 O6_2 2.689756 1_555
O2_2 O8_2 2.689757 1_455
O2_2 O6_3 2.707125 1_554
O2_2 O8_3 2.707125 1_454
O2_3 Re0_3 1.921486 1_555
O2_3 Re2_3 1.921486 1_455
O2_3 O6_3 2.689756 1_555
O2_3 O8_3 2.689757 1_455
O2_3 O6_2 2.707125 1_555
O2_3 O8_2 2.707125 1_455
O2_4 Re0_4 1.921486 1_555
O2_4 Re2_4 1.921486 1_555
O2_4 O6_4 2.689756 1_555
O2_4 O8_4 2.689757 1_555
O2_4 O6_5 2.707125 1_554
O2_4 O8_5 2.707125 1_554
O2_5 Re0_5 1.921486 1_555
O2_5 Re2_5 1.921486 1_555
O2_5 O6_5 2.689756 1_555
O2_5 O8_5 2.689757 1_555
O2_5 O6_4 2.707125 1_555
O2_5 O8_4 2.707125 1_555
O2_6 Re0_6 1.921486 1_555
O2_6 Re2_6 1.921486 1_555
O2_6 O6_6 2.689756 1_555
O2_6 O8_6 2.689757 1_555
O2_6 O6_7 2.707125 1_554
O2_6 O8_7 2.707125 1_554
O2_7 Re0_7 1.921486 1_555
O2_7 Re2_7 1.921486 1_555
O2_7 O6_7 2.689756 1_555
O2_7 O8_7 2.689757 1_555
O2_7 O6_6 2.707125 1_555
O2_7 O8_6 2.707125 1_555
O3_0 Re0_0 1.921486 1_555
O3_0 Re2_4 1.921486 1_555
O3_0 O6_0 2.689756 1_555
O3_0 O8_4 2.689757 1_555
O3_0 O5_0 2.694787 1_555
O3_0 O4_0 2.694787 1_555
O3_0 O6_1 2.707125 1_554
O3_0 O8_5 2.707125 1_554
O3_1 Re0_1 1.921486 1_555
O3_1 Re2_5 1.921486 1_555
O3_1 O6_1 2.689756 1_555
O3_1 O8_5 2.689757 1_555
O3_1 O5_1 2.694787 1_555
O3_1 O4_1 2.694787 1_555
O3_1 O6_0 2.707125 1_555
O3_1 O8_4 2.707125 1_555
O3_2 Re0_2 1.921486 1_555
O3_2 Re2_6 1.921486 1_555
O3_2 O6_2 2.689756 1_555
O3_2 O8_6 2.689757 1_555
O3_2 O5_2 2.694787 1_555
O3_2 O4_2 2.694787 1_555
O3_2 O6_3 2.707125 1_554
O3_2 O8_7 2.707125 1_554
O3_3 Re0_3 1.921486 1_555
O3_3 Re2_7 1.921486 1_555
O3_3 O6_3 2.689756 1_555
O3_3 O8_7 2.689757 1_555
O3_3 O5_3 2.694787 1_555
O3_3 O4_3 2.694787 1_555
O3_3 O6_2 2.707125 1_555
O3_3 O8_6 2.707125 1_555
O3_4 Re0_4 1.921486 1_555
O3_4 Re2_0 1.921486 1_655
O3_4 O6_4 2.689756 1_555
O3_4 O8_0 2.689757 1_655
O3_4 O5_4 2.694787 1_555
O3_4 O4_4 2.694787 1_555
O3_4 O6_5 2.707125 1_554
O3_4 O8_1 2.707125 1_654
O3_5 Re0_5 1.921486 1_555
O3_5 Re2_1 1.921486 1_655
O3_5 O6_5 2.689756 1_555
O3_5 O8_1 2.689757 1_655
O3_5 O5_5 2.694787 1_555
O3_5 O4_5 2.694787 1_555
O3_5 O6_4 2.707125 1_555
O3_5 O8_0 2.707125 1_655
O3_6 Re0_6 1.921486 1_555
O3_6 Re2_2 1.921486 1_555
O3_6 O6_6 2.689756 1_555
O3_6 O8_2 2.689757 1_555
O3_6 O5_6 2.694787 1_555
O3_6 O4_6 2.694787 1_555
O3_6 O6_7 2.707125 1_554
O3_6 O8_3 2.707125 1_554
O3_7 Re0_7 1.921486 1_555
O3_7 Re2_3 1.921486 1_555
O3_7 O6_7 2.689756 1_555
O3_7 O8_3 2.689757 1_555
O3_7 O5_7 2.694787 1_555
O3_7 O4_7 2.694787 1_555
O3_7 O6_6 2.707125 1_555
O3_7 O8_2 2.707125 1_555
O4_0 Re1_0 1.921486 1_555
O4_0 Re2_4 1.921486 1_555
O4_0 O7_0 2.689756 1_555
O4_0 O8_4 2.689756 1_555
O4_0 O5_0 2.694787 1_555
O4_0 O7_1 2.707125 1_554
O4_0 O8_5 2.707125 1_554
O4_1 Re1_1 1.921486 1_555
O4_1 Re2_5 1.921486 1_555
O4_1 O7_1 2.689756 1_555
O4_1 O8_5 2.689756 1_555
O4_1 O5_1 2.694787 1_555
O4_1 O7_0 2.707125 1_555
O4_1 O8_4 2.707125 1_555
O4_2 Re1_2 1.921486 1_555
O4_2 Re2_6 1.921486 1_555
O4_2 O7_2 2.689756 1_555
O4_2 O8_6 2.689756 1_555
O4_2 O5_2 2.694787 1_555
O4_2 O7_3 2.707125 1_554
O4_2 O8_7 2.707125 1_554
O4_3 Re1_3 1.921486 1_555
O4_3 Re2_7 1.921486 1_555
O4_3 O7_3 2.689756 1_555
O4_3 O8_7 2.689756 1_555
O4_3 O5_3 2.694787 1_555
O4_3 O7_2 2.707125 1_555
O4_3 O8_6 2.707125 1_555
O4_4 Re1_4 1.921486 1_555
O4_4 Re2_0 1.921486 1_655
O4_4 O7_4 2.689756 1_555
O4_4 O8_0 2.689756 1_655
O4_4 O5_4 2.694787 1_555
O4_4 O7_5 2.707125 1_554
O4_4 O8_1 2.707125 1_654
O4_5 Re1_5 1.921486 1_555
O4_5 Re2_1 1.921486 1_655
O4_5 O7_5 2.689756 1_555
O4_5 O8_1 2.689756 1_655
O4_5 O5_5 2.694787 1_555
O4_5 O7_4 2.707125 1_555
O4_5 O8_0 2.707125 1_655
O4_6 Re1_6 1.921486 1_555
O4_6 Re2_2 1.921486 1_555
O4_6 O7_6 2.689756 1_555
O4_6 O8_2 2.689756 1_555
O4_6 O5_6 2.694787 1_555
O4_6 O7_7 2.707125 1_554
O4_6 O8_3 2.707125 1_554
O4_7 Re1_7 1.921486 1_555
O4_7 Re2_3 1.921486 1_555
O4_7 O7_7 2.689756 1_555
O4_7 O8_3 2.689756 1_555
O4_7 O5_7 2.694787 1_555
O4_7 O7_6 2.707125 1_555
O4_7 O8_2 2.707125 1_555
O5_0 Re0_0 1.921486 1_555
O5_0 Re1_0 1.921486 1_555
O5_0 O6_0 2.689756 1_555
O5_0 O7_0 2.689757 1_555
O5_0 O6_1 2.707125 1_554
O5_0 O7_1 2.707125 1_554
O5_1 Re0_1 1.921486 1_555
O5_1 Re1_1 1.921486 1_555
O5_1 O6_1 2.689756 1_555
O5_1 O7_1 2.689757 1_555
O5_1 O6_0 2.707125 1_555
O5_1 O7_0 2.707125 1_555
O5_2 Re0_2 1.921486 1_555
O5_2 Re1_2 1.921486 1_555
O5_2 O6_2 2.689756 1_555
O5_2 O7_2 2.689757 1_555
O5_2 O6_3 2.707125 1_554
O5_2 O7_3 2.707125 1_554
O5_3 Re0_3 1.921486 1_555
O5_3 Re1_3 1.921486 1_555
O5_3 O6_3 2.689756 1_555
O5_3 O7_3 2.689757 1_555
O5_3 O6_2 2.707125 1_555
O5_3 O7_2 2.707125 1_555
O5_4 Re0_4 1.921486 1_555
O5_4 Re1_4 1.921486 1_555
O5_4 O6_4 2.689756 1_555
O5_4 O7_4 2.689757 1_555
O5_4 O6_5 2.707125 1_554
O5_4 O7_5 2.707125 1_554
O5_5 Re0_5 1.921486 1_555
O5_5 Re1_5 1.921486 1_555
O5_5 O6_5 2.689756 1_555
O5_5 O7_5 2.689757 1_555
O5_5 O6_4 2.707125 1_555
O5_5 O7_4 2.707125 1_555
O5_6 Re0_6 1.921486 1_555
O5_6 Re1_6 1.921486 1_555
O5_6 O6_6 2.689756 1_555
O5_6 O7_6 2.689757 1_555
O5_6 O6_7 2.707125 1_554
O5_6 O7_7 2.707125 1_554
O5_7 Re0_7 1.921486 1_555
O5_7 Re1_7 1.921486 1_555
O5_7 O6_7 2.689756 1_555
O5_7 O7_7 2.689757 1_555
O5_7 O6_6 2.707125 1_555
O5_7 O7_6 2.707125 1_555
O6_0 Re0_1 1.886523 1_555
O6_0 Re0_0 1.902840 1_555
O6_1 Re0_0 1.886523 1_556
O6_1 Re0_1 1.902840 1_555
O6_2 Re0_3 1.886523 1_555
O6_2 Re0_2 1.902840 1_555
O6_3 Re0_2 1.886523 1_556
O6_3 Re0_3 1.902840 1_555
O6_4 Re0_5 1.886523 1_555
O6_4 Re0_4 1.902840 1_555
O6_5 Re0_4 1.886523 1_556
O6_5 Re0_5 1.902840 1_555
O6_6 Re0_7 1.886523 1_555
O6_6 Re0_6 1.902840 1_555
O6_7 Re0_6 1.886523 1_556
O6_7 Re0_7 1.902840 1_555
O7_0 Re1_1 1.886523 1_555
O7_0 Re1_0 1.902840 1_555
O7_1 Re1_0 1.886523 1_556
O7_1 Re1_1 1.902840 1_555
O7_2 Re1_3 1.886523 1_555
O7_2 Re1_2 1.902840 1_555
O7_3 Re1_2 1.886523 1_556
O7_3 Re1_3 1.902840 1_555
O7_4 Re1_5 1.886523 1_555
O7_4 Re1_4 1.902840 1_555
O7_5 Re1_4 1.886523 1_556
O7_5 Re1_5 1.902840 1_555
O7_6 Re1_7 1.886523 1_555
O7_6 Re1_6 1.902840 1_555
O7_7 Re1_6 1.886523 1_556
O7_7 Re1_7 1.902840 1_555
O8_0 Re2_1 1.886523 1_555
O8_0 Re2_0 1.902840 1_555
O8_1 Re2_0 1.886523 1_556
O8_1 Re2_1 1.902840 1_555
O8_2 Re2_3 1.886523 1_555
O8_2 Re2_2 1.902840 1_555
O8_3 Re2_2 1.886523 1_556
O8_3 Re2_3 1.902840 1_555
O8_4 Re2_5 1.886523 1_555
O8_4 Re2_4 1.902840 1_555
O8_5 Re2_4 1.886523 1_556
O8_5 Re2_5 1.902840 1_555
O8_6 Re2_7 1.886523 1_555
O8_6 Re2_6 1.902840 1_555
O8_7 Re2_6 1.886523 1_556
O8_7 Re2_7 1.902840 1_555
