# generated using pymatgen
data_Cd3(FeN2)2
_symmetry_space_group_name_H-M   'P 1'
_cell_length_a   7.89024641
_cell_length_b   8.05158806
_cell_length_c   5.48293140
_cell_angle_alpha   90.00000474
_cell_angle_beta   77.27899096
_cell_angle_gamma   120.67876302
_symmetry_Int_Tables_number   1
_chemical_formula_structural   Cd3(FeN2)2
_chemical_formula_sum   'Cd6 Fe4 N8'
_cell_volume   289.58828951
_cell_formula_units_Z   2
loop_
 _symmetry_equiv_pos_site_id
 _symmetry_equiv_pos_as_xyz
  1  'x, y, z'
loop_
 _atom_site_type_symbol
 _atom_site_label
 _atom_site_symmetry_multiplicity
 _atom_site_fract_x
 _atom_site_fract_y
 _atom_site_fract_z
 _atom_site_occupancy
  Cd  Cd0  1  0.22634800  0.84271400  0.13835200  1
  Cd  Cd1  1  0.77365200  0.61636700  0.36164800  1
  Cd  Cd2  1  0.77365200  0.15728600  0.86164800  1
  Cd  Cd3  1  0.22634800  0.38363300  0.63835200  1
  Cd  Cd4  1  0.00000000  0.61030800  0.75000000  1
  Cd  Cd5  1  0.00000000  0.38969200  0.25000000  1
  Fe  Fe0  1  0.46473200  0.12423100  0.58621800  1
  Fe  Fe1  1  0.53526800  0.65949900  0.91378200  1
  Fe  Fe2  1  0.53526800  0.87576900  0.41378200  1
  Fe  Fe3  1  0.46473200  0.34050100  0.08621800  1
  N  N0  1  0.30079800  0.87543200  0.53662500  1
  N  N1  1  0.69920200  0.57463400  0.96337500  1
  N  N2  1  0.69920200  0.12456800  0.46337500  1
  N  N3  1  0.30079800  0.42536600  0.03662500  1
  N  N4  1  0.43566100  0.14971100  0.91246200  1
  N  N5  1  0.56433900  0.71405000  0.58753800  1
  N  N6  1  0.56433900  0.85028900  0.08753800  1
  N  N7  1  0.43566100  0.28595000  0.41246200  1
loop_
_geom_bond_atom_site_label_1
_geom_bond_atom_site_label_2
_geom_bond_distance
_geom_bond_site_symmetry_2
Cd0 N4 2.303214 1_564
Cd0 N0 2.364331 1_555
Cd0 N6 2.588462 1_555
Cd0 Cd1 3.001663 1_455
Cd0 Cd4 3.080519 1_554
Cd0 Cd5 3.120885 1_555
Cd0 N0 3.207479 1_554
Cd1 N5 2.303209 1_555
Cd1 N1 2.364331 1_554
Cd1 N7 2.588466 1_555
Cd1 Cd4 3.080522 1_655
Cd1 Cd5 3.120892 1_655
Cd1 N1 3.207480 1_555
Cd2 N6 2.303214 1_546
Cd2 N2 2.364331 1_555
Cd2 N4 2.588462 1_555
Cd2 Cd3 3.001663 1_655
Cd2 Cd5 3.080519 1_656
Cd2 Cd4 3.120885 1_655
Cd2 N2 3.207479 1_556
Cd3 N7 2.303209 1_555
Cd3 N3 2.364331 1_556
Cd3 N5 2.588466 1_555
Cd3 Cd5 3.080522 1_555
Cd3 Cd4 3.120892 1_555
Cd3 N3 3.207480 1_555
Cd4 N0 2.272794 1_555
Cd4 N1 2.272794 1_455
Cd5 N2 2.272794 1_455
Cd5 N3 2.272794 1_555
Fe0 N7 1.748344 1_555
Fe0 N4 1.778126 1_555
Fe0 N0 1.808515 1_545
Fe0 N2 1.822734 1_555
Fe1 N6 1.748344 1_556
Fe1 N5 1.778126 1_555
Fe1 N1 1.808515 1_555
Fe1 N3 1.822734 1_556
Fe2 N5 1.748344 1_555
Fe2 N6 1.778126 1_555
Fe2 N2 1.808515 1_565
Fe2 N0 1.822734 1_555
Fe3 N4 1.748344 1_554
Fe3 N7 1.778126 1_555
Fe3 N3 1.808515 1_555
Fe3 N1 1.822734 1_554
