# generated using pymatgen
data_NdWNO3
_symmetry_space_group_name_H-M   'P 1'
_cell_length_a   5.48607707
_cell_length_b   5.27368810
_cell_length_c   7.09493597
_cell_angle_alpha   63.98474596
_cell_angle_beta   67.05158918
_cell_angle_gamma   87.82635893
_symmetry_Int_Tables_number   1
_chemical_formula_structural   NdWNO3
_chemical_formula_sum   'Nd2 W2 N2 O6'
_cell_volume   167.66038587
_cell_formula_units_Z   2
loop_
 _symmetry_equiv_pos_site_id
 _symmetry_equiv_pos_as_xyz
  1  'x, y, z'
loop_
 _atom_site_type_symbol
 _atom_site_label
 _atom_site_symmetry_multiplicity
 _atom_site_fract_x
 _atom_site_fract_y
 _atom_site_fract_z
 _atom_site_occupancy
  Nd  Nd0  1  0.36455700  0.61453600  0.25836100  1
  Nd  Nd1  1  0.63107700  0.37466400  0.74654100  1
  W  W0  1  0.86699200  0.14378900  0.23850200  1
  W  W1  1  0.13185700  0.82010600  0.78614900  1
  N  N0  1  0.17808600  0.40590000  0.05725100  1
  N  N1  1  0.36509600  0.72672500  0.57603100  1
  O  O0  1  0.71052800  0.04397300  0.08336300  1
  O  O1  1  0.05833600  0.18199400  0.60290800  1
  O  O2  1  0.77221100  0.61779700  0.92232600  1
  O  O3  1  0.31551700  0.95975500  0.91111200  1
  O  O4  1  0.64947800  0.30949500  0.41326400  1
  O  O5  1  0.95626500  0.80126600  0.40419200  1
loop_
_geom_bond_atom_site_label_1
_geom_bond_atom_site_label_2
_geom_bond_distance
_geom_bond_site_symmetry_2
Nd0 O4 2.415983 1_555
Nd0 O5 2.444738 1_455
Nd0 O3 2.449858 1_554
Nd0 O1 2.489594 1_555
Nd0 O0 2.508937 1_565
Nd0 O2 2.548548 1_554
Nd1 O3 2.370235 1_545
Nd1 O2 2.455638 1_555
Nd1 O0 2.457823 1_556
Nd1 O4 2.498730 1_555
Nd1 O5 2.505123 1_555
Nd1 O1 2.535765 1_655
N0 W0 1.839938 1_455
N0 W1 2.277769 1_554
N0 Nd0 2.625625 1_555
N0 O3 2.660022 1_554
N0 Nd1 2.660481 1_554
N1 W1 1.791903 1_555
N1 Nd1 2.498132 1_555
N1 Nd0 2.570016 1_555
O0 W0 1.872100 1_555
O1 W1 1.915511 1_545
O2 W1 1.932249 1_655
O3 W1 1.915552 1_555
O4 W0 1.855439 1_555
O5 W0 1.844948 1_565
