# generated using pymatgen
data_BaYMnCoO5
_symmetry_space_group_name_H-M   'P 1'
_cell_length_a   5.59491765
_cell_length_b   5.60105620
_cell_length_c   8.70795592
_cell_angle_alpha   70.74373217
_cell_angle_beta   70.97979133
_cell_angle_gamma   88.74059765
_symmetry_Int_Tables_number   1
_chemical_formula_structural   BaYMnCoO5
_chemical_formula_sum   'Ba2 Y2 Mn2 Co2 O10'
_cell_volume   242.43283954
_cell_formula_units_Z   2
loop_
 _symmetry_equiv_pos_site_id
 _symmetry_equiv_pos_as_xyz
  1  'x, y, z'
loop_
 _atom_site_type_symbol
 _atom_site_label
 _atom_site_symmetry_multiplicity
 _atom_site_fract_x
 _atom_site_fract_y
 _atom_site_fract_z
 _atom_site_occupancy
  Ba  Ba0  1  0.00774200  0.00608100  0.98935300  1
  Ba  Ba1  1  0.50363200  0.50047000  0.99015200  1
  Y  Y0  1  0.24969800  0.24946100  0.50207700  1
  Y  Y1  1  0.74903900  0.74894700  0.50141300  1
  Mn  Mn0  1  0.36337800  0.86279500  0.27376600  1
  Mn  Mn1  1  0.87259500  0.37415400  0.25319400  1
  Co  Co0  1  0.13137600  0.63195000  0.73683900  1
  Co  Co1  1  0.63300500  0.12245200  0.74424800  1
  O  O0  1  0.49735300  0.99869100  0.00287400  1
  O  O1  1  0.00190600  0.50863900  0.98969000  1
  O  O2  1  0.41473900  0.91626300  0.68523900  1
  O  O3  1  0.89927700  0.40012400  0.68571100  1
  O  O4  1  0.92387400  0.89423900  0.68263100  1
  O  O5  1  0.39106600  0.42413900  0.68596400  1
  O  O6  1  0.58177400  0.08155000  0.31543100  1
  O  O7  1  0.10241600  0.60261200  0.31600600  1
  O  O8  1  0.09621600  0.08278500  0.32110200  1
  O  O9  1  0.58091000  0.59464700  0.32430700  1
loop_
_geom_bond_atom_site_label_1
_geom_bond_atom_site_label_2
_geom_bond_distance
_geom_bond_site_symmetry_2
Ba0 O0 2.778768 1_546
Ba0 O1 2.786132 1_545
Ba0 O1 2.815286 1_555
Ba0 O0 2.820066 1_446
Ba0 O2 3.057643 1_545
Ba0 O3 3.060799 1_455
Ba0 O5 3.083742 1_555
Ba0 O4 3.111243 1_445
Ba0 O7 3.188750 1_546
Ba0 O6 3.202766 1_456
Ba0 O8 3.245789 1_556
Ba0 O9 3.284715 1_446
Ba1 O0 2.776475 1_546
Ba1 O1 2.787853 1_655
Ba1 O1 2.807775 1_555
Ba1 O0 2.828041 1_556
Ba1 O3 3.057304 1_555
Ba1 O5 3.072790 1_555
Ba1 O2 3.074439 1_555
Ba1 O4 3.129218 1_555
Ba1 O6 3.177763 1_556
Ba1 O7 3.206307 1_556
Ba1 O8 3.237283 1_556
Ba1 O9 3.282471 1_556
Mn0 O9 1.939973 1_555
Mn0 O6 1.942665 1_565
Mn0 O8 1.942907 1_565
Mn0 O7 1.944407 1_555
Mn0 O0 2.096183 1_555
Mn1 O1 2.039067 1_654
Mn1 O9 2.080645 1_555
Mn1 O8 2.081903 1_655
Mn1 O7 2.140632 1_655
Mn1 O6 2.140979 1_555
Co0 O5 1.873057 1_555
Co0 O4 1.885127 1_455
Co0 O1 1.956805 1_555
Co0 O3 2.098289 1_455
Co0 O2 2.103799 1_555
Co1 O2 1.987833 1_545
Co1 O3 1.995505 1_555
Co1 O0 2.001955 1_546
Co1 O4 2.088530 1_545
Co1 O5 2.174118 1_555
O2 Y0 2.408394 1_565
O2 Y1 2.428967 1_555
O3 Y1 2.416257 1_555
O3 Y0 2.426290 1_655
O4 Y0 2.445751 1_665
O4 Y1 2.448973 1_555
O5 Y1 2.457136 1_555
O5 Y0 2.457602 1_555
O6 Y1 2.427008 1_545
O6 Y0 2.437458 1_555
O7 Y0 2.429322 1_555
O7 Y1 2.430727 1_455
O8 Y1 2.443342 1_445
O8 Y0 2.445440 1_555
O9 Y1 2.422956 1_555
O9 Y0 2.425284 1_555
