# generated using pymatgen
data_BiSe
_symmetry_space_group_name_H-M   'P 1'
_cell_length_a   7.63912700
_cell_length_b   5.77493500
_cell_length_c   8.29711112
_cell_angle_alpha   47.81897013
_cell_angle_beta   90.00000000
_cell_angle_gamma   90.00000000
_symmetry_Int_Tables_number   1
_chemical_formula_structural   BiSe
_chemical_formula_sum   'Bi4 Se4'
_cell_volume   271.23875587
_cell_formula_units_Z   4
loop_
 _symmetry_equiv_pos_site_id
 _symmetry_equiv_pos_as_xyz
  1  'x, y, z'
loop_
 _atom_site_type_symbol
 _atom_site_label
 _atom_site_symmetry_multiplicity
 _atom_site_fract_x
 _atom_site_fract_y
 _atom_site_fract_z
 _atom_site_occupancy
  Bi  Bi0  1  0.81687400  0.62949800  0.88894900  1
  Bi  Bi1  1  0.68312600  0.62949800  0.38894900  1
  Bi  Bi2  1  0.18312600  0.37050200  0.11105100  1
  Bi  Bi3  1  0.31687400  0.37050200  0.61105100  1
  Se  Se0  1  0.84934400  0.24768400  0.78389300  1
  Se  Se1  1  0.65065600  0.24768400  0.28389300  1
  Se  Se2  1  0.15065600  0.75231600  0.21610700  1
  Se  Se3  1  0.34934400  0.75231600  0.71610700  1
loop_
_geom_bond_atom_site_label_1
_geom_bond_atom_site_label_2
_geom_bond_distance
_geom_bond_site_symmetry_2
Bi0 Se1 2.740218 1_556
Bi0 Se0 2.874759 1_555
Bi0 Se0 3.063835 1_565
Bi0 Bi2 3.124008 1_656
Bi0 Se3 3.734896 1_555
Bi1 Se0 2.740218 1_555
Bi1 Se1 2.874759 1_555
Bi1 Se1 3.063835 1_565
Bi1 Bi3 3.124008 1_555
Bi1 Se2 3.734896 1_655
Bi2 Se3 2.740218 1_554
Bi2 Se2 2.874759 1_555
Bi2 Se2 3.063835 1_545
Bi2 Se1 3.734896 1_555
Bi3 Se2 2.740218 1_555
Bi3 Se3 2.874759 1_555
Bi3 Se3 3.063835 1_545
Bi3 Se0 3.734896 1_455
Se0 Se2 3.544704 1_646
Se1 Se3 3.544704 1_545
