# generated using pymatgen
data_Ca3LaMn4O12
_symmetry_space_group_name_H-M   'P 1'
_cell_length_a   5.45580925
_cell_length_b   5.42008708
_cell_length_c   7.65439501
_cell_angle_alpha   90.00268038
_cell_angle_beta   90.00377517
_cell_angle_gamma   90.12359629
_symmetry_Int_Tables_number   1
_chemical_formula_structural   Ca3LaMn4O12
_chemical_formula_sum   'Ca3 La1 Mn4 O12'
_cell_volume   226.34729065
_cell_formula_units_Z   1
loop_
 _symmetry_equiv_pos_site_id
 _symmetry_equiv_pos_as_xyz
  1  'x, y, z'
loop_
 _atom_site_type_symbol
 _atom_site_label
 _atom_site_symmetry_multiplicity
 _atom_site_fract_x
 _atom_site_fract_y
 _atom_site_fract_z
 _atom_site_occupancy
  Ca  Ca0  1  0.46370800  0.49049700  0.74999200  1
  Ca  Ca1  1  0.95847100  0.00898300  0.74998100  1
  Ca  Ca2  1  0.53904300  0.50877500  0.25000900  1
  La  La0  1  0.02883900  0.99544900  0.24998800  1
  Mn  Mn0  1  0.49969200  0.99982400  0.99579500  1
  Mn  Mn1  1  0.00084500  0.50014900  0.50481300  1
  Mn  Mn2  1  0.49984400  0.99997600  0.50438400  1
  Mn  Mn3  1  0.00081700  0.50011500  0.99510500  1
  O  O0  1  0.21126400  0.20959600  0.96164300  1
  O  O1  1  0.71623200  0.28426300  0.54144600  1
  O  O2  1  0.78242500  0.78251700  0.46530200  1
  O  O3  1  0.28415800  0.71590100  0.04348400  1
  O  O4  1  0.78239100  0.78245300  0.03470000  1
  O  O5  1  0.28419700  0.71585000  0.45648600  1
  O  O6  1  0.21126800  0.20959600  0.53835300  1
  O  O7  1  0.71625400  0.28419000  0.95855200  1
  O  O8  1  0.02619800  0.57936900  0.75003900  1
  O  O9  1  0.51732100  0.91941700  0.75001300  1
  O  O10  1  0.98292300  0.43731000  0.24995700  1
  O  O11  1  0.49411200  0.07577400  0.24995700  1
loop_
_geom_bond_atom_site_label_1
_geom_bond_atom_site_label_2
_geom_bond_distance
_geom_bond_site_symmetry_2
Ca0 O9 2.342487 1_555
Ca0 O1 2.387997 1_555
Ca0 O7 2.388272 1_555
Ca0 O8 2.436108 1_555
Ca0 O6 2.613353 1_555
Ca0 O0 2.613622 1_555
Ca0 O5 2.739246 1_555
Ca0 O3 2.739370 1_556
Ca0 O8 3.105385 1_655
Ca1 O8 2.358468 1_645
Ca1 O0 2.387973 1_655
Ca1 O6 2.388001 1_655
Ca1 O9 2.454273 1_545
Ca1 O7 2.555125 1_555
Ca1 O1 2.555225 1_555
Ca1 O2 2.678023 1_545
Ca1 O4 2.678694 1_546
Ca1 O9 3.088418 1_645
Ca2 O11 2.359145 1_555
Ca2 O5 2.386962 1_555
Ca2 O3 2.387408 1_555
Ca2 O10 2.453331 1_555
Ca2 O4 2.582858 1_555
Ca2 O2 2.582874 1_555
Ca2 O1 2.719689 1_555
Ca2 O7 2.720046 1_554
Ca2 O10 3.057881 1_455
La0 O10 2.408528 1_465
La0 O4 2.418482 1_455
La0 O2 2.418544 1_455
La0 O11 2.574579 1_565
La0 O3 2.596881 1_555
La0 O5 2.597104 1_555
La0 O6 2.684085 1_565
La0 O0 2.684148 1_564
La0 O11 2.950604 1_465
Mn0 O9 1.933558 1_555
Mn0 O0 1.960867 1_565
Mn0 O7 1.960882 1_565
Mn0 O4 1.965560 1_556
Mn0 O3 1.968881 1_556
Mn0 O11 1.988762 1_566
Mn1 O8 1.930408 1_555
Mn1 O1 1.962455 1_455
Mn1 O2 1.965117 1_455
Mn1 O6 1.967674 1_555
Mn1 O5 1.971254 1_555
Mn1 O10 1.982632 1_455
Mn2 O9 1.932591 1_555
Mn2 O1 1.959731 1_565
Mn2 O6 1.960865 1_565
Mn2 O2 1.965561 1_555
Mn2 O5 1.970349 1_555
Mn2 O11 1.990623 1_565
Mn3 O8 1.929326 1_555
Mn3 O7 1.962233 1_455
Mn3 O4 1.965111 1_456
Mn3 O0 1.967526 1_555
Mn3 O3 1.971496 1_556
Mn3 O10 1.982607 1_456
