# generated using pymatgen
data_TbZnNi
_symmetry_space_group_name_H-M   'P 1'
_cell_length_a   6.97519601
_cell_length_b   6.97519605
_cell_length_c   3.75091051
_cell_angle_alpha   90.00000000
_cell_angle_beta   90.00000000
_cell_angle_gamma   119.99999502
_symmetry_Int_Tables_number   1
_chemical_formula_structural   TbZnNi
_chemical_formula_sum   'Tb3 Zn3 Ni3'
_cell_volume   158.04479275
_cell_formula_units_Z   3
loop_
 _symmetry_equiv_pos_site_id
 _symmetry_equiv_pos_as_xyz
  1  'x, y, z'
loop_
 _atom_site_type_symbol
 _atom_site_label
 _atom_site_symmetry_multiplicity
 _atom_site_fract_x
 _atom_site_fract_y
 _atom_site_fract_z
 _atom_site_occupancy
  Tb  Tb0  1  0.00000000  0.59042073  -0.00000000  1
  Tb  Tb1  1  0.40957927  0.40957927  0.00000000  1
  Tb  Tb2  1  0.59042073  0.00000000  0.00000000  1
  Zn  Zn0  1  0.23920314  0.00000000  0.50000000  1
  Zn  Zn1  1  0.76079686  0.76079686  0.50000000  1
  Zn  Zn2  1  0.00000000  0.23920314  0.50000000  1
  Ni  Ni0  1  -0.00000000  0.00000000  -0.00000000  1
  Ni  Ni1  1  0.66666700  0.33333300  0.50000000  1
  Ni  Ni2  1  0.33333300  0.66666700  0.50000000  1
loop_
_geom_bond_atom_site_label_1
_geom_bond_atom_site_label_2
_geom_bond_distance
_geom_bond_site_symmetry_2
Tb0 Zn2 3.085273 1_554
Tb0 Zn2 3.085273 1_555
Tb0 Zn1 3.113895 1_454
Tb0 Zn1 3.113895 1_455
Tb0 Zn0 3.113895 1_565
Tb0 Zn0 3.113895 1_564
Tb1 Zn1 3.085273 1_555
Tb1 Zn1 3.085273 1_554
Tb1 Zn2 3.113895 1_554
Tb1 Zn2 3.113895 1_555
Tb1 Zn0 3.113895 1_554
Tb1 Zn0 3.113895 1_555
Tb2 Zn0 3.085273 1_555
Tb2 Zn0 3.085273 1_554
Tb2 Zn1 3.113895 1_545
Tb2 Zn1 3.113895 1_544
Tb2 Zn2 3.113895 1_655
Tb2 Zn2 3.113895 1_654
Zn0 Zn2 2.889907 1_555
Zn0 Zn1 2.889907 1_445
Zn1 Zn2 2.889908 1_665
Ni0 Zn0 2.510217 1_554
Ni0 Zn0 2.510217 1_555
Ni0 Zn2 2.510217 1_554
Ni0 Zn2 2.510217 1_555
Ni0 Zn1 2.510217 1_444
Ni0 Zn1 2.510217 1_445
Ni0 Tb2 2.856896 1_455
Ni0 Tb0 2.856896 1_545
Ni0 Tb1 2.856896 1_555
Ni1 Zn2 2.713592 1_655
Ni1 Zn0 2.713597 1_555
Ni1 Zn1 2.713599 1_555
Ni1 Tb2 2.823040 1_555
Ni1 Tb2 2.823040 1_556
Ni1 Tb0 2.823041 1_656
Ni1 Tb0 2.823041 1_655
Ni1 Tb1 2.823045 1_555
Ni1 Tb1 2.823045 1_556
Ni2 Zn0 2.713592 1_565
Ni2 Zn2 2.713597 1_555
Ni2 Zn1 2.713599 1_555
Ni2 Tb0 2.823040 1_555
Ni2 Tb0 2.823040 1_556
Ni2 Tb2 2.823041 1_566
Ni2 Tb2 2.823041 1_565
Ni2 Tb1 2.823045 1_555
Ni2 Tb1 2.823045 1_556
