# generated using pymatgen
data_Mg14TiCr
_symmetry_space_group_name_H-M   'P 1'
_cell_length_a   6.32391923
_cell_length_b   6.32391872
_cell_length_c   10.10982158
_cell_angle_alpha   90.00000000
_cell_angle_beta   90.00000000
_cell_angle_gamma   120.00000261
_symmetry_Int_Tables_number   1
_chemical_formula_structural   Mg14TiCr
_chemical_formula_sum   'Mg14 Ti1 Cr1'
_cell_volume   350.14401336
_cell_formula_units_Z   1
loop_
 _symmetry_equiv_pos_site_id
 _symmetry_equiv_pos_as_xyz
  1  'x, y, z'
loop_
 _atom_site_type_symbol
 _atom_site_label
 _atom_site_symmetry_multiplicity
 _atom_site_fract_x
 _atom_site_fract_y
 _atom_site_fract_z
 _atom_site_occupancy
  Mg  Mg0  1  0.17031639  0.83515770  0.12500000  1
  Mg  Mg1  1  0.16745420  0.83372660  0.62500000  1
  Mg  Mg2  1  0.66484230  0.32968361  0.12500000  1
  Mg  Mg3  1  0.66627340  0.33254580  0.62500000  1
  Mg  Mg4  1  0.66484230  0.83515770  0.12500000  1
  Mg  Mg5  1  0.66627340  0.83372660  0.62500000  1
  Mg  Mg6  1  0.32863755  0.17136245  0.37521305  1
  Mg  Mg7  1  0.32863755  0.17136245  0.87478695  1
  Mg  Mg8  1  0.32863755  0.65727610  0.37521305  1
  Mg  Mg9  1  0.32863755  0.65727610  0.87478695  1
  Mg  Mg10  1  0.84272390  0.17136245  0.37521305  1
  Mg  Mg11  1  0.84272390  0.17136245  0.87478695  1
  Mg  Mg12  1  0.83333300  0.66666700  0.37351336  1
  Mg  Mg13  1  0.83333300  0.66666700  0.87648664  1
  Ti  Ti0  1  0.16666700  0.33333300  0.12500000  1
  Cr  Cr0  1  0.16666700  0.33333300  0.62500000  1
loop_
_geom_bond_atom_site_label_1
_geom_bond_atom_site_label_2
_geom_bond_distance
_geom_bond_site_symmetry_2
Mg0 Mg12 3.117424 1_455
Mg0 Mg13 3.117424 1_454
Mg0 Mg2 3.127342 1_565
Mg0 Mg4 3.127342 1_555
Mg0 Mg9 3.129383 1_554
Mg0 Mg8 3.129383 1_555
Mg0 Mg7 3.129389 1_564
Mg0 Mg6 3.129389 1_565
Mg0 Ti0 3.162022 1_565
Mg0 Ti0 3.162023 1_555
Mg0 Mg2 3.196577 1_455
Mg0 Mg4 3.196577 1_455
Mg1 Mg8 3.130286 1_555
Mg1 Mg9 3.130286 1_555
Mg1 Mg6 3.130292 1_565
Mg1 Mg7 3.130292 1_565
Mg1 Mg12 3.132517 1_455
Mg1 Mg13 3.132517 1_455
Mg1 Mg3 3.154492 1_565
Mg1 Mg5 3.154492 1_555
Mg1 Mg3 3.169427 1_455
Mg1 Mg5 3.169427 1_455
Mg2 Mg4 3.127342 1_545
Mg2 Mg7 3.129389 1_554
Mg2 Mg6 3.129389 1_555
Mg2 Ti0 3.162023 1_555
Mg2 Ti0 3.162023 1_655
Mg2 Mg4 3.196577 1_555
Mg3 Mg6 3.130292 1_555
Mg3 Mg7 3.130292 1_555
Mg3 Mg5 3.154492 1_545
Mg3 Mg5 3.169427 1_555
Mg4 Mg9 3.129389 1_554
Mg4 Mg8 3.129389 1_555
Mg4 Ti0 3.162023 1_555
Mg4 Ti0 3.162023 1_665
Mg5 Mg8 3.130292 1_555
Mg5 Mg9 3.130292 1_555
Mg6 Mg8 3.072878 1_555
Mg6 Ti0 3.089729 1_555
Mg6 Mg8 3.251040 1_545
Mg7 Mg9 3.072878 1_555
Mg7 Ti0 3.089729 1_556
Mg7 Mg9 3.251040 1_545
Mg8 Ti0 3.089735 1_555
Mg9 Ti0 3.089735 1_556
Mg10 Mg8 3.072878 1_655
Mg10 Mg6 3.072879 1_655
Mg10 Ti0 3.089735 1_655
Mg10 Mg2 3.129383 1_555
Mg10 Mg4 3.129389 1_545
Mg10 Mg3 3.130286 1_555
Mg10 Mg5 3.130292 1_545
Mg10 Mg12 3.162424 1_545
Mg10 Mg12 3.162424 1_555
Mg10 Mg8 3.251040 1_545
Mg10 Mg6 3.251041 1_555
Mg11 Mg9 3.072878 1_655
Mg11 Mg7 3.072879 1_655
Mg11 Ti0 3.089735 1_656
Mg11 Mg2 3.129383 1_556
Mg11 Mg4 3.129389 1_546
Mg11 Mg3 3.130286 1_555
Mg11 Mg5 3.130292 1_545
Mg11 Mg13 3.162424 1_545
Mg11 Mg13 3.162424 1_555
Mg11 Mg9 3.251040 1_545
Mg11 Mg7 3.251041 1_555
Mg12 Mg4 3.117417 1_555
Mg12 Mg2 3.117424 1_555
Mg12 Mg5 3.132511 1_555
Mg12 Mg3 3.132517 1_555
Mg12 Mg6 3.162424 1_665
Mg12 Mg6 3.162424 1_555
Mg12 Mg8 3.162425 1_655
Mg12 Mg8 3.162425 1_555
Mg13 Mg4 3.117417 1_556
Mg13 Mg2 3.117424 1_556
Mg13 Mg5 3.132511 1_555
Mg13 Mg3 3.132517 1_555
Mg13 Mg7 3.162424 1_665
Mg13 Mg7 3.162424 1_555
Mg13 Mg9 3.162425 1_655
Mg13 Mg9 3.162425 1_555
Cr0 Mg6 3.086203 1_555
Cr0 Mg7 3.086203 1_555
Cr0 Mg9 3.086209 1_555
Cr0 Mg8 3.086209 1_555
Cr0 Mg11 3.086209 1_455
Cr0 Mg10 3.086209 1_455
Cr0 Mg1 3.161962 1_555
Cr0 Mg1 3.161962 1_545
Cr0 Mg5 3.161962 1_555
Cr0 Mg5 3.161962 1_445
Cr0 Mg3 3.161963 1_555
Cr0 Mg3 3.161963 1_455
