# generated using pymatgen
data_PrErFe14B
_symmetry_space_group_name_H-M   'P 1'
_cell_length_a   8.75804600
_cell_length_b   8.75804600
_cell_length_c   12.02349600
_cell_angle_alpha   90.00000000
_cell_angle_beta   90.00000000
_cell_angle_gamma   90.00000000
_symmetry_Int_Tables_number   1
_chemical_formula_structural   PrErFe14B
_chemical_formula_sum   'Pr4 Er4 Fe56 B4'
_cell_volume   922.24265923
_cell_formula_units_Z   4
loop_
 _symmetry_equiv_pos_site_id
 _symmetry_equiv_pos_as_xyz
  1  'x, y, z'
loop_
 _atom_site_type_symbol
 _atom_site_label
 _atom_site_symmetry_multiplicity
 _atom_site_fract_x
 _atom_site_fract_y
 _atom_site_fract_z
 _atom_site_occupancy
  Pr  Pr0  1  0.23408400  0.76591600  0.50000000  1
  Pr  Pr1  1  0.76591600  0.23408400  0.50000000  1
  Pr  Pr2  1  0.26591600  0.26591600  0.00000000  1
  Pr  Pr3  1  0.73408400  0.73408400  0.00000000  1
  Er  Er0  1  0.64534300  0.64534300  0.50000000  1
  Er  Er1  1  0.35465700  0.35465700  0.50000000  1
  Er  Er2  1  0.85465700  0.14534300  0.00000000  1
  Er  Er3  1  0.14534300  0.85465700  0.00000000  1
  Fe  Fe0  1  0.93145000  0.72524400  0.37216500  1
  Fe  Fe1  1  0.06855000  0.27475600  0.37216500  1
  Fe  Fe2  1  0.56855000  0.22524400  0.87216500  1
  Fe  Fe3  1  0.43145000  0.77475600  0.87216500  1
  Fe  Fe4  1  0.06855000  0.27475600  0.62783500  1
  Fe  Fe5  1  0.93145000  0.72524400  0.62783500  1
  Fe  Fe6  1  0.43145000  0.77475600  0.12783500  1
  Fe  Fe7  1  0.56855000  0.22524400  0.12783500  1
  Fe  Fe8  1  0.72524400  0.93145000  0.37216500  1
  Fe  Fe9  1  0.27475600  0.06855000  0.37216500  1
  Fe  Fe10  1  0.22524400  0.56855000  0.87216500  1
  Fe  Fe11  1  0.77475600  0.43145000  0.87216500  1
  Fe  Fe12  1  0.27475600  0.06855000  0.62783500  1
  Fe  Fe13  1  0.72524400  0.93145000  0.62783500  1
  Fe  Fe14  1  0.77475600  0.43145000  0.12783500  1
  Fe  Fe15  1  0.22524400  0.56855000  0.12783500  1
  Fe  Fe16  1  0.14060200  0.53524300  0.32414900  1
  Fe  Fe17  1  0.85939800  0.46475700  0.32414900  1
  Fe  Fe18  1  0.35939800  0.03524300  0.82414900  1
  Fe  Fe19  1  0.64060200  0.96475700  0.82414900  1
  Fe  Fe20  1  0.85939800  0.46475700  0.67585100  1
  Fe  Fe21  1  0.14060200  0.53524300  0.67585100  1
  Fe  Fe22  1  0.64060200  0.96475700  0.17585100  1
  Fe  Fe23  1  0.35939800  0.03524300  0.17585100  1
  Fe  Fe24  1  0.53524300  0.14060200  0.32414900  1
  Fe  Fe25  1  0.46475700  0.85939800  0.32414900  1
  Fe  Fe26  1  0.03524300  0.35939800  0.82414900  1
  Fe  Fe27  1  0.96475700  0.64060200  0.82414900  1
  Fe  Fe28  1  0.46475700  0.85939800  0.67585100  1
  Fe  Fe29  1  0.53524300  0.14060200  0.67585100  1
  Fe  Fe30  1  0.96475700  0.64060200  0.17585100  1
  Fe  Fe31  1  0.03524300  0.35939800  0.17585100  1
  Fe  Fe32  1  0.18221500  0.81778500  0.25216100  1
  Fe  Fe33  1  0.81778500  0.18221500  0.25216100  1
  Fe  Fe34  1  0.31778500  0.31778500  0.75216100  1
  Fe  Fe35  1  0.68221500  0.68221500  0.75216100  1
  Fe  Fe36  1  0.81778500  0.18221500  0.74783900  1
  Fe  Fe37  1  0.18221500  0.81778500  0.74783900  1
  Fe  Fe38  1  0.68221500  0.68221500  0.24783900  1
  Fe  Fe39  1  0.31778500  0.31778500  0.24783900  1
  Fe  Fe40  1  0.40350600  0.59649400  0.30050500  1
  Fe  Fe41  1  0.59649400  0.40350600  0.30050500  1
  Fe  Fe42  1  0.09649400  0.09649400  0.80050500  1
  Fe  Fe43  1  0.90350600  0.90350600  0.80050500  1
  Fe  Fe44  1  0.59649400  0.40350600  0.69949500  1
  Fe  Fe45  1  0.40350600  0.59649400  0.69949500  1
  Fe  Fe46  1  0.90350600  0.90350600  0.19949500  1
  Fe  Fe47  1  0.09649400  0.09649400  0.19949500  1
  Fe  Fe48  1  0.50000000  0.50000000  0.11740500  1
  Fe  Fe49  1  0.00000000  0.00000000  0.61740500  1
  Fe  Fe50  1  0.50000000  0.50000000  0.88259500  1
  Fe  Fe51  1  0.00000000  0.00000000  0.38259500  1
  Fe  Fe52  1  0.00000000  0.50000000  0.50000000  1
  Fe  Fe53  1  0.50000000  0.00000000  0.00000000  1
  Fe  Fe54  1  0.50000000  0.00000000  0.50000000  1
  Fe  Fe55  1  0.00000000  0.50000000  0.00000000  1
  B  B0  1  0.87689400  0.87689400  0.50000000  1
  B  B1  1  0.12310600  0.12310600  0.50000000  1
  B  B2  1  0.62310600  0.37689400  0.00000000  1
  B  B3  1  0.37689400  0.62310600  0.00000000  1
loop_
_geom_bond_atom_site_label_1
_geom_bond_atom_site_label_2
_geom_bond_distance
_geom_bond_site_symmetry_2
Er0 Fe5 3.021730 1_555
Er0 Fe13 3.021730 1_555
Er0 Fe8 3.021730 1_555
Er0 Fe0 3.021730 1_555
Er0 Fe35 3.066059 1_555
Er0 Fe38 3.066059 1_555
Er0 Fe45 3.228382 1_555
Er0 Fe44 3.228382 1_555
Er0 Fe40 3.228382 1_555
Er0 Fe41 3.228382 1_555
Er0 Fe28 3.238265 1_555
Er0 Fe20 3.238265 1_555
Er0 Fe17 3.238265 1_555
Er0 Fe25 3.238265 1_555
Er0 Fe54 3.356814 1_565
Er0 Fe52 3.356814 1_655
Er0 Er1 3.600363 1_555
Er0 Pr1 3.753431 1_555
Er0 Pr0 3.753431 1_555
Er1 Fe4 3.021730 1_555
Er1 Fe12 3.021730 1_555
Er1 Fe9 3.021730 1_555
Er1 Fe1 3.021730 1_555
Er1 Fe34 3.066059 1_555
Er1 Fe39 3.066059 1_555
Er1 Fe44 3.228382 1_555
Er1 Fe45 3.228382 1_555
Er1 Fe40 3.228382 1_555
Er1 Fe41 3.228382 1_555
Er1 Fe29 3.238265 1_555
Er1 Fe21 3.238265 1_555
Er1 Fe16 3.238265 1_555
Er1 Fe24 3.238265 1_555
Er1 Fe52 3.356814 1_555
Er1 Fe54 3.356814 1_555
Er1 Pr1 3.753431 1_555
Er1 Pr0 3.753431 1_555
Er2 Fe7 3.021730 1_555
Er2 Fe2 3.021730 1_554
Er2 Fe14 3.021730 1_555
Er2 Fe11 3.021730 1_554
Er2 Fe33 3.066059 1_555
Er2 Fe36 3.066059 1_554
Er2 Fe47 3.228382 1_655
Er2 Fe46 3.228382 1_545
Er2 Fe42 3.228382 1_654
Er2 Fe43 3.228382 1_544
Er2 Fe31 3.238265 1_655
Er2 Fe22 3.238265 1_545
Er2 Fe26 3.238265 1_654
Er2 Fe19 3.238265 1_544
Er2 Fe53 3.356814 1_555
Er2 Fe55 3.356814 1_655
Er2 Er3 3.600363 1_645
Er2 Pr2 3.753431 1_655
Er2 Pr3 3.753431 1_545
Er3 Fe15 3.021730 1_555
Er3 Fe10 3.021730 1_554
Er3 Fe6 3.021730 1_555
Er3 Fe3 3.021730 1_554
Er3 Fe32 3.066059 1_555
Er3 Fe37 3.066059 1_554
Er3 Fe47 3.228382 1_565
Er3 Fe46 3.228382 1_455
Er3 Fe42 3.228382 1_564
Er3 Fe43 3.228382 1_454
Er3 Fe23 3.238265 1_565
Er3 Fe30 3.238265 1_455
Er3 Fe18 3.238265 1_564
Er3 Fe27 3.238265 1_454
Er3 Fe55 3.356814 1_555
Er3 Fe53 3.356814 1_565
Er3 Pr3 3.753431 1_455
Er3 Pr2 3.753431 1_565
Fe0 Fe17 2.436410 1_555
Fe0 Fe51 2.483257 1_665
Fe0 Fe30 2.491187 1_555
Fe0 Fe16 2.541195 1_655
Fe0 Fe8 2.554015 1_555
Fe0 Fe52 2.571850 1_655
Fe0 Fe46 2.609119 1_555
Fe0 Fe38 2.672304 1_555
Fe0 Fe32 2.749925 1_655
Fe0 Pr0 3.084539 1_655
Fe1 Fe16 2.436410 1_555
Fe1 Fe51 2.483257 1_555
Fe1 Fe31 2.491187 1_555
Fe1 Fe17 2.541195 1_455
Fe1 Fe9 2.554015 1_555
Fe1 Fe52 2.571850 1_555
Fe1 Fe47 2.609119 1_555
Fe1 Fe39 2.672304 1_555
Fe1 Fe33 2.749925 1_455
Fe1 Pr1 3.084539 1_455
Fe2 Fe50 2.483257 1_555
Fe2 Fe29 2.491187 1_555
Fe2 Fe53 2.571850 1_556
Fe2 Fe44 2.609119 1_555
Fe2 Fe36 2.672304 1_555
Fe2 Fe34 2.749925 1_555
Fe2 Pr2 3.084539 1_556
Fe3 Fe50 2.483257 1_555
Fe3 Fe53 2.571850 1_566
Fe3 Fe45 2.609119 1_555
Fe3 Fe37 2.672304 1_555
Fe3 Fe35 2.749925 1_555
Fe3 Pr3 3.084539 1_556
Fe4 Fe49 2.483257 1_555
Fe4 Fe52 2.571850 1_555
Fe4 Fe42 2.609119 1_555
Fe4 Pr1 3.084539 1_455
Fe5 Fe52 2.571850 1_655
Fe5 Pr0 3.084539 1_655
Fe6 Pr3 3.084539 1_555
Fe7 Pr2 3.084539 1_555
Fe8 Pr1 3.084539 1_565
Fe9 Pr0 3.084539 1_545
Fe10 Fe27 2.436410 1_455
Fe10 Fe50 2.483257 1_555
Fe10 Fe21 2.491187 1_555
Fe10 Fe26 2.541195 1_555
Fe10 Fe3 2.554015 1_555
Fe10 Fe55 2.571850 1_556
Fe10 Fe45 2.609119 1_555
Fe10 Fe37 2.672304 1_555
Fe10 Fe34 2.749925 1_555
Fe10 Pr2 3.084539 1_556
Fe11 Fe26 2.436410 1_655
Fe11 Fe50 2.483257 1_555
Fe11 Fe20 2.491187 1_555
Fe11 Fe27 2.541195 1_555
Fe11 Fe2 2.554015 1_555
Fe11 Fe55 2.571850 1_656
Fe11 Fe44 2.609119 1_555
Fe11 Fe36 2.672304 1_555
Fe11 Fe35 2.749925 1_555
Fe11 Pr3 3.084539 1_556
Fe12 Fe29 2.436410 1_555
Fe12 Fe49 2.483257 1_555
Fe12 Fe18 2.491187 1_555
Fe12 Fe28 2.541195 1_545
Fe12 Fe4 2.554015 1_555
Fe12 Fe54 2.571850 1_555
Fe12 Fe42 2.609119 1_555
Fe12 Fe34 2.672304 1_555
Fe12 Fe37 2.749925 1_545
Fe12 Pr0 3.084539 1_545
Fe13 Fe28 2.436410 1_555
Fe13 Fe49 2.483257 1_665
Fe13 Fe19 2.491187 1_555
Fe13 Fe29 2.541195 1_565
Fe13 Fe5 2.554015 1_555
Fe13 Fe54 2.571850 1_565
Fe13 Fe43 2.609119 1_555
Fe13 Fe35 2.672304 1_555
Fe13 Fe36 2.749925 1_565
Fe13 Pr1 3.084539 1_565
Fe14 Fe31 2.436410 1_655
Fe14 Fe48 2.483257 1_555
Fe14 Fe17 2.491187 1_555
Fe14 Fe30 2.541195 1_555
Fe14 Fe7 2.554015 1_555
Fe14 Fe55 2.571850 1_655
Fe14 Fe41 2.609119 1_555
Fe14 Fe33 2.672304 1_555
Fe14 Fe38 2.749925 1_555
Fe14 Pr3 3.084539 1_555
Fe15 Fe30 2.436410 1_455
Fe15 Fe48 2.483257 1_555
Fe15 Fe16 2.491187 1_555
Fe15 Fe31 2.541195 1_555
Fe15 Fe6 2.554015 1_555
Fe15 Fe55 2.571850 1_555
Fe15 Fe40 2.609119 1_555
Fe15 Fe32 2.672304 1_555
Fe15 Fe39 2.749925 1_555
Fe15 Pr2 3.084539 1_555
Fe16 Fe40 2.381220 1_555
Fe16 Fe52 2.466184 1_555
Fe16 Fe30 2.530323 1_455
Fe16 Fe31 2.530323 1_555
Fe16 Fe17 2.538987 1_455
Fe16 Fe39 2.622401 1_555
Fe16 Fe32 2.646738 1_555
Fe16 Pr0 3.036798 1_555
Fe17 Fe41 2.381220 1_555
Fe17 Fe52 2.466184 1_655
Fe17 Fe31 2.530323 1_655
Fe17 Fe30 2.530323 1_555
Fe17 Fe38 2.622401 1_555
Fe17 Fe33 2.646738 1_555
Fe17 Pr1 3.036798 1_555
Fe18 Fe42 2.381220 1_555
Fe18 Fe3 2.436410 1_545
Fe18 Fe53 2.466184 1_556
Fe18 Fe28 2.530323 1_545
Fe18 Fe29 2.530323 1_555
Fe18 Fe19 2.538987 1_545
Fe18 Fe2 2.541195 1_555
Fe18 Fe37 2.622401 1_545
Fe18 Fe34 2.646738 1_555
Fe18 Pr2 3.036798 1_556
Fe19 Fe43 2.381220 1_555
Fe19 Fe2 2.436410 1_565
Fe19 Fe53 2.466184 1_566
Fe19 Fe29 2.530323 1_565
Fe19 Fe28 2.530323 1_555
Fe19 Fe3 2.541195 1_555
Fe19 Fe36 2.622401 1_565
Fe19 Fe35 2.646738 1_555
Fe19 Pr3 3.036798 1_556
Fe20 Fe44 2.381220 1_555
Fe20 Fe5 2.436410 1_555
Fe20 Fe52 2.466184 1_655
Fe20 Fe26 2.530323 1_655
Fe20 Fe27 2.530323 1_555
Fe20 Fe21 2.538987 1_655
Fe20 Fe4 2.541195 1_655
Fe20 Fe35 2.622401 1_555
Fe20 Fe36 2.646738 1_555
Fe20 Pr1 3.036798 1_555
Fe21 Fe45 2.381220 1_555
Fe21 Fe4 2.436410 1_555
Fe21 Fe52 2.466184 1_555
Fe21 Fe27 2.530323 1_455
Fe21 Fe26 2.530323 1_555
Fe21 Fe5 2.541195 1_455
Fe21 Fe34 2.622401 1_555
Fe21 Fe37 2.646738 1_555
Fe21 Pr0 3.036798 1_555
Fe22 Fe46 2.381220 1_555
Fe22 Fe7 2.436410 1_565
Fe22 Fe53 2.466184 1_565
Fe22 Fe8 2.491187 1_555
Fe22 Fe24 2.530323 1_565
Fe22 Fe25 2.530323 1_555
Fe22 Fe23 2.538987 1_565
Fe22 Fe6 2.541195 1_555
Fe22 Fe33 2.622401 1_565
Fe22 Fe38 2.646738 1_555
Fe22 Pr3 3.036798 1_555
Fe23 Fe47 2.381220 1_555
Fe23 Fe6 2.436410 1_545
Fe23 Fe53 2.466184 1_555
Fe23 Fe9 2.491187 1_555
Fe23 Fe25 2.530323 1_545
Fe23 Fe24 2.530323 1_555
Fe23 Fe7 2.541195 1_555
Fe23 Fe32 2.622401 1_545
Fe23 Fe39 2.646738 1_555
Fe23 Pr2 3.036798 1_555
Fe24 Fe41 2.381220 1_555
Fe24 Fe9 2.436410 1_555
Fe24 Fe54 2.466184 1_555
Fe24 Fe7 2.491187 1_555
Fe24 Fe25 2.538987 1_545
Fe24 Fe8 2.541195 1_545
Fe24 Fe39 2.622401 1_555
Fe24 Fe33 2.646738 1_555
Fe24 Pr1 3.036798 1_555
Fe25 Fe40 2.381220 1_555
Fe25 Fe8 2.436410 1_555
Fe25 Fe54 2.466184 1_565
Fe25 Fe6 2.491187 1_555
Fe25 Fe9 2.541195 1_565
Fe25 Fe38 2.622401 1_555
Fe25 Fe32 2.646738 1_555
Fe25 Pr0 3.036798 1_555
Fe26 Fe42 2.381220 1_555
Fe26 Fe55 2.466184 1_556
Fe26 Fe4 2.491187 1_555
Fe26 Fe27 2.538987 1_455
Fe26 Fe36 2.622401 1_455
Fe26 Fe34 2.646738 1_555
Fe26 Pr2 3.036798 1_556
Fe27 Fe43 2.381220 1_555
Fe27 Fe55 2.466184 1_656
Fe27 Fe5 2.491187 1_555
Fe27 Fe37 2.622401 1_655
Fe27 Fe35 2.646738 1_555
Fe27 Pr3 3.036798 1_556
Fe28 Fe45 2.381220 1_555
Fe28 Fe54 2.466184 1_565
Fe28 Fe3 2.491187 1_555
Fe28 Fe29 2.538987 1_565
Fe28 Fe35 2.622401 1_555
Fe28 Fe37 2.646738 1_555
Fe28 Pr0 3.036798 1_555
Fe29 Fe44 2.381220 1_555
Fe29 Fe54 2.466184 1_555
Fe29 Fe34 2.622401 1_555
Fe29 Fe36 2.646738 1_555
Fe29 Pr1 3.036798 1_555
Fe30 Fe46 2.381220 1_555
Fe30 Fe55 2.466184 1_655
Fe30 Fe31 2.538987 1_655
Fe30 Fe32 2.622401 1_655
Fe30 Fe38 2.646738 1_555
Fe30 Pr3 3.036798 1_555
Fe31 Fe47 2.381220 1_555
Fe31 Fe55 2.466184 1_555
Fe31 Fe33 2.622401 1_455
Fe31 Fe39 2.646738 1_555
Fe31 Pr2 3.036798 1_555
Fe32 Fe47 2.631125 1_565
Fe32 Fe46 2.631125 1_455
Fe32 Fe6 2.672304 1_555
Fe32 Fe51 2.748261 1_565
Fe32 Fe9 2.749925 1_565
Fe32 Fe40 2.801812 1_555
Fe32 Pr0 3.048356 1_555
Fe33 Fe47 2.631125 1_655
Fe33 Fe46 2.631125 1_545
Fe33 Fe7 2.672304 1_555
Fe33 Fe51 2.748261 1_655
Fe33 Fe8 2.749925 1_545
Fe33 Fe41 2.801812 1_555
Fe33 Pr1 3.048356 1_555
Fe34 Fe44 2.631125 1_555
Fe34 Fe45 2.631125 1_555
Fe34 Fe4 2.672304 1_555
Fe34 Fe50 2.748261 1_555
Fe34 Fe42 2.801812 1_555
Fe34 Pr2 3.048356 1_556
Fe35 Fe45 2.631125 1_555
Fe35 Fe44 2.631125 1_555
Fe35 Fe5 2.672304 1_555
Fe35 Fe50 2.748261 1_555
Fe35 Fe43 2.801812 1_555
Fe35 Pr3 3.048356 1_556
Fe36 Fe42 2.631125 1_655
Fe36 Fe43 2.631125 1_545
Fe36 Fe49 2.748261 1_655
Fe36 Fe4 2.749925 1_655
Fe36 Fe44 2.801812 1_555
Fe36 Pr1 3.048356 1_555
Fe37 Fe42 2.631125 1_565
Fe37 Fe43 2.631125 1_455
Fe37 Fe49 2.748261 1_565
Fe37 Fe5 2.749925 1_455
Fe37 Fe45 2.801812 1_555
Fe37 Pr0 3.048356 1_555
Fe38 Fe40 2.631125 1_555
Fe38 Fe41 2.631125 1_555
Fe38 Fe8 2.672304 1_555
Fe38 Fe48 2.748261 1_555
Fe38 Fe6 2.749925 1_555
Fe38 Fe46 2.801812 1_555
Fe38 Pr3 3.048356 1_555
Fe39 Fe40 2.631125 1_555
Fe39 Fe41 2.631125 1_555
Fe39 Fe9 2.672304 1_555
Fe39 Fe48 2.748261 1_555
Fe39 Fe7 2.749925 1_555
Fe39 Fe47 2.801812 1_555
Fe39 Pr2 3.048356 1_555
Fe40 Fe41 2.390301 1_555
Fe40 Fe48 2.504994 1_555
Fe40 Fe6 2.609119 1_555
Fe40 Pr0 3.186969 1_555
Fe41 Fe48 2.504994 1_555
Fe41 Fe7 2.609119 1_555
Fe41 Pr1 3.186969 1_555
Fe42 Fe43 2.390301 1_445
Fe42 Fe49 2.504994 1_555
Fe42 Pr2 3.186969 1_556
Fe43 Fe49 2.504994 1_665
Fe43 Fe5 2.609119 1_555
Fe43 Pr3 3.186969 1_556
Fe44 Fe45 2.390301 1_555
Fe44 Fe50 2.504994 1_555
Fe44 Pr1 3.186969 1_555
Fe45 Fe50 2.504994 1_555
Fe45 Pr0 3.186969 1_555
Fe46 Fe47 2.390301 1_665
Fe46 Fe51 2.504994 1_665
Fe46 Fe8 2.609119 1_555
Fe46 Pr3 3.186969 1_555
Fe47 Fe51 2.504994 1_555
Fe47 Fe9 2.609119 1_555
Fe47 Pr2 3.186969 1_555
Fe48 Fe6 2.483257 1_555
Fe48 Fe7 2.483257 1_555
Fe48 Pr3 3.224692 1_555
Fe48 Pr2 3.224692 1_555
Fe49 Fe5 2.483257 1_445
Fe49 Pr1 3.224692 1_455
Fe49 Pr0 3.224692 1_545
Fe50 Pr3 3.224692 1_556
Fe50 Pr2 3.224692 1_556
Fe51 Fe8 2.483257 1_445
Fe51 Fe9 2.483257 1_555
Fe51 Pr1 3.224692 1_455
Fe51 Pr0 3.224692 1_545
Fe52 Pr0 3.102706 1_555
Fe52 Pr1 3.102706 1_455
Fe53 Fe6 2.571850 1_545
Fe53 Fe7 2.571850 1_555
Fe53 Pr3 3.102706 1_545
Fe53 Pr2 3.102706 1_555
Fe54 Fe9 2.571850 1_555
Fe54 Fe8 2.571850 1_545
Fe54 Pr1 3.102706 1_555
Fe54 Pr0 3.102706 1_545
Fe55 Pr2 3.102706 1_555
Fe55 Pr3 3.102706 1_455
B0 Fe49 2.077874 1_665
B0 Fe51 2.077874 1_665
B0 Fe5 2.086802 1_555
B0 Fe13 2.086802 1_555
B0 Fe0 2.086802 1_555
B0 Fe8 2.086802 1_555
B0 Er0 2.867932 1_555
B0 Pr1 3.275800 1_565
B0 Pr0 3.275800 1_655
B1 Fe49 2.077874 1_555
B1 Fe51 2.077874 1_555
B1 Fe12 2.086802 1_555
B1 Fe4 2.086802 1_555
B1 Fe1 2.086802 1_555
B1 Fe9 2.086802 1_555
B1 Er1 2.867932 1_555
B1 Pr0 3.275800 1_545
B1 Pr1 3.275800 1_455
B2 Fe48 2.077874 1_555
B2 Fe50 2.077874 1_554
B2 Fe7 2.086802 1_555
B2 Fe2 2.086802 1_554
B2 Fe14 2.086802 1_555
B2 Fe11 2.086802 1_554
B2 Er2 2.867932 1_555
B2 Pr2 3.275800 1_555
B2 Pr3 3.275800 1_555
B3 Fe48 2.077874 1_555
B3 Fe50 2.077874 1_554
B3 Fe10 2.086802 1_554
B3 Fe15 2.086802 1_555
B3 Fe6 2.086802 1_555
B3 Fe3 2.086802 1_554
B3 Er3 2.867932 1_555
B3 Pr2 3.275800 1_555
B3 Pr3 3.275800 1_555
