# generated using pymatgen
data_Nd3GaNiSe7
_symmetry_space_group_name_H-M   'P 1'
_cell_length_a   10.27869699
_cell_length_b   10.27869699
_cell_length_c   6.51422300
_cell_angle_alpha   90.00000000
_cell_angle_beta   90.00000000
_cell_angle_gamma   120.00000639
_symmetry_Int_Tables_number   1
_chemical_formula_structural   Nd3GaNiSe7
_chemical_formula_sum   'Nd6 Ga2 Ni2 Se14'
_cell_volume   596.03169205
_cell_formula_units_Z   2
loop_
 _symmetry_equiv_pos_site_id
 _symmetry_equiv_pos_as_xyz
  1  'x, y, z'
loop_
 _atom_site_type_symbol
 _atom_site_label
 _atom_site_symmetry_multiplicity
 _atom_site_fract_x
 _atom_site_fract_y
 _atom_site_fract_z
 _atom_site_occupancy
  Nd  Nd0  1  0.15655400  0.37296000  0.22115500  1
  Nd  Nd1  1  0.21640600  0.84344600  0.22115500  1
  Nd  Nd2  1  0.62704000  0.78359400  0.22115500  1
  Nd  Nd3  1  0.84344600  0.62704000  0.72115500  1
  Nd  Nd4  1  0.78359400  0.15655400  0.72115500  1
  Nd  Nd5  1  0.37296000  0.21640600  0.72115500  1
  Ga  Ga0  1  0.33333300  0.66666700  0.79964900  1
  Ga  Ga1  1  0.66666700  0.33333300  0.29964900  1
  Ni  Ni0  1  0.00000000  0.00000000  0.91327000  1
  Ni  Ni1  1  0.00000000  0.00000000  0.41327000  1
  Se  Se0  1  0.43558400  0.52006100  0.94846600  1
  Se  Se1  1  0.08447700  0.56441600  0.94846600  1
  Se  Se2  1  0.47993900  0.91552300  0.94846600  1
  Se  Se3  1  0.56441600  0.47993900  0.44846600  1
  Se  Se4  1  0.91552300  0.43558400  0.44846600  1
  Se  Se5  1  0.52006100  0.08447700  0.44846600  1
  Se  Se6  1  0.33333300  0.66666700  0.43120200  1
  Se  Se7  1  0.66666700  0.33333300  0.93120200  1
  Se  Se8  1  0.23012300  0.13195600  0.14589600  1
  Se  Se9  1  0.90183200  0.76987700  0.14589600  1
  Se  Se10  1  0.86804400  0.09816800  0.14589600  1
  Se  Se11  1  0.76987700  0.86804400  0.64589600  1
  Se  Se12  1  0.09816800  0.23012300  0.64589600  1
  Se  Se13  1  0.13195600  0.90183200  0.64589600  1
loop_
_geom_bond_atom_site_label_1
_geom_bond_atom_site_label_2
_geom_bond_distance
_geom_bond_site_symmetry_2
Nd0 Se10 2.938761 1_455
Nd0 Se6 2.966862 1_555
Nd0 Se8 2.970182 1_555
Nd0 Se1 3.005822 1_554
Nd0 Se12 3.047967 1_555
Nd0 Se0 3.054647 1_554
Nd0 Se4 3.215532 1_455
Nd1 Se8 2.938766 1_565
Nd1 Se6 2.966855 1_555
Nd1 Se9 2.970192 1_455
Nd1 Se2 3.005822 1_554
Nd1 Se13 3.047964 1_555
Nd1 Se1 3.054647 1_554
Nd1 Se5 3.215532 1_565
Nd2 Se9 2.938756 1_555
Nd2 Se6 2.966863 1_555
Nd2 Se10 2.970188 1_565
Nd2 Se0 3.005821 1_554
Nd2 Se11 3.047967 1_555
Nd2 Se2 3.054647 1_554
Nd2 Se3 3.215532 1_555
Nd3 Se13 2.938761 1_655
Nd3 Se7 2.966862 1_555
Nd3 Se11 2.970182 1_555
Nd3 Se4 3.005822 1_555
Nd3 Se9 3.047967 1_556
Nd3 Se3 3.054647 1_555
Nd3 Se1 3.215532 1_655
Nd4 Se11 2.938766 1_545
Nd4 Se7 2.966855 1_555
Nd4 Se12 2.970192 1_655
Nd4 Se5 3.005822 1_555
Nd4 Se10 3.047964 1_556
Nd4 Se4 3.054647 1_555
Nd4 Se2 3.215532 1_545
Nd5 Se12 2.938756 1_555
Nd5 Se7 2.966863 1_555
Nd5 Se13 2.970188 1_545
Nd5 Se3 3.005821 1_555
Nd5 Se8 3.047967 1_556
Nd5 Se5 3.054647 1_555
Nd5 Se0 3.215532 1_555
Ga0 Se6 2.400146 1_555
Ga0 Se1 2.428775 1_555
Ga0 Se2 2.428776 1_555
Ga0 Se0 2.428784 1_555
Ga1 Se7 2.400146 1_554
Ga1 Se4 2.428775 1_555
Ga1 Se5 2.428776 1_555
Ga1 Se3 2.428784 1_555
Ni0 Se9 2.553964 1_446
Ni0 Se8 2.553965 1_556
Ni0 Se10 2.553972 1_456
Ni0 Se12 2.694439 1_555
Ni0 Se11 2.694439 1_445
Ni0 Se13 2.694446 1_545
Ni1 Se12 2.553964 1_555
Ni1 Se11 2.553965 1_445
Ni1 Se13 2.553972 1_545
Ni1 Se9 2.694439 1_445
Ni1 Se8 2.694439 1_555
Ni1 Se10 2.694446 1_455
