# generated using pymatgen
data_Ni8Bi8SI
_symmetry_space_group_name_H-M   'P 1'
_cell_length_a   19.69809800
_cell_length_b   19.69809800
_cell_length_c   8.42074200
_cell_angle_alpha   90.00000000
_cell_angle_beta   90.00000000
_cell_angle_gamma   90.00000000
_symmetry_Int_Tables_number   1
_chemical_formula_structural   Ni8Bi8SI
_chemical_formula_sum   'Ni64 Bi64 S8 I8'
_cell_volume   3267.37475294
_cell_formula_units_Z   8
loop_
 _symmetry_equiv_pos_site_id
 _symmetry_equiv_pos_as_xyz
  1  'x, y, z'
loop_
 _atom_site_type_symbol
 _atom_site_label
 _atom_site_symmetry_multiplicity
 _atom_site_fract_x
 _atom_site_fract_y
 _atom_site_fract_z
 _atom_site_occupancy
  Ni  Ni0_0  1  0.04401700  0.41017350  0.25070200  1
  Ni  Ni0_1  1  0.04401700  0.41017350  0.75070200  1
  Ni  Ni0_2  1  0.04401700  0.91017350  0.25070200  1
  Ni  Ni0_3  1  0.04401700  0.91017350  0.75070200  1
  Ni  Ni0_4  1  0.54401700  0.41017350  0.25070200  1
  Ni  Ni0_5  1  0.54401700  0.41017350  0.75070200  1
  Ni  Ni0_6  1  0.54401700  0.91017350  0.25070200  1
  Ni  Ni0_7  1  0.54401700  0.91017350  0.75070200  1
  Ni  Ni1_0  1  0.45598300  0.08982650  0.25070200  1
  Ni  Ni1_1  1  0.45598300  0.08982650  0.75070200  1
  Ni  Ni1_2  1  0.45598300  0.58982650  0.25070200  1
  Ni  Ni1_3  1  0.45598300  0.58982650  0.75070200  1
  Ni  Ni1_4  1  0.95598300  0.08982650  0.25070200  1
  Ni  Ni1_5  1  0.95598300  0.08982650  0.75070200  1
  Ni  Ni1_6  1  0.95598300  0.58982650  0.25070200  1
  Ni  Ni1_7  1  0.95598300  0.58982650  0.75070200  1
  Ni  Ni2_0  1  0.41017350  0.45598300  0.25070200  1
  Ni  Ni2_1  1  0.41017350  0.45598300  0.75070200  1
  Ni  Ni2_2  1  0.41017350  0.95598300  0.25070200  1
  Ni  Ni2_3  1  0.41017350  0.95598300  0.75070200  1
  Ni  Ni2_4  1  0.91017350  0.45598300  0.25070200  1
  Ni  Ni2_5  1  0.91017350  0.45598300  0.75070200  1
  Ni  Ni2_6  1  0.91017350  0.95598300  0.25070200  1
  Ni  Ni2_7  1  0.91017350  0.95598300  0.75070200  1
  Ni  Ni3_0  1  0.08982650  0.04401700  0.25070200  1
  Ni  Ni3_1  1  0.08982650  0.04401700  0.75070200  1
  Ni  Ni3_2  1  0.08982650  0.54401700  0.25070200  1
  Ni  Ni3_3  1  0.08982650  0.54401700  0.75070200  1
  Ni  Ni3_4  1  0.58982650  0.04401700  0.25070200  1
  Ni  Ni3_5  1  0.58982650  0.04401700  0.75070200  1
  Ni  Ni3_6  1  0.58982650  0.54401700  0.25070200  1
  Ni  Ni3_7  1  0.58982650  0.54401700  0.75070200  1
  Ni  Ni4_0  1  0.09478850  0.46900100  0.00065050  1
  Ni  Ni4_1  1  0.09478850  0.46900100  0.50065050  1
  Ni  Ni4_2  1  0.09478850  0.96900100  0.00065050  1
  Ni  Ni4_3  1  0.09478850  0.96900100  0.50065050  1
  Ni  Ni4_4  1  0.59478850  0.46900100  0.00065050  1
  Ni  Ni4_5  1  0.59478850  0.46900100  0.50065050  1
  Ni  Ni4_6  1  0.59478850  0.96900100  0.00065050  1
  Ni  Ni4_7  1  0.59478850  0.96900100  0.50065050  1
  Ni  Ni5_0  1  0.40521150  0.03099900  0.00065050  1
  Ni  Ni5_1  1  0.40521150  0.03099900  0.50065050  1
  Ni  Ni5_2  1  0.40521150  0.53099900  0.00065050  1
  Ni  Ni5_3  1  0.40521150  0.53099900  0.50065050  1
  Ni  Ni5_4  1  0.90521150  0.03099900  0.00065050  1
  Ni  Ni5_5  1  0.90521150  0.03099900  0.50065050  1
  Ni  Ni5_6  1  0.90521150  0.53099900  0.00065050  1
  Ni  Ni5_7  1  0.90521150  0.53099900  0.50065050  1
  Ni  Ni6_0  1  0.46900100  0.40521150  0.00065050  1
  Ni  Ni6_1  1  0.46900100  0.40521150  0.50065050  1
  Ni  Ni6_2  1  0.46900100  0.90521150  0.00065050  1
  Ni  Ni6_3  1  0.46900100  0.90521150  0.50065050  1
  Ni  Ni6_4  1  0.96900100  0.40521150  0.00065050  1
  Ni  Ni6_5  1  0.96900100  0.40521150  0.50065050  1
  Ni  Ni6_6  1  0.96900100  0.90521150  0.00065050  1
  Ni  Ni6_7  1  0.96900100  0.90521150  0.50065050  1
  Ni  Ni7_0  1  0.03099900  0.09478850  0.00065050  1
  Ni  Ni7_1  1  0.03099900  0.09478850  0.50065050  1
  Ni  Ni7_2  1  0.03099900  0.59478850  0.00065050  1
  Ni  Ni7_3  1  0.03099900  0.59478850  0.50065050  1
  Ni  Ni7_4  1  0.53099900  0.09478850  0.00065050  1
  Ni  Ni7_5  1  0.53099900  0.09478850  0.50065050  1
  Ni  Ni7_6  1  0.53099900  0.59478850  0.00065050  1
  Ni  Ni7_7  1  0.53099900  0.59478850  0.50065050  1
  Bi  Bi0_0  1  0.17827600  0.43902350  0.25127150  1
  Bi  Bi0_1  1  0.17827600  0.43902350  0.75127150  1
  Bi  Bi0_2  1  0.17827600  0.93902350  0.25127150  1
  Bi  Bi0_3  1  0.17827600  0.93902350  0.75127150  1
  Bi  Bi0_4  1  0.67827600  0.43902350  0.25127150  1
  Bi  Bi0_5  1  0.67827600  0.43902350  0.75127150  1
  Bi  Bi0_6  1  0.67827600  0.93902350  0.25127150  1
  Bi  Bi0_7  1  0.67827600  0.93902350  0.75127150  1
  Bi  Bi1_0  1  0.32172400  0.06097650  0.25127150  1
  Bi  Bi1_1  1  0.32172400  0.06097650  0.75127150  1
  Bi  Bi1_2  1  0.32172400  0.56097650  0.25127150  1
  Bi  Bi1_3  1  0.32172400  0.56097650  0.75127150  1
  Bi  Bi1_4  1  0.82172400  0.06097650  0.25127150  1
  Bi  Bi1_5  1  0.82172400  0.06097650  0.75127150  1
  Bi  Bi1_6  1  0.82172400  0.56097650  0.25127150  1
  Bi  Bi1_7  1  0.82172400  0.56097650  0.75127150  1
  Bi  Bi2_0  1  0.43902350  0.32172400  0.25127150  1
  Bi  Bi2_1  1  0.43902350  0.32172400  0.75127150  1
  Bi  Bi2_2  1  0.43902350  0.82172400  0.25127150  1
  Bi  Bi2_3  1  0.43902350  0.82172400  0.75127150  1
  Bi  Bi2_4  1  0.93902350  0.32172400  0.25127150  1
  Bi  Bi2_5  1  0.93902350  0.32172400  0.75127150  1
  Bi  Bi2_6  1  0.93902350  0.82172400  0.25127150  1
  Bi  Bi2_7  1  0.93902350  0.82172400  0.75127150  1
  Bi  Bi3_0  1  0.06097650  0.17827600  0.25127150  1
  Bi  Bi3_1  1  0.06097650  0.17827600  0.75127150  1
  Bi  Bi3_2  1  0.06097650  0.67827600  0.25127150  1
  Bi  Bi3_3  1  0.06097650  0.67827600  0.75127150  1
  Bi  Bi3_4  1  0.56097650  0.17827600  0.25127150  1
  Bi  Bi3_5  1  0.56097650  0.17827600  0.75127150  1
  Bi  Bi3_6  1  0.56097650  0.67827600  0.25127150  1
  Bi  Bi3_7  1  0.56097650  0.67827600  0.75127150  1
  Bi  Bi4_0  1  0.08564250  0.33165300  0.00011000  1
  Bi  Bi4_1  1  0.08564250  0.33165300  0.50011000  1
  Bi  Bi4_2  1  0.08564250  0.83165300  0.00011000  1
  Bi  Bi4_3  1  0.08564250  0.83165300  0.50011000  1
  Bi  Bi4_4  1  0.58564250  0.33165300  0.00011000  1
  Bi  Bi4_5  1  0.58564250  0.33165300  0.50011000  1
  Bi  Bi4_6  1  0.58564250  0.83165300  0.00011000  1
  Bi  Bi4_7  1  0.58564250  0.83165300  0.50011000  1
  Bi  Bi5_0  1  0.41435750  0.16834700  0.00011000  1
  Bi  Bi5_1  1  0.41435750  0.16834700  0.50011000  1
  Bi  Bi5_2  1  0.41435750  0.66834700  0.00011000  1
  Bi  Bi5_3  1  0.41435750  0.66834700  0.50011000  1
  Bi  Bi5_4  1  0.91435750  0.16834700  0.00011000  1
  Bi  Bi5_5  1  0.91435750  0.16834700  0.50011000  1
  Bi  Bi5_6  1  0.91435750  0.66834700  0.00011000  1
  Bi  Bi5_7  1  0.91435750  0.66834700  0.50011000  1
  Bi  Bi6_0  1  0.33165300  0.41435750  0.00011000  1
  Bi  Bi6_1  1  0.33165300  0.41435750  0.50011000  1
  Bi  Bi6_2  1  0.33165300  0.91435750  0.00011000  1
  Bi  Bi6_3  1  0.33165300  0.91435750  0.50011000  1
  Bi  Bi6_4  1  0.83165300  0.41435750  0.00011000  1
  Bi  Bi6_5  1  0.83165300  0.41435750  0.50011000  1
  Bi  Bi6_6  1  0.83165300  0.91435750  0.00011000  1
  Bi  Bi6_7  1  0.83165300  0.91435750  0.50011000  1
  Bi  Bi7_0  1  0.16834700  0.08564250  0.00011000  1
  Bi  Bi7_1  1  0.16834700  0.08564250  0.50011000  1
  Bi  Bi7_2  1  0.16834700  0.58564250  0.00011000  1
  Bi  Bi7_3  1  0.16834700  0.58564250  0.50011000  1
  Bi  Bi7_4  1  0.66834700  0.08564250  0.00011000  1
  Bi  Bi7_5  1  0.66834700  0.08564250  0.50011000  1
  Bi  Bi7_6  1  0.66834700  0.58564250  0.00011000  1
  Bi  Bi7_7  1  0.66834700  0.58564250  0.50011000  1
  S  S0_0  1  0.00000000  0.00000000  0.12612650  1
  S  S0_1  1  0.00000000  0.00000000  0.62612650  1
  S  S0_2  1  0.00000000  0.50000000  0.12612650  1
  S  S0_3  1  0.00000000  0.50000000  0.62612650  1
  S  S0_4  1  0.50000000  0.00000000  0.12612650  1
  S  S0_5  1  0.50000000  0.00000000  0.62612650  1
  S  S0_6  1  0.50000000  0.50000000  0.12612650  1
  S  S0_7  1  0.50000000  0.50000000  0.62612650  1
  I  I0_0  1  0.25000000  0.25000000  0.25763750  1
  I  I0_1  1  0.25000000  0.25000000  0.75763750  1
  I  I0_2  1  0.25000000  0.75000000  0.25763750  1
  I  I0_3  1  0.25000000  0.75000000  0.75763750  1
  I  I0_4  1  0.75000000  0.25000000  0.25763750  1
  I  I0_5  1  0.75000000  0.25000000  0.75763750  1
  I  I0_6  1  0.75000000  0.75000000  0.25763750  1
  I  I0_7  1  0.75000000  0.75000000  0.75763750  1
loop_
_geom_bond_atom_site_label_1
_geom_bond_atom_site_label_2
_geom_bond_distance
_geom_bond_site_symmetry_2
Ni0_0 S0_2 2.232271 1_555
Ni0_0 Ni6_5 2.573529 1_455
Ni0_0 Ni6_4 2.574238 1_455
Ni0_0 Ni4_1 2.602495 1_555
Ni0_0 Ni4_0 2.603196 1_555
Ni0_0 Ni3_2 2.786609 1_555
Ni0_0 Ni2_4 2.786609 1_455
Ni0_1 S0_3 2.232271 1_555
Ni0_1 Ni6_4 2.573529 1_456
Ni0_1 Ni6_5 2.574238 1_455
Ni0_1 Ni4_0 2.602495 1_556
Ni0_1 Ni4_1 2.603196 1_555
Ni0_1 Ni3_3 2.786609 1_555
Ni0_1 Ni2_5 2.786609 1_455
Ni0_2 S0_0 2.232271 1_565
Ni0_2 Ni6_7 2.573529 1_455
Ni0_2 Ni6_6 2.574238 1_455
Ni0_2 Ni4_3 2.602495 1_555
Ni0_2 Ni4_2 2.603196 1_555
Ni0_2 Ni3_0 2.786609 1_565
Ni0_2 Ni2_6 2.786609 1_455
Ni0_3 S0_1 2.232271 1_565
Ni0_3 Ni6_6 2.573529 1_456
Ni0_3 Ni6_7 2.574238 1_455
Ni0_3 Ni4_2 2.602495 1_556
Ni0_3 Ni4_3 2.603196 1_555
Ni0_3 Ni3_1 2.786609 1_565
Ni0_3 Ni2_7 2.786609 1_455
Ni0_4 S0_6 2.232271 1_555
Ni0_4 Ni6_1 2.573529 1_555
Ni0_4 Ni6_0 2.574238 1_555
Ni0_4 Ni4_5 2.602495 1_555
Ni0_4 Ni4_4 2.603196 1_555
Ni0_4 Ni3_6 2.786609 1_555
Ni0_4 Ni2_0 2.786609 1_555
Ni0_5 S0_7 2.232271 1_555
Ni0_5 Ni6_0 2.573529 1_556
Ni0_5 Ni6_1 2.574238 1_555
Ni0_5 Ni4_4 2.602495 1_556
Ni0_5 Ni4_5 2.603196 1_555
Ni0_5 Ni3_7 2.786609 1_555
Ni0_5 Ni2_1 2.786609 1_555
Ni0_6 S0_4 2.232271 1_565
Ni0_6 Ni6_3 2.573529 1_555
Ni0_6 Ni6_2 2.574238 1_555
Ni0_6 Ni4_7 2.602495 1_555
Ni0_6 Ni4_6 2.603196 1_555
Ni0_6 Ni3_4 2.786609 1_565
Ni0_6 Ni2_2 2.786609 1_555
Ni0_7 S0_5 2.232271 1_565
Ni0_7 Ni6_2 2.573529 1_556
Ni0_7 Ni6_3 2.574238 1_555
Ni0_7 Ni4_6 2.602495 1_556
Ni0_7 Ni4_7 2.603196 1_555
Ni0_7 Ni3_5 2.786609 1_565
Ni0_7 Ni2_3 2.786609 1_555
Ni1_0 S0_4 2.232271 1_555
Ni1_0 Ni7_5 2.573529 1_555
Ni1_0 Ni7_4 2.574238 1_555
Ni1_0 Ni5_1 2.602495 1_555
Ni1_0 Ni5_0 2.603196 1_555
Ni1_0 Ni3_4 2.786609 1_555
Ni1_0 Ni2_2 2.786609 1_545
Ni1_1 S0_5 2.232271 1_555
Ni1_1 Ni7_4 2.573529 1_556
Ni1_1 Ni7_5 2.574238 1_555
Ni1_1 Ni5_0 2.602495 1_556
Ni1_1 Ni5_1 2.603196 1_555
Ni1_1 Ni3_5 2.786609 1_555
Ni1_1 Ni2_3 2.786609 1_545
Ni1_2 S0_6 2.232271 1_555
Ni1_2 Ni7_7 2.573529 1_555
Ni1_2 Ni7_6 2.574238 1_555
Ni1_2 Ni5_3 2.602495 1_555
Ni1_2 Ni5_2 2.603196 1_555
Ni1_2 Ni3_6 2.786609 1_555
Ni1_2 Ni2_0 2.786609 1_555
Ni1_3 S0_7 2.232271 1_555
Ni1_3 Ni7_6 2.573529 1_556
Ni1_3 Ni7_7 2.574238 1_555
Ni1_3 Ni5_2 2.602495 1_556
Ni1_3 Ni5_3 2.603196 1_555
Ni1_3 Ni3_7 2.786609 1_555
Ni1_3 Ni2_1 2.786609 1_555
Ni1_4 S0_0 2.232271 1_655
Ni1_4 Ni7_1 2.573529 1_655
Ni1_4 Ni7_0 2.574238 1_655
Ni1_4 Ni5_5 2.602495 1_555
Ni1_4 Ni5_4 2.603196 1_555
Ni1_4 Ni3_0 2.786609 1_655
Ni1_4 Ni2_6 2.786609 1_545
Ni1_5 S0_1 2.232271 1_655
Ni1_5 Ni7_0 2.573529 1_656
Ni1_5 Ni7_1 2.574238 1_655
Ni1_5 Ni5_4 2.602495 1_556
Ni1_5 Ni5_5 2.603196 1_555
Ni1_5 Ni3_1 2.786609 1_655
Ni1_5 Ni2_7 2.786609 1_545
Ni1_6 S0_2 2.232271 1_655
Ni1_6 Ni7_3 2.573529 1_655
Ni1_6 Ni7_2 2.574238 1_655
Ni1_6 Ni5_7 2.602495 1_555
Ni1_6 Ni5_6 2.603196 1_555
Ni1_6 Ni3_2 2.786609 1_655
Ni1_6 Ni2_4 2.786609 1_555
Ni1_7 S0_3 2.232271 1_655
Ni1_7 Ni7_2 2.573529 1_656
Ni1_7 Ni7_3 2.574238 1_655
Ni1_7 Ni5_6 2.602495 1_556
Ni1_7 Ni5_7 2.603196 1_555
Ni1_7 Ni3_3 2.786609 1_655
Ni1_7 Ni2_5 2.786609 1_555
Ni2_0 S0_6 2.232271 1_555
Ni2_0 Ni5_3 2.573529 1_555
Ni2_0 Ni5_2 2.574238 1_555
Ni2_0 Ni6_1 2.602495 1_555
Ni2_0 Ni6_0 2.603196 1_555
Ni2_1 S0_7 2.232271 1_555
Ni2_1 Ni5_2 2.573529 1_556
Ni2_1 Ni5_3 2.574238 1_555
Ni2_1 Ni6_0 2.602495 1_556
Ni2_1 Ni6_1 2.603196 1_555
Ni2_2 S0_4 2.232271 1_565
Ni2_2 Ni5_1 2.573529 1_565
Ni2_2 Ni5_0 2.574238 1_565
Ni2_2 Ni6_3 2.602495 1_555
Ni2_2 Ni6_2 2.603196 1_555
Ni2_3 S0_5 2.232271 1_565
Ni2_3 Ni5_0 2.573529 1_566
Ni2_3 Ni5_1 2.574238 1_565
Ni2_3 Ni6_2 2.602495 1_556
Ni2_3 Ni6_3 2.603196 1_555
Ni2_4 S0_2 2.232271 1_655
Ni2_4 Ni5_7 2.573529 1_555
Ni2_4 Ni5_6 2.574238 1_555
Ni2_4 Ni6_5 2.602495 1_555
Ni2_4 Ni6_4 2.603196 1_555
Ni2_5 S0_3 2.232271 1_655
Ni2_5 Ni5_6 2.573529 1_556
Ni2_5 Ni5_7 2.574238 1_555
Ni2_5 Ni6_4 2.602495 1_556
Ni2_5 Ni6_5 2.603196 1_555
Ni2_6 S0_0 2.232271 1_665
Ni2_6 Ni5_5 2.573529 1_565
Ni2_6 Ni5_4 2.574238 1_565
Ni2_6 Ni6_7 2.602495 1_555
Ni2_6 Ni6_6 2.603196 1_555
Ni2_7 S0_1 2.232271 1_665
Ni2_7 Ni5_4 2.573529 1_566
Ni2_7 Ni5_5 2.574238 1_565
Ni2_7 Ni6_6 2.602495 1_556
Ni2_7 Ni6_7 2.603196 1_555
Ni3_0 S0_0 2.232271 1_555
Ni3_0 Ni4_3 2.573529 1_545
Ni3_0 Ni4_2 2.574238 1_545
Ni3_0 Ni7_1 2.602495 1_555
Ni3_0 Ni7_0 2.603196 1_555
Ni3_1 S0_1 2.232271 1_555
Ni3_1 Ni4_2 2.573529 1_546
Ni3_1 Ni4_3 2.574238 1_545
Ni3_1 Ni7_0 2.602495 1_556
Ni3_1 Ni7_1 2.603196 1_555
Ni3_2 S0_2 2.232271 1_555
Ni3_2 Ni4_1 2.573529 1_555
Ni3_2 Ni4_0 2.574238 1_555
Ni3_2 Ni7_3 2.602495 1_555
Ni3_2 Ni7_2 2.603196 1_555
Ni3_3 S0_3 2.232271 1_555
Ni3_3 Ni4_0 2.573529 1_556
Ni3_3 Ni4_1 2.574238 1_555
Ni3_3 Ni7_2 2.602495 1_556
Ni3_3 Ni7_3 2.603196 1_555
Ni3_4 S0_4 2.232271 1_555
Ni3_4 Ni4_7 2.573529 1_545
Ni3_4 Ni4_6 2.574238 1_545
Ni3_4 Ni7_5 2.602495 1_555
Ni3_4 Ni7_4 2.603196 1_555
Ni3_5 S0_5 2.232271 1_555
Ni3_5 Ni4_6 2.573529 1_546
Ni3_5 Ni4_7 2.574238 1_545
Ni3_5 Ni7_4 2.602495 1_556
Ni3_5 Ni7_5 2.603196 1_555
Ni3_6 S0_6 2.232271 1_555
Ni3_6 Ni4_5 2.573529 1_555
Ni3_6 Ni4_4 2.574238 1_555
Ni3_6 Ni7_7 2.602495 1_555
Ni3_6 Ni7_6 2.603196 1_555
Ni3_7 S0_7 2.232271 1_555
Ni3_7 Ni4_4 2.573529 1_556
Ni3_7 Ni4_5 2.574238 1_555
Ni3_7 Ni7_6 2.602495 1_556
Ni3_7 Ni7_7 2.603196 1_555
Ni4_0 S0_2 2.230589 1_555
Ni4_0 Ni6_4 2.778172 1_455
Ni4_0 Ni7_2 2.778172 1_555
Ni4_1 S0_3 2.230589 1_555
Ni4_1 Ni6_5 2.778172 1_455
Ni4_1 Ni7_3 2.778172 1_555
Ni4_2 S0_0 2.230589 1_565
Ni4_2 Ni7_0 2.778172 1_565
Ni4_2 Ni6_6 2.778172 1_455
Ni4_3 S0_1 2.230589 1_565
Ni4_3 Ni6_7 2.778172 1_455
Ni4_3 Ni7_1 2.778172 1_565
Ni4_4 S0_6 2.230589 1_555
Ni4_4 Ni6_0 2.778172 1_555
Ni4_4 Ni7_6 2.778172 1_555
Ni4_5 S0_7 2.230589 1_555
Ni4_5 Ni6_1 2.778172 1_555
Ni4_5 Ni7_7 2.778172 1_555
Ni4_6 S0_4 2.230589 1_565
Ni4_6 Ni7_4 2.778172 1_565
Ni4_6 Ni6_2 2.778172 1_555
Ni4_7 S0_5 2.230589 1_565
Ni4_7 Ni7_5 2.778172 1_565
Ni4_7 Ni6_3 2.778172 1_555
Ni5_0 S0_4 2.230589 1_555
Ni5_0 Ni6_2 2.778172 1_545
Ni5_0 Ni7_4 2.778172 1_555
Ni5_1 S0_5 2.230589 1_555
Ni5_1 Ni6_3 2.778172 1_545
Ni5_1 Ni7_5 2.778172 1_555
Ni5_2 S0_6 2.230589 1_555
Ni5_2 Ni6_0 2.778172 1_555
Ni5_2 Ni7_6 2.778172 1_555
Ni5_3 S0_7 2.230589 1_555
Ni5_3 Ni6_1 2.778172 1_555
Ni5_3 Ni7_7 2.778172 1_555
Ni5_4 S0_0 2.230589 1_655
Ni5_4 Ni6_6 2.778172 1_545
Ni5_4 Ni7_0 2.778172 1_655
Ni5_5 S0_1 2.230589 1_655
Ni5_5 Ni6_7 2.778172 1_545
Ni5_5 Ni7_1 2.778172 1_655
Ni5_6 S0_2 2.230589 1_655
Ni5_6 Ni6_4 2.778172 1_555
Ni5_6 Ni7_2 2.778172 1_655
Ni5_7 S0_3 2.230589 1_655
Ni5_7 Ni6_5 2.778172 1_555
Ni5_7 Ni7_3 2.778172 1_655
Ni6_0 S0_6 2.230589 1_555
Ni6_1 S0_7 2.230589 1_555
Ni6_2 S0_4 2.230589 1_565
Ni6_3 S0_5 2.230589 1_565
Ni6_4 S0_2 2.230589 1_655
Ni6_5 S0_3 2.230589 1_655
Ni6_6 S0_0 2.230589 1_665
Ni6_7 S0_1 2.230589 1_665
Ni7_0 S0_0 2.230589 1_555
Ni7_1 S0_1 2.230589 1_555
Ni7_2 S0_2 2.230589 1_555
Ni7_3 S0_3 2.230589 1_555
Ni7_4 S0_4 2.230589 1_555
Ni7_5 S0_5 2.230589 1_555
Ni7_6 S0_6 2.230589 1_555
Ni7_7 S0_7 2.230589 1_555
Bi0_0 Ni3_2 2.704242 1_555
Bi0_0 Ni0_0 2.705020 1_555
Bi0_0 Ni4_1 2.731855 1_555
Bi0_0 Ni4_0 2.739903 1_555
Bi0_0 Bi4_1 3.491915 1_555
Bi0_0 Bi4_0 3.503688 1_555
Bi0_0 Bi7_3 3.573539 1_555
Bi0_0 Bi7_2 3.585045 1_555
Bi0_0 Bi6_1 3.708727 1_555
Bi0_0 Bi1_2 3.708784 1_555
Bi0_0 Bi6_0 3.719814 1_555
Bi0_0 I0_0 3.982799 1_555
Bi0_1 Ni3_3 2.704242 1_555
Bi0_1 Ni0_1 2.705020 1_555
Bi0_1 Ni4_0 2.731855 1_556
Bi0_1 Ni4_1 2.739903 1_555
Bi0_1 Bi4_0 3.491915 1_556
Bi0_1 Bi4_1 3.503688 1_555
Bi0_1 Bi7_2 3.573539 1_556
Bi0_1 Bi7_3 3.585045 1_555
Bi0_1 Bi6_0 3.708727 1_556
Bi0_1 Bi1_3 3.708784 1_555
Bi0_1 Bi6_1 3.719814 1_555
Bi0_1 I0_1 3.982799 1_555
Bi0_2 Ni3_0 2.704242 1_565
Bi0_2 Ni0_2 2.705020 1_555
Bi0_2 Ni4_3 2.731855 1_555
Bi0_2 Ni4_2 2.739903 1_555
Bi0_2 Bi4_3 3.491915 1_555
Bi0_2 Bi4_2 3.503688 1_555
Bi0_2 Bi7_1 3.573539 1_565
Bi0_2 Bi7_0 3.585045 1_565
Bi0_2 Bi6_3 3.708727 1_555
Bi0_2 Bi1_0 3.708784 1_565
Bi0_2 Bi6_2 3.719814 1_555
Bi0_2 I0_2 3.982799 1_555
Bi0_3 Ni3_1 2.704242 1_565
Bi0_3 Ni0_3 2.705020 1_555
Bi0_3 Ni4_2 2.731855 1_556
Bi0_3 Ni4_3 2.739903 1_555
Bi0_3 Bi4_2 3.491915 1_556
Bi0_3 Bi4_3 3.503688 1_555
Bi0_3 Bi7_0 3.573539 1_566
Bi0_3 Bi7_1 3.585045 1_565
Bi0_3 Bi6_2 3.708727 1_556
Bi0_3 Bi1_1 3.708784 1_565
Bi0_3 Bi6_3 3.719814 1_555
Bi0_3 I0_3 3.982799 1_555
Bi0_4 Ni3_6 2.704242 1_555
Bi0_4 Ni0_4 2.705020 1_555
Bi0_4 Ni4_5 2.731855 1_555
Bi0_4 Ni4_4 2.739903 1_555
Bi0_4 Bi4_5 3.491915 1_555
Bi0_4 Bi4_4 3.503688 1_555
Bi0_4 Bi7_7 3.573539 1_555
Bi0_4 Bi7_6 3.585045 1_555
Bi0_4 Bi6_5 3.708727 1_555
Bi0_4 Bi1_6 3.708784 1_555
Bi0_4 Bi6_4 3.719814 1_555
Bi0_4 I0_4 3.982799 1_555
Bi0_5 Ni3_7 2.704242 1_555
Bi0_5 Ni0_5 2.705020 1_555
Bi0_5 Ni4_4 2.731855 1_556
Bi0_5 Ni4_5 2.739903 1_555
Bi0_5 Bi4_4 3.491915 1_556
Bi0_5 Bi4_5 3.503688 1_555
Bi0_5 Bi7_6 3.573539 1_556
Bi0_5 Bi7_7 3.585045 1_555
Bi0_5 Bi6_4 3.708727 1_556
Bi0_5 Bi1_7 3.708784 1_555
Bi0_5 Bi6_5 3.719814 1_555
Bi0_5 I0_5 3.982799 1_555
Bi0_6 Ni3_4 2.704242 1_565
Bi0_6 Ni0_6 2.705020 1_555
Bi0_6 Ni4_7 2.731855 1_555
Bi0_6 Ni4_6 2.739903 1_555
Bi0_6 Bi4_7 3.491915 1_555
Bi0_6 Bi4_6 3.503688 1_555
Bi0_6 Bi7_5 3.573539 1_565
Bi0_6 Bi7_4 3.585045 1_565
Bi0_6 Bi6_7 3.708727 1_555
Bi0_6 Bi1_4 3.708784 1_565
Bi0_6 Bi6_6 3.719814 1_555
Bi0_6 I0_6 3.982799 1_555
Bi0_7 Ni3_5 2.704242 1_565
Bi0_7 Ni0_7 2.705020 1_555
Bi0_7 Ni4_6 2.731855 1_556
Bi0_7 Ni4_7 2.739903 1_555
Bi0_7 Bi4_6 3.491915 1_556
Bi0_7 Bi4_7 3.503688 1_555
Bi0_7 Bi7_4 3.573539 1_566
Bi0_7 Bi7_5 3.585045 1_565
Bi0_7 Bi6_6 3.708727 1_556
Bi0_7 Bi1_5 3.708784 1_565
Bi0_7 Bi6_7 3.719814 1_555
Bi0_7 I0_7 3.982799 1_555
Bi1_0 Ni2_2 2.704242 1_545
Bi1_0 Ni1_0 2.705020 1_555
Bi1_0 Ni5_1 2.731855 1_555
Bi1_0 Ni5_0 2.739903 1_555
Bi1_0 Bi5_1 3.491915 1_555
Bi1_0 Bi5_0 3.503688 1_555
Bi1_0 Bi6_3 3.573539 1_545
Bi1_0 Bi6_2 3.585045 1_545
Bi1_0 Bi7_1 3.708727 1_555
Bi1_0 Bi7_0 3.719814 1_555
Bi1_0 I0_0 3.982799 1_555
Bi1_1 Ni2_3 2.704242 1_545
Bi1_1 Ni1_1 2.705020 1_555
Bi1_1 Ni5_0 2.731855 1_556
Bi1_1 Ni5_1 2.739903 1_555
Bi1_1 Bi5_0 3.491915 1_556
Bi1_1 Bi5_1 3.503688 1_555
Bi1_1 Bi6_2 3.573539 1_546
Bi1_1 Bi6_3 3.585045 1_545
Bi1_1 Bi7_0 3.708727 1_556
Bi1_1 Bi7_1 3.719814 1_555
Bi1_1 I0_1 3.982799 1_555
Bi1_2 Ni2_0 2.704242 1_555
Bi1_2 Ni1_2 2.705020 1_555
Bi1_2 Ni5_3 2.731855 1_555
Bi1_2 Ni5_2 2.739903 1_555
Bi1_2 Bi5_3 3.491915 1_555
Bi1_2 Bi5_2 3.503688 1_555
Bi1_2 Bi6_1 3.573539 1_555
Bi1_2 Bi6_0 3.585045 1_555
Bi1_2 Bi7_3 3.708727 1_555
Bi1_2 Bi7_2 3.719814 1_555
Bi1_2 I0_2 3.982799 1_555
Bi1_3 Ni2_1 2.704242 1_555
Bi1_3 Ni1_3 2.705020 1_555
Bi1_3 Ni5_2 2.731855 1_556
Bi1_3 Ni5_3 2.739903 1_555
Bi1_3 Bi5_2 3.491915 1_556
Bi1_3 Bi5_3 3.503688 1_555
Bi1_3 Bi6_0 3.573539 1_556
Bi1_3 Bi6_1 3.585045 1_555
Bi1_3 Bi7_2 3.708727 1_556
Bi1_3 Bi7_3 3.719814 1_555
Bi1_3 I0_3 3.982799 1_555
Bi1_4 Ni2_6 2.704242 1_545
Bi1_4 Ni1_4 2.705020 1_555
Bi1_4 Ni5_5 2.731855 1_555
Bi1_4 Ni5_4 2.739903 1_555
Bi1_4 Bi5_5 3.491915 1_555
Bi1_4 Bi5_4 3.503688 1_555
Bi1_4 Bi6_7 3.573539 1_545
Bi1_4 Bi6_6 3.585045 1_545
Bi1_4 Bi7_5 3.708727 1_555
Bi1_4 Bi7_4 3.719814 1_555
Bi1_4 I0_4 3.982799 1_555
Bi1_5 Ni2_7 2.704242 1_545
Bi1_5 Ni1_5 2.705020 1_555
Bi1_5 Ni5_4 2.731855 1_556
Bi1_5 Ni5_5 2.739903 1_555
Bi1_5 Bi5_4 3.491915 1_556
Bi1_5 Bi5_5 3.503688 1_555
Bi1_5 Bi6_6 3.573539 1_546
Bi1_5 Bi6_7 3.585045 1_545
Bi1_5 Bi7_4 3.708727 1_556
Bi1_5 Bi7_5 3.719814 1_555
Bi1_5 I0_5 3.982799 1_555
Bi1_6 Ni2_4 2.704242 1_555
Bi1_6 Ni1_6 2.705020 1_555
Bi1_6 Ni5_7 2.731855 1_555
Bi1_6 Ni5_6 2.739903 1_555
Bi1_6 Bi5_7 3.491915 1_555
Bi1_6 Bi5_6 3.503688 1_555
Bi1_6 Bi6_5 3.573539 1_555
Bi1_6 Bi6_4 3.585045 1_555
Bi1_6 Bi7_7 3.708727 1_555
Bi1_6 Bi7_6 3.719814 1_555
Bi1_6 I0_6 3.982799 1_555
Bi1_7 Ni2_5 2.704242 1_555
Bi1_7 Ni1_7 2.705020 1_555
Bi1_7 Ni5_6 2.731855 1_556
Bi1_7 Ni5_7 2.739903 1_555
Bi1_7 Bi5_6 3.491915 1_556
Bi1_7 Bi5_7 3.503688 1_555
Bi1_7 Bi6_4 3.573539 1_556
Bi1_7 Bi6_5 3.585045 1_555
Bi1_7 Bi7_6 3.708727 1_556
Bi1_7 Bi7_7 3.719814 1_555
Bi1_7 I0_7 3.982799 1_555
Bi2_0 Ni0_4 2.704242 1_555
Bi2_0 Ni2_0 2.705020 1_555
Bi2_0 Ni6_1 2.731855 1_555
Bi2_0 Ni6_0 2.739903 1_555
Bi2_0 Bi6_1 3.491915 1_555
Bi2_0 Bi6_0 3.503688 1_555
Bi2_0 Bi4_5 3.573539 1_555
Bi2_0 Bi4_4 3.585045 1_555
Bi2_0 Bi5_1 3.708727 1_555
Bi2_0 Bi3_4 3.708784 1_555
Bi2_0 Bi5_0 3.719814 1_555
Bi2_0 I0_0 3.982799 1_555
Bi2_1 Ni0_5 2.704242 1_555
Bi2_1 Ni2_1 2.705020 1_555
Bi2_1 Ni6_0 2.731855 1_556
Bi2_1 Ni6_1 2.739903 1_555
Bi2_1 Bi6_0 3.491915 1_556
Bi2_1 Bi6_1 3.503688 1_555
Bi2_1 Bi4_4 3.573539 1_556
Bi2_1 Bi4_5 3.585045 1_555
Bi2_1 Bi5_0 3.708727 1_556
Bi2_1 Bi3_5 3.708784 1_555
Bi2_1 Bi5_1 3.719814 1_555
Bi2_1 I0_1 3.982799 1_555
Bi2_2 Ni0_6 2.704242 1_555
Bi2_2 Ni2_2 2.705020 1_555
Bi2_2 Ni6_3 2.731855 1_555
Bi2_2 Ni6_2 2.739903 1_555
Bi2_2 Bi6_3 3.491915 1_555
Bi2_2 Bi6_2 3.503688 1_555
Bi2_2 Bi4_7 3.573539 1_555
Bi2_2 Bi4_6 3.585045 1_555
Bi2_2 Bi5_3 3.708727 1_555
Bi2_2 Bi3_6 3.708784 1_555
Bi2_2 Bi5_2 3.719814 1_555
Bi2_2 I0_2 3.982799 1_555
Bi2_3 Ni0_7 2.704242 1_555
Bi2_3 Ni2_3 2.705020 1_555
Bi2_3 Ni6_2 2.731855 1_556
Bi2_3 Ni6_3 2.739903 1_555
Bi2_3 Bi6_2 3.491915 1_556
Bi2_3 Bi6_3 3.503688 1_555
Bi2_3 Bi4_6 3.573539 1_556
Bi2_3 Bi4_7 3.585045 1_555
Bi2_3 Bi5_2 3.708727 1_556
Bi2_3 Bi3_7 3.708784 1_555
Bi2_3 Bi5_3 3.719814 1_555
Bi2_3 I0_3 3.982799 1_555
Bi2_4 Ni0_0 2.704242 1_655
Bi2_4 Ni2_4 2.705020 1_555
Bi2_4 Ni6_5 2.731855 1_555
Bi2_4 Ni6_4 2.739903 1_555
Bi2_4 Bi6_5 3.491915 1_555
Bi2_4 Bi6_4 3.503688 1_555
Bi2_4 Bi4_1 3.573539 1_655
Bi2_4 Bi4_0 3.585045 1_655
Bi2_4 Bi5_5 3.708727 1_555
Bi2_4 Bi3_0 3.708784 1_655
Bi2_4 Bi5_4 3.719814 1_555
Bi2_4 I0_4 3.982799 1_555
Bi2_5 Ni0_1 2.704242 1_655
Bi2_5 Ni2_5 2.705020 1_555
Bi2_5 Ni6_4 2.731855 1_556
Bi2_5 Ni6_5 2.739903 1_555
Bi2_5 Bi6_4 3.491915 1_556
Bi2_5 Bi6_5 3.503688 1_555
Bi2_5 Bi4_0 3.573539 1_656
Bi2_5 Bi4_1 3.585045 1_655
Bi2_5 Bi5_4 3.708727 1_556
Bi2_5 Bi3_1 3.708784 1_655
Bi2_5 Bi5_5 3.719814 1_555
Bi2_5 I0_5 3.982799 1_555
Bi2_6 Ni0_2 2.704242 1_655
Bi2_6 Ni2_6 2.705020 1_555
Bi2_6 Ni6_7 2.731855 1_555
Bi2_6 Ni6_6 2.739903 1_555
Bi2_6 Bi6_7 3.491915 1_555
Bi2_6 Bi6_6 3.503688 1_555
Bi2_6 Bi4_3 3.573539 1_655
Bi2_6 Bi4_2 3.585045 1_655
Bi2_6 Bi5_7 3.708727 1_555
Bi2_6 Bi3_2 3.708784 1_655
Bi2_6 Bi5_6 3.719814 1_555
Bi2_6 I0_6 3.982799 1_555
Bi2_7 Ni0_3 2.704242 1_655
Bi2_7 Ni2_7 2.705020 1_555
Bi2_7 Ni6_6 2.731855 1_556
Bi2_7 Ni6_7 2.739903 1_555
Bi2_7 Bi6_6 3.491915 1_556
Bi2_7 Bi6_7 3.503688 1_555
Bi2_7 Bi4_2 3.573539 1_656
Bi2_7 Bi4_3 3.585045 1_655
Bi2_7 Bi5_6 3.708727 1_556
Bi2_7 Bi3_3 3.708784 1_655
Bi2_7 Bi5_7 3.719814 1_555
Bi2_7 I0_7 3.982799 1_555
Bi3_0 Ni1_4 2.704242 1_455
Bi3_0 Ni3_0 2.705020 1_555
Bi3_0 Ni7_1 2.731855 1_555
Bi3_0 Ni7_0 2.739903 1_555
Bi3_0 Bi7_1 3.491915 1_555
Bi3_0 Bi7_0 3.503688 1_555
Bi3_0 Bi5_5 3.573539 1_455
Bi3_0 Bi5_4 3.585045 1_455
Bi3_0 Bi4_1 3.708727 1_555
Bi3_0 Bi4_0 3.719814 1_555
Bi3_0 I0_0 3.982799 1_555
Bi3_1 Ni1_5 2.704242 1_455
Bi3_1 Ni3_1 2.705020 1_555
Bi3_1 Ni7_0 2.731855 1_556
Bi3_1 Ni7_1 2.739903 1_555
Bi3_1 Bi7_0 3.491915 1_556
Bi3_1 Bi7_1 3.503688 1_555
Bi3_1 Bi5_4 3.573539 1_456
Bi3_1 Bi5_5 3.585045 1_455
Bi3_1 Bi4_0 3.708727 1_556
Bi3_1 Bi4_1 3.719814 1_555
Bi3_1 I0_1 3.982799 1_555
Bi3_2 Ni1_6 2.704242 1_455
Bi3_2 Ni3_2 2.705020 1_555
Bi3_2 Ni7_3 2.731855 1_555
Bi3_2 Ni7_2 2.739903 1_555
Bi3_2 Bi7_3 3.491915 1_555
Bi3_2 Bi7_2 3.503688 1_555
Bi3_2 Bi5_7 3.573539 1_455
Bi3_2 Bi5_6 3.585045 1_455
Bi3_2 Bi4_3 3.708727 1_555
Bi3_2 Bi4_2 3.719814 1_555
Bi3_2 I0_2 3.982799 1_555
Bi3_3 Ni1_7 2.704242 1_455
Bi3_3 Ni3_3 2.705020 1_555
Bi3_3 Ni7_2 2.731855 1_556
Bi3_3 Ni7_3 2.739903 1_555
Bi3_3 Bi7_2 3.491915 1_556
Bi3_3 Bi7_3 3.503688 1_555
Bi3_3 Bi5_6 3.573539 1_456
Bi3_3 Bi5_7 3.585045 1_455
Bi3_3 Bi4_2 3.708727 1_556
Bi3_3 Bi4_3 3.719814 1_555
Bi3_3 I0_3 3.982799 1_555
Bi3_4 Ni1_0 2.704242 1_555
Bi3_4 Ni3_4 2.705020 1_555
Bi3_4 Ni7_5 2.731855 1_555
Bi3_4 Ni7_4 2.739903 1_555
Bi3_4 Bi7_5 3.491915 1_555
Bi3_4 Bi7_4 3.503688 1_555
Bi3_4 Bi5_1 3.573539 1_555
Bi3_4 Bi5_0 3.585045 1_555
Bi3_4 Bi4_5 3.708727 1_555
Bi3_4 Bi4_4 3.719814 1_555
Bi3_4 I0_4 3.982799 1_555
Bi3_5 Ni1_1 2.704242 1_555
Bi3_5 Ni3_5 2.705020 1_555
Bi3_5 Ni7_4 2.731855 1_556
Bi3_5 Ni7_5 2.739903 1_555
Bi3_5 Bi7_4 3.491915 1_556
Bi3_5 Bi7_5 3.503688 1_555
Bi3_5 Bi5_0 3.573539 1_556
Bi3_5 Bi5_1 3.585045 1_555
Bi3_5 Bi4_4 3.708727 1_556
Bi3_5 Bi4_5 3.719814 1_555
Bi3_5 I0_5 3.982799 1_555
Bi3_6 Ni1_2 2.704242 1_555
Bi3_6 Ni3_6 2.705020 1_555
Bi3_6 Ni7_7 2.731855 1_555
Bi3_6 Ni7_6 2.739903 1_555
Bi3_6 Bi7_7 3.491915 1_555
Bi3_6 Bi7_6 3.503688 1_555
Bi3_6 Bi5_3 3.573539 1_555
Bi3_6 Bi5_2 3.585045 1_555
Bi3_6 Bi4_7 3.708727 1_555
Bi3_6 Bi4_6 3.719814 1_555
Bi3_6 I0_6 3.982799 1_555
Bi3_7 Ni1_3 2.704242 1_555
Bi3_7 Ni3_7 2.705020 1_555
Bi3_7 Ni7_6 2.731855 1_556
Bi3_7 Ni7_7 2.739903 1_555
Bi3_7 Bi7_6 3.491915 1_556
Bi3_7 Bi7_7 3.503688 1_555
Bi3_7 Bi5_2 3.573539 1_556
Bi3_7 Bi5_3 3.585045 1_555
Bi3_7 Bi4_6 3.708727 1_556
Bi3_7 Bi4_7 3.719814 1_555
Bi3_7 I0_7 3.982799 1_555
Bi4_0 Ni4_0 2.711490 1_555
Bi4_0 Ni6_4 2.716349 1_455
Bi4_0 Ni0_1 2.734126 1_554
Bi4_0 Ni0_0 2.741792 1_555
Bi4_0 I0_1 4.151809 1_554
Bi4_0 I0_0 4.215600 1_555
Bi4_1 Ni4_1 2.711490 1_555
Bi4_1 Ni6_5 2.716349 1_455
Bi4_1 Ni0_0 2.734126 1_555
Bi4_1 Ni0_1 2.741792 1_555
Bi4_1 I0_0 4.151809 1_555
Bi4_1 I0_1 4.215600 1_555
Bi4_2 Ni4_2 2.711490 1_555
Bi4_2 Ni6_6 2.716349 1_455
Bi4_2 Ni0_3 2.734126 1_554
Bi4_2 Ni0_2 2.741792 1_555
Bi4_2 I0_3 4.151809 1_554
Bi4_2 I0_2 4.215600 1_555
Bi4_3 Ni4_3 2.711490 1_555
Bi4_3 Ni6_7 2.716349 1_455
Bi4_3 Ni0_2 2.734126 1_555
Bi4_3 Ni0_3 2.741792 1_555
Bi4_3 I0_2 4.151809 1_555
Bi4_3 I0_3 4.215600 1_555
Bi4_4 Ni4_4 2.711490 1_555
Bi4_4 Ni6_0 2.716349 1_555
Bi4_4 Ni0_5 2.734126 1_554
Bi4_4 Ni0_4 2.741792 1_555
Bi4_4 I0_5 4.151809 1_554
Bi4_4 I0_4 4.215600 1_555
Bi4_5 Ni4_5 2.711490 1_555
Bi4_5 Ni6_1 2.716349 1_555
Bi4_5 Ni0_4 2.734126 1_555
Bi4_5 Ni0_5 2.741792 1_555
Bi4_5 I0_4 4.151809 1_555
Bi4_5 I0_5 4.215600 1_555
Bi4_6 Ni4_6 2.711490 1_555
Bi4_6 Ni6_2 2.716349 1_555
Bi4_6 Ni0_7 2.734126 1_554
Bi4_6 Ni0_6 2.741792 1_555
Bi4_6 I0_7 4.151809 1_554
Bi4_6 I0_6 4.215600 1_555
Bi4_7 Ni4_7 2.711490 1_555
Bi4_7 Ni6_3 2.716349 1_555
Bi4_7 Ni0_6 2.734126 1_555
Bi4_7 Ni0_7 2.741792 1_555
Bi4_7 I0_6 4.151809 1_555
Bi4_7 I0_7 4.215600 1_555
Bi5_0 Ni5_0 2.711490 1_555
Bi5_0 Ni7_4 2.716349 1_555
Bi5_0 Ni1_1 2.734126 1_554
Bi5_0 Ni1_0 2.741792 1_555
Bi5_0 I0_1 4.151809 1_554
Bi5_0 I0_0 4.215600 1_555
Bi5_1 Ni5_1 2.711490 1_555
Bi5_1 Ni7_5 2.716349 1_555
Bi5_1 Ni1_0 2.734126 1_555
Bi5_1 Ni1_1 2.741792 1_555
Bi5_1 I0_0 4.151809 1_555
Bi5_1 I0_1 4.215600 1_555
Bi5_2 Ni5_2 2.711490 1_555
Bi5_2 Ni7_6 2.716349 1_555
Bi5_2 Ni1_3 2.734126 1_554
Bi5_2 Ni1_2 2.741792 1_555
Bi5_2 I0_3 4.151809 1_554
Bi5_2 I0_2 4.215600 1_555
Bi5_3 Ni5_3 2.711490 1_555
Bi5_3 Ni7_7 2.716349 1_555
Bi5_3 Ni1_2 2.734126 1_555
Bi5_3 Ni1_3 2.741792 1_555
Bi5_3 I0_2 4.151809 1_555
Bi5_3 I0_3 4.215600 1_555
Bi5_4 Ni5_4 2.711490 1_555
Bi5_4 Ni7_0 2.716349 1_655
Bi5_4 Ni1_5 2.734126 1_554
Bi5_4 Ni1_4 2.741792 1_555
Bi5_4 I0_5 4.151809 1_554
Bi5_4 I0_4 4.215600 1_555
Bi5_5 Ni5_5 2.711490 1_555
Bi5_5 Ni7_1 2.716349 1_655
Bi5_5 Ni1_4 2.734126 1_555
Bi5_5 Ni1_5 2.741792 1_555
Bi5_5 I0_4 4.151809 1_555
Bi5_5 I0_5 4.215600 1_555
Bi5_6 Ni5_6 2.711490 1_555
Bi5_6 Ni7_2 2.716349 1_655
Bi5_6 Ni1_7 2.734126 1_554
Bi5_6 Ni1_6 2.741792 1_555
Bi5_6 I0_7 4.151809 1_554
Bi5_6 I0_6 4.215600 1_555
Bi5_7 Ni5_7 2.711490 1_555
Bi5_7 Ni7_3 2.716349 1_655
Bi5_7 Ni1_6 2.734126 1_555
Bi5_7 Ni1_7 2.741792 1_555
Bi5_7 I0_6 4.151809 1_555
Bi5_7 I0_7 4.215600 1_555
Bi6_0 Ni6_0 2.711490 1_555
Bi6_0 Ni5_2 2.716349 1_555
Bi6_0 Ni2_1 2.734126 1_554
Bi6_0 Ni2_0 2.741792 1_555
Bi6_0 I0_1 4.151809 1_554
Bi6_0 I0_0 4.215600 1_555
Bi6_1 Ni6_1 2.711490 1_555
Bi6_1 Ni5_3 2.716349 1_555
Bi6_1 Ni2_0 2.734126 1_555
Bi6_1 Ni2_1 2.741792 1_555
Bi6_1 I0_0 4.151809 1_555
Bi6_1 I0_1 4.215600 1_555
Bi6_2 Ni6_2 2.711490 1_555
Bi6_2 Ni5_0 2.716349 1_565
Bi6_2 Ni2_3 2.734126 1_554
Bi6_2 Ni2_2 2.741792 1_555
Bi6_2 I0_3 4.151809 1_554
Bi6_2 I0_2 4.215600 1_555
Bi6_3 Ni6_3 2.711490 1_555
Bi6_3 Ni5_1 2.716349 1_565
Bi6_3 Ni2_2 2.734126 1_555
Bi6_3 Ni2_3 2.741792 1_555
Bi6_3 I0_2 4.151809 1_555
Bi6_3 I0_3 4.215600 1_555
Bi6_4 Ni6_4 2.711490 1_555
Bi6_4 Ni5_6 2.716349 1_555
Bi6_4 Ni2_5 2.734126 1_554
Bi6_4 Ni2_4 2.741792 1_555
Bi6_4 I0_5 4.151809 1_554
Bi6_4 I0_4 4.215600 1_555
Bi6_5 Ni6_5 2.711490 1_555
Bi6_5 Ni5_7 2.716349 1_555
Bi6_5 Ni2_4 2.734126 1_555
Bi6_5 Ni2_5 2.741792 1_555
Bi6_5 I0_4 4.151809 1_555
Bi6_5 I0_5 4.215600 1_555
Bi6_6 Ni6_6 2.711490 1_555
Bi6_6 Ni5_4 2.716349 1_565
Bi6_6 Ni2_7 2.734126 1_554
Bi6_6 Ni2_6 2.741792 1_555
Bi6_6 I0_7 4.151809 1_554
Bi6_6 I0_6 4.215600 1_555
Bi6_7 Ni6_7 2.711490 1_555
Bi6_7 Ni5_5 2.716349 1_565
Bi6_7 Ni2_6 2.734126 1_555
Bi6_7 Ni2_7 2.741792 1_555
Bi6_7 I0_6 4.151809 1_555
Bi6_7 I0_7 4.215600 1_555
Bi7_0 Ni7_0 2.711490 1_555
Bi7_0 Ni4_2 2.716349 1_545
Bi7_0 Ni3_1 2.734126 1_554
Bi7_0 Ni3_0 2.741792 1_555
Bi7_0 I0_1 4.151809 1_554
Bi7_0 I0_0 4.215600 1_555
Bi7_1 Ni7_1 2.711490 1_555
Bi7_1 Ni4_3 2.716349 1_545
Bi7_1 Ni3_0 2.734126 1_555
Bi7_1 Ni3_1 2.741792 1_555
Bi7_1 I0_0 4.151809 1_555
Bi7_1 I0_1 4.215600 1_555
Bi7_2 Ni7_2 2.711490 1_555
Bi7_2 Ni4_0 2.716349 1_555
Bi7_2 Ni3_3 2.734126 1_554
Bi7_2 Ni3_2 2.741792 1_555
Bi7_2 I0_3 4.151809 1_554
Bi7_2 I0_2 4.215600 1_555
Bi7_3 Ni7_3 2.711490 1_555
Bi7_3 Ni4_1 2.716349 1_555
Bi7_3 Ni3_2 2.734126 1_555
Bi7_3 Ni3_3 2.741792 1_555
Bi7_3 I0_2 4.151809 1_555
Bi7_3 I0_3 4.215600 1_555
Bi7_4 Ni7_4 2.711490 1_555
Bi7_4 Ni4_6 2.716349 1_545
Bi7_4 Ni3_5 2.734126 1_554
Bi7_4 Ni3_4 2.741792 1_555
Bi7_4 I0_5 4.151809 1_554
Bi7_4 I0_4 4.215600 1_555
Bi7_5 Ni7_5 2.711490 1_555
Bi7_5 Ni4_7 2.716349 1_545
Bi7_5 Ni3_4 2.734126 1_555
Bi7_5 Ni3_5 2.741792 1_555
Bi7_5 I0_4 4.151809 1_555
Bi7_5 I0_5 4.215600 1_555
Bi7_6 Ni7_6 2.711490 1_555
Bi7_6 Ni4_4 2.716349 1_555
Bi7_6 Ni3_7 2.734126 1_554
Bi7_6 Ni3_6 2.741792 1_555
Bi7_6 I0_7 4.151809 1_554
Bi7_6 I0_6 4.215600 1_555
Bi7_7 Ni7_7 2.711490 1_555
Bi7_7 Ni4_5 2.716349 1_555
Bi7_7 Ni3_6 2.734126 1_555
Bi7_7 Ni3_7 2.741792 1_555
Bi7_7 I0_6 4.151809 1_555
Bi7_7 I0_7 4.215600 1_555
I0_0 I0_1 4.210371 1_555
I0_0 I0_1 4.210371 1_554
I0_2 I0_3 4.210371 1_555
I0_2 I0_3 4.210371 1_554
I0_4 I0_5 4.210371 1_555
I0_4 I0_5 4.210371 1_554
I0_6 I0_7 4.210371 1_555
I0_6 I0_7 4.210371 1_554
