# generated using pymatgen
data_Ba2LiY2(Fe2O5)2
_symmetry_space_group_name_H-M   'P 1'
_cell_length_a   3.87223900
_cell_length_b   8.86653789
_cell_length_c   8.12224690
_cell_angle_alpha   87.59535509
_cell_angle_beta   90.00000000
_cell_angle_gamma   90.00000000
_symmetry_Int_Tables_number   1
_chemical_formula_structural   Ba2LiY2(Fe2O5)2
_chemical_formula_sum   'Ba2 Li1 Y2 Fe4 O10'
_cell_volume   278.61841817
_cell_formula_units_Z   1
loop_
 _symmetry_equiv_pos_site_id
 _symmetry_equiv_pos_as_xyz
  1  'x, y, z'
loop_
 _atom_site_type_symbol
 _atom_site_label
 _atom_site_symmetry_multiplicity
 _atom_site_fract_x
 _atom_site_fract_y
 _atom_site_fract_z
 _atom_site_occupancy
  Ba  Ba0  1  0.00000000  0.98729900  0.55148800  1
  Ba  Ba1  1  0.00000000  0.10491800  0.00913100  1
  Li  Li0  1  0.50000000  0.86278900  0.97719600  1
  Y  Y0  1  0.00000000  0.51589800  0.02126000  1
  Y  Y1  1  0.00000000  0.52505500  0.50172600  1
  Fe  Fe0  1  0.49999900  0.74136000  0.25474000  1
  Fe  Fe1  1  0.49999900  0.30947200  0.73613800  1
  Fe  Fe2  1  0.49999900  0.31665600  0.26753400  1
  Fe  Fe3  1  0.49999900  0.70444600  0.74930500  1
  O  O0  1  0.49999900  0.72929600  0.49158300  1
  O  O1  1  0.49999900  0.39865200  0.49367600  1
  O  O2  1  0.49999900  0.65907800  0.01970200  1
  O  O3  1  0.49999900  0.33874100  0.99066600  1
  O  O4  1  0.00000000  0.62220400  0.75416200  1
  O  O5  1  0.00000000  0.31468700  0.24660300  1
  O  O6  1  0.00000000  0.65272900  0.25577300  1
  O  O7  1  0.00000000  0.26321800  0.71538800  1
  O  O8  1  0.49999900  0.94873800  0.18505900  1
  O  O9  1  0.49999900  0.94643000  0.77053700  1
loop_
_geom_bond_atom_site_label_1
_geom_bond_atom_site_label_2
_geom_bond_distance
_geom_bond_site_symmetry_2
Ba0 O9 2.644088 1_555
Ba0 O9 2.644093 1_455
Ba0 O7 2.833827 1_565
Ba0 O0 3.051520 1_555
Ba0 O0 3.051524 1_455
Ba0 O8 3.578932 1_555
Ba0 O8 3.578936 1_455
Ba1 O7 2.716857 1_554
Ba1 O5 2.735077 1_555
Ba1 O8 2.746261 1_545
Ba1 O8 2.746266 1_445
Ba1 O3 2.836037 1_554
Ba1 O3 2.836042 1_454
Ba1 Li0 2.910587 1_444
Ba1 Li0 2.910587 1_544
Ba1 O9 3.115652 1_544
Ba1 O9 3.115657 1_444
Li0 O9 1.806379 1_555
Li0 O2 1.824628 1_556
Li0 O8 1.881255 1_556
Fe0 O8 1.901027 1_555
Fe0 O0 1.922183 1_555
Fe0 O2 2.072087 1_555
Fe0 O6 2.089407 1_555
Fe0 O6 2.089414 1_655
Fe1 O7 1.987697 1_555
Fe1 O7 1.987705 1_655
Fe1 O1 2.091136 1_555
Fe1 O3 2.094340 1_555
Fe2 O5 1.943708 1_555
Fe2 O5 1.943715 1_655
Fe2 O1 2.003592 1_555
Fe2 O3 2.249100 1_554
Fe3 O4 2.068676 1_555
Fe3 O4 2.068683 1_655
Fe3 O0 2.095632 1_555
Fe3 O9 2.159680 1_555
Fe3 O2 2.216102 1_556
Fe3 Li0 2.369664 1_555
O0 Y1 2.649945 1_555
O0 Y1 2.649951 1_655
O1 Y1 2.239434 1_555
O1 Y1 2.239441 1_655
O2 Y0 2.314954 1_555
O2 Y0 2.314961 1_655
O2 O3 2.859899 1_554
O3 Y0 2.512043 1_556
O3 Y0 2.512049 1_656
O4 Y1 2.257010 1_555
O4 Y0 2.328797 1_556
O5 Y0 2.501755 1_555
O5 Y1 2.845581 1_555
O6 Y1 2.254437 1_555
O6 Y0 2.300863 1_555
O7 Y1 2.839605 1_555
