# generated using pymatgen
data_K3NaTh2O6
_symmetry_space_group_name_H-M   'P 1'
_cell_length_a   6.34505017
_cell_length_b   6.34505017
_cell_length_c   12.76951498
_cell_angle_alpha   85.23810412
_cell_angle_beta   85.23810412
_cell_angle_gamma   120.02696405
_symmetry_Int_Tables_number   1
_chemical_formula_structural   K3NaTh2O6
_chemical_formula_sum   'K6 Na2 Th4 O12'
_cell_volume   438.91672274
_cell_formula_units_Z   2
loop_
 _symmetry_equiv_pos_site_id
 _symmetry_equiv_pos_as_xyz
  1  'x, y, z'
loop_
 _atom_site_type_symbol
 _atom_site_label
 _atom_site_symmetry_multiplicity
 _atom_site_fract_x
 _atom_site_fract_y
 _atom_site_fract_z
 _atom_site_occupancy
  K  K0  1  0.00000000  0.50000000  0.00000000  1
  K  K1  1  0.50000000  0.00000000  0.50000000  1
  K  K2  1  0.68728000  0.84356600  0.99981200  1
  K  K3  1  0.15643400  0.31272000  0.50018800  1
  K  K4  1  0.84356600  0.68728000  0.49981200  1
  K  K5  1  0.31272000  0.15643400  0.00018800  1
  Na  Na0  1  0.91573700  0.08426300  0.25000000  1
  Na  Na1  1  0.08426300  0.91573700  0.75000000  1
  Th  Th0  1  0.75009400  0.24990600  0.75000000  1
  Th  Th1  1  0.24990600  0.75009400  0.25000000  1
  Th  Th2  1  0.41731000  0.58269000  0.75000000  1
  Th  Th3  1  0.58269000  0.41731000  0.25000000  1
  O  O0  1  0.42168600  0.88353900  0.84688900  1
  O  O1  1  0.11646100  0.57831400  0.65311100  1
  O  O2  1  0.57831400  0.11646100  0.15311100  1
  O  O3  1  0.88353900  0.42168600  0.34688900  1
  O  O4  1  0.68064300  0.51283400  0.84728200  1
  O  O5  1  0.48716600  0.31935700  0.65271800  1
  O  O6  1  0.25226800  0.05132000  0.34697100  1
  O  O7  1  0.51283400  0.68064300  0.34728200  1
  O  O8  1  0.05132000  0.25226800  0.84697100  1
  O  O9  1  0.74773200  0.94868000  0.65302900  1
  O  O10  1  0.94868000  0.74773200  0.15302900  1
  O  O11  1  0.31935700  0.48716600  0.15271800  1
loop_
_geom_bond_atom_site_label_1
_geom_bond_atom_site_label_2
_geom_bond_distance
_geom_bond_site_symmetry_2
K0 O10 2.704060 1_455
K0 O8 2.704060 1_554
K0 O4 2.951366 1_454
K0 O11 2.951366 1_555
K0 O2 2.954438 1_455
K0 O0 2.954438 1_554
K1 O9 2.704060 1_545
K1 O6 2.704060 1_555
K1 O5 2.951366 1_555
K1 O7 2.951366 1_545
K1 O3 2.954438 1_555
K1 O1 2.954438 1_545
K2 O11 2.757301 1_556
K2 O0 2.758515 1_555
K2 O8 2.878500 1_665
K2 O10 2.880838 1_556
K2 O4 2.966983 1_555
K2 O2 2.973963 1_566
K2 K5 3.436537 1_666
K3 O7 2.757301 1_555
K3 O1 2.758515 1_555
K3 O9 2.878500 1_445
K3 O6 2.880838 1_555
K3 O5 2.966983 1_555
K3 O3 2.973963 1_455
K3 K4 3.436537 1_445
K4 O5 2.757301 1_555
K4 O3 2.758515 1_555
K4 O6 2.878500 1_665
K4 O9 2.880838 1_555
K4 O7 2.966983 1_555
K4 O1 2.973963 1_655
K5 O4 2.757301 1_554
K5 O2 2.758515 1_555
K5 O10 2.878500 1_445
K5 O8 2.880838 1_554
K5 O11 2.966983 1_555
K5 O0 2.973963 1_544
Na0 O10 2.641830 1_545
Na0 O6 2.641830 1_655
Na0 O2 2.644196 1_555
Na0 O3 2.644196 1_555
Na0 O7 2.651301 1_545
Na0 O11 2.651301 1_655
Na1 O8 2.641830 1_565
Na1 O9 2.641830 1_455
Na1 O1 2.644196 1_555
Na1 O0 2.644196 1_555
Na1 O4 2.651301 1_455
Na1 O5 2.651301 1_565
O0 Th2 2.349507 1_555
O0 Th0 2.350147 1_565
O1 Th2 2.349507 1_555
O1 Th0 2.350147 1_455
O2 Th3 2.349507 1_555
O2 Th1 2.350147 1_545
O3 Th3 2.349507 1_555
O3 Th1 2.350147 1_655
O4 Th0 2.347236 1_555
O4 Th2 2.350702 1_555
O5 Th0 2.347236 1_555
O5 Th2 2.350702 1_555
O6 Th3 2.353821 1_555
O6 Th1 2.356681 1_545
O7 Th1 2.347236 1_555
O7 Th3 2.350702 1_555
O8 Th2 2.353821 1_555
O8 Th0 2.356681 1_455
O9 Th2 2.353821 1_555
O9 Th0 2.356681 1_565
O10 Th3 2.353821 1_555
O10 Th1 2.356681 1_655
O11 Th1 2.347236 1_555
O11 Th3 2.350702 1_555
