# generated using pymatgen
data_K2GdNb5O15
_symmetry_space_group_name_H-M   'P 1'
_cell_length_a   12.76103600
_cell_length_b   12.76103600
_cell_length_c   3.96058400
_cell_angle_alpha   90.00000000
_cell_angle_beta   90.00000000
_cell_angle_gamma   90.00000000
_symmetry_Int_Tables_number   1
_chemical_formula_structural   K2GdNb5O15
_chemical_formula_sum   'K4 Gd2 Nb10 O30'
_cell_volume   644.95749850
_cell_formula_units_Z   2
loop_
 _symmetry_equiv_pos_site_id
 _symmetry_equiv_pos_as_xyz
  1  'x, y, z'
loop_
 _atom_site_type_symbol
 _atom_site_label
 _atom_site_symmetry_multiplicity
 _atom_site_fract_x
 _atom_site_fract_y
 _atom_site_fract_z
 _atom_site_occupancy
  K  K0  1  0.66981000  0.16981000  0.50000000  1
  K  K1  1  0.33019000  0.83019000  0.50000000  1
  K  K2  1  0.16981000  0.33019000  0.50000000  1
  K  K3  1  0.83019000  0.66981000  0.50000000  1
  Gd  Gd0  1  0.00000000  0.00000000  0.50000000  1
  Gd  Gd1  1  0.50000000  0.50000000  0.50000000  1
  Nb  Nb0  1  0.50000000  0.00000000  0.00000000  1
  Nb  Nb1  1  0.00000000  0.50000000  0.00000000  1
  Nb  Nb2  1  0.21228900  0.07663900  0.00000000  1
  Nb  Nb3  1  0.78771100  0.92336100  0.00000000  1
  Nb  Nb4  1  0.07663900  0.78771100  0.00000000  1
  Nb  Nb5  1  0.71228900  0.42336100  0.00000000  1
  Nb  Nb6  1  0.92336100  0.21228900  0.00000000  1
  Nb  Nb7  1  0.28771100  0.57663900  0.00000000  1
  Nb  Nb8  1  0.57663900  0.71228900  0.00000000  1
  Nb  Nb9  1  0.42336100  0.28771100  0.00000000  1
  O  O0  1  0.18705400  0.07869400  0.50000000  1
  O  O1  1  0.81294600  0.92130600  0.50000000  1
  O  O2  1  0.07869400  0.81294600  0.50000000  1
  O  O3  1  0.68705400  0.42130600  0.50000000  1
  O  O4  1  0.92130600  0.18705400  0.50000000  1
  O  O5  1  0.31294600  0.57869400  0.50000000  1
  O  O6  1  0.57869400  0.68705400  0.50000000  1
  O  O7  1  0.42130600  0.31294600  0.50000000  1
  O  O8  1  0.21747200  0.71747200  0.00000000  1
  O  O9  1  0.78252800  0.28252800  0.00000000  1
  O  O10  1  0.71747200  0.78252800  0.00000000  1
  O  O11  1  0.28252800  0.21747200  0.00000000  1
  O  O12  1  0.50000000  0.00000000  0.50000000  1
  O  O13  1  0.00000000  0.50000000  0.50000000  1
  O  O14  1  0.05804300  0.13103500  0.00000000  1
  O  O15  1  0.94195700  0.86896500  0.00000000  1
  O  O16  1  0.13103500  0.94195700  0.00000000  1
  O  O17  1  0.55804300  0.36896500  0.00000000  1
  O  O18  1  0.86896500  0.05804300  0.00000000  1
  O  O19  1  0.44195700  0.63103500  0.00000000  1
  O  O20  1  0.63103500  0.55804300  0.00000000  1
  O  O21  1  0.36896500  0.44195700  0.00000000  1
  O  O22  1  0.34233200  0.99924100  0.00000000  1
  O  O23  1  0.65766800  0.00075900  0.00000000  1
  O  O24  1  0.99924100  0.65766800  0.00000000  1
  O  O25  1  0.84233200  0.50075900  0.00000000  1
  O  O26  1  0.00075900  0.34233200  0.00000000  1
  O  O27  1  0.15766800  0.49924100  0.00000000  1
  O  O28  1  0.49924100  0.84233200  0.00000000  1
  O  O29  1  0.50075900  0.15766800  0.00000000  1
loop_
_geom_bond_atom_site_label_1
_geom_bond_atom_site_label_2
_geom_bond_distance
_geom_bond_site_symmetry_2
K0 O9 2.838932 1_556
K0 O9 2.838932 1_555
K0 O29 2.932467 1_555
K0 O29 2.932467 1_556
K0 O23 2.932467 1_556
K0 O23 2.932467 1_555
K0 O12 3.064532 1_555
K0 O3 3.216885 1_555
K0 O4 3.216885 1_555
K1 O8 2.838932 1_556
K1 O8 2.838932 1_555
K1 O22 2.932467 1_555
K1 O22 2.932467 1_556
K1 O28 2.932467 1_555
K1 O28 2.932467 1_556
K1 O12 3.064532 1_565
K1 O2 3.216885 1_555
K1 O5 3.216885 1_555
K2 O11 2.838932 1_556
K2 O11 2.838932 1_555
K2 O26 2.932467 1_555
K2 O26 2.932467 1_556
K2 O27 2.932467 1_556
K2 O27 2.932467 1_555
K2 O13 3.064532 1_555
K2 O7 3.216885 1_555
K2 O0 3.216885 1_555
K3 O10 2.838932 1_555
K3 O10 2.838932 1_556
K3 O24 2.932467 1_556
K3 O24 2.932467 1_555
K3 O25 2.932467 1_555
K3 O25 2.932467 1_556
K3 O13 3.064532 1_655
K3 O1 3.216885 1_555
K3 O6 3.216885 1_555
Gd0 O0 2.589640 1_555
Gd0 O4 2.589640 1_455
Gd0 O2 2.589640 1_545
Gd0 O1 2.589640 1_445
Gd0 O14 2.695596 1_555
Gd0 O14 2.695596 1_556
Gd0 O16 2.695596 1_545
Gd0 O16 2.695596 1_546
Gd0 O18 2.695596 1_456
Gd0 O18 2.695596 1_455
Gd0 O15 2.695596 1_446
Gd0 O15 2.695596 1_445
Gd1 O6 2.589640 1_555
Gd1 O3 2.589640 1_555
Gd1 O5 2.589640 1_555
Gd1 O7 2.589640 1_555
Gd1 O20 2.695596 1_555
Gd1 O20 2.695596 1_556
Gd1 O19 2.695596 1_556
Gd1 O19 2.695596 1_555
Gd1 O17 2.695596 1_555
Gd1 O17 2.695596 1_556
Gd1 O21 2.695596 1_555
Gd1 O21 2.695596 1_556
Nb0 O12 1.980292 1_554
Nb0 O12 1.980292 1_555
Nb0 O23 2.012030 1_555
Nb0 O29 2.012030 1_555
Nb0 O28 2.012030 1_545
Nb0 O22 2.012030 1_545
Nb1 O13 1.980292 1_555
Nb1 O13 1.980292 1_554
Nb1 O24 2.012030 1_455
Nb1 O27 2.012030 1_555
Nb1 O25 2.012030 1_455
Nb1 O26 2.012030 1_555
Nb2 O22 1.931164 1_545
Nb2 O0 2.006476 1_555
Nb2 O0 2.006476 1_554
Nb2 O16 2.007236 1_545
Nb2 O11 2.008291 1_555
Nb2 O14 2.087151 1_555
Nb3 O23 1.931164 1_565
Nb3 O1 2.006476 1_555
Nb3 O1 2.006476 1_554
Nb3 O18 2.007236 1_565
Nb3 O10 2.008291 1_555
Nb3 O15 2.087151 1_555
Nb4 O24 1.931164 1_455
Nb4 O2 2.006476 1_554
Nb4 O2 2.006476 1_555
Nb4 O15 2.007236 1_455
Nb4 O8 2.008291 1_555
Nb4 O16 2.087151 1_555
Nb5 O25 1.931164 1_555
Nb5 O3 2.006476 1_554
Nb5 O3 2.006476 1_555
Nb5 O20 2.007236 1_555
Nb5 O9 2.008291 1_555
Nb5 O17 2.087151 1_555
Nb6 O26 1.931164 1_655
Nb6 O4 2.006476 1_554
Nb6 O4 2.006476 1_555
Nb6 O14 2.007236 1_655
Nb6 O9 2.008291 1_555
Nb6 O18 2.087151 1_555
Nb7 O27 1.931164 1_555
Nb7 O5 2.006476 1_555
Nb7 O5 2.006476 1_554
Nb7 O21 2.007236 1_555
Nb7 O8 2.008291 1_555
Nb7 O19 2.087151 1_555
Nb8 O28 1.931164 1_555
Nb8 O6 2.006476 1_554
Nb8 O6 2.006476 1_555
Nb8 O19 2.007236 1_555
Nb8 O10 2.008291 1_555
Nb8 O20 2.087151 1_555
Nb9 O29 1.931164 1_555
Nb9 O7 2.006476 1_554
Nb9 O7 2.006476 1_555
Nb9 O17 2.007236 1_555
Nb9 O11 2.008291 1_555
Nb9 O21 2.087151 1_555
O0 O14 2.660457 1_556
O0 O14 2.660457 1_555
O0 O16 2.734461 1_546
O0 O16 2.734461 1_545
O1 O15 2.660457 1_556
O1 O15 2.660457 1_555
O1 O18 2.734461 1_566
O1 O18 2.734461 1_565
O14 O16 2.586380 1_545
O14 O18 2.586380 1_455
O14 O4 2.734461 1_455
O14 O4 2.734461 1_454
O14 O26 2.793702 1_555
O15 O16 2.586380 1_655
O15 O18 2.586380 1_565
O15 O2 2.734461 1_654
O15 O2 2.734461 1_655
O15 O24 2.793702 1_555
O16 O2 2.660457 1_555
O16 O2 2.660457 1_554
O16 O22 2.793702 1_555
O17 O21 2.586380 1_555
O17 O20 2.586380 1_555
O17 O3 2.660457 1_555
O17 O3 2.660457 1_554
O17 O7 2.734461 1_555
O17 O7 2.734461 1_554
O17 O29 2.793702 1_555
O18 O4 2.660457 1_555
O18 O4 2.660457 1_554
O18 O23 2.793702 1_555
O19 O20 2.586380 1_555
O19 O21 2.586380 1_555
O19 O5 2.660457 1_554
O19 O5 2.660457 1_555
O19 O6 2.734461 1_554
O19 O6 2.734461 1_555
O19 O28 2.793702 1_555
O20 O6 2.660457 1_555
O20 O6 2.660457 1_554
O20 O3 2.734461 1_555
O20 O3 2.734461 1_554
O20 O25 2.793702 1_555
O21 O7 2.660457 1_554
O21 O7 2.660457 1_555
O21 O5 2.734461 1_554
O21 O5 2.734461 1_555
O21 O27 2.793702 1_555
