# generated using pymatgen
data_MgTi3V5O16
_symmetry_space_group_name_H-M   'P 1'
_cell_length_a   5.94849782
_cell_length_b   5.98276789
_cell_length_c   9.23900838
_cell_angle_alpha   90.17547106
_cell_angle_beta   89.85223303
_cell_angle_gamma   120.03512471
_symmetry_Int_Tables_number   1
_chemical_formula_structural   MgTi3V5O16
_chemical_formula_sum   'Mg1 Ti3 V5 O16'
_cell_volume   284.64874755
_cell_formula_units_Z   1
loop_
 _symmetry_equiv_pos_site_id
 _symmetry_equiv_pos_as_xyz
  1  'x, y, z'
loop_
 _atom_site_type_symbol
 _atom_site_label
 _atom_site_symmetry_multiplicity
 _atom_site_fract_x
 _atom_site_fract_y
 _atom_site_fract_z
 _atom_site_occupancy
  Mg  Mg0  1  0.66762200  0.33288600  0.38131200  1
  Ti  Ti0  1  0.16361900  0.83225300  0.19686200  1
  Ti  Ti1  1  0.18166200  0.33447500  0.19742800  1
  Ti  Ti2  1  0.31971900  0.13028400  0.71713400  1
  V  V0  1  0.33357000  0.66905300  0.48726200  1
  V  V1  1  0.66431500  0.83340100  0.19854000  1
  V  V2  1  0.69195700  0.33596700  0.97943200  1
  V  V3  1  0.85039800  0.17722100  0.70119300  1
  V  V4  1  0.80758500  0.66189300  0.71812200  1
  O  O0  1  0.15376500  0.82399800  0.60853400  1
  O  O1  1  0.04166000  0.52468000  0.33355900  1
  O  O2  1  0.32274700  0.66302800  0.09518900  1
  O  O3  1  0.00986300  0.01031800  0.30105400  1
  O  O4  1  0.99739200  0.00099600  0.81450400  1
  O  O5  1  0.16006600  0.33113400  0.60568300  1
  O  O6  1  0.47892100  0.96175600  0.33395800  1
  O  O7  1  0.47603800  0.51363500  0.33282100  1
  O  O8  1  0.35003700  0.17655600  0.09792700  1
  O  O9  1  0.65897500  0.83518900  0.60687700  1
  O  O10  1  0.53094000  0.47931100  0.83834600  1
  O  O11  1  0.53090300  0.05193700  0.83318100  1
  O  O12  1  0.66040000  0.33224800  0.59628200  1
  O  O13  1  0.84133800  0.65881800  0.09583500  1
  O  O14  1  0.95244600  0.47592100  0.83323600  1
  O  O15  1  0.83114700  0.18657100  0.09716500  1
loop_
_geom_bond_atom_site_label_1
_geom_bond_atom_site_label_2
_geom_bond_distance
_geom_bond_site_symmetry_2
Mg0 O6 1.970553 1_545
Mg0 O1 1.975867 1_655
Mg0 O7 1.976905 1_555
Mg0 O12 1.986437 1_555
O0 Ti2 1.876715 1_565
O0 V4 2.049933 1_455
O0 V0 2.058805 1_555
O1 Ti0 2.044644 1_555
O1 V0 2.069201 1_555
O1 Ti1 2.122467 1_555
O2 Ti0 1.937102 1_555
O2 Ti1 1.953522 1_555
O2 V1 2.002455 1_555
O3 Ti1 1.935045 1_555
O3 Ti0 1.965367 1_545
O3 V1 2.017020 1_445
O4 Ti2 1.895936 1_655
O4 V4 1.970972 1_545
O4 V3 1.976473 1_555
O5 V3 1.821631 1_455
O5 V0 2.066016 1_555
O5 Ti2 2.135687 1_555
O6 V1 2.050852 1_555
O6 Ti0 2.067355 1_555
O6 V0 2.076890 1_555
O7 Ti1 1.975887 1_555
O7 V1 2.077468 1_555
O7 V0 2.096010 1_555
O8 Ti1 1.917839 1_555
O8 Ti0 2.006980 1_545
O8 V2 2.073157 1_554
O9 V4 1.959968 1_555
O9 V3 1.976078 1_565
O9 V0 2.008572 1_555
O10 V4 1.825805 1_555
O10 V2 2.046347 1_555
O10 Ti2 2.135334 1_555
O11 Ti2 1.883302 1_555
O11 V2 1.998522 1_555
O11 V3 2.056311 1_555
O12 V3 2.034112 1_555
O12 V4 2.046016 1_555
O12 Ti2 2.087791 1_555
O13 Ti0 1.906587 1_655
O13 V2 1.987730 1_554
O13 V1 2.046954 1_555
O14 V2 1.903636 1_555
O14 V3 1.988676 1_555
O14 V4 2.020728 1_555
O15 V2 1.849058 1_554
O15 Ti1 2.036286 1_655
O15 V1 2.057863 1_545
