# generated using pymatgen
data_VZnPbO5
_symmetry_space_group_name_H-M   'P 1'
_cell_length_a   6.23260800
_cell_length_b   6.60926100
_cell_length_c   15.23248900
_cell_angle_alpha   90.00000000
_cell_angle_beta   90.00000000
_cell_angle_gamma   90.00000000
_symmetry_Int_Tables_number   1
_chemical_formula_structural   VZnPbO5
_chemical_formula_sum   'V4 Zn4 Pb4 O20'
_cell_volume   627.47089854
_cell_formula_units_Z   4
loop_
 _symmetry_equiv_pos_site_id
 _symmetry_equiv_pos_as_xyz
  1  'x, y, z'
loop_
 _atom_site_type_symbol
 _atom_site_label
 _atom_site_symmetry_multiplicity
 _atom_site_fract_x
 _atom_site_fract_y
 _atom_site_fract_z
 _atom_site_occupancy
  V  V0  1  0.75000000  0.31274800  0.25683500  1
  V  V1  1  0.75000000  0.81274800  0.24316500  1
  V  V2  1  0.25000000  0.68725200  0.74316500  1
  V  V3  1  0.25000000  0.18725200  0.75683500  1
  Zn  Zn0  1  0.75000000  0.47999700  0.43574300  1
  Zn  Zn1  1  0.75000000  0.97999700  0.06425700  1
  Zn  Zn2  1  0.25000000  0.52000300  0.56425700  1
  Zn  Zn3  1  0.25000000  0.02000300  0.93574300  1
  Pb  Pb0  1  0.75000000  0.35978500  0.82071300  1
  Pb  Pb1  1  0.75000000  0.85978500  0.67928700  1
  Pb  Pb2  1  0.25000000  0.64021500  0.17928700  1
  Pb  Pb3  1  0.25000000  0.14021500  0.32071300  1
  O  O0  1  0.00000000  0.50000000  0.50000000  1
  O  O1  1  0.50000000  0.00000000  0.00000000  1
  O  O2  1  0.50000000  0.50000000  0.50000000  1
  O  O3  1  0.00000000  0.00000000  0.00000000  1
  O  O4  1  0.75000000  0.20044600  0.35726900  1
  O  O5  1  0.75000000  0.70044600  0.14273100  1
  O  O6  1  0.25000000  0.79955400  0.64273100  1
  O  O7  1  0.25000000  0.29955400  0.85726900  1
  O  O8  1  0.75000000  0.09355700  0.18323600  1
  O  O9  1  0.75000000  0.59355700  0.31676400  1
  O  O10  1  0.25000000  0.90644300  0.81676400  1
  O  O11  1  0.25000000  0.40644300  0.68323600  1
  O  O12  1  0.47156600  0.37399600  0.23337600  1
  O  O13  1  0.02843400  0.87399600  0.26662400  1
  O  O14  1  0.97156600  0.62600400  0.76662400  1
  O  O15  1  0.52843400  0.12600400  0.73337600  1
  O  O16  1  0.52843400  0.62600400  0.76662400  1
  O  O17  1  0.97156600  0.12600400  0.73337600  1
  O  O18  1  0.02843400  0.37399600  0.23337600  1
  O  O19  1  0.47156600  0.87399600  0.26662400  1
loop_
_geom_bond_atom_site_label_1
_geom_bond_atom_site_label_2
_geom_bond_distance
_geom_bond_site_symmetry_2
O0 Zn2 1.844818 1_555
O0 Zn0 1.844818 1_455
O1 Zn1 1.844818 1_545
O1 Zn3 1.844818 1_554
O2 Zn2 1.844818 1_555
O2 Zn0 1.844818 1_555
O3 Zn1 1.844818 1_445
O3 Zn3 1.844818 1_554
O4 V0 1.700406 1_555
O4 Zn0 2.200589 1_555
O4 Pb3 3.190594 1_555
O4 Pb3 3.190594 1_655
O5 V1 1.700406 1_555
O5 Zn1 2.200589 1_555
O5 Pb2 3.190594 1_555
O5 Pb2 3.190594 1_655
O6 V2 1.700406 1_555
O6 Zn2 2.200589 1_555
O6 Pb1 3.190594 1_555
O6 Pb1 3.190594 1_455
O7 V3 1.700406 1_555
O7 Zn3 2.200589 1_555
O7 Pb0 3.190594 1_555
O7 Pb0 3.190594 1_455
O8 V0 1.831819 1_555
O8 Zn1 1.961612 1_545
O8 V1 2.068294 1_545
O9 V1 1.831819 1_555
O9 Zn0 1.961612 1_555
O9 V0 2.068294 1_555
O10 V2 1.831819 1_555
O10 Zn3 1.961612 1_565
O10 V3 2.068294 1_565
O11 V3 1.831819 1_555
O11 Zn2 1.961612 1_555
O11 V2 2.068294 1_555
O12 V0 1.817434 1_555
O12 Pb2 2.383629 1_555
O12 Pb3 2.462566 1_555
O13 V1 1.817434 1_455
O13 Pb3 2.383629 1_565
O13 Pb2 2.462566 1_555
O14 V2 1.817434 1_655
O14 Pb0 2.383629 1_555
O14 Pb1 2.462566 1_555
O15 V3 1.817434 1_555
O15 Pb1 2.383629 1_545
O15 Pb0 2.462566 1_555
O16 V2 1.817434 1_555
O16 Pb0 2.383629 1_555
O16 Pb1 2.462566 1_555
O17 V3 1.817434 1_655
O17 Pb1 2.383629 1_545
O17 Pb0 2.462566 1_555
O18 V0 1.817434 1_455
O18 Pb2 2.383629 1_555
O18 Pb3 2.462566 1_555
O19 V1 1.817434 1_555
O19 Pb3 2.383629 1_565
O19 Pb2 2.462566 1_555
