# generated using pymatgen
data_K2Na2Eu4Ta2O13
_symmetry_space_group_name_H-M   'P 1'
_cell_length_a   5.72514200
_cell_length_b   11.35890779
_cell_length_c   12.56998643
_cell_angle_alpha   115.73247488
_cell_angle_beta   103.16350150
_cell_angle_gamma   90.00000000
_symmetry_Int_Tables_number   1
_chemical_formula_structural   K2Na2Eu4Ta2O13
_chemical_formula_sum   'K4 Na4 Eu8 Ta4 O26'
_cell_volume   712.45959876
_cell_formula_units_Z   2
loop_
 _symmetry_equiv_pos_site_id
 _symmetry_equiv_pos_as_xyz
  1  'x, y, z'
loop_
 _atom_site_type_symbol
 _atom_site_label
 _atom_site_symmetry_multiplicity
 _atom_site_fract_x
 _atom_site_fract_y
 _atom_site_fract_z
 _atom_site_occupancy
  K  K0  1  0.19938700  0.86720200  0.50125800  1
  K  K1  1  0.69812900  0.63279800  0.49874200  1
  K  K2  1  0.80061300  0.13279800  0.49874200  1
  K  K3  1  0.30187100  0.36720200  0.50125800  1
  Na  Na0  1  0.12192800  0.52373800  0.31798800  1
  Na  Na1  1  0.80394100  0.97626200  0.68201200  1
  Na  Na2  1  0.87807200  0.47626200  0.68201200  1
  Na  Na3  1  0.19605900  0.02373800  0.31798800  1
  Eu  Eu0  1  0.39561200  0.05197700  0.87445100  1
  Eu  Eu1  1  0.52116100  0.44802300  0.12554900  1
  Eu  Eu2  1  0.60438800  0.94802300  0.12554900  1
  Eu  Eu3  1  0.47883900  0.55197700  0.87445100  1
  Eu  Eu4  1  0.02913200  0.67448300  0.12509200  1
  Eu  Eu5  1  0.90404000  0.82551700  0.87490800  1
  Eu  Eu6  1  0.97086800  0.32551700  0.87490800  1
  Eu  Eu7  1  0.09596000  0.17448300  0.12509200  1
  Ta  Ta0  1  0.31685800  0.71932300  0.69989800  1
  Ta  Ta1  1  0.61696000  0.78067700  0.30010200  1
  Ta  Ta2  1  0.68314200  0.28067700  0.30010200  1
  Ta  Ta3  1  0.38304000  0.21932300  0.69989800  1
  O  O0  1  0.09315500  0.85792800  0.73686700  1
  O  O1  1  0.35628800  0.64207200  0.26313300  1
  O  O2  1  0.90684500  0.14207200  0.26313300  1
  O  O3  1  0.64371200  0.35792800  0.73686700  1
  O  O4  1  0.14052700  0.12393300  0.73169800  1
  O  O5  1  0.40882900  0.37606700  0.26830200  1
  O  O6  1  0.85947300  0.87606700  0.26830200  1
  O  O7  1  0.59117100  0.62393300  0.73169800  1
  O  O8  1  0.81840400  0.63745300  0.25956500  1
  O  O9  1  0.55883900  0.86254700  0.74043500  1
  O  O10  1  0.18159600  0.36254700  0.74043500  1
  O  O11  1  0.44116100  0.13745300  0.25956500  1
  O  O12  1  0.20349100  0.62534000  0.53115500  1
  O  O13  1  0.67233600  0.87466000  0.46884500  1
  O  O14  1  0.79650900  0.37466000  0.46884500  1
  O  O15  1  0.32766400  0.12534000  0.53115500  1
  O  O16  1  0.75803800  0.75000000  0.00000000  1
  O  O17  1  0.24196200  0.25000000  0.00000000  1
  O  O18  1  0.62808200  0.15951000  0.79722300  1
  O  O19  1  0.83085900  0.34049000  0.20277700  1
  O  O20  1  0.37191800  0.84049000  0.20277700  1
  O  O21  1  0.16914100  0.65951000  0.79722300  1
  O  O22  1  0.24980300  0.97891600  0.00177700  1
  O  O23  1  0.24802600  0.52108400  0.99822300  1
  O  O24  1  0.75019700  0.02108400  0.99822300  1
  O  O25  1  0.75197400  0.47891600  0.00177700  1
loop_
_geom_bond_atom_site_label_1
_geom_bond_atom_site_label_2
_geom_bond_distance
_geom_bond_site_symmetry_2
K0 O13 2.835005 1_555
K0 O15 2.862801 1_565
K0 O12 2.929482 1_555
K0 O13 2.957729 1_455
K0 O6 3.167415 1_455
K0 O4 3.180844 1_565
K0 O0 3.200528 1_555
K0 O9 3.255249 1_555
K0 O1 3.299058 1_555
K0 O8 3.300793 1_455
K1 O12 2.835005 1_655
K1 O14 2.862801 1_555
K1 O13 2.929482 1_555
K1 O12 2.957729 1_555
K1 O7 3.167415 1_555
K1 O5 3.180844 1_555
K1 O1 3.200528 1_555
K1 O8 3.255249 1_555
K1 O0 3.299058 1_655
K1 O9 3.300793 1_555
K2 O15 2.835005 1_555
K2 O13 2.862801 1_545
K2 O14 2.929482 1_555
K2 O15 2.957729 1_655
K2 O4 3.167415 1_655
K2 O6 3.180844 1_545
K2 O2 3.200528 1_555
K2 O11 3.255249 1_555
K2 O3 3.299058 1_555
K2 O10 3.300793 1_655
K3 O14 2.835005 1_455
K3 O12 2.862801 1_555
K3 O15 2.929482 1_555
K3 O14 2.957729 1_555
K3 O5 3.167415 1_555
K3 O7 3.180844 1_555
K3 O3 3.200528 1_555
K3 O10 3.255249 1_555
K3 O2 3.299058 1_455
K3 O11 3.300793 1_555
Na0 O1 2.304046 1_555
Na0 O5 2.336492 1_555
Na0 O8 2.338773 1_455
Na0 O12 2.339786 1_555
Na0 O19 2.343103 1_455
Na1 O0 2.304042 1_655
Na1 O4 2.336488 1_665
Na1 O9 2.338777 1_555
Na1 O13 2.339787 1_555
Na1 O18 2.343107 1_565
Na2 O3 2.304046 1_555
Na2 O7 2.336492 1_555
Na2 O10 2.338773 1_655
Na2 O14 2.339786 1_555
Na2 O21 2.343103 1_655
Na3 O2 2.304042 1_455
Na3 O6 2.336488 1_445
Na3 O11 2.338777 1_555
Na3 O15 2.339787 1_555
Na3 O20 2.343107 1_545
Eu0 O24 2.387539 1_555
Eu0 O22 2.389353 1_546
Eu0 O18 2.413247 1_555
Eu0 O17 2.423576 1_556
Eu0 O9 2.431148 1_545
Eu0 O4 2.469955 1_555
Eu0 O0 2.484706 1_545
Eu1 O25 2.387539 1_555
Eu1 O23 2.389353 1_554
Eu1 O19 2.413247 1_555
Eu1 O17 2.423576 1_555
Eu1 O8 2.431148 1_555
Eu1 O5 2.469955 1_555
Eu1 O1 2.484706 1_555
Eu2 O22 2.387539 1_555
Eu2 O24 2.389353 1_564
Eu2 O20 2.413247 1_555
Eu2 O16 2.423576 1_555
Eu2 O11 2.431148 1_565
Eu2 O6 2.469955 1_555
Eu2 O2 2.484706 1_565
Eu3 O23 2.387539 1_555
Eu3 O25 2.389353 1_556
Eu3 O21 2.413247 1_555
Eu3 O16 2.423576 1_556
Eu3 O10 2.431148 1_555
Eu3 O7 2.469955 1_555
Eu3 O3 2.484706 1_555
Eu4 O23 2.376379 1_554
Eu4 O16 2.382605 1_455
Eu4 O1 2.393533 1_555
Eu4 O25 2.396878 1_455
Eu4 O20 2.426708 1_555
Eu4 O8 2.456791 1_455
Eu4 O6 2.577637 1_455
Eu5 O22 2.376379 1_656
Eu5 O16 2.382605 1_556
Eu5 O0 2.393533 1_655
Eu5 O24 2.396878 1_565
Eu5 O21 2.426708 1_655
Eu5 O9 2.456791 1_555
Eu5 O7 2.577637 1_555
Eu6 O25 2.376379 1_556
Eu6 O17 2.382605 1_656
Eu6 O3 2.393533 1_555
Eu6 O23 2.396878 1_655
Eu6 O18 2.426708 1_555
Eu6 O10 2.456791 1_655
Eu6 O4 2.577637 1_655
Eu7 O24 2.376379 1_454
Eu7 O17 2.382605 1_555
Eu7 O2 2.393533 1_455
Eu7 O22 2.396878 1_545
Eu7 O19 2.426708 1_455
Eu7 O11 2.456791 1_555
Eu7 O5 2.577637 1_555
O0 Ta0 1.992669 1_555
O0 O9 2.656386 1_555
O0 O21 2.679359 1_555
O0 O22 2.906438 1_556
O1 Ta1 1.992669 1_555
O1 O8 2.656386 1_555
O1 O20 2.679359 1_555
O1 O23 2.906438 1_554
O2 Ta2 1.992669 1_555
O2 O24 2.906438 1_554
O3 Ta3 1.992669 1_555
O4 Ta3 1.972407 1_555
O5 Ta2 1.972407 1_555
O6 Ta1 1.972407 1_555
O6 O8 2.672704 1_555
O7 Ta0 1.972407 1_555
O7 O9 2.672704 1_555
O8 Ta1 1.945318 1_555
O9 Ta0 1.945318 1_555
O10 Ta3 1.945318 1_555
O10 O3 2.656386 1_555
O10 O4 2.672704 1_555
O10 O23 2.873907 1_555
O11 Ta2 1.945318 1_555
O11 O2 2.656386 1_555
O11 O5 2.672704 1_555
O11 O22 2.873907 1_545
O12 Ta0 1.861907 1_555
O13 Ta1 1.861907 1_555
O14 Ta2 1.861907 1_555
O15 Ta3 1.861907 1_555
O16 O7 2.945556 1_554
O16 O6 2.945556 1_555
O17 O5 2.945556 1_555
O17 O4 2.945556 1_554
O18 Ta3 1.966321 1_555
O18 O3 2.679359 1_555
O18 O4 2.701300 1_555
O19 Ta2 1.966321 1_555
O19 O2 2.679359 1_555
O19 O5 2.701300 1_555
O20 Ta1 1.966321 1_555
O20 O6 2.701300 1_555
O21 Ta0 1.966321 1_555
O21 O7 2.701300 1_555
O22 O24 2.893649 1_464
O22 O24 2.918137 1_564
O23 O25 2.893649 1_456
O23 O25 2.918137 1_556
O24 O9 2.873907 1_545
O25 O8 2.873907 1_555
O25 O3 2.906438 1_554
