# generated using pymatgen
data_LiMg
_symmetry_space_group_name_H-M   'P 1'
_cell_length_a   6.68049800
_cell_length_b   9.82525000
_cell_length_c   9.86791800
_cell_angle_alpha   90.00000000
_cell_angle_beta   90.00000000
_cell_angle_gamma   90.00000000
_symmetry_Int_Tables_number   1
_chemical_formula_structural   LiMg
_chemical_formula_sum   'Li16 Mg16'
_cell_volume   647.70608915
_cell_formula_units_Z   16
loop_
 _symmetry_equiv_pos_site_id
 _symmetry_equiv_pos_as_xyz
  1  'x, y, z'
loop_
 _atom_site_type_symbol
 _atom_site_label
 _atom_site_symmetry_multiplicity
 _atom_site_fract_x
 _atom_site_fract_y
 _atom_site_fract_z
 _atom_site_occupancy
  Li  Li0_0  1  0.00000000  0.37500000  0.37144150  1
  Li  Li0_1  1  0.00000000  0.37500000  0.87144150  1
  Li  Li0_2  1  0.00000000  0.87500000  0.37144150  1
  Li  Li0_3  1  0.00000000  0.87500000  0.87144150  1
  Li  Li0_4  1  0.50000000  0.37500000  0.37144150  1
  Li  Li0_5  1  0.50000000  0.37500000  0.87144150  1
  Li  Li0_6  1  0.50000000  0.87500000  0.37144150  1
  Li  Li0_7  1  0.50000000  0.87500000  0.87144150  1
  Li  Li1_0  1  0.00000000  0.12500000  0.12855850  1
  Li  Li1_1  1  0.00000000  0.12500000  0.62855850  1
  Li  Li1_2  1  0.00000000  0.62500000  0.12855850  1
  Li  Li1_3  1  0.00000000  0.62500000  0.62855850  1
  Li  Li1_4  1  0.50000000  0.12500000  0.12855850  1
  Li  Li1_5  1  0.50000000  0.12500000  0.62855850  1
  Li  Li1_6  1  0.50000000  0.62500000  0.12855850  1
  Li  Li1_7  1  0.50000000  0.62500000  0.62855850  1
  Mg  Mg0_0  1  0.25000000  0.12500000  0.37806350  1
  Mg  Mg0_1  1  0.25000000  0.12500000  0.87806350  1
  Mg  Mg0_2  1  0.25000000  0.62500000  0.37806350  1
  Mg  Mg0_3  1  0.25000000  0.62500000  0.87806350  1
  Mg  Mg0_4  1  0.75000000  0.12500000  0.37806350  1
  Mg  Mg0_5  1  0.75000000  0.12500000  0.87806350  1
  Mg  Mg0_6  1  0.75000000  0.62500000  0.37806350  1
  Mg  Mg0_7  1  0.75000000  0.62500000  0.87806350  1
  Mg  Mg1_0  1  0.25000000  0.37500000  0.12193650  1
  Mg  Mg1_1  1  0.25000000  0.37500000  0.62193650  1
  Mg  Mg1_2  1  0.25000000  0.87500000  0.12193650  1
  Mg  Mg1_3  1  0.25000000  0.87500000  0.62193650  1
  Mg  Mg1_4  1  0.75000000  0.37500000  0.12193650  1
  Mg  Mg1_5  1  0.75000000  0.37500000  0.62193650  1
  Mg  Mg1_6  1  0.75000000  0.87500000  0.12193650  1
  Mg  Mg1_7  1  0.75000000  0.87500000  0.62193650  1
loop_
_geom_bond_atom_site_label_1
_geom_bond_atom_site_label_2
_geom_bond_distance
_geom_bond_site_symmetry_2
Li0_0 Mg0_2 2.971036 1_555
Li0_0 Mg0_6 2.971036 1_455
Li0_0 Mg0_4 2.971036 1_455
Li0_0 Mg0_0 2.971036 1_555
Li0_0 Mg1_0 2.975101 1_555
Li0_0 Mg1_4 2.975101 1_455
Li0_0 Mg1_1 2.983191 1_555
Li0_0 Mg1_5 2.983191 1_455
Li0_0 Li0_4 3.340249 1_455
Li0_0 Li0_4 3.340249 1_555
Li0_0 Li1_2 3.431892 1_555
Li0_0 Li1_0 3.431892 1_555
Li0_1 Mg0_7 2.971036 1_455
Li0_1 Mg0_3 2.971036 1_555
Li0_1 Mg0_5 2.971036 1_455
Li0_1 Mg0_1 2.971036 1_555
Li0_1 Mg1_1 2.975101 1_555
Li0_1 Mg1_5 2.975101 1_455
Li0_1 Mg1_0 2.983191 1_556
Li0_1 Mg1_4 2.983191 1_456
Li0_1 Li0_5 3.340249 1_455
Li0_1 Li0_5 3.340249 1_555
Li0_1 Li1_3 3.431892 1_555
Li0_1 Li1_1 3.431892 1_555
Li0_2 Mg0_4 2.971036 1_465
Li0_2 Mg0_0 2.971036 1_565
Li0_2 Mg0_2 2.971036 1_555
Li0_2 Mg0_6 2.971036 1_455
Li0_2 Mg1_2 2.975101 1_555
Li0_2 Mg1_6 2.975101 1_455
Li0_2 Mg1_7 2.983191 1_455
Li0_2 Mg1_3 2.983191 1_555
Li0_2 Li0_6 3.340249 1_555
Li0_2 Li0_6 3.340249 1_455
Li0_2 Li1_0 3.431892 1_565
Li0_2 Li1_2 3.431892 1_555
Li0_3 Mg0_1 2.971036 1_565
Li0_3 Mg0_5 2.971036 1_465
Li0_3 Mg0_7 2.971036 1_455
Li0_3 Mg0_3 2.971036 1_555
Li0_3 Mg1_7 2.975101 1_455
Li0_3 Mg1_3 2.975101 1_555
Li0_3 Mg1_2 2.983191 1_556
Li0_3 Mg1_6 2.983191 1_456
Li0_3 Li0_7 3.340249 1_555
Li0_3 Li0_7 3.340249 1_455
Li0_3 Li1_1 3.431892 1_565
Li0_3 Li1_3 3.431892 1_555
Li0_4 Mg0_6 2.971036 1_555
Li0_4 Mg0_2 2.971036 1_555
Li0_4 Mg0_4 2.971036 1_555
Li0_4 Mg0_0 2.971036 1_555
Li0_4 Mg1_0 2.975101 1_555
Li0_4 Mg1_4 2.975101 1_555
Li0_4 Mg1_1 2.983191 1_555
Li0_4 Mg1_5 2.983191 1_555
Li0_4 Li1_6 3.431892 1_555
Li0_4 Li1_4 3.431892 1_555
Li0_5 Mg0_7 2.971036 1_555
Li0_5 Mg0_3 2.971036 1_555
Li0_5 Mg0_1 2.971036 1_555
Li0_5 Mg0_5 2.971036 1_555
Li0_5 Mg1_1 2.975101 1_555
Li0_5 Mg1_5 2.975101 1_555
Li0_5 Mg1_4 2.983191 1_556
Li0_5 Mg1_0 2.983191 1_556
Li0_5 Li1_7 3.431892 1_555
Li0_5 Li1_5 3.431892 1_555
Li0_6 Mg0_0 2.971036 1_565
Li0_6 Mg0_4 2.971036 1_565
Li0_6 Mg0_2 2.971036 1_555
Li0_6 Mg0_6 2.971036 1_555
Li0_6 Mg1_2 2.975101 1_555
Li0_6 Mg1_6 2.975101 1_555
Li0_6 Mg1_3 2.983191 1_555
Li0_6 Mg1_7 2.983191 1_555
Li0_6 Li1_4 3.431892 1_565
Li0_6 Li1_6 3.431892 1_555
Li0_7 Mg0_1 2.971036 1_565
Li0_7 Mg0_5 2.971036 1_565
Li0_7 Mg0_7 2.971036 1_555
Li0_7 Mg0_3 2.971036 1_555
Li0_7 Mg1_7 2.975101 1_555
Li0_7 Mg1_3 2.975101 1_555
Li0_7 Mg1_6 2.983191 1_556
Li0_7 Mg1_2 2.983191 1_556
Li0_7 Li1_5 3.431892 1_565
Li0_7 Li1_7 3.431892 1_555
Li1_0 Mg1_6 2.971036 1_445
Li1_0 Mg1_2 2.971036 1_545
Li1_0 Mg1_0 2.971036 1_555
Li1_0 Mg1_4 2.971036 1_455
Li1_0 Mg0_0 2.975101 1_555
Li1_0 Mg0_4 2.975101 1_455
Li1_0 Mg0_1 2.983191 1_554
Li1_0 Mg0_5 2.983191 1_454
Li1_0 Li1_4 3.340249 1_455
Li1_0 Li1_4 3.340249 1_555
Li1_1 Mg1_3 2.971036 1_545
Li1_1 Mg1_7 2.971036 1_445
Li1_1 Mg1_5 2.971036 1_455
Li1_1 Mg1_1 2.971036 1_555
Li1_1 Mg0_5 2.975101 1_455
Li1_1 Mg0_1 2.975101 1_555
Li1_1 Mg0_0 2.983191 1_555
Li1_1 Mg0_4 2.983191 1_455
Li1_1 Li1_5 3.340249 1_455
Li1_1 Li1_5 3.340249 1_555
Li1_2 Mg1_4 2.971036 1_455
Li1_2 Mg1_0 2.971036 1_555
Li1_2 Mg1_2 2.971036 1_555
Li1_2 Mg1_6 2.971036 1_455
Li1_2 Mg0_6 2.975101 1_455
Li1_2 Mg0_2 2.975101 1_555
Li1_2 Mg0_3 2.983191 1_554
Li1_2 Mg0_7 2.983191 1_454
Li1_2 Li1_6 3.340249 1_455
Li1_2 Li1_6 3.340249 1_555
Li1_3 Mg1_1 2.971036 1_555
Li1_3 Mg1_5 2.971036 1_455
Li1_3 Mg1_3 2.971036 1_555
Li1_3 Mg1_7 2.971036 1_455
Li1_3 Mg0_7 2.975101 1_455
Li1_3 Mg0_3 2.975101 1_555
Li1_3 Mg0_2 2.983191 1_555
Li1_3 Mg0_6 2.983191 1_455
Li1_3 Li1_7 3.340249 1_455
Li1_3 Li1_7 3.340249 1_555
Li1_4 Mg1_2 2.971036 1_545
Li1_4 Mg1_0 2.971036 1_555
Li1_4 Mg1_4 2.971036 1_555
Li1_4 Mg1_6 2.971036 1_545
Li1_4 Mg0_0 2.975101 1_555
Li1_4 Mg0_4 2.975101 1_555
Li1_4 Mg0_1 2.983191 1_554
Li1_4 Mg0_5 2.983191 1_554
Li1_5 Mg1_5 2.971036 1_555
Li1_5 Mg1_3 2.971036 1_545
Li1_5 Mg1_1 2.971036 1_555
Li1_5 Mg1_7 2.971036 1_545
Li1_5 Mg0_1 2.975101 1_555
Li1_5 Mg0_5 2.975101 1_555
Li1_5 Mg0_0 2.983191 1_555
Li1_5 Mg0_4 2.983191 1_555
Li1_6 Mg1_4 2.971036 1_555
Li1_6 Mg1_0 2.971036 1_555
Li1_6 Mg1_6 2.971036 1_555
Li1_6 Mg1_2 2.971036 1_555
Li1_6 Mg0_6 2.975101 1_555
Li1_6 Mg0_2 2.975101 1_555
Li1_6 Mg0_7 2.983191 1_554
Li1_6 Mg0_3 2.983191 1_554
Li1_7 Mg1_1 2.971036 1_555
Li1_7 Mg1_5 2.971036 1_555
Li1_7 Mg1_3 2.971036 1_555
Li1_7 Mg1_7 2.971036 1_555
Li1_7 Mg0_7 2.975101 1_555
Li1_7 Mg0_3 2.975101 1_555
Li1_7 Mg0_2 2.983191 1_555
Li1_7 Mg0_6 2.983191 1_555
Mg0_0 Mg0_4 3.340249 1_455
Mg0_0 Mg0_4 3.340249 1_555
Mg0_0 Mg1_1 3.438721 1_555
Mg0_0 Mg1_3 3.438721 1_545
Mg0_1 Mg0_5 3.340249 1_455
Mg0_1 Mg0_5 3.340249 1_555
Mg0_1 Mg1_0 3.438721 1_556
Mg0_1 Mg1_2 3.438721 1_546
Mg0_2 Mg0_6 3.340249 1_455
Mg0_2 Mg0_6 3.340249 1_555
Mg0_2 Mg1_1 3.438721 1_555
Mg0_2 Mg1_3 3.438721 1_555
Mg0_3 Mg0_7 3.340249 1_555
Mg0_3 Mg0_7 3.340249 1_455
Mg0_3 Mg1_0 3.438721 1_556
Mg0_3 Mg1_2 3.438721 1_556
Mg0_4 Mg1_7 3.438721 1_545
Mg0_4 Mg1_5 3.438721 1_555
Mg0_5 Mg1_6 3.438721 1_546
Mg0_5 Mg1_4 3.438721 1_556
Mg0_6 Mg1_5 3.438721 1_555
Mg0_6 Mg1_7 3.438721 1_555
Mg0_7 Mg1_4 3.438721 1_556
Mg0_7 Mg1_6 3.438721 1_556
Mg1_0 Mg1_4 3.340249 1_455
Mg1_0 Mg1_4 3.340249 1_555
Mg1_1 Mg1_5 3.340249 1_455
Mg1_1 Mg1_5 3.340249 1_555
Mg1_2 Mg1_6 3.340249 1_455
Mg1_2 Mg1_6 3.340249 1_555
Mg1_3 Mg1_7 3.340249 1_555
Mg1_3 Mg1_7 3.340249 1_455
