# generated using pymatgen
data_Yb(CuGe)2
_symmetry_space_group_name_H-M   'P 1'
_cell_length_a   3.96011006
_cell_length_b   3.96011006
_cell_length_c   5.87531914
_cell_angle_alpha   109.69495366
_cell_angle_beta   109.69495366
_cell_angle_gamma   90.00000000
_symmetry_Int_Tables_number   1
_chemical_formula_structural   Yb(CuGe)2
_chemical_formula_sum   'Yb1 Cu2 Ge2'
_cell_volume   81.00135406
_cell_formula_units_Z   1
loop_
 _symmetry_equiv_pos_site_id
 _symmetry_equiv_pos_as_xyz
  1  'x, y, z'
loop_
 _atom_site_type_symbol
 _atom_site_label
 _atom_site_symmetry_multiplicity
 _atom_site_fract_x
 _atom_site_fract_y
 _atom_site_fract_z
 _atom_site_occupancy
  Yb  Yb0  1  0.00000000  0.00000000  0.00000000  1
  Cu  Cu0  1  0.25000000  0.75000000  0.50000000  1
  Cu  Cu1  1  0.75000000  0.25000000  0.50000000  1
  Ge  Ge0  1  0.61697932  0.61697932  0.23395864  1
  Ge  Ge1  1  0.38302068  0.38302068  0.76604136  1
loop_
_geom_bond_atom_site_label_1
_geom_bond_atom_site_label_2
_geom_bond_distance
_geom_bond_site_symmetry_2
Cu0 Ge0 2.410154 1_555
Cu0 Ge1 2.410154 1_555
Cu0 Ge1 2.410154 1_565
Cu0 Ge0 2.410154 1_455
Cu0 Cu1 2.800221 1_555
Cu0 Cu1 2.800221 1_565
Cu0 Cu1 2.800221 1_465
Cu0 Cu1 2.800221 1_455
Cu0 Yb0 3.254251 1_555
Cu0 Yb0 3.254251 1_666
Cu0 Yb0 3.254251 1_566
Cu0 Yb0 3.254251 1_565
Cu1 Ge0 2.410154 1_555
Cu1 Ge1 2.410154 1_555
Cu1 Ge1 2.410154 1_655
Cu1 Ge0 2.410154 1_545
Cu1 Yb0 3.254251 1_656
Cu1 Yb0 3.254251 1_555
Cu1 Yb0 3.254251 1_666
Cu1 Yb0 3.254251 1_655
Ge0 Ge1 2.416834 1_554
Ge0 Yb0 3.049837 1_555
Ge0 Yb0 3.049837 1_565
Ge0 Yb0 3.049837 1_655
Ge0 Yb0 3.049837 1_665
Ge1 Yb0 3.049837 1_666
Ge1 Yb0 3.049837 1_566
Ge1 Yb0 3.049837 1_656
Ge1 Yb0 3.049837 1_556
