# generated using pymatgen
data_BaBiF7
_symmetry_space_group_name_H-M   'P 1'
_cell_length_a   10.20350000
_cell_length_b   5.79584700
_cell_length_c   10.53127127
_cell_angle_alpha   87.93633324
_cell_angle_beta   90.00000000
_cell_angle_gamma   90.00000000
_symmetry_Int_Tables_number   1
_chemical_formula_structural   BaBiF7
_chemical_formula_sum   'Ba4 Bi4 F28'
_cell_volume   622.39360110
_cell_formula_units_Z   4
loop_
 _symmetry_equiv_pos_site_id
 _symmetry_equiv_pos_as_xyz
  1  'x, y, z'
loop_
 _atom_site_type_symbol
 _atom_site_label
 _atom_site_symmetry_multiplicity
 _atom_site_fract_x
 _atom_site_fract_y
 _atom_site_fract_z
 _atom_site_occupancy
  Ba  Ba0  1  0.33081600  0.30829500  0.50792700  1
  Ba  Ba1  1  0.83081600  0.69170500  0.99207300  1
  Ba  Ba2  1  0.66918400  0.69170500  0.49207300  1
  Ba  Ba3  1  0.16918400  0.30829500  0.00792700  1
  Bi  Bi0  1  0.60922100  0.18484500  0.18645700  1
  Bi  Bi1  1  0.39077900  0.81515500  0.81354300  1
  Bi  Bi2  1  0.89077900  0.18484500  0.68645700  1
  Bi  Bi3  1  0.10922100  0.81515500  0.31354300  1
  F  F0  1  0.44903500  0.11939400  0.88762700  1
  F  F1  1  0.05883900  0.34763700  0.63050800  1
  F  F2  1  0.69747300  0.48309300  0.24270000  1
  F  F3  1  0.30252700  0.51690700  0.75730000  1
  F  F4  1  0.45910600  0.89790200  0.63272800  1
  F  F5  1  0.79747400  0.25541400  0.51560400  1
  F  F6  1  0.76878400  0.98975400  0.24554600  1
  F  F7  1  0.95910600  0.10209800  0.86727200  1
  F  F8  1  0.44116100  0.34763700  0.13050800  1
  F  F9  1  0.19747300  0.51690700  0.25730000  1
  F  F10  1  0.05096500  0.11939400  0.38762700  1
  F  F11  1  0.55096500  0.88060600  0.11237300  1
  F  F12  1  0.26878400  0.01024600  0.25445400  1
  F  F13  1  0.96442700  0.40950800  0.11920200  1
  F  F14  1  0.54089400  0.10209800  0.36727200  1
  F  F15  1  0.04089400  0.89790200  0.13272800  1
  F  F16  1  0.23121600  0.01024600  0.75445400  1
  F  F17  1  0.94903500  0.88060600  0.61237300  1
  F  F18  1  0.46442700  0.59049200  0.38079800  1
  F  F19  1  0.94116100  0.65236300  0.36949200  1
  F  F20  1  0.03557300  0.59049200  0.88079800  1
  F  F21  1  0.73121600  0.98975400  0.74554600  1
  F  F22  1  0.53557300  0.40950800  0.61920200  1
  F  F23  1  0.29747400  0.74458600  0.98439600  1
  F  F24  1  0.20252600  0.74458600  0.48439600  1
  F  F25  1  0.70252600  0.25541400  0.01560400  1
  F  F26  1  0.55883900  0.65236300  0.86949200  1
  F  F27  1  0.80252700  0.48309300  0.74270000  1
loop_
_geom_bond_atom_site_label_1
_geom_bond_atom_site_label_2
_geom_bond_distance
_geom_bond_site_symmetry_2
Ba0 F22 2.476250 1_555
Ba0 F18 2.483634 1_555
Ba0 F24 2.850260 1_555
Ba0 F14 2.888707 1_555
Ba0 F3 2.944637 1_555
Ba0 F4 2.978823 1_545
Ba0 F1 3.072618 1_555
Ba0 F9 3.170130 1_555
Ba0 F16 3.230224 1_555
Ba0 F12 3.292787 1_555
Ba0 F10 3.325250 1_555
Ba1 F20 2.476250 1_655
Ba1 F13 2.483634 1_556
Ba1 F25 2.850260 1_556
Ba1 F15 2.888707 1_656
Ba1 F27 2.944637 1_555
Ba1 F7 2.978823 1_565
Ba1 F26 3.072618 1_555
Ba1 F2 3.170130 1_556
Ba1 F21 3.230224 1_555
Ba1 F6 3.292787 1_556
Ba1 F11 3.325250 1_556
Ba2 F18 2.476250 1_555
Ba2 F22 2.483634 1_555
Ba2 F5 2.850260 1_555
Ba2 F4 2.888707 1_555
Ba2 F2 2.944637 1_555
Ba2 F14 2.978823 1_565
Ba2 F19 3.072618 1_555
Ba2 F27 3.170130 1_555
Ba2 F6 3.230224 1_555
Ba2 F21 3.292787 1_555
Ba2 F17 3.325250 1_555
Ba3 F13 2.476250 1_455
Ba3 F20 2.483634 1_554
Ba3 F23 2.850260 1_554
Ba3 F7 2.888707 1_454
Ba3 F9 2.944637 1_555
Ba3 F15 2.978823 1_545
Ba3 F8 3.072618 1_555
Ba3 F3 3.170130 1_554
Ba3 F12 3.230224 1_555
Ba3 F16 3.292787 1_554
Ba3 F0 3.325250 1_554
Bi0 F8 2.034183 1_555
Bi0 F11 2.042162 1_545
Bi0 F2 2.055113 1_555
Bi0 F25 2.063526 1_555
Bi0 F6 2.065380 1_545
Bi0 F14 2.067924 1_555
Bi1 F26 2.034183 1_555
Bi1 F0 2.042162 1_565
Bi1 F3 2.055113 1_555
Bi1 F23 2.063526 1_555
Bi1 F16 2.065380 1_565
Bi1 F4 2.067924 1_555
Bi2 F1 2.034183 1_655
Bi2 F17 2.042162 1_545
Bi2 F27 2.055113 1_555
Bi2 F5 2.063526 1_555
Bi2 F21 2.065380 1_545
Bi2 F7 2.067924 1_555
Bi3 F19 2.034183 1_455
Bi3 F10 2.042162 1_565
Bi3 F9 2.055113 1_555
Bi3 F24 2.063526 1_555
Bi3 F12 2.065380 1_565
Bi3 F15 2.067924 1_555
F0 F16 2.714888 1_555
F0 F23 2.826599 1_545
F0 F22 3.354960 1_555
F1 F20 3.041805 1_555
F2 F25 2.773278 1_555
F10 F12 2.714888 1_555
F10 F24 2.826599 1_545
F10 F13 3.354960 1_455
F11 F6 2.714888 1_555
F11 F25 2.826599 1_565
F11 F18 3.354960 1_555
F12 F15 2.744874 1_545
F12 F24 2.902299 1_545
F12 F18 3.382442 1_545
F13 F20 2.782305 1_654
F13 F9 2.867425 1_655
F13 F15 2.944607 1_655
F13 F25 3.033044 1_555
F13 F19 3.041805 1_555
F13 F2 3.054966 1_555
F13 F15 3.064471 1_645
F13 F7 3.249157 1_554
F13 F6 3.382442 1_545
F14 F6 2.744874 1_545
F14 F18 2.944607 1_555
F14 F18 3.064471 1_545
F14 F22 3.249157 1_555
F15 F20 3.249157 1_554
F16 F4 2.744874 1_545
F16 F23 2.902299 1_545
F16 F20 3.382442 1_545
F17 F21 2.714888 1_555
F17 F5 2.826599 1_565
F17 F20 3.354960 1_655
F18 F22 2.782305 1_555
F18 F2 2.867425 1_555
F18 F24 3.033044 1_555
F18 F8 3.041805 1_555
F18 F9 3.054966 1_555
F18 F4 3.249157 1_555
F20 F27 2.867425 1_455
F20 F7 2.944607 1_455
F20 F23 3.033044 1_555
F20 F3 3.054966 1_555
F20 F7 3.064471 1_465
F21 F7 2.744874 1_565
F21 F5 2.902299 1_565
F21 F22 3.382442 1_565
F22 F3 2.867425 1_555
F22 F4 2.944607 1_555
F22 F5 3.033044 1_555
F22 F26 3.041805 1_555
F22 F27 3.054966 1_555
F22 F4 3.064471 1_545
F23 F3 2.773278 1_555
F24 F9 2.773278 1_555
F25 F6 2.902299 1_545
F27 F5 2.773278 1_555
