# generated using pymatgen
data_Mg2MnV3S8
_symmetry_space_group_name_H-M   'P 1'
_cell_length_a   7.22904818
_cell_length_b   7.28433711
_cell_length_c   7.23098944
_cell_angle_alpha   60.27194967
_cell_angle_beta   59.93915126
_cell_angle_gamma   60.23421900
_symmetry_Int_Tables_number   1
_chemical_formula_structural   Mg2MnV3S8
_chemical_formula_sum   'Mg2 Mn1 V3 S8'
_cell_volume   270.14874392
_cell_formula_units_Z   1
loop_
 _symmetry_equiv_pos_site_id
 _symmetry_equiv_pos_as_xyz
  1  'x, y, z'
loop_
 _atom_site_type_symbol
 _atom_site_label
 _atom_site_symmetry_multiplicity
 _atom_site_fract_x
 _atom_site_fract_y
 _atom_site_fract_z
 _atom_site_occupancy
  Mg  Mg0  1  0.87438100  0.87680700  0.87434000  1
  Mg  Mg1  1  0.12563000  0.12319000  0.12566600  1
  Mn  Mn0  1  0.50001500  0.99999100  0.50000300  1
  V  V0  1  0.49999700  0.50001500  0.49995900  1
  V  V1  1  0.50001600  0.49999900  0.00000900  1
  V  V2  1  0.00000000  0.49999300  0.50002700  1
  S  S0  1  0.73817400  0.73696700  0.73844100  1
  S  S1  1  0.26160200  0.26317200  0.71343300  1
  S  S2  1  0.26142800  0.71476200  0.26201800  1
  S  S3  1  0.71374800  0.26289800  0.26145300  1
  S  S4  1  0.73853300  0.28525700  0.73796800  1
  S  S5  1  0.28625200  0.73708100  0.73855400  1
  S  S6  1  0.26182200  0.26303400  0.26156800  1
  S  S7  1  0.73840900  0.73683100  0.28656100  1
loop_
_geom_bond_atom_site_label_1
_geom_bond_atom_site_label_2
_geom_bond_distance
_geom_bond_site_symmetry_2
Mg0 S5 2.432786 1_655
Mg0 S0 2.435336 1_555
Mg0 S7 2.436463 1_556
Mg0 S4 2.438931 1_565
Mg1 S3 2.432849 1_455
Mg1 S6 2.435289 1_555
Mg1 S1 2.436534 1_554
Mg1 S2 2.438800 1_545
Mn0 S7 2.452772 1_555
Mn0 S1 2.452828 1_565
Mn0 S3 2.453982 1_565
Mn0 S5 2.454143 1_555
Mn0 S0 2.455625 1_555
Mn0 S6 2.455786 1_565
S0 V1 2.443681 1_556
S0 V2 2.443891 1_655
S1 V0 2.444395 1_555
S1 V2 2.444964 1_555
S2 V2 2.447023 1_555
S2 V1 2.449143 1_555
S2 V0 2.450799 1_555
S3 V0 2.445379 1_555
S3 V1 2.445952 1_555
S4 V2 2.447069 1_655
S4 V1 2.449211 1_556
S4 V0 2.450981 1_555
S5 V0 2.445582 1_555
S5 V1 2.446164 1_556
S6 V1 2.443836 1_555
S6 V2 2.444033 1_555
S7 V0 2.444379 1_555
S7 V2 2.445197 1_655
