# generated using pymatgen
data_SrHfZrSnO6
_symmetry_space_group_name_H-M   'P 1'
_cell_length_a   5.83597264
_cell_length_b   5.83597264
_cell_length_c   5.83597264
_cell_angle_alpha   60.00000000
_cell_angle_beta   60.00000000
_cell_angle_gamma   60.00000000
_symmetry_Int_Tables_number   1
_chemical_formula_structural   SrHfZrSnO6
_chemical_formula_sum   'Sr1 Hf1 Zr1 Sn1 O6'
_cell_volume   140.54802401
_cell_formula_units_Z   1
loop_
 _symmetry_equiv_pos_site_id
 _symmetry_equiv_pos_as_xyz
  1  'x, y, z'
loop_
 _atom_site_type_symbol
 _atom_site_label
 _atom_site_symmetry_multiplicity
 _atom_site_fract_x
 _atom_site_fract_y
 _atom_site_fract_z
 _atom_site_occupancy
  Sr  Sr0  1  0.75000000  0.75000000  0.75000000  1
  Hf  Hf0  1  -0.00000000  0.00000000  0.00000000  1
  Zr  Zr0  1  0.50000000  0.50000000  0.50000000  1
  Sn  Sn0  1  0.25000000  0.25000000  0.25000000  1
  O  O0  1  0.75135238  0.24864762  0.24864762  1
  O  O1  1  0.24864762  0.75135238  0.75135238  1
  O  O2  1  0.75135238  0.24864762  0.75135238  1
  O  O3  1  0.24864762  0.75135238  0.24864762  1
  O  O4  1  0.75135238  0.75135238  0.24864762  1
  O  O5  1  0.24864762  0.24864762  0.75135238  1
loop_
_geom_bond_atom_site_label_1
_geom_bond_atom_site_label_2
_geom_bond_distance
_geom_bond_site_symmetry_2
Hf0 O1 2.052166 1_544
Hf0 O4 2.052166 1_445
Hf0 O2 2.052166 1_454
Hf0 O3 2.052166 1_545
Hf0 O5 2.052166 1_554
Hf0 O0 2.052166 1_455
O0 Zr0 2.074490 1_555
O0 Sn0 2.918008 1_655
O0 Sr0 2.918008 1_545
O0 Sr0 2.918008 1_554
O0 Sn0 2.918008 1_555
O1 Zr0 2.074490 1_555
O1 Sr0 2.918008 1_555
O1 Sn0 2.918008 1_556
O1 Sn0 2.918008 1_565
O1 Sr0 2.918008 1_455
O2 Zr0 2.074490 1_555
O2 Sr0 2.918008 1_555
O2 Sn0 2.918008 1_556
O2 Sn0 2.918008 1_655
O2 Sr0 2.918008 1_545
O3 Zr0 2.074490 1_555
O3 Sn0 2.918008 1_565
O3 Sr0 2.918008 1_455
O3 Sr0 2.918008 1_554
O3 Sn0 2.918008 1_555
O4 Zr0 2.074490 1_555
O4 Sr0 2.918008 1_555
O4 Sn0 2.918008 1_565
O4 Sn0 2.918008 1_655
O4 Sr0 2.918008 1_554
O5 Zr0 2.074490 1_555
O5 Sn0 2.918008 1_556
O5 Sr0 2.918008 1_455
O5 Sr0 2.918008 1_545
O5 Sn0 2.918008 1_555
