# generated using pymatgen
data_Mg64Si31Bi
_symmetry_space_group_name_H-M   'P 1'
_cell_length_a   12.75334342
_cell_length_b   12.75334342
_cell_length_c   12.75334342
_cell_angle_alpha   90.00000000
_cell_angle_beta   90.00000000
_cell_angle_gamma   90.00000000
_symmetry_Int_Tables_number   1
_chemical_formula_structural   Mg64Si31Bi
_chemical_formula_sum   'Mg64 Si31 Bi1'
_cell_volume   2074.30284675
_cell_formula_units_Z   1
loop_
 _symmetry_equiv_pos_site_id
 _symmetry_equiv_pos_as_xyz
  1  'x, y, z'
loop_
 _atom_site_type_symbol
 _atom_site_label
 _atom_site_symmetry_multiplicity
 _atom_site_fract_x
 _atom_site_fract_y
 _atom_site_fract_z
 _atom_site_occupancy
  Mg  Mg0  1  0.87468577  0.62501275  0.37498725  1
  Mg  Mg1  1  0.62501275  0.62501275  0.12531423  1
  Mg  Mg2  1  0.62501275  0.87468577  0.37498725  1
  Mg  Mg3  1  0.87468577  0.37498725  0.62501275  1
  Mg  Mg4  1  0.62501275  0.37498725  0.87468577  1
  Mg  Mg5  1  0.62501275  0.12531423  0.62501275  1
  Mg  Mg6  1  0.12531423  0.62501275  0.62501275  1
  Mg  Mg7  1  0.37498725  0.62501275  0.87468577  1
  Mg  Mg8  1  0.37498725  0.87468577  0.62501275  1
  Mg  Mg9  1  0.12531423  0.37498725  0.37498725  1
  Mg  Mg10  1  0.37498725  0.37498725  0.12531423  1
  Mg  Mg11  1  0.37498725  0.12531423  0.37498725  1
  Mg  Mg12  1  0.12531423  0.37498725  0.62501275  1
  Mg  Mg13  1  0.37498725  0.37498725  0.87468577  1
  Mg  Mg14  1  0.37498725  0.12531423  0.62501275  1
  Mg  Mg15  1  0.12531423  0.62501275  0.37498725  1
  Mg  Mg16  1  0.37498725  0.62501275  0.12531423  1
  Mg  Mg17  1  0.37498725  0.87468577  0.37498725  1
  Mg  Mg18  1  0.87468577  0.37498725  0.37498725  1
  Mg  Mg19  1  0.62501275  0.37498725  0.12531423  1
  Mg  Mg20  1  0.62501275  0.12531423  0.37498725  1
  Mg  Mg21  1  0.87468577  0.62501275  0.62501275  1
  Mg  Mg22  1  0.62501275  0.62501275  0.87468577  1
  Mg  Mg23  1  0.62501275  0.87468577  0.62501275  1
  Mg  Mg24  1  0.37588816  0.87479193  0.12520807  1
  Mg  Mg25  1  0.87479193  0.87479193  0.62411184  1
  Mg  Mg26  1  0.87479193  0.37588816  0.12520807  1
  Mg  Mg27  1  0.37588816  0.12520807  0.87479193  1
  Mg  Mg28  1  0.87479193  0.12520807  0.37588816  1
  Mg  Mg29  1  0.87479193  0.62411184  0.87479193  1
  Mg  Mg30  1  0.62411184  0.87479193  0.87479193  1
  Mg  Mg31  1  0.12520807  0.87479193  0.37588816  1
  Mg  Mg32  1  0.12520807  0.37588816  0.87479193  1
  Mg  Mg33  1  0.62411184  0.12520807  0.12520807  1
  Mg  Mg34  1  0.12520807  0.12520807  0.62411184  1
  Mg  Mg35  1  0.12520807  0.62411184  0.12520807  1
  Mg  Mg36  1  0.62411184  0.12520807  0.87479193  1
  Mg  Mg37  1  0.12520807  0.12520807  0.37588816  1
  Mg  Mg38  1  0.12520807  0.62411184  0.87479193  1
  Mg  Mg39  1  0.62411184  0.87479193  0.12520807  1
  Mg  Mg40  1  0.12520807  0.87479193  0.62411184  1
  Mg  Mg41  1  0.12520807  0.37588816  0.12520807  1
  Mg  Mg42  1  0.37588816  0.12520807  0.12520807  1
  Mg  Mg43  1  0.87479193  0.12520807  0.62411184  1
  Mg  Mg44  1  0.87479193  0.62411184  0.12520807  1
  Mg  Mg45  1  0.37588816  0.87479193  0.87479193  1
  Mg  Mg46  1  0.87479193  0.87479193  0.37588816  1
  Mg  Mg47  1  0.87479193  0.37588816  0.87479193  1
  Mg  Mg48  1  0.37468208  0.62531792  0.37468208  1
  Mg  Mg49  1  0.62531792  0.62531792  0.62531792  1
  Mg  Mg50  1  0.62531792  0.37468208  0.37468208  1
  Mg  Mg51  1  0.37468208  0.37468208  0.62531792  1
  Mg  Mg52  1  0.62531792  0.37468208  0.62531792  1
  Mg  Mg53  1  0.37468208  0.37468208  0.37468208  1
  Mg  Mg54  1  0.37468208  0.62531792  0.62531792  1
  Mg  Mg55  1  0.62531792  0.62531792  0.37468208  1
  Mg  Mg56  1  0.13323030  0.13323030  0.86676970  1
  Mg  Mg57  1  0.13323030  0.86676970  0.13323030  1
  Mg  Mg58  1  0.86676970  0.13323030  0.13323030  1
  Mg  Mg59  1  0.86676970  0.86676970  0.86676970  1
  Mg  Mg60  1  0.86676970  0.86676970  0.13323030  1
  Mg  Mg61  1  0.86676970  0.13323030  0.86676970  1
  Mg  Mg62  1  0.13323030  0.86676970  0.86676970  1
  Mg  Mg63  1  0.13323030  0.13323030  0.13323030  1
  Si  Si0  1  0.50000000  0.50000000  0.50000000  1
  Si  Si1  1  0.50000000  0.50000000  -0.00000000  1
  Si  Si2  1  0.50000000  -0.00000000  0.50000000  1
  Si  Si3  1  -0.00000000  0.50000000  0.50000000  1
  Si  Si4  1  0.50000000  -0.00000000  0.00000000  1
  Si  Si5  1  -0.00000000  -0.00000000  0.50000000  1
  Si  Si6  1  -0.00000000  0.50000000  -0.00000000  1
  Si  Si7  1  0.50000000  0.75010498  0.24989502  1
  Si  Si8  1  0.75010498  0.75010498  0.50000000  1
  Si  Si9  1  0.75010498  0.50000000  0.24989502  1
  Si  Si10  1  0.50000000  0.24989502  0.75010498  1
  Si  Si11  1  0.75010498  0.24989502  0.50000000  1
  Si  Si12  1  0.75010498  0.50000000  0.75010498  1
  Si  Si13  1  0.50000000  0.75010498  0.75010498  1
  Si  Si14  1  0.24989502  0.75010498  0.50000000  1
  Si  Si15  1  0.24989502  0.50000000  0.75010498  1
  Si  Si16  1  0.50000000  0.24989502  0.24989502  1
  Si  Si17  1  0.24989502  0.24989502  0.50000000  1
  Si  Si18  1  0.24989502  0.50000000  0.24989502  1
  Si  Si19  1  0.74951081  -0.00000000  0.25048919  1
  Si  Si20  1  -0.00000000  0.74951081  0.25048919  1
  Si  Si21  1  0.74951081  0.74951081  -0.00000000  1
  Si  Si22  1  0.74951081  -0.00000000  0.74951081  1
  Si  Si23  1  -0.00000000  0.25048919  0.74951081  1
  Si  Si24  1  0.74951081  0.25048919  0.00000000  1
  Si  Si25  1  0.25048919  -0.00000000  0.74951081  1
  Si  Si26  1  -0.00000000  0.74951081  0.74951081  1
  Si  Si27  1  0.25048919  0.74951081  -0.00000000  1
  Si  Si28  1  0.25048919  -0.00000000  0.25048919  1
  Si  Si29  1  -0.00000000  0.25048919  0.25048919  1
  Si  Si30  1  0.25048919  0.25048919  0.00000000  1
  Bi  Bi0  1  -0.00000000  -0.00000000  0.00000000  1
loop_
_geom_bond_atom_site_label_1
_geom_bond_atom_site_label_2
_geom_bond_distance
_geom_bond_site_symmetry_2
Mg0 Si20 2.756115 1_655
Mg0 Si8 2.758871 1_555
Mg0 Si9 2.758871 1_555
Mg0 Si3 2.763683 1_655
Mg0 Mg55 3.180279 1_555
Mg0 Mg46 3.185541 1_555
Mg0 Mg44 3.185541 1_555
Mg0 Mg18 3.188661 1_555
Mg0 Mg21 3.188661 1_555
Mg0 Mg15 3.196351 1_655
Mg1 Si21 2.756115 1_555
Mg1 Si9 2.758871 1_555
Mg1 Si7 2.758871 1_555
Mg1 Si1 2.763683 1_555
Mg1 Mg55 3.180279 1_555
Mg1 Mg44 3.185541 1_555
Mg1 Mg39 3.185541 1_555
Mg1 Mg19 3.188661 1_555
Mg1 Mg16 3.188661 1_555
Mg1 Mg22 3.196351 1_554
Mg2 Si19 2.756115 1_565
Mg2 Si8 2.758871 1_555
Mg2 Si7 2.758871 1_555
Mg2 Si2 2.763683 1_565
Mg2 Mg55 3.180279 1_555
Mg2 Mg39 3.185541 1_555
Mg2 Mg46 3.185541 1_555
Mg2 Mg23 3.188661 1_555
Mg2 Mg20 3.196351 1_565
Mg3 Si23 2.756115 1_655
Mg3 Si12 2.758871 1_555
Mg3 Si11 2.758871 1_555
Mg3 Si3 2.763683 1_655
Mg3 Mg52 3.180279 1_555
Mg3 Mg43 3.185541 1_555
Mg3 Mg47 3.185541 1_555
Mg4 Si24 2.756115 1_556
Mg4 Si12 2.758871 1_555
Mg4 Si10 2.758871 1_555
Mg4 Si1 2.763683 1_556
Mg4 Mg52 3.180279 1_555
Mg4 Mg47 3.185541 1_555
Mg5 Si22 2.756115 1_555
Mg5 Si10 2.758871 1_555
Mg5 Si11 2.758871 1_555
Mg5 Si2 2.763683 1_555
Mg5 Mg52 3.180279 1_555
Mg6 Si26 2.756115 1_555
Mg6 Si15 2.758871 1_555
Mg6 Si14 2.758871 1_555
Mg6 Si3 2.763683 1_555
Mg7 Si27 2.756115 1_556
Mg7 Si13 2.758871 1_555
Mg7 Si15 2.758871 1_555
Mg7 Si1 2.763683 1_556
Mg8 Si25 2.756115 1_565
Mg8 Si13 2.758871 1_555
Mg8 Si14 2.758871 1_555
Mg8 Si2 2.763683 1_565
Mg9 Si29 2.756115 1_555
Mg9 Si18 2.758871 1_555
Mg9 Si17 2.758871 1_555
Mg9 Si3 2.763683 1_555
Mg10 Si30 2.756115 1_555
Mg10 Si18 2.758871 1_555
Mg10 Si16 2.758871 1_555
Mg10 Si1 2.763683 1_555
Mg10 Mg53 3.180279 1_555
Mg10 Mg41 3.185541 1_555
Mg10 Mg42 3.185541 1_555
Mg10 Mg19 3.188661 1_555
Mg10 Mg16 3.188661 1_555
Mg10 Mg13 3.196351 1_554
Mg11 Si28 2.756115 1_555
Mg11 Si16 2.758871 1_555
Mg11 Si17 2.758871 1_555
Mg11 Si2 2.763683 1_555
Mg11 Mg53 3.180279 1_555
Mg11 Mg42 3.185541 1_555
Mg11 Mg37 3.185541 1_555
Mg11 Mg20 3.188661 1_555
Mg11 Mg14 3.188661 1_555
Mg11 Mg17 3.196351 1_545
Mg12 Si23 2.756115 1_555
Mg12 Si15 2.758871 1_555
Mg12 Si17 2.758871 1_555
Mg12 Si3 2.763683 1_555
Mg12 Mg51 3.180279 1_555
Mg12 Mg34 3.185541 1_555
Mg12 Mg32 3.185541 1_555
Mg12 Mg9 3.188661 1_555
Mg12 Mg6 3.188661 1_555
Mg12 Mg3 3.196351 1_455
Mg13 Si30 2.756115 1_556
Mg13 Si15 2.758871 1_555
Mg13 Si10 2.758871 1_555
Mg13 Si1 2.763683 1_556
Mg13 Mg51 3.180279 1_555
Mg13 Mg27 3.185541 1_555
Mg13 Mg32 3.185541 1_555
Mg13 Mg4 3.188661 1_555
Mg13 Mg7 3.188661 1_555
Mg14 Si25 2.756115 1_555
Mg14 Si10 2.758871 1_555
Mg14 Si17 2.758871 1_555
Mg14 Si2 2.763683 1_555
Mg14 Mg51 3.180279 1_555
Mg14 Mg27 3.185541 1_555
Mg14 Mg34 3.185541 1_555
Mg14 Mg5 3.188661 1_555
Mg14 Mg8 3.196351 1_545
Mg15 Si20 2.756115 1_555
Mg15 Si14 2.758871 1_555
Mg15 Si18 2.758871 1_555
Mg15 Si3 2.763683 1_555
Mg15 Mg48 3.180279 1_555
Mg15 Mg31 3.185541 1_555
Mg15 Mg35 3.185541 1_555
Mg15 Mg9 3.188661 1_555
Mg15 Mg6 3.188661 1_555
Mg16 Si27 2.756115 1_555
Mg16 Si18 2.758871 1_555
Mg16 Si7 2.758871 1_555
Mg16 Si1 2.763683 1_555
Mg16 Mg48 3.180279 1_555
Mg16 Mg24 3.185541 1_555
Mg16 Mg35 3.185541 1_555
Mg16 Mg7 3.196351 1_554
Mg17 Si28 2.756115 1_565
Mg17 Si14 2.758871 1_555
Mg17 Si7 2.758871 1_555
Mg17 Si2 2.763683 1_565
Mg17 Mg48 3.180279 1_555
Mg17 Mg24 3.185541 1_555
Mg17 Mg31 3.185541 1_555
Mg17 Mg8 3.188661 1_555
Mg17 Mg2 3.188661 1_555
Mg18 Si29 2.756115 1_655
Mg18 Si9 2.758871 1_555
Mg18 Si11 2.758871 1_555
Mg18 Si3 2.763683 1_655
Mg18 Mg50 3.180279 1_555
Mg18 Mg26 3.185541 1_555
Mg18 Mg28 3.185541 1_555
Mg18 Mg3 3.188661 1_555
Mg18 Mg9 3.196351 1_655
Mg19 Si24 2.756115 1_555
Mg19 Si9 2.758871 1_555
Mg19 Si16 2.758871 1_555
Mg19 Si1 2.763683 1_555
Mg19 Mg50 3.180279 1_555
Mg19 Mg26 3.185541 1_555
Mg19 Mg33 3.185541 1_555
Mg19 Mg4 3.196351 1_554
Mg20 Si19 2.756115 1_555
Mg20 Si16 2.758871 1_555
Mg20 Si11 2.758871 1_555
Mg20 Si2 2.763683 1_555
Mg20 Mg50 3.180279 1_555
Mg20 Mg33 3.185541 1_555
Mg20 Mg28 3.185541 1_555
Mg20 Mg5 3.188661 1_555
Mg21 Si26 2.756115 1_655
Mg21 Si8 2.758871 1_555
Mg21 Si12 2.758871 1_555
Mg21 Si3 2.763683 1_655
Mg21 Mg49 3.180279 1_555
Mg21 Mg29 3.185541 1_555
Mg21 Mg25 3.185541 1_555
Mg21 Mg3 3.188661 1_555
Mg21 Mg6 3.196351 1_655
Mg22 Si21 2.756115 1_556
Mg22 Si13 2.758871 1_555
Mg22 Si12 2.758871 1_555
Mg22 Si1 2.763683 1_556
Mg22 Mg49 3.180279 1_555
Mg22 Mg29 3.185541 1_555
Mg22 Mg30 3.185541 1_555
Mg22 Mg4 3.188661 1_555
Mg22 Mg7 3.188661 1_555
Mg23 Si22 2.756115 1_565
Mg23 Si8 2.758871 1_555
Mg23 Si13 2.758871 1_555
Mg23 Si2 2.763683 1_565
Mg23 Mg49 3.180279 1_555
Mg23 Mg30 3.185541 1_555
Mg23 Mg25 3.185541 1_555
Mg23 Mg8 3.188661 1_555
Mg23 Mg5 3.196351 1_565
Mg24 Si7 2.750037 1_555
Mg24 Si4 2.757728 1_565
Mg24 Si28 2.767720 1_565
Mg24 Si27 2.767720 1_555
Mg24 Mg57 3.098080 1_555
Mg24 Mg39 3.165682 1_555
Mg24 Mg42 3.193643 1_565
Mg24 Mg45 3.193643 1_554
Mg25 Si8 2.750037 1_555
Mg25 Si5 2.757728 1_665
Mg25 Si22 2.767720 1_565
Mg25 Si26 2.767720 1_655
Mg25 Mg59 3.098080 1_555
Mg25 Mg46 3.165682 1_555
Mg25 Mg40 3.193643 1_655
Mg25 Mg43 3.193643 1_565
Mg26 Si9 2.750037 1_555
Mg26 Si6 2.757728 1_655
Mg26 Si29 2.767720 1_655
Mg26 Si24 2.767720 1_555
Mg26 Mg58 3.098080 1_555
Mg26 Mg44 3.165682 1_555
Mg26 Mg47 3.193643 1_554
Mg26 Mg41 3.193643 1_655
Mg27 Si10 2.750037 1_555
Mg27 Si4 2.757728 1_556
Mg27 Si30 2.767720 1_556
Mg27 Si25 2.767720 1_555
Mg27 Mg56 3.098080 1_555
Mg27 Mg36 3.165682 1_555
Mg27 Mg42 3.193643 1_556
Mg27 Mg45 3.193643 1_545
Mg28 Si11 2.750037 1_555
Mg28 Si5 2.757728 1_655
Mg28 Si19 2.767720 1_555
Mg28 Si29 2.767720 1_655
Mg28 Mg58 3.098080 1_555
Mg28 Mg43 3.165682 1_555
Mg28 Mg46 3.193643 1_545
Mg28 Mg37 3.193643 1_655
Mg29 Si12 2.750037 1_555
Mg29 Si6 2.757728 1_656
Mg29 Si26 2.767720 1_655
Mg29 Si21 2.767720 1_556
Mg29 Mg59 3.098080 1_555
Mg29 Mg47 3.165682 1_555
Mg29 Mg44 3.193643 1_556
Mg29 Mg38 3.193643 1_655
Mg30 Si13 2.750037 1_555
Mg30 Si4 2.757728 1_566
Mg30 Si21 2.767720 1_556
Mg30 Si22 2.767720 1_565
Mg30 Mg59 3.098080 1_555
Mg30 Mg45 3.165682 1_555
Mg30 Mg36 3.193643 1_565
Mg30 Mg39 3.193643 1_556
Mg31 Si14 2.750037 1_555
Mg31 Si5 2.757728 1_565
Mg31 Si28 2.767720 1_565
Mg31 Si20 2.767720 1_555
Mg31 Mg57 3.098080 1_555
Mg31 Mg40 3.165682 1_555
Mg31 Mg37 3.193643 1_565
Mg31 Mg46 3.193643 1_455
Mg32 Si15 2.750037 1_555
Mg32 Si6 2.757728 1_556
Mg32 Si30 2.767720 1_556
Mg32 Si23 2.767720 1_555
Mg32 Mg56 3.098080 1_555
Mg32 Mg38 3.165682 1_555
Mg32 Mg41 3.193643 1_556
Mg32 Mg47 3.193643 1_455
Mg33 Si16 2.750037 1_555
Mg33 Si4 2.757728 1_555
Mg33 Si19 2.767720 1_555
Mg33 Si24 2.767720 1_555
Mg33 Mg58 3.098080 1_555
Mg33 Mg42 3.165682 1_555
Mg33 Mg39 3.193643 1_545
Mg33 Mg36 3.193643 1_554
Mg34 Si17 2.750037 1_555
Mg34 Si5 2.757728 1_555
Mg34 Si25 2.767720 1_555
Mg34 Si23 2.767720 1_555
Mg34 Mg56 3.098080 1_555
Mg34 Mg37 3.165682 1_555
Mg34 Mg40 3.193643 1_545
Mg34 Mg43 3.193643 1_455
Mg35 Si18 2.750037 1_555
Mg35 Si6 2.757728 1_555
Mg35 Si20 2.767720 1_555
Mg35 Si27 2.767720 1_555
Mg35 Mg57 3.098080 1_555
Mg35 Mg41 3.165682 1_555
Mg35 Mg38 3.193643 1_554
Mg35 Mg44 3.193643 1_455
Mg36 Si10 2.750037 1_555
Mg36 Si4 2.757728 1_556
Mg36 Si24 2.767720 1_556
Mg36 Si22 2.767720 1_555
Mg36 Mg61 3.098080 1_555
Mg36 Mg5 3.185541 1_555
Mg36 Mg4 3.185541 1_555
Mg37 Si17 2.750037 1_555
Mg37 Si5 2.757728 1_555
Mg37 Si28 2.767720 1_555
Mg37 Si29 2.767720 1_555
Mg37 Mg63 3.098080 1_555
Mg37 Mg9 3.185541 1_555
Mg38 Si15 2.750037 1_555
Mg38 Si6 2.757728 1_556
Mg38 Si27 2.767720 1_556
Mg38 Si26 2.767720 1_555
Mg38 Mg62 3.098080 1_555
Mg38 Mg6 3.185541 1_555
Mg38 Mg7 3.185541 1_555
Mg39 Si7 2.750037 1_555
Mg39 Si4 2.757728 1_565
Mg39 Si21 2.767720 1_555
Mg39 Si19 2.767720 1_565
Mg39 Mg60 3.098080 1_555
Mg40 Si14 2.750037 1_555
Mg40 Si5 2.757728 1_565
Mg40 Si25 2.767720 1_565
Mg40 Si26 2.767720 1_555
Mg40 Mg62 3.098080 1_555
Mg40 Mg6 3.185541 1_555
Mg40 Mg8 3.185541 1_555
Mg41 Si18 2.750037 1_555
Mg41 Si6 2.757728 1_555
Mg41 Si30 2.767720 1_555
Mg41 Si29 2.767720 1_555
Mg41 Mg63 3.098080 1_555
Mg41 Mg9 3.185541 1_555
Mg42 Si16 2.750037 1_555
Mg42 Si4 2.757728 1_555
Mg42 Si30 2.767720 1_555
Mg42 Si28 2.767720 1_555
Mg42 Mg63 3.098080 1_555
Mg43 Si11 2.750037 1_555
Mg43 Si5 2.757728 1_655
Mg43 Si22 2.767720 1_555
Mg43 Si23 2.767720 1_655
Mg43 Mg61 3.098080 1_555
Mg43 Mg5 3.185541 1_555
Mg44 Si9 2.750037 1_555
Mg44 Si6 2.757728 1_655
Mg44 Si20 2.767720 1_655
Mg44 Si21 2.767720 1_555
Mg44 Mg60 3.098080 1_555
Mg45 Si13 2.750037 1_555
Mg45 Si4 2.757728 1_566
Mg45 Si27 2.767720 1_556
Mg45 Si25 2.767720 1_565
Mg45 Mg62 3.098080 1_555
Mg45 Mg8 3.185541 1_555
Mg45 Mg7 3.185541 1_555
Mg46 Si8 2.750037 1_555
Mg46 Si5 2.757728 1_665
Mg46 Si19 2.767720 1_565
Mg46 Si20 2.767720 1_655
Mg46 Mg60 3.098080 1_555
Mg47 Si12 2.750037 1_555
Mg47 Si6 2.757728 1_656
Mg47 Si24 2.767720 1_556
Mg47 Si23 2.767720 1_655
Mg47 Mg61 3.098080 1_555
Mg48 Si14 2.760390 1_555
Mg48 Si18 2.760390 1_555
Mg48 Si7 2.760390 1_555
Mg48 Si0 2.768203 1_555
Mg48 Mg54 3.196445 1_555
Mg48 Mg55 3.196445 1_555
Mg48 Mg53 3.196445 1_555
Mg49 Si8 2.760390 1_555
Mg49 Si13 2.760390 1_555
Mg49 Si12 2.760390 1_555
Mg49 Si0 2.768203 1_555
Mg49 Mg54 3.196445 1_555
Mg49 Mg52 3.196445 1_555
Mg49 Mg55 3.196445 1_555
Mg50 Si9 2.760390 1_555
Mg50 Si16 2.760390 1_555
Mg50 Si11 2.760390 1_555
Mg50 Si0 2.768203 1_555
Mg50 Mg52 3.196445 1_555
Mg50 Mg55 3.196445 1_555
Mg50 Mg53 3.196445 1_555
Mg51 Si15 2.760390 1_555
Mg51 Si17 2.760390 1_555
Mg51 Si10 2.760390 1_555
Mg51 Si0 2.768203 1_555
Mg51 Mg54 3.196445 1_555
Mg51 Mg52 3.196445 1_555
Mg51 Mg53 3.196445 1_555
Mg52 Si10 2.760390 1_555
Mg52 Si11 2.760390 1_555
Mg52 Si12 2.760390 1_555
Mg52 Si0 2.768203 1_555
Mg53 Si18 2.760390 1_555
Mg53 Si16 2.760390 1_555
Mg53 Si17 2.760390 1_555
Mg53 Si0 2.768203 1_555
Mg53 Mg9 3.180279 1_555
Mg54 Si14 2.760390 1_555
Mg54 Si15 2.760390 1_555
Mg54 Si13 2.760390 1_555
Mg54 Si0 2.768203 1_555
Mg54 Mg6 3.180279 1_555
Mg54 Mg7 3.180279 1_555
Mg54 Mg8 3.180279 1_555
Mg55 Si9 2.760390 1_555
Mg55 Si7 2.760390 1_555
Mg55 Si8 2.760390 1_555
Mg55 Si0 2.768203 1_555
Mg56 Si25 2.712885 1_555
Mg56 Si23 2.712885 1_555
Mg56 Si30 2.712885 1_556
Mg56 Mg63 3.398264 1_556
Mg56 Mg62 3.398264 1_545
Mg56 Mg61 3.398264 1_455
Mg57 Si20 2.712885 1_555
Mg57 Si27 2.712885 1_555
Mg57 Si28 2.712885 1_565
Mg57 Mg63 3.398264 1_565
Mg57 Mg60 3.398264 1_455
Mg57 Mg62 3.398264 1_554
Mg58 Si19 2.712885 1_555
Mg58 Si24 2.712885 1_555
Mg58 Si29 2.712885 1_655
Mg58 Mg63 3.398264 1_655
Mg58 Mg61 3.398264 1_554
Mg58 Mg60 3.398264 1_545
Mg59 Si26 2.712885 1_655
Mg59 Si21 2.712885 1_556
Mg59 Si22 2.712885 1_565
Mg59 Mg61 3.398264 1_565
Mg59 Mg60 3.398264 1_556
Mg59 Mg62 3.398264 1_655
Mg60 Si21 2.712885 1_555
Mg60 Si20 2.712885 1_655
Mg60 Si19 2.712885 1_565
Mg61 Si22 2.712885 1_555
Mg61 Si23 2.712885 1_655
Mg61 Si24 2.712885 1_556
Mg62 Si26 2.712885 1_555
Mg62 Si27 2.712885 1_556
Mg62 Si25 2.712885 1_565
Mg63 Si28 2.712885 1_555
Mg63 Si30 2.712885 1_555
Mg63 Si29 2.712885 1_555
Bi0 Mg56 2.942983 1_554
Bi0 Mg57 2.942983 1_545
Bi0 Mg63 2.942983 1_555
Bi0 Mg60 2.942983 1_445
Bi0 Mg61 2.942983 1_454
Bi0 Mg58 2.942983 1_455
Bi0 Mg59 2.942983 1_444
Bi0 Mg62 2.942983 1_544
