# generated using pymatgen
data_SrCa7Mn8O24
_symmetry_space_group_name_H-M   'P 1'
_cell_length_a   10.85094473
_cell_length_b   15.20343388
_cell_length_c   10.72075841
_cell_angle_alpha   90.01028336
_cell_angle_beta   90.00515306
_cell_angle_gamma   89.99139195
_symmetry_Int_Tables_number   1
_chemical_formula_structural   SrCa7Mn8O24
_chemical_formula_sum   'Sr4 Ca28 Mn32 O96'
_cell_volume   1768.62083624
_cell_formula_units_Z   4
loop_
 _symmetry_equiv_pos_site_id
 _symmetry_equiv_pos_as_xyz
  1  'x, y, z'
loop_
 _atom_site_type_symbol
 _atom_site_label
 _atom_site_symmetry_multiplicity
 _atom_site_fract_x
 _atom_site_fract_y
 _atom_site_fract_z
 _atom_site_occupancy
  Sr  Sr0  1  0.01660398  0.12481080  0.49728915  1
  Sr  Sr1  1  0.48339502  0.37518920  0.00271085  1
  Sr  Sr2  1  0.23198864  0.37554526  0.24654217  1
  Sr  Sr3  1  0.26801136  0.12445474  0.25345683  1
  Ca  Ca0  1  0.02190956  0.12491125  0.99457252  1
  Ca  Ca1  1  0.02268033  0.62507402  0.49536921  1
  Ca  Ca2  1  0.02256984  0.62510214  0.99558837  1
  Ca  Ca3  1  0.52235608  0.12486430  0.49588443  1
  Ca  Ca4  1  0.52326238  0.12473801  0.99521204  1
  Ca  Ca5  1  0.52274547  0.62513813  0.49548678  1
  Ca  Ca6  1  0.52262261  0.62528479  0.99579514  1
  Ca  Ca7  1  0.47808944  0.37508875  0.50542848  1
  Ca  Ca8  1  0.47731867  0.87492598  0.00463079  1
  Ca  Ca9  1  0.47742916  0.87489786  0.50441163  1
  Ca  Ca10  1  0.97764392  0.37513570  0.00411457  1
  Ca  Ca11  1  0.97673762  0.37526199  0.50478796  1
  Ca  Ca12  1  0.97725453  0.87486187  0.00451322  1
  Ca  Ca13  1  0.97737739  0.87471521  0.50420486  1
  Ca  Ca14  1  0.22676396  0.37527438  0.74428991  1
  Ca  Ca15  1  0.22711608  0.87458569  0.24563993  1
  Ca  Ca16  1  0.22715724  0.87475522  0.74545645  1
  Ca  Ca17  1  0.72915005  0.37499403  0.24668560  1
  Ca  Ca18  1  0.72785056  0.37497260  0.74496808  1
  Ca  Ca19  1  0.72764107  0.87503061  0.24569114  1
  Ca  Ca20  1  0.72741235  0.87502256  0.74544606  1
  Ca  Ca21  1  0.27323604  0.12472562  0.75570909  1
  Ca  Ca22  1  0.27288292  0.62541431  0.25435907  1
  Ca  Ca23  1  0.27284176  0.62524478  0.75454455  1
  Ca  Ca24  1  0.77084995  0.12500597  0.25331440  1
  Ca  Ca25  1  0.77214944  0.12502740  0.75503092  1
  Ca  Ca26  1  0.77235893  0.62496939  0.25430886  1
  Ca  Ca27  1  0.77258765  0.62497744  0.75455494  1
  Mn  Mn0  1  0.99818322  0.99823616  0.24913405  1
  Mn  Mn1  1  0.00009606  0.99921006  0.75179189  1
  Mn  Mn2  1  0.99893862  0.50079389  0.24986310  1
  Mn  Mn3  1  0.99985684  0.50019547  0.74994988  1
  Mn  Mn4  1  0.50106138  0.99920611  0.25013690  1
  Mn  Mn5  1  0.50014316  0.99980453  0.75005012  1
  Mn  Mn6  1  0.50181678  0.50176384  0.25086595  1
  Mn  Mn7  1  0.49990394  0.50078994  0.74820811  1
  Mn  Mn8  1  0.25021171  0.99915972  0.99827424  1
  Mn  Mn9  1  0.25082745  0.99856448  0.50137930  1
  Mn  Mn10  1  0.24917255  0.50143552  0.99862070  1
  Mn  Mn11  1  0.24978829  0.50084028  0.50172576  1
  Mn  Mn12  1  0.75000862  0.99966354  0.99967933  1
  Mn  Mn13  1  0.74837015  0.99906330  0.49962344  1
  Mn  Mn14  1  0.75162985  0.50093670  0.00037656  1
  Mn  Mn15  1  0.74999138  0.50033646  0.50032067  1
  Mn  Mn16  1  0.24953773  0.24939916  0.99694939  1
  Mn  Mn17  1  0.25046227  0.25060084  0.50305061  1
  Mn  Mn18  1  0.24990390  0.75008689  0.99986940  1
  Mn  Mn19  1  0.25009610  0.74991311  0.50013060  1
  Mn  Mn20  1  0.75154385  0.24931632  0.00018075  1
  Mn  Mn21  1  0.74845615  0.25068368  0.49981925  1
  Mn  Mn22  1  0.75010882  0.75016172  0.99986454  1
  Mn  Mn23  1  0.74989118  0.74983828  0.50013546  1
  Mn  Mn24  1  0.99742386  0.25119322  0.24918968  1
  Mn  Mn25  1  0.99992544  0.25070485  0.75168076  1
  Mn  Mn26  1  0.99977648  0.74976562  0.24984095  1
  Mn  Mn27  1  -0.00002205  0.74990676  0.75002314  1
  Mn  Mn28  1  0.50257614  0.24880678  0.25081032  1
  Mn  Mn29  1  0.50007456  0.24929515  0.74831924  1
  Mn  Mn30  1  0.50022352  0.75023438  0.25015905  1
  Mn  Mn31  1  0.50002205  0.75009324  0.74997686  1
  O  O0  1  0.10199300  0.26742635  0.10179215  1
  O  O1  1  0.10495352  0.27171620  0.60630214  1
  O  O2  1  0.10394541  0.77045380  0.10294313  1
  O  O3  1  0.10389618  0.77030491  0.60303626  1
  O  O4  1  0.61026898  0.26616531  0.10813329  1
  O  O5  1  0.60443996  0.26967787  0.60240989  1
  O  O6  1  0.60396033  0.77038699  0.10298566  1
  O  O7  1  0.60389307  0.77037972  0.60306728  1
  O  O8  1  0.39800700  0.23257265  0.39820885  1
  O  O9  1  0.39504648  0.22828280  0.89369886  1
  O  O10  1  0.39605359  0.72954520  0.39705687  1
  O  O11  1  0.39610282  0.72969409  0.89696474  1
  O  O12  1  0.88973102  0.23383369  0.39186571  1
  O  O13  1  0.89556004  0.23032113  0.89759111  1
  O  O14  1  0.89603967  0.72961201  0.39701534  1
  O  O15  1  0.89610693  0.72961928  0.89693372  1
  O  O16  1  0.14121246  0.23512663  0.35843574  1
  O  O17  1  0.14589638  0.23015206  0.85192117  1
  O  O18  1  0.14607561  0.72973140  0.35305683  1
  O  O19  1  0.14602508  0.72963953  0.85293878  1
  O  O20  1  0.64585853  0.22953189  0.35443542  1
  O  O21  1  0.64520653  0.23026233  0.85380774  1
  O  O22  1  0.64615320  0.72954509  0.35304566  1
  O  O23  1  0.64604616  0.72955576  0.85297901  1
  O  O24  1  0.35878754  0.26487237  0.14156426  1
  O  O25  1  0.35410362  0.26984694  0.64807983  1
  O  O26  1  0.35392339  0.77026760  0.14694317  1
  O  O27  1  0.35397392  0.77035947  0.64706222  1
  O  O28  1  0.85414147  0.27046711  0.14556458  1
  O  O29  1  0.85479347  0.26973667  0.64619226  1
  O  O30  1  0.85384680  0.77045391  0.14695434  1
  O  O31  1  0.85395384  0.77044324  0.64702199  1
  O  O32  1  0.35706637  0.48679401  0.14341174  1
  O  O33  1  0.35385669  0.48069908  0.64741843  1
  O  O34  1  0.35564727  0.97810802  0.14516076  1
  O  O35  1  0.35422922  0.97910777  0.64769718  1
  O  O36  1  0.85422669  0.47982033  0.14659491  1
  O  O37  1  0.85403148  0.47960960  0.64697698  1
  O  O38  1  0.85378343  0.97927579  0.14586301  1
  O  O39  1  0.85472669  0.98021562  0.64622926  1
  O  O40  1  0.14293363  0.01320499  0.35658826  1
  O  O41  1  0.14614331  0.01929992  0.85258257  1
  O  O42  1  0.14435173  0.52189098  0.35483924  1
  O  O43  1  0.14576978  0.52089123  0.85230382  1
  O  O44  1  0.64577331  0.02017867  0.35340509  1
  O  O45  1  0.64596852  0.02038940  0.85302202  1
  O  O46  1  0.64621557  0.52072321  0.35413699  1
  O  O47  1  0.64527231  0.51978338  0.85377174  1
  O  O48  1  0.39852718  0.01793851  0.39861483  1
  O  O49  1  0.39658104  0.01998121  0.89645561  1
  O  O50  1  0.39552239  0.51988304  0.39665300  1
  O  O51  1  0.39452165  0.52206455  0.89431561  1
  O  O52  1  0.89026376  0.01565019  0.39164691  1
  O  O53  1  0.89563958  0.01960157  0.89775187  1
  O  O54  1  0.89555380  0.52081955  0.39722577  1
  O  O55  1  0.89600725  0.52045657  0.89676032  1
  O  O56  1  0.10147282  0.48206049  0.10138617  1
  O  O57  1  0.10341896  0.48001779  0.60354539  1
  O  O58  1  0.10447661  0.98011596  0.10334800  1
  O  O59  1  0.10547735  0.97793445  0.60568539  1
  O  O60  1  0.60973524  0.48434881  0.10835309  1
  O  O61  1  0.60435942  0.48039743  0.60224813  1
  O  O62  1  0.60444620  0.97917945  0.10277523  1
  O  O63  1  0.60399275  0.97954243  0.60324068  1
  O  O64  1  0.00173299  0.37615793  0.28898855  1
  O  O65  1  0.00949954  0.37526821  0.78955429  1
  O  O66  1  0.00964378  0.87381571  0.28853364  1
  O  O67  1  0.00977320  0.87474196  0.78982737  1
  O  O68  1  0.50947718  0.37530712  0.28732995  1
  O  O69  1  0.51057774  0.37500866  0.77907483  1
  O  O70  1  0.51051677  0.87471678  0.28943439  1
  O  O71  1  0.51017224  0.87498626  0.78936065  1
  O  O72  1  0.49826601  0.12384207  0.21101245  1
  O  O73  1  0.49049946  0.12473179  0.71044571  1
  O  O74  1  0.49035622  0.62618429  0.21146736  1
  O  O75  1  0.49022680  0.62525804  0.71017363  1
  O  O76  1  0.99052182  0.12469288  0.21267105  1
  O  O77  1  0.98942126  0.12499134  0.72092517  1
  O  O78  1  0.98948223  0.62528322  0.21056661  1
  O  O79  1  0.98982676  0.62501374  0.71064035  1
  O  O80  1  0.23885988  0.12426056  0.02906106  1
  O  O81  1  0.24777057  0.12484503  0.53884227  1
  O  O82  1  0.23917574  0.62583335  0.03894686  1
  O  O83  1  0.24014199  0.62518116  0.53969534  1
  O  O84  1  0.74084804  0.12436307  0.03852661  1
  O  O85  1  0.74126566  0.12490473  0.53878964  1
  O  O86  1  0.74057942  0.62565051  0.03896507  1
  O  O87  1  0.73991753  0.62509657  0.53952034  1
  O  O88  1  0.26113912  0.37573944  0.47093894  1
  O  O89  1  0.25222843  0.37515497  0.96115773  1
  O  O90  1  0.26082426  0.87416665  0.46105414  1
  O  O91  1  0.25985801  0.87481884  0.96030566  1
  O  O92  1  0.75915096  0.37563693  0.46147339  1
  O  O93  1  0.75873334  0.37509527  0.96121036  1
  O  O94  1  0.75942058  0.87434949  0.46103493  1
  O  O95  1  0.76008247  0.87490343  0.96048066  1
loop_
_geom_bond_atom_site_label_1
_geom_bond_atom_site_label_2
_geom_bond_distance
_geom_bond_site_symmetry_2
Ca0 O53 2.349034 1_455
Ca0 O13 2.351311 1_455
Ca0 O76 2.362890 1_456
Ca0 O80 2.382962 1_556
Ca0 O17 2.590531 1_555
Ca0 O41 2.590643 1_555
Ca0 O0 2.602035 1_556
Ca0 O58 2.647423 1_546
Ca0 O77 2.954781 1_455
Ca0 O84 3.086027 1_456
Ca1 O79 2.335273 1_455
Ca1 O54 2.349901 1_455
Ca1 O14 2.350710 1_455
Ca1 O83 2.406999 1_555
Ca1 O42 2.544148 1_555
Ca1 O18 2.579572 1_555
Ca1 O57 2.641258 1_555
Ca1 O3 2.642682 1_555
Ca2 O78 2.332560 1_456
Ca2 O15 2.350818 1_455
Ca2 O55 2.353628 1_455
Ca2 O82 2.395889 1_556
Ca2 O43 2.579895 1_555
Ca2 O19 2.580926 1_555
Ca2 O56 2.597901 1_556
Ca2 O2 2.643335 1_556
Ca3 O73 2.326120 1_555
Ca3 O48 2.352735 1_555
Ca3 O8 2.366091 1_555
Ca3 O85 2.419461 1_555
Ca3 O20 2.574809 1_555
Ca3 O44 2.580434 1_555
Ca3 O5 2.635221 1_555
Ca3 O63 2.644035 1_545
Ca3 O81 3.014936 1_555
Ca4 O72 2.329456 1_556
Ca4 O49 2.355178 1_555
Ca4 O9 2.365991 1_555
Ca4 O84 2.406208 1_556
Ca4 O45 2.571437 1_555
Ca4 O21 2.573864 1_555
Ca4 O4 2.641900 1_556
Ca4 O62 2.646369 1_546
Ca5 O75 2.328529 1_555
Ca5 O10 2.350056 1_555
Ca5 O50 2.364108 1_555
Ca5 O87 2.403300 1_555
Ca5 O46 2.571041 1_555
Ca5 O22 2.578113 1_555
Ca5 O61 2.633794 1_555
Ca5 O7 2.642166 1_555
Ca6 O74 2.338596 1_556
Ca6 O11 2.350920 1_555
Ca6 O51 2.361828 1_555
Ca6 O86 2.409862 1_556
Ca6 O23 2.579314 1_555
Ca6 O47 2.580914 1_555
Ca6 O60 2.634572 1_556
Ca6 O6 2.639261 1_556
Ca7 O61 2.349019 1_555
Ca7 O5 2.351327 1_555
Ca7 O68 2.362890 1_555
Ca7 O88 2.382964 1_555
Ca7 O25 2.590534 1_555
Ca7 O33 2.590628 1_555
Ca7 O8 2.602044 1_555
Ca7 O50 2.647411 1_555
Ca7 O69 2.954770 1_555
Ca7 O92 3.086029 1_555
Ca8 O71 2.335262 1_554
Ca8 O62 2.349902 1_555
Ca8 O6 2.350732 1_555
Ca8 O91 2.406986 1_554
Ca8 O34 2.544138 1_555
Ca8 O26 2.579582 1_555
Ca8 O49 2.641237 1_564
Ca8 O11 2.642690 1_554
Ca9 O70 2.332550 1_555
Ca9 O7 2.350840 1_555
Ca9 O63 2.353629 1_555
Ca9 O90 2.395877 1_555
Ca9 O35 2.579892 1_555
Ca9 O27 2.580942 1_555
Ca9 O48 2.597880 1_565
Ca9 O10 2.643348 1_555
Ca10 O65 2.326108 1_654
Ca10 O56 2.352734 1_655
Ca10 O0 2.366111 1_655
Ca10 O93 2.419470 1_554
Ca10 O28 2.574824 1_555
Ca10 O36 2.580431 1_555
Ca10 O13 2.635225 1_554
Ca10 O55 2.644013 1_554
Ca10 O89 3.014923 1_654
Ca11 O64 2.329444 1_655
Ca11 O57 2.355173 1_655
Ca11 O1 2.366006 1_655
Ca11 O92 2.406218 1_555
Ca11 O37 2.571422 1_555
Ca11 O29 2.573873 1_555
Ca11 O12 2.641917 1_555
Ca11 O54 2.646352 1_555
Ca12 O67 2.328518 1_654
Ca12 O2 2.350060 1_655
Ca12 O58 2.364096 1_655
Ca12 O95 2.403298 1_554
Ca12 O38 2.571037 1_555
Ca12 O30 2.578122 1_555
Ca12 O53 2.633785 1_564
Ca12 O15 2.642174 1_554
Ca13 O66 2.338586 1_655
Ca13 O3 2.350928 1_655
Ca13 O59 2.361817 1_655
Ca13 O94 2.409862 1_555
Ca13 O31 2.579330 1_555
Ca13 O39 2.580917 1_555
Ca13 O52 2.634564 1_565
Ca13 O14 2.639269 1_555
Ca14 O89 2.341326 1_555
Ca14 O25 2.353993 1_555
Ca14 O33 2.356046 1_555
Ca14 O65 2.406992 1_555
Ca14 O1 2.532543 1_555
Ca14 O57 2.569800 1_555
Ca14 O17 2.640291 1_555
Ca14 O43 2.648258 1_555
Ca15 O90 2.338167 1_555
Ca15 O26 2.351017 1_555
Ca15 O34 2.363095 1_555
Ca15 O66 2.404240 1_555
Ca15 O2 2.575350 1_555
Ca15 O58 2.583028 1_555
Ca15 O40 2.586393 1_565
Ca15 O18 2.636507 1_555
Ca16 O91 2.330486 1_555
Ca16 O35 2.349084 1_555
Ca16 O27 2.350416 1_555
Ca16 O67 2.406351 1_555
Ca16 O59 2.539543 1_555
Ca16 O3 2.577079 1_555
Ca16 O41 2.630552 1_565
Ca16 O19 2.640466 1_555
Ca17 O92 2.325575 1_555
Ca17 O36 2.352635 1_555
Ca17 O28 2.353550 1_555
Ca17 O68 2.423200 1_555
Ca17 O4 2.570489 1_555
Ca17 O60 2.577286 1_555
Ca17 O20 2.654012 1_555
Ca17 O46 2.654119 1_555
Ca17 O64 2.992364 1_655
Ca18 O93 2.342347 1_555
Ca18 O37 2.347463 1_555
Ca18 O29 2.361689 1_555
Ca18 O69 2.385834 1_555
Ca18 O5 2.586723 1_555
Ca18 O61 2.589515 1_555
Ca18 O21 2.647230 1_555
Ca18 O47 2.647516 1_555
Ca19 O94 2.334254 1_555
Ca19 O30 2.350054 1_555
Ca19 O38 2.352084 1_555
Ca19 O70 2.402271 1_555
Ca19 O62 2.577131 1_555
Ca19 O6 2.583066 1_555
Ca19 O44 2.644065 1_565
Ca19 O22 2.645858 1_555
Ca20 O95 2.332401 1_555
Ca20 O31 2.350699 1_555
Ca20 O39 2.366261 1_555
Ca20 O71 2.403857 1_555
Ca20 O63 2.577351 1_555
Ca20 O7 2.580076 1_555
Ca20 O45 2.644656 1_565
Ca20 O23 2.646012 1_555
Ca21 O81 2.341316 1_555
Ca21 O17 2.353992 1_555
Ca21 O41 2.356065 1_555
Ca21 O73 2.406979 1_555
Ca21 O9 2.532546 1_555
Ca21 O49 2.569822 1_555
Ca21 O25 2.640269 1_555
Ca21 O35 2.648258 1_545
Ca22 O82 2.338144 1_555
Ca22 O18 2.351012 1_555
Ca22 O42 2.363110 1_555
Ca22 O74 2.404246 1_555
Ca22 O10 2.575347 1_555
Ca22 O50 2.583050 1_555
Ca22 O32 2.586404 1_555
Ca22 O26 2.636489 1_555
Ca23 O83 2.330484 1_555
Ca23 O43 2.349095 1_555
Ca23 O19 2.350406 1_555
Ca23 O75 2.406362 1_555
Ca23 O51 2.539552 1_555
Ca23 O11 2.577070 1_555
Ca23 O33 2.630568 1_555
Ca23 O27 2.640453 1_555
Ca24 O84 2.325577 1_555
Ca24 O44 2.352645 1_555
Ca24 O20 2.353539 1_555
Ca24 O76 2.423188 1_555
Ca24 O12 2.570473 1_555
Ca24 O52 2.577291 1_555
Ca24 O28 2.653999 1_555
Ca24 O38 2.654128 1_545
Ca24 O72 2.992373 1_555
Ca25 O85 2.342337 1_555
Ca25 O45 2.347473 1_555
Ca25 O21 2.361683 1_555
Ca25 O77 2.385822 1_555
Ca25 O13 2.586726 1_555
Ca25 O53 2.589525 1_555
Ca25 O29 2.647212 1_555
Ca25 O39 2.647516 1_545
Ca26 O86 2.334254 1_555
Ca26 O22 2.350044 1_555
Ca26 O46 2.352100 1_555
Ca26 O78 2.402258 1_555
Ca26 O54 2.577147 1_555
Ca26 O14 2.583063 1_555
Ca26 O36 2.644078 1_555
Ca26 O30 2.645845 1_555
Ca27 O87 2.332401 1_555
Ca27 O23 2.350689 1_555
Ca27 O47 2.366277 1_555
Ca27 O79 2.403846 1_555
Ca27 O55 2.577360 1_555
Ca27 O15 2.580066 1_555
Ca27 O37 2.644678 1_555
Ca27 O31 2.645999 1_555
Mn0 O38 1.940017 1_555
Mn0 O66 1.942243 1_655
Mn0 O52 1.943141 1_565
Mn0 O40 1.961018 1_665
Mn0 O58 1.961896 1_655
Mn0 O76 1.963731 1_565
Mn1 O67 1.938678 1_555
Mn1 O41 1.942173 1_565
Mn1 O77 1.944221 1_465
Mn1 O53 1.956903 1_465
Mn1 O39 1.962661 1_455
Mn1 O59 1.966149 1_555
Mn2 O64 1.941070 1_655
Mn2 O78 1.941756 1_555
Mn2 O36 1.947514 1_555
Mn2 O54 1.961407 1_555
Mn2 O56 1.962861 1_655
Mn2 O42 1.964391 1_655
Mn3 O79 1.946998 1_555
Mn3 O65 1.949070 1_655
Mn3 O43 1.951826 1_655
Mn3 O37 1.954527 1_555
Mn3 O57 1.954609 1_655
Mn3 O55 1.960096 1_555
Mn4 O72 1.941068 1_565
Mn4 O70 1.941757 1_555
Mn4 O44 1.947511 1_565
Mn4 O62 1.961401 1_555
Mn4 O48 1.962867 1_565
Mn4 O34 1.964403 1_555
Mn5 O71 1.947000 1_555
Mn5 O73 1.949071 1_565
Mn5 O35 1.951832 1_555
Mn5 O45 1.954518 1_565
Mn5 O49 1.954615 1_565
Mn5 O63 1.960090 1_555
Mn6 O46 1.940006 1_555
Mn6 O74 1.942240 1_555
Mn6 O60 1.943137 1_555
Mn6 O32 1.961020 1_555
Mn6 O50 1.961908 1_555
Mn6 O68 1.963732 1_555
Mn7 O75 1.938676 1_555
Mn7 O33 1.942170 1_555
Mn7 O69 1.944220 1_555
Mn7 O61 1.956899 1_555
Mn7 O47 1.962656 1_555
Mn7 O51 1.966161 1_555
Mn8 O80 1.934240 1_566
Mn8 O91 1.936482 1_555
Mn8 O41 1.951487 1_565
Mn8 O49 1.953164 1_565
Mn8 O58 1.963173 1_556
Mn8 O34 1.972532 1_556
Mn9 O90 1.942997 1_555
Mn9 O35 1.951097 1_555
Mn9 O40 1.956901 1_565
Mn9 O59 1.958812 1_555
Mn9 O81 1.961663 1_565
Mn9 O48 1.967154 1_565
Mn10 O82 1.942999 1_556
Mn10 O43 1.951092 1_555
Mn10 O32 1.956902 1_556
Mn10 O51 1.958794 1_555
Mn10 O89 1.961663 1_555
Mn10 O56 1.967163 1_556
Mn11 O88 1.934239 1_555
Mn11 O83 1.936484 1_555
Mn11 O33 1.951498 1_555
Mn11 O57 1.953173 1_555
Mn11 O50 1.963156 1_555
Mn11 O42 1.972536 1_555
Mn12 O84 1.943524 1_566
Mn12 O53 1.945168 1_565
Mn12 O95 1.945763 1_555
Mn12 O62 1.952940 1_556
Mn12 O38 1.954468 1_556
Mn12 O45 1.961018 1_565
Mn13 O52 1.942875 1_565
Mn13 O63 1.943447 1_555
Mn13 O94 1.944298 1_555
Mn13 O44 1.949224 1_565
Mn13 O85 1.960189 1_565
Mn13 O39 1.970798 1_555
Mn14 O60 1.942886 1_555
Mn14 O55 1.943438 1_554
Mn14 O86 1.944298 1_555
Mn14 O36 1.949226 1_555
Mn14 O93 1.960189 1_554
Mn14 O47 1.970793 1_554
Mn15 O92 1.943524 1_555
Mn15 O61 1.945179 1_555
Mn15 O87 1.945765 1_555
Mn15 O54 1.952931 1_555
Mn15 O46 1.954472 1_555
Mn15 O37 1.961011 1_555
Mn16 O80 1.936981 1_556
Mn16 O17 1.940987 1_555
Mn16 O89 1.950336 1_555
Mn16 O9 1.954823 1_555
Mn16 O24 1.965698 1_556
Mn16 O0 1.975288 1_556
Mn17 O88 1.936980 1_555
Mn17 O25 1.940993 1_555
Mn17 O81 1.950336 1_555
Mn17 O1 1.954826 1_555
Mn17 O16 1.965700 1_555
Mn17 O8 1.975284 1_555
Mn18 O82 1.938568 1_556
Mn18 O91 1.946301 1_555
Mn18 O2 1.955862 1_556
Mn18 O11 1.957015 1_555
Mn18 O19 1.961650 1_555
Mn18 O26 1.963122 1_556
Mn19 O90 1.938566 1_555
Mn19 O83 1.946304 1_555
Mn19 O10 1.955856 1_555
Mn19 O3 1.957028 1_555
Mn19 O27 1.961650 1_555
Mn19 O18 1.963131 1_555
Mn20 O13 1.932660 1_554
Mn20 O4 1.937813 1_555
Mn20 O28 1.942093 1_555
Mn20 O84 1.947243 1_555
Mn20 O93 1.959020 1_554
Mn20 O21 1.969113 1_554
Mn21 O5 1.932664 1_555
Mn21 O12 1.937821 1_555
Mn21 O20 1.942096 1_555
Mn21 O92 1.947242 1_555
Mn21 O85 1.959020 1_555
Mn21 O29 1.969111 1_555
Mn22 O86 1.941701 1_556
Mn22 O95 1.946038 1_555
Mn22 O15 1.955769 1_555
Mn22 O6 1.957480 1_556
Mn22 O30 1.961771 1_556
Mn22 O23 1.962793 1_555
Mn23 O94 1.941701 1_555
Mn23 O87 1.946041 1_555
Mn23 O7 1.955773 1_555
Mn23 O14 1.957476 1_555
Mn23 O22 1.961774 1_555
Mn23 O31 1.962799 1_555
Mn24 O28 1.933124 1_555
Mn24 O12 1.943047 1_555
Mn24 O64 1.947707 1_655
Mn24 O0 1.961126 1_655
Mn24 O76 1.964053 1_555
Mn24 O16 1.966060 1_655
Mn25 O17 1.939329 1_655
Mn25 O65 1.939555 1_655
Mn25 O77 1.942813 1_555
Mn25 O13 1.956029 1_555
Mn25 O1 1.957192 1_655
Mn25 O29 1.960207 1_555
Mn26 O66 1.933974 1_655
Mn26 O78 1.941987 1_555
Mn26 O30 1.955158 1_555
Mn26 O18 1.958825 1_655
Mn26 O14 1.962414 1_555
Mn26 O2 1.964015 1_655
Mn27 O67 1.948146 1_555
Mn27 O79 1.948234 1_455
Mn27 O19 1.955347 1_555
Mn27 O31 1.956311 1_455
Mn27 O15 1.961297 1_455
Mn27 O3 1.962514 1_555
Mn28 O20 1.933126 1_555
Mn28 O4 1.943053 1_555
Mn28 O72 1.947705 1_555
Mn28 O8 1.961137 1_555
Mn28 O68 1.964055 1_555
Mn28 O24 1.966058 1_555
Mn29 O25 1.939320 1_555
Mn29 O73 1.939556 1_555
Mn29 O69 1.942812 1_555
Mn29 O5 1.956018 1_555
Mn29 O9 1.957203 1_555
Mn29 O21 1.960209 1_555
Mn30 O74 1.933972 1_555
Mn30 O70 1.941989 1_555
Mn30 O22 1.955161 1_555
Mn30 O26 1.958832 1_555
Mn30 O6 1.962403 1_555
Mn30 O10 1.964024 1_555
Mn31 O75 1.948144 1_555
Mn31 O71 1.948236 1_555
Mn31 O27 1.955347 1_555
Mn31 O23 1.956319 1_555
Mn31 O7 1.961286 1_555
Mn31 O11 1.962531 1_555
O0 Sr2 2.664450 1_555
O1 Sr0 2.696813 1_555
O4 Sr1 2.433068 1_555
O8 Sr3 2.664453 1_555
O9 Sr1 2.696817 1_556
O12 Sr0 2.433056 1_655
O16 Sr3 2.447393 1_555
O16 Sr0 2.618983 1_555
O16 Sr2 2.639805 1_555
O24 Sr2 2.447399 1_555
O24 Sr1 2.618987 1_555
O24 Sr3 2.639788 1_555
O32 Sr2 2.434501 1_555
O32 Sr1 2.651827 1_555
O34 Sr3 2.683537 1_565
O40 Sr3 2.434516 1_555
O40 Sr0 2.651843 1_555
O42 Sr2 2.683533 1_555
O48 Sr3 2.655139 1_555
O51 Sr1 2.695706 1_556
O52 Sr0 2.432315 1_655
O56 Sr2 2.655118 1_555
O59 Sr0 2.695724 1_565
O60 Sr1 2.432304 1_555
O64 Sr2 2.539649 1_555
O68 Sr2 3.042562 1_555
O69 Sr1 2.415651 1_556
O72 Sr3 2.539635 1_555
O76 Sr3 3.042569 1_655
O77 Sr0 2.415651 1_655
O80 Sr3 2.426373 1_555
O81 Sr0 2.547588 1_555
O85 Sr0 3.020667 1_655
O88 Sr2 2.426382 1_555
O89 Sr1 2.547588 1_556
O93 Sr1 3.020667 1_556
