# generated using pymatgen
data_NaLiMgPO4F
_symmetry_space_group_name_H-M   'P 1'
_cell_length_a   11.34673700
_cell_length_b   5.08225800
_cell_length_c   6.89634046
_cell_angle_alpha   89.97914656
_cell_angle_beta   90.00000000
_cell_angle_gamma   90.00000000
_symmetry_Int_Tables_number   1
_chemical_formula_structural   NaLiMgPO4F
_chemical_formula_sum   'Na4 Li4 Mg4 P4 O16 F4'
_cell_volume   397.69154837
_cell_formula_units_Z   4
loop_
 _symmetry_equiv_pos_site_id
 _symmetry_equiv_pos_as_xyz
  1  'x, y, z'
loop_
 _atom_site_type_symbol
 _atom_site_label
 _atom_site_symmetry_multiplicity
 _atom_site_fract_x
 _atom_site_fract_y
 _atom_site_fract_z
 _atom_site_occupancy
  Na  Na0  1  0.66541300  0.75309100  0.51139900  1
  Na  Na1  1  0.16541300  0.74690900  0.48860100  1
  Na  Na2  1  0.33458700  0.24690900  0.48860100  1
  Na  Na3  1  0.83458700  0.25309100  0.51139900  1
  Li  Li0  1  0.58018400  0.26322200  0.74025700  1
  Li  Li1  1  0.08018400  0.23677800  0.25974300  1
  Li  Li2  1  0.41981600  0.73677800  0.25974300  1
  Li  Li3  1  0.91981600  0.76322200  0.74025700  1
  Mg  Mg0  1  0.32897000  0.26346300  0.01839800  1
  Mg  Mg1  1  0.82897000  0.23653700  0.98160200  1
  Mg  Mg2  1  0.67103000  0.73653700  0.98160200  1
  Mg  Mg3  1  0.17103000  0.76346300  0.01839800  1
  P  P0  1  0.41818900  0.77126800  0.75430400  1
  P  P1  1  0.91818900  0.72873200  0.24569600  1
  P  P2  1  0.58181100  0.22873200  0.24569600  1
  P  P3  1  0.08181100  0.27126800  0.75430400  1
  O  O0  1  0.37619400  0.74012700  0.54217100  1
  O  O1  1  0.87619400  0.75987300  0.45782900  1
  O  O2  1  0.62380600  0.25987300  0.45782900  1
  O  O3  1  0.12380600  0.24012700  0.54217100  1
  O  O4  1  0.32830500  0.63129500  0.89088200  1
  O  O5  1  0.82830500  0.86870500  0.10911800  1
  O  O6  1  0.67169500  0.36870500  0.10911800  1
  O  O7  1  0.17169500  0.13129500  0.89088200  1
  O  O8  1  0.42612400  0.07109600  0.80523300  1
  O  O9  1  0.92612400  0.42890400  0.19476700  1
  O  O10  1  0.57387600  0.92890400  0.19476700  1
  O  O11  1  0.07387600  0.57109600  0.80523300  1
  O  O12  1  0.54112300  0.64239400  0.78283400  1
  O  O13  1  0.04112300  0.85760600  0.21716600  1
  O  O14  1  0.45887700  0.35760600  0.21716600  1
  O  O15  1  0.95887700  0.14239400  0.78283400  1
  F  F0  1  0.21279100  0.46442200  0.19926400  1
  F  F1  1  0.71279100  0.03557800  0.80073600  1
  F  F2  1  0.78720900  0.53557800  0.80073600  1
  F  F3  1  0.28720900  0.96442200  0.19926400  1
loop_
_geom_bond_atom_site_label_1
_geom_bond_atom_site_label_2
_geom_bond_distance
_geom_bond_site_symmetry_2
Na0 O12 2.410122 1_555
Na0 O1 2.420285 1_555
Na0 O2 2.577477 1_555
Na0 O10 2.577571 1_555
Na0 O2 2.644309 1_565
Na1 O13 2.410122 1_555
Na1 O0 2.420285 1_555
Na1 O3 2.577477 1_565
Na1 O11 2.577571 1_555
Na1 O3 2.644309 1_555
Na2 O14 2.410122 1_555
Na2 O3 2.420285 1_555
Na2 O0 2.577477 1_555
Na2 O8 2.577571 1_555
Na2 O0 2.644309 1_545
Na3 O15 2.410122 1_555
Na3 O2 2.420285 1_555
Na3 O1 2.577477 1_545
Na3 O9 2.577571 1_555
Na3 O1 2.644309 1_555
Li0 O12 1.999147 1_555
Li0 O2 2.009706 1_555
Li0 O8 2.051749 1_555
Li1 O13 1.999147 1_545
Li1 O3 2.009706 1_555
Li1 O9 2.051749 1_455
Li2 O14 1.999147 1_555
Li2 O0 2.009706 1_555
Li2 O10 2.051749 1_555
Li3 O15 1.999147 1_565
Li3 O1 2.009706 1_555
Li3 O11 2.051749 1_655
Mg0 O4 2.065651 1_554
Mg0 O14 2.069095 1_555
Mg0 O8 2.081629 1_554
Mg0 O7 2.099907 1_554
Mg1 O5 2.065651 1_546
Mg1 O15 2.069095 1_555
Mg1 O9 2.081629 1_556
Mg1 O6 2.099907 1_556
Mg2 O6 2.065651 1_556
Mg2 O12 2.069095 1_555
Mg2 O10 2.081629 1_556
Mg2 O5 2.099907 1_556
Mg3 O7 2.065651 1_564
Mg3 O13 2.069095 1_555
Mg3 O11 2.081629 1_554
Mg3 O4 2.099907 1_554
O0 P0 1.546762 1_555
O1 P1 1.546762 1_555
O2 P2 1.546762 1_555
O3 P3 1.546762 1_555
O4 P0 1.559776 1_555
O5 P1 1.559776 1_555
O6 P2 1.559776 1_555
O7 P3 1.559776 1_555
O8 P0 1.566471 1_545
O9 P1 1.566471 1_555
O10 P2 1.566471 1_565
O11 P3 1.566471 1_555
O12 P0 1.553496 1_555
O13 P1 1.553496 1_455
O14 P2 1.553496 1_555
O15 P3 1.553496 1_655
F0 Li1 1.943225 1_555
F0 Mg3 2.022065 1_555
F0 Mg0 2.082694 1_555
F0 Na1 2.516689 1_555
F0 Na2 2.666797 1_555
F1 Li0 1.943225 1_555
F1 Mg2 2.022065 1_545
F1 Mg1 2.082694 1_555
F1 Na0 2.516689 1_545
F1 Na3 2.666797 1_555
F2 Li3 1.943225 1_555
F2 Mg1 2.022065 1_555
F2 Mg2 2.082694 1_555
F2 Na3 2.516689 1_555
F2 Na0 2.666797 1_555
F3 Li2 1.943225 1_555
F3 Mg0 2.022065 1_565
F3 Mg3 2.082694 1_555
F3 Na2 2.516689 1_565
F3 Na1 2.666797 1_555
