# generated using pymatgen
data_B10Pb3O20
_symmetry_space_group_name_H-M   'P 1'
_cell_length_a   9.82610461
_cell_length_b   9.82610461
_cell_length_c   8.59931442
_cell_angle_alpha   89.43964135
_cell_angle_beta   89.43964135
_cell_angle_gamma   120.42292744
_symmetry_Int_Tables_number   1
_chemical_formula_structural   B10Pb3O20
_chemical_formula_sum   'B20 Pb6 O40'
_cell_volume   715.82424933
_cell_formula_units_Z   2
loop_
 _symmetry_equiv_pos_site_id
 _symmetry_equiv_pos_as_xyz
  1  'x, y, z'
loop_
 _atom_site_type_symbol
 _atom_site_label
 _atom_site_symmetry_multiplicity
 _atom_site_fract_x
 _atom_site_fract_y
 _atom_site_fract_z
 _atom_site_occupancy
  B  B0  1  0.50008100  0.30950500  0.33071700  1
  B  B1  1  0.69242900  0.19384700  0.34340400  1
  B  B2  1  0.80845400  0.49827000  0.32335100  1
  B  B3  1  0.30950500  0.50008100  0.83071700  1
  B  B4  1  0.19384700  0.69242900  0.84340400  1
  B  B5  1  0.49827000  0.80845400  0.82335100  1
  B  B6  1  0.63152500  0.60104200  0.28443700  1
  B  B7  1  0.39722100  0.02785000  0.30293200  1
  B  B8  1  0.96957100  0.37017500  0.29514100  1
  B  B9  1  0.60104200  0.63152500  0.78443700  1
  B  B10  1  0.02785000  0.39722100  0.80293200  1
  B  B11  1  0.37017500  0.96957100  0.79514100  1
  B  B12  1  0.39776600  0.13878100  0.56563800  1
  B  B13  1  0.86333600  0.27475700  0.56985000  1
  B  B14  1  0.73768100  0.60195700  0.55274400  1
  B  B15  1  0.13878100  0.39776600  0.06563800  1
  B  B16  1  0.27475700  0.86333600  0.06985000  1
  B  B17  1  0.60195700  0.73768100  0.05274400  1
  B  B18  1  0.98529500  0.00212300  0.48362100  1
  B  B19  1  0.00212300  0.98529500  0.98362100  1
  Pb  Pb0  1  0.13180000  0.73670500  0.48602100  1
  Pb  Pb1  1  0.25262700  0.39817700  0.47886700  1
  Pb  Pb2  1  0.60070200  0.85146000  0.47095100  1
  Pb  Pb3  1  0.73670500  0.13180000  0.98602100  1
  Pb  Pb4  1  0.39817700  0.25262700  0.97886700  1
  Pb  Pb5  1  0.85146000  0.60070200  0.97095100  1
  O  O0  1  0.45499600  0.28690700  0.49923600  1
  O  O1  1  0.71460700  0.18820300  0.51124700  1
  O  O2  1  0.82444000  0.54091500  0.49128700  1
  O  O3  1  0.28690700  0.45499600  0.99923600  1
  O  O4  1  0.18820300  0.71460700  0.01124700  1
  O  O5  1  0.54091500  0.82444000  0.99128700  1
  O  O6  1  0.39965200  0.16945900  0.24156700  1
  O  O7  1  0.82942200  0.22470600  0.25135700  1
  O  O8  1  0.77509600  0.60334700  0.23107400  1
  O  O9  1  0.16945900  0.39965200  0.74156700  1
  O  O10  1  0.22470600  0.82942200  0.75135700  1
  O  O11  1  0.60334700  0.77509600  0.73107400  1
  O  O12  1  0.64781300  0.63898300  0.45500100  1
  O  O13  1  0.35518300  0.01018500  0.47148800  1
  O  O14  1  0.99302100  0.36521400  0.46911500  1
  O  O15  1  0.63898300  0.64781300  0.95500100  1
  O  O16  1  0.01018500  0.35518300  0.97148800  1
  O  O17  1  0.36521400  0.99302100  0.96911500  1
  O  O18  1  0.38986700  0.11620400  0.72506100  1
  O  O19  1  0.88536000  0.28145700  0.72762500  1
  O  O20  1  0.72475700  0.61233100  0.71122900  1
  O  O21  1  0.11620400  0.38986700  0.22506100  1
  O  O22  1  0.28145700  0.88536000  0.22762500  1
  O  O23  1  0.61233100  0.72475700  0.21122900  1
  O  O24  1  0.49164600  0.44232100  0.26737900  1
  O  O25  1  0.55798400  0.04541500  0.29128500  1
  O  O26  1  0.94853500  0.50585300  0.26179900  1
  O  O27  1  0.44232100  0.49164600  0.76737900  1
  O  O28  1  0.04541500  0.55798400  0.79128500  1
  O  O29  1  0.50585300  0.94853500  0.76179900  1
  O  O30  1  0.66505300  0.33316900  0.31370900  1
  O  O31  1  0.33316900  0.66505300  0.81370900  1
  O  O32  1  0.66469600  0.34935200  0.96315500  1
  O  O33  1  0.34935200  0.66469600  0.46315500  1
  O  O34  1  0.13469900  0.13745700  0.49074800  1
  O  O35  1  0.85388700  0.01942100  0.47874300  1
  O  O36  1  0.98232000  0.86313400  0.48922000  1
  O  O37  1  0.13745700  0.13469900  0.99074800  1
  O  O38  1  0.01942100  0.85388700  0.97874300  1
  O  O39  1  0.86313400  0.98232000  0.98922000  1
loop_
_geom_bond_atom_site_label_1
_geom_bond_atom_site_label_2
_geom_bond_distance
_geom_bond_site_symmetry_2
B0 O24 1.450258 1_555
B0 O6 1.454423 1_555
B0 O0 1.492353 1_555
B0 O30 1.521894 1_555
B1 O7 1.446227 1_555
B1 O25 1.465039 1_555
B1 O1 1.466495 1_555
B1 O30 1.542456 1_555
B2 O26 1.435772 1_555
B2 O8 1.461155 1_555
B2 O2 1.495125 1_555
B2 O30 1.521194 1_555
B3 O27 1.450258 1_555
B3 O9 1.454423 1_555
B3 O3 1.492353 1_555
B3 O31 1.521894 1_555
B4 O10 1.446227 1_555
B4 O28 1.465039 1_555
B4 O4 1.466495 1_556
B4 O31 1.542456 1_555
B5 O29 1.435772 1_555
B5 O11 1.461155 1_555
B5 O5 1.495125 1_555
B5 O31 1.521194 1_555
B6 O23 1.459182 1_555
B6 O8 1.468353 1_555
B6 O24 1.476650 1_555
B6 O12 1.506907 1_555
B7 O22 1.446656 1_545
B7 O6 1.472052 1_555
B7 O13 1.487434 1_555
B7 O25 1.501877 1_555
B8 O7 1.452066 1_555
B8 O21 1.474786 1_655
B8 O26 1.474818 1_555
B8 O14 1.519983 1_555
B9 O20 1.459182 1_555
B9 O11 1.468353 1_555
B9 O27 1.476650 1_555
B9 O15 1.506907 1_555
B10 O19 1.446656 1_455
B10 O9 1.472052 1_555
B10 O16 1.487434 1_555
B10 O28 1.501877 1_555
B11 O10 1.452066 1_555
B11 O18 1.474786 1_565
B11 O29 1.474818 1_555
B11 O17 1.519983 1_555
B12 O18 1.381744 1_555
B12 O0 1.381773 1_555
B12 O13 1.385071 1_555
B13 O1 1.370060 1_555
B13 O19 1.372960 1_555
B13 O14 1.407308 1_555
B14 O2 1.371523 1_555
B14 O20 1.377082 1_555
B14 O12 1.397331 1_555
B15 O21 1.381744 1_555
B15 O3 1.381773 1_554
B15 O16 1.385071 1_554
B16 O4 1.370060 1_555
B16 O22 1.372960 1_555
B16 O17 1.407308 1_554
B17 O5 1.371523 1_554
B17 O23 1.377082 1_555
B17 O15 1.397331 1_554
B18 O36 1.351524 1_545
B18 O35 1.386043 1_555
B18 O34 1.397695 1_655
B19 O39 1.351524 1_455
B19 O38 1.386043 1_555
B19 O37 1.397695 1_565
O0 Pb1 2.717564 1_555
O2 Pb0 2.633580 1_655
O3 Pb4 2.717564 1_555
O5 Pb3 2.633580 1_565
O6 Pb4 2.397466 1_554
O7 Pb3 2.471575 1_554
O8 Pb5 2.356990 1_554
O9 Pb1 2.397466 1_555
O10 Pb0 2.471575 1_555
O11 Pb2 2.356990 1_555
O12 Pb2 2.361203 1_555
O13 Pb0 2.463576 1_545
O14 Pb1 2.405629 1_655
O14 Pb0 3.190366 1_655
O15 Pb5 2.361203 1_555
O16 Pb3 2.463576 1_455
O17 Pb4 2.405629 1_565
O17 Pb3 3.190366 1_565
O18 Pb4 2.552850 1_555
O19 Pb3 2.632628 1_555
O20 Pb5 2.597068 1_555
O21 Pb1 2.552850 1_555
O22 Pb0 2.632628 1_555
O23 Pb2 2.597068 1_555
O24 Pb1 2.807306 1_555
O24 Pb4 2.979009 1_554
O25 Pb2 2.638306 1_545
O25 Pb3 3.008659 1_554
O26 Pb0 2.850023 1_655
O26 Pb5 2.989208 1_554
O27 Pb4 2.807306 1_555
O27 Pb1 2.979009 1_555
O28 Pb5 2.638306 1_455
O28 Pb0 3.008659 1_555
O29 Pb3 2.850023 1_565
O29 Pb2 2.989208 1_555
O30 O32 3.017292 1_554
O31 O33 3.017292 1_555
O32 Pb5 2.210778 1_555
O32 Pb4 2.291222 1_555
O32 Pb3 2.575924 1_555
O33 Pb2 2.210778 1_555
O33 Pb1 2.291222 1_555
O33 Pb0 2.575924 1_555
O34 Pb1 2.214138 1_555
O35 Pb2 2.182822 1_545
O36 Pb0 2.355702 1_655
O37 Pb4 2.214138 1_555
O38 Pb5 2.182822 1_455
O39 Pb3 2.355702 1_565
