# generated using pymatgen
data_TaTlV2O8
_symmetry_space_group_name_H-M   'P 1'
_cell_length_a   5.67936700
_cell_length_b   9.12558800
_cell_length_c   15.13544600
_cell_angle_alpha   90.00000000
_cell_angle_beta   90.00000000
_cell_angle_gamma   90.00000000
_symmetry_Int_Tables_number   1
_chemical_formula_structural   TaTlV2O8
_chemical_formula_sum   'Ta4 Tl4 V8 O32'
_cell_volume   784.43328629
_cell_formula_units_Z   4
loop_
 _symmetry_equiv_pos_site_id
 _symmetry_equiv_pos_as_xyz
  1  'x, y, z'
loop_
 _atom_site_type_symbol
 _atom_site_label
 _atom_site_symmetry_multiplicity
 _atom_site_fract_x
 _atom_site_fract_y
 _atom_site_fract_z
 _atom_site_occupancy
  Ta  Ta0  1  0.25000000  0.99469500  0.65861900  1
  Ta  Ta1  1  0.25000000  0.50530500  0.15861900  1
  Ta  Ta2  1  0.75000000  0.00530500  0.34138100  1
  Ta  Ta3  1  0.75000000  0.49469500  0.84138100  1
  Tl  Tl0  1  0.25000000  0.44007300  0.60539500  1
  Tl  Tl1  1  0.25000000  0.05992700  0.10539500  1
  Tl  Tl2  1  0.75000000  0.55992700  0.39460500  1
  Tl  Tl3  1  0.75000000  0.94007300  0.89460500  1
  V  V0  1  0.25000000  0.24403300  0.84014600  1
  V  V1  1  0.25000000  0.25596700  0.34014600  1
  V  V2  1  0.75000000  0.75596700  0.15985400  1
  V  V3  1  0.75000000  0.74403300  0.65985400  1
  V  V4  1  0.25000000  0.81647300  0.43776800  1
  V  V5  1  0.25000000  0.68352700  0.93776800  1
  V  V6  1  0.75000000  0.18352700  0.56223200  1
  V  V7  1  0.75000000  0.31647300  0.06223200  1
  O  O0  1  0.99762000  0.34862200  0.81154700  1
  O  O1  1  0.50238000  0.15137800  0.31154700  1
  O  O2  1  0.49762000  0.65137800  0.18845300  1
  O  O3  1  0.00238000  0.84862200  0.68845300  1
  O  O4  1  0.00238000  0.65137800  0.18845300  1
  O  O5  1  0.49762000  0.84862200  0.68845300  1
  O  O6  1  0.50238000  0.34862200  0.81154700  1
  O  O7  1  0.99762000  0.15137800  0.31154700  1
  O  O8  1  0.99542200  0.85815300  0.37423900  1
  O  O9  1  0.50457800  0.64184700  0.87423900  1
  O  O10  1  0.49542200  0.14184700  0.62576100  1
  O  O11  1  0.00457800  0.35815300  0.12576100  1
  O  O12  1  0.00457800  0.14184700  0.62576100  1
  O  O13  1  0.49542200  0.35815300  0.12576100  1
  O  O14  1  0.50457800  0.85815300  0.37423900  1
  O  O15  1  0.99542200  0.64184700  0.87423900  1
  O  O16  1  0.25000000  0.07476500  0.78066300  1
  O  O17  1  0.25000000  0.42523500  0.28066300  1
  O  O18  1  0.75000000  0.92523500  0.21933700  1
  O  O19  1  0.75000000  0.57476500  0.71933700  1
  O  O20  1  0.25000000  0.92210700  0.53494500  1
  O  O21  1  0.25000000  0.57789300  0.03494500  1
  O  O22  1  0.75000000  0.07789300  0.46505500  1
  O  O23  1  0.75000000  0.42210700  0.96505500  1
  O  O24  1  0.25000000  0.20998600  0.94738200  1
  O  O25  1  0.25000000  0.29001400  0.44738200  1
  O  O26  1  0.75000000  0.79001400  0.05261800  1
  O  O27  1  0.75000000  0.70998600  0.55261800  1
  O  O28  1  0.25000000  0.63734300  0.46015600  1
  O  O29  1  0.25000000  0.86265700  0.96015600  1
  O  O30  1  0.75000000  0.36265700  0.53984400  1
  O  O31  1  0.75000000  0.13734300  0.03984400  1
loop_
_geom_bond_atom_site_label_1
_geom_bond_atom_site_label_2
_geom_bond_distance
_geom_bond_site_symmetry_2
O0 V0 1.775622 1_655
O0 Ta3 1.989609 1_555
O0 Tl0 3.533645 1_655
O1 V1 1.775622 1_555
O1 Ta2 1.989609 1_555
O1 Tl1 3.533645 1_555
O2 V2 1.775622 1_555
O2 Ta1 1.989609 1_555
O2 Tl2 3.533645 1_555
O3 V3 1.775622 1_455
O3 Ta0 1.989609 1_555
O3 Tl3 3.533645 1_455
O4 V2 1.775622 1_455
O4 Ta1 1.989609 1_555
O4 Tl2 3.533645 1_455
O5 V3 1.775622 1_555
O5 Ta0 1.989609 1_555
O5 Tl3 3.533645 1_555
O6 V0 1.775622 1_555
O6 Ta3 1.989609 1_555
O6 Tl0 3.533645 1_555
O7 V1 1.775622 1_655
O7 Ta2 1.989609 1_555
O7 Tl1 3.533645 1_655
O8 V4 1.777551 1_655
O8 Ta2 1.998340 1_565
O8 Tl2 3.073159 1_555
O9 V5 1.777551 1_555
O9 Ta3 1.998340 1_555
O9 Tl3 3.073159 1_555
O10 V6 1.777551 1_555
O10 Ta0 1.998340 1_545
O10 Tl0 3.073159 1_555
O11 V7 1.777551 1_455
O11 Ta1 1.998340 1_555
O11 Tl1 3.073159 1_555
O12 V6 1.777551 1_455
O12 Ta0 1.998340 1_545
O12 Tl0 3.073159 1_555
O13 V7 1.777551 1_555
O13 Ta1 1.998340 1_555
O13 Tl1 3.073159 1_555
O14 V4 1.777551 1_555
O14 Ta2 1.998340 1_565
O14 Tl2 3.073159 1_555
O15 V5 1.777551 1_655
O15 Ta3 1.998340 1_555
O15 Tl3 3.073159 1_555
O16 V0 1.787889 1_555
O16 Ta0 1.986458 1_545
O16 Tl3 3.542416 1_445
O16 Tl3 3.542416 1_545
O17 V1 1.787889 1_555
O17 Ta1 1.986458 1_555
O17 Tl2 3.542416 1_555
O17 Tl2 3.542416 1_455
O18 V2 1.787889 1_555
O18 Ta2 1.986458 1_565
O18 Tl1 3.542416 1_565
O18 Tl1 3.542416 1_665
O19 V3 1.787889 1_555
O19 Ta3 1.986458 1_555
O19 Tl0 3.542416 1_555
O19 Tl0 3.542416 1_655
O20 V4 1.758564 1_555
O20 Ta0 1.985610 1_555
O21 V5 1.758564 1_554
O21 Ta1 1.985610 1_555
O22 V6 1.758564 1_555
O22 Ta2 1.985610 1_555
O23 V7 1.758564 1_556
O23 Ta3 1.985610 1_555
O24 V0 1.652535 1_555
O24 Tl1 2.755890 1_556
O25 V1 1.652535 1_555
O25 Tl0 2.755890 1_555
O26 V2 1.652535 1_555
O26 Tl3 2.755890 1_554
O27 V3 1.652535 1_555
O27 Tl2 2.755890 1_555
O28 V4 1.669418 1_555
O28 Tl0 2.841315 1_555
O28 Tl2 3.089862 1_555
O28 Tl2 3.089862 1_455
O29 V5 1.669418 1_555
O29 Tl1 2.841315 1_566
O29 Tl3 3.089862 1_455
O29 Tl3 3.089862 1_555
O30 V6 1.669418 1_555
O30 Tl2 2.841315 1_555
O30 Tl0 3.089862 1_655
O30 Tl0 3.089862 1_555
O31 V7 1.669418 1_555
O31 Tl3 2.841315 1_544
O31 Tl1 3.089862 1_555
O31 Tl1 3.089862 1_655
