# generated using pymatgen
data_Ca2WO5
_symmetry_space_group_name_H-M   'P 1'
_cell_length_a   9.06637438
_cell_length_b   9.06637438
_cell_length_c   9.06637438
_cell_angle_alpha   147.87806108
_cell_angle_beta   143.47881619
_cell_angle_gamma   49.41652029
_symmetry_Int_Tables_number   1
_chemical_formula_structural   Ca2WO5
_chemical_formula_sum   'Ca4 W2 O10'
_cell_volume   234.75911146
_cell_formula_units_Z   2
loop_
 _symmetry_equiv_pos_site_id
 _symmetry_equiv_pos_as_xyz
  1  'x, y, z'
loop_
 _atom_site_type_symbol
 _atom_site_label
 _atom_site_symmetry_multiplicity
 _atom_site_fract_x
 _atom_site_fract_y
 _atom_site_fract_z
 _atom_site_occupancy
  Ca  Ca0  1  0.79224600  0.41684400  0.52093500  1
  Ca  Ca1  1  0.60409100  0.22868900  0.52093500  1
  Ca  Ca2  1  0.10409100  0.58315600  0.37540100  1
  Ca  Ca3  1  0.29224600  0.77131100  0.37540100  1
  W  W0  1  0.49351900  0.50000000  0.99351900  1
  W  W1  1  0.99351900  0.00000000  0.99351900  1
  O  O0  1  0.46008100  0.52529500  0.48537600  1
  O  O1  1  0.96008100  0.47470500  0.93478600  1
  O  O2  1  0.44031900  0.24934700  0.89587200  1
  O  O3  1  0.64652400  0.75065300  0.19097200  1
  O  O4  1  0.94031900  0.04444800  0.19097200  1
  O  O5  1  0.14652400  0.95555200  0.89587200  1
  O  O6  1  0.78977700  0.27728200  0.98397300  1
  O  O7  1  0.70669100  0.72271800  0.51249400  1
  O  O8  1  0.20669100  0.69419600  0.98397300  1
  O  O9  1  0.28977700  0.30580400  0.51249400  1
loop_
_geom_bond_atom_site_label_1
_geom_bond_atom_site_label_2
_geom_bond_distance
_geom_bond_site_symmetry_2
Ca0 O1 2.279700 1_555
Ca0 O0 2.294291 1_555
Ca0 O4 2.366483 1_555
Ca0 O7 2.400682 1_555
Ca0 O8 2.669271 1_655
Ca0 O2 2.695734 1_554
Ca1 O1 2.279700 1_555
Ca1 O0 2.294291 1_555
Ca1 O3 2.366483 1_545
Ca1 O9 2.400669 1_555
Ca1 O6 2.669271 1_555
Ca1 O5 2.695740 1_544
Ca2 O0 2.279696 1_555
Ca2 O1 2.294283 1_454
Ca2 O5 2.366495 1_555
Ca2 O6 2.400679 1_454
Ca2 O9 2.669271 1_555
Ca2 O3 2.695742 1_455
Ca3 O0 2.279707 1_555
Ca3 O1 2.294294 1_454
Ca3 O2 2.366483 1_565
Ca3 O8 2.400666 1_554
Ca3 O7 2.669271 1_555
Ca3 O4 2.695736 1_465
O0 O1 2.852166 1_454
O0 O1 2.852166 1_555
O2 W0 1.874242 1_555
O2 O7 2.578834 1_556
O2 O6 2.715554 1_555
O3 W0 1.874235 1_554
O3 O6 2.578834 1_554
O3 O7 2.715539 1_555
O4 W1 1.874235 1_554
O4 O8 2.578834 1_644
O4 O9 2.715553 1_655
O5 W1 1.874227 1_465
O5 O9 2.578821 1_566
O5 O8 2.715540 1_555
O6 W1 1.951689 1_555
O6 W0 2.078508 1_555
O6 O7 2.732664 1_545
O7 W1 1.951689 1_565
O7 W0 2.078502 1_554
O8 W0 1.951689 1_555
O8 W1 2.078508 1_465
O8 O9 2.732672 1_555
O9 W0 1.951695 1_555
O9 W1 2.078507 1_454
