# generated using pymatgen
data_Sr9Zn2(CuO7)2
_symmetry_space_group_name_H-M   'P 1'
_cell_length_a   11.35284947
_cell_length_b   11.35284947
_cell_length_c   11.36405609
_cell_angle_alpha   81.52299702
_cell_angle_beta   81.52299702
_cell_angle_gamma   18.52862335
_symmetry_Int_Tables_number   1
_chemical_formula_structural   Sr9Zn2(CuO7)2
_chemical_formula_sum   'Sr9 Zn2 Cu2 O14'
_cell_volume   460.22304307
_cell_formula_units_Z   1
loop_
 _symmetry_equiv_pos_site_id
 _symmetry_equiv_pos_as_xyz
  1  'x, y, z'
loop_
 _atom_site_type_symbol
 _atom_site_label
 _atom_site_symmetry_multiplicity
 _atom_site_fract_x
 _atom_site_fract_y
 _atom_site_fract_z
 _atom_site_occupancy
  Sr  Sr0  1  0.69444200  0.69444200  0.42748000  1
  Sr  Sr1  1  0.67933700  0.67933700  0.08308100  1
  Sr  Sr2  1  0.68162600  0.68162600  0.78804500  1
  Sr  Sr3  1  0.30866700  0.30866700  0.21771100  1
  Sr  Sr4  1  0.51516000  0.51516000  0.17457900  1
  Sr  Sr5  1  0.49610800  0.49610800  0.50050100  1
  Sr  Sr6  1  0.30752000  0.30752000  0.58113500  1
  Sr  Sr7  1  0.48185600  0.48185600  0.80579100  1
  Sr  Sr8  1  0.32127400  0.32127400  0.87546500  1
  Zn  Zn0  1  0.89506800  0.89506800  0.04438700  1
  Zn  Zn1  1  0.11023300  0.11023300  0.29800300  1
  Cu  Cu0  1  0.10543300  0.10543300  0.62166700  1
  Cu  Cu1  1  0.89227900  0.89227900  0.37475700  1
  O  O0  1  0.20085000  0.20085000  0.27557900  1
  O  O1  1  0.80343200  0.80343200  0.07346100  1
  O  O2  1  0.97251900  0.97251900  0.35285800  1
  O  O3  1  0.08878800  0.08878800  0.13921800  1
  O  O4  1  0.81055200  0.81055200  0.40146700  1
  O  O5  1  0.59194000  0.59194000  0.36485700  1
  O  O6  1  0.20530400  0.20530400  0.92557000  1
  O  O7  1  0.79022900  0.79022900  0.72871000  1
  O  O8  1  0.41738300  0.41738300  0.10058900  1
  O  O9  1  0.18720400  0.18720400  0.59810600  1
  O  O10  1  0.02510300  0.02510300  0.64489200  1
  O  O11  1  0.57717800  0.57717800  0.91190900  1
  O  O12  1  0.91126600  0.91126600  0.87273900  1
  O  O13  1  0.40371000  0.40371000  0.65398800  1
loop_
_geom_bond_atom_site_label_1
_geom_bond_atom_site_label_2
_geom_bond_distance
_geom_bond_site_symmetry_2
Cu0 O10 1.779972 1_555
Cu0 O9 1.811904 1_555
Cu0 Sr2 3.285581 1_545
Cu0 Sr2 3.285581 1_455
Cu1 O2 1.778080 1_555
Cu1 O4 1.811168 1_555
O0 Zn1 2.008491 1_555
O0 Sr3 2.407385 1_555
O0 Sr0 2.503360 1_545
O0 Sr0 2.503360 1_455
O0 Sr1 2.945046 1_455
O0 Sr1 2.945046 1_545
O1 Zn0 2.030623 1_555
O1 Sr3 2.469581 1_655
O1 Sr3 2.469581 1_565
O1 Sr1 2.766695 1_555
O1 Sr8 2.879970 1_564
O1 Sr8 2.879970 1_654
O2 Sr5 2.588418 1_655
O2 Sr5 2.588418 1_565
O2 Sr4 2.789228 1_565
O2 Sr4 2.789228 1_655
O3 Zn1 1.935459 1_555
O3 Sr4 2.454842 1_455
O3 Sr4 2.454842 1_545
O3 Sr1 2.734631 1_545
O3 Sr1 2.734631 1_455
O4 Sr0 2.574465 1_555
O4 Sr6 2.733566 1_565
O4 Sr6 2.733566 1_655
O4 Sr3 2.780144 1_565
O4 Sr3 2.780144 1_655
O5 Zn1 1.998159 1_565
O5 Zn1 1.998159 1_655
O5 Sr5 2.449328 1_555
O5 Sr0 2.504210 1_555
O5 Sr4 2.957625 1_555
O6 Sr2 2.512404 1_545
O6 Sr2 2.512404 1_455
O6 Sr1 2.563567 1_546
O6 Sr1 2.563567 1_456
O6 Sr8 2.576065 1_555
O7 Sr2 2.426427 1_555
O7 Sr6 2.471630 1_565
O7 Sr6 2.471630 1_655
O7 Sr8 2.636732 1_565
O7 Sr8 2.636732 1_655
O8 Zn0 2.023320 1_455
O8 Zn0 2.023320 1_545
O8 Sr4 2.461386 1_555
O8 Sr3 2.595823 1_555
O9 Sr0 2.651891 1_545
O9 Sr0 2.651891 1_455
O9 Sr6 2.674227 1_555
O9 Sr2 2.816822 1_455
O9 Sr2 2.816822 1_545
O10 Sr5 2.602607 1_545
O10 Sr5 2.602607 1_455
O10 Sr7 2.663383 1_455
O10 Sr7 2.663383 1_545
O11 Sr2 2.544739 1_555
O11 Sr7 2.605148 1_555
O11 Sr4 3.098787 1_556
O11 O3 3.206487 1_656
O11 O3 3.206487 1_566
O11 Sr1 3.217944 1_556
O12 Zn0 1.930067 1_556
O12 Sr7 2.462135 1_565
O12 Sr7 2.462135 1_655
O12 Sr8 2.718404 1_655
O12 Sr8 2.718404 1_565
O12 O13 3.110392 1_655
O12 O13 3.110392 1_565
O13 Sr6 2.421781 1_555
O13 Sr5 2.500172 1_555
O13 Sr7 2.635367 1_555
O13 Sr8 2.891100 1_555
O13 O7 3.143811 1_455
O13 O7 3.143811 1_545
