# generated using pymatgen
data_La4PClO8
_symmetry_space_group_name_H-M   'P 1'
_cell_length_a   11.80836200
_cell_length_b   11.10719800
_cell_length_c   14.77848511
_cell_angle_alpha   76.15742378
_cell_angle_beta   90.00000000
_cell_angle_gamma   90.00000000
_symmetry_Int_Tables_number   1
_chemical_formula_structural   La4PClO8
_chemical_formula_sum   'La32 P8 Cl8 O64'
_cell_volume   1882.01889703
_cell_formula_units_Z   8
loop_
 _symmetry_equiv_pos_site_id
 _symmetry_equiv_pos_as_xyz
  1  'x, y, z'
loop_
 _atom_site_type_symbol
 _atom_site_label
 _atom_site_symmetry_multiplicity
 _atom_site_fract_x
 _atom_site_fract_y
 _atom_site_fract_z
 _atom_site_occupancy
  La  La0  1  0.73599800  0.84045600  0.74052000  1
  La  La1  1  0.23599800  0.15954400  0.75948000  1
  La  La2  1  0.26400200  0.15954400  0.25948000  1
  La  La3  1  0.76400200  0.84045600  0.24052000  1
  La  La4  1  0.74773800  0.32891600  0.50139800  1
  La  La5  1  0.24773800  0.67108400  0.99860200  1
  La  La6  1  0.25226200  0.67108400  0.49860200  1
  La  La7  1  0.75226200  0.32891600  0.00139800  1
  La  La8  1  0.00424600  0.57197700  0.86575400  1
  La  La9  1  0.50424600  0.42802300  0.63424600  1
  La  La10  1  0.99575400  0.42802300  0.13424600  1
  La  La11  1  0.49575400  0.57197700  0.36575400  1
  La  La12  1  0.49977000  0.09146100  0.63414700  1
  La  La13  1  0.99977000  0.90853900  0.86585300  1
  La  La14  1  0.50023000  0.90853900  0.36585300  1
  La  La15  1  0.00023000  0.09146100  0.13414700  1
  La  La16  1  0.00054000  0.42251000  0.62657800  1
  La  La17  1  0.50054000  0.57749000  0.87342200  1
  La  La18  1  0.99946000  0.57749000  0.37342200  1
  La  La19  1  0.49946000  0.42251000  0.12657800  1
  La  La20  1  0.99761300  0.08203300  0.61432700  1
  La  La21  1  0.49761300  0.91796700  0.88567300  1
  La  La22  1  0.00238700  0.91796700  0.38567300  1
  La  La23  1  0.50238700  0.08203300  0.11432700  1
  La  La24  1  0.26094800  0.83214600  0.73577900  1
  La  La25  1  0.76094800  0.16785400  0.76422100  1
  La  La26  1  0.73905200  0.16785400  0.26422100  1
  La  La27  1  0.23905200  0.83214600  0.23577900  1
  La  La28  1  0.26345600  0.32364700  0.50941000  1
  La  La29  1  0.76345600  0.67635300  0.99059000  1
  La  La30  1  0.73654400  0.67635300  0.49059000  1
  La  La31  1  0.23654400  0.32364700  0.00941000  1
  P  P0  1  0.23765900  0.00160100  0.49965000  1
  P  P1  1  0.73765900  0.99839900  0.00035000  1
  P  P2  1  0.76234100  0.99839900  0.50035000  1
  P  P3  1  0.26234100  0.00160100  0.99965000  1
  P  P4  1  0.98368800  0.26808600  0.86685700  1
  P  P5  1  0.48368800  0.73191400  0.63314300  1
  P  P6  1  0.01631200  0.73191400  0.13314300  1
  P  P7  1  0.51631200  0.26808600  0.36685700  1
  Cl  Cl0  1  0.80357000  0.57188800  0.69703400  1
  Cl  Cl1  1  0.30357000  0.42811200  0.80296600  1
  Cl  Cl2  1  0.19643000  0.42811200  0.30296600  1
  Cl  Cl3  1  0.69643000  0.57188800  0.19703400  1
  Cl  Cl4  1  0.07241900  0.66311700  0.65973700  1
  Cl  Cl5  1  0.57241900  0.33688300  0.84026300  1
  Cl  Cl6  1  0.92758100  0.33688300  0.34026300  1
  Cl  Cl7  1  0.42758100  0.66311700  0.15973700  1
  O  O0  1  0.30946400  0.99083200  0.41412600  1
  O  O1  1  0.80946400  0.00916800  0.08587400  1
  O  O2  1  0.69053600  0.00916800  0.58587400  1
  O  O3  1  0.19053600  0.99083200  0.91412600  1
  O  O4  1  0.20721100  0.87044100  0.55773700  1
  O  O5  1  0.70721100  0.12955900  0.94226300  1
  O  O6  1  0.79278900  0.12955900  0.44226300  1
  O  O7  1  0.29278900  0.87044100  0.05773700  1
  O  O8  1  0.12384300  0.07160300  0.46517400  1
  O  O9  1  0.62384300  0.92839700  0.03482600  1
  O  O10  1  0.87615700  0.92839700  0.53482600  1
  O  O11  1  0.37615700  0.07160300  0.96517400  1
  O  O12  1  0.30231900  0.07502400  0.56017100  1
  O  O13  1  0.80231900  0.92497600  0.93982900  1
  O  O14  1  0.69768100  0.92497600  0.43982900  1
  O  O15  1  0.19768100  0.07502400  0.06017100  1
  O  O16  1  0.99370700  0.14804200  0.83164500  1
  O  O17  1  0.49370700  0.85195800  0.66835500  1
  O  O18  1  0.00629300  0.85195800  0.16835500  1
  O  O19  1  0.50629300  0.14804200  0.33164500  1
  O  O20  1  0.02488200  0.24965500  0.96879700  1
  O  O21  1  0.52488200  0.75034500  0.53120300  1
  O  O22  1  0.97511800  0.75034500  0.03120300  1
  O  O23  1  0.47511800  0.24965500  0.46879700  1
  O  O24  1  0.85795200  0.31195200  0.85766700  1
  O  O25  1  0.35795200  0.68804800  0.64233300  1
  O  O26  1  0.14204800  0.68804800  0.14233300  1
  O  O27  1  0.64204800  0.31195200  0.35766700  1
  O  O28  1  0.05376100  0.37376400  0.80219500  1
  O  O29  1  0.55376100  0.62623600  0.69780500  1
  O  O30  1  0.94623900  0.62623600  0.19780500  1
  O  O31  1  0.44623900  0.37376400  0.30219500  1
  O  O32  1  0.13135900  0.73691600  0.86040800  1
  O  O33  1  0.63135900  0.26308400  0.63959200  1
  O  O34  1  0.86864100  0.26308400  0.13959200  1
  O  O35  1  0.36864100  0.73691600  0.36040800  1
  O  O36  1  0.87942300  0.25106800  0.62515500  1
  O  O37  1  0.37942300  0.74893200  0.87484500  1
  O  O38  1  0.12057700  0.74893200  0.37484500  1
  O  O39  1  0.62057700  0.25106800  0.12515500  1
  O  O40  1  0.37682700  0.49847500  0.50325000  1
  O  O41  1  0.87682700  0.50152500  0.99675000  1
  O  O42  1  0.62317300  0.50152500  0.49675000  1
  O  O43  1  0.12317300  0.49847500  0.00325000  1
  O  O44  1  0.12600300  0.25068700  0.62615300  1
  O  O45  1  0.62600300  0.74931300  0.87384700  1
  O  O46  1  0.87399700  0.74931300  0.37384700  1
  O  O47  1  0.37399700  0.25068700  0.12615300  1
  O  O48  1  0.87243400  0.50288700  0.49670000  1
  O  O49  1  0.37243400  0.49711300  0.00330000  1
  O  O50  1  0.12756600  0.49711300  0.50330000  1
  O  O51  1  0.62756600  0.50288700  0.99670000  1
  O  O52  1  0.37497300  0.26444600  0.64825100  1
  O  O53  1  0.87497300  0.73555400  0.85174900  1
  O  O54  1  0.62502700  0.73555400  0.35174900  1
  O  O55  1  0.12502700  0.26444600  0.14825100  1
  O  O56  1  0.87247900  0.99129700  0.73740200  1
  O  O57  1  0.37247900  0.00870300  0.76259800  1
  O  O58  1  0.12752100  0.00870300  0.26259800  1
  O  O59  1  0.62752100  0.99129700  0.23740200  1
  O  O60  1  0.12359100  0.98888500  0.72912700  1
  O  O61  1  0.62359100  0.01111500  0.77087300  1
  O  O62  1  0.87640900  0.01111500  0.27087300  1
  O  O63  1  0.37640900  0.98888500  0.22912700  1
loop_
_geom_bond_atom_site_label_1
_geom_bond_atom_site_label_2
_geom_bond_distance
_geom_bond_site_symmetry_2
La0 O56 2.317224 1_555
La0 O45 2.374818 1_555
La0 O53 2.415842 1_555
La0 O61 2.441927 1_565
La0 O2 2.640765 1_565
La0 O17 3.045355 1_555
La1 O57 2.317224 1_555
La1 O44 2.374818 1_555
La1 O52 2.415842 1_555
La1 O60 2.441927 1_545
La1 O3 2.640765 1_545
La1 O16 3.045355 1_455
La2 O58 2.317224 1_555
La2 O47 2.374818 1_555
La2 O55 2.415842 1_555
La2 O63 2.441927 1_545
La2 O0 2.640765 1_545
La2 O19 3.045355 1_555
La3 O59 2.317224 1_555
La3 O46 2.374818 1_555
La3 O54 2.415842 1_555
La3 O62 2.441927 1_565
La3 O1 2.640765 1_565
La3 O18 3.045355 1_655
La4 O36 2.398735 1_555
La4 O42 2.404358 1_555
La4 O48 2.417157 1_555
La4 O33 2.424792 1_555
La4 O27 2.509283 1_555
La4 O6 2.622183 1_555
La5 O37 2.398735 1_555
La5 O43 2.404358 1_556
La5 O49 2.417157 1_556
La5 O32 2.424792 1_555
La5 O26 2.509283 1_556
La5 O7 2.622183 1_556
La6 O38 2.398735 1_555
La6 O40 2.404358 1_555
La6 O50 2.417157 1_555
La6 O35 2.424792 1_555
La6 O25 2.509283 1_555
La6 O4 2.622183 1_555
La7 O39 2.398735 1_555
La7 O41 2.404358 1_554
La7 O51 2.417157 1_554
La7 O34 2.424792 1_555
La7 O24 2.509283 1_554
La7 O5 2.622183 1_554
La8 O53 2.343964 1_455
La8 O32 2.355044 1_555
La8 O41 2.428805 1_455
La8 O43 2.444138 1_556
La8 O28 2.657199 1_555
La9 O52 2.343964 1_555
La9 O33 2.355044 1_555
La9 O40 2.428805 1_555
La9 O42 2.444138 1_555
La9 O29 2.657199 1_555
La10 O55 2.343964 1_655
La10 O34 2.355044 1_555
La10 O43 2.428805 1_655
La10 O41 2.444138 1_554
La10 O30 2.657199 1_555
La11 O54 2.343964 1_555
La11 O35 2.355044 1_555
La11 O42 2.428805 1_555
La11 O40 2.444138 1_555
La11 O31 2.657199 1_555
La12 O57 2.423399 1_555
La12 O52 2.469497 1_555
La12 O33 2.475504 1_555
La12 O61 2.480764 1_555
La12 O17 2.587253 1_545
La12 O2 2.594380 1_555
La12 O12 2.600053 1_555
La12 O23 2.662487 1_555
La13 O56 2.423399 1_555
La13 O53 2.469497 1_555
La13 O32 2.475504 1_655
La13 O60 2.480764 1_655
La13 O16 2.587253 1_565
La13 O3 2.594380 1_655
La13 O13 2.600053 1_555
La13 O22 2.662487 1_556
La14 O59 2.423399 1_555
La14 O54 2.469497 1_555
La14 O35 2.475504 1_555
La14 O63 2.480764 1_555
La14 O19 2.587253 1_565
La14 O0 2.594380 1_555
La14 O14 2.600053 1_555
La14 O21 2.662487 1_555
La15 O58 2.423399 1_555
La15 O55 2.469497 1_555
La15 O34 2.475504 1_455
La15 O62 2.480764 1_455
La15 O18 2.587253 1_545
La15 O1 2.594380 1_455
La15 O15 2.600053 1_555
La15 O20 2.662487 1_554
La16 O50 2.352304 1_555
La16 O36 2.385621 1_455
La16 O44 2.417213 1_555
La16 O48 2.439158 1_455
La16 O28 2.598375 1_555
La17 O51 2.352304 1_555
La17 O37 2.385621 1_555
La17 O45 2.417213 1_555
La17 O49 2.439158 1_556
La17 O29 2.598375 1_555
La18 O48 2.352304 1_555
La18 O38 2.385621 1_655
La18 O46 2.417213 1_555
La18 O50 2.439158 1_655
La18 O30 2.598375 1_555
La19 O49 2.352304 1_555
La19 O39 2.385621 1_555
La19 O47 2.417213 1_555
La19 O51 2.439158 1_554
La19 O31 2.598375 1_555
La20 O60 2.306899 1_645
La20 O56 2.372804 1_545
La20 O36 2.375327 1_555
La20 O44 2.448437 1_655
La20 O8 2.686290 1_655
La20 O10 2.703465 1_545
La21 O61 2.306899 1_565
La21 O57 2.372804 1_565
La21 O37 2.375327 1_555
La21 O45 2.448437 1_555
La21 O9 2.686290 1_556
La21 O11 2.703465 1_565
La22 O62 2.306899 1_465
La22 O58 2.372804 1_565
La22 O38 2.375327 1_555
La22 O46 2.448437 1_455
La22 O10 2.686290 1_455
La22 O8 2.703465 1_565
La23 O63 2.306899 1_545
La23 O59 2.372804 1_545
La23 O39 2.375327 1_555
La23 O47 2.448437 1_555
La23 O11 2.686290 1_554
La23 O9 2.703465 1_545
La24 O60 2.364185 1_555
La24 O32 2.433215 1_555
La24 O57 2.471685 1_565
La24 O37 2.475136 1_555
La24 O25 2.615061 1_555
La24 O4 2.640303 1_555
La24 O17 2.913869 1_555
La25 O61 2.364185 1_555
La25 O33 2.433215 1_555
La25 O56 2.471685 1_545
La25 O36 2.475136 1_555
La25 O24 2.615061 1_555
La25 O5 2.640303 1_555
La25 O16 2.913869 1_555
La26 O62 2.364185 1_555
La26 O34 2.433215 1_555
La26 O59 2.471685 1_545
La26 O39 2.475136 1_555
La26 O27 2.615061 1_555
La26 O6 2.640303 1_555
La26 O19 2.913869 1_555
La27 O63 2.364185 1_555
La27 O35 2.433215 1_555
La27 O58 2.471685 1_565
La27 O38 2.475136 1_555
La27 O26 2.615061 1_555
La27 O7 2.640303 1_555
La27 O18 2.913869 1_555
La28 O40 2.342363 1_555
La28 O44 2.366165 1_555
La28 O52 2.393939 1_555
La28 O50 2.492393 1_555
La28 O12 2.721761 1_555
La28 O23 2.742008 1_555
La29 O41 2.342363 1_555
La29 O45 2.366165 1_555
La29 O53 2.393939 1_555
La29 O51 2.492393 1_555
La29 O13 2.721761 1_555
La29 O22 2.742008 1_556
La30 O42 2.342363 1_555
La30 O46 2.366165 1_555
La30 O54 2.393939 1_555
La30 O48 2.492393 1_555
La30 O14 2.721761 1_555
La30 O21 2.742008 1_555
La31 O43 2.342363 1_555
La31 O47 2.366165 1_555
La31 O55 2.393939 1_555
La31 O49 2.492393 1_555
La31 O15 2.721761 1_555
La31 O20 2.742008 1_554
Cl0 O29 3.011536 1_555
Cl0 La30 3.096284 1_555
Cl0 La16 3.173871 1_655
Cl0 La0 3.296290 1_555
Cl0 O48 3.331627 1_555
Cl0 O24 3.332249 1_555
Cl0 Cl4 3.337939 1_655
Cl0 O53 3.351469 1_555
Cl0 La8 3.440003 1_655
Cl0 Cl5 4.012513 1_555
Cl1 O28 3.011536 1_555
Cl1 La31 3.096284 1_556
Cl1 La17 3.173871 1_555
Cl1 La1 3.296290 1_555
Cl1 O49 3.331627 1_556
Cl1 O25 3.332249 1_555
Cl1 Cl5 3.337939 1_555
Cl1 O52 3.351469 1_555
Cl1 La9 3.440003 1_555
Cl1 Cl4 4.012513 1_555
Cl2 O31 3.011536 1_555
Cl2 La28 3.096284 1_555
Cl2 La18 3.173871 1_455
Cl2 La2 3.296290 1_555
Cl2 O50 3.331627 1_555
Cl2 O26 3.332249 1_555
Cl2 Cl6 3.337939 1_455
Cl2 O55 3.351469 1_555
Cl2 La10 3.440003 1_455
Cl2 Cl7 4.012513 1_555
Cl3 O30 3.011536 1_555
Cl3 La29 3.096284 1_554
Cl3 La19 3.173871 1_555
Cl3 La3 3.296290 1_555
Cl3 O51 3.331627 1_554
Cl3 O27 3.332249 1_555
Cl3 Cl7 3.337939 1_555
Cl3 O54 3.351469 1_555
Cl3 La11 3.440003 1_555
Cl3 Cl6 4.012513 1_555
Cl4 O4 2.906460 1_555
Cl4 La16 2.954541 1_555
Cl4 La8 3.076964 1_555
Cl4 La6 3.176103 1_555
Cl4 La24 3.279222 1_555
Cl4 O32 3.333824 1_555
Cl4 O50 3.347905 1_555
Cl4 O25 3.387766 1_555
Cl4 O28 3.401811 1_555
Cl4 O10 3.854592 1_455
Cl5 O5 2.906460 1_555
Cl5 La17 2.954541 1_555
Cl5 La9 3.076964 1_555
Cl5 La7 3.176103 1_556
Cl5 La25 3.279222 1_555
Cl5 O33 3.333824 1_555
Cl5 O51 3.347905 1_555
Cl5 O24 3.387766 1_555
Cl5 O29 3.401811 1_555
Cl5 O11 3.854592 1_555
Cl6 O6 2.906460 1_555
Cl6 La18 2.954541 1_555
Cl6 La10 3.076964 1_555
Cl6 La4 3.176103 1_555
Cl6 La26 3.279222 1_555
Cl6 O34 3.333824 1_555
Cl6 O48 3.347905 1_555
Cl6 O27 3.387766 1_555
Cl6 O30 3.401811 1_555
Cl6 O8 3.854592 1_655
Cl7 O7 2.906460 1_555
Cl7 La19 2.954541 1_555
Cl7 La11 3.076964 1_555
Cl7 La5 3.176103 1_554
Cl7 La27 3.279222 1_555
Cl7 O35 3.333824 1_555
Cl7 O49 3.347905 1_555
Cl7 O26 3.387766 1_555
Cl7 O31 3.401811 1_555
Cl7 O9 3.854592 1_555
O0 P0 1.550182 1_565
O0 O63 2.851044 1_555
O0 O58 3.075263 1_565
O0 O35 3.184958 1_555
O1 P1 1.550182 1_545
O1 O62 2.851044 1_555
O1 O59 3.075263 1_545
O1 O34 3.184958 1_555
O2 P2 1.550182 1_545
O2 O61 2.851044 1_555
O2 O56 3.075263 1_545
O2 O33 3.184958 1_555
O3 P3 1.550182 1_565
O3 O60 2.851044 1_555
O3 O57 3.075263 1_565
O3 O32 3.184958 1_555
O4 P0 1.545992 1_565
O5 P1 1.545992 1_546
O6 P2 1.545992 1_545
O7 P3 1.545992 1_564
O8 P0 1.575075 1_555
O9 P1 1.575075 1_555
O10 P2 1.575075 1_555
O10 O56 3.233182 1_555
O11 P3 1.575075 1_555
O11 O57 3.233182 1_555
O12 P0 1.548242 1_555
O12 O52 2.857886 1_555
O12 O57 3.020591 1_555
O12 O44 3.162731 1_555
O13 P1 1.548242 1_556
O13 O53 2.857886 1_555
O13 O56 3.020591 1_555
O13 O45 3.162731 1_555
O14 P2 1.548242 1_555
O14 O54 2.857886 1_555
O14 O59 3.020591 1_555
O14 O46 3.162731 1_555
O15 P3 1.548242 1_554
O15 O55 2.857886 1_555
O15 O58 3.020591 1_555
O15 O47 3.162731 1_555
O16 P4 1.547461 1_555
O16 O56 2.860136 1_545
O16 O60 3.009048 1_645
O17 P5 1.547461 1_555
O17 O57 2.860136 1_565
O17 O61 3.009048 1_565
O18 P6 1.547461 1_555
O18 O58 2.860136 1_565
O18 O62 3.009048 1_465
O19 P7 1.547461 1_555
O19 O59 2.860136 1_545
O19 O63 3.009048 1_545
O20 P4 1.549370 1_455
O20 O55 2.944029 1_556
O20 O43 3.149240 1_556
O20 O34 3.158683 1_456
O21 P5 1.549370 1_555
O21 O54 2.944029 1_555
O21 O42 3.149240 1_555
O21 O35 3.158683 1_555
O22 P6 1.549370 1_655
O22 O53 2.944029 1_554
O22 O41 3.149240 1_554
O22 O32 3.158683 1_654
O23 P7 1.549370 1_555
O23 O52 2.944029 1_555
O23 O40 3.149240 1_555
O23 O33 3.158683 1_555
O24 P4 1.558401 1_555
O25 P5 1.558401 1_555
O26 P6 1.558401 1_555
O27 P7 1.558401 1_555
O28 P4 1.561696 1_455
O29 P5 1.561696 1_555
O30 P6 1.561696 1_655
O31 P7 1.561696 1_555
O32 O37 2.942337 1_555
O32 O43 2.967231 1_556
O32 O60 3.001146 1_555
O33 O36 2.942337 1_555
O33 O42 2.967231 1_555
O33 O61 3.001146 1_555
O34 O39 2.942337 1_555
O34 O41 2.967231 1_554
O34 O62 3.001146 1_555
O35 O38 2.942337 1_555
O35 O40 2.967231 1_555
O35 O63 3.001146 1_555
O36 O44 2.911741 1_655
O36 O56 2.965350 1_545
O36 O48 2.982127 1_555
O37 O45 2.911741 1_555
O37 O57 2.965350 1_565
O37 O49 2.982127 1_556
O38 O46 2.911741 1_455
O38 O58 2.965350 1_565
O38 O50 2.982127 1_555
O39 O47 2.911741 1_555
O39 O59 2.965350 1_545
O39 O51 2.982127 1_554
O40 O42 2.910458 1_555
O40 O50 2.943402 1_555
O40 O52 2.946858 1_555
O41 O43 2.910458 1_656
O41 O51 2.943402 1_555
O41 O53 2.946858 1_555
O42 O48 2.943402 1_555
O42 O54 2.946858 1_555
O43 O49 2.943402 1_555
O43 O55 2.946858 1_555
O44 O50 2.900083 1_555
O44 O60 2.941934 1_545
O44 O52 2.965984 1_555
O45 O51 2.900083 1_555
O45 O61 2.941934 1_565
O45 O53 2.965984 1_555
O46 O48 2.900083 1_555
O46 O62 2.941934 1_565
O46 O54 2.965984 1_555
O47 O49 2.900083 1_555
O47 O63 2.941934 1_545
O47 O55 2.965984 1_555
O52 O57 2.937435 1_555
O53 O56 2.937435 1_555
O54 O59 2.937435 1_555
O55 O58 2.937435 1_555
O56 O60 2.968127 1_655
O57 O61 2.968127 1_555
O58 O62 2.968127 1_455
O58 O8 3.233182 1_555
O59 O63 2.968127 1_555
O59 O9 3.233182 1_555
