# generated using pymatgen
data_Sm3AuO6
_symmetry_space_group_name_H-M   'P 1'
_cell_length_a   3.72772559
_cell_length_b   5.63560860
_cell_length_c   7.08573969
_cell_angle_alpha   90.72694203
_cell_angle_beta   103.02574737
_cell_angle_gamma   91.11881422
_symmetry_Int_Tables_number   1
_chemical_formula_structural   Sm3AuO6
_chemical_formula_sum   'Sm3 Au1 O6'
_cell_volume   144.97701103
_cell_formula_units_Z   1
loop_
 _symmetry_equiv_pos_site_id
 _symmetry_equiv_pos_as_xyz
  1  'x, y, z'
loop_
 _atom_site_type_symbol
 _atom_site_label
 _atom_site_symmetry_multiplicity
 _atom_site_fract_x
 _atom_site_fract_y
 _atom_site_fract_z
 _atom_site_occupancy
  Sm  Sm0  1  0.61043985  0.52895984  0.76641896  1
  Sm  Sm1  1  0.38956015  0.47104016  0.23358104  1
  Sm  Sm2  1  -0.00000000  -0.00000000  0.50000000  1
  Au  Au0  1  -0.00000000  -0.00000000  -0.00000000  1
  O  O0  1  0.84434714  0.69883118  0.11592851  1
  O  O1  1  0.15565286  0.30116882  0.88407149  1
  O  O2  1  0.51726673  0.25583074  0.52124210  1
  O  O3  1  0.48273327  0.74416926  0.47875790  1
  O  O4  1  0.12880812  0.79276315  0.79463075  1
  O  O5  1  0.87119188  0.20723685  0.20536925  1
loop_
_geom_bond_atom_site_label_1
_geom_bond_atom_site_label_2
_geom_bond_distance
_geom_bond_site_symmetry_2
Au0 O4 2.001472 1_544
Au0 O5 2.001472 1_455
Au0 O1 2.025815 1_554
Au0 O0 2.025815 1_445
O0 Sm1 2.407559 1_555
O0 Sm1 2.416386 1_655
O0 Sm0 2.596886 1_554
O0 O3 3.088638 1_655
O0 Sm2 3.123477 1_665
O1 Sm0 2.407559 1_555
O1 Sm0 2.416386 1_455
O1 Sm1 2.596886 1_556
O1 O2 3.088638 1_455
O1 Sm2 3.123477 1_555
O2 Sm0 2.268758 1_555
O2 Sm1 2.345229 1_555
O2 Sm2 2.357420 1_655
O2 Sm2 2.361037 1_555
O2 O3 2.774626 1_555
O2 O5 2.855665 1_555
O2 O3 2.892734 1_545
O2 O5 2.900628 1_455
O3 Sm1 2.268758 1_555
O3 Sm0 2.345229 1_555
O3 Sm2 2.357420 1_565
O3 Sm2 2.361037 1_665
O3 O4 2.855665 1_555
O3 O4 2.900628 1_655
O4 Sm2 2.363229 1_565
O4 Sm0 2.385431 1_455
O4 Sm0 2.394185 1_555
O5 Sm2 2.363229 1_655
O5 Sm1 2.385431 1_655
O5 Sm1 2.394185 1_555
