# generated using pymatgen
data_MgSi2
_symmetry_space_group_name_H-M   'P 1'
_cell_length_a   3.73169700
_cell_length_b   6.78484700
_cell_length_c   8.88061136
_cell_angle_alpha   89.14907529
_cell_angle_beta   90.00000000
_cell_angle_gamma   90.00000000
_symmetry_Int_Tables_number   1
_chemical_formula_structural   MgSi2
_chemical_formula_sum   'Mg4 Si8'
_cell_volume   224.82334219
_cell_formula_units_Z   4
loop_
 _symmetry_equiv_pos_site_id
 _symmetry_equiv_pos_as_xyz
  1  'x, y, z'
loop_
 _atom_site_type_symbol
 _atom_site_label
 _atom_site_symmetry_multiplicity
 _atom_site_fract_x
 _atom_site_fract_y
 _atom_site_fract_z
 _atom_site_occupancy
  Mg  Mg0  1  0.50000000  0.97417000  0.01518200  1
  Mg  Mg1  1  0.00000000  0.43572700  0.46182500  1
  Mg  Mg2  1  0.00000000  0.51938700  0.00124500  1
  Mg  Mg3  1  0.50000000  0.08598800  0.48656000  1
  Si  Si0  1  0.50000000  0.67986900  0.78604500  1
  Si  Si1  1  0.00000000  0.12215800  0.23781500  1
  Si  Si2  1  0.00000000  0.81945400  0.39163000  1
  Si  Si3  1  0.50000000  0.34616000  0.70390300  1
  Si  Si4  1  0.00000000  0.15293400  0.79541200  1
  Si  Si5  1  0.50000000  0.68872500  0.25372300  1
  Si  Si6  1  0.50000000  0.33949700  0.20227200  1
  Si  Si7  1  0.00000000  0.83593100  0.66438600  1
loop_
_geom_bond_atom_site_label_1
_geom_bond_atom_site_label_2
_geom_bond_distance
_geom_bond_site_symmetry_2
Mg0 Si5 2.848952 1_555
Mg0 Si0 2.872032 1_554
Mg0 Si1 2.908181 1_565
Mg0 Si1 2.908181 1_665
Mg0 Si4 2.948097 1_564
Mg0 Si4 2.948097 1_664
Mg0 Si6 3.004448 1_565
Mg0 Mg2 3.609596 1_555
Mg0 Mg2 3.609596 1_655
Mg1 Si2 2.668099 1_555
Mg1 Si3 2.904054 1_555
Mg1 Si3 2.904054 1_455
Mg1 Si1 2.934201 1_555
Mg1 Mg3 3.024060 1_555
Mg1 Mg3 3.024060 1_455
Mg1 Si6 3.043904 1_455
Mg1 Si6 3.043904 1_555
Mg1 Si5 3.122354 1_555
Mg1 Si5 3.122354 1_455
Mg1 Si7 3.279325 1_555
Mg2 Si6 2.844899 1_555
Mg2 Si6 2.844899 1_455
Mg2 Si0 2.873587 1_454
Mg2 Si0 2.873587 1_554
Mg2 Si4 3.107751 1_554
Mg2 Si5 3.147257 1_555
Mg2 Si5 3.147257 1_455
Mg3 Si3 2.634893 1_555
Mg3 Si2 2.740012 1_545
Mg3 Si2 2.740012 1_645
Mg3 Si1 2.899177 1_555
Mg3 Si1 2.899177 1_655
Mg3 Si7 2.962118 1_645
Mg3 Si7 2.962118 1_545
Mg3 Si6 3.033703 1_555
Si0 Si3 2.389064 1_555
Si0 Si7 2.394967 1_655
Si0 Si7 2.394967 1_555
Si1 Si6 2.396180 1_455
Si1 Si6 2.396180 1_555
Si1 Si2 2.449622 1_545
Si2 Si5 2.408375 1_555
Si2 Si5 2.408375 1_455
Si2 Si7 2.426476 1_555
Si3 Si4 2.414312 1_655
Si3 Si4 2.414312 1_555
Si4 Si7 2.460547 1_545
Si5 Si6 2.419765 1_555
