# generated using pymatgen
data_KCuB7O13
_symmetry_space_group_name_H-M   'P 1'
_cell_length_a   4.79674000
_cell_length_b   12.93303900
_cell_length_c   15.57146700
_cell_angle_alpha   90.00000000
_cell_angle_beta   90.00000000
_cell_angle_gamma   90.00000000
_symmetry_Int_Tables_number   1
_chemical_formula_structural   KCuB7O13
_chemical_formula_sum   'K4 Cu4 B28 O52'
_cell_volume   965.99815236
_cell_formula_units_Z   4
loop_
 _symmetry_equiv_pos_site_id
 _symmetry_equiv_pos_as_xyz
  1  'x, y, z'
loop_
 _atom_site_type_symbol
 _atom_site_label
 _atom_site_symmetry_multiplicity
 _atom_site_fract_x
 _atom_site_fract_y
 _atom_site_fract_z
 _atom_site_occupancy
  K  K0  1  0.36000300  0.19514900  0.00000000  1
  K  K1  1  0.63999700  0.80485100  0.00000000  1
  K  K2  1  0.13999700  0.69514900  0.50000000  1
  K  K3  1  0.86000300  0.30485100  0.50000000  1
  Cu  Cu0  1  0.00000000  0.00000000  0.39851600  1
  Cu  Cu1  1  0.50000000  0.50000000  0.10148400  1
  Cu  Cu2  1  0.00000000  0.00000000  0.60148400  1
  Cu  Cu3  1  0.50000000  0.50000000  0.89851600  1
  B  B0  1  0.40874300  0.17332600  0.34654500  1
  B  B1  1  0.59125700  0.82667400  0.34654500  1
  B  B2  1  0.09125700  0.67332600  0.15345500  1
  B  B3  1  0.90874300  0.32667400  0.15345500  1
  B  B4  1  0.59125700  0.82667400  0.65345500  1
  B  B5  1  0.40874300  0.17332600  0.65345500  1
  B  B6  1  0.90874300  0.32667400  0.84654500  1
  B  B7  1  0.09125700  0.67332600  0.84654500  1
  B  B8  1  0.19991000  0.06452800  0.22571800  1
  B  B9  1  0.80009000  0.93547200  0.22571800  1
  B  B10  1  0.30009000  0.56452800  0.27428200  1
  B  B11  1  0.69991000  0.43547200  0.27428200  1
  B  B12  1  0.80009000  0.93547200  0.77428200  1
  B  B13  1  0.19991000  0.06452800  0.77428200  1
  B  B14  1  0.69991000  0.43547200  0.72571800  1
  B  B15  1  0.30009000  0.56452800  0.72571800  1
  B  B16  1  0.57009300  0.18684900  0.19595400  1
  B  B17  1  0.42990700  0.81315100  0.19595400  1
  B  B18  1  0.92990700  0.68684900  0.30404600  1
  B  B19  1  0.07009300  0.31315100  0.30404600  1
  B  B20  1  0.42990700  0.81315100  0.80404600  1
  B  B21  1  0.57009300  0.18684900  0.80404600  1
  B  B22  1  0.07009300  0.31315100  0.69595400  1
  B  B23  1  0.92990700  0.68684900  0.69595400  1
  B  B24  1  0.42291500  0.11766300  0.50000000  1
  B  B25  1  0.57708500  0.88233700  0.50000000  1
  B  B26  1  0.07708500  0.61766300  0.00000000  1
  B  B27  1  0.92291500  0.38233700  0.00000000  1
  O  O0  1  0.11438600  0.97807100  0.00000000  1
  O  O1  1  0.88561400  0.02192900  0.00000000  1
  O  O2  1  0.38561400  0.47807100  0.50000000  1
  O  O3  1  0.61438600  0.52192900  0.50000000  1
  O  O4  1  0.00000000  0.00000000  0.19208400  1
  O  O5  1  0.50000000  0.50000000  0.30791600  1
  O  O6  1  0.00000000  0.00000000  0.80791600  1
  O  O7  1  0.50000000  0.50000000  0.69208400  1
  O  O8  1  0.17070300  0.06631600  0.50000000  1
  O  O9  1  0.82929700  0.93368400  0.50000000  1
  O  O10  1  0.32929700  0.56631600  0.00000000  1
  O  O11  1  0.67070300  0.43368400  0.00000000  1
  O  O12  1  0.37581400  0.11218400  0.16761800  1
  O  O13  1  0.62418600  0.88781600  0.16761800  1
  O  O14  1  0.12418600  0.61218400  0.33238200  1
  O  O15  1  0.87581400  0.38781600  0.33238200  1
  O  O16  1  0.62418600  0.88781600  0.83238200  1
  O  O17  1  0.37581400  0.11218400  0.83238200  1
  O  O18  1  0.87581400  0.38781600  0.66761800  1
  O  O19  1  0.12418600  0.61218400  0.66761800  1
  O  O20  1  0.55234400  0.14389000  0.42439100  1
  O  O21  1  0.44765600  0.85611000  0.42439100  1
  O  O22  1  0.94765600  0.64389000  0.07560900  1
  O  O23  1  0.05234400  0.35611000  0.07560900  1
  O  O24  1  0.44765600  0.85611000  0.57560900  1
  O  O25  1  0.55234400  0.14389000  0.57560900  1
  O  O26  1  0.05234400  0.35611000  0.92439100  1
  O  O27  1  0.94765600  0.64389000  0.92439100  1
  O  O28  1  0.21728900  0.26040500  0.36502700  1
  O  O29  1  0.78271100  0.73959500  0.36502700  1
  O  O30  1  0.28271100  0.76040500  0.13497300  1
  O  O31  1  0.71728900  0.23959500  0.13497300  1
  O  O32  1  0.78271100  0.73959500  0.63497300  1
  O  O33  1  0.21728900  0.26040500  0.63497300  1
  O  O34  1  0.71728900  0.23959500  0.86502700  1
  O  O35  1  0.28271100  0.76040500  0.86502700  1
  O  O36  1  0.22545600  0.08073200  0.31346900  1
  O  O37  1  0.77454400  0.91926800  0.31346900  1
  O  O38  1  0.27454400  0.58073200  0.18653100  1
  O  O39  1  0.72545600  0.41926800  0.18653100  1
  O  O40  1  0.77454400  0.91926800  0.68653100  1
  O  O41  1  0.22545600  0.08073200  0.68653100  1
  O  O42  1  0.72545600  0.41926800  0.81346900  1
  O  O43  1  0.27454400  0.58073200  0.81346900  1
  O  O44  1  0.61388500  0.19868700  0.28178000  1
  O  O45  1  0.38611500  0.80131300  0.28178000  1
  O  O46  1  0.88611500  0.69868700  0.21822000  1
  O  O47  1  0.11388500  0.30131300  0.21822000  1
  O  O48  1  0.38611500  0.80131300  0.71822000  1
  O  O49  1  0.61388500  0.19868700  0.71822000  1
  O  O50  1  0.11388500  0.30131300  0.78178000  1
  O  O51  1  0.88611500  0.69868700  0.78178000  1
loop_
_geom_bond_atom_site_label_1
_geom_bond_atom_site_label_2
_geom_bond_distance
_geom_bond_site_symmetry_2
K0 O31 2.772150 1_555
K0 O34 2.772150 1_554
K0 O23 2.810257 1_555
K0 O26 2.810257 1_554
K0 O12 2.823024 1_555
K0 O17 2.823024 1_554
K0 O0 3.044667 1_545
K0 O1 3.193237 1_455
K0 O1 3.372731 1_555
K0 O11 3.426113 1_555
K1 O30 2.772150 1_555
K1 O35 2.772150 1_554
K1 O22 2.810257 1_555
K1 O27 2.810257 1_554
K1 O13 2.823024 1_555
K1 O16 2.823024 1_554
K1 O1 3.044667 1_565
K1 O0 3.193237 1_655
K1 O0 3.372731 1_555
K1 O10 3.426113 1_555
K2 O29 2.772150 1_455
K2 O32 2.772150 1_455
K2 O24 2.810257 1_555
K2 O21 2.810257 1_555
K2 O19 2.823024 1_555
K2 O14 2.823024 1_555
K2 O2 3.044667 1_555
K2 O3 3.193237 1_555
K2 O3 3.372731 1_455
K2 O9 3.426113 1_455
K3 O33 2.772150 1_655
K3 O28 2.772150 1_655
K3 O25 2.810257 1_555
K3 O20 2.810257 1_555
K3 O18 2.823024 1_555
K3 O15 2.823024 1_555
K3 O3 3.044667 1_555
K3 O2 3.193237 1_555
K3 O2 3.372731 1_655
K3 O8 3.426113 1_655
Cu0 O8 1.975667 1_555
Cu0 O9 1.975667 1_445
Cu0 O36 2.003371 1_555
Cu0 O37 2.003371 1_445
Cu1 O10 1.975667 1_555
Cu1 O11 1.975667 1_555
Cu1 O38 2.003371 1_555
Cu1 O39 2.003371 1_555
Cu2 O8 1.975667 1_555
Cu2 O9 1.975667 1_445
Cu2 O41 2.003371 1_555
Cu2 O40 2.003371 1_445
Cu3 O10 1.975667 1_556
Cu3 O11 1.975667 1_556
Cu3 O42 2.003371 1_555
Cu3 O43 2.003371 1_555
B0 O20 1.445258 1_555
B0 O44 1.446688 1_555
B0 O28 1.481391 1_555
B0 O36 1.572350 1_555
B1 O21 1.445258 1_555
B1 O45 1.446688 1_555
B1 O29 1.481391 1_555
B1 O37 1.572350 1_555
B2 O22 1.445258 1_455
B2 O46 1.446688 1_455
B2 O30 1.481391 1_555
B2 O38 1.572350 1_555
B3 O23 1.445258 1_655
B3 O47 1.446688 1_655
B3 O31 1.481391 1_555
B3 O39 1.572350 1_555
B4 O24 1.445258 1_555
B4 O48 1.446688 1_555
B4 O32 1.481391 1_555
B4 O40 1.572350 1_555
B5 O25 1.445258 1_555
B5 O49 1.446688 1_555
B5 O33 1.481391 1_555
B5 O41 1.572350 1_555
B6 O26 1.445258 1_655
B6 O50 1.446688 1_655
B6 O34 1.481391 1_555
B6 O42 1.572350 1_555
B7 O27 1.445258 1_455
B7 O51 1.446688 1_455
B7 O35 1.481391 1_555
B7 O43 1.572350 1_555
B8 O4 1.374873 1_555
B8 O12 1.382135 1_555
B8 O36 1.387809 1_555
B9 O4 1.374873 1_665
B9 O13 1.382135 1_555
B9 O37 1.387809 1_555
B10 O5 1.374873 1_555
B10 O14 1.382135 1_555
B10 O38 1.387809 1_555
B11 O5 1.374873 1_555
B11 O15 1.382135 1_555
B11 O39 1.387809 1_555
B12 O6 1.374873 1_665
B12 O16 1.382135 1_555
B12 O40 1.387809 1_555
B13 O6 1.374873 1_555
B13 O17 1.382135 1_555
B13 O41 1.387809 1_555
B14 O7 1.374873 1_555
B14 O18 1.382135 1_555
B14 O42 1.387809 1_555
B15 O7 1.374873 1_555
B15 O19 1.382135 1_555
B15 O43 1.387809 1_555
B16 O44 1.361480 1_555
B16 O31 1.365849 1_555
B16 O12 1.412659 1_555
B17 O45 1.361480 1_555
B17 O30 1.365849 1_555
B17 O13 1.412659 1_555
B18 O46 1.361480 1_555
B18 O29 1.365849 1_555
B18 O14 1.412659 1_655
B19 O47 1.361480 1_555
B19 O28 1.365849 1_555
B19 O15 1.412659 1_455
B20 O48 1.361480 1_555
B20 O35 1.365849 1_555
B20 O16 1.412659 1_555
B21 O49 1.361480 1_555
B21 O34 1.365849 1_555
B21 O17 1.412659 1_555
B22 O50 1.361480 1_555
B22 O33 1.365849 1_555
B22 O18 1.412659 1_455
B23 O51 1.361480 1_555
B23 O32 1.365849 1_555
B23 O19 1.412659 1_655
B24 O25 1.373546 1_555
B24 O20 1.373546 1_555
B24 O8 1.380072 1_555
B25 O24 1.373546 1_555
B25 O21 1.373546 1_555
B25 O9 1.380072 1_555
B26 O22 1.373546 1_455
B26 O27 1.373546 1_454
B26 O10 1.380072 1_555
B27 O23 1.373546 1_655
B27 O26 1.373546 1_654
B27 O11 1.380072 1_555
O0 O1 1.235287 1_465
O2 O3 1.235287 1_555
