# generated using pymatgen
data_ThRe2
_symmetry_space_group_name_H-M   'P 1'
_cell_length_a   5.37276925
_cell_length_b   5.37276914
_cell_length_c   9.48204418
_cell_angle_alpha   90.00000000
_cell_angle_beta   90.00000000
_cell_angle_gamma   119.99999448
_symmetry_Int_Tables_number   1
_chemical_formula_structural   ThRe2
_chemical_formula_sum   'Th4 Re8'
_cell_volume   237.04401742
_cell_formula_units_Z   4
loop_
 _symmetry_equiv_pos_site_id
 _symmetry_equiv_pos_as_xyz
  1  'x, y, z'
loop_
 _atom_site_type_symbol
 _atom_site_label
 _atom_site_symmetry_multiplicity
 _atom_site_fract_x
 _atom_site_fract_y
 _atom_site_fract_z
 _atom_site_occupancy
  Th  Th0  1  0.33333300  0.66666700  0.05991245  1
  Th  Th1  1  0.66666700  0.33333300  0.55991245  1
  Th  Th2  1  0.66666700  0.33333300  0.94008755  1
  Th  Th3  1  0.33333300  0.66666700  0.44008755  1
  Re  Re0  1  0.00000000  0.00000000  -0.00000000  1
  Re  Re1  1  0.00000000  0.00000000  0.50000000  1
  Re  Re2  1  0.83103440  0.66207080  0.25000000  1
  Re  Re3  1  0.16896560  0.83103440  0.75000000  1
  Re  Re4  1  0.66207080  0.83103440  0.75000000  1
  Re  Re5  1  0.33792920  0.16896560  0.25000000  1
  Re  Re6  1  0.83103440  0.16896560  0.25000000  1
  Re  Re7  1  0.16896560  0.33792920  0.75000000  1
loop_
_geom_bond_atom_site_label_1
_geom_bond_atom_site_label_2
_geom_bond_distance
_geom_bond_site_symmetry_2
Th0 Th2 3.303500 1_564
Th0 Th2 3.303500 1_454
Th0 Th2 3.303509 1_554
Th0 Th3 3.604837 1_555
Th1 Th3 3.303500 1_545
Th1 Th3 3.303500 1_655
Th1 Th3 3.303509 1_555
Th1 Th2 3.604837 1_555
Re0 Re7 2.844586 1_554
Re0 Re2 2.844586 1_445
Re0 Re5 2.844586 1_555
Re0 Re4 2.844586 1_444
Re0 Re3 2.844591 1_544
Re0 Re6 2.844591 1_455
Re0 Th0 3.153558 1_545
Re0 Th2 3.153558 1_454
Re0 Th2 3.153562 1_444
Re0 Th0 3.153562 1_555
Re0 Th0 3.153562 1_445
Re0 Th2 3.153562 1_554
Re1 Re7 2.844586 1_555
Re1 Re2 2.844586 1_445
Re1 Re4 2.844586 1_445
Re1 Re5 2.844586 1_555
Re1 Re3 2.844591 1_545
Re1 Re6 2.844591 1_455
Re1 Th1 3.153558 1_455
Re1 Th3 3.153558 1_545
Re1 Th3 3.153562 1_555
Re1 Th1 3.153562 1_445
Re1 Th1 3.153562 1_555
Re1 Th3 3.153562 1_445
Re2 Re6 2.649340 1_555
Re2 Re5 2.649341 1_555
Re2 Re6 2.723429 1_565
Re2 Re5 2.723429 1_665
Re2 Th0 3.235092 1_555
Re2 Th3 3.235092 1_555
Re2 Th3 3.235096 1_655
Re2 Th0 3.235096 1_655
Re2 Th1 3.312865 1_555
Re2 Th2 3.312865 1_554
Re3 Re7 2.649340 1_555
Re3 Re4 2.649340 1_555
Re3 Re7 2.723429 1_565
Re3 Re4 2.723429 1_455
Re3 Th2 3.235094 1_565
Re3 Th1 3.235094 1_565
Re3 Th2 3.235094 1_455
Re3 Th1 3.235094 1_455
Re3 Th0 3.312858 1_556
Re3 Th3 3.312858 1_555
Re4 Re7 2.649341 1_555
Re4 Re7 2.723429 1_665
Re4 Th2 3.235092 1_555
Re4 Th1 3.235092 1_555
Re4 Th1 3.235096 1_565
Re4 Th2 3.235096 1_565
Re4 Th0 3.312865 1_556
Re4 Th3 3.312865 1_555
Re5 Re6 2.649340 1_555
Re5 Re6 2.723429 1_455
Re5 Th0 3.235092 1_555
Re5 Th3 3.235092 1_555
Re5 Th3 3.235096 1_545
Re5 Th0 3.235096 1_545
Re5 Th2 3.312865 1_554
Re5 Th1 3.312865 1_555
Re6 Th3 3.235094 1_545
Re6 Th0 3.235094 1_545
Re6 Th3 3.235094 1_655
Re6 Th0 3.235094 1_655
Re6 Th2 3.312858 1_554
Re6 Th1 3.312858 1_555
Re7 Th2 3.235092 1_555
Re7 Th1 3.235092 1_555
Re7 Th1 3.235096 1_455
Re7 Th2 3.235096 1_455
Re7 Th0 3.312865 1_556
Re7 Th3 3.312865 1_555
