# generated using pymatgen
data_Tl2TeO6
_symmetry_space_group_name_H-M   'P 1'
_cell_length_a   9.13756737
_cell_length_b   9.13761825
_cell_length_c   5.01986440
_cell_angle_alpha   89.99924278
_cell_angle_beta   89.99882141
_cell_angle_gamma   119.99941178
_symmetry_Int_Tables_number   1
_chemical_formula_structural   Tl2TeO6
_chemical_formula_sum   'Tl6 Te3 O18'
_cell_volume   362.98509616
_cell_formula_units_Z   3
loop_
 _symmetry_equiv_pos_site_id
 _symmetry_equiv_pos_as_xyz
  1  'x, y, z'
loop_
 _atom_site_type_symbol
 _atom_site_label
 _atom_site_symmetry_multiplicity
 _atom_site_fract_x
 _atom_site_fract_y
 _atom_site_fract_z
 _atom_site_occupancy
  Tl  Tl0  1  0.71366742  0.71365704  0.49999163  1
  Tl  Tl1  1  0.00000168  0.28634675  0.49999412  1
  Tl  Tl2  1  0.28633284  -0.00000621  0.49999617  1
  Tl  Tl3  1  0.37652828  0.37651232  0.00001614  1
  Tl  Tl4  1  0.00000760  0.62351233  0.00001639  1
  Tl  Tl5  1  0.62346299  -0.00000596  0.00000315  1
  Te  Te0  1  0.66666897  0.33332631  0.48879861  1
  Te  Te1  1  0.33333569  0.66665816  0.51121267  1
  Te  Te2  1  -0.00000633  0.00000302  0.00001039  1
  O  O0  1  0.75537927  0.22118326  0.70710184  1
  O  O1  1  0.77880811  0.53417821  0.70709933  1
  O  O2  1  0.46581856  0.24461602  0.70709557  1
  O  O3  1  0.53418951  0.77880707  0.29290311  1
  O  O4  1  0.24462696  0.46581443  0.29290457  1
  O  O5  1  0.22119708  0.75537458  0.29290622  1
  O  O6  1  0.59723009  0.46197088  0.26875359  1
  O  O7  1  0.53802584  0.13524505  0.26877067  1
  O  O8  1  0.86474969  0.40276937  0.26875748  1
  O  O9  1  0.07972087  0.88006690  0.78460136  1
  O  O10  1  0.11995472  0.19968638  0.78456673  1
  O  O11  1  0.80031365  0.92027477  0.78458078  1
  O  O12  1  0.19966090  0.11994234  0.21538665  1
  O  O13  1  0.92027946  0.80034762  0.21538853  1
  O  O14  1  0.88003955  0.07972564  0.21541798  1
  O  O15  1  0.46198135  0.59722461  0.73124005  1
  O  O16  1  0.40277584  0.86474534  0.73123596  1
  O  O17  1  0.13525040  0.53802479  0.73125231  1
loop_
_geom_bond_atom_site_label_1
_geom_bond_atom_site_label_2
_geom_bond_distance
_geom_bond_site_symmetry_2
O0 Te0 1.933556 1_555
O0 Tl1 2.258482 1_655
O0 Tl5 2.294225 1_556
O1 Te0 1.933577 1_555
O1 Tl0 2.258527 1_555
O1 Tl4 2.294350 1_656
O2 Te0 1.933495 1_555
O2 Tl2 2.258590 1_555
O2 Tl3 2.294273 1_556
O3 Te1 1.933557 1_555
O3 Tl0 2.258539 1_555
O3 Tl5 2.294208 1_565
O4 Te1 1.933541 1_555
O4 Tl1 2.258480 1_555
O4 Tl3 2.294258 1_555
O5 Te1 1.933576 1_555
O5 Tl2 2.258529 1_565
O5 Tl4 2.294211 1_555
O6 Te0 1.936590 1_555
O6 Tl3 2.218561 1_555
O6 Tl0 2.306908 1_555
O7 Te0 1.936570 1_555
O7 Tl5 2.218546 1_555
O7 Tl2 2.306856 1_555
O8 Te0 1.936533 1_555
O8 Tl4 2.218771 1_655
O8 Tl1 2.306788 1_655
O9 Te2 1.923393 1_566
O9 Tl2 2.176531 1_565
O9 Tl4 2.342644 1_556
O10 Te2 1.923623 1_556
O10 Tl1 2.176482 1_555
O10 Tl3 2.342863 1_556
O10 O12 2.503841 1_556
O11 Te2 1.923597 1_666
O11 Tl0 2.176606 1_555
O11 Tl5 2.342761 1_566
O11 O14 2.503951 1_566
O12 Te2 1.923365 1_555
O12 Tl2 2.176635 1_555
O12 Tl3 2.342676 1_555
O13 Te2 1.923253 1_665
O13 Tl0 2.176521 1_555
O13 Tl4 2.342598 1_655
O13 O9 2.503629 1_654
O14 Te2 1.923477 1_655
O14 Tl1 2.176582 1_655
O14 Tl5 2.342818 1_555
O15 Te1 1.936524 1_555
O15 Tl3 2.218706 1_556
O15 Tl0 2.306868 1_555
O16 Te1 1.936586 1_555
O16 Tl5 2.218581 1_566
O16 Tl2 2.306905 1_565
O17 Te1 1.936551 1_555
O17 Tl4 2.218759 1_556
O17 Tl1 2.306907 1_555
