# generated using pymatgen
data_Na4W8XeO6
_symmetry_space_group_name_H-M   'P 1'
_cell_length_a   10.40443900
_cell_length_b   12.52059000
_cell_length_c   12.53986800
_cell_angle_alpha   90.00000000
_cell_angle_beta   90.00000000
_cell_angle_gamma   90.00000000
_symmetry_Int_Tables_number   1
_chemical_formula_structural   Na4W8XeO6
_chemical_formula_sum   'Na16 W32 Xe4 O24'
_cell_volume   1633.56502923
_cell_formula_units_Z   4
loop_
 _symmetry_equiv_pos_site_id
 _symmetry_equiv_pos_as_xyz
  1  'x, y, z'
loop_
 _atom_site_type_symbol
 _atom_site_label
 _atom_site_symmetry_multiplicity
 _atom_site_fract_x
 _atom_site_fract_y
 _atom_site_fract_z
 _atom_site_occupancy
  Na  Na0  1  0.35112100  0.71129700  0.72867400  1
  Na  Na1  1  0.64887900  0.28870300  0.27132600  1
  Na  Na2  1  0.85112100  0.78870300  0.77132600  1
  Na  Na3  1  0.14887900  0.71129700  0.27132600  1
  Na  Na4  1  0.14887900  0.21129700  0.22867400  1
  Na  Na5  1  0.85112100  0.28870300  0.72867400  1
  Na  Na6  1  0.64887900  0.78870300  0.22867400  1
  Na  Na7  1  0.35112100  0.21129700  0.77132600  1
  Na  Na8  1  0.06820300  0.87368900  0.62449300  1
  Na  Na9  1  0.93179700  0.12631100  0.37550700  1
  Na  Na10  1  0.56820300  0.62631100  0.87550700  1
  Na  Na11  1  0.43179700  0.87368900  0.37550700  1
  Na  Na12  1  0.43179700  0.37368900  0.12449300  1
  Na  Na13  1  0.56820300  0.12631100  0.62449300  1
  Na  Na14  1  0.93179700  0.62631100  0.12449300  1
  Na  Na15  1  0.06820300  0.37368900  0.87550700  1
  W  W0  1  0.13180400  0.64758400  0.91037700  1
  W  W1  1  0.86819600  0.35241600  0.08962300  1
  W  W2  1  0.63180400  0.85241600  0.58962300  1
  W  W3  1  0.36819600  0.64758400  0.08962300  1
  W  W4  1  0.36819600  0.14758400  0.41037700  1
  W  W5  1  0.63180400  0.35241600  0.91037700  1
  W  W6  1  0.86819600  0.85241600  0.41037700  1
  W  W7  1  0.13180400  0.14758400  0.58962300  1
  W  W8  1  0.34010900  0.47851300  0.84030800  1
  W  W9  1  0.65989100  0.52148700  0.15969200  1
  W  W10  1  0.84010900  0.02148700  0.65969200  1
  W  W11  1  0.15989100  0.47851300  0.15969200  1
  W  W12  1  0.15989100  0.97851300  0.34030800  1
  W  W13  1  0.84010900  0.52148700  0.84030800  1
  W  W14  1  0.65989100  0.02148700  0.34030800  1
  W  W15  1  0.34010900  0.97851300  0.65969200  1
  W  W16  1  0.39526600  0.91791300  0.87932400  1
  W  W17  1  0.60473400  0.08208700  0.12067600  1
  W  W18  1  0.89526600  0.58208700  0.62067600  1
  W  W19  1  0.10473400  0.91791300  0.12067600  1
  W  W20  1  0.10473400  0.41791300  0.37932400  1
  W  W21  1  0.89526600  0.08208700  0.87932400  1
  W  W22  1  0.60473400  0.58208700  0.37932400  1
  W  W23  1  0.39526600  0.41791300  0.62067600  1
  W  W24  1  0.10714300  0.92415400  0.89309600  1
  W  W25  1  0.89285700  0.07584600  0.10690400  1
  W  W26  1  0.60714300  0.57584600  0.60690400  1
  W  W27  1  0.39285700  0.92415400  0.10690400  1
  W  W28  1  0.39285700  0.42415400  0.39309600  1
  W  W29  1  0.60714300  0.07584600  0.89309600  1
  W  W30  1  0.89285700  0.57584600  0.39309600  1
  W  W31  1  0.10714300  0.42415400  0.60690400  1
  Xe  Xe0  1  0.25000000  0.72843400  0.50000000  1
  Xe  Xe1  1  0.75000000  0.27156600  0.50000000  1
  Xe  Xe2  1  0.75000000  0.77156600  0.00000000  1
  Xe  Xe3  1  0.25000000  0.22843400  0.00000000  1
  O  O0  1  0.97603800  0.70690600  0.64384300  1
  O  O1  1  0.02396200  0.29309400  0.35615700  1
  O  O2  1  0.47603800  0.79309400  0.85615700  1
  O  O3  1  0.52396200  0.70690600  0.35615700  1
  O  O4  1  0.52396200  0.20690600  0.14384300  1
  O  O5  1  0.47603800  0.29309400  0.64384300  1
  O  O6  1  0.02396200  0.79309400  0.14384300  1
  O  O7  1  0.97603800  0.20690600  0.85615700  1
  O  O8  1  0.25000000  0.03689000  0.50000000  1
  O  O9  1  0.75000000  0.96311000  0.50000000  1
  O  O10  1  0.75000000  0.46311000  0.00000000  1
  O  O11  1  0.25000000  0.53689000  0.00000000  1
  O  O12  1  0.53506200  0.72147500  0.63204900  1
  O  O13  1  0.46493800  0.27852500  0.36795100  1
  O  O14  1  0.03506200  0.77852500  0.86795100  1
  O  O15  1  0.96493800  0.72147500  0.36795100  1
  O  O16  1  0.96493800  0.22147500  0.13204900  1
  O  O17  1  0.03506200  0.27852500  0.63204900  1
  O  O18  1  0.46493800  0.77852500  0.13204900  1
  O  O19  1  0.53506200  0.22147500  0.86795100  1
  O  O20  1  0.25000000  0.48194300  0.50000000  1
  O  O21  1  0.75000000  0.51805700  0.50000000  1
  O  O22  1  0.75000000  0.01805700  0.00000000  1
  O  O23  1  0.25000000  0.98194300  0.00000000  1
loop_
_geom_bond_atom_site_label_1
_geom_bond_atom_site_label_2
_geom_bond_distance
_geom_bond_site_symmetry_2
Na0 O12 2.268703 1_555
Na0 O2 2.300795 1_555
Na0 Xe0 3.061987 1_555
Na0 W8 3.235372 1_555
Na1 O13 2.268703 1_555
Na1 O4 2.300795 1_555
Na1 Xe1 3.061987 1_555
Na1 W9 3.235372 1_555
Na2 O14 2.268703 1_655
Na2 O0 2.300795 1_555
Na2 Xe2 3.061987 1_556
Na2 W10 3.235372 1_565
Na3 O15 2.268703 1_455
Na3 O6 2.300795 1_555
Na3 Xe0 3.061987 1_555
Na3 W11 3.235372 1_555
Na4 O16 2.268703 1_455
Na4 O1 2.300795 1_555
Na4 Xe3 3.061987 1_555
Na4 W12 3.235372 1_545
Na5 O17 2.268703 1_655
Na5 O7 2.300795 1_555
Na5 Xe1 3.061987 1_555
Na5 W13 3.235372 1_555
Na6 O18 2.268703 1_555
Na6 O3 2.300795 1_555
Na6 Xe2 3.061987 1_555
Na6 W14 3.235372 1_565
Na7 O19 2.268703 1_555
Na7 O5 2.300795 1_555
Na7 Xe3 3.061987 1_556
Na7 W15 3.235372 1_545
Na8 O0 2.310646 1_455
Na8 W10 3.041591 1_465
Na8 Xe0 3.053271 1_555
Na8 W15 3.149727 1_555
Na8 O8 3.192216 1_565
Na9 O1 2.310646 1_655
Na9 W12 3.041591 1_645
Na9 Xe1 3.053271 1_555
Na9 W14 3.149727 1_555
Na9 O9 3.192216 1_545
Na10 O2 2.310646 1_555
Na10 W8 3.041591 1_555
Na10 Xe2 3.053271 1_556
Na10 W13 3.149727 1_555
Na10 O10 3.192216 1_556
Na11 O3 2.310646 1_555
Na11 W14 3.041591 1_565
Na11 Xe0 3.053271 1_555
Na11 W12 3.149727 1_555
Na11 O8 3.192216 1_565
Na12 O4 2.310646 1_555
Na12 W9 3.041591 1_555
Na12 Xe3 3.053271 1_555
Na12 W11 3.149727 1_555
Na12 O11 3.192216 1_555
Na13 O5 2.310646 1_555
Na13 W15 3.041591 1_545
Na13 Xe1 3.053271 1_555
Na13 W10 3.149727 1_555
Na13 O9 3.192216 1_545
Na14 O6 2.310646 1_655
Na14 W11 3.041591 1_655
Na14 Xe2 3.053271 1_555
Na14 W9 3.149727 1_555
Na14 O10 3.192216 1_555
Na15 O7 2.310646 1_455
Na15 W13 3.041591 1_455
Na15 Xe3 3.053271 1_556
Na15 W8 3.149727 1_555
Na15 O11 3.192216 1_556
W0 W8 3.154417 1_555
W1 W9 3.154417 1_555
W10 W21 2.913831 1_555
W10 W2 3.154417 1_545
W11 W20 2.913831 1_555
W11 W3 3.154417 1_555
W12 W19 2.913831 1_555
W12 W4 3.154417 1_565
W13 W18 2.913831 1_555
W13 W5 3.154417 1_555
W14 W17 2.913831 1_555
W14 W6 3.154417 1_545
W15 W16 2.913831 1_555
W15 W7 3.154417 1_565
W22 W9 2.913831 1_555
W23 W8 2.913831 1_555
O0 W18 1.798059 1_555
O0 Xe0 3.383954 1_655
O1 W20 1.798059 1_555
O1 Xe1 3.383954 1_455
O2 W16 1.798059 1_555
O2 Xe2 3.383954 1_556
O3 W22 1.798059 1_555
O3 Xe0 3.383954 1_555
O4 W17 1.798059 1_555
O4 Xe3 3.383954 1_555
O5 W23 1.798059 1_555
O5 Xe1 3.383954 1_555
O6 W19 1.798059 1_555
O6 Xe2 3.383954 1_455
O7 W21 1.798059 1_555
O7 Xe3 3.383954 1_656
O8 W4 2.167083 1_555
O8 W7 2.167083 1_555
O8 W15 2.328793 1_545
O8 W12 2.328793 1_545
O9 W6 2.167083 1_555
O9 W2 2.167083 1_555
O9 W10 2.328793 1_565
O9 W14 2.328793 1_565
O10 W1 2.167083 1_555
O10 W5 2.167083 1_554
O10 W9 2.328793 1_555
O10 W13 2.328793 1_554
O11 W3 2.167083 1_555
O11 W0 2.167083 1_554
O11 W11 2.328793 1_555
O11 W8 2.328793 1_554
O12 W2 1.995996 1_555
O12 W26 1.996625 1_555
O12 Xe0 3.397962 1_555
O13 W4 1.995996 1_555
O13 W28 1.996625 1_555
O13 Xe1 3.397962 1_555
O14 W0 1.995996 1_555
O14 W24 1.996625 1_555
O14 Xe2 3.397962 1_456
O15 W6 1.995996 1_555
O15 W30 1.996625 1_555
O15 Xe0 3.397962 1_655
O16 W1 1.995996 1_555
O16 W25 1.996625 1_555
O16 Xe3 3.397962 1_655
O17 W7 1.995996 1_555
O17 W31 1.996625 1_555
O17 Xe1 3.397962 1_455
O18 W3 1.995996 1_555
O18 W27 1.996625 1_555
O18 Xe2 3.397962 1_555
O19 W5 1.995996 1_555
O19 W29 1.996625 1_555
O19 Xe3 3.397962 1_556
O20 W28 2.128347 1_555
O20 W31 2.128347 1_555
O20 W23 2.284083 1_555
O20 W20 2.284083 1_555
O20 Xe0 3.086213 1_555
O21 W26 2.128347 1_555
O21 W30 2.128347 1_555
O21 W18 2.284083 1_555
O21 W22 2.284083 1_555
O21 Xe1 3.086213 1_555
O22 W25 2.128347 1_555
O22 W29 2.128347 1_554
O22 W17 2.284083 1_555
O22 W21 2.284083 1_554
O22 Xe2 3.086213 1_545
O23 W27 2.128347 1_555
O23 W24 2.128347 1_554
O23 W19 2.284083 1_555
O23 W16 2.284083 1_554
O23 Xe3 3.086213 1_565
