# generated using pymatgen
data_Cu3Ge
_symmetry_space_group_name_H-M   'P 1'
_cell_length_a   5.45674766
_cell_length_b   5.45674766
_cell_length_c   16.53897000
_cell_angle_alpha   90.00000000
_cell_angle_beta   90.00000000
_cell_angle_gamma   119.99999590
_symmetry_Int_Tables_number   1
_chemical_formula_structural   Cu3Ge
_chemical_formula_sum   'Cu24 Ge8'
_cell_volume   426.48803451
_cell_formula_units_Z   8
loop_
 _symmetry_equiv_pos_site_id
 _symmetry_equiv_pos_as_xyz
  1  'x, y, z'
loop_
 _atom_site_type_symbol
 _atom_site_label
 _atom_site_symmetry_multiplicity
 _atom_site_fract_x
 _atom_site_fract_y
 _atom_site_fract_z
 _atom_site_occupancy
  Cu  Cu0_0  1  0.16666650  0.33333350  0.25000000  1
  Cu  Cu0_1  1  0.16666650  0.33333350  0.75000000  1
  Cu  Cu0_2  1  0.16666650  0.83333350  0.25000000  1
  Cu  Cu0_3  1  0.16666650  0.83333350  0.75000000  1
  Cu  Cu0_4  1  0.66666650  0.33333350  0.25000000  1
  Cu  Cu0_5  1  0.66666650  0.33333350  0.75000000  1
  Cu  Cu0_6  1  0.66666650  0.83333350  0.25000000  1
  Cu  Cu0_7  1  0.66666650  0.83333350  0.75000000  1
  Cu  Cu1_0  1  0.00000000  0.00000000  0.37115400  1
  Cu  Cu1_1  1  0.00000000  0.00000000  0.87115400  1
  Cu  Cu1_2  1  0.00000000  0.50000000  0.37115400  1
  Cu  Cu1_3  1  0.00000000  0.50000000  0.87115400  1
  Cu  Cu1_4  1  0.50000000  0.00000000  0.37115400  1
  Cu  Cu1_5  1  0.50000000  0.00000000  0.87115400  1
  Cu  Cu1_6  1  0.50000000  0.50000000  0.37115400  1
  Cu  Cu1_7  1  0.50000000  0.50000000  0.87115400  1
  Cu  Cu2_0  1  0.00000000  0.00000000  0.12884600  1
  Cu  Cu2_1  1  0.00000000  0.00000000  0.62884600  1
  Cu  Cu2_2  1  0.00000000  0.50000000  0.12884600  1
  Cu  Cu2_3  1  0.00000000  0.50000000  0.62884600  1
  Cu  Cu2_4  1  0.50000000  0.00000000  0.12884600  1
  Cu  Cu2_5  1  0.50000000  0.00000000  0.62884600  1
  Cu  Cu2_6  1  0.50000000  0.50000000  0.12884600  1
  Cu  Cu2_7  1  0.50000000  0.50000000  0.62884600  1
  Ge  Ge0_0  1  0.16666650  0.33333350  0.00000000  1
  Ge  Ge0_1  1  0.16666650  0.33333350  0.50000000  1
  Ge  Ge0_2  1  0.16666650  0.83333350  0.00000000  1
  Ge  Ge0_3  1  0.16666650  0.83333350  0.50000000  1
  Ge  Ge0_4  1  0.66666650  0.33333350  0.00000000  1
  Ge  Ge0_5  1  0.66666650  0.33333350  0.50000000  1
  Ge  Ge0_6  1  0.66666650  0.83333350  0.00000000  1
  Ge  Ge0_7  1  0.66666650  0.83333350  0.50000000  1
loop_
_geom_bond_atom_site_label_1
_geom_bond_atom_site_label_2
_geom_bond_distance
_geom_bond_site_symmetry_2
Cu0_0 Cu1_2 2.548804 1_555
Cu0_0 Cu2_2 2.548804 1_555
Cu0_0 Cu1_6 2.548805 1_555
Cu0_0 Cu1_0 2.548805 1_555
Cu0_0 Cu2_6 2.548805 1_555
Cu0_0 Cu2_0 2.548805 1_555
Cu0_0 Cu0_2 2.728374 1_545
Cu0_0 Cu0_4 2.728374 1_555
Cu0_0 Cu0_2 2.728374 1_555
Cu0_0 Cu0_4 2.728374 1_455
Cu0_0 Cu0_6 2.728374 1_555
Cu0_0 Cu0_6 2.728374 1_445
Cu0_1 Cu2_3 2.548804 1_555
Cu0_1 Cu1_3 2.548804 1_555
Cu0_1 Cu2_7 2.548805 1_555
Cu0_1 Cu2_1 2.548805 1_555
Cu0_1 Cu1_7 2.548805 1_555
Cu0_1 Cu1_1 2.548805 1_555
Cu0_1 Cu0_3 2.728374 1_545
Cu0_1 Cu0_3 2.728374 1_555
Cu0_1 Cu0_5 2.728374 1_555
Cu0_1 Cu0_5 2.728374 1_455
Cu0_1 Cu0_7 2.728374 1_555
Cu0_1 Cu0_7 2.728374 1_445
Cu0_2 Cu1_0 2.548804 1_565
Cu0_2 Cu2_0 2.548804 1_565
Cu0_2 Cu1_4 2.548805 1_565
Cu0_2 Cu1_2 2.548805 1_555
Cu0_2 Cu2_4 2.548805 1_565
Cu0_2 Cu2_2 2.548805 1_555
Cu0_2 Cu0_6 2.728374 1_555
Cu0_2 Cu0_6 2.728374 1_455
Cu0_2 Cu0_4 2.728374 1_565
Cu0_2 Cu0_4 2.728374 1_455
Cu0_3 Cu2_1 2.548804 1_565
Cu0_3 Cu1_1 2.548804 1_565
Cu0_3 Cu2_3 2.548805 1_555
Cu0_3 Cu2_5 2.548805 1_565
Cu0_3 Cu1_5 2.548805 1_565
Cu0_3 Cu1_3 2.548805 1_555
Cu0_3 Cu0_7 2.728374 1_555
Cu0_3 Cu0_7 2.728374 1_455
Cu0_3 Cu0_5 2.728374 1_565
Cu0_3 Cu0_5 2.728374 1_455
Cu0_4 Cu1_6 2.548804 1_555
Cu0_4 Cu2_6 2.548804 1_555
Cu0_4 Cu1_2 2.548805 1_655
Cu0_4 Cu1_4 2.548805 1_555
Cu0_4 Cu2_4 2.548805 1_555
Cu0_4 Cu2_2 2.548805 1_655
Cu0_4 Cu0_6 2.728374 1_545
Cu0_4 Cu0_6 2.728374 1_555
Cu0_5 Cu2_7 2.548804 1_555
Cu0_5 Cu1_7 2.548804 1_555
Cu0_5 Cu2_3 2.548805 1_655
Cu0_5 Cu2_5 2.548805 1_555
Cu0_5 Cu1_3 2.548805 1_655
Cu0_5 Cu1_5 2.548805 1_555
Cu0_5 Cu0_7 2.728374 1_545
Cu0_5 Cu0_7 2.728374 1_555
Cu0_6 Cu1_4 2.548804 1_565
Cu0_6 Cu2_4 2.548804 1_565
Cu0_6 Cu1_6 2.548805 1_555
Cu0_6 Cu2_6 2.548805 1_555
Cu0_6 Cu1_0 2.548805 1_665
Cu0_6 Cu2_0 2.548805 1_665
Cu0_7 Cu2_5 2.548804 1_565
Cu0_7 Cu1_5 2.548804 1_565
Cu0_7 Cu2_7 2.548805 1_555
Cu0_7 Cu2_1 2.548805 1_665
Cu0_7 Cu1_7 2.548805 1_555
Cu0_7 Cu1_1 2.548805 1_665
Cu1_0 Ge0_3 2.649983 1_545
Cu1_0 Ge0_1 2.649985 1_555
Cu1_0 Ge0_7 2.649985 1_445
Cu1_0 Cu1_4 2.728374 1_455
Cu1_0 Cu1_2 2.728374 1_555
Cu1_0 Cu1_2 2.728374 1_545
Cu1_0 Cu1_4 2.728374 1_555
Cu1_0 Cu1_6 2.728374 1_555
Cu1_0 Cu1_6 2.728374 1_445
Cu1_1 Ge0_2 2.649983 1_546
Cu1_1 Ge0_0 2.649985 1_556
Cu1_1 Ge0_6 2.649985 1_446
Cu1_1 Cu1_5 2.728374 1_455
Cu1_1 Cu1_3 2.728374 1_555
Cu1_1 Cu1_5 2.728374 1_555
Cu1_1 Cu1_3 2.728374 1_545
Cu1_1 Cu1_7 2.728374 1_555
Cu1_1 Cu1_7 2.728374 1_445
Cu1_2 Ge0_1 2.649983 1_555
Cu1_2 Ge0_3 2.649985 1_555
Cu1_2 Ge0_5 2.649985 1_455
Cu1_2 Cu1_6 2.728374 1_555
Cu1_2 Cu1_6 2.728374 1_455
Cu1_2 Cu1_4 2.728374 1_565
Cu1_2 Cu1_4 2.728374 1_455
Cu1_3 Ge0_0 2.649983 1_556
Cu1_3 Ge0_2 2.649985 1_556
Cu1_3 Ge0_4 2.649985 1_456
Cu1_3 Cu1_7 2.728374 1_555
Cu1_3 Cu1_7 2.728374 1_455
Cu1_3 Cu1_5 2.728374 1_565
Cu1_3 Cu1_5 2.728374 1_455
Cu1_4 Ge0_7 2.649983 1_545
Cu1_4 Ge0_5 2.649985 1_555
Cu1_4 Ge0_3 2.649985 1_545
Cu1_4 Cu1_6 2.728374 1_545
Cu1_4 Cu1_6 2.728374 1_555
Cu1_5 Ge0_6 2.649983 1_546
Cu1_5 Ge0_4 2.649985 1_556
Cu1_5 Ge0_2 2.649985 1_546
Cu1_5 Cu1_7 2.728374 1_545
Cu1_5 Cu1_7 2.728374 1_555
Cu1_6 Ge0_5 2.649983 1_555
Cu1_6 Ge0_1 2.649985 1_555
Cu1_6 Ge0_7 2.649985 1_555
Cu1_7 Ge0_4 2.649983 1_556
Cu1_7 Ge0_6 2.649985 1_556
Cu1_7 Ge0_0 2.649985 1_556
Cu2_0 Ge0_2 2.649983 1_545
Cu2_0 Ge0_0 2.649985 1_555
Cu2_0 Ge0_6 2.649985 1_445
Cu2_0 Cu2_2 2.728374 1_545
Cu2_0 Cu2_2 2.728374 1_555
Cu2_0 Cu2_4 2.728374 1_555
Cu2_0 Cu2_4 2.728374 1_455
Cu2_0 Cu2_6 2.728374 1_555
Cu2_0 Cu2_6 2.728374 1_445
Cu2_1 Ge0_3 2.649983 1_545
Cu2_1 Ge0_1 2.649985 1_555
Cu2_1 Ge0_7 2.649985 1_445
Cu2_1 Cu2_5 2.728374 1_455
Cu2_1 Cu2_5 2.728374 1_555
Cu2_1 Cu2_3 2.728374 1_545
Cu2_1 Cu2_3 2.728374 1_555
Cu2_1 Cu2_7 2.728374 1_555
Cu2_1 Cu2_7 2.728374 1_445
Cu2_2 Ge0_0 2.649983 1_555
Cu2_2 Ge0_4 2.649985 1_455
Cu2_2 Ge0_2 2.649985 1_555
Cu2_2 Cu2_6 2.728374 1_555
Cu2_2 Cu2_6 2.728374 1_455
Cu2_2 Cu2_4 2.728374 1_565
Cu2_2 Cu2_4 2.728374 1_455
Cu2_3 Ge0_1 2.649983 1_555
Cu2_3 Ge0_3 2.649985 1_555
Cu2_3 Ge0_5 2.649985 1_455
Cu2_3 Cu2_7 2.728374 1_555
Cu2_3 Cu2_7 2.728374 1_455
Cu2_3 Cu2_5 2.728374 1_565
Cu2_3 Cu2_5 2.728374 1_455
Cu2_4 Ge0_6 2.649983 1_545
Cu2_4 Ge0_4 2.649985 1_555
Cu2_4 Ge0_2 2.649985 1_545
Cu2_4 Cu2_6 2.728374 1_545
Cu2_4 Cu2_6 2.728374 1_555
Cu2_5 Ge0_7 2.649983 1_545
Cu2_5 Ge0_5 2.649985 1_555
Cu2_5 Ge0_3 2.649985 1_545
Cu2_5 Cu2_7 2.728374 1_545
Cu2_5 Cu2_7 2.728374 1_555
Cu2_6 Ge0_4 2.649983 1_555
Cu2_6 Ge0_0 2.649985 1_555
Cu2_6 Ge0_6 2.649985 1_555
Cu2_7 Ge0_5 2.649983 1_555
Cu2_7 Ge0_1 2.649985 1_555
Cu2_7 Ge0_7 2.649985 1_555
Ge0_0 Ge0_2 2.728374 1_545
Ge0_0 Ge0_4 2.728374 1_455
Ge0_0 Ge0_4 2.728374 1_555
Ge0_0 Ge0_2 2.728374 1_555
Ge0_0 Ge0_6 2.728374 1_555
Ge0_0 Ge0_6 2.728374 1_445
Ge0_1 Ge0_3 2.728374 1_545
Ge0_1 Ge0_3 2.728374 1_555
Ge0_1 Ge0_5 2.728374 1_455
Ge0_1 Ge0_5 2.728374 1_555
Ge0_1 Ge0_7 2.728374 1_555
Ge0_1 Ge0_7 2.728374 1_445
Ge0_2 Ge0_6 2.728374 1_555
Ge0_2 Ge0_6 2.728374 1_455
Ge0_2 Ge0_4 2.728374 1_565
Ge0_2 Ge0_4 2.728374 1_455
Ge0_3 Ge0_7 2.728374 1_555
Ge0_3 Ge0_7 2.728374 1_455
Ge0_3 Ge0_5 2.728374 1_565
Ge0_3 Ge0_5 2.728374 1_455
Ge0_4 Ge0_6 2.728374 1_545
Ge0_4 Ge0_6 2.728374 1_555
Ge0_5 Ge0_7 2.728374 1_545
Ge0_5 Ge0_7 2.728374 1_555
