# generated using pymatgen
data_HoCdRh2
_symmetry_space_group_name_H-M   'P 1'
_cell_length_a   4.69189532
_cell_length_b   4.69189532
_cell_length_c   4.69189532
_cell_angle_alpha   60.00000000
_cell_angle_beta   60.00000000
_cell_angle_gamma   60.00000000
_symmetry_Int_Tables_number   1
_chemical_formula_structural   HoCdRh2
_chemical_formula_sum   'Ho1 Cd1 Rh2'
_cell_volume   73.03481701
_cell_formula_units_Z   1
loop_
 _symmetry_equiv_pos_site_id
 _symmetry_equiv_pos_as_xyz
  1  'x, y, z'
loop_
 _atom_site_type_symbol
 _atom_site_label
 _atom_site_symmetry_multiplicity
 _atom_site_fract_x
 _atom_site_fract_y
 _atom_site_fract_z
 _atom_site_occupancy
  Ho  Ho0  1  0.75000000  0.75000000  0.75000000  1
  Cd  Cd0  1  0.24999900  0.24999900  0.24999900  1
  Rh  Rh0  1  0.00000000  0.00000000  0.00000000  1
  Rh  Rh1  1  0.50000000  0.50000000  0.50000000  1
loop_
_geom_bond_atom_site_label_1
_geom_bond_atom_site_label_2
_geom_bond_distance
_geom_bond_site_symmetry_2
Ho0 Rh1 2.873187 1_555
Ho0 Rh0 2.873187 1_656
Ho0 Rh1 2.873187 1_556
Ho0 Rh1 2.873187 1_655
Ho0 Rh0 2.873187 1_666
Ho0 Rh0 2.873187 1_665
Ho0 Rh0 2.873187 1_566
Ho0 Rh1 2.873187 1_565
Cd0 Rh0 2.873176 1_555
Cd0 Rh1 2.873184 1_455
Cd0 Rh1 2.873184 1_554
Cd0 Rh1 2.873184 1_545
Cd0 Rh0 2.873191 1_556
Cd0 Rh0 2.873191 1_565
Cd0 Rh0 2.873191 1_655
Cd0 Rh1 2.873199 1_555
Cd0 Ho0 3.317664 1_454
Cd0 Ho0 3.317664 1_544
Cd0 Ho0 3.317664 1_445
Cd0 Ho0 3.317678 1_545
Cd0 Ho0 3.317678 1_455
Cd0 Ho0 3.317678 1_554
Rh0 Rh1 3.317671 1_445
Rh0 Rh1 3.317671 1_454
Rh0 Rh1 3.317671 1_544
Rh0 Rh1 3.317671 1_545
Rh0 Rh1 3.317671 1_455
Rh0 Rh1 3.317671 1_554
