# generated using pymatgen
data_K2Ag
_symmetry_space_group_name_H-M   'P 1'
_cell_length_a   11.98591003
_cell_length_b   11.98591003
_cell_length_c   7.83180000
_cell_angle_alpha   90.00000000
_cell_angle_beta   90.00000000
_cell_angle_gamma   119.99998910
_symmetry_Int_Tables_number   1
_chemical_formula_structural   K2Ag
_chemical_formula_sum   'K16 Ag8'
_cell_volume   974.39331181
_cell_formula_units_Z   8
loop_
 _symmetry_equiv_pos_site_id
 _symmetry_equiv_pos_as_xyz
  1  'x, y, z'
loop_
 _atom_site_type_symbol
 _atom_site_label
 _atom_site_symmetry_multiplicity
 _atom_site_fract_x
 _atom_site_fract_y
 _atom_site_fract_z
 _atom_site_occupancy
  K  K0_0  1  0.16666650  0.33333350  0.25000000  1
  K  K0_1  1  0.16666650  0.33333350  0.75000000  1
  K  K0_2  1  0.16666650  0.83333350  0.25000000  1
  K  K0_3  1  0.16666650  0.83333350  0.75000000  1
  K  K0_4  1  0.66666650  0.33333350  0.25000000  1
  K  K0_5  1  0.66666650  0.33333350  0.75000000  1
  K  K0_6  1  0.66666650  0.83333350  0.25000000  1
  K  K0_7  1  0.66666650  0.83333350  0.75000000  1
  K  K1_0  1  0.33333350  0.16666650  0.25000000  1
  K  K1_1  1  0.33333350  0.16666650  0.75000000  1
  K  K1_2  1  0.33333350  0.66666650  0.25000000  1
  K  K1_3  1  0.33333350  0.66666650  0.75000000  1
  K  K1_4  1  0.83333350  0.16666650  0.25000000  1
  K  K1_5  1  0.83333350  0.16666650  0.75000000  1
  K  K1_6  1  0.83333350  0.66666650  0.25000000  1
  K  K1_7  1  0.83333350  0.66666650  0.75000000  1
  Ag  Ag0_0  1  0.00000000  0.00000000  0.00000000  1
  Ag  Ag0_1  1  0.00000000  0.00000000  0.50000000  1
  Ag  Ag0_2  1  0.00000000  0.50000000  0.00000000  1
  Ag  Ag0_3  1  0.00000000  0.50000000  0.50000000  1
  Ag  Ag0_4  1  0.50000000  0.00000000  0.00000000  1
  Ag  Ag0_5  1  0.50000000  0.00000000  0.50000000  1
  Ag  Ag0_6  1  0.50000000  0.50000000  0.00000000  1
  Ag  Ag0_7  1  0.50000000  0.50000000  0.50000000  1
loop_
_geom_bond_atom_site_label_1
_geom_bond_atom_site_label_2
_geom_bond_distance
_geom_bond_site_symmetry_2
K0_0 K1_2 3.460031 1_555
K0_0 K1_4 3.460031 1_455
K0_0 K1_0 3.460041 1_555
K0_0 K0_1 3.915900 1_555
K0_0 K0_1 3.915900 1_554
K0_1 K1_3 3.460031 1_555
K0_1 K1_5 3.460031 1_455
K0_1 K1_1 3.460041 1_555
K0_2 K1_0 3.460031 1_565
K0_2 K1_6 3.460031 1_455
K0_2 K1_2 3.460041 1_555
K0_2 K0_3 3.915900 1_555
K0_2 K0_3 3.915900 1_554
K0_3 K1_7 3.460031 1_455
K0_3 K1_1 3.460031 1_565
K0_3 K1_3 3.460041 1_555
K0_4 K1_6 3.460031 1_555
K0_4 K1_0 3.460031 1_555
K0_4 K1_4 3.460041 1_555
K0_4 K0_5 3.915900 1_555
K0_4 K0_5 3.915900 1_554
K0_5 K1_7 3.460031 1_555
K0_5 K1_1 3.460031 1_555
K0_5 K1_5 3.460041 1_555
K0_6 K1_2 3.460031 1_555
K0_6 K1_4 3.460031 1_565
K0_6 K1_6 3.460041 1_555
K0_6 K0_7 3.915900 1_555
K0_6 K0_7 3.915900 1_554
K0_7 K1_3 3.460031 1_555
K0_7 K1_5 3.460031 1_565
K0_7 K1_7 3.460041 1_555
K1_0 K1_1 3.915900 1_555
K1_0 K1_1 3.915900 1_554
K1_2 K1_3 3.915900 1_555
K1_2 K1_3 3.915900 1_554
K1_4 K1_5 3.915900 1_555
K1_4 K1_5 3.915900 1_554
K1_6 K1_7 3.915900 1_555
K1_6 K1_7 3.915900 1_554
Ag0_0 Ag0_1 3.915900 1_555
Ag0_0 Ag0_1 3.915900 1_554
Ag0_0 K1_4 3.975598 1_455
Ag0_0 K0_2 3.975598 1_545
Ag0_0 K1_5 3.975598 1_454
Ag0_0 K0_3 3.975598 1_544
Ag0_0 K0_0 3.975603 1_555
Ag0_0 K1_0 3.975603 1_555
Ag0_0 K0_6 3.975603 1_445
Ag0_0 K1_1 3.975603 1_554
Ag0_0 K0_1 3.975603 1_554
Ag0_0 K0_7 3.975603 1_444
Ag0_0 K1_6 3.975603 1_445
Ag0_0 K1_7 3.975603 1_444
Ag0_1 K1_4 3.975598 1_455
Ag0_1 K0_3 3.975598 1_545
Ag0_1 K0_2 3.975598 1_545
Ag0_1 K1_5 3.975598 1_455
Ag0_1 K0_0 3.975603 1_555
Ag0_1 K1_0 3.975603 1_555
Ag0_1 K1_1 3.975603 1_555
Ag0_1 K0_1 3.975603 1_555
Ag0_1 K0_6 3.975603 1_445
Ag0_1 K0_7 3.975603 1_445
Ag0_1 K1_6 3.975603 1_445
Ag0_1 K1_7 3.975603 1_445
Ag0_2 Ag0_3 3.915900 1_555
Ag0_2 Ag0_3 3.915900 1_554
Ag0_2 K0_0 3.975598 1_555
Ag0_2 K0_1 3.975598 1_554
Ag0_2 K1_6 3.975598 1_455
Ag0_2 K1_7 3.975598 1_454
Ag0_2 K1_4 3.975603 1_455
Ag0_2 K1_2 3.975603 1_555
Ag0_2 K0_2 3.975603 1_555
Ag0_2 K1_5 3.975603 1_454
Ag0_2 K1_3 3.975603 1_554
Ag0_2 K0_3 3.975603 1_554
Ag0_2 K0_4 3.975603 1_455
Ag0_2 K0_5 3.975603 1_454
Ag0_3 K0_0 3.975598 1_555
Ag0_3 K0_1 3.975598 1_555
Ag0_3 K1_6 3.975598 1_455
Ag0_3 K1_7 3.975598 1_455
Ag0_3 K1_5 3.975603 1_455
Ag0_3 K1_4 3.975603 1_455
Ag0_3 K1_3 3.975603 1_555
Ag0_3 K1_2 3.975603 1_555
Ag0_3 K0_2 3.975603 1_555
Ag0_3 K0_3 3.975603 1_555
Ag0_3 K0_5 3.975603 1_455
Ag0_3 K0_4 3.975603 1_455
Ag0_4 Ag0_5 3.915900 1_555
Ag0_4 Ag0_5 3.915900 1_554
Ag0_4 K1_0 3.975598 1_555
Ag0_4 K1_1 3.975598 1_554
Ag0_4 K0_6 3.975598 1_545
Ag0_4 K0_7 3.975598 1_544
Ag0_4 K1_4 3.975603 1_555
Ag0_4 K0_2 3.975603 1_545
Ag0_4 K0_4 3.975603 1_555
Ag0_4 K0_3 3.975603 1_544
Ag0_4 K1_2 3.975603 1_545
Ag0_4 K0_5 3.975603 1_554
Ag0_4 K1_5 3.975603 1_554
Ag0_4 K1_3 3.975603 1_544
Ag0_5 K1_0 3.975598 1_555
Ag0_5 K1_1 3.975598 1_555
Ag0_5 K0_7 3.975598 1_545
Ag0_5 K0_6 3.975598 1_545
Ag0_5 K1_4 3.975603 1_555
Ag0_5 K0_5 3.975603 1_555
Ag0_5 K0_2 3.975603 1_545
Ag0_5 K0_4 3.975603 1_555
Ag0_5 K1_5 3.975603 1_555
Ag0_5 K0_3 3.975603 1_545
Ag0_5 K1_2 3.975603 1_545
Ag0_5 K1_3 3.975603 1_545
Ag0_6 Ag0_7 3.915900 1_555
Ag0_6 Ag0_7 3.915900 1_554
Ag0_6 K0_4 3.975598 1_555
Ag0_6 K1_2 3.975598 1_555
Ag0_6 K0_5 3.975598 1_554
Ag0_6 K1_3 3.975598 1_554
Ag0_6 K0_6 3.975603 1_555
Ag0_6 K0_7 3.975603 1_554
Ag0_6 K1_6 3.975603 1_555
Ag0_6 K1_0 3.975603 1_555
Ag0_6 K0_0 3.975603 1_555
Ag0_6 K1_7 3.975603 1_554
Ag0_6 K1_1 3.975603 1_554
Ag0_6 K0_1 3.975603 1_554
Ag0_7 K0_4 3.975598 1_555
Ag0_7 K0_5 3.975598 1_555
Ag0_7 K1_2 3.975598 1_555
Ag0_7 K1_3 3.975598 1_555
Ag0_7 K0_7 3.975603 1_555
Ag0_7 K0_6 3.975603 1_555
Ag0_7 K1_6 3.975603 1_555
Ag0_7 K1_7 3.975603 1_555
Ag0_7 K1_1 3.975603 1_555
Ag0_7 K1_0 3.975603 1_555
Ag0_7 K0_0 3.975603 1_555
Ag0_7 K0_1 3.975603 1_555
