# generated using pymatgen
data_MgSi2
_symmetry_space_group_name_H-M   'P 1'
_cell_length_a   5.46613326
_cell_length_b   5.46613326
_cell_length_c   5.46613326
_cell_angle_alpha   136.79785488
_cell_angle_beta   107.53159006
_cell_angle_gamma   88.27086122
_symmetry_Int_Tables_number   1
_chemical_formula_structural   MgSi2
_chemical_formula_sum   'Mg2 Si4'
_cell_volume   102.02532980
_cell_formula_units_Z   2
loop_
 _symmetry_equiv_pos_site_id
 _symmetry_equiv_pos_as_xyz
  1  'x, y, z'
loop_
 _atom_site_type_symbol
 _atom_site_label
 _atom_site_symmetry_multiplicity
 _atom_site_fract_x
 _atom_site_fract_y
 _atom_site_fract_z
 _atom_site_occupancy
  Mg  Mg0  1  0.82898200  0.57898200  0.25000000  1
  Mg  Mg1  1  0.17101800  0.42101800  0.75000000  1
  Si  Si0  1  0.21090000  0.14981000  0.06109000  1
  Si  Si1  1  0.78910000  0.85019000  0.93891000  1
  Si  Si2  1  0.58872100  0.14981000  0.43891000  1
  Si  Si3  1  0.41127900  0.85019000  0.56109000  1
loop_
_geom_bond_atom_site_label_1
_geom_bond_atom_site_label_2
_geom_bond_distance
_geom_bond_site_symmetry_2
Mg0 Si2 2.898150 1_565
Mg0 Si2 2.898153 1_554
Mg0 Si0 2.898153 1_655
Mg0 Si0 2.898153 1_666
Mg0 Si3 2.927291 1_655
Mg0 Si1 2.927296 1_554
Mg0 Si1 2.960066 1_544
Mg0 Si1 2.960066 1_555
Mg0 Si3 2.960069 1_544
Mg0 Si3 2.960071 1_555
Mg0 Mg1 3.354291 1_654
Mg0 Mg1 3.354291 1_665
Mg0 Mg1 3.460521 1_554
Mg0 Mg1 3.460521 1_655
Mg1 Si3 2.898150 1_545
Mg1 Si3 2.898153 1_556
Mg1 Si1 2.898153 1_444
Mg1 Si1 2.898153 1_455
Mg1 Si2 2.927291 1_455
Mg1 Si0 2.927296 1_556
Mg1 Si0 2.960066 1_566
Mg1 Si0 2.960066 1_555
Mg1 Si2 2.960069 1_566
Mg1 Si2 2.960071 1_555
Si0 Si2 2.441447 1_555
Si0 Si1 2.479868 1_444
Si0 Si3 2.553657 1_544
Si0 Si3 2.553660 1_555
Si1 Si3 2.441447 1_555
Si1 Si2 2.553657 1_566
Si1 Si2 2.553660 1_555
Si2 Si3 2.479873 1_545
