# generated using pymatgen
data_Al2NiO4
_symmetry_space_group_name_H-M   'P 1'
_cell_length_a   5.75274380
_cell_length_b   5.88877329
_cell_length_c   8.04901706
_cell_angle_alpha   89.98387882
_cell_angle_beta   89.99767704
_cell_angle_gamma   90.00761612
_symmetry_Int_Tables_number   1
_chemical_formula_structural   Al2NiO4
_chemical_formula_sum   'Al8 Ni4 O16'
_cell_volume   272.67335025
_cell_formula_units_Z   4
loop_
 _symmetry_equiv_pos_site_id
 _symmetry_equiv_pos_as_xyz
  1  'x, y, z'
loop_
 _atom_site_type_symbol
 _atom_site_label
 _atom_site_symmetry_multiplicity
 _atom_site_fract_x
 _atom_site_fract_y
 _atom_site_fract_z
 _atom_site_occupancy
  Al  Al0  1  0.50000700  0.00038100  0.49994900  1
  Al  Al1  1  0.00005100  0.49959500  0.00002900  1
  Al  Al2  1  0.25001100  0.74961200  0.74985600  1
  Al  Al3  1  0.74999300  0.25044400  0.25011300  1
  Al  Al4  1  0.99997500  0.00038500  0.49999200  1
  Al  Al5  1  0.50004600  0.49960400  0.00001900  1
  Al  Al6  1  0.25001600  0.24960000  0.75018500  1
  Al  Al7  1  0.74999300  0.75042800  0.24988400  1
  Ni  Ni0  1  0.24992600  0.50023300  0.38182500  1
  Ni  Ni1  1  0.24963300  0.99898500  0.11825800  1
  Ni  Ni2  1  0.75007500  0.99958200  0.88157800  1
  Ni  Ni3  1  0.75016400  0.50086100  0.61829700  1
  O  O0  1  0.25000300  0.21598600  0.51226400  1
  O  O1  1  0.75008000  0.71562600  0.01203000  1
  O  O2  1  0.74997300  0.78484800  0.48760900  1
  O  O3  1  0.25001100  0.28360300  0.98806700  1
  O  O4  1  0.02857200  0.99954200  0.73943200  1
  O  O5  1  0.52850200  0.50037100  0.23948100  1
  O  O6  1  0.97143600  0.00052500  0.26057800  1
  O  O7  1  0.47144800  0.49960600  0.76056400  1
  O  O8  1  0.47139600  0.99956200  0.73941100  1
  O  O9  1  0.97151200  0.50038900  0.23946300  1
  O  O10  1  0.24994100  0.78452100  0.51209100  1
  O  O11  1  0.75001700  0.28402100  0.01223100  1
  O  O12  1  0.75003900  0.21644500  0.48809800  1
  O  O13  1  0.25006400  0.71515600  0.98759100  1
  O  O14  1  0.52851500  0.00050600  0.26052500  1
  O  O15  1  0.02860500  0.49958300  0.76058300  1
loop_
_geom_bond_atom_site_label_1
_geom_bond_atom_site_label_2
_geom_bond_distance
_geom_bond_site_symmetry_2
Al0 O2 1.920718 1_545
Al0 O0 1.921152 1_555
Al0 O10 1.922051 1_545
Al0 O12 1.922582 1_555
Al0 O14 1.934087 1_555
Al0 O8 1.934447 1_545
Al1 O13 1.920781 1_554
Al1 O11 1.920824 1_455
Al1 O3 1.922325 1_554
Al1 O1 1.922540 1_455
Al1 O9 1.934189 1_455
Al1 O15 1.934286 1_554
Al2 O13 1.924204 1_555
Al2 O10 1.924726 1_555
Al2 O8 1.948066 1_555
Al2 O4 1.948433 1_555
Al2 O15 1.948595 1_555
Al2 O7 1.948863 1_555
Al3 O11 1.924843 1_555
Al3 O12 1.925924 1_555
Al3 O14 1.948351 1_555
Al3 O6 1.948413 1_555
Al3 O9 1.948619 1_555
Al3 O5 1.948688 1_555
Al4 O2 1.920660 1_545
Al4 O0 1.920975 1_655
Al4 O10 1.921877 1_645
Al4 O12 1.922429 1_555
Al4 O6 1.934035 1_555
Al4 O4 1.934277 1_645
Al5 O11 1.920851 1_555
Al5 O13 1.920867 1_554
Al5 O3 1.922431 1_554
Al5 O1 1.922533 1_555
Al5 O5 1.934386 1_555
Al5 O7 1.934393 1_554
Al6 O3 1.925214 1_555
Al6 O0 1.925289 1_555
Al6 O7 1.948509 1_555
Al6 O15 1.948586 1_555
Al6 O8 1.948847 1_545
Al6 O4 1.948918 1_545
Al7 O2 1.924215 1_555
Al7 O1 1.925486 1_555
Al7 O5 1.948966 1_555
Al7 O6 1.949066 1_565
Al7 O9 1.949249 1_555
Al7 O14 1.949346 1_565
Ni0 O9 1.969376 1_455
Ni0 O5 1.969974 1_555
Ni0 O10 1.975602 1_555
Ni0 O0 1.975637 1_555
Ni1 O6 1.968112 1_465
Ni1 O14 1.971143 1_565
Ni1 O13 1.975031 1_554
Ni1 O3 1.976430 1_564
Ni2 O4 1.968678 1_655
Ni2 O8 1.969704 1_555
Ni2 O1 1.974241 1_556
Ni2 O11 1.978011 1_566
Ni3 O15 1.969160 1_655
Ni3 O7 1.970281 1_555
Ni3 O2 1.975407 1_555
Ni3 O12 1.975955 1_555
