# generated using pymatgen
data_SrWO2
_symmetry_space_group_name_H-M   'P 1'
_cell_length_a   6.56490400
_cell_length_b   6.56490400
_cell_length_c   7.71016763
_cell_angle_alpha   115.19689795
_cell_angle_beta   115.19689795
_cell_angle_gamma   90.00000000
_symmetry_Int_Tables_number   1
_chemical_formula_structural   SrWO2
_chemical_formula_sum   'Sr4 W4 O8'
_cell_volume   265.31585352
_cell_formula_units_Z   4
loop_
 _symmetry_equiv_pos_site_id
 _symmetry_equiv_pos_as_xyz
  1  'x, y, z'
loop_
 _atom_site_type_symbol
 _atom_site_label
 _atom_site_symmetry_multiplicity
 _atom_site_fract_x
 _atom_site_fract_y
 _atom_site_fract_z
 _atom_site_occupancy
  Sr  Sr0  1  0.62500000  0.87500000  0.25000000  1
  Sr  Sr1  1  0.62500000  0.37500000  0.25000000  1
  Sr  Sr2  1  0.62500000  0.37500000  0.75000000  1
  Sr  Sr3  1  0.12500000  0.37500000  0.75000000  1
  W  W0  1  0.12500000  0.37500000  0.25000000  1
  W  W1  1  0.12500000  0.87500000  0.25000000  1
  W  W2  1  0.12500000  0.87500000  0.75000000  1
  W  W3  1  0.62500000  0.87500000  0.75000000  1
  O  O0  1  0.37929400  0.16726000  0.33451000  1
  O  O1  1  0.95521600  0.16725000  0.33451000  1
  O  O2  1  0.41725000  0.12929400  0.83451000  1
  O  O3  1  0.87070600  0.58274000  0.16549000  1
  O  O4  1  0.41726000  0.70521600  0.83451000  1
  O  O5  1  0.29478400  0.58275000  0.16549000  1
  O  O6  1  0.83275000  0.62070600  0.66549000  1
  O  O7  1  0.83274000  0.04478400  0.66549000  1
loop_
_geom_bond_atom_site_label_1
_geom_bond_atom_site_label_2
_geom_bond_distance
_geom_bond_site_symmetry_2
O0 W0 2.214020 1_555
O0 W1 2.214069 1_545
O0 Sr1 2.556937 1_555
O0 Sr0 2.556979 1_545
O0 Sr2 2.569914 1_555
O1 W1 2.214020 1_645
O1 W0 2.214069 1_655
O1 Sr0 2.556937 1_545
O1 Sr1 2.556979 1_555
O1 Sr3 2.569914 1_655
O2 W2 2.214020 1_545
O2 W3 2.214069 1_545
O2 Sr3 2.556937 1_555
O2 Sr2 2.556979 1_555
O2 Sr1 2.569914 1_556
O3 W0 2.214020 1_655
O3 W1 2.214069 1_655
O3 Sr1 2.556937 1_555
O3 Sr0 2.556979 1_555
O3 Sr2 2.569914 1_554
O4 W3 2.214020 1_555
O4 W2 2.214069 1_555
O4 Sr2 2.556937 1_555
O4 Sr3 2.556979 1_555
O4 Sr0 2.569914 1_556
O5 W1 2.214020 1_555
O5 W0 2.214069 1_555
O5 Sr0 2.556937 1_555
O5 Sr1 2.556979 1_555
O5 Sr3 2.569914 1_554
O6 W2 2.214020 1_655
O6 W3 2.214069 1_555
O6 Sr3 2.556937 1_655
O6 Sr2 2.556979 1_555
O6 Sr1 2.569914 1_555
O7 W3 2.214020 1_545
O7 W2 2.214069 1_645
O7 Sr2 2.556937 1_555
O7 Sr3 2.556979 1_655
O7 Sr0 2.569914 1_545
