# generated using pymatgen
data_Mg(AlH4)2
_symmetry_space_group_name_H-M   'P 1'
_cell_length_a   4.61868900
_cell_length_b   4.79623988
_cell_length_c   6.46489572
_cell_angle_alpha   81.07897965
_cell_angle_beta   75.54992692
_cell_angle_gamma   62.79813717
_symmetry_Int_Tables_number   1
_chemical_formula_structural   Mg(AlH4)2
_chemical_formula_sum   'Mg1 Al2 H8'
_cell_volume   123.20421410
_cell_formula_units_Z   1
loop_
 _symmetry_equiv_pos_site_id
 _symmetry_equiv_pos_as_xyz
  1  'x, y, z'
loop_
 _atom_site_type_symbol
 _atom_site_label
 _atom_site_symmetry_multiplicity
 _atom_site_fract_x
 _atom_site_fract_y
 _atom_site_fract_z
 _atom_site_occupancy
  Mg  Mg0  1  0.00000000  0.00000000  0.00000000  1
  Al  Al0  1  0.41781300  0.36900000  0.70399500  1
  Al  Al1  1  0.58218700  0.63100000  0.29600500  1
  H  H0  1  0.35833200  0.06258100  0.83599600  1
  H  H1  1  0.07936200  0.66850600  0.80807500  1
  H  H2  1  0.74608800  0.31167000  0.79279900  1
  H  H3  1  0.53437600  0.71154100  0.53028300  1
  H  H4  1  0.46562400  0.28845900  0.46971700  1
  H  H5  1  0.25391200  0.68833000  0.20720100  1
  H  H6  1  0.90598300  0.33190300  0.18201300  1
  H  H7  1  0.62617400  0.93714300  0.15370500  1
loop_
_geom_bond_atom_site_label_1
_geom_bond_atom_site_label_2
_geom_bond_distance
_geom_bond_site_symmetry_2
Al0 H4 1.558364 1_555
Al0 H1 1.637599 1_555
Al0 H2 1.645715 1_555
Al0 H0 1.681300 1_555
Al0 H3 2.045694 1_555
Al1 H3 1.558364 1_555
Al1 H6 1.629106 1_555
Al1 H5 1.645715 1_555
Al1 H7 1.674547 1_555
Al1 H4 2.045694 1_555
H0 Mg0 1.852855 1_556
H1 Mg0 2.013401 1_566
H2 Mg0 1.991094 1_656
H5 Mg0 1.991094 1_565
H6 Mg0 1.949677 1_655
H7 Mg0 1.893708 1_665
