# generated using pymatgen
data_Sr2FeCoO6
_symmetry_space_group_name_H-M   'P 1'
_cell_length_a   5.53192981
_cell_length_b   5.52499566
_cell_length_c   9.51337194
_cell_angle_alpha   74.22535652
_cell_angle_beta   89.32916808
_cell_angle_gamma   120.57864235
_symmetry_Int_Tables_number   1
_chemical_formula_structural   Sr2FeCoO6
_chemical_formula_sum   'Sr4 Fe2 Co2 O12'
_cell_volume   236.92014550
_cell_formula_units_Z   2
loop_
 _symmetry_equiv_pos_site_id
 _symmetry_equiv_pos_as_xyz
  1  'x, y, z'
loop_
 _atom_site_type_symbol
 _atom_site_label
 _atom_site_symmetry_multiplicity
 _atom_site_fract_x
 _atom_site_fract_y
 _atom_site_fract_z
 _atom_site_occupancy
  Sr  Sr0  1  0.62451000  0.25190300  0.12337800  1
  Sr  Sr1  1  0.12416700  0.24684000  0.62889300  1
  Sr  Sr2  1  0.87742900  0.74581400  0.37637500  1
  Sr  Sr3  1  0.37130500  0.75338400  0.87536000  1
  Fe  Fe0  1  0.49936000  0.99733600  0.50298400  1
  Fe  Fe1  1  0.99686200  0.00413500  0.99883800  1
  Co  Co0  1  0.74740800  0.50085700  0.75145500  1
  Co  Co1  1  0.25275700  0.48859400  0.25813000  1
  O  O0  1  0.13028400  0.26597000  0.12686800  1
  O  O1  1  0.63269000  0.25603600  0.62871700  1
  O  O2  1  0.38102700  0.24248500  0.37632200  1
  O  O3  1  0.87232400  0.25221300  0.87579400  1
  O  O4  1  0.60816700  0.74344800  0.12648000  1
  O  O5  1  0.11627200  0.73924100  0.62810800  1
  O  O6  1  0.37375000  0.74119500  0.37093900  1
  O  O7  1  0.87588300  0.74714800  0.86626000  1
  O  O8  1  0.11305800  0.76537800  0.12209900  1
  O  O9  1  0.62946900  0.74532200  0.62478400  1
  O  O10  1  0.88705300  0.25488500  0.37124800  1
  O  O11  1  0.38622400  0.25781500  0.86697000  1
loop_
_geom_bond_atom_site_label_1
_geom_bond_atom_site_label_2
_geom_bond_distance
_geom_bond_site_symmetry_2
Fe0 O2 1.936030 1_565
Fe0 O5 1.970988 1_555
Fe0 O1 1.973659 1_565
Fe0 O9 1.990320 1_555
Fe0 O6 2.012483 1_555
Fe0 O10 2.014341 1_565
Fe1 O8 1.888826 1_646
Fe1 O3 1.957236 1_555
Fe1 O4 2.002359 1_546
Fe1 O0 2.003434 1_656
Fe1 O7 2.020222 1_545
Fe1 O11 2.021580 1_655
Co0 O7 1.841709 1_555
Co0 O11 1.849175 1_555
Co0 O1 1.896967 1_555
Co0 O5 1.909094 1_655
Co0 O9 1.931887 1_555
Co0 O3 1.966066 1_555
Co1 O6 1.851554 1_555
Co1 O10 1.858441 1_455
Co1 O0 1.881044 1_555
Co1 O4 1.893046 1_555
Co1 O2 1.945712 1_555
Co1 O8 2.181818 1_555
O0 O4 2.616661 1_555
O0 O10 2.642871 1_455
O0 Sr3 2.742899 1_554
O0 Sr0 2.760028 1_455
O0 Sr0 2.774437 1_555
O0 Sr2 2.823685 1_445
O1 O11 2.636258 1_555
O1 O5 2.647370 1_655
O1 Sr1 2.745023 1_655
O1 Sr2 2.753706 1_555
O1 Sr3 2.756968 1_545
O1 Sr1 2.787582 1_555
O2 Sr0 2.718854 1_555
O2 Sr2 2.739583 1_555
O2 Sr2 2.740866 1_445
O2 Sr1 2.789150 1_555
O3 Sr0 2.710510 1_556
O3 Sr1 2.731728 1_655
O3 Sr3 2.739263 1_655
O3 Sr3 2.740821 1_545
O4 O6 2.643399 1_555
O4 Sr3 2.739051 1_554
O4 Sr0 2.756297 1_565
O4 Sr0 2.770894 1_555
O4 Sr2 2.819692 1_555
O5 Sr1 2.740987 1_555
O5 Sr2 2.749161 1_455
O5 Sr3 2.755876 1_555
O5 Sr1 2.784575 1_565
O6 Sr2 2.758695 1_455
O6 Sr2 2.774641 1_555
O6 Sr0 2.785791 1_565
O6 Sr1 2.797862 1_555
O7 Sr1 2.699522 1_665
O7 Sr3 2.725966 1_655
O7 Sr0 2.795331 1_556
O7 Sr3 2.809590 1_555
O8 Sr2 2.683853 1_455
O8 Sr0 2.740691 1_565
O8 Sr0 2.744468 1_455
O8 Sr3 2.767234 1_554
O9 Sr2 2.717189 1_555
O9 Sr1 2.739783 1_555
O9 Sr1 2.741303 1_665
O9 Sr3 2.786921 1_555
O10 Sr2 2.753364 1_555
O10 Sr2 2.772907 1_545
O10 Sr0 2.783372 1_555
O10 Sr1 2.793860 1_655
O11 Sr1 2.701335 1_555
O11 Sr3 2.724942 1_545
O11 Sr0 2.786513 1_556
O11 Sr3 2.803301 1_555
