# generated using pymatgen
data_Li9Mn2Co5O16
_symmetry_space_group_name_H-M   'P 1'
_cell_length_a   5.17697300
_cell_length_b   5.83961056
_cell_length_c   9.74727571
_cell_angle_alpha   90.04355566
_cell_angle_beta   100.49295227
_cell_angle_gamma   90.29146392
_symmetry_Int_Tables_number   1
_chemical_formula_structural   Li9Mn2Co5O16
_chemical_formula_sum   'Li9 Mn2 Co5 O16'
_cell_volume   289.74289675
_cell_formula_units_Z   1
loop_
 _symmetry_equiv_pos_site_id
 _symmetry_equiv_pos_as_xyz
  1  'x, y, z'
loop_
 _atom_site_type_symbol
 _atom_site_label
 _atom_site_symmetry_multiplicity
 _atom_site_fract_x
 _atom_site_fract_y
 _atom_site_fract_z
 _atom_site_occupancy
  Li  Li0  1  0.50090700  0.74877800  0.00019800  1
  Li  Li1  1  0.74359100  0.49209200  0.26259200  1
  Li  Li2  1  0.49909300  0.25122200  0.99980200  1
  Li  Li3  1  0.75410900  0.99950600  0.26051000  1
  Li  Li4  1  0.24589100  0.00049400  0.73949000  1
  Li  Li5  1  0.25640900  0.50790800  0.73740800  1
  Li  Li6  1  0.99646500  0.25362900  0.50032800  1
  Li  Li7  1  0.00353500  0.74637100  0.49967200  1
  Li  Li8  1  0.50000000  0.50000000  0.50000000  1
  Mn  Mn0  1  0.00000000  0.00000000  0.00000000  1
  Mn  Mn1  1  0.00000000  0.50000000  0.00000000  1
  Co  Co0  1  0.26917900  0.74756900  0.26172300  1
  Co  Co1  1  0.73082100  0.25243100  0.73827700  1
  Co  Co2  1  0.25177800  0.25658200  0.26174000  1
  Co  Co3  1  0.50000000  0.00000000  0.50000000  1
  Co  Co4  1  0.74822200  0.74341800  0.73826000  1
  O  O0  1  0.66194700  0.99232100  0.87617700  1
  O  O1  1  0.89855200  0.75092500  0.11253900  1
  O  O2  1  0.65529200  0.49938900  0.87914500  1
  O  O3  1  0.88815400  0.25061600  0.10886500  1
  O  O4  1  0.39569100  0.25054800  0.63403300  1
  O  O5  1  0.39411500  0.76762300  0.62302100  1
  O  O6  1  0.11985700  0.49304000  0.36007200  1
  O  O7  1  0.13363800  0.99655500  0.37244800  1
  O  O8  1  0.34470800  0.50061100  0.12085500  1
  O  O9  1  0.60588500  0.23237700  0.37697900  1
  O  O10  1  0.33805300  0.00767900  0.12382300  1
  O  O11  1  0.60430900  0.74945200  0.36596700  1
  O  O12  1  0.11184600  0.74938400  0.89113500  1
  O  O13  1  0.10144800  0.24907500  0.88746100  1
  O  O14  1  0.86636200  0.00344500  0.62755200  1
  O  O15  1  0.88014300  0.50696000  0.63992800  1
loop_
_geom_bond_atom_site_label_1
_geom_bond_atom_site_label_2
_geom_bond_distance
_geom_bond_site_symmetry_2
Li0 O12 2.099322 1_554
Li0 O8 2.115251 1_555
Li0 O2 2.122423 1_554
Li0 O0 2.129951 1_554
Li0 O1 2.148422 1_555
Li0 O10 2.197466 1_565
Li1 O6 2.005737 1_655
Li1 O11 2.016741 1_555
Li1 O9 2.081496 1_555
Li1 O8 2.266593 1_555
Li1 O3 2.282497 1_555
Li1 O1 2.342172 1_555
Li2 O3 2.099322 1_556
Li2 O2 2.115251 1_555
Li2 O8 2.122423 1_556
Li2 O10 2.129951 1_556
Li2 O13 2.148422 1_555
Li2 O0 2.197466 1_545
Li3 O9 2.013072 1_565
Li3 O11 2.017766 1_555
Li3 O7 2.066592 1_655
Li3 O1 2.268771 1_555
Li3 O3 2.276675 1_565
Li3 O10 2.317889 1_565
Li4 O5 2.013072 1_545
Li4 O4 2.017766 1_555
Li4 O14 2.066592 1_455
Li4 O13 2.268771 1_555
Li4 O12 2.276675 1_545
Li4 O0 2.317889 1_545
Li5 O15 2.005737 1_455
Li5 O4 2.016741 1_555
Li5 O5 2.081496 1_555
Li5 O2 2.266593 1_555
Li5 O12 2.282497 1_555
Li5 O13 2.342172 1_555
Li6 O14 2.103067 1_555
Li6 O6 2.131562 1_655
Li6 O7 2.154545 1_645
Li6 O9 2.159000 1_555
Li6 O15 2.169596 1_555
Li6 O4 2.233773 1_655
Li7 O7 2.103067 1_555
Li7 O15 2.131562 1_455
Li7 O14 2.154545 1_465
Li7 O5 2.159000 1_555
Li7 O6 2.169596 1_555
Li7 O11 2.233773 1_455
Li8 O11 2.090997 1_555
Li8 O4 2.090997 1_555
Li8 O5 2.103815 1_555
Li8 O9 2.103815 1_555
Li8 O15 2.180906 1_555
Li8 O6 2.180906 1_555
Mn0 O10 1.936828 1_555
Mn0 O0 1.936828 1_444
Mn0 O1 1.949151 1_445
Mn0 O13 1.949151 1_554
Mn0 O3 1.957847 1_455
Mn0 O12 1.957847 1_544
Mn1 O3 1.949274 1_455
Mn1 O12 1.949274 1_554
Mn1 O8 1.951039 1_555
Mn1 O2 1.951039 1_454
Mn1 O1 1.959965 1_455
Mn1 O13 1.959965 1_554
Co0 O11 1.844003 1_555
Co0 O6 1.996546 1_555
Co0 O7 2.013723 1_555
Co0 O8 2.077565 1_555
Co0 O10 2.100764 1_565
Co0 O1 2.186459 1_455
Co1 O4 1.844003 1_555
Co1 O15 1.996546 1_555
Co1 O14 2.013723 1_555
Co1 O2 2.077565 1_555
Co1 O0 2.100764 1_545
Co1 O13 2.186459 1_655
Co2 O6 1.880893 1_555
Co2 O9 1.973627 1_555
Co2 O7 2.019322 1_545
Co2 O10 2.083663 1_555
Co2 O8 2.093946 1_555
Co2 O3 2.177822 1_455
Co3 O5 1.952976 1_545
Co3 O9 1.952976 1_555
Co3 O14 2.069812 1_555
Co3 O7 2.069812 1_545
Co3 O11 2.097903 1_545
Co3 O4 2.097903 1_555
Co4 O15 1.880893 1_555
Co4 O5 1.973627 1_555
Co4 O14 2.019322 1_565
Co4 O0 2.083663 1_555
Co4 O2 2.093946 1_555
Co4 O12 2.177822 1_655
