# generated using pymatgen
data_MnAl
_symmetry_space_group_name_H-M   'P 1'
_cell_length_a   5.89579600
_cell_length_b   5.89579600
_cell_length_c   5.89579600
_cell_angle_alpha   90.00000000
_cell_angle_beta   90.00000000
_cell_angle_gamma   90.00000000
_symmetry_Int_Tables_number   1
_chemical_formula_structural   MnAl
_chemical_formula_sum   'Mn8 Al8'
_cell_volume   204.94028903
_cell_formula_units_Z   8
loop_
 _symmetry_equiv_pos_site_id
 _symmetry_equiv_pos_as_xyz
  1  'x, y, z'
loop_
 _atom_site_type_symbol
 _atom_site_label
 _atom_site_symmetry_multiplicity
 _atom_site_fract_x
 _atom_site_fract_y
 _atom_site_fract_z
 _atom_site_occupancy
  Mn  Mn0_0  1  0.25000000  0.25000000  0.25000000  1
  Mn  Mn0_1  1  0.25000000  0.25000000  0.75000000  1
  Mn  Mn0_2  1  0.25000000  0.75000000  0.25000000  1
  Mn  Mn0_3  1  0.25000000  0.75000000  0.75000000  1
  Mn  Mn0_4  1  0.75000000  0.25000000  0.25000000  1
  Mn  Mn0_5  1  0.75000000  0.25000000  0.75000000  1
  Mn  Mn0_6  1  0.75000000  0.75000000  0.25000000  1
  Mn  Mn0_7  1  0.75000000  0.75000000  0.75000000  1
  Al  Al0_0  1  0.00000000  0.00000000  0.00000000  1
  Al  Al0_1  1  0.00000000  0.00000000  0.50000000  1
  Al  Al0_2  1  0.00000000  0.50000000  0.00000000  1
  Al  Al0_3  1  0.00000000  0.50000000  0.50000000  1
  Al  Al0_4  1  0.50000000  0.00000000  0.00000000  1
  Al  Al0_5  1  0.50000000  0.00000000  0.50000000  1
  Al  Al0_6  1  0.50000000  0.50000000  0.00000000  1
  Al  Al0_7  1  0.50000000  0.50000000  0.50000000  1
loop_
_geom_bond_atom_site_label_1
_geom_bond_atom_site_label_2
_geom_bond_distance
_geom_bond_site_symmetry_2
Mn0_0 Mn0_2 2.947898 1_555
Mn0_0 Mn0_1 2.947898 1_554
Mn0_0 Mn0_2 2.947898 1_545
Mn0_0 Mn0_4 2.947898 1_455
Mn0_0 Mn0_4 2.947898 1_555
Mn0_0 Mn0_1 2.947898 1_555
Mn0_1 Mn0_3 2.947898 1_555
Mn0_1 Mn0_5 2.947898 1_455
Mn0_1 Mn0_3 2.947898 1_545
Mn0_1 Mn0_5 2.947898 1_555
Mn0_2 Mn0_3 2.947898 1_554
Mn0_2 Mn0_6 2.947898 1_455
Mn0_2 Mn0_3 2.947898 1_555
Mn0_2 Mn0_6 2.947898 1_555
Mn0_3 Mn0_7 2.947898 1_455
Mn0_3 Mn0_7 2.947898 1_555
Mn0_4 Mn0_6 2.947898 1_555
Mn0_4 Mn0_5 2.947898 1_554
Mn0_4 Mn0_6 2.947898 1_545
Mn0_4 Mn0_5 2.947898 1_555
Mn0_5 Mn0_7 2.947898 1_545
Mn0_5 Mn0_7 2.947898 1_555
Mn0_6 Mn0_7 2.947898 1_554
Mn0_6 Mn0_7 2.947898 1_555
Al0_0 Mn0_4 2.552955 1_455
Al0_0 Mn0_7 2.552955 1_444
Al0_0 Mn0_3 2.552955 1_544
Al0_0 Mn0_6 2.552955 1_445
Al0_0 Mn0_5 2.552955 1_454
Al0_0 Mn0_1 2.552955 1_554
Al0_0 Mn0_0 2.552955 1_555
Al0_0 Mn0_2 2.552955 1_545
Al0_0 Al0_2 2.947898 1_555
Al0_0 Al0_2 2.947898 1_545
Al0_0 Al0_1 2.947898 1_554
Al0_0 Al0_4 2.947898 1_555
Al0_0 Al0_1 2.947898 1_555
Al0_0 Al0_4 2.947898 1_455
Al0_1 Mn0_4 2.552955 1_455
Al0_1 Mn0_6 2.552955 1_445
Al0_1 Mn0_5 2.552955 1_455
Al0_1 Mn0_7 2.552955 1_445
Al0_1 Mn0_3 2.552955 1_545
Al0_1 Mn0_1 2.552955 1_555
Al0_1 Mn0_0 2.552955 1_555
Al0_1 Mn0_2 2.552955 1_545
Al0_1 Al0_5 2.947898 1_455
Al0_1 Al0_3 2.947898 1_555
Al0_1 Al0_3 2.947898 1_545
Al0_1 Al0_5 2.947898 1_555
Al0_2 Mn0_4 2.552955 1_455
Al0_2 Mn0_7 2.552955 1_454
Al0_2 Mn0_3 2.552955 1_554
Al0_2 Mn0_2 2.552955 1_555
Al0_2 Mn0_1 2.552955 1_554
Al0_2 Mn0_5 2.552955 1_454
Al0_2 Mn0_6 2.552955 1_455
Al0_2 Mn0_0 2.552955 1_555
Al0_2 Al0_3 2.947898 1_555
Al0_2 Al0_6 2.947898 1_555
Al0_2 Al0_3 2.947898 1_554
Al0_2 Al0_6 2.947898 1_455
Al0_3 Mn0_4 2.552955 1_455
Al0_3 Mn0_5 2.552955 1_455
Al0_3 Mn0_1 2.552955 1_555
Al0_3 Mn0_2 2.552955 1_555
Al0_3 Mn0_6 2.552955 1_455
Al0_3 Mn0_3 2.552955 1_555
Al0_3 Mn0_0 2.552955 1_555
Al0_3 Mn0_7 2.552955 1_455
Al0_3 Al0_7 2.947898 1_555
Al0_3 Al0_7 2.947898 1_455
Al0_4 Mn0_5 2.552955 1_554
Al0_4 Mn0_3 2.552955 1_544
Al0_4 Mn0_4 2.552955 1_555
Al0_4 Mn0_7 2.552955 1_544
Al0_4 Mn0_6 2.552955 1_545
Al0_4 Mn0_1 2.552955 1_554
Al0_4 Mn0_0 2.552955 1_555
Al0_4 Mn0_2 2.552955 1_545
Al0_4 Al0_6 2.947898 1_545
Al0_4 Al0_6 2.947898 1_555
Al0_4 Al0_5 2.947898 1_554
Al0_4 Al0_5 2.947898 1_555
Al0_5 Mn0_4 2.552955 1_555
Al0_5 Mn0_6 2.552955 1_545
Al0_5 Mn0_3 2.552955 1_545
Al0_5 Mn0_1 2.552955 1_555
Al0_5 Mn0_5 2.552955 1_555
Al0_5 Mn0_7 2.552955 1_545
Al0_5 Mn0_0 2.552955 1_555
Al0_5 Mn0_2 2.552955 1_545
Al0_5 Al0_7 2.947898 1_545
Al0_5 Al0_7 2.947898 1_555
Al0_6 Mn0_5 2.552955 1_554
Al0_6 Mn0_4 2.552955 1_555
Al0_6 Mn0_7 2.552955 1_554
Al0_6 Mn0_3 2.552955 1_554
Al0_6 Mn0_2 2.552955 1_555
Al0_6 Mn0_1 2.552955 1_554
Al0_6 Mn0_6 2.552955 1_555
Al0_6 Mn0_0 2.552955 1_555
Al0_6 Al0_7 2.947898 1_555
Al0_6 Al0_7 2.947898 1_554
Al0_7 Mn0_4 2.552955 1_555
Al0_7 Mn0_7 2.552955 1_555
Al0_7 Mn0_1 2.552955 1_555
Al0_7 Mn0_5 2.552955 1_555
Al0_7 Mn0_2 2.552955 1_555
Al0_7 Mn0_6 2.552955 1_555
Al0_7 Mn0_3 2.552955 1_555
Al0_7 Mn0_0 2.552955 1_555
