# generated using pymatgen
data_Ba3SmInS6
_symmetry_space_group_name_H-M   'P 1'
_cell_length_a   8.49706034
_cell_length_b   8.49706034
_cell_length_c   8.49706057
_cell_angle_alpha   92.56700764
_cell_angle_beta   92.56700764
_cell_angle_gamma   92.56700707
_symmetry_Int_Tables_number   1
_chemical_formula_structural   Ba3SmInS6
_chemical_formula_sum   'Ba6 Sm2 In2 S12'
_cell_volume   611.58406285
_cell_formula_units_Z   2
loop_
 _symmetry_equiv_pos_site_id
 _symmetry_equiv_pos_as_xyz
  1  'x, y, z'
loop_
 _atom_site_type_symbol
 _atom_site_label
 _atom_site_symmetry_multiplicity
 _atom_site_fract_x
 _atom_site_fract_y
 _atom_site_fract_z
 _atom_site_occupancy
  Ba  Ba0  1  0.86974700  0.63025300  0.25000000  1
  Ba  Ba1  1  0.25000000  0.86974700  0.63025300  1
  Ba  Ba2  1  0.63025300  0.25000000  0.86974700  1
  Ba  Ba3  1  0.75000000  0.13025300  0.36974700  1
  Ba  Ba4  1  0.36974700  0.75000000  0.13025300  1
  Ba  Ba5  1  0.13025300  0.36974700  0.75000000  1
  Sm  Sm0  1  0.25000000  0.25000000  0.25000000  1
  Sm  Sm1  1  0.75000000  0.75000000  0.75000000  1
  In  In0  1  0.50000000  0.50000000  0.50000000  1
  In  In1  1  0.00000000  0.00000000  0.00000000  1
  S  S0  1  0.19994500  0.54125900  0.41119800  1
  S  S1  1  0.41119800  0.19994500  0.54125900  1
  S  S2  1  0.54125900  0.41119800  0.19994500  1
  S  S3  1  0.91119800  0.04125900  0.69994500  1
  S  S4  1  0.69994500  0.91119800  0.04125900  1
  S  S5  1  0.04125900  0.69994500  0.91119800  1
  S  S6  1  0.80005500  0.45874100  0.58880200  1
  S  S7  1  0.58880200  0.80005500  0.45874100  1
  S  S8  1  0.45874100  0.58880200  0.80005500  1
  S  S9  1  0.08880200  0.95874100  0.30005500  1
  S  S10  1  0.30005500  0.08880200  0.95874100  1
  S  S11  1  0.95874100  0.30005500  0.08880200  1
loop_
_geom_bond_atom_site_label_1
_geom_bond_atom_site_label_2
_geom_bond_distance
_geom_bond_site_symmetry_2
Ba0 S0 3.202894 1_655
Ba0 S11 3.202894 1_555
Ba0 S9 3.285346 1_655
Ba0 S2 3.285346 1_555
Ba0 S6 3.348635 1_555
Ba0 S5 3.348635 1_654
Ba0 S7 3.374167 1_555
Ba0 S4 3.374167 1_555
Ba1 S1 3.202894 1_565
Ba1 S9 3.202894 1_555
Ba1 S0 3.285346 1_555
Ba1 S10 3.285346 1_565
Ba1 S3 3.348635 1_465
Ba1 S7 3.348635 1_555
Ba1 S8 3.374167 1_555
Ba1 S5 3.374167 1_555
Ba2 S10 3.202894 1_555
Ba2 S2 3.202894 1_556
Ba2 S11 3.285346 1_556
Ba2 S1 3.285346 1_555
Ba2 S8 3.348635 1_555
Ba2 S4 3.348635 1_546
Ba2 S3 3.374167 1_555
Ba2 S6 3.374167 1_555
Ba3 S7 3.202894 1_545
Ba3 S3 3.202894 1_555
Ba3 S6 3.285346 1_555
Ba3 S4 3.285346 1_545
Ba3 S9 3.348635 1_645
Ba3 S1 3.348635 1_555
Ba3 S2 3.374167 1_555
Ba3 S11 3.374167 1_555
Ba4 S4 3.202894 1_555
Ba4 S8 3.202894 1_554
Ba4 S5 3.285346 1_554
Ba4 S7 3.285346 1_555
Ba4 S2 3.348635 1_555
Ba4 S10 3.348635 1_564
Ba4 S9 3.374167 1_555
Ba4 S0 3.374167 1_555
Ba5 S5 3.202894 1_555
Ba5 S6 3.202894 1_455
Ba5 S8 3.285346 1_555
Ba5 S3 3.285346 1_455
Ba5 S11 3.348635 1_456
Ba5 S0 3.348635 1_555
Ba5 S10 3.374167 1_555
Ba5 S1 3.374167 1_555
In0 S6 2.669098 1_555
In0 S0 2.669098 1_555
In0 S7 2.669098 1_555
In0 S1 2.669098 1_555
In0 S8 2.669098 1_555
In0 S2 2.669098 1_555
In1 S11 2.669098 1_455
In1 S5 2.669098 1_544
In1 S10 2.669098 1_554
In1 S4 2.669098 1_445
In1 S9 2.669098 1_545
In1 S3 2.669098 1_454
S0 Sm0 2.832788 1_555
S1 Sm0 2.832788 1_555
S2 Sm0 2.832788 1_555
S3 Sm1 2.832788 1_545
S4 Sm1 2.832788 1_554
S5 Sm1 2.832788 1_455
S6 Sm1 2.832788 1_555
S7 Sm1 2.832788 1_555
S8 Sm1 2.832788 1_555
S9 Sm0 2.832788 1_565
S10 Sm0 2.832788 1_556
S11 Sm0 2.832788 1_655
