# generated using pymatgen
data_Nd3GdZr4O14
_symmetry_space_group_name_H-M   'P 1'
_cell_length_a   7.53064465
_cell_length_b   7.53064465
_cell_length_c   7.53064416
_cell_angle_alpha   59.75301876
_cell_angle_beta   59.75301876
_cell_angle_gamma   59.75301540
_symmetry_Int_Tables_number   1
_chemical_formula_structural   Nd3GdZr4O14
_chemical_formula_sum   'Nd3 Gd1 Zr4 O14'
_cell_volume   300.28864549
_cell_formula_units_Z   1
loop_
 _symmetry_equiv_pos_site_id
 _symmetry_equiv_pos_as_xyz
  1  'x, y, z'
loop_
 _atom_site_type_symbol
 _atom_site_label
 _atom_site_symmetry_multiplicity
 _atom_site_fract_x
 _atom_site_fract_y
 _atom_site_fract_z
 _atom_site_occupancy
  Nd  Nd0  1  0.00000000  0.50000000  0.50000000  1
  Nd  Nd1  1  0.50000000  0.50000000  0.00000000  1
  Nd  Nd2  1  0.50000000  0.00000000  0.50000000  1
  Gd  Gd0  1  0.50000000  0.50000000  0.50000000  1
  Zr  Zr0  1  0.00000000  0.00000000  0.00000000  1
  Zr  Zr1  1  0.50000000  0.00000000  0.00000000  1
  Zr  Zr2  1  0.00000000  0.00000000  0.50000000  1
  Zr  Zr3  1  0.00000000  0.50000000  0.00000000  1
  O  O0  1  0.12614700  0.12614700  0.12614700  1
  O  O1  1  0.87385300  0.87385300  0.87385300  1
  O  O2  1  0.87540500  0.37190400  0.37190400  1
  O  O3  1  0.36912600  0.88200800  0.88200800  1
  O  O4  1  0.37190400  0.37190400  0.87540500  1
  O  O5  1  0.88200800  0.88200800  0.36912600  1
  O  O6  1  0.88200800  0.36912600  0.88200800  1
  O  O7  1  0.37190400  0.87540500  0.37190400  1
  O  O8  1  0.12459500  0.62809600  0.62809600  1
  O  O9  1  0.63087400  0.11799200  0.11799200  1
  O  O10  1  0.62809600  0.62809600  0.12459500  1
  O  O11  1  0.11799200  0.11799200  0.63087400  1
  O  O12  1  0.11799200  0.63087400  0.11799200  1
  O  O13  1  0.62809600  0.12459500  0.62809600  1
loop_
_geom_bond_atom_site_label_1
_geom_bond_atom_site_label_2
_geom_bond_distance
_geom_bond_site_symmetry_2
Nd0 O12 2.342499 1_555
Nd0 O6 2.342499 1_455
Nd0 O5 2.342499 1_455
Nd0 O11 2.342499 1_555
Nd0 O8 2.345772 1_555
Nd0 O2 2.345772 1_455
Nd1 O12 2.342499 1_555
Nd1 O6 2.342499 1_554
Nd1 O3 2.342499 1_554
Nd1 O9 2.342499 1_555
Nd1 O10 2.345772 1_555
Nd1 O4 2.345772 1_554
Nd2 O9 2.342499 1_555
Nd2 O3 2.342499 1_545
Nd2 O5 2.342499 1_545
Nd2 O11 2.342499 1_555
Nd2 O13 2.345772 1_555
Nd2 O7 2.345772 1_545
Gd0 O4 2.301275 1_555
Gd0 O10 2.301275 1_555
Gd0 O13 2.301275 1_555
Gd0 O7 2.301275 1_555
Gd0 O8 2.301275 1_555
Gd0 O2 2.301275 1_555
O0 Zr2 2.291590 1_555
O0 Zr1 2.291590 1_555
O0 Zr3 2.291590 1_555
O0 Zr0 2.331271 1_555
O0 O3 2.595275 1_544
O0 O6 2.595275 1_454
O0 O5 2.595275 1_445
O0 O2 2.612485 1_455
O0 O7 2.612485 1_545
O0 O4 2.612485 1_554
O1 Zr2 2.291590 1_665
O1 Zr3 2.291590 1_656
O1 Zr1 2.291590 1_566
O1 Zr0 2.331271 1_666
O1 O12 2.595275 1_656
O1 O9 2.595275 1_566
O1 O11 2.595275 1_665
O1 O8 2.612485 1_655
O1 O13 2.612485 1_565
O1 O10 2.612485 1_556
O2 Zr3 2.279767 1_655
O2 Zr2 2.279767 1_655
O3 Zr1 2.260607 1_566
O3 Zr0 2.263792 1_566
O4 Zr3 2.279767 1_556
O4 Zr1 2.279767 1_556
O4 O8 2.629409 1_555
O4 O9 2.666480 1_556
O5 Zr2 2.260607 1_665
O5 Zr0 2.263792 1_665
O5 O8 2.666480 1_655
O5 O9 2.672610 1_565
O6 Zr3 2.260607 1_656
O6 Zr0 2.263792 1_656
O6 O8 2.666481 1_655
O6 O9 2.672610 1_556
O7 Zr1 2.279767 1_565
O7 Zr2 2.279767 1_565
O7 O8 2.629409 1_555
O7 O9 2.666481 1_565
O8 Zr3 2.279767 1_556
O8 Zr2 2.279767 1_565
O9 Zr1 2.260607 1_555
O9 Zr0 2.263792 1_655
O10 Zr1 2.279767 1_565
O10 Zr3 2.279767 1_655
O10 O7 2.629409 1_555
O10 O2 2.629409 1_555
O10 O6 2.666480 1_554
O10 O3 2.666480 1_554
O11 Zr2 2.260607 1_555
O11 Zr0 2.263792 1_556
O11 O2 2.666480 1_455
O11 O7 2.666480 1_545
O11 O6 2.672610 1_455
O11 O3 2.672610 1_545
O12 Zr3 2.260607 1_555
O12 Zr0 2.263792 1_565
O12 O4 2.666480 1_554
O12 O2 2.666481 1_455
O12 O5 2.672610 1_455
O12 O3 2.672610 1_554
O13 Zr1 2.279767 1_556
O13 Zr2 2.279767 1_655
O13 O4 2.629409 1_555
O13 O2 2.629409 1_555
O13 O5 2.666480 1_545
O13 O3 2.666481 1_545
