# generated using pymatgen
data_Sr4Al6SO16
_symmetry_space_group_name_H-M   'P 1'
_cell_length_a   8.15914229
_cell_length_b   8.15914229
_cell_length_c   8.15914229
_cell_angle_alpha   109.47122063
_cell_angle_beta   109.47122063
_cell_angle_gamma   109.47122063
_symmetry_Int_Tables_number   1
_chemical_formula_structural   Sr4Al6SO16
_chemical_formula_sum   'Sr4 Al6 S1 O16'
_cell_volume   418.13029125
_cell_formula_units_Z   1
loop_
 _symmetry_equiv_pos_site_id
 _symmetry_equiv_pos_as_xyz
  1  'x, y, z'
loop_
 _atom_site_type_symbol
 _atom_site_label
 _atom_site_symmetry_multiplicity
 _atom_site_fract_x
 _atom_site_fract_y
 _atom_site_fract_z
 _atom_site_occupancy
  Sr  Sr0  1  0.00000000  0.60732700  0.00000000  1
  Sr  Sr1  1  0.00000000  0.00000000  0.60732700  1
  Sr  Sr2  1  0.60732700  0.00000000  0.00000000  1
  Sr  Sr3  1  0.39267300  0.39267300  0.39267300  1
  Al  Al0  1  0.25000000  0.50000000  0.75000000  1
  Al  Al1  1  0.75000000  0.25000000  0.50000000  1
  Al  Al2  1  0.50000000  0.25000000  0.75000000  1
  Al  Al3  1  0.75000000  0.50000000  0.25000000  1
  Al  Al4  1  0.50000000  0.75000000  0.25000000  1
  Al  Al5  1  0.25000000  0.75000000  0.50000000  1
  S  S0  1  0.00000000  0.00000000  0.00000000  1
  O  O0  1  0.00000000  0.69998700  0.39506500  1
  O  O1  1  0.69507800  0.30001300  0.30001300  1
  O  O2  1  0.00000000  0.39506500  0.69998700  1
  O  O3  1  0.60493500  0.60493500  0.30492200  1
  O  O4  1  0.60493500  0.30492200  0.60493500  1
  O  O5  1  0.39506500  0.00000000  0.69998700  1
  O  O6  1  0.30001300  0.30001300  0.69507800  1
  O  O7  1  0.69998700  0.00000000  0.39506500  1
  O  O8  1  0.69998700  0.39506500  0.00000000  1
  O  O9  1  0.30001300  0.69507800  0.30001300  1
  O  O10  1  0.39506500  0.69998700  0.00000000  1
  O  O11  1  0.81666600  0.81666600  0.81666600  1
  O  O12  1  0.18333400  0.00000000  0.00000000  1
  O  O13  1  0.00000000  0.18333400  0.00000000  1
  O  O14  1  0.00000000  0.00000000  0.18333400  1
  O  O15  1  0.30492200  0.60493500  0.60493500  1
loop_
_geom_bond_atom_site_label_1
_geom_bond_atom_site_label_2
_geom_bond_distance
_geom_bond_site_symmetry_2
Al0 O10 1.763003 1_556
Al0 O15 1.763003 1_555
Al0 O2 1.763003 1_555
Al0 O6 1.763003 1_555
Al1 O2 1.763003 1_655
Al1 O7 1.763003 1_555
Al1 O4 1.763003 1_555
Al1 O1 1.763003 1_555
Al2 O5 1.763003 1_555
Al2 O8 1.763003 1_556
Al2 O4 1.763003 1_555
Al2 O6 1.763003 1_555
Al3 O0 1.763003 1_655
Al3 O8 1.763003 1_555
Al3 O3 1.763003 1_555
Al3 O1 1.763003 1_555
Al4 O10 1.763003 1_555
Al4 O3 1.763003 1_555
Al4 O7 1.763003 1_565
Al4 O9 1.763003 1_555
Al5 O0 1.763003 1_555
Al5 O15 1.763003 1_555
Al5 O5 1.763003 1_565
Al5 O9 1.763003 1_555
O0 Sr1 2.482964 1_565
O0 Sr0 3.055680 1_555
O1 Sr2 2.482964 1_555
O1 Sr3 3.055680 1_555
O2 Sr0 2.482964 1_556
O2 Sr1 3.055680 1_555
O3 Sr3 2.482964 1_555
O3 Sr1 3.055680 1_665
O4 Sr3 2.482964 1_555
O4 Sr0 3.055680 1_656
O5 Sr2 2.482964 1_556
O5 Sr1 3.055680 1_555
O6 Sr1 2.482964 1_555
O6 Sr3 3.055680 1_555
O7 Sr1 2.482964 1_655
O7 Sr2 3.055680 1_555
O8 Sr0 2.482964 1_655
O8 Sr2 3.055680 1_555
O9 Sr0 2.482964 1_555
O9 Sr3 3.055680 1_555
O10 Sr2 2.482964 1_565
O10 Sr0 3.055680 1_555
O11 S0 1.495848 1_666
O11 Sr2 3.050798 1_566
O11 Sr0 3.050798 1_656
O11 Sr1 3.050798 1_665
O12 S0 1.495848 1_555
O12 Sr3 3.050798 1_555
O12 Sr1 3.050798 1_554
O12 Sr0 3.050798 1_545
O13 S0 1.495848 1_555
O13 Sr3 3.050798 1_555
O13 Sr2 3.050798 1_455
O13 Sr1 3.050798 1_554
O14 S0 1.495848 1_555
O14 Sr3 3.050798 1_555
O14 Sr2 3.050798 1_455
O14 Sr0 3.050798 1_545
O15 Sr3 2.482964 1_555
O15 Sr2 3.055680 1_566
