# generated using pymatgen
data_CrO2
_symmetry_space_group_name_H-M   'P 1'
_cell_length_a   4.47134300
_cell_length_b   4.47134300
_cell_length_c   5.99035200
_cell_angle_alpha   89.99991374
_cell_angle_beta   89.99983703
_cell_angle_gamma   90.00189647
_symmetry_Int_Tables_number   1
_chemical_formula_structural   CrO2
_chemical_formula_sum   'Cr4 O8'
_cell_volume   119.76455773
_cell_formula_units_Z   4
loop_
 _symmetry_equiv_pos_site_id
 _symmetry_equiv_pos_as_xyz
  1  'x, y, z'
loop_
 _atom_site_type_symbol
 _atom_site_label
 _atom_site_symmetry_multiplicity
 _atom_site_fract_x
 _atom_site_fract_y
 _atom_site_fract_z
 _atom_site_occupancy
  Cr  Cr0  1  0.50000000  0.50000000  0.74423500  1
  Cr  Cr1  1  0.00000200  0.00000200  0.50576400  1
  Cr  Cr2  1  0.50000000  0.50000000  0.24421400  1
  Cr  Cr3  1  0.99999900  0.99999900  0.00578400  1
  O  O0  1  0.20170600  0.79829400  0.25181700  1
  O  O1  1  0.20170800  0.79829100  0.75180500  1
  O  O2  1  0.79829400  0.20170600  0.25181700  1
  O  O3  1  0.79829100  0.20170900  0.75180500  1
  O  O4  1  0.29829800  0.29829800  0.99818400  1
  O  O5  1  0.29829700  0.29829700  0.49819400  1
  O  O6  1  0.70170200  0.70170200  0.99818600  1
  O  O7  1  0.70170300  0.70170300  0.49819600  1
loop_
_geom_bond_atom_site_label_1
_geom_bond_atom_site_label_2
_geom_bond_distance
_geom_bond_site_symmetry_2
Cr0 O3 1.886800 1_555
Cr0 O1 1.886803 1_555
Cr0 O7 1.949099 1_555
Cr0 O5 1.949114 1_555
Cr0 O4 1.985167 1_555
Cr0 O6 1.985182 1_555
Cr1 O5 1.886762 1_555
Cr1 O7 1.886788 1_445
Cr1 O1 1.949162 1_545
Cr1 O3 1.949162 1_455
Cr1 O0 1.985203 1_545
Cr1 O2 1.985205 1_455
Cr2 O0 1.886823 1_555
Cr2 O2 1.886823 1_555
Cr2 O6 1.949045 1_554
Cr2 O4 1.949060 1_554
Cr2 O5 1.985313 1_555
Cr2 O7 1.985329 1_555
Cr3 O6 1.886779 1_554
Cr3 O4 1.886792 1_664
Cr3 O2 1.949114 1_565
Cr3 O0 1.949115 1_655
Cr3 O1 1.985360 1_654
Cr3 O3 1.985364 1_564
