# generated using pymatgen
data_Mg14CdCu
_symmetry_space_group_name_H-M   'P 1'
_cell_length_a   6.31425202
_cell_length_b   6.33200746
_cell_length_c   10.06235057
_cell_angle_alpha   90.00000000
_cell_angle_beta   90.00000000
_cell_angle_gamma   120.09306793
_symmetry_Int_Tables_number   1
_chemical_formula_structural   Mg14CdCu
_chemical_formula_sum   'Mg14 Cd1 Cu1'
_cell_volume   348.08503571
_cell_formula_units_Z   1
loop_
 _symmetry_equiv_pos_site_id
 _symmetry_equiv_pos_as_xyz
  1  'x, y, z'
loop_
 _atom_site_type_symbol
 _atom_site_label
 _atom_site_symmetry_multiplicity
 _atom_site_fract_x
 _atom_site_fract_y
 _atom_site_fract_z
 _atom_site_occupancy
  Mg  Mg0  1  0.16782683  0.33391292  0.62500000  1
  Mg  Mg1  1  0.16974129  0.83487015  0.62500000  1
  Mg  Mg2  1  0.67328941  0.33758044  0.12500000  1
  Mg  Mg3  1  0.66565467  0.33134729  0.62500000  1
  Mg  Mg4  1  0.67328941  0.83570796  0.12500000  1
  Mg  Mg5  1  0.66565467  0.83430639  0.62500000  1
  Mg  Mg6  1  0.32787151  0.16955864  0.36214196  1
  Mg  Mg7  1  0.32787151  0.16955864  0.88785804  1
  Mg  Mg8  1  0.32787151  0.65831387  0.36214196  1
  Mg  Mg9  1  0.32787151  0.65831387  0.88785804  1
  Mg  Mg10  1  0.84038779  0.17019439  0.36788379  1
  Mg  Mg11  1  0.84038779  0.17019439  0.88211621  1
  Mg  Mg12  1  0.83313714  0.66656907  0.37535014  1
  Mg  Mg13  1  0.83313714  0.66656907  0.87464986  1
  Cd  Cd0  1  0.16093270  0.83046585  0.12500000  1
  Cu  Cu0  1  0.16507512  0.33253706  0.12500000  1
loop_
_geom_bond_atom_site_label_1
_geom_bond_atom_site_label_2
_geom_bond_distance
_geom_bond_site_symmetry_2
Mg0 Mg10 3.145404 1_455
Mg0 Mg11 3.145404 1_455
Mg0 Mg5 3.151587 1_555
Mg0 Mg3 3.151587 1_555
Mg0 Mg5 3.162727 1_445
Mg0 Mg3 3.162727 1_455
Mg0 Mg1 3.166021 1_555
Mg0 Mg1 3.166021 1_545
Mg0 Mg7 3.186657 1_555
Mg0 Mg6 3.186657 1_555
Mg0 Mg9 3.186663 1_555
Mg0 Mg8 3.186663 1_555
Mg1 Mg13 3.113216 1_455
Mg1 Mg12 3.113216 1_455
Mg1 Mg3 3.133113 1_565
Mg1 Mg5 3.133113 1_555
Mg1 Mg3 3.181141 1_455
Mg1 Mg5 3.181142 1_455
Mg1 Mg9 3.219011 1_555
Mg1 Mg8 3.219011 1_555
Mg1 Mg6 3.219017 1_565
Mg1 Mg7 3.219017 1_565
Mg2 Mg7 3.042353 1_554
Mg2 Mg6 3.042353 1_555
Mg2 Mg4 3.154147 1_555
Mg2 Mg4 3.177860 1_545
Mg3 Mg5 3.147267 1_545
Mg3 Mg5 3.184741 1_555
Mg3 Mg7 3.225409 1_555
Mg3 Mg6 3.225409 1_555
Mg4 Mg8 3.042353 1_555
Mg4 Mg9 3.042353 1_554
Mg5 Mg8 3.225409 1_555
Mg5 Mg9 3.225409 1_555
Mg6 Mg8 3.094802 1_555
Mg6 Mg8 3.237206 1_545
Mg7 Mg9 3.094802 1_555
Mg7 Mg9 3.237206 1_545
Mg10 Mg2 3.054683 1_555
Mg10 Mg4 3.054689 1_545
Mg10 Mg8 3.080657 1_655
Mg10 Mg6 3.080657 1_655
Mg10 Mg12 3.167143 1_545
Mg10 Mg12 3.167143 1_555
Mg10 Mg3 3.175079 1_555
Mg10 Mg5 3.175085 1_545
Mg10 Mg8 3.234656 1_545
Mg10 Mg6 3.234656 1_555
Mg11 Mg2 3.054683 1_556
Mg11 Mg4 3.054689 1_546
Mg11 Mg9 3.080657 1_655
Mg11 Mg7 3.080657 1_655
Mg11 Mg13 3.167143 1_545
Mg11 Mg13 3.167143 1_555
Mg11 Mg3 3.175079 1_555
Mg11 Mg5 3.175085 1_545
Mg11 Mg9 3.234656 1_545
Mg11 Mg7 3.234656 1_555
Mg12 Mg4 3.097688 1_555
Mg12 Mg2 3.097694 1_555
Mg12 Mg5 3.111798 1_555
Mg12 Mg3 3.111805 1_555
Mg12 Mg6 3.153214 1_665
Mg12 Mg8 3.153214 1_655
Mg12 Mg6 3.167278 1_555
Mg12 Mg8 3.167278 1_555
Mg13 Mg4 3.097688 1_556
Mg13 Mg2 3.097694 1_556
Mg13 Mg5 3.111798 1_555
Mg13 Mg3 3.111805 1_555
Mg13 Mg7 3.153214 1_665
Mg13 Mg9 3.153214 1_655
Mg13 Mg7 3.167278 1_555
Mg13 Mg9 3.167278 1_555
Cd0 Mg8 3.024170 1_555
Cd0 Mg9 3.024170 1_554
Cd0 Mg6 3.024176 1_565
Cd0 Mg7 3.024176 1_564
Cd0 Mg12 3.090775 1_455
Cd0 Mg13 3.090775 1_454
Cd0 Mg2 3.095879 1_455
Cd0 Mg4 3.095879 1_455
Cd0 Cu0 3.166085 1_565
Cd0 Cu0 3.166085 1_555
Cd0 Mg2 3.218634 1_565
Cd0 Mg4 3.218634 1_555
Cu0 Mg6 2.979834 1_555
Cu0 Mg7 2.979834 1_554
Cu0 Mg9 2.979840 1_554
Cu0 Mg8 2.979840 1_555
Cu0 Mg11 3.019849 1_454
Cu0 Mg10 3.019849 1_455
Cu0 Mg4 3.121393 1_445
Cu0 Mg2 3.121393 1_455
Cu0 Mg4 3.193100 1_555
Cu0 Mg2 3.193100 1_555
