# generated using pymatgen
data_Ta6Zn3(FeO6)4
_symmetry_space_group_name_H-M   'P 1'
_cell_length_a   7.03418700
_cell_length_b   8.27088120
_cell_length_c   10.31100842
_cell_angle_alpha   106.66629141
_cell_angle_beta   103.32823269
_cell_angle_gamma   102.17462603
_symmetry_Int_Tables_number   1
_chemical_formula_structural   Ta6Zn3(FeO6)4
_chemical_formula_sum   'Ta6 Zn3 Fe4 O24'
_cell_volume   533.94409891
_cell_formula_units_Z   1
loop_
 _symmetry_equiv_pos_site_id
 _symmetry_equiv_pos_as_xyz
  1  'x, y, z'
loop_
 _atom_site_type_symbol
 _atom_site_label
 _atom_site_symmetry_multiplicity
 _atom_site_fract_x
 _atom_site_fract_y
 _atom_site_fract_z
 _atom_site_occupancy
  Ta  Ta0  1  0.77846700  0.33142700  0.72892200  1
  Ta  Ta1  1  0.22153300  0.66857300  0.27107800  1
  Ta  Ta2  1  0.89546500  0.90973300  0.66785500  1
  Ta  Ta3  1  0.40770500  0.73219800  0.87813700  1
  Ta  Ta4  1  0.10453500  0.09026700  0.33214500  1
  Ta  Ta5  1  0.59229500  0.26780200  0.12186300  1
  Zn  Zn0  1  0.00000000  0.50000000  0.50000000  1
  Zn  Zn1  1  0.28521900  0.28352900  0.79833900  1
  Zn  Zn2  1  0.71478100  0.71647100  0.20166100  1
  Fe  Fe0  1  0.37982800  0.95195000  0.60865700  1
  Fe  Fe1  1  0.62017200  0.04805000  0.39134300  1
  Fe  Fe2  1  0.04176900  0.20432900  0.01192500  1
  Fe  Fe3  1  0.95823100  0.79567100  0.98807500  1
  O  O0  1  0.87975300  0.67965900  0.58108600  1
  O  O1  1  0.12024700  0.32034100  0.41891400  1
  O  O2  1  0.27622700  0.49912800  0.75893400  1
  O  O3  1  0.72377300  0.50087200  0.24106600  1
  O  O4  1  0.78151000  0.29699300  0.53949400  1
  O  O5  1  0.21849000  0.70300700  0.46050600  1
  O  O6  1  0.66183700  0.96905300  0.57588300  1
  O  O7  1  0.33816300  0.03094700  0.42411700  1
  O  O8  1  0.66024100  0.75681500  0.01217300  1
  O  O9  1  0.33975900  0.24318500  0.98782700  1
  O  O10  1  0.48194900  0.77956500  0.27027400  1
  O  O11  1  0.51805100  0.22043500  0.72972600  1
  O  O12  1  0.13827400  0.02773700  0.64573700  1
  O  O13  1  0.07182300  0.06184300  0.13891600  1
  O  O14  1  0.92817700  0.93815700  0.86108400  1
  O  O15  1  0.56421800  0.13501500  0.23864300  1
  O  O16  1  0.43578200  0.86498500  0.76135700  1
  O  O17  1  0.16586200  0.43513400  0.16641100  1
  O  O18  1  0.83413800  0.56486600  0.83358900  1
  O  O19  1  0.97946500  0.24560300  0.82221300  1
  O  O20  1  0.02053500  0.75439700  0.17778700  1
  O  O21  1  0.23081000  0.79406500  0.97628800  1
  O  O22  1  0.76919000  0.20593500  0.02371200  1
  O  O23  1  0.86172600  0.97226300  0.35426300  1
loop_
_geom_bond_atom_site_label_1
_geom_bond_atom_site_label_2
_geom_bond_distance
_geom_bond_site_symmetry_2
Fe0 O16 1.906456 1_555
Fe0 O12 2.009336 1_565
Fe0 O5 2.066852 1_555
Fe0 O6 2.070611 1_555
Fe0 O11 2.091527 1_565
Fe0 O7 2.161060 1_565
Fe1 O15 1.906456 1_555
Fe1 O23 2.009336 1_545
Fe1 O4 2.066852 1_555
Fe1 O7 2.070611 1_555
Fe1 O10 2.091527 1_545
Fe1 O6 2.161060 1_545
Fe2 O22 1.951542 1_455
Fe2 O17 1.963503 1_555
Fe2 O13 2.002657 1_555
Fe2 O19 2.045944 1_454
Fe2 O9 2.135541 1_554
Fe2 O14 2.150598 1_444
Fe3 O21 1.951542 1_655
Fe3 O18 1.963503 1_555
Fe3 O14 2.002657 1_555
Fe3 O20 2.045944 1_656
Fe3 O8 2.135541 1_556
Fe3 O13 2.150598 1_666
O0 Ta2 1.822885 1_555
O0 Zn0 1.940633 1_655
O1 Ta4 1.822885 1_555
O1 Zn0 1.940633 1_555
O2 Ta3 1.856593 1_555
O2 Zn1 1.949402 1_555
O3 Ta5 1.856593 1_555
O3 Zn2 1.949402 1_555
O4 Ta0 1.897185 1_555
O4 Zn0 2.222480 1_655
O5 Ta1 1.897185 1_555
O5 Zn0 2.222480 1_555
O6 Ta2 1.931104 1_555
O7 Ta4 1.931104 1_555
O8 Ta3 1.913420 1_554
O8 Zn2 2.039182 1_555
O9 Ta5 1.913420 1_556
O9 Zn1 2.039182 1_555
O10 Ta1 1.870944 1_555
O10 Zn2 2.034234 1_555
O11 Ta0 1.870944 1_555
O11 Zn1 2.034234 1_555
O12 Ta2 1.877734 1_445
O12 Zn1 2.106766 1_555
O13 Ta4 1.890756 1_555
O13 O20 2.649754 1_545
O14 Ta2 1.890756 1_555
O14 O19 2.649754 1_565
O15 Ta5 1.863277 1_555
O16 Ta3 1.863277 1_555
O17 Ta1 1.826717 1_555
O18 Ta0 1.826717 1_555
O19 Ta0 1.901599 1_555
O19 Zn1 2.188258 1_655
O19 Ta2 2.633870 1_545
O20 Ta1 1.901599 1_555
O20 Zn2 2.188258 1_455
O20 Ta4 2.633870 1_565
O21 Ta3 1.840240 1_555
O22 Ta5 1.840240 1_555
O23 Ta4 1.877734 1_665
O23 Zn2 2.106766 1_555
