# generated using pymatgen
data_Cs2V5H5O16
_symmetry_space_group_name_H-M   'P 1'
_cell_length_a   14.42927800
_cell_length_b   10.28245600
_cell_length_c   11.80445492
_cell_angle_alpha   72.13948650
_cell_angle_beta   90.00000000
_cell_angle_gamma   90.00000000
_symmetry_Int_Tables_number   1
_chemical_formula_structural   Cs2V5H5O16
_chemical_formula_sum   'Cs8 V20 H20 O64'
_cell_volume   1667.00090641
_cell_formula_units_Z   4
loop_
 _symmetry_equiv_pos_site_id
 _symmetry_equiv_pos_as_xyz
  1  'x, y, z'
loop_
 _atom_site_type_symbol
 _atom_site_label
 _atom_site_symmetry_multiplicity
 _atom_site_fract_x
 _atom_site_fract_y
 _atom_site_fract_z
 _atom_site_occupancy
  Cs  Cs0  1  0.12914300  0.31059900  0.04666900  1
  Cs  Cs1  1  0.62914300  0.68940100  0.45333100  1
  Cs  Cs2  1  0.87085700  0.68940100  0.95333100  1
  Cs  Cs3  1  0.37085700  0.31059900  0.54666900  1
  Cs  Cs4  1  0.77139900  0.07206800  0.08936900  1
  Cs  Cs5  1  0.27139900  0.92793200  0.41063100  1
  Cs  Cs6  1  0.22860100  0.92793200  0.91063100  1
  Cs  Cs7  1  0.72860100  0.07206800  0.58936900  1
  V  V0  1  0.39914300  0.31371600  0.92588000  1
  V  V1  1  0.89914300  0.68628400  0.57412000  1
  V  V2  1  0.60085700  0.68628400  0.07412000  1
  V  V3  1  0.10085700  0.31371600  0.42588000  1
  V  V4  1  0.38881200  0.33464900  0.18021300  1
  V  V5  1  0.88881200  0.66535100  0.31978700  1
  V  V6  1  0.61118800  0.66535100  0.81978700  1
  V  V7  1  0.11118800  0.33464900  0.68021300  1
  V  V8  1  0.58707000  0.37556300  0.77802200  1
  V  V9  1  0.08707000  0.62443700  0.72197800  1
  V  V10  1  0.41293000  0.62443700  0.22197800  1
  V  V11  1  0.91293000  0.37556300  0.27802200  1
  V  V12  1  0.58536100  0.39241500  0.03818200  1
  V  V13  1  0.08536100  0.60758500  0.46181800  1
  V  V14  1  0.41463900  0.60758500  0.96181800  1
  V  V15  1  0.91463900  0.39241500  0.53818200  1
  V  V16  1  0.42940500  0.60053200  0.70347200  1
  V  V17  1  0.92940500  0.39946800  0.79652800  1
  V  V18  1  0.57059500  0.39946800  0.29652800  1
  V  V19  1  0.07059500  0.60053200  0.20347200  1
  H  H0  1  0.52087500  0.08733400  0.13592600  1
  H  H1  1  0.02087500  0.91266600  0.36407400  1
  H  H2  1  0.47912500  0.91266600  0.86407400  1
  H  H3  1  0.97912500  0.08733400  0.63592600  1
  H  H4  1  0.56753100  0.00543100  0.32544600  1
  H  H5  1  0.06753100  0.99456900  0.17455400  1
  H  H6  1  0.43246900  0.99456900  0.67455400  1
  H  H7  1  0.93246900  0.00543100  0.82544600  1
  H  H8  1  0.46675500  0.07396100  0.83712300  1
  H  H9  1  0.96675500  0.92603900  0.66287700  1
  H  H10  1  0.53324500  0.92603900  0.16287700  1
  H  H11  1  0.03324500  0.07396100  0.33712300  1
  H  H12  1  0.27610900  0.45452400  0.76850900  1
  H  H13  1  0.77610900  0.54547600  0.73149100  1
  H  H14  1  0.72389100  0.54547600  0.23149100  1
  H  H15  1  0.22389100  0.45452400  0.26850900  1
  H  H16  1  0.53091000  0.07015900  0.41892200  1
  H  H17  1  0.03091000  0.92984100  0.08107800  1
  H  H18  1  0.46909000  0.92984100  0.58107800  1
  H  H19  1  0.96909000  0.07015900  0.91892200  1
  O  O0  1  0.31769800  0.19754000  0.95734600  1
  O  O1  1  0.81769800  0.80246000  0.54265400  1
  O  O2  1  0.68230200  0.80246000  0.04265400  1
  O  O3  1  0.18230200  0.19754000  0.45734600  1
  O  O4  1  0.48369100  0.25323000  0.84267100  1
  O  O5  1  0.98369100  0.74677000  0.65732900  1
  O  O6  1  0.51630900  0.74677000  0.15732900  1
  O  O7  1  0.01630900  0.25323000  0.34267100  1
  O  O8  1  0.34513600  0.44172100  0.78005800  1
  O  O9  1  0.84513600  0.55827900  0.71994200  1
  O  O10  1  0.65486400  0.55827900  0.21994200  1
  O  O11  1  0.15486400  0.44172100  0.28005800  1
  O  O12  1  0.47227500  0.26825600  0.07146400  1
  O  O13  1  0.97227500  0.73174400  0.42853600  1
  O  O14  1  0.52772500  0.73174400  0.92853600  1
  O  O15  1  0.02772500  0.26825600  0.57146400  1
  O  O16  1  0.34626700  0.44196400  0.01509600  1
  O  O17  1  0.84626700  0.55803600  0.48490400  1
  O  O18  1  0.65373300  0.55803600  0.98490400  1
  O  O19  1  0.15373300  0.44196400  0.51509600  1
  O  O20  1  0.49916600  0.49451800  0.88987300  1
  O  O21  1  0.99916600  0.50548200  0.61012700  1
  O  O22  1  0.50083400  0.50548200  0.11012700  1
  O  O23  1  0.00083400  0.49451800  0.38987300  1
  O  O24  1  0.31014300  0.21410100  0.21480400  1
  O  O25  1  0.81014300  0.78589900  0.28519600  1
  O  O26  1  0.68985700  0.78589900  0.78519600  1
  O  O27  1  0.18985700  0.21410100  0.71480400  1
  O  O28  1  0.47437800  0.27845700  0.30148400  1
  O  O29  1  0.97437800  0.72154300  0.19851600  1
  O  O30  1  0.52562200  0.72154300  0.69851600  1
  O  O31  1  0.02562200  0.27845700  0.80148400  1
  O  O32  1  0.33890900  0.46669400  0.23980500  1
  O  O33  1  0.83890900  0.53330600  0.26019500  1
  O  O34  1  0.66109100  0.53330600  0.76019500  1
  O  O35  1  0.16109100  0.46669400  0.73980500  1
  O  O36  1  0.64569000  0.28691900  0.71000400  1
  O  O37  1  0.14569000  0.71308100  0.78999600  1
  O  O38  1  0.35431000  0.71308100  0.28999600  1
  O  O39  1  0.85431000  0.28691900  0.21000400  1
  O  O40  1  0.50628200  0.47991900  0.66172800  1
  O  O41  1  0.00628200  0.52008100  0.83827200  1
  O  O42  1  0.49371800  0.52008100  0.33827200  1
  O  O43  1  0.99371800  0.47991900  0.16172800  1
  O  O44  1  0.63402500  0.31083100  0.94305100  1
  O  O45  1  0.13402500  0.68916900  0.55694900  1
  O  O46  1  0.36597500  0.68916900  0.05694900  1
  O  O47  1  0.86597500  0.31083100  0.44305100  1
  O  O48  1  0.36817300  0.67874200  0.82252600  1
  O  O49  1  0.86817300  0.32125800  0.67747400  1
  O  O50  1  0.63182700  0.32125800  0.17747400  1
  O  O51  1  0.13182700  0.67874200  0.32252600  1
  O  O52  1  0.37216100  0.67202400  0.58136000  1
  O  O53  1  0.87216100  0.32797600  0.91864000  1
  O  O54  1  0.62783900  0.32797600  0.41864000  1
  O  O55  1  0.12783900  0.67202400  0.08136000  1
  O  O56  1  0.05974600  0.99195800  0.32263800  1
  O  O57  1  0.55974600  0.00804200  0.17736200  1
  O  O58  1  0.94025400  0.00804200  0.67736200  1
  O  O59  1  0.44025400  0.99195800  0.82263800  1
  O  O60  1  0.57061500  0.99595000  0.41201000  1
  O  O61  1  0.07061500  0.00405000  0.08799000  1
  O  O62  1  0.42938500  0.00405000  0.58799000  1
  O  O63  1  0.92938500  0.99595000  0.91201000  1
loop_
_geom_bond_atom_site_label_1
_geom_bond_atom_site_label_2
_geom_bond_distance
_geom_bond_site_symmetry_2
Cs0 O61 3.153350 1_555
Cs0 O43 3.185097 1_455
Cs0 O24 3.246031 1_555
Cs0 O41 3.253278 1_554
Cs0 O0 3.258437 1_554
Cs0 H5 3.258812 1_545
Cs0 O31 3.362150 1_554
Cs0 O16 3.386734 1_555
Cs0 O11 3.438633 1_555
Cs0 O35 3.513379 1_554
Cs0 O7 3.734090 1_555
Cs0 H11 3.804411 1_555
Cs0 O55 3.861700 1_555
Cs0 O53 3.987492 1_454
Cs1 O60 3.153350 1_555
Cs1 O42 3.185097 1_555
Cs1 O25 3.246031 1_555
Cs1 O40 3.253278 1_555
Cs1 O1 3.258437 1_555
Cs1 H4 3.258812 1_565
Cs1 O30 3.362150 1_555
Cs1 O17 3.386734 1_555
Cs1 O10 3.438633 1_555
Cs1 O34 3.513379 1_555
Cs1 O6 3.734090 1_555
Cs1 H10 3.804411 1_555
Cs1 O54 3.861700 1_555
Cs1 O52 3.987492 1_555
Cs2 O63 3.153350 1_555
Cs2 O41 3.185097 1_655
Cs2 O26 3.246031 1_555
Cs2 O43 3.253278 1_556
Cs2 O2 3.258437 1_556
Cs2 H7 3.258812 1_565
Cs2 O29 3.362150 1_556
Cs2 O18 3.386734 1_555
Cs2 O9 3.438633 1_555
Cs2 O33 3.513379 1_556
Cs2 O5 3.734090 1_555
Cs2 H9 3.804411 1_555
Cs2 O53 3.861700 1_555
Cs2 O55 3.987492 1_656
Cs3 O62 3.153350 1_555
Cs3 O40 3.185097 1_555
Cs3 O27 3.246031 1_555
Cs3 O42 3.253278 1_555
Cs3 O3 3.258437 1_555
Cs3 H6 3.258812 1_545
Cs3 O28 3.362150 1_555
Cs3 O19 3.386734 1_555
Cs3 O8 3.438633 1_555
Cs3 O32 3.513379 1_555
Cs3 O4 3.734090 1_555
Cs3 H8 3.804411 1_555
Cs3 O52 3.861700 1_555
Cs3 O54 3.987492 1_555
Cs4 O53 3.137943 1_554
Cs4 O25 3.184686 1_545
Cs4 O39 3.204589 1_555
Cs4 O44 3.215382 1_554
Cs4 O57 3.227970 1_555
Cs4 O2 3.252672 1_545
Cs4 O63 3.346295 1_544
Cs4 O50 3.652052 1_555
Cs5 O52 3.137943 1_555
Cs5 O24 3.184686 1_565
Cs5 O38 3.204589 1_555
Cs5 O45 3.215382 1_555
Cs5 O56 3.227970 1_555
Cs5 O3 3.252672 1_565
Cs5 O62 3.346295 1_565
Cs5 O51 3.652052 1_555
Cs6 O55 3.137943 1_556
Cs6 O27 3.184686 1_565
Cs6 O37 3.204589 1_555
Cs6 O46 3.215382 1_556
Cs6 O59 3.227970 1_555
Cs6 O0 3.252672 1_565
Cs6 O61 3.346295 1_566
Cs6 O48 3.652052 1_555
Cs7 O54 3.137943 1_555
Cs7 O26 3.184686 1_545
Cs7 O36 3.204589 1_555
Cs7 O47 3.215382 1_555
Cs7 O58 3.227970 1_555
Cs7 O1 3.252672 1_545
Cs7 O60 3.346295 1_545
Cs7 O49 3.652052 1_555
H0 O57 0.986891 1_555
H0 O12 1.913967 1_555
H1 O56 0.986891 1_555
H1 O13 1.913967 1_455
H2 O59 0.986891 1_555
H2 O14 1.913967 1_555
H3 O58 0.986891 1_555
H3 O15 1.913967 1_655
H4 O60 0.997265 1_545
H5 O61 0.997265 1_565
H6 O62 0.997265 1_565
H7 O63 0.997265 1_545
H8 O59 0.987355 1_545
H8 O4 1.880401 1_555
H9 O58 0.987355 1_565
H9 O5 1.880401 1_555
H10 O57 0.987355 1_565
H10 O6 1.880401 1_555
H11 O56 0.987355 1_545
H11 O7 1.880401 1_555
H12 O8 1.008436 1_555
H12 O35 1.690805 1_555
H13 O9 1.008436 1_555
H13 O34 1.690805 1_555
H14 O10 1.008436 1_555
H14 O33 1.690805 1_555
H15 O11 1.008436 1_555
H15 O32 1.690805 1_555
H16 O60 0.977407 1_545
H16 O28 2.313713 1_555
H17 O61 0.977407 1_565
H17 O29 2.313713 1_455
H18 O62 0.977407 1_565
H18 O30 2.313713 1_555
H19 O63 0.977407 1_545
H19 O31 2.313713 1_655
O0 V0 1.635200 1_555
O1 V1 1.635200 1_555
O2 V2 1.635200 1_555
O3 V3 1.635200 1_555
O4 V0 1.792944 1_555
O4 V8 1.949603 1_555
O5 V1 1.792944 1_555
O5 V9 1.949603 1_655
O6 V2 1.792944 1_555
O6 V10 1.949603 1_555
O7 V3 1.792944 1_555
O7 V11 1.949603 1_455
O8 V0 1.978122 1_555
O8 V16 2.014162 1_555
O9 V1 1.978122 1_555
O9 V17 2.014162 1_555
O10 V2 1.978122 1_555
O10 V18 2.014162 1_555
O11 V3 1.978122 1_555
O11 V19 2.014162 1_555
O12 V0 1.947475 1_554
O12 V4 2.025323 1_555
O12 V12 2.034491 1_555
O13 V1 1.947475 1_555
O13 V5 2.025323 1_555
O13 V13 2.034491 1_655
O14 V2 1.947475 1_556
O14 V6 2.025323 1_555
O14 V14 2.034491 1_555
O15 V3 1.947475 1_555
O15 V7 2.025323 1_555
O15 V15 2.034491 1_455
O16 V14 1.900535 1_554
O16 V4 2.018479 1_555
O16 V0 2.069322 1_554
O17 V15 1.900535 1_555
O17 V5 2.018479 1_555
O17 V1 2.069322 1_555
O18 V12 1.900535 1_556
O18 V6 2.018479 1_555
O18 V2 2.069322 1_556
O19 V13 1.900535 1_555
O19 V7 2.018479 1_555
O19 V3 2.069322 1_555
O20 V14 2.041115 1_555
O20 V12 2.141642 1_556
O20 V0 2.288048 1_555
O20 V6 2.343364 1_555
O20 V16 2.360472 1_555
O20 V8 2.416368 1_555
O21 V15 2.041115 1_555
O21 V13 2.141642 1_655
O21 V1 2.288048 1_555
O21 V7 2.343364 1_655
O21 V17 2.360472 1_555
O21 V9 2.416368 1_655
O22 V12 2.041115 1_555
O22 V14 2.141642 1_554
O22 V2 2.288048 1_555
O22 V4 2.343364 1_555
O22 V18 2.360472 1_555
O22 V10 2.416368 1_555
O23 V13 2.041115 1_555
O23 V15 2.141642 1_455
O23 V3 2.288048 1_555
O23 V5 2.343364 1_455
O23 V19 2.360472 1_555
O23 V11 2.416368 1_455
O24 V4 1.637448 1_555
O25 V5 1.637448 1_555
O26 V6 1.637448 1_555
O27 V7 1.637448 1_555
O28 V4 1.843951 1_555
O28 V18 1.853246 1_555
O29 V5 1.843951 1_555
O29 V19 1.853246 1_655
O30 V6 1.843951 1_555
O30 V16 1.853246 1_555
O31 V7 1.843951 1_555
O31 V17 1.853246 1_455
O32 V4 1.855445 1_555
O32 V10 1.899085 1_555
O33 V5 1.855445 1_555
O33 V11 1.899085 1_555
O34 V6 1.855445 1_555
O34 V8 1.899085 1_555
O35 V7 1.855445 1_555
O35 V9 1.899085 1_555
O36 V8 1.624755 1_555
O37 V9 1.624755 1_555
O38 V10 1.624755 1_555
O39 V11 1.624755 1_555
O40 V16 1.840183 1_555
O40 V8 1.868493 1_555
O41 V17 1.840183 1_455
O41 V9 1.868493 1_555
O42 V18 1.840183 1_555
O42 V10 1.868493 1_555
O43 V19 1.840183 1_655
O43 V11 1.868493 1_555
O44 V12 1.742327 1_556
O44 V8 1.975275 1_555
O45 V13 1.742327 1_555
O45 V9 1.975275 1_555
O46 V14 1.742327 1_554
O46 V10 1.975275 1_555
O47 V15 1.742327 1_555
O47 V11 1.975275 1_555
O48 V14 1.717709 1_555
O48 V16 2.023776 1_555
O49 V15 1.717709 1_555
O49 V17 2.023776 1_555
O50 V12 1.717709 1_555
O50 V18 2.023776 1_555
O51 V13 1.717709 1_555
O51 V19 2.023776 1_555
O52 V16 1.628032 1_555
O53 V17 1.628032 1_555
O54 V18 1.628032 1_555
O55 V19 1.628032 1_555
