# generated using pymatgen
data_Li3MnCoO5
_symmetry_space_group_name_H-M   'P 1'
_cell_length_a   5.12051379
_cell_length_b   5.12051379
_cell_length_c   13.32649147
_cell_angle_alpha   76.92897012
_cell_angle_beta   76.92897012
_cell_angle_gamma   32.80645436
_symmetry_Int_Tables_number   1
_chemical_formula_structural   Li3MnCoO5
_chemical_formula_sum   'Li6 Mn2 Co2 O10'
_cell_volume   183.97837435
_cell_formula_units_Z   2
loop_
 _symmetry_equiv_pos_site_id
 _symmetry_equiv_pos_as_xyz
  1  'x, y, z'
loop_
 _atom_site_type_symbol
 _atom_site_label
 _atom_site_symmetry_multiplicity
 _atom_site_fract_x
 _atom_site_fract_y
 _atom_site_fract_z
 _atom_site_occupancy
  Li  Li0  1  0.50000000  0.50000000  0.50000000  1
  Li  Li1  1  0.89450200  0.89450200  0.71717100  1
  Li  Li2  1  0.31192500  0.31192500  0.91487700  1
  Li  Li3  1  0.68807500  0.68807500  0.08512300  1
  Li  Li4  1  0.10549800  0.10549800  0.28282900  1
  Li  Li5  1  0.00000000  0.00000000  0.00000000  1
  Mn  Mn0  1  0.80198700  0.80198700  0.39833500  1
  Mn  Mn1  1  0.19801300  0.19801300  0.60166500  1
  Co  Co0  1  0.60273700  0.60273700  0.82146900  1
  Co  Co1  1  0.39726300  0.39726300  0.17853100  1
  O  O0  1  0.43382700  0.43382700  0.36358100  1
  O  O1  1  0.83330600  0.83330600  0.54637400  1
  O  O2  1  0.24073200  0.24073200  0.73101400  1
  O  O3  1  0.65610100  0.65610100  0.93913300  1
  O  O4  1  0.03695600  0.03695600  0.15656000  1
  O  O5  1  0.56617300  0.56617300  0.63641900  1
  O  O6  1  0.96304400  0.96304400  0.84344000  1
  O  O7  1  0.34389900  0.34389900  0.06086700  1
  O  O8  1  0.75926800  0.75926800  0.26898600  1
  O  O9  1  0.16669400  0.16669400  0.45362600  1
loop_
_geom_bond_atom_site_label_1
_geom_bond_atom_site_label_2
_geom_bond_distance
_geom_bond_site_symmetry_2
Li0 O5 2.070015 1_555
Li0 O0 2.070015 1_555
Li0 O9 2.162758 1_565
Li0 O9 2.162758 1_655
Li0 O1 2.162758 1_545
Li0 O1 2.162758 1_455
Li1 O6 1.954290 1_555
Li1 O2 2.067774 1_655
Li1 O2 2.067774 1_565
Li1 O5 2.288590 1_565
Li1 O5 2.288590 1_655
Li1 O1 2.487449 1_555
Li2 O7 2.042530 1_556
Li2 O3 2.074994 1_545
Li2 O3 2.074994 1_455
Li2 O6 2.129542 1_455
Li2 O6 2.129542 1_545
Li2 O2 2.702026 1_555
Li3 O3 2.042530 1_554
Li3 O7 2.074994 1_565
Li3 O7 2.074994 1_655
Li3 O4 2.129542 1_655
Li3 O4 2.129542 1_565
Li3 O8 2.702026 1_555
Li4 O4 1.954290 1_555
Li4 O8 2.067774 1_455
Li4 O8 2.067774 1_545
Li4 O0 2.288590 1_455
Li4 O0 2.288590 1_545
Li4 O9 2.487449 1_555
Li5 O3 2.124664 1_544
Li5 O3 2.124664 1_454
Li5 O7 2.124664 1_545
Li5 O7 2.124664 1_455
Li5 O4 2.200460 1_555
Li5 O6 2.200460 1_444
Mn0 O8 1.867783 1_555
Mn0 O0 1.923591 1_565
Mn0 O0 1.923591 1_655
Mn0 O9 1.984621 1_565
Mn0 O9 1.984621 1_655
Mn0 O1 2.067119 1_555
Mn1 O2 1.867783 1_555
Mn1 O5 1.923591 1_545
Mn1 O5 1.923591 1_455
Mn1 O1 1.984621 1_455
Mn1 O1 1.984621 1_545
Mn1 O9 2.067119 1_555
Co0 O3 1.766701 1_555
Co0 O6 1.967388 1_455
Co0 O6 1.967388 1_545
Co0 O2 2.147417 1_655
Co0 O2 2.147417 1_565
Co0 O5 2.574530 1_555
Co1 O7 1.766701 1_555
Co1 O4 1.967388 1_565
Co1 O4 1.967388 1_655
Co1 O8 2.147417 1_455
Co1 O8 2.147417 1_545
Co1 O0 2.574530 1_555
