# generated using pymatgen
data_MgSi2
_symmetry_space_group_name_H-M   'P 1'
_cell_length_a   3.64344700
_cell_length_b   4.46311300
_cell_length_c   6.50664674
_cell_angle_alpha   79.39382258
_cell_angle_beta   90.00000000
_cell_angle_gamma   90.00000000
_symmetry_Int_Tables_number   1
_chemical_formula_structural   MgSi2
_chemical_formula_sum   'Mg2 Si4'
_cell_volume   103.99770509
_cell_formula_units_Z   2
loop_
 _symmetry_equiv_pos_site_id
 _symmetry_equiv_pos_as_xyz
  1  'x, y, z'
loop_
 _atom_site_type_symbol
 _atom_site_label
 _atom_site_symmetry_multiplicity
 _atom_site_fract_x
 _atom_site_fract_y
 _atom_site_fract_z
 _atom_site_occupancy
  Mg  Mg0  1  0.25000000  0.93497500  0.20041400  1
  Mg  Mg1  1  0.75000000  0.06502500  0.79958600  1
  Si  Si0  1  0.25000000  0.33965700  0.46525600  1
  Si  Si1  1  0.75000000  0.44587800  0.13053100  1
  Si  Si2  1  0.25000000  0.55412200  0.86946900  1
  Si  Si3  1  0.75000000  0.66034300  0.53474400  1
loop_
_geom_bond_atom_site_label_1
_geom_bond_atom_site_label_2
_geom_bond_distance
_geom_bond_site_symmetry_2
Mg0 Si0 2.716137 1_565
Mg0 Si1 2.888452 1_465
Mg0 Si1 2.888452 1_565
Mg0 Si0 2.888527 1_555
Mg0 Si3 2.927753 1_455
Mg0 Si3 2.927753 1_555
Mg0 Si1 2.942082 1_455
Mg0 Si1 2.942082 1_555
Mg0 Si2 2.978851 1_554
Mg0 Mg1 3.146463 1_564
Mg0 Mg1 3.146463 1_464
Mg0 Si2 3.175282 1_564
Mg1 Si3 2.716137 1_545
Mg1 Si2 2.888452 1_645
Mg1 Si2 2.888452 1_545
Mg1 Si3 2.888527 1_555
Mg1 Si0 2.927753 1_555
Mg1 Si0 2.927753 1_655
Mg1 Si2 2.942082 1_655
Mg1 Si2 2.942082 1_555
Mg1 Si1 2.978851 1_556
Mg1 Si1 3.175282 1_546
Si0 Si3 2.410356 1_455
Si0 Si3 2.410356 1_555
Si0 Si1 2.811895 1_555
Si0 Si1 2.811895 1_455
Si0 Si2 2.959761 1_555
Si1 Si2 2.476965 1_554
Si1 Si2 2.476965 1_654
Si1 Si3 2.959761 1_555
Si2 Si3 2.811895 1_455
Si2 Si3 2.811895 1_555
