# generated using pymatgen
data_EuGaAg4
_symmetry_space_group_name_H-M   'P 1'
_cell_length_a   5.50219885
_cell_length_b   5.50219885
_cell_length_c   4.58023316
_cell_angle_alpha   90.00000000
_cell_angle_beta   90.00000000
_cell_angle_gamma   116.86563910
_symmetry_Int_Tables_number   1
_chemical_formula_structural   EuGaAg4
_chemical_formula_sum   'Eu1 Ga1 Ag4'
_cell_volume   123.69679619
_cell_formula_units_Z   1
loop_
 _symmetry_equiv_pos_site_id
 _symmetry_equiv_pos_as_xyz
  1  'x, y, z'
loop_
 _atom_site_type_symbol
 _atom_site_label
 _atom_site_symmetry_multiplicity
 _atom_site_fract_x
 _atom_site_fract_y
 _atom_site_fract_z
 _atom_site_occupancy
  Eu  Eu0  1  0.50000000  0.50000000  -0.00000000  1
  Ga  Ga0  1  0.00000000  -0.00000000  0.50000000  1
  Ag  Ag0  1  0.15759748  0.84240252  -0.00000000  1
  Ag  Ag1  1  0.84240252  0.15759748  0.00000000  1
  Ag  Ag2  1  0.00000000  0.50000000  0.50000000  1
  Ag  Ag3  1  0.50000000  -0.00000000  0.50000000  1
loop_
_geom_bond_atom_site_label_1
_geom_bond_atom_site_label_2
_geom_bond_distance
_geom_bond_site_symmetry_2
Eu0 Ga0 3.679848 1_665
Eu0 Ga0 3.679848 1_554
Eu0 Ga0 3.679848 1_664
Eu0 Ga0 3.679848 1_555
Ag0 Ga0 2.725446 1_564
Ag0 Ga0 2.725446 1_565
Ag0 Ag3 2.840668 1_565
Ag0 Ag3 2.840668 1_564
Ag0 Ag2 2.840668 1_555
Ag0 Ag2 2.840668 1_554
Ag0 Ag1 2.955282 1_465
Ag0 Eu0 3.210381 1_555
Ag0 Eu0 3.237293 1_455
Ag0 Eu0 3.237293 1_565
Ag0 Ag1 3.361403 1_455
Ag0 Ag1 3.361403 1_565
Ag1 Ga0 2.725446 1_654
Ag1 Ga0 2.725446 1_655
Ag1 Ag2 2.840668 1_654
Ag1 Ag2 2.840668 1_655
Ag1 Ag3 2.840668 1_554
Ag1 Ag3 2.840668 1_555
Ag1 Eu0 3.210381 1_555
Ag1 Eu0 3.237293 1_545
Ag1 Eu0 3.237293 1_655
Ag2 Ga0 2.751099 1_555
Ag2 Ga0 2.751099 1_565
Ag2 Ag3 2.880390 1_455
Ag2 Ag3 2.880390 1_565
Ag2 Eu0 3.579551 1_455
Ag2 Eu0 3.579551 1_555
Ag2 Eu0 3.579551 1_556
Ag2 Eu0 3.579551 1_456
Ag3 Ga0 2.751099 1_655
Ag3 Ga0 2.751099 1_555
Ag3 Eu0 3.579551 1_555
Ag3 Eu0 3.579551 1_545
Ag3 Eu0 3.579551 1_556
Ag3 Eu0 3.579551 1_546
