# generated using pymatgen
data_Mg14SiSn
_symmetry_space_group_name_H-M   'P 1'
_cell_length_a   6.26451072
_cell_length_b   6.59545415
_cell_length_c   10.16864989
_cell_angle_alpha   90.00000000
_cell_angle_beta   90.00000000
_cell_angle_gamma   121.76349732
_symmetry_Int_Tables_number   1
_chemical_formula_structural   Mg14SiSn
_chemical_formula_sum   'Mg14 Si1 Sn1'
_cell_volume   357.21581877
_cell_formula_units_Z   1
loop_
 _symmetry_equiv_pos_site_id
 _symmetry_equiv_pos_as_xyz
  1  'x, y, z'
loop_
 _atom_site_type_symbol
 _atom_site_label
 _atom_site_symmetry_multiplicity
 _atom_site_fract_x
 _atom_site_fract_y
 _atom_site_fract_z
 _atom_site_occupancy
  Mg  Mg0  1  0.17079998  0.33539949  0.62500000  1
  Mg  Mg1  1  0.17009371  0.83504636  0.62500000  1
  Mg  Mg2  1  0.67082548  0.33475737  0.12500000  1
  Mg  Mg3  1  0.66773690  0.33464875  0.62500000  1
  Mg  Mg4  1  0.67082548  0.83606711  0.12500000  1
  Mg  Mg5  1  0.66773690  0.83308716  0.62500000  1
  Mg  Mg6  1  0.32821450  0.15939536  0.36937226  1
  Mg  Mg7  1  0.32821450  0.15939536  0.88062774  1
  Mg  Mg8  1  0.32821450  0.66882013  0.36937226  1
  Mg  Mg9  1  0.32821450  0.66882013  0.88062774  1
  Mg  Mg10  1  0.83269301  0.16634701  0.37627058  1
  Mg  Mg11  1  0.83269301  0.16634701  0.87372942  1
  Mg  Mg12  1  0.83838853  0.66919477  0.37040071  1
  Mg  Mg13  1  0.83838853  0.66919477  0.87959929  1
  Si  Si0  1  0.16227452  0.83113676  0.12500000  1
  Sn  Sn0  1  0.16468596  0.33234248  0.12500000  1
loop_
_geom_bond_atom_site_label_1
_geom_bond_atom_site_label_2
_geom_bond_distance
_geom_bond_site_symmetry_2
Mg0 Mg10 3.104854 1_455
Mg0 Mg11 3.104854 1_455
Mg0 Mg5 3.115676 1_555
Mg0 Mg3 3.115676 1_555
Mg0 Mg5 3.148840 1_445
Mg0 Mg3 3.148840 1_455
Mg0 Mg7 3.206553 1_555
Mg0 Mg6 3.206553 1_555
Mg0 Mg8 3.206559 1_555
Mg0 Mg9 3.206559 1_555
Mg0 Mg1 3.297729 1_545
Mg0 Mg1 3.297729 1_555
Mg1 Mg3 3.124312 1_565
Mg1 Mg5 3.124313 1_555
Mg1 Mg12 3.134321 1_455
Mg1 Mg13 3.134321 1_455
Mg1 Mg3 3.140236 1_455
Mg1 Mg5 3.140237 1_455
Mg1 Mg8 3.175423 1_555
Mg1 Mg9 3.175423 1_555
Mg1 Mg6 3.175430 1_565
Mg1 Mg7 3.175430 1_565
Mg2 Mg6 3.083124 1_555
Mg2 Mg7 3.083124 1_554
Mg2 Si0 3.095929 1_655
Mg2 Sn0 3.102208 1_655
Mg2 Sn0 3.162361 1_555
Mg2 Si0 3.168825 1_545
Mg2 Mg4 3.289089 1_545
Mg2 Mg4 3.306365 1_555
Mg3 Mg6 3.166764 1_555
Mg3 Mg7 3.166764 1_555
Mg3 Mg5 3.287428 1_555
Mg3 Mg5 3.308026 1_545
Mg4 Mg9 3.083124 1_554
Mg4 Mg8 3.083124 1_555
Mg4 Si0 3.095929 1_655
Mg4 Sn0 3.102208 1_665
Mg4 Sn0 3.162361 1_555
Mg4 Si0 3.168826 1_555
Mg5 Mg9 3.166764 1_555
Mg5 Mg8 3.166764 1_555
Mg6 Si0 3.094079 1_545
Mg6 Sn0 3.123416 1_555
Mg6 Mg8 3.235566 1_545
Mg6 Mg8 3.359888 1_555
Mg7 Si0 3.094079 1_546
Mg7 Sn0 3.123416 1_556
Mg7 Mg9 3.235566 1_545
Mg7 Mg9 3.359888 1_555
Mg8 Si0 3.094072 1_555
Mg8 Sn0 3.123423 1_555
Mg9 Si0 3.094072 1_556
Mg9 Sn0 3.123423 1_556
Mg10 Sn0 3.107293 1_655
Mg10 Mg8 3.129364 1_655
Mg10 Mg6 3.129365 1_655
Mg10 Mg8 3.137202 1_545
Mg10 Mg6 3.137202 1_555
Mg10 Mg3 3.147180 1_555
Mg10 Mg5 3.147187 1_545
Mg10 Mg2 3.158521 1_555
Mg10 Mg4 3.158527 1_545
Mg10 Mg12 3.298407 1_555
Mg10 Mg12 3.298407 1_545
Mg11 Sn0 3.107293 1_656
Mg11 Mg9 3.129364 1_655
Mg11 Mg7 3.129365 1_655
Mg11 Mg9 3.137202 1_545
Mg11 Mg7 3.137202 1_555
Mg11 Mg3 3.147180 1_555
Mg11 Mg5 3.147187 1_545
Mg11 Mg2 3.158521 1_556
Mg11 Mg4 3.158527 1_546
Mg11 Mg13 3.298407 1_555
Mg11 Mg13 3.298407 1_545
Mg12 Si0 3.033639 1_655
Mg12 Mg6 3.069839 1_665
Mg12 Mg8 3.069839 1_655
Mg12 Mg4 3.123542 1_555
Mg12 Mg2 3.123548 1_555
Mg12 Mg6 3.194708 1_555
Mg12 Mg8 3.194708 1_555
Mg12 Mg5 3.198516 1_555
Mg12 Mg3 3.198522 1_555
Mg13 Si0 3.033639 1_656
Mg13 Mg7 3.069839 1_665
Mg13 Mg9 3.069839 1_655
Mg13 Mg4 3.123542 1_556
Mg13 Mg2 3.123548 1_556
Mg13 Mg7 3.194708 1_555
Mg13 Mg9 3.194708 1_555
Mg13 Mg5 3.198516 1_555
Mg13 Mg3 3.198522 1_555
Si0 Sn0 3.297752 1_565
Si0 Sn0 3.297752 1_555
