# generated using pymatgen
data_HoHg2
_symmetry_space_group_name_H-M   'P 1'
_cell_length_a   6.76851600
_cell_length_b   10.66345618
_cell_length_c   10.66345618
_cell_angle_alpha   120.00000114
_cell_angle_beta   90.00000000
_cell_angle_gamma   90.00000000
_symmetry_Int_Tables_number   1
_chemical_formula_structural   HoHg2
_chemical_formula_sum   'Ho8 Hg16'
_cell_volume   666.53055658
_cell_formula_units_Z   8
loop_
 _symmetry_equiv_pos_site_id
 _symmetry_equiv_pos_as_xyz
  1  'x, y, z'
loop_
 _atom_site_type_symbol
 _atom_site_label
 _atom_site_symmetry_multiplicity
 _atom_site_fract_x
 _atom_site_fract_y
 _atom_site_fract_z
 _atom_site_occupancy
  Ho  Ho0_0  1  0.00000000  0.00000000  0.00000000  1
  Ho  Ho0_1  1  0.00000000  0.00000000  0.50000000  1
  Ho  Ho0_2  1  0.00000000  0.50000000  0.00000000  1
  Ho  Ho0_3  1  0.00000000  0.50000000  0.50000000  1
  Ho  Ho0_4  1  0.50000000  0.00000000  0.00000000  1
  Ho  Ho0_5  1  0.50000000  0.00000000  0.50000000  1
  Ho  Ho0_6  1  0.50000000  0.50000000  0.00000000  1
  Ho  Ho0_7  1  0.50000000  0.50000000  0.50000000  1
  Hg  Hg0_0  1  0.04130850  0.33333350  0.16666650  1
  Hg  Hg0_1  1  0.04130850  0.33333350  0.66666650  1
  Hg  Hg0_2  1  0.04130850  0.83333350  0.16666650  1
  Hg  Hg0_3  1  0.04130850  0.83333350  0.66666650  1
  Hg  Hg0_4  1  0.54130850  0.33333350  0.16666650  1
  Hg  Hg0_5  1  0.54130850  0.33333350  0.66666650  1
  Hg  Hg0_6  1  0.54130850  0.83333350  0.16666650  1
  Hg  Hg0_7  1  0.54130850  0.83333350  0.66666650  1
  Hg  Hg1_0  1  0.45869150  0.16666650  0.33333350  1
  Hg  Hg1_1  1  0.45869150  0.16666650  0.83333350  1
  Hg  Hg1_2  1  0.45869150  0.66666650  0.33333350  1
  Hg  Hg1_3  1  0.45869150  0.66666650  0.83333350  1
  Hg  Hg1_4  1  0.95869150  0.16666650  0.33333350  1
  Hg  Hg1_5  1  0.95869150  0.16666650  0.83333350  1
  Hg  Hg1_6  1  0.95869150  0.66666650  0.33333350  1
  Hg  Hg1_7  1  0.95869150  0.66666650  0.83333350  1
loop_
_geom_bond_atom_site_label_1
_geom_bond_atom_site_label_2
_geom_bond_distance
_geom_bond_site_symmetry_2
Ho0_0 Ho0_4 3.384258 1_555
Ho0_0 Ho0_4 3.384258 1_455
Ho0_1 Ho0_5 3.384258 1_555
Ho0_1 Ho0_5 3.384258 1_455
Ho0_2 Ho0_6 3.384258 1_555
Ho0_2 Ho0_6 3.384258 1_455
Ho0_3 Ho0_7 3.384258 1_455
Ho0_3 Ho0_7 3.384258 1_555
Hg0_0 Ho0_2 3.090943 1_555
Hg0_0 Ho0_3 3.090948 1_555
Hg0_0 Ho0_0 3.090948 1_555
Hg0_0 Hg1_6 3.128651 1_455
Hg0_0 Hg1_5 3.128651 1_454
Hg0_0 Hg1_4 3.128660 1_455
Hg0_0 Hg0_4 3.384258 1_455
Hg0_0 Hg0_4 3.384258 1_555
Hg0_1 Ho0_3 3.090943 1_555
Hg0_1 Ho0_2 3.090948 1_556
Hg0_1 Ho0_1 3.090948 1_555
Hg0_1 Hg1_7 3.128651 1_455
Hg0_1 Hg1_4 3.128651 1_455
Hg0_1 Hg1_5 3.128660 1_455
Hg0_1 Hg0_5 3.384258 1_455
Hg0_1 Hg0_5 3.384258 1_555
Hg0_2 Ho0_0 3.090943 1_565
Hg0_2 Ho0_2 3.090948 1_555
Hg0_2 Ho0_1 3.090948 1_565
Hg0_2 Hg1_7 3.128651 1_454
Hg0_2 Hg1_4 3.128651 1_465
Hg0_2 Hg1_6 3.128660 1_455
Hg0_2 Hg0_6 3.384258 1_455
Hg0_2 Hg0_6 3.384258 1_555
Hg0_3 Ho0_1 3.090943 1_565
Hg0_3 Ho0_0 3.090948 1_566
Hg0_3 Ho0_3 3.090948 1_555
Hg0_3 Hg1_6 3.128651 1_455
Hg0_3 Hg1_5 3.128651 1_465
Hg0_3 Hg1_7 3.128660 1_455
Hg0_3 Hg0_7 3.384258 1_455
Hg0_3 Hg0_7 3.384258 1_555
Hg0_4 Ho0_6 3.090943 1_555
Hg0_4 Ho0_4 3.090948 1_555
Hg0_4 Ho0_7 3.090948 1_555
Hg0_4 Hg1_1 3.128651 1_554
Hg0_4 Hg1_2 3.128651 1_555
Hg0_4 Hg1_0 3.128660 1_555
Hg0_5 Ho0_7 3.090943 1_555
Hg0_5 Ho0_5 3.090948 1_555
Hg0_5 Ho0_6 3.090948 1_556
Hg0_5 Hg1_0 3.128651 1_555
Hg0_5 Hg1_3 3.128651 1_555
Hg0_5 Hg1_1 3.128660 1_555
Hg0_6 Ho0_4 3.090943 1_565
Hg0_6 Ho0_6 3.090948 1_555
Hg0_6 Ho0_5 3.090948 1_565
Hg0_6 Hg1_3 3.128651 1_554
Hg0_6 Hg1_0 3.128651 1_565
Hg0_6 Hg1_2 3.128660 1_555
Hg0_7 Ho0_5 3.090943 1_565
Hg0_7 Ho0_7 3.090948 1_555
Hg0_7 Ho0_4 3.090948 1_566
Hg0_7 Hg1_2 3.128651 1_555
Hg0_7 Hg1_1 3.128651 1_565
Hg0_7 Hg1_3 3.128660 1_555
Hg1_0 Ho0_5 3.090943 1_555
Hg1_0 Ho0_4 3.090948 1_555
Hg1_0 Ho0_7 3.090948 1_555
Hg1_0 Hg1_4 3.384258 1_555
Hg1_0 Hg1_4 3.384258 1_455
Hg1_1 Ho0_4 3.090943 1_556
Hg1_1 Ho0_5 3.090948 1_555
Hg1_1 Ho0_6 3.090948 1_556
Hg1_1 Hg1_5 3.384258 1_455
Hg1_1 Hg1_5 3.384258 1_555
Hg1_2 Ho0_7 3.090943 1_555
Hg1_2 Ho0_5 3.090948 1_565
Hg1_2 Ho0_6 3.090948 1_555
Hg1_2 Hg1_6 3.384258 1_555
Hg1_2 Hg1_6 3.384258 1_455
Hg1_3 Ho0_6 3.090943 1_556
Hg1_3 Ho0_4 3.090948 1_566
Hg1_3 Ho0_7 3.090948 1_555
Hg1_3 Hg1_7 3.384258 1_455
Hg1_3 Hg1_7 3.384258 1_555
Hg1_4 Ho0_1 3.090943 1_655
Hg1_4 Ho0_0 3.090948 1_655
Hg1_4 Ho0_3 3.090948 1_655
Hg1_5 Ho0_0 3.090943 1_656
Hg1_5 Ho0_1 3.090948 1_655
Hg1_5 Ho0_2 3.090948 1_656
Hg1_6 Ho0_3 3.090943 1_655
Hg1_6 Ho0_1 3.090948 1_665
Hg1_6 Ho0_2 3.090948 1_655
Hg1_7 Ho0_2 3.090943 1_656
Hg1_7 Ho0_3 3.090948 1_655
Hg1_7 Ho0_0 3.090948 1_666
