# generated using pymatgen
data_Sr2LiTa2(NO2)2
_symmetry_space_group_name_H-M   'P 1'
_cell_length_a   5.87527597
_cell_length_b   5.88726054
_cell_length_c   5.88680069
_cell_angle_alpha   88.18949024
_cell_angle_beta   121.11629064
_cell_angle_gamma   121.11883075
_symmetry_Int_Tables_number   1
_chemical_formula_structural   Sr2LiTa2(NO2)2
_chemical_formula_sum   'Sr2 Li1 Ta2 N2 O4'
_cell_volume   141.32507801
_cell_formula_units_Z   1
loop_
 _symmetry_equiv_pos_site_id
 _symmetry_equiv_pos_as_xyz
  1  'x, y, z'
loop_
 _atom_site_type_symbol
 _atom_site_label
 _atom_site_symmetry_multiplicity
 _atom_site_fract_x
 _atom_site_fract_y
 _atom_site_fract_z
 _atom_site_occupancy
  Sr  Sr0  1  0.49997000  0.20005600  0.72591900  1
  Sr  Sr1  1  0.50002700  0.77421000  0.29995800  1
  Li  Li0  1  0.49999900  0.55995400  0.94002400  1
  Ta  Ta0  1  0.01352200  0.01170700  0.00241100  1
  Ta  Ta1  1  0.98647800  0.49819100  0.48889600  1
  N  N0  1  0.00006100  0.25600500  0.24368700  1
  N  N1  1  0.99994000  0.75591900  0.74365100  1
  O  O0  1  0.06465100  0.28660200  0.77781600  1
  O  O1  1  0.50000100  0.78206900  0.71787300  1
  O  O2  1  0.93534800  0.72200600  0.21322100  1
  O  O3  1  0.50000100  0.22099100  0.27883600  1
loop_
_geom_bond_atom_site_label_1
_geom_bond_atom_site_label_2
_geom_bond_distance
_geom_bond_site_symmetry_2
Li0 O1 1.819923 1_555
Li0 O0 1.833579 1_555
Li0 O2 1.833584 1_556
Li0 Sr0 2.499222 1_555
Li0 Sr1 2.499791 1_556
Li0 O3 2.776487 1_556
N0 Ta0 2.110672 1_555
N0 Ta1 2.118895 1_455
N0 Sr0 2.799769 1_454
N0 Sr1 2.800167 1_555
N0 Sr0 3.019461 1_555
N0 Sr1 3.019813 1_445
N1 Ta1 2.110619 1_555
N1 Ta0 2.118850 1_666
N1 Sr0 2.799695 1_665
N1 Sr1 2.800118 1_555
N1 Sr0 3.019507 1_555
N1 Sr1 3.019839 1_656
O0 Ta0 2.056755 1_556
O0 Ta1 2.074982 1_455
O0 Sr1 2.926680 1_445
O0 Sr0 2.928275 1_455
O0 Sr0 3.009778 1_555
O0 Sr1 3.012152 1_556
O1 Ta0 2.107123 1_666
O1 Ta1 2.107132 1_455
O1 Sr1 2.462159 1_555
O1 Sr0 2.462846 1_565
O2 Ta1 2.056755 1_555
O2 Ta0 2.074990 1_665
O2 Sr1 2.926959 1_655
O2 Sr0 2.927983 1_665
O2 Sr0 3.010493 1_554
O2 Sr1 3.011447 1_555
O3 Ta1 2.003719 1_555
O3 Ta0 2.003727 1_555
O3 Sr1 2.629402 1_545
O3 Sr0 2.630970 1_555
