# generated using pymatgen
data_Na3NO3
_symmetry_space_group_name_H-M   'P 1'
_cell_length_a   6.36298530
_cell_length_b   6.36298530
_cell_length_c   4.56426992
_cell_angle_alpha   90.00000000
_cell_angle_beta   90.00000000
_cell_angle_gamma   90.00000000
_symmetry_Int_Tables_number   1
_chemical_formula_structural   Na3NO3
_chemical_formula_sum   'Na6 N2 O6'
_cell_volume   184.79625233
_cell_formula_units_Z   2
loop_
 _symmetry_equiv_pos_site_id
 _symmetry_equiv_pos_as_xyz
  1  'x, y, z'
loop_
 _atom_site_type_symbol
 _atom_site_label
 _atom_site_symmetry_multiplicity
 _atom_site_fract_x
 _atom_site_fract_y
 _atom_site_fract_z
 _atom_site_occupancy
  Na  Na0  1  -0.00000000  -0.00000000  0.50000000  1
  Na  Na1  1  0.27532843  0.22467157  0.01234150  1
  Na  Na2  1  0.77532843  0.27532843  0.98765850  1
  Na  Na3  1  0.50000000  0.50000000  0.50000000  1
  Na  Na4  1  0.22467157  0.72467157  0.98765850  1
  Na  Na5  1  0.72467157  0.77532843  0.01234150  1
  N  N0  1  0.50000000  -0.00000000  0.38010467  1
  N  N1  1  -0.00000000  0.50000000  0.61989533  1
  O  O0  1  -0.00000000  -0.00000000  0.00000000  1
  O  O1  1  0.38079143  0.11920857  0.52909037  1
  O  O2  1  0.88079143  0.38079143  0.47090963  1
  O  O3  1  0.50000000  0.50000000  0.00000000  1
  O  O4  1  0.11920857  0.61920857  0.47090963  1
  O  O5  1  0.61920857  0.88079143  0.52909037  1
loop_
_geom_bond_atom_site_label_1
_geom_bond_atom_site_label_2
_geom_bond_distance
_geom_bond_site_symmetry_2
Na0 O0 2.282135 1_555
Na0 O0 2.282135 1_556
Na0 O1 2.542395 1_555
Na0 O2 2.542395 1_455
Na0 O4 2.542395 1_545
Na0 O5 2.542395 1_445
Na1 O3 2.261873 1_555
Na1 O0 2.261873 1_555
Na1 O1 2.401188 1_554
Na1 O1 2.542351 1_555
Na2 O3 2.261873 1_556
Na2 O0 2.261873 1_656
Na2 O2 2.401188 1_556
Na2 O2 2.542351 1_555
Na3 O3 2.282135 1_555
Na3 O3 2.282135 1_556
Na3 O4 2.542395 1_555
Na3 O1 2.542395 1_555
Na3 O5 2.542395 1_555
Na3 O2 2.542395 1_555
Na4 O0 2.261873 1_566
Na4 O3 2.261873 1_556
Na4 O4 2.401188 1_556
Na4 O4 2.542351 1_555
Na5 O0 2.261873 1_665
Na5 O3 2.261873 1_555
Na5 O5 2.401188 1_554
Na5 O5 2.542351 1_555
N0 O5 1.270089 1_545
N0 O1 1.270089 1_555
N0 Na5 2.627738 1_545
N0 Na1 2.627738 1_555
N0 Na4 3.057268 1_544
N0 Na2 3.057268 1_554
N1 O2 1.270089 1_455
N1 O4 1.270089 1_555
N1 Na2 2.627738 1_455
N1 Na4 2.627738 1_555
N1 Na1 3.057268 1_556
N1 Na5 3.057268 1_456
