# generated using pymatgen
data_Ta2NiS4
_symmetry_space_group_name_H-M   'P 1'
_cell_length_a   6.70100873
_cell_length_b   6.70100873
_cell_length_c   24.67958200
_cell_angle_alpha   90.00000000
_cell_angle_beta   90.00000000
_cell_angle_gamma   120.00000719
_symmetry_Int_Tables_number   1
_chemical_formula_structural   Ta2NiS4
_chemical_formula_sum   'Ta16 Ni8 S32'
_cell_volume   959.72932971
_cell_formula_units_Z   8
loop_
 _symmetry_equiv_pos_site_id
 _symmetry_equiv_pos_as_xyz
  1  'x, y, z'
loop_
 _atom_site_type_symbol
 _atom_site_label
 _atom_site_symmetry_multiplicity
 _atom_site_fract_x
 _atom_site_fract_y
 _atom_site_fract_z
 _atom_site_occupancy
  Ta  Ta0_0  1  0.00000000  0.00000000  0.13033800  1
  Ta  Ta0_1  1  0.00000000  0.00000000  0.63033800  1
  Ta  Ta0_2  1  0.00000000  0.50000000  0.13033800  1
  Ta  Ta0_3  1  0.00000000  0.50000000  0.63033800  1
  Ta  Ta0_4  1  0.50000000  0.00000000  0.13033800  1
  Ta  Ta0_5  1  0.50000000  0.00000000  0.63033800  1
  Ta  Ta0_6  1  0.50000000  0.50000000  0.13033800  1
  Ta  Ta0_7  1  0.50000000  0.50000000  0.63033800  1
  Ta  Ta1_0  1  0.00000000  0.00000000  0.36966200  1
  Ta  Ta1_1  1  0.00000000  0.00000000  0.86966200  1
  Ta  Ta1_2  1  0.00000000  0.50000000  0.36966200  1
  Ta  Ta1_3  1  0.00000000  0.50000000  0.86966200  1
  Ta  Ta1_4  1  0.50000000  0.00000000  0.36966200  1
  Ta  Ta1_5  1  0.50000000  0.00000000  0.86966200  1
  Ta  Ta1_6  1  0.50000000  0.50000000  0.36966200  1
  Ta  Ta1_7  1  0.50000000  0.50000000  0.86966200  1
  Ni  Ni0_0  1  0.00000000  0.00000000  0.25000000  1
  Ni  Ni0_1  1  0.00000000  0.00000000  0.75000000  1
  Ni  Ni0_2  1  0.00000000  0.50000000  0.25000000  1
  Ni  Ni0_3  1  0.00000000  0.50000000  0.75000000  1
  Ni  Ni0_4  1  0.50000000  0.00000000  0.25000000  1
  Ni  Ni0_5  1  0.50000000  0.00000000  0.75000000  1
  Ni  Ni0_6  1  0.50000000  0.50000000  0.25000000  1
  Ni  Ni0_7  1  0.50000000  0.50000000  0.75000000  1
  S  S0_0  1  0.16666650  0.33333350  0.43243900  1
  S  S0_1  1  0.16666650  0.33333350  0.93243900  1
  S  S0_2  1  0.16666650  0.83333350  0.43243900  1
  S  S0_3  1  0.16666650  0.83333350  0.93243900  1
  S  S0_4  1  0.66666650  0.33333350  0.43243900  1
  S  S0_5  1  0.66666650  0.33333350  0.93243900  1
  S  S0_6  1  0.66666650  0.83333350  0.43243900  1
  S  S0_7  1  0.66666650  0.83333350  0.93243900  1
  S  S1_0  1  0.33333350  0.16666650  0.06756100  1
  S  S1_1  1  0.33333350  0.16666650  0.56756100  1
  S  S1_2  1  0.33333350  0.66666650  0.06756100  1
  S  S1_3  1  0.33333350  0.66666650  0.56756100  1
  S  S1_4  1  0.83333350  0.16666650  0.06756100  1
  S  S1_5  1  0.83333350  0.16666650  0.56756100  1
  S  S1_6  1  0.83333350  0.66666650  0.06756100  1
  S  S1_7  1  0.83333350  0.66666650  0.56756100  1
  S  S2_0  1  0.33333350  0.16666650  0.19351500  1
  S  S2_1  1  0.33333350  0.16666650  0.69351500  1
  S  S2_2  1  0.33333350  0.66666650  0.19351500  1
  S  S2_3  1  0.33333350  0.66666650  0.69351500  1
  S  S2_4  1  0.83333350  0.16666650  0.19351500  1
  S  S2_5  1  0.83333350  0.16666650  0.69351500  1
  S  S2_6  1  0.83333350  0.66666650  0.19351500  1
  S  S2_7  1  0.83333350  0.66666650  0.69351500  1
  S  S3_0  1  0.16666650  0.33333350  0.30648500  1
  S  S3_1  1  0.16666650  0.33333350  0.80648500  1
  S  S3_2  1  0.16666650  0.83333350  0.30648500  1
  S  S3_3  1  0.16666650  0.83333350  0.80648500  1
  S  S3_4  1  0.66666650  0.33333350  0.30648500  1
  S  S3_5  1  0.66666650  0.33333350  0.80648500  1
  S  S3_6  1  0.66666650  0.83333350  0.30648500  1
  S  S3_7  1  0.66666650  0.83333350  0.80648500  1
loop_
_geom_bond_atom_site_label_1
_geom_bond_atom_site_label_2
_geom_bond_distance
_geom_bond_site_symmetry_2
Ni0_0 S3_2 2.384379 1_545
Ni0_0 S2_4 2.384379 1_455
Ni0_0 S2_0 2.384381 1_555
Ni0_0 S3_6 2.384381 1_445
Ni0_0 S3_0 2.384381 1_555
Ni0_0 S2_6 2.384381 1_445
Ni0_1 S2_5 2.384379 1_455
Ni0_1 S3_3 2.384379 1_545
Ni0_1 S2_1 2.384381 1_555
Ni0_1 S3_1 2.384381 1_555
Ni0_1 S3_7 2.384381 1_445
Ni0_1 S2_7 2.384381 1_445
Ni0_2 S3_0 2.384379 1_555
Ni0_2 S2_6 2.384379 1_455
Ni0_2 S3_2 2.384381 1_555
Ni0_2 S2_2 2.384381 1_555
Ni0_2 S3_4 2.384381 1_455
Ni0_2 S2_4 2.384381 1_455
Ni0_3 S2_7 2.384379 1_455
Ni0_3 S3_1 2.384379 1_555
Ni0_3 S3_3 2.384381 1_555
Ni0_3 S2_3 2.384381 1_555
Ni0_3 S2_5 2.384381 1_455
Ni0_3 S3_5 2.384381 1_455
Ni0_4 S2_0 2.384379 1_555
Ni0_4 S3_6 2.384379 1_545
Ni0_4 S3_2 2.384381 1_545
Ni0_4 S3_4 2.384381 1_555
Ni0_4 S2_4 2.384381 1_555
Ni0_4 S2_2 2.384381 1_545
Ni0_5 S2_1 2.384379 1_555
Ni0_5 S3_7 2.384379 1_545
Ni0_5 S3_3 2.384381 1_545
Ni0_5 S3_5 2.384381 1_555
Ni0_5 S2_3 2.384381 1_545
Ni0_5 S2_5 2.384381 1_555
Ni0_6 S2_2 2.384379 1_555
Ni0_6 S3_4 2.384379 1_555
Ni0_6 S3_0 2.384381 1_555
Ni0_6 S2_0 2.384381 1_555
Ni0_6 S2_6 2.384381 1_555
Ni0_6 S3_6 2.384381 1_555
Ni0_7 S3_5 2.384379 1_555
Ni0_7 S2_3 2.384379 1_555
Ni0_7 S2_1 2.384381 1_555
Ni0_7 S3_1 2.384381 1_555
Ni0_7 S2_7 2.384381 1_555
Ni0_7 S3_7 2.384381 1_555
S0_0 Ta1_2 2.478369 1_555
S0_0 Ta1_6 2.478371 1_555
S0_0 Ta1_0 2.478371 1_555
S0_0 S0_6 3.350504 1_445
S0_0 S0_6 3.350504 1_555
S0_0 S0_4 3.350504 1_455
S0_0 S0_2 3.350504 1_555
S0_0 S0_2 3.350504 1_545
S0_0 S0_4 3.350504 1_555
S0_1 Ta1_3 2.478369 1_555
S0_1 Ta1_7 2.478371 1_555
S0_1 Ta1_1 2.478371 1_555
S0_1 S0_7 3.350504 1_445
S0_1 S0_7 3.350504 1_555
S0_1 S0_5 3.350504 1_455
S0_1 S0_3 3.350504 1_555
S0_1 S0_5 3.350504 1_555
S0_1 S0_3 3.350504 1_545
S0_2 Ta1_0 2.478369 1_565
S0_2 Ta1_4 2.478371 1_565
S0_2 Ta1_2 2.478371 1_555
S0_2 S0_4 3.350504 1_565
S0_2 S0_4 3.350504 1_455
S0_2 S0_6 3.350504 1_555
S0_2 S0_6 3.350504 1_455
S0_3 Ta1_1 2.478369 1_565
S0_3 Ta1_5 2.478371 1_565
S0_3 Ta1_3 2.478371 1_555
S0_3 S0_5 3.350504 1_565
S0_3 S0_5 3.350504 1_455
S0_3 S0_7 3.350504 1_455
S0_3 S0_7 3.350504 1_555
S0_4 Ta1_6 2.478369 1_555
S0_4 Ta1_4 2.478371 1_555
S0_4 Ta1_2 2.478371 1_655
S0_4 S0_6 3.350504 1_555
S0_4 S0_6 3.350504 1_545
S0_5 Ta1_7 2.478369 1_555
S0_5 Ta1_5 2.478371 1_555
S0_5 Ta1_3 2.478371 1_655
S0_5 S0_7 3.350504 1_545
S0_5 S0_7 3.350504 1_555
S0_6 Ta1_4 2.478369 1_565
S0_6 Ta1_0 2.478371 1_665
S0_6 Ta1_6 2.478371 1_555
S0_7 Ta1_5 2.478369 1_565
S0_7 Ta1_7 2.478371 1_555
S0_7 Ta1_1 2.478371 1_665
S1_0 Ta0_4 2.478369 1_555
S1_0 Ta0_6 2.478371 1_555
S1_0 Ta0_0 2.478371 1_555
S1_0 S1_6 3.350504 1_555
S1_0 S1_6 3.350504 1_445
S1_0 S1_4 3.350504 1_455
S1_0 S1_4 3.350504 1_555
S1_0 S1_2 3.350504 1_555
S1_0 S1_2 3.350504 1_545
S1_1 Ta0_5 2.478369 1_555
S1_1 Ta0_7 2.478371 1_555
S1_1 Ta0_1 2.478371 1_555
S1_1 S1_7 3.350504 1_555
S1_1 S1_7 3.350504 1_445
S1_1 S1_5 3.350504 1_455
S1_1 S1_3 3.350504 1_545
S1_1 S1_5 3.350504 1_555
S1_1 S1_3 3.350504 1_555
S1_2 Ta0_6 2.478369 1_555
S1_2 Ta0_2 2.478371 1_555
S1_2 Ta0_4 2.478371 1_565
S1_2 S1_4 3.350504 1_565
S1_2 S1_4 3.350504 1_455
S1_2 S1_6 3.350504 1_555
S1_2 S1_6 3.350504 1_455
S1_3 Ta0_7 2.478369 1_555
S1_3 Ta0_3 2.478371 1_555
S1_3 Ta0_5 2.478371 1_565
S1_3 S1_5 3.350504 1_565
S1_3 S1_5 3.350504 1_455
S1_3 S1_7 3.350504 1_555
S1_3 S1_7 3.350504 1_455
S1_4 Ta0_0 2.478369 1_655
S1_4 Ta0_4 2.478371 1_555
S1_4 Ta0_2 2.478371 1_655
S1_4 S1_6 3.350504 1_555
S1_4 S1_6 3.350504 1_545
S1_5 Ta0_1 2.478369 1_655
S1_5 Ta0_5 2.478371 1_555
S1_5 Ta0_3 2.478371 1_655
S1_5 S1_7 3.350504 1_555
S1_5 S1_7 3.350504 1_545
S1_6 Ta0_2 2.478369 1_655
S1_6 Ta0_6 2.478371 1_555
S1_6 Ta0_0 2.478371 1_665
S1_7 Ta0_3 2.478369 1_655
S1_7 Ta0_7 2.478371 1_555
S1_7 Ta0_1 2.478371 1_665
S2_0 Ta0_4 2.484552 1_555
S2_0 Ta0_6 2.484555 1_555
S2_0 Ta0_0 2.484555 1_555
S2_1 Ta0_5 2.484552 1_555
S2_1 Ta0_7 2.484555 1_555
S2_1 Ta0_1 2.484555 1_555
S2_2 Ta0_6 2.484552 1_555
S2_2 Ta0_2 2.484555 1_555
S2_2 Ta0_4 2.484555 1_565
S2_3 Ta0_7 2.484552 1_555
S2_3 Ta0_3 2.484555 1_555
S2_3 Ta0_5 2.484555 1_565
S2_4 Ta0_0 2.484552 1_655
S2_4 Ta0_2 2.484555 1_655
S2_4 Ta0_4 2.484555 1_555
S2_5 Ta0_1 2.484552 1_655
S2_5 Ta0_3 2.484555 1_655
S2_5 Ta0_5 2.484555 1_555
S2_6 Ta0_2 2.484552 1_655
S2_6 Ta0_6 2.484555 1_555
S2_6 Ta0_0 2.484555 1_665
S2_7 Ta0_3 2.484552 1_655
S2_7 Ta0_7 2.484555 1_555
S2_7 Ta0_1 2.484555 1_665
S3_0 Ta1_2 2.484552 1_555
S3_0 Ta1_6 2.484555 1_555
S3_0 Ta1_0 2.484555 1_555
S3_1 Ta1_3 2.484552 1_555
S3_1 Ta1_1 2.484555 1_555
S3_1 Ta1_7 2.484555 1_555
S3_2 Ta1_0 2.484552 1_565
S3_2 Ta1_4 2.484555 1_565
S3_2 Ta1_2 2.484555 1_555
S3_3 Ta1_1 2.484552 1_565
S3_3 Ta1_5 2.484555 1_565
S3_3 Ta1_3 2.484555 1_555
S3_4 Ta1_6 2.484552 1_555
S3_4 Ta1_4 2.484555 1_555
S3_4 Ta1_2 2.484555 1_655
S3_5 Ta1_7 2.484552 1_555
S3_5 Ta1_5 2.484555 1_555
S3_5 Ta1_3 2.484555 1_655
S3_6 Ta1_4 2.484552 1_565
S3_6 Ta1_6 2.484555 1_555
S3_6 Ta1_0 2.484555 1_665
S3_7 Ta1_5 2.484552 1_565
S3_7 Ta1_7 2.484555 1_555
S3_7 Ta1_1 2.484555 1_665
