# generated using pymatgen
data_Cs2Cu3C3N7
_symmetry_space_group_name_H-M   'P 1'
_cell_length_a   8.03344200
_cell_length_b   8.71413927
_cell_length_c   9.84896901
_cell_angle_alpha   97.32058424
_cell_angle_beta   114.06869325
_cell_angle_gamma   90.00000000
_symmetry_Int_Tables_number   1
_chemical_formula_structural   Cs2Cu3C3N7
_chemical_formula_sum   'Cs4 Cu6 C6 N14'
_cell_volume   623.36748689
_cell_formula_units_Z   2
loop_
 _symmetry_equiv_pos_site_id
 _symmetry_equiv_pos_as_xyz
  1  'x, y, z'
loop_
 _atom_site_type_symbol
 _atom_site_label
 _atom_site_symmetry_multiplicity
 _atom_site_fract_x
 _atom_site_fract_y
 _atom_site_fract_z
 _atom_site_occupancy
  Cs  Cs0  1  0.57031600  0.41657100  0.77223100  1
  Cs  Cs1  1  0.42968400  0.58342900  0.22776900  1
  Cs  Cs2  1  0.79808600  0.08342900  0.22776900  1
  Cs  Cs3  1  0.20191400  0.91657100  0.77223100  1
  Cu  Cu0  1  0.07271200  0.25000000  0.00000000  1
  Cu  Cu1  1  0.92728800  0.75000000  0.00000000  1
  Cu  Cu2  1  0.36180600  0.11604700  0.39157900  1
  Cu  Cu3  1  0.63819400  0.88395300  0.60842100  1
  Cu  Cu4  1  0.97022800  0.38395300  0.60842100  1
  Cu  Cu5  1  0.02977200  0.61604700  0.39157900  1
  C  C0  1  0.30597400  0.25000000  0.00000000  1
  C  C1  1  0.69402600  0.75000000  0.00000000  1
  C  C2  1  0.57852200  0.23268800  0.44583600  1
  C  C3  1  0.42147800  0.76731200  0.55416400  1
  C  C4  1  0.13268600  0.26731200  0.55416400  1
  C  C5  1  0.86731400  0.73268800  0.44583600  1
  N  N0  1  0.71723400  0.30982700  0.49319300  1
  N  N1  1  0.28276600  0.69017300  0.50680700  1
  N  N2  1  0.22404100  0.19017300  0.50680700  1
  N  N3  1  0.77595900  0.80982700  0.49319300  1
  N  N4  1  0.45306600  0.25000000  0.00000000  1
  N  N5  1  0.54693400  0.75000000  0.00000000  1
  N  N6  1  0.87923800  0.12391700  0.85782600  1
  N  N7  1  0.12076200  0.87608300  0.14217400  1
  N  N8  1  0.02141200  0.37608300  0.14217400  1
  N  N9  1  0.97858800  0.62391700  0.85782600  1
  N  N10  1  0.77889600  0.02901500  0.76672200  1
  N  N11  1  0.22110400  0.97098500  0.23327800  1
  N  N12  1  0.01217500  0.47098500  0.23327800  1
  N  N13  1  0.98782500  0.52901500  0.76672200  1
loop_
_geom_bond_atom_site_label_1
_geom_bond_atom_site_label_2
_geom_bond_distance
_geom_bond_site_symmetry_2
Cs0 N4 3.252660 1_556
Cs0 N2 3.349399 1_555
Cs0 N0 3.435883 1_555
Cs0 N9 3.476950 1_555
Cs0 N5 3.491773 1_556
Cs0 N6 3.494943 1_555
Cs0 N13 3.517753 1_555
Cs0 N1 3.810142 1_555
Cs0 N8 4.011249 1_656
Cs1 N5 3.252660 1_555
Cs1 N3 3.349399 1_555
Cs1 N1 3.435883 1_555
Cs1 N8 3.476950 1_555
Cs1 N4 3.491773 1_555
Cs1 N7 3.494943 1_555
Cs1 N12 3.517753 1_555
Cs1 N0 3.810142 1_555
Cs1 N9 4.011249 1_454
Cs2 N4 3.252664 1_555
Cs2 N0 3.349403 1_555
Cs2 N2 3.435877 1_655
Cs2 N7 3.476944 1_645
Cs2 N5 3.491776 1_545
Cs2 N8 3.494938 1_655
Cs2 N11 3.517753 1_645
Cs2 N3 3.810144 1_545
Cs2 N6 4.011245 1_554
Cs3 N5 3.252664 1_556
Cs3 N1 3.349403 1_555
Cs3 N3 3.435877 1_455
Cs3 N6 3.476944 1_465
Cs3 N4 3.491776 1_566
Cs3 N9 3.494938 1_455
Cs3 N10 3.517753 1_465
Cs3 N2 3.810144 1_565
Cs3 N7 4.011245 1_556
Cu0 N8 1.848342 1_555
Cu0 N6 1.848342 1_454
Cu1 N7 1.848342 1_655
Cu1 N9 1.848342 1_554
Cu2 N11 1.834847 1_545
Cu2 N2 1.941054 1_555
Cu3 N10 1.834847 1_565
Cu3 N3 1.941054 1_555
Cu4 N13 1.834851 1_555
Cu4 N0 1.941061 1_555
Cu5 N12 1.834851 1_555
Cu5 N1 1.941061 1_555
C0 N4 1.181655 1_555
C0 Cu0 1.873897 1_555
C0 Cs3 3.314017 1_544
C0 Cs1 3.314018 1_555
C1 N5 1.181655 1_555
C1 Cu1 1.873897 1_555
C1 Cs2 3.314017 1_565
C1 Cs0 3.314018 1_554
C2 N0 1.186298 1_555
C2 Cu2 1.858068 1_555
C2 Cs0 3.430177 1_555
C2 Cs2 3.434203 1_555
C2 Cs1 3.868111 1_555
C3 N1 1.186298 1_555
C3 Cu3 1.858068 1_555
C3 Cs1 3.430177 1_555
C3 Cs3 3.434203 1_555
C3 Cs0 3.868111 1_555
C4 N2 1.186298 1_555
C4 Cu4 1.858061 1_455
C4 Cs2 3.430173 1_455
C4 Cs0 3.434197 1_555
C4 Cs3 3.868111 1_545
C5 N3 1.186298 1_555
C5 Cu5 1.858061 1_655
C5 Cs3 3.430173 1_655
C5 Cs1 3.434197 1_555
C5 Cs2 3.868111 1_565
N10 N6 1.166080 1_555
N11 N7 1.166080 1_555
N12 N8 1.166077 1_555
N13 N9 1.166077 1_555
