# generated using pymatgen
data_CaHo2Cu(SiO3)4
_symmetry_space_group_name_H-M   'P 1'
_cell_length_a   5.23098699
_cell_length_b   7.52497071
_cell_length_c   7.96910688
_cell_angle_alpha   62.35566464
_cell_angle_beta   85.14530166
_cell_angle_gamma   77.82817196
_symmetry_Int_Tables_number   1
_chemical_formula_structural   CaHo2Cu(SiO3)4
_chemical_formula_sum   'Ca1 Ho2 Cu1 Si4 O12'
_cell_volume   271.60065295
_cell_formula_units_Z   1
loop_
 _symmetry_equiv_pos_site_id
 _symmetry_equiv_pos_as_xyz
  1  'x, y, z'
loop_
 _atom_site_type_symbol
 _atom_site_label
 _atom_site_symmetry_multiplicity
 _atom_site_fract_x
 _atom_site_fract_y
 _atom_site_fract_z
 _atom_site_occupancy
  Ca  Ca0  1  0.50000000  0.00000000  0.00000000  1
  Ho  Ho0  1  0.00844100  0.78447400  0.42651800  1
  Ho  Ho1  1  0.99155900  0.21552600  0.57348200  1
  Cu  Cu0  1  0.00000000  0.00000000  0.00000000  1
  Si  Si0  1  0.58879700  0.57112200  0.22957200  1
  Si  Si1  1  0.41120300  0.42887800  0.77042800  1
  Si  Si2  1  0.42465000  0.19590200  0.23621100  1
  Si  Si3  1  0.57535000  0.80409800  0.76378900  1
  O  O0  1  0.33890000  0.73277400  0.24708200  1
  O  O1  1  0.66110000  0.26722600  0.75291800  1
  O  O2  1  0.34819900  0.33032300  0.00327700  1
  O  O3  1  0.65180100  0.66967700  0.99672300  1
  O  O4  1  0.15826200  0.45169700  0.65102500  1
  O  O5  1  0.84173800  0.54830300  0.34897500  1
  O  O6  1  0.33276600  0.98788900  0.74877500  1
  O  O7  1  0.66723400  0.01211100  0.25122500  1
  O  O8  1  0.52299300  0.34113400  0.31129200  1
  O  O9  1  0.47700700  0.65886600  0.68870800  1
  O  O10  1  0.17129400  0.10943300  0.35369200  1
  O  O11  1  0.82870600  0.89056700  0.64630800  1
loop_
_geom_bond_atom_site_label_1
_geom_bond_atom_site_label_2
_geom_bond_distance
_geom_bond_site_symmetry_2
Ca0 O7 2.298066 1_555
Ca0 O6 2.298066 1_544
Ca0 O1 2.321706 1_554
Ca0 O0 2.321706 1_545
Ca0 O2 2.456458 1_555
Ca0 O3 2.456458 1_544
Ca0 Cu0 2.615493 1_655
Ca0 Cu0 2.615493 1_555
Ho0 O7 2.232393 1_465
Ho0 O0 2.235735 1_555
Ho0 O11 2.300331 1_455
Ho0 O4 2.310443 1_555
Ho0 O5 2.462612 1_455
Ho0 O10 2.553403 1_565
Ho0 O9 3.053525 1_555
Ho1 O6 2.232393 1_645
Ho1 O1 2.235735 1_555
Ho1 O10 2.300331 1_655
Ho1 O5 2.310443 1_555
Ho1 O4 2.462612 1_655
Ho1 O11 2.553403 1_545
Ho1 O8 3.053525 1_555
Cu0 O1 2.544946 1_454
Cu0 O0 2.544946 1_545
Cu0 O7 2.561063 1_455
Cu0 O6 2.561063 1_544
Cu0 O2 3.387373 1_555
Cu0 O3 3.387373 1_444
O0 Si0 1.632195 1_555
O1 Si1 1.632195 1_555
O2 Si1 1.680597 1_554
O2 Si2 1.685684 1_555
O3 Si0 1.680597 1_556
O3 Si3 1.685684 1_555
O4 Si1 1.628266 1_555
O5 Si0 1.628266 1_555
O6 Si3 1.633827 1_555
O7 Si2 1.633827 1_555
O8 Si0 1.644734 1_555
O8 Si2 1.647105 1_555
O9 Si1 1.644734 1_555
O9 Si3 1.647105 1_555
O10 Si2 1.626237 1_555
O11 Si3 1.626237 1_555
