# generated using pymatgen
data_Li4MnV3(P2O7)4
_symmetry_space_group_name_H-M   'P 1'
_cell_length_a   4.85989900
_cell_length_b   10.82047526
_cell_length_c   10.93805012
_cell_angle_alpha   99.30039445
_cell_angle_beta   102.37004343
_cell_angle_gamma   101.78386697
_symmetry_Int_Tables_number   1
_chemical_formula_structural   Li4MnV3(P2O7)4
_chemical_formula_sum   'Li4 Mn1 V3 P8 O28'
_cell_volume   537.16460739
_cell_formula_units_Z   1
loop_
 _symmetry_equiv_pos_site_id
 _symmetry_equiv_pos_as_xyz
  1  'x, y, z'
loop_
 _atom_site_type_symbol
 _atom_site_label
 _atom_site_symmetry_multiplicity
 _atom_site_fract_x
 _atom_site_fract_y
 _atom_site_fract_z
 _atom_site_occupancy
  Li  Li0  1  0.17638100  0.76948200  0.90627400  1
  Li  Li1  1  0.17433100  0.26845200  0.40643700  1
  Li  Li2  1  0.82326300  0.34207300  0.98034600  1
  Li  Li3  1  0.82333900  0.84340800  0.48146800  1
  Mn  Mn0  1  0.78427500  0.13404100  0.13459100  1
  V  V0  1  0.21484100  0.11348700  0.61424200  1
  V  V1  1  0.21586000  0.61394900  0.11476700  1
  V  V2  1  0.78388700  0.63568300  0.63615000  1
  P  P0  1  0.40045900  0.85142200  0.67135600  1
  P  P1  1  0.21261200  0.43480000  0.65090700  1
  P  P2  1  0.21301200  0.93669600  0.15155500  1
  P  P3  1  0.59996600  0.57939300  0.89862300  1
  P  P4  1  0.40102800  0.34912500  0.17169700  1
  P  P5  1  0.79019100  0.10013500  0.81430700  1
  P  P6  1  0.78859500  0.59908600  0.31530900  1
  P  P7  1  0.60132200  0.08114100  0.40022700  1
  O  O0  1  0.18800700  0.75994200  0.72226900  1
  O  O1  1  0.24571400  0.92377700  0.58089600  1
  O  O2  1  0.39638400  0.64168600  0.96380100  1
  O  O3  1  0.05099700  0.08635600  0.76238400  1
  O  O4  1  0.05110800  0.58747600  0.26346400  1
  O  O5  1  0.13161000  0.29063900  0.59426100  1
  O  O6  1  0.12854700  0.79160000  0.09517600  1
  O  O7  1  0.59594500  0.95363800  0.79981800  1
  O  O8  1  0.40580800  0.45002700  0.79649800  1
  O  O9  1  0.40438800  0.95164500  0.29615000  1
  O  O10  1  0.39692900  0.50896700  0.57534300  1
  O  O11  1  0.60320600  0.78616100  0.60858100  1
  O  O12  1  0.18897600  0.25890400  0.22318000  1
  O  O13  1  0.25022200  0.42354400  0.08147600  1
  O  O14  1  0.75314900  0.66919100  0.82602400  1
  O  O15  1  0.81354400  0.52754100  0.99001500  1
  O  O16  1  0.39342000  0.14092300  0.46421300  1
  O  O17  1  0.60175000  0.17577400  0.74020700  1
  O  O18  1  0.60170800  0.67551600  0.24107600  1
  O  O19  1  0.59638700  0.45256200  0.29970000  1
  O  O20  1  0.87324700  0.15821700  0.95703400  1
  O  O21  1  0.86823900  0.65563400  0.45854500  1
  O  O22  1  0.39604200  0.00888200  0.07470600  1
  O  O23  1  0.94913100  0.48640800  0.66279300  1
  O  O24  1  0.94246100  0.98640500  0.16012600  1
  O  O25  1  0.60376300  0.28306800  0.10833200  1
  O  O26  1  0.75490200  0.17237100  0.33012000  1
  O  O27  1  0.81105100  0.02635600  0.48997000  1
loop_
_geom_bond_atom_site_label_1
_geom_bond_atom_site_label_2
_geom_bond_distance
_geom_bond_site_symmetry_2
Li0 O2 2.012001 1_555
Li0 O0 2.012109 1_555
Li0 O14 2.045902 1_455
Li0 O6 2.109329 1_556
Li0 O22 2.780176 1_566
Li1 O12 2.007697 1_555
Li1 O16 2.007720 1_555
Li1 O26 2.014343 1_455
Li1 O5 2.089284 1_555
Li1 O10 2.792166 1_555
Li2 O15 2.003279 1_555
Li2 O20 2.035126 1_555
Li2 O25 2.038601 1_556
Li2 O13 2.064111 1_656
Li2 O17 2.786711 1_555
Li3 O27 1.980437 1_565
Li3 O11 2.026414 1_555
Li3 O1 2.039933 1_655
Li3 O21 2.068472 1_555
Mn0 O24 1.942890 1_545
Mn0 O22 1.990766 1_555
Mn0 O25 2.017904 1_555
Mn0 O12 2.075482 1_655
Mn0 O20 2.122514 1_554
Mn0 O26 2.152844 1_555
O0 P0 1.537230 1_555
O0 V2 2.066827 1_455
O1 P0 1.526305 1_555
O1 V0 2.067990 1_565
O2 P3 1.536472 1_555
O2 V1 2.063934 1_556
O3 P5 1.519721 1_455
O3 V0 1.989210 1_555
O4 P6 1.522303 1_455
O4 V1 1.995836 1_555
O5 P1 1.518031 1_555
O5 V0 2.073642 1_555
O6 P2 1.526136 1_555
O6 V1 2.085289 1_555
O7 P0 1.611459 1_555
O7 P5 1.634790 1_565
O8 P3 1.612797 1_555
O8 P1 1.629752 1_555
O9 P2 1.618095 1_555
O9 P7 1.626407 1_565
O10 P1 1.538688 1_555
O10 V2 1.993765 1_555
O11 P0 1.535690 1_555
O11 V2 2.035282 1_555
O12 P4 1.532185 1_555
O13 P4 1.532138 1_555
O13 V1 2.080697 1_555
O14 P3 1.528444 1_555
O14 V2 2.092545 1_555
O15 P3 1.538198 1_555
O15 V1 2.063226 1_656
O16 P7 1.533866 1_555
O16 V0 2.048593 1_555
O17 P5 1.538835 1_555
O17 V0 1.990103 1_555
O18 P6 1.541435 1_555
O18 V1 1.987751 1_555
O19 P4 1.613793 1_555
O19 P6 1.629317 1_555
O20 P5 1.518020 1_555
O21 P6 1.520666 1_555
O21 V2 2.104559 1_555
O22 P2 1.535149 1_545
O23 P1 1.519314 1_655
O23 V2 1.980021 1_555
O24 P2 1.533723 1_655
O25 P4 1.543413 1_555
O26 P7 1.519392 1_555
O27 P7 1.536251 1_555
O27 V0 2.067540 1_655
