# generated using pymatgen
data_FeS6(NO2)9
_symmetry_space_group_name_H-M   'P 1'
_cell_length_a   7.26332900
_cell_length_b   10.69530090
_cell_length_c   11.09378424
_cell_angle_alpha   118.72332928
_cell_angle_beta   89.12953818
_cell_angle_gamma   92.37483345
_symmetry_Int_Tables_number   1
_chemical_formula_structural   FeS6(NO2)9
_chemical_formula_sum   'Fe1 S6 N9 O18'
_cell_volume   755.09931638
_cell_formula_units_Z   1
loop_
 _symmetry_equiv_pos_site_id
 _symmetry_equiv_pos_as_xyz
  1  'x, y, z'
loop_
 _atom_site_type_symbol
 _atom_site_label
 _atom_site_symmetry_multiplicity
 _atom_site_fract_x
 _atom_site_fract_y
 _atom_site_fract_z
 _atom_site_occupancy
  Fe  Fe0  1  0.00000000  0.00000000  0.00000000  1
  S  S0  1  0.79748000  0.01905000  0.71201000  1
  S  S1  1  0.84035600  0.69170900  0.97478700  1
  S  S2  1  0.79395200  0.28947600  0.30641900  1
  S  S3  1  0.20252000  0.98095000  0.28799000  1
  S  S4  1  0.15964400  0.30829100  0.02521300  1
  S  S5  1  0.20604800  0.71052400  0.69358100  1
  N  N0  1  0.65020700  0.65832800  0.61662800  1
  N  N1  1  0.65272100  0.95119200  0.33748900  1
  N  N2  1  0.65267600  0.38561500  0.04596500  1
  N  N3  1  0.34979300  0.34167200  0.38337200  1
  N  N4  1  0.34727900  0.04880800  0.66251100  1
  N  N5  1  0.34732400  0.61438500  0.95403500  1
  N  N6  1  0.01560500  0.66661300  0.33269400  1
  N  N7  1  0.98439500  0.33338700  0.66730600  1
  N  N8  1  0.50000000  0.00000000  0.00000000  1
  O  O0  1  0.81694800  0.90853000  0.57283600  1
  O  O1  1  0.80026700  0.67875300  0.09820500  1
  O  O2  1  0.81317100  0.43564600  0.33713600  1
  O  O3  1  0.18305200  0.09147000  0.42716400  1
  O  O4  1  0.19973300  0.32124700  0.90179500  1
  O  O5  1  0.18682900  0.56435400  0.66286400  1
  O  O6  1  0.74322000  0.15935500  0.74652500  1
  O  O7  1  0.73158600  0.60466700  0.84940200  1
  O  O8  1  0.74331000  0.24937400  0.40889400  1
  O  O9  1  0.25678000  0.84064500  0.25347500  1
  O  O10  1  0.26841400  0.39533300  0.15059800  1
  O  O11  1  0.25669000  0.75062600  0.59110600  1
  O  O12  1  0.83162800  0.98439200  0.82037900  1
  O  O13  1  0.84412900  0.85173200  0.01127700  1
  O  O14  1  0.82784600  0.17902200  0.16795400  1
  O  O15  1  0.16837200  0.01560800  0.17962100  1
  O  O16  1  0.15587100  0.14826800  0.98872300  1
  O  O17  1  0.17215400  0.82097800  0.83204600  1
loop_
_geom_bond_atom_site_label_1
_geom_bond_atom_site_label_2
_geom_bond_distance
_geom_bond_site_symmetry_2
Fe0 O16 1.962055 1_554
Fe0 O13 1.962055 1_445
Fe0 O12 2.287272 1_444
Fe0 O15 2.287272 1_555
Fe0 O14 2.323769 1_455
Fe0 O17 2.323769 1_544
N0 O7 2.974266 1_555
N0 O2 3.116329 1_555
N0 O11 3.122700 1_555
N0 O0 3.134767 1_555
N0 S5 3.324981 1_555
N0 O12 3.337724 1_555
N0 O5 3.572635 1_555
N0 N3 3.750058 1_555
N1 O8 2.940214 1_565
N1 O9 3.045913 1_555
N1 O1 3.069753 1_555
N1 O0 3.119704 1_555
N1 O13 3.525702 1_555
N1 N4 3.917106 1_565
N2 O10 2.992933 1_555
N2 O1 3.050978 1_555
N2 O6 3.108477 1_554
N2 O2 3.237399 1_555
N2 O14 3.389971 1_555
N2 O4 3.573392 1_554
N2 S4 3.786780 1_655
N2 N5 3.855201 1_554
N2 N8 4.014489 1_555
N3 O10 2.974266 1_555
N3 O5 3.116329 1_555
N3 O8 3.122700 1_555
N3 O3 3.134767 1_555
N3 S2 3.324981 1_555
N3 O15 3.337724 1_555
N3 O2 3.572635 1_555
N4 O11 2.940214 1_545
N4 O6 3.045913 1_555
N4 O4 3.069753 1_555
N4 O3 3.119704 1_555
N4 O16 3.525702 1_555
N5 O7 2.992933 1_555
N5 O4 3.050978 1_555
N5 O9 3.108477 1_556
N5 O5 3.237399 1_555
N5 O17 3.389971 1_555
N5 O1 3.573392 1_556
N5 S1 3.786780 1_455
N5 N8 4.014489 1_566
N6 O2 2.842592 1_455
N6 O9 2.925874 1_555
N6 O0 3.072650 1_455
N6 O11 3.104557 1_555
N6 O1 3.113744 1_455
N6 O10 3.250561 1_555
N7 O5 2.842592 1_655
N7 O6 2.925874 1_555
N7 O3 3.072650 1_655
N7 O8 3.104557 1_555
N7 O4 3.113744 1_655
N7 O7 3.250561 1_555
N8 O14 3.022594 1_555
N8 O17 3.022594 1_544
N8 O13 3.050672 1_545
N8 O16 3.050672 1_554
N8 O12 3.060774 1_544
N8 O15 3.060774 1_555
O0 S0 1.433220 1_565
O1 S1 1.464759 1_554
O2 S2 1.432108 1_555
O3 S3 1.433220 1_545
O4 S4 1.464759 1_556
O5 S5 1.432108 1_555
O6 S0 1.430352 1_555
O7 S1 1.467469 1_555
O8 S2 1.433362 1_555
O9 S3 1.430352 1_555
O10 S4 1.467469 1_555
O11 S5 1.433362 1_555
O12 S0 1.445430 1_565
O13 S1 1.557036 1_554
O14 S2 1.443679 1_555
O15 S3 1.445430 1_545
O16 S4 1.557036 1_556
O17 S5 1.443679 1_555
