# generated using pymatgen
data_Pr2Ge5Ru3
_symmetry_space_group_name_H-M   'P 1'
_cell_length_a   8.55455860
_cell_length_b   8.55455860
_cell_length_c   8.55455860
_cell_angle_alpha   139.66109337
_cell_angle_beta   108.38194242
_cell_angle_gamma   85.55058445
_symmetry_Int_Tables_number   1
_chemical_formula_structural   Pr2Ge5Ru3
_chemical_formula_sum   'Pr4 Ge10 Ru6'
_cell_volume   370.80549464
_cell_formula_units_Z   2
loop_
 _symmetry_equiv_pos_site_id
 _symmetry_equiv_pos_as_xyz
  1  'x, y, z'
loop_
 _atom_site_type_symbol
 _atom_site_label
 _atom_site_symmetry_multiplicity
 _atom_site_fract_x
 _atom_site_fract_y
 _atom_site_fract_z
 _atom_site_occupancy
  Pr  Pr0  1  0.86802400  0.63621200  0.23181200  1
  Pr  Pr1  1  0.13197600  0.36378800  0.76818800  1
  Pr  Pr2  1  0.40440000  0.13621200  0.26818800  1
  Pr  Pr3  1  0.59560000  0.86378800  0.73181200  1
  Ge  Ge0  1  0.50000000  0.75000000  0.25000000  1
  Ge  Ge1  1  0.50000000  0.25000000  0.75000000  1
  Ge  Ge2  1  0.21143500  0.96143500  0.75000000  1
  Ge  Ge3  1  0.78856500  0.53856500  0.75000000  1
  Ge  Ge4  1  0.78856500  0.03856500  0.25000000  1
  Ge  Ge5  1  0.21143500  0.46143500  0.25000000  1
  Ge  Ge6  1  0.07700300  0.90801100  0.16899200  1
  Ge  Ge7  1  0.92299700  0.09198900  0.83100800  1
  Ge  Ge8  1  0.73901800  0.40801100  0.33100800  1
  Ge  Ge9  1  0.26098200  0.59198900  0.66899200  1
  Ru  Ru0  1  0.00000000  0.75000000  0.75000000  1
  Ru  Ru1  1  0.00000000  0.25000000  0.25000000  1
  Ru  Ru2  1  0.26023100  0.85480100  0.40543000  1
  Ru  Ru3  1  0.73976900  0.14519900  0.59457000  1
  Ru  Ru4  1  0.44937000  0.35480100  0.09457000  1
  Ru  Ru5  1  0.55063000  0.64519900  0.90543000  1
loop_
_geom_bond_atom_site_label_1
_geom_bond_atom_site_label_2
_geom_bond_distance
_geom_bond_site_symmetry_2
Pr0 Ru2 3.249055 1_655
Pr0 Ru3 3.255803 1_565
Pr0 Ru3 3.255803 1_554
Pr0 Ru5 3.269124 1_554
Pr1 Ru3 3.249055 1_455
Pr1 Ru2 3.255803 1_556
Pr1 Ru2 3.255803 1_545
Pr1 Ru4 3.269124 1_556
Pr2 Ru4 3.249052 1_555
Pr2 Ru5 3.255803 1_555
Pr2 Ru5 3.255808 1_544
Pr2 Ru3 3.269129 1_555
Pr3 Ru5 3.249052 1_555
Pr3 Ru4 3.255803 1_555
Pr3 Ru4 3.255808 1_566
Pr3 Ru2 3.269129 1_555
Ge0 Ru3 2.529089 1_565
Ge0 Ru2 2.529089 1_555
Ge0 Ru4 2.529090 1_555
Ge0 Ru5 2.529093 1_554
Ge0 Ge1 2.949593 1_554
Ge0 Ge1 2.949593 1_565
Ge0 Pr0 3.238207 1_555
Ge0 Pr3 3.238207 1_555
Ge0 Pr2 3.238207 1_565
Ge0 Pr1 3.238207 1_554
Ge1 Ru3 2.529089 1_555
Ge1 Ru2 2.529089 1_545
Ge1 Ru5 2.529090 1_555
Ge1 Ru4 2.529093 1_556
Ge1 Pr0 3.238207 1_556
Ge1 Pr3 3.238207 1_545
Ge1 Pr2 3.238207 1_555
Ge1 Pr1 3.238207 1_555
Ge2 Ru4 2.512538 1_566
Ge2 Ru2 2.512542 1_555
Ge2 Ru0 2.655303 1_555
Ge2 Ge7 2.699429 1_465
Ge2 Ge9 2.699431 1_555
Ge2 Ge5 2.949593 1_555
Ge2 Ge5 2.949593 1_566
Ge2 Pr2 3.205426 1_566
Ge2 Pr0 3.205426 1_455
Ge2 Pr3 3.349713 1_555
Ge2 Pr1 3.349713 1_565
Ge3 Ru5 2.512534 1_555
Ge3 Ru3 2.512542 1_555
Ge3 Ru0 2.655303 1_655
Ge3 Ge8 2.699427 1_555
Ge3 Ge6 2.699429 1_656
Ge3 Ge4 2.949593 1_566
Ge3 Ge4 2.949593 1_555
Ge3 Pr1 3.205426 1_655
Ge3 Pr3 3.205426 1_555
Ge3 Pr2 3.349713 1_555
Ge3 Pr0 3.349713 1_556
Ge4 Ru5 2.512538 1_544
Ge4 Ru3 2.512542 1_555
Ge4 Ru1 2.655303 1_655
Ge4 Ge6 2.699429 1_645
Ge4 Ge8 2.699431 1_555
Ge4 Pr1 3.205426 1_655
Ge4 Pr3 3.205426 1_544
Ge4 Pr0 3.349713 1_545
Ge4 Pr2 3.349713 1_555
Ge5 Ru4 2.512534 1_555
Ge5 Ru2 2.512542 1_555
Ge5 Ru1 2.655303 1_555
Ge5 Ge9 2.699427 1_555
Ge5 Ge7 2.699429 1_454
Ge5 Pr0 3.205426 1_455
Ge5 Pr2 3.205426 1_555
Ge5 Pr1 3.349713 1_554
Ge5 Pr3 3.349713 1_555
Ge6 Ru2 2.459339 1_555
Ge6 Ru1 2.524148 1_565
Ge6 Ru0 2.524148 1_554
Ge6 Pr2 3.033011 1_565
Ge6 Pr1 3.161416 1_554
Ge6 Pr1 3.161416 1_565
Ge6 Pr0 3.470826 1_455
Ge7 Ru3 2.459339 1_555
Ge7 Ru0 2.524148 1_645
Ge7 Ru1 2.524148 1_656
Ge7 Pr3 3.033011 1_545
Ge7 Pr0 3.161416 1_545
Ge7 Pr0 3.161416 1_556
Ge7 Pr1 3.470826 1_655
Ge8 Ru4 2.459339 1_555
Ge8 Ru0 2.524152 1_655
Ge8 Ru1 2.524156 1_655
Ge8 Pr0 3.033015 1_555
Ge8 Pr3 3.161411 1_555
Ge8 Pr3 3.161416 1_544
Ge8 Pr2 3.470819 1_555
Ge9 Ru5 2.459339 1_555
Ge9 Ru1 2.524152 1_555
Ge9 Ru0 2.524156 1_555
Ge9 Pr1 3.033015 1_555
Ge9 Pr2 3.161411 1_555
Ge9 Pr2 3.161416 1_566
Ge9 Pr3 3.470819 1_555
Ru0 Ru1 2.949593 1_555
Ru0 Ru1 2.949593 1_566
