# generated using pymatgen
data_GdSnPt2
_symmetry_space_group_name_H-M   'P 1'
_cell_length_a   4.54847238
_cell_length_b   4.54847238
_cell_length_c   9.16226885
_cell_angle_alpha   90.00000000
_cell_angle_beta   90.00000000
_cell_angle_gamma   120.00000722
_symmetry_Int_Tables_number   1
_chemical_formula_structural   GdSnPt2
_chemical_formula_sum   'Gd2 Sn2 Pt4'
_cell_volume   164.15902136
_cell_formula_units_Z   2
loop_
 _symmetry_equiv_pos_site_id
 _symmetry_equiv_pos_as_xyz
  1  'x, y, z'
loop_
 _atom_site_type_symbol
 _atom_site_label
 _atom_site_symmetry_multiplicity
 _atom_site_fract_x
 _atom_site_fract_y
 _atom_site_fract_z
 _atom_site_occupancy
  Gd  Gd0  1  0.33333300  0.66666700  0.25000000  1
  Gd  Gd1  1  0.66666700  0.33333300  0.75000000  1
  Sn  Sn0  1  0.00000000  0.00000000  0.50000000  1
  Sn  Sn1  1  0.00000000  0.00000000  -0.00000000  1
  Pt  Pt0  1  0.33333300  0.66666700  0.91201085  1
  Pt  Pt1  1  0.66666700  0.33333300  0.08798915  1
  Pt  Pt2  1  0.66666700  0.33333300  0.41201085  1
  Pt  Pt3  1  0.33333300  0.66666700  0.58798915  1
loop_
_geom_bond_atom_site_label_1
_geom_bond_atom_site_label_2
_geom_bond_distance
_geom_bond_site_symmetry_2
Gd0 Pt1 3.016553 1_455
Gd0 Pt2 3.016553 1_455
Gd0 Pt1 3.016553 1_565
Gd0 Pt2 3.016553 1_565
Gd0 Pt1 3.016560 1_555
Gd0 Pt2 3.016560 1_555
Gd0 Pt0 3.096747 1_554
Gd0 Pt3 3.096747 1_555
Gd0 Sn0 3.484664 1_565
Gd0 Sn1 3.484664 1_565
Gd0 Sn1 3.484667 1_665
Gd0 Sn0 3.484667 1_665
Gd0 Sn0 3.484667 1_555
Gd0 Sn1 3.484667 1_555
Gd1 Pt0 3.016553 1_545
Gd1 Pt3 3.016553 1_655
Gd1 Pt3 3.016553 1_545
Gd1 Pt0 3.016553 1_655
Gd1 Pt0 3.016560 1_555
Gd1 Pt3 3.016560 1_555
Gd1 Pt2 3.096747 1_555
Gd1 Pt1 3.096747 1_556
Gd1 Sn0 3.484664 1_655
Gd1 Sn1 3.484664 1_656
Gd1 Sn1 3.484667 1_556
Gd1 Sn0 3.484667 1_555
Gd1 Sn0 3.484667 1_665
Gd1 Sn1 3.484667 1_666
Pt0 Sn1 2.747019 1_566
Pt0 Sn1 2.747023 1_556
Pt0 Sn1 2.747023 1_666
Pt0 Pt3 2.968774 1_555
Pt0 Pt1 3.081541 1_456
Pt0 Pt1 3.081541 1_566
Pt0 Pt1 3.081547 1_556
Pt1 Sn1 2.747019 1_655
Pt1 Sn1 2.747023 1_555
Pt1 Sn1 2.747023 1_665
Pt1 Pt2 2.968774 1_555
Pt2 Sn0 2.747019 1_655
Pt2 Sn0 2.747023 1_665
Pt2 Sn0 2.747023 1_555
Pt2 Pt3 3.081541 1_655
Pt2 Pt3 3.081541 1_545
Pt2 Pt3 3.081547 1_555
Pt3 Sn0 2.747019 1_565
Pt3 Sn0 2.747023 1_665
Pt3 Sn0 2.747023 1_555
