# generated using pymatgen
data_CaLa2Co2Sb2(PbO6)2
_symmetry_space_group_name_H-M   'P 1'
_cell_length_a   5.88230725
_cell_length_b   5.79348092
_cell_length_c   9.10300405
_cell_angle_alpha   89.19307235
_cell_angle_beta   84.54048735
_cell_angle_gamma   93.95967124
_symmetry_Int_Tables_number   1
_chemical_formula_structural   CaLa2Co2Sb2(PbO6)2
_chemical_formula_sum   'Ca1 La2 Co2 Sb2 Pb2 O12'
_cell_volume   308.01052698
_cell_formula_units_Z   1
loop_
 _symmetry_equiv_pos_site_id
 _symmetry_equiv_pos_as_xyz
  1  'x, y, z'
loop_
 _atom_site_type_symbol
 _atom_site_label
 _atom_site_symmetry_multiplicity
 _atom_site_fract_x
 _atom_site_fract_y
 _atom_site_fract_z
 _atom_site_occupancy
  Ca  Ca0  1  0.15201900  0.44322800  0.55245100  1
  La  La0  1  0.55589200  0.43479300  0.79982500  1
  La  La1  1  0.08565500  0.03865400  0.24617800  1
  Co  Co0  1  0.77795600  0.56559500  0.42361600  1
  Co  Co1  1  0.52420000  0.98851600  0.00820300  1
  Sb  Sb0  1  0.02304500  0.49962300  0.00906900  1
  Sb  Sb1  1  0.52384800  0.00842500  0.50111400  1
  Pb  Pb0  1  0.48300700  0.57177700  0.21540100  1
  Pb  Pb1  1  0.98272600  0.94803400  0.77285400  1
  O  O0  1  0.72073800  0.89967800  0.32774900  1
  O  O1  1  0.13029100  0.54660500  0.79271300  1
  O  O2  1  0.34845400  0.13700400  0.67737900  1
  O  O3  1  0.95458800  0.44721600  0.23137500  1
  O  O4  1  0.25785600  0.79762700  0.43923200  1
  O  O5  1  0.75262100  0.68799900  0.97525100  1
  O  O6  1  0.78325200  0.24589800  0.55106000  1
  O  O7  1  0.29334400  0.30389600  0.02463700  1
  O  O8  1  0.36903600  0.24159700  0.38194500  1
  O  O9  1  0.80910000  0.21760300  0.96047500  1
  O  O10  1  0.63846400  0.73349900  0.61020300  1
  O  O11  1  0.21485900  0.80523500  0.04093600  1
loop_
_geom_bond_atom_site_label_1
_geom_bond_atom_site_label_2
_geom_bond_distance
_geom_bond_site_symmetry_2
Ca0 O1 2.269965 1_555
Ca0 O8 2.298528 1_555
Ca0 O4 2.303737 1_555
Ca0 O6 2.382373 1_455
Ca0 O2 2.500441 1_555
Ca0 Co0 2.720776 1_455
La0 O2 2.393737 1_555
La0 O10 2.418776 1_555
La0 O5 2.494866 1_555
La0 O7 2.518210 1_556
La0 O9 2.561605 1_555
La0 O1 2.635344 1_555
La0 O6 2.794622 1_555
La1 O0 2.290962 1_445
La1 O11 2.416587 1_545
La1 O8 2.418828 1_555
La1 O3 2.545202 1_455
La1 O4 2.555240 1_545
La1 O7 2.665623 1_555
Co0 O10 2.096665 1_555
Co0 O3 2.097265 1_555
Co0 O0 2.172397 1_555
Co0 O6 2.175241 1_555
Co0 Pb0 2.690042 1_555
Co1 O11 2.036770 1_555
Co1 O9 2.072876 1_564
Co1 O5 2.277646 1_554
Co1 O7 2.348753 1_565
O0 Sb1 2.002449 1_565
O0 Pb0 2.563250 1_555
O1 Sb0 2.018841 1_556
O1 Pb1 2.547884 1_455
O1 O11 2.793663 1_556
O2 Sb1 2.004672 1_555
O2 Pb1 2.423687 1_445
O2 O6 2.731068 1_555
O3 Sb0 2.039670 1_655
O3 Pb0 2.930387 1_555
O3 Pb0 3.131267 1_655
O4 Sb1 2.044527 1_565
O4 O8 2.642067 1_565
O4 Pb0 2.723711 1_555
O5 Sb0 2.034620 1_656
O5 Pb1 2.581054 1_555
O5 Pb0 2.626581 1_556
O5 O9 2.771680 1_555
O6 Sb1 2.070646 1_555
O6 Pb1 3.010541 1_545
O7 Sb0 2.030098 1_555
O7 Pb0 2.621875 1_555
O8 Sb1 2.036551 1_555
O8 Pb0 2.440250 1_555
O9 Sb0 2.071554 1_656
O9 Pb1 2.522421 1_545
O10 Sb1 2.051531 1_565
O10 Pb1 2.848268 1_555
O11 Sb0 2.071943 1_555
O11 Pb0 2.747792 1_555
O11 Pb1 3.039326 1_454
