# generated using pymatgen
data_InAgSnSe4
_symmetry_space_group_name_H-M   'P 1'
_cell_length_a   7.13759980
_cell_length_b   7.13759980
_cell_length_c   7.13759980
_cell_angle_alpha   130.04334348
_cell_angle_beta   130.04334348
_cell_angle_gamma   73.33748260
_symmetry_Int_Tables_number   1
_chemical_formula_structural   InAgSnSe4
_chemical_formula_sum   'In1 Ag1 Sn1 Se4'
_cell_volume   208.03555079
_cell_formula_units_Z   1
loop_
 _symmetry_equiv_pos_site_id
 _symmetry_equiv_pos_as_xyz
  1  'x, y, z'
loop_
 _atom_site_type_symbol
 _atom_site_label
 _atom_site_symmetry_multiplicity
 _atom_site_fract_x
 _atom_site_fract_y
 _atom_site_fract_z
 _atom_site_occupancy
  In  In0  1  0.50000000  0.50000000  0.00000000  1
  Ag  Ag0  1  0.25000000  0.75000000  0.50000000  1
  Sn  Sn0  1  0.75000000  0.25000000  0.50000000  1
  Se  Se0  1  0.10887700  0.12465600  0.46226100  1
  Se  Se1  1  0.66239500  0.64661600  0.53773900  1
  Se  Se2  1  0.35338400  0.89112300  0.01577900  1
  Se  Se3  1  0.87534400  0.33760500  0.98422100  1
loop_
_geom_bond_atom_site_label_1
_geom_bond_atom_site_label_2
_geom_bond_distance
_geom_bond_site_symmetry_2
In0 Se1 2.640648 1_555
In0 Se3 2.640648 1_554
In0 Se2 2.640648 1_555
In0 Se0 2.640648 1_554
Ag0 Se0 2.696527 1_565
Ag0 Se2 2.696527 1_556
Ag0 Se1 2.696527 1_555
Ag0 Se3 2.696527 1_454
Se0 Sn0 2.588028 1_455
Se1 Sn0 2.588028 1_555
Se2 Sn0 2.588028 1_565
Se3 Sn0 2.588028 1_555
