# generated using pymatgen
data_Li7Mn2(CoO4)3
_symmetry_space_group_name_H-M   'P 1'
_cell_length_a   5.10431700
_cell_length_b   5.87089537
_cell_length_c   7.65690769
_cell_angle_alpha   79.39388482
_cell_angle_beta   77.36158011
_cell_angle_gamma   73.85115903
_symmetry_Int_Tables_number   1
_chemical_formula_structural   Li7Mn2(CoO4)3
_chemical_formula_sum   'Li7 Mn2 Co3 O12'
_cell_volume   213.19390105
_cell_formula_units_Z   1
loop_
 _symmetry_equiv_pos_site_id
 _symmetry_equiv_pos_as_xyz
  1  'x, y, z'
loop_
 _atom_site_type_symbol
 _atom_site_label
 _atom_site_symmetry_multiplicity
 _atom_site_fract_x
 _atom_site_fract_y
 _atom_site_fract_z
 _atom_site_occupancy
  Li  Li0  1  0.49675200  0.82670100  0.17494600  1
  Li  Li1  1  0.49950000  0.33396800  0.17065800  1
  Li  Li2  1  0.49912500  0.51159500  0.49022800  1
  Li  Li3  1  0.50428300  0.99333800  0.49707300  1
  Li  Li4  1  0.50214100  0.16488600  0.83358600  1
  Li  Li5  1  0.49655300  0.66935600  0.83330800  1
  Li  Li6  1  0.99927000  0.66911900  0.33297800  1
  Mn  Mn0  1  0.00420600  0.99619900  0.00127400  1
  Mn  Mn1  1  0.99912300  0.83165600  0.66338900  1
  Co  Co0  1  0.99514200  0.50111400  0.01440800  1
  Co  Co1  1  0.00150000  0.16125800  0.33444500  1
  Co  Co2  1  0.00061300  0.34186100  0.65782500  1
  O  O0  1  0.23281000  0.16209400  0.07705900  1
  O  O1  1  0.23335000  0.68634900  0.07409200  1
  O  O2  1  0.23082000  0.83927500  0.43329500  1
  O  O3  1  0.22733100  0.32022000  0.42528300  1
  O  O4  1  0.22193700  0.51902500  0.75097700  1
  O  O5  1  0.21969900  0.99702100  0.75652100  1
  O  O6  1  0.76277300  0.49447800  0.23877100  1
  O  O7  1  0.77683900  0.01095400  0.23617300  1
  O  O8  1  0.76699000  0.14655600  0.58527500  1
  O  O9  1  0.76798100  0.67106300  0.59582700  1
  O  O10  1  0.77953000  0.83851900  0.91265100  1
  O  O11  1  0.78173400  0.31339400  0.90995900  1
loop_
_geom_bond_atom_site_label_1
_geom_bond_atom_site_label_2
_geom_bond_distance
_geom_bond_site_symmetry_2
Li0 O6 2.086412 1_555
Li0 O1 2.094702 1_555
Li0 O2 2.141049 1_555
Li0 O0 2.162627 1_565
Li0 O7 2.184964 1_565
Li0 O10 2.204000 1_554
Li1 O6 2.039093 1_555
Li1 O7 2.078253 1_555
Li1 O3 2.134668 1_555
Li1 O11 2.192747 1_554
Li1 O0 2.200474 1_555
Li1 O1 2.232769 1_555
Li2 O2 2.062399 1_555
Li2 O6 2.095323 1_555
Li2 O4 2.179785 1_555
Li2 O3 2.192925 1_555
Li2 O9 2.211893 1_555
Li2 O8 2.285451 1_555
Li3 O2 2.041600 1_555
Li3 O8 2.086688 1_565
Li3 O3 2.103826 1_565
Li3 O9 2.113147 1_555
Li3 O7 2.173646 1_565
Li3 O5 2.189192 1_555
Li4 O0 2.060442 1_556
Li4 O8 2.079351 1_555
Li4 O11 2.093770 1_555
Li4 O10 2.116958 1_545
Li4 O5 2.185071 1_545
Li4 O4 2.241886 1_555
Li5 O1 2.030572 1_556
Li5 O9 2.030923 1_555
Li5 O4 2.102583 1_555
Li5 O5 2.116199 1_555
Li5 O10 2.201310 1_555
Li5 O11 2.249640 1_555
Li6 O2 2.078785 1_655
Li6 O1 2.079471 1_655
Li6 O6 2.090590 1_555
Li6 O9 2.098977 1_555
Li6 O7 2.102194 1_565
Li6 O3 2.133327 1_655
Mn0 O7 1.917643 1_465
Mn0 O1 1.927815 1_555
Mn0 O0 1.945099 1_565
Mn0 O10 1.948064 1_454
Mn0 O5 1.954368 1_554
Mn0 O11 1.984454 1_464
Mn1 O2 1.895595 1_655
Mn1 O9 1.901029 1_555
Mn1 O4 1.957424 1_655
Mn1 O8 1.965728 1_565
Mn1 O5 1.983152 1_655
Mn1 O10 1.991907 1_555
Co0 O6 1.862527 1_555
Co0 O1 2.007862 1_655
Co0 O0 2.055082 1_655
Co0 O10 2.082433 1_554
Co0 O4 2.094653 1_654
Co0 O11 2.101013 1_554
Co1 O7 1.960810 1_455
Co1 O3 1.967658 1_555
Co1 O8 2.029621 1_455
Co1 O2 2.036298 1_545
Co1 O0 2.063842 1_555
Co1 O6 2.094189 1_455
Co2 O3 1.904081 1_555
Co2 O9 2.000757 1_455
Co2 O11 2.011087 1_455
Co2 O4 2.036203 1_555
Co2 O8 2.080934 1_455
Co2 O5 2.113662 1_545
