# generated using pymatgen
data_H7AuN4O15
_symmetry_space_group_name_H-M   'P 1'
_cell_length_a   7.39947578
_cell_length_b   7.39947578
_cell_length_c   12.15080183
_cell_angle_alpha   67.41166261
_cell_angle_beta   67.41166261
_cell_angle_gamma   70.71377473
_symmetry_Int_Tables_number   1
_chemical_formula_structural   H7AuN4O15
_chemical_formula_sum   'H14 Au2 N8 O30'
_cell_volume   553.94339277
_cell_formula_units_Z   2
loop_
 _symmetry_equiv_pos_site_id
 _symmetry_equiv_pos_as_xyz
  1  'x, y, z'
loop_
 _atom_site_type_symbol
 _atom_site_label
 _atom_site_symmetry_multiplicity
 _atom_site_fract_x
 _atom_site_fract_y
 _atom_site_fract_z
 _atom_site_occupancy
  H  H0  1  0.96155393  0.13066784  0.11296824  1
  H  H1  1  0.86933216  0.03844607  0.38703176  1
  H  H2  1  0.03844607  0.86933216  0.88703176  1
  H  H3  1  0.13066784  0.96155393  0.61296824  1
  H  H4  1  0.03251142  0.24916285  0.96552414  1
  H  H5  1  0.75083715  0.96748858  0.53447586  1
  H  H6  1  0.96748858  0.75083715  0.03447586  1
  H  H7  1  0.24916285  0.03251142  0.46552414  1
  H  H8  1  0.00000000  -0.00000000  0.00000000  1
  H  H9  1  0.00000000  -0.00000000  0.50000000  1
  H  H10  1  0.68892306  0.16923400  0.26448829  1
  H  H11  1  0.83076600  0.31107694  0.23551171  1
  H  H12  1  0.31107694  0.83076600  0.73551171  1
  H  H13  1  0.16923400  0.68892306  0.76448829  1
  Au  Au0  1  0.00000000  0.50000000  0.50000000  1
  Au  Au1  1  0.50000000  -0.00000000  0.00000000  1
  N  N0  1  0.42083091  0.47770829  0.39985267  1
  N  N1  1  0.52229171  0.57916909  0.10014733  1
  N  N2  1  0.57916909  0.52229171  0.60014733  1
  N  N3  1  0.47770829  0.42083091  0.89985267  1
  N  N4  1  0.97587070  0.58429164  0.25631515  1
  N  N5  1  0.41570836  0.02412930  0.24368485  1
  N  N6  1  0.02412930  0.41570836  0.74368485  1
  N  N7  1  0.58429164  0.97587070  0.75631515  1
  O  O0  1  0.57003427  0.54933262  0.33706588  1
  O  O1  1  0.45066738  0.42996573  0.16293412  1
  O  O2  1  0.42996573  0.45066738  0.66293412  1
  O  O3  1  0.54933262  0.57003427  0.83706588  1
  O  O4  1  0.41816802  0.30128757  0.45724843  1
  O  O5  1  0.69871243  0.58183198  0.04275157  1
  O  O6  1  0.58183198  0.69871243  0.54275157  1
  O  O7  1  0.30128757  0.41816802  0.95724843  1
  O  O8  1  0.24680727  0.61400680  0.40201226  1
  O  O9  1  0.38599320  0.75319273  0.09798774  1
  O  O10  1  0.75319273  0.38599320  0.59798774  1
  O  O11  1  0.61400680  0.24680727  0.90201226  1
  O  O12  1  0.97501140  0.53620622  0.16938028  1
  O  O13  1  0.46379378  0.02498860  0.33061972  1
  O  O14  1  0.02498860  0.46379378  0.83061972  1
  O  O15  1  0.53620622  0.97501140  0.66938028  1
  O  O16  1  0.95190639  0.75406835  0.25805634  1
  O  O17  1  0.24593165  0.04809361  0.24194366  1
  O  O18  1  0.04809361  0.24593165  0.74194366  1
  O  O19  1  0.75406835  0.95190639  0.75805634  1
  O  O20  1  0.00573893  0.42747944  0.35479292  1
  O  O21  1  0.57252056  0.99426107  0.14520708  1
  O  O22  1  0.99426107  0.57252056  0.64520708  1
  O  O23  1  0.42747944  0.00573893  0.85479292  1
  O  O24  1  0.04184323  0.11679140  0.02814090  1
  O  O25  1  0.88320860  0.95815677  0.47185910  1
  O  O26  1  0.95815677  0.88320860  0.97185910  1
  O  O27  1  0.11679140  0.04184323  0.52814090  1
  O  O28  1  0.82685333  0.17314667  0.25000000  1
  O  O29  1  0.17314667  0.82685333  0.75000000  1
loop_
_geom_bond_atom_site_label_1
_geom_bond_atom_site_label_2
_geom_bond_distance
_geom_bond_site_symmetry_2
H0 O24 0.998234 1_655
H1 O25 0.998234 1_545
H2 O26 0.998234 1_455
H3 O27 0.998234 1_565
H4 O24 0.982963 1_556
H5 O25 0.982963 1_555
H6 O26 0.982963 1_554
H7 O27 0.982963 1_555
H8 O24 1.201958 1_555
H8 O26 1.201958 1_444
H9 O27 1.201958 1_555
H9 O25 1.201958 1_445
H10 O28 0.975220 1_555
H11 O28 0.975220 1_555
H12 O29 0.975220 1_555
H13 O29 0.975220 1_555
Au0 O10 2.010002 1_455
Au0 O8 2.010002 1_555
Au0 O20 2.014332 1_555
Au0 O22 2.014332 1_455
Au1 O9 2.010002 1_545
Au1 O11 2.010002 1_554
Au1 O23 2.014332 1_554
Au1 O21 2.014332 1_545
N0 O4 1.223900 1_555
N0 O0 1.229082 1_555
N0 O8 1.346278 1_555
N1 O5 1.223900 1_555
N1 O1 1.229082 1_555
N1 O9 1.346278 1_555
N2 O6 1.223900 1_555
N2 O2 1.229082 1_555
N2 O10 1.346278 1_555
N3 O7 1.223900 1_555
N3 O3 1.229082 1_555
N3 O11 1.346278 1_555
N4 O16 1.216742 1_555
N4 O12 1.240103 1_555
N4 O20 1.339465 1_655
N5 O17 1.216742 1_555
N5 O13 1.240103 1_555
N5 O21 1.339465 1_545
N6 O18 1.216742 1_555
N6 O14 1.240103 1_555
N6 O22 1.339465 1_455
N7 O19 1.216742 1_555
N7 O15 1.240103 1_555
N7 O23 1.339465 1_565
