# generated using pymatgen
data_Sr(SbN2)2
_symmetry_space_group_name_H-M   'P 1'
_cell_length_a   19.78732300
_cell_length_b   19.78733255
_cell_length_c   8.90559300
_cell_angle_alpha   90.00000000
_cell_angle_beta   90.00000000
_cell_angle_gamma   119.99965348
_symmetry_Int_Tables_number   1
_chemical_formula_structural   Sr(SbN2)2
_chemical_formula_sum   'Sr24 Sb48 N96'
_cell_volume   3019.73816078
_cell_formula_units_Z   24
loop_
 _symmetry_equiv_pos_site_id
 _symmetry_equiv_pos_as_xyz
  1  'x, y, z'
loop_
 _atom_site_type_symbol
 _atom_site_label
 _atom_site_symmetry_multiplicity
 _atom_site_fract_x
 _atom_site_fract_y
 _atom_site_fract_z
 _atom_site_occupancy
  Sr  Sr0  1  0.99998300  0.99998400  0.32306000  1
  Sr  Sr1  1  0.00001700  0.00001600  0.82306000  1
  Sr  Sr2  1  0.32920000  0.15335900  0.30629500  1
  Sr  Sr3  1  0.82416000  0.67080100  0.30630200  1
  Sr  Sr4  1  0.84664300  0.17584000  0.30629400  1
  Sr  Sr5  1  0.67080000  0.84664100  0.80629500  1
  Sr  Sr6  1  0.17584000  0.32919900  0.80630200  1
  Sr  Sr7  1  0.15335700  0.82416000  0.80629400  1
  Sr  Sr8  1  0.12963700  0.32974100  0.30378000  1
  Sr  Sr9  1  0.20010000  0.87036800  0.30376800  1
  Sr  Sr10  1  0.67027800  0.79991100  0.30375200  1
  Sr  Sr11  1  0.87036300  0.67025900  0.80378000  1
  Sr  Sr12  1  0.79990000  0.12963200  0.80376800  1
  Sr  Sr13  1  0.32972200  0.20008900  0.80375200  1
  Sr  Sr14  1  0.66665500  0.33333900  0.32172500  1
  Sr  Sr15  1  0.33334500  0.66666100  0.82172500  1
  Sr  Sr16  1  0.66667000  0.33333700  0.81530400  1
  Sr  Sr17  1  0.33333000  0.66666300  0.31530400  1
  Sr  Sr18  1  0.47565000  0.46882600  0.81645600  1
  Sr  Sr19  1  0.99317100  0.52434800  0.81644900  1
  Sr  Sr20  1  0.53117600  0.00682900  0.81645600  1
  Sr  Sr21  1  0.52435000  0.53117400  0.31645600  1
  Sr  Sr22  1  0.00682900  0.47565200  0.31644900  1
  Sr  Sr23  1  0.46882400  0.99317100  0.31645600  1
  Sb  Sb0  1  0.98623700  0.15161200  0.59862700  1
  Sb  Sb1  1  0.16537100  0.01376400  0.59863100  1
  Sb  Sb2  1  0.84838700  0.83462800  0.59863100  1
  Sb  Sb3  1  0.01376300  0.84838800  0.09862700  1
  Sb  Sb4  1  0.83462900  0.98623600  0.09863100  1
  Sb  Sb5  1  0.15161300  0.16537200  0.09863100  1
  Sb  Sb6  1  0.16110600  0.17560300  0.49500700  1
  Sb  Sb7  1  0.01449300  0.83889500  0.49501000  1
  Sb  Sb8  1  0.82440000  0.98550700  0.49502400  1
  Sb  Sb9  1  0.83889400  0.82439700  0.99500700  1
  Sb  Sb10  1  0.98550700  0.16110500  0.99501000  1
  Sb  Sb11  1  0.17560000  0.01449300  0.99502400  1
  Sb  Sb12  1  0.33859900  0.33773000  0.51869300  1
  Sb  Sb13  1  0.99912800  0.66140100  0.51869200  1
  Sb  Sb14  1  0.66227000  0.00087100  0.51869300  1
  Sb  Sb15  1  0.66140100  0.66227000  0.01869300  1
  Sb  Sb16  1  0.00087200  0.33859900  0.01869200  1
  Sb  Sb17  1  0.33773000  0.99912900  0.01869300  1
  Sb  Sb18  1  0.32543200  0.32334200  0.11408100  1
  Sb  Sb19  1  0.99791300  0.67456900  0.11407900  1
  Sb  Sb20  1  0.67665800  0.00208700  0.11407900  1
  Sb  Sb21  1  0.67456800  0.67665800  0.61408100  1
  Sb  Sb22  1  0.00208700  0.32543100  0.61407900  1
  Sb  Sb23  1  0.32334200  0.99791300  0.61407900  1
  Sb  Sb24  1  0.50457900  0.34317800  0.13907900  1
  Sb  Sb25  1  0.83859900  0.49542000  0.13907100  1
  Sb  Sb26  1  0.65682200  0.16140200  0.13906900  1
  Sb  Sb27  1  0.49542100  0.65682200  0.63907900  1
  Sb  Sb28  1  0.16140100  0.50458000  0.63907100  1
  Sb  Sb29  1  0.34317800  0.83859800  0.63906900  1
  Sb  Sb30  1  0.51687500  0.35682200  0.53547000  1
  Sb  Sb31  1  0.83994400  0.48312200  0.53545600  1
  Sb  Sb32  1  0.64317700  0.16005700  0.53545900  1
  Sb  Sb33  1  0.48312500  0.64317800  0.03547000  1
  Sb  Sb34  1  0.16005600  0.51687800  0.03545600  1
  Sb  Sb35  1  0.35682300  0.83994300  0.03545900  1
  Sb  Sb36  1  0.30950500  0.48652100  0.14142900  1
  Sb  Sb37  1  0.17701900  0.69049700  0.14142600  1
  Sb  Sb38  1  0.51348200  0.82298400  0.14143700  1
  Sb  Sb39  1  0.69049500  0.51347900  0.64142900  1
  Sb  Sb40  1  0.82298100  0.30950300  0.64142600  1
  Sb  Sb41  1  0.48651800  0.17701600  0.64143700  1
  Sb  Sb42  1  0.32275700  0.50093600  0.53269900  1
  Sb  Sb43  1  0.17817800  0.67724500  0.53269600  1
  Sb  Sb44  1  0.49906700  0.82182300  0.53270100  1
  Sb  Sb45  1  0.67724300  0.49906400  0.03269900  1
  Sb  Sb46  1  0.82182200  0.32275500  0.03269600  1
  Sb  Sb47  1  0.50093300  0.17817700  0.03270100  1
  N  N0  1  0.60658900  0.38249500  0.02897600  1
  N  N1  1  0.77591000  0.39341200  0.02896600  1
  N  N2  1  0.61750200  0.22408900  0.02895800  1
  N  N3  1  0.39341100  0.61750500  0.52897600  1
  N  N4  1  0.22409000  0.60658800  0.52896600  1
  N  N5  1  0.38249800  0.77591100  0.52895800  1
  N  N6  1  0.20379600  0.10468900  0.45843900  1
  N  N7  1  0.90089500  0.79623000  0.45839700  1
  N  N8  1  0.89532000  0.09910600  0.45842200  1
  N  N9  1  0.79620400  0.89531100  0.95843900  1
  N  N10  1  0.09910500  0.20377000  0.95839700  1
  N  N11  1  0.10468000  0.90089400  0.95842200  1
  N  N12  1  0.05710100  0.10606100  0.59278800  1
  N  N13  1  0.04895800  0.94289900  0.59280200  1
  N  N14  1  0.89393300  0.95104200  0.59284200  1
  N  N15  1  0.94289900  0.89393900  0.09278800  1
  N  N16  1  0.95104200  0.05710100  0.09280200  1
  N  N17  1  0.10606700  0.04895800  0.09284200  1
  N  N18  1  0.26347100  0.21442400  0.03442700  1
  N  N19  1  0.95095800  0.73653200  0.03442600  1
  N  N20  1  0.78557700  0.04904200  0.03442900  1
  N  N21  1  0.73652900  0.78557600  0.53442700  1
  N  N22  1  0.04904200  0.26346800  0.53442600  1
  N  N23  1  0.21442300  0.95095800  0.53442900  1
  N  N24  1  0.23418700  0.27143600  0.61896700  1
  N  N25  1  0.03723800  0.76581000  0.61897400  1
  N  N26  1  0.72856700  0.96275800  0.61897700  1
  N  N27  1  0.76581300  0.72856400  0.11896700  1
  N  N28  1  0.96276200  0.23419000  0.11897400  1
  N  N29  1  0.27143300  0.03724200  0.11897700  1
  N  N30  1  0.55942600  0.28313200  0.55395300  1
  N  N31  1  0.72370400  0.44057300  0.55392900  1
  N  N32  1  0.71686500  0.27629700  0.55393600  1
  N  N33  1  0.44057400  0.71686800  0.05395300  1
  N  N34  1  0.27629600  0.55942700  0.05392900  1
  N  N35  1  0.28313500  0.72370300  0.05393600  1
  N  N36  1  0.13310200  0.20221000  0.29574900  1
  N  N37  1  0.06910700  0.86691400  0.29575600  1
  N  N38  1  0.79783000  0.93089300  0.29576800  1
  N  N39  1  0.86689800  0.79779000  0.79574900  1
  N  N40  1  0.93089300  0.13308600  0.79575600  1
  N  N41  1  0.20217000  0.06910700  0.79576800  1
  N  N42  1  0.41120200  0.31255500  0.63020700  1
  N  N43  1  0.90134700  0.58879500  0.63019400  1
  N  N44  1  0.68744700  0.09865300  0.63019500  1
  N  N45  1  0.58879800  0.68744500  0.13020700  1
  N  N46  1  0.09865300  0.41120500  0.13019400  1
  N  N47  1  0.31255300  0.90134700  0.13019500  1
  N  N48  1  0.39009100  0.45228100  0.56801700  1
  N  N49  1  0.06219000  0.60991200  0.56802100  1
  N  N50  1  0.54772000  0.93781100  0.56802400  1
  N  N51  1  0.60990900  0.54771900  0.06801700  1
  N  N52  1  0.93781000  0.39008800  0.06802100  1
  N  N53  1  0.45228000  0.06218900  0.06802400  1
  N  N54  1  0.43041500  0.36421500  0.01707900  1
  N  N55  1  0.93379600  0.56958900  0.01706600  1
  N  N56  1  0.63579200  0.06620200  0.01707000  1
  N  N57  1  0.56958500  0.63578500  0.51707900  1
  N  N58  1  0.06620400  0.43041100  0.51706600  1
  N  N59  1  0.36420800  0.93379800  0.51707000  1
  N  N60  1  0.53997000  0.40598500  0.33083100  1
  N  N61  1  0.86603100  0.46004500  0.33082200  1
  N  N62  1  0.59401500  0.13397000  0.33082100  1
  N  N63  1  0.46003000  0.59401500  0.83083100  1
  N  N64  1  0.13396900  0.53995500  0.83082200  1
  N  N65  1  0.40598500  0.86603000  0.83082100  1
  N  N66  1  0.27127900  0.38124700  0.04178400  1
  N  N67  1  0.10996800  0.72872000  0.04177600  1
  N  N68  1  0.61875600  0.89003000  0.04178800  1
  N  N69  1  0.72872100  0.61875300  0.54178400  1
  N  N70  1  0.89003200  0.27128000  0.54177600  1
  N  N71  1  0.38124400  0.10997000  0.54178800  1
  N  N72  1  0.87708800  0.42476800  0.66374300  1
  N  N73  1  0.54767500  0.12290600  0.66373700  1
  N  N74  1  0.57523000  0.45232200  0.66375000  1
  N  N75  1  0.12291200  0.57523200  0.16374300  1
  N  N76  1  0.45232500  0.87709400  0.16373700  1
  N  N77  1  0.42477000  0.54767800  0.16375000  1
  N  N78  1  0.26069800  0.45616000  0.34546800  1
  N  N79  1  0.19545400  0.73930300  0.34546600  1
  N  N80  1  0.54385800  0.80455400  0.34547600  1
  N  N81  1  0.73930200  0.54384000  0.84546800  1
  N  N82  1  0.80454600  0.26069700  0.84546600  1
  N  N83  1  0.45614200  0.19544600  0.84547600  1
  N  N84  1  0.34071200  0.29483300  0.31992600  1
  N  N85  1  0.95412700  0.65930300  0.31992400  1
  N  N86  1  0.70518200  0.04586700  0.31992700  1
  N  N87  1  0.65928800  0.70516700  0.81992600  1
  N  N88  1  0.04587300  0.34069700  0.81992400  1
  N  N89  1  0.29481800  0.95413300  0.81992700  1
  N  N90  1  0.23801600  0.46891300  0.68820700  1
  N  N91  1  0.23089500  0.76198700  0.68820100  1
  N  N92  1  0.53108300  0.76910300  0.68821800  1
  N  N93  1  0.76198400  0.53108700  0.18820700  1
  N  N94  1  0.76910500  0.23801300  0.18820100  1
  N  N95  1  0.46891700  0.23089700  0.18821800  1
loop_
_geom_bond_atom_site_label_1
_geom_bond_atom_site_label_2
_geom_bond_distance
_geom_bond_site_symmetry_2
N0 Sb45 2.012786 1_555
N0 Sb24 2.017602 1_555
N0 Sr16 2.671483 1_554
N0 Sr14 3.211192 1_555
N1 Sb46 2.012782 1_555
N1 Sb25 2.017578 1_555
N1 Sr16 2.671433 1_554
N1 Sr14 3.211593 1_555
N2 Sb47 2.012792 1_555
N2 Sb26 2.017576 1_555
N2 Sr16 2.671479 1_554
N2 Sr14 3.211619 1_555
N3 Sb42 2.012786 1_555
N3 Sb27 2.017602 1_555
N3 Sr17 2.671483 1_555
N3 Sr15 3.211192 1_555
N4 Sb43 2.012782 1_555
N4 Sb28 2.017578 1_555
N4 Sr17 2.671433 1_555
N4 Sr15 3.211593 1_555
N5 Sb44 2.012792 1_555
N5 Sb29 2.017576 1_555
N5 Sr17 2.671479 1_555
N5 Sr15 3.211619 1_555
N6 Sb6 1.993458 1_555
N6 Sb1 2.001470 1_555
N6 Sr2 2.555583 1_555
N7 Sb7 1.993491 1_655
N7 Sb2 2.001468 1_555
N7 Sr3 2.555691 1_555
N8 Sb8 1.993459 1_545
N8 Sb0 2.001450 1_555
N8 Sr4 2.555594 1_555
N9 Sb9 1.993458 1_555
N9 Sb4 2.001470 1_556
N9 Sr5 2.555583 1_555
N10 Sb10 1.993491 1_455
N10 Sb5 2.001468 1_556
N10 Sr6 2.555691 1_555
N11 Sb11 1.993459 1_565
N11 Sb3 2.001450 1_556
N11 Sr7 2.555594 1_555
N12 Sb0 2.011253 1_455
N12 Sb6 2.013761 1_555
N12 Sr1 2.741202 1_555
N12 Sr0 3.013446 1_445
N13 Sb1 2.011233 1_565
N13 Sb7 2.013776 1_555
N13 Sr1 2.741265 1_565
N13 Sr0 3.013351 1_455
N14 Sb2 2.011245 1_555
N14 Sb8 2.013769 1_555
N14 Sr1 2.741288 1_665
N14 Sr0 3.013551 1_555
N15 Sb3 2.011253 1_655
N15 Sb9 2.013761 1_554
N15 Sr0 2.741202 1_555
N15 Sr1 3.013446 1_664
N16 Sb4 2.011233 1_545
N16 Sb10 2.013776 1_554
N16 Sr0 2.741265 1_545
N16 Sr1 3.013351 1_654
N17 Sb5 2.011245 1_555
N17 Sb11 2.013769 1_554
N17 Sr0 2.741288 1_445
N17 Sr1 3.013551 1_554
N18 Sb18 2.002228 1_555
N18 Sb5 2.004924 1_555
N18 Sr13 2.528038 1_554
N18 Sr2 3.253467 1_555
N19 Sb19 2.002218 1_555
N19 Sb3 2.004887 1_655
N19 Sr11 2.527988 1_554
N19 Sr3 3.253573 1_555
N20 Sb20 2.002233 1_555
N20 Sb4 2.004911 1_545
N20 Sr12 2.528033 1_554
N20 Sr4 3.253501 1_555
N21 Sb21 2.002228 1_555
N21 Sb2 2.004924 1_555
N21 Sr10 2.528038 1_555
N21 Sr5 3.253467 1_555
N22 Sb22 2.002218 1_555
N22 Sb0 2.004887 1_455
N22 Sr8 2.527988 1_555
N22 Sr6 3.253573 1_555
N23 Sb23 2.002233 1_555
N23 Sb1 2.004911 1_565
N23 Sr9 2.528033 1_555
N23 Sr7 3.253501 1_555
N24 Sb12 2.019049 1_555
N24 Sb6 2.040479 1_555
N24 Sr6 2.596583 1_555
N24 Sr13 3.308088 1_555
N25 Sb13 2.019050 1_455
N25 Sb7 2.040475 1_555
N25 Sr7 2.596623 1_555
N25 Sr11 3.308119 1_455
N26 Sb14 2.019059 1_565
N26 Sb8 2.040454 1_555
N26 Sr5 2.596586 1_555
N26 Sr12 3.308023 1_565
N27 Sb15 2.019049 1_555
N27 Sb9 2.040479 1_554
N27 Sr3 2.596583 1_555
N27 Sr10 3.308088 1_555
N28 Sb16 2.019050 1_655
N28 Sb10 2.040475 1_554
N28 Sr4 2.596623 1_555
N28 Sr8 3.308119 1_655
N29 Sb17 2.019059 1_545
N29 Sb11 2.040454 1_554
N29 Sr2 2.596586 1_555
N29 Sr9 3.308023 1_545
N30 Sb41 2.016933 1_555
N30 Sb30 2.022334 1_555
N30 Sr14 2.767340 1_555
N30 Sr16 2.966340 1_555
N31 Sb39 2.016956 1_555
N31 Sb31 2.022322 1_555
N31 Sr14 2.767250 1_555
N31 Sr16 2.966424 1_555
N32 Sb40 2.016956 1_555
N32 Sb32 2.022320 1_555
N32 Sr14 2.767486 1_555
N32 Sr16 2.966361 1_555
N33 Sb38 2.016933 1_555
N33 Sb33 2.022334 1_555
N33 Sr15 2.767340 1_554
N33 Sr17 2.966340 1_555
N34 Sb36 2.016956 1_555
N34 Sb34 2.022322 1_555
N34 Sr15 2.767250 1_554
N34 Sr17 2.966424 1_555
N35 Sb37 2.016956 1_555
N35 Sb35 2.022320 1_555
N35 Sr15 2.767486 1_554
N35 Sr17 2.966361 1_555
N36 Sb5 2.003522 1_555
N36 Sb6 2.006205 1_555
N36 Sr8 2.559468 1_555
N36 Sr0 3.531208 1_445
N37 Sb3 2.003538 1_555
N37 Sb7 2.006201 1_555
N37 Sr9 2.559508 1_555
N37 Sr0 3.530527 1_455
N38 Sb4 2.003560 1_555
N38 Sb8 2.006221 1_555
N38 Sr10 2.559525 1_555
N38 Sr0 3.529887 1_555
N39 Sb2 2.003522 1_555
N39 Sb9 2.006205 1_555
N39 Sr11 2.559468 1_555
N39 Sr1 3.531208 1_665
N40 Sb0 2.003538 1_555
N40 Sb10 2.006201 1_555
N40 Sr12 2.559508 1_555
N40 Sr1 3.530527 1_655
N41 Sb1 2.003560 1_555
N41 Sb11 2.006221 1_555
N41 Sr13 2.559525 1_555
N41 Sr1 3.529887 1_555
N42 Sb12 2.003474 1_555
N42 Sb30 2.004931 1_555
N42 Sr13 2.520427 1_555
N42 Sr18 3.161606 1_555
N43 Sb13 2.003480 1_555
N43 Sb31 2.004933 1_555
N43 Sr11 2.520379 1_555
N43 Sr19 3.161625 1_555
N44 Sb14 2.003483 1_555
N44 Sb32 2.004932 1_555
N44 Sr12 2.520407 1_555
N44 Sr20 3.161666 1_555
N45 Sb15 2.003474 1_555
N45 Sb33 2.004931 1_555
N45 Sr10 2.520427 1_555
N45 Sr21 3.161606 1_555
N46 Sb16 2.003480 1_555
N46 Sb34 2.004933 1_555
N46 Sr8 2.520379 1_555
N46 Sr22 3.161625 1_555
N47 Sb17 2.003483 1_555
N47 Sb35 2.004932 1_555
N47 Sr9 2.520407 1_555
N47 Sr23 3.161666 1_555
N48 Sb12 2.014789 1_555
N48 Sb42 2.020822 1_555
N48 Sr18 2.704490 1_555
N48 Sr21 3.219692 1_555
N49 Sb13 2.014793 1_455
N49 Sb43 2.020825 1_555
N49 Sr19 2.704470 1_455
N49 Sr22 3.219779 1_555
N50 Sb14 2.014788 1_565
N50 Sb44 2.020825 1_555
N50 Sr20 2.704475 1_565
N50 Sr23 3.219696 1_555
N51 Sb15 2.014789 1_555
N51 Sb45 2.020822 1_555
N51 Sr21 2.704490 1_555
N51 Sr18 3.219692 1_554
N52 Sb16 2.014793 1_655
N52 Sb46 2.020825 1_555
N52 Sr22 2.704470 1_655
N52 Sr19 3.219779 1_554
N53 Sb17 2.014788 1_545
N53 Sb47 2.020825 1_555
N53 Sr23 2.704475 1_545
N53 Sr20 3.219696 1_554
N54 Sb18 2.008882 1_555
N54 Sb24 2.029326 1_555
N54 Sr18 2.534830 1_554
N54 Sr13 3.414011 1_554
N55 Sb19 2.008901 1_555
N55 Sb25 2.029340 1_555
N55 Sr19 2.534842 1_554
N55 Sr11 3.413444 1_554
N56 Sb20 2.008886 1_555
N56 Sb26 2.029345 1_555
N56 Sr20 2.534828 1_554
N56 Sr12 3.413615 1_554
N57 Sb21 2.008882 1_555
N57 Sb27 2.029326 1_555
N57 Sr21 2.534830 1_555
N57 Sr10 3.414011 1_555
N58 Sb22 2.008901 1_555
N58 Sb28 2.029340 1_555
N58 Sr22 2.534842 1_555
N58 Sr8 3.413444 1_555
N59 Sb23 2.008886 1_555
N59 Sb29 2.029345 1_555
N59 Sr23 2.534828 1_555
N59 Sr9 3.413615 1_555
N60 Sb30 2.007956 1_555
N60 Sb24 2.020084 1_555
N60 Sr21 2.648367 1_555
N60 Sr14 3.458335 1_555
N61 Sb31 2.007927 1_555
N61 Sb25 2.020060 1_555
N61 Sr22 2.648257 1_655
N61 Sr14 3.459110 1_555
N62 Sb32 2.007947 1_555
N62 Sb26 2.020070 1_555
N62 Sr23 2.648278 1_545
N62 Sr14 3.459068 1_555
N63 Sb33 2.007956 1_556
N63 Sb27 2.020084 1_555
N63 Sr18 2.648367 1_555
N63 Sr15 3.458335 1_555
N64 Sb34 2.007927 1_556
N64 Sb28 2.020060 1_555
N64 Sr19 2.648257 1_455
N64 Sr15 3.459110 1_555
N65 Sb35 2.007947 1_556
N65 Sb29 2.020070 1_555
N65 Sr20 2.648278 1_565
N65 Sr15 3.459068 1_555
N66 Sb18 2.025664 1_555
N66 Sb36 2.030581 1_555
N66 Sr6 2.660825 1_554
N66 Sr8 3.388432 1_555
N67 Sb19 2.025641 1_455
N67 Sb37 2.030601 1_555
N67 Sr7 2.660837 1_554
N67 Sr9 3.388470 1_555
N68 Sb20 2.025640 1_565
N68 Sb38 2.030593 1_555
N68 Sr5 2.660833 1_554
N68 Sr10 3.388181 1_555
N69 Sb21 2.025664 1_555
N69 Sb39 2.030581 1_555
N69 Sr3 2.660825 1_555
N69 Sr11 3.388432 1_555
N70 Sb22 2.025641 1_655
N70 Sb40 2.030601 1_555
N70 Sr4 2.660837 1_555
N70 Sr12 3.388470 1_555
N71 Sb23 2.025640 1_545
N71 Sb41 2.030593 1_555
N71 Sr2 2.660833 1_555
N71 Sr13 3.388181 1_555
N72 Sb40 1.986425 1_555
N72 Sb31 2.006826 1_555
N72 Sr19 2.546000 1_555
N73 Sb41 1.986432 1_555
N73 Sb32 2.006832 1_555
N73 Sr20 2.545981 1_555
N74 Sb39 1.986428 1_555
N74 Sb30 2.006827 1_555
N74 Sr18 2.546000 1_555
N75 Sb37 1.986425 1_555
N75 Sb34 2.006826 1_555
N75 Sr22 2.546000 1_555
N76 Sb38 1.986432 1_555
N76 Sb35 2.006832 1_555
N76 Sr23 2.545981 1_555
N77 Sb36 1.986428 1_555
N77 Sb33 2.006827 1_555
N77 Sr21 2.546000 1_555
N78 Sb42 1.996293 1_555
N78 Sb36 2.003804 1_555
N78 Sr8 2.575573 1_555
N79 Sb43 1.996293 1_555
N79 Sb37 2.003817 1_555
N79 Sr9 2.575615 1_555
N80 Sb44 1.996293 1_555
N80 Sb38 2.003813 1_555
N80 Sr10 2.575635 1_555
N81 Sb45 1.996293 1_556
N81 Sb39 2.003804 1_555
N81 Sr11 2.575573 1_555
N82 Sb46 1.996293 1_556
N82 Sb40 2.003817 1_555
N82 Sr12 2.575615 1_555
N83 Sb47 1.996293 1_556
N83 Sb41 2.003813 1_555
N83 Sr13 2.575635 1_555
N84 Sb12 1.972591 1_555
N84 Sb18 1.985125 1_555
N84 Sr2 2.695469 1_555
N85 Sb13 1.972582 1_555
N85 Sb19 1.985123 1_555
N85 Sr3 2.695405 1_555
N86 Sb14 1.972581 1_555
N86 Sb20 1.985119 1_555
N86 Sr4 2.695432 1_555
N87 Sb15 1.972591 1_556
N87 Sb21 1.985125 1_555
N87 Sr5 2.695469 1_555
N88 Sb16 1.972582 1_556
N88 Sb22 1.985123 1_555
N88 Sr6 2.695405 1_555
N89 Sb17 1.972581 1_556
N89 Sb23 1.985119 1_555
N89 Sr7 2.695432 1_555
N90 Sb28 2.014389 1_555
N90 Sb42 2.017076 1_555
N90 Sr6 2.619417 1_555
N90 Sr15 3.591932 1_555
N91 Sb29 2.014391 1_555
N91 Sb43 2.017069 1_555
N91 Sr7 2.619353 1_555
N91 Sr15 3.592392 1_555
N92 Sb27 2.014403 1_555
N92 Sb44 2.017074 1_555
N92 Sr5 2.619399 1_555
N92 Sr15 3.591748 1_555
N93 Sb25 2.014389 1_555
N93 Sb45 2.017076 1_555
N93 Sr3 2.619417 1_555
N93 Sr14 3.591932 1_555
N94 Sb26 2.014391 1_555
N94 Sb46 2.017069 1_555
N94 Sr4 2.619353 1_555
N94 Sr14 3.592392 1_555
N95 Sb24 2.014403 1_555
N95 Sb47 2.017074 1_555
N95 Sr2 2.619399 1_555
N95 Sr14 3.591748 1_555
