# generated using pymatgen
data_CaWO3
_symmetry_space_group_name_H-M   'P 1'
_cell_length_a   5.58086600
_cell_length_b   5.79424200
_cell_length_c   7.91017300
_cell_angle_alpha   90.00000000
_cell_angle_beta   90.00000000
_cell_angle_gamma   90.00000000
_symmetry_Int_Tables_number   1
_chemical_formula_structural   CaWO3
_chemical_formula_sum   'Ca4 W4 O12'
_cell_volume   255.79037973
_cell_formula_units_Z   4
loop_
 _symmetry_equiv_pos_site_id
 _symmetry_equiv_pos_as_xyz
  1  'x, y, z'
loop_
 _atom_site_type_symbol
 _atom_site_label
 _atom_site_symmetry_multiplicity
 _atom_site_fract_x
 _atom_site_fract_y
 _atom_site_fract_z
 _atom_site_occupancy
  Ca  Ca0  1  0.01339800  0.04942400  0.75000000  1
  Ca  Ca1  1  0.51339800  0.45057600  0.25000000  1
  Ca  Ca2  1  0.48660200  0.54942400  0.75000000  1
  Ca  Ca3  1  0.98660200  0.95057600  0.25000000  1
  W  W0  1  0.50000000  0.00000000  0.00000000  1
  W  W1  1  0.00000000  0.50000000  0.00000000  1
  W  W2  1  0.00000000  0.50000000  0.50000000  1
  W  W3  1  0.50000000  0.00000000  0.50000000  1
  O  O0  1  0.10125600  0.54059700  0.25000000  1
  O  O1  1  0.60125600  0.95940300  0.75000000  1
  O  O2  1  0.39874400  0.04059700  0.25000000  1
  O  O3  1  0.89874400  0.45940300  0.75000000  1
  O  O4  1  0.30942100  0.29622100  0.55481100  1
  O  O5  1  0.80942100  0.20377900  0.44518900  1
  O  O6  1  0.19057900  0.79622100  0.94518900  1
  O  O7  1  0.69057900  0.70377900  0.05481100  1
  O  O8  1  0.30942100  0.29622100  0.94518900  1
  O  O9  1  0.80942100  0.20377900  0.05481100  1
  O  O10  1  0.69057900  0.70377900  0.44518900  1
  O  O11  1  0.19057900  0.79622100  0.55481100  1
loop_
_geom_bond_atom_site_label_1
_geom_bond_atom_site_label_2
_geom_bond_distance
_geom_bond_site_symmetry_2
Ca0 O6 2.348208 1_545
Ca0 O11 2.348208 1_545
Ca0 O1 2.358511 1_445
Ca0 O3 2.460186 1_455
Ca0 O8 2.675461 1_555
Ca0 O4 2.675461 1_555
Ca0 O9 2.812334 1_456
Ca0 O5 2.812334 1_455
Ca1 O7 2.348208 1_555
Ca1 O10 2.348208 1_555
Ca1 O0 2.358511 1_555
Ca1 O2 2.460186 1_555
Ca1 O9 2.675461 1_555
Ca1 O5 2.675461 1_555
Ca1 O4 2.812334 1_555
Ca1 O8 2.812334 1_554
Ca2 O8 2.348208 1_555
Ca2 O4 2.348208 1_555
Ca2 O3 2.358511 1_555
Ca2 O1 2.460186 1_555
Ca2 O6 2.675461 1_555
Ca2 O11 2.675461 1_555
Ca2 O7 2.812334 1_556
Ca2 O10 2.812334 1_555
Ca3 O5 2.348208 1_565
Ca3 O9 2.348208 1_565
Ca3 O2 2.358511 1_665
Ca3 O0 2.460186 1_655
Ca3 O7 2.675461 1_555
Ca3 O10 2.675461 1_555
Ca3 O11 2.812334 1_655
Ca3 O6 2.812334 1_654
O0 W2 2.070107 1_555
O0 W1 2.070107 1_555
O1 W0 2.070107 1_566
O1 W3 2.070107 1_565
O2 W0 2.070107 1_555
O2 W3 2.070107 1_555
O3 W2 2.070107 1_655
O3 W1 2.070107 1_656
O4 W3 2.065227 1_555
O4 W2 2.136376 1_555
O5 W2 2.065227 1_655
O5 W3 2.136376 1_555
O6 W1 2.065227 1_556
O6 W0 2.136376 1_566
O7 W0 2.065227 1_565
O7 W1 2.136376 1_655
O8 W0 2.065227 1_556
O8 W1 2.136376 1_556
O9 W1 2.065227 1_655
O9 W0 2.136376 1_555
O10 W3 2.065227 1_565
O10 W2 2.136376 1_655
O11 W2 2.065227 1_555
O11 W3 2.136376 1_565
