# generated using pymatgen
data_Li2TlHg
_symmetry_space_group_name_H-M   'P 1'
_cell_length_a   6.72830576
_cell_length_b   6.72830576
_cell_length_c   13.53275730
_cell_angle_alpha   90.00000000
_cell_angle_beta   90.00000000
_cell_angle_gamma   90.00000000
_symmetry_Int_Tables_number   1
_chemical_formula_structural   Li2TlHg
_chemical_formula_sum   'Li16 Tl8 Hg8'
_cell_volume   612.62925459
_cell_formula_units_Z   8
loop_
 _symmetry_equiv_pos_site_id
 _symmetry_equiv_pos_as_xyz
  1  'x, y, z'
loop_
 _atom_site_type_symbol
 _atom_site_label
 _atom_site_symmetry_multiplicity
 _atom_site_fract_x
 _atom_site_fract_y
 _atom_site_fract_z
 _atom_site_occupancy
  Li  Li0_0  1  0.25000000  0.25000000  0.11850888  1
  Li  Li0_1  1  0.25000000  0.25000000  0.61850888  1
  Li  Li0_2  1  0.25000000  0.75000000  0.11850888  1
  Li  Li0_3  1  0.25000000  0.75000000  0.61850888  1
  Li  Li0_4  1  0.75000000  0.25000000  0.11850888  1
  Li  Li0_5  1  0.75000000  0.25000000  0.61850888  1
  Li  Li0_6  1  0.75000000  0.75000000  0.11850888  1
  Li  Li0_7  1  0.75000000  0.75000000  0.61850888  1
  Li  Li1_0  1  0.25000000  0.25000000  0.38149112  1
  Li  Li1_1  1  0.25000000  0.25000000  0.88149112  1
  Li  Li1_2  1  0.25000000  0.75000000  0.38149112  1
  Li  Li1_3  1  0.25000000  0.75000000  0.88149112  1
  Li  Li1_4  1  0.75000000  0.25000000  0.38149112  1
  Li  Li1_5  1  0.75000000  0.25000000  0.88149112  1
  Li  Li1_6  1  0.75000000  0.75000000  0.38149112  1
  Li  Li1_7  1  0.75000000  0.75000000  0.88149112  1
  Tl  Tl0_0  1  0.00000000  0.00000000  0.25000000  1
  Tl  Tl0_1  1  0.00000000  0.00000000  0.75000000  1
  Tl  Tl0_2  1  0.00000000  0.50000000  0.25000000  1
  Tl  Tl0_3  1  0.00000000  0.50000000  0.75000000  1
  Tl  Tl0_4  1  0.50000000  0.00000000  0.25000000  1
  Tl  Tl0_5  1  0.50000000  0.00000000  0.75000000  1
  Tl  Tl0_6  1  0.50000000  0.50000000  0.25000000  1
  Tl  Tl0_7  1  0.50000000  0.50000000  0.75000000  1
  Hg  Hg0_0  1  0.00000000  0.00000000  0.00000000  1
  Hg  Hg0_1  1  0.00000000  0.00000000  0.50000000  1
  Hg  Hg0_2  1  0.00000000  0.50000000  0.00000000  1
  Hg  Hg0_3  1  0.00000000  0.50000000  0.50000000  1
  Hg  Hg0_4  1  0.50000000  0.00000000  0.00000000  1
  Hg  Hg0_5  1  0.50000000  0.00000000  0.50000000  1
  Hg  Hg0_6  1  0.50000000  0.50000000  0.00000000  1
  Hg  Hg0_7  1  0.50000000  0.50000000  0.50000000  1
loop_
_geom_bond_atom_site_label_1
_geom_bond_atom_site_label_2
_geom_bond_distance
_geom_bond_site_symmetry_2
Li0_0 Tl0_0 2.970717 1_555
Li0_0 Tl0_6 2.970717 1_555
Li0_0 Tl0_4 2.970717 1_555
Li0_0 Tl0_2 2.970717 1_555
Li0_0 Li1_1 3.207504 1_554
Li0_0 Li0_2 3.364153 1_545
Li0_0 Li0_4 3.364153 1_455
Li0_0 Li0_4 3.364153 1_555
Li0_0 Li0_2 3.364153 1_555
Li0_1 Tl0_3 2.970717 1_555
Li0_1 Tl0_7 2.970717 1_555
Li0_1 Tl0_1 2.970717 1_555
Li0_1 Tl0_5 2.970717 1_555
Li0_1 Li1_0 3.207504 1_555
Li0_1 Li0_5 3.364153 1_455
Li0_1 Li0_3 3.364153 1_545
Li0_1 Li0_3 3.364153 1_555
Li0_1 Li0_5 3.364153 1_555
Li0_2 Tl0_4 2.970717 1_565
Li0_2 Tl0_0 2.970717 1_565
Li0_2 Tl0_2 2.970717 1_555
Li0_2 Tl0_6 2.970717 1_555
Li0_2 Li1_3 3.207504 1_554
Li0_2 Li0_6 3.364153 1_455
Li0_2 Li0_6 3.364153 1_555
Li0_3 Tl0_5 2.970717 1_565
Li0_3 Tl0_1 2.970717 1_565
Li0_3 Tl0_3 2.970717 1_555
Li0_3 Tl0_7 2.970717 1_555
Li0_3 Li1_2 3.207504 1_555
Li0_3 Li0_7 3.364153 1_455
Li0_3 Li0_7 3.364153 1_555
Li0_4 Tl0_2 2.970717 1_655
Li0_4 Tl0_0 2.970717 1_655
Li0_4 Tl0_4 2.970717 1_555
Li0_4 Tl0_6 2.970717 1_555
Li0_4 Li1_5 3.207504 1_554
Li0_4 Li0_6 3.364153 1_545
Li0_4 Li0_6 3.364153 1_555
Li0_5 Tl0_3 2.970717 1_655
Li0_5 Tl0_1 2.970717 1_655
Li0_5 Tl0_5 2.970717 1_555
Li0_5 Tl0_7 2.970717 1_555
Li0_5 Li1_4 3.207504 1_555
Li0_5 Li0_7 3.364153 1_545
Li0_5 Li0_7 3.364153 1_555
Li0_6 Tl0_0 2.970717 1_665
Li0_6 Tl0_2 2.970717 1_655
Li0_6 Tl0_4 2.970717 1_565
Li0_6 Tl0_6 2.970717 1_555
Li0_6 Li1_7 3.207504 1_554
Li0_7 Tl0_1 2.970717 1_665
Li0_7 Tl0_5 2.970717 1_565
Li0_7 Tl0_3 2.970717 1_655
Li0_7 Tl0_7 2.970717 1_555
Li0_7 Li1_6 3.207504 1_555
Li1_0 Tl0_4 2.970717 1_555
Li1_0 Tl0_0 2.970717 1_555
Li1_0 Tl0_2 2.970717 1_555
Li1_0 Tl0_6 2.970717 1_555
Li1_0 Li1_2 3.364153 1_545
Li1_0 Li1_4 3.364153 1_455
Li1_0 Li1_2 3.364153 1_555
Li1_0 Li1_4 3.364153 1_555
Li1_1 Tl0_3 2.970717 1_555
Li1_1 Tl0_7 2.970717 1_555
Li1_1 Tl0_1 2.970717 1_555
Li1_1 Tl0_5 2.970717 1_555
Li1_1 Li1_5 3.364153 1_455
Li1_1 Li1_3 3.364153 1_545
Li1_1 Li1_5 3.364153 1_555
Li1_1 Li1_3 3.364153 1_555
Li1_2 Tl0_4 2.970717 1_565
Li1_2 Tl0_0 2.970717 1_565
Li1_2 Tl0_2 2.970717 1_555
Li1_2 Tl0_6 2.970717 1_555
Li1_2 Li1_6 3.364153 1_455
Li1_2 Li1_6 3.364153 1_555
Li1_3 Tl0_1 2.970717 1_565
Li1_3 Tl0_5 2.970717 1_565
Li1_3 Tl0_3 2.970717 1_555
Li1_3 Tl0_7 2.970717 1_555
Li1_3 Li1_7 3.364153 1_455
Li1_3 Li1_7 3.364153 1_555
Li1_4 Tl0_2 2.970717 1_655
Li1_4 Tl0_0 2.970717 1_655
Li1_4 Tl0_4 2.970717 1_555
Li1_4 Tl0_6 2.970717 1_555
Li1_4 Li1_6 3.364153 1_545
Li1_4 Li1_6 3.364153 1_555
Li1_5 Tl0_3 2.970717 1_655
Li1_5 Tl0_1 2.970717 1_655
Li1_5 Tl0_7 2.970717 1_555
Li1_5 Tl0_5 2.970717 1_555
Li1_5 Li1_7 3.364153 1_545
Li1_5 Li1_7 3.364153 1_555
Li1_6 Tl0_0 2.970717 1_665
Li1_6 Tl0_2 2.970717 1_655
Li1_6 Tl0_4 2.970717 1_565
Li1_6 Tl0_6 2.970717 1_555
Li1_7 Tl0_1 2.970717 1_665
Li1_7 Tl0_5 2.970717 1_565
Li1_7 Tl0_3 2.970717 1_655
Li1_7 Tl0_7 2.970717 1_555
Tl0_0 Tl0_2 3.364153 1_545
Tl0_0 Tl0_2 3.364153 1_555
Tl0_0 Tl0_4 3.364153 1_455
Tl0_0 Tl0_4 3.364153 1_555
Tl0_1 Tl0_3 3.364153 1_555
Tl0_1 Tl0_5 3.364153 1_555
Tl0_1 Tl0_3 3.364153 1_545
Tl0_1 Tl0_5 3.364153 1_455
Tl0_2 Tl0_6 3.364153 1_555
Tl0_2 Tl0_6 3.364153 1_455
Tl0_3 Tl0_7 3.364153 1_555
Tl0_3 Tl0_7 3.364153 1_455
Tl0_4 Tl0_6 3.364153 1_555
Tl0_4 Tl0_6 3.364153 1_545
Tl0_5 Tl0_7 3.364153 1_555
Tl0_5 Tl0_7 3.364153 1_545
Hg0_0 Li0_6 2.868934 1_445
Hg0_0 Li0_2 2.868934 1_545
Hg0_0 Li0_4 2.868934 1_455
Hg0_0 Li1_7 2.868934 1_444
Hg0_0 Li1_5 2.868934 1_454
Hg0_0 Li0_0 2.868934 1_555
Hg0_0 Li1_3 2.868934 1_544
Hg0_0 Li1_1 2.868934 1_554
Hg0_0 Hg0_2 3.364153 1_555
Hg0_0 Hg0_4 3.364153 1_555
Hg0_0 Hg0_2 3.364153 1_545
Hg0_0 Hg0_4 3.364153 1_455
Hg0_0 Tl0_0 3.383189 1_555
Hg0_0 Tl0_1 3.383189 1_554
Hg0_1 Li1_6 2.868934 1_445
Hg0_1 Li1_2 2.868934 1_545
Hg0_1 Li1_0 2.868934 1_555
Hg0_1 Li1_4 2.868934 1_455
Hg0_1 Li0_7 2.868934 1_445
Hg0_1 Li0_5 2.868934 1_455
Hg0_1 Li0_3 2.868934 1_545
Hg0_1 Li0_1 2.868934 1_555
Hg0_1 Hg0_5 3.364153 1_555
Hg0_1 Hg0_5 3.364153 1_455
Hg0_1 Hg0_3 3.364153 1_555
Hg0_1 Hg0_3 3.364153 1_545
Hg0_1 Tl0_1 3.383189 1_555
Hg0_1 Tl0_0 3.383189 1_555
Hg0_2 Li0_4 2.868934 1_455
Hg0_2 Li0_2 2.868934 1_555
Hg0_2 Li1_5 2.868934 1_454
Hg0_2 Li0_0 2.868934 1_555
Hg0_2 Li0_6 2.868934 1_455
Hg0_2 Li1_1 2.868934 1_554
Hg0_2 Li1_7 2.868934 1_454
Hg0_2 Li1_3 2.868934 1_554
Hg0_2 Hg0_6 3.364153 1_455
Hg0_2 Hg0_6 3.364153 1_555
Hg0_2 Tl0_2 3.383189 1_555
Hg0_2 Tl0_3 3.383189 1_554
Hg0_3 Li1_6 2.868934 1_455
Hg0_3 Li1_0 2.868934 1_555
Hg0_3 Li1_4 2.868934 1_455
Hg0_3 Li0_5 2.868934 1_455
Hg0_3 Li0_7 2.868934 1_455
Hg0_3 Li0_3 2.868934 1_555
Hg0_3 Li1_2 2.868934 1_555
Hg0_3 Li0_1 2.868934 1_555
Hg0_3 Hg0_7 3.364153 1_555
Hg0_3 Hg0_7 3.364153 1_455
Hg0_3 Tl0_3 3.383189 1_555
Hg0_3 Tl0_2 3.383189 1_555
Hg0_4 Li0_2 2.868934 1_545
Hg0_4 Li0_6 2.868934 1_545
Hg0_4 Li1_7 2.868934 1_544
Hg0_4 Li0_0 2.868934 1_555
Hg0_4 Li1_3 2.868934 1_544
Hg0_4 Li0_4 2.868934 1_555
Hg0_4 Li1_1 2.868934 1_554
Hg0_4 Li1_5 2.868934 1_554
Hg0_4 Hg0_6 3.364153 1_555
Hg0_4 Hg0_6 3.364153 1_545
Hg0_4 Tl0_4 3.383189 1_555
Hg0_4 Tl0_5 3.383189 1_554
Hg0_5 Li1_0 2.868934 1_555
Hg0_5 Li1_2 2.868934 1_545
Hg0_5 Li1_6 2.868934 1_545
Hg0_5 Li0_3 2.868934 1_545
Hg0_5 Li0_1 2.868934 1_555
Hg0_5 Li0_5 2.868934 1_555
Hg0_5 Li0_7 2.868934 1_545
Hg0_5 Li1_4 2.868934 1_555
Hg0_5 Hg0_7 3.364153 1_545
Hg0_5 Hg0_7 3.364153 1_555
Hg0_5 Tl0_5 3.383189 1_555
Hg0_5 Tl0_4 3.383189 1_555
Hg0_6 Li0_2 2.868934 1_555
Hg0_6 Li0_0 2.868934 1_555
Hg0_6 Li0_4 2.868934 1_555
Hg0_6 Li1_1 2.868934 1_554
Hg0_6 Li0_6 2.868934 1_555
Hg0_6 Li1_3 2.868934 1_554
Hg0_6 Li1_5 2.868934 1_554
Hg0_6 Li1_7 2.868934 1_554
Hg0_6 Tl0_6 3.383189 1_555
Hg0_6 Tl0_7 3.383189 1_554
Hg0_7 Li1_0 2.868934 1_555
Hg0_7 Li0_3 2.868934 1_555
Hg0_7 Li1_2 2.868934 1_555
Hg0_7 Li0_1 2.868934 1_555
Hg0_7 Li0_5 2.868934 1_555
Hg0_7 Li1_6 2.868934 1_555
Hg0_7 Li1_4 2.868934 1_555
Hg0_7 Li0_7 2.868934 1_555
Hg0_7 Tl0_7 3.383189 1_555
Hg0_7 Tl0_6 3.383189 1_555
