# generated using pymatgen
data_Pr4(BRh4)3
_symmetry_space_group_name_H-M   'P 1'
_cell_length_a   4.24402275
_cell_length_b   4.24402275
_cell_length_c   16.55926464
_cell_angle_alpha   90.00000000
_cell_angle_beta   90.00000000
_cell_angle_gamma   90.00000000
_symmetry_Int_Tables_number   1
_chemical_formula_structural   Pr4(BRh4)3
_chemical_formula_sum   'Pr4 B3 Rh12'
_cell_volume   298.26098883
_cell_formula_units_Z   1
loop_
 _symmetry_equiv_pos_site_id
 _symmetry_equiv_pos_as_xyz
  1  'x, y, z'
loop_
 _atom_site_type_symbol
 _atom_site_label
 _atom_site_symmetry_multiplicity
 _atom_site_fract_x
 _atom_site_fract_y
 _atom_site_fract_z
 _atom_site_occupancy
  Pr  Pr0  1  0.00000000  0.00000000  0.87935379  1
  Pr  Pr1  1  -0.00000000  0.00000000  0.12064621  1
  Pr  Pr2  1  -0.00000000  0.00000000  0.37376401  1
  Pr  Pr3  1  0.00000000  0.00000000  0.62623599  1
  B  B0  1  0.50000000  0.50000000  0.23717526  1
  B  B1  1  0.50000000  0.50000000  0.50000000  1
  B  B2  1  0.50000000  0.50000000  0.76282474  1
  Rh  Rh0  1  0.50000000  0.50000000  0.88698284  1
  Rh  Rh1  1  0.50000000  0.50000000  0.11301716  1
  Rh  Rh2  1  0.50000000  0.50000000  0.37094577  1
  Rh  Rh3  1  0.50000000  0.50000000  0.62905423  1
  Rh  Rh4  1  0.50000000  0.00000000  -0.00000000  1
  Rh  Rh5  1  0.50000000  0.00000000  0.24713608  1
  Rh  Rh6  1  0.50000000  0.00000000  0.50000000  1
  Rh  Rh7  1  0.50000000  0.00000000  0.75286392  1
  Rh  Rh8  1  -0.00000000  0.50000000  -0.00000000  1
  Rh  Rh9  1  -0.00000000  0.50000000  0.24713608  1
  Rh  Rh10  1  -0.00000000  0.50000000  0.50000000  1
  Rh  Rh11  1  0.00000000  0.50000000  0.75286392  1
loop_
_geom_bond_atom_site_label_1
_geom_bond_atom_site_label_2
_geom_bond_distance
_geom_bond_site_symmetry_2
Pr0 Rh4 2.914479 1_456
Pr0 Rh8 2.914479 1_556
Pr0 Rh4 2.914479 1_556
Pr0 Rh8 2.914479 1_546
Pr0 Rh7 2.981643 1_555
Pr0 Rh11 2.981643 1_555
Pr0 Rh7 2.981643 1_455
Pr0 Rh11 2.981643 1_545
Pr0 Rh0 3.003635 1_555
Pr0 Rh0 3.003635 1_445
Pr0 Rh0 3.003635 1_545
Pr0 Rh0 3.003635 1_455
Pr1 Rh4 2.914479 1_455
Pr1 Rh8 2.914479 1_555
Pr1 Rh4 2.914479 1_555
Pr1 Rh8 2.914479 1_545
Pr1 Rh5 2.981643 1_555
Pr1 Rh9 2.981643 1_545
Pr1 Rh5 2.981643 1_455
Pr1 Rh9 2.981643 1_555
Pr1 Rh1 3.003635 1_455
Pr1 Rh1 3.003635 1_555
Pr1 Rh1 3.003635 1_445
Pr1 Rh1 3.003635 1_545
Pr2 Rh6 2.978691 1_555
Pr2 Rh6 2.978691 1_455
Pr2 Rh10 2.978691 1_545
Pr2 Rh10 2.978691 1_555
Pr2 Rh9 2.983249 1_545
Pr2 Rh5 2.983249 1_455
Pr2 Rh9 2.983249 1_555
Pr2 Rh5 2.983249 1_555
Pr2 Rh2 3.001340 1_445
Pr2 Rh2 3.001340 1_555
Pr2 Rh2 3.001340 1_545
Pr2 Rh2 3.001340 1_455
Pr3 Rh6 2.978691 1_555
Pr3 Rh6 2.978691 1_455
Pr3 Rh10 2.978691 1_545
Pr3 Rh10 2.978691 1_555
Pr3 Rh7 2.983249 1_555
Pr3 Rh11 2.983249 1_545
Pr3 Rh11 2.983249 1_555
Pr3 Rh7 2.983249 1_455
Pr3 Rh3 3.001340 1_455
Pr3 Rh3 3.001340 1_555
Pr3 Rh3 3.001340 1_445
Pr3 Rh3 3.001340 1_545
B0 Rh1 2.055967 1_555
B0 Rh9 2.128412 1_555
B0 Rh9 2.128412 1_655
B0 Rh5 2.128412 1_555
B0 Rh5 2.128412 1_565
B0 Rh2 2.215141 1_555
B1 Rh10 2.122011 1_655
B1 Rh6 2.122011 1_565
B1 Rh6 2.122011 1_555
B1 Rh10 2.122011 1_555
B1 Rh2 2.137043 1_555
B1 Rh3 2.137043 1_555
B2 Rh0 2.055967 1_555
B2 Rh7 2.128412 1_565
B2 Rh11 2.128412 1_655
B2 Rh7 2.128412 1_555
B2 Rh11 2.128412 1_555
B2 Rh3 2.215141 1_555
Rh0 Rh4 2.829377 1_556
Rh0 Rh8 2.829377 1_556
Rh0 Rh4 2.829377 1_566
Rh0 Rh8 2.829377 1_656
Rh1 Rh4 2.829377 1_565
Rh1 Rh4 2.829377 1_555
Rh1 Rh8 2.829377 1_655
Rh1 Rh8 2.829377 1_555
Rh2 Rh9 2.950634 1_555
Rh2 Rh9 2.950634 1_655
Rh2 Rh5 2.950634 1_555
Rh2 Rh5 2.950634 1_565
Rh3 Rh7 2.950634 1_555
Rh3 Rh7 2.950634 1_565
Rh4 Rh8 3.000977 1_555
Rh4 Rh8 3.000977 1_645
Rh4 Rh8 3.000977 1_655
Rh4 Rh8 3.000977 1_545
Rh11 Rh3 2.950634 1_455
Rh11 Rh3 2.950634 1_555
