# generated using pymatgen
data_Li5V3P8O29
_symmetry_space_group_name_H-M   'P 1'
_cell_length_a   9.76091600
_cell_length_b   9.81168100
_cell_length_c   14.11553086
_cell_angle_alpha   89.40319437
_cell_angle_beta   89.17738304
_cell_angle_gamma   60.21128438
_symmetry_Int_Tables_number   1
_chemical_formula_structural   Li5V3P8O29
_chemical_formula_sum   'Li10 V6 P16 O58'
_cell_volume   1173.09901481
_cell_formula_units_Z   2
loop_
 _symmetry_equiv_pos_site_id
 _symmetry_equiv_pos_as_xyz
  1  'x, y, z'
loop_
 _atom_site_type_symbol
 _atom_site_label
 _atom_site_symmetry_multiplicity
 _atom_site_fract_x
 _atom_site_fract_y
 _atom_site_fract_z
 _atom_site_occupancy
  Li  Li0  1  0.32465300  0.90593500  0.43444100  1
  Li  Li1  1  0.67425900  0.67686700  0.10988300  1
  Li  Li2  1  0.32089000  0.76713300  0.93789700  1
  Li  Li3  1  0.91359800  0.31003400  0.94139400  1
  Li  Li4  1  0.22816700  0.68120400  0.55653100  1
  Li  Li5  1  0.76631600  0.32378200  0.43826600  1
  Li  Li6  1  0.66833100  0.23038100  0.05931100  1
  Li  Li7  1  0.69068700  0.08526200  0.56564500  1
  Li  Li8  1  0.09099600  0.22553500  0.55329200  1
  Li  Li9  1  0.01060900  0.94294400  0.01290900  1
  V  V0  1  0.43292100  0.56976500  0.74854800  1
  V  V1  1  0.56738400  0.42974200  0.24945200  1
  V  V2  1  0.00449100  0.57196900  0.24869500  1
  V  V3  1  0.00077400  0.43898900  0.75624800  1
  V  V4  1  0.56971500  0.99567000  0.75537500  1
  V  V5  1  0.42978200  0.00613000  0.24857500  1
  P  P0  1  0.78269100  0.91473400  0.16413000  1
  P  P1  1  0.91583400  0.77073000  0.65978700  1
  P  P2  1  0.32095000  0.91584600  0.65435800  1
  P  P3  1  0.66647200  0.66428200  0.87220100  1
  P  P4  1  0.66824900  0.66284700  0.36905300  1
  P  P5  1  0.32041900  0.77475300  0.15635400  1
  P  P6  1  0.22928700  0.68282100  0.33788100  1
  P  P7  1  0.91139900  0.31839000  0.15498600  1
  P  P8  1  0.08144600  0.69527600  0.84496400  1
  P  P9  1  0.77234600  0.32374500  0.66003400  1
  P  P10  1  0.68026500  0.23094500  0.84051100  1
  P  P11  1  0.33410900  0.33364000  0.63347000  1
  P  P12  1  0.33208300  0.33327400  0.12782400  1
  P  P13  1  0.68054200  0.08572600  0.34747000  1
  P  P14  1  0.08258400  0.23301900  0.33826500  1
  P  P15  1  0.21975800  0.08226400  0.83838100  1
  O  O0  1  0.74463700  0.01360800  0.44085000  1
  O  O1  1  0.74876100  0.91505500  0.66120500  1
  O  O2  1  0.00416800  0.78626500  0.93132200  1
  O  O3  1  0.92377800  0.74311300  0.16367000  1
  O  O4  1  0.62965500  0.90490700  0.16618100  1
  O  O5  1  0.67963100  0.80268800  0.82950200  1
  O  O6  1  0.48029000  0.90399000  0.67755500  1
  O  O7  1  0.19601000  0.99127100  0.91605000  1
  O  O8  1  0.34854300  0.91603200  0.16590900  1
  O  O9  1  0.81446800  0.66220100  0.31703800  1
  O  O10  1  0.90651000  0.61812000  0.68243400  1
  O  O11  1  0.51590800  0.81285600  0.33341000  1
  O  O12  1  0.67426900  0.65138400  0.97844300  1
  O  O13  1  0.68114500  0.65216400  0.47414100  1
  O  O14  1  0.51087300  0.67448300  0.83613200  1
  O  O15  1  0.89950500  0.48069800  0.16686900  1
  O  O16  1  0.81365400  0.50638800  0.83110400  1
  O  O17  1  0.33631700  0.75079100  0.65778600  1
  O  O18  1  0.21020200  0.79142900  0.24741200  1
  O  O19  1  0.24019100  0.75881200  0.42694200  1
  O  O20  1  0.23343500  0.78555200  0.06775100  1
  O  O21  1  0.48215200  0.62464600  0.16789100  1
  O  O22  1  0.67158500  0.51001600  0.32982500  1
  O  O23  1  0.25563800  0.65875800  0.83556000  1
  O  O24  1  0.62267800  0.48462300  0.67803200  1
  O  O25  1  0.92235200  0.34021500  0.66099000  1
  O  O26  1  0.99887600  0.79459200  0.75142400  1
  O  O27  1  0.01029900  0.75607900  0.57356400  1
  O  O28  1  0.99399500  0.24224300  0.42834000  1
  O  O29  1  0.08174800  0.66283900  0.33523300  1
  O  O30  1  0.37876200  0.52217600  0.32022600  1
  O  O31  1  0.74011000  0.34256200  0.16005000  1
  O  O32  1  0.33079600  0.48825300  0.66615600  1
  O  O33  1  0.52406400  0.38292500  0.82673800  1
  O  O34  1  0.76565400  0.22672000  0.92959700  1
  O  O35  1  0.76130900  0.24687900  0.57113300  1
  O  O36  1  0.79276800  0.21274400  0.74996800  1
  O  O37  1  0.66409700  0.25174400  0.33792700  1
  O  O38  1  0.18487800  0.48391700  0.17649600  1
  O  O39  1  0.07831800  0.53764300  0.83300700  1
  O  O40  1  0.48614300  0.32740200  0.16505900  1
  O  O41  1  0.32396800  0.34283200  0.02296200  1
  O  O42  1  0.31015900  0.33393400  0.52928100  1
  O  O43  1  0.48526900  0.18652400  0.67021900  1
  O  O44  1  0.09087700  0.38368300  0.31989500  1
  O  O45  1  0.18574400  0.33596900  0.68652000  1
  O  O46  1  0.65639300  0.08705200  0.83366200  1
  O  O47  1  0.80013300  0.98488400  0.26318800  1
  O  O48  1  0.80131600  0.00795300  0.08524800  1
  O  O49  1  0.52224400  0.09485300  0.32230100  1
  O  O50  1  0.32264800  0.19418500  0.17452500  1
  O  O51  1  0.37704700  0.08017500  0.83352300  1
  O  O52  1  0.07815700  0.25615000  0.83869200  1
  O  O53  1  0.99000500  0.23128900  0.06662200  1
  O  O54  1  0.99448900  0.21352900  0.24805400  1
  O  O55  1  0.24772800  0.08446300  0.33888200  1
  O  O56  1  0.25178500  0.99897800  0.56219100  1
  O  O57  1  0.19855900  0.01599400  0.73734600  1
loop_
_geom_bond_atom_site_label_1
_geom_bond_atom_site_label_2
_geom_bond_distance
_geom_bond_site_symmetry_2
Li0 O56 1.985784 1_555
Li0 O19 1.990679 1_555
Li0 O55 2.030902 1_565
Li0 O11 2.146986 1_555
Li1 O12 1.874688 1_554
Li1 O4 2.210536 1_555
Li1 O15 2.235931 1_555
Li1 O21 2.313210 1_555
Li2 O7 1.936599 1_555
Li2 O20 1.982369 1_556
Li2 O23 2.086722 1_555
Li2 O14 2.145783 1_555
Li3 O53 1.927343 1_556
Li3 O34 1.990964 1_555
Li3 O52 2.016551 1_655
Li3 O16 2.280496 1_555
Li4 O27 1.885894 1_555
Li4 O19 1.998314 1_555
Li4 O17 2.098370 1_555
Li4 O32 2.254157 1_555
Li5 O28 1.955851 1_555
Li5 O35 2.023293 1_555
Li5 O37 2.064765 1_555
Li5 O22 2.200121 1_555
Li6 O48 1.940122 1_555
Li6 O34 2.042972 1_554
Li6 O31 2.133513 1_555
Li6 O40 2.137309 1_555
Li7 O0 1.872415 1_555
Li7 O1 1.991025 1_545
Li7 O35 2.021372 1_555
Li7 O43 2.269919 1_555
Li8 O28 1.980381 1_455
Li8 O56 1.988384 1_545
Li8 O25 2.100059 1_455
Li8 O45 2.579542 1_555
Li9 O2 1.956648 1_554
Li9 O48 2.069265 1_465
Li9 O20 2.097799 1_555
Li9 O7 2.477323 1_554
O0 P13 1.481182 1_555
O1 P1 1.539555 1_555
O1 V4 2.007125 1_555
O2 P8 1.476173 1_555
O3 P0 1.558168 1_555
O3 V2 1.884551 1_655
O4 P0 1.543793 1_555
O4 V5 2.044236 1_565
O5 P3 1.542063 1_555
O5 V4 1.950292 1_555
O6 P2 1.540708 1_555
O6 V4 1.898941 1_555
O7 P15 1.493558 1_565
O8 P5 1.548584 1_555
O8 V5 1.875217 1_565
O9 P4 1.592836 1_555
O9 V2 1.868029 1_655
O10 P1 1.573900 1_555
O10 V3 1.844949 1_655
O11 P4 1.569082 1_555
O11 V5 2.033328 1_565
O12 P3 1.503512 1_555
O13 P4 1.488704 1_555
O14 P3 1.563986 1_555
O14 V0 1.998322 1_555
O15 P7 1.548876 1_555
O15 V2 2.038018 1_655
O16 P3 1.607437 1_555
O16 V3 1.910178 1_655
O17 P2 1.550719 1_555
O17 V0 2.002109 1_555
O18 P6 1.606947 1_555
O18 P5 1.620498 1_555
O19 P6 1.499958 1_555
O20 P5 1.494872 1_555
O21 P5 1.542736 1_555
O21 V1 2.018775 1_555
O22 P4 1.588874 1_555
O22 V1 1.946705 1_555
O23 P8 1.557602 1_555
O23 V0 1.930128 1_555
O24 P9 1.548164 1_555
O24 V0 1.883152 1_555
O25 P9 1.551089 1_555
O25 V3 2.031496 1_655
O26 P8 1.601845 1_655
O26 P1 1.615538 1_555
O27 P1 1.480500 1_455
O28 P14 1.505186 1_655
O29 P6 1.547904 1_555
O29 V2 1.890215 1_555
O30 P6 1.545308 1_555
O30 V1 1.875434 1_555
O31 P7 1.568330 1_555
O31 V1 1.922280 1_555
O32 P11 1.575010 1_555
O32 V0 1.957217 1_555
O33 P10 1.526262 1_555
O33 V0 1.932833 1_555
O34 P10 1.507440 1_555
O35 P9 1.503151 1_555
O36 P9 1.612509 1_555
O36 P10 1.625064 1_555
O37 P13 1.559977 1_555
O37 V1 1.962457 1_555
O38 P12 1.613648 1_555
O38 V2 1.827729 1_555
O39 P8 1.572907 1_555
O39 V3 1.859347 1_555
O40 P12 1.573804 1_555
O40 V1 1.974688 1_555
O41 P12 1.482938 1_555
O42 P11 1.492207 1_555
O43 P11 1.555591 1_555
O43 V4 2.019605 1_545
O44 P14 1.539277 1_555
O44 V2 1.889932 1_555
O45 P11 1.610846 1_555
O45 V3 1.845697 1_555
O46 P10 1.545080 1_555
O46 V4 1.882048 1_545
O47 P13 1.610591 1_565
O47 P0 1.612812 1_555
O48 P0 1.499197 1_545
O49 P13 1.548965 1_555
O49 V5 1.865967 1_555
O50 P12 1.552362 1_555
O50 V5 1.914332 1_555
O51 P15 1.525766 1_555
O51 V4 1.962443 1_545
O52 P15 1.574212 1_555
O52 V3 1.943832 1_555
O53 P7 1.489305 1_555
O54 P14 1.611633 1_655
O54 P7 1.617245 1_555
O55 P14 1.545520 1_555
O55 V5 1.992926 1_555
O56 P2 1.506526 1_555
O57 P2 1.606975 1_545
O57 P15 1.631263 1_555
