# generated using pymatgen
data_MgSb
_symmetry_space_group_name_H-M   'P 1'
_cell_length_a   16.90936416
_cell_length_b   16.90936416
_cell_length_c   10.57458200
_cell_angle_alpha   90.00000000
_cell_angle_beta   90.00000000
_cell_angle_gamma   155.83206513
_symmetry_Int_Tables_number   1
_chemical_formula_structural   MgSb
_chemical_formula_sum   'Mg24 Sb24'
_cell_volume   1237.88092594
_cell_formula_units_Z   24
loop_
 _symmetry_equiv_pos_site_id
 _symmetry_equiv_pos_as_xyz
  1  'x, y, z'
loop_
 _atom_site_type_symbol
 _atom_site_label
 _atom_site_symmetry_multiplicity
 _atom_site_fract_x
 _atom_site_fract_y
 _atom_site_fract_z
 _atom_site_occupancy
  Mg  Mg0_0  1  0.16920000  0.33080000  0.00000000  1
  Mg  Mg0_1  1  0.16920000  0.33080000  0.50000000  1
  Mg  Mg0_2  1  0.16920000  0.83080000  0.00000000  1
  Mg  Mg0_3  1  0.16920000  0.83080000  0.50000000  1
  Mg  Mg0_4  1  0.66920000  0.33080000  0.00000000  1
  Mg  Mg0_5  1  0.66920000  0.33080000  0.50000000  1
  Mg  Mg0_6  1  0.66920000  0.83080000  0.00000000  1
  Mg  Mg0_7  1  0.66920000  0.83080000  0.50000000  1
  Mg  Mg1_0  1  0.05102900  0.44897100  0.25000000  1
  Mg  Mg1_1  1  0.05102900  0.44897100  0.75000000  1
  Mg  Mg1_2  1  0.05102900  0.94897100  0.25000000  1
  Mg  Mg1_3  1  0.05102900  0.94897100  0.75000000  1
  Mg  Mg1_4  1  0.55102900  0.44897100  0.25000000  1
  Mg  Mg1_5  1  0.55102900  0.44897100  0.75000000  1
  Mg  Mg1_6  1  0.55102900  0.94897100  0.25000000  1
  Mg  Mg1_7  1  0.55102900  0.94897100  0.75000000  1
  Mg  Mg2_0  1  0.38873750  0.11126250  0.25000000  1
  Mg  Mg2_1  1  0.38873750  0.11126250  0.75000000  1
  Mg  Mg2_2  1  0.38873750  0.61126250  0.25000000  1
  Mg  Mg2_3  1  0.38873750  0.61126250  0.75000000  1
  Mg  Mg2_4  1  0.88873750  0.11126250  0.25000000  1
  Mg  Mg2_5  1  0.88873750  0.11126250  0.75000000  1
  Mg  Mg2_6  1  0.88873750  0.61126250  0.25000000  1
  Mg  Mg2_7  1  0.88873750  0.61126250  0.75000000  1
  Sb  Sb0_0  1  0.49084900  0.00915100  0.00000000  1
  Sb  Sb0_1  1  0.49084900  0.00915100  0.50000000  1
  Sb  Sb0_2  1  0.49084900  0.50915100  0.00000000  1
  Sb  Sb0_3  1  0.49084900  0.50915100  0.50000000  1
  Sb  Sb0_4  1  0.99084900  0.00915100  0.00000000  1
  Sb  Sb0_5  1  0.99084900  0.00915100  0.50000000  1
  Sb  Sb0_6  1  0.99084900  0.50915100  0.00000000  1
  Sb  Sb0_7  1  0.99084900  0.50915100  0.50000000  1
  Sb  Sb1_0  1  0.34597550  0.15402450  0.00000000  1
  Sb  Sb1_1  1  0.34597550  0.15402450  0.50000000  1
  Sb  Sb1_2  1  0.34597550  0.65402450  0.00000000  1
  Sb  Sb1_3  1  0.34597550  0.65402450  0.50000000  1
  Sb  Sb1_4  1  0.84597550  0.15402450  0.00000000  1
  Sb  Sb1_5  1  0.84597550  0.15402450  0.50000000  1
  Sb  Sb1_6  1  0.84597550  0.65402450  0.00000000  1
  Sb  Sb1_7  1  0.84597550  0.65402450  0.50000000  1
  Sb  Sb2_0  1  0.22087600  0.27912400  0.25000000  1
  Sb  Sb2_1  1  0.22087600  0.27912400  0.75000000  1
  Sb  Sb2_2  1  0.22087600  0.77912400  0.25000000  1
  Sb  Sb2_3  1  0.22087600  0.77912400  0.75000000  1
  Sb  Sb2_4  1  0.72087600  0.27912400  0.25000000  1
  Sb  Sb2_5  1  0.72087600  0.27912400  0.75000000  1
  Sb  Sb2_6  1  0.72087600  0.77912400  0.25000000  1
  Sb  Sb2_7  1  0.72087600  0.77912400  0.75000000  1
loop_
_geom_bond_atom_site_label_1
_geom_bond_atom_site_label_2
_geom_bond_distance
_geom_bond_site_symmetry_2
Mg0_0 Sb0_2 2.957482 1_555
Mg0_0 Sb0_4 2.957482 1_455
Mg0_0 Sb1_2 2.999385 1_555
Mg0_0 Sb1_4 2.999385 1_455
Mg0_0 Sb2_1 3.147884 1_554
Mg0_0 Sb2_0 3.147884 1_555
Mg0_0 Mg2_2 3.337120 1_555
Mg0_0 Mg2_3 3.337120 1_554
Mg0_0 Mg2_4 3.337120 1_455
Mg0_0 Mg2_5 3.337120 1_454
Mg0_0 Mg0_6 3.539890 1_555
Mg0_0 Mg0_6 3.539890 1_445
Mg0_1 Sb0_3 2.957482 1_555
Mg0_1 Sb0_5 2.957482 1_455
Mg0_1 Sb1_3 2.999385 1_555
Mg0_1 Sb1_5 2.999385 1_455
Mg0_1 Sb2_0 3.147884 1_555
Mg0_1 Sb2_1 3.147884 1_555
Mg0_1 Mg2_2 3.337120 1_555
Mg0_1 Mg2_3 3.337120 1_555
Mg0_1 Mg2_4 3.337120 1_455
Mg0_1 Mg2_5 3.337120 1_455
Mg0_1 Mg0_7 3.539890 1_555
Mg0_1 Mg0_7 3.539890 1_445
Mg0_2 Sb0_6 2.957482 1_455
Mg0_2 Sb0_0 2.957482 1_565
Mg0_2 Sb1_0 2.999385 1_565
Mg0_2 Sb1_6 2.999385 1_455
Mg0_2 Sb2_2 3.147884 1_555
Mg0_2 Sb2_3 3.147884 1_554
Mg0_2 Mg2_1 3.337120 1_564
Mg0_2 Mg2_0 3.337120 1_565
Mg0_2 Mg2_7 3.337120 1_454
Mg0_2 Mg2_6 3.337120 1_455
Mg0_2 Mg0_4 3.539890 1_455
Mg0_2 Mg0_4 3.539890 1_565
Mg0_3 Sb0_7 2.957482 1_455
Mg0_3 Sb0_1 2.957482 1_565
Mg0_3 Sb1_1 2.999385 1_565
Mg0_3 Sb1_7 2.999385 1_455
Mg0_3 Sb2_2 3.147884 1_555
Mg0_3 Sb2_3 3.147884 1_555
Mg0_3 Mg2_1 3.337120 1_565
Mg0_3 Mg2_0 3.337120 1_565
Mg0_3 Mg2_7 3.337120 1_455
Mg0_3 Mg2_6 3.337120 1_455
Mg0_3 Mg0_5 3.539890 1_565
Mg0_3 Mg0_5 3.539890 1_455
Mg0_4 Sb0_6 2.957482 1_555
Mg0_4 Sb0_0 2.957482 1_555
Mg0_4 Sb1_6 2.999385 1_555
Mg0_4 Sb1_0 2.999385 1_555
Mg0_4 Sb2_4 3.147884 1_555
Mg0_4 Sb2_5 3.147884 1_554
Mg0_4 Mg2_7 3.337120 1_554
Mg0_4 Mg2_6 3.337120 1_555
Mg0_4 Mg2_0 3.337120 1_555
Mg0_4 Mg2_1 3.337120 1_554
Mg0_5 Sb0_7 2.957482 1_555
Mg0_5 Sb0_1 2.957482 1_555
Mg0_5 Sb1_7 2.999385 1_555
Mg0_5 Sb1_1 2.999385 1_555
Mg0_5 Sb2_4 3.147884 1_555
Mg0_5 Sb2_5 3.147884 1_555
Mg0_5 Mg2_7 3.337120 1_555
Mg0_5 Mg2_6 3.337120 1_555
Mg0_5 Mg2_0 3.337120 1_555
Mg0_5 Mg2_1 3.337120 1_555
Mg0_6 Sb0_4 2.957482 1_565
Mg0_6 Sb0_2 2.957482 1_555
Mg0_6 Sb1_4 2.999385 1_565
Mg0_6 Sb1_2 2.999385 1_555
Mg0_6 Sb2_7 3.147884 1_554
Mg0_6 Sb2_6 3.147884 1_555
Mg0_6 Mg2_5 3.337120 1_564
Mg0_6 Mg2_4 3.337120 1_565
Mg0_6 Mg2_2 3.337120 1_555
Mg0_6 Mg2_3 3.337120 1_554
Mg0_7 Sb0_5 2.957482 1_565
Mg0_7 Sb0_3 2.957482 1_555
Mg0_7 Sb1_5 2.999385 1_565
Mg0_7 Sb1_3 2.999385 1_555
Mg0_7 Sb2_7 3.147884 1_555
Mg0_7 Sb2_6 3.147884 1_555
Mg0_7 Mg2_4 3.337120 1_565
Mg0_7 Mg2_5 3.337120 1_565
Mg0_7 Mg2_2 3.337120 1_555
Mg0_7 Mg2_3 3.337120 1_555
Mg1_0 Sb2_4 3.187230 1_455
Mg1_0 Sb2_2 3.187230 1_555
Mg1_0 Sb0_6 3.308990 1_455
Mg1_0 Sb0_7 3.308990 1_455
Mg1_0 Mg2_4 3.397852 1_455
Mg1_0 Mg2_2 3.397852 1_555
Mg1_0 Sb1_5 3.511525 1_455
Mg1_0 Sb1_4 3.511525 1_455
Mg1_0 Sb1_2 3.511525 1_555
Mg1_0 Sb1_3 3.511525 1_555
Mg1_0 Mg1_6 3.539890 1_555
Mg1_0 Mg1_6 3.539890 1_445
Mg1_1 Sb2_5 3.187230 1_455
Mg1_1 Sb2_3 3.187230 1_555
Mg1_1 Sb0_6 3.308990 1_456
Mg1_1 Sb0_7 3.308990 1_455
Mg1_1 Mg2_5 3.397852 1_455
Mg1_1 Mg2_3 3.397852 1_555
Mg1_1 Sb1_5 3.511525 1_455
Mg1_1 Sb1_4 3.511525 1_456
Mg1_1 Sb1_2 3.511525 1_556
Mg1_1 Sb1_3 3.511525 1_555
Mg1_1 Mg1_7 3.539890 1_445
Mg1_1 Mg1_7 3.539890 1_555
Mg1_2 Sb2_6 3.187230 1_455
Mg1_2 Sb2_0 3.187230 1_565
Mg1_2 Sb0_4 3.308990 1_465
Mg1_2 Sb0_5 3.308990 1_465
Mg1_2 Mg2_6 3.397852 1_455
Mg1_2 Mg2_0 3.397852 1_565
Mg1_2 Sb1_6 3.511525 1_455
Mg1_2 Sb1_1 3.511525 1_565
Mg1_2 Sb1_7 3.511525 1_455
Mg1_2 Sb1_0 3.511525 1_565
Mg1_2 Mg1_4 3.539890 1_565
Mg1_2 Mg1_4 3.539890 1_455
Mg1_3 Sb2_7 3.187230 1_455
Mg1_3 Sb2_1 3.187230 1_565
Mg1_3 Sb0_5 3.308990 1_465
Mg1_3 Sb0_4 3.308990 1_466
Mg1_3 Mg2_1 3.397852 1_565
Mg1_3 Mg2_7 3.397852 1_455
Mg1_3 Sb1_1 3.511525 1_565
Mg1_3 Sb1_7 3.511525 1_455
Mg1_3 Sb1_0 3.511525 1_566
Mg1_3 Sb1_6 3.511525 1_456
Mg1_3 Mg1_5 3.539890 1_565
Mg1_3 Mg1_5 3.539890 1_455
Mg1_4 Sb2_0 3.187230 1_555
Mg1_4 Sb2_6 3.187230 1_555
Mg1_4 Sb0_3 3.308990 1_555
Mg1_4 Sb0_2 3.308990 1_555
Mg1_4 Mg2_6 3.397852 1_555
Mg1_4 Mg2_0 3.397852 1_555
Mg1_4 Sb1_0 3.511525 1_555
Mg1_4 Sb1_7 3.511525 1_555
Mg1_4 Sb1_1 3.511525 1_555
Mg1_4 Sb1_6 3.511525 1_555
Mg1_5 Sb2_1 3.187230 1_555
Mg1_5 Sb2_7 3.187230 1_555
Mg1_5 Sb0_3 3.308990 1_555
Mg1_5 Sb0_2 3.308990 1_556
Mg1_5 Mg2_7 3.397852 1_555
Mg1_5 Mg2_1 3.397852 1_555
Mg1_5 Sb1_0 3.511525 1_556
Mg1_5 Sb1_6 3.511525 1_556
Mg1_5 Sb1_7 3.511525 1_555
Mg1_5 Sb1_1 3.511525 1_555
Mg1_6 Sb2_2 3.187230 1_555
Mg1_6 Sb2_4 3.187230 1_565
Mg1_6 Sb0_0 3.308990 1_565
Mg1_6 Sb0_1 3.308990 1_565
Mg1_6 Mg2_4 3.397852 1_565
Mg1_6 Mg2_2 3.397852 1_555
Mg1_6 Sb1_5 3.511525 1_565
Mg1_6 Sb1_4 3.511525 1_565
Mg1_6 Sb1_2 3.511525 1_555
Mg1_6 Sb1_3 3.511525 1_555
Mg1_7 Sb2_3 3.187230 1_555
Mg1_7 Sb2_5 3.187230 1_565
Mg1_7 Sb0_0 3.308990 1_566
Mg1_7 Sb0_1 3.308990 1_565
Mg1_7 Mg2_5 3.397852 1_565
Mg1_7 Mg2_3 3.397852 1_555
Mg1_7 Sb1_4 3.511525 1_566
Mg1_7 Sb1_5 3.511525 1_565
Mg1_7 Sb1_2 3.511525 1_556
Mg1_7 Sb1_3 3.511525 1_555
Mg2_0 Sb1_0 2.998095 1_555
Mg2_0 Sb1_1 2.998095 1_555
Mg2_0 Sb2_2 3.242039 1_545
Mg2_0 Sb2_4 3.242039 1_555
Mg2_0 Mg2_6 3.539890 1_445
Mg2_0 Mg2_6 3.539890 1_555
Mg2_1 Sb1_0 2.998095 1_556
Mg2_1 Sb1_1 2.998095 1_555
Mg2_1 Sb2_5 3.242039 1_555
Mg2_1 Sb2_3 3.242039 1_545
Mg2_1 Mg2_7 3.539890 1_555
Mg2_1 Mg2_7 3.539890 1_445
Mg2_2 Sb1_2 2.998095 1_555
Mg2_2 Sb1_3 2.998095 1_555
Mg2_2 Sb2_0 3.242039 1_555
Mg2_2 Sb2_6 3.242039 1_555
Mg2_2 Mg2_4 3.539890 1_565
Mg2_2 Mg2_4 3.539890 1_455
Mg2_3 Sb1_2 2.998095 1_556
Mg2_3 Sb1_3 2.998095 1_555
Mg2_3 Sb2_1 3.242039 1_555
Mg2_3 Sb2_7 3.242039 1_555
Mg2_3 Mg2_5 3.539890 1_455
Mg2_3 Mg2_5 3.539890 1_565
Mg2_4 Sb1_4 2.998095 1_555
Mg2_4 Sb1_5 2.998095 1_555
Mg2_4 Sb2_6 3.242039 1_545
Mg2_4 Sb2_0 3.242039 1_655
Mg2_5 Sb1_4 2.998095 1_556
Mg2_5 Sb1_5 2.998095 1_555
Mg2_5 Sb2_7 3.242039 1_545
Mg2_5 Sb2_1 3.242039 1_655
Mg2_6 Sb1_6 2.998095 1_555
Mg2_6 Sb1_7 2.998095 1_555
Mg2_6 Sb2_4 3.242039 1_555
Mg2_6 Sb2_2 3.242039 1_655
Mg2_7 Sb1_6 2.998095 1_556
Mg2_7 Sb1_7 2.998095 1_555
Mg2_7 Sb2_5 3.242039 1_555
Mg2_7 Sb2_3 3.242039 1_655
Sb0_0 Sb2_3 3.249280 1_544
Sb0_0 Sb2_2 3.249280 1_545
Sb0_0 Sb2_5 3.249280 1_554
Sb0_0 Sb2_4 3.249280 1_555
Sb0_0 Sb0_6 3.539890 1_555
Sb0_0 Sb0_6 3.539890 1_445
Sb0_0 Sb1_4 3.901093 1_555
Sb0_0 Sb1_2 3.901093 1_545
Sb0_1 Sb2_2 3.249280 1_545
Sb0_1 Sb2_3 3.249280 1_545
Sb0_1 Sb2_4 3.249280 1_555
Sb0_1 Sb2_5 3.249280 1_555
Sb0_1 Sb0_7 3.539890 1_445
Sb0_1 Sb0_7 3.539890 1_555
Sb0_1 Sb1_5 3.901093 1_555
Sb0_1 Sb1_3 3.901093 1_545
Sb0_2 Sb2_0 3.249280 1_555
Sb0_2 Sb2_1 3.249280 1_554
Sb0_2 Sb2_6 3.249280 1_555
Sb0_2 Sb2_7 3.249280 1_554
Sb0_2 Sb0_4 3.539890 1_455
Sb0_2 Sb0_4 3.539890 1_565
Sb0_2 Sb1_6 3.901093 1_555
Sb0_2 Sb1_0 3.901093 1_555
Sb0_3 Sb2_0 3.249280 1_555
Sb0_3 Sb2_1 3.249280 1_555
Sb0_3 Sb2_6 3.249280 1_555
Sb0_3 Sb2_7 3.249280 1_555
Sb0_3 Sb0_5 3.539890 1_455
Sb0_3 Sb0_5 3.539890 1_565
Sb0_3 Sb1_7 3.901093 1_555
Sb0_3 Sb1_1 3.901093 1_555
Sb0_4 Sb2_1 3.249280 1_654
Sb0_4 Sb2_0 3.249280 1_655
Sb0_4 Sb2_6 3.249280 1_545
Sb0_4 Sb2_7 3.249280 1_544
Sb0_4 Sb1_0 3.901093 1_655
Sb0_4 Sb1_6 3.901093 1_545
Sb0_5 Sb2_1 3.249280 1_655
Sb0_5 Sb2_0 3.249280 1_655
Sb0_5 Sb2_7 3.249280 1_545
Sb0_5 Sb2_6 3.249280 1_545
Sb0_5 Sb1_1 3.901093 1_655
Sb0_5 Sb1_7 3.901093 1_545
Sb0_6 Sb2_2 3.249280 1_655
Sb0_6 Sb2_3 3.249280 1_654
Sb0_6 Sb2_5 3.249280 1_554
Sb0_6 Sb2_4 3.249280 1_555
Sb0_6 Sb1_2 3.901093 1_655
Sb0_6 Sb1_4 3.901093 1_555
Sb0_7 Sb2_2 3.249280 1_655
Sb0_7 Sb2_3 3.249280 1_655
Sb0_7 Sb2_4 3.249280 1_555
Sb0_7 Sb2_5 3.249280 1_555
Sb0_7 Sb1_3 3.901093 1_655
Sb0_7 Sb1_5 3.901093 1_555
Sb1_0 Sb1_6 3.539890 1_445
Sb1_0 Sb1_6 3.539890 1_555
Sb1_1 Sb1_7 3.539890 1_555
Sb1_1 Sb1_7 3.539890 1_445
Sb1_2 Sb1_4 3.539890 1_455
Sb1_2 Sb1_4 3.539890 1_565
Sb1_3 Sb1_5 3.539890 1_455
Sb1_3 Sb1_5 3.539890 1_565
Sb2_0 Sb2_6 3.539890 1_555
Sb2_0 Sb2_6 3.539890 1_445
Sb2_1 Sb2_7 3.539890 1_445
Sb2_1 Sb2_7 3.539890 1_555
Sb2_2 Sb2_4 3.539890 1_565
Sb2_2 Sb2_4 3.539890 1_455
Sb2_3 Sb2_5 3.539890 1_565
Sb2_3 Sb2_5 3.539890 1_455
