# generated using pymatgen
data_Li2FeSnO4
_symmetry_space_group_name_H-M   'P 1'
_cell_length_a   6.16376827
_cell_length_b   10.67942108
_cell_length_c   6.15736856
_cell_angle_alpha   75.32476128
_cell_angle_beta   61.36349465
_cell_angle_gamma   74.60312928
_symmetry_Int_Tables_number   1
_chemical_formula_structural   Li2FeSnO4
_chemical_formula_sum   'Li8 Fe4 Sn4 O16'
_cell_volume   339.13633586
_cell_formula_units_Z   4
loop_
 _symmetry_equiv_pos_site_id
 _symmetry_equiv_pos_as_xyz
  1  'x, y, z'
loop_
 _atom_site_type_symbol
 _atom_site_label
 _atom_site_symmetry_multiplicity
 _atom_site_fract_x
 _atom_site_fract_y
 _atom_site_fract_z
 _atom_site_occupancy
  Li  Li0  1  0.75000500  0.24998100  0.25003700  1
  Li  Li1  1  0.25000500  0.75001900  0.74996500  1
  Li  Li2  1  0.50001000  0.99999000  0.50000100  1
  Li  Li3  1  0.00000400  0.49999700  0.99999700  1
  Li  Li4  1  0.25002400  0.25000300  0.75001800  1
  Li  Li5  1  0.74999100  0.74999600  0.24997400  1
  Li  Li6  1  0.25000900  0.25000000  0.24997900  1
  Li  Li7  1  0.74999600  0.74999200  0.75002300  1
  Fe  Fe0  1  0.49999100  0.49999400  0.00004500  1
  Fe  Fe1  1  0.99996100  0.00003300  0.00000100  1
  Fe  Fe2  1  0.00003600  0.99999000  0.49998200  1
  Fe  Fe3  1  0.49998100  0.50000400  0.50003600  1
  Sn  Sn0  1  0.75002600  0.24995700  0.75002700  1
  Sn  Sn1  1  0.24996800  0.75003500  0.24992900  1
  Sn  Sn2  1  0.49999500  0.00000900  0.99998100  1
  Sn  Sn3  1  0.00003500  0.49998300  0.49999200  1
  O  O0  1  0.87373000  0.36879300  0.39042100  1
  O  O1  1  0.37367000  0.86880500  0.89039000  1
  O  O2  1  0.88337000  0.37880500  0.85727800  1
  O  O3  1  0.38336000  0.87877000  0.35723200  1
  O  O4  1  0.61665000  0.12122700  0.64276500  1
  O  O5  1  0.11663100  0.62118800  0.14273300  1
  O  O6  1  0.62630900  0.13119900  0.10959900  1
  O  O7  1  0.12629000  0.63120500  0.60957100  1
  O  O8  1  0.14523300  0.11306900  0.11566000  1
  O  O9  1  0.64517800  0.61304400  0.61567200  1
  O  O10  1  0.40314900  0.37110400  0.86785200  1
  O  O11  1  0.90320900  0.87110100  0.36775500  1
  O  O12  1  0.09677900  0.12890600  0.63222800  1
  O  O13  1  0.59682700  0.62889900  0.13216200  1
  O  O14  1  0.35479500  0.38697000  0.38436700  1
  O  O15  1  0.85478100  0.88692900  0.88432800  1
loop_
_geom_bond_atom_site_label_1
_geom_bond_atom_site_label_2
_geom_bond_distance
_geom_bond_site_symmetry_2
Li0 O6 2.153953 1_555
Li0 O0 2.154090 1_555
Li0 O4 2.328972 1_555
Li0 O2 2.329425 1_554
Li0 O8 2.355120 1_655
Li0 O14 2.355396 1_555
Li1 O1 2.153794 1_555
Li1 O7 2.154108 1_555
Li1 O3 2.328981 1_555
Li1 O5 2.329497 1_556
Li1 O15 2.355092 1_455
Li1 O9 2.355168 1_555
Li2 O3 2.154609 1_555
Li2 O4 2.154688 1_565
Li2 O1 2.329393 1_555
Li2 O6 2.329561 1_565
Li2 O11 2.354946 1_555
Li2 O12 2.355205 1_565
Li3 O2 2.154082 1_455
Li3 O5 2.154119 1_556
Li3 O0 2.329635 1_456
Li3 O7 2.329662 1_555
Li3 O10 2.354726 1_555
Li3 O13 2.354907 1_456
Li4 O4 2.193994 1_555
Li4 O2 2.194236 1_455
Li4 O10 2.206764 1_555
Li4 O12 2.207093 1_555
Li4 O8 2.250344 1_556
Li4 O14 2.250551 1_555
Li5 O3 2.194006 1_555
Li5 O5 2.194206 1_655
Li5 O13 2.206816 1_555
Li5 O11 2.206999 1_555
Li5 O15 2.250356 1_554
Li5 O9 2.250673 1_555
Li6 O0 2.192588 1_455
Li6 O6 2.192701 1_555
Li6 O8 2.205851 1_555
Li6 O14 2.206529 1_555
Li6 O10 2.253309 1_554
Li6 O12 2.253828 1_555
Li7 O7 2.192631 1_655
Li7 O1 2.192864 1_555
Li7 O15 2.205882 1_555
Li7 O9 2.206305 1_555
Li7 O13 2.253324 1_556
Li7 O11 2.253969 1_555
Fe0 O13 2.093390 1_555
Fe0 O10 2.093605 1_554
Fe0 O14 2.225802 1_555
Fe0 O9 2.226136 1_554
Fe0 O5 2.234470 1_555
Fe0 O2 2.234549 1_554
Fe1 O8 2.094506 1_655
Fe1 O15 2.094708 1_544
Fe1 O12 2.222615 1_654
Fe1 O11 2.222824 1_545
Fe1 O6 2.235623 1_555
Fe1 O1 2.236157 1_644
Fe2 O12 2.093667 1_565
Fe2 O11 2.093681 1_455
Fe2 O8 2.226025 1_565
Fe2 O15 2.226074 1_455
Fe2 O3 2.234435 1_555
Fe2 O4 2.234787 1_465
Fe3 O9 2.094098 1_555
Fe3 O14 2.094138 1_555
Fe3 O10 2.222929 1_555
Fe3 O13 2.223163 1_555
Fe3 O7 2.235969 1_555
Fe3 O0 2.236256 1_555
O0 Sn0 2.136955 1_555
O0 Sn3 2.141428 1_655
O1 Sn1 2.136359 1_556
O1 Sn2 2.141718 1_565
O2 Sn3 2.137029 1_655
O2 Sn0 2.141560 1_555
O3 Sn2 2.137157 1_564
O3 Sn1 2.140985 1_555
O4 Sn2 2.136906 1_555
O4 Sn0 2.140706 1_555
O5 Sn3 2.137034 1_555
O5 Sn1 2.141299 1_555
O6 Sn0 2.136452 1_554
O6 Sn2 2.141656 1_554
O7 Sn1 2.137083 1_555
O7 Sn3 2.141532 1_555
O8 Sn2 2.070655 1_554
O9 Sn3 2.071091 1_655
O10 Sn0 2.071589 1_555
O11 Sn1 2.070701 1_655
O12 Sn0 2.070602 1_455
O13 Sn1 2.071455 1_555
O14 Sn3 2.070456 1_555
O15 Sn2 2.070850 1_565
