# generated using pymatgen
data_Be2Co
_symmetry_space_group_name_H-M   'P 1'
_cell_length_a   11.33498379
_cell_length_b   10.99592307
_cell_length_c   4.68017766
_cell_angle_alpha   81.99548365
_cell_angle_beta   73.87040120
_cell_angle_gamma   24.13411514
_symmetry_Int_Tables_number   1
_chemical_formula_structural   Be2Co
_chemical_formula_sum   'Be16 Co8'
_cell_volume   219.20834539
_cell_formula_units_Z   8
loop_
 _symmetry_equiv_pos_site_id
 _symmetry_equiv_pos_as_xyz
  1  'x, y, z'
loop_
 _atom_site_type_symbol
 _atom_site_label
 _atom_site_symmetry_multiplicity
 _atom_site_fract_x
 _atom_site_fract_y
 _atom_site_fract_z
 _atom_site_occupancy
  Be  Be0_0  1  0.16802900  0.16802900  0.33197100  1
  Be  Be0_1  1  0.16802900  0.16802900  0.83197100  1
  Be  Be0_2  1  0.16802900  0.66802900  0.33197100  1
  Be  Be0_3  1  0.16802900  0.66802900  0.83197100  1
  Be  Be0_4  1  0.66802900  0.16802900  0.33197100  1
  Be  Be0_5  1  0.66802900  0.16802900  0.83197100  1
  Be  Be0_6  1  0.66802900  0.66802900  0.33197100  1
  Be  Be0_7  1  0.66802900  0.66802900  0.83197100  1
  Be  Be1_0  1  0.33197100  0.33197100  0.16802900  1
  Be  Be1_1  1  0.33197100  0.33197100  0.66802900  1
  Be  Be1_2  1  0.33197100  0.83197100  0.16802900  1
  Be  Be1_3  1  0.33197100  0.83197100  0.66802900  1
  Be  Be1_4  1  0.83197100  0.33197100  0.16802900  1
  Be  Be1_5  1  0.83197100  0.33197100  0.66802900  1
  Be  Be1_6  1  0.83197100  0.83197100  0.16802900  1
  Be  Be1_7  1  0.83197100  0.83197100  0.66802900  1
  Co  Co0_0  1  0.00000000  0.00000000  0.00000000  1
  Co  Co0_1  1  0.00000000  0.00000000  0.50000000  1
  Co  Co0_2  1  0.00000000  0.50000000  0.00000000  1
  Co  Co0_3  1  0.00000000  0.50000000  0.50000000  1
  Co  Co0_4  1  0.50000000  0.00000000  0.00000000  1
  Co  Co0_5  1  0.50000000  0.00000000  0.50000000  1
  Co  Co0_6  1  0.50000000  0.50000000  0.00000000  1
  Co  Co0_7  1  0.50000000  0.50000000  0.50000000  1
loop_
_geom_bond_atom_site_label_1
_geom_bond_atom_site_label_2
_geom_bond_distance
_geom_bond_site_symmetry_2
Be0_0 Co0_4 2.201968 1_555
Be0_0 Co0_3 2.201968 1_555
Be0_0 Be1_5 2.271808 1_455
Be0_0 Be1_2 2.271808 1_545
Be0_0 Be0_6 2.340089 1_455
Be0_0 Be0_1 2.340089 1_554
Be0_0 Be0_1 2.340089 1_555
Be0_0 Be0_6 2.340089 1_545
Be0_0 Co0_2 2.596449 1_555
Be0_0 Co0_5 2.596449 1_555
Be0_0 Be1_4 2.655936 1_455
Be0_0 Be1_3 2.655936 1_545
Be0_1 Co0_5 2.201968 1_555
Be0_1 Co0_2 2.201968 1_556
Be0_1 Be1_4 2.271808 1_456
Be0_1 Be1_3 2.271808 1_545
Be0_1 Be0_7 2.340089 1_455
Be0_1 Be0_7 2.340089 1_545
Be0_1 Co0_3 2.596449 1_555
Be0_1 Co0_4 2.596449 1_556
Be0_1 Be1_5 2.655936 1_455
Be0_1 Be1_2 2.655936 1_546
Be0_2 Co0_6 2.201968 1_555
Be0_2 Co0_1 2.201968 1_565
Be0_2 Be1_7 2.271808 1_455
Be0_2 Be1_0 2.271808 1_555
Be0_2 Be0_3 2.340089 1_554
Be0_2 Be0_4 2.340089 1_465
Be0_2 Be0_3 2.340089 1_555
Be0_2 Be0_4 2.340089 1_555
Be0_2 Co0_0 2.596449 1_565
Be0_2 Co0_7 2.596449 1_555
Be0_2 Be1_6 2.655936 1_455
Be0_2 Be1_1 2.655936 1_555
Be0_3 Co0_7 2.201968 1_555
Be0_3 Co0_0 2.201968 1_566
Be0_3 Be1_6 2.271808 1_456
Be0_3 Be1_1 2.271808 1_555
Be0_3 Be0_5 2.340089 1_555
Be0_3 Be0_5 2.340089 1_465
Be0_3 Co0_1 2.596449 1_565
Be0_3 Co0_6 2.596449 1_556
Be0_3 Be1_7 2.655936 1_455
Be0_3 Be1_0 2.655936 1_556
Be0_4 Co0_0 2.201968 1_655
Be0_4 Co0_7 2.201968 1_555
Be0_4 Be1_6 2.271808 1_545
Be0_4 Be1_1 2.271808 1_555
Be0_4 Be0_5 2.340089 1_554
Be0_4 Be0_5 2.340089 1_555
Be0_4 Co0_6 2.596449 1_555
Be0_4 Co0_1 2.596449 1_655
Be0_4 Be1_7 2.655936 1_545
Be0_4 Be1_0 2.655936 1_555
Be0_5 Co0_1 2.201968 1_655
Be0_5 Co0_6 2.201968 1_556
Be0_5 Be1_7 2.271808 1_545
Be0_5 Be1_0 2.271808 1_556
Be0_5 Co0_7 2.596449 1_555
Be0_5 Co0_0 2.596449 1_656
Be0_5 Be1_6 2.655936 1_546
Be0_5 Be1_1 2.655936 1_555
Be0_6 Co0_2 2.201968 1_655
Be0_6 Co0_5 2.201968 1_565
Be0_6 Be1_4 2.271808 1_555
Be0_6 Be1_3 2.271808 1_555
Be0_6 Be0_7 2.340089 1_554
Be0_6 Be0_7 2.340089 1_555
Be0_6 Co0_4 2.596449 1_565
Be0_6 Co0_3 2.596449 1_655
Be0_6 Be1_5 2.655936 1_555
Be0_6 Be1_2 2.655936 1_555
Be0_7 Co0_3 2.201968 1_655
Be0_7 Co0_4 2.201968 1_566
Be0_7 Be1_5 2.271808 1_555
Be0_7 Be1_2 2.271808 1_556
Be0_7 Co0_5 2.596449 1_565
Be0_7 Co0_2 2.596449 1_656
Be0_7 Be1_4 2.655936 1_556
Be0_7 Be1_3 2.655936 1_555
Be1_0 Co0_4 2.201968 1_555
Be1_0 Co0_3 2.201968 1_555
Be1_0 Be1_1 2.340089 1_554
Be1_0 Be1_6 2.340089 1_455
Be1_0 Be1_1 2.340089 1_555
Be1_0 Be1_6 2.340089 1_545
Be1_0 Co0_2 2.596449 1_555
Be1_0 Co0_5 2.596449 1_555
Be1_1 Co0_5 2.201968 1_555
Be1_1 Co0_2 2.201968 1_556
Be1_1 Be1_7 2.340089 1_455
Be1_1 Be1_7 2.340089 1_545
Be1_1 Co0_3 2.596449 1_555
Be1_1 Co0_4 2.596449 1_556
Be1_2 Co0_6 2.201968 1_555
Be1_2 Co0_1 2.201968 1_565
Be1_2 Be1_3 2.340089 1_554
Be1_2 Be1_4 2.340089 1_465
Be1_2 Be1_3 2.340089 1_555
Be1_2 Be1_4 2.340089 1_555
Be1_2 Co0_0 2.596449 1_565
Be1_2 Co0_7 2.596449 1_555
Be1_3 Co0_7 2.201968 1_555
Be1_3 Co0_0 2.201968 1_566
Be1_3 Be1_5 2.340089 1_555
Be1_3 Be1_5 2.340089 1_465
Be1_3 Co0_1 2.596449 1_565
Be1_3 Co0_6 2.596449 1_556
Be1_4 Co0_0 2.201968 1_655
Be1_4 Co0_7 2.201968 1_555
Be1_4 Be1_5 2.340089 1_554
Be1_4 Be1_5 2.340089 1_555
Be1_4 Co0_6 2.596449 1_555
Be1_4 Co0_1 2.596449 1_655
Be1_5 Co0_1 2.201968 1_655
Be1_5 Co0_6 2.201968 1_556
Be1_5 Co0_7 2.596449 1_555
Be1_5 Co0_0 2.596449 1_656
Be1_6 Co0_2 2.201968 1_655
Be1_6 Co0_5 2.201968 1_565
Be1_6 Be1_7 2.340089 1_554
Be1_6 Be1_7 2.340089 1_555
Be1_6 Co0_4 2.596449 1_565
Be1_6 Co0_3 2.596449 1_655
Be1_7 Co0_3 2.201968 1_655
Be1_7 Co0_4 2.201968 1_566
Be1_7 Co0_5 2.596449 1_565
Be1_7 Co0_2 2.596449 1_656
Co0_0 Co0_6 2.340089 1_455
Co0_0 Co0_6 2.340089 1_545
Co0_0 Co0_1 2.340089 1_555
Co0_0 Co0_1 2.340089 1_554
Co0_1 Co0_7 2.340089 1_455
Co0_1 Co0_7 2.340089 1_545
Co0_2 Co0_3 2.340089 1_554
Co0_2 Co0_3 2.340089 1_555
Co0_2 Co0_4 2.340089 1_555
Co0_2 Co0_4 2.340089 1_465
Co0_3 Co0_5 2.340089 1_465
Co0_3 Co0_5 2.340089 1_555
Co0_4 Co0_5 2.340089 1_554
Co0_4 Co0_5 2.340089 1_555
Co0_6 Co0_7 2.340089 1_554
Co0_6 Co0_7 2.340089 1_555
