# generated using pymatgen
data_Mg16Al12I
_symmetry_space_group_name_H-M   'P 1'
_cell_length_a   9.01832600
_cell_length_b   9.08109130
_cell_length_c   9.13385578
_cell_angle_alpha   108.56093383
_cell_angle_beta   107.78307662
_cell_angle_gamma   107.79002745
_symmetry_Int_Tables_number   1
_chemical_formula_structural   Mg16Al12I
_chemical_formula_sum   'Mg16 Al12 I1'
_cell_volume   604.30573091
_cell_formula_units_Z   1
loop_
 _symmetry_equiv_pos_site_id
 _symmetry_equiv_pos_as_xyz
  1  'x, y, z'
loop_
 _atom_site_type_symbol
 _atom_site_label
 _atom_site_symmetry_multiplicity
 _atom_site_fract_x
 _atom_site_fract_y
 _atom_site_fract_z
 _atom_site_occupancy
  Mg  Mg0  1  0.32428600  0.31879100  0.32394800  1
  Mg  Mg1  1  0.00128400  0.99950500  0.00142900  1
  Mg  Mg2  1  0.00170400  0.65594200  0.00180000  1
  Mg  Mg3  1  0.31275600  0.70808200  0.31263000  1
  Mg  Mg4  1  0.67142600  0.98644100  0.38615100  1
  Mg  Mg5  1  0.59890100  0.59934400  0.29313000  1
  Mg  Mg6  1  0.00794100  0.40738100  0.69106000  1
  Mg  Mg7  1  0.00620700  0.01243200  0.65245000  1
  Mg  Mg8  1  0.71917400  0.32298300  0.32018700  1
  Mg  Mg9  1  0.40418500  0.68066300  0.99784100  1
  Mg  Mg10  1  0.99729900  0.68136100  0.40428400  1
  Mg  Mg11  1  0.32043200  0.32329200  0.71897700  1
  Mg  Mg12  1  0.65324000  0.01327200  0.00651300  1
  Mg  Mg13  1  0.69140100  0.40837000  0.00860400  1
  Mg  Mg14  1  0.29384400  0.59913300  0.59890500  1
  Mg  Mg15  1  0.38520100  0.98620200  0.67056000  1
  Al  Al0  1  0.84200700  0.18747000  0.84287700  1
  Al  Al1  1  0.63711700  0.84109800  0.63674500  1
  Al  Al2  1  0.34664300  0.97690300  0.15817400  1
  Al  Al3  1  0.19455700  0.37029200  0.00684000  1
  Al  Al4  1  0.83395100  0.66114100  0.64243600  1
  Al  Al5  1  0.17988100  0.81289100  0.81021900  1
  Al  Al6  1  0.37669700  0.18410400  0.99725900  1
  Al  Al7  1  0.99612100  0.18316500  0.37660300  1
  Al  Al8  1  0.81003500  0.81202700  0.17980900  1
  Al  Al9  1  0.64173900  0.65924400  0.83325100  1
  Al  Al10  1  0.00648500  0.36904900  0.19337700  1
  Al  Al11  1  0.15870500  0.97741100  0.34786900  1
  I  I0  1  0.58678500  0.26201600  0.58607600  1
loop_
_geom_bond_atom_site_label_1
_geom_bond_atom_site_label_2
_geom_bond_distance
_geom_bond_site_symmetry_2
Mg0 Mg14 3.105100 1_555
Mg0 Mg1 3.119279 1_545
Mg0 Mg5 3.119353 1_555
Mg0 Mg8 3.560576 1_555
Mg0 Mg3 3.601356 1_555
Mg0 Mg11 3.606261 1_555
Mg1 Mg2 3.122165 1_555
Mg1 Mg12 3.192931 1_465
Mg1 Mg7 3.239990 1_564
Mg2 Mg6 3.041441 1_554
Mg2 Mg3 3.101840 1_555
Mg2 Mg9 3.579649 1_554
Mg3 Mg5 3.064622 1_555
Mg3 Mg4 3.146369 1_555
Mg3 Mg9 3.182239 1_554
Mg4 Mg7 3.130608 1_665
Mg4 Mg5 3.140217 1_555
Mg4 Mg8 3.227255 1_565
Mg4 Mg9 3.243143 1_554
Mg4 Mg6 3.542533 1_665
Mg5 Mg8 3.070904 1_555
Mg5 Mg9 3.173451 1_554
Mg6 Mg8 3.253209 1_455
Mg6 Mg9 3.289034 1_555
Mg6 Mg7 3.484999 1_555
Mg10 Mg7 3.096139 1_665
Mg10 Mg8 3.117113 1_555
Mg10 Mg3 3.164709 1_655
Mg10 Mg14 3.167196 1_655
Mg10 Mg5 3.185841 1_555
Mg10 Mg15 3.227289 1_655
Mg10 Mg13 3.293142 1_555
Mg10 Mg2 3.622721 1_655
Mg11 Mg7 3.055569 1_555
Mg11 Mg14 3.080640 1_555
Mg11 Mg6 3.096788 1_555
Mg11 Mg9 3.107230 1_555
Mg11 Mg15 3.208725 1_545
Mg11 Mg13 3.240527 1_556
Mg12 Mg8 3.046289 1_555
Mg12 Mg9 3.125334 1_544
Mg12 Mg15 3.153638 1_544
Mg12 Mg13 3.491392 1_555
Mg12 Mg4 3.510719 1_545
Mg13 Mg2 3.039773 1_655
Mg13 Mg5 3.129912 1_555
Mg13 Mg8 3.138726 1_555
Mg13 Mg15 3.555780 1_544
Mg14 Mg3 3.108273 1_555
Mg14 Mg15 3.146248 1_555
Mg14 Mg6 3.147055 1_555
Mg14 Mg9 3.230062 1_555
Mg15 Mg3 3.150279 1_555
Mg15 Mg7 3.455909 1_565
Al0 Al3 2.718636 1_656
Al0 Al1 2.721422 1_545
Al0 Al10 2.722562 1_656
Al0 Mg1 2.979166 1_646
Al0 Mg7 2.999362 1_655
Al0 Mg12 3.008025 1_556
Al0 Mg13 3.024530 1_556
Al0 Mg6 3.058549 1_655
Al0 I0 3.150081 1_555
Al0 Mg15 3.520818 1_545
Al0 Mg4 3.552134 1_545
Al0 Mg2 3.650683 1_656
Al1 Al4 2.755848 1_555
Al1 Al9 2.798903 1_555
Al1 Mg15 2.998648 1_555
Al1 Mg3 3.009085 1_555
Al1 Mg4 3.030369 1_555
Al1 Mg14 3.039343 1_555
Al1 Mg5 3.046191 1_555
Al1 Mg7 3.149989 1_665
Al1 Mg12 3.173633 1_566
Al1 Mg1 3.366159 1_656
Al2 Al5 2.697967 1_554
Al2 Al6 2.732485 1_564
Al2 Mg9 2.908638 1_554
Al2 Mg4 2.987844 1_555
Al2 Mg2 3.050836 1_555
Al2 Mg0 3.090110 1_565
Al2 Mg1 3.105852 1_555
Al2 Mg3 3.169084 1_555
Al2 Mg8 3.302190 1_565
Al2 I0 3.410350 1_565
Al2 Mg12 3.427246 1_565
Al3 Al6 2.693558 1_554
Al3 Mg9 2.917389 1_554
Al3 Mg3 3.012618 1_555
Al3 Mg0 3.017215 1_555
Al3 Mg6 3.043797 1_554
Al3 Mg11 3.128707 1_554
Al3 Mg7 3.239687 1_554
Al3 Mg5 3.246452 1_555
Al3 Mg1 3.260883 1_545
Al3 Mg2 3.541160 1_555
Al4 Al5 2.662395 1_655
Al4 Al9 2.808731 1_555
Al4 Mg10 2.996973 1_555
Al4 Mg5 2.998300 1_555
Al4 Mg7 3.049197 1_665
Al4 Mg8 3.099582 1_555
Al4 Mg2 3.189677 1_656
Al4 Mg1 3.193811 1_656
Al4 Mg6 3.225685 1_655
Al4 I0 3.397786 1_555
Al5 Al6 2.873683 1_565
Al5 Mg15 2.910834 1_555
Al5 Mg14 2.931767 1_555
Al5 Mg9 3.024464 1_555
Al5 Mg2 3.095365 1_556
Al5 Mg7 3.135481 1_565
Al5 Mg1 3.165148 1_556
Al5 Mg6 3.174580 1_555
Al5 Mg10 3.183544 1_455
Al5 Mg12 3.640116 1_566
Al6 Mg13 2.892628 1_556
Al6 Mg15 2.991654 1_545
Al6 Mg0 3.084563 1_556
Al6 Mg8 3.084929 1_556
Al6 Mg11 3.156775 1_555
Al6 Mg7 3.282775 1_555
Al6 Mg1 3.305338 1_546
Al6 Mg12 3.309457 1_556
Al6 Mg5 3.335445 1_556
Al7 Al8 2.872442 1_545
Al7 Mg6 2.892057 1_655
Al7 Mg4 2.971884 1_545
Al7 Mg0 3.086432 1_655
Al7 Mg11 3.091662 1_655
Al7 Mg8 3.111888 1_555
Al7 Mg12 3.278510 1_555
Al7 Mg1 3.321610 1_645
Al7 Mg14 3.345203 1_655
Al7 Mg7 3.345650 1_655
Al8 Al9 2.689065 1_554
Al8 Mg4 2.893399 1_555
Al8 Mg5 2.942187 1_555
Al8 Mg10 3.020297 1_555
Al8 Mg2 3.063846 1_655
Al8 Mg12 3.146151 1_565
Al8 Mg9 3.152087 1_554
Al8 Mg13 3.155836 1_555
Al8 Mg1 3.196248 1_655
Al8 Mg7 3.666663 1_665
Al9 Mg14 2.971641 1_555
Al9 Mg9 2.987178 1_555
Al9 Mg12 3.050922 1_566
Al9 Mg11 3.084922 1_555
Al9 Mg2 3.153644 1_656
Al9 Mg1 3.199171 1_656
Al9 Mg13 3.234874 1_556
Al9 I0 3.375570 1_555
Al10 Al7 2.730678 1_455
Al10 Al3 2.746912 1_555
Al10 Mg10 2.919649 1_455
Al10 Mg0 2.983745 1_555
Al10 Mg13 3.020672 1_455
Al10 Mg3 3.020821 1_555
Al10 Mg8 3.116007 1_455
Al10 Mg12 3.221631 1_455
Al10 Mg1 3.231990 1_545
Al10 Mg14 3.271440 1_555
Al10 Mg2 3.574384 1_555
Al11 Al8 2.682826 1_455
Al11 Al7 2.703118 1_465
Al11 Al2 2.769151 1_555
Al11 Mg10 2.925907 1_455
Al11 Mg15 2.989817 1_555
Al11 Mg2 3.063401 1_555
Al11 Mg0 3.112870 1_565
Al11 Mg3 3.140692 1_555
Al11 Mg1 3.146893 1_555
Al11 Mg11 3.299315 1_565
Al11 I0 3.392637 1_565
Al11 Mg7 3.431194 1_565
I0 Mg4 3.047833 1_545
I0 Mg15 3.078774 1_545
I0 Mg0 3.109967 1_555
I0 Mg11 3.117835 1_555
I0 Mg8 3.138990 1_555
I0 Mg6 3.315656 1_655
I0 Mg13 3.360814 1_556
