# generated using pymatgen
data_InGaSe2
_symmetry_space_group_name_H-M   'P 1'
_cell_length_a   6.59240349
_cell_length_b   6.59240349
_cell_length_c   6.59240349
_cell_angle_alpha   103.73821498
_cell_angle_beta   103.73821498
_cell_angle_gamma   121.67011550
_symmetry_Int_Tables_number   1
_chemical_formula_structural   InGaSe2
_chemical_formula_sum   'In2 Ga2 Se4'
_cell_volume   212.92575638
_cell_formula_units_Z   2
loop_
 _symmetry_equiv_pos_site_id
 _symmetry_equiv_pos_as_xyz
  1  'x, y, z'
loop_
 _atom_site_type_symbol
 _atom_site_label
 _atom_site_symmetry_multiplicity
 _atom_site_fract_x
 _atom_site_fract_y
 _atom_site_fract_z
 _atom_site_occupancy
  In  In0  1  0.25000000  0.25000000  0.00000000  1
  In  In1  1  0.75000000  0.75000000  0.00000000  1
  Ga  Ga0  1  0.25000000  0.75000000  0.50000000  1
  Ga  Ga1  1  0.75000000  0.25000000  0.50000000  1
  Se  Se0  1  0.16226600  0.66226600  0.82453200  1
  Se  Se1  1  0.83773400  0.33773400  0.17546800  1
  Se  Se2  1  0.33773400  0.16226600  0.50000000  1
  Se  Se3  1  0.66226600  0.83773400  0.50000000  1
loop_
_geom_bond_atom_site_label_1
_geom_bond_atom_site_label_2
_geom_bond_distance
_geom_bond_site_symmetry_2
In0 In1 3.212646 1_555
In0 In1 3.212646 1_445
In0 Se1 3.447500 1_455
In0 Se1 3.447500 1_555
In0 Se2 3.447500 1_555
In0 Se2 3.447500 1_554
In0 Se3 3.447500 1_555
In0 Se3 3.447500 1_444
In0 Se0 3.447500 1_544
In0 Se0 3.447500 1_554
In1 Se1 3.447500 1_555
In1 Se1 3.447500 1_565
In1 Se3 3.447500 1_554
In1 Se2 3.447500 1_554
In1 Se3 3.447500 1_555
In1 Se2 3.447500 1_665
In1 Se0 3.447500 1_554
In1 Se0 3.447500 1_654
Ga0 Se0 2.463833 1_555
Ga0 Se2 2.463833 1_565
Ga0 Se3 2.463833 1_555
Ga0 Se1 2.463833 1_455
Ga1 Se0 2.463833 1_655
Ga1 Se3 2.463833 1_545
Ga1 Se2 2.463833 1_555
Ga1 Se1 2.463833 1_555
