# generated using pymatgen
data_KNa5TeO6
_symmetry_space_group_name_H-M   'P 1'
_cell_length_a   6.71315155
_cell_length_b   6.71315155
_cell_length_c   11.28372012
_cell_angle_alpha   89.83407531
_cell_angle_beta   89.83407531
_cell_angle_gamma   121.65253327
_symmetry_Int_Tables_number   1
_chemical_formula_structural   KNa5TeO6
_chemical_formula_sum   'K2 Na10 Te2 O12'
_cell_volume   432.86522967
_cell_formula_units_Z   2
loop_
 _symmetry_equiv_pos_site_id
 _symmetry_equiv_pos_as_xyz
  1  'x, y, z'
loop_
 _atom_site_type_symbol
 _atom_site_label
 _atom_site_symmetry_multiplicity
 _atom_site_fract_x
 _atom_site_fract_y
 _atom_site_fract_z
 _atom_site_occupancy
  K  K0  1  0.67066300  0.32933700  0.25000000  1
  K  K1  1  0.32933700  0.67066300  0.75000000  1
  Na  Na0  1  0.86038300  0.71869500  0.75390000  1
  Na  Na1  1  0.85985200  0.14014800  0.75000000  1
  Na  Na2  1  0.28130500  0.13961700  0.74610000  1
  Na  Na3  1  0.13961700  0.28130500  0.24610000  1
  Na  Na4  1  0.14014800  0.85985200  0.25000000  1
  Na  Na5  1  0.71869500  0.86038300  0.25390000  1
  Na  Na6  1  0.50000000  0.00000000  0.00000000  1
  Na  Na7  1  0.50000000  0.50000000  0.00000000  1
  Na  Na8  1  0.00000000  0.50000000  0.50000000  1
  Na  Na9  1  0.50000000  0.50000000  0.50000000  1
  Te  Te0  1  0.00000000  0.00000000  0.00000000  1
  Te  Te1  1  0.00000000  0.00000000  0.50000000  1
  O  O0  1  0.85415100  0.71111100  0.39720900  1
  O  O1  1  0.86913400  0.14579200  0.39779000  1
  O  O2  1  0.28005200  0.14938600  0.39610900  1
  O  O3  1  0.14584900  0.28888900  0.60279100  1
  O  O4  1  0.13086600  0.85420800  0.60221000  1
  O  O5  1  0.71994800  0.85061400  0.60389100  1
  O  O6  1  0.14938600  0.28005200  0.89610900  1
  O  O7  1  0.14579200  0.86913400  0.89779000  1
  O  O8  1  0.71111100  0.85415100  0.89720900  1
  O  O9  1  0.85061400  0.71994800  0.10389100  1
  O  O10  1  0.85420800  0.13086600  0.10221000  1
  O  O11  1  0.28888900  0.14584900  0.10279100  1
loop_
_geom_bond_atom_site_label_1
_geom_bond_atom_site_label_2
_geom_bond_distance
_geom_bond_site_symmetry_2
K0 O0 2.751019 1_555
K0 O11 2.751019 1_555
K0 O9 2.773494 1_555
K0 O2 2.773494 1_555
K0 O1 2.792556 1_555
K0 O10 2.792556 1_555
K0 Na4 3.291884 1_655
K0 Na4 3.291884 1_545
K1 O8 2.751019 1_555
K1 O3 2.751019 1_555
K1 O5 2.773494 1_555
K1 O6 2.773494 1_555
K1 O7 2.792556 1_555
K1 O4 2.792556 1_555
K1 Na1 3.291884 1_565
K1 Na1 3.291884 1_455
Na0 O4 2.300795 1_655
Na0 O7 2.307328 1_655
Na0 O8 2.324102 1_555
Na0 O5 2.327013 1_555
Na0 Na2 2.755724 1_665
Na1 O8 2.324267 1_545
Na1 O3 2.324267 1_655
Na1 O6 2.343003 1_655
Na1 O5 2.343003 1_545
Na2 O7 2.300795 1_545
Na2 O4 2.307328 1_545
Na2 O3 2.324102 1_555
Na2 O6 2.327013 1_555
Na3 O1 2.300795 1_455
Na3 O10 2.307328 1_455
Na3 O11 2.324102 1_555
Na3 O2 2.327013 1_555
Na3 Na5 2.755724 1_445
Na4 O0 2.324267 1_455
Na4 O11 2.324267 1_565
Na4 O9 2.343003 1_455
Na4 O2 2.343003 1_565
Na5 O10 2.300795 1_565
Na5 O1 2.307328 1_565
Na5 O0 2.324102 1_555
Na5 O9 2.327013 1_555
Na6 O7 2.363342 1_544
Na6 O10 2.363342 1_555
Na6 O11 2.401218 1_555
Na6 O8 2.401218 1_544
Na7 O11 2.333318 1_555
Na7 O8 2.333318 1_554
Na7 O9 2.339427 1_555
Na7 O6 2.339427 1_554
Na8 O1 2.363342 1_455
Na8 O4 2.363342 1_555
Na8 O0 2.401218 1_455
Na8 O3 2.401218 1_555
Na9 O0 2.333318 1_555
Na9 O3 2.333318 1_555
Na9 O5 2.339427 1_555
Na9 O2 2.339427 1_555
O0 Te1 2.022808 1_665
O1 Te1 1.990371 1_655
O2 Te1 1.978916 1_555
O3 Te1 2.022808 1_555
O4 Te1 1.990371 1_565
O5 Te1 1.978916 1_665
O6 Te0 1.978916 1_556
O7 Te0 1.990371 1_566
O8 Te0 2.022808 1_666
O9 Te0 1.978916 1_665
O10 Te0 1.990371 1_655
O11 Te0 2.022808 1_555
