# generated using pymatgen
data_Mg3Si4
_symmetry_space_group_name_H-M   'P 1'
_cell_length_a   5.97400325
_cell_length_b   8.57211418
_cell_length_c   6.54220409
_cell_angle_alpha   116.53128040
_cell_angle_beta   91.56483792
_cell_angle_gamma   114.71083484
_symmetry_Int_Tables_number   1
_chemical_formula_structural   Mg3Si4
_chemical_formula_sum   'Mg6 Si8'
_cell_volume   262.68421879
_cell_formula_units_Z   2
loop_
 _symmetry_equiv_pos_site_id
 _symmetry_equiv_pos_as_xyz
  1  'x, y, z'
loop_
 _atom_site_type_symbol
 _atom_site_label
 _atom_site_symmetry_multiplicity
 _atom_site_fract_x
 _atom_site_fract_y
 _atom_site_fract_z
 _atom_site_occupancy
  Mg  Mg0  1  0.70169000  0.48556700  0.53164000  1
  Mg  Mg1  1  0.24435600  0.67961200  0.92042100  1
  Mg  Mg2  1  0.71445300  0.04577600  0.26162000  1
  Mg  Mg3  1  0.91074600  0.94354500  0.74878300  1
  Mg  Mg4  1  0.42162200  0.42589300  0.07493200  1
  Mg  Mg5  1  0.21776700  0.07387000  0.29173300  1
  Si  Si0  1  0.95030800  0.68271500  0.29901900  1
  Si  Si1  1  0.40688800  0.85278500  0.50030900  1
  Si  Si2  1  0.02299400  0.27320600  0.70889200  1
  Si  Si3  1  0.58270900  0.21771500  0.67385900  1
  Si  Si4  1  0.78219900  0.72730500  0.00179300  1
  Si  Si5  1  0.90681200  0.34518700  0.10481100  1
  Si  Si6  1  0.18267600  0.42258800  0.44799900  1
  Si  Si7  1  0.45474900  0.07087500  0.93441900  1
loop_
_geom_bond_atom_site_label_1
_geom_bond_atom_site_label_2
_geom_bond_distance
_geom_bond_site_symmetry_2
Mg0 Si3 2.687554 1_555
Mg0 Si4 2.716231 1_556
Mg0 Si0 2.774985 1_555
Mg0 Si6 2.906623 1_555
Mg0 Si5 3.027372 1_555
Mg0 Mg5 3.090203 1_555
Mg0 Mg4 3.103934 1_555
Mg0 Mg3 3.132335 1_555
Mg0 Si6 3.156945 1_655
Mg0 Mg1 3.317746 1_655
Mg1 Si2 2.746216 1_555
Mg1 Si6 2.778121 1_555
Mg1 Mg2 2.958040 1_566
Mg1 Si4 2.983760 1_456
Mg1 Si7 3.005318 1_565
Mg1 Si4 3.064028 1_556
Mg1 Si0 3.072330 1_456
Mg1 Mg5 3.237841 1_566
Mg1 Mg4 3.271810 1_556
Mg1 Si1 3.331885 1_556
Mg2 Si4 2.705846 1_545
Mg2 Si2 2.713884 1_655
Mg2 Si7 2.746769 1_554
Mg2 Si3 2.756799 1_555
Mg2 Mg5 2.908178 1_655
Mg2 Si1 2.911098 1_545
Mg2 Si6 2.912976 1_655
Mg2 Si5 2.985137 1_555
Mg2 Mg5 3.080274 1_555
Mg2 Mg3 3.441957 1_544
Mg3 Si2 2.754544 1_665
Mg3 Si0 2.883629 1_555
Mg3 Si4 2.895836 1_556
Mg3 Si7 2.976985 1_665
Mg3 Si1 2.992176 1_555
Mg3 Si5 3.191536 1_566
Mg3 Si7 3.401405 1_565
Mg3 Mg5 3.408132 1_666
Mg4 Si2 2.720525 1_554
Mg4 Si0 2.832236 1_555
Mg4 Si4 2.837647 1_555
Mg4 Si7 2.856541 1_554
Mg4 Si6 2.865942 1_555
Mg4 Si5 2.889658 1_455
Mg4 Si3 2.895867 1_554
Mg4 Si1 3.511145 1_555
Mg5 Si3 2.687772 1_555
Mg5 Si4 2.725351 1_445
Mg5 Si7 2.761693 1_554
Mg5 Si6 2.798251 1_555
Mg5 Si2 3.064556 1_555
Mg5 Si0 3.076639 1_445
Mg5 Si1 3.278170 1_545
Si0 Si4 2.411246 1_555
Si0 Si1 2.462407 1_655
Si0 Si5 2.474351 1_555
Si1 Si3 2.488536 1_565
Si1 Si7 2.531404 1_565
Si1 Si6 3.198137 1_555
Si2 Si3 2.453712 1_455
Si2 Si6 2.546201 1_555
Si2 Si5 2.569037 1_456
Si3 Si7 2.501623 1_555
Si3 Si5 2.841206 1_556
Si5 Si6 2.397914 1_655
Si5 Si7 2.499944 1_554
