# generated using pymatgen
data_Sr2DyMoO6
_symmetry_space_group_name_H-M   'P 1'
_cell_length_a   5.84015400
_cell_length_b   5.88528800
_cell_length_c   10.15180760
_cell_angle_alpha   90.00000000
_cell_angle_beta   124.58057451
_cell_angle_gamma   90.00000000
_symmetry_Int_Tables_number   1
_chemical_formula_structural   Sr2DyMoO6
_chemical_formula_sum   'Sr4 Dy2 Mo2 O12'
_cell_volume   287.28220622
_cell_formula_units_Z   2
loop_
 _symmetry_equiv_pos_site_id
 _symmetry_equiv_pos_as_xyz
  1  'x, y, z'
loop_
 _atom_site_type_symbol
 _atom_site_label
 _atom_site_symmetry_multiplicity
 _atom_site_fract_x
 _atom_site_fract_y
 _atom_site_fract_z
 _atom_site_occupancy
  Sr  Sr0  1  0.24467700  0.46535900  0.74800400  1
  Sr  Sr1  1  0.24467700  0.03464100  0.24800400  1
  Sr  Sr2  1  0.75532300  0.53464100  0.25199600  1
  Sr  Sr3  1  0.75532300  0.96535900  0.75199600  1
  Dy  Dy0  1  0.50000000  0.50000000  0.50000000  1
  Dy  Dy1  1  0.50000000  0.00000000  0.00000000  1
  Mo  Mo0  1  0.00000000  0.00000000  0.50000000  1
  Mo  Mo1  1  0.00000000  0.50000000  0.00000000  1
  O  O0  1  0.76335700  0.18958800  0.53539400  1
  O  O1  1  0.76335700  0.31041200  0.03539400  1
  O  O2  1  0.23664300  0.81041200  0.46460600  1
  O  O3  1  0.23664300  0.68958800  0.96460600  1
  O  O4  1  0.15384000  0.21840300  0.95964100  1
  O  O5  1  0.15384000  0.28159700  0.45964100  1
  O  O6  1  0.84616000  0.78159700  0.04035900  1
  O  O7  1  0.84616000  0.71840300  0.54035900  1
  O  O8  1  0.31193900  0.01695500  0.73694200  1
  O  O9  1  0.31193900  0.48304500  0.23694200  1
  O  O10  1  0.68806100  0.98304500  0.26305800  1
  O  O11  1  0.68806100  0.51695500  0.76305800  1
loop_
_geom_bond_atom_site_label_1
_geom_bond_atom_site_label_2
_geom_bond_distance
_geom_bond_site_symmetry_2
Dy0 O5 2.228629 1_555
Dy0 O7 2.228629 1_555
Dy0 O11 2.240201 1_555
Dy0 O9 2.240201 1_555
Dy0 O2 2.281404 1_555
Dy0 O0 2.281404 1_555
Dy1 O4 2.228629 1_554
Dy1 O6 2.228629 1_545
Dy1 O8 2.240201 1_554
Dy1 O10 2.240201 1_545
Dy1 O1 2.281404 1_555
Dy1 O3 2.281404 1_544
Mo0 O0 1.961573 1_455
Mo0 O2 1.961573 1_545
Mo0 O7 2.034578 1_445
Mo0 O5 2.034578 1_555
Mo0 O8 2.034820 1_555
Mo0 O10 2.034820 1_445
Mo1 O3 1.961573 1_554
Mo1 O1 1.961573 1_455
Mo1 O6 2.034578 1_455
Mo1 O4 2.034578 1_554
Mo1 O9 2.034820 1_555
Mo1 O11 2.034820 1_454
O0 Sr3 2.587657 1_545
O0 O10 2.816827 1_545
O0 O8 2.835842 1_655
O0 Sr0 2.882240 1_655
O0 Sr1 2.913332 1_555
O1 Sr2 2.587657 1_555
O1 O11 2.816827 1_554
O1 O9 2.835842 1_655
O1 Sr1 2.882240 1_655
O1 Sr0 2.913332 1_554
O2 Sr1 2.587657 1_565
O2 O8 2.816827 1_565
O2 Sr2 2.882240 1_455
O2 Sr3 2.913332 1_555
O3 Sr0 2.587657 1_555
O3 O9 2.816827 1_556
O3 Sr3 2.882240 1_455
O3 Sr2 2.913332 1_556
O4 Sr3 2.551296 1_445
O4 Sr1 2.873658 1_556
O4 Sr0 2.881609 1_555
O5 Sr2 2.551296 1_455
O5 Sr0 2.873658 1_555
O5 Sr1 2.881609 1_555
O6 Sr1 2.551296 1_665
O6 Sr3 2.873658 1_554
O6 Sr2 2.881609 1_555
O7 Sr0 2.551296 1_655
O7 Sr2 2.873658 1_555
O7 Sr3 2.881609 1_555
O8 Sr3 2.524185 1_545
O8 Sr0 2.679784 1_555
O8 Sr0 3.279553 1_545
O9 Sr2 2.524185 1_555
O9 Sr1 2.679784 1_555
O9 Sr1 3.279553 1_565
O10 Sr1 2.524185 1_565
O10 Sr2 2.679784 1_555
O10 O2 2.835842 1_655
O10 Sr2 3.279553 1_565
O11 Sr0 2.524185 1_555
O11 Sr3 2.679784 1_555
O11 O3 2.835842 1_655
O11 Sr3 3.279553 1_545
