# generated using pymatgen
data_Ba2Co3O8
_symmetry_space_group_name_H-M   'P 1'
_cell_length_a   3.84669600
_cell_length_b   3.84669600
_cell_length_c   12.17758100
_cell_angle_alpha   90.00000000
_cell_angle_beta   90.00000000
_cell_angle_gamma   90.00000000
_symmetry_Int_Tables_number   1
_chemical_formula_structural   Ba2Co3O8
_chemical_formula_sum   'Ba2 Co3 O8'
_cell_volume   180.19251991
_cell_formula_units_Z   1
loop_
 _symmetry_equiv_pos_site_id
 _symmetry_equiv_pos_as_xyz
  1  'x, y, z'
loop_
 _atom_site_type_symbol
 _atom_site_label
 _atom_site_symmetry_multiplicity
 _atom_site_fract_x
 _atom_site_fract_y
 _atom_site_fract_z
 _atom_site_occupancy
  Ba  Ba0  1  0.50000000  0.50000000  0.17236100  1
  Ba  Ba1  1  0.50000000  0.50000000  0.82763900  1
  Co  Co0  1  0.00000000  0.00000000  0.33624100  1
  Co  Co1  1  0.00000000  0.00000000  0.00000000  1
  Co  Co2  1  0.00000000  0.00000000  0.66375900  1
  O  O0  1  0.00000000  0.50000000  0.34800400  1
  O  O1  1  0.50000000  0.00000000  0.34800400  1
  O  O2  1  0.50000000  0.00000000  0.00000000  1
  O  O3  1  0.00000000  0.00000000  0.16970300  1
  O  O4  1  0.00000000  0.50000000  0.65199600  1
  O  O5  1  0.50000000  0.00000000  0.65199600  1
  O  O6  1  0.00000000  0.00000000  0.83029700  1
  O  O7  1  0.00000000  0.50000000  0.00000000  1
loop_
_geom_bond_atom_site_label_1
_geom_bond_atom_site_label_2
_geom_bond_distance
_geom_bond_site_symmetry_2
Ba0 O3 2.720217 1_555
Ba0 O3 2.720217 1_655
Ba0 O3 2.720217 1_565
Ba0 O3 2.720217 1_665
Ba0 O7 2.846896 1_555
Ba0 O7 2.846896 1_655
Ba0 O2 2.846896 1_555
Ba0 O2 2.846896 1_565
Ba0 O0 2.876489 1_655
Ba0 O1 2.876489 1_555
Ba0 O1 2.876489 1_565
Ba0 O0 2.876489 1_555
Ba1 O6 2.720217 1_655
Ba1 O6 2.720217 1_565
Ba1 O6 2.720217 1_665
Ba1 O6 2.720217 1_555
Ba1 O7 2.846896 1_556
Ba1 O7 2.846896 1_656
Ba1 O2 2.846896 1_566
Ba1 O2 2.846896 1_556
Ba1 O4 2.876489 1_555
Ba1 O4 2.876489 1_655
Ba1 O5 2.876489 1_555
Ba1 O5 2.876489 1_565
Co0 O1 1.928675 1_455
Co0 O0 1.928675 1_555
Co0 O0 1.928675 1_545
Co0 O1 1.928675 1_555
Co0 O3 2.028030 1_555
Co1 O2 1.923348 1_555
Co1 O7 1.923348 1_545
Co1 O7 1.923348 1_555
Co1 O2 1.923348 1_455
Co1 O3 2.066572 1_555
Co1 O6 2.066572 1_554
Co2 O4 1.928675 1_555
Co2 O5 1.928675 1_455
Co2 O4 1.928675 1_545
Co2 O5 1.928675 1_555
Co2 O6 2.028030 1_555
