# generated using pymatgen
data_Li7Co5O12
_symmetry_space_group_name_H-M   'P 1'
_cell_length_a   6.43170657
_cell_length_b   10.06499804
_cell_length_c   6.59226596
_cell_angle_alpha   98.34109835
_cell_angle_beta   83.58703146
_cell_angle_gamma   96.49432407
_symmetry_Int_Tables_number   1
_chemical_formula_structural   Li7Co5O12
_chemical_formula_sum   'Li14 Co10 O24'
_cell_volume   417.55209992
_cell_formula_units_Z   2
loop_
 _symmetry_equiv_pos_site_id
 _symmetry_equiv_pos_as_xyz
  1  'x, y, z'
loop_
 _atom_site_type_symbol
 _atom_site_label
 _atom_site_symmetry_multiplicity
 _atom_site_fract_x
 _atom_site_fract_y
 _atom_site_fract_z
 _atom_site_occupancy
  Li  Li0  1  0.83366700  0.25022400  0.16745900  1
  Li  Li1  1  0.83315400  0.74962400  0.16609400  1
  Li  Li2  1  0.07505700  0.13134300  0.40752400  1
  Li  Li3  1  0.07653100  0.63357400  0.40467800  1
  Li  Li4  1  0.59017500  0.36653500  0.92862700  1
  Li  Li5  1  0.59158200  0.86866900  0.92591400  1
  Li  Li6  1  0.74765900  0.12148800  0.74814400  1
  Li  Li7  1  0.74546700  0.62203200  0.74845300  1
  Li  Li8  1  0.41588800  0.12097700  0.08497400  1
  Li  Li9  1  0.41434300  0.61887900  0.08245900  1
  Li  Li10  1  0.25255700  0.38133200  0.25072300  1
  Li  Li11  1  0.25063300  0.87905500  0.24815000  1
  Li  Li12  1  0.92136300  0.37799000  0.58486600  1
  Li  Li13  1  0.91878900  0.87850500  0.58537800  1
  Co  Co0  1  0.33334700  0.49999600  0.66661300  1
  Co  Co1  1  0.33317800  0.99991700  0.66662300  1
  Co  Co2  1  0.99780800  0.50162200  0.00634900  1
  Co  Co3  1  0.99539100  0.00210200  0.00568600  1
  Co  Co4  1  0.67105800  0.99797400  0.32776700  1
  Co  Co5  1  0.66907400  0.49832300  0.32693600  1
  Co  Co6  1  0.50809800  0.25140500  0.49237300  1
  Co  Co7  1  0.50924200  0.75132200  0.48941400  1
  Co  Co8  1  0.15745600  0.24862600  0.84386300  1
  Co  Co9  1  0.15852000  0.74860600  0.84095800  1
  O  O0  1  0.44398400  0.18322200  0.78853900  1
  O  O1  1  0.43980000  0.68074400  0.78192400  1
  O  O2  1  0.22687300  0.31926100  0.55128000  1
  O  O3  1  0.22251500  0.81668800  0.54477800  1
  O  O4  1  0.94217200  0.44916400  0.28029200  1
  O  O5  1  0.94280500  0.94863600  0.27825800  1
  O  O6  1  0.72394000  0.05135300  0.05511100  1
  O  O7  1  0.72454300  0.55089600  0.05311300  1
  O  O8  1  0.11583800  0.17094000  0.11103000  1
  O  O9  1  0.11644200  0.67191500  0.10915100  1
  O  O10  1  0.77096300  0.17792500  0.45413600  1
  O  O11  1  0.77096300  0.67724300  0.45307400  1
  O  O12  1  0.89585500  0.32279200  0.88036600  1
  O  O13  1  0.89558700  0.82204300  0.87933200  1
  O  O14  1  0.55044400  0.32815300  0.22416800  1
  O  O15  1  0.55071800  0.82896500  0.22231800  1
  O  O16  1  0.61577400  0.44290300  0.60058100  1
  O  O17  1  0.62572000  0.93959100  0.59863400  1
  O  O18  1  0.26998100  0.43755500  0.95957000  1
  O  O19  1  0.27098200  0.93940900  0.95479600  1
  O  O20  1  0.39557900  0.06057500  0.37852600  1
  O  O21  1  0.39683600  0.56244800  0.37355500  1
  O  O22  1  0.04068500  0.06033600  0.73478400  1
  O  O23  1  0.05096400  0.55712400  0.73266000  1
loop_
_geom_bond_atom_site_label_1
_geom_bond_atom_site_label_2
_geom_bond_distance
_geom_bond_site_symmetry_2
Li0 O14 2.039419 1_555
Li0 O8 2.039482 1_655
Li0 O4 2.101755 1_555
Li0 O6 2.102436 1_555
Li0 O10 2.103822 1_555
Li0 O12 2.107426 1_554
Li1 O9 2.038830 1_655
Li1 O15 2.041272 1_555
Li1 O7 2.100339 1_555
Li1 O5 2.103226 1_555
Li1 O13 2.104800 1_554
Li1 O11 2.105880 1_555
Li2 O8 2.033668 1_555
Li2 O10 2.042288 1_455
Li2 O5 2.045690 1_445
Li2 O2 2.167439 1_555
Li2 O20 2.235688 1_555
Li2 O22 2.349259 1_555
Li3 O9 2.023430 1_555
Li3 O11 2.042577 1_455
Li3 O4 2.053800 1_455
Li3 O3 2.107080 1_555
Li3 O21 2.234996 1_555
Li3 O23 2.380890 1_555
Li4 O14 2.023654 1_556
Li4 O12 2.043484 1_555
Li4 O7 2.053635 1_556
Li4 O0 2.109102 1_555
Li4 O18 2.233949 1_555
Li4 O16 2.380907 1_555
Li5 O15 2.033435 1_556
Li5 O13 2.041873 1_555
Li5 O6 2.045601 1_566
Li5 O1 2.167962 1_555
Li5 O19 2.236098 1_555
Li5 O17 2.349084 1_555
Li6 O22 2.036693 1_655
Li6 O17 2.064622 1_545
Li6 O10 2.082532 1_555
Li6 O0 2.093350 1_555
Li6 O6 2.222093 1_556
Li6 O12 2.238255 1_555
Li7 O16 2.056249 1_555
Li7 O11 2.085508 1_555
Li7 O1 2.095462 1_555
Li7 O23 2.126801 1_655
Li7 O7 2.213469 1_556
Li7 O13 2.229740 1_555
Li8 O8 2.031518 1_555
Li8 O19 2.069572 1_544
Li8 O20 2.097250 1_555
Li8 O0 2.120065 1_554
Li8 O6 2.154599 1_555
Li8 O14 2.270057 1_555
Li9 O9 2.028746 1_555
Li9 O18 2.050577 1_554
Li9 O21 2.066703 1_555
Li9 O1 2.145250 1_554
Li9 O7 2.161086 1_555
Li9 O15 2.299143 1_555
Li10 O14 2.029226 1_555
Li10 O21 2.048611 1_555
Li10 O18 2.066264 1_554
Li10 O2 2.146165 1_555
Li10 O4 2.161509 1_455
Li10 O8 2.302038 1_555
Li11 O15 2.032260 1_555
Li11 O20 2.069742 1_565
Li11 O19 2.095780 1_554
Li11 O3 2.121788 1_555
Li11 O5 2.152962 1_455
Li11 O9 2.268602 1_555
Li12 O23 2.055873 1_655
Li12 O12 2.086221 1_555
Li12 O2 2.094527 1_655
Li12 O16 2.127436 1_555
Li12 O4 2.213160 1_555
Li12 O10 2.230549 1_555
Li13 O17 2.036763 1_555
Li13 O22 2.063747 1_665
Li13 O13 2.082331 1_555
Li13 O3 2.093957 1_655
Li13 O5 2.222901 1_555
Li13 O11 2.237210 1_555
Co0 O2 1.946634 1_555
Co0 O1 1.946662 1_555
Co0 O23 1.950830 1_555
Co0 O16 1.950959 1_555
Co0 O18 2.099804 1_555
Co0 O21 2.100522 1_555
Co1 O3 1.988430 1_555
Co1 O0 1.989483 1_565
Co1 O17 2.025056 1_555
Co1 O22 2.025194 1_565
Co1 O19 2.061705 1_555
Co1 O20 2.061924 1_565
Co2 O7 1.860590 1_555
Co2 O9 1.860626 1_655
Co2 O18 1.911112 1_654
Co2 O4 1.938468 1_555
Co2 O12 1.944331 1_554
Co2 O23 1.948236 1_654
Co3 O6 1.849831 1_555
Co3 O8 1.857470 1_655
Co3 O19 1.926473 1_644
Co3 O5 1.932958 1_545
Co3 O22 1.940759 1_654
Co3 O13 1.951561 1_544
Co4 O5 1.851971 1_555
Co4 O15 1.858825 1_555
Co4 O20 1.925401 1_565
Co4 O6 1.933216 1_565
Co4 O17 1.941173 1_555
Co4 O10 1.950868 1_565
Co5 O4 1.859142 1_555
Co5 O14 1.859537 1_555
Co5 O21 1.911737 1_555
Co5 O7 1.938111 1_555
Co5 O11 1.945301 1_555
Co5 O16 1.947667 1_555
Co6 O10 1.898009 1_555
Co6 O2 1.983542 1_555
Co6 O14 2.009498 1_555
Co6 O16 2.028038 1_555
Co6 O20 2.040776 1_555
Co6 O0 2.144238 1_555
Co7 O11 1.894430 1_555
Co7 O3 2.005331 1_555
Co7 O15 2.007314 1_555
Co7 O17 2.018394 1_555
Co7 O21 2.027582 1_555
Co7 O1 2.134413 1_555
Co8 O12 1.894106 1_455
Co8 O0 2.004279 1_555
Co8 O8 2.007953 1_556
Co8 O22 2.018904 1_555
Co8 O18 2.027992 1_555
Co8 O2 2.135101 1_555
Co9 O13 1.898187 1_455
Co9 O1 1.983933 1_555
Co9 O9 2.009152 1_556
Co9 O23 2.027838 1_555
Co9 O19 2.040423 1_555
Co9 O3 2.143845 1_555
