# generated using pymatgen
data_PrSiP3
_symmetry_space_group_name_H-M   'P 1'
_cell_length_a   5.73182660
_cell_length_b   5.89937356
_cell_length_c   25.49814329
_cell_angle_alpha   90.00000000
_cell_angle_beta   90.00000000
_cell_angle_gamma   90.00000000
_symmetry_Int_Tables_number   1
_chemical_formula_structural   PrSiP3
_chemical_formula_sum   'Pr8 Si8 P24'
_cell_volume   862.19896737
_cell_formula_units_Z   8
loop_
 _symmetry_equiv_pos_site_id
 _symmetry_equiv_pos_as_xyz
  1  'x, y, z'
loop_
 _atom_site_type_symbol
 _atom_site_label
 _atom_site_symmetry_multiplicity
 _atom_site_fract_x
 _atom_site_fract_y
 _atom_site_fract_z
 _atom_site_occupancy
  Pr  Pr0  1  0.75678747  0.52615096  0.40972874  1
  Pr  Pr1  1  0.25678747  0.47384904  0.59027126  1
  Pr  Pr2  1  0.25678747  0.97384904  0.90972874  1
  Pr  Pr3  1  0.75678747  0.02615096  0.09027126  1
  Pr  Pr4  1  0.25585163  0.02445934  0.40147630  1
  Pr  Pr5  1  0.75585163  0.97554066  0.59852370  1
  Pr  Pr6  1  0.75585163  0.47554066  0.90147630  1
  Pr  Pr7  1  0.25585163  0.52445934  0.09852370  1
  Si  Si0  1  0.33692228  0.44377624  0.29383997  1
  Si  Si1  1  0.83692228  0.55622376  0.70616003  1
  Si  Si2  1  0.83692228  0.05622376  0.79383997  1
  Si  Si3  1  0.33692228  0.94377624  0.20616003  1
  Si  Si4  1  0.83453563  0.11626061  0.29073124  1
  Si  Si5  1  0.33453563  0.88373939  0.70926876  1
  Si  Si6  1  0.33453563  0.38373939  0.79073124  1
  Si  Si7  1  0.83453563  0.61626061  0.20926876  1
  P  P0  1  0.45750933  0.81720794  0.49759580  1
  P  P1  1  0.95750933  0.18279206  0.50240420  1
  P  P2  1  0.95750933  0.68279206  0.99759580  1
  P  P3  1  0.45750933  0.31720794  0.00240420  1
  P  P4  1  0.56061799  0.18467276  0.50220076  1
  P  P5  1  0.06061799  0.81532724  0.49779924  1
  P  P6  1  0.06061799  0.31532724  0.00220076  1
  P  P7  1  0.56061799  0.68467276  0.99779924  1
  P  P8  1  0.75360846  0.01909192  0.37164310  1
  P  P9  1  0.25360846  0.98090808  0.62835690  1
  P  P10  1  0.25360846  0.48090808  0.87164310  1
  P  P11  1  0.75360846  0.51909192  0.12835690  1
  P  P12  1  0.25414772  0.52832483  0.37529249  1
  P  P13  1  0.75414772  0.47167517  0.62470751  1
  P  P14  1  0.75414772  0.97167517  0.87529249  1
  P  P15  1  0.25414772  0.02832483  0.12470751  1
  P  P16  1  0.22398176  0.08580752  0.28368397  1
  P  P17  1  0.72398176  0.91419248  0.71631603  1
  P  P18  1  0.72398176  0.41419248  0.78368397  1
  P  P19  1  0.22398176  0.58580752  0.21631603  1
  P  P20  1  0.72603773  0.47775144  0.28819414  1
  P  P21  1  0.22603773  0.52224856  0.71180586  1
  P  P22  1  0.22603773  0.02224856  0.78819414  1
  P  P23  1  0.72603773  0.97775144  0.21180586  1
loop_
_geom_bond_atom_site_label_1
_geom_bond_atom_site_label_2
_geom_bond_distance
_geom_bond_site_symmetry_2
P0 P4 2.249995 1_565
P0 P5 2.274945 1_555
P0 Pr4 2.972821 1_565
P0 Pr5 3.227925 1_555
P0 Pr0 3.303106 1_555
P0 Pr1 3.318243 1_555
P1 P5 2.249995 1_645
P1 P4 2.274945 1_555
P1 Pr5 2.972821 1_545
P1 Pr4 3.227925 1_655
P1 Pr1 3.303106 1_655
P1 Pr0 3.318243 1_555
P2 P6 2.249995 1_656
P2 P7 2.274945 1_555
P2 Pr6 2.972821 1_555
P2 Pr7 3.227925 1_656
P2 Pr2 3.303106 1_655
P2 Pr3 3.318243 1_566
P3 P7 2.249995 1_554
P3 P6 2.274945 1_555
P3 Pr7 2.972821 1_555
P3 Pr6 3.227925 1_554
P3 Pr3 3.303106 1_555
P3 Pr2 3.318243 1_544
P4 Pr5 2.967593 1_545
P4 Pr4 3.246686 1_555
P4 Pr0 3.298797 1_555
P4 Pr1 3.314514 1_555
P5 Pr4 2.967593 1_565
P5 Pr5 3.246686 1_455
P5 Pr1 3.298797 1_555
P5 Pr0 3.314514 1_455
P6 Pr7 2.967593 1_555
P6 Pr6 3.246686 1_454
P6 Pr2 3.298797 1_544
P6 Pr3 3.314514 1_455
P7 Pr6 2.967593 1_555
P7 Pr7 3.246686 1_556
P7 Pr3 3.298797 1_566
P7 Pr2 3.314514 1_555
P8 Si4 2.190926 1_555
P8 Pr4 2.952894 1_555
P8 Pr4 2.977747 1_655
P8 Pr0 3.065959 1_545
P8 Pr0 3.145068 1_555
P9 Si5 2.190926 1_555
P9 Pr5 2.952894 1_455
P9 Pr5 2.977747 1_555
P9 Pr1 3.065959 1_565
P9 Pr1 3.145068 1_555
P10 Si6 2.190926 1_555
P10 Pr6 2.952894 1_455
P10 Pr6 2.977747 1_555
P10 Pr2 3.065959 1_555
P10 Pr2 3.145068 1_545
P11 Si7 2.190926 1_555
P11 Pr7 2.952894 1_555
P11 Pr7 2.977747 1_655
P11 Pr3 3.065959 1_555
P11 Pr3 3.145068 1_565
P12 Si0 2.188002 1_555
P12 Pr0 2.982971 1_455
P12 Pr4 3.002079 1_565
P12 Pr0 3.011904 1_555
P12 Pr4 3.046562 1_555
P13 Si1 2.188002 1_555
P13 Pr1 2.982971 1_555
P13 Pr5 3.002079 1_545
P13 Pr1 3.011904 1_655
P13 Pr5 3.046562 1_555
P14 Si2 2.188002 1_565
P14 Pr2 2.982971 1_555
P14 Pr6 3.002079 1_555
P14 Pr2 3.011904 1_655
P14 Pr6 3.046562 1_565
P15 Si3 2.188002 1_545
P15 Pr3 2.982971 1_455
P15 Pr7 3.002079 1_555
P15 Pr3 3.011904 1_555
P15 Pr7 3.046562 1_545
P16 Si0 2.223913 1_555
P16 Si3 2.242442 1_545
P16 Si4 2.246653 1_455
P16 Pr4 3.030722 1_555
P17 Si1 2.223913 1_555
P17 Si2 2.242442 1_565
P17 Si5 2.246653 1_555
P17 Pr5 3.030722 1_555
P18 Si2 2.223913 1_555
P18 Si1 2.242442 1_555
P18 Si6 2.246653 1_555
P18 Pr6 3.030722 1_555
P19 Si3 2.223913 1_555
P19 Si0 2.242442 1_555
P19 Si7 2.246653 1_455
P19 Pr7 3.030722 1_555
P20 Si4 2.222338 1_555
P20 Si0 2.243953 1_555
P20 Si7 2.259289 1_555
P20 Pr0 3.117020 1_555
P21 Si5 2.222338 1_555
P21 Si1 2.243953 1_455
P21 Si6 2.259289 1_555
P21 Pr1 3.117020 1_555
P22 Si6 2.222338 1_555
P22 Si2 2.243953 1_455
P22 Si5 2.259289 1_545
P22 Pr2 3.117020 1_545
P23 Si7 2.222338 1_555
P23 Si3 2.243953 1_555
P23 Si4 2.259289 1_565
P23 Pr3 3.117020 1_565
