# generated using pymatgen
data_K2NaSbI6
_symmetry_space_group_name_H-M   'P 1'
_cell_length_a   8.69401364
_cell_length_b   8.69401364
_cell_length_c   8.69401364
_cell_angle_alpha   60.00000000
_cell_angle_beta   60.00000000
_cell_angle_gamma   60.00000000
_symmetry_Int_Tables_number   1
_chemical_formula_structural   K2NaSbI6
_chemical_formula_sum   'K2 Na1 Sb1 I6'
_cell_volume   464.67141149
_cell_formula_units_Z   1
loop_
 _symmetry_equiv_pos_site_id
 _symmetry_equiv_pos_as_xyz
  1  'x, y, z'
loop_
 _atom_site_type_symbol
 _atom_site_label
 _atom_site_symmetry_multiplicity
 _atom_site_fract_x
 _atom_site_fract_y
 _atom_site_fract_z
 _atom_site_occupancy
  K  K0  1  0.75000000  0.75000000  0.75000000  1
  K  K1  1  0.25000000  0.25000000  0.25000000  1
  Na  Na0  1  0.50000000  0.50000000  0.50000000  1
  Sb  Sb0  1  0.00000000  0.00000000  0.00000000  1
  I  I0  1  0.75443900  0.24556100  0.24556100  1
  I  I1  1  0.24556100  0.24556100  0.75443900  1
  I  I2  1  0.24556100  0.75443900  0.75443900  1
  I  I3  1  0.24556100  0.75443900  0.24556100  1
  I  I4  1  0.75443900  0.24556100  0.75443900  1
  I  I5  1  0.75443900  0.75443900  0.24556100  1
loop_
_geom_bond_atom_site_label_1
_geom_bond_atom_site_label_2
_geom_bond_distance
_geom_bond_site_symmetry_2
I0 Sb0 3.019220 1_655
I0 Na0 3.128376 1_555
I0 K1 4.347349 1_555
I0 K0 4.347349 1_545
I0 K1 4.347349 1_655
I0 K0 4.347349 1_554
I1 Sb0 3.019220 1_556
I1 Na0 3.128376 1_555
I1 K0 4.347349 1_545
I1 K1 4.347349 1_555
I1 K1 4.347349 1_556
I1 K0 4.347349 1_455
I2 Sb0 3.019220 1_566
I2 Na0 3.128376 1_555
I2 K1 4.347349 1_556
I2 K1 4.347349 1_565
I2 K0 4.347349 1_455
I2 K0 4.347349 1_555
I3 Sb0 3.019220 1_565
I3 Na0 3.128376 1_555
I3 K1 4.347349 1_555
I3 K1 4.347349 1_565
I3 K0 4.347349 1_554
I3 K0 4.347349 1_455
I4 Sb0 3.019220 1_656
I4 Na0 3.128376 1_555
I4 K0 4.347349 1_545
I4 K1 4.347349 1_556
I4 K1 4.347349 1_655
I4 K0 4.347349 1_555
I5 Sb0 3.019220 1_665
I5 Na0 3.128376 1_555
I5 K1 4.347349 1_565
I5 K1 4.347349 1_655
I5 K0 4.347349 1_554
I5 K0 4.347349 1_555
