# generated using pymatgen
data_ZnCoF5
_symmetry_space_group_name_H-M   'P 1'
_cell_length_a   5.31102031
_cell_length_b   5.31102031
_cell_length_c   7.49868633
_cell_angle_alpha   69.11478892
_cell_angle_beta   69.11478892
_cell_angle_gamma   71.74547253
_symmetry_Int_Tables_number   1
_chemical_formula_structural   ZnCoF5
_chemical_formula_sum   'Zn2 Co2 F10'
_cell_volume   180.38649283
_cell_formula_units_Z   2
loop_
 _symmetry_equiv_pos_site_id
 _symmetry_equiv_pos_as_xyz
  1  'x, y, z'
loop_
 _atom_site_type_symbol
 _atom_site_label
 _atom_site_symmetry_multiplicity
 _atom_site_fract_x
 _atom_site_fract_y
 _atom_site_fract_z
 _atom_site_occupancy
  Zn  Zn0  1  0.52945600  0.47059800  0.24542100  1
  Zn  Zn1  1  0.47059800  0.52945600  0.74542100  1
  Co  Co0  1  0.99829900  0.00316800  0.99943300  1
  Co  Co1  1  0.00316800  0.99829900  0.49943300  1
  F  F0  1  0.12660000  0.87429900  0.74999000  1
  F  F1  1  0.87429900  0.12660000  0.24999000  1
  F  F2  1  0.73565400  0.79002200  0.62295900  1
  F  F3  1  0.21195300  0.26574200  0.87396500  1
  F  F4  1  0.67658700  0.29523400  0.95249000  1
  F  F5  1  0.71432100  0.31911600  0.54252300  1
  F  F6  1  0.31911600  0.71432100  0.04252300  1
  F  F7  1  0.29523400  0.67658700  0.45249000  1
  F  F8  1  0.79002200  0.73565400  0.12295900  1
  F  F9  1  0.26574200  0.21195300  0.37396500  1
loop_
_geom_bond_atom_site_label_1
_geom_bond_atom_site_label_2
_geom_bond_distance
_geom_bond_site_symmetry_2
Co0 F3 1.847211 1_655
Co0 F8 1.848214 1_546
Co0 F6 1.939726 1_646
Co0 F4 1.956666 1_555
Co0 F1 2.029537 1_556
Co0 F0 2.035524 1_645
Co1 F9 1.847211 1_565
Co1 F2 1.848214 1_455
Co1 F5 1.939726 1_465
Co1 F7 1.956666 1_555
Co1 F0 2.029537 1_555
Co1 F1 2.035524 1_465
F0 Zn1 2.144105 1_555
F0 F6 2.511035 1_556
F0 F7 2.556941 1_555
F0 F8 2.711327 1_456
F0 F9 2.729822 1_565
F0 F3 2.767797 1_565
F0 F2 2.777631 1_455
F1 Zn0 2.144105 1_555
F1 F5 2.511035 1_555
F1 F4 2.556941 1_554
F1 F2 2.711327 1_545
F1 F3 2.729822 1_654
F1 F9 2.767797 1_655
F1 F8 2.777631 1_545
F2 Zn1 2.032908 1_555
F2 F5 2.629395 1_565
F2 F7 2.747390 1_655
F3 Zn1 2.019012 1_555
F3 F4 2.654969 1_455
F3 F6 2.706976 1_546
F4 Zn1 2.033895 1_555
F4 Zn0 2.466169 1_556
F4 F6 2.554317 1_556
F4 F8 2.747390 1_546
F5 Zn1 2.034726 1_555
F5 Zn0 2.522189 1_555
F5 F7 2.554317 1_555
F5 F9 2.706976 1_655
F6 Zn0 2.034726 1_555
F6 Zn1 2.522189 1_554
F6 F8 2.629395 1_455
F7 Zn0 2.033895 1_555
F7 Zn1 2.466169 1_555
F7 F9 2.654969 1_565
F8 Zn0 2.032908 1_555
F9 Zn0 2.019012 1_555
