# generated using pymatgen
data_K2HRuCl5
_symmetry_space_group_name_H-M   'P 1'
_cell_length_a   7.36261100
_cell_length_b   9.31360200
_cell_length_c   13.76668600
_cell_angle_alpha   90.00000000
_cell_angle_beta   90.00000000
_cell_angle_gamma   90.00000000
_symmetry_Int_Tables_number   1
_chemical_formula_structural   K2HRuCl5
_chemical_formula_sum   'K8 H4 Ru4 Cl20'
_cell_volume   944.01509190
_cell_formula_units_Z   4
loop_
 _symmetry_equiv_pos_site_id
 _symmetry_equiv_pos_as_xyz
  1  'x, y, z'
loop_
 _atom_site_type_symbol
 _atom_site_label
 _atom_site_symmetry_multiplicity
 _atom_site_fract_x
 _atom_site_fract_y
 _atom_site_fract_z
 _atom_site_occupancy
  K  K0  1  0.85146700  0.50040200  0.85146200  1
  K  K1  1  0.14853300  0.49959800  0.14853800  1
  K  K2  1  0.35146700  0.49959800  0.64853800  1
  K  K3  1  0.14853300  0.00040200  0.14853800  1
  K  K4  1  0.64853300  0.50040200  0.35146200  1
  K  K5  1  0.85146700  0.99959800  0.85146200  1
  K  K6  1  0.64853300  0.99959800  0.35146200  1
  K  K7  1  0.35146700  0.00040200  0.64853800  1
  H  H0  1  0.94412600  0.75000000  0.50935700  1
  H  H1  1  0.05587400  0.25000000  0.49064300  1
  H  H2  1  0.44412600  0.25000000  0.99064300  1
  H  H3  1  0.55587400  0.75000000  0.00935700  1
  Ru  Ru0  1  0.81498200  0.75000000  0.60269400  1
  Ru  Ru1  1  0.18501800  0.25000000  0.39730600  1
  Ru  Ru2  1  0.31498200  0.25000000  0.89730600  1
  Ru  Ru3  1  0.68501800  0.75000000  0.10269400  1
  Cl  Cl0  1  0.60434600  0.75000000  0.75290100  1
  Cl  Cl1  1  0.39565400  0.25000000  0.24709900  1
  Cl  Cl2  1  0.10434600  0.25000000  0.74709900  1
  Cl  Cl3  1  0.89565400  0.75000000  0.25290100  1
  Cl  Cl4  1  0.82306900  0.50405700  0.59693100  1
  Cl  Cl5  1  0.17693100  0.49594300  0.40306900  1
  Cl  Cl6  1  0.32306900  0.49594300  0.90306900  1
  Cl  Cl7  1  0.17693100  0.00405700  0.40306900  1
  Cl  Cl8  1  0.67693100  0.50405700  0.09693100  1
  Cl  Cl9  1  0.82306900  0.99594300  0.59693100  1
  Cl  Cl10  1  0.67693100  0.99594300  0.09693100  1
  Cl  Cl11  1  0.32306900  0.00405700  0.90306900  1
  Cl  Cl12  1  0.07849500  0.75000000  0.70336900  1
  Cl  Cl13  1  0.92150500  0.25000000  0.29663100  1
  Cl  Cl14  1  0.57849500  0.25000000  0.79663100  1
  Cl  Cl15  1  0.42150500  0.75000000  0.20336900  1
  Cl  Cl16  1  0.55444700  0.75000000  0.49897700  1
  Cl  Cl17  1  0.44555300  0.25000000  0.50102300  1
  Cl  Cl18  1  0.05444700  0.25000000  0.00102300  1
  Cl  Cl19  1  0.94555300  0.75000000  0.99897700  1
loop_
_geom_bond_atom_site_label_1
_geom_bond_atom_site_label_2
_geom_bond_distance
_geom_bond_site_symmetry_2
H0 Ru0 1.598488 1_555
H1 Ru1 1.598488 1_555
H2 Ru2 1.598488 1_555
H3 Ru3 1.598488 1_555
Cl0 Ru0 2.584781 1_555
Cl0 K5 3.248925 1_555
Cl0 K0 3.248925 1_555
Cl0 K7 3.312036 1_565
Cl0 K2 3.312036 1_555
Cl0 H3 3.548541 1_556
Cl1 Ru1 2.584781 1_555
Cl1 K1 3.248925 1_555
Cl1 K3 3.248925 1_555
Cl1 K4 3.312036 1_555
Cl1 K6 3.312036 1_545
Cl1 H2 3.548541 1_554
Cl2 Ru2 2.584781 1_555
Cl2 K2 3.248925 1_555
Cl2 K7 3.248925 1_555
Cl2 K5 3.312036 1_445
Cl2 K0 3.312036 1_455
Cl2 H1 3.548541 1_555
Cl3 Ru3 2.584781 1_555
Cl3 K4 3.248925 1_555
Cl3 K6 3.248925 1_555
Cl3 K3 3.312036 1_665
Cl3 K1 3.312036 1_655
Cl3 H0 3.548541 1_555
Cl4 Ru0 2.292762 1_555
Cl4 H0 2.737664 1_555
Cl4 K0 3.510446 1_555
Cl4 K2 3.544404 1_555
Cl4 K4 3.615539 1_555
Cl5 Ru1 2.292762 1_555
Cl5 H1 2.737664 1_555
Cl5 K1 3.510446 1_555
Cl5 K4 3.544404 1_555
Cl5 K2 3.615539 1_555
Cl6 Ru2 2.292762 1_555
Cl6 H2 2.737664 1_555
Cl6 K2 3.510446 1_555
Cl6 K0 3.544404 1_455
Cl6 K1 3.615539 1_556
Cl7 Ru1 2.292762 1_555
Cl7 H1 2.737664 1_555
Cl7 K3 3.510446 1_555
Cl7 K6 3.544404 1_545
Cl7 K7 3.615539 1_555
Cl8 Ru3 2.292762 1_555
Cl8 H3 2.737664 1_555
Cl8 K4 3.510446 1_555
Cl8 K1 3.544404 1_655
Cl8 K0 3.615539 1_554
Cl9 Ru0 2.292762 1_555
Cl9 H0 2.737664 1_555
Cl9 K5 3.510446 1_555
Cl9 K7 3.544404 1_565
Cl9 K6 3.615539 1_555
Cl10 Ru3 2.292762 1_555
Cl10 H3 2.737664 1_555
Cl10 Cl15 3.306158 1_555
Cl10 Cl19 3.313142 1_554
Cl10 K6 3.510446 1_555
Cl10 K3 3.544404 1_665
Cl10 K5 3.615539 1_554
Cl11 Ru2 2.292762 1_555
Cl11 H2 2.737664 1_555
Cl11 Cl14 3.306158 1_555
Cl11 Cl18 3.313142 1_556
Cl11 K7 3.510446 1_555
Cl11 K5 3.544404 1_445
Cl11 K3 3.615539 1_556
Cl12 Ru0 2.384333 1_455
Cl12 H0 2.848236 1_455
Cl12 K7 3.169846 1_565
Cl12 K2 3.169846 1_555
Cl12 Cl9 3.306158 1_455
Cl12 Cl4 3.306158 1_455
Cl12 K0 3.514897 1_455
Cl12 K5 3.514897 1_455
Cl13 Ru1 2.384333 1_655
Cl13 H1 2.848236 1_655
Cl13 K6 3.169846 1_545
Cl13 K4 3.169846 1_555
Cl13 Cl5 3.306158 1_655
Cl13 Cl7 3.306158 1_655
Cl13 K1 3.514897 1_655
Cl13 K3 3.514897 1_655
Cl14 Ru2 2.384333 1_555
Cl14 H2 2.848236 1_555
Cl14 K0 3.169846 1_555
Cl14 K5 3.169846 1_545
Cl14 Cl6 3.306158 1_555
Cl14 K2 3.514897 1_555
Cl14 K7 3.514897 1_555
Cl15 Ru3 2.384333 1_555
Cl15 H3 2.848236 1_555
Cl15 K3 3.169846 1_565
Cl15 K1 3.169846 1_555
Cl15 Cl8 3.306158 1_555
Cl15 K6 3.514897 1_555
Cl15 K4 3.514897 1_555
Cl16 Ru0 2.391294 1_555
Cl16 H0 2.872611 1_555
Cl16 K6 3.163543 1_555
Cl16 K4 3.163543 1_555
Cl16 Cl9 3.313142 1_555
Cl16 Cl4 3.313142 1_555
Cl16 K7 3.451323 1_565
Cl16 K2 3.451323 1_555
Cl17 Ru1 2.391294 1_555
Cl17 H1 2.872611 1_555
Cl17 K2 3.163543 1_555
Cl17 K7 3.163543 1_555
Cl17 Cl5 3.313142 1_555
Cl17 Cl7 3.313142 1_555
Cl17 K4 3.451323 1_555
Cl17 K6 3.451323 1_545
Cl18 Ru2 2.391294 1_554
Cl18 H2 2.872611 1_554
Cl18 K1 3.163543 1_555
Cl18 K3 3.163543 1_555
Cl18 Cl6 3.313142 1_554
Cl18 K0 3.451323 1_454
Cl18 K5 3.451323 1_444
Cl19 Ru3 2.391294 1_556
Cl19 H3 2.872611 1_556
Cl19 K5 3.163543 1_555
Cl19 K0 3.163543 1_555
Cl19 Cl8 3.313142 1_556
Cl19 K3 3.451323 1_666
Cl19 K1 3.451323 1_656
