# generated using pymatgen
data_KNaTiSi3(HO5)2
_symmetry_space_group_name_H-M   'P 1'
_cell_length_a   11.48098800
_cell_length_b   6.46558100
_cell_length_c   12.89893950
_cell_angle_alpha   75.31521519
_cell_angle_beta   90.00000000
_cell_angle_gamma   90.00000000
_symmetry_Int_Tables_number   1
_chemical_formula_structural   KNaTiSi3(HO5)2
_chemical_formula_sum   'K4 Na4 Ti4 Si12 H8 O40'
_cell_volume   926.22772056
_cell_formula_units_Z   4
loop_
 _symmetry_equiv_pos_site_id
 _symmetry_equiv_pos_as_xyz
  1  'x, y, z'
loop_
 _atom_site_type_symbol
 _atom_site_label
 _atom_site_symmetry_multiplicity
 _atom_site_fract_x
 _atom_site_fract_y
 _atom_site_fract_z
 _atom_site_occupancy
  K  K0  1  0.38228000  0.68353800  0.11026400  1
  K  K1  1  0.61772000  0.31646200  0.88973600  1
  K  K2  1  0.88228000  0.31646200  0.38973600  1
  K  K3  1  0.11772000  0.68353800  0.61026400  1
  Na  Na0  1  0.46045000  0.78660100  0.40308400  1
  Na  Na1  1  0.53955000  0.21339900  0.59691600  1
  Na  Na2  1  0.96045000  0.21339900  0.09691600  1
  Na  Na3  1  0.03955000  0.78660100  0.90308400  1
  Ti  Ti0  1  0.72755100  0.88544800  0.21600100  1
  Ti  Ti1  1  0.27244900  0.11455200  0.78399900  1
  Ti  Ti2  1  0.22755100  0.11455200  0.28399900  1
  Ti  Ti3  1  0.77244900  0.88544800  0.71600100  1
  Si  Si0  1  0.76348400  0.80003400  0.47740000  1
  Si  Si1  1  0.23651600  0.19996600  0.52260000  1
  Si  Si2  1  0.26348400  0.19996600  0.02260000  1
  Si  Si3  1  0.73651600  0.80003400  0.97740000  1
  Si  Si4  1  0.98155700  0.84739900  0.34087100  1
  Si  Si5  1  0.01844300  0.15260100  0.65912900  1
  Si  Si6  1  0.48155700  0.15260100  0.15912900  1
  Si  Si7  1  0.51844300  0.84739900  0.84087100  1
  Si  Si8  1  0.69933900  0.41751100  0.15228100  1
  Si  Si9  1  0.30066100  0.58248900  0.84771900  1
  Si  Si10  1  0.19933900  0.58248900  0.34771900  1
  Si  Si11  1  0.80066100  0.41751100  0.65228100  1
  H  H0  1  0.58792800  0.44633300  0.35094800  1
  H  H1  1  0.41207200  0.55366700  0.64905200  1
  H  H2  1  0.08792800  0.55366700  0.14905200  1
  H  H3  1  0.91207200  0.44633300  0.85094800  1
  H  H4  1  0.96856500  0.67216300  0.14888300  1
  H  H5  1  0.03143500  0.32783700  0.85111700  1
  H  H6  1  0.46856500  0.32783700  0.35111700  1
  H  H7  1  0.53143500  0.67216300  0.64888300  1
  O  O0  1  0.70287600  0.57423500  0.23322200  1
  O  O1  1  0.29712400  0.42576500  0.76677800  1
  O  O2  1  0.20287600  0.42576500  0.26677800  1
  O  O3  1  0.79712400  0.57423500  0.73322200  1
  O  O4  1  0.68812000  0.85672200  0.36799000  1
  O  O5  1  0.31188000  0.14327800  0.63201000  1
  O  O6  1  0.18812000  0.14327800  0.13201000  1
  O  O7  1  0.81188000  0.85672200  0.86799000  1
  O  O8  1  0.75140500  0.54016000  0.03242000  1
  O  O9  1  0.24859500  0.45984000  0.96758000  1
  O  O10  1  0.25140500  0.45984000  0.46758000  1
  O  O11  1  0.74859500  0.54016000  0.53242000  1
  O  O12  1  0.76927400  0.93489800  0.06325300  1
  O  O13  1  0.23072600  0.06510200  0.93674700  1
  O  O14  1  0.26927400  0.06510200  0.43674700  1
  O  O15  1  0.73072600  0.93489800  0.56325300  1
  O  O16  1  0.90393400  0.84995100  0.44802900  1
  O  O17  1  0.09606600  0.15004900  0.55197100  1
  O  O18  1  0.40393400  0.15004900  0.05197100  1
  O  O19  1  0.59606600  0.84995100  0.94802900  1
  O  O20  1  0.51717300  0.40148600  0.39422700  1
  O  O21  1  0.48282700  0.59851400  0.60577300  1
  O  O22  1  0.01717300  0.59851400  0.10577300  1
  O  O23  1  0.98282700  0.40148600  0.89422700  1
  O  O24  1  0.56177300  0.37010800  0.12584900  1
  O  O25  1  0.43822700  0.62989200  0.87415100  1
  O  O26  1  0.06177300  0.62989200  0.37415100  1
  O  O27  1  0.93822700  0.37010800  0.62584900  1
  O  O28  1  0.26904300  0.80418300  0.30094300  1
  O  O29  1  0.73095700  0.19581700  0.69905700  1
  O  O30  1  0.76904300  0.19581700  0.19905700  1
  O  O31  1  0.23095700  0.80418300  0.80094300  1
  O  O32  1  0.56232600  0.94078600  0.18774300  1
  O  O33  1  0.43767400  0.05921400  0.81225700  1
  O  O34  1  0.06232600  0.05921400  0.31225700  1
  O  O35  1  0.93767400  0.94078600  0.68774300  1
  O  O36  1  0.89565400  0.82379900  0.24480500  1
  O  O37  1  0.10434600  0.17620100  0.75519500  1
  O  O38  1  0.39565400  0.17620100  0.25519500  1
  O  O39  1  0.60434600  0.82379900  0.74480500  1
loop_
_geom_bond_atom_site_label_1
_geom_bond_atom_site_label_2
_geom_bond_distance
_geom_bond_site_symmetry_2
K0 O24 2.861349 1_555
K0 O18 2.928339 1_565
K0 O32 2.980086 1_555
K0 O9 3.030604 1_554
K0 O28 3.052996 1_555
K0 O2 3.064330 1_555
K0 O25 3.216240 1_554
K0 O19 3.227968 1_554
K0 O38 3.342047 1_555
K0 O13 3.365083 1_564
K1 O25 2.861349 1_555
K1 O19 2.928339 1_545
K1 O33 2.980086 1_555
K1 O8 3.030604 1_556
K1 O29 3.052996 1_555
K1 O3 3.064330 1_555
K1 O24 3.216240 1_556
K1 O18 3.227968 1_556
K1 O39 3.342047 1_555
K1 O12 3.365083 1_546
K2 O26 2.861349 1_655
K2 O16 2.928339 1_545
K2 O34 2.980086 1_655
K2 O11 3.030604 1_555
K2 O30 3.052996 1_555
K2 O0 3.064330 1_555
K2 O27 3.216240 1_555
K2 O17 3.227968 1_655
K2 O36 3.342047 1_555
K2 O15 3.365083 1_545
K3 O27 2.861349 1_455
K3 O17 2.928339 1_565
K3 O35 2.980086 1_455
K3 O10 3.030604 1_555
K3 O31 3.052996 1_555
K3 O1 3.064330 1_555
K3 O26 3.216240 1_555
K3 O16 3.227968 1_455
K3 O37 3.342047 1_555
K3 O14 3.365083 1_565
Na0 O28 2.549904 1_555
Na0 O21 2.601609 1_555
Na0 O20 2.604122 1_555
Na0 O4 2.671846 1_555
Na0 O38 2.846303 1_565
Na0 O14 2.940224 1_565
Na0 O32 2.945062 1_555
Na0 O10 3.166180 1_555
Na1 O29 2.549904 1_555
Na1 O20 2.601609 1_555
Na1 O21 2.604122 1_555
Na1 O5 2.671846 1_555
Na1 O39 2.846303 1_545
Na1 O15 2.940224 1_545
Na1 O33 2.945062 1_555
Na1 O11 3.166180 1_555
Na2 O30 2.549904 1_555
Na2 O23 2.601609 1_554
Na2 O22 2.604122 1_655
Na2 O6 2.671846 1_655
Na2 O36 2.846303 1_545
Na2 O12 2.940224 1_545
Na2 O34 2.945062 1_655
Na2 O8 3.166180 1_555
Na3 O31 2.549904 1_555
Na3 O22 2.601609 1_556
Na3 O23 2.604122 1_455
Na3 O7 2.671846 1_455
Na3 O37 2.846303 1_565
Na3 O13 2.940224 1_565
Na3 O35 2.945062 1_455
Na3 O9 3.166180 1_555
H0 O20 0.986685 1_555
H0 O0 2.023562 1_555
H0 K2 3.487564 1_555
H1 O21 0.986685 1_555
H1 O1 2.023562 1_555
H1 K3 3.487564 1_555
H2 O22 0.986685 1_555
H2 O2 2.023562 1_555
H2 K0 3.487564 1_555
H3 O23 0.986685 1_555
H3 O3 2.023562 1_555
H3 K1 3.487564 1_555
H4 O22 0.990787 1_655
H4 O36 1.951371 1_555
H4 K2 3.507120 1_555
H5 O23 0.990787 1_455
H5 O37 1.951371 1_555
H5 K3 3.507120 1_555
H6 O20 0.990787 1_555
H6 O38 1.951371 1_555
H6 K0 3.507120 1_555
H7 O21 0.990787 1_555
H7 O39 1.951371 1_555
H7 K1 3.507120 1_555
O0 Si8 1.629380 1_555
O0 Ti0 1.987919 1_555
O1 Si9 1.629380 1_555
O1 Ti1 1.987919 1_555
O2 Si10 1.629380 1_555
O2 Ti2 1.987919 1_555
O3 Si11 1.629380 1_555
O3 Ti3 1.987919 1_555
O4 Si0 1.616304 1_555
O4 Ti0 1.974431 1_555
O5 Si1 1.616304 1_555
O5 Ti1 1.974431 1_555
O6 Si2 1.616304 1_555
O6 Ti2 1.974431 1_555
O7 Si3 1.616304 1_555
O7 Ti3 1.974431 1_555
O8 Si3 1.658767 1_554
O8 Si8 1.659799 1_555
O9 Si2 1.658767 1_556
O9 Si9 1.659799 1_555
O10 Si1 1.658767 1_555
O10 Si10 1.659799 1_555
O11 Si0 1.658767 1_555
O11 Si11 1.659799 1_555
O12 Si3 1.617939 1_554
O12 Ti0 1.973406 1_555
O13 Si2 1.617939 1_556
O13 Ti1 1.973406 1_555
O14 Si1 1.617939 1_555
O14 Ti2 1.973406 1_555
O15 Si0 1.617939 1_555
O15 Ti3 1.973406 1_555
O16 Si4 1.648210 1_555
O16 Si0 1.669093 1_555
O17 Si5 1.648210 1_555
O17 Si1 1.669093 1_555
O18 Si6 1.648210 1_555
O18 Si2 1.669093 1_555
O19 Si7 1.648210 1_555
O19 Si3 1.669093 1_555
O24 Si6 1.644407 1_555
O24 Si8 1.660615 1_555
O25 Si7 1.644407 1_555
O25 Si9 1.660615 1_555
O26 Si4 1.644407 1_455
O26 Si10 1.660615 1_555
O27 Si5 1.644407 1_655
O27 Si11 1.660615 1_555
O28 Si10 1.618820 1_555
O28 Ti2 2.019713 1_565
O29 Si11 1.618820 1_555
O29 Ti3 2.019713 1_545
O30 Si8 1.618820 1_555
O30 Ti0 2.019713 1_545
O31 Si9 1.618820 1_555
O31 Ti1 2.019713 1_565
O32 Si6 1.617220 1_565
O32 Ti0 1.947603 1_555
O33 Si7 1.617220 1_545
O33 Ti1 1.947603 1_555
O34 Si4 1.617220 1_445
O34 Ti2 1.947603 1_555
O35 Si5 1.617220 1_665
O35 Ti3 1.947603 1_555
O36 Si4 1.620904 1_555
O36 Ti0 1.986629 1_555
O37 Si5 1.620904 1_555
O37 Ti1 1.986629 1_555
O38 Si6 1.620904 1_555
O38 Ti2 1.986629 1_555
O39 Si7 1.620904 1_555
O39 Ti3 1.986629 1_555
