# generated using pymatgen
data_Rb2MgNb2(TeO6)2
_symmetry_space_group_name_H-M   'P 1'
_cell_length_a   7.99062979
_cell_length_b   7.48572957
_cell_length_c   7.97194500
_cell_angle_alpha   88.29678783
_cell_angle_beta   55.70483526
_cell_angle_gamma   115.81075363
_symmetry_Int_Tables_number   1
_chemical_formula_structural   Rb2MgNb2(TeO6)2
_chemical_formula_sum   'Rb2 Mg1 Nb2 Te2 O12'
_cell_volume   329.50013826
_cell_formula_units_Z   1
loop_
 _symmetry_equiv_pos_site_id
 _symmetry_equiv_pos_as_xyz
  1  'x, y, z'
loop_
 _atom_site_type_symbol
 _atom_site_label
 _atom_site_symmetry_multiplicity
 _atom_site_fract_x
 _atom_site_fract_y
 _atom_site_fract_z
 _atom_site_occupancy
  Rb  Rb0  1  0.70429000  0.35703700  0.39360700  1
  Rb  Rb1  1  0.12035300  0.54261200  0.59533700  1
  Mg  Mg0  1  0.48026600  0.78380500  0.74570100  1
  Nb  Nb0  1  0.48674700  0.49463000  0.99822900  1
  Nb  Nb1  1  0.54208200  0.02250500  0.04776100  1
  Te  Te0  1  0.99476400  0.00358600  0.51662800  1
  Te  Te1  1  0.01567600  0.92683500  0.95733000  1
  O  O0  1  0.80290600  0.88957300  0.43146000  1
  O  O1  1  0.57056000  0.28340500  0.93898200  1
  O  O2  1  0.23274200  0.83450000  0.81889200  1
  O  O3  1  0.20727400  0.29758600  0.31734600  1
  O  O4  1  0.35293100  0.46893700  0.86568900  1
  O  O5  1  0.23561500  0.94086300  0.33081000  1
  O  O6  1  0.13113400  0.09298900  0.67030700  1
  O  O7  1  0.40532400  0.72402000  0.07679400  1
  O  O8  1  0.74988800  0.09912500  0.09982100  1
  O  O9  1  0.81432200  0.71753000  0.72185100  1
  O  O10  1  0.72516900  0.65743800  0.09876600  1
  O  O11  1  0.74938400  0.06838100  0.71728200  1
loop_
_geom_bond_atom_site_label_1
_geom_bond_atom_site_label_2
_geom_bond_distance
_geom_bond_site_symmetry_2
Mg0 O2 1.939769 1_555
Mg0 O4 2.046114 1_555
Mg0 O0 2.091787 1_555
Mg0 O11 2.155653 1_565
Mg0 O7 2.332558 1_556
Nb0 O4 1.844702 1_555
Nb0 O1 1.944677 1_555
Nb0 O9 1.992274 1_555
Nb0 O3 2.034938 1_556
Nb0 O7 2.083694 1_556
Nb0 O10 2.348221 1_556
Nb1 O8 1.794402 1_555
Nb1 O7 1.948897 1_545
Nb1 O5 1.962077 1_545
Nb1 O1 1.976876 1_554
Nb1 O11 2.082226 1_554
O0 Te0 1.899404 1_565
O0 O9 2.681252 1_555
O0 Rb0 3.769294 1_555
O1 O11 2.661256 1_555
O1 Rb1 3.044410 1_655
O1 Rb0 3.802277 1_555
O2 Te1 1.906924 1_555
O2 Rb1 3.013834 1_555
O2 Rb0 3.601897 1_565
O3 Te0 1.936150 1_455
O3 O6 2.763409 1_555
O3 Rb1 2.893844 1_555
O4 O9 2.739534 1_555
O4 Rb0 3.616035 1_555
O4 Rb1 3.706560 1_555
O5 Te0 1.932410 1_465
O5 O9 2.609354 1_455
O5 O6 2.789892 1_565
O5 Rb1 3.037995 1_555
O6 Te0 2.013537 1_455
O6 Te1 2.021482 1_545
O6 O9 2.653331 1_445
O6 Rb0 3.197057 1_555
O6 Rb1 3.447298 1_555
O7 Rb1 3.237812 1_555
O7 Rb0 3.943149 1_455
O8 Rb0 3.043862 1_555
O8 Rb1 3.631920 1_654
O9 Te0 1.945695 1_565
O9 Rb1 2.966314 1_655
O10 Te1 1.888267 1_654
O10 O9 2.639457 1_554
O10 Rb0 3.086490 1_555
O10 Rb1 3.793011 1_555
O11 Te0 1.994573 1_555
O11 O3 2.749242 1_655
O11 O6 2.774622 1_655
O11 Rb1 3.117400 1_655
O11 Rb0 3.584868 1_555
