# generated using pymatgen
data_Dy3Rh
_symmetry_space_group_name_H-M   'P 1'
_cell_length_a   6.25532400
_cell_length_b   7.14085000
_cell_length_c   9.53285300
_cell_angle_alpha   90.00000000
_cell_angle_beta   90.00000000
_cell_angle_gamma   90.00000000
_symmetry_Int_Tables_number   1
_chemical_formula_structural   Dy3Rh
_chemical_formula_sum   'Dy12 Rh4'
_cell_volume   425.81662732
_cell_formula_units_Z   4
loop_
 _symmetry_equiv_pos_site_id
 _symmetry_equiv_pos_as_xyz
  1  'x, y, z'
loop_
 _atom_site_type_symbol
 _atom_site_label
 _atom_site_symmetry_multiplicity
 _atom_site_fract_x
 _atom_site_fract_y
 _atom_site_fract_z
 _atom_site_occupancy
  Dy  Dy0  1  0.33051100  0.67779300  0.06284900  1
  Dy  Dy1  1  0.16948900  0.17779300  0.43715100  1
  Dy  Dy2  1  0.66948900  0.32220700  0.56284900  1
  Dy  Dy3  1  0.83051100  0.82220700  0.93715100  1
  Dy  Dy4  1  0.66948900  0.32220700  0.93715100  1
  Dy  Dy5  1  0.83051100  0.82220700  0.56284900  1
  Dy  Dy6  1  0.33051100  0.67779300  0.43715100  1
  Dy  Dy7  1  0.16948900  0.17779300  0.06284900  1
  Dy  Dy8  1  0.86645900  0.53122900  0.25000000  1
  Dy  Dy9  1  0.63354100  0.03122900  0.25000000  1
  Dy  Dy10  1  0.13354100  0.46877100  0.75000000  1
  Dy  Dy11  1  0.36645900  0.96877100  0.75000000  1
  Rh  Rh0  1  0.06101200  0.88241100  0.25000000  1
  Rh  Rh1  1  0.43898800  0.38241100  0.25000000  1
  Rh  Rh2  1  0.93898800  0.11758900  0.75000000  1
  Rh  Rh3  1  0.56101200  0.61758900  0.75000000  1
loop_
_geom_bond_atom_site_label_1
_geom_bond_atom_site_label_2
_geom_bond_distance
_geom_bond_site_symmetry_2
Dy0 Rh1 2.844723 1_555
Dy0 Rh0 2.856542 1_555
Dy0 Rh3 3.340382 1_554
Dy0 Dy3 3.504504 1_454
Dy0 Dy3 3.504504 1_554
Dy0 Dy4 3.518446 1_554
Dy0 Dy10 3.555321 1_554
Dy0 Dy8 3.564341 1_455
Dy0 Dy9 3.625714 1_565
Dy0 Dy11 3.641746 1_554
Dy0 Dy7 3.709781 1_565
Dy0 Dy7 3.709781 1_555
Dy1 Rh0 2.844723 1_545
Dy1 Rh1 2.856542 1_555
Dy1 Rh2 3.340382 1_455
Dy1 Dy2 3.504504 1_555
Dy1 Dy2 3.504504 1_455
Dy1 Dy5 3.518446 1_445
Dy1 Dy11 3.555321 1_545
Dy1 Dy9 3.564341 1_555
Dy1 Dy8 3.625714 1_455
Dy1 Dy10 3.641746 1_555
Dy1 Dy6 3.709781 1_545
Dy1 Dy6 3.709781 1_555
Dy2 Rh3 2.844723 1_555
Dy2 Rh2 2.856542 1_555
Dy2 Rh1 3.340382 1_555
Dy2 Dy6 3.518446 1_555
Dy2 Dy8 3.555321 1_555
Dy2 Dy9 3.641746 1_555
Dy2 Dy5 3.709781 1_555
Dy2 Dy5 3.709781 1_545
Dy3 Rh2 2.844723 1_565
Dy3 Rh3 2.856542 1_555
Dy3 Rh0 3.340382 1_656
Dy3 Dy7 3.518446 1_666
Dy3 Dy9 3.555321 1_566
Dy3 Dy8 3.641746 1_556
Dy3 Dy4 3.709781 1_565
Dy3 Dy4 3.709781 1_555
Dy4 Rh3 2.844723 1_555
Dy4 Rh2 2.856542 1_555
Dy4 Rh1 3.340382 1_556
Dy4 Dy7 3.504504 1_656
Dy4 Dy7 3.504504 1_556
Dy4 Dy8 3.555321 1_556
Dy4 Dy9 3.641746 1_556
Dy5 Rh2 2.844723 1_565
Dy5 Rh3 2.856542 1_555
Dy5 Rh0 3.340382 1_655
Dy5 Dy6 3.504504 1_555
Dy5 Dy6 3.504504 1_655
Dy5 Dy9 3.555321 1_565
Dy5 Dy8 3.641746 1_555
Dy6 Rh1 2.844723 1_555
Dy6 Rh0 2.856542 1_555
Dy6 Rh3 3.340382 1_555
Dy6 Dy8 3.564341 1_455
Dy6 Dy9 3.625714 1_565
Dy7 Rh0 2.844723 1_545
Dy7 Rh1 2.856542 1_555
Dy7 Rh2 3.340382 1_454
Dy7 Dy9 3.564341 1_555
Dy7 Dy8 3.625714 1_455
Dy8 Rh0 2.787440 1_655
Dy8 Rh1 2.877398 1_555
Dy9 Rh1 2.787440 1_555
Dy9 Rh0 2.877398 1_645
Dy10 Rh2 2.787440 1_455
Dy10 Rh3 2.877398 1_555
Dy10 Dy6 3.555321 1_555
Dy10 Dy4 3.564341 1_455
Dy10 Dy2 3.564341 1_455
Dy10 Dy3 3.625714 1_455
Dy10 Dy5 3.625714 1_455
Dy10 Dy7 3.641746 1_556
Dy11 Rh3 2.787440 1_555
Dy11 Rh2 2.877398 1_465
Dy11 Dy7 3.555321 1_566
Dy11 Dy3 3.564341 1_555
Dy11 Dy5 3.564341 1_555
Dy11 Dy4 3.625714 1_565
Dy11 Dy2 3.625714 1_565
Dy11 Dy6 3.641746 1_555
