# generated using pymatgen
data_Li2MnV3O8
_symmetry_space_group_name_H-M   'P 1'
_cell_length_a   5.89739185
_cell_length_b   6.05939536
_cell_length_c   6.11871713
_cell_angle_alpha   57.44835967
_cell_angle_beta   59.52697780
_cell_angle_gamma   61.29537855
_symmetry_Int_Tables_number   1
_chemical_formula_structural   Li2MnV3O8
_chemical_formula_sum   'Li2 Mn1 V3 O8'
_cell_volume   152.23123493
_cell_formula_units_Z   1
loop_
 _symmetry_equiv_pos_site_id
 _symmetry_equiv_pos_as_xyz
  1  'x, y, z'
loop_
 _atom_site_type_symbol
 _atom_site_label
 _atom_site_symmetry_multiplicity
 _atom_site_fract_x
 _atom_site_fract_y
 _atom_site_fract_z
 _atom_site_occupancy
  Li  Li0  1  0.14115500  0.11487100  0.11447300  1
  Li  Li1  1  0.85873900  0.88513400  0.88554300  1
  Mn  Mn0  1  0.49969900  0.50012600  0.49994300  1
  V  V0  1  0.99979000  0.50002900  0.49999800  1
  V  V1  1  0.50003000  0.99992400  0.49999900  1
  V  V2  1  0.50040700  0.49982400  0.00004000  1
  O  O0  1  0.26597000  0.26638900  0.25462400  1
  O  O1  1  0.27075400  0.25432200  0.70536100  1
  O  O2  1  0.28534400  0.70524200  0.24773800  1
  O  O3  1  0.72280300  0.23752100  0.25206600  1
  O  O4  1  0.27737600  0.76245800  0.74790700  1
  O  O5  1  0.71456900  0.29461700  0.75233900  1
  O  O6  1  0.72924800  0.74580700  0.29458500  1
  O  O7  1  0.73411800  0.73373800  0.74538400  1
loop_
_geom_bond_atom_site_label_1
_geom_bond_atom_site_label_2
_geom_bond_distance
_geom_bond_site_symmetry_2
Li0 O1 1.991986 1_554
Li0 O2 2.011626 1_545
Li0 O3 2.037983 1_455
Li0 O0 2.063193 1_555
Li1 O6 1.991712 1_556
Li1 O5 2.010919 1_565
Li1 O4 2.039371 1_655
Li1 O7 2.061720 1_555
Mn0 O1 1.953738 1_555
Mn0 O6 1.955829 1_555
Mn0 O2 1.982310 1_555
Mn0 O5 1.985192 1_555
Mn0 O4 2.263500 1_555
Mn0 O3 2.263949 1_555
O0 V2 1.913585 1_555
O0 V1 2.029506 1_545
O0 V0 2.117705 1_455
O1 V0 2.021666 1_455
O1 V1 2.035286 1_545
O2 V2 2.004715 1_555
O2 V0 2.018485 1_455
O3 V1 1.882878 1_545
O3 V2 2.008922 1_555
O4 V1 1.881883 1_555
O4 V2 2.011973 1_556
O5 V2 2.004070 1_556
O5 V0 2.017763 1_555
O6 V0 2.019997 1_555
O6 V1 2.034197 1_555
O7 V2 1.912647 1_556
O7 V1 2.029539 1_555
O7 V0 2.117867 1_555
