# generated using pymatgen
data_La3Zn
_symmetry_space_group_name_H-M   'P 1'
_cell_length_a   6.14646612
_cell_length_b   6.14646612
_cell_length_c   6.14646612
_cell_angle_alpha   133.26989316
_cell_angle_beta   133.26989316
_cell_angle_gamma   68.23061389
_symmetry_Int_Tables_number   1
_chemical_formula_structural   La3Zn
_chemical_formula_sum   'La3 Zn1'
_cell_volume   120.94811805
_cell_formula_units_Z   1
loop_
 _symmetry_equiv_pos_site_id
 _symmetry_equiv_pos_as_xyz
  1  'x, y, z'
loop_
 _atom_site_type_symbol
 _atom_site_label
 _atom_site_symmetry_multiplicity
 _atom_site_fract_x
 _atom_site_fract_y
 _atom_site_fract_z
 _atom_site_occupancy
  La  La0  1  0.75000000  0.25000000  0.50000000  1
  La  La1  1  0.25000000  0.75000000  0.50000000  1
  La  La2  1  0.50000000  0.50000000  0.00000000  1
  Zn  Zn0  1  0.00000000  0.00000000  0.00000000  1
loop_
_geom_bond_atom_site_label_1
_geom_bond_atom_site_label_2
_geom_bond_distance
_geom_bond_site_symmetry_2
La0 La1 3.447308 1_555
La0 La1 3.447308 1_645
La0 La1 3.447308 1_544
La0 La1 3.447308 1_656
La0 La2 3.523598 1_556
La0 La2 3.523598 1_555
La0 La2 3.523598 1_545
La0 La2 3.523598 1_656
La0 Zn0 3.523598 1_666
La0 Zn0 3.523598 1_656
La0 Zn0 3.523598 1_555
La0 Zn0 3.523598 1_655
La1 La2 3.523598 1_556
La1 La2 3.523598 1_555
La1 Zn0 3.523598 1_565
La1 Zn0 3.523598 1_666
La1 La2 3.523598 1_566
La1 Zn0 3.523598 1_555
La1 Zn0 3.523598 1_566
La1 La2 3.523598 1_455
La2 Zn0 3.447308 1_655
La2 Zn0 3.447308 1_554
La2 Zn0 3.447308 1_666
La2 Zn0 3.447308 1_565
