# generated using pymatgen
data_MgAgAu2
_symmetry_space_group_name_H-M   'P 1'
_cell_length_a   4.62413093
_cell_length_b   4.62413093
_cell_length_c   4.62413093
_cell_angle_alpha   60.00000000
_cell_angle_beta   60.00000000
_cell_angle_gamma   60.00000000
_symmetry_Int_Tables_number   1
_chemical_formula_structural   MgAgAu2
_chemical_formula_sum   'Mg1 Ag1 Au2'
_cell_volume   69.91580628
_cell_formula_units_Z   1
loop_
 _symmetry_equiv_pos_site_id
 _symmetry_equiv_pos_as_xyz
  1  'x, y, z'
loop_
 _atom_site_type_symbol
 _atom_site_label
 _atom_site_symmetry_multiplicity
 _atom_site_fract_x
 _atom_site_fract_y
 _atom_site_fract_z
 _atom_site_occupancy
  Mg  Mg0  1  -0.00000000  0.00000000  -0.00000000  1
  Ag  Ag0  1  0.50000000  0.50000000  0.50000000  1
  Au  Au0  1  0.75000000  0.75000000  0.75000000  1
  Au  Au1  1  0.25000000  0.25000000  0.25000000  1
loop_
_geom_bond_atom_site_label_1
_geom_bond_atom_site_label_2
_geom_bond_distance
_geom_bond_site_symmetry_2
Ag0 Au1 2.831690 1_655
Ag0 Au0 2.831690 1_455
Ag0 Au0 2.831690 1_555
Ag0 Au1 2.831690 1_555
Ag0 Au0 2.831690 1_554
Ag0 Au1 2.831690 1_556
Ag0 Au1 2.831690 1_565
Ag0 Au0 2.831690 1_545
Ag0 Mg0 3.269754 1_565
Ag0 Mg0 3.269754 1_656
Ag0 Mg0 3.269754 1_556
Ag0 Mg0 3.269754 1_566
Ag0 Mg0 3.269754 1_655
Ag0 Mg0 3.269754 1_665
Au0 Mg0 2.831690 1_566
Au0 Mg0 2.831690 1_665
Au0 Mg0 2.831690 1_656
Au0 Mg0 2.831690 1_666
Au0 Au1 3.269754 1_556
Au0 Au1 3.269754 1_655
Au0 Au1 3.269754 1_565
Au0 Au1 3.269754 1_656
Au0 Au1 3.269754 1_665
Au0 Au1 3.269754 1_566
Au1 Mg0 2.831690 1_655
Au1 Mg0 2.831690 1_565
Au1 Mg0 2.831690 1_555
Au1 Mg0 2.831690 1_556
