# generated using pymatgen
data_Mg2VP3O11
_symmetry_space_group_name_H-M   'P 1'
_cell_length_a   7.17623100
_cell_length_b   6.32767100
_cell_length_c   18.50883722
_cell_angle_alpha   81.21145506
_cell_angle_beta   90.00000000
_cell_angle_gamma   90.00000000
_symmetry_Int_Tables_number   1
_chemical_formula_structural   Mg2VP3O11
_chemical_formula_sum   'Mg8 V4 P12 O44'
_cell_volume   830.59668159
_cell_formula_units_Z   4
loop_
 _symmetry_equiv_pos_site_id
 _symmetry_equiv_pos_as_xyz
  1  'x, y, z'
loop_
 _atom_site_type_symbol
 _atom_site_label
 _atom_site_symmetry_multiplicity
 _atom_site_fract_x
 _atom_site_fract_y
 _atom_site_fract_z
 _atom_site_occupancy
  Mg  Mg0  1  0.09621800  0.39421400  0.57597600  1
  Mg  Mg1  1  0.59621800  0.60578600  0.92402400  1
  Mg  Mg2  1  0.90378200  0.60578600  0.42402400  1
  Mg  Mg3  1  0.40378200  0.39421400  0.07597600  1
  Mg  Mg4  1  0.45650000  0.34848700  0.72775600  1
  Mg  Mg5  1  0.95650000  0.65151300  0.77224400  1
  Mg  Mg6  1  0.54350000  0.65151300  0.27224400  1
  Mg  Mg7  1  0.04350000  0.34848700  0.22775600  1
  V  V0  1  0.66085300  0.06117900  0.62483400  1
  V  V1  1  0.16085300  0.93882100  0.87516600  1
  V  V2  1  0.33914700  0.93882100  0.37516600  1
  V  V3  1  0.83914700  0.06117900  0.12483400  1
  P  P0  1  0.68420500  0.59247100  0.58788300  1
  P  P1  1  0.18420500  0.40752900  0.91211700  1
  P  P2  1  0.31579500  0.40752900  0.41211700  1
  P  P3  1  0.81579500  0.59247100  0.08788300  1
  P  P4  1  0.33119600  0.82292000  0.55395500  1
  P  P5  1  0.83119600  0.17708000  0.94604500  1
  P  P6  1  0.66880400  0.17708000  0.44604500  1
  P  P7  1  0.16880400  0.82292000  0.05395500  1
  P  P8  1  0.53156400  0.81081900  0.78352500  1
  P  P9  1  0.03156400  0.18918100  0.71647500  1
  P  P10  1  0.46843600  0.18918100  0.21647500  1
  P  P11  1  0.96843600  0.81081900  0.28352500  1
  O  O0  1  0.40064500  0.00058000  0.59522300  1
  O  O1  1  0.90064500  0.99942000  0.90477700  1
  O  O2  1  0.59935500  0.99942000  0.40477700  1
  O  O3  1  0.09935500  0.00058000  0.09522300  1
  O  O4  1  0.73979600  0.74527300  0.64089800  1
  O  O5  1  0.23979600  0.25472700  0.85910200  1
  O  O6  1  0.26020400  0.25472700  0.35910200  1
  O  O7  1  0.76020400  0.74527300  0.14089800  1
  O  O8  1  0.20121400  0.66618700  0.59792400  1
  O  O9  1  0.70121400  0.33381300  0.90207600  1
  O  O10  1  0.79878600  0.33381300  0.40207600  1
  O  O11  1  0.29878600  0.66618700  0.09792400  1
  O  O12  1  0.60463300  0.38357200  0.63155200  1
  O  O13  1  0.10463300  0.61642800  0.86844800  1
  O  O14  1  0.39536700  0.61642800  0.36844800  1
  O  O15  1  0.89536700  0.38357200  0.13155200  1
  O  O16  1  0.84237600  0.54937900  0.53586000  1
  O  O17  1  0.34237600  0.45062100  0.96414000  1
  O  O18  1  0.15762400  0.45062100  0.46414000  1
  O  O19  1  0.65762400  0.54937900  0.03586000  1
  O  O20  1  0.74648200  0.08965600  0.52144100  1
  O  O21  1  0.24648200  0.91034400  0.97855900  1
  O  O22  1  0.25351800  0.91034400  0.47855900  1
  O  O23  1  0.75351800  0.08965600  0.02144100  1
  O  O24  1  0.52037900  0.69334300  0.53556500  1
  O  O25  1  0.02037900  0.30665700  0.96443500  1
  O  O26  1  0.47962100  0.30665700  0.46443500  1
  O  O27  1  0.97962100  0.69334300  0.03556500  1
  O  O28  1  0.56067500  0.03156500  0.73277800  1
  O  O29  1  0.06067500  0.96843500  0.76722200  1
  O  O30  1  0.43932500  0.96843500  0.26722200  1
  O  O31  1  0.93932500  0.03156500  0.23277800  1
  O  O32  1  0.42677700  0.64549900  0.74697000  1
  O  O33  1  0.92677700  0.35450100  0.75303000  1
  O  O34  1  0.57322300  0.35450100  0.25303000  1
  O  O35  1  0.07322300  0.64549900  0.24697000  1
  O  O36  1  0.92953400  0.14748300  0.64487200  1
  O  O37  1  0.42953400  0.85251700  0.85512800  1
  O  O38  1  0.07046600  0.85251700  0.35512800  1
  O  O39  1  0.57046600  0.14748300  0.14487200  1
  O  O40  1  0.71863500  0.71815800  0.81514300  1
  O  O41  1  0.21863500  0.28184200  0.68485700  1
  O  O42  1  0.28136500  0.28184200  0.18485700  1
  O  O43  1  0.78136500  0.71815800  0.31514300  1
loop_
_geom_bond_atom_site_label_1
_geom_bond_atom_site_label_2
_geom_bond_distance
_geom_bond_site_symmetry_2
Mg0 O8 1.976884 1_555
Mg0 O18 2.092970 1_555
Mg0 O16 2.147293 1_455
Mg0 O36 2.210427 1_455
Mg0 O41 2.213762 1_555
Mg1 O9 1.976884 1_555
Mg1 O19 2.092970 1_556
Mg1 O17 2.147293 1_555
Mg1 O37 2.210427 1_555
Mg1 O40 2.213762 1_555
Mg2 O10 1.976884 1_555
Mg2 O16 2.092970 1_555
Mg2 O18 2.147293 1_655
Mg2 O38 2.210427 1_655
Mg2 O43 2.213762 1_555
Mg3 O11 1.976884 1_555
Mg3 O17 2.092970 1_554
Mg3 O19 2.147293 1_555
Mg3 O39 2.210427 1_555
Mg3 O42 2.213762 1_555
Mg4 O41 1.955600 1_555
Mg4 O32 1.976949 1_555
Mg4 O12 2.056492 1_555
Mg4 O28 2.128874 1_555
Mg5 O40 1.955600 1_555
Mg5 O33 1.976949 1_555
Mg5 O13 2.056492 1_655
Mg5 O29 2.128874 1_655
Mg6 O43 1.955600 1_555
Mg6 O34 1.976949 1_555
Mg6 O14 2.056492 1_555
Mg6 O30 2.128874 1_555
Mg7 O42 1.955600 1_555
Mg7 O35 1.976949 1_555
Mg7 O15 2.056492 1_455
Mg7 O31 2.128874 1_455
O0 P4 1.535567 1_545
O0 V0 1.999621 1_555
O1 P5 1.535567 1_565
O1 V1 1.999621 1_655
O2 P6 1.535567 1_565
O2 V2 1.999621 1_555
O3 P7 1.535567 1_545
O3 V3 1.999621 1_455
O4 P0 1.531916 1_555
O4 V0 2.055121 1_565
O5 P1 1.531916 1_555
O5 V1 2.055121 1_545
O6 P2 1.531916 1_555
O6 V2 2.055121 1_545
O7 P3 1.531916 1_555
O7 V3 2.055121 1_565
O8 P4 1.506426 1_555
O9 P5 1.506426 1_555
O10 P6 1.506426 1_555
O11 P7 1.506426 1_555
O12 P0 1.549243 1_555
O12 V0 2.101745 1_555
O13 P1 1.549243 1_555
O13 V1 2.101745 1_555
O14 P2 1.549243 1_555
O14 V2 2.101745 1_555
O15 P3 1.549243 1_555
O15 V3 2.101745 1_555
O16 P0 1.539518 1_555
O17 P1 1.539518 1_555
O18 P2 1.539518 1_555
O19 P3 1.539518 1_555
O20 P6 1.525862 1_555
O20 V0 1.991704 1_555
O21 P7 1.525862 1_556
O21 V1 1.991704 1_555
O22 P4 1.525862 1_555
O22 V2 1.991704 1_555
O23 P5 1.525862 1_554
O23 V3 1.991704 1_555
O24 P0 1.593233 1_555
O24 P4 1.648194 1_555
O25 P1 1.593233 1_555
O25 P5 1.648194 1_455
O26 P2 1.593233 1_555
O26 P6 1.648194 1_555
O27 P3 1.593233 1_555
O27 P7 1.648194 1_655
O28 P8 1.573541 1_545
O28 V0 2.104568 1_555
O29 P9 1.573541 1_565
O29 V1 2.104568 1_555
O30 P10 1.573541 1_565
O30 V2 2.104568 1_555
O31 P11 1.573541 1_545
O31 V3 2.104568 1_555
O32 P8 1.527687 1_555
O33 P9 1.527687 1_655
O34 P10 1.527687 1_555
O35 P11 1.527687 1_455
O36 P9 1.571294 1_655
O36 V0 2.053121 1_555
O37 P8 1.571294 1_555
O37 V1 2.053121 1_555
O38 P11 1.571294 1_455
O38 V2 2.053121 1_555
O39 P10 1.571294 1_555
O39 V3 2.053121 1_555
O40 P8 1.543896 1_555
O41 P9 1.543896 1_555
O42 P10 1.543896 1_555
O43 P11 1.543896 1_555
