# generated using pymatgen
data_TiZn2WO6
_symmetry_space_group_name_H-M   'P 1'
_cell_length_a   5.30871300
_cell_length_b   5.27984500
_cell_length_c   9.28154807
_cell_angle_alpha   56.78954849
_cell_angle_beta   90.00000000
_cell_angle_gamma   90.00000000
_symmetry_Int_Tables_number   1
_chemical_formula_structural   TiZn2WO6
_chemical_formula_sum   'Ti2 Zn4 W2 O12'
_cell_volume   217.66176038
_cell_formula_units_Z   2
loop_
 _symmetry_equiv_pos_site_id
 _symmetry_equiv_pos_as_xyz
  1  'x, y, z'
loop_
 _atom_site_type_symbol
 _atom_site_label
 _atom_site_symmetry_multiplicity
 _atom_site_fract_x
 _atom_site_fract_y
 _atom_site_fract_z
 _atom_site_occupancy
  Ti  Ti0  1  0.00000000  0.50000000  0.00000000  1
  Ti  Ti1  1  0.50000000  0.50000000  0.50000000  1
  Zn  Zn0  1  0.03129500  0.24730500  0.74650600  1
  Zn  Zn1  1  0.53129500  0.75269500  0.75349400  1
  Zn  Zn2  1  0.96870500  0.75269500  0.25349400  1
  Zn  Zn3  1  0.46870500  0.24730500  0.24650600  1
  W  W0  1  0.00000000  0.00000000  0.50000000  1
  W  W1  1  0.50000000  0.00000000  0.00000000  1
  O  O0  1  0.32601600  0.75581700  0.56589600  1
  O  O1  1  0.82601600  0.24418300  0.93410400  1
  O  O2  1  0.67398400  0.24418300  0.43410400  1
  O  O3  1  0.17398400  0.75581700  0.06589600  1
  O  O4  1  0.18714300  0.40562400  0.43103600  1
  O  O5  1  0.68714300  0.59437600  0.06896400  1
  O  O6  1  0.81285700  0.59437600  0.56896400  1
  O  O7  1  0.31285700  0.40562400  0.93103600  1
  O  O8  1  0.42198500  0.13826600  0.74482200  1
  O  O9  1  0.92198500  0.86173400  0.75517800  1
  O  O10  1  0.07801500  0.13826600  0.24482200  1
  O  O11  1  0.57801500  0.86173400  0.25517800  1
loop_
_geom_bond_atom_site_label_1
_geom_bond_atom_site_label_2
_geom_bond_distance
_geom_bond_site_symmetry_2
O0 Ti1 1.989075 1_555
O0 W0 2.041536 1_565
O0 Zn1 2.046509 1_555
O0 Zn0 2.745231 1_555
O0 Zn3 2.769263 1_565
O1 Ti0 1.989075 1_656
O1 W1 2.041536 1_556
O1 Zn0 2.046509 1_655
O1 Zn1 2.745231 1_555
O1 Zn2 2.769263 1_546
O2 Ti1 1.989075 1_555
O2 W0 2.041536 1_655
O2 Zn3 2.046509 1_555
O2 Zn2 2.745231 1_555
O2 Zn1 2.769263 1_545
O3 Ti0 1.989075 1_555
O3 W1 2.041536 1_565
O3 Zn2 2.046509 1_455
O3 Zn3 2.745231 1_555
O3 Zn0 2.769263 1_564
O4 Ti1 1.940589 1_555
O4 Zn2 2.027392 1_455
O4 W0 2.116993 1_555
O4 Zn0 2.697329 1_555
O4 Zn3 2.726659 1_555
O5 Ti0 1.940589 1_655
O5 Zn3 2.027392 1_555
O5 W1 2.116993 1_565
O5 Zn1 2.697329 1_554
O5 Zn2 2.726659 1_555
O6 Ti1 1.940589 1_555
O6 Zn0 2.027392 1_655
O6 W0 2.116993 1_665
O6 Zn2 2.697329 1_555
O6 Zn1 2.726659 1_555
O7 Ti0 1.940589 1_556
O7 Zn1 2.027392 1_555
O7 W1 2.116993 1_556
O7 Zn3 2.697329 1_556
O7 Zn0 2.726659 1_555
O8 Ti1 2.056364 1_555
O8 Zn1 2.075578 1_545
O8 W1 2.102374 1_556
O8 Zn0 2.154825 1_555
O9 Ti0 2.056364 1_656
O9 Zn0 2.075578 1_665
O9 W0 2.102374 1_665
O9 Zn1 2.154825 1_555
O10 Ti0 2.056364 1_555
O10 Zn2 2.075578 1_445
O10 W0 2.102374 1_555
O10 Zn3 2.154825 1_555
O11 Ti1 2.056364 1_555
O11 Zn3 2.075578 1_565
O11 W1 2.102374 1_565
O11 Zn2 2.154825 1_555
