# generated using pymatgen
data_SrLaCoO4
_symmetry_space_group_name_H-M   'P 1'
_cell_length_a   5.44911835
_cell_length_b   5.43894944
_cell_length_c   7.01524399
_cell_angle_alpha   89.99733647
_cell_angle_beta   112.84969693
_cell_angle_gamma   90.01551616
_symmetry_Int_Tables_number   1
_chemical_formula_structural   SrLaCoO4
_chemical_formula_sum   'Sr2 La2 Co2 O8'
_cell_volume   191.59842795
_cell_formula_units_Z   2
loop_
 _symmetry_equiv_pos_site_id
 _symmetry_equiv_pos_as_xyz
  1  'x, y, z'
loop_
 _atom_site_type_symbol
 _atom_site_label
 _atom_site_symmetry_multiplicity
 _atom_site_fract_x
 _atom_site_fract_y
 _atom_site_fract_z
 _atom_site_occupancy
  Sr  Sr0  1  0.14439100  0.50005500  0.28874100  1
  Sr  Sr1  1  0.35554700  0.99999600  0.71114300  1
  La  La0  1  0.64209200  0.00118100  0.28154600  1
  La  La1  1  0.85861600  0.50082400  0.71859200  1
  Co  Co0  1  0.00670000  0.00016100  0.01318400  1
  Co  Co1  1  0.49314900  0.50020700  0.98647300  1
  O  O0  1  0.82070900  0.99774200  0.64134400  1
  O  O1  1  0.67969700  0.49728300  0.35904000  1
  O  O2  1  0.33673000  0.50080600  0.67130500  1
  O  O3  1  0.16205600  0.00079300  0.32863100  1
  O  O4  1  0.23627600  0.24319900  0.99319400  1
  O  O5  1  0.75721300  0.75718200  0.99410200  1
  O  O6  1  0.26411600  0.74316300  0.00722900  1
  O  O7  1  0.74270800  0.25740800  0.00547600  1
loop_
_geom_bond_atom_site_label_1
_geom_bond_atom_site_label_2
_geom_bond_distance
_geom_bond_site_symmetry_2
La0 O0 2.326085 1_545
La0 O7 2.611038 1_555
La0 O6 2.614434 1_545
La0 O5 2.684035 1_544
La0 O4 2.691092 1_554
La0 O3 2.722154 1_655
La0 O1 2.744364 1_555
La0 O3 2.760870 1_555
La0 O1 2.786124 1_545
La1 O1 2.324491 1_555
La1 O5 2.610579 1_555
La1 O4 2.613787 1_655
La1 O7 2.681155 1_556
La1 O6 2.691407 1_656
La1 O2 2.732159 1_555
La1 O0 2.748494 1_555
La1 O2 2.751152 1_655
La1 O0 2.781408 1_545
Co0 O4 1.862072 1_554
Co0 O5 1.862879 1_444
Co0 O6 1.992412 1_545
Co0 O7 1.992631 1_455
Co0 O3 2.039324 1_555
Co0 O0 2.403882 1_444
Co1 O6 1.861984 1_556
Co1 O7 1.863091 1_556
Co1 O4 1.991395 1_555
Co1 O5 1.991468 1_555
Co1 O2 2.037490 1_555
Co1 O1 2.408601 1_556
O0 Sr1 2.761395 1_655
O0 Sr1 2.762003 1_555
O1 Sr0 2.761368 1_655
O1 Sr0 2.763119 1_555
O2 Sr0 2.473185 1_555
O2 Sr1 2.727248 1_555
O2 Sr1 2.736050 1_545
O3 Sr1 2.472873 1_545
O3 Sr0 2.727719 1_555
O3 Sr0 2.735685 1_545
O4 Sr1 2.662073 1_545
O4 Sr0 2.703324 1_556
O5 Sr1 2.664974 1_555
O5 Sr0 2.700719 1_656
O6 Sr0 2.659700 1_555
O6 Sr1 2.704999 1_554
O7 Sr0 2.664993 1_655
O7 Sr1 2.699994 1_544
