# generated using pymatgen
data_CaAgF5
_symmetry_space_group_name_H-M   'P 1'
_cell_length_a   5.75146600
_cell_length_b   5.81747768
_cell_length_c   8.12080823
_cell_angle_alpha   110.44537784
_cell_angle_beta   96.32344410
_cell_angle_gamma   108.87016346
_symmetry_Int_Tables_number   1
_chemical_formula_structural   CaAgF5
_chemical_formula_sum   'Ca2 Ag2 F10'
_cell_volume   233.16163946
_cell_formula_units_Z   2
loop_
 _symmetry_equiv_pos_site_id
 _symmetry_equiv_pos_as_xyz
  1  'x, y, z'
loop_
 _atom_site_type_symbol
 _atom_site_label
 _atom_site_symmetry_multiplicity
 _atom_site_fract_x
 _atom_site_fract_y
 _atom_site_fract_z
 _atom_site_occupancy
  Ca  Ca0  1  0.45868100  0.45808100  0.25415100  1
  Ca  Ca1  1  0.54131900  0.54191900  0.74584900  1
  Ag  Ag0  1  0.00000000  0.00000000  0.00000000  1
  Ag  Ag1  1  0.00000000  0.00000000  0.50000000  1
  F  F0  1  0.90047600  0.89830900  0.74411300  1
  F  F1  1  0.09952400  0.10169100  0.25588700  1
  F  F2  1  0.26093100  0.77938900  0.62759200  1
  F  F3  1  0.78915900  0.25760200  0.87978300  1
  F  F4  1  0.32613100  0.30305500  0.97881600  1
  F  F5  1  0.30458300  0.32275700  0.53102600  1
  F  F6  1  0.67386900  0.69694500  0.02118400  1
  F  F7  1  0.69541700  0.67724300  0.46897400  1
  F  F8  1  0.21084100  0.74239800  0.12021700  1
  F  F9  1  0.73906900  0.22061100  0.37240800  1
loop_
_geom_bond_atom_site_label_1
_geom_bond_atom_site_label_2
_geom_bond_distance
_geom_bond_site_symmetry_2
Ca0 F7 1.822852 1_555
Ca0 F4 2.040825 1_554
Ca0 F1 2.412945 1_555
Ca0 F9 2.730958 1_555
Ca0 F8 2.896721 1_555
Ca1 F5 1.822852 1_555
Ca1 F6 2.040825 1_556
Ca1 F0 2.412945 1_555
Ca1 F2 2.730958 1_555
Ca1 F3 2.896721 1_555
Ag0 F1 1.912027 1_555
Ag0 F0 1.912027 1_444
Ag0 F4 2.190905 1_554
Ag0 F6 2.190905 1_445
Ag0 F8 2.570251 1_545
Ag0 F3 2.570251 1_454
Ag1 F5 2.025440 1_555
Ag1 F7 2.025440 1_445
Ag1 F0 2.336184 1_445
Ag1 F1 2.336184 1_555
Ag1 F2 2.608694 1_545
Ag1 F9 2.608694 1_455
F0 F7 2.113792 1_555
F0 F3 2.324815 1_565
F0 F2 2.564066 1_655
F0 F4 2.697854 1_665
F1 F5 2.113792 1_555
F1 F8 2.324815 1_545
F1 F9 2.564066 1_455
F1 F6 2.697854 1_445
F2 F5 2.598868 1_555
F2 F7 3.064610 1_555
F2 F3 3.216453 1_565
F2 F4 3.242138 1_565
F2 F9 3.388599 1_455
F3 F6 2.739399 1_556
F3 F8 2.886813 1_656
F3 F4 2.930438 1_555
F3 F4 3.005135 1_655
F4 F6 2.387947 1_556
F4 F8 2.739399 1_556
F5 F9 3.064610 1_555
F6 F8 2.930438 1_555
F6 F8 3.005135 1_655
F6 F9 3.242138 1_565
F7 F9 2.598868 1_555
F8 F9 3.216453 1_565
