# generated using pymatgen
data_K4Nb2S11
_symmetry_space_group_name_H-M   'P 1'
_cell_length_a   7.57475300
_cell_length_b   13.53308300
_cell_length_c   18.42313200
_cell_angle_alpha   90.00000000
_cell_angle_beta   90.00000000
_cell_angle_gamma   90.00000000
_symmetry_Int_Tables_number   1
_chemical_formula_structural   K4Nb2S11
_chemical_formula_sum   'K16 Nb8 S44'
_cell_volume   1888.55085918
_cell_formula_units_Z   4
loop_
 _symmetry_equiv_pos_site_id
 _symmetry_equiv_pos_as_xyz
  1  'x, y, z'
loop_
 _atom_site_type_symbol
 _atom_site_label
 _atom_site_symmetry_multiplicity
 _atom_site_fract_x
 _atom_site_fract_y
 _atom_site_fract_z
 _atom_site_occupancy
  K  K0  1  0.66862000  0.77477700  0.37300500  1
  K  K1  1  0.33138000  0.22522300  0.87300500  1
  K  K2  1  0.33138000  0.27477700  0.37300500  1
  K  K3  1  0.66862000  0.72522300  0.87300500  1
  K  K4  1  0.18626900  0.59131500  0.47256100  1
  K  K5  1  0.81373100  0.40868500  0.97256100  1
  K  K6  1  0.81373100  0.09131500  0.47256100  1
  K  K7  1  0.18626900  0.90868500  0.97256100  1
  K  K8  1  0.78290900  0.46129900  0.26777900  1
  K  K9  1  0.21709100  0.53870100  0.76777900  1
  K  K10  1  0.21709100  0.96129900  0.26777900  1
  K  K11  1  0.78290900  0.03870100  0.76777900  1
  K  K12  1  0.20703500  0.28433800  0.11963900  1
  K  K13  1  0.79296500  0.71566200  0.61963900  1
  K  K14  1  0.79296500  0.78433800  0.11963900  1
  K  K15  1  0.20703500  0.21566200  0.61963900  1
  Nb  Nb0  1  0.25950400  0.55537900  0.02673400  1
  Nb  Nb1  1  0.74049600  0.44462100  0.52673400  1
  Nb  Nb2  1  0.74049600  0.05537900  0.02673400  1
  Nb  Nb3  1  0.25950400  0.94462100  0.52673400  1
  Nb  Nb4  1  0.19733800  0.61732000  0.21026400  1
  Nb  Nb5  1  0.80266200  0.38268000  0.71026400  1
  Nb  Nb6  1  0.80266200  0.11732000  0.21026400  1
  Nb  Nb7  1  0.19733800  0.88268000  0.71026400  1
  S  S0  1  0.25398500  0.41149800  0.96478500  1
  S  S1  1  0.74601500  0.58850200  0.46478500  1
  S  S2  1  0.74601500  0.91149800  0.96478500  1
  S  S3  1  0.25398500  0.08850200  0.46478500  1
  S  S4  1  0.25762600  0.67309900  0.91963300  1
  S  S5  1  0.74237400  0.32690100  0.41963300  1
  S  S6  1  0.74237400  0.17309900  0.91963300  1
  S  S7  1  0.25762600  0.82690100  0.41963300  1
  S  S8  1  0.01802400  0.65399400  0.97279500  1
  S  S9  1  0.98197600  0.34600600  0.47279500  1
  S  S10  1  0.98197600  0.15399400  0.97279500  1
  S  S11  1  0.01802400  0.84600600  0.47279500  1
  S  S12  1  0.46565200  0.51736300  0.12831500  1
  S  S13  1  0.53434800  0.48263700  0.62831500  1
  S  S14  1  0.53434800  0.01736300  0.12831500  1
  S  S15  1  0.46565200  0.98263700  0.62831500  1
  S  S16  1  0.39287100  0.56625500  0.31553800  1
  S  S17  1  0.57692300  0.59402100  0.04187000  1
  S  S18  1  0.42307700  0.09402100  0.04187000  1
  S  S19  1  0.57692300  0.90597900  0.54187000  1
  S  S20  1  0.24463900  0.45482700  0.26654000  1
  S  S21  1  0.75536100  0.54517300  0.76654000  1
  S  S22  1  0.75536100  0.95482700  0.26654000  1
  S  S23  1  0.24463900  0.04517300  0.76654000  1
  S  S24  1  0.02843100  0.98564100  0.61989800  1
  S  S25  1  0.97156900  0.01435900  0.11989800  1
  S  S26  1  0.97156900  0.48564100  0.61989800  1
  S  S27  1  0.02843100  0.51435900  0.11989800  1
  S  S28  1  0.22389000  0.76436500  0.60605900  1
  S  S29  1  0.77611000  0.23563500  0.10605900  1
  S  S30  1  0.77611000  0.26436500  0.60605900  1
  S  S31  1  0.22389000  0.73563500  0.10605900  1
  S  S32  1  0.39746000  0.74025200  0.69186700  1
  S  S33  1  0.60254000  0.25974800  0.19186700  1
  S  S34  1  0.60254000  0.24025200  0.69186700  1
  S  S35  1  0.39746000  0.75974800  0.19186700  1
  S  S36  1  0.96627500  0.81720000  0.77091800  1
  S  S37  1  0.03372500  0.18280000  0.27091800  1
  S  S38  1  0.03372500  0.31720000  0.77091800  1
  S  S39  1  0.96627500  0.68280000  0.27091800  1
  S  S40  1  0.39287100  0.93374500  0.81553800  1
  S  S41  1  0.60712900  0.06625500  0.31553800  1
  S  S42  1  0.60712900  0.43374500  0.81553800  1
  S  S43  1  0.42307700  0.40597900  0.54187000  1
loop_
_geom_bond_atom_site_label_1
_geom_bond_atom_site_label_2
_geom_bond_distance
_geom_bond_site_symmetry_2
K0 S1 3.091530 1_555
K0 S39 3.189064 1_555
K0 S22 3.196254 1_555
K0 S7 3.305662 1_555
K0 S11 3.363603 1_655
K0 S19 3.648773 1_555
K0 S16 3.667024 1_555
K0 S35 3.923849 1_555
K1 S0 3.091530 1_555
K1 S38 3.189064 1_555
K1 S23 3.196254 1_555
K1 S6 3.305662 1_555
K1 S10 3.363603 1_455
K1 S18 3.648773 1_556
K1 S42 3.667024 1_555
K1 S34 3.923849 1_555
K2 S3 3.091530 1_555
K2 S37 3.189064 1_555
K2 S20 3.196254 1_555
K2 S5 3.305662 1_555
K2 S9 3.363603 1_455
K2 S43 3.648773 1_555
K2 S41 3.667024 1_555
K2 S33 3.923849 1_555
K3 S2 3.091530 1_555
K3 S36 3.189064 1_555
K3 S21 3.196254 1_555
K3 S4 3.305662 1_555
K3 S8 3.363603 1_655
K3 S17 3.648773 1_556
K3 S40 3.667024 1_555
K3 S32 3.923849 1_555
K4 S16 3.306467 1_555
K4 S43 3.337504 1_555
K4 S1 3.338108 1_455
K4 S7 3.377517 1_555
K4 S28 3.408021 1_555
K4 S26 3.472469 1_455
K4 S9 3.662740 1_455
K4 S11 3.674815 1_555
K4 S1 4.242528 1_555
K4 S39 4.255604 1_455
K5 S42 3.306467 1_555
K5 S17 3.337504 1_556
K5 S0 3.338108 1_655
K5 S6 3.377517 1_555
K5 S29 3.408021 1_556
K5 S27 3.472469 1_656
K5 S8 3.662740 1_655
K5 S10 3.674815 1_555
K5 S0 4.242528 1_555
K5 S38 4.255604 1_655
K6 S41 3.306467 1_555
K6 S19 3.337504 1_545
K6 S3 3.338108 1_655
K6 S5 3.377517 1_555
K6 S30 3.408021 1_555
K6 S24 3.472469 1_645
K6 S11 3.662740 1_645
K6 S9 3.674815 1_555
K6 S3 4.242528 1_555
K6 S37 4.255604 1_655
K7 S40 3.306467 1_555
K7 S18 3.337504 1_566
K7 S2 3.338108 1_455
K7 S4 3.377517 1_555
K7 S31 3.408021 1_556
K7 S25 3.472469 1_466
K7 S10 3.662740 1_465
K7 S8 3.674815 1_555
K7 S2 4.242528 1_555
K7 S36 4.255604 1_455
K8 S39 3.304253 1_555
K8 S5 3.350984 1_555
K8 S33 3.355947 1_555
K8 S27 3.375927 1_655
K8 S16 3.394167 1_555
K8 S20 3.498662 1_655
K8 S12 3.598942 1_555
K8 S1 4.026726 1_555
K8 S37 4.221117 1_655
K9 S38 3.304253 1_555
K9 S4 3.350984 1_555
K9 S32 3.355947 1_555
K9 S26 3.375927 1_455
K9 S42 3.394167 1_555
K9 S21 3.498662 1_455
K9 S13 3.598942 1_555
K9 S0 4.026726 1_555
K9 S36 4.221117 1_455
K10 S37 3.304253 1_565
K10 S7 3.350984 1_555
K10 S35 3.355947 1_555
K10 S25 3.375927 1_465
K10 S41 3.394167 1_565
K10 S22 3.498662 1_455
K10 S14 3.598942 1_565
K10 S3 4.026726 1_565
K10 S39 4.221117 1_455
K11 S36 3.304253 1_545
K11 S6 3.350984 1_555
K11 S34 3.355947 1_555
K11 S24 3.375927 1_645
K11 S40 3.394167 1_545
K11 S23 3.498662 1_655
K11 S15 3.598942 1_545
K11 S2 4.026726 1_545
K11 S38 4.221117 1_655
K12 S33 3.294927 1_555
K12 S29 3.339414 1_455
K12 S0 3.350653 1_554
K12 S18 3.371109 1_555
K12 S37 3.373301 1_555
K12 S27 3.394174 1_555
K12 S20 3.567769 1_555
K12 S10 3.651926 1_454
K12 S12 3.715902 1_555
K13 S32 3.294927 1_555
K13 S28 3.339414 1_655
K13 S1 3.350653 1_555
K13 S19 3.371109 1_555
K13 S36 3.373301 1_555
K13 S26 3.394174 1_555
K13 S21 3.567769 1_555
K13 S11 3.651926 1_655
K13 S13 3.715902 1_555
K14 S35 3.294927 1_555
K14 S31 3.339414 1_655
K14 S2 3.350653 1_554
K14 S17 3.371109 1_555
K14 S39 3.373301 1_555
K14 S25 3.394174 1_565
K14 S22 3.567769 1_555
K14 S8 3.651926 1_654
K14 S14 3.715902 1_565
K15 S34 3.294927 1_555
K15 S30 3.339414 1_455
K15 S3 3.350653 1_555
K15 S43 3.371109 1_555
K15 S38 3.373301 1_555
K15 S24 3.394174 1_545
K15 S23 3.567769 1_555
K15 S9 3.651926 1_455
K15 S15 3.715902 1_545
Nb0 S0 2.257367 1_554
Nb0 S8 2.472721 1_554
Nb0 S17 2.476334 1_555
Nb0 S12 2.491047 1_555
Nb0 S27 2.513508 1_555
Nb0 S4 2.536037 1_554
Nb0 S31 2.856444 1_555
Nb1 S1 2.257367 1_555
Nb1 S9 2.472721 1_555
Nb1 S43 2.476334 1_555
Nb1 S13 2.491047 1_555
Nb1 S26 2.513508 1_555
Nb1 S5 2.536037 1_555
Nb1 S30 2.856444 1_555
Nb2 S2 2.257367 1_544
Nb2 S10 2.472721 1_554
Nb2 S18 2.476334 1_555
Nb2 S14 2.491047 1_555
Nb2 S25 2.513508 1_555
Nb2 S6 2.536037 1_554
Nb2 S29 2.856444 1_555
Nb3 S3 2.257367 1_565
Nb3 S11 2.472721 1_555
Nb3 S19 2.476334 1_555
Nb3 S15 2.491047 1_555
Nb3 S24 2.513508 1_555
Nb3 S7 2.536037 1_555
Nb3 S28 2.856444 1_555
Nb4 S39 2.257715 1_455
Nb4 S20 2.457443 1_555
Nb4 S35 2.475473 1_555
Nb4 S31 2.507938 1_555
Nb4 S27 2.519938 1_555
Nb4 S16 2.536305 1_555
Nb4 S12 2.870529 1_555
Nb5 S38 2.257715 1_655
Nb5 S21 2.457443 1_555
Nb5 S34 2.475473 1_555
Nb5 S30 2.507938 1_555
Nb5 S26 2.519938 1_555
Nb5 S42 2.536305 1_555
Nb5 S13 2.870529 1_555
Nb6 S37 2.257715 1_655
Nb6 S22 2.457443 1_545
Nb6 S33 2.475473 1_555
Nb6 S29 2.507938 1_555
Nb6 S25 2.519938 1_555
Nb6 S41 2.536305 1_555
Nb6 S14 2.870529 1_555
Nb7 S36 2.257715 1_455
Nb7 S23 2.457443 1_565
Nb7 S32 2.475473 1_555
Nb7 S28 2.507938 1_555
Nb7 S24 2.519938 1_555
Nb7 S40 2.536305 1_555
Nb7 S15 2.870529 1_555
S4 S8 2.078473 1_555
S5 S9 2.078473 1_555
S10 S6 2.078473 1_555
S10 S25 3.304812 1_556
S11 S7 2.078473 1_555
S11 S24 3.304812 1_555
S12 S17 2.079175 1_555
S13 S43 2.079175 1_555
S14 S18 2.079175 1_555
S15 S19 2.079175 1_555
S16 S20 2.085556 1_555
S20 S27 3.260349 1_555
S21 S42 2.085556 1_555
S21 S26 3.260349 1_555
S22 S41 2.085556 1_565
S22 S25 3.260349 1_565
S23 S40 2.085556 1_545
S23 S24 3.260349 1_545
S26 S9 3.304812 1_555
S27 S8 3.304812 1_554
S28 S32 2.081862 1_555
S29 S33 2.081862 1_555
S30 S34 2.081862 1_555
S31 S35 2.081862 1_555
