# generated using pymatgen
data_Li2Co3TeO8
_symmetry_space_group_name_H-M   'P 1'
_cell_length_a   5.97413600
_cell_length_b   6.02594005
_cell_length_c   6.03372097
_cell_angle_alpha   91.70161400
_cell_angle_beta   118.60278938
_cell_angle_gamma   119.02207413
_symmetry_Int_Tables_number   1
_chemical_formula_structural   Li2Co3TeO8
_chemical_formula_sum   'Li2 Co3 Te1 O8'
_cell_volume   156.75032697
_cell_formula_units_Z   1
loop_
 _symmetry_equiv_pos_site_id
 _symmetry_equiv_pos_as_xyz
  1  'x, y, z'
loop_
 _atom_site_type_symbol
 _atom_site_label
 _atom_site_symmetry_multiplicity
 _atom_site_fract_x
 _atom_site_fract_y
 _atom_site_fract_z
 _atom_site_occupancy
  Li  Li0  1  0.50000000  0.00000000  0.50000000  1
  Li  Li1  1  0.50000000  0.50000000  0.50000000  1
  Co  Co0  1  0.00000000  0.50000000  0.00000000  1
  Co  Co1  1  0.50000000  0.00000000  0.00000000  1
  Co  Co2  1  0.50000000  0.50000000  0.00000000  1
  Te  Te0  1  0.00000000  0.00000000  0.00000000  1
  O  O0  1  0.43772900  0.70630800  0.19354800  1
  O  O1  1  0.01372000  0.77400100  0.77976600  1
  O  O2  1  0.00880400  0.24739100  0.78974600  1
  O  O3  1  0.54443600  0.76658600  0.77405600  1
  O  O4  1  0.45556400  0.23341400  0.22594400  1
  O  O5  1  0.99119600  0.75260900  0.21025400  1
  O  O6  1  0.98628000  0.22599900  0.22023400  1
  O  O7  1  0.56227100  0.29369200  0.80645200  1
loop_
_geom_bond_atom_site_label_1
_geom_bond_atom_site_label_2
_geom_bond_distance
_geom_bond_site_symmetry_2
Li0 O3 2.205282 1_545
Li0 O4 2.205282 1_555
Li0 O2 2.208765 1_655
Li0 O5 2.208765 1_445
Li0 O7 2.279840 1_555
Li0 O0 2.279840 1_545
Li1 O3 2.096084 1_555
Li1 O4 2.096084 1_555
Li1 O1 2.225307 1_655
Li1 O6 2.225307 1_455
Li1 O0 2.242669 1_555
Li1 O7 2.242669 1_555
Co0 O0 1.892920 1_555
Co0 O7 1.892920 1_454
Co0 O5 1.989006 1_455
Co0 O2 1.989006 1_554
Co0 O1 2.145218 1_554
Co0 O6 2.145218 1_455
Co1 O1 2.101805 1_544
Co1 O6 2.101805 1_555
Co1 O3 2.121862 1_544
Co1 O4 2.121862 1_555
Co1 O7 2.129357 1_554
Co1 O0 2.129357 1_545
Co2 O0 1.956075 1_555
Co2 O7 1.956075 1_554
Co2 O5 2.127058 1_555
Co2 O2 2.127058 1_554
Co2 O3 2.138323 1_554
Co2 O4 2.138323 1_555
O1 Te0 1.931911 1_566
O2 Te0 1.983594 1_556
O3 Te0 1.965527 1_666
O4 Te0 1.965527 1_555
O5 Te0 1.983594 1_665
O6 Te0 1.931911 1_655
