# generated using pymatgen
data_CsLa(MoO4)2
_symmetry_space_group_name_H-M   'P 1'
_cell_length_a   7.83106913
_cell_length_b   7.83106913
_cell_length_c   7.99516987
_cell_angle_alpha   61.89594843
_cell_angle_beta   61.89594843
_cell_angle_gamma   89.14374255
_symmetry_Int_Tables_number   1
_chemical_formula_structural   CsLa(MoO4)2
_chemical_formula_sum   'Cs2 La2 Mo4 O16'
_cell_volume   367.76021317
_cell_formula_units_Z   2
loop_
 _symmetry_equiv_pos_site_id
 _symmetry_equiv_pos_as_xyz
  1  'x, y, z'
loop_
 _atom_site_type_symbol
 _atom_site_label
 _atom_site_symmetry_multiplicity
 _atom_site_fract_x
 _atom_site_fract_y
 _atom_site_fract_z
 _atom_site_occupancy
  Cs  Cs0  1  0.19807100  0.80192900  0.75000000  1
  Cs  Cs1  1  0.80192900  0.19807100  0.25000000  1
  La  La0  1  0.77032400  0.22967600  0.75000000  1
  La  La1  1  0.22967600  0.77032400  0.25000000  1
  Mo  Mo0  1  0.69063100  0.69197900  0.76561400  1
  Mo  Mo1  1  0.30936900  0.30802100  0.23438600  1
  Mo  Mo2  1  0.30802100  0.30936900  0.73438600  1
  Mo  Mo3  1  0.69197900  0.69063100  0.26561400  1
  O  O0  1  0.61840900  0.75735200  0.56848300  1
  O  O1  1  0.38159100  0.24264800  0.43151700  1
  O  O2  1  0.24264800  0.38159100  0.93151700  1
  O  O3  1  0.75735200  0.61840900  0.06848300  1
  O  O4  1  0.38411700  0.07958500  0.86485200  1
  O  O5  1  0.61588300  0.92041500  0.13514800  1
  O  O6  1  0.92041500  0.61588300  0.63514800  1
  O  O7  1  0.07958500  0.38411700  0.36485200  1
  O  O8  1  0.57904500  0.37113600  0.97387300  1
  O  O9  1  0.42095500  0.62886400  0.02612700  1
  O  O10  1  0.62886400  0.42095500  0.52612700  1
  O  O11  1  0.37113600  0.57904500  0.47387300  1
  O  O12  1  0.78868700  0.93850500  0.69705800  1
  O  O13  1  0.21131300  0.06149500  0.30294200  1
  O  O14  1  0.06149500  0.21131300  0.80294200  1
  O  O15  1  0.93850500  0.78868700  0.19705800  1
loop_
_geom_bond_atom_site_label_1
_geom_bond_atom_site_label_2
_geom_bond_distance
_geom_bond_site_symmetry_2
Cs0 O1 2.980172 1_565
Cs0 O3 2.980172 1_456
Cs0 O0 3.000916 1_555
Cs0 O2 3.000916 1_555
Cs0 O15 3.119324 1_456
Cs0 O13 3.119324 1_565
Cs0 O9 3.240049 1_556
Cs0 O11 3.240049 1_555
Cs0 O4 3.306038 1_565
Cs0 O6 3.306038 1_455
Cs0 O14 3.514321 1_565
Cs0 O12 3.514321 1_455
Cs1 O2 2.980172 1_654
Cs1 O0 2.980172 1_545
Cs1 O3 3.000916 1_555
Cs1 O1 3.000916 1_555
Cs1 O12 3.119324 1_545
Cs1 O14 3.119324 1_654
Cs1 O10 3.240049 1_555
Cs1 O8 3.240049 1_554
Cs1 O7 3.306038 1_655
Cs1 O5 3.306038 1_545
Cs1 O13 3.514321 1_655
Cs1 O15 3.514321 1_545
La0 O8 2.442784 1_555
La0 O10 2.442784 1_555
La0 O14 2.498247 1_655
La0 O12 2.498247 1_545
La0 O5 2.522468 1_546
La0 O7 2.522468 1_655
La0 O6 2.800827 1_555
La0 O4 2.800827 1_555
La1 O11 2.442784 1_555
La1 O9 2.442784 1_555
La1 O13 2.498247 1_565
La1 O15 2.498247 1_455
La1 O6 2.522468 1_455
La1 O4 2.522468 1_564
La1 O5 2.800827 1_555
La1 O7 2.800827 1_555
Mo0 O0 1.771165 1_555
Mo0 O12 1.807749 1_555
Mo0 O6 1.861819 1_555
Mo0 O9 1.989862 1_556
Mo0 O8 2.145270 1_555
Mo1 O1 1.771165 1_555
Mo1 O13 1.807749 1_555
Mo1 O7 1.861819 1_555
Mo1 O8 1.989862 1_554
Mo1 O9 2.145270 1_555
Mo2 O2 1.771165 1_555
Mo2 O14 1.807749 1_555
Mo2 O4 1.861819 1_555
Mo2 O11 1.989862 1_555
Mo2 O10 2.145270 1_555
Mo3 O3 1.771165 1_555
Mo3 O15 1.807749 1_555
Mo3 O5 1.861819 1_555
Mo3 O10 1.989862 1_555
Mo3 O11 2.145270 1_555
O6 O8 2.568287 1_555
O7 O9 2.568287 1_555
O8 O9 2.452170 1_556
O10 O11 2.452170 1_555
O10 O4 2.568287 1_555
O11 O5 2.568287 1_555
