# generated using pymatgen
data_SiNi3W2
_symmetry_space_group_name_H-M   'P 1'
_cell_length_a   4.72056332
_cell_length_b   4.72056332
_cell_length_c   7.59211100
_cell_angle_alpha   90.00000000
_cell_angle_beta   90.00000000
_cell_angle_gamma   119.33275241
_symmetry_Int_Tables_number   1
_chemical_formula_structural   SiNi3W2
_chemical_formula_sum   'Si2 Ni6 W4'
_cell_volume   147.48972925
_cell_formula_units_Z   2
loop_
 _symmetry_equiv_pos_site_id
 _symmetry_equiv_pos_as_xyz
  1  'x, y, z'
loop_
 _atom_site_type_symbol
 _atom_site_label
 _atom_site_symmetry_multiplicity
 _atom_site_fract_x
 _atom_site_fract_y
 _atom_site_fract_z
 _atom_site_occupancy
  Si  Si0  1  0.17068700  0.33618600  0.00000000  1
  Si  Si1  1  0.66381400  0.82931300  0.00000000  1
  Ni  Ni0  1  0.18121200  0.81878800  0.00000000  1
  Ni  Ni1  1  0.83087000  0.66104000  0.50000000  1
  Ni  Ni2  1  0.33896000  0.16913000  0.50000000  1
  Ni  Ni3  1  0.83059900  0.16940100  0.50000000  1
  Ni  Ni4  1  0.99365700  0.00634300  0.24093200  1
  Ni  Ni5  1  0.99365700  0.00634300  0.75906800  1
  W  W0  1  0.33426600  0.66573400  0.68339500  1
  W  W1  1  0.66392900  0.33607100  0.80891600  1
  W  W2  1  0.66392900  0.33607100  0.19108400  1
  W  W3  1  0.33426600  0.66573400  0.31660500  1
loop_
_geom_bond_atom_site_label_1
_geom_bond_atom_site_label_2
_geom_bond_distance
_geom_bond_site_symmetry_2
Si0 Si1 2.351275 1_555
Si0 Si1 2.416817 1_445
Si0 W2 2.743577 1_555
Si0 W1 2.743577 1_554
Si0 W3 2.759920 1_555
Si0 W0 2.759920 1_554
Si0 W2 2.797479 1_455
Si0 W1 2.797479 1_454
Si1 W1 2.743577 1_554
Si1 W2 2.743577 1_555
Si1 W3 2.759920 1_555
Si1 W0 2.759920 1_554
Si1 W2 2.797479 1_565
Si1 W1 2.797479 1_564
Ni0 Si0 2.254230 1_555
Ni0 Si1 2.254230 1_555
Ni0 Ni4 2.383623 1_465
Ni0 Ni5 2.383623 1_464
Ni0 Si1 2.467129 1_455
Ni0 Si0 2.467129 1_565
Ni0 W3 2.707994 1_555
Ni0 W0 2.707994 1_554
Ni0 W1 2.794303 1_454
Ni0 W2 2.794303 1_455
Ni0 W2 2.794303 1_565
Ni0 W1 2.794303 1_564
Ni1 Ni3 2.320187 1_555
Ni1 Ni2 2.345472 1_555
Ni1 Ni3 2.400377 1_565
Ni1 Ni2 2.422620 1_665
Ni1 Ni5 2.426694 1_565
Ni1 Ni4 2.426694 1_565
Ni1 W1 2.700075 1_555
Ni1 W2 2.700075 1_555
Ni1 W0 2.735973 1_555
Ni1 W3 2.735973 1_555
Ni1 W0 2.744889 1_655
Ni1 W3 2.744889 1_655
Ni2 Ni3 2.320187 1_555
Ni2 Ni3 2.400377 1_455
Ni2 Ni5 2.426694 1_455
Ni2 Ni4 2.426694 1_455
Ni2 W1 2.700075 1_555
Ni2 W2 2.700075 1_555
Ni2 W0 2.735973 1_555
Ni2 W3 2.735973 1_555
Ni2 W0 2.744889 1_545
Ni2 W3 2.744889 1_545
Ni3 Ni5 2.373611 1_555
Ni3 Ni4 2.373611 1_555
Ni3 W1 2.710179 1_555
Ni3 W2 2.710179 1_555
Ni3 W0 2.761018 1_655
Ni3 W0 2.761018 1_545
Ni3 W3 2.761018 1_655
Ni3 W3 2.761018 1_545
Ni4 Si1 2.278991 1_545
Ni4 Si0 2.278991 1_655
Ni4 W2 2.713354 1_555
Ni4 W3 2.775009 1_655
Ni4 W3 2.775009 1_545
Ni4 W2 2.784243 1_545
Ni4 W2 2.784243 1_655
Ni4 W3 2.834335 1_645
Ni5 Si1 2.278991 1_546
Ni5 Si0 2.278991 1_656
Ni5 W1 2.713354 1_555
Ni5 W0 2.775009 1_655
Ni5 W0 2.775009 1_545
Ni5 W1 2.784243 1_545
Ni5 W1 2.784243 1_655
Ni5 W0 2.834335 1_645
W0 W3 2.784710 1_555
W0 W1 2.850328 1_555
W0 W1 2.918631 1_455
W0 W1 2.918631 1_565
W1 W2 2.901462 1_556
W2 W3 2.850328 1_555
W2 W3 2.918631 1_655
W2 W3 2.918631 1_545
