# generated using pymatgen
data_Mg7Si4
_symmetry_space_group_name_H-M   'P 1'
_cell_length_a   5.54704200
_cell_length_b   6.14098903
_cell_length_c   13.21843843
_cell_angle_alpha   97.06512812
_cell_angle_beta   101.34651758
_cell_angle_gamma   89.38043480
_symmetry_Int_Tables_number   1
_chemical_formula_structural   Mg7Si4
_chemical_formula_sum   'Mg14 Si8'
_cell_volume   438.08301596
_cell_formula_units_Z   2
loop_
 _symmetry_equiv_pos_site_id
 _symmetry_equiv_pos_as_xyz
  1  'x, y, z'
loop_
 _atom_site_type_symbol
 _atom_site_label
 _atom_site_symmetry_multiplicity
 _atom_site_fract_x
 _atom_site_fract_y
 _atom_site_fract_z
 _atom_site_occupancy
  Mg  Mg0  1  0.98388400  0.73335900  0.81866000  1
  Mg  Mg1  1  0.14141800  0.22863900  0.75266800  1
  Mg  Mg2  1  0.69024600  0.90987100  0.61721200  1
  Mg  Mg3  1  0.56787000  0.42548400  0.66655800  1
  Mg  Mg4  1  0.04262700  0.40498800  0.00437600  1
  Mg  Mg5  1  0.78363000  0.70996200  0.39586400  1
  Mg  Mg6  1  0.24895000  0.66258600  0.23310700  1
  Mg  Mg7  1  0.82037300  0.21817900  0.45729800  1
  Mg  Mg8  1  0.52643800  0.54782600  0.91138900  1
  Mg  Mg9  1  0.42408300  0.08072400  0.95917500  1
  Mg  Mg10  1  0.96772000  0.91563000  0.04357000  1
  Mg  Mg11  1  0.37862900  0.17622100  0.23026800  1
  Mg  Mg12  1  0.30705200  0.49967100  0.44875200  1
  Mg  Mg13  1  0.32105300  0.99450800  0.42594700  1
  Si  Si0  1  0.52882400  0.82160400  0.11093800  1
  Si  Si1  1  0.45043500  0.83459600  0.76986000  1
  Si  Si2  1  0.71818700  0.15928400  0.82260200  1
  Si  Si3  1  0.91919100  0.35874100  0.26415500  1
  Si  Si4  1  0.59381500  0.43538600  0.11407100  1
  Si  Si5  1  0.16906900  0.89520900  0.59653800  1
  Si  Si6  1  0.02701400  0.53132900  0.61109700  1
  Si  Si7  1  0.88959200  0.96730500  0.24960200  1
loop_
_geom_bond_atom_site_label_1
_geom_bond_atom_site_label_2
_geom_bond_distance
_geom_bond_site_symmetry_2
Mg0 Si1 2.879335 1_655
Mg0 Si6 2.922098 1_655
Mg0 Si1 2.977660 1_555
Mg0 Si2 2.988241 1_565
Mg0 Mg10 3.063255 1_556
Mg0 Mg2 3.143865 1_555
Mg0 Mg3 3.205584 1_555
Mg0 Mg8 3.267402 1_655
Mg0 Mg1 3.272244 1_655
Mg0 Mg8 3.296851 1_555
Mg0 Mg4 3.329826 1_656
Mg0 Mg9 3.363937 1_665
Mg0 Mg1 3.432986 1_665
Mg1 Si2 2.742258 1_455
Mg1 Si5 2.748388 1_545
Mg1 Si6 2.778984 1_555
Mg1 Si1 2.955956 1_545
Mg1 Mg9 3.103200 1_555
Mg1 Mg3 3.132483 1_555
Mg1 Mg8 3.181343 1_555
Mg1 Si2 3.189906 1_555
Mg1 Mg2 3.283567 1_445
Mg1 Mg3 3.421860 1_455
Mg1 Mg4 3.515893 1_556
Mg2 Si1 2.711738 1_555
Mg2 Si5 2.722458 1_655
Mg2 Si5 2.851197 1_555
Mg2 Si2 2.925314 1_565
Mg2 Si6 2.969739 1_655
Mg2 Mg5 3.167838 1_555
Mg2 Mg7 3.191913 1_565
Mg2 Mg3 3.229520 1_555
Mg2 Mg3 3.245284 1_565
Mg3 Si2 2.783055 1_555
Mg3 Si1 2.841043 1_555
Mg3 Si6 2.886920 1_655
Mg3 Si6 3.028275 1_555
Mg3 Mg8 3.283537 1_555
Mg3 Mg7 3.442878 1_555
Mg4 Si2 2.958749 1_454
Mg4 Mg9 2.985496 1_554
Mg4 Mg8 3.050392 1_454
Mg4 Si4 3.111131 1_455
Mg4 Si4 3.112352 1_555
Mg4 Mg6 3.233364 1_555
Mg4 Mg8 3.331167 1_554
Mg5 Si7 2.792787 1_555
Mg5 Si3 2.793707 1_555
Mg5 Mg7 3.125144 1_565
Mg5 Si5 3.159167 1_655
Mg5 Si6 3.216312 1_655
Mg5 Mg7 3.216589 1_555
Mg5 Mg6 3.295997 1_555
Mg6 Si0 2.716401 1_555
Mg6 Si7 2.740937 1_455
Mg6 Si3 2.748374 1_455
Mg6 Si4 2.944249 1_555
Mg7 Si6 2.704447 1_655
Mg7 Si3 2.943914 1_555
Mg7 Si7 3.069162 1_545
Mg7 Si5 3.236778 1_645
Mg8 Si1 2.694986 1_555
Mg8 Si4 2.801740 1_556
Mg8 Si2 2.819454 1_555
Mg8 Si0 2.946228 1_556
Mg8 Mg9 3.093786 1_555
Mg8 Mg9 3.320117 1_565
Mg9 Si0 2.683395 1_546
Mg9 Si2 2.746528 1_555
Mg9 Si1 2.788704 1_545
Mg9 Si4 2.830378 1_556
Mg10 Si7 2.820353 1_555
Mg10 Si0 2.839631 1_555
Mg10 Si0 3.132230 1_655
Mg10 Mg4 3.151424 1_655
Mg10 Mg4 3.156999 1_665
Mg10 Mg9 3.182078 1_664
Mg10 Mg9 3.202259 1_564
Mg10 Mg6 3.239237 1_655
Mg10 Mg11 3.277283 1_665
Mg10 Mg8 3.407652 1_554
Mg10 Si2 3.482185 1_564
Mg11 Si0 2.749075 1_545
Mg11 Si4 2.771407 1_555
Mg11 Si3 2.866326 1_455
Mg11 Mg13 3.013364 1_545
Mg11 Mg6 3.062056 1_555
Mg11 Si7 3.075990 1_545
Mg11 Si7 3.082009 1_445
Mg11 Si3 3.141457 1_555
Mg11 Mg6 3.249124 1_545
Mg11 Mg12 3.386248 1_555
Mg11 Mg7 3.465047 1_555
Mg11 Mg4 3.626115 1_555
Mg12 Si6 2.873742 1_555
Mg12 Si3 2.964280 1_455
Mg12 Mg3 3.042871 1_555
Mg12 Mg13 3.081316 1_545
Mg12 Mg6 3.092434 1_555
Mg12 Mg13 3.093670 1_555
Mg12 Si5 3.111734 1_555
Mg12 Mg5 3.150989 1_455
Mg12 Mg5 3.188758 1_555
Mg12 Mg7 3.249294 1_455
Mg12 Mg7 3.305108 1_555
Mg12 Mg2 3.563102 1_555
Mg13 Si5 2.695329 1_555
Mg13 Si7 2.984492 1_455
Mg13 Mg2 3.019767 1_555
Mg13 Mg6 3.025014 1_555
Mg13 Mg7 3.036531 1_565
Mg13 Mg5 3.151051 1_555
Mg13 Mg7 3.162612 1_465
Mg13 Mg5 3.402027 1_455
Si0 Si4 2.399318 1_555
Si0 Si7 2.521296 1_555
Si1 Si2 2.445868 1_565
Si1 Si5 2.571691 1_555
Si3 Si7 2.392612 1_545
Si3 Si4 2.493446 1_555
Si5 Si6 2.419681 1_555
