# generated using pymatgen
data_ZnW3O7
_symmetry_space_group_name_H-M   'P 1'
_cell_length_a   6.56380900
_cell_length_b   7.89615500
_cell_length_c   11.43359900
_cell_angle_alpha   90.00000000
_cell_angle_beta   90.00000000
_cell_angle_gamma   90.00000000
_symmetry_Int_Tables_number   1
_chemical_formula_structural   ZnW3O7
_chemical_formula_sum   'Zn4 W12 O28'
_cell_volume   592.59032474
_cell_formula_units_Z   4
loop_
 _symmetry_equiv_pos_site_id
 _symmetry_equiv_pos_as_xyz
  1  'x, y, z'
loop_
 _atom_site_type_symbol
 _atom_site_label
 _atom_site_symmetry_multiplicity
 _atom_site_fract_x
 _atom_site_fract_y
 _atom_site_fract_z
 _atom_site_occupancy
  Zn  Zn0  1  0.88598400  0.50744600  0.75000000  1
  Zn  Zn1  1  0.38598400  0.99255400  0.25000000  1
  Zn  Zn2  1  0.11401600  0.49255400  0.25000000  1
  Zn  Zn3  1  0.61401600  0.00744600  0.75000000  1
  W  W0  1  0.24451900  0.73717700  0.03087600  1
  W  W1  1  0.74451900  0.76282300  0.96912400  1
  W  W2  1  0.75548100  0.26282300  0.53087600  1
  W  W3  1  0.25548100  0.23717700  0.46912400  1
  W  W4  1  0.24730400  0.76185400  0.75000000  1
  W  W5  1  0.74730400  0.73814600  0.25000000  1
  W  W6  1  0.75269600  0.23814600  0.25000000  1
  W  W7  1  0.25269600  0.26185400  0.75000000  1
  W  W8  1  0.74451900  0.76282300  0.53087600  1
  W  W9  1  0.24451900  0.73717700  0.46912400  1
  W  W10  1  0.25548100  0.23717700  0.03087600  1
  W  W11  1  0.75548100  0.26282300  0.96912400  1
  O  O0  1  0.55254900  0.25244400  0.10931300  1
  O  O1  1  0.05254900  0.24755600  0.89068700  1
  O  O2  1  0.44745100  0.74755600  0.60931300  1
  O  O3  1  0.94745100  0.75244400  0.39068700  1
  O  O4  1  0.44745100  0.74755600  0.89068700  1
  O  O5  1  0.94745100  0.75244400  0.10931300  1
  O  O6  1  0.55254900  0.25244400  0.39068700  1
  O  O7  1  0.05254900  0.24755600  0.60931300  1
  O  O8  1  0.95394300  0.22802200  0.10700300  1
  O  O9  1  0.45394300  0.27197800  0.89299700  1
  O  O10  1  0.04605700  0.77197800  0.60700300  1
  O  O11  1  0.54605700  0.72802200  0.39299700  1
  O  O12  1  0.04605700  0.77197800  0.89299700  1
  O  O13  1  0.54605700  0.72802200  0.10700300  1
  O  O14  1  0.95394300  0.22802200  0.39299700  1
  O  O15  1  0.45394300  0.27197800  0.60700300  1
  O  O16  1  0.31436600  0.01134600  0.75000000  1
  O  O17  1  0.81436600  0.48865400  0.25000000  1
  O  O18  1  0.68563400  0.98865400  0.25000000  1
  O  O19  1  0.18563400  0.51134600  0.75000000  1
  O  O20  1  0.22950100  0.49125800  0.40789200  1
  O  O21  1  0.72950100  0.00874200  0.59210800  1
  O  O22  1  0.77049900  0.50874200  0.90789200  1
  O  O23  1  0.27049900  0.99125800  0.09210800  1
  O  O24  1  0.77049900  0.50874200  0.59210800  1
  O  O25  1  0.27049900  0.99125800  0.40789200  1
  O  O26  1  0.22950100  0.49125800  0.09210800  1
  O  O27  1  0.72950100  0.00874200  0.90789200  1
loop_
_geom_bond_atom_site_label_1
_geom_bond_atom_site_label_2
_geom_bond_distance
_geom_bond_site_symmetry_2
O0 W6 2.079924 1_555
O0 W11 2.085698 1_554
O0 W10 2.149631 1_555
O0 O9 2.561204 1_554
O0 O18 2.772927 1_545
O0 O23 2.778388 1_545
O0 Zn1 2.827368 1_545
O0 O26 2.844435 1_555
O1 W7 2.079924 1_555
O1 W10 2.085698 1_556
O1 W11 2.149631 1_455
O1 O8 2.561204 1_456
O1 O19 2.772927 1_555
O1 O22 2.778388 1_455
O1 Zn0 2.827368 1_455
O1 O27 2.844435 1_455
O2 W4 2.079924 1_555
O2 W9 2.085698 1_555
O2 W8 2.149631 1_555
O2 O21 2.778388 1_565
O2 Zn3 2.827368 1_565
O2 O24 2.844435 1_555
O3 W5 2.079924 1_555
O3 W8 2.085698 1_555
O3 W9 2.149631 1_655
O3 Zn2 2.827368 1_655
O4 W4 2.079924 1_555
O4 W0 2.085698 1_556
O4 W1 2.149631 1_555
O4 Zn3 2.827368 1_565
O5 W5 2.079924 1_555
O5 W1 2.085698 1_554
O5 W0 2.149631 1_655
O5 Zn2 2.827368 1_655
O6 W6 2.079924 1_555
O6 W2 2.085698 1_555
O6 W3 2.149631 1_555
O6 Zn1 2.827368 1_545
O7 W7 2.079924 1_555
O7 W3 2.085698 1_555
O7 W2 2.149631 1_455
O7 Zn0 2.827368 1_455
O8 W11 2.063409 1_554
O8 W6 2.103430 1_555
O8 W10 2.163380 1_655
O8 Zn2 2.853086 1_655
O9 W10 2.063409 1_556
O9 W7 2.103430 1_555
O9 W11 2.163380 1_555
O9 Zn3 2.853086 1_555
O10 W9 2.063409 1_555
O10 W4 2.103430 1_555
O10 W8 2.163380 1_455
O10 O3 2.561204 1_455
O10 O24 2.760582 1_455
O10 O19 2.783486 1_555
O10 O21 2.800256 1_465
O10 Zn0 2.853086 1_455
O11 W8 2.063409 1_555
O11 W5 2.103430 1_555
O11 W9 2.163380 1_555
O11 O2 2.561204 1_555
O11 O25 2.760582 1_555
O11 O18 2.783486 1_555
O11 O20 2.800256 1_555
O11 Zn1 2.853086 1_555
O12 W0 2.063409 1_556
O12 W4 2.103430 1_555
O12 W1 2.163380 1_455
O12 O5 2.561204 1_456
O12 O22 2.760582 1_455
O12 O19 2.783486 1_555
O12 O27 2.800256 1_465
O12 Zn0 2.853086 1_455
O13 W1 2.063409 1_554
O13 W5 2.103430 1_555
O13 W0 2.163380 1_555
O13 O4 2.561204 1_554
O13 O23 2.760582 1_555
O13 O18 2.783486 1_555
O13 O26 2.800256 1_555
O13 Zn1 2.853086 1_555
O14 W2 2.063409 1_555
O14 W6 2.103430 1_555
O14 W3 2.163380 1_655
O14 O7 2.561204 1_655
O14 O20 2.760582 1_655
O14 O17 2.783486 1_555
O14 O25 2.800256 1_645
O14 Zn2 2.853086 1_655
O15 W3 2.063409 1_555
O15 W7 2.103430 1_555
O15 W2 2.163380 1_555
O15 O6 2.561204 1_555
O15 O21 2.760582 1_555
O15 O16 2.783486 1_555
O15 O24 2.800256 1_555
O15 Zn3 2.853086 1_555
O16 Zn3 1.967086 1_555
O16 W4 2.018606 1_545
O16 W7 2.019044 1_555
O16 O2 2.772927 1_545
O16 O4 2.772927 1_545
O16 O9 2.783486 1_555
O17 Zn2 1.967086 1_655
O17 W5 2.018606 1_555
O17 W6 2.019044 1_555
O17 O3 2.772927 1_555
O17 O5 2.772927 1_555
O17 O8 2.783486 1_555
O18 Zn1 1.967086 1_555
O18 W6 2.018606 1_565
O18 W5 2.019044 1_555
O18 O6 2.772927 1_565
O19 Zn0 1.967086 1_455
O19 W7 2.018606 1_555
O19 W4 2.019044 1_555
O19 O7 2.772927 1_555
O20 Zn2 1.957987 1_555
O20 W9 2.066520 1_555
O20 W3 2.131740 1_555
O20 O3 2.778388 1_455
O20 O6 2.844435 1_555
O21 Zn3 1.957987 1_555
O21 W8 2.066520 1_545
O21 W2 2.131740 1_555
O21 O7 2.844435 1_655
O22 Zn0 1.957987 1_555
O22 W11 2.066520 1_555
O22 W1 2.131740 1_555
O22 O9 2.800256 1_555
O22 O4 2.844435 1_555
O23 Zn1 1.957987 1_555
O23 W10 2.066520 1_565
O23 W0 2.131740 1_555
O23 O8 2.800256 1_465
O23 O5 2.844435 1_455
O24 Zn0 1.957987 1_555
O24 W2 2.066520 1_555
O24 W8 2.131740 1_555
O24 O7 2.778388 1_655
O25 Zn1 1.957987 1_555
O25 W3 2.066520 1_565
O25 W9 2.131740 1_555
O25 O6 2.778388 1_565
O25 O3 2.844435 1_455
O26 Zn2 1.957987 1_555
O26 W0 2.066520 1_555
O26 W10 2.131740 1_555
O26 O8 2.760582 1_455
O26 O5 2.778388 1_455
O27 Zn3 1.957987 1_555
O27 W1 2.066520 1_545
O27 W11 2.131740 1_555
O27 O9 2.760582 1_555
O27 O4 2.778388 1_545
