# generated using pymatgen
data_Dy2InNi2
_symmetry_space_group_name_H-M   'P 1'
_cell_length_a   7.37757556
_cell_length_b   7.68679786
_cell_length_c   14.65772648
_cell_angle_alpha   105.20122197
_cell_angle_beta   90.00000000
_cell_angle_gamma   90.00000000
_symmetry_Int_Tables_number   1
_chemical_formula_structural   Dy2InNi2
_chemical_formula_sum   'Dy16 In8 Ni16'
_cell_volume   802.15438145
_cell_formula_units_Z   8
loop_
 _symmetry_equiv_pos_site_id
 _symmetry_equiv_pos_as_xyz
  1  'x, y, z'
loop_
 _atom_site_type_symbol
 _atom_site_label
 _atom_site_symmetry_multiplicity
 _atom_site_fract_x
 _atom_site_fract_y
 _atom_site_fract_z
 _atom_site_occupancy
  Dy  Dy0_0  1  0.25000000  0.31877655  0.13755360  1
  Dy  Dy0_1  1  0.25000000  0.31877655  0.63755360  1
  Dy  Dy0_2  1  0.25000000  0.81877655  0.13755360  1
  Dy  Dy0_3  1  0.25000000  0.81877655  0.63755360  1
  Dy  Dy0_4  1  0.75000000  0.31877655  0.13755360  1
  Dy  Dy0_5  1  0.75000000  0.31877655  0.63755360  1
  Dy  Dy0_6  1  0.75000000  0.81877655  0.13755360  1
  Dy  Dy0_7  1  0.75000000  0.81877655  0.63755360  1
  Dy  Dy1_0  1  0.25000000  0.18122345  0.36244640  1
  Dy  Dy1_1  1  0.25000000  0.18122345  0.86244640  1
  Dy  Dy1_2  1  0.25000000  0.68122345  0.36244640  1
  Dy  Dy1_3  1  0.25000000  0.68122345  0.86244640  1
  Dy  Dy1_4  1  0.75000000  0.18122345  0.36244640  1
  Dy  Dy1_5  1  0.75000000  0.18122345  0.86244640  1
  Dy  Dy1_6  1  0.75000000  0.68122345  0.36244640  1
  Dy  Dy1_7  1  0.75000000  0.68122345  0.86244640  1
  In  In0_0  1  0.00000000  0.00000000  0.00000000  1
  In  In0_1  1  0.00000000  0.00000000  0.50000000  1
  In  In0_2  1  0.00000000  0.50000000  0.00000000  1
  In  In0_3  1  0.00000000  0.50000000  0.50000000  1
  In  In0_4  1  0.50000000  0.00000000  0.00000000  1
  In  In0_5  1  0.50000000  0.00000000  0.50000000  1
  In  In0_6  1  0.50000000  0.50000000  0.00000000  1
  In  In0_7  1  0.50000000  0.50000000  0.50000000  1
  Ni  Ni0_0  1  0.00000000  0.39996912  0.29993675  1
  Ni  Ni0_1  1  0.00000000  0.39996912  0.79993675  1
  Ni  Ni0_2  1  0.00000000  0.89996912  0.29993675  1
  Ni  Ni0_3  1  0.00000000  0.89996912  0.79993675  1
  Ni  Ni0_4  1  0.50000000  0.39996912  0.29993675  1
  Ni  Ni0_5  1  0.50000000  0.39996912  0.79993675  1
  Ni  Ni0_6  1  0.50000000  0.89996912  0.29993675  1
  Ni  Ni0_7  1  0.50000000  0.89996912  0.79993675  1
  Ni  Ni1_0  1  0.00000000  0.10003088  0.20006325  1
  Ni  Ni1_1  1  0.00000000  0.10003087  0.70006324  1
  Ni  Ni1_2  1  0.00000000  0.60003088  0.20006325  1
  Ni  Ni1_3  1  0.00000000  0.60003087  0.70006324  1
  Ni  Ni1_4  1  0.50000000  0.10003088  0.20006325  1
  Ni  Ni1_5  1  0.50000000  0.10003087  0.70006324  1
  Ni  Ni1_6  1  0.50000000  0.60003088  0.20006325  1
  Ni  Ni1_7  1  0.50000000  0.60003087  0.70006324  1
loop_
_geom_bond_atom_site_label_1
_geom_bond_atom_site_label_2
_geom_bond_distance
_geom_bond_site_symmetry_2
Dy0_0 Ni1_2 2.806510 1_555
Dy0_0 Ni1_6 2.806510 1_555
Dy0_0 Ni1_4 2.806515 1_555
Dy0_0 Ni1_0 2.806515 1_555
Dy0_0 Ni0_0 2.945757 1_555
Dy0_0 Ni0_4 2.945757 1_555
Dy0_0 In0_4 3.298541 1_555
Dy0_0 In0_0 3.298541 1_555
Dy0_0 In0_6 3.298543 1_555
Dy0_0 In0_2 3.298543 1_555
Dy0_1 Ni1_3 2.806510 1_555
Dy0_1 Ni1_7 2.806510 1_555
Dy0_1 Ni1_1 2.806515 1_555
Dy0_1 Ni1_5 2.806515 1_555
Dy0_1 Ni0_1 2.945757 1_555
Dy0_1 Ni0_5 2.945757 1_555
Dy0_1 In0_1 3.298541 1_555
Dy0_1 In0_5 3.298541 1_555
Dy0_1 In0_3 3.298543 1_555
Dy0_1 In0_7 3.298543 1_555
Dy0_2 Ni1_4 2.806510 1_565
Dy0_2 Ni1_0 2.806510 1_565
Dy0_2 Ni1_2 2.806515 1_555
Dy0_2 Ni1_6 2.806515 1_555
Dy0_2 Ni0_6 2.945757 1_555
Dy0_2 Ni0_2 2.945757 1_555
Dy0_2 In0_6 3.298541 1_555
Dy0_2 In0_2 3.298541 1_555
Dy0_2 In0_0 3.298543 1_565
Dy0_2 In0_4 3.298543 1_565
Dy0_3 Ni1_1 2.806510 1_565
Dy0_3 Ni1_5 2.806510 1_565
Dy0_3 Ni1_3 2.806515 1_555
Dy0_3 Ni1_7 2.806515 1_555
Dy0_3 Ni0_3 2.945757 1_555
Dy0_3 Ni0_7 2.945757 1_555
Dy0_3 In0_3 3.298541 1_555
Dy0_3 In0_7 3.298541 1_555
Dy0_3 In0_1 3.298543 1_565
Dy0_3 In0_5 3.298543 1_565
Dy0_4 Ni1_2 2.806510 1_655
Dy0_4 Ni1_6 2.806510 1_555
Dy0_4 Ni1_4 2.806515 1_555
Dy0_4 Ni1_0 2.806515 1_655
Dy0_4 Ni0_0 2.945757 1_655
Dy0_4 Ni0_4 2.945757 1_555
Dy0_4 In0_4 3.298541 1_555
Dy0_4 In0_0 3.298541 1_655
Dy0_4 In0_6 3.298543 1_555
Dy0_4 In0_2 3.298543 1_655
Dy0_5 Ni1_7 2.806510 1_555
Dy0_5 Ni1_3 2.806510 1_655
Dy0_5 Ni1_1 2.806515 1_655
Dy0_5 Ni1_5 2.806515 1_555
Dy0_5 Ni0_1 2.945757 1_655
Dy0_5 Ni0_5 2.945757 1_555
Dy0_5 In0_1 3.298541 1_655
Dy0_5 In0_5 3.298541 1_555
Dy0_5 In0_7 3.298543 1_555
Dy0_5 In0_3 3.298543 1_655
Dy0_6 Ni1_4 2.806510 1_565
Dy0_6 Ni1_0 2.806510 1_665
Dy0_6 Ni1_6 2.806515 1_555
Dy0_6 Ni1_2 2.806515 1_655
Dy0_6 Ni0_2 2.945757 1_655
Dy0_6 Ni0_6 2.945757 1_555
Dy0_6 In0_2 3.298541 1_655
Dy0_6 In0_6 3.298541 1_555
Dy0_6 In0_4 3.298543 1_565
Dy0_6 In0_0 3.298543 1_665
Dy0_7 Ni1_1 2.806510 1_665
Dy0_7 Ni1_5 2.806510 1_565
Dy0_7 Ni1_3 2.806515 1_655
Dy0_7 Ni1_7 2.806515 1_555
Dy0_7 Ni0_7 2.945757 1_555
Dy0_7 Ni0_3 2.945757 1_655
Dy0_7 In0_7 3.298541 1_555
Dy0_7 In0_3 3.298541 1_655
Dy0_7 In0_5 3.298543 1_565
Dy0_7 In0_1 3.298543 1_665
Dy1_0 Ni0_2 2.806510 1_545
Dy1_0 Ni0_6 2.806510 1_545
Dy1_0 Ni0_0 2.806515 1_555
Dy1_0 Ni0_4 2.806515 1_555
Dy1_0 Ni1_0 2.945757 1_555
Dy1_0 Ni1_4 2.945757 1_555
Dy1_0 In0_3 3.298541 1_555
Dy1_0 In0_7 3.298541 1_555
Dy1_0 In0_1 3.298543 1_555
Dy1_0 In0_5 3.298543 1_555
Dy1_1 Ni0_3 2.806510 1_545
Dy1_1 Ni0_7 2.806510 1_545
Dy1_1 Ni0_1 2.806515 1_555
Dy1_1 Ni0_5 2.806515 1_555
Dy1_1 Ni1_1 2.945757 1_555
Dy1_1 Ni1_5 2.945757 1_555
Dy1_1 In0_6 3.298541 1_556
Dy1_1 In0_2 3.298541 1_556
Dy1_1 In0_0 3.298543 1_556
Dy1_1 In0_4 3.298543 1_556
Dy1_2 Ni0_0 2.806510 1_555
Dy1_2 Ni0_4 2.806510 1_555
Dy1_2 Ni0_2 2.806515 1_555
Dy1_2 Ni0_6 2.806515 1_555
Dy1_2 Ni1_2 2.945757 1_555
Dy1_2 Ni1_6 2.945757 1_555
Dy1_2 In0_5 3.298541 1_565
Dy1_2 In0_1 3.298541 1_565
Dy1_2 In0_3 3.298543 1_555
Dy1_2 In0_7 3.298543 1_555
Dy1_3 Ni0_1 2.806510 1_555
Dy1_3 Ni0_5 2.806510 1_555
Dy1_3 Ni0_3 2.806515 1_555
Dy1_3 Ni0_7 2.806515 1_555
Dy1_3 Ni1_3 2.945757 1_555
Dy1_3 Ni1_7 2.945757 1_555
Dy1_3 In0_0 3.298541 1_566
Dy1_3 In0_4 3.298541 1_566
Dy1_3 In0_2 3.298543 1_556
Dy1_3 In0_6 3.298543 1_556
Dy1_4 Ni0_2 2.806510 1_645
Dy1_4 Ni0_6 2.806510 1_545
Dy1_4 Ni0_4 2.806515 1_555
Dy1_4 Ni0_0 2.806515 1_655
Dy1_4 Ni1_0 2.945757 1_655
Dy1_4 Ni1_4 2.945757 1_555
Dy1_4 In0_7 3.298541 1_555
Dy1_4 In0_3 3.298541 1_655
Dy1_4 In0_1 3.298543 1_655
Dy1_4 In0_5 3.298543 1_555
Dy1_5 Ni0_7 2.806510 1_545
Dy1_5 Ni0_3 2.806510 1_645
Dy1_5 Ni0_1 2.806515 1_655
Dy1_5 Ni0_5 2.806515 1_555
Dy1_5 Ni1_5 2.945757 1_555
Dy1_5 Ni1_1 2.945757 1_655
Dy1_5 In0_2 3.298541 1_656
Dy1_5 In0_6 3.298541 1_556
Dy1_5 In0_0 3.298543 1_656
Dy1_5 In0_4 3.298543 1_556
Dy1_6 Ni0_0 2.806510 1_655
Dy1_6 Ni0_4 2.806510 1_555
Dy1_6 Ni0_2 2.806515 1_655
Dy1_6 Ni0_6 2.806515 1_555
Dy1_6 Ni1_2 2.945757 1_655
Dy1_6 Ni1_6 2.945757 1_555
Dy1_6 In0_1 3.298541 1_665
Dy1_6 In0_5 3.298541 1_565
Dy1_6 In0_3 3.298543 1_655
Dy1_6 In0_7 3.298543 1_555
Dy1_7 Ni0_5 2.806510 1_555
Dy1_7 Ni0_1 2.806510 1_655
Dy1_7 Ni0_7 2.806515 1_555
Dy1_7 Ni0_3 2.806515 1_655
Dy1_7 Ni1_3 2.945757 1_655
Dy1_7 Ni1_7 2.945757 1_555
Dy1_7 In0_0 3.298541 1_666
Dy1_7 In0_4 3.298541 1_566
Dy1_7 In0_2 3.298543 1_656
Dy1_7 In0_6 3.298543 1_556
In0_0 Ni1_0 2.829868 1_555
In0_0 Ni0_3 2.829868 1_544
In0_0 In0_4 3.688788 1_455
In0_0 In0_4 3.688788 1_555
In0_0 In0_2 3.843399 1_545
In0_0 In0_2 3.843399 1_555
In0_1 Ni0_2 2.829868 1_545
In0_1 Ni1_1 2.829868 1_555
In0_1 In0_5 3.688788 1_455
In0_1 In0_5 3.688788 1_555
In0_1 In0_3 3.843399 1_545
In0_1 In0_3 3.843399 1_555
In0_2 Ni1_2 2.829868 1_555
In0_2 Ni0_1 2.829868 1_554
In0_2 In0_6 3.688788 1_455
In0_2 In0_6 3.688788 1_555
In0_3 Ni0_0 2.829868 1_555
In0_3 Ni1_3 2.829868 1_555
In0_3 In0_7 3.688788 1_455
In0_3 In0_7 3.688788 1_555
In0_4 Ni1_4 2.829868 1_555
In0_4 Ni0_7 2.829868 1_544
In0_4 In0_6 3.843399 1_555
In0_4 In0_6 3.843399 1_545
In0_5 Ni0_6 2.829868 1_545
In0_5 Ni1_5 2.829868 1_555
In0_5 In0_7 3.843399 1_545
In0_5 In0_7 3.843399 1_555
In0_6 Ni1_6 2.829868 1_555
In0_6 Ni0_5 2.829868 1_554
In0_7 Ni0_4 2.829868 1_555
In0_7 Ni1_7 2.829868 1_555
Ni0_0 Ni1_2 2.385078 1_555
Ni0_0 Ni1_0 2.385097 1_555
Ni0_1 Ni1_3 2.385078 1_555
Ni0_1 Ni1_1 2.385097 1_555
Ni0_2 Ni1_0 2.385078 1_565
Ni0_2 Ni1_2 2.385097 1_555
Ni0_3 Ni1_1 2.385078 1_565
Ni0_3 Ni1_3 2.385097 1_555
Ni0_4 Ni1_6 2.385078 1_555
Ni0_4 Ni1_4 2.385097 1_555
Ni0_5 Ni1_7 2.385078 1_555
Ni0_5 Ni1_5 2.385097 1_555
Ni0_6 Ni1_4 2.385078 1_565
Ni0_6 Ni1_6 2.385097 1_555
Ni0_7 Ni1_5 2.385078 1_565
Ni0_7 Ni1_7 2.385097 1_555
