# generated using pymatgen
data_KNb4Ag(PS10)2
_symmetry_space_group_name_H-M   'P 1'
_cell_length_a   7.25383303
_cell_length_b   7.32646246
_cell_length_c   13.03494439
_cell_angle_alpha   89.92277116
_cell_angle_beta   76.45638177
_cell_angle_gamma   89.32821845
_symmetry_Int_Tables_number   1
_chemical_formula_structural   KNb4Ag(PS10)2
_chemical_formula_sum   'K1 Nb4 Ag1 P2 S20'
_cell_volume   673.43048668
_cell_formula_units_Z   1
loop_
 _symmetry_equiv_pos_site_id
 _symmetry_equiv_pos_as_xyz
  1  'x, y, z'
loop_
 _atom_site_type_symbol
 _atom_site_label
 _atom_site_symmetry_multiplicity
 _atom_site_fract_x
 _atom_site_fract_y
 _atom_site_fract_z
 _atom_site_occupancy
  K  K0  1  0.58410988  0.49866728  0.40973088  1
  Nb  Nb0  1  0.00170621  0.06735069  0.89539558  1
  Nb  Nb1  1  0.99641393  0.93584771  0.10465425  1
  Nb  Nb2  1  0.00086747  0.06503586  0.60601223  1
  Nb  Nb3  1  0.99875372  0.93303679  0.39693309  1
  Ag  Ag0  1  0.50911409  0.50088561  0.99830836  1
  P  P0  1  0.79064001  0.38521637  0.77714152  1
  P  P1  1  0.20441157  0.61674186  0.22125740  1
  S  S0  1  0.24937309  0.10809712  0.71784586  1
  S  S1  1  0.74820318  0.89591583  0.28296779  1
  S  S2  1  0.74294689  0.10512726  0.78394705  1
  S  S3  1  0.25587448  0.89473807  0.21679826  1
  S  S4  1  0.71909138  0.08249188  0.04993735  1
  S  S5  1  0.27891454  0.91985874  0.95095843  1
  S  S6  1  0.12606714  0.85791513  0.73469881  1
  S  S7  1  0.87432057  0.14448581  0.26862246  1
  S  S8  1  0.78328669  0.82716533  0.99133308  1
  S  S9  1  0.21513823  0.17540015  0.00908913  1
  S  S10  1  0.55649304  0.53971138  0.80769308  1
  S  S11  1  0.43918413  0.45997269  0.18973725  1
  S  S12  1  0.95157725  0.41710617  0.88508902  1
  S  S13  1  0.04136165  0.58406230  0.11561635  1
  S  S14  1  0.77881504  0.82468806  0.56626688  1
  S  S15  1  0.22218955  0.16926466  0.43599390  1
  S  S16  1  0.72258681  0.08134346  0.52298678  1
  S  S17  1  0.27605214  0.91283071  0.48074229  1
  S  S18  1  0.94447476  0.41621554  0.62524543  1
  S  S19  1  0.05663356  0.58062959  0.37469551  1
loop_
_geom_bond_atom_site_label_1
_geom_bond_atom_site_label_2
_geom_bond_distance
_geom_bond_site_symmetry_2
K0 S11 3.290871 1_555
K0 S19 3.410574 1_655
K0 S1 3.429978 1_555
K0 S15 3.543886 1_555
K0 S7 3.552392 1_555
K0 S16 3.625897 1_555
K0 S14 3.647666 1_555
K0 S17 3.733271 1_555
K0 S19 3.996618 1_555
Nb0 S8 2.510404 1_445
Nb0 S9 2.515237 1_556
Nb0 S4 2.516743 1_456
Nb0 S5 2.522835 1_545
Nb0 S6 2.578189 1_545
Nb0 S12 2.591646 1_455
Nb0 S0 2.595417 1_555
Nb0 S2 2.640833 1_455
Nb0 Nb1 2.883516 1_446
Nb1 S9 2.506590 1_665
Nb1 S5 2.509743 1_654
Nb1 S8 2.511506 1_554
Nb1 S4 2.515751 1_565
Nb1 S13 2.602026 1_655
Nb1 S7 2.603752 1_565
Nb1 S1 2.603876 1_555
Nb1 S3 2.654034 1_655
Nb2 S16 2.505484 1_455
Nb2 S17 2.514057 1_545
Nb2 S14 2.534451 1_445
Nb2 S15 2.535695 1_555
Nb2 S6 2.572073 1_545
Nb2 S0 2.592166 1_555
Nb2 S18 2.603661 1_455
Nb2 S2 2.631083 1_455
Nb2 Nb3 2.896544 1_445
Nb3 S17 2.506630 1_655
Nb3 S16 2.511092 1_565
Nb3 S15 2.517173 1_665
Nb3 S14 2.534372 1_555
Nb3 S7 2.584432 1_565
Nb3 S19 2.616504 1_655
Nb3 S1 2.619375 1_555
Nb3 S3 2.647458 1_655
Ag0 S10 2.443971 1_555
Ag0 S11 2.445857 1_556
Ag0 S8 3.115153 1_555
Ag0 S9 3.198698 1_556
Ag0 S12 3.254800 1_555
Ag0 S13 3.427237 1_556
P0 S10 1.990956 1_555
P0 S12 2.043035 1_555
P0 S18 2.046199 1_555
P0 S2 2.083338 1_555
P1 S11 2.003972 1_555
P1 S13 2.030452 1_555
P1 S19 2.054354 1_555
P1 S3 2.073245 1_555
S0 S6 2.037968 1_545
S1 S7 2.036286 1_565
S4 S8 2.028916 1_544
S5 S9 2.027977 1_566
S14 S16 2.026665 1_565
S15 S17 2.027110 1_545
