# generated using pymatgen
data_BaTl3Au
_symmetry_space_group_name_H-M   'P 1'
_cell_length_a   5.06247500
_cell_length_b   5.06247500
_cell_length_c   7.20815601
_cell_angle_alpha   69.44153997
_cell_angle_beta   69.44153997
_cell_angle_gamma   90.00000000
_symmetry_Int_Tables_number   1
_chemical_formula_structural   BaTl3Au
_chemical_formula_sum   'Ba1 Tl3 Au1'
_cell_volume   160.34443811
_cell_formula_units_Z   1
loop_
 _symmetry_equiv_pos_site_id
 _symmetry_equiv_pos_as_xyz
  1  'x, y, z'
loop_
 _atom_site_type_symbol
 _atom_site_label
 _atom_site_symmetry_multiplicity
 _atom_site_fract_x
 _atom_site_fract_y
 _atom_site_fract_z
 _atom_site_occupancy
  Ba  Ba0  1  0.00459700  0.00459700  0.99080600  1
  Tl  Tl0  1  0.74167900  0.24167900  0.51664300  1
  Tl  Tl1  1  0.24167900  0.74167900  0.51664300  1
  Tl  Tl2  1  0.39403200  0.39403200  0.21193600  1
  Au  Au0  1  0.61801300  0.61801300  0.76397400  1
loop_
_geom_bond_atom_site_label_1
_geom_bond_atom_site_label_2
_geom_bond_distance
_geom_bond_site_symmetry_2
Ba0 Tl2 3.837756 1_556
Ba0 Tl2 3.837756 1_456
Ba0 Tl2 3.837756 1_546
Ba0 Tl2 3.837756 1_446
Ba0 Tl0 3.899710 1_455
Ba0 Tl1 3.899710 1_545
Ba0 Tl0 3.899713 1_555
Ba0 Tl1 3.899713 1_555
Ba0 Tl0 4.150954 1_446
Ba0 Tl1 4.150954 1_446
Ba0 Tl0 4.150957 1_456
Ba0 Tl1 4.150957 1_546
Tl0 Tl2 3.168825 1_655
Tl0 Tl2 3.168829 1_555
Tl0 Tl1 3.579710 1_645
Tl0 Tl1 3.579710 1_545
Tl0 Tl1 3.579710 1_655
Tl0 Tl1 3.579710 1_555
Tl1 Tl2 3.168825 1_565
Tl1 Tl2 3.168829 1_555
Au0 Tl2 2.802653 1_556
Au0 Tl0 2.966756 1_555
Au0 Tl1 2.966756 1_555
Au0 Tl1 2.966761 1_655
Au0 Tl0 2.966761 1_565
Au0 Ba0 3.850760 1_665
Au0 Ba0 3.850760 1_565
Au0 Ba0 3.850760 1_655
Au0 Ba0 3.850760 1_555
