# generated using pymatgen
data_TbBi2C
_symmetry_space_group_name_H-M   'P 1'
_cell_length_a   11.55171800
_cell_length_b   11.55171800
_cell_length_c   5.66208500
_cell_angle_alpha   90.00000000
_cell_angle_beta   90.00000000
_cell_angle_gamma   90.00000000
_symmetry_Int_Tables_number   1
_chemical_formula_structural   TbBi2C
_chemical_formula_sum   'Tb8 Bi16 C8'
_cell_volume   755.56101530
_cell_formula_units_Z   8
loop_
 _symmetry_equiv_pos_site_id
 _symmetry_equiv_pos_as_xyz
  1  'x, y, z'
loop_
 _atom_site_type_symbol
 _atom_site_label
 _atom_site_symmetry_multiplicity
 _atom_site_fract_x
 _atom_site_fract_y
 _atom_site_fract_z
 _atom_site_occupancy
  Tb  Tb0  1  0.16153200  0.66153200  0.25000000  1
  Tb  Tb1  1  0.83846800  0.33846800  0.75000000  1
  Tb  Tb2  1  0.83846800  0.33846800  0.25000000  1
  Tb  Tb3  1  0.33846800  0.16153200  0.75000000  1
  Tb  Tb4  1  0.16153200  0.66153200  0.75000000  1
  Tb  Tb5  1  0.66153200  0.83846800  0.25000000  1
  Tb  Tb6  1  0.66153200  0.83846800  0.75000000  1
  Tb  Tb7  1  0.33846800  0.16153200  0.25000000  1
  Bi  Bi0  1  0.10954200  0.38938000  0.00000000  1
  Bi  Bi1  1  0.89045800  0.61062000  0.00000000  1
  Bi  Bi2  1  0.61062000  0.10954200  0.50000000  1
  Bi  Bi3  1  0.39045800  0.88938000  0.00000000  1
  Bi  Bi4  1  0.38938000  0.89045800  0.50000000  1
  Bi  Bi5  1  0.60954200  0.11062000  0.00000000  1
  Bi  Bi6  1  0.88938000  0.60954200  0.50000000  1
  Bi  Bi7  1  0.11062000  0.39045800  0.50000000  1
  Bi  Bi8  1  0.93378300  0.12069100  0.00000000  1
  Bi  Bi9  1  0.06621700  0.87930900  0.00000000  1
  Bi  Bi10  1  0.87930900  0.93378300  0.50000000  1
  Bi  Bi11  1  0.56621700  0.62069100  0.00000000  1
  Bi  Bi12  1  0.12069100  0.06621700  0.50000000  1
  Bi  Bi13  1  0.43378300  0.37930900  0.00000000  1
  Bi  Bi14  1  0.62069100  0.43378300  0.50000000  1
  Bi  Bi15  1  0.37930900  0.56621700  0.50000000  1
  C  C0  1  0.35621000  0.57692100  0.00000000  1
  C  C1  1  0.64379000  0.42307900  0.00000000  1
  C  C2  1  0.42307900  0.35621000  0.50000000  1
  C  C3  1  0.14379000  0.07692100  0.00000000  1
  C  C4  1  0.57692100  0.64379000  0.50000000  1
  C  C5  1  0.85621000  0.92307900  0.00000000  1
  C  C6  1  0.07692100  0.85621000  0.50000000  1
  C  C7  1  0.92307900  0.14379000  0.50000000  1
loop_
_geom_bond_atom_site_label_1
_geom_bond_atom_site_label_2
_geom_bond_distance
_geom_bond_site_symmetry_2
Tb0 Tb4 2.831043 1_555
Tb0 Tb4 2.831043 1_554
Tb1 Tb2 2.831043 1_555
Tb1 Tb2 2.831043 1_556
Tb3 Tb7 2.831043 1_555
Tb3 Tb7 2.831043 1_556
Tb5 Tb6 2.831043 1_554
Tb5 Tb6 2.831043 1_555
Bi0 Bi7 2.831097 1_555
Bi0 Bi7 2.831097 1_554
Bi0 Tb1 3.486412 1_454
Bi0 Tb2 3.486412 1_455
Bi0 Tb0 3.499716 1_555
Bi0 Tb4 3.499716 1_554
Bi0 C0 3.579481 1_555
Bi0 Bi1 3.596741 1_455
Bi0 C3 3.631055 1_555
Bi0 Bi8 3.708893 1_455
Bi0 Bi13 3.747347 1_555
Bi1 Bi6 2.831097 1_555
Bi1 Bi6 2.831097 1_554
Bi1 Tb0 3.486412 1_655
Bi1 Tb4 3.486412 1_654
Bi1 Tb2 3.499716 1_555
Bi1 Tb1 3.499716 1_554
Bi1 C1 3.579481 1_555
Bi1 C5 3.631055 1_555
Bi1 Bi9 3.708893 1_655
Bi1 Bi11 3.747347 1_555
Bi2 Bi5 2.831097 1_555
Bi2 Bi5 2.831097 1_556
Bi2 Tb6 3.486412 1_545
Bi2 Tb5 3.486412 1_545
Bi2 Tb3 3.499716 1_555
Bi2 Tb7 3.499716 1_555
Bi2 C2 3.579481 1_555
Bi2 Bi4 3.596741 1_545
Bi2 C7 3.631055 1_555
Bi3 Bi4 2.831097 1_554
Bi3 Bi4 2.831097 1_555
Bi3 Tb6 3.486412 1_554
Bi3 Tb5 3.486412 1_555
Bi3 Tb3 3.499716 1_564
Bi3 Tb7 3.499716 1_565
Bi3 C3 3.579481 1_565
Bi3 Bi5 3.596741 1_565
Bi3 C0 3.631055 1_555
Bi3 Bi9 3.747347 1_555
Bi4 Tb7 3.486412 1_565
Bi4 Tb3 3.486412 1_565
Bi4 Tb6 3.499716 1_555
Bi4 Tb5 3.499716 1_555
Bi4 C4 3.579481 1_555
Bi4 C6 3.631055 1_555
Bi5 Tb7 3.486412 1_555
Bi5 Tb3 3.486412 1_554
Bi5 Tb6 3.499716 1_544
Bi5 Tb5 3.499716 1_545
Bi5 C5 3.579481 1_545
Bi5 C1 3.631055 1_555
Bi5 Bi8 3.747347 1_555
Bi6 Tb2 3.486412 1_555
Bi6 Tb1 3.486412 1_555
Bi6 Tb0 3.499716 1_655
Bi6 Tb4 3.499716 1_655
Bi6 C6 3.579481 1_655
Bi6 Bi7 3.596741 1_655
Bi6 C4 3.631055 1_555
Bi7 Tb0 3.486412 1_555
Bi7 Tb4 3.486412 1_555
Bi7 Tb2 3.499716 1_455
Bi7 Tb1 3.499716 1_455
Bi7 C7 3.579481 1_455
Bi7 C2 3.631055 1_555
Bi8 C5 2.452342 1_545
Bi8 C3 2.478072 1_655
Bi8 C7 2.846277 1_554
Bi8 C7 2.846277 1_555
Bi8 Tb2 3.089459 1_555
Bi8 Tb1 3.089459 1_554
Bi9 C3 2.452342 1_565
Bi9 C5 2.478072 1_455
Bi9 C6 2.846277 1_555
Bi9 C6 2.846277 1_554
Bi9 Tb0 3.089459 1_555
Bi9 Tb4 3.089459 1_554
Bi10 C6 2.452342 1_655
Bi10 C7 2.478072 1_565
Bi10 C5 2.846277 1_556
Bi10 C5 2.846277 1_555
Bi10 Tb5 3.089459 1_555
Bi10 Tb6 3.089459 1_555
Bi10 Bi2 3.708893 1_565
Bi10 Bi6 3.747347 1_555
Bi11 C1 2.452342 1_555
Bi11 C0 2.478072 1_555
Bi11 C4 2.846277 1_554
Bi11 C4 2.846277 1_555
Bi11 Tb6 3.089459 1_554
Bi11 Tb5 3.089459 1_555
Bi11 Bi3 3.708893 1_555
Bi12 C7 2.452342 1_455
Bi12 C6 2.478072 1_545
Bi12 C3 2.846277 1_555
Bi12 C3 2.846277 1_556
Bi12 Tb3 3.089459 1_555
Bi12 Tb7 3.089459 1_555
Bi12 Bi4 3.708893 1_545
Bi12 Bi7 3.747347 1_555
Bi13 C0 2.452342 1_555
Bi13 C1 2.478072 1_555
Bi13 C2 2.846277 1_554
Bi13 C2 2.846277 1_555
Bi13 Tb7 3.089459 1_555
Bi13 Tb3 3.089459 1_554
Bi13 Bi5 3.708893 1_555
Bi14 C2 2.452342 1_555
Bi14 C4 2.478072 1_555
Bi14 C1 2.846277 1_556
Bi14 C1 2.846277 1_555
Bi14 Tb1 3.089459 1_555
Bi14 Tb2 3.089459 1_555
Bi14 Bi6 3.708893 1_555
Bi14 Bi2 3.747347 1_555
Bi15 C4 2.452342 1_555
Bi15 C2 2.478072 1_555
Bi15 C0 2.846277 1_555
Bi15 C0 2.846277 1_556
Bi15 Tb0 3.089459 1_555
Bi15 Tb4 3.089459 1_555
Bi15 Bi7 3.708893 1_555
Bi15 Bi4 3.747347 1_555
C0 Tb0 2.831327 1_555
C0 Tb4 2.831327 1_554
C1 Tb2 2.831327 1_555
C1 Tb1 2.831327 1_554
C2 Tb3 2.831327 1_555
C2 Tb7 2.831327 1_555
C3 Tb3 2.831327 1_554
C3 Tb7 2.831327 1_555
C4 Tb5 2.831327 1_555
C4 Tb6 2.831327 1_555
C5 Tb5 2.831327 1_555
C5 Tb6 2.831327 1_554
C6 Tb4 2.831327 1_555
C6 Tb0 2.831327 1_555
C7 Tb2 2.831327 1_555
C7 Tb1 2.831327 1_555
