# generated using pymatgen
data_KNaAl6Si6(HO6)4
_symmetry_space_group_name_H-M   'P 1'
_cell_length_a   5.20574224
_cell_length_b   18.07767223
_cell_length_c   19.89041691
_cell_angle_alpha   89.99487630
_cell_angle_beta   95.49118677
_cell_angle_gamma   90.00000802
_symmetry_Int_Tables_number   1
_chemical_formula_structural   KNaAl6Si6(HO6)4
_chemical_formula_sum   'K4 Na4 Al24 Si24 H16 O96'
_cell_volume   1863.25140810
_cell_formula_units_Z   4
loop_
 _symmetry_equiv_pos_site_id
 _symmetry_equiv_pos_as_xyz
  1  'x, y, z'
loop_
 _atom_site_type_symbol
 _atom_site_label
 _atom_site_symmetry_multiplicity
 _atom_site_fract_x
 _atom_site_fract_y
 _atom_site_fract_z
 _atom_site_occupancy
  K  K0  1  0.99991163  0.45147611  0.75001552  1
  K  K1  1  0.00000714  0.04577622  0.25004002  1
  K  K2  1  0.49991851  0.80117984  0.25006618  1
  K  K3  1  0.99996261  0.95228564  0.75003906  1
  Na  Na0  1  0.49962222  0.21378882  0.75019806  1
  Na  Na1  1  0.49978533  0.28826335  0.25009442  1
  Na  Na2  1  0.49954454  0.71067618  0.75020117  1
  Na  Na3  1  0.99995536  0.55994451  0.25006260  1
  Al  Al0  1  0.25033776  0.45673221  0.49972325  1
  Al  Al1  1  0.46459471  0.36923825  0.63716896  1
  Al  Al2  1  0.74955318  0.45674923  0.00036933  1
  Al  Al3  1  0.53536369  0.36932034  0.86290669  1
  Al  Al4  1  0.75450954  0.04317386  0.49928567  1
  Al  Al5  1  0.53854303  0.13164438  0.36155742  1
  Al  Al6  1  0.24535738  0.04320059  0.00079935  1
  Al  Al7  1  0.46139127  0.13164409  0.13850528  1
  Al  Al8  1  0.75033786  0.20805348  0.49864678  1
  Al  Al9  1  0.24956715  0.20807334  0.00142566  1
  Al  Al10  1  0.25401758  0.29240966  0.49952050  1
  Al  Al11  1  0.74590207  0.29242439  0.00055856  1
  Al  Al12  1  0.25293728  0.95637304  0.50232642  1
  Al  Al13  1  0.46825929  0.86885563  0.63894916  1
  Al  Al14  1  0.74698521  0.95640600  0.99776812  1
  Al  Al15  1  0.53167205  0.86892647  0.86115725  1
  Al  Al16  1  0.75233721  0.54221390  0.49766962  1
  Al  Al17  1  0.54268542  0.62754729  0.36034849  1
  Al  Al18  1  0.24759779  0.54222927  0.00244671  1
  Al  Al19  1  0.45721740  0.62753619  0.13974318  1
  Al  Al20  1  0.75362911  0.70633412  0.49870464  1
  Al  Al21  1  0.24624951  0.70636395  0.00140265  1
  Al  Al22  1  0.25906452  0.79104219  0.50127932  1
  Al  Al23  1  0.74082257  0.79106157  0.99883305  1
  Si  Si0  1  0.46150044  0.03552450  0.63821011  1
  Si  Si1  1  0.53835095  0.03557900  0.86186735  1
  Si  Si2  1  0.54217654  0.46385440  0.35982590  1
  Si  Si3  1  0.45766543  0.46384260  0.14025697  1
  Si  Si4  1  0.98386218  0.28429272  0.63830342  1
  Si  Si5  1  0.94989848  0.12230301  0.63748010  1
  Si  Si6  1  0.01612393  0.28435391  0.86178676  1
  Si  Si7  1  0.04995005  0.12234227  0.86259654  1
  Si  Si8  1  0.02033111  0.21665256  0.35997610  1
  Si  Si9  1  0.05289780  0.37861205  0.36058849  1
  Si  Si10  1  0.97958350  0.21664883  0.14010212  1
  Si  Si11  1  0.94690302  0.37859450  0.13950153  1
  Si  Si12  1  0.46077744  0.53513031  0.63686768  1
  Si  Si13  1  0.53907038  0.53519367  0.86322339  1
  Si  Si14  1  0.54799662  0.96501406  0.36352256  1
  Si  Si15  1  0.45190087  0.96502413  0.13656524  1
  Si  Si16  1  0.98745264  0.78353931  0.63890630  1
  Si  Si17  1  0.94951719  0.62171580  0.63684519  1
  Si  Si18  1  0.01248579  0.78360418  0.86121481  1
  Si  Si19  1  0.05033485  0.62176144  0.86326331  1
  Si  Si20  1  0.02362923  0.71265577  0.36123091  1
  Si  Si21  1  0.05963599  0.87672956  0.36424577  1
  Si  Si22  1  0.97626841  0.71265787  0.13888318  1
  Si  Si23  1  0.94026406  0.87673240  0.13585785  1
  H  H0  1  0.36347216  0.17128813  0.55477518  1
  H  H1  1  0.63653014  0.17128673  0.94537646  1
  H  H2  1  0.63700361  0.32744450  0.43966207  1
  H  H3  1  0.36295463  0.32742055  0.06046482  1
  H  H4  1  0.87433717  0.42559838  0.56641403  1
  H  H5  1  0.12553992  0.42564240  0.93367398  1
  H  H6  1  0.12799081  0.07164403  0.43119354  1
  H  H7  1  0.87193944  0.07166276  0.06890505  1
  H  H8  1  0.36775794  0.66989278  0.55480604  1
  H  H9  1  0.63216252  0.66990907  0.94535567  1
  H  H10  1  0.64944391  0.82975483  0.44905888  1
  H  H11  1  0.35040766  0.82979071  0.05104313  1
  H  H12  1  0.88061197  0.92797423  0.57119586  1
  H  H13  1  0.11929475  0.92798755  0.92892196  1
  H  H14  1  0.12899884  0.57324395  0.43143911  1
  H  H15  1  0.87090208  0.57322628  0.06867538  1
  O  O0  1  0.46399441  0.02890194  0.55577380  1
  O  O1  1  0.37726293  0.37447633  0.54992843  1
  O  O2  1  0.45593924  0.21715406  0.54852756  1
  O  O3  1  0.40852242  0.45701687  0.67157241  1
  O  O4  1  0.24911046  0.09689386  0.66144871  1
  O  O5  1  0.74664519  0.06651265  0.67034450  1
  O  O6  1  0.53587703  0.02893769  0.94429885  1
  O  O7  1  0.62262978  0.37450754  0.95015480  1
  O  O8  1  0.54401048  0.21716289  0.95153964  1
  O  O9  1  0.59141874  0.45709916  0.82851313  1
  O  O10  1  0.75068824  0.09697013  0.83862821  1
  O  O11  1  0.25318714  0.06655750  0.82972693  1
  O  O12  1  0.53905718  0.47143141  0.44237158  1
  O  O13  1  0.62853599  0.12537409  0.44864840  1
  O  O14  1  0.54666210  0.28226938  0.44956225  1
  O  O15  1  0.59028773  0.04320546  0.32791669  1
  O  O16  1  0.74780511  0.39964694  0.33806717  1
  O  O17  1  0.25037062  0.43667081  0.32756849  1
  O  O18  1  0.46082122  0.47143968  0.05770954  1
  O  O19  1  0.37136414  0.12538571  0.05141660  1
  O  O20  1  0.45327655  0.28226454  0.05050485  1
  O  O21  1  0.40957486  0.04320877  0.17216299  1
  O  O22  1  0.25201227  0.39962702  0.16200442  1
  O  O23  1  0.74942709  0.43664408  0.17251225  1
  O  O24  1  0.96937370  0.27482683  0.55532475  1
  O  O25  1  0.89598272  0.12430890  0.55556738  1
  O  O26  1  0.95334448  0.46934153  0.54866015  1
  O  O27  1  0.90098312  0.20369131  0.67040171  1
  O  O28  1  0.78998729  0.34829825  0.65895423  1
  O  O29  1  0.27273590  0.30225228  0.67260299  1
  O  O30  1  0.03061079  0.27486643  0.94475807  1
  O  O31  1  0.10385515  0.12433445  0.94450958  1
  O  O32  1  0.04652479  0.46937999  0.95142751  1
  O  O33  1  0.09893790  0.20373995  0.82968670  1
  O  O34  1  0.21005618  0.34832991  0.84110431  1
  O  O35  1  0.72726939  0.30233223  0.82749068  1
  O  O36  1  0.03377108  0.22610294  0.44296319  1
  O  O37  1  0.11135453  0.37630692  0.44243942  1
  O  O38  1  0.04925880  0.02834584  0.44987142  1
  O  O39  1  0.10685302  0.29715384  0.32802097  1
  O  O40  1  0.21283659  0.15208832  0.33970333  1
  O  O41  1  0.73077857  0.19865673  0.32612489  1
  O  O42  1  0.96615138  0.22611128  0.05710872  1
  O  O43  1  0.88850918  0.37630849  0.05764777  1
  O  O44  1  0.95062236  0.02837391  0.05020335  1
  O  O45  1  0.89297192  0.29712319  0.17205731  1
  O  O46  1  0.78713071  0.15205092  0.16034675  1
  O  O47  1  0.26915973  0.19865849  0.17394684  1
  O  O48  1  0.46264233  0.52836040  0.55438518  1
  O  O49  1  0.38092773  0.87392469  0.55185940  1
  O  O50  1  0.46064203  0.71583460  0.54920308  1
  O  O51  1  0.41207840  0.95705311  0.67277279  1
  O  O52  1  0.24944529  0.59673138  0.66039113  1
  O  O53  1  0.74612377  0.56574977  0.66944086  1
  O  O54  1  0.53722562  0.52839754  0.94570515  1
  O  O55  1  0.61896847  0.87396543  0.94824729  1
  O  O56  1  0.53926659  0.71586104  0.95090649  1
  O  O57  1  0.58785737  0.95711544  0.82730977  1
  O  O58  1  0.75036057  0.59682488  0.83972155  1
  O  O59  1  0.25370060  0.56580656  0.83065304  1
  O  O60  1  0.54313760  0.97110802  0.44577857  1
  O  O61  1  0.62504101  0.62448142  0.44798178  1
  O  O62  1  0.55518440  0.78340623  0.45103661  1
  O  O63  1  0.61174713  0.54082779  0.32509856  1
  O  O64  1  0.76663356  0.90608363  0.34028638  1
  O  O65  1  0.26820064  0.93057652  0.33096891  1
  O  O66  1  0.45673016  0.97112528  0.05430848  1
  O  O67  1  0.37483824  0.62449417  0.05212368  1
  O  O68  1  0.44468183  0.78343816  0.04908968  1
  O  O69  1  0.38811670  0.54080585  0.17498486  1
  O  O70  1  0.23327443  0.90608429  0.15980917  1
  O  O71  1  0.73170116  0.93058476  0.16912399  1
  O  O72  1  0.97440638  0.77356945  0.55599062  1
  O  O73  1  0.89477403  0.62336581  0.55500172  1
  O  O74  1  0.95818204  0.97074223  0.55130395  1
  O  O75  1  0.90192686  0.70292588  0.67044262  1
  O  O76  1  0.79478569  0.84808841  0.65937338  1
  O  O77  1  0.27615341  0.80135570  0.67368851  1
  O  O78  1  0.02551210  0.77361320  0.94412706  1
  O  O79  1  0.10507566  0.62339597  0.94510753  1
  O  O80  1  0.04171431  0.97076681  0.94878697  1
  O  O81  1  0.09807388  0.70298721  0.82967932  1
  O  O82  1  0.20518779  0.84813815  0.84073846  1
  O  O83  1  0.72377880  0.80141736  0.82643387  1
  O  O84  1  0.04215215  0.72205007  0.44428862  1
  O  O85  1  0.11203304  0.87440120  0.44595927  1
  O  O86  1  0.04909940  0.52972178  0.44929192  1
  O  O87  1  0.09619874  0.79505714  0.33089674  1
  O  O88  1  0.21576599  0.64867723  0.33814018  1
  O  O89  1  0.73750084  0.69383197  0.32686934  1
  O  O90  1  0.95772736  0.72206703  0.05582311  1
  O  O91  1  0.88783914  0.87442687  0.05414307  1
  O  O92  1  0.95077499  0.52971620  0.05080143  1
  O  O93  1  0.90367962  0.79505149  0.16920052  1
  O  O94  1  0.78412365  0.64866502  0.16196091  1
  O  O95  1  0.26241393  0.69382559  0.17323442  1
loop_
_geom_bond_atom_site_label_1
_geom_bond_atom_site_label_2
_geom_bond_distance
_geom_bond_site_symmetry_2
K0 O28 2.752393 1_555
K0 O34 2.752508 1_655
K0 O3 2.757584 1_655
K0 O9 2.757836 1_555
K0 O53 2.859317 1_555
K0 O59 2.860913 1_655
K1 O21 2.753095 1_555
K1 O15 2.753741 1_455
K1 O46 2.779005 1_455
K1 O40 2.779250 1_555
K1 O65 2.906313 1_545
K1 O71 2.906533 1_445
K1 O15 3.306506 1_555
K1 O21 3.307210 1_455
K2 O89 2.695767 1_555
K2 O95 2.696180 1_555
K2 O87 2.767806 1_555
K2 O93 2.768454 1_555
K2 O64 2.875454 1_555
K2 O70 2.875517 1_555
K2 O65 3.144606 1_555
K2 O71 3.145079 1_555
K3 O82 2.751584 1_655
K3 O76 2.751923 1_555
K3 O51 2.757348 1_655
K3 O57 2.757402 1_555
K3 O5 2.848704 1_565
K3 O11 2.849231 1_665
K3 O51 3.291667 1_555
K3 O57 3.291786 1_655
Na0 O35 2.445772 1_555
Na0 O29 2.446480 1_555
Na0 O33 2.741292 1_555
Na0 O27 2.748220 1_555
Na0 O10 2.970032 1_555
Na0 O4 2.973630 1_555
Na1 O41 2.451225 1_555
Na1 O47 2.451887 1_555
Na1 O39 2.686862 1_555
Na1 O45 2.689322 1_555
Na1 O16 2.889899 1_555
Na1 O22 2.890244 1_555
Na2 O83 2.452415 1_555
Na2 O77 2.452860 1_555
Na2 O81 2.742007 1_555
Na2 O75 2.749579 1_555
Na2 O58 2.943770 1_555
Na2 O52 2.946983 1_555
Na3 O88 2.555034 1_655
Na3 O94 2.555049 1_555
Na3 O63 2.647305 1_555
Na3 O69 2.647722 1_655
Na3 O17 2.942271 1_655
Na3 O23 2.943503 1_555
Al0 O1 1.875738 1_555
Al0 O86 1.908755 1_555
Al0 O26 1.917762 1_455
Al0 O37 1.943722 1_555
Al0 O48 1.962282 1_555
Al0 O12 1.989726 1_555
Al1 O28 1.749253 1_555
Al1 O1 1.753777 1_555
Al1 O29 1.759331 1_555
Al1 O3 1.763500 1_555
Al2 O7 1.875766 1_554
Al2 O92 1.908560 1_555
Al2 O32 1.917748 1_654
Al2 O43 1.943674 1_555
Al2 O54 1.962477 1_554
Al2 O18 1.989638 1_555
Al3 O34 1.749102 1_555
Al3 O7 1.753834 1_555
Al3 O35 1.759430 1_555
Al3 O9 1.763295 1_555
Al4 O13 1.877760 1_555
Al4 O38 1.918570 1_655
Al4 O74 1.923283 1_545
Al4 O25 1.946640 1_555
Al4 O60 1.953668 1_545
Al4 O0 1.985278 1_555
Al5 O40 1.749092 1_555
Al5 O13 1.754352 1_555
Al5 O41 1.760835 1_555
Al5 O15 1.763815 1_555
Al6 O19 1.877538 1_555
Al6 O44 1.918359 1_455
Al6 O80 1.923302 1_544
Al6 O31 1.946608 1_554
Al6 O66 1.953677 1_545
Al6 O6 1.985460 1_554
Al7 O46 1.749091 1_555
Al7 O19 1.754345 1_555
Al7 O47 1.761016 1_555
Al7 O21 1.763851 1_555
Al8 O13 1.872062 1_555
Al8 O2 1.910815 1_555
Al8 O14 1.918088 1_555
Al8 O24 1.944840 1_555
Al8 O36 1.955228 1_655
Al8 O25 1.995994 1_555
Al9 O19 1.871958 1_555
Al9 O8 1.911043 1_554
Al9 O20 1.917938 1_555
Al9 O30 1.944609 1_554
Al9 O42 1.955146 1_455
Al9 O31 1.996136 1_554
Al10 O1 1.869506 1_555
Al10 O14 1.905682 1_555
Al10 O2 1.926026 1_555
Al10 O36 1.941721 1_555
Al10 O24 1.960475 1_455
Al10 O37 1.994795 1_555
Al11 O7 1.869599 1_554
Al11 O20 1.905473 1_555
Al11 O8 1.926254 1_554
Al11 O42 1.941602 1_555
Al11 O30 1.960660 1_654
Al11 O43 1.994762 1_555
Al12 O49 1.873562 1_555
Al12 O74 1.912350 1_455
Al12 O38 1.921903 1_565
Al12 O0 1.957844 1_565
Al12 O85 1.958026 1_555
Al12 O60 1.985806 1_555
Al13 O76 1.750187 1_555
Al13 O49 1.750722 1_555
Al13 O77 1.760298 1_555
Al13 O51 1.765821 1_555
Al14 O55 1.873513 1_555
Al14 O80 1.912232 1_655
Al14 O44 1.921669 1_566
Al14 O91 1.957974 1_556
Al14 O6 1.958099 1_565
Al14 O66 1.985932 1_556
Al15 O82 1.750061 1_555
Al15 O55 1.750685 1_555
Al15 O83 1.760360 1_555
Al15 O57 1.765767 1_555
Al16 O61 1.871381 1_555
Al16 O86 1.909997 1_655
Al16 O26 1.911983 1_555
Al16 O73 1.959820 1_555
Al16 O12 1.961216 1_555
Al16 O48 1.983724 1_555
Al17 O89 1.742678 1_555
Al17 O61 1.755592 1_555
Al17 O88 1.758821 1_555
Al17 O63 1.768311 1_555
Al18 O67 1.871289 1_555
Al18 O92 1.910026 1_455
Al18 O32 1.912263 1_554
Al18 O79 1.960088 1_554
Al18 O18 1.960666 1_555
Al18 O54 1.983747 1_554
Al19 O95 1.742885 1_555
Al19 O67 1.755341 1_555
Al19 O94 1.758799 1_555
Al19 O69 1.768355 1_555
Al20 O61 1.877901 1_555
Al20 O50 1.912563 1_555
Al20 O62 1.928655 1_555
Al20 O84 1.954283 1_655
Al20 O72 1.961172 1_555
Al20 O73 1.971199 1_555
Al21 O67 1.877985 1_555
Al21 O56 1.912646 1_554
Al21 O68 1.928939 1_555
Al21 O90 1.954329 1_455
Al21 O78 1.960983 1_554
Al21 O79 1.971374 1_554
Al22 O49 1.880876 1_555
Al22 O50 1.914831 1_555
Al22 O62 1.920652 1_555
Al22 O72 1.946403 1_455
Al22 O84 1.967454 1_555
Al22 O85 1.976353 1_555
Al23 O55 1.881084 1_555
Al23 O56 1.914830 1_555
Al23 O68 1.920881 1_556
Al23 O78 1.946429 1_655
Al23 O90 1.967326 1_556
Al23 O91 1.976460 1_556
H0 O2 0.972660 1_555
H1 O8 0.972683 1_555
H2 O14 0.971897 1_555
H3 O20 0.971882 1_555
H4 O26 0.973105 1_555
H5 O32 0.973091 1_555
H6 O38 0.973530 1_555
H7 O44 0.973531 1_555
H8 O50 0.972771 1_555
H9 O56 0.972809 1_555
H10 O62 0.973677 1_555
H11 O68 0.973741 1_555
H12 O74 0.973594 1_555
H13 O80 0.973598 1_555
H14 O86 0.972799 1_555
H15 O92 0.972781 1_555
O0 Si0 1.645358 1_555
O3 Si12 1.606336 1_555
O4 Si5 1.649939 1_455
O4 Si0 1.662772 1_555
O5 Si5 1.642040 1_555
O5 Si0 1.656577 1_555
O6 Si1 1.645255 1_555
O9 Si13 1.606296 1_555
O10 Si7 1.650013 1_655
O10 Si1 1.662794 1_555
O11 Si7 1.642040 1_555
O11 Si1 1.656601 1_555
O12 Si2 1.649212 1_555
O15 Si14 1.605532 1_545
O16 Si9 1.652743 1_655
O16 Si2 1.664091 1_555
O17 Si9 1.648883 1_555
O17 Si2 1.665606 1_555
O18 Si3 1.649272 1_555
O21 Si15 1.605496 1_545
O22 Si11 1.652766 1_455
O22 Si3 1.664152 1_555
O23 Si11 1.648779 1_555
O23 Si3 1.665437 1_555
O24 Si4 1.653869 1_555
O25 Si5 1.626994 1_555
O27 Si5 1.640268 1_555
O27 Si4 1.664156 1_555
O28 Si4 1.614177 1_555
O29 Si4 1.623564 1_455
O30 Si6 1.653734 1_555
O31 Si7 1.626997 1_555
O33 Si7 1.640291 1_555
O33 Si6 1.664368 1_555
O34 Si6 1.614134 1_555
O35 Si6 1.623496 1_655
O36 Si8 1.654288 1_555
O37 Si9 1.627899 1_555
O39 Si9 1.643771 1_555
O39 Si8 1.667126 1_555
O40 Si8 1.614491 1_555
O41 Si8 1.623899 1_655
O42 Si10 1.654407 1_555
O43 Si11 1.627923 1_555
O45 Si11 1.643757 1_555
O45 Si10 1.666945 1_555
O46 Si10 1.614529 1_555
O47 Si10 1.623923 1_455
O48 Si12 1.646135 1_555
O51 Si0 1.607746 1_565
O52 Si17 1.649594 1_455
O52 Si12 1.663717 1_555
O53 Si17 1.642043 1_555
O53 Si12 1.657879 1_555
O54 Si13 1.646124 1_555
O57 Si1 1.607773 1_565
O58 Si19 1.649585 1_655
O58 Si13 1.663727 1_555
O59 Si19 1.642025 1_555
O59 Si13 1.657889 1_555
O60 Si14 1.642429 1_555
O63 Si2 1.610051 1_555
O64 Si21 1.641970 1_655
O64 Si14 1.656718 1_555
O65 Si21 1.643746 1_555
O65 Si14 1.657688 1_555
O66 Si15 1.642416 1_555
O69 Si3 1.609974 1_555
O70 Si23 1.641990 1_455
O70 Si15 1.656788 1_555
O71 Si23 1.643768 1_555
O71 Si15 1.657707 1_555
O72 Si16 1.653984 1_555
O73 Si17 1.625844 1_555
O75 Si17 1.641677 1_555
O75 Si16 1.663945 1_555
O76 Si16 1.616034 1_555
O77 Si16 1.625462 1_455
O78 Si18 1.653932 1_555
O79 Si19 1.625858 1_555
O81 Si19 1.641858 1_555
O81 Si18 1.664191 1_555
O82 Si18 1.615959 1_555
O83 Si18 1.625446 1_655
O84 Si20 1.654382 1_555
O85 Si21 1.622641 1_555
O87 Si21 1.637212 1_555
O87 Si20 1.664093 1_555
O88 Si20 1.623906 1_555
O89 Si20 1.614550 1_655
O90 Si22 1.654422 1_555
O91 Si23 1.622674 1_555
O93 Si23 1.637209 1_555
O93 Si22 1.663961 1_555
O94 Si22 1.623970 1_555
O95 Si22 1.614566 1_455
