# generated using pymatgen
data_LiMg14Ni
_symmetry_space_group_name_H-M   'P 1'
_cell_length_a   6.28257080
_cell_length_b   6.38836264
_cell_length_c   9.78883629
_cell_angle_alpha   90.00000000
_cell_angle_beta   90.00000000
_cell_angle_gamma   120.55861396
_symmetry_Int_Tables_number   1
_chemical_formula_structural   LiMg14Ni
_chemical_formula_sum   'Li1 Mg14 Ni1'
_cell_volume   338.31121582
_cell_formula_units_Z   1
loop_
 _symmetry_equiv_pos_site_id
 _symmetry_equiv_pos_as_xyz
  1  'x, y, z'
loop_
 _atom_site_type_symbol
 _atom_site_label
 _atom_site_symmetry_multiplicity
 _atom_site_fract_x
 _atom_site_fract_y
 _atom_site_fract_z
 _atom_site_occupancy
  Li  Li0  1  0.16616739  0.83308320  0.12500000  1
  Mg  Mg0  1  0.17105062  0.33552481  0.62500000  1
  Mg  Mg1  1  0.17411452  0.83705676  0.62500000  1
  Mg  Mg2  1  0.68936208  0.34830125  0.12500000  1
  Mg  Mg3  1  0.66429366  0.32910827  0.62500000  1
  Mg  Mg4  1  0.68936208  0.84105982  0.12500000  1
  Mg  Mg5  1  0.66429366  0.83518439  0.62500000  1
  Mg  Mg6  1  0.31903062  0.16766387  0.35418971  1
  Mg  Mg7  1  0.31903062  0.16766387  0.89581029  1
  Mg  Mg8  1  0.31903062  0.65136775  0.35418971  1
  Mg  Mg9  1  0.31903062  0.65136775  0.89581029  1
  Mg  Mg10  1  0.84025057  0.17012579  0.36445600  1
  Mg  Mg11  1  0.84025057  0.17012579  0.88554400  1
  Mg  Mg12  1  0.83211046  0.66605573  0.37879051  1
  Mg  Mg13  1  0.83211046  0.66605573  0.87120949  1
  Ni  Ni0  1  0.16051144  0.33025522  0.12500000  1
loop_
_geom_bond_atom_site_label_1
_geom_bond_atom_site_label_2
_geom_bond_distance
_geom_bond_site_symmetry_2
Li0 Mg9 2.904627 1_554
Li0 Mg8 2.904627 1_555
Li0 Mg7 2.904634 1_564
Li0 Mg6 2.904634 1_565
Li0 Mg2 3.021789 1_455
Li0 Mg4 3.021790 1_455
Li0 Mg13 3.072123 1_454
Li0 Mg12 3.072123 1_455
Li0 Ni0 3.194328 1_565
Li0 Ni0 3.194328 1_555
Li0 Mg2 3.261395 1_565
Li0 Mg4 3.261395 1_555
Mg0 Mg10 3.115670 1_455
Mg0 Mg11 3.115670 1_455
Mg0 Mg5 3.119874 1_555
Mg0 Mg3 3.119875 1_555
Mg0 Mg5 3.163092 1_445
Mg0 Mg3 3.163093 1_455
Mg0 Mg6 3.171025 1_555
Mg0 Mg7 3.171025 1_555
Mg0 Mg9 3.171031 1_555
Mg0 Mg8 3.171031 1_555
Mg0 Mg1 3.194224 1_555
Mg0 Mg1 3.194224 1_545
Mg1 Mg12 3.038417 1_455
Mg1 Mg13 3.038417 1_455
Mg1 Mg3 3.085683 1_565
Mg1 Mg5 3.085684 1_555
Mg1 Mg3 3.196921 1_455
Mg1 Mg5 3.196921 1_455
Mg1 Mg8 3.218954 1_555
Mg1 Mg9 3.218954 1_555
Mg1 Mg6 3.218960 1_565
Mg1 Mg7 3.218960 1_565
Mg2 Mg7 3.008004 1_554
Mg2 Mg6 3.008004 1_555
Mg2 Ni0 3.020274 1_655
Mg2 Mg4 3.147920 1_555
Mg2 Mg4 3.240442 1_545
Mg2 Ni0 3.265438 1_555
Mg3 Mg5 3.155365 1_545
Mg3 Mg5 3.232998 1_555
Mg3 Mg6 3.243670 1_555
Mg3 Mg7 3.243670 1_555
Mg4 Mg8 3.008004 1_555
Mg4 Mg9 3.008004 1_554
Mg4 Ni0 3.020274 1_665
Mg4 Ni0 3.265438 1_555
Mg5 Mg9 3.243670 1_555
Mg5 Mg8 3.243670 1_555
Mg6 Ni0 2.855849 1_555
Mg6 Mg8 3.090076 1_555
Mg6 Mg8 3.298287 1_545
Mg7 Ni0 2.855849 1_556
Mg7 Mg9 3.090076 1_555
Mg7 Mg9 3.298287 1_545
Mg8 Ni0 2.855855 1_555
Mg9 Ni0 2.855855 1_556
Mg10 Ni0 2.914830 1_655
Mg10 Mg2 2.964079 1_555
Mg10 Mg4 2.964086 1_545
Mg10 Mg8 3.017670 1_655
Mg10 Mg6 3.017670 1_655
Mg10 Mg3 3.146407 1_555
Mg10 Mg5 3.146413 1_545
Mg10 Mg12 3.197565 1_555
Mg10 Mg12 3.197565 1_545
Mg10 Mg8 3.268178 1_545
Mg10 Mg6 3.268179 1_555
Mg11 Ni0 2.914830 1_656
Mg11 Mg2 2.964079 1_556
Mg11 Mg4 2.964086 1_546
Mg11 Mg9 3.017670 1_655
Mg11 Mg7 3.017670 1_655
Mg11 Mg3 3.146407 1_555
Mg11 Mg5 3.146413 1_545
Mg11 Mg13 3.197565 1_555
Mg11 Mg13 3.197565 1_545
Mg11 Mg9 3.268178 1_545
Mg11 Mg7 3.268179 1_555
Mg12 Mg4 3.040648 1_555
Mg12 Mg2 3.040655 1_555
Mg12 Mg5 3.040708 1_555
Mg12 Mg3 3.040715 1_555
Mg12 Mg6 3.117182 1_665
Mg12 Mg8 3.117183 1_655
Mg12 Mg6 3.185896 1_555
Mg12 Mg8 3.185896 1_555
Mg13 Mg4 3.040648 1_556
Mg13 Mg2 3.040655 1_556
Mg13 Mg5 3.040708 1_555
Mg13 Mg3 3.040715 1_555
Mg13 Mg7 3.117182 1_665
Mg13 Mg9 3.117183 1_655
Mg13 Mg7 3.185896 1_555
Mg13 Mg9 3.185896 1_555
