# generated using pymatgen
data_CsLiZnS2
_symmetry_space_group_name_H-M   'P 1'
_cell_length_a   15.40954190
_cell_length_b   15.40954190
_cell_length_c   15.40954190
_cell_angle_alpha   149.25198564
_cell_angle_beta   149.25198564
_cell_angle_gamma   44.04052760
_symmetry_Int_Tables_number   1
_chemical_formula_structural   CsLiZnS2
_chemical_formula_sum   'Cs8 Li8 Zn8 S16'
_cell_volume   953.70427795
_cell_formula_units_Z   8
loop_
 _symmetry_equiv_pos_site_id
 _symmetry_equiv_pos_as_xyz
  1  'x, y, z'
loop_
 _atom_site_type_symbol
 _atom_site_label
 _atom_site_symmetry_multiplicity
 _atom_site_fract_x
 _atom_site_fract_y
 _atom_site_fract_z
 _atom_site_occupancy
  Cs  Cs0_0  1  0.00000000  0.00000000  0.00000000  1
  Cs  Cs0_1  1  0.00000000  0.00000000  0.50000000  1
  Cs  Cs0_2  1  0.00000000  0.50000000  0.00000000  1
  Cs  Cs0_3  1  0.00000000  0.50000000  0.50000000  1
  Cs  Cs0_4  1  0.50000000  0.00000000  0.00000000  1
  Cs  Cs0_5  1  0.50000000  0.00000000  0.50000000  1
  Cs  Cs0_6  1  0.50000000  0.50000000  0.00000000  1
  Cs  Cs0_7  1  0.50000000  0.50000000  0.50000000  1
  Li  Li0_0  1  0.12500000  0.37500000  0.25000000  1
  Li  Li0_1  1  0.12500000  0.37500000  0.75000000  1
  Li  Li0_2  1  0.12500000  0.87500000  0.25000000  1
  Li  Li0_3  1  0.12500000  0.87500000  0.75000000  1
  Li  Li0_4  1  0.62500000  0.37500000  0.25000000  1
  Li  Li0_5  1  0.62500000  0.37500000  0.75000000  1
  Li  Li0_6  1  0.62500000  0.87500000  0.25000000  1
  Li  Li0_7  1  0.62500000  0.87500000  0.75000000  1
  Zn  Zn0_0  1  0.37500000  0.12500000  0.25000000  1
  Zn  Zn0_1  1  0.37500000  0.12500000  0.75000000  1
  Zn  Zn0_2  1  0.37500000  0.62500000  0.25000000  1
  Zn  Zn0_3  1  0.37500000  0.62500000  0.75000000  1
  Zn  Zn0_4  1  0.87500000  0.12500000  0.25000000  1
  Zn  Zn0_5  1  0.87500000  0.12500000  0.75000000  1
  Zn  Zn0_6  1  0.87500000  0.62500000  0.25000000  1
  Zn  Zn0_7  1  0.87500000  0.62500000  0.75000000  1
  S  S0_0  1  0.32910250  0.32910250  0.00000000  1
  S  S0_1  1  0.32910250  0.32910250  0.50000000  1
  S  S0_2  1  0.32910250  0.82910250  0.00000000  1
  S  S0_3  1  0.32910250  0.82910250  0.50000000  1
  S  S0_4  1  0.82910250  0.32910250  0.00000000  1
  S  S0_5  1  0.82910250  0.32910250  0.50000000  1
  S  S0_6  1  0.82910250  0.82910250  0.00000000  1
  S  S0_7  1  0.82910250  0.82910250  0.50000000  1
  S  S1_0  1  0.17089750  0.17089750  0.00000000  1
  S  S1_1  1  0.17089750  0.17089750  0.50000000  1
  S  S1_2  1  0.17089750  0.67089750  0.00000000  1
  S  S1_3  1  0.17089750  0.67089750  0.50000000  1
  S  S1_4  1  0.67089750  0.17089750  0.00000000  1
  S  S1_5  1  0.67089750  0.17089750  0.50000000  1
  S  S1_6  1  0.67089750  0.67089750  0.00000000  1
  S  S1_7  1  0.67089750  0.67089750  0.50000000  1
loop_
_geom_bond_atom_site_label_1
_geom_bond_atom_site_label_2
_geom_bond_distance
_geom_bond_site_symmetry_2
Cs0_0 S0_2 3.667806 1_545
Cs0_0 S0_7 3.667806 1_444
Cs0_0 S0_4 3.667806 1_455
Cs0_0 S0_1 3.667806 1_555
Cs0_0 S1_1 3.667806 1_555
Cs0_0 S1_4 3.667806 1_455
Cs0_0 S1_7 3.667806 1_444
Cs0_0 S1_2 3.667806 1_545
Cs0_0 Cs0_3 4.085358 1_555
Cs0_0 Cs0_5 4.085358 1_454
Cs0_0 Cs0_5 4.085358 1_555
Cs0_0 Cs0_3 4.085358 1_544
Cs0_1 S0_5 3.667806 1_455
Cs0_1 S0_3 3.667806 1_545
Cs0_1 S0_6 3.667806 1_445
Cs0_1 S0_0 3.667806 1_556
Cs0_1 S1_0 3.667806 1_556
Cs0_1 S1_6 3.667806 1_445
Cs0_1 S1_3 3.667806 1_545
Cs0_1 S1_5 3.667806 1_455
Cs0_1 Cs0_4 4.085358 1_556
Cs0_1 Cs0_2 4.085358 1_545
Cs0_1 Cs0_4 4.085358 1_455
Cs0_1 Cs0_2 4.085358 1_556
Cs0_2 S0_3 3.667806 1_555
Cs0_2 S0_0 3.667806 1_555
Cs0_2 S0_5 3.667806 1_454
Cs0_2 S0_6 3.667806 1_455
Cs0_2 S1_0 3.667806 1_555
Cs0_2 S1_5 3.667806 1_454
Cs0_2 S1_3 3.667806 1_555
Cs0_2 S1_6 3.667806 1_455
Cs0_2 Cs0_7 4.085358 1_454
Cs0_2 Cs0_7 4.085358 1_555
Cs0_3 S0_2 3.667806 1_556
Cs0_3 S0_7 3.667806 1_455
Cs0_3 S0_4 3.667806 1_455
Cs0_3 S0_1 3.667806 1_555
Cs0_3 S1_1 3.667806 1_555
Cs0_3 S1_2 3.667806 1_556
Cs0_3 S1_4 3.667806 1_455
Cs0_3 S1_7 3.667806 1_455
Cs0_3 Cs0_6 4.085358 1_556
Cs0_3 Cs0_6 4.085358 1_455
Cs0_4 S0_3 3.667806 1_544
Cs0_4 S0_0 3.667806 1_555
Cs0_4 S0_5 3.667806 1_555
Cs0_4 S0_6 3.667806 1_545
Cs0_4 S1_5 3.667806 1_555
Cs0_4 S1_0 3.667806 1_555
Cs0_4 S1_3 3.667806 1_544
Cs0_4 S1_6 3.667806 1_545
Cs0_4 Cs0_7 4.085358 1_555
Cs0_4 Cs0_7 4.085358 1_544
Cs0_5 S0_2 3.667806 1_545
Cs0_5 S0_1 3.667806 1_555
Cs0_5 S0_7 3.667806 1_545
Cs0_5 S0_4 3.667806 1_556
Cs0_5 S1_1 3.667806 1_555
Cs0_5 S1_2 3.667806 1_545
Cs0_5 S1_4 3.667806 1_556
Cs0_5 S1_7 3.667806 1_545
Cs0_5 Cs0_6 4.085358 1_545
Cs0_5 Cs0_6 4.085358 1_556
Cs0_6 S0_2 3.667806 1_555
Cs0_6 S0_7 3.667806 1_555
Cs0_6 S0_1 3.667806 1_554
Cs0_6 S0_4 3.667806 1_555
Cs0_6 S1_1 3.667806 1_554
Cs0_6 S1_7 3.667806 1_555
Cs0_6 S1_4 3.667806 1_555
Cs0_6 S1_2 3.667806 1_555
Cs0_7 S0_3 3.667806 1_555
Cs0_7 S0_5 3.667806 1_555
Cs0_7 S0_6 3.667806 1_556
Cs0_7 S0_0 3.667806 1_555
Cs0_7 S1_5 3.667806 1_555
Cs0_7 S1_0 3.667806 1_555
Cs0_7 S1_3 3.667806 1_555
Cs0_7 S1_6 3.667806 1_556
Li0_0 S1_0 2.427371 1_555
Li0_0 S1_3 2.427371 1_555
Li0_0 S0_1 2.427371 1_555
Li0_0 S0_4 2.427371 1_455
Li0_0 Zn0_5 2.888784 1_454
Li0_0 Zn0_6 2.888784 1_455
Li0_0 Zn0_0 2.888784 1_555
Li0_0 Zn0_3 2.888784 1_555
Li0_1 S1_2 2.427371 1_556
Li0_1 S1_1 2.427371 1_555
Li0_1 S0_0 2.427371 1_556
Li0_1 S0_5 2.427371 1_455
Li0_1 Zn0_4 2.888784 1_455
Li0_1 Zn0_2 2.888784 1_556
Li0_1 Zn0_7 2.888784 1_455
Li0_1 Zn0_1 2.888784 1_555
Li0_2 S1_2 2.427371 1_555
Li0_2 S1_1 2.427371 1_565
Li0_2 S0_6 2.427371 1_455
Li0_2 S0_3 2.427371 1_555
Li0_2 Zn0_7 2.888784 1_454
Li0_2 Zn0_1 2.888784 1_565
Li0_2 Zn0_2 2.888784 1_555
Li0_2 Zn0_4 2.888784 1_465
Li0_3 S1_0 2.427371 1_566
Li0_3 S1_3 2.427371 1_555
Li0_3 S0_7 2.427371 1_455
Li0_3 S0_2 2.427371 1_556
Li0_3 Zn0_0 2.888784 1_566
Li0_3 Zn0_5 2.888784 1_465
Li0_3 Zn0_6 2.888784 1_455
Li0_3 Zn0_3 2.888784 1_555
Li0_4 S1_7 2.427371 1_555
Li0_4 S1_4 2.427371 1_555
Li0_4 S0_0 2.427371 1_555
Li0_4 S0_5 2.427371 1_555
Li0_4 Zn0_2 2.888784 1_555
Li0_4 Zn0_1 2.888784 1_554
Li0_4 Zn0_7 2.888784 1_555
Li0_4 Zn0_4 2.888784 1_555
Li0_5 S1_5 2.427371 1_555
Li0_5 S1_6 2.427371 1_556
Li0_5 S0_4 2.427371 1_556
Li0_5 S0_1 2.427371 1_555
Li0_5 Zn0_3 2.888784 1_555
Li0_5 Zn0_0 2.888784 1_555
Li0_5 Zn0_6 2.888784 1_556
Li0_5 Zn0_5 2.888784 1_555
Li0_6 S1_6 2.427371 1_555
Li0_6 S1_5 2.427371 1_565
Li0_6 S0_2 2.427371 1_555
Li0_6 S0_7 2.427371 1_555
Li0_6 Zn0_3 2.888784 1_554
Li0_6 Zn0_0 2.888784 1_565
Li0_6 Zn0_6 2.888784 1_555
Li0_6 Zn0_5 2.888784 1_565
Li0_7 S1_7 2.427371 1_555
Li0_7 S1_4 2.427371 1_566
Li0_7 S0_6 2.427371 1_556
Li0_7 S0_3 2.427371 1_555
Li0_7 Zn0_2 2.888784 1_555
Li0_7 Zn0_1 2.888784 1_565
Li0_7 Zn0_7 2.888784 1_555
Li0_7 Zn0_4 2.888784 1_566
S0_0 Zn0_2 2.427371 1_555
S0_0 Zn0_1 2.427371 1_554
S0_1 Zn0_3 2.427371 1_555
S0_1 Zn0_0 2.427371 1_555
S0_2 Zn0_3 2.427371 1_554
S0_2 Zn0_0 2.427371 1_565
S0_3 Zn0_2 2.427371 1_555
S0_3 Zn0_1 2.427371 1_565
S0_4 Zn0_5 2.427371 1_554
S0_4 Zn0_6 2.427371 1_555
S0_5 Zn0_7 2.427371 1_555
S0_5 Zn0_4 2.427371 1_555
S0_6 Zn0_7 2.427371 1_554
S0_6 Zn0_4 2.427371 1_565
S0_7 Zn0_6 2.427371 1_555
S0_7 Zn0_5 2.427371 1_565
S1_0 Zn0_5 2.427371 1_454
S1_0 Zn0_0 2.427371 1_555
S1_1 Zn0_4 2.427371 1_455
S1_1 Zn0_1 2.427371 1_555
S1_2 Zn0_2 2.427371 1_555
S1_2 Zn0_7 2.427371 1_454
S1_3 Zn0_6 2.427371 1_455
S1_3 Zn0_3 2.427371 1_555
S1_4 Zn0_1 2.427371 1_554
S1_4 Zn0_4 2.427371 1_555
S1_5 Zn0_0 2.427371 1_555
S1_5 Zn0_5 2.427371 1_555
S1_6 Zn0_3 2.427371 1_554
S1_6 Zn0_6 2.427371 1_555
S1_7 Zn0_2 2.427371 1_555
S1_7 Zn0_7 2.427371 1_555
