# generated using pymatgen
data_CsEuPO4
_symmetry_space_group_name_H-M   'P 1'
_cell_length_a   5.74382500
_cell_length_b   7.90213400
_cell_length_c   10.27799700
_cell_angle_alpha   90.00000000
_cell_angle_beta   90.00000000
_cell_angle_gamma   90.00000000
_symmetry_Int_Tables_number   1
_chemical_formula_structural   CsEuPO4
_chemical_formula_sum   'Cs4 Eu4 P4 O16'
_cell_volume   466.50260806
_cell_formula_units_Z   4
loop_
 _symmetry_equiv_pos_site_id
 _symmetry_equiv_pos_as_xyz
  1  'x, y, z'
loop_
 _atom_site_type_symbol
 _atom_site_label
 _atom_site_symmetry_multiplicity
 _atom_site_fract_x
 _atom_site_fract_y
 _atom_site_fract_z
 _atom_site_occupancy
  Cs  Cs0  1  0.75000000  0.13540100  0.91305000  1
  Cs  Cs1  1  0.25000000  0.86459900  0.08695000  1
  Cs  Cs2  1  0.25000000  0.36459900  0.41305000  1
  Cs  Cs3  1  0.75000000  0.63540100  0.58695000  1
  Eu  Eu0  1  0.75000000  0.50494900  0.18127700  1
  Eu  Eu1  1  0.25000000  0.49505100  0.81872300  1
  Eu  Eu2  1  0.25000000  0.99505100  0.68127700  1
  Eu  Eu3  1  0.75000000  0.00494900  0.31872300  1
  P  P0  1  0.75000000  0.20849300  0.58264200  1
  P  P1  1  0.25000000  0.79150700  0.41735800  1
  P  P2  1  0.25000000  0.29150700  0.08264200  1
  P  P3  1  0.75000000  0.70849300  0.91735800  1
  O  O0  1  0.52532000  0.26605900  0.65675700  1
  O  O1  1  0.47468000  0.73394100  0.34324300  1
  O  O2  1  0.47468000  0.23394100  0.15675700  1
  O  O3  1  0.02532000  0.73394100  0.34324300  1
  O  O4  1  0.52532000  0.76605900  0.84324300  1
  O  O5  1  0.97468000  0.26605900  0.65675700  1
  O  O6  1  0.97468000  0.76605900  0.84324300  1
  O  O7  1  0.02532000  0.23394100  0.15675700  1
  O  O8  1  0.75000000  0.01178300  0.57065500  1
  O  O9  1  0.25000000  0.98821700  0.42934500  1
  O  O10  1  0.25000000  0.48821700  0.07065500  1
  O  O11  1  0.75000000  0.51178300  0.92934500  1
  O  O12  1  0.75000000  0.78126700  0.05955700  1
  O  O13  1  0.25000000  0.21873300  0.94044300  1
  O  O14  1  0.25000000  0.71873300  0.55955700  1
  O  O15  1  0.75000000  0.28126700  0.44044300  1
loop_
_geom_bond_atom_site_label_1
_geom_bond_atom_site_label_2
_geom_bond_distance
_geom_bond_site_symmetry_2
Cs0 O13 2.959860 1_555
Cs0 O13 2.959860 1_655
Cs0 O11 2.978933 1_555
Cs0 O7 3.062883 1_656
Cs0 O2 3.062883 1_556
Cs0 O0 3.109719 1_555
Cs0 O5 3.109719 1_555
Cs0 O12 3.177822 1_546
Cs0 O4 3.270839 1_545
Cs0 O6 3.270839 1_545
Cs1 O12 2.959860 1_555
Cs1 O12 2.959860 1_455
Cs1 O10 2.978933 1_555
Cs1 O6 3.062883 1_454
Cs1 O4 3.062883 1_554
Cs1 O3 3.109719 1_555
Cs1 O1 3.109719 1_555
Cs1 O13 3.177822 1_564
Cs1 O7 3.270839 1_565
Cs1 O2 3.270839 1_565
Cs2 O15 2.959860 1_555
Cs2 O15 2.959860 1_455
Cs2 O9 2.978933 1_545
Cs2 O5 3.062883 1_455
Cs2 O0 3.062883 1_555
Cs2 O7 3.109719 1_555
Cs2 O2 3.109719 1_555
Cs2 O14 3.177822 1_555
Cs2 O3 3.270839 1_555
Cs2 O1 3.270839 1_555
Cs3 O14 2.959860 1_655
Cs3 O14 2.959860 1_555
Cs3 O8 2.978933 1_565
Cs3 O1 3.062883 1_555
Cs3 O3 3.062883 1_655
Cs3 O4 3.109719 1_555
Cs3 O6 3.109719 1_555
Cs3 O15 3.177822 1_555
Cs3 O0 3.270839 1_555
Cs3 O5 3.270839 1_555
Eu0 O12 2.516501 1_555
Eu0 O11 2.589919 1_554
Eu0 O2 2.674043 1_555
Eu0 O7 2.674043 1_655
Eu0 O3 2.923415 1_655
Eu0 O1 2.923415 1_555
Eu0 O10 3.091613 1_555
Eu0 O10 3.091613 1_655
Eu0 O15 3.196815 1_555
Eu1 O13 2.516501 1_555
Eu1 O10 2.589919 1_556
Eu1 O6 2.674043 1_455
Eu1 O4 2.674043 1_555
Eu1 O5 2.923415 1_455
Eu1 O0 2.923415 1_555
Eu1 O11 3.091613 1_555
Eu1 O11 3.091613 1_455
Eu1 O14 3.196815 1_555
Eu2 O14 2.516501 1_555
Eu2 O9 2.589919 1_555
Eu2 O5 2.674043 1_465
Eu2 O0 2.674043 1_565
Eu2 O6 2.923415 1_455
Eu2 O4 2.923415 1_555
Eu2 O8 3.091613 1_565
Eu2 O8 3.091613 1_465
Eu2 O13 3.196815 1_565
Eu3 O15 2.516501 1_555
Eu3 O8 2.589919 1_555
Eu3 O1 2.674043 1_545
Eu3 O3 2.674043 1_645
Eu3 O7 2.923415 1_655
Eu3 O2 2.923415 1_555
Eu3 O9 3.091613 1_545
Eu3 O9 3.091613 1_645
Eu3 O12 3.196815 1_545
O0 P0 1.566093 1_555
O1 P1 1.566093 1_555
O2 P2 1.566093 1_555
O3 P1 1.566093 1_555
O4 P3 1.566093 1_555
O5 P0 1.566093 1_555
O6 P3 1.566093 1_555
O7 P2 1.566093 1_555
O8 P0 1.559304 1_555
O9 P1 1.559304 1_555
O10 P2 1.559304 1_555
O11 P3 1.559304 1_555
O12 P3 1.570589 1_554
O13 P2 1.570589 1_556
O14 P1 1.570589 1_555
O15 P0 1.570589 1_555
