# generated using pymatgen
data_NaTiS2
_symmetry_space_group_name_H-M   'P 1'
_cell_length_a   7.03672545
_cell_length_b   7.03672545
_cell_length_c   32.64285200
_cell_angle_alpha   90.00000000
_cell_angle_beta   90.00000000
_cell_angle_gamma   120.13618344
_symmetry_Int_Tables_number   1
_chemical_formula_structural   NaTiS2
_chemical_formula_sum   'Na16 Ti16 S32'
_cell_volume   1397.85566830
_cell_formula_units_Z   16
loop_
 _symmetry_equiv_pos_site_id
 _symmetry_equiv_pos_as_xyz
  1  'x, y, z'
loop_
 _atom_site_type_symbol
 _atom_site_label
 _atom_site_symmetry_multiplicity
 _atom_site_fract_x
 _atom_site_fract_y
 _atom_site_fract_z
 _atom_site_occupancy
  Na  Na0_0  1  0.33336000  0.16664000  0.12500000  1
  Na  Na0_1  1  0.33336000  0.16664000  0.62500000  1
  Na  Na0_2  1  0.33336000  0.66664000  0.12500000  1
  Na  Na0_3  1  0.33336000  0.66664000  0.62500000  1
  Na  Na0_4  1  0.83336000  0.16664000  0.12500000  1
  Na  Na0_5  1  0.83336000  0.16664000  0.62500000  1
  Na  Na0_6  1  0.83336000  0.66664000  0.12500000  1
  Na  Na0_7  1  0.83336000  0.66664000  0.62500000  1
  Na  Na1_0  1  0.16664000  0.33336000  0.37500000  1
  Na  Na1_1  1  0.16664000  0.33336000  0.87500000  1
  Na  Na1_2  1  0.16664000  0.83336000  0.37500000  1
  Na  Na1_3  1  0.16664000  0.83336000  0.87500000  1
  Na  Na1_4  1  0.66664000  0.33336000  0.37500000  1
  Na  Na1_5  1  0.66664000  0.33336000  0.87500000  1
  Na  Na1_6  1  0.66664000  0.83336000  0.37500000  1
  Na  Na1_7  1  0.66664000  0.83336000  0.87500000  1
  Ti  Ti0_0  1  0.00000000  0.00000000  0.25000000  1
  Ti  Ti0_1  1  0.00000000  0.00000000  0.75000000  1
  Ti  Ti0_2  1  0.00000000  0.50000000  0.25000000  1
  Ti  Ti0_3  1  0.00000000  0.50000000  0.75000000  1
  Ti  Ti0_4  1  0.50000000  0.00000000  0.25000000  1
  Ti  Ti0_5  1  0.50000000  0.00000000  0.75000000  1
  Ti  Ti0_6  1  0.50000000  0.50000000  0.25000000  1
  Ti  Ti0_7  1  0.50000000  0.50000000  0.75000000  1
  Ti  Ti1_0  1  0.00000000  0.00000000  0.00000000  1
  Ti  Ti1_1  1  0.00000000  0.00000000  0.50000000  1
  Ti  Ti1_2  1  0.00000000  0.50000000  0.00000000  1
  Ti  Ti1_3  1  0.00000000  0.50000000  0.50000000  1
  Ti  Ti1_4  1  0.50000000  0.00000000  0.00000000  1
  Ti  Ti1_5  1  0.50000000  0.00000000  0.50000000  1
  Ti  Ti1_6  1  0.50000000  0.50000000  0.00000000  1
  Ti  Ti1_7  1  0.50000000  0.50000000  0.50000000  1
  S  S0_0  1  0.33354450  0.16645550  0.04338800  1
  S  S0_1  1  0.33354450  0.16645550  0.54338800  1
  S  S0_2  1  0.33354450  0.66645550  0.04338800  1
  S  S0_3  1  0.33354450  0.66645550  0.54338800  1
  S  S0_4  1  0.83354450  0.16645550  0.04338800  1
  S  S0_5  1  0.83354450  0.16645550  0.54338800  1
  S  S0_6  1  0.83354450  0.66645550  0.04338800  1
  S  S0_7  1  0.83354450  0.66645550  0.54338800  1
  S  S1_0  1  0.16645550  0.33354450  0.45661200  1
  S  S1_1  1  0.16645550  0.33354450  0.95661200  1
  S  S1_2  1  0.16645550  0.83354450  0.45661200  1
  S  S1_3  1  0.16645550  0.83354450  0.95661200  1
  S  S1_4  1  0.66645550  0.33354450  0.45661200  1
  S  S1_5  1  0.66645550  0.33354450  0.95661200  1
  S  S1_6  1  0.66645550  0.83354450  0.45661200  1
  S  S1_7  1  0.66645550  0.83354450  0.95661200  1
  S  S2_0  1  0.16645550  0.33354450  0.29338800  1
  S  S2_1  1  0.16645550  0.33354450  0.79338800  1
  S  S2_2  1  0.16645550  0.83354450  0.29338800  1
  S  S2_3  1  0.16645550  0.83354450  0.79338800  1
  S  S2_4  1  0.66645550  0.33354450  0.29338800  1
  S  S2_5  1  0.66645550  0.33354450  0.79338800  1
  S  S2_6  1  0.66645550  0.83354450  0.29338800  1
  S  S2_7  1  0.66645550  0.83354450  0.79338800  1
  S  S3_0  1  0.33354450  0.16645550  0.20661200  1
  S  S3_1  1  0.33354450  0.16645550  0.70661200  1
  S  S3_2  1  0.33354450  0.66645550  0.20661200  1
  S  S3_3  1  0.33354450  0.66645550  0.70661200  1
  S  S3_4  1  0.83354450  0.16645550  0.20661200  1
  S  S3_5  1  0.83354450  0.16645550  0.70661200  1
  S  S3_6  1  0.83354450  0.66645550  0.20661200  1
  S  S3_7  1  0.83354450  0.66645550  0.70661200  1
loop_
_geom_bond_atom_site_label_1
_geom_bond_atom_site_label_2
_geom_bond_distance
_geom_bond_site_symmetry_2
Na0_0 S3_0 2.664049 1_555
Na0_0 S0_0 2.664049 1_555
Na0_0 Na0_6 3.511118 1_445
Na0_0 Na0_6 3.511118 1_555
Na0_0 Na0_4 3.518363 1_455
Na0_0 Na0_2 3.518363 1_545
Na0_0 Na0_2 3.518363 1_555
Na0_0 Na0_4 3.518363 1_555
Na0_1 S3_1 2.664049 1_555
Na0_1 S0_1 2.664049 1_555
Na0_1 Na0_7 3.511118 1_445
Na0_1 Na0_7 3.511118 1_555
Na0_1 Na0_5 3.518363 1_455
Na0_1 Na0_3 3.518363 1_545
Na0_1 Na0_3 3.518363 1_555
Na0_1 Na0_5 3.518363 1_555
Na0_2 S3_2 2.664049 1_555
Na0_2 S0_2 2.664049 1_555
Na0_2 Na0_4 3.511118 1_565
Na0_2 Na0_4 3.511118 1_455
Na0_2 Na0_6 3.518363 1_555
Na0_2 Na0_6 3.518363 1_455
Na0_3 S3_3 2.664049 1_555
Na0_3 S0_3 2.664049 1_555
Na0_3 Na0_5 3.511118 1_565
Na0_3 Na0_5 3.511118 1_455
Na0_3 Na0_7 3.518363 1_555
Na0_3 Na0_7 3.518363 1_455
Na0_4 S3_4 2.664049 1_555
Na0_4 S0_4 2.664049 1_555
Na0_4 Na0_6 3.518363 1_545
Na0_4 Na0_6 3.518363 1_555
Na0_5 S3_5 2.664049 1_555
Na0_5 S0_5 2.664049 1_555
Na0_5 Na0_7 3.518363 1_545
Na0_5 Na0_7 3.518363 1_555
Na0_6 S3_6 2.664049 1_555
Na0_6 S0_6 2.664049 1_555
Na0_7 S3_7 2.664049 1_555
Na0_7 S0_7 2.664049 1_555
Na1_0 S1_0 2.664049 1_555
Na1_0 S2_0 2.664049 1_555
Na1_0 Na1_6 3.511118 1_555
Na1_0 Na1_6 3.511118 1_445
Na1_0 Na1_2 3.518363 1_545
Na1_0 Na1_4 3.518363 1_555
Na1_0 Na1_2 3.518363 1_555
Na1_0 Na1_4 3.518363 1_455
Na1_1 S1_1 2.664049 1_555
Na1_1 S2_1 2.664049 1_555
Na1_1 Na1_7 3.511118 1_445
Na1_1 Na1_7 3.511118 1_555
Na1_1 Na1_3 3.518363 1_545
Na1_1 Na1_5 3.518363 1_555
Na1_1 Na1_3 3.518363 1_555
Na1_1 Na1_5 3.518363 1_455
Na1_2 S1_2 2.664049 1_555
Na1_2 S2_2 2.664049 1_555
Na1_2 Na1_4 3.511118 1_455
Na1_2 Na1_4 3.511118 1_565
Na1_2 Na1_6 3.518363 1_455
Na1_2 Na1_6 3.518363 1_555
Na1_3 S1_3 2.664049 1_555
Na1_3 S2_3 2.664049 1_555
Na1_3 Na1_5 3.511118 1_455
Na1_3 Na1_5 3.511118 1_565
Na1_3 Na1_7 3.518363 1_455
Na1_3 Na1_7 3.518363 1_555
Na1_4 S1_4 2.664049 1_555
Na1_4 S2_4 2.664049 1_555
Na1_4 Na1_6 3.518363 1_555
Na1_4 Na1_6 3.518363 1_545
Na1_5 S1_5 2.664049 1_555
Na1_5 S2_5 2.664049 1_555
Na1_5 Na1_7 3.518363 1_555
Na1_5 Na1_7 3.518363 1_545
Na1_6 S1_6 2.664049 1_555
Na1_6 S2_6 2.664049 1_555
Na1_7 S1_7 2.664049 1_555
Na1_7 S2_7 2.664049 1_555
S0_0 Ti1_0 2.475105 1_555
S0_0 Ti1_6 2.475105 1_555
S0_0 Ti1_4 2.475362 1_555
S0_1 Ti1_1 2.475105 1_555
S0_1 Ti1_7 2.475105 1_555
S0_1 Ti1_5 2.475362 1_555
S0_2 Ti1_2 2.475105 1_555
S0_2 Ti1_4 2.475105 1_565
S0_2 Ti1_6 2.475362 1_555
S0_3 Ti1_3 2.475105 1_555
S0_3 Ti1_5 2.475105 1_565
S0_3 Ti1_7 2.475362 1_555
S0_4 Ti1_4 2.475105 1_555
S0_4 Ti1_2 2.475105 1_655
S0_4 Ti1_0 2.475362 1_655
S0_5 Ti1_5 2.475105 1_555
S0_5 Ti1_3 2.475105 1_655
S0_5 Ti1_1 2.475362 1_655
S0_6 Ti1_6 2.475105 1_555
S0_6 Ti1_0 2.475105 1_665
S0_6 Ti1_2 2.475362 1_655
S0_7 Ti1_7 2.475105 1_555
S0_7 Ti1_1 2.475105 1_665
S0_7 Ti1_3 2.475362 1_655
S1_0 Ti1_1 2.475105 1_555
S1_0 Ti1_7 2.475105 1_555
S1_0 Ti1_3 2.475362 1_555
S1_1 Ti1_0 2.475105 1_556
S1_1 Ti1_6 2.475105 1_556
S1_1 Ti1_2 2.475362 1_556
S1_2 Ti1_3 2.475105 1_555
S1_2 Ti1_5 2.475105 1_565
S1_2 Ti1_1 2.475362 1_565
S1_3 Ti1_2 2.475105 1_556
S1_3 Ti1_4 2.475105 1_566
S1_3 Ti1_0 2.475362 1_566
S1_4 Ti1_5 2.475105 1_555
S1_4 Ti1_3 2.475105 1_655
S1_4 Ti1_7 2.475362 1_555
S1_5 Ti1_4 2.475105 1_556
S1_5 Ti1_2 2.475105 1_656
S1_5 Ti1_6 2.475362 1_556
S1_6 Ti1_7 2.475105 1_555
S1_6 Ti1_1 2.475105 1_665
S1_6 Ti1_5 2.475362 1_565
S1_7 Ti1_6 2.475105 1_556
S1_7 Ti1_0 2.475105 1_666
S1_7 Ti1_4 2.475362 1_566
S2_0 Ti0_0 2.475105 1_555
S2_0 Ti0_6 2.475105 1_555
S2_0 Ti0_2 2.475362 1_555
S2_1 Ti0_1 2.475105 1_555
S2_1 Ti0_7 2.475105 1_555
S2_1 Ti0_3 2.475362 1_555
S2_2 Ti0_2 2.475105 1_555
S2_2 Ti0_4 2.475105 1_565
S2_2 Ti0_0 2.475362 1_565
S2_3 Ti0_3 2.475105 1_555
S2_3 Ti0_5 2.475105 1_565
S2_3 Ti0_1 2.475362 1_565
S2_4 Ti0_4 2.475105 1_555
S2_4 Ti0_2 2.475105 1_655
S2_4 Ti0_6 2.475362 1_555
S2_5 Ti0_5 2.475105 1_555
S2_5 Ti0_3 2.475105 1_655
S2_5 Ti0_7 2.475362 1_555
S2_6 Ti0_6 2.475105 1_555
S2_6 Ti0_0 2.475105 1_665
S2_6 Ti0_4 2.475362 1_565
S2_7 Ti0_7 2.475105 1_555
S2_7 Ti0_1 2.475105 1_665
S2_7 Ti0_5 2.475362 1_565
S3_0 Ti0_0 2.475105 1_555
S3_0 Ti0_6 2.475105 1_555
S3_0 Ti0_4 2.475362 1_555
S3_1 Ti0_1 2.475105 1_555
S3_1 Ti0_7 2.475105 1_555
S3_1 Ti0_5 2.475362 1_555
S3_2 Ti0_2 2.475105 1_555
S3_2 Ti0_4 2.475105 1_565
S3_2 Ti0_6 2.475362 1_555
S3_3 Ti0_3 2.475105 1_555
S3_3 Ti0_5 2.475105 1_565
S3_3 Ti0_7 2.475362 1_555
S3_4 Ti0_4 2.475105 1_555
S3_4 Ti0_2 2.475105 1_655
S3_4 Ti0_0 2.475362 1_655
S3_5 Ti0_5 2.475105 1_555
S3_5 Ti0_3 2.475105 1_655
S3_5 Ti0_1 2.475362 1_655
S3_6 Ti0_6 2.475105 1_555
S3_6 Ti0_0 2.475105 1_665
S3_6 Ti0_2 2.475362 1_655
S3_7 Ti0_7 2.475105 1_555
S3_7 Ti0_1 2.475105 1_665
S3_7 Ti0_3 2.475362 1_655
