# generated using pymatgen
data_Nb2FeS4
_symmetry_space_group_name_H-M   'P 1'
_cell_length_a   6.69007174
_cell_length_b   6.69007174
_cell_length_c   23.65723800
_cell_angle_alpha   90.00000000
_cell_angle_beta   90.00000000
_cell_angle_gamma   119.99999739
_symmetry_Int_Tables_number   1
_chemical_formula_structural   Nb2FeS4
_chemical_formula_sum   'Nb16 Fe8 S32'
_cell_volume   916.97233114
_cell_formula_units_Z   8
loop_
 _symmetry_equiv_pos_site_id
 _symmetry_equiv_pos_as_xyz
  1  'x, y, z'
loop_
 _atom_site_type_symbol
 _atom_site_label
 _atom_site_symmetry_multiplicity
 _atom_site_fract_x
 _atom_site_fract_y
 _atom_site_fract_z
 _atom_site_occupancy
  Nb  Nb0_0  1  0.00000000  0.00000000  0.12827300  1
  Nb  Nb0_1  1  0.00000000  0.00000000  0.62827300  1
  Nb  Nb0_2  1  0.00000000  0.50000000  0.12827300  1
  Nb  Nb0_3  1  0.00000000  0.50000000  0.62827300  1
  Nb  Nb0_4  1  0.50000000  0.00000000  0.12827300  1
  Nb  Nb0_5  1  0.50000000  0.00000000  0.62827300  1
  Nb  Nb0_6  1  0.50000000  0.50000000  0.12827300  1
  Nb  Nb0_7  1  0.50000000  0.50000000  0.62827300  1
  Nb  Nb1_0  1  0.00000000  0.00000000  0.37172700  1
  Nb  Nb1_1  1  0.00000000  0.00000000  0.87172700  1
  Nb  Nb1_2  1  0.00000000  0.50000000  0.37172700  1
  Nb  Nb1_3  1  0.00000000  0.50000000  0.87172700  1
  Nb  Nb1_4  1  0.50000000  0.00000000  0.37172700  1
  Nb  Nb1_5  1  0.50000000  0.00000000  0.87172700  1
  Nb  Nb1_6  1  0.50000000  0.50000000  0.37172700  1
  Nb  Nb1_7  1  0.50000000  0.50000000  0.87172700  1
  Fe  Fe0_0  1  0.00000000  0.00000000  0.25000000  1
  Fe  Fe0_1  1  0.00000000  0.00000000  0.75000000  1
  Fe  Fe0_2  1  0.00000000  0.50000000  0.25000000  1
  Fe  Fe0_3  1  0.00000000  0.50000000  0.75000000  1
  Fe  Fe0_4  1  0.50000000  0.00000000  0.25000000  1
  Fe  Fe0_5  1  0.50000000  0.00000000  0.75000000  1
  Fe  Fe0_6  1  0.50000000  0.50000000  0.25000000  1
  Fe  Fe0_7  1  0.50000000  0.50000000  0.75000000  1
  S  S0_0  1  0.16666650  0.33333350  0.43806150  1
  S  S0_1  1  0.16666650  0.33333350  0.93806150  1
  S  S0_2  1  0.16666650  0.83333350  0.43806150  1
  S  S0_3  1  0.16666650  0.83333350  0.93806150  1
  S  S0_4  1  0.66666650  0.33333350  0.43806150  1
  S  S0_5  1  0.66666650  0.33333350  0.93806150  1
  S  S0_6  1  0.66666650  0.83333350  0.43806150  1
  S  S0_7  1  0.66666650  0.83333350  0.93806150  1
  S  S1_0  1  0.33333350  0.16666650  0.06193850  1
  S  S1_1  1  0.33333350  0.16666650  0.56193850  1
  S  S1_2  1  0.33333350  0.66666650  0.06193850  1
  S  S1_3  1  0.33333350  0.66666650  0.56193850  1
  S  S1_4  1  0.83333350  0.16666650  0.06193850  1
  S  S1_5  1  0.83333350  0.16666650  0.56193850  1
  S  S1_6  1  0.83333350  0.66666650  0.06193850  1
  S  S1_7  1  0.83333350  0.66666650  0.56193850  1
  S  S2_0  1  0.33333350  0.16666650  0.19775900  1
  S  S2_1  1  0.33333350  0.16666650  0.69775900  1
  S  S2_2  1  0.33333350  0.66666650  0.19775900  1
  S  S2_3  1  0.33333350  0.66666650  0.69775900  1
  S  S2_4  1  0.83333350  0.16666650  0.19775900  1
  S  S2_5  1  0.83333350  0.16666650  0.69775900  1
  S  S2_6  1  0.83333350  0.66666650  0.19775900  1
  S  S2_7  1  0.83333350  0.66666650  0.69775900  1
  S  S3_0  1  0.16666650  0.33333350  0.30224100  1
  S  S3_1  1  0.16666650  0.33333350  0.80224100  1
  S  S3_2  1  0.16666650  0.83333350  0.30224100  1
  S  S3_3  1  0.16666650  0.83333350  0.80224100  1
  S  S3_4  1  0.66666650  0.33333350  0.30224100  1
  S  S3_5  1  0.66666650  0.33333350  0.80224100  1
  S  S3_6  1  0.66666650  0.83333350  0.30224100  1
  S  S3_7  1  0.66666650  0.83333350  0.80224100  1
loop_
_geom_bond_atom_site_label_1
_geom_bond_atom_site_label_2
_geom_bond_distance
_geom_bond_site_symmetry_2
Nb0_0 S1_4 2.488458 1_455
Nb0_0 S1_0 2.488460 1_555
Nb0_0 S1_6 2.488460 1_445
Nb0_0 S2_4 2.536135 1_455
Nb0_0 S2_6 2.536137 1_445
Nb0_0 S2_0 2.536137 1_555
Nb0_1 S1_5 2.488458 1_455
Nb0_1 S1_1 2.488460 1_555
Nb0_1 S1_7 2.488460 1_445
Nb0_1 S2_5 2.536135 1_455
Nb0_1 S2_1 2.536137 1_555
Nb0_1 S2_7 2.536137 1_445
Nb0_2 S1_6 2.488458 1_455
Nb0_2 S1_2 2.488460 1_555
Nb0_2 S1_4 2.488460 1_455
Nb0_2 S2_6 2.536135 1_455
Nb0_2 S2_2 2.536137 1_555
Nb0_2 S2_4 2.536137 1_455
Nb0_3 S1_7 2.488458 1_455
Nb0_3 S1_3 2.488460 1_555
Nb0_3 S1_5 2.488460 1_455
Nb0_3 S2_7 2.536135 1_455
Nb0_3 S2_3 2.536137 1_555
Nb0_3 S2_5 2.536137 1_455
Nb0_4 S1_0 2.488458 1_555
Nb0_4 S1_4 2.488460 1_555
Nb0_4 S1_2 2.488460 1_545
Nb0_4 S2_0 2.536135 1_555
Nb0_4 S2_4 2.536137 1_555
Nb0_4 S2_2 2.536137 1_545
Nb0_5 S1_1 2.488458 1_555
Nb0_5 S1_5 2.488460 1_555
Nb0_5 S1_3 2.488460 1_545
Nb0_5 S2_1 2.536135 1_555
Nb0_5 S2_5 2.536137 1_555
Nb0_5 S2_3 2.536137 1_545
Nb0_6 S1_2 2.488458 1_555
Nb0_6 S1_6 2.488460 1_555
Nb0_6 S1_0 2.488460 1_555
Nb0_6 S2_2 2.536135 1_555
Nb0_6 S2_0 2.536137 1_555
Nb0_6 S2_6 2.536137 1_555
Nb0_7 S1_3 2.488458 1_555
Nb0_7 S1_7 2.488460 1_555
Nb0_7 S1_1 2.488460 1_555
Nb0_7 S2_3 2.536135 1_555
Nb0_7 S2_1 2.536137 1_555
Nb0_7 S2_7 2.536137 1_555
Nb1_0 S0_2 2.488458 1_545
Nb1_0 S0_6 2.488460 1_445
Nb1_0 S0_0 2.488460 1_555
Nb1_0 S3_2 2.536135 1_545
Nb1_0 S3_6 2.536137 1_445
Nb1_0 S3_0 2.536137 1_555
Nb1_1 S0_3 2.488458 1_545
Nb1_1 S0_1 2.488460 1_555
Nb1_1 S0_7 2.488460 1_445
Nb1_1 S3_3 2.536135 1_545
Nb1_1 S3_7 2.536137 1_445
Nb1_1 S3_1 2.536137 1_555
Nb1_2 S0_0 2.488458 1_555
Nb1_2 S0_2 2.488460 1_555
Nb1_2 S0_4 2.488460 1_455
Nb1_2 S3_0 2.536135 1_555
Nb1_2 S3_4 2.536137 1_455
Nb1_2 S3_2 2.536137 1_555
Nb1_3 S0_1 2.488458 1_555
Nb1_3 S0_3 2.488460 1_555
Nb1_3 S0_5 2.488460 1_455
Nb1_3 S3_1 2.536135 1_555
Nb1_3 S3_5 2.536137 1_455
Nb1_3 S3_3 2.536137 1_555
Nb1_4 S0_6 2.488458 1_545
Nb1_4 S0_2 2.488460 1_545
Nb1_4 S0_4 2.488460 1_555
Nb1_4 S3_6 2.536135 1_545
Nb1_4 S3_2 2.536137 1_545
Nb1_4 S3_4 2.536137 1_555
Nb1_5 S0_7 2.488458 1_545
Nb1_5 S0_3 2.488460 1_545
Nb1_5 S0_5 2.488460 1_555
Nb1_5 S3_7 2.536135 1_545
Nb1_5 S3_5 2.536137 1_555
Nb1_5 S3_3 2.536137 1_545
Nb1_6 S0_4 2.488458 1_555
Nb1_6 S0_6 2.488460 1_555
Nb1_6 S0_0 2.488460 1_555
Nb1_6 S3_4 2.536135 1_555
Nb1_6 S3_6 2.536137 1_555
Nb1_6 S3_0 2.536137 1_555
Nb1_7 S0_5 2.488458 1_555
Nb1_7 S0_1 2.488460 1_555
Nb1_7 S0_7 2.488460 1_555
Nb1_7 S3_5 2.536135 1_555
Nb1_7 S3_7 2.536137 1_555
Nb1_7 S3_1 2.536137 1_555
Fe0_0 S2_4 2.292846 1_455
Fe0_0 S3_2 2.292846 1_545
Fe0_0 S2_0 2.292848 1_555
Fe0_0 S2_6 2.292848 1_445
Fe0_0 S3_0 2.292848 1_555
Fe0_0 S3_6 2.292848 1_445
Fe0_1 S2_5 2.292846 1_455
Fe0_1 S3_3 2.292846 1_545
Fe0_1 S2_1 2.292848 1_555
Fe0_1 S2_7 2.292848 1_445
Fe0_1 S3_1 2.292848 1_555
Fe0_1 S3_7 2.292848 1_445
Fe0_2 S2_6 2.292846 1_455
Fe0_2 S3_0 2.292846 1_555
Fe0_2 S2_2 2.292848 1_555
Fe0_2 S2_4 2.292848 1_455
Fe0_2 S3_4 2.292848 1_455
Fe0_2 S3_2 2.292848 1_555
Fe0_3 S2_7 2.292846 1_455
Fe0_3 S3_1 2.292846 1_555
Fe0_3 S2_5 2.292848 1_455
Fe0_3 S2_3 2.292848 1_555
Fe0_3 S3_3 2.292848 1_555
Fe0_3 S3_5 2.292848 1_455
Fe0_4 S3_6 2.292846 1_545
Fe0_4 S2_0 2.292846 1_555
Fe0_4 S2_4 2.292848 1_555
Fe0_4 S2_2 2.292848 1_545
Fe0_4 S3_4 2.292848 1_555
Fe0_4 S3_2 2.292848 1_545
Fe0_5 S2_1 2.292846 1_555
Fe0_5 S3_7 2.292846 1_545
Fe0_5 S2_3 2.292848 1_545
Fe0_5 S2_5 2.292848 1_555
Fe0_5 S3_5 2.292848 1_555
Fe0_5 S3_3 2.292848 1_545
Fe0_6 S2_2 2.292846 1_555
Fe0_6 S3_4 2.292846 1_555
Fe0_6 S2_0 2.292848 1_555
Fe0_6 S2_6 2.292848 1_555
Fe0_6 S3_0 2.292848 1_555
Fe0_6 S3_6 2.292848 1_555
Fe0_7 S2_3 2.292846 1_555
Fe0_7 S3_5 2.292846 1_555
Fe0_7 S2_7 2.292848 1_555
Fe0_7 S2_1 2.292848 1_555
Fe0_7 S3_1 2.292848 1_555
Fe0_7 S3_7 2.292848 1_555
S0_0 S0_2 3.345036 1_545
S0_0 S0_4 3.345036 1_555
S0_0 S0_2 3.345036 1_555
S0_0 S0_4 3.345036 1_455
S0_0 S0_6 3.345036 1_555
S0_0 S0_6 3.345036 1_445
S0_1 S0_3 3.345036 1_545
S0_1 S0_5 3.345036 1_555
S0_1 S0_3 3.345036 1_555
S0_1 S0_5 3.345036 1_455
S0_1 S0_7 3.345036 1_555
S0_1 S0_7 3.345036 1_445
S0_2 S0_6 3.345036 1_555
S0_2 S0_6 3.345036 1_455
S0_2 S0_4 3.345036 1_565
S0_2 S0_4 3.345036 1_455
S0_3 S0_7 3.345036 1_555
S0_3 S0_7 3.345036 1_455
S0_3 S0_5 3.345036 1_565
S0_3 S0_5 3.345036 1_455
S0_4 S0_6 3.345036 1_545
S0_4 S0_6 3.345036 1_555
S0_5 S0_7 3.345036 1_545
S0_5 S0_7 3.345036 1_555
S1_0 S1_4 3.345036 1_455
S1_0 S1_2 3.345036 1_555
S1_0 S1_4 3.345036 1_555
S1_0 S1_2 3.345036 1_545
S1_0 S1_6 3.345036 1_445
S1_0 S1_6 3.345036 1_555
S1_1 S1_3 3.345036 1_555
S1_1 S1_5 3.345036 1_455
S1_1 S1_3 3.345036 1_545
S1_1 S1_5 3.345036 1_555
S1_1 S1_7 3.345036 1_445
S1_1 S1_7 3.345036 1_555
S1_2 S1_6 3.345036 1_455
S1_2 S1_6 3.345036 1_555
S1_2 S1_4 3.345036 1_455
S1_2 S1_4 3.345036 1_565
S1_3 S1_7 3.345036 1_455
S1_3 S1_7 3.345036 1_555
S1_3 S1_5 3.345036 1_455
S1_3 S1_5 3.345036 1_565
S1_4 S1_6 3.345036 1_555
S1_4 S1_6 3.345036 1_545
S1_5 S1_7 3.345036 1_555
S1_5 S1_7 3.345036 1_545
