# generated using pymatgen
data_Dy5(SiB4)2
_symmetry_space_group_name_H-M   'P 1'
_cell_length_a   7.22185092
_cell_length_b   7.22185059
_cell_length_c   8.09446401
_cell_angle_alpha   89.99999724
_cell_angle_beta   89.99999514
_cell_angle_gamma   90.00001856
_symmetry_Int_Tables_number   1
_chemical_formula_structural   Dy5(SiB4)2
_chemical_formula_sum   'Dy10 Si4 B16'
_cell_volume   422.16780918
_cell_formula_units_Z   2
loop_
 _symmetry_equiv_pos_site_id
 _symmetry_equiv_pos_as_xyz
  1  'x, y, z'
loop_
 _atom_site_type_symbol
 _atom_site_label
 _atom_site_symmetry_multiplicity
 _atom_site_fract_x
 _atom_site_fract_y
 _atom_site_fract_z
 _atom_site_occupancy
  Dy  Dy0  1  0.68079043  0.18078988  0.22367868  1
  Dy  Dy1  1  0.31920972  0.81921019  0.77632081  1
  Dy  Dy2  1  0.31920967  0.81921028  0.22367872  1
  Dy  Dy3  1  0.81921021  0.68079039  0.22367894  1
  Dy  Dy4  1  0.81921041  0.68079020  0.77632054  1
  Dy  Dy5  1  0.68079025  0.18078995  0.77632093  1
  Dy  Dy6  1  0.18078965  0.31921003  0.77632079  1
  Dy  Dy7  1  0.18078975  0.31920978  0.22367880  1
  Dy  Dy8  1  0.00000000  0.00000010  0.50000036  1
  Dy  Dy9  1  0.49999997  0.49999987  0.50000040  1
  Si  Si0  1  0.11489427  0.61489491  0.49999879  1
  Si  Si1  1  0.88510538  0.38510538  0.49999881  1
  Si  Si2  1  0.38510540  0.11489437  0.49999879  1
  Si  Si3  1  0.61489478  0.88510558  0.49999877  1
  B  B0  1  0.17204320  0.03924220  0.00000007  1
  B  B1  1  0.82795685  0.96075798  0.00000004  1
  B  B2  1  0.96075805  0.17204298  0.00000008  1
  B  B3  1  0.32795718  0.53924168  0.00000002  1
  B  B4  1  0.03924187  0.82795718  0.00000015  1
  B  B5  1  0.67204300  0.46075828  0.00000001  1
  B  B6  1  0.53924206  0.67204319  -0.00000000  1
  B  B7  1  0.46075827  0.32795692  -0.00000001  1
  B  B8  1  0.09077488  0.59077461  0.00000026  1
  B  B9  1  0.90922523  0.40922556  0.00000031  1
  B  B10  1  0.40922584  0.09077470  0.00000039  1
  B  B11  1  0.59077441  0.90922558  0.00000034  1
  B  B12  1  0.00000004  0.00000012  0.16152989  1
  B  B13  1  0.00000001  0.00000006  0.83847031  1
  B  B14  1  0.50000013  0.50000002  0.83847042  1
  B  B15  1  0.50000008  0.50000003  0.16152960  1
loop_
_geom_bond_atom_site_label_1
_geom_bond_atom_site_label_2
_geom_bond_distance
_geom_bond_site_symmetry_2
Dy0 Si1 3.058932 1_555
Dy0 Si3 3.128740 1_545
Dy0 Si2 3.128743 1_555
Dy1 Si0 3.058944 1_555
Dy1 Si2 3.128750 1_565
Dy1 Si3 3.128754 1_555
Dy2 Si0 3.058932 1_555
Dy2 Si2 3.128739 1_565
Dy2 Si3 3.128743 1_555
Dy3 Si3 3.058931 1_555
Dy3 Si0 3.128737 1_655
Dy3 Si1 3.128742 1_555
Dy4 Si3 3.058944 1_555
Dy4 Si0 3.128747 1_655
Dy4 Si1 3.128751 1_555
Dy5 Si1 3.058944 1_555
Dy5 Si3 3.128752 1_545
Dy5 Si2 3.128754 1_555
Dy6 Si2 3.058947 1_555
Dy6 Si1 3.128751 1_455
Dy6 Si0 3.128753 1_555
Dy7 Si2 3.058933 1_555
Dy7 Si1 3.128740 1_455
Dy7 Si0 3.128743 1_555
Dy8 Si0 2.902310 1_545
Dy8 Si3 2.902310 1_445
Dy8 Si2 2.902311 1_555
Dy8 Si1 2.902311 1_455
Dy9 Si1 2.902312 1_555
Dy9 Si2 2.902312 1_555
Dy9 Si3 2.902314 1_555
Dy9 Si0 2.902315 1_555
Si0 Si1 2.346892 1_455
Si2 Si3 2.346891 1_545
B0 B10 1.752861 1_555
B0 B2 1.802246 1_455
B0 B4 1.802247 1_545
B0 B12 1.825814 1_555
B0 B13 1.825814 1_554
B0 Dy2 2.633010 1_545
B0 Dy1 2.633013 1_544
B0 Dy7 2.714798 1_555
B0 Dy6 2.714803 1_554
B1 B11 1.752859 1_555
B1 B4 1.802245 1_655
B1 B2 1.802246 1_565
B1 B13 1.825813 1_664
B1 B12 1.825814 1_665
B1 Dy0 2.633009 1_565
B1 Dy5 2.633013 1_564
B1 Dy3 2.714799 1_555
B1 Dy4 2.714804 1_554
B2 B9 1.752861 1_555
B2 Dy7 2.633010 1_655
B2 Dy6 2.633013 1_654
B2 Dy0 2.714798 1_555
B2 Dy5 2.714802 1_554
B3 B8 1.752859 1_555
B3 B7 1.802245 1_555
B3 B6 1.802246 1_555
B3 Dy7 2.633012 1_555
B3 Dy6 2.633014 1_554
B3 Dy2 2.714804 1_555
B3 Dy1 2.714806 1_554
B4 B8 1.752861 1_555
B4 Dy3 2.633010 1_455
B4 Dy4 2.633014 1_454
B4 Dy2 2.714799 1_555
B4 Dy1 2.714803 1_554
B5 B9 1.752859 1_555
B5 B6 1.802245 1_555
B5 B7 1.802245 1_555
B5 Dy3 2.633014 1_555
B5 Dy4 2.633016 1_554
B5 Dy0 2.714803 1_555
B5 Dy5 2.714805 1_554
B6 Dy2 2.633014 1_555
B6 Dy1 2.633016 1_554
B6 Dy3 2.714803 1_555
B6 Dy4 2.714807 1_554
B7 Dy0 2.633013 1_555
B7 Dy5 2.633013 1_554
B7 Dy7 2.714804 1_555
B7 Dy6 2.714807 1_554
B8 B9 1.854207 1_455
B8 Dy7 2.747185 1_555
B8 Dy3 2.747186 1_455
B8 Dy6 2.747188 1_554
B8 Dy4 2.747191 1_454
B8 Dy2 2.953185 1_555
B8 Dy1 2.953190 1_554
B9 Dy7 2.747185 1_655
B9 Dy3 2.747186 1_555
B9 Dy6 2.747189 1_654
B9 Dy4 2.747190 1_554
B9 Dy0 2.953185 1_555
B9 Dy5 2.953190 1_554
B10 B7 1.752858 1_555
B10 B11 1.854202 1_545
B10 Dy0 2.747183 1_555
B10 Dy2 2.747183 1_545
B10 Dy5 2.747188 1_554
B10 Dy1 2.747191 1_544
B10 Dy7 2.953188 1_555
B10 Dy6 2.953196 1_554
B11 B6 1.752859 1_555
B11 Dy0 2.747183 1_565
B11 Dy2 2.747184 1_555
B11 Dy5 2.747188 1_564
B11 Dy1 2.747190 1_554
B11 Dy3 2.953188 1_555
B11 Dy4 2.953196 1_554
B12 B4 1.825812 1_545
B12 B2 1.825812 1_455
B12 Dy7 2.696682 1_555
B12 Dy0 2.696682 1_455
B12 Dy2 2.696683 1_545
B12 Dy3 2.696683 1_445
B12 Dy8 2.739737 1_555
B13 B2 1.825812 1_456
B13 B4 1.825813 1_546
B13 Dy4 2.696684 1_445
B13 Dy1 2.696684 1_545
B13 Dy6 2.696684 1_555
B13 Dy5 2.696684 1_455
B13 Dy8 2.739733 1_555
B14 B5 1.825811 1_556
B14 B3 1.825811 1_556
B14 B7 1.825812 1_556
B14 B6 1.825812 1_556
B14 Dy5 2.696687 1_555
B14 Dy4 2.696689 1_555
B14 Dy6 2.696689 1_555
B14 Dy1 2.696689 1_555
B14 Dy9 2.739733 1_555
B15 B3 1.825811 1_555
B15 B5 1.825811 1_555
B15 B7 1.825812 1_555
B15 B6 1.825812 1_555
B15 Dy3 2.696688 1_555
B15 Dy0 2.696688 1_555
B15 Dy7 2.696688 1_555
B15 Dy2 2.696689 1_555
B15 Dy9 2.739740 1_555
