# generated using pymatgen
data_SrMg2
_symmetry_space_group_name_H-M   'P 1'
_cell_length_a   13.61953067
_cell_length_b   13.61953067
_cell_length_c   16.75273175
_cell_angle_alpha   71.64428974
_cell_angle_beta   71.64428974
_cell_angle_gamma   31.75664506
_symmetry_Int_Tables_number   1
_chemical_formula_structural   SrMg2
_chemical_formula_sum   'Sr16 Mg32'
_cell_volume   1545.36739219
_cell_formula_units_Z   16
loop_
 _symmetry_equiv_pos_site_id
 _symmetry_equiv_pos_as_xyz
  1  'x, y, z'
loop_
 _atom_site_type_symbol
 _atom_site_label
 _atom_site_symmetry_multiplicity
 _atom_site_fract_x
 _atom_site_fract_y
 _atom_site_fract_z
 _atom_site_occupancy
  Sr  Sr0_0  1  0.25865550  0.25865550  0.11606800  1
  Sr  Sr0_1  1  0.25865550  0.25865550  0.61606800  1
  Sr  Sr0_2  1  0.25865550  0.75865550  0.11606800  1
  Sr  Sr0_3  1  0.25865550  0.75865550  0.61606800  1
  Sr  Sr0_4  1  0.75865550  0.25865550  0.11606800  1
  Sr  Sr0_5  1  0.75865550  0.25865550  0.61606800  1
  Sr  Sr0_6  1  0.75865550  0.75865550  0.11606800  1
  Sr  Sr0_7  1  0.75865550  0.75865550  0.61606800  1
  Sr  Sr1_0  1  0.24134450  0.24134450  0.38393200  1
  Sr  Sr1_1  1  0.24134450  0.24134450  0.88393200  1
  Sr  Sr1_2  1  0.24134450  0.74134450  0.38393200  1
  Sr  Sr1_3  1  0.24134450  0.74134450  0.88393200  1
  Sr  Sr1_4  1  0.74134450  0.24134450  0.38393200  1
  Sr  Sr1_5  1  0.74134450  0.24134450  0.88393200  1
  Sr  Sr1_6  1  0.74134450  0.74134450  0.38393200  1
  Sr  Sr1_7  1  0.74134450  0.74134450  0.88393200  1
  Mg  Mg0_0  1  0.40214700  0.40214700  0.06960500  1
  Mg  Mg0_1  1  0.40214700  0.40214700  0.56960500  1
  Mg  Mg0_2  1  0.40214700  0.90214700  0.06960500  1
  Mg  Mg0_3  1  0.40214700  0.90214700  0.56960500  1
  Mg  Mg0_4  1  0.90214700  0.40214700  0.06960500  1
  Mg  Mg0_5  1  0.90214700  0.40214700  0.56960500  1
  Mg  Mg0_6  1  0.90214700  0.90214700  0.06960500  1
  Mg  Mg0_7  1  0.90214700  0.90214700  0.56960500  1
  Mg  Mg1_0  1  0.08795100  0.08795100  0.22182600  1
  Mg  Mg1_1  1  0.08795100  0.08795100  0.72182600  1
  Mg  Mg1_2  1  0.08795100  0.58795100  0.22182600  1
  Mg  Mg1_3  1  0.08795100  0.58795100  0.72182600  1
  Mg  Mg1_4  1  0.58795100  0.08795100  0.22182600  1
  Mg  Mg1_5  1  0.58795100  0.08795100  0.72182600  1
  Mg  Mg1_6  1  0.58795100  0.58795100  0.22182600  1
  Mg  Mg1_7  1  0.58795100  0.58795100  0.72182600  1
  Mg  Mg2_0  1  0.41204900  0.41204900  0.27817400  1
  Mg  Mg2_1  1  0.41204900  0.41204900  0.77817400  1
  Mg  Mg2_2  1  0.41204900  0.91204900  0.27817400  1
  Mg  Mg2_3  1  0.41204900  0.91204900  0.77817400  1
  Mg  Mg2_4  1  0.91204900  0.41204900  0.27817400  1
  Mg  Mg2_5  1  0.91204900  0.41204900  0.77817400  1
  Mg  Mg2_6  1  0.91204900  0.91204900  0.27817400  1
  Mg  Mg2_7  1  0.91204900  0.91204900  0.77817400  1
  Mg  Mg3_0  1  0.09785300  0.09785300  0.43039500  1
  Mg  Mg3_1  1  0.09785300  0.09785300  0.93039500  1
  Mg  Mg3_2  1  0.09785300  0.59785300  0.43039500  1
  Mg  Mg3_3  1  0.09785300  0.59785300  0.93039500  1
  Mg  Mg3_4  1  0.59785300  0.09785300  0.43039500  1
  Mg  Mg3_5  1  0.59785300  0.09785300  0.93039500  1
  Mg  Mg3_6  1  0.59785300  0.59785300  0.43039500  1
  Mg  Mg3_7  1  0.59785300  0.59785300  0.93039500  1
loop_
_geom_bond_atom_site_label_1
_geom_bond_atom_site_label_2
_geom_bond_distance
_geom_bond_site_symmetry_2
Sr0_0 Sr0_6 3.726240 1_455
Sr0_0 Sr0_6 3.726240 1_545
Sr0_0 Sr1_1 4.060086 1_554
Sr0_1 Sr0_7 3.726240 1_545
Sr0_1 Sr0_7 3.726240 1_455
Sr0_1 Sr1_0 4.060086 1_555
Sr0_2 Sr0_4 3.726240 1_555
Sr0_2 Sr0_4 3.726240 1_465
Sr0_2 Sr1_3 4.060086 1_554
Sr0_3 Sr0_5 3.726240 1_555
Sr0_3 Sr0_5 3.726240 1_465
Sr0_3 Sr1_2 4.060086 1_555
Sr0_4 Sr1_5 4.060086 1_554
Sr0_5 Sr1_4 4.060086 1_555
Sr0_6 Sr1_7 4.060086 1_554
Sr0_7 Sr1_6 4.060086 1_555
Sr1_0 Sr1_6 3.726240 1_545
Sr1_0 Sr1_6 3.726240 1_455
Sr1_1 Sr1_7 3.726240 1_545
Sr1_1 Sr1_7 3.726240 1_455
Sr1_2 Sr1_4 3.726240 1_465
Sr1_2 Sr1_4 3.726240 1_555
Sr1_3 Sr1_5 3.726240 1_555
Sr1_3 Sr1_5 3.726240 1_465
Mg0_0 Mg1_4 3.161424 1_555
Mg0_0 Mg1_2 3.161424 1_555
Mg0_0 Sr0_0 3.580936 1_555
Mg0_0 Mg2_0 3.587425 1_555
Mg0_0 Mg3_3 3.620211 1_554
Mg0_0 Mg3_5 3.620211 1_554
Mg0_0 Sr0_4 3.645034 1_555
Mg0_0 Sr0_2 3.645034 1_555
Mg0_0 Sr1_5 3.721290 1_554
Mg0_0 Sr1_3 3.721290 1_554
Mg0_0 Mg0_6 3.726240 1_545
Mg0_0 Mg0_6 3.726240 1_455
Mg0_1 Mg1_5 3.161424 1_555
Mg0_1 Mg1_3 3.161424 1_555
Mg0_1 Sr0_1 3.580936 1_555
Mg0_1 Mg2_1 3.587425 1_555
Mg0_1 Mg3_4 3.620211 1_555
Mg0_1 Mg3_2 3.620211 1_555
Mg0_1 Sr0_5 3.645034 1_555
Mg0_1 Sr0_3 3.645034 1_555
Mg0_1 Sr1_2 3.721290 1_555
Mg0_1 Sr1_4 3.721290 1_555
Mg0_1 Mg0_7 3.726240 1_455
Mg0_1 Mg0_7 3.726240 1_545
Mg0_2 Mg1_6 3.161424 1_555
Mg0_2 Mg1_0 3.161424 1_565
Mg0_2 Sr0_2 3.580936 1_555
Mg0_2 Mg2_2 3.587425 1_555
Mg0_2 Mg3_1 3.620211 1_564
Mg0_2 Mg3_7 3.620211 1_554
Mg0_2 Sr0_0 3.645034 1_565
Mg0_2 Sr0_6 3.645034 1_555
Mg0_2 Sr1_1 3.721290 1_564
Mg0_2 Sr1_7 3.721290 1_554
Mg0_2 Mg0_4 3.726240 1_465
Mg0_2 Mg0_4 3.726240 1_555
Mg0_3 Mg1_1 3.161424 1_565
Mg0_3 Mg1_7 3.161424 1_555
Mg0_3 Sr0_3 3.580936 1_555
Mg0_3 Mg2_3 3.587425 1_555
Mg0_3 Mg3_0 3.620211 1_565
Mg0_3 Mg3_6 3.620211 1_555
Mg0_3 Sr0_7 3.645034 1_555
Mg0_3 Sr0_1 3.645034 1_565
Mg0_3 Sr1_0 3.721290 1_565
Mg0_3 Sr1_6 3.721290 1_555
Mg0_3 Mg0_5 3.726240 1_465
Mg0_3 Mg0_5 3.726240 1_555
Mg0_4 Mg1_6 3.161424 1_555
Mg0_4 Mg1_0 3.161424 1_655
Mg0_4 Sr0_4 3.580936 1_555
Mg0_4 Mg2_4 3.587425 1_555
Mg0_4 Mg3_1 3.620211 1_654
Mg0_4 Mg3_7 3.620211 1_554
Mg0_4 Sr0_0 3.645034 1_655
Mg0_4 Sr0_6 3.645034 1_555
Mg0_4 Sr1_1 3.721290 1_654
Mg0_4 Sr1_7 3.721290 1_554
Mg0_5 Mg1_1 3.161424 1_655
Mg0_5 Mg1_7 3.161424 1_555
Mg0_5 Sr0_5 3.580936 1_555
Mg0_5 Mg2_5 3.587425 1_555
Mg0_5 Mg3_0 3.620211 1_655
Mg0_5 Mg3_6 3.620211 1_555
Mg0_5 Sr0_1 3.645034 1_655
Mg0_5 Sr0_7 3.645034 1_555
Mg0_5 Sr1_6 3.721290 1_555
Mg0_5 Sr1_0 3.721290 1_655
Mg0_6 Mg1_4 3.161424 1_565
Mg0_6 Mg1_2 3.161424 1_655
Mg0_6 Sr0_6 3.580936 1_555
Mg0_6 Mg2_6 3.587425 1_555
Mg0_6 Mg3_5 3.620211 1_564
Mg0_6 Mg3_3 3.620211 1_654
Mg0_6 Sr0_4 3.645034 1_565
Mg0_6 Sr0_2 3.645034 1_655
Mg0_6 Sr1_3 3.721290 1_654
Mg0_6 Sr1_5 3.721290 1_564
Mg0_7 Mg1_5 3.161424 1_565
Mg0_7 Mg1_3 3.161424 1_655
Mg0_7 Sr0_7 3.580936 1_555
Mg0_7 Mg2_7 3.587425 1_555
Mg0_7 Mg3_2 3.620211 1_655
Mg0_7 Mg3_4 3.620211 1_565
Mg0_7 Sr0_3 3.645034 1_655
Mg0_7 Sr0_5 3.645034 1_565
Mg0_7 Sr1_4 3.721290 1_565
Mg0_7 Sr1_2 3.721290 1_655
Mg1_0 Mg2_2 3.054697 1_545
Mg1_0 Mg2_4 3.054697 1_455
Mg1_0 Sr1_4 3.570946 1_455
Mg1_0 Sr1_2 3.570946 1_545
Mg1_0 Mg3_0 3.587425 1_555
Mg1_0 Sr0_2 3.651934 1_545
Mg1_0 Sr0_4 3.651934 1_455
Mg1_0 Mg1_6 3.726240 1_455
Mg1_0 Mg1_6 3.726240 1_545
Mg1_1 Mg2_3 3.054697 1_545
Mg1_1 Mg2_5 3.054697 1_455
Mg1_1 Sr1_5 3.570946 1_455
Mg1_1 Sr1_3 3.570946 1_545
Mg1_1 Mg3_1 3.587425 1_555
Mg1_1 Sr0_3 3.651934 1_545
Mg1_1 Sr0_5 3.651934 1_455
Mg1_1 Mg1_7 3.726240 1_545
Mg1_1 Mg1_7 3.726240 1_455
Mg1_2 Mg2_0 3.054697 1_555
Mg1_2 Mg2_6 3.054697 1_455
Mg1_2 Sr1_0 3.570946 1_555
Mg1_2 Sr1_6 3.570946 1_455
Mg1_2 Mg3_2 3.587425 1_555
Mg1_2 Sr0_6 3.651934 1_455
Mg1_2 Sr0_0 3.651934 1_555
Mg1_2 Mg1_4 3.726240 1_465
Mg1_2 Mg1_4 3.726240 1_555
Mg1_3 Mg2_7 3.054697 1_455
Mg1_3 Mg2_1 3.054697 1_555
Mg1_3 Sr1_7 3.570946 1_455
Mg1_3 Sr1_1 3.570946 1_555
Mg1_3 Mg3_3 3.587425 1_555
Mg1_3 Sr0_1 3.651934 1_555
Mg1_3 Sr0_7 3.651934 1_455
Mg1_3 Mg1_5 3.726240 1_555
Mg1_3 Mg1_5 3.726240 1_465
Mg1_4 Mg2_0 3.054697 1_555
Mg1_4 Mg2_6 3.054697 1_545
Mg1_4 Sr1_0 3.570946 1_555
Mg1_4 Sr1_6 3.570946 1_545
Mg1_4 Mg3_4 3.587425 1_555
Mg1_4 Sr0_6 3.651934 1_545
Mg1_4 Sr0_0 3.651934 1_555
Mg1_5 Mg2_7 3.054697 1_545
Mg1_5 Mg2_1 3.054697 1_555
Mg1_5 Sr1_7 3.570946 1_545
Mg1_5 Sr1_1 3.570946 1_555
Mg1_5 Mg3_5 3.587425 1_555
Mg1_5 Sr0_1 3.651934 1_555
Mg1_5 Sr0_7 3.651934 1_545
Mg1_6 Mg2_4 3.054697 1_555
Mg1_6 Mg2_2 3.054697 1_555
Mg1_6 Sr1_4 3.570946 1_555
Mg1_6 Sr1_2 3.570946 1_555
Mg1_6 Mg3_6 3.587425 1_555
Mg1_6 Sr0_4 3.651934 1_555
Mg1_6 Sr0_2 3.651934 1_555
Mg1_7 Mg2_3 3.054697 1_555
Mg1_7 Mg2_5 3.054697 1_555
Mg1_7 Sr1_3 3.570946 1_555
Mg1_7 Sr1_5 3.570946 1_555
Mg1_7 Mg3_7 3.587425 1_555
Mg1_7 Sr0_5 3.651934 1_555
Mg1_7 Sr0_3 3.651934 1_555
Mg2_0 Mg3_2 3.161424 1_555
Mg2_0 Mg3_4 3.161424 1_555
Mg2_0 Sr0_4 3.570946 1_555
Mg2_0 Sr0_2 3.570946 1_555
Mg2_0 Sr1_4 3.651934 1_555
Mg2_0 Sr1_2 3.651934 1_555
Mg2_0 Mg2_6 3.726240 1_455
Mg2_0 Mg2_6 3.726240 1_545
Mg2_1 Mg3_5 3.161424 1_555
Mg2_1 Mg3_3 3.161424 1_555
Mg2_1 Sr0_5 3.570946 1_555
Mg2_1 Sr0_3 3.570946 1_555
Mg2_1 Sr1_5 3.651934 1_555
Mg2_1 Sr1_3 3.651934 1_555
Mg2_1 Mg2_7 3.726240 1_545
Mg2_1 Mg2_7 3.726240 1_455
Mg2_2 Mg3_0 3.161424 1_565
Mg2_2 Mg3_6 3.161424 1_555
Mg2_2 Sr0_0 3.570946 1_565
Mg2_2 Sr0_6 3.570946 1_555
Mg2_2 Sr1_0 3.651934 1_565
Mg2_2 Sr1_6 3.651934 1_555
Mg2_2 Mg2_4 3.726240 1_555
Mg2_2 Mg2_4 3.726240 1_465
Mg2_3 Mg3_1 3.161424 1_565
Mg2_3 Mg3_7 3.161424 1_555
Mg2_3 Sr0_1 3.570946 1_565
Mg2_3 Sr0_7 3.570946 1_555
Mg2_3 Sr1_1 3.651934 1_565
Mg2_3 Sr1_7 3.651934 1_555
Mg2_3 Mg2_5 3.726240 1_465
Mg2_3 Mg2_5 3.726240 1_555
Mg2_4 Mg3_6 3.161424 1_555
Mg2_4 Mg3_0 3.161424 1_655
Mg2_4 Sr0_0 3.570946 1_655
Mg2_4 Sr0_6 3.570946 1_555
Mg2_4 Sr1_6 3.651934 1_555
Mg2_4 Sr1_0 3.651934 1_655
Mg2_5 Mg3_1 3.161424 1_655
Mg2_5 Mg3_7 3.161424 1_555
Mg2_5 Sr0_7 3.570946 1_555
Mg2_5 Sr0_1 3.570946 1_655
Mg2_5 Sr1_1 3.651934 1_655
Mg2_5 Sr1_7 3.651934 1_555
Mg2_6 Mg3_4 3.161424 1_565
Mg2_6 Mg3_2 3.161424 1_655
Mg2_6 Sr0_2 3.570946 1_655
Mg2_6 Sr0_4 3.570946 1_565
Mg2_6 Sr1_4 3.651934 1_565
Mg2_6 Sr1_2 3.651934 1_655
Mg2_7 Mg3_5 3.161424 1_565
Mg2_7 Mg3_3 3.161424 1_655
Mg2_7 Sr0_5 3.570946 1_565
Mg2_7 Sr0_3 3.570946 1_655
Mg2_7 Sr1_5 3.651934 1_565
Mg2_7 Sr1_3 3.651934 1_655
Mg3_0 Sr1_0 3.580936 1_555
Mg3_0 Sr1_2 3.645034 1_545
Mg3_0 Sr1_4 3.645034 1_455
Mg3_0 Sr0_3 3.721290 1_545
Mg3_0 Sr0_5 3.721290 1_455
Mg3_0 Mg3_6 3.726240 1_545
Mg3_0 Mg3_6 3.726240 1_455
Mg3_1 Sr1_1 3.580936 1_555
Mg3_1 Sr1_5 3.645034 1_455
Mg3_1 Sr1_3 3.645034 1_545
Mg3_1 Sr0_2 3.721290 1_546
Mg3_1 Sr0_4 3.721290 1_456
Mg3_1 Mg3_7 3.726240 1_455
Mg3_1 Mg3_7 3.726240 1_545
Mg3_2 Sr1_2 3.580936 1_555
Mg3_2 Sr1_6 3.645034 1_455
Mg3_2 Sr1_0 3.645034 1_555
Mg3_2 Sr0_7 3.721290 1_455
Mg3_2 Sr0_1 3.721290 1_555
Mg3_2 Mg3_4 3.726240 1_465
Mg3_2 Mg3_4 3.726240 1_555
Mg3_3 Sr1_3 3.580936 1_555
Mg3_3 Sr1_7 3.645034 1_455
Mg3_3 Sr1_1 3.645034 1_555
Mg3_3 Sr0_6 3.721290 1_456
Mg3_3 Sr0_0 3.721290 1_556
Mg3_3 Mg3_5 3.726240 1_465
Mg3_3 Mg3_5 3.726240 1_555
Mg3_4 Sr1_4 3.580936 1_555
Mg3_4 Sr1_0 3.645034 1_555
Mg3_4 Sr1_6 3.645034 1_545
Mg3_4 Sr0_1 3.721290 1_555
Mg3_4 Sr0_7 3.721290 1_545
Mg3_5 Sr1_5 3.580936 1_555
Mg3_5 Sr1_7 3.645034 1_545
Mg3_5 Sr1_1 3.645034 1_555
Mg3_5 Sr0_6 3.721290 1_546
Mg3_5 Sr0_0 3.721290 1_556
Mg3_6 Sr1_6 3.580936 1_555
Mg3_6 Sr1_2 3.645034 1_555
Mg3_6 Sr1_4 3.645034 1_555
Mg3_6 Sr0_5 3.721290 1_555
Mg3_6 Sr0_3 3.721290 1_555
Mg3_7 Sr1_7 3.580936 1_555
Mg3_7 Sr1_5 3.645034 1_555
Mg3_7 Sr1_3 3.645034 1_555
Mg3_7 Sr0_2 3.721290 1_556
Mg3_7 Sr0_4 3.721290 1_556
