# generated using pymatgen
data_Er2NiSn6
_symmetry_space_group_name_H-M   'P 1'
_cell_length_a   11.52767368
_cell_length_b   11.52767368
_cell_length_c   4.36553892
_cell_angle_alpha   90.00000000
_cell_angle_beta   90.00000000
_cell_angle_gamma   158.41045933
_symmetry_Int_Tables_number   1
_chemical_formula_structural   Er2NiSn6
_chemical_formula_sum   'Er2 Ni1 Sn6'
_cell_volume   213.45960656
_cell_formula_units_Z   1
loop_
 _symmetry_equiv_pos_site_id
 _symmetry_equiv_pos_as_xyz
  1  'x, y, z'
loop_
 _atom_site_type_symbol
 _atom_site_label
 _atom_site_symmetry_multiplicity
 _atom_site_fract_x
 _atom_site_fract_y
 _atom_site_fract_z
 _atom_site_occupancy
  Er  Er0  1  0.17667706  0.82332294  0.00000000  1
  Er  Er1  1  0.82332294  0.17667706  0.00000000  1
  Ni  Ni0  1  0.50000000  0.50000000  0.50000000  1
  Sn  Sn0  1  0.43073722  0.56926278  -0.00000000  1
  Sn  Sn1  1  0.56926278  0.43073722  -0.00000000  1
  Sn  Sn2  1  0.06973065  0.93026935  0.50000000  1
  Sn  Sn3  1  0.93026935  0.06973065  0.50000000  1
  Sn  Sn4  1  0.70592019  0.29407981  0.50000000  1
  Sn  Sn5  1  0.29407981  0.70592019  0.50000000  1
loop_
_geom_bond_atom_site_label_1
_geom_bond_atom_site_label_2
_geom_bond_distance
_geom_bond_site_symmetry_2
Er0 Sn4 3.140786 1_455
Er0 Sn4 3.140786 1_454
Er0 Sn4 3.140786 1_565
Er0 Sn4 3.140786 1_564
Er0 Sn1 3.252573 1_455
Er0 Sn1 3.252573 1_565
Er0 Sn2 3.260496 1_555
Er0 Sn2 3.260496 1_554
Er0 Sn5 3.440063 1_554
Er0 Sn5 3.440063 1_555
Er1 Sn5 3.140786 1_545
Er1 Sn5 3.140786 1_654
Er1 Sn5 3.140786 1_655
Er1 Sn5 3.140786 1_544
Er1 Sn0 3.252573 1_545
Er1 Sn0 3.252573 1_655
Er1 Sn3 3.260496 1_555
Er1 Sn3 3.260496 1_554
Er1 Sn4 3.440063 1_554
Er1 Sn4 3.440063 1_555
Ni0 Sn3 2.674951 1_565
Ni0 Sn2 2.674951 1_655
Ni0 Sn2 2.674951 1_545
Ni0 Sn3 2.674951 1_455
Ni0 Sn1 2.687945 1_556
Ni0 Sn0 2.687945 1_555
Ni0 Sn1 2.687945 1_555
Ni0 Sn0 2.687945 1_556
Sn0 Sn3 3.070185 1_565
Sn0 Sn3 3.070185 1_455
Sn0 Sn3 3.070185 1_454
Sn0 Sn3 3.070185 1_564
Sn0 Sn1 3.137239 1_555
Sn0 Sn5 3.787226 1_555
Sn0 Sn5 3.787226 1_554
Sn1 Sn2 3.070185 1_544
Sn1 Sn2 3.070185 1_545
Sn1 Sn2 3.070185 1_654
Sn1 Sn2 3.070185 1_655
Sn1 Sn4 3.787226 1_555
Sn1 Sn4 3.787226 1_554
Sn2 Sn3 3.158431 1_465
Sn2 Sn4 3.764912 1_455
Sn2 Sn4 3.764912 1_565
Sn3 Sn5 3.764912 1_545
Sn3 Sn5 3.764912 1_655
Sn4 Sn5 2.940712 1_655
Sn4 Sn5 2.940712 1_545
