# generated using pymatgen
data_Na3Ag(TeS3)2
_symmetry_space_group_name_H-M   'P 1'
_cell_length_a   12.24200200
_cell_length_b   5.84802200
_cell_length_c   8.38481770
_cell_angle_alpha   87.32104235
_cell_angle_beta   90.00000000
_cell_angle_gamma   90.00000000
_symmetry_Int_Tables_number   1
_chemical_formula_structural   Na3Ag(TeS3)2
_chemical_formula_sum   'Na6 Ag2 Te4 S12'
_cell_volume   599.62560838
_cell_formula_units_Z   2
loop_
 _symmetry_equiv_pos_site_id
 _symmetry_equiv_pos_as_xyz
  1  'x, y, z'
loop_
 _atom_site_type_symbol
 _atom_site_label
 _atom_site_symmetry_multiplicity
 _atom_site_fract_x
 _atom_site_fract_y
 _atom_site_fract_z
 _atom_site_occupancy
  Na  Na0  1  0.08190200  0.74576600  0.38650200  1
  Na  Na1  1  0.58190200  0.25423400  0.61349800  1
  Na  Na2  1  0.91734200  0.25451500  0.11475800  1
  Na  Na3  1  0.41734200  0.74548500  0.88524200  1
  Na  Na4  1  0.26376700  0.24207200  0.12149200  1
  Na  Na5  1  0.76376700  0.75792800  0.87850800  1
  Ag  Ag0  1  0.72945100  0.72652300  0.37994200  1
  Ag  Ag1  1  0.22945100  0.27347700  0.62005800  1
  Te  Te0  1  0.09219800  0.79156000  0.93060000  1
  Te  Te1  1  0.59219800  0.20844000  0.06940000  1
  Te  Te2  1  0.91092500  0.21199500  0.56705100  1
  Te  Te3  1  0.41092500  0.78800500  0.43294900  1
  S  S0  1  0.23765000  0.73867400  0.11902800  1
  S  S1  1  0.73765000  0.26132600  0.88097200  1
  S  S2  1  0.76503900  0.28214600  0.38073100  1
  S  S3  1  0.26503900  0.71785400  0.61926900  1
  S  S4  1  0.10265100  0.19740900  0.87250300  1
  S  S5  1  0.60265100  0.80259100  0.12749700  1
  S  S6  1  0.89313000  0.80451700  0.59365300  1
  S  S7  1  0.39313000  0.19548300  0.40634700  1
  S  S8  1  0.93903100  0.75705300  0.10336700  1
  S  S9  1  0.43903100  0.24294700  0.89663300  1
  S  S10  1  0.06691400  0.24888100  0.39902000  1
  S  S11  1  0.56691400  0.75111900  0.60098000  1
loop_
_geom_bond_atom_site_label_1
_geom_bond_atom_site_label_2
_geom_bond_distance
_geom_bond_site_symmetry_2
Na0 S10 2.908576 1_555
Na0 S6 2.920824 1_455
Na0 S0 2.945436 1_555
Na0 S8 2.947007 1_455
Na0 S10 2.954700 1_565
Na0 S3 2.971941 1_555
Na1 S11 2.908576 1_555
Na1 S7 2.920824 1_555
Na1 S1 2.945436 1_555
Na1 S9 2.947007 1_555
Na1 S11 2.954700 1_545
Na1 S2 2.971941 1_555
Na2 S2 2.917128 1_555
Na2 S8 2.927261 1_545
Na2 S1 2.945497 1_554
Na2 S8 2.947921 1_555
Na2 S10 3.004585 1_655
Na2 S4 3.073647 1_654
Na3 S3 2.917128 1_555
Na3 S9 2.927261 1_565
Na3 S0 2.945497 1_556
Na3 S9 2.947921 1_555
Na3 S11 3.004585 1_555
Na3 S5 3.073647 1_556
Na4 S9 2.856114 1_554
Na4 S7 2.868120 1_555
Na4 S4 2.892765 1_554
Na4 S0 2.920799 1_555
Na4 S0 2.962226 1_545
Na4 S10 3.351533 1_555
Na5 S8 2.856114 1_556
Na5 S6 2.868120 1_555
Na5 S5 2.892765 1_556
Na5 S1 2.920799 1_555
Na5 S1 2.962226 1_565
Na5 S11 3.351533 1_555
Ag0 S2 2.634696 1_555
Ag0 S5 2.645733 1_555
Ag0 S11 2.727596 1_555
Ag0 S6 2.740528 1_555
Ag0 S2 3.278686 1_565
Ag0 S8 3.457425 1_555
Ag1 S3 2.634696 1_555
Ag1 S4 2.645733 1_555
Ag1 S10 2.727596 1_555
Ag1 S7 2.740528 1_555
Ag1 S3 3.278686 1_545
Ag1 S9 3.457425 1_555
S0 Te0 2.390981 1_554
S1 Te1 2.390981 1_556
S2 Te2 2.395540 1_555
S3 Te3 2.395540 1_555
S4 Te0 2.403890 1_545
S5 Te1 2.403890 1_565
S6 Te2 2.392891 1_565
S7 Te3 2.392891 1_545
S8 Te0 2.372295 1_654
S9 Te1 2.372295 1_556
S10 Te2 2.376928 1_455
S11 Te3 2.376928 1_555
