# generated using pymatgen
data_Na2CrAuF6
_symmetry_space_group_name_H-M   'P 1'
_cell_length_a   6.02588540
_cell_length_b   6.02588511
_cell_length_c   6.02588539
_cell_angle_alpha   60.00000044
_cell_angle_beta   59.99999993
_cell_angle_gamma   59.99999840
_symmetry_Int_Tables_number   1
_chemical_formula_structural   Na2CrAuF6
_chemical_formula_sum   'Na2 Cr1 Au1 F6'
_cell_volume   154.72040028
_cell_formula_units_Z   1
loop_
 _symmetry_equiv_pos_site_id
 _symmetry_equiv_pos_as_xyz
  1  'x, y, z'
loop_
 _atom_site_type_symbol
 _atom_site_label
 _atom_site_symmetry_multiplicity
 _atom_site_fract_x
 _atom_site_fract_y
 _atom_site_fract_z
 _atom_site_occupancy
  Na  Na0  1  0.25000000  0.25000000  0.25000000  1
  Na  Na1  1  0.75000000  0.75000000  0.75000000  1
  Cr  Cr0  1  0.00000000  -0.00000000  0.00000000  1
  Au  Au0  1  0.50000000  0.50000000  0.50000000  1
  F  F0  1  0.22339974  0.77660026  0.22339974  1
  F  F1  1  0.77660026  0.77660026  0.22339974  1
  F  F2  1  0.77660026  0.22339974  0.77660026  1
  F  F3  1  0.77660026  0.22339974  0.22339974  1
  F  F4  1  0.22339974  0.77660026  0.77660026  1
  F  F5  1  0.22339974  0.22339974  0.77660026  1
loop_
_geom_bond_atom_site_label_1
_geom_bond_atom_site_label_2
_geom_bond_distance
_geom_bond_site_symmetry_2
Cr0 F4 1.903788 1_544
Cr0 F3 1.903788 1_455
Cr0 F1 1.903788 1_445
Cr0 F2 1.903788 1_454
Cr0 F0 1.903788 1_545
Cr0 F5 1.903788 1_554
Au0 F3 2.357157 1_555
Au0 F4 2.357157 1_555
Au0 F5 2.357157 1_555
Au0 F0 2.357157 1_555
Au0 F1 2.357157 1_555
Au0 F2 2.357157 1_555
F0 Na0 3.021458 1_555
F0 Na0 3.021458 1_565
F0 Na1 3.021458 1_554
F0 Na1 3.021458 1_455
F1 Na0 3.021458 1_655
F1 Na0 3.021458 1_565
F1 Na1 3.021458 1_554
F1 Na1 3.021458 1_555
F2 Na1 3.021458 1_555
F2 Na1 3.021458 1_545
F2 Na0 3.021458 1_556
F2 Na0 3.021458 1_655
F3 Na1 3.021458 1_554
F3 Na1 3.021458 1_545
F3 Na0 3.021458 1_555
F3 Na0 3.021458 1_655
F4 Na0 3.021458 1_556
F4 Na0 3.021458 1_565
F4 Na1 3.021458 1_555
F4 Na1 3.021458 1_455
F5 Na1 3.021458 1_455
F5 Na1 3.021458 1_545
F5 Na0 3.021458 1_556
F5 Na0 3.021458 1_555
