# generated using pymatgen
data_Si(NiO2)2
_symmetry_space_group_name_H-M   'P 1'
_cell_length_a   4.71915053
_cell_length_b   5.89489391
_cell_length_c   10.10808691
_cell_angle_alpha   90.00000000
_cell_angle_beta   90.00000000
_cell_angle_gamma   90.00000000
_symmetry_Int_Tables_number   1
_chemical_formula_structural   Si(NiO2)2
_chemical_formula_sum   'Si4 Ni8 O16'
_cell_volume   281.19577524
_cell_formula_units_Z   4
loop_
 _symmetry_equiv_pos_site_id
 _symmetry_equiv_pos_as_xyz
  1  'x, y, z'
loop_
 _atom_site_type_symbol
 _atom_site_label
 _atom_site_symmetry_multiplicity
 _atom_site_fract_x
 _atom_site_fract_y
 _atom_site_fract_z
 _atom_site_occupancy
  Si  Si0  1  0.92750474  0.75000000  0.40554965  1
  Si  Si1  1  0.42750274  0.25000000  0.09445035  1
  Si  Si2  1  0.07249626  0.25000000  0.59445035  1
  Si  Si3  1  0.57249526  0.75000000  0.90554865  1
  Ni  Ni0  1  0.50656057  0.25000000  0.77310080  1
  Ni  Ni1  1  0.99343843  0.25000000  0.27310080  1
  Ni  Ni2  1  0.49343743  0.75000000  0.22689920  1
  Ni  Ni3  1  0.00656157  0.75000000  0.72689820  1
  Ni  Ni4  1  0.49999900  0.50000000  0.50000000  1
  Ni  Ni5  1  -0.00000000  0.50000000  -0.00000000  1
  Ni  Ni6  1  0.49999900  -0.00000000  0.50000000  1
  Ni  Ni7  1  -0.00000000  -0.00000000  -0.00000000  1
  O  O0  1  0.22557948  0.47103315  0.66331294  1
  O  O1  1  0.72557948  0.52896585  0.83668606  1
  O  O2  1  0.77441952  0.97103515  0.33668606  1
  O  O3  1  0.27442052  0.02896585  0.16331394  1
  O  O4  1  0.77441952  0.52896585  0.33668606  1
  O  O5  1  0.27442052  0.47103315  0.16331394  1
  O  O6  1  0.22557948  0.02896585  0.66331294  1
  O  O7  1  0.72557948  0.97103515  0.83668606  1
  O  O8  1  0.71642175  0.75000000  0.05535310  1
  O  O9  1  0.21642275  0.25000000  0.44464690  1
  O  O10  1  0.28357825  0.25000000  0.94464690  1
  O  O11  1  0.78357725  0.75000000  0.55535310  1
  O  O12  1  0.22958063  0.75000000  0.90628752  1
  O  O13  1  0.72958063  0.25000000  0.59371248  1
  O  O14  1  0.27041837  0.75000000  0.40628752  1
  O  O15  1  0.77041937  0.25000000  0.09371248  1
loop_
_geom_bond_atom_site_label_1
_geom_bond_atom_site_label_2
_geom_bond_distance
_geom_bond_site_symmetry_2
Ni0 O10 2.028318 1_555
Ni0 O7 2.045890 1_545
Ni0 O1 2.045895 1_555
Ni0 O13 2.096578 1_555
Ni0 O0 2.165066 1_555
Ni0 O6 2.165070 1_555
Ni1 O9 2.028323 1_655
Ni1 O2 2.045890 1_545
Ni1 O4 2.045895 1_555
Ni1 O15 2.096576 1_555
Ni1 O5 2.165064 1_655
Ni1 O3 2.165068 1_655
Ni2 O8 2.028323 1_555
Ni2 O3 2.045890 1_565
Ni2 O5 2.045895 1_555
Ni2 O14 2.096576 1_555
Ni2 O4 2.165068 1_555
Ni2 O2 2.165071 1_555
Ni3 O11 2.028314 1_455
Ni3 O6 2.045892 1_565
Ni3 O0 2.045897 1_555
Ni3 O12 2.096585 1_555
Ni3 O1 2.165073 1_455
Ni3 O7 2.165076 1_455
Ni4 O14 2.059845 1_555
Ni4 O13 2.059848 1_555
Ni4 O9 2.067801 1_555
Ni4 O11 2.067807 1_555
Ni4 O0 2.105073 1_555
Ni4 O4 2.105083 1_555
Ni5 O15 2.059845 1_455
Ni5 O12 2.059845 1_554
Ni5 O8 2.067807 1_455
Ni5 O10 2.067807 1_554
Ni5 O1 2.105083 1_454
Ni5 O5 2.105084 1_555
Ni6 O14 2.059845 1_545
Ni6 O13 2.059848 1_555
Ni6 O9 2.067801 1_555
Ni6 O11 2.067807 1_545
Ni6 O6 2.105072 1_555
Ni6 O2 2.105083 1_545
Ni7 O12 2.059845 1_544
Ni7 O15 2.059845 1_455
Ni7 O8 2.067807 1_445
Ni7 O10 2.067807 1_554
Ni7 O7 2.105083 1_444
Ni7 O3 2.105083 1_555
O0 Si2 1.644424 1_555
O1 Si3 1.644431 1_555
O2 Si0 1.644442 1_555
O3 Si1 1.644431 1_555
O4 Si0 1.644437 1_555
O5 Si1 1.644426 1_555
O6 Si2 1.644428 1_555
O7 Si3 1.644435 1_555
O8 Si3 1.659590 1_554
O9 Si2 1.659581 1_555
O10 Si1 1.659577 1_556
O11 Si0 1.659583 1_555
O12 Si3 1.618283 1_555
O13 Si2 1.618288 1_655
O14 Si0 1.618278 1_455
O15 Si1 1.618292 1_555
