# generated using pymatgen
data_Sr3La(NiO4)2
_symmetry_space_group_name_H-M   'P 1'
_cell_length_a   6.77405891
_cell_length_b   6.77405891
_cell_length_c   5.48005300
_cell_angle_alpha   90.00000000
_cell_angle_beta   90.00000000
_cell_angle_gamma   132.29231192
_symmetry_Int_Tables_number   1
_chemical_formula_structural   Sr3La(NiO4)2
_chemical_formula_sum   'Sr3 La1 Ni2 O8'
_cell_volume   186.01624652
_cell_formula_units_Z   1
loop_
 _symmetry_equiv_pos_site_id
 _symmetry_equiv_pos_as_xyz
  1  'x, y, z'
loop_
 _atom_site_type_symbol
 _atom_site_label
 _atom_site_symmetry_multiplicity
 _atom_site_fract_x
 _atom_site_fract_y
 _atom_site_fract_z
 _atom_site_occupancy
  Sr  Sr0  1  0.64136900  0.35863100  0.00000000  1
  Sr  Sr1  1  0.36100400  0.63899600  0.00000000  1
  Sr  Sr2  1  0.85816300  0.14183700  0.50000000  1
  La  La0  1  0.13868200  0.86131800  0.50000000  1
  Ni  Ni0  1  0.49718700  0.50281300  0.50000000  1
  Ni  Ni1  1  0.99829200  0.00170800  0.00000000  1
  O  O0  1  0.24821800  0.24190800  0.25484500  1
  O  O1  1  0.75809200  0.75178200  0.74515500  1
  O  O2  1  0.24821800  0.24190800  0.74515500  1
  O  O3  1  0.75809200  0.75178200  0.25484500  1
  O  O4  1  0.84142600  0.15857400  0.00000000  1
  O  O5  1  0.33280600  0.66719400  0.50000000  1
  O  O6  1  0.65846500  0.34153500  0.50000000  1
  O  O7  1  0.15998700  0.84001300  0.00000000  1
loop_
_geom_bond_atom_site_label_1
_geom_bond_atom_site_label_2
_geom_bond_distance
_geom_bond_site_symmetry_2
La0 O5 2.405359 1_555
La0 O2 2.535293 1_565
La0 O0 2.535293 1_565
La0 O1 2.535293 1_455
La0 O3 2.535293 1_455
La0 O6 2.750408 1_455
La0 O6 2.750408 1_565
La0 O7 2.752714 1_556
La0 O7 2.752714 1_555
Ni0 O3 1.939422 1_555
Ni0 O1 1.939422 1_555
Ni0 O0 1.939422 1_555
Ni0 O2 1.939422 1_555
Ni0 O6 1.998370 1_555
Ni0 O5 2.036818 1_555
Ni1 O1 1.938251 1_544
Ni1 O3 1.938251 1_545
Ni1 O2 1.938251 1_654
Ni1 O0 1.938251 1_655
Ni1 O4 1.943701 1_555
Ni1 O7 2.003537 1_645
O0 Sr0 2.614258 1_555
O0 Sr2 2.614452 1_455
O0 Sr1 2.646472 1_555
O1 Sr0 2.614258 1_556
O1 Sr2 2.614452 1_565
O1 Sr1 2.646472 1_556
O2 Sr0 2.614258 1_556
O2 Sr2 2.614452 1_455
O2 Sr1 2.646472 1_556
O3 Sr0 2.614258 1_555
O3 Sr2 2.614452 1_565
O3 Sr1 2.646472 1_555
O4 Sr0 2.478874 1_555
O4 Sr2 2.747864 1_555
O4 Sr2 2.747864 1_554
O4 Sr1 2.750183 1_655
O4 Sr1 2.750183 1_545
O5 Sr2 2.757422 1_455
O5 Sr2 2.757422 1_565
O5 Sr1 2.762213 1_555
O5 Sr1 2.762213 1_556
O6 Sr2 2.474426 1_555
O6 Sr0 2.748203 1_555
O6 Sr0 2.748203 1_556
O7 Sr1 2.490769 1_555
O7 Sr0 2.749159 1_565
O7 Sr0 2.749159 1_455
