# generated using pymatgen
data_U(FeB3)2
_symmetry_space_group_name_H-M   'P 1'
_cell_length_a   10.68099791
_cell_length_b   10.68099791
_cell_length_c   10.68099791
_cell_angle_alpha   145.97004705
_cell_angle_beta   110.00911110
_cell_angle_gamma   80.15899448
_symmetry_Int_Tables_number   1
_chemical_formula_structural   U(FeB3)2
_chemical_formula_sum   'U8 Fe16 B48'
_cell_volume   625.88070994
_cell_formula_units_Z   8
loop_
 _symmetry_equiv_pos_site_id
 _symmetry_equiv_pos_as_xyz
  1  'x, y, z'
loop_
 _atom_site_type_symbol
 _atom_site_label
 _atom_site_symmetry_multiplicity
 _atom_site_fract_x
 _atom_site_fract_y
 _atom_site_fract_z
 _atom_site_occupancy
  U  U0_0  1  0.25000000  0.00000000  0.25000000  1
  U  U0_1  1  0.25000000  0.00000000  0.75000000  1
  U  U0_2  1  0.25000000  0.50000000  0.25000000  1
  U  U0_3  1  0.25000000  0.50000000  0.75000000  1
  U  U0_4  1  0.75000000  0.00000000  0.25000000  1
  U  U0_5  1  0.75000000  0.00000000  0.75000000  1
  U  U0_6  1  0.75000000  0.50000000  0.25000000  1
  U  U0_7  1  0.75000000  0.50000000  0.75000000  1
  Fe  Fe0_0  1  0.42308325  0.42308325  0.00000000  1
  Fe  Fe0_1  1  0.42308325  0.42308325  0.50000000  1
  Fe  Fe0_2  1  0.42308325  0.92308325  0.00000000  1
  Fe  Fe0_3  1  0.42308325  0.92308325  0.50000000  1
  Fe  Fe0_4  1  0.92308325  0.42308325  0.00000000  1
  Fe  Fe0_5  1  0.92308325  0.42308325  0.50000000  1
  Fe  Fe0_6  1  0.92308325  0.92308325  0.00000000  1
  Fe  Fe0_7  1  0.92308325  0.92308325  0.50000000  1
  Fe  Fe1_0  1  0.07691674  0.07691674  0.00000000  1
  Fe  Fe1_1  1  0.07691674  0.07691674  0.50000000  1
  Fe  Fe1_2  1  0.07691674  0.57691675  0.00000000  1
  Fe  Fe1_3  1  0.07691675  0.57691675  0.50000000  1
  Fe  Fe1_4  1  0.57691675  0.07691674  0.00000000  1
  Fe  Fe1_5  1  0.57691675  0.07691674  0.50000000  1
  Fe  Fe1_6  1  0.57691675  0.57691675  0.00000000  1
  Fe  Fe1_7  1  0.57691675  0.57691675  0.50000000  1
  B  B0_0  1  0.42786872  0.25000000  0.17786872  1
  B  B0_1  1  0.42786872  0.25000000  0.67786872  1
  B  B0_2  1  0.42786872  0.75000000  0.17786872  1
  B  B0_3  1  0.42786872  0.75000000  0.67786872  1
  B  B0_4  1  0.92786872  0.25000000  0.17786872  1
  B  B0_5  1  0.92786872  0.25000000  0.67786872  1
  B  B0_6  1  0.92786872  0.75000000  0.17786872  1
  B  B0_7  1  0.92786872  0.75000000  0.67786872  1
  B  B1_0  1  0.07213128  0.25000000  0.32213128  1
  B  B1_1  1  0.07213128  0.25000000  0.82213128  1
  B  B1_2  1  0.07213128  0.75000000  0.32213128  1
  B  B1_3  1  0.07213128  0.75000000  0.82213128  1
  B  B1_4  1  0.57213128  0.25000000  0.32213128  1
  B  B1_5  1  0.57213128  0.25000000  0.82213128  1
  B  B1_6  1  0.57213128  0.75000000  0.32213128  1
  B  B1_7  1  0.57213128  0.75000000  0.82213128  1
  B  B2_0  1  0.47946676  0.34830493  0.13116183  1
  B  B2_1  1  0.47946676  0.34830493  0.63116183  1
  B  B2_2  1  0.47946676  0.84830493  0.13116183  1
  B  B2_3  1  0.47946676  0.84830493  0.63116183  1
  B  B2_4  1  0.97946676  0.34830493  0.13116183  1
  B  B2_5  1  0.97946676  0.34830493  0.63116183  1
  B  B2_6  1  0.97946676  0.84830493  0.13116183  1
  B  B2_7  1  0.97946676  0.84830493  0.63116183  1
  B  B3_0  1  0.02053324  0.15169507  0.36883817  1
  B  B3_1  1  0.02053324  0.15169507  0.86883817  1
  B  B3_2  1  0.02053325  0.65169507  0.36883817  1
  B  B3_3  1  0.02053325  0.65169507  0.86883817  1
  B  B3_4  1  0.52053324  0.15169507  0.36883817  1
  B  B3_5  1  0.52053325  0.15169507  0.86883818  1
  B  B3_6  1  0.52053325  0.65169507  0.36883817  1
  B  B3_7  1  0.52053324  0.65169507  0.86883817  1
  B  B4_0  1  0.28285689  0.15169507  0.13116183  1
  B  B4_1  1  0.28285689  0.15169507  0.63116183  1
  B  B4_2  1  0.28285690  0.65169507  0.13116182  1
  B  B4_3  1  0.28285689  0.65169507  0.63116182  1
  B  B4_4  1  0.78285690  0.15169507  0.13116183  1
  B  B4_5  1  0.78285689  0.15169507  0.63116182  1
  B  B4_6  1  0.78285689  0.65169507  0.13116183  1
  B  B4_7  1  0.78285690  0.65169507  0.63116183  1
  B  B5_0  1  0.21714311  0.34830493  0.36883817  1
  B  B5_1  1  0.21714311  0.34830493  0.86883817  1
  B  B5_2  1  0.21714311  0.84830493  0.36883817  1
  B  B5_3  1  0.21714311  0.84830493  0.86883817  1
  B  B5_4  1  0.71714311  0.34830493  0.36883817  1
  B  B5_5  1  0.71714311  0.34830493  0.86883818  1
  B  B5_6  1  0.71714311  0.84830493  0.36883817  1
  B  B5_7  1  0.71714311  0.84830493  0.86883817  1
loop_
_geom_bond_atom_site_label_1
_geom_bond_atom_site_label_2
_geom_bond_distance
_geom_bond_site_symmetry_2
U0_0 U0_3 3.125491 1_544
U0_0 U0_3 3.125491 1_555
U0_1 U0_2 3.125491 1_545
U0_1 U0_2 3.125491 1_556
U0_4 U0_7 3.125491 1_555
U0_4 U0_7 3.125491 1_544
U0_5 U0_6 3.125491 1_556
U0_5 U0_6 3.125491 1_545
Fe0_0 Fe1_6 2.514435 1_555
Fe0_1 Fe1_7 2.514435 1_555
Fe0_2 Fe1_4 2.514435 1_565
Fe0_3 Fe1_5 2.514435 1_565
Fe0_4 Fe1_2 2.514435 1_655
Fe0_5 Fe1_3 2.514435 1_655
Fe0_6 Fe1_0 2.514435 1_665
Fe0_7 Fe1_1 2.514435 1_665
B0_0 B2_0 1.705661 1_555
B0_0 B4_0 1.705661 1_555
B0_0 B1_4 1.767411 1_555
B0_0 Fe1_4 2.191735 1_555
B0_0 Fe1_7 2.191735 1_555
B0_0 Fe0_2 2.191735 1_545
B0_0 Fe0_1 2.191735 1_555
B0_0 U0_1 2.681564 1_554
B0_0 U0_2 2.681564 1_555
B0_1 B2_1 1.705661 1_555
B0_1 B4_1 1.705661 1_555
B0_1 B1_5 1.767411 1_555
B0_1 Fe0_3 2.191735 1_545
B0_1 Fe0_0 2.191735 1_556
B0_1 Fe1_5 2.191735 1_555
B0_1 Fe1_6 2.191735 1_556
B0_1 U0_0 2.681564 1_555
B0_1 U0_3 2.681564 1_555
B0_2 B4_2 1.705661 1_555
B0_2 B2_2 1.705661 1_555
B0_2 B1_6 1.767411 1_555
B0_2 Fe1_5 2.191735 1_565
B0_2 Fe1_6 2.191735 1_555
B0_2 Fe0_3 2.191735 1_555
B0_2 Fe0_0 2.191735 1_555
B0_2 U0_3 2.681564 1_554
B0_2 U0_0 2.681564 1_565
B0_3 B2_3 1.705661 1_555
B0_3 B4_3 1.705661 1_555
B0_3 B1_7 1.767411 1_555
B0_3 Fe1_4 2.191735 1_566
B0_3 Fe1_7 2.191735 1_555
B0_3 Fe0_1 2.191735 1_555
B0_3 Fe0_2 2.191735 1_556
B0_3 U0_2 2.681564 1_555
B0_3 U0_1 2.681564 1_565
B0_4 B4_4 1.705661 1_555
B0_4 B2_4 1.705661 1_555
B0_4 B1_0 1.767411 1_655
B0_4 Fe1_0 2.191735 1_655
B0_4 Fe0_6 2.191735 1_545
B0_4 Fe0_5 2.191735 1_555
B0_4 Fe1_3 2.191735 1_655
B0_4 U0_6 2.681564 1_555
B0_4 U0_5 2.681564 1_554
B0_5 B4_5 1.705661 1_555
B0_5 B2_5 1.705661 1_555
B0_5 B1_1 1.767411 1_655
B0_5 Fe1_2 2.191735 1_656
B0_5 Fe1_1 2.191735 1_655
B0_5 Fe0_4 2.191735 1_556
B0_5 Fe0_7 2.191735 1_545
B0_5 U0_7 2.681564 1_555
B0_5 U0_4 2.681564 1_555
B0_6 B2_6 1.705661 1_555
B0_6 B4_6 1.705661 1_555
B0_6 B1_2 1.767411 1_655
B0_6 Fe1_1 2.191735 1_665
B0_6 Fe1_2 2.191735 1_655
B0_6 Fe0_7 2.191735 1_555
B0_6 Fe0_4 2.191735 1_555
B0_6 U0_7 2.681564 1_554
B0_6 U0_4 2.681564 1_565
B0_7 B4_7 1.705661 1_555
B0_7 B2_7 1.705661 1_555
B0_7 B1_3 1.767411 1_655
B0_7 Fe1_0 2.191735 1_666
B0_7 Fe0_5 2.191735 1_555
B0_7 Fe0_6 2.191735 1_556
B0_7 Fe1_3 2.191735 1_655
B0_7 U0_5 2.681564 1_565
B0_7 U0_6 2.681564 1_555
B1_0 B3_0 1.705661 1_555
B1_0 B5_0 1.705661 1_555
B1_0 Fe0_6 2.191735 1_445
B1_0 Fe0_5 2.191735 1_455
B1_0 Fe1_3 2.191735 1_555
B1_0 Fe1_0 2.191735 1_555
B1_0 U0_3 2.681564 1_555
B1_0 U0_0 2.681564 1_555
B1_1 B3_1 1.705661 1_555
B1_1 B5_1 1.705661 1_555
B1_1 Fe0_7 2.191735 1_445
B1_1 Fe1_1 2.191735 1_555
B1_1 Fe0_4 2.191735 1_456
B1_1 Fe1_2 2.191735 1_556
B1_1 U0_2 2.681564 1_556
B1_1 U0_1 2.681564 1_555
B1_2 B3_2 1.705661 1_555
B1_2 B5_2 1.705661 1_555
B1_2 Fe1_1 2.191735 1_565
B1_2 Fe1_2 2.191735 1_555
B1_2 Fe0_4 2.191735 1_455
B1_2 Fe0_7 2.191735 1_455
B1_2 U0_2 2.681564 1_555
B1_2 U0_1 2.681564 1_565
B1_3 B3_3 1.705661 1_555
B1_3 B5_3 1.705661 1_555
B1_3 Fe1_0 2.191735 1_566
B1_3 Fe0_6 2.191735 1_456
B1_3 Fe0_5 2.191735 1_455
B1_3 Fe1_3 2.191735 1_555
B1_3 U0_3 2.681564 1_555
B1_3 U0_0 2.681564 1_566
B1_4 B3_4 1.705661 1_555
B1_4 B5_4 1.705661 1_555
B1_4 Fe0_1 2.191735 1_555
B1_4 Fe1_4 2.191735 1_555
B1_4 Fe0_2 2.191735 1_545
B1_4 Fe1_7 2.191735 1_555
B1_4 U0_7 2.681564 1_555
B1_4 U0_4 2.681564 1_555
B1_5 B3_5 1.705661 1_555
B1_5 B5_5 1.705661 1_555
B1_5 Fe0_0 2.191735 1_556
B1_5 Fe0_3 2.191735 1_545
B1_5 Fe1_6 2.191735 1_556
B1_5 Fe1_5 2.191735 1_555
B1_5 U0_6 2.681564 1_556
B1_5 U0_5 2.681564 1_555
B1_6 B3_6 1.705661 1_555
B1_6 B5_6 1.705661 1_555
B1_6 Fe1_5 2.191735 1_565
B1_6 Fe0_0 2.191735 1_555
B1_6 Fe0_3 2.191735 1_555
B1_6 Fe1_6 2.191735 1_555
B1_6 U0_5 2.681564 1_565
B1_6 U0_6 2.681564 1_555
B1_7 B3_7 1.705661 1_555
B1_7 B5_7 1.705661 1_555
B1_7 Fe1_4 2.191735 1_566
B1_7 Fe0_1 2.191735 1_555
B1_7 Fe1_7 2.191735 1_555
B1_7 Fe0_2 2.191735 1_556
B1_7 U0_4 2.681564 1_566
B1_7 U0_7 2.681564 1_555
B2_0 B3_5 1.796253 1_554
B2_0 B3_6 1.796253 1_555
B2_0 Fe0_0 2.018932 1_555
B2_0 Fe1_7 2.164282 1_555
B2_0 Fe1_4 2.164282 1_555
B2_0 U0_1 2.757929 1_554
B2_0 U0_2 2.757929 1_555
B2_0 U0_6 2.875336 1_555
B2_1 B3_7 1.796253 1_555
B2_1 B3_4 1.796253 1_555
B2_1 Fe0_1 2.018932 1_555
B2_1 Fe1_6 2.164282 1_556
B2_1 Fe1_5 2.164282 1_555
B2_1 U0_0 2.757929 1_555
B2_1 U0_3 2.757929 1_555
B2_1 U0_7 2.875336 1_555
B2_2 B3_4 1.796253 1_565
B2_2 B3_7 1.796253 1_554
B2_2 Fe0_2 2.018932 1_555
B2_2 Fe1_6 2.164282 1_555
B2_2 Fe1_5 2.164282 1_565
B2_2 U0_3 2.757929 1_554
B2_2 U0_0 2.757929 1_565
B2_2 U0_4 2.875336 1_565
B2_3 B3_5 1.796253 1_565
B2_3 B3_6 1.796253 1_555
B2_3 Fe0_3 2.018932 1_555
B2_3 Fe1_4 2.164282 1_566
B2_3 Fe1_7 2.164282 1_555
B2_3 U0_1 2.757929 1_565
B2_3 U0_2 2.757929 1_555
B2_3 U0_5 2.875336 1_565
B2_4 B3_1 1.796253 1_654
B2_4 B3_2 1.796253 1_655
B2_4 Fe0_4 2.018932 1_555
B2_4 Fe1_0 2.164282 1_655
B2_4 Fe1_3 2.164282 1_655
B2_4 U0_6 2.757929 1_555
B2_4 U0_5 2.757929 1_554
B2_4 U0_2 2.875336 1_655
B2_5 B3_0 1.796253 1_655
B2_5 B3_3 1.796253 1_655
B2_5 Fe0_5 2.018932 1_555
B2_5 Fe1_1 2.164282 1_655
B2_5 Fe1_2 2.164282 1_656
B2_5 U0_4 2.757929 1_555
B2_5 U0_7 2.757929 1_555
B2_5 U0_3 2.875336 1_655
B2_6 B3_0 1.796253 1_665
B2_6 B3_3 1.796253 1_654
B2_6 Fe0_6 2.018932 1_555
B2_6 Fe1_2 2.164282 1_655
B2_6 Fe1_1 2.164282 1_665
B2_6 U0_4 2.757929 1_565
B2_6 U0_7 2.757929 1_554
B2_6 U0_0 2.875336 1_665
B2_7 B3_1 1.796253 1_665
B2_7 B3_2 1.796253 1_655
B2_7 Fe0_7 2.018932 1_555
B2_7 Fe1_0 2.164282 1_666
B2_7 Fe1_3 2.164282 1_655
B2_7 U0_5 2.757929 1_565
B2_7 U0_6 2.757929 1_555
B2_7 U0_1 2.875336 1_665
B3_0 Fe1_1 2.018932 1_555
B3_0 Fe0_5 2.164282 1_455
B3_0 Fe0_6 2.164282 1_445
B3_0 U0_3 2.757929 1_555
B3_0 U0_0 2.757929 1_555
B3_0 U0_4 2.875336 1_455
B3_1 Fe1_0 2.018932 1_556
B3_1 Fe0_4 2.164282 1_456
B3_1 Fe0_7 2.164282 1_445
B3_1 U0_2 2.757929 1_556
B3_1 U0_1 2.757929 1_555
B3_1 U0_5 2.875336 1_455
B3_2 Fe1_3 2.018932 1_555
B3_2 Fe0_7 2.164282 1_455
B3_2 Fe0_4 2.164282 1_455
B3_2 U0_1 2.757929 1_565
B3_2 U0_2 2.757929 1_555
B3_2 U0_6 2.875336 1_455
B3_3 Fe1_2 2.018932 1_556
B3_3 Fe0_5 2.164282 1_455
B3_3 Fe0_6 2.164282 1_456
B3_3 U0_0 2.757929 1_566
B3_3 U0_3 2.757929 1_555
B3_3 U0_7 2.875336 1_455
B3_4 Fe1_5 2.018932 1_555
B3_4 Fe0_2 2.164282 1_545
B3_4 Fe0_1 2.164282 1_555
B3_4 U0_4 2.757929 1_555
B3_4 U0_7 2.757929 1_555
B3_4 U0_0 2.875336 1_555
B3_5 Fe1_4 2.018932 1_556
B3_5 Fe0_0 2.164282 1_556
B3_5 Fe0_3 2.164282 1_545
B3_5 U0_5 2.757929 1_555
B3_5 U0_6 2.757929 1_556
B3_5 U0_1 2.875336 1_555
B3_6 Fe1_7 2.018932 1_555
B3_6 Fe0_0 2.164282 1_555
B3_6 Fe0_3 2.164282 1_555
B3_6 U0_5 2.757929 1_565
B3_6 U0_6 2.757929 1_555
B3_6 U0_2 2.875336 1_555
B3_7 Fe1_6 2.018932 1_556
B3_7 Fe0_1 2.164282 1_555
B3_7 Fe0_2 2.164282 1_556
B3_7 U0_4 2.757929 1_566
B3_7 U0_7 2.757929 1_555
B3_7 U0_3 2.875336 1_555
B4_0 B5_3 1.796253 1_544
B4_0 B5_0 1.796253 1_555
B4_0 Fe1_0 2.018932 1_555
B4_0 Fe0_2 2.164282 1_545
B4_0 Fe0_1 2.164282 1_555
B4_0 U0_1 2.757929 1_554
B4_0 U0_2 2.757929 1_555
B4_0 U0_0 2.875336 1_555
B4_1 B5_1 1.796253 1_555
B4_1 B5_2 1.796253 1_545
B4_1 Fe1_1 2.018932 1_555
B4_1 Fe0_0 2.164282 1_556
B4_1 Fe0_3 2.164282 1_545
B4_1 U0_3 2.757929 1_555
B4_1 U0_0 2.757929 1_555
B4_1 U0_1 2.875336 1_555
B4_2 B5_1 1.796253 1_554
B4_2 B5_2 1.796253 1_555
B4_2 Fe1_2 2.018932 1_555
B4_2 Fe0_0 2.164282 1_555
B4_2 Fe0_3 2.164282 1_555
B4_2 U0_3 2.757929 1_554
B4_2 U0_0 2.757929 1_565
B4_2 U0_2 2.875336 1_555
B4_3 B5_3 1.796253 1_555
B4_3 B5_0 1.796253 1_555
B4_3 Fe1_3 2.018932 1_555
B4_3 Fe0_1 2.164282 1_555
B4_3 Fe0_2 2.164282 1_556
B4_3 U0_1 2.757929 1_565
B4_3 U0_2 2.757929 1_555
B4_3 U0_3 2.875336 1_555
B4_4 B5_4 1.796253 1_555
B4_4 B5_7 1.796253 1_544
B4_4 Fe1_4 2.018932 1_555
B4_4 Fe0_6 2.164282 1_545
B4_4 Fe0_5 2.164282 1_555
B4_4 U0_6 2.757929 1_555
B4_4 U0_5 2.757929 1_554
B4_4 U0_4 2.875336 1_555
B4_5 B5_5 1.796253 1_555
B4_5 B5_6 1.796253 1_545
B4_5 Fe1_5 2.018932 1_555
B4_5 Fe0_7 2.164282 1_545
B4_5 Fe0_4 2.164282 1_556
B4_5 U0_7 2.757929 1_555
B4_5 U0_4 2.757929 1_555
B4_5 U0_5 2.875336 1_555
B4_6 B5_6 1.796253 1_555
B4_6 B5_5 1.796253 1_554
B4_6 Fe1_6 2.018932 1_555
B4_6 Fe0_7 2.164282 1_555
B4_6 Fe0_4 2.164282 1_555
B4_6 U0_4 2.757929 1_565
B4_6 U0_7 2.757929 1_554
B4_6 U0_6 2.875336 1_555
B4_7 B5_7 1.796253 1_555
B4_7 B5_4 1.796253 1_555
B4_7 Fe1_7 2.018932 1_555
B4_7 Fe0_5 2.164282 1_555
B4_7 Fe0_6 2.164282 1_556
B4_7 U0_5 2.757929 1_565
B4_7 U0_6 2.757929 1_555
B4_7 U0_7 2.875336 1_555
B5_0 Fe0_1 2.018932 1_555
B5_0 Fe1_0 2.164282 1_555
B5_0 Fe1_3 2.164282 1_555
B5_0 U0_0 2.757929 1_555
B5_0 U0_3 2.757929 1_555
B5_0 U0_2 2.875336 1_555
B5_1 Fe0_0 2.018932 1_556
B5_1 Fe1_1 2.164282 1_555
B5_1 Fe1_2 2.164282 1_556
B5_1 U0_1 2.757929 1_555
B5_1 U0_2 2.757929 1_556
B5_1 U0_3 2.875336 1_555
B5_2 Fe0_3 2.018932 1_555
B5_2 Fe1_1 2.164282 1_565
B5_2 Fe1_2 2.164282 1_555
B5_2 U0_1 2.757929 1_565
B5_2 U0_2 2.757929 1_555
B5_2 U0_0 2.875336 1_565
B5_3 Fe0_2 2.018932 1_556
B5_3 Fe1_0 2.164282 1_566
B5_3 Fe1_3 2.164282 1_555
B5_3 U0_3 2.757929 1_555
B5_3 U0_0 2.757929 1_566
B5_3 U0_1 2.875336 1_565
B5_4 Fe0_5 2.018932 1_555
B5_4 Fe1_4 2.164282 1_555
B5_4 Fe1_7 2.164282 1_555
B5_4 U0_4 2.757929 1_555
B5_4 U0_7 2.757929 1_555
B5_4 U0_6 2.875336 1_555
B5_5 Fe0_4 2.018932 1_556
B5_5 Fe1_5 2.164282 1_555
B5_5 Fe1_6 2.164282 1_556
B5_5 U0_5 2.757929 1_555
B5_5 U0_6 2.757929 1_556
B5_5 U0_7 2.875336 1_555
B5_6 Fe0_7 2.018932 1_555
B5_6 Fe1_5 2.164282 1_565
B5_6 Fe1_6 2.164282 1_555
B5_6 U0_6 2.757929 1_555
B5_6 U0_5 2.757929 1_565
B5_6 U0_4 2.875336 1_565
B5_7 Fe0_6 2.018932 1_556
B5_7 Fe1_4 2.164282 1_566
B5_7 Fe1_7 2.164282 1_555
B5_7 U0_4 2.757929 1_566
B5_7 U0_7 2.757929 1_555
B5_7 U0_5 2.875336 1_565
