# generated using pymatgen
data_Ba2Zn3F10
_symmetry_space_group_name_H-M   'P 1'
_cell_length_a   9.82342304
_cell_length_b   9.82342304
_cell_length_c   7.87280616
_cell_angle_alpha   69.47014535
_cell_angle_beta   69.47014535
_cell_angle_gamma   35.62946966
_symmetry_Int_Tables_number   1
_chemical_formula_structural   Ba2Zn3F10
_chemical_formula_sum   'Ba4 Zn6 F20'
_cell_volume   411.45014331
_cell_formula_units_Z   2
loop_
 _symmetry_equiv_pos_site_id
 _symmetry_equiv_pos_as_xyz
  1  'x, y, z'
loop_
 _atom_site_type_symbol
 _atom_site_label
 _atom_site_symmetry_multiplicity
 _atom_site_fract_x
 _atom_site_fract_y
 _atom_site_fract_z
 _atom_site_occupancy
  Ba  Ba0  1  0.61487577  0.61487577  0.27990101  1
  Ba  Ba1  1  0.38512423  0.38512423  0.72009899  1
  Ba  Ba2  1  0.71925326  0.71925326  0.68673723  1
  Ba  Ba3  1  0.28074674  0.28074674  0.31326277  1
  Zn  Zn0  1  0.74244032  0.25755968  0.00000000  1
  Zn  Zn1  1  0.25755968  0.74244032  0.00000000  1
  Zn  Zn2  1  0.82391327  0.82391327  0.01983639  1
  Zn  Zn3  1  0.17608673  0.17608673  0.98016361  1
  Zn  Zn4  1  0.92592969  0.92592969  0.45278577  1
  Zn  Zn5  1  0.07407031  0.07407031  0.54721423  1
  F  F0  1  0.86564751  0.86564751  0.74622793  1
  F  F1  1  0.13435249  0.13435249  0.25377207  1
  F  F2  1  0.62434549  0.15182456  0.02888501  1
  F  F3  1  0.37565451  0.84817544  0.97111499  1
  F  F4  1  0.84817544  0.37565451  0.97111499  1
  F  F5  1  0.15182456  0.62434549  0.02888501  1
  F  F6  1  0.77558840  0.22441160  0.50000000  1
  F  F7  1  0.22441160  0.77558840  0.50000000  1
  F  F8  1  0.97961182  0.97961182  0.18102912  1
  F  F9  1  0.02038818  0.02038818  0.81897088  1
  F  F10  1  0.48319163  0.48319163  0.18803950  1
  F  F11  1  0.51680837  0.51680837  0.81196050  1
  F  F12  1  0.76348655  0.76348655  0.28468315  1
  F  F13  1  0.23651345  0.23651345  0.71531685  1
  F  F14  1  0.50000000  -0.00000000  0.00000000  1
  F  F15  1  0.00000000  0.50000000  0.00000000  1
  F  F16  1  0.61019376  0.09041111  0.47568593  1
  F  F17  1  0.38980624  0.90958889  0.52431407  1
  F  F18  1  0.90958889  0.38980624  0.52431407  1
  F  F19  1  0.09041111  0.61019376  0.47568593  1
loop_
_geom_bond_atom_site_label_1
_geom_bond_atom_site_label_2
_geom_bond_distance
_geom_bond_site_symmetry_2
Ba0 F17 2.736873 1_555
Ba0 F18 2.736873 1_555
Ba0 F7 2.760538 1_555
Ba0 F6 2.760538 1_555
Ba0 F12 2.793822 1_555
Ba0 F10 2.811114 1_555
Ba0 F4 2.833509 1_554
Ba0 F3 2.833509 1_554
Ba0 F1 3.025249 1_655
Ba0 F1 3.025249 1_565
Ba0 F14 3.065761 1_565
Ba0 F15 3.065761 1_655
Ba1 F19 2.736873 1_555
Ba1 F16 2.736873 1_555
Ba1 F6 2.760538 1_555
Ba1 F7 2.760538 1_555
Ba1 F13 2.793822 1_555
Ba1 F11 2.811114 1_555
Ba1 F2 2.833509 1_556
Ba1 F5 2.833509 1_556
Ba1 F0 3.025249 1_455
Ba1 F0 3.025249 1_545
Ba1 F15 3.065761 1_556
Ba1 F14 3.065761 1_556
Ba2 F18 2.644568 1_555
Ba2 F17 2.644568 1_555
Ba2 F3 2.783633 1_555
Ba2 F4 2.783633 1_555
Ba2 F19 2.802101 1_655
Ba2 F16 2.802101 1_565
Ba2 F0 2.943185 1_555
Ba2 F12 2.962138 1_555
Ba2 F13 3.039849 1_655
Ba2 F13 3.039849 1_565
Ba2 F15 3.117081 1_656
Ba2 F14 3.117081 1_566
Ba3 F16 2.644568 1_555
Ba3 F19 2.644568 1_555
Ba3 F5 2.783633 1_555
Ba3 F2 2.783633 1_555
Ba3 F17 2.802101 1_545
Ba3 F18 2.802101 1_455
Ba3 F1 2.943185 1_555
Ba3 F13 2.962138 1_555
Ba3 F12 3.039849 1_545
Ba3 F12 3.039849 1_455
Ba3 F14 3.117081 1_555
Ba3 F15 3.117081 1_555
F0 Zn2 2.002642 1_556
F0 Zn4 2.165504 1_555
F0 F19 2.674375 1_655
F0 F16 2.674375 1_565
F0 F14 2.782988 1_566
F0 F15 2.782988 1_656
F0 F7 2.881615 1_655
F0 F6 2.881615 1_565
F1 Zn3 2.002642 1_554
F1 Zn5 2.165504 1_555
F1 F17 2.674375 1_545
F1 F18 2.674375 1_455
F1 F14 2.782988 1_555
F1 F15 2.782988 1_555
F1 F6 2.881615 1_455
F1 F7 2.881615 1_545
F2 Zn2 2.005476 1_545
F2 Zn0 2.021011 1_555
F3 Zn3 2.005476 1_565
F3 Zn1 2.021011 1_556
F4 Zn3 2.005476 1_655
F4 Zn0 2.021011 1_556
F5 Zn2 2.005476 1_455
F5 Zn1 2.021011 1_555
F6 Zn4 2.063149 1_545
F6 Zn5 2.063149 1_655
F7 Zn4 2.063149 1_455
F7 Zn5 2.063149 1_565
F8 Zn4 2.000743 1_555
F8 Zn0 2.042777 1_565
F8 Zn1 2.042777 1_655
F9 Zn5 2.000743 1_555
F9 Zn1 2.042777 1_546
F9 Zn0 2.042777 1_456
F10 Zn1 2.017700 1_555
F10 Zn0 2.017700 1_555
F11 Zn1 2.017700 1_556
F11 Zn0 2.017700 1_556
F12 Zn2 1.972022 1_555
F12 F17 2.751605 1_555
F12 F18 2.751605 1_555
F12 F15 2.785941 1_655
F12 F14 2.785941 1_565
F13 Zn3 1.972022 1_555
F13 F19 2.751605 1_555
F13 F16 2.751605 1_555
F13 F14 2.785941 1_556
F13 F15 2.785941 1_556
F14 Zn2 2.086366 1_545
F14 Zn3 2.086366 1_554
F14 F3 2.676261 1_544
F14 F2 2.676261 1_555
F15 Zn3 2.086366 1_554
F15 Zn2 2.086366 1_455
F15 F4 2.676261 1_454
F15 F5 2.676261 1_555
F16 Zn4 1.982074 1_545
F17 Zn5 1.982074 1_565
F18 Zn5 1.982074 1_655
F19 Zn4 1.982074 1_455
