# generated using pymatgen
data_Ce3Co8Si
_symmetry_space_group_name_H-M   'P 1'
_cell_length_a   5.05505967
_cell_length_b   5.05505967
_cell_length_c   15.40211800
_cell_angle_alpha   90.00000000
_cell_angle_beta   90.00000000
_cell_angle_gamma   119.99999572
_symmetry_Int_Tables_number   1
_chemical_formula_structural   Ce3Co8Si
_chemical_formula_sum   'Ce6 Co16 Si2'
_cell_volume   340.85029170
_cell_formula_units_Z   2
loop_
 _symmetry_equiv_pos_site_id
 _symmetry_equiv_pos_as_xyz
  1  'x, y, z'
loop_
 _atom_site_type_symbol
 _atom_site_label
 _atom_site_symmetry_multiplicity
 _atom_site_fract_x
 _atom_site_fract_y
 _atom_site_fract_z
 _atom_site_occupancy
  Ce  Ce0  1  0.33333300  0.66666700  0.54845600  1
  Ce  Ce1  1  0.66666700  0.33333300  0.45154400  1
  Ce  Ce2  1  0.66666700  0.33333300  0.04845600  1
  Ce  Ce3  1  0.33333300  0.66666700  0.95154400  1
  Ce  Ce4  1  0.33333300  0.66666700  0.75000000  1
  Ce  Ce5  1  0.66666700  0.33333300  0.25000000  1
  Co  Co0  1  0.16712800  0.33425700  0.12560700  1
  Co  Co1  1  0.83287200  0.66574300  0.87439300  1
  Co  Co2  1  0.66574300  0.83287200  0.12560700  1
  Co  Co3  1  0.83287200  0.66574300  0.62560700  1
  Co  Co4  1  0.33425700  0.16712800  0.87439300  1
  Co  Co5  1  0.16712800  0.33425700  0.37439300  1
  Co  Co6  1  0.16712800  0.83287200  0.12560700  1
  Co  Co7  1  0.33425700  0.16712800  0.62560700  1
  Co  Co8  1  0.83287200  0.16712800  0.87439300  1
  Co  Co9  1  0.66574300  0.83287200  0.37439300  1
  Co  Co10  1  0.83287200  0.16712800  0.62560700  1
  Co  Co11  1  0.16712800  0.83287200  0.37439300  1
  Co  Co12  1  0.00000000  0.00000000  0.25000000  1
  Co  Co13  1  0.00000000  0.00000000  0.75000000  1
  Co  Co14  1  0.33333300  0.66666700  0.25000000  1
  Co  Co15  1  0.66666700  0.33333300  0.75000000  1
  Si  Si0  1  0.00000000  0.00000000  0.00000000  1
  Si  Si1  1  0.00000000  0.00000000  0.50000000  1
loop_
_geom_bond_atom_site_label_1
_geom_bond_atom_site_label_2
_geom_bond_distance
_geom_bond_site_symmetry_2
Ce0 Co3 2.792925 1_455
Ce0 Co7 2.792925 1_565
Ce0 Co10 2.792929 1_565
Ce0 Co10 2.792929 1_455
Ce0 Co7 2.792934 1_555
Ce0 Co3 2.792934 1_555
Ce0 Si1 3.012451 1_565
Ce0 Si1 3.012455 1_555
Ce0 Si1 3.012455 1_665
Ce0 Co11 3.050430 1_555
Ce0 Co9 3.050430 1_555
Ce0 Co5 3.050430 1_555
Ce0 Ce4 3.104204 1_555
Ce0 Ce1 3.278088 1_455
Ce0 Ce1 3.278088 1_565
Ce0 Ce1 3.278096 1_555
Ce1 Co9 2.792925 1_545
Ce1 Co5 2.792925 1_655
Ce1 Co11 2.792929 1_545
Ce1 Co11 2.792929 1_655
Ce1 Co5 2.792934 1_555
Ce1 Co9 2.792934 1_555
Ce1 Si1 3.012451 1_655
Ce1 Si1 3.012455 1_665
Ce1 Si1 3.012455 1_555
Ce1 Co10 3.050430 1_555
Ce1 Co3 3.050430 1_555
Ce1 Co7 3.050430 1_555
Ce1 Ce5 3.104204 1_555
Ce2 Co2 2.792925 1_545
Ce2 Co0 2.792925 1_655
Ce2 Co6 2.792929 1_545
Ce2 Co6 2.792929 1_655
Ce2 Co0 2.792934 1_555
Ce2 Co2 2.792934 1_555
Ce2 Si0 3.012451 1_655
Ce2 Si0 3.012455 1_555
Ce2 Si0 3.012455 1_665
Ce2 Co8 3.050430 1_554
Ce2 Co1 3.050430 1_554
Ce2 Co4 3.050430 1_554
Ce2 Ce5 3.104204 1_555
Ce2 Ce3 3.278088 1_544
Ce2 Ce3 3.278088 1_654
Ce2 Ce3 3.278096 1_554
Ce3 Co1 2.792925 1_455
Ce3 Co4 2.792925 1_565
Ce3 Co8 2.792929 1_565
Ce3 Co8 2.792929 1_455
Ce3 Co4 2.792934 1_555
Ce3 Co1 2.792934 1_555
Ce3 Si0 3.012451 1_566
Ce3 Si0 3.012455 1_556
Ce3 Si0 3.012455 1_666
Ce3 Co6 3.050430 1_556
Ce3 Co2 3.050430 1_556
Ce3 Co0 3.050430 1_556
Ce3 Ce4 3.104204 1_555
Ce4 Co13 2.918537 1_565
Ce4 Co15 2.918537 1_455
Ce4 Co15 2.918537 1_565
Ce4 Co13 2.918542 1_555
Ce4 Co13 2.918542 1_665
Ce4 Co15 2.918546 1_555
Ce4 Co1 3.171613 1_455
Ce4 Co3 3.171613 1_455
Ce4 Co4 3.171613 1_565
Ce4 Co7 3.171613 1_565
Ce4 Co8 3.171617 1_455
Ce4 Co10 3.171617 1_455
Ce4 Co10 3.171617 1_565
Ce4 Co8 3.171617 1_565
Ce4 Co4 3.171621 1_555
Ce4 Co7 3.171621 1_555
Ce4 Co3 3.171621 1_555
Ce4 Co1 3.171621 1_555
Ce5 Co12 2.918537 1_655
Ce5 Co14 2.918537 1_545
Ce5 Co14 2.918537 1_655
Ce5 Co12 2.918542 1_665
Ce5 Co12 2.918542 1_555
Ce5 Co14 2.918546 1_555
Ce5 Co2 3.171613 1_545
Ce5 Co9 3.171613 1_545
Ce5 Co0 3.171613 1_655
Ce5 Co5 3.171613 1_655
Ce5 Co11 3.171617 1_545
Ce5 Co11 3.171617 1_655
Ce5 Co6 3.171617 1_545
Ce5 Co6 3.171617 1_655
Ce5 Co5 3.171621 1_555
Ce5 Co0 3.171621 1_555
Ce5 Co9 3.171621 1_555
Ce5 Co2 3.171621 1_555
Co0 Co14 2.405914 1_555
Co0 Co12 2.410813 1_555
Co0 Si0 2.425699 1_555
Co0 Co6 2.520529 1_555
Co0 Co2 2.520529 1_555
Co0 Co6 2.534531 1_545
Co0 Co2 2.534531 1_445
Co1 Co15 2.405914 1_555
Co1 Co13 2.410813 1_665
Co1 Si0 2.425699 1_666
Co1 Co8 2.520529 1_555
Co1 Co4 2.520529 1_555
Co1 Co8 2.534531 1_565
Co1 Co4 2.534531 1_665
Co2 Si0 2.425699 1_665
Co2 Co6 2.520529 1_555
Co2 Co6 2.534531 1_655
Co3 Si1 2.425699 1_665
Co3 Co7 2.520529 1_555
Co3 Co7 2.534531 1_665
Co4 Si0 2.425699 1_556
Co4 Co8 2.520529 1_555
Co4 Co8 2.534531 1_455
Co5 Si1 2.425699 1_555
Co5 Co9 2.520529 1_555
Co5 Co9 2.534531 1_445
Co6 Si0 2.425697 1_565
Co7 Si1 2.425699 1_555
Co8 Si0 2.425697 1_656
Co9 Si1 2.425699 1_665
Co10 Co15 2.405914 1_555
Co10 Co13 2.410810 1_655
Co10 Si1 2.425697 1_655
Co10 Co3 2.520529 1_555
Co10 Co7 2.520529 1_555
Co10 Co7 2.534531 1_655
Co10 Co3 2.534531 1_545
Co11 Co14 2.405914 1_555
Co11 Co12 2.410810 1_565
Co11 Si1 2.425697 1_565
Co11 Co9 2.520529 1_555
Co11 Co5 2.520529 1_555
Co11 Co5 2.534531 1_565
Co11 Co9 2.534531 1_455
Co12 Co6 2.410810 1_545
Co12 Co5 2.410813 1_555
Co12 Co2 2.410813 1_445
Co12 Co9 2.410813 1_445
Co12 Co14 2.918537 1_545
Co12 Co14 2.918542 1_445
Co12 Co14 2.918542 1_555
Co13 Co8 2.410810 1_455
Co13 Co7 2.410813 1_555
Co13 Co4 2.410813 1_555
Co13 Co3 2.410813 1_445
Co13 Co15 2.918537 1_455
Co13 Co15 2.918542 1_555
Co13 Co15 2.918542 1_445
Co14 Co6 2.405914 1_555
Co14 Co9 2.405914 1_555
Co14 Co2 2.405914 1_555
Co14 Co5 2.405914 1_555
Co15 Co8 2.405914 1_555
Co15 Co3 2.405914 1_555
Co15 Co7 2.405914 1_555
Co15 Co4 2.405914 1_555
