# generated using pymatgen
data_BaSrMg6
_symmetry_space_group_name_H-M   'P 1'
_cell_length_a   5.38589900
_cell_length_b   7.27436300
_cell_length_c   12.83155100
_cell_angle_alpha   90.00000000
_cell_angle_beta   90.00000000
_cell_angle_gamma   90.00000000
_symmetry_Int_Tables_number   1
_chemical_formula_structural   BaSrMg6
_chemical_formula_sum   'Ba2 Sr2 Mg12'
_cell_volume   502.72713655
_cell_formula_units_Z   2
loop_
 _symmetry_equiv_pos_site_id
 _symmetry_equiv_pos_as_xyz
  1  'x, y, z'
loop_
 _atom_site_type_symbol
 _atom_site_label
 _atom_site_symmetry_multiplicity
 _atom_site_fract_x
 _atom_site_fract_y
 _atom_site_fract_z
 _atom_site_occupancy
  Ba  Ba0  1  0.50000000  0.50000000  0.16810000  1
  Ba  Ba1  1  0.50000000  0.00000000  0.66810000  1
  Sr  Sr0  1  0.50000000  0.00000000  0.16814100  1
  Sr  Sr1  1  0.50000000  0.50000000  0.66814100  1
  Mg  Mg0  1  0.50000000  0.25231400  0.41982100  1
  Mg  Mg1  1  0.50000000  0.74768600  0.41982100  1
  Mg  Mg2  1  0.00000000  0.75565100  0.05819000  1
  Mg  Mg3  1  0.00000000  0.24434900  0.05819000  1
  Mg  Mg4  1  0.00000000  0.00000000  0.35321300  1
  Mg  Mg5  1  0.00000000  0.50000000  0.35452000  1
  Mg  Mg6  1  0.50000000  0.75231400  0.91982100  1
  Mg  Mg7  1  0.50000000  0.24768600  0.91982100  1
  Mg  Mg8  1  0.00000000  0.25565100  0.55819000  1
  Mg  Mg9  1  0.00000000  0.74434900  0.55819000  1
  Mg  Mg10  1  0.00000000  0.50000000  0.85321300  1
  Mg  Mg11  1  0.00000000  0.00000000  0.85452000  1
loop_
_geom_bond_atom_site_label_1
_geom_bond_atom_site_label_2
_geom_bond_distance
_geom_bond_site_symmetry_2
Ba0 Mg2 3.563628 1_555
Ba0 Mg2 3.563628 1_655
Ba0 Mg3 3.563628 1_555
Ba0 Mg3 3.563628 1_655
Ba0 Mg5 3.601932 1_655
Ba0 Mg5 3.601932 1_555
Ba0 Sr0 3.637182 1_565
Ba0 Sr0 3.637182 1_555
Ba0 Mg6 3.676701 1_554
Ba0 Mg7 3.676701 1_554
Ba0 Mg1 3.698519 1_555
Ba0 Mg0 3.698519 1_555
Ba1 Mg8 3.563628 1_555
Ba1 Mg8 3.563628 1_655
Ba1 Mg9 3.563628 1_545
Ba1 Mg9 3.563628 1_645
Ba1 Mg11 3.601932 1_655
Ba1 Mg11 3.601932 1_555
Ba1 Sr1 3.637182 1_555
Ba1 Sr1 3.637182 1_545
Ba1 Mg0 3.676701 1_555
Ba1 Mg1 3.676701 1_545
Ba1 Mg7 3.698519 1_555
Ba1 Mg6 3.698519 1_545
Mg0 Mg8 3.225667 1_555
Mg0 Mg8 3.225667 1_655
Mg0 Mg5 3.346701 1_655
Mg0 Mg5 3.346701 1_555
Mg0 Mg4 3.369160 1_555
Mg0 Mg4 3.369160 1_655
Mg0 Mg1 3.603516 1_555
Mg0 Sr1 3.660469 1_555
Mg0 Mg1 3.670847 1_545
Mg0 Sr0 3.714578 1_555
Mg1 Mg9 3.225667 1_555
Mg1 Mg9 3.225667 1_655
Mg1 Mg5 3.346701 1_655
Mg1 Mg5 3.346701 1_555
Mg1 Mg4 3.369160 1_565
Mg1 Mg4 3.369160 1_665
Mg1 Sr1 3.660469 1_555
Mg1 Sr0 3.714578 1_565
Mg2 Mg6 3.225667 1_554
Mg2 Mg6 3.225667 1_454
Mg2 Sr0 3.521633 1_565
Mg2 Sr0 3.521633 1_465
Mg2 Mg3 3.554967 1_565
Mg2 Mg3 3.719396 1_555
Mg2 Mg4 4.182133 1_565
Mg2 Mg5 4.232791 1_555
Mg3 Mg7 3.225667 1_454
Mg3 Mg7 3.225667 1_554
Mg3 Sr0 3.521633 1_455
Mg3 Sr0 3.521633 1_555
Mg3 Mg4 4.182133 1_555
Mg3 Mg5 4.232791 1_555
Mg4 Mg8 3.221224 1_555
Mg4 Mg9 3.221224 1_545
Mg4 Sr0 3.590469 1_455
Mg4 Sr0 3.590469 1_555
Mg4 Mg5 3.637220 1_545
Mg4 Mg5 3.637220 1_555
Mg5 Mg9 3.160588 1_555
Mg5 Mg8 3.160588 1_555
Mg6 Mg7 3.603516 1_565
Mg6 Sr0 3.660469 1_566
Mg6 Mg7 3.670847 1_555
Mg6 Sr1 3.714578 1_555
Mg7 Sr0 3.660469 1_556
Mg7 Sr1 3.714578 1_555
Mg8 Sr1 3.521633 1_455
Mg8 Sr1 3.521633 1_555
Mg8 Mg9 3.554967 1_555
Mg8 Mg9 3.719396 1_545
Mg9 Sr1 3.521633 1_455
Mg9 Sr1 3.521633 1_555
Mg10 Mg2 3.221224 1_556
Mg10 Mg3 3.221224 1_556
Mg10 Mg6 3.369160 1_555
Mg10 Mg6 3.369160 1_455
Mg10 Mg7 3.369160 1_455
Mg10 Mg7 3.369160 1_555
Mg10 Sr1 3.590469 1_555
Mg10 Sr1 3.590469 1_455
Mg10 Mg11 3.637220 1_555
Mg10 Mg11 3.637220 1_565
Mg10 Mg9 4.182133 1_555
Mg10 Mg8 4.182133 1_555
Mg11 Mg3 3.160588 1_556
Mg11 Mg2 3.160588 1_546
Mg11 Mg7 3.346701 1_455
Mg11 Mg7 3.346701 1_555
Mg11 Mg6 3.346701 1_545
Mg11 Mg6 3.346701 1_445
Mg11 Mg8 4.232791 1_555
Mg11 Mg9 4.232791 1_545
