# generated using pymatgen
data_MgNi5N4
_symmetry_space_group_name_H-M   'P 1'
_cell_length_a   7.75958700
_cell_length_b   6.00998400
_cell_length_c   4.34853600
_cell_angle_alpha   90.00000000
_cell_angle_beta   90.00000000
_cell_angle_gamma   90.00000000
_symmetry_Int_Tables_number   1
_chemical_formula_structural   MgNi5N4
_chemical_formula_sum   'Mg2 Ni10 N8'
_cell_volume   202.79394904
_cell_formula_units_Z   2
loop_
 _symmetry_equiv_pos_site_id
 _symmetry_equiv_pos_as_xyz
  1  'x, y, z'
loop_
 _atom_site_type_symbol
 _atom_site_label
 _atom_site_symmetry_multiplicity
 _atom_site_fract_x
 _atom_site_fract_y
 _atom_site_fract_z
 _atom_site_occupancy
  Mg  Mg0  1  0.75000000  0.25000000  0.67095300  1
  Mg  Mg1  1  0.25000000  0.75000000  0.32904700  1
  Ni  Ni0  1  0.58175800  0.53081700  0.26486900  1
  Ni  Ni1  1  0.91824200  0.53081700  0.26486900  1
  Ni  Ni2  1  0.58175800  0.96918300  0.26486900  1
  Ni  Ni3  1  0.91824200  0.96918300  0.26486900  1
  Ni  Ni4  1  0.41824200  0.46918300  0.73513100  1
  Ni  Ni5  1  0.08175800  0.46918300  0.73513100  1
  Ni  Ni6  1  0.41824200  0.03081700  0.73513100  1
  Ni  Ni7  1  0.08175800  0.03081700  0.73513100  1
  Ni  Ni8  1  0.75000000  0.75000000  0.68251700  1
  Ni  Ni9  1  0.25000000  0.25000000  0.31748300  1
  N  N0  1  0.75000000  0.99018300  0.97504600  1
  N  N1  1  0.75000000  0.50981700  0.97504600  1
  N  N2  1  0.25000000  0.00981700  0.02495400  1
  N  N3  1  0.25000000  0.49018300  0.02495400  1
  N  N4  1  0.50613800  0.75000000  0.56428800  1
  N  N5  1  0.99386200  0.75000000  0.56428800  1
  N  N6  1  0.49386200  0.25000000  0.43571200  1
  N  N7  1  0.00613800  0.25000000  0.43571200  1
loop_
_geom_bond_atom_site_label_1
_geom_bond_atom_site_label_2
_geom_bond_distance
_geom_bond_site_symmetry_2
Mg0 N1 2.046193 1_555
Mg0 N0 2.046193 1_545
Mg0 N7 2.235328 1_655
Mg0 N6 2.235328 1_555
Mg1 N2 2.046193 1_565
Mg1 N3 2.046193 1_555
Mg1 N4 2.235328 1_555
Mg1 N5 2.235328 1_455
N0 Ni3 1.818956 1_556
N0 Ni2 1.818956 1_556
N0 Ni8 1.924019 1_555
N1 Ni0 1.818956 1_556
N1 Ni1 1.818956 1_556
N1 Ni8 1.924019 1_555
N2 Ni6 1.818956 1_554
N2 Ni7 1.818956 1_554
N2 Ni9 1.924019 1_555
N3 Ni5 1.818956 1_554
N3 Ni4 1.818956 1_554
N3 Ni9 1.924019 1_555
N4 Ni2 1.942897 1_555
N4 Ni0 1.942897 1_555
N4 Ni8 1.960868 1_555
N4 Ni6 1.966075 1_565
N4 Ni4 1.966075 1_555
N5 Ni3 1.942897 1_555
N5 Ni1 1.942897 1_555
N5 Ni8 1.960868 1_555
N5 Ni7 1.966075 1_665
N5 Ni5 1.966075 1_655
N6 Ni4 1.942897 1_555
N6 Ni6 1.942897 1_555
N6 Ni9 1.960868 1_555
N6 Ni0 1.966075 1_555
N6 Ni2 1.966075 1_545
N7 Ni5 1.942897 1_555
N7 Ni7 1.942897 1_555
N7 Ni9 1.960868 1_555
N7 Ni1 1.966075 1_455
N7 Ni3 1.966075 1_445
