# generated using pymatgen
data_KRb2CrF6
_symmetry_space_group_name_H-M   'P 1'
_cell_length_a   8.85048792
_cell_length_b   10.61210768
_cell_length_c   10.61210768
_cell_angle_alpha   79.98600919
_cell_angle_beta   65.35469727
_cell_angle_gamma   65.35469727
_symmetry_Int_Tables_number   1
_chemical_formula_structural   KRb2CrF6
_chemical_formula_sum   'K5 Rb10 Cr5 F30'
_cell_volume   823.39665750
_cell_formula_units_Z   5
loop_
 _symmetry_equiv_pos_site_id
 _symmetry_equiv_pos_as_xyz
  1  'x, y, z'
loop_
 _atom_site_type_symbol
 _atom_site_label
 _atom_site_symmetry_multiplicity
 _atom_site_fract_x
 _atom_site_fract_y
 _atom_site_fract_z
 _atom_site_occupancy
  K  K0  1  0.50000000  0.00000000  0.00000000  1
  K  K1  1  0.26300136  0.82462316  0.64937312  1
  K  K2  1  0.08762552  0.64937312  0.17537684  1
  K  K3  1  0.73699864  0.17537684  0.35062688  1
  K  K4  1  0.91237448  0.35062688  0.82462316  1
  Rb  Rb0  1  0.75000000  0.50000000  0.50000000  1
  Rb  Rb1  1  0.25000000  0.50000000  0.50000000  1
  Rb  Rb2  1  0.61936898  0.89425666  0.31843709  1
  Rb  Rb3  1  0.51362564  0.31843709  0.10574334  1
  Rb  Rb4  1  0.83206173  0.10574334  0.68156291  1
  Rb  Rb5  1  0.93780506  0.68156291  0.89425666  1
  Rb  Rb6  1  0.38063102  0.10574334  0.68156291  1
  Rb  Rb7  1  0.48637436  0.68156291  0.89425666  1
  Rb  Rb8  1  0.16793827  0.89425666  0.31843709  1
  Rb  Rb9  1  0.06219494  0.31843709  0.10574334  1
  Cr  Cr0  1  -0.00000000  0.00000000  0.00000000  1
  Cr  Cr1  1  0.80413509  0.79066768  0.60106414  1
  Cr  Cr2  1  0.59480177  0.60106414  0.20933232  1
  Cr  Cr3  1  0.19586491  0.20933232  0.39893586  1
  Cr  Cr4  1  0.40519823  0.39893586  0.79066768  1
  F  F0  1  0.93705640  0.93677658  0.18911162  1
  F  F1  1  0.87383298  0.18911162  0.06322342  1
  F  F2  1  0.06294360  0.06322342  0.81088838  1
  F  F3  1  0.12616702  0.81088838  0.93677658  1
  F  F4  1  0.78403616  -0.00000000  -0.00000000  1
  F  F5  1  0.21596384  0.00000000  0.00000000  1
  F  F6  1  0.67153172  0.88017283  0.77676373  1
  F  F7  1  0.55170455  0.77676373  0.11982717  1
  F  F8  1  0.32846828  0.11982717  0.22323627  1
  F  F9  1  0.44829545  0.22323627  0.88017283  1
  F  F10  1  0.84698649  0.61346259  0.69256543  1
  F  F11  1  0.46044908  0.69256543  0.38653741  1
  F  F12  1  0.15301351  0.38653741  0.30743457  1
  F  F13  1  0.53955092  0.30743457  0.61346259  1
  F  F14  1  0.93610745  0.70131802  0.42646608  1
  F  F15  1  0.63742647  0.42646608  0.29868198  1
  F  F16  1  0.06389255  0.29868198  0.57353392  1
  F  F17  1  0.36257353  0.57353392  0.70131802  1
  F  F18  1  0.75867669  0.96945652  0.51318810  1
  F  F19  1  0.72813521  0.51318810  0.03054348  1
  F  F20  1  0.24132331  0.03054348  0.48681190  1
  F  F21  1  0.27186479  0.48681190  0.96945652  1
  F  F22  1  0.58361145  0.79478242  0.60342190  1
  F  F23  1  0.37839387  0.60342190  0.20521758  1
  F  F24  1  0.98181577  0.20521758  0.39657810  1
  F  F25  1  0.18703335  0.39657810  0.79478242  1
  F  F26  1  0.41638855  0.20521758  0.39657810  1
  F  F27  1  0.62160613  0.39657810  0.79478242  1
  F  F28  1  0.01818423  0.79478242  0.60342190  1
  F  F29  1  0.81296665  0.60342190  0.20521758  1
loop_
_geom_bond_atom_site_label_1
_geom_bond_atom_site_label_2
_geom_bond_distance
_geom_bond_site_symmetry_2
Cr0 F5 1.911385 1_555
Cr0 F4 1.911385 1_455
Cr0 F0 1.923297 1_445
Cr0 F2 1.923297 1_554
Cr0 F1 1.923297 1_455
Cr0 F3 1.923297 1_544
Cr1 F14 1.891777 1_555
Cr1 F6 1.901921 1_555
Cr1 F18 1.921536 1_555
Cr1 F28 1.923626 1_655
Cr1 F10 1.923629 1_555
Cr1 F22 1.923643 1_555
Cr2 F15 1.891777 1_555
Cr2 F7 1.901921 1_555
Cr2 F19 1.921536 1_555
Cr2 F11 1.923629 1_555
Cr2 F29 1.923634 1_555
Cr2 F23 1.923635 1_555
Cr3 F16 1.891777 1_555
Cr3 F8 1.901921 1_555
Cr3 F20 1.921536 1_555
Cr3 F24 1.923626 1_455
Cr3 F12 1.923629 1_555
Cr3 F26 1.923643 1_555
Cr4 F17 1.891777 1_555
Cr4 F9 1.901921 1_555
Cr4 F21 1.921536 1_555
Cr4 F13 1.923629 1_555
Cr4 F25 1.923634 1_555
Cr4 F27 1.923635 1_555
F0 Rb2 2.759930 1_555
F0 Rb8 2.759930 1_655
F0 K2 2.775289 1_655
F0 K3 2.779106 1_565
F1 Rb3 2.759930 1_555
F1 Rb9 2.759930 1_655
F1 K3 2.775289 1_555
F1 K4 2.779106 1_554
F2 Rb6 2.759930 1_555
F2 Rb4 2.759930 1_455
F2 K4 2.775289 1_455
F2 K1 2.779106 1_545
F3 Rb7 2.759930 1_555
F3 Rb5 2.759930 1_455
F3 K1 2.775289 1_555
F3 K2 2.779106 1_556
F4 K0 2.513859 1_555
F4 Rb3 3.277278 1_555
F4 Rb2 3.277278 1_545
F4 Rb4 3.277280 1_554
F4 Rb5 3.277280 1_544
F5 K0 2.513859 1_555
F5 Rb7 3.277278 1_544
F5 Rb6 3.277278 1_554
F5 Rb8 3.277280 1_545
F5 Rb9 3.277280 1_555
F6 K0 2.443795 1_566
F6 Rb5 2.990796 1_555
F6 Rb7 2.990802 1_555
F6 Rb4 3.093170 1_565
F6 Rb6 3.093176 1_565
F7 K0 2.443795 1_565
F7 Rb8 2.990796 1_555
F7 Rb2 2.990802 1_555
F7 Rb5 3.093170 1_554
F7 Rb7 3.093176 1_554
F8 K0 2.443795 1_555
F8 Rb9 2.990796 1_555
F8 Rb3 2.990802 1_555
F8 Rb8 3.093170 1_545
F8 Rb2 3.093176 1_545
F9 K0 2.443795 1_556
F9 Rb4 2.990796 1_555
F9 Rb6 2.990802 1_555
F9 Rb9 3.093170 1_556
F9 Rb3 3.093176 1_556
F10 K4 2.837160 1_555
F10 Rb5 2.864744 1_555
F10 Rb7 2.864756 1_555
F10 Rb1 3.089209 1_655
F10 Rb0 3.089215 1_555
F11 K1 2.837160 1_555
F11 Rb8 2.864750 1_555
F11 Rb2 2.864750 1_555
F11 Rb0 3.089209 1_555
F11 Rb1 3.089215 1_555
F12 K2 2.837160 1_555
F12 Rb9 2.864744 1_555
F12 Rb3 2.864756 1_555
F12 Rb0 3.089209 1_455
F12 Rb1 3.089215 1_555
F13 K3 2.837160 1_555
F13 Rb4 2.864750 1_555
F13 Rb6 2.864750 1_555
F13 Rb1 3.089209 1_555
F13 Rb0 3.089215 1_555
F14 K2 2.473143 1_655
F14 Rb0 3.028086 1_555
F14 Rb1 3.028092 1_655
F14 Rb2 3.231397 1_555
F14 Rb8 3.231410 1_655
F15 K3 2.473143 1_555
F15 Rb0 3.028086 1_555
F15 Rb1 3.028092 1_555
F15 Rb9 3.231403 1_655
F15 Rb3 3.231403 1_555
F16 K4 2.473143 1_455
F16 Rb1 3.028086 1_555
F16 Rb0 3.028092 1_455
F16 Rb6 3.231397 1_555
F16 Rb4 3.231410 1_455
F17 K1 2.473143 1_555
F17 Rb1 3.028086 1_555
F17 Rb0 3.028092 1_555
F17 Rb5 3.231403 1_455
F17 Rb7 3.231403 1_555
F18 K3 2.530508 1_565
F18 F6 2.684194 1_555
F18 F22 2.700797 1_555
F18 F28 2.700810 1_655
F18 Rb6 2.890726 1_565
F18 Rb4 2.890732 1_565
F18 Rb2 3.153989 1_555
F18 Rb8 3.154010 1_655
F19 K4 2.530508 1_554
F19 F7 2.684194 1_555
F19 F29 2.700797 1_555
F19 F23 2.700810 1_555
F19 Rb5 2.890720 1_554
F19 Rb7 2.890738 1_554
F19 Rb9 3.153996 1_655
F19 Rb3 3.154003 1_555
F20 K1 2.530508 1_545
F20 F8 2.684194 1_555
F20 F26 2.700797 1_555
F20 F24 2.700810 1_455
F20 Rb2 2.890726 1_545
F20 Rb8 2.890732 1_545
F20 Rb6 3.153989 1_555
F20 Rb4 3.154010 1_455
F21 K2 2.530508 1_556
F21 F9 2.684194 1_555
F21 F25 2.700797 1_555
F21 F27 2.700810 1_555
F21 Rb9 2.890720 1_556
F21 Rb3 2.890738 1_556
F21 Rb5 3.153996 1_455
F21 Rb7 3.154003 1_555
F22 K1 2.557358 1_555
F22 F6 2.678072 1_555
F22 Rb2 2.954817 1_555
F22 Rb7 3.011214 1_555
F22 Rb0 3.027091 1_555
F22 Rb6 3.093496 1_565
F23 K2 2.557349 1_555
F23 F7 2.678072 1_555
F23 Rb3 2.954817 1_555
F23 Rb8 3.011214 1_555
F23 Rb1 3.027091 1_555
F23 Rb7 3.093496 1_554
F24 K3 2.557349 1_555
F24 F8 2.678071 1_655
F24 Rb4 2.954819 1_555
F24 Rb9 3.011214 1_655
F24 Rb0 3.027091 1_555
F24 Rb8 3.093496 1_645
F25 K4 2.557358 1_455
F25 F9 2.678072 1_555
F25 Rb5 2.954819 1_455
F25 Rb6 3.011214 1_555
F25 Rb1 3.027091 1_555
F25 Rb9 3.093496 1_556
F26 K3 2.557358 1_555
F26 F8 2.678072 1_555
F26 Rb6 2.954817 1_555
F26 Rb3 3.011214 1_555
F26 Rb1 3.027091 1_555
F26 Rb2 3.093496 1_545
F27 K4 2.557349 1_555
F27 F9 2.678072 1_555
F27 Rb7 2.954817 1_555
F27 Rb4 3.011214 1_555
F27 Rb0 3.027091 1_555
F27 Rb3 3.093496 1_556
F28 K1 2.557349 1_555
F28 F6 2.678071 1_455
F28 Rb8 2.954819 1_555
F28 Rb5 3.011214 1_455
F28 Rb1 3.027091 1_555
F28 Rb4 3.093496 1_465
F29 K2 2.557358 1_655
F29 F7 2.678072 1_555
F29 Rb9 2.954819 1_655
F29 Rb2 3.011214 1_555
F29 Rb0 3.027091 1_555
F29 Rb5 3.093496 1_554
