# generated using pymatgen
data_TiZnMo(PO4)3
_symmetry_space_group_name_H-M   'P 1'
_cell_length_a   8.68758449
_cell_length_b   8.68758501
_cell_length_c   8.68758538
_cell_angle_alpha   60.45085104
_cell_angle_beta   60.45085444
_cell_angle_gamma   60.45086517
_symmetry_Int_Tables_number   1
_chemical_formula_structural   TiZnMo(PO4)3
_chemical_formula_sum   'Ti2 Zn2 Mo2 P6 O24'
_cell_volume   468.36709019
_cell_formula_units_Z   2
loop_
 _symmetry_equiv_pos_site_id
 _symmetry_equiv_pos_as_xyz
  1  'x, y, z'
loop_
 _atom_site_type_symbol
 _atom_site_label
 _atom_site_symmetry_multiplicity
 _atom_site_fract_x
 _atom_site_fract_y
 _atom_site_fract_z
 _atom_site_occupancy
  Ti  Ti0  1  0.14622200  0.14622200  0.14622200  1
  Ti  Ti1  1  0.64622200  0.64622200  0.64622200  1
  Zn  Zn0  1  0.00113500  0.00113500  0.00113500  1
  Zn  Zn1  1  0.50113500  0.50113500  0.50113500  1
  Mo  Mo0  1  0.35773700  0.35773700  0.35773700  1
  Mo  Mo1  1  0.85773700  0.85773700  0.85773700  1
  P  P0  1  0.04301700  0.44988200  0.75686200  1
  P  P1  1  0.44988200  0.75686200  0.04301700  1
  P  P2  1  0.75686200  0.04301700  0.44988200  1
  P  P3  1  0.25686200  0.94988200  0.54301700  1
  P  P4  1  0.54301700  0.25686200  0.94988200  1
  P  P5  1  0.94988200  0.54301700  0.25686200  1
  O  O0  1  0.09658600  0.50423800  0.32666500  1
  O  O1  1  0.32666500  0.09658600  0.50423800  1
  O  O2  1  0.05279600  0.25470900  0.91656400  1
  O  O3  1  0.50423800  0.32666500  0.09658600  1
  O  O4  1  0.00423800  0.59658600  0.82666500  1
  O  O5  1  0.23746000  0.43417200  0.60052900  1
  O  O6  1  0.25470900  0.91656400  0.05279600  1
  O  O7  1  0.43417200  0.60052900  0.23746000  1
  O  O8  1  0.19070400  0.00190900  0.37881400  1
  O  O9  1  0.60052900  0.23746000  0.43417200  1
  O  O10  1  0.10052900  0.93417200  0.73746000  1
  O  O11  1  0.37881400  0.19070400  0.00190900  1
  O  O12  1  0.59658600  0.82666500  0.00423800  1
  O  O13  1  0.91656400  0.05279600  0.25470900  1
  O  O14  1  0.41656400  0.75470900  0.55279600  1
  O  O15  1  0.82666500  0.00423800  0.59658600  1
  O  O16  1  0.55279600  0.41656400  0.75470900  1
  O  O17  1  0.73746000  0.10052900  0.93417200  1
  O  O18  1  0.75470900  0.55279600  0.41656400  1
  O  O19  1  0.00190900  0.37881400  0.19070400  1
  O  O20  1  0.50190900  0.69070400  0.87881400  1
  O  O21  1  0.93417200  0.73746000  0.10052900  1
  O  O22  1  0.69070400  0.87881400  0.50190900  1
  O  O23  1  0.87881400  0.50190900  0.69070400  1
loop_
_geom_bond_atom_site_label_1
_geom_bond_atom_site_label_2
_geom_bond_distance
_geom_bond_site_symmetry_2
Mo0 O1 2.063285 1_555
Mo0 O0 2.063285 1_555
Mo0 O3 2.063285 1_555
Mo0 O7 2.122509 1_555
Mo0 O9 2.122510 1_555
Mo0 O5 2.122510 1_555
Mo1 O12 2.063285 1_556
Mo1 O15 2.063285 1_565
Mo1 O4 2.063285 1_655
Mo1 O10 2.122509 1_655
Mo1 O21 2.122510 1_556
Mo1 O17 2.122510 1_565
O0 P5 1.497635 1_455
O1 P3 1.497635 1_545
O2 P0 1.568752 1_555
O2 Ti0 2.125033 1_556
O2 Zn0 2.155859 1_556
O3 P4 1.497635 1_554
O4 P0 1.497635 1_555
O5 P0 1.552181 1_555
O5 Zn1 2.280197 1_555
O6 P1 1.568753 1_555
O6 Ti0 2.125033 1_565
O6 Zn0 2.155859 1_565
O7 P1 1.552181 1_555
O7 Zn1 2.280197 1_555
O8 P3 1.576743 1_545
O8 Ti0 1.896792 1_555
O9 P2 1.552181 1_555
O9 Zn1 2.280197 1_555
O10 P3 1.552181 1_555
O10 Zn0 2.280197 1_566
O11 P4 1.576742 1_554
O11 Ti0 1.896792 1_555
O12 P1 1.497634 1_555
O13 P2 1.568752 1_555
O13 Ti0 2.125033 1_655
O13 Zn0 2.155859 1_655
O14 P3 1.568753 1_555
O14 Ti1 2.125033 1_555
O14 Zn1 2.155859 1_555
O15 P2 1.497635 1_555
O16 P4 1.568752 1_555
O16 Ti1 2.125033 1_555
O16 Zn1 2.155859 1_555
O17 P4 1.552181 1_555
O17 Zn0 2.280197 1_656
O18 P5 1.568752 1_555
O18 Ti1 2.125033 1_555
O18 Zn1 2.155859 1_555
O19 P5 1.576743 1_455
O19 Ti0 1.896792 1_555
O20 P1 1.576743 1_556
O20 Ti1 1.896792 1_555
O21 P5 1.552181 1_555
O21 Zn0 2.280197 1_665
O22 P2 1.576742 1_565
O22 Ti1 1.896792 1_555
O23 P0 1.576743 1_655
O23 Ti1 1.896792 1_555
