# generated using pymatgen
data_IrI3
_symmetry_space_group_name_H-M   'P 1'
_cell_length_a   6.88600429
_cell_length_b   6.89416374
_cell_length_c   7.11106849
_cell_angle_alpha   81.57081109
_cell_angle_beta   72.92721026
_cell_angle_gamma   60.04214534
_symmetry_Int_Tables_number   1
_chemical_formula_structural   IrI3
_chemical_formula_sum   'Ir2 I6'
_cell_volume   279.59275109
_cell_formula_units_Z   2
loop_
 _symmetry_equiv_pos_site_id
 _symmetry_equiv_pos_as_xyz
  1  'x, y, z'
loop_
 _atom_site_type_symbol
 _atom_site_label
 _atom_site_symmetry_multiplicity
 _atom_site_fract_x
 _atom_site_fract_y
 _atom_site_fract_z
 _atom_site_occupancy
  Ir  Ir0  1  0.16658990  0.66684612  -0.00001497  1
  Ir  Ir1  1  0.83340896  0.33315366  0.00001503  1
  I  I0  1  0.56601261  0.35630181  0.78013334  1
  I  I1  1  0.43399722  0.64370596  0.21986300  1
  I  I2  1  0.07772916  0.35623106  0.21983306  1
  I  I3  1  0.92225606  0.64376738  0.78016972  1
  I  I4  1  0.21061017  0.00008429  0.77837985  1
  I  I5  1  0.78939593  -0.00009029  0.22162097  1
loop_
_geom_bond_atom_site_label_1
_geom_bond_atom_site_label_2
_geom_bond_distance
_geom_bond_site_symmetry_2
I0 Ir0 2.677331 1_556
I0 Ir1 2.680394 1_556
I1 Ir1 2.677307 1_555
I1 Ir0 2.680457 1_555
I2 Ir0 2.677629 1_555
I2 Ir1 2.680215 1_455
I3 Ir1 2.677570 1_556
I3 Ir0 2.680282 1_656
I4 Ir1 2.683998 1_456
I4 Ir0 2.684560 1_546
I5 Ir0 2.683963 1_645
I5 Ir1 2.684577 1_555
