# generated using pymatgen
data_KLi2(HO)3
_symmetry_space_group_name_H-M   'P 1'
_cell_length_a   5.16459100
_cell_length_b   5.78186015
_cell_length_c   6.32237306
_cell_angle_alpha   103.14156261
_cell_angle_beta   90.00000000
_cell_angle_gamma   90.00000000
_symmetry_Int_Tables_number   1
_chemical_formula_structural   KLi2(HO)3
_chemical_formula_sum   'K2 Li4 H6 O6'
_cell_volume   183.84780250
_cell_formula_units_Z   2
loop_
 _symmetry_equiv_pos_site_id
 _symmetry_equiv_pos_as_xyz
  1  'x, y, z'
loop_
 _atom_site_type_symbol
 _atom_site_label
 _atom_site_symmetry_multiplicity
 _atom_site_fract_x
 _atom_site_fract_y
 _atom_site_fract_z
 _atom_site_occupancy
  K  K0  1  0.75000000  0.84368200  0.74442000  1
  K  K1  1  0.25000000  0.15631800  0.25558000  1
  Li  Li0  1  0.49522000  0.34650700  0.82266700  1
  Li  Li1  1  0.99522000  0.65349300  0.17733300  1
  Li  Li2  1  0.50478000  0.65349300  0.17733300  1
  Li  Li3  1  0.00478000  0.34650700  0.82266700  1
  H  H0  1  0.75000000  0.22986700  0.11355800  1
  H  H1  1  0.25000000  0.77013300  0.88644200  1
  H  H2  1  0.75000000  0.01897900  0.33762000  1
  H  H3  1  0.25000000  0.98102100  0.66238000  1
  H  H4  1  0.75000000  0.37927500  0.46561700  1
  H  H5  1  0.25000000  0.62072500  0.53438300  1
  O  O0  1  0.75000000  0.38481000  0.07388100  1
  O  O1  1  0.25000000  0.61519000  0.92611900  1
  O  O2  1  0.75000000  0.91671100  0.19124000  1
  O  O3  1  0.25000000  0.08328900  0.80876000  1
  O  O4  1  0.75000000  0.31890300  0.59644200  1
  O  O5  1  0.25000000  0.68109700  0.40355800  1
loop_
_geom_bond_atom_site_label_1
_geom_bond_atom_site_label_2
_geom_bond_distance
_geom_bond_site_symmetry_2
K0 O2 2.759766 1_556
K0 O3 2.914915 1_565
K0 O3 2.914915 1_665
K0 O4 2.964937 1_555
K0 O4 3.097393 1_565
K0 Li0 3.126395 1_565
K0 Li3 3.126395 1_665
K0 Li3 3.299409 1_655
K0 Li0 3.299409 1_555
K1 O3 2.759766 1_554
K1 O2 2.914915 1_445
K1 O2 2.914915 1_545
K1 O5 2.964937 1_555
K1 O5 3.097393 1_545
K1 Li1 3.126395 1_445
K1 Li2 3.126395 1_545
K1 Li1 3.299409 1_455
K1 Li2 3.299409 1_555
Li0 O4 1.923224 1_555
Li0 O3 1.966458 1_555
Li0 O1 1.995750 1_555
Li0 O0 2.035466 1_556
Li1 O5 1.923224 1_655
Li1 O2 1.966458 1_555
Li1 O0 1.995750 1_555
Li1 O1 2.035466 1_654
Li2 O5 1.923224 1_555
Li2 O2 1.966458 1_555
Li2 O0 1.995750 1_555
Li2 O1 2.035466 1_554
Li3 O4 1.923224 1_455
Li3 O3 1.966458 1_555
Li3 O1 1.995750 1_555
Li3 O0 2.035466 1_456
H0 O0 0.983706 1_555
H0 K1 2.798029 1_655
H0 K1 2.798029 1_555
H0 K0 2.839519 1_544
H1 O1 0.983706 1_555
H1 K0 2.798029 1_555
H1 K0 2.798029 1_455
H1 K1 2.839519 1_566
H2 O2 0.978414 1_545
H2 K1 2.784803 1_655
H2 K1 2.784803 1_555
H2 K0 2.971109 1_545
H3 O3 0.978414 1_565
H3 K0 2.784803 1_455
H3 K0 2.784803 1_555
H3 K1 2.971109 1_565
H4 O4 0.968124 1_555
H4 K0 2.857420 1_555
H4 K1 3.052056 1_655
H4 K1 3.052056 1_555
H5 O5 0.968124 1_555
H5 K1 2.857420 1_555
H5 K0 3.052056 1_455
H5 K0 3.052056 1_555
