# generated using pymatgen
data_Pu(N4O9)2
_symmetry_space_group_name_H-M   'P 1'
_cell_length_a   6.70307300
_cell_length_b   8.03331400
_cell_length_c   14.96202932
_cell_angle_alpha   58.89259287
_cell_angle_beta   90.00000000
_cell_angle_gamma   90.00000000
_symmetry_Int_Tables_number   1
_chemical_formula_structural   Pu(N4O9)2
_chemical_formula_sum   'Pu2 N16 O36'
_cell_volume   689.81807399
_cell_formula_units_Z   2
loop_
 _symmetry_equiv_pos_site_id
 _symmetry_equiv_pos_as_xyz
  1  'x, y, z'
loop_
 _atom_site_type_symbol
 _atom_site_label
 _atom_site_symmetry_multiplicity
 _atom_site_fract_x
 _atom_site_fract_y
 _atom_site_fract_z
 _atom_site_occupancy
  Pu  Pu0  1  0.50000000  0.00000000  0.50000000  1
  Pu  Pu1  1  0.00000000  0.00000000  0.00000000  1
  N  N0  1  0.73491000  0.36776300  0.16073100  1
  N  N1  1  0.76509000  0.36776300  0.66073100  1
  N  N2  1  0.26509000  0.63223700  0.83926900  1
  N  N3  1  0.23491000  0.63223700  0.33926900  1
  N  N4  1  0.23941500  0.22245500  0.31940100  1
  N  N5  1  0.26058500  0.22245500  0.81940100  1
  N  N6  1  0.76058500  0.77754500  0.68059900  1
  N  N7  1  0.73941500  0.77754500  0.18059900  1
  N  N8  1  0.74896900  0.33638800  0.44696200  1
  N  N9  1  0.75103100  0.33638800  0.94696200  1
  N  N10  1  0.25103100  0.66361200  0.55303800  1
  N  N11  1  0.24896900  0.66361200  0.05303800  1
  N  N12  1  0.77504900  0.89528700  0.38595300  1
  N  N13  1  0.72495100  0.89528700  0.88595300  1
  N  N14  1  0.22495100  0.10471300  0.61404700  1
  N  N15  1  0.27504900  0.10471300  0.11404700  1
  O  O0  1  0.22072200  0.03846400  0.38396100  1
  O  O1  1  0.27927800  0.03846400  0.88396100  1
  O  O2  1  0.77927800  0.96153600  0.61603900  1
  O  O3  1  0.72072200  0.96153600  0.11603900  1
  O  O4  1  0.11907300  0.31848700  0.25063700  1
  O  O5  1  0.38092700  0.31848700  0.75063700  1
  O  O6  1  0.88092700  0.68151300  0.74936300  1
  O  O7  1  0.61907300  0.68151300  0.24936300  1
  O  O8  1  0.39734900  0.29591200  0.33513500  1
  O  O9  1  0.10265100  0.29591200  0.83513500  1
  O  O10  1  0.60265100  0.70408800  0.66486500  1
  O  O11  1  0.89734900  0.70408800  0.16486500  1
  O  O12  1  0.86275400  0.46452700  0.43573000  1
  O  O13  1  0.63724600  0.46452700  0.93573000  1
  O  O14  1  0.13724600  0.53547300  0.56427000  1
  O  O15  1  0.36275400  0.53547300  0.06427000  1
  O  O16  1  0.58491000  0.29852700  0.49915900  1
  O  O17  1  0.91509000  0.29852700  0.99915900  1
  O  O18  1  0.41509000  0.70147300  0.50084100  1
  O  O19  1  0.08491000  0.70147300  0.00084100  1
  O  O20  1  0.78167100  0.22695600  0.40933200  1
  O  O21  1  0.71832900  0.22695600  0.90933200  1
  O  O22  1  0.21832900  0.77304400  0.59066800  1
  O  O23  1  0.28167100  0.77304400  0.09066800  1
  O  O24  1  0.79331100  0.83033300  0.48423100  1
  O  O25  1  0.70668900  0.83033300  0.98423100  1
  O  O26  1  0.20668900  0.16966700  0.51576900  1
  O  O27  1  0.29331100  0.16966700  0.01576900  1
  O  O28  1  0.89259300  0.86009100  0.33612700  1
  O  O29  1  0.60740700  0.86009100  0.83612700  1
  O  O30  1  0.10740700  0.13990900  0.66387300  1
  O  O31  1  0.39259300  0.13990900  0.16387300  1
  O  O32  1  0.61919800  0.00404700  0.34468300  1
  O  O33  1  0.88080200  0.00404700  0.84468300  1
  O  O34  1  0.38080200  0.99595300  0.65531700  1
  O  O35  1  0.11919800  0.99595300  0.15531700  1
loop_
_geom_bond_atom_site_label_1
_geom_bond_atom_site_label_2
_geom_bond_distance
_geom_bond_site_symmetry_2
N0 O4 2.836720 1_655
N0 O15 2.848141 1_555
N0 O32 2.899039 1_555
N0 O31 2.920415 1_555
N0 O11 2.943098 1_555
N0 O17 3.000234 1_554
N0 O13 3.108369 1_554
N0 O25 3.267759 1_554
N0 O8 3.271974 1_555
N0 O20 3.296292 1_555
N0 O19 3.433227 1_655
N1 O5 2.836720 1_555
N1 O14 2.848141 1_655
N1 O33 2.899039 1_555
N1 O30 2.920415 1_655
N1 O10 2.943098 1_555
N1 O16 3.000234 1_555
N1 O12 3.108369 1_555
N1 O24 3.267759 1_555
N1 O9 3.271974 1_655
N1 O21 3.296292 1_555
N1 O18 3.433227 1_555
N2 O6 2.836720 1_455
N2 O13 2.848141 1_555
N2 O34 2.899039 1_555
N2 O29 2.920415 1_555
N2 O9 2.943098 1_555
N2 O19 3.000234 1_556
N2 O15 3.108369 1_556
N2 O27 3.267759 1_556
N2 O10 3.271974 1_555
N2 O22 3.296292 1_555
N2 O17 3.433227 1_455
N3 O7 2.836720 1_555
N3 O12 2.848141 1_455
N3 O35 2.899039 1_555
N3 O28 2.920415 1_455
N3 O8 2.943098 1_555
N3 O18 3.000234 1_555
N3 O14 3.108369 1_555
N3 O26 3.267759 1_555
N3 O11 3.271974 1_455
N3 O23 3.296292 1_555
N3 O16 3.433227 1_555
N4 O4 1.218295 1_555
N4 O0 1.287694 1_555
N4 O8 1.291475 1_555
N5 O5 1.218295 1_555
N5 O1 1.287694 1_555
N5 O9 1.291475 1_555
N6 O6 1.218295 1_555
N6 O2 1.287694 1_555
N6 O10 1.291475 1_555
N7 O7 1.218295 1_555
N7 O3 1.287694 1_555
N7 O11 1.291475 1_555
N8 O12 1.221001 1_555
N8 O20 1.284248 1_555
N8 O16 1.290862 1_555
N9 O13 1.221001 1_555
N9 O21 1.284248 1_555
N9 O17 1.290862 1_555
N10 O14 1.221001 1_555
N10 O22 1.284248 1_555
N10 O18 1.290862 1_555
N11 O15 1.221001 1_555
N11 O23 1.284248 1_555
N11 O19 1.290862 1_555
N12 O28 1.214209 1_555
N12 O24 1.287103 1_555
N12 O32 1.295587 1_565
N13 O29 1.214209 1_555
N13 O25 1.287103 1_555
N13 O33 1.295587 1_565
N14 O30 1.214209 1_555
N14 O26 1.287103 1_555
N14 O34 1.295587 1_545
N15 O31 1.214209 1_555
N15 O27 1.287103 1_555
N15 O35 1.295587 1_545
O0 Pu0 2.461693 1_555
O1 Pu1 2.461693 1_556
O2 Pu0 2.461693 1_565
O3 Pu1 2.461693 1_665
O8 Pu0 2.479927 1_555
O9 Pu1 2.479927 1_556
O10 Pu0 2.479927 1_565
O11 Pu1 2.479927 1_665
O16 Pu0 2.458474 1_555
O17 Pu1 2.458474 1_656
O18 Pu0 2.458474 1_565
O19 Pu1 2.458474 1_565
O20 Pu0 2.484655 1_555
O21 Pu1 2.484655 1_656
O22 Pu0 2.484655 1_565
O23 Pu1 2.484655 1_565
O24 Pu0 2.472079 1_565
O25 Pu1 2.472079 1_666
O26 Pu0 2.472079 1_555
O27 Pu1 2.472079 1_555
O32 Pu0 2.441658 1_555
O33 Pu1 2.441658 1_656
O34 Pu0 2.441658 1_565
O35 Pu1 2.441658 1_565
