# generated using pymatgen
data_NdTaTiO6
_symmetry_space_group_name_H-M   'P 1'
_cell_length_a   5.38735000
_cell_length_b   7.55131500
_cell_length_c   11.11147900
_cell_angle_alpha   90.00000000
_cell_angle_beta   90.00000000
_cell_angle_gamma   90.00000000
_symmetry_Int_Tables_number   1
_chemical_formula_structural   NdTaTiO6
_chemical_formula_sum   'Nd4 Ta4 Ti4 O24'
_cell_volume   452.03248703
_cell_formula_units_Z   4
loop_
 _symmetry_equiv_pos_site_id
 _symmetry_equiv_pos_as_xyz
  1  'x, y, z'
loop_
 _atom_site_type_symbol
 _atom_site_label
 _atom_site_symmetry_multiplicity
 _atom_site_fract_x
 _atom_site_fract_y
 _atom_site_fract_z
 _atom_site_occupancy
  Nd  Nd0  1  0.45577200  0.74861600  0.95567600  1
  Nd  Nd1  1  0.04422800  0.74861600  0.45567600  1
  Nd  Nd2  1  0.54422800  0.24861600  0.04432400  1
  Nd  Nd3  1  0.95577200  0.24861600  0.54432400  1
  Ta  Ta0  1  0.46178900  0.50626500  0.64338300  1
  Ta  Ta1  1  0.53821100  0.00626500  0.35661700  1
  Ta  Ta2  1  0.96178900  0.00626500  0.85661700  1
  Ta  Ta3  1  0.03821100  0.50626500  0.14338300  1
  Ti  Ti0  1  0.03551800  0.99274500  0.14291100  1
  Ti  Ti1  1  0.96448200  0.49274500  0.85708900  1
  Ti  Ti2  1  0.53551800  0.49274500  0.35708900  1
  Ti  Ti3  1  0.46448200  0.99274500  0.64291100  1
  O  O0  1  0.15946900  0.75222500  0.12183500  1
  O  O1  1  0.34053100  0.75222500  0.62183500  1
  O  O2  1  0.84053100  0.25222500  0.87816500  1
  O  O3  1  0.65946900  0.25222500  0.37816500  1
  O  O4  1  0.62979600  0.55988900  0.78973600  1
  O  O5  1  0.87488000  0.94078300  0.28754700  1
  O  O6  1  0.37020400  0.05988900  0.21026400  1
  O  O7  1  0.12512000  0.44078300  0.71245300  1
  O  O8  1  0.37488000  0.44078300  0.21245300  1
  O  O9  1  0.12979600  0.05988900  0.71026400  1
  O  O10  1  0.62512000  0.94078300  0.78754700  1
  O  O11  1  0.87020400  0.55988900  0.28973600  1
  O  O12  1  0.04750700  0.74890700  0.85675100  1
  O  O13  1  0.45249300  0.74890700  0.35675100  1
  O  O14  1  0.95249300  0.24890700  0.14324900  1
  O  O15  1  0.54750700  0.24890700  0.64324900  1
  O  O16  1  0.23499700  0.03825800  0.97310200  1
  O  O17  1  0.26929900  0.46231100  0.47461700  1
  O  O18  1  0.76500300  0.53825800  0.02689800  1
  O  O19  1  0.73070100  0.96231100  0.52538300  1
  O  O20  1  0.76929900  0.96231100  0.02538300  1
  O  O21  1  0.73499700  0.53825800  0.52689800  1
  O  O22  1  0.23070100  0.46231100  0.97461700  1
  O  O23  1  0.26500300  0.03825800  0.47310200  1
loop_
_geom_bond_atom_site_label_1
_geom_bond_atom_site_label_2
_geom_bond_distance
_geom_bond_site_symmetry_2
Nd0 O18 2.434110 1_556
Nd0 O0 2.440819 1_556
Nd0 O12 2.458842 1_555
Nd0 O20 2.461071 1_556
Nd0 O22 2.487708 1_555
Nd0 O16 2.497177 1_565
Nd0 O4 2.511915 1_555
Nd0 O10 2.535373 1_555
Nd1 O21 2.434110 1_455
Nd1 O1 2.440819 1_555
Nd1 O13 2.458842 1_555
Nd1 O19 2.461071 1_455
Nd1 O17 2.487708 1_555
Nd1 O23 2.497177 1_565
Nd1 O11 2.511915 1_455
Nd1 O5 2.535373 1_455
Nd2 O16 2.434110 1_554
Nd2 O2 2.440819 1_554
Nd2 O14 2.458842 1_555
Nd2 O22 2.461071 1_554
Nd2 O20 2.487708 1_545
Nd2 O18 2.497177 1_555
Nd2 O6 2.511915 1_555
Nd2 O8 2.535373 1_555
Nd3 O23 2.434110 1_655
Nd3 O3 2.440819 1_555
Nd3 O15 2.458842 1_555
Nd3 O17 2.461071 1_655
Nd3 O19 2.487708 1_545
Nd3 O21 2.497177 1_555
Nd3 O9 2.511915 1_655
Nd3 O7 2.535373 1_655
O0 Ti0 1.949229 1_555
O0 Ta3 1.983360 1_555
O1 Ti3 1.949229 1_555
O1 Ta0 1.983360 1_555
O2 Ti1 1.949229 1_555
O2 Ta2 1.983360 1_555
O3 Ti2 1.949229 1_555
O3 Ta1 1.983360 1_555
O4 Ta0 1.904657 1_555
O4 Ti1 2.016985 1_555
O5 Ti0 1.867013 1_655
O5 Ta1 2.030571 1_565
O6 Ta1 1.904657 1_555
O6 Ti0 2.016985 1_545
O7 Ti1 1.867013 1_455
O7 Ta0 2.030571 1_555
O8 Ti2 1.867013 1_555
O8 Ta3 2.030571 1_555
O9 Ta2 1.904657 1_455
O9 Ti3 2.016985 1_545
O10 Ti3 1.867013 1_555
O10 Ta2 2.030571 1_565
O11 Ta3 1.904657 1_655
O11 Ti2 2.016985 1_555
O11 O21 2.738913 1_555
O11 O13 2.766923 1_555
O12 Ti1 1.985403 1_455
O12 Ta2 1.997505 1_465
O12 O4 2.766923 1_455
O13 Ti2 1.985403 1_555
O13 Ta1 1.997505 1_565
O14 Ti0 1.985403 1_645
O14 Ta3 1.997505 1_655
O14 O6 2.766923 1_655
O15 Ti3 1.985403 1_545
O15 Ta0 1.997505 1_555
O15 O9 2.766923 1_555
O16 Ta2 1.974848 1_455
O16 Ti0 2.198441 1_546
O16 O6 2.738913 1_556
O17 Ti2 1.953251 1_555
O17 Ta0 2.168428 1_555
O18 Ta3 1.974848 1_655
O18 Ti1 2.198441 1_554
O18 O4 2.738913 1_554
O19 Ti3 1.953251 1_555
O19 Ta1 2.168428 1_565
O20 Ti0 1.953251 1_655
O20 Ta2 2.168428 1_564
O21 Ta0 1.974848 1_555
O21 Ti2 2.198441 1_555
O22 Ti1 1.953251 1_455
O22 Ta3 2.168428 1_556
O23 Ta1 1.974848 1_555
O23 Ti3 2.198441 1_545
O23 O9 2.738913 1_555
