# generated using pymatgen
data_Mg6SiGe2
_symmetry_space_group_name_H-M   'P 1'
_cell_length_a   7.78027005
_cell_length_b   7.78027005
_cell_length_c   7.78027005
_cell_angle_alpha   146.43599278
_cell_angle_beta   131.81383179
_cell_angle_gamma   60.00124848
_symmetry_Int_Tables_number   1
_chemical_formula_structural   Mg6SiGe2
_chemical_formula_sum   'Mg6 Si1 Ge2'
_cell_volume   192.29147427
_cell_formula_units_Z   1
loop_
 _symmetry_equiv_pos_site_id
 _symmetry_equiv_pos_as_xyz
  1  'x, y, z'
loop_
 _atom_site_type_symbol
 _atom_site_label
 _atom_site_symmetry_multiplicity
 _atom_site_fract_x
 _atom_site_fract_y
 _atom_site_fract_z
 _atom_site_occupancy
  Mg  Mg0  1  0.75133543  0.50000000  0.25133543  1
  Mg  Mg1  1  0.41582771  0.16627529  0.24955142  1
  Mg  Mg2  1  0.08327613  0.83372471  0.24955142  1
  Mg  Mg3  1  0.24866457  0.50000000  0.74866457  1
  Mg  Mg4  1  0.91672387  0.16627529  0.75044858  1
  Mg  Mg5  1  0.58417229  0.83372471  0.75044858  1
  Si  Si0  1  0.00000000  0.00000000  0.00000000  1
  Ge  Ge0  1  0.66664159  0.66664159  0.00000000  1
  Ge  Ge1  1  0.33335841  0.33335841  0.00000000  1
loop_
_geom_bond_atom_site_label_1
_geom_bond_atom_site_label_2
_geom_bond_distance
_geom_bond_site_symmetry_2
Mg0 Si0 2.746145 1_666
Mg0 Si0 2.746145 1_655
Mg0 Mg3 3.159098 1_655
Mg0 Mg4 3.172858 1_565
Mg0 Mg4 3.172858 1_554
Mg0 Mg5 3.172861 1_544
Mg0 Mg5 3.172864 1_555
Mg0 Mg3 3.193030 1_554
Mg1 Si0 2.744722 1_555
Mg1 Mg4 3.170368 1_454
Mg1 Mg3 3.172861 1_544
Mg1 Mg3 3.172864 1_555
Mg1 Mg4 3.181760 1_555
Mg1 Mg5 3.184039 1_544
Mg1 Mg5 3.184045 1_555
Mg2 Si0 2.744715 1_565
Mg2 Mg5 3.170368 1_454
Mg2 Mg3 3.172858 1_554
Mg2 Mg3 3.172858 1_565
Mg2 Mg5 3.181760 1_555
Mg2 Mg4 3.184052 1_465
Mg2 Mg4 3.184052 1_454
Mg3 Si0 2.746145 1_566
Mg3 Si0 2.746145 1_555
Mg4 Si0 2.744715 1_656
Mg5 Si0 2.744722 1_666
Ge0 Mg1 2.752680 1_565
Ge0 Mg1 2.752684 1_554
Ge0 Mg4 2.752684 1_554
Ge0 Mg4 2.752684 1_565
Ge0 Mg5 2.753606 1_554
Ge0 Mg2 2.753609 1_655
Ge0 Mg0 2.755297 1_555
Ge0 Mg3 2.755297 1_554
Ge1 Mg5 2.752680 1_544
Ge1 Mg5 2.752684 1_555
Ge1 Mg2 2.752684 1_544
Ge1 Mg2 2.752684 1_555
Ge1 Mg1 2.753606 1_555
Ge1 Mg4 2.753609 1_454
Ge1 Mg3 2.755297 1_554
Ge1 Mg0 2.755297 1_555
