# generated using pymatgen
data_KBaPrWO6
_symmetry_space_group_name_H-M   'P 1'
_cell_length_a   6.12450727
_cell_length_b   6.12450727
_cell_length_c   6.12450727
_cell_angle_alpha   60.00000000
_cell_angle_beta   60.00000000
_cell_angle_gamma   60.00000000
_symmetry_Int_Tables_number   1
_chemical_formula_structural   KBaPrWO6
_chemical_formula_sum   'K1 Ba1 Pr1 W1 O6'
_cell_volume   162.44205129
_cell_formula_units_Z   1
loop_
 _symmetry_equiv_pos_site_id
 _symmetry_equiv_pos_as_xyz
  1  'x, y, z'
loop_
 _atom_site_type_symbol
 _atom_site_label
 _atom_site_symmetry_multiplicity
 _atom_site_fract_x
 _atom_site_fract_y
 _atom_site_fract_z
 _atom_site_occupancy
  K  K0  1  0.25000000  0.25000000  0.25000000  1
  Ba  Ba0  1  0.75000000  0.75000000  0.75000000  1
  Pr  Pr0  1  0.00000000  -0.00000000  0.00000000  1
  W  W0  1  0.50000000  0.50000000  0.50000000  1
  O  O0  1  0.72652125  0.27347875  0.27347875  1
  O  O1  1  0.27347875  0.72652125  0.72652125  1
  O  O2  1  0.72652125  0.27347875  0.72652125  1
  O  O3  1  0.27347875  0.72652125  0.27347875  1
  O  O4  1  0.72652125  0.72652125  0.27347875  1
  O  O5  1  0.27347875  0.27347875  0.72652125  1
loop_
_geom_bond_atom_site_label_1
_geom_bond_atom_site_label_2
_geom_bond_distance
_geom_bond_site_symmetry_2
K0 O3 3.068998 1_545
K0 O2 3.068998 1_455
K0 O2 3.068998 1_554
K0 O5 3.068998 1_555
K0 O5 3.068998 1_554
K0 O1 3.068998 1_545
K0 O4 3.068998 1_545
K0 O0 3.068998 1_455
K0 O3 3.068998 1_555
K0 O0 3.068998 1_555
K0 O4 3.068998 1_455
K0 O1 3.068998 1_554
Ba0 O3 3.068998 1_655
Ba0 O0 3.068998 1_565
Ba0 O1 3.068998 1_655
Ba0 O5 3.068998 1_655
Ba0 O5 3.068998 1_565
Ba0 O2 3.068998 1_555
Ba0 O3 3.068998 1_556
Ba0 O2 3.068998 1_565
Ba0 O0 3.068998 1_556
Ba0 O4 3.068998 1_555
Ba0 O1 3.068998 1_555
Ba0 O4 3.068998 1_556
O0 W0 1.961982 1_555
O0 Pr0 2.368698 1_655
O1 W0 1.961982 1_555
O1 Pr0 2.368698 1_566
O2 W0 1.961982 1_555
O2 Pr0 2.368698 1_656
O3 W0 1.961982 1_555
O3 Pr0 2.368698 1_565
O4 W0 1.961982 1_555
O4 Pr0 2.368698 1_665
O5 W0 1.961982 1_555
O5 Pr0 2.368698 1_556
