# generated using pymatgen
data_Rb2MnV2(ClO3)2
_symmetry_space_group_name_H-M   'P 1'
_cell_length_a   5.60212241
_cell_length_b   10.69063045
_cell_length_c   10.78631651
_cell_angle_alpha   59.88772808
_cell_angle_beta   105.74958278
_cell_angle_gamma   91.34503418
_symmetry_Int_Tables_number   1
_chemical_formula_structural   Rb2MnV2(ClO3)2
_chemical_formula_sum   'Rb4 Mn2 V4 Cl4 O12'
_cell_volume   532.88390622
_cell_formula_units_Z   2
loop_
 _symmetry_equiv_pos_site_id
 _symmetry_equiv_pos_as_xyz
  1  'x, y, z'
loop_
 _atom_site_type_symbol
 _atom_site_label
 _atom_site_symmetry_multiplicity
 _atom_site_fract_x
 _atom_site_fract_y
 _atom_site_fract_z
 _atom_site_occupancy
  Rb  Rb0  1  0.39777500  0.70171400  0.74583000  1
  Rb  Rb1  1  0.39764600  0.20177000  0.74565100  1
  Rb  Rb2  1  0.65186000  0.94752000  0.25422900  1
  Rb  Rb3  1  0.65199300  0.44744200  0.25434500  1
  Mn  Mn0  1  0.00135700  0.30274400  0.99981900  1
  Mn  Mn1  1  0.00201400  0.80273100  0.00018200  1
  V  V0  1  0.82239300  0.53109300  0.59892000  1
  V  V1  1  0.22337800  0.12978600  0.40098100  1
  V  V2  1  0.82245600  0.03095200  0.59890200  1
  V  V3  1  0.22342400  0.63009600  0.40113600  1
  Cl  Cl0  1  0.45143000  0.30890200  0.99993100  1
  Cl  Cl1  1  0.45161700  0.80886900  0.00007100  1
  Cl  Cl2  1  0.98143900  0.04191600  0.99998600  1
  Cl  Cl3  1  0.98151700  0.54183600  0.00006600  1
  O  O0  1  0.82676300  0.89232600  0.77285300  1
  O  O1  1  0.82646200  0.39238100  0.77268600  1
  O  O2  1  0.05369800  0.16502600  0.22712400  1
  O  O3  1  0.05393600  0.66501200  0.22733500  1
  O  O4  1  0.82812800  0.18714800  0.59562400  1
  O  O5  1  0.82806200  0.68728400  0.59580000  1
  O  O6  1  0.23223100  0.28279700  0.40428200  1
  O  O7  1  0.23207800  0.78315900  0.40419200  1
  O  O8  1  0.08866700  0.00137400  0.54607800  1
  O  O9  1  0.08860600  0.50155900  0.54608000  1
  O  O10  1  0.54258200  0.04748400  0.45392100  1
  O  O11  1  0.54248500  0.54767300  0.45397300  1
loop_
_geom_bond_atom_site_label_1
_geom_bond_atom_site_label_2
_geom_bond_distance
_geom_bond_site_symmetry_2
Mn0 O1 2.065364 1_455
Mn0 O2 2.067093 1_556
Mn1 O3 2.066183 1_555
Mn1 O0 2.067487 1_454
Cl0 Mn0 2.520366 1_555
Cl0 Mn0 3.083347 1_655
Cl0 Rb2 3.407200 1_546
Cl0 Rb1 3.407680 1_555
Cl0 O2 3.424604 1_656
Cl0 O1 3.425102 1_555
Cl0 Rb0 3.647002 1_555
Cl0 Rb3 3.648672 1_556
Cl1 Mn1 2.518355 1_555
Cl1 Mn1 3.085292 1_655
Cl1 Rb0 3.407417 1_554
Cl1 Rb3 3.407476 1_555
Cl1 O3 3.424981 1_655
Cl1 O0 3.425421 1_554
Cl1 Rb2 3.647016 1_555
Cl1 Rb1 3.648096 1_564
Cl2 Mn1 2.561253 1_646
Cl2 Mn0 2.787145 1_655
Cl2 O2 3.251226 1_656
Cl2 O1 3.253088 1_555
Cl2 Rb1 3.439488 1_555
Cl2 Rb2 3.439800 1_546
Cl2 Rb2 3.801907 1_646
Cl2 Rb1 3.803184 1_655
Cl3 Mn0 2.562431 1_654
Cl3 Mn1 2.789414 1_655
Cl3 O3 3.253000 1_655
Cl3 O0 3.253088 1_554
Cl3 Rb0 3.438996 1_554
Cl3 Rb3 3.439882 1_555
Cl3 Rb3 3.802279 1_655
Cl3 Rb0 3.802724 1_654
O0 V2 1.704224 1_565
O0 Rb0 3.162090 1_555
O1 V0 1.703551 1_555
O1 Rb1 3.161416 1_555
O2 V1 1.703643 1_555
O2 Rb2 3.160611 1_445
O3 V3 1.703957 1_555
O3 Rb3 3.161580 1_455
O4 V2 1.652114 1_555
O4 Rb3 3.185384 1_555
O4 Rb1 3.201572 1_655
O4 Rb1 3.293797 1_555
O5 V0 1.652880 1_555
O5 Rb2 3.187200 1_555
O5 Rb0 3.201946 1_655
O5 Rb0 3.292235 1_555
O6 V1 1.653236 1_555
O6 Rb1 3.186224 1_555
O6 Rb3 3.202733 1_555
O6 Rb3 3.292159 1_455
O7 V3 1.652445 1_555
O7 Rb0 3.187583 1_555
O7 Rb2 3.202103 1_555
O7 Rb2 3.291106 1_455
O8 V2 1.820153 1_455
O8 V1 1.827640 1_555
O8 Rb0 3.035275 1_545
O8 Rb1 3.827574 1_555
O9 V0 1.820106 1_455
O9 V3 1.827458 1_555
O9 Rb1 3.036056 1_555
O9 Rb0 3.827113 1_555
O10 V1 1.820263 1_555
O10 V2 1.827473 1_555
O10 Rb2 3.035216 1_545
O10 Rb3 3.827507 1_555
O11 V3 1.820205 1_555
O11 V0 1.827222 1_555
O11 Rb3 3.037121 1_555
O11 Rb2 3.826546 1_555
