# generated using pymatgen
data_Fe9BP2
_symmetry_space_group_name_H-M   'P 1'
_cell_length_a   4.35027300
_cell_length_b   6.70702703
_cell_length_c   18.75819128
_cell_angle_alpha   90.14032242
_cell_angle_beta   96.26426780
_cell_angle_gamma   108.81137320
_symmetry_Int_Tables_number   1
_chemical_formula_structural   Fe9BP2
_chemical_formula_sum   'Fe36 B4 P8'
_cell_volume   514.57510410
_cell_formula_units_Z   4
loop_
 _symmetry_equiv_pos_site_id
 _symmetry_equiv_pos_as_xyz
  1  'x, y, z'
loop_
 _atom_site_type_symbol
 _atom_site_label
 _atom_site_symmetry_multiplicity
 _atom_site_fract_x
 _atom_site_fract_y
 _atom_site_fract_z
 _atom_site_occupancy
  Fe  Fe0  1  0.93723900  0.40033900  0.98955700  1
  Fe  Fe1  1  0.27095400  0.39298100  0.65741000  1
  Fe  Fe2  1  0.60192000  0.39567900  0.32233600  1
  Fe  Fe3  1  0.90675900  0.60274800  0.68582100  1
  Fe  Fe4  1  0.23329600  0.60300500  0.34866400  1
  Fe  Fe5  1  0.54459300  0.60017900  0.00778700  1
  Fe  Fe6  1  0.15731300  0.94464000  0.87275600  1
  Fe  Fe7  1  0.49349600  0.94730700  0.53828100  1
  Fe  Fe8  1  0.82450400  0.94757100  0.20220900  1
  Fe  Fe9  1  0.67431000  0.06113900  0.79618800  1
  Fe  Fe10  1  0.99657800  0.05384800  0.46158600  1
  Fe  Fe11  1  0.32992800  0.05113200  0.12655400  1
  Fe  Fe12  1  0.57284600  0.39134500  0.77645400  1
  Fe  Fe13  1  0.90436200  0.38759700  0.44104500  1
  Fe  Fe14  1  0.23764800  0.38517700  0.10638400  1
  Fe  Fe15  1  0.74522900  0.61007300  0.89137500  1
  Fe  Fe16  1  0.07822100  0.60484500  0.55646000  1
  Fe  Fe17  1  0.40961800  0.60515900  0.22020600  1
  Fe  Fe18  1  0.12131500  0.34311000  0.87044000  1
  Fe  Fe19  1  0.44385900  0.32719200  0.53175900  1
  Fe  Fe20  1  0.77624400  0.32765200  0.19682300  1
  Fe  Fe21  1  0.24742600  0.65948000  0.80033800  1
  Fe  Fe22  1  0.57302200  0.65360700  0.46040400  1
  Fe  Fe23  1  0.89981000  0.65032300  0.12258800  1
  Fe  Fe24  1  0.33448700  0.18709200  0.99507000  1
  Fe  Fe25  1  0.67431600  0.19029500  0.66351500  1
  Fe  Fe26  1  0.00237000  0.18902700  0.32812500  1
  Fe  Fe27  1  0.48684200  0.81853900  0.67737400  1
  Fe  Fe28  1  0.81731100  0.81789500  0.34132600  1
  Fe  Fe29  1  0.15287200  0.81194700  0.00292200  1
  Fe  Fe30  1  0.69696200  0.95612000  0.93632600  1
  Fe  Fe31  1  0.05966600  0.97451000  0.60684900  1
  Fe  Fe32  1  0.39093600  0.97492600  0.27203100  1
  Fe  Fe33  1  0.13959700  0.04568500  0.73191100  1
  Fe  Fe34  1  0.46724000  0.04514700  0.39729500  1
  Fe  Fe35  1  0.79868400  0.04159600  0.06093600  1
  B  B0  1  0.03455400  0.34018500  0.75313400  1
  B  B1  1  0.36087300  0.33647800  0.41689400  1
  B  B2  1  0.69286600  0.33182200  0.08243600  1
  B  B3  1  0.27513300  0.66264800  0.91481900  1
  P  P0  1  0.62160800  0.66079200  0.58530100  1
  P  P1  1  0.95330000  0.66324100  0.24802900  1
  P  P2  1  0.57792100  0.24918500  0.88952300  1
  P  P3  1  0.91185600  0.24688300  0.55630700  1
  P  P4  1  0.24392100  0.24722300  0.22128900  1
  P  P5  1  0.77644300  0.75631600  0.78072100  1
  P  P6  1  0.10986200  0.75431000  0.44561800  1
  P  P7  1  0.43988800  0.75201000  0.10882500  1
loop_
_geom_bond_atom_site_label_1
_geom_bond_atom_site_label_2
_geom_bond_distance
_geom_bond_site_symmetry_2
Fe0 P2 2.306697 1_555
Fe0 Fe14 2.445924 1_656
Fe0 Fe18 2.523035 1_655
Fe0 Fe5 2.532024 1_656
Fe0 Fe5 2.536296 1_556
Fe0 Fe15 2.550130 1_555
Fe0 Fe24 2.563827 1_555
Fe0 Fe24 2.568755 1_655
Fe0 Fe29 2.615201 1_656
Fe0 Fe35 2.683652 1_556
Fe1 P3 2.313973 1_455
Fe1 P0 2.465382 1_555
Fe1 Fe12 2.465936 1_555
Fe1 Fe25 2.527465 1_455
Fe1 Fe3 2.528181 1_455
Fe1 Fe25 2.536832 1_555
Fe1 Fe16 2.596743 1_555
Fe1 Fe19 2.629013 1_555
Fe1 Fe33 2.652756 1_555
Fe1 Fe3 2.660604 1_555
Fe1 Fe27 2.712596 1_555
Fe1 Fe31 2.784764 1_545
Fe2 P4 2.314336 1_555
Fe2 P1 2.491590 1_555
Fe2 Fe4 2.521236 1_555
Fe2 Fe26 2.542985 1_555
Fe2 Fe26 2.546419 1_655
Fe2 Fe20 2.633246 1_555
Fe2 Fe4 2.638016 1_655
Fe2 Fe34 2.674949 1_555
Fe2 Fe28 2.689804 1_555
Fe2 Fe32 2.797161 1_545
Fe3 P0 2.247296 1_555
Fe3 P5 2.266940 1_555
Fe3 Fe31 2.831531 1_655
Fe3 Fe33 2.907705 1_665
Fe4 P1 2.242704 1_455
Fe4 P6 2.276242 1_555
Fe5 P7 2.305360 1_555
Fe6 P2 2.253903 1_565
Fe6 P5 2.310107 1_455
Fe6 Fe9 2.703496 1_565
Fe6 Fe9 2.737544 1_465
Fe7 P3 2.228872 1_565
Fe7 P0 2.317986 1_555
Fe7 P6 2.333424 1_555
Fe8 P4 2.232817 1_665
Fe8 P1 2.298123 1_555
Fe8 P7 2.349946 1_555
Fe9 P5 2.252204 1_545
Fe9 P2 2.307005 1_555
Fe10 P6 2.244210 1_645
Fe10 P3 2.325605 1_555
Fe10 Fe13 2.422753 1_555
Fe10 Fe19 2.451238 1_655
Fe10 Fe34 2.463224 1_555
Fe10 Fe34 2.503132 1_655
Fe10 Fe28 2.646545 1_545
Fe10 Fe7 2.655875 1_545
Fe10 Fe26 2.664629 1_655
Fe10 Fe22 2.720782 1_545
Fe10 Fe7 2.752448 1_645
Fe10 Fe31 2.778756 1_645
Fe11 P7 2.239352 1_545
Fe11 P4 2.340650 1_555
Fe11 Fe14 2.423832 1_555
Fe11 Fe20 2.460514 1_555
Fe11 Fe35 2.478636 1_455
Fe11 Fe35 2.511779 1_555
Fe11 Fe24 2.631558 1_554
Fe11 Fe8 2.651741 1_445
Fe11 Fe29 2.709274 1_545
Fe11 Fe8 2.725405 1_545
Fe11 Fe23 2.730936 1_445
Fe11 Fe32 2.777545 1_545
Fe12 P5 2.316959 1_555
Fe12 P2 2.328384 1_555
Fe12 Fe9 2.415689 1_555
Fe12 Fe3 2.496664 1_555
Fe12 Fe15 2.506756 1_555
Fe12 Fe33 2.540490 1_555
Fe12 Fe25 2.659943 1_555
Fe12 Fe21 2.686146 1_555
Fe12 Fe18 2.723963 1_555
Fe13 P6 2.328128 1_655
Fe13 P3 2.362399 1_555
Fe13 Fe2 2.469764 1_555
Fe13 Fe16 2.509734 1_655
Fe13 Fe4 2.521510 1_655
Fe13 Fe34 2.529517 1_555
Fe13 Fe26 2.644172 1_655
Fe13 Fe22 2.676240 1_555
Fe13 Fe19 2.701264 1_555
Fe14 P7 2.328988 1_555
Fe14 P4 2.348587 1_555
Fe14 Fe17 2.493860 1_555
Fe14 Fe35 2.545757 1_455
Fe14 Fe5 2.567747 1_555
Fe14 Fe24 2.615688 1_554
Fe14 Fe23 2.682395 1_455
Fe14 Fe20 2.702359 1_455
Fe15 P2 2.290770 1_555
Fe15 P5 2.296629 1_555
Fe15 Fe5 2.431865 1_556
Fe15 Fe6 2.432531 1_655
Fe15 Fe30 2.546607 1_555
Fe15 Fe29 2.642755 1_656
Fe15 Fe18 2.712355 1_555
Fe15 Fe21 2.715561 1_555
Fe16 P0 2.256869 1_455
Fe16 P3 2.273074 1_455
Fe16 P0 2.273610 1_555
Fe16 P6 2.308812 1_555
Fe16 Fe7 2.473447 1_555
Fe16 Fe3 2.614049 1_455
Fe16 Fe31 2.679806 1_555
Fe16 Fe19 2.775018 1_455
Fe16 Fe22 2.790330 1_455
Fe16 Fe27 2.796365 1_555
Fe17 P1 2.255795 1_455
Fe17 P1 2.270149 1_555
Fe17 P4 2.273925 1_555
Fe17 P7 2.310652 1_555
Fe17 Fe8 2.471712 1_555
Fe17 Fe2 2.601050 1_555
Fe17 Fe4 2.606015 1_555
Fe17 Fe32 2.690292 1_555
Fe17 Fe20 2.770110 1_455
Fe17 Fe28 2.795732 1_555
Fe17 Fe23 2.813041 1_455
Fe18 P2 2.263523 1_555
Fe18 P2 2.310511 1_455
Fe18 Fe21 2.439877 1_555
Fe18 Fe9 2.514426 1_455
Fe18 Fe6 2.727256 1_545
Fe18 Fe24 2.754110 1_555
Fe19 P3 2.269572 1_555
Fe19 P3 2.299623 1_455
Fe19 P0 2.305782 1_555
Fe19 Fe22 2.507062 1_555
Fe19 Fe7 2.627539 1_545
Fe19 Fe25 2.832051 1_555
Fe19 Fe31 2.890190 1_545
Fe20 P4 2.268510 1_655
Fe20 P4 2.300400 1_555
Fe20 P1 2.300417 1_555
Fe20 Fe23 2.517841 1_555
Fe20 Fe8 2.625749 1_545
Fe20 Fe26 2.823256 1_655
Fe20 Fe32 2.893386 1_545
Fe21 P5 2.252903 1_555
Fe21 P5 2.334540 1_455
Fe21 Fe3 2.427582 1_455
Fe21 Fe6 2.498794 1_555
Fe21 Fe27 2.713474 1_555
Fe21 Fe9 2.741946 1_565
Fe22 P6 2.261024 1_655
Fe22 P6 2.312884 1_555
Fe22 P0 2.328244 1_555
Fe22 Fe4 2.385327 1_555
Fe22 Fe7 2.582583 1_555
Fe22 Fe28 2.666044 1_555
Fe23 P7 2.269741 1_655
Fe23 P7 2.302847 1_555
Fe23 P1 2.337732 1_555
Fe23 Fe5 2.464448 1_555
Fe23 Fe8 2.612669 1_555
Fe23 Fe29 2.684658 1_655
Fe24 P2 2.322066 1_555
Fe24 Fe29 2.392050 1_546
Fe24 Fe5 2.623837 1_556
Fe24 Fe35 2.660700 1_456
Fe24 Fe35 2.699814 1_556
Fe24 Fe6 2.700019 1_545
Fe24 Fe30 2.803534 1_445
Fe24 Fe30 2.836684 1_545
Fe25 P3 2.336758 1_555
Fe25 Fe27 2.384886 1_545
Fe25 Fe3 2.635941 1_555
Fe25 Fe9 2.637159 1_555
Fe25 Fe33 2.683322 1_555
Fe25 Fe31 2.692712 1_545
Fe25 Fe33 2.718306 1_655
Fe25 Fe7 2.746739 1_545
Fe25 Fe31 2.825014 1_645
Fe26 P4 2.339158 1_555
Fe26 Fe28 2.379009 1_445
Fe26 Fe4 2.641663 1_555
Fe26 Fe32 2.676351 1_445
Fe26 Fe34 2.692708 1_455
Fe26 Fe34 2.719664 1_555
Fe26 Fe8 2.752179 1_445
Fe26 Fe32 2.823600 1_545
Fe27 P0 2.249022 1_555
Fe27 P5 2.308593 1_555
Fe27 Fe3 2.494183 1_455
Fe27 Fe9 2.647584 1_565
Fe27 Fe31 2.649874 1_555
Fe27 Fe3 2.664560 1_555
Fe27 Fe33 2.731898 1_565
Fe27 Fe7 2.750582 1_555
Fe27 Fe33 2.828367 1_665
Fe27 Fe31 2.845920 1_655
Fe28 P1 2.258646 1_555
Fe28 P6 2.332290 1_655
Fe28 Fe4 2.503358 1_555
Fe28 Fe32 2.641917 1_555
Fe28 Fe4 2.645694 1_655
Fe28 Fe8 2.752951 1_555
Fe28 Fe34 2.753662 1_565
Fe28 Fe34 2.825701 1_665
Fe28 Fe32 2.836481 1_655
Fe29 P7 2.335229 1_555
Fe29 Fe5 2.541108 1_555
Fe29 Fe5 2.580198 1_455
Fe29 Fe6 2.600783 1_554
Fe29 Fe30 2.670439 1_454
Fe29 Fe30 2.696875 1_554
Fe29 Fe35 2.796251 1_465
Fe29 Fe35 2.825527 1_565
Fe30 P2 2.338420 1_565
Fe30 Fe35 2.364803 1_566
Fe30 Fe6 2.461431 1_655
Fe30 Fe6 2.492241 1_555
Fe30 Fe5 2.669184 1_556
Fe30 Fe9 2.722755 1_565
Fe31 P3 2.298382 1_465
Fe31 P0 2.337538 1_455
Fe31 Fe33 2.358318 1_565
Fe31 Fe7 2.449511 1_555
Fe31 Fe7 2.602245 1_455
Fe32 P4 2.297678 1_565
Fe32 P1 2.332178 1_455
Fe32 Fe34 2.361516 1_565
Fe32 Fe8 2.463266 1_555
Fe32 Fe8 2.612275 1_455
Fe32 Fe4 2.808668 1_555
Fe33 P5 2.334064 1_445
Fe33 Fe9 2.471295 1_555
Fe33 Fe9 2.495771 1_455
Fe33 Fe6 2.728260 1_545
Fe34 P6 2.324689 1_545
Fe34 Fe7 2.725567 1_545
Fe34 Fe4 2.915420 1_545
Fe35 P7 2.318418 1_545
Fe35 Fe8 2.724308 1_545
B0 Fe1 2.139735 1_555
B0 Fe25 2.166427 1_455
B0 Fe21 2.181866 1_555
B0 Fe18 2.190567 1_555
B0 Fe33 2.210598 1_555
B0 Fe12 2.231337 1_455
B0 Fe9 2.236754 1_455
B0 Fe12 2.247278 1_555
B0 Fe3 2.343858 1_455
B1 Fe2 2.131722 1_555
B1 Fe22 2.145493 1_555
B1 Fe26 2.147925 1_555
B1 Fe19 2.149924 1_555
B1 Fe34 2.187225 1_555
B1 Fe13 2.213925 1_455
B1 Fe13 2.270581 1_555
B1 Fe10 2.273327 1_455
B1 Fe4 2.374369 1_555
B2 Fe0 2.114191 1_554
B2 Fe24 2.125394 1_554
B2 Fe23 2.131896 1_555
B2 Fe20 2.138537 1_555
B2 Fe35 2.185906 1_555
B2 Fe14 2.214026 1_555
B2 Fe11 2.257823 1_555
B2 Fe14 2.272985 1_655
B2 Fe5 2.486033 1_555
B3 Fe5 2.113075 1_556
B3 Fe29 2.131675 1_556
B3 Fe21 2.137332 1_555
B3 Fe18 2.163031 1_555
B3 Fe15 2.210337 1_455
B3 Fe30 2.215780 1_555
B3 Fe6 2.237547 1_555
B3 Fe15 2.271676 1_555
B3 Fe0 2.452625 1_455
