# generated using pymatgen
data_Li2MnV(PO4)3
_symmetry_space_group_name_H-M   'P 1'
_cell_length_a   8.33060800
_cell_length_b   8.36564264
_cell_length_c   8.88923902
_cell_angle_alpha   90.01581963
_cell_angle_beta   116.53391302
_cell_angle_gamma   119.37331904
_symmetry_Int_Tables_number   1
_chemical_formula_structural   Li2MnV(PO4)3
_chemical_formula_sum   'Li4 Mn2 V2 P6 O24'
_cell_volume   463.47683506
_cell_formula_units_Z   2
loop_
 _symmetry_equiv_pos_site_id
 _symmetry_equiv_pos_as_xyz
  1  'x, y, z'
loop_
 _atom_site_type_symbol
 _atom_site_label
 _atom_site_symmetry_multiplicity
 _atom_site_fract_x
 _atom_site_fract_y
 _atom_site_fract_z
 _atom_site_occupancy
  Li  Li0  1  0.94519400  0.26176300  0.87272300  1
  Li  Li1  1  0.18884800  0.92411400  0.85255400  1
  Li  Li2  1  0.05072100  0.73513700  0.12732300  1
  Li  Li3  1  0.40263900  0.32599200  0.14368200  1
  Mn  Mn0  1  0.28927800  0.15120700  0.43633400  1
  Mn  Mn1  1  0.70547300  0.84738400  0.56425800  1
  V  V0  1  0.31785000  0.65389000  0.95542700  1
  V  V1  1  0.69716600  0.34299900  0.04347000  1
  P  P0  1  0.80261700  0.54000400  0.75349300  1
  P  P1  1  0.21291700  0.25572900  0.75149300  1
  P  P2  1  0.50149600  0.96573400  0.74224600  1
  P  P3  1  0.49586900  0.03775700  0.24794300  1
  P  P4  1  0.78015200  0.74159200  0.24936400  1
  P  P5  1  0.20963000  0.46128100  0.25441100  1
  O  O0  1  0.74561400  0.51493200  0.90527100  1
  O  O1  1  0.88332700  0.74850800  0.75015700  1
  O  O2  1  0.00170800  0.52062800  0.82454800  1
  O  O3  1  0.29382700  0.46975100  0.80612700  1
  O  O4  1  0.37072100  0.21438400  0.90231000  1
  O  O5  1  0.68438500  0.16521100  0.88644100  1
  O  O6  1  0.61620800  0.39019500  0.58414400  1
  O  O7  1  0.99643300  0.12818100  0.74058200  1
  O  O8  1  0.19822900  0.20880600  0.57947200  1
  O  O9  1  0.35463000  0.83868100  0.81320700  1
  O  O10  1  0.62197400  0.88087200  0.72609800  1
  O  O11  1  0.36497600  0.98892300  0.57064000  1
  O  O12  1  0.63101700  0.01429100  0.41534800  1
  O  O13  1  0.37599000  0.12623400  0.26349500  1
  O  O14  1  0.64048800  0.17634800  0.17793300  1
  O  O15  1  0.80649800  0.78948900  0.42865600  1
  O  O16  1  0.98817300  0.86208600  0.25016300  1
  O  O17  1  0.39938400  0.62086200  0.41765900  1
  O  O18  1  0.30951200  0.84581400  0.09543500  1
  O  O19  1  0.60732400  0.77862000  0.11039100  1
  O  O20  1  0.68582200  0.52430300  0.18580500  1
  O  O21  1  0.01423200  0.48198800  0.18851000  1
  O  O22  1  0.14677600  0.25934900  0.27299800  1
  O  O23  1  0.25783000  0.46678700  0.09842000  1
loop_
_geom_bond_atom_site_label_1
_geom_bond_atom_site_label_2
_geom_bond_distance
_geom_bond_site_symmetry_2
Li0 O7 1.930275 1_555
Li0 O5 1.975623 1_555
Li0 O2 2.067660 1_655
Li0 O23 2.167370 1_656
Li1 O1 1.930288 1_455
Li1 O9 1.984996 1_555
Li1 O4 2.044325 1_565
Li1 O18 2.192846 1_556
Li2 O16 1.908483 1_455
Li2 O18 2.042898 1_555
Li2 O21 2.095223 1_555
Li2 O0 2.161551 1_454
Li3 O13 1.955631 1_555
Li3 O20 1.956747 1_555
Li3 O23 1.991219 1_555
Li3 O4 2.189002 1_554
Li3 O22 2.683138 1_555
Mn0 O8 1.909695 1_555
Mn0 O11 1.958114 1_545
Mn0 O22 1.962173 1_555
Mn0 O13 2.016300 1_555
Mn0 O6 2.144953 1_555
Mn0 O16 2.284293 1_445
Mn1 O15 1.923998 1_555
Mn1 O10 1.927963 1_555
Mn1 O17 2.020093 1_555
Mn1 O12 2.050262 1_565
Mn1 O1 2.150737 1_555
Mn1 O7 2.206331 1_565
O0 P0 1.601464 1_555
O0 V1 1.901407 1_556
O1 P0 1.537133 1_555
O2 P0 1.582349 1_455
O2 V0 1.978370 1_555
O3 P1 1.555314 1_555
O3 V0 1.906179 1_555
O4 P1 1.586447 1_555
O4 V1 2.051290 1_556
O5 P2 1.583929 1_545
O5 V1 1.970430 1_556
O6 P0 1.499815 1_555
O7 P1 1.535014 1_655
O8 P1 1.514165 1_555
O9 P2 1.561640 1_555
O9 V0 1.991093 1_555
O10 P2 1.536087 1_555
O11 P2 1.524669 1_555
O12 P3 1.496877 1_555
O13 P3 1.553292 1_555
O14 P3 1.575752 1_555
O14 V1 1.858669 1_555
O15 P4 1.532864 1_555
O16 P4 1.514792 1_555
O17 P5 1.505348 1_555
O18 P3 1.580919 1_565
O18 V0 2.077776 1_554
O19 P4 1.594863 1_555
O19 V0 1.834244 1_554
O20 P4 1.562834 1_555
O20 V1 2.038779 1_555
O21 P5 1.564469 1_555
O21 V1 1.983602 1_455
O22 P5 1.537823 1_555
O23 P5 1.601712 1_555
O23 V0 2.029002 1_554
