# generated using pymatgen
data_Sr21Hg109
_symmetry_space_group_name_H-M   'P 1'
_cell_length_a   9.92427329
_cell_length_b   13.55057228
_cell_length_c   26.62654948
_cell_angle_alpha   91.24711023
_cell_angle_beta   90.01402321
_cell_angle_gamma   89.93634893
_symmetry_Int_Tables_number   1
_chemical_formula_structural   Sr21Hg109
_chemical_formula_sum   'Sr21 Hg109'
_cell_volume   3579.87678110
_cell_formula_units_Z   1
loop_
 _symmetry_equiv_pos_site_id
 _symmetry_equiv_pos_as_xyz
  1  'x, y, z'
loop_
 _atom_site_type_symbol
 _atom_site_label
 _atom_site_symmetry_multiplicity
 _atom_site_fract_x
 _atom_site_fract_y
 _atom_site_fract_z
 _atom_site_occupancy
  Sr  Sr0  1  0.49772838  0.58211277  0.37497010  1
  Sr  Sr1  1  0.50071957  0.08009028  0.87081782  1
  Sr  Sr2  1  0.50098419  0.15002922  0.09210579  1
  Sr  Sr3  1  0.50485718  0.65043365  0.59449686  1
  Sr  Sr4  1  0.49890787  0.77139855  0.01931863  1
  Sr  Sr5  1  0.50114276  0.27242714  0.52224026  1
  Sr  Sr6  1  0.50158986  0.93846933  0.46980455  1
  Sr  Sr7  1  0.50035965  0.43824800  0.96754292  1
  Sr  Sr8  1  0.50036423  0.82480505  0.23006232  1
  Sr  Sr9  1  0.50136392  0.32731975  0.73143255  1
  Sr  Sr10  1  0.50094541  0.23692104  0.30294140  1
  Sr  Sr11  1  0.50106993  0.73806893  0.80134177  1
  Sr  Sr12  1  0.20643841  0.49638763  0.16531607  1
  Sr  Sr13  1  0.18181085  0.99529692  0.66626873  1
  Sr  Sr14  1  0.79208330  0.49629358  0.16543213  1
  Sr  Sr15  1  0.99947561  0.77652504  0.35271035  1
  Sr  Sr16  1  0.99931447  0.27583611  0.85253295  1
  Sr  Sr17  1  0.99917148  0.08470179  0.21576369  1
  Sr  Sr18  1  0.00057469  0.58790029  0.71598039  1
  Sr  Sr19  1  0.99924658  0.12960016  0.43312278  1
  Sr  Sr20  1  0.99906678  0.62811256  0.93196456  1
  Hg  Hg0  1  0.33451480  0.71638961  0.47361466  1
  Hg  Hg1  1  0.33430590  0.21479768  0.97197024  1
  Hg  Hg2  1  0.34205203  0.93716244  0.12121554  1
  Hg  Hg3  1  0.34878034  0.43256507  0.62163521  1
  Hg  Hg4  1  0.33590556  0.36773467  0.40523094  1
  Hg  Hg5  1  0.33760399  0.86828586  0.90529798  1
  Hg  Hg6  1  0.67014597  0.71734775  0.47524359  1
  Hg  Hg7  1  0.66144913  0.21444571  0.97294998  1
  Hg  Hg8  1  0.65645236  0.93619790  0.12130294  1
  Hg  Hg9  1  0.66709290  0.42868966  0.62325706  1
  Hg  Hg10  1  0.66305052  0.36960961  0.40530701  1
  Hg  Hg11  1  0.66688918  0.86922812  0.90423384  1
  Hg  Hg12  1  0.50165461  -0.00066499  0.33381416  1
  Hg  Hg13  1  0.49993978  0.50140502  0.83342473  1
  Hg  Hg14  1  0.16576607  0.99351108  0.33246765  1
  Hg  Hg15  1  0.16550589  0.49233407  0.83302641  1
  Hg  Hg16  1  0.83474726  0.99227283  0.33193302  1
  Hg  Hg17  1  0.83483297  0.49255262  0.83281194  1
  Hg  Hg18  1  0.29727041  0.43306736  0.29185190  1
  Hg  Hg19  1  0.29775645  0.93439752  0.79109291  1
  Hg  Hg20  1  0.29943033  0.34483647  0.06682532  1
  Hg  Hg21  1  0.29370982  0.84161123  0.56913402  1
  Hg  Hg22  1  0.30137023  0.72444802  0.13503020  1
  Hg  Hg23  1  0.29671062  0.22186627  0.63697431  1
  Hg  Hg24  1  0.70136898  0.43506765  0.29168109  1
  Hg  Hg25  1  0.69942963  0.93562303  0.78767969  1
  Hg  Hg26  1  0.69886602  0.34409934  0.06692966  1
  Hg  Hg27  1  0.69655981  0.85581346  0.57172130  1
  Hg  Hg28  1  0.69986786  0.72393882  0.13309010  1
  Hg  Hg29  1  0.70772094  0.20925737  0.63723106  1
  Hg  Hg30  1  0.26112088  0.66645508  0.27825200  1
  Hg  Hg31  1  0.26096879  0.16500405  0.77714455  1
  Hg  Hg32  1  0.27160003  0.24870393  0.19725499  1
  Hg  Hg33  1  0.26601289  0.74852362  0.69684719  1
  Hg  Hg34  1  0.25364957  0.58139814  0.02466441  1
  Hg  Hg35  1  0.25484032  0.08208760  0.52293608  1
  Hg  Hg36  1  0.73848025  0.66659466  0.27790146  1
  Hg  Hg37  1  0.73646240  0.16335374  0.77860261  1
  Hg  Hg38  1  0.72947607  0.24868708  0.19802784  1
  Hg  Hg39  1  0.73225892  0.75857951  0.69547667  1
  Hg  Hg40  1  0.74293494  0.58329176  0.02370162  1
  Hg  Hg41  1  0.74262385  0.08476185  0.52627856  1
  Hg  Hg42  1  0.16832364  0.91321704  0.44485072  1
  Hg  Hg43  1  0.16577239  0.41186562  0.94567243  1
  Hg  Hg44  1  0.16146043  0.86668767  0.23383758  1
  Hg  Hg45  1  0.16167532  0.36830500  0.73448180  1
  Hg  Hg46  1  0.16383220  0.21519748  0.31822593  1
  Hg  Hg47  1  0.16973446  0.71327277  0.81991992  1
  Hg  Hg48  1  0.83254068  0.91394693  0.44453991  1
  Hg  Hg49  1  0.83660081  0.41191971  0.94627464  1
  Hg  Hg50  1  0.83697277  0.86635728  0.23324115  1
  Hg  Hg51  1  0.83611802  0.36741924  0.73485888  1
  Hg  Hg52  1  0.83587612  0.21530668  0.31904067  1
  Hg  Hg53  1  0.83378579  0.71381219  0.82009092  1
  Hg  Hg54  1  0.49883363  0.57497958  0.22193575  1
  Hg  Hg55  1  0.50008723  0.08073296  0.71543946  1
  Hg  Hg56  1  0.50052050  0.37098033  0.16703058  1
  Hg  Hg57  1  0.49208365  0.87726782  0.66903959  1
  Hg  Hg58  1  0.49995113  0.55144551  0.09310922  1
  Hg  Hg59  1  0.49183226  0.05104595  0.59304560  1
  Hg  Hg60  1  0.16574595  0.57293722  0.39987119  1
  Hg  Hg61  1  0.16865766  0.06970749  0.89856972  1
  Hg  Hg62  1  0.16292092  0.11595843  0.09555334  1
  Hg  Hg63  1  0.16852320  0.60743824  0.59462637  1
  Hg  Hg64  1  0.16211355  0.81285770  0.01049223  1
  Hg  Hg65  1  0.16648779  0.31548366  0.50950370  1
  Hg  Hg66  1  0.83102199  0.57035111  0.39744366  1
  Hg  Hg67  1  0.83253420  0.07206465  0.90023860  1
  Hg  Hg68  1  0.84074099  0.11317871  0.09588662  1
  Hg  Hg69  1  0.83850387  0.61579421  0.59575119  1
  Hg  Hg70  1  0.83612146  0.81167256  0.00910924  1
  Hg  Hg71  1  0.83710334  0.31403763  0.50901333  1
  Hg  Hg72  1  0.34410932  0.80751885  0.36169327  1
  Hg  Hg73  1  0.34628926  0.30629171  0.86086964  1
  Hg  Hg74  1  0.34598801  0.04965596  0.22825859  1
  Hg  Hg75  1  0.34811375  0.55022706  0.72664774  1
  Hg  Hg76  1  0.34541534  0.14119502  0.41419530  1
  Hg  Hg77  1  0.34179631  0.64179500  0.91538149  1
  Hg  Hg78  1  0.65202484  0.80545530  0.36187933  1
  Hg  Hg79  1  0.65382107  0.30767232  0.86220910  1
  Hg  Hg80  1  0.65247210  0.04943734  0.22719472  1
  Hg  Hg81  1  0.65588482  0.55502934  0.72569668  1
  Hg  Hg82  1  0.65889479  0.14219938  0.41534810  1
  Hg  Hg83  1  0.65519512  0.64213035  0.91440263  1
  Hg  Hg84  1  0.00044709  0.73676357  0.50069671  1
  Hg  Hg85  1  0.99902726  0.23676079  0.00194455  1
  Hg  Hg86  1  0.00069126  0.89589508  0.11687890  1
  Hg  Hg87  1  0.99852712  0.39753781  0.61704565  1
  Hg  Hg88  1  0.00222456  0.36511464  0.39449605  1
  Hg  Hg89  1  0.00204531  0.86451351  0.89500953  1
  Hg  Hg90  1  0.99910138  0.34781515  0.24636882  1
  Hg  Hg91  1  0.99893656  0.84382880  0.75009926  1
  Hg  Hg92  1  0.99763158  0.44711564  0.05193898  1
  Hg  Hg93  1  0.99748392  0.94677133  0.54884146  1
  Hg  Hg94  1  0.99901915  0.68426869  0.19875882  1
  Hg  Hg95  1  0.99451406  0.18795788  0.69675908  1
  Hg  Hg96  1  0.00188690  0.01594401  0.99995278  1
  Hg  Hg97  1  0.99879628  0.51615476  0.49975539  1
  Hg  Hg98  1  0.00178019  0.54621276  0.29524539  1
  Hg  Hg99  1  0.99803180  0.04517996  0.79539846  1
  Hg  Hg100  1  0.99857053  0.29608220  0.13301565  1
  Hg  Hg101  1  0.00203231  0.79320099  0.63101213  1
  Hg  Hg102  1  0.99952155  0.66501745  0.08451482  1
  Hg  Hg103  1  0.00575434  0.16679755  0.58167230  1
  Hg  Hg104  1  0.33790322  0.00158122  0.00564552  1
  Hg  Hg105  1  0.34223987  0.50301372  0.50533896  1
  Hg  Hg106  1  0.66420417  0.00194917  0.00695805  1
  Hg  Hg107  1  0.66538241  0.50241073  0.50719941  1
  Hg  Hg108  1  0.80937207  0.99205356  0.66644974  1
loop_
_geom_bond_atom_site_label_1
_geom_bond_atom_site_label_2
_geom_bond_distance
_geom_bond_site_symmetry_2
Sr12 Sr14 4.112177 1_455
Hg0 Hg105 3.030708 1_555
Hg0 Hg21 3.053353 1_555
Hg0 Hg60 3.206067 1_555
Hg0 Hg42 3.240206 1_555
Hg0 Hg72 3.251983 1_555
Hg0 Hg6 3.331203 1_555
Hg0 Hg84 3.402707 1_555
Hg0 Sr6 3.440926 1_555
Hg0 Sr0 3.552563 1_555
Hg0 Sr3 3.759750 1_555
Hg1 Hg104 3.043895 1_556
Hg1 Hg20 3.067428 1_556
Hg1 Hg61 3.197803 1_555
Hg1 Hg73 3.234576 1_555
Hg1 Hg43 3.238773 1_555
Hg1 Hg7 3.246756 1_555
Hg1 Hg85 3.433058 1_456
Hg1 Sr7 3.453180 1_555
Hg1 Sr1 3.618711 1_555
Hg1 Sr2 3.722257 1_556
Hg2 Hg22 2.941999 1_555
Hg2 Hg62 3.091775 1_565
Hg2 Hg8 3.120208 1_555
Hg2 Hg74 3.203076 1_565
Hg2 Sr2 3.393637 1_565
Hg2 Hg86 3.435716 1_555
Hg2 Hg44 3.639726 1_555
Hg2 Sr8 3.656592 1_555
Hg2 Hg64 3.808654 1_555
Hg2 Sr4 3.815616 1_555
Hg3 Hg63 3.065404 1_555
Hg3 Hg9 3.159699 1_555
Hg3 Hg75 3.188470 1_555
Hg3 Sr3 3.426472 1_555
Hg3 Hg87 3.510525 1_455
Hg3 Sr9 3.612260 1_555
Hg3 Hg45 3.654416 1_555
Hg3 Sr5 3.707293 1_555
Hg3 Hg65 3.808118 1_555
Hg4 Hg76 3.085520 1_555
Hg4 Hg60 3.257397 1_555
Hg4 Hg88 3.323947 1_555
Hg4 Hg65 3.335756 1_555
Hg4 Sr0 3.432196 1_555
Hg4 Hg46 3.514670 1_555
Hg4 Sr10 3.609501 1_555
Hg4 Sr5 3.772487 1_555
Hg5 Hg77 3.086852 1_555
Hg5 Hg61 3.209952 1_565
Hg5 Hg89 3.341714 1_555
Hg5 Hg64 3.396998 1_556
Hg5 Sr1 3.438963 1_565
Hg5 Sr11 3.631850 1_555
Hg5 Sr4 3.697282 1_556
Hg6 Hg66 3.259281 1_555
Hg6 Hg78 3.274938 1_555
Hg6 Hg84 3.356617 1_655
Hg6 Sr6 3.435813 1_555
Hg6 Sr0 3.634054 1_555
Hg6 Sr3 3.704956 1_555
Hg6 Hg69 3.894301 1_555
Hg7 Hg79 3.233873 1_555
Hg7 Sr7 3.432439 1_555
Hg7 Hg85 3.449962 1_556
Hg7 Sr1 3.611521 1_555
Hg7 Sr2 3.672895 1_556
Hg8 Hg80 3.180799 1_565
Hg8 Sr2 3.386473 1_565
Hg8 Hg86 3.460727 1_655
Hg8 Sr8 3.641677 1_555
Hg8 Sr4 3.814057 1_555
Hg9 Sr3 3.506585 1_555
Hg9 Sr9 3.614958 1_555
Hg9 Sr5 3.766734 1_555
Hg10 Hg82 3.099228 1_555
Hg10 Hg24 3.194205 1_555
Hg10 Hg66 3.202660 1_555
Hg10 Hg107 3.222886 1_555
Hg10 Hg4 3.246803 1_555
Hg10 Hg71 3.355754 1_555
Hg10 Hg88 3.378781 1_655
Hg10 Sr0 3.424360 1_555
Hg10 Hg52 3.517760 1_555
Hg10 Sr10 3.611242 1_555
Hg10 Sr5 3.767720 1_555
Hg11 Hg83 3.097364 1_555
Hg11 Hg67 3.207979 1_565
Hg11 Hg25 3.266147 1_555
Hg11 Hg5 3.268088 1_555
Hg11 Hg89 3.335736 1_655
Hg11 Hg70 3.363999 1_556
Hg11 Sr1 3.431456 1_565
Hg11 Hg53 3.462194 1_555
Hg11 Sr11 3.628351 1_555
Hg11 Sr4 3.756431 1_556
Hg12 Hg78 3.124694 1_545
Hg12 Hg72 3.137702 1_545
Hg12 Hg76 3.239768 1_555
Hg12 Hg82 3.273842 1_555
Hg12 Hg74 3.290885 1_555
Hg12 Hg80 3.293756 1_555
Hg12 Hg16 3.307341 1_545
Hg12 Hg14 3.334637 1_545
Hg12 Sr10 3.340007 1_555
Hg12 Sr8 3.597313 1_545
Hg12 Sr6 3.731159 1_545
Hg13 Hg79 3.144733 1_555
Hg13 Hg73 3.153258 1_555
Hg13 Hg83 3.238104 1_555
Hg13 Hg77 3.264757 1_555
Hg13 Hg75 3.296786 1_555
Hg13 Hg15 3.321431 1_555
Hg13 Hg17 3.325634 1_555
Hg13 Sr11 3.336709 1_555
Hg13 Hg81 3.353575 1_555
Hg13 Sr9 3.558228 1_555
Hg13 Sr7 3.690290 1_555
Hg14 Hg46 3.036034 1_565
Hg14 Hg44 3.107352 1_555
Hg14 Hg72 3.188245 1_555
Hg14 Hg42 3.206302 1_555
Hg14 Hg16 3.285208 1_455
Hg14 Hg74 3.402096 1_565
Hg14 Hg76 3.425710 1_565
Hg14 Sr15 3.426298 1_455
Hg14 Sr19 3.618685 1_465
Hg14 Sr17 3.751879 1_465
Hg15 Hg47 3.021990 1_555
Hg15 Hg45 3.085301 1_555
Hg15 Hg73 3.192895 1_555
Hg15 Hg43 3.213653 1_555
Hg15 Hg17 3.281690 1_455
Hg15 Sr16 3.416720 1_455
Hg15 Hg77 3.432768 1_555
Hg15 Hg75 3.467722 1_555
Hg15 Sr20 3.583003 1_455
Hg15 Sr18 3.773247 1_555
Hg16 Hg52 3.049117 1_565
Hg16 Hg50 3.101924 1_555
Hg16 Hg48 3.202432 1_555
Hg16 Hg78 3.229760 1_555
Hg16 Sr15 3.403658 1_555
Hg16 Hg80 3.426118 1_565
Hg16 Hg82 3.450189 1_565
Hg16 Sr19 3.629570 1_565
Hg16 Sr17 3.738298 1_565
Hg17 Hg53 3.024589 1_555
Hg17 Hg51 3.079812 1_555
Hg17 Hg79 3.195626 1_555
Hg17 Hg49 3.234952 1_555
Hg17 Sr16 3.408841 1_555
Hg17 Hg83 3.436324 1_555
Hg17 Hg81 3.479147 1_555
Hg17 Sr20 3.576921 1_555
Hg17 Sr18 3.772834 1_655
Hg18 Hg4 3.187396 1_555
Hg18 Hg30 3.210723 1_555
Hg18 Hg98 3.307966 1_555
Hg18 Hg46 3.325974 1_555
Hg18 Sr10 3.355486 1_555
Hg18 Hg54 3.366188 1_555
Hg18 Hg90 3.391528 1_455
Hg18 Hg32 3.518174 1_555
Hg18 Sr0 3.570286 1_555
Hg18 Sr12 3.608744 1_555
Hg18 Hg60 3.650680 1_555
Hg18 Hg56 3.962373 1_555
Hg18 Hg24 4.010511 1_555
Hg19 Hg31 3.175505 1_565
Hg19 Hg5 3.212963 1_555
Hg19 Hg99 3.331267 1_465
Hg19 Sr11 3.353011 1_555
Hg19 Hg47 3.360156 1_555
Hg19 Hg91 3.382362 1_455
Hg19 Hg55 3.493778 1_565
Hg19 Sr1 3.505052 1_565
Hg19 Hg33 3.530809 1_555
Hg19 Hg61 3.600144 1_565
Hg19 Sr13 3.628638 1_555
Hg19 Hg57 3.843233 1_555
Hg19 Hg25 3.987434 1_555
Hg20 Hg92 3.326090 1_455
Hg20 Hg56 3.344384 1_555
Hg20 Sr2 3.389313 1_555
Hg20 Sr12 3.421825 1_555
Hg20 Hg34 3.448962 1_555
Hg20 Hg62 3.486036 1_555
Hg20 Hg58 3.494932 1_555
Hg20 Sr7 3.566613 1_554
Hg20 Hg43 3.621265 1_554
Hg20 Hg85 3.730181 1_455
Hg20 Hg32 3.745979 1_555
Hg20 Hg26 3.964111 1_555
Hg21 Hg93 3.314894 1_455
Hg21 Hg57 3.336052 1_555
Hg21 Sr3 3.409039 1_555
Hg21 Sr13 3.467168 1_555
Hg21 Hg63 3.489447 1_555
Hg21 Hg59 3.501220 1_565
Hg21 Hg35 3.528712 1_565
Hg21 Sr6 3.624028 1_555
Hg21 Hg33 3.663116 1_555
Hg21 Hg42 3.684568 1_555
Hg21 Hg84 3.701831 1_555
Hg21 Hg27 4.003340 1_555
Hg22 Hg58 3.240746 1_555
Hg22 Sr12 3.347159 1_555
Hg22 Sr8 3.464964 1_555
Hg22 Hg94 3.496546 1_455
Hg22 Hg44 3.512786 1_555
Hg22 Hg34 3.517221 1_555
Hg22 Hg54 3.672883 1_555
Hg22 Sr4 3.719087 1_555
Hg22 Hg64 3.808957 1_555
Hg22 Hg86 3.816807 1_555
Hg22 Hg28 3.955146 1_555
Hg23 Hg3 2.939307 1_555
Hg23 Hg59 3.217005 1_555
Hg23 Sr13 3.383331 1_545
Hg23 Hg95 3.431745 1_455
Hg23 Hg45 3.499393 1_555
Hg23 Hg55 3.501355 1_555
Hg23 Sr9 3.512867 1_555
Hg23 Hg35 3.568051 1_555
Hg23 Sr5 3.743752 1_555
Hg23 Hg87 3.839774 1_455
Hg23 Hg31 3.843909 1_555
Hg23 Hg65 3.870535 1_555
Hg24 Hg36 3.188386 1_555
Hg24 Hg98 3.342069 1_655
Hg24 Hg54 3.350560 1_555
Hg24 Hg52 3.356419 1_555
Hg24 Sr10 3.361945 1_555
Hg24 Hg90 3.393545 1_555
Hg24 Hg38 3.521259 1_555
Hg24 Hg66 3.567249 1_555
Hg24 Sr0 3.574032 1_555
Hg24 Sr14 3.594931 1_555
Hg24 Hg56 3.951998 1_555
Hg25 Hg37 3.122688 1_565
Hg25 Hg99 3.320263 1_565
Hg25 Sr11 3.350857 1_555
Hg25 Hg91 3.364912 1_555
Hg25 Hg39 3.410438 1_555
Hg25 Hg55 3.410898 1_565
Hg25 Hg53 3.414696 1_555
Hg25 Sr1 3.525132 1_565
Hg25 Hg67 3.729326 1_565
Hg25 Hg57 3.838031 1_555
Hg26 Hg7 3.048922 1_554
Hg26 Hg92 3.306566 1_555
Hg26 Hg56 3.327188 1_555
Hg26 Sr2 3.363111 1_555
Hg26 Sr14 3.428641 1_555
Hg26 Hg58 3.490015 1_555
Hg26 Hg40 3.491022 1_555
Hg26 Hg68 3.530293 1_555
Hg26 Sr7 3.556750 1_554
Hg26 Hg49 3.628700 1_554
Hg26 Hg85 3.723800 1_555
Hg26 Hg38 3.760830 1_555
Hg27 Hg6 3.158990 1_555
Hg27 Hg93 3.294075 1_555
Hg27 Hg57 3.299323 1_555
Hg27 Hg59 3.372307 1_565
Hg27 Hg41 3.385948 1_565
Hg27 Sr3 3.437770 1_555
Hg27 Sr6 3.533764 1_555
Hg27 Hg39 3.592646 1_555
Hg27 Hg69 3.612735 1_555
Hg27 Hg48 3.745684 1_555
Hg27 Hg84 3.890168 1_655
Hg28 Hg8 2.931439 1_555
Hg28 Hg58 3.230164 1_555
Hg28 Sr14 3.347181 1_555
Hg28 Hg40 3.472112 1_555
Hg28 Hg94 3.492174 1_555
Hg28 Sr8 3.506854 1_555
Hg28 Hg50 3.530857 1_555
Hg28 Sr4 3.694192 1_555
Hg28 Hg54 3.724271 1_555
Hg28 Hg70 3.783680 1_555
Hg28 Hg86 3.819491 1_655
Hg29 Hg9 3.031129 1_555
Hg29 Hg59 3.235728 1_555
Hg29 Hg95 3.272983 1_555
Hg29 Hg41 3.387617 1_555
Hg29 Hg55 3.432731 1_555
Hg29 Hg51 3.568787 1_555
Hg29 Sr9 3.586838 1_555
Hg29 Sr5 3.797046 1_555
Hg29 Hg37 3.839108 1_555
Hg29 Hg87 3.899241 1_555
Hg29 Hg71 3.941727 1_555
Hg30 Hg72 3.014309 1_555
Hg30 Hg54 3.043813 1_555
Hg30 Hg98 3.086387 1_555
Hg30 Hg44 3.141932 1_555
Hg30 Hg94 3.364910 1_455
Hg30 Sr8 3.467076 1_555
Hg30 Sr15 3.572523 1_455
Hg30 Hg60 3.629206 1_555
Hg30 Sr0 3.683916 1_555
Hg30 Sr12 3.787905 1_555
Hg31 Hg73 3.028054 1_555
Hg31 Hg55 3.090166 1_555
Hg31 Hg99 3.118693 1_455
Hg31 Hg45 3.159155 1_555
Hg31 Hg95 3.419806 1_455
Hg31 Sr9 3.484327 1_555
Hg31 Sr16 3.590343 1_455
Hg31 Hg61 3.625708 1_555
Hg31 Sr1 3.649961 1_555
Hg31 Sr13 3.785303 1_545
Hg32 Hg74 2.931493 1_555
Hg32 Hg56 2.936276 1_555
Hg32 Hg90 3.277892 1_455
Hg32 Hg62 3.394527 1_555
Hg32 Hg46 3.433879 1_555
Hg32 Sr12 3.539071 1_555
Hg32 Sr17 3.543024 1_455
Hg32 Sr10 3.625001 1_555
Hg32 Sr2 3.826515 1_555
Hg33 Hg75 2.932793 1_555
Hg33 Hg57 2.948072 1_555
Hg33 Hg91 3.258557 1_455
Hg33 Hg63 3.431539 1_555
Hg33 Hg47 3.456959 1_555
Hg33 Sr18 3.463807 1_555
Hg33 Sr13 3.557385 1_555
Hg33 Sr11 3.635450 1_555
Hg33 Sr3 3.827622 1_555
Hg34 Hg58 3.080387 1_555
Hg34 Hg77 3.163645 1_554
Hg34 Hg43 3.202349 1_554
Hg34 Hg92 3.219113 1_455
Hg34 Hg64 3.293892 1_555
Hg34 Sr7 3.454501 1_554
Hg34 Sr4 3.550120 1_555
Hg34 Sr20 3.596936 1_454
Hg34 Sr12 3.970123 1_555
Hg35 Hg59 3.037003 1_555
Hg35 Hg76 3.152241 1_555
Hg35 Hg42 3.176907 1_545
Hg35 Hg93 3.229171 1_445
Hg35 Hg65 3.307875 1_555
Hg35 Sr6 3.414188 1_545
Hg35 Sr19 3.553598 1_455
Hg35 Sr5 3.555803 1_555
Hg36 Hg78 3.015101 1_555
Hg36 Hg54 3.056547 1_555
Hg36 Hg98 3.118499 1_655
Hg36 Hg50 3.137416 1_555
Hg36 Hg94 3.348088 1_555
Hg36 Sr8 3.450959 1_555
Hg36 Sr15 3.573879 1_555
Hg36 Hg66 3.585019 1_555
Hg36 Sr0 3.719849 1_555
Hg36 Sr14 3.778049 1_555
Hg37 Hg79 3.043124 1_555
Hg37 Hg55 3.083324 1_555
Hg37 Hg99 3.086135 1_555
Hg37 Hg51 3.182446 1_555
Hg37 Hg95 3.384518 1_555
Hg37 Sr9 3.473654 1_555
Hg37 Sr16 3.588706 1_555
Hg37 Sr1 3.592315 1_555
Hg37 Hg67 3.619256 1_555
Hg38 Hg80 2.927970 1_555
Hg38 Hg56 2.939482 1_555
Hg38 Hg90 3.248415 1_555
Hg38 Hg52 3.429665 1_555
Hg38 Hg68 3.430332 1_555
Hg38 Sr17 3.515165 1_555
Hg38 Sr14 3.539549 1_555
Hg38 Sr10 3.605011 1_555
Hg38 Sr2 3.837069 1_555
Hg39 Hg57 2.967061 1_555
Hg39 Hg81 2.988529 1_555
Hg39 Hg91 3.222719 1_555
Hg39 Hg69 3.417509 1_555
Hg39 Hg53 3.532318 1_555
Hg39 Sr18 3.574686 1_655
Hg39 Sr11 3.650463 1_555
Hg39 Sr3 3.781911 1_555
Hg40 Hg58 3.075042 1_555
Hg40 Hg83 3.156216 1_554
Hg40 Hg49 3.208528 1_554
Hg40 Hg92 3.226230 1_555
Hg40 Hg70 3.262242 1_555
Hg40 Sr7 3.431498 1_554
Hg40 Sr4 3.517806 1_555
Hg40 Sr20 3.587169 1_554
Hg40 Sr14 4.007575 1_555
Hg41 Hg59 3.099033 1_555
Hg41 Hg82 3.180879 1_555
Hg41 Hg93 3.208158 1_545
Hg41 Hg48 3.266150 1_545
Hg41 Hg71 3.288112 1_555
Hg41 Sr6 3.433940 1_545
Hg41 Sr5 3.495688 1_555
Hg41 Sr19 3.616617 1_555
Hg42 Hg72 3.139394 1_555
Hg42 Hg93 3.270167 1_455
Hg42 Hg84 3.296784 1_555
Hg42 Hg48 3.332414 1_455
Hg42 Sr6 3.389567 1_555
Hg42 Sr19 3.396919 1_465
Hg42 Sr15 3.473463 1_455
Hg42 Hg76 3.663464 1_565
Hg43 Hg73 3.195358 1_555
Hg43 Hg49 3.266831 1_455
Hg43 Hg85 3.283013 1_456
Hg43 Hg92 3.310661 1_456
Hg43 Sr7 3.389027 1_555
Hg43 Sr20 3.390035 1_455
Hg43 Sr16 3.476030 1_455
Hg43 Hg77 3.678560 1_555
Hg44 Hg94 3.080442 1_455
Hg44 Hg74 3.090152 1_565
Hg44 Hg50 3.220347 1_455
Hg44 Sr17 3.406458 1_465
Hg44 Sr8 3.411440 1_555
Hg44 Hg86 3.528514 1_555
Hg44 Sr15 3.777632 1_455
Hg45 Hg75 3.094617 1_555
Hg45 Hg95 3.103955 1_455
Hg45 Hg51 3.230974 1_455
Hg45 Sr9 3.416691 1_555
Hg45 Sr18 3.421427 1_555
Hg45 Hg87 3.550510 1_455
Hg45 Sr16 3.771613 1_455
Hg46 Hg90 3.115189 1_455
Hg46 Hg52 3.254802 1_455
Hg46 Hg88 3.261611 1_555
Hg46 Hg76 3.299705 1_555
Hg46 Sr10 3.384289 1_555
Hg46 Sr17 3.610355 1_455
Hg46 Sr19 3.678831 1_455
Hg46 Hg74 3.714512 1_555
Hg47 Hg91 3.097430 1_455
Hg47 Hg77 3.227406 1_555
Hg47 Hg89 3.283713 1_555
Hg47 Hg53 3.334050 1_455
Hg47 Sr11 3.343765 1_555
Hg47 Hg5 3.486220 1_555
Hg47 Sr18 3.628116 1_555
Hg47 Sr20 3.641094 1_455
Hg47 Hg75 3.733318 1_555
Hg48 Hg78 3.174590 1_555
Hg48 Hg6 3.235402 1_555
Hg48 Hg93 3.245894 1_555
Hg48 Hg84 3.305024 1_655
Hg48 Sr6 3.367413 1_555
Hg48 Sr19 3.379145 1_565
Hg48 Sr15 3.462331 1_555
Hg48 Hg82 3.637644 1_565
Hg49 Hg79 3.187837 1_555
Hg49 Hg85 3.251558 1_556
Hg49 Hg92 3.261619 1_556
Hg49 Hg7 3.283298 1_555
Hg49 Sr20 3.374381 1_555
Hg49 Sr7 3.401866 1_555
Hg49 Sr16 3.468878 1_555
Hg49 Hg83 3.714101 1_555
Hg50 Hg94 3.067679 1_555
Hg50 Hg80 3.088741 1_565
Hg50 Sr8 3.389062 1_555
Hg50 Sr17 3.410639 1_565
Hg50 Hg86 3.529539 1_655
Hg50 Hg8 3.620108 1_555
Hg50 Sr15 3.789910 1_555
Hg51 Hg95 3.049392 1_555
Hg51 Hg81 3.120655 1_555
Hg51 Sr9 3.367823 1_555
Hg51 Sr18 3.452404 1_655
Hg51 Hg9 3.526365 1_555
Hg51 Hg87 3.558739 1_555
Hg51 Sr16 3.760692 1_555
Hg52 Hg90 3.122750 1_555
Hg52 Hg88 3.272782 1_655
Hg52 Hg82 3.280064 1_555
Hg52 Sr10 3.364632 1_555
Hg52 Sr17 3.619995 1_555
Hg52 Sr19 3.653979 1_555
Hg52 Hg80 3.756739 1_555
Hg53 Hg91 3.068263 1_555
Hg53 Hg83 3.240849 1_555
Hg53 Hg89 3.281233 1_655
Hg53 Sr11 3.356211 1_555
Hg53 Sr20 3.613362 1_555
Hg53 Sr18 3.622924 1_655
Hg53 Hg81 3.719478 1_555
Hg54 Hg56 3.098859 1_555
Hg54 Sr8 3.387534 1_555
Hg54 Sr12 3.429622 1_555
Hg54 Sr14 3.434470 1_555
Hg54 Hg58 3.438099 1_555
Hg54 Sr0 4.073836 1_555
Hg55 Hg57 2.997714 1_545
Hg55 Hg59 3.275975 1_555
Hg55 Sr9 3.359249 1_555
Hg55 Sr13 3.601622 1_545
Hg55 Sr1 4.137391 1_555
Hg56 Hg58 3.172320 1_555
Hg56 Sr14 3.357378 1_555
Hg56 Sr12 3.376400 1_555
Hg56 Sr2 3.561474 1_555
Hg56 Sr10 4.084371 1_555
Hg57 Hg59 3.137966 1_565
Hg57 Sr13 3.469749 1_555
Hg57 Sr3 3.624513 1_555
Hg57 Sr11 4.032899 1_555
Hg58 Sr14 3.567538 1_555
Hg58 Sr12 3.578837 1_555
Hg58 Sr4 3.605364 1_555
Hg58 Sr7 3.648000 1_554
Hg59 Sr5 3.578943 1_555
Hg59 Sr6 3.589781 1_545
Hg59 Sr13 3.729672 1_545
Hg60 Hg98 3.239606 1_555
Hg60 Hg97 3.241077 1_455
Hg60 Hg88 3.252240 1_555
Hg60 Hg66 3.322714 1_455
Hg60 Sr0 3.363864 1_555
Hg60 Sr15 3.471310 1_455
Hg60 Hg72 3.798024 1_555
Hg60 Hg84 3.815913 1_555
Hg61 Hg89 3.236185 1_545
Hg61 Hg99 3.237841 1_455
Hg61 Hg96 3.263082 1_555
Hg61 Hg67 3.336196 1_455
Hg61 Sr1 3.381230 1_555
Hg61 Sr16 3.502339 1_455
Hg61 Hg73 3.813966 1_555
Hg61 Hg85 3.906040 1_456
Hg62 Hg68 3.197682 1_455
Hg62 Hg96 3.274610 1_554
Hg62 Sr2 3.388695 1_555
Hg62 Hg85 3.421595 1_455
Hg62 Hg86 3.448422 1_545
Hg62 Sr17 3.623320 1_455
Hg63 Hg97 3.258057 1_455
Hg63 Hg69 3.277155 1_455
Hg63 Hg87 3.373062 1_455
Hg63 Sr3 3.388988 1_555
Hg63 Hg84 3.505811 1_555
Hg63 Sr18 3.651022 1_555
Hg64 Hg96 3.194386 1_564
Hg64 Hg70 3.235489 1_455
Hg64 Sr4 3.397637 1_555
Hg64 Hg86 3.422894 1_555
Hg64 Hg89 3.543635 1_554
Hg64 Sr20 3.610649 1_454
Hg64 Hg77 3.834566 1_554
Hg65 Hg97 3.201803 1_455
Hg65 Hg71 3.269003 1_455
Hg65 Sr5 3.389629 1_555
Hg65 Hg87 3.474750 1_455
Hg65 Hg88 3.545703 1_555
Hg65 Sr19 3.608336 1_455
Hg65 Hg76 3.860437 1_555
Hg66 Hg98 3.216515 1_655
Hg66 Hg88 3.256899 1_655
Hg66 Hg97 3.288638 1_555
Hg66 Sr0 3.365464 1_555
Hg66 Sr15 3.489259 1_555
Hg66 Hg78 3.784125 1_555
Hg66 Hg84 3.899606 1_655
Hg67 Hg7 3.191435 1_555
Hg67 Hg96 3.245797 1_655
Hg67 Hg99 3.252634 1_555
Hg67 Hg89 3.275941 1_645
Hg67 Sr1 3.386905 1_555
Hg67 Sr16 3.484436 1_555
Hg67 Hg79 3.806714 1_555
Hg67 Hg85 3.845438 1_556
Hg68 Hg8 3.104077 1_545
Hg68 Hg96 3.266399 1_654
Hg68 Hg86 3.400303 1_645
Hg68 Sr2 3.409848 1_555
Hg68 Hg85 3.423278 1_555
Hg68 Sr17 3.585968 1_555
Hg69 Hg9 3.154262 1_555
Hg69 Hg97 3.276261 1_555
Hg69 Sr3 3.344049 1_555
Hg69 Hg87 3.413578 1_555
Hg69 Hg84 3.444451 1_655
Hg69 Sr18 3.609291 1_655
Hg70 Hg96 3.235318 1_664
Hg70 Sr4 3.403295 1_555
Hg70 Hg86 3.473249 1_655
Hg70 Hg89 3.543152 1_654
Hg70 Sr20 3.576526 1_554
Hg70 Hg83 3.823069 1_554
Hg70 Hg8 3.837620 1_555
Hg71 Hg97 3.190010 1_555
Hg71 Sr5 3.401765 1_555
Hg71 Hg87 3.461386 1_555
Hg71 Hg88 3.543847 1_655
Hg71 Sr19 3.562529 1_555
Hg71 Hg9 3.782149 1_555
Hg71 Hg82 3.811038 1_555
Hg72 Hg78 3.055938 1_555
Hg72 Sr0 3.437279 1_555
Hg72 Sr15 3.453990 1_455
Hg72 Sr6 3.695863 1_555
Hg72 Sr8 3.844862 1_555
Hg73 Hg79 3.052303 1_555
Hg73 Sr1 3.440779 1_555
Hg73 Sr16 3.475038 1_455
Hg73 Sr7 3.658635 1_555
Hg73 Sr9 3.791325 1_555
Hg74 Hg80 3.041768 1_555
Hg74 Sr8 3.410111 1_545
Hg74 Sr17 3.490785 1_455
Hg74 Sr10 3.542025 1_555
Hg75 Hg81 3.055292 1_555
Hg75 Sr9 3.385167 1_555
Hg75 Sr18 3.498471 1_555
Hg75 Sr11 3.539123 1_555
Hg75 Sr3 4.106131 1_555
Hg76 Hg82 3.111242 1_555
Hg76 Sr19 3.476585 1_455
Hg76 Sr6 3.508193 1_545
Hg76 Sr10 3.607528 1_555
Hg76 Sr5 3.688950 1_555
Hg77 Hg83 3.110380 1_555
Hg77 Sr20 3.435719 1_455
Hg77 Sr7 3.488390 1_555
Hg77 Sr4 3.600945 1_556
Hg77 Sr11 3.687821 1_555
Hg78 Sr0 3.417895 1_555
Hg78 Sr15 3.478015 1_555
Hg78 Sr6 3.675092 1_555
Hg78 Sr8 3.832709 1_555
Hg79 Sr1 3.451488 1_555
Hg79 Sr16 3.464284 1_555
Hg79 Sr7 3.618908 1_555
Hg79 Sr9 3.810804 1_555
Hg80 Sr8 3.401513 1_545
Hg80 Sr17 3.488577 1_555
Hg80 Sr10 3.543067 1_555
Hg80 Sr2 4.154816 1_555
Hg81 Hg9 3.190544 1_555
Hg81 Sr9 3.453550 1_555
Hg81 Sr18 3.460638 1_655
Hg81 Sr11 3.513532 1_555
Hg81 Sr3 4.038732 1_555
Hg82 Sr19 3.415223 1_555
Hg82 Sr6 3.513656 1_545
Hg82 Sr10 3.636363 1_555
Hg82 Sr5 3.666490 1_555
Hg83 Sr20 3.450036 1_555
Hg83 Sr7 3.489496 1_555
Hg83 Sr4 3.614005 1_556
Hg83 Sr11 3.640878 1_555
Hg84 Hg97 2.988998 1_455
Hg84 Hg93 3.095706 1_455
Hg84 Sr15 3.988641 1_455
Hg85 Hg96 2.991613 1_654
Hg85 Hg92 3.119604 1_555
Hg85 Sr16 4.024806 1_554
Hg86 Hg96 3.543980 1_564
Hg86 Sr17 3.631120 1_465
Hg86 Hg94 3.639944 1_455
Hg87 Hg9 3.319459 1_555
Hg87 Hg97 3.543356 1_555
Hg87 Hg95 3.582517 1_555
Hg87 Sr18 3.646660 1_655
Hg88 Sr19 3.374393 1_455
Hg88 Hg97 3.434435 1_455
Hg88 Hg98 3.645297 1_555
Hg89 Sr20 3.371661 1_455
Hg89 Hg96 3.430594 1_565
Hg89 Hg99 3.648563 1_465
Hg89 Hg91 3.862657 1_455
Hg90 Hg98 2.961374 1_655
Hg90 Sr14 3.618106 1_555
Hg90 Sr12 3.625643 1_655
Hg90 Sr17 3.639949 1_555
Hg91 Hg99 2.959037 1_565
Hg91 Sr13 3.563502 1_655
Hg91 Sr18 3.565836 1_655
Hg92 Sr14 3.694556 1_555
Hg92 Sr12 3.710215 1_655
Hg93 Sr13 3.669506 1_655
Hg94 Hg98 3.210882 1_655
Hg94 Sr12 3.376751 1_655
Hg94 Sr14 3.377201 1_555
Hg95 Sr13 3.290511 1_645
Hg95 Hg99 3.295979 1_555
Hg98 Sr15 3.445794 1_455
Hg99 Sr16 3.446229 1_555
Hg99 Sr13 3.937556 1_645
Hg100 Hg92 3.006869 1_555
Hg100 Hg68 3.078101 1_555
Hg100 Hg62 3.082000 1_655
Hg100 Hg90 3.083651 1_555
Hg100 Hg38 3.255056 1_555
Hg100 Hg32 3.274383 1_655
Hg100 Sr14 3.491592 1_555
Hg100 Sr12 3.503216 1_655
Hg100 Hg26 3.522702 1_555
Hg100 Hg20 3.537699 1_655
Hg100 Hg85 3.564262 1_555
Hg100 Sr17 3.651516 1_555
Hg101 Hg69 3.033812 1_455
Hg101 Hg93 3.052439 1_455
Hg101 Hg63 3.144895 1_555
Hg101 Hg33 3.216091 1_555
Hg101 Hg39 3.220933 1_455
Hg101 Hg91 3.229764 1_455
Hg101 Sr13 3.385578 1_555
Hg101 Hg21 3.402605 1_555
Hg101 Hg108 3.418419 1_455
Hg101 Hg27 3.528876 1_455
Hg101 Hg84 3.536871 1_555
Hg101 Sr18 3.623809 1_555
Hg102 Hg94 3.047431 1_555
Hg102 Hg92 3.059369 1_555
Hg102 Hg34 3.178233 1_655
Hg102 Hg40 3.202949 1_555
Hg102 Hg86 3.226937 1_655
Hg102 Hg64 3.268385 1_655
Hg102 Hg70 3.282534 1_555
Hg102 Hg28 3.332528 1_555
Hg102 Hg22 3.374571 1_655
Hg102 Sr12 3.777354 1_655
Hg102 Sr14 3.786088 1_555
Hg103 Hg95 3.073570 1_455
Hg103 Hg93 3.089855 1_445
Hg103 Hg35 3.129175 1_555
Hg103 Hg41 3.188052 1_455
Hg103 Hg65 3.236295 1_555
Hg103 Hg87 3.246479 1_455
Hg103 Hg71 3.268653 1_455
Hg103 Hg23 3.319307 1_555
Hg103 Hg29 3.350994 1_455
Hg103 Sr13 3.707317 1_545
Hg103 Hg108 3.840037 1_445
Hg103 Sr19 3.976969 1_455
Hg104 Hg64 3.102332 1_545
Hg104 Hg5 3.192413 1_544
Hg104 Hg2 3.217111 1_545
Hg104 Hg106 3.238488 1_555
Hg104 Hg62 3.314102 1_555
Hg104 Hg96 3.343769 1_554
Hg104 Sr2 3.430662 1_555
Hg104 Hg61 3.451189 1_554
Hg104 Sr4 3.528822 1_545
Hg104 Sr1 4.099227 1_554
Hg105 Hg65 3.087745 1_555
Hg105 Hg4 3.202620 1_555
Hg105 Hg107 3.207329 1_555
Hg105 Hg63 3.236778 1_555
Hg105 Hg3 3.260779 1_555
Hg105 Hg97 3.416248 1_455
Hg105 Hg60 3.458573 1_555
Hg105 Sr3 3.468375 1_555
Hg105 Sr5 3.535866 1_555
Hg105 Sr0 3.968377 1_555
Hg106 Hg7 3.037310 1_554
Hg106 Hg70 3.091727 1_545
Hg106 Hg8 3.191823 1_545
Hg106 Hg11 3.240709 1_544
Hg106 Hg68 3.285800 1_555
Hg106 Hg96 3.362280 1_654
Hg106 Sr2 3.403954 1_555
Hg106 Hg67 3.448382 1_554
Hg106 Sr4 3.551865 1_545
Hg106 Sr1 4.129670 1_554
Hg107 Hg6 3.052407 1_555
Hg107 Hg71 3.068858 1_555
Hg107 Hg9 3.268326 1_555
Hg107 Hg69 3.273834 1_555
Hg107 Hg97 3.320546 1_555
Hg107 Sr3 3.428689 1_555
Hg107 Hg66 3.494733 1_555
Hg107 Sr5 3.548957 1_555
Hg107 Sr0 4.060734 1_555
Hg108 Hg29 3.221538 1_565
Hg108 Hg27 3.290005 1_555
Hg108 Hg95 3.315295 1_565
Hg108 Hg39 3.362168 1_555
Hg108 Hg25 3.507962 1_555
Hg108 Hg57 3.514971 1_555
Hg108 Hg55 3.534463 1_565
Hg108 Hg91 3.566313 1_555
Hg108 Hg93 3.685744 1_555
Hg108 Sr13 3.696500 1_655
Hg108 Hg59 3.801249 1_565
Hg108 Hg37 3.811148 1_565
Hg108 Hg99 3.962915 1_565
