# generated using pymatgen
data_K2Ni2(SO4)3
_symmetry_space_group_name_H-M   'P 1'
_cell_length_a   9.95645900
_cell_length_b   9.95645900
_cell_length_c   9.95645900
_cell_angle_alpha   90.00000000
_cell_angle_beta   90.00000000
_cell_angle_gamma   90.00000000
_symmetry_Int_Tables_number   1
_chemical_formula_structural   K2Ni2(SO4)3
_chemical_formula_sum   'K8 Ni8 S12 O48'
_cell_volume   986.99449201
_cell_formula_units_Z   4
loop_
 _symmetry_equiv_pos_site_id
 _symmetry_equiv_pos_as_xyz
  1  'x, y, z'
loop_
 _atom_site_type_symbol
 _atom_site_label
 _atom_site_symmetry_multiplicity
 _atom_site_fract_x
 _atom_site_fract_y
 _atom_site_fract_z
 _atom_site_occupancy
  K  K0  1  0.68605900  0.18605900  0.31394100  1
  K  K1  1  0.31394100  0.68605900  0.18605900  1
  K  K2  1  0.94960400  0.55039600  0.44960400  1
  K  K3  1  0.18605900  0.31394100  0.68605900  1
  K  K4  1  0.05039600  0.05039600  0.05039600  1
  K  K5  1  0.44960400  0.94960400  0.55039600  1
  K  K6  1  0.55039600  0.44960400  0.94960400  1
  K  K7  1  0.81394100  0.81394100  0.81394100  1
  Ni  Ni0  1  0.33615400  0.33615400  0.33615400  1
  Ni  Ni1  1  0.16384600  0.66384600  0.83615400  1
  Ni  Ni2  1  0.83615400  0.16384600  0.66384600  1
  Ni  Ni3  1  0.66384600  0.83615400  0.16384600  1
  Ni  Ni4  1  0.59231300  0.59231300  0.59231300  1
  Ni  Ni5  1  0.09231300  0.90768700  0.40768700  1
  Ni  Ni6  1  0.40768700  0.09231300  0.90768700  1
  Ni  Ni7  1  0.90768700  0.40768700  0.09231300  1
  S  S0  1  0.28210700  0.62178600  0.52232600  1
  S  S1  1  0.78210700  0.87821400  0.47767400  1
  S  S2  1  0.71789300  0.12178600  0.97767400  1
  S  S3  1  0.87821400  0.47767400  0.78210700  1
  S  S4  1  0.97767400  0.71789300  0.12178600  1
  S  S5  1  0.47767400  0.78210700  0.87821400  1
  S  S6  1  0.62178600  0.52232600  0.28210700  1
  S  S7  1  0.52232600  0.28210700  0.62178600  1
  S  S8  1  0.12178600  0.97767400  0.71789300  1
  S  S9  1  0.21789300  0.37821400  0.02232600  1
  S  S10  1  0.02232600  0.21789300  0.37821400  1
  S  S11  1  0.37821400  0.02232600  0.21789300  1
  O  O0  1  0.25642900  0.59399300  0.66618600  1
  O  O1  1  0.75642900  0.90600700  0.33381400  1
  O  O2  1  0.74357100  0.09399300  0.83381400  1
  O  O3  1  0.90600700  0.33381400  0.75642900  1
  O  O4  1  0.83381400  0.74357100  0.09399300  1
  O  O5  1  0.33381400  0.75642900  0.90600700  1
  O  O6  1  0.59399300  0.66618600  0.25642900  1
  O  O7  1  0.66618600  0.25642900  0.59399300  1
  O  O8  1  0.09399300  0.83381400  0.74357100  1
  O  O9  1  0.40600700  0.16618600  0.24357100  1
  O  O10  1  0.16618600  0.24357100  0.40600700  1
  O  O11  1  0.24357100  0.40600700  0.16618600  1
  O  O12  1  0.25704200  0.49452500  0.44691600  1
  O  O13  1  0.75704200  0.00547500  0.55308400  1
  O  O14  1  0.74295800  0.99452500  0.05308400  1
  O  O15  1  0.00547500  0.55308400  0.75704200  1
  O  O16  1  0.05308400  0.74295800  0.99452500  1
  O  O17  1  0.55308400  0.75704200  0.00547500  1
  O  O18  1  0.99709300  0.57607200  0.16959300  1
  O  O19  1  0.49452500  0.44691600  0.25704200  1
  O  O20  1  0.99452500  0.05308400  0.74295800  1
  O  O21  1  0.50547500  0.94691600  0.24295800  1
  O  O22  1  0.94691600  0.24295800  0.50547500  1
  O  O23  1  0.24295800  0.50547500  0.94691600  1
  O  O24  1  0.42392800  0.66959300  0.50290700  1
  O  O25  1  0.92392800  0.83040700  0.49709300  1
  O  O26  1  0.57607200  0.16959300  0.99709300  1
  O  O27  1  0.83040700  0.49709300  0.92392800  1
  O  O28  1  0.30942700  0.27574000  0.96492200  1
  O  O29  1  0.96492200  0.30942700  0.27574000  1
  O  O30  1  0.27574000  0.96492200  0.30942700  1
  O  O31  1  0.22426000  0.03507800  0.80942700  1
  O  O32  1  0.46492200  0.19057300  0.72426000  1
  O  O33  1  0.72426000  0.46492200  0.19057300  1
  O  O34  1  0.53507800  0.69057300  0.77574000  1
  O  O35  1  0.03507800  0.80942700  0.22426000  1
  O  O36  1  0.77574000  0.53507800  0.69057300  1
  O  O37  1  0.80942700  0.22426000  0.03507800  1
  O  O38  1  0.69057300  0.77574000  0.53507800  1
  O  O39  1  0.19057300  0.72426000  0.46492200  1
  O  O40  1  0.07607200  0.33040700  0.00290700  1
  O  O41  1  0.00290700  0.07607200  0.33040700  1
  O  O42  1  0.33040700  0.00290700  0.07607200  1
  O  O43  1  0.16959300  0.99709300  0.57607200  1
  O  O44  1  0.50290700  0.42392800  0.66959300  1
  O  O45  1  0.66959300  0.50290700  0.42392800  1
  O  O46  1  0.49709300  0.92392800  0.83040700  1
  O  O47  1  0.44691600  0.25704200  0.49452500  1
loop_
_geom_bond_atom_site_label_1
_geom_bond_atom_site_label_2
_geom_bond_distance
_geom_bond_site_symmetry_2
K0 O9 2.881806 1_555
K0 O1 2.881806 1_545
K0 O7 2.881806 1_555
K0 O37 3.059786 1_555
K0 O33 3.059786 1_555
K0 O29 3.059786 1_555
K0 O21 3.066178 1_545
K0 O47 3.066178 1_555
K0 O13 3.066178 1_555
K0 O14 3.271559 1_545
K0 O19 3.271559 1_555
K0 O22 3.271559 1_555
K0 O26 3.343368 1_554
K0 O45 3.343368 1_555
K0 O41 3.343368 1_655
K1 O11 2.881806 1_555
K1 O5 2.881806 1_554
K1 O6 2.881806 1_555
K1 O35 3.059786 1_555
K1 O39 3.059786 1_555
K1 O30 3.059786 1_555
K1 O23 3.066178 1_554
K1 O19 3.066178 1_555
K1 O17 3.066178 1_555
K1 O16 3.271559 1_554
K1 O12 3.271559 1_555
K1 O21 3.271559 1_555
K1 O18 3.343368 1_455
K1 O24 3.343368 1_555
K1 O42 3.343368 1_565
K2 O25 2.839261 1_555
K2 O18 2.839261 1_555
K2 O45 2.839261 1_555
K2 O29 2.962434 1_555
K2 O36 2.962434 1_555
K2 O39 2.962434 1_655
K2 O15 3.111245 1_655
K2 O12 3.111245 1_655
K2 O22 3.111245 1_555
K3 O10 2.881806 1_555
K3 O3 2.881806 1_455
K3 O0 2.881806 1_555
K3 O31 3.059786 1_555
K3 O32 3.059786 1_555
K3 O28 3.059786 1_555
K3 O22 3.066178 1_455
K3 O12 3.066178 1_555
K3 O15 3.066178 1_555
K3 O20 3.271559 1_455
K3 O47 3.271559 1_555
K3 O23 3.271559 1_555
K3 O43 3.343368 1_545
K3 O44 3.343368 1_555
K3 O40 3.343368 1_556
K4 O40 2.839261 1_555
K4 O41 2.839261 1_555
K4 O42 2.839261 1_555
K4 O37 2.962434 1_455
K4 O35 2.962434 1_545
K4 O31 2.962434 1_554
K4 O20 3.111245 1_454
K4 O16 3.111245 1_544
K4 O14 3.111245 1_445
K5 O46 2.839261 1_555
K5 O43 2.839261 1_555
K5 O24 2.839261 1_555
K5 O30 2.962434 1_555
K5 O38 2.962434 1_555
K5 O32 2.962434 1_565
K5 O47 3.111245 1_565
K5 O13 3.111245 1_565
K5 O21 3.111245 1_555
K6 O27 2.839261 1_555
K6 O26 2.839261 1_555
K6 O44 2.839261 1_555
K6 O28 2.962434 1_555
K6 O34 2.962434 1_555
K6 O33 2.962434 1_556
K6 O19 3.111245 1_556
K6 O17 3.111245 1_556
K6 O23 3.111245 1_555
K7 O8 2.881806 1_655
K7 O2 2.881806 1_565
K7 O4 2.881806 1_556
K7 O34 3.059786 1_555
K7 O38 3.059786 1_555
K7 O36 3.059786 1_555
K7 O16 3.066178 1_655
K7 O20 3.066178 1_565
K7 O14 3.066178 1_556
K7 O17 3.271559 1_556
K7 O13 3.271559 1_565
K7 O15 3.271559 1_655
K7 O27 3.343368 1_555
K7 O25 3.343368 1_555
K7 O46 3.343368 1_555
Ni0 O10 2.048714 1_555
Ni0 O11 2.048714 1_555
Ni0 O9 2.048714 1_555
Ni0 O12 2.079168 1_555
Ni0 O47 2.079168 1_555
Ni0 O19 2.079168 1_555
Ni1 O0 2.048714 1_555
Ni1 O8 2.048714 1_555
Ni1 O5 2.048714 1_555
Ni1 O23 2.079168 1_555
Ni1 O15 2.079168 1_555
Ni1 O16 2.079168 1_555
Ni2 O7 2.048714 1_555
Ni2 O2 2.048714 1_555
Ni2 O3 2.048714 1_555
Ni2 O22 2.079168 1_555
Ni2 O13 2.079168 1_555
Ni2 O20 2.079168 1_555
Ni3 O6 2.048714 1_555
Ni3 O4 2.048714 1_555
Ni3 O1 2.048714 1_555
Ni3 O21 2.079168 1_555
Ni3 O17 2.079168 1_555
Ni3 O14 2.079168 1_555
Ni4 O45 2.048205 1_555
Ni4 O24 2.048205 1_555
Ni4 O44 2.048205 1_555
Ni4 O36 2.148758 1_555
Ni4 O34 2.148758 1_555
Ni4 O38 2.148758 1_555
Ni5 O25 2.048205 1_455
Ni5 O41 2.048205 1_565
Ni5 O43 2.048205 1_555
Ni5 O35 2.148758 1_555
Ni5 O39 2.148758 1_555
Ni5 O30 2.148758 1_555
Ni6 O46 2.048205 1_545
Ni6 O42 2.048205 1_556
Ni6 O26 2.048205 1_555
Ni6 O31 2.148758 1_555
Ni6 O32 2.148758 1_555
Ni6 O28 2.148758 1_555
Ni7 O27 2.048205 1_554
Ni7 O40 2.048205 1_655
Ni7 O18 2.048205 1_555
Ni7 O37 2.148758 1_555
Ni7 O33 2.148758 1_555
Ni7 O29 2.148758 1_555
O0 S0 1.481055 1_555
O1 S1 1.481055 1_555
O2 S2 1.481055 1_555
O3 S3 1.481055 1_555
O4 S4 1.481055 1_555
O5 S5 1.481055 1_555
O6 S6 1.481055 1_555
O7 S7 1.481055 1_555
O8 S8 1.481055 1_555
O9 S11 1.481055 1_555
O10 S10 1.481055 1_555
O11 S9 1.481055 1_555
O12 S0 1.493810 1_555
O13 S1 1.493810 1_545
O14 S2 1.493810 1_564
O15 S3 1.493810 1_455
O16 S4 1.493810 1_456
O17 S5 1.493810 1_554
O18 S4 1.502594 1_555
O19 S6 1.493810 1_555
O20 S8 1.493810 1_645
O21 S11 1.493810 1_565
O22 S10 1.493810 1_655
O23 S9 1.493810 1_556
O24 S0 1.502594 1_555
O25 S1 1.502594 1_555
O26 S2 1.502594 1_555
O27 S3 1.502594 1_555
O28 S9 1.482631 1_556
O29 S10 1.482631 1_655
O30 S11 1.482631 1_565
O31 S8 1.482631 1_545
O32 S7 1.482631 1_555
O33 S6 1.482631 1_555
O34 S5 1.482631 1_555
O35 S4 1.482631 1_455
O36 S3 1.482631 1_555
O37 S2 1.482631 1_554
O38 S1 1.482631 1_555
O39 S0 1.482631 1_555
O40 S9 1.502594 1_555
O41 S10 1.502594 1_555
O42 S11 1.502594 1_555
O43 S8 1.502594 1_555
O44 S7 1.502594 1_555
O45 S6 1.502594 1_555
O46 S5 1.502594 1_555
O47 S7 1.493810 1_555
