# generated using pymatgen
data_Na7Fe4(AsO4)6
_symmetry_space_group_name_H-M   'P 1'
_cell_length_a   10.23601897
_cell_length_b   10.23601897
_cell_length_c   10.23601860
_cell_angle_alpha   86.65099779
_cell_angle_beta   86.65099779
_cell_angle_gamma   86.65099568
_symmetry_Int_Tables_number   1
_chemical_formula_structural   Na7Fe4(AsO4)6
_chemical_formula_sum   'Na14 Fe8 As12 O48'
_cell_volume   1067.20067558
_cell_formula_units_Z   2
loop_
 _symmetry_equiv_pos_site_id
 _symmetry_equiv_pos_as_xyz
  1  'x, y, z'
loop_
 _atom_site_type_symbol
 _atom_site_label
 _atom_site_symmetry_multiplicity
 _atom_site_fract_x
 _atom_site_fract_y
 _atom_site_fract_z
 _atom_site_occupancy
  Na  Na0  1  0.50000000  0.50000000  0.50000000  1
  Na  Na1  1  -0.00000000  -0.00000000  0.00000000  1
  Na  Na2  1  0.22089556  0.65959180  0.46477326  1
  Na  Na3  1  0.65959180  0.46477326  0.22089556  1
  Na  Na4  1  0.46477326  0.22089556  0.65959180  1
  Na  Na5  1  0.72089556  0.96477326  0.15959180  1
  Na  Na6  1  0.96477326  0.15959180  0.72089556  1
  Na  Na7  1  0.15959180  0.72089556  0.96477326  1
  Na  Na8  1  0.77910444  0.34040820  0.53522674  1
  Na  Na9  1  0.34040820  0.53522674  0.77910444  1
  Na  Na10  1  0.53522674  0.77910444  0.34040820  1
  Na  Na11  1  0.27910444  0.03522674  0.84040820  1
  Na  Na12  1  0.03522674  0.84040820  0.27910444  1
  Na  Na13  1  0.84040820  0.27910444  0.03522674  1
  Fe  Fe0  1  0.25000000  0.25000000  0.25000000  1
  Fe  Fe1  1  0.75000000  0.75000000  0.75000000  1
  Fe  Fe2  1  0.02799720  0.47200280  0.25000000  1
  Fe  Fe3  1  0.47200280  0.25000000  0.02799720  1
  Fe  Fe4  1  0.25000000  0.02799720  0.47200280  1
  Fe  Fe5  1  0.52799720  0.75000000  0.97200280  1
  Fe  Fe6  1  0.75000000  0.97200280  0.52799720  1
  Fe  Fe7  1  0.97200280  0.52799720  0.75000000  1
  As  As0  1  0.54843375  0.17314610  0.34302479  1
  As  As1  1  0.17314610  0.34302479  0.54843375  1
  As  As2  1  0.34302479  0.54843375  0.17314610  1
  As  As3  1  0.04843375  0.84302479  0.67314610  1
  As  As4  1  0.84302479  0.67314610  0.04843375  1
  As  As5  1  0.67314610  0.04843375  0.84302479  1
  As  As6  1  0.45156625  0.82685390  0.65697521  1
  As  As7  1  0.82685390  0.65697521  0.45156625  1
  As  As8  1  0.65697521  0.45156625  0.82685390  1
  As  As9  1  0.95156625  0.15697521  0.32685390  1
  As  As10  1  0.15697521  0.32685390  0.95156625  1
  As  As11  1  0.32685390  0.95156625  0.15697521  1
  O  O0  1  0.80961730  0.82319424  0.40962634  1
  O  O1  1  0.82319424  0.40962634  0.80961730  1
  O  O2  1  0.40962634  0.80961730  0.82319424  1
  O  O3  1  0.30961730  0.90962634  0.32319424  1
  O  O4  1  0.90962634  0.32319424  0.30961730  1
  O  O5  1  0.32319424  0.30961730  0.90962634  1
  O  O6  1  0.19038270  0.17680576  0.59037366  1
  O  O7  1  0.17680576  0.59037366  0.19038270  1
  O  O8  1  0.59037366  0.19038270  0.17680576  1
  O  O9  1  0.69038270  0.09037366  0.67680576  1
  O  O10  1  0.09037366  0.67680576  0.69038270  1
  O  O11  1  0.67680576  0.69038270  0.09037366  1
  O  O12  1  0.97901037  0.60836648  0.38304590  1
  O  O13  1  0.60836648  0.38304590  0.97901037  1
  O  O14  1  0.38304590  0.97901037  0.60836648  1
  O  O15  1  0.47901037  0.88304590  0.10836648  1
  O  O16  1  0.88304590  0.10836648  0.47901037  1
  O  O17  1  0.10836648  0.47901037  0.88304590  1
  O  O18  1  0.02098963  0.39163352  0.61695410  1
  O  O19  1  0.39163352  0.61695410  0.02098963  1
  O  O20  1  0.61695410  0.02098963  0.39163352  1
  O  O21  1  0.52098963  0.11695410  0.89163352  1
  O  O22  1  0.11695410  0.89163352  0.52098963  1
  O  O23  1  0.89163352  0.52098963  0.11695410  1
  O  O24  1  0.87807159  0.87794997  0.66863178  1
  O  O25  1  0.87794997  0.66863178  0.87807159  1
  O  O26  1  0.66863178  0.87807159  0.87794997  1
  O  O27  1  0.37807159  0.16863178  0.37794997  1
  O  O28  1  0.16863178  0.37794997  0.37807159  1
  O  O29  1  0.37794997  0.37807159  0.16863178  1
  O  O30  1  0.12192841  0.12205003  0.33136822  1
  O  O31  1  0.12205003  0.33136822  0.12192841  1
  O  O32  1  0.33136822  0.12192841  0.12205003  1
  O  O33  1  0.62192841  0.83136822  0.62205003  1
  O  O34  1  0.83136822  0.62205003  0.62192841  1
  O  O35  1  0.62205003  0.62192841  0.83136822  1
  O  O36  1  0.29923425  0.42480342  0.59535699  1
  O  O37  1  0.42480342  0.59535699  0.29923425  1
  O  O38  1  0.59535699  0.29923425  0.42480342  1
  O  O39  1  0.79923425  0.09535699  0.92480342  1
  O  O40  1  0.09535699  0.92480342  0.79923425  1
  O  O41  1  0.92480342  0.79923425  0.09535699  1
  O  O42  1  0.70076575  0.57519658  0.40464301  1
  O  O43  1  0.57519658  0.40464301  0.70076575  1
  O  O44  1  0.40464301  0.70076575  0.57519658  1
  O  O45  1  0.20076575  0.90464301  0.07519658  1
  O  O46  1  0.90464301  0.07519658  0.20076575  1
  O  O47  1  0.07519658  0.20076575  0.90464301  1
loop_
_geom_bond_atom_site_label_1
_geom_bond_atom_site_label_2
_geom_bond_distance
_geom_bond_site_symmetry_2
Na0 O43 2.372984 1_555
Na0 O37 2.372984 1_555
Na0 O44 2.372984 1_555
Na0 O38 2.372984 1_555
Na0 O42 2.372984 1_555
Na0 O36 2.372984 1_555
Na1 O40 2.372984 1_544
Na1 O46 2.372984 1_455
Na1 O39 2.372984 1_454
Na1 O45 2.372984 1_545
Na1 O41 2.372984 1_445
Na1 O47 2.372984 1_554
Na2 O44 2.321511 1_555
Na2 O10 2.609335 1_555
Na2 O22 2.626310 1_555
Na2 O37 2.686365 1_555
Na2 O12 2.747724 1_455
Na2 O36 2.780333 1_555
Na2 O7 3.002039 1_555
Na2 O3 3.026501 1_555
Na2 O28 3.149518 1_555
Na3 O42 2.321511 1_555
Na3 O11 2.609335 1_555
Na3 O23 2.626310 1_555
Na3 O38 2.686365 1_555
Na3 O13 2.747724 1_554
Na3 O37 2.780333 1_555
Na3 O8 3.002040 1_555
Na3 O4 3.026501 1_555
Na3 O29 3.149518 1_555
Na4 O43 2.321512 1_555
Na4 O9 2.609335 1_555
Na4 O21 2.626310 1_555
Na4 O36 2.686365 1_555
Na4 O14 2.747724 1_545
Na4 O38 2.780333 1_555
Na4 O6 3.002040 1_555
Na4 O5 3.026501 1_555
Na4 O27 3.149518 1_555
Na5 O46 2.321512 1_565
Na5 O8 2.609335 1_565
Na5 O20 2.626310 1_565
Na5 O41 2.686365 1_555
Na5 O15 2.747724 1_555
Na5 O39 2.780333 1_564
Na5 O11 3.002040 1_555
Na5 O0 3.026501 1_555
Na5 O26 3.149518 1_554
Na6 O47 2.321511 1_655
Na6 O6 2.609335 1_655
Na6 O18 2.626310 1_655
Na6 O39 2.686365 1_555
Na6 O16 2.747724 1_555
Na6 O40 2.780333 1_645
Na6 O9 3.002040 1_555
Na6 O1 3.026501 1_555
Na6 O24 3.149518 1_545
Na7 O45 2.321511 1_556
Na7 O7 2.609335 1_556
Na7 O19 2.626310 1_556
Na7 O40 2.686365 1_555
Na7 O17 2.747724 1_555
Na7 O41 2.780333 1_456
Na7 O10 3.002039 1_555
Na7 O2 3.026501 1_555
Na7 O25 3.149518 1_455
Na8 O38 2.321511 1_555
Na8 O4 2.609335 1_555
Na8 O16 2.626310 1_555
Na8 O43 2.686365 1_555
Na8 O18 2.747724 1_655
Na8 O42 2.780333 1_555
Na8 O1 3.002039 1_555
Na8 O9 3.026501 1_555
Na8 O34 3.149518 1_555
Na9 O36 2.321511 1_555
Na9 O5 2.609335 1_555
Na9 O17 2.626310 1_555
Na9 O44 2.686365 1_555
Na9 O19 2.747724 1_556
Na9 O43 2.780333 1_555
Na9 O2 3.002040 1_555
Na9 O10 3.026501 1_555
Na9 O35 3.149518 1_555
Na10 O37 2.321512 1_555
Na10 O3 2.609335 1_555
Na10 O15 2.626310 1_555
Na10 O42 2.686365 1_555
Na10 O20 2.747724 1_565
Na10 O44 2.780333 1_555
Na10 O0 3.002040 1_555
Na10 O11 3.026501 1_555
Na10 O33 3.149518 1_555
Na11 O40 2.321512 1_545
Na11 O2 2.609335 1_545
Na11 O14 2.626310 1_545
Na11 O47 2.686365 1_555
Na11 O21 2.747724 1_555
Na11 O45 2.780333 1_546
Na11 O5 3.002040 1_555
Na11 O6 3.026501 1_555
Na11 O32 3.149518 1_556
Na12 O41 2.321511 1_455
Na12 O0 2.609335 1_455
Na12 O12 2.626310 1_455
Na12 O45 2.686365 1_555
Na12 O22 2.747724 1_555
Na12 O46 2.780333 1_465
Na12 O3 3.002040 1_555
Na12 O7 3.026501 1_555
Na12 O30 3.149518 1_565
Na13 O39 2.321511 1_554
Na13 O1 2.609335 1_554
Na13 O13 2.626310 1_554
Na13 O46 2.686365 1_555
Na13 O23 2.747724 1_555
Na13 O47 2.780333 1_654
Na13 O4 3.002039 1_555
Na13 O8 3.026501 1_555
Na13 O31 3.149518 1_655
Fe0 O31 2.018208 1_555
Fe0 O28 2.018208 1_555
Fe0 O32 2.018208 1_555
Fe0 O27 2.018208 1_555
Fe0 O29 2.018208 1_555
Fe0 O30 2.018208 1_555
Fe1 O25 2.018208 1_555
Fe1 O34 2.018208 1_555
Fe1 O33 2.018208 1_555
Fe1 O26 2.018208 1_555
Fe1 O35 2.018208 1_555
Fe1 O24 2.018208 1_555
Fe2 O12 2.028534 1_455
Fe2 O23 2.028534 1_455
Fe2 O4 2.044819 1_455
Fe2 O7 2.044819 1_555
Fe2 O28 2.151463 1_555
Fe2 O31 2.151463 1_555
Fe3 O21 2.028534 1_554
Fe3 O13 2.028534 1_554
Fe3 O8 2.044819 1_555
Fe3 O5 2.044819 1_554
Fe3 O29 2.151463 1_555
Fe3 O32 2.151464 1_555
Fe4 O14 2.028534 1_545
Fe4 O22 2.028534 1_545
Fe4 O3 2.044819 1_545
Fe4 O6 2.044819 1_555
Fe4 O30 2.151463 1_555
Fe4 O27 2.151464 1_555
Fe5 O15 2.028534 1_556
Fe5 O19 2.028534 1_556
Fe5 O2 2.044819 1_555
Fe5 O11 2.044819 1_556
Fe5 O35 2.151463 1_555
Fe5 O26 2.151464 1_555
Fe6 O20 2.028534 1_565
Fe6 O16 2.028534 1_565
Fe6 O9 2.044819 1_565
Fe6 O0 2.044819 1_555
Fe6 O24 2.151463 1_555
Fe6 O33 2.151464 1_555
Fe7 O17 2.028534 1_655
Fe7 O18 2.028534 1_655
Fe7 O1 2.044819 1_555
Fe7 O10 2.044819 1_655
Fe7 O34 2.151463 1_555
Fe7 O25 2.151463 1_555
As0 O38 1.686058 1_555
As0 O20 1.728534 1_555
As0 O8 1.731675 1_555
As0 O27 1.762251 1_555
As1 O36 1.686058 1_555
As1 O18 1.728534 1_555
As1 O6 1.731675 1_555
As1 O28 1.762251 1_555
As2 O37 1.686058 1_555
As2 O19 1.728534 1_555
As2 O7 1.731675 1_555
As2 O29 1.762251 1_555
As3 O40 1.686058 1_555
As3 O22 1.728534 1_555
As3 O10 1.731675 1_555
As3 O24 1.762251 1_455
As4 O41 1.686058 1_555
As4 O23 1.728534 1_555
As4 O11 1.731675 1_555
As4 O25 1.762251 1_554
As5 O39 1.686058 1_555
As5 O21 1.728534 1_555
As5 O9 1.731675 1_555
As5 O26 1.762251 1_545
As6 O44 1.686058 1_555
As6 O14 1.728534 1_555
As6 O2 1.731675 1_555
As6 O33 1.762251 1_555
As7 O42 1.686058 1_555
As7 O12 1.728534 1_555
As7 O0 1.731675 1_555
As7 O34 1.762251 1_555
As8 O43 1.686058 1_555
As8 O13 1.728534 1_555
As8 O1 1.731675 1_555
As8 O35 1.762251 1_555
As9 O46 1.686058 1_555
As9 O16 1.728534 1_555
As9 O4 1.731675 1_555
As9 O30 1.762251 1_655
As10 O47 1.686058 1_555
As10 O17 1.728534 1_555
As10 O5 1.731675 1_555
As10 O31 1.762251 1_556
As11 O45 1.686058 1_555
As11 O15 1.728534 1_555
As11 O3 1.731675 1_555
As11 O32 1.762251 1_565
