# generated using pymatgen
data_HfMg14Ni
_symmetry_space_group_name_H-M   'P 1'
_cell_length_a   6.34517333
_cell_length_b   6.13162322
_cell_length_c   10.06038509
_cell_angle_alpha   90.00000000
_cell_angle_beta   90.00000000
_cell_angle_gamma   118.89279692
_symmetry_Int_Tables_number   1
_chemical_formula_structural   HfMg14Ni
_chemical_formula_sum   'Hf1 Mg14 Ni1'
_cell_volume   342.69064120
_cell_formula_units_Z   1
loop_
 _symmetry_equiv_pos_site_id
 _symmetry_equiv_pos_as_xyz
  1  'x, y, z'
loop_
 _atom_site_type_symbol
 _atom_site_label
 _atom_site_symmetry_multiplicity
 _atom_site_fract_x
 _atom_site_fract_y
 _atom_site_fract_z
 _atom_site_occupancy
  Hf  Hf0  1  0.14049592  0.82024746  0.12500000  1
  Mg  Mg0  1  0.16414450  0.33207175  0.62500000  1
  Mg  Mg1  1  0.16851948  0.83425924  0.62500000  1
  Mg  Mg2  1  0.63997996  0.33201262  0.12500000  1
  Mg  Mg3  1  0.66483455  0.32892461  0.62500000  1
  Mg  Mg4  1  0.63997996  0.80796634  0.12500000  1
  Mg  Mg5  1  0.66483455  0.83590895  0.62500000  1
  Mg  Mg6  1  0.33309498  0.16850792  0.36527908  1
  Mg  Mg7  1  0.33309498  0.16850792  0.88472092  1
  Mg  Mg8  1  0.33309498  0.66458807  0.36527908  1
  Mg  Mg9  1  0.33309498  0.66458807  0.88472092  1
  Mg  Mg10  1  0.86117582  0.18058841  0.34922537  1
  Mg  Mg11  1  0.86117582  0.18058841  0.90077463  1
  Mg  Mg12  1  0.83898500  0.66949300  0.37923595  1
  Mg  Mg13  1  0.83898500  0.66949300  0.87076405  1
  Ni  Ni0  1  0.18450951  0.34225426  0.12500000  1
loop_
_geom_bond_atom_site_label_1
_geom_bond_atom_site_label_2
_geom_bond_distance
_geom_bond_site_symmetry_2
Hf0 Mg12 3.057371 1_455
Hf0 Mg13 3.057371 1_454
Hf0 Mg9 3.061849 1_554
Hf0 Mg8 3.061849 1_555
Hf0 Mg7 3.061855 1_564
Hf0 Mg6 3.061855 1_565
Hf0 Ni0 3.075547 1_555
Hf0 Ni0 3.075547 1_565
Hf0 Mg2 3.140168 1_455
Hf0 Mg4 3.140168 1_455
Hf0 Mg2 3.206375 1_565
Hf0 Mg4 3.206375 1_555
Mg0 Mg1 3.065908 1_555
Mg0 Mg1 3.065908 1_545
Mg0 Mg5 3.158929 1_445
Mg0 Mg3 3.158930 1_455
Mg0 Mg6 3.165632 1_555
Mg0 Mg7 3.165632 1_555
Mg0 Mg8 3.165637 1_555
Mg0 Mg9 3.165637 1_555
Mg0 Mg5 3.186334 1_555
Mg0 Mg3 3.186334 1_555
Mg0 Mg10 3.245014 1_455
Mg0 Mg11 3.245014 1_455
Mg1 Mg12 3.076453 1_455
Mg1 Mg13 3.076453 1_455
Mg1 Mg3 3.144330 1_565
Mg1 Mg5 3.144330 1_555
Mg1 Mg8 3.170154 1_555
Mg1 Mg9 3.170154 1_555
Mg1 Mg6 3.170160 1_565
Mg1 Mg7 3.170160 1_565
Mg1 Mg3 3.200868 1_455
Mg1 Mg5 3.200868 1_455
Mg2 Mg4 2.918369 1_555
Mg2 Ni0 2.920899 1_555
Mg2 Mg7 2.958662 1_554
Mg2 Mg6 2.958662 1_555
Mg2 Mg4 3.213254 1_545
Mg2 Ni0 3.425233 1_655
Mg3 Mg5 3.022986 1_545
Mg3 Mg5 3.108637 1_555
Mg3 Mg6 3.197612 1_555
Mg3 Mg7 3.197612 1_555
Mg4 Ni0 2.920898 1_555
Mg4 Mg9 2.958662 1_554
Mg4 Mg8 2.958662 1_555
Mg4 Ni0 3.425233 1_665
Mg5 Mg8 3.197612 1_555
Mg5 Mg9 3.197612 1_555
Mg6 Ni0 2.972841 1_555
Mg6 Mg8 3.041777 1_555
Mg6 Mg8 3.089847 1_545
Mg7 Ni0 2.972841 1_556
Mg7 Mg9 3.041777 1_555
Mg7 Mg9 3.089847 1_545
Mg8 Ni0 2.972847 1_555
Mg9 Ni0 2.972847 1_556
Mg10 Ni0 2.883585 1_655
Mg10 Mg2 3.029825 1_555
Mg10 Mg4 3.029832 1_545
Mg10 Mg8 3.035193 1_655
Mg10 Mg6 3.035193 1_655
Mg10 Mg12 3.083108 1_545
Mg10 Mg12 3.083108 1_555
Mg10 Mg8 3.319540 1_545
Mg10 Mg6 3.319540 1_555
Mg10 Mg3 3.342396 1_555
Mg10 Mg5 3.342401 1_545
Mg11 Ni0 2.883585 1_656
Mg11 Mg2 3.029825 1_556
Mg11 Mg4 3.029832 1_546
Mg11 Mg9 3.035193 1_655
Mg11 Mg7 3.035193 1_655
Mg11 Mg13 3.083108 1_545
Mg11 Mg13 3.083108 1_555
Mg11 Mg9 3.319540 1_545
Mg11 Mg7 3.319540 1_555
Mg11 Mg3 3.342396 1_555
Mg11 Mg5 3.342401 1_545
Mg12 Mg5 3.076531 1_555
Mg12 Mg3 3.076537 1_555
Mg12 Mg4 3.145365 1_555
Mg12 Mg2 3.145370 1_555
Mg12 Mg6 3.152983 1_665
Mg12 Mg8 3.152983 1_655
Mg12 Mg6 3.198620 1_555
Mg12 Mg8 3.198620 1_555
Mg13 Mg5 3.076531 1_555
Mg13 Mg3 3.076537 1_555
Mg13 Mg4 3.145365 1_556
Mg13 Mg2 3.145370 1_556
Mg13 Mg7 3.152983 1_665
Mg13 Mg9 3.152983 1_655
Mg13 Mg7 3.198620 1_555
Mg13 Mg9 3.198620 1_555
