# generated using pymatgen
data_Ho2TlZn
_symmetry_space_group_name_H-M   'P 1'
_cell_length_a   5.16031742
_cell_length_b   5.16031742
_cell_length_c   5.16031742
_cell_angle_alpha   60.00000000
_cell_angle_beta   60.00000000
_cell_angle_gamma   60.00000000
_symmetry_Int_Tables_number   1
_chemical_formula_structural   Ho2TlZn
_chemical_formula_sum   'Ho2 Tl1 Zn1'
_cell_volume   97.16598371
_cell_formula_units_Z   1
loop_
 _symmetry_equiv_pos_site_id
 _symmetry_equiv_pos_as_xyz
  1  'x, y, z'
loop_
 _atom_site_type_symbol
 _atom_site_label
 _atom_site_symmetry_multiplicity
 _atom_site_fract_x
 _atom_site_fract_y
 _atom_site_fract_z
 _atom_site_occupancy
  Ho  Ho0  1  0.75000000  0.75000000  0.75000000  1
  Ho  Ho1  1  0.25000000  0.25000000  0.25000000  1
  Tl  Tl0  1  0.50000000  0.50000000  0.50000000  1
  Zn  Zn0  1  -0.00000000  0.00000000  -0.00000000  1
loop_
_geom_bond_atom_site_label_1
_geom_bond_atom_site_label_2
_geom_bond_distance
_geom_bond_site_symmetry_2
Ho0 Tl0 3.160036 1_655
Ho0 Zn0 3.160036 1_566
Ho0 Tl0 3.160036 1_556
Ho0 Tl0 3.160036 1_555
Ho0 Tl0 3.160036 1_565
Ho0 Zn0 3.160036 1_666
Ho0 Zn0 3.160036 1_656
Ho0 Zn0 3.160036 1_665
Ho0 Ho1 3.648895 1_556
Ho0 Ho1 3.648895 1_565
Ho0 Ho1 3.648895 1_655
Ho0 Ho1 3.648895 1_665
Ho0 Ho1 3.648895 1_656
Ho0 Ho1 3.648895 1_566
Ho1 Zn0 3.160036 1_655
Ho1 Tl0 3.160036 1_455
Ho1 Tl0 3.160036 1_545
Ho1 Tl0 3.160036 1_554
Ho1 Tl0 3.160036 1_555
Ho1 Zn0 3.160036 1_565
Ho1 Zn0 3.160036 1_555
Ho1 Zn0 3.160036 1_556
Tl0 Zn0 3.648895 1_665
Tl0 Zn0 3.648895 1_656
Tl0 Zn0 3.648895 1_565
Tl0 Zn0 3.648895 1_556
Tl0 Zn0 3.648895 1_655
Tl0 Zn0 3.648895 1_566
