# generated using pymatgen
data_Tb2MgS4
_symmetry_space_group_name_H-M   'P 1'
_cell_length_a   7.26199850
_cell_length_b   8.40905409
_cell_length_c   12.93300184
_cell_angle_alpha   80.40699940
_cell_angle_beta   84.32091543
_cell_angle_gamma   90.00583179
_symmetry_Int_Tables_number   1
_chemical_formula_structural   Tb2MgS4
_chemical_formula_sum   'Tb8 Mg4 S16'
_cell_volume   774.79676827
_cell_formula_units_Z   4
loop_
 _symmetry_equiv_pos_site_id
 _symmetry_equiv_pos_as_xyz
  1  'x, y, z'
loop_
 _atom_site_type_symbol
 _atom_site_label
 _atom_site_symmetry_multiplicity
 _atom_site_fract_x
 _atom_site_fract_y
 _atom_site_fract_z
 _atom_site_occupancy
  Tb  Tb0  1  0.13519200  0.70020800  0.69360500  1
  Tb  Tb1  1  0.86480800  0.29979200  0.30639500  1
  Tb  Tb2  1  0.24140900  0.87211700  0.00064000  1
  Tb  Tb3  1  0.75859100  0.12788300  0.99936000  1
  Tb  Tb4  1  0.36794500  0.55510200  0.30467800  1
  Tb  Tb5  1  0.63205500  0.44489800  0.69532200  1
  Tb  Tb6  1  0.36617800  0.04237300  0.30833700  1
  Tb  Tb7  1  0.63382200  0.95762700  0.69166300  1
  Mg  Mg0  1  0.13391600  0.20048300  0.69995900  1
  Mg  Mg1  1  0.86608400  0.79951700  0.30004100  1
  Mg  Mg2  1  0.24914000  0.37769200  0.99618500  1
  Mg  Mg3  1  0.75086000  0.62230800  0.00381500  1
  S  S0  1  0.09320100  0.64447900  0.89735100  1
  S  S1  1  0.90679900  0.35552100  0.10264900  1
  S  S2  1  0.10771000  0.15589900  0.89215100  1
  S  S3  1  0.89229000  0.84410100  0.10784900  1
  S  S4  1  0.16825700  0.78114000  0.37208400  1
  S  S5  1  0.83174300  0.21886000  0.62791600  1
  S  S6  1  0.19153400  0.28174900  0.37565300  1
  S  S7  1  0.80846600  0.71825100  0.62434700  1
  S  S8  1  0.30296100  0.97970000  0.62940700  1
  S  S9  1  0.69703900  0.02030000  0.37059300  1
  S  S10  1  0.30481700  0.45569800  0.62876300  1
  S  S11  1  0.69518300  0.54430200  0.37123700  1
  S  S12  1  0.39354000  0.10381200  0.10411500  1
  S  S13  1  0.60646000  0.89618800  0.89588500  1
  S  S14  1  0.40497100  0.59232100  0.10136600  1
  S  S15  1  0.59502900  0.40767900  0.89863400  1
loop_
_geom_bond_atom_site_label_1
_geom_bond_atom_site_label_2
_geom_bond_distance
_geom_bond_site_symmetry_2
Mg0 S2 2.439437 1_555
Mg0 S5 2.462526 1_455
Mg0 S10 2.471558 1_555
Mg0 S8 2.475852 1_545
Mg1 S3 2.439437 1_555
Mg1 S4 2.462526 1_655
Mg1 S11 2.471558 1_555
Mg1 S9 2.475852 1_565
Mg2 S15 2.689109 1_555
Mg2 S0 2.698229 1_555
Mg2 S1 2.710734 1_456
Mg2 S2 2.730040 1_555
Mg2 S14 2.740617 1_556
Mg2 S12 2.751528 1_556
Mg3 S14 2.689109 1_555
Mg3 S1 2.698229 1_555
Mg3 S0 2.710734 1_654
Mg3 S3 2.730040 1_555
Mg3 S15 2.740617 1_554
Mg3 S13 2.751528 1_554
S0 Tb0 2.585622 1_555
S0 Tb2 2.782712 1_556
S1 Tb1 2.585622 1_555
S1 Tb3 2.782712 1_554
S2 Tb3 2.756995 1_455
S2 Tb2 2.785693 1_546
S3 Tb2 2.756995 1_655
S3 Tb3 2.785693 1_564
S4 Tb6 2.594676 1_565
S4 Tb4 2.603538 1_555
S5 Tb7 2.594676 1_545
S5 Tb5 2.603538 1_555
S6 Tb6 2.604685 1_555
S6 Tb1 2.613493 1_455
S6 Tb4 2.613609 1_555
S7 Tb7 2.604685 1_555
S7 Tb0 2.613493 1_655
S7 Tb5 2.613609 1_555
S8 Tb7 2.605554 1_555
S8 Tb0 2.616539 1_555
S9 Tb6 2.605554 1_555
S9 Tb1 2.616539 1_555
S10 Tb5 2.602954 1_555
S10 Tb0 2.611306 1_555
S11 Tb4 2.602954 1_555
S11 Tb1 2.611306 1_555
S12 Tb6 2.593004 1_555
S12 Tb2 2.822874 1_545
S12 Tb3 2.846387 1_554
S13 Tb7 2.593004 1_555
S13 Tb3 2.822874 1_565
S13 Tb2 2.846387 1_556
S14 Tb4 2.582624 1_555
S14 Tb2 2.815821 1_555
S15 Tb5 2.582624 1_555
S15 Tb3 2.815821 1_555
