# generated using pymatgen
data_CaBi2O5
_symmetry_space_group_name_H-M   'P 1'
_cell_length_a   5.95086048
_cell_length_b   8.90367680
_cell_length_c   12.16086800
_cell_angle_alpha   90.00000000
_cell_angle_beta   90.00000000
_cell_angle_gamma   109.57432226
_symmetry_Int_Tables_number   1
_chemical_formula_structural   CaBi2O5
_chemical_formula_sum   'Ca4 Bi8 O20'
_cell_volume   607.10020002
_cell_formula_units_Z   4
loop_
 _symmetry_equiv_pos_site_id
 _symmetry_equiv_pos_as_xyz
  1  'x, y, z'
loop_
 _atom_site_type_symbol
 _atom_site_label
 _atom_site_symmetry_multiplicity
 _atom_site_fract_x
 _atom_site_fract_y
 _atom_site_fract_z
 _atom_site_occupancy
  Ca  Ca0  1  0.62745900  0.17217000  0.91202300  1
  Ca  Ca1  1  0.37254100  0.82783000  0.08797700  1
  Ca  Ca2  1  0.87254100  0.32783000  0.41202300  1
  Ca  Ca3  1  0.12745900  0.67217000  0.58797700  1
  Bi  Bi0  1  0.81636200  0.95665100  0.63138300  1
  Bi  Bi1  1  0.18363800  0.04334900  0.36861700  1
  Bi  Bi2  1  0.68363800  0.54334900  0.13138300  1
  Bi  Bi3  1  0.31636200  0.45665100  0.86861700  1
  Bi  Bi4  1  0.10982600  0.14892700  0.09616400  1
  Bi  Bi5  1  0.89017400  0.85107300  0.90383600  1
  Bi  Bi6  1  0.60982600  0.64892700  0.40383600  1
  Bi  Bi7  1  0.39017400  0.35107300  0.59616400  1
  O  O0  1  0.50814900  0.33545600  0.04768500  1
  O  O1  1  0.02920800  0.31393200  0.95495400  1
  O  O2  1  0.46602200  0.65023000  0.20148700  1
  O  O3  1  0.74164000  0.51412200  0.52508100  1
  O  O4  1  0.78368300  0.49490800  0.28650300  1
  O  O5  1  0.28368300  0.99490800  0.21349700  1
  O  O6  1  0.52920800  0.81393200  0.54504600  1
  O  O7  1  0.47079200  0.18606800  0.45495400  1
  O  O8  1  0.25836000  0.48587800  0.47491900  1
  O  O9  1  0.99185100  0.16454400  0.54768500  1
  O  O10  1  0.21631700  0.50509200  0.71349700  1
  O  O11  1  0.49185100  0.66454400  0.95231500  1
  O  O12  1  0.00814900  0.83545600  0.45231500  1
  O  O13  1  0.71631700  0.00509200  0.78650300  1
  O  O14  1  0.75836000  0.98587800  0.02508100  1
  O  O15  1  0.24164000  0.01412200  0.97491900  1
  O  O16  1  0.53397800  0.34977000  0.79851300  1
  O  O17  1  0.97079200  0.68606800  0.04504600  1
  O  O18  1  0.03397800  0.84977000  0.70148700  1
  O  O19  1  0.96602200  0.15023000  0.29851300  1
loop_
_geom_bond_atom_site_label_1
_geom_bond_atom_site_label_2
_geom_bond_distance
_geom_bond_site_symmetry_2
Ca0 O16 2.303220 1_555
Ca0 O13 2.312934 1_555
Ca0 O1 2.357846 1_655
Ca0 O15 2.381551 1_555
Ca0 O0 2.455840 1_556
Ca0 O14 2.472670 1_546
Ca1 O2 2.303220 1_555
Ca1 O5 2.312934 1_555
Ca1 O17 2.357846 1_455
Ca1 O14 2.381551 1_555
Ca1 O11 2.455840 1_554
Ca1 O15 2.472670 1_564
Ca2 O19 2.303220 1_555
Ca2 O4 2.312934 1_555
Ca2 O7 2.357846 1_555
Ca2 O8 2.381551 1_655
Ca2 O9 2.455840 1_555
Ca2 O3 2.472670 1_555
Ca3 O18 2.303220 1_555
Ca3 O10 2.312934 1_555
Ca3 O6 2.357846 1_555
Ca3 O3 2.381551 1_455
Ca3 O12 2.455840 1_555
Ca3 O8 2.472670 1_555
Bi0 O18 2.033518 1_655
Bi0 O6 2.045032 1_555
Bi0 O9 2.063392 1_565
Bi0 O13 2.066641 1_565
Bi0 O12 2.834471 1_655
Bi1 O19 2.033518 1_455
Bi1 O7 2.045032 1_555
Bi1 O12 2.063392 1_545
Bi1 O5 2.066641 1_545
Bi1 O9 2.834471 1_455
Bi2 O2 2.033518 1_555
Bi2 O17 2.045032 1_555
Bi2 O0 2.063392 1_555
Bi2 O4 2.066641 1_555
Bi2 O11 2.834471 1_554
Bi3 O16 2.033518 1_555
Bi3 O1 2.045032 1_555
Bi3 O11 2.063392 1_555
Bi3 O10 2.066641 1_555
Bi3 O0 2.834471 1_556
Bi4 O15 2.204713 1_554
Bi4 O14 2.279194 1_445
Bi4 O1 2.410339 1_554
Bi4 O5 2.436716 1_545
Bi4 O0 2.467107 1_555
Bi4 O19 2.606597 1_455
Bi5 O14 2.204713 1_556
Bi5 O15 2.279194 1_665
Bi5 O17 2.410339 1_556
Bi5 O13 2.436716 1_565
Bi5 O11 2.467107 1_555
Bi5 O18 2.606597 1_655
Bi6 O3 2.204713 1_555
Bi6 O8 2.279194 1_555
Bi6 O6 2.410339 1_555
Bi6 O4 2.436716 1_555
Bi6 O12 2.467107 1_655
Bi6 O2 2.606597 1_555
Bi7 O8 2.204713 1_555
Bi7 O3 2.279194 1_555
Bi7 O7 2.410339 1_555
Bi7 O10 2.436716 1_555
Bi7 O9 2.467107 1_455
Bi7 O16 2.606597 1_555
O0 O15 2.905777 1_554
O1 O14 2.949944 1_446
O3 O4 2.922015 1_555
O3 O7 2.949944 1_555
O6 O8 2.949944 1_555
O8 O9 2.905777 1_455
O10 O8 2.922015 1_555
O11 O14 2.905777 1_556
O12 O3 2.905777 1_455
O13 O14 2.922015 1_546
O15 O5 2.922015 1_546
O15 O17 2.949944 1_446
