# generated using pymatgen
data_BaCaInSbO6
_symmetry_space_group_name_H-M   'P 1'
_cell_length_a   5.85323431
_cell_length_b   5.85323431
_cell_length_c   5.85323431
_cell_angle_alpha   60.00000000
_cell_angle_beta   60.00000000
_cell_angle_gamma   60.00000000
_symmetry_Int_Tables_number   1
_chemical_formula_structural   BaCaInSbO6
_chemical_formula_sum   'Ba1 Ca1 In1 Sb1 O6'
_cell_volume   141.79885706
_cell_formula_units_Z   1
loop_
 _symmetry_equiv_pos_site_id
 _symmetry_equiv_pos_as_xyz
  1  'x, y, z'
loop_
 _atom_site_type_symbol
 _atom_site_label
 _atom_site_symmetry_multiplicity
 _atom_site_fract_x
 _atom_site_fract_y
 _atom_site_fract_z
 _atom_site_occupancy
  Ba  Ba0  1  0.75000000  0.75000000  0.75000000  1
  Ca  Ca0  1  0.25000000  0.25000000  0.25000000  1
  In  In0  1  0.00000000  0.00000000  0.00000000  1
  Sb  Sb0  1  0.50000000  0.50000000  0.50000000  1
  O  O0  1  0.74113033  0.25886967  0.25886967  1
  O  O1  1  0.25886967  0.74113033  0.74113033  1
  O  O2  1  0.74113033  0.25886967  0.74113033  1
  O  O3  1  0.25886967  0.74113033  0.25886967  1
  O  O4  1  0.74113033  0.74113033  0.25886967  1
  O  O5  1  0.25886967  0.25886967  0.74113033  1
loop_
_geom_bond_atom_site_label_1
_geom_bond_atom_site_label_2
_geom_bond_distance
_geom_bond_site_symmetry_2
Ba0 O2 2.927538 1_555
Ba0 O4 2.927538 1_555
Ba0 O1 2.927538 1_555
Ba0 O3 2.927538 1_655
Ba0 O0 2.927538 1_565
Ba0 O5 2.927538 1_655
Ba0 O0 2.927538 1_556
Ba0 O3 2.927538 1_556
Ba0 O2 2.927538 1_565
Ba0 O4 2.927538 1_556
Ba0 O1 2.927538 1_655
Ba0 O5 2.927538 1_565
Ca0 O3 2.927538 1_545
Ca0 O0 2.927538 1_455
Ca0 O5 2.927538 1_554
Ca0 O4 2.927538 1_455
Ca0 O1 2.927538 1_554
Ca0 O2 2.927538 1_455
Ca0 O2 2.927538 1_554
Ca0 O4 2.927538 1_545
Ca0 O1 2.927538 1_545
Ca0 O3 2.927538 1_555
Ca0 O5 2.927538 1_555
Ca0 O0 2.927538 1_555
In0 O4 2.142852 1_445
In0 O2 2.142852 1_454
In0 O1 2.142852 1_544
In0 O0 2.142852 1_455
In0 O3 2.142852 1_545
In0 O5 2.142852 1_554
O0 Sb0 1.996010 1_555
O1 Sb0 1.996010 1_555
O2 Sb0 1.996010 1_555
O3 Sb0 1.996010 1_555
O4 Sb0 1.996010 1_555
O5 Sb0 1.996010 1_555
