# generated using pymatgen
data_BiPt3
_symmetry_space_group_name_H-M   'P 1'
_cell_length_a   5.23784100
_cell_length_b   5.23784100
_cell_length_c   5.23784100
_cell_angle_alpha   134.00733261
_cell_angle_beta   134.00733261
_cell_angle_gamma   67.07655565
_symmetry_Int_Tables_number   1
_chemical_formula_structural   BiPt3
_chemical_formula_sum   'Bi1 Pt3'
_cell_volume   73.12340519
_cell_formula_units_Z   1
loop_
 _symmetry_equiv_pos_site_id
 _symmetry_equiv_pos_as_xyz
  1  'x, y, z'
loop_
 _atom_site_type_symbol
 _atom_site_label
 _atom_site_symmetry_multiplicity
 _atom_site_fract_x
 _atom_site_fract_y
 _atom_site_fract_z
 _atom_site_occupancy
  Bi  Bi0  1  0.00000000  0.00000000  0.00000000  1
  Pt  Pt0  1  0.75000000  0.25000000  0.50000000  1
  Pt  Pt1  1  0.25000000  0.75000000  0.50000000  1
  Pt  Pt2  1  0.50000000  0.50000000  0.00000000  1
loop_
_geom_bond_atom_site_label_1
_geom_bond_atom_site_label_2
_geom_bond_distance
_geom_bond_site_symmetry_2
Bi0 Pt2 2.893876 1_556
Bi0 Pt2 2.893876 1_444
Bi0 Pt2 2.893876 1_545
Bi0 Pt2 2.893876 1_455
Bi0 Pt0 2.992052 1_454
Bi0 Pt1 2.992052 1_444
Bi0 Pt0 2.992052 1_444
Bi0 Pt1 2.992052 1_555
Bi0 Pt0 2.992052 1_455
Bi0 Pt1 2.992052 1_544
Bi0 Pt1 2.992052 1_545
Bi0 Pt0 2.992052 1_555
Pt0 Pt1 2.893876 1_645
Pt0 Pt1 2.893876 1_555
Pt0 Pt1 2.893876 1_656
Pt0 Pt1 2.893876 1_544
Pt0 Pt2 2.992052 1_545
Pt0 Pt2 2.992052 1_555
Pt0 Pt2 2.992052 1_556
Pt0 Pt2 2.992052 1_656
Pt1 Pt2 2.992052 1_566
Pt1 Pt2 2.992052 1_455
Pt1 Pt2 2.992052 1_555
Pt1 Pt2 2.992052 1_556
