# generated using pymatgen
data_Rb2Pr2Mg(WO4)4
_symmetry_space_group_name_H-M   'P 1'
_cell_length_a   7.92605197
_cell_length_b   7.92605197
_cell_length_c   7.59087730
_cell_angle_alpha   63.10044925
_cell_angle_beta   63.10044925
_cell_angle_gamma   93.83595243
_symmetry_Int_Tables_number   1
_chemical_formula_structural   Rb2Pr2Mg(WO4)4
_chemical_formula_sum   'Rb2 Pr2 Mg1 W4 O16'
_cell_volume   356.46471348
_cell_formula_units_Z   1
loop_
 _symmetry_equiv_pos_site_id
 _symmetry_equiv_pos_as_xyz
  1  'x, y, z'
loop_
 _atom_site_type_symbol
 _atom_site_label
 _atom_site_symmetry_multiplicity
 _atom_site_fract_x
 _atom_site_fract_y
 _atom_site_fract_z
 _atom_site_occupancy
  Rb  Rb0  1  0.77876700  0.22123300  0.75000000  1
  Rb  Rb1  1  0.25759100  0.74240900  0.25000000  1
  Pr  Pr0  1  0.23329900  0.76670100  0.75000000  1
  Pr  Pr1  1  0.74752800  0.25247200  0.25000000  1
  Mg  Mg0  1  0.00685600  0.99314400  0.25000000  1
  W  W0  1  0.28444100  0.30675400  0.70927000  1
  W  W1  1  0.71591200  0.69527400  0.28565500  1
  W  W2  1  0.69324600  0.71555900  0.79073000  1
  W  W3  1  0.30472600  0.28408800  0.21434400  1
  O  O0  1  0.31669700  0.19967300  0.99268800  1
  O  O1  1  0.64407900  0.75980800  0.03544700  1
  O  O2  1  0.80032700  0.68330300  0.50731200  1
  O  O3  1  0.24019200  0.35592100  0.46455200  1
  O  O4  1  0.62168600  0.93104800  0.63293700  1
  O  O5  1  0.38676500  0.07583700  0.36791400  1
  O  O6  1  0.06895200  0.37831400  0.86706300  1
  O  O7  1  0.92416300  0.61323500  0.13208600  1
  O  O8  1  0.42629900  0.62673600  0.52730000  1
  O  O9  1  0.57221200  0.36656500  0.50115100  1
  O  O10  1  0.37326400  0.57370100  0.97270000  1
  O  O11  1  0.63343500  0.42778800  0.99884900  1
  O  O12  1  0.19468800  0.03024800  0.84139600  1
  O  O13  1  0.79275000  0.97929300  0.17411500  1
  O  O14  1  0.96975200  0.80531200  0.65860400  1
  O  O15  1  0.02070700  0.20725000  0.32588500  1
loop_
_geom_bond_atom_site_label_1
_geom_bond_atom_site_label_2
_geom_bond_distance
_geom_bond_site_symmetry_2
Mg0 O13 2.034835 1_455
Mg0 O15 2.034835 1_565
Mg0 O2 2.180448 1_455
Mg0 O0 2.180448 1_564
Mg0 O14 2.619344 1_455
Mg0 O12 2.619344 1_564
Mg0 Rb1 2.903011 1_555
O0 W3 2.042151 1_556
O0 W0 2.070918 1_555
O0 O12 2.506800 1_555
O0 O9 2.848007 1_555
O0 Rb1 3.115991 1_546
O0 Rb0 3.219082 1_555
O1 W2 1.917909 1_554
O1 W1 2.081230 1_555
O1 Rb1 2.698392 1_555
O1 Rb0 3.069899 1_564
O2 W1 2.042158 1_555
O2 W2 2.070918 1_555
O2 Rb1 3.115991 1_655
O2 Rb0 3.219082 1_555
O3 W0 1.917917 1_555
O3 W3 2.081230 1_555
O3 Rb1 2.698391 1_555
O3 Rb0 3.069900 1_455
O4 W2 1.888594 1_555
O4 Pr1 2.504096 1_565
O4 Pr0 2.811354 1_555
O4 Rb0 3.177599 1_565
O5 W3 1.895959 1_555
O5 Pr0 2.423604 1_545
O5 Pr1 2.636688 1_555
O5 Rb1 3.382486 1_545
O6 W0 1.888594 1_555
O6 Pr1 2.504096 1_456
O6 O8 2.569002 1_555
O6 Pr0 2.811354 1_555
O6 Rb0 3.177599 1_455
O7 W1 1.895957 1_555
O7 Pr0 2.423604 1_654
O7 O9 2.587540 1_555
O7 Pr1 2.636688 1_555
O7 Rb1 3.382486 1_655
O8 W1 2.012593 1_555
O8 W0 2.155846 1_555
O8 Pr0 2.452057 1_555
O8 O9 2.472054 1_555
O8 Rb1 2.832693 1_555
O9 W0 1.959618 1_555
O9 W1 2.195849 1_555
O9 Pr1 2.390453 1_555
O9 Rb0 2.942315 1_555
O10 W3 2.012591 1_556
O10 W2 2.155846 1_555
O10 Pr0 2.452057 1_555
O10 O11 2.472054 1_555
O10 O4 2.569002 1_555
O10 Rb1 2.832693 1_556
O11 W2 1.959618 1_555
O11 W3 2.195850 1_556
O11 Pr1 2.390453 1_556
O11 O5 2.587540 1_556
O11 O2 2.848007 1_555
O11 Rb0 2.942315 1_555
O12 W0 1.863318 1_555
O12 Pr0 2.478544 1_545
O12 Rb1 3.197234 1_546
O13 W1 1.944418 1_555
O13 Pr1 2.488796 1_565
O13 Rb0 2.969715 1_564
O14 W2 1.863318 1_555
O14 Pr0 2.478544 1_655
O14 O2 2.506800 1_555
O14 Rb1 3.197234 1_655
O15 W3 1.944416 1_555
O15 Pr1 2.488796 1_455
O15 Rb0 2.969715 1_455
