# generated using pymatgen
data_CoPb2WO6
_symmetry_space_group_name_H-M   'P 1'
_cell_length_a   5.72539040
_cell_length_b   8.03104890
_cell_length_c   5.77952592
_cell_angle_alpha   89.82161515
_cell_angle_beta   90.00331238
_cell_angle_gamma   90.00033494
_symmetry_Int_Tables_number   1
_chemical_formula_structural   CoPb2WO6
_chemical_formula_sum   'Co2 Pb4 W2 O12'
_cell_volume   265.74645863
_cell_formula_units_Z   2
loop_
 _symmetry_equiv_pos_site_id
 _symmetry_equiv_pos_as_xyz
  1  'x, y, z'
loop_
 _atom_site_type_symbol
 _atom_site_label
 _atom_site_symmetry_multiplicity
 _atom_site_fract_x
 _atom_site_fract_y
 _atom_site_fract_z
 _atom_site_occupancy
  Co  Co0  1  0.50000300  0.00000300  0.50000600  1
  Co  Co1  1  0.99999700  0.50000400  0.00000400  1
  Pb  Pb0  1  0.49999300  0.25008400  0.99030900  1
  Pb  Pb1  1  0.99998700  0.75085100  0.49018700  1
  Pb  Pb2  1  0.99999800  0.24914900  0.50984700  1
  Pb  Pb3  1  0.50002400  0.74990900  0.00967800  1
  W  W0  1  0.99999600  0.99999600  0.99997500  1
  W  W1  1  0.50000300  0.50001600  0.49999500  1
  O  O0  1  0.49999200  0.73953900  0.55841400  1
  O  O1  1  0.00001500  0.23944100  0.05846200  1
  O  O2  1  0.99997000  0.76055600  0.94151500  1
  O  O3  1  0.50002000  0.26045700  0.44159000  1
  O  O4  1  0.75908500  0.03325800  0.76243900  1
  O  O5  1  0.25900700  0.53333700  0.26247300  1
  O  O6  1  0.25901400  0.46664200  0.73750100  1
  O  O7  1  0.75909800  0.96673700  0.23756600  1
  O  O8  1  0.74100700  0.46666400  0.73753000  1
  O  O9  1  0.24091100  0.96674800  0.23756900  1
  O  O10  1  0.24089400  0.03324500  0.76243300  1
  O  O11  1  0.74098600  0.53336400  0.26250800  1
loop_
_geom_bond_atom_site_label_1
_geom_bond_atom_site_label_2
_geom_bond_distance
_geom_bond_site_symmetry_2
Co0 O3 2.117752 1_555
Co0 O0 2.117824 1_545
Co0 O4 2.138783 1_555
Co0 O9 2.138840 1_545
Co0 O10 2.138977 1_555
Co0 O7 2.138999 1_545
Co1 O2 2.118595 1_554
Co1 O1 2.118655 1_655
Co1 O8 2.138673 1_554
Co1 O5 2.138725 1_655
Co1 O11 2.139024 1_555
Co1 O6 2.139046 1_654
O0 W1 1.954062 1_555
O0 Pb3 2.609680 1_556
O0 Pb1 2.891108 1_555
O0 Pb1 2.891121 1_455
O0 Pb3 3.172268 1_555
O1 W0 1.953514 1_444
O1 Pb2 2.610199 1_455
O1 Pb0 2.890792 1_554
O1 Pb0 2.890997 1_454
O1 Pb2 3.171450 1_454
O2 W0 1.953447 1_555
O2 Pb1 2.609869 1_555
O2 Pb3 2.890619 1_556
O2 Pb3 2.891187 1_656
O2 Pb1 3.171779 1_556
O3 W1 1.954333 1_555
O3 Pb0 2.609780 1_554
O3 Pb2 2.890990 1_555
O3 Pb2 2.891284 1_455
O3 Pb0 3.172170 1_555
O4 W0 1.963685 1_545
O4 Pb0 2.642295 1_555
O4 Pb2 2.650347 1_555
O4 Pb3 3.065950 1_546
O4 Pb1 3.089443 1_545
O5 W1 1.964034 1_555
O5 Pb1 2.645267 1_455
O5 Pb3 2.654871 1_555
O5 Pb2 3.071162 1_455
O5 Pb0 3.094400 1_554
O6 W1 1.964108 1_555
O6 Pb2 2.644872 1_455
O6 Pb0 2.654649 1_555
O6 Pb1 3.071109 1_455
O6 Pb3 3.094489 1_556
O7 W0 1.963961 1_554
O7 Pb3 2.642203 1_555
O7 Pb1 2.650264 1_555
O7 Pb0 3.066041 1_564
O7 Pb2 3.089460 1_565
O8 W1 1.964152 1_555
O8 Pb2 2.645089 1_555
O8 Pb0 2.654853 1_555
O8 Pb1 3.070993 1_555
O8 Pb3 3.094298 1_556
O9 W0 1.963920 1_454
O9 Pb3 2.642492 1_555
O9 Pb1 2.650493 1_455
O9 Pb0 3.065987 1_564
O9 Pb2 3.089513 1_465
O10 W0 1.963752 1_445
O10 Pb0 2.642307 1_555
O10 Pb2 2.650268 1_455
O10 Pb3 3.066013 1_546
O10 Pb1 3.089268 1_445
O11 W1 1.963979 1_555
O11 Pb1 2.644864 1_555
O11 Pb3 2.654599 1_555
O11 Pb2 3.071171 1_555
O11 Pb0 3.094588 1_554
