# generated using pymatgen
data_Y2As7Rh12
_symmetry_space_group_name_H-M   'P 1'
_cell_length_a   9.88826551
_cell_length_b   9.88818602
_cell_length_c   3.91066441
_cell_angle_alpha   89.99971957
_cell_angle_beta   90.00143345
_cell_angle_gamma   120.00050411
_symmetry_Int_Tables_number   1
_chemical_formula_structural   Y2As7Rh12
_chemical_formula_sum   'Y2 As7 Rh12'
_cell_volume   331.14310866
_cell_formula_units_Z   1
loop_
 _symmetry_equiv_pos_site_id
 _symmetry_equiv_pos_as_xyz
  1  'x, y, z'
loop_
 _atom_site_type_symbol
 _atom_site_label
 _atom_site_symmetry_multiplicity
 _atom_site_fract_x
 _atom_site_fract_y
 _atom_site_fract_z
 _atom_site_occupancy
  Y  Y0  1  0.33337060  0.66666641  0.75910374  1
  Y  Y1  1  0.00001523  0.00000798  0.25071875  1
  As  As0  1  0.66665487  0.33330882  0.50466576  1
  As  As1  1  0.95399594  0.21514846  0.75528491  1
  As  As2  1  0.78485592  0.73883917  0.75523216  1
  As  As3  1  0.26115622  0.04598498  0.75527940  1
  As  As4  1  0.37947315  0.45150954  0.25480986  1
  As  As5  1  0.54845020  0.92793624  0.25471315  1
  As  As6  1  0.07206569  0.62056998  0.25480344  1
  Rh  Rh0  1  0.73295400  0.95161648  0.75368145  1
  Rh  Rh1  1  0.04835010  0.78135933  0.75373127  1
  Rh  Rh2  1  0.21870782  0.26704320  0.75367643  1
  Rh  Rh3  1  0.60035953  0.71513941  0.25623124  1
  Rh  Rh4  1  0.28483641  0.88523082  0.25627467  1
  Rh  Rh5  1  0.11480312  0.39965816  0.25623318  1
  Rh  Rh6  1  0.93030104  0.44733245  0.76031477  1
  Rh  Rh7  1  0.55269497  0.48295635  0.76029260  1
  Rh  Rh8  1  0.51699116  0.06973971  0.76032808  1
  Rh  Rh9  1  0.40306492  0.21924465  0.24962159  1
  Rh  Rh10  1  0.78073137  0.18377290  0.24957514  1
  Rh  Rh11  1  0.81616674  0.59693597  0.24961239  1
loop_
_geom_bond_atom_site_label_1
_geom_bond_atom_site_label_2
_geom_bond_distance
_geom_bond_site_symmetry_2
As0 Rh9 2.473974 1_555
As0 Rh10 2.474264 1_555
As0 Rh11 2.474271 1_555
As0 Rh8 2.474905 1_555
As0 Rh7 2.475151 1_555
As0 Rh6 2.475415 1_555
As1 Rh2 2.402433 1_655
As1 Rh6 2.421627 1_555
As1 Rh0 2.423248 1_545
As1 Rh10 2.497341 1_556
As1 Rh10 2.532002 1_555
As1 Rh5 2.600948 1_655
As1 Rh5 2.606471 1_656
As1 Y1 3.074814 1_656
As1 Y1 3.097469 1_655
As2 Rh0 2.402081 1_555
As2 Rh7 2.421541 1_555
As2 Rh1 2.422798 1_655
As2 Rh11 2.497394 1_556
As2 Rh11 2.531596 1_555
As2 Rh3 2.600676 1_555
As2 Rh3 2.606612 1_556
As2 Y1 3.075013 1_666
As2 Y1 3.097430 1_665
As3 Rh1 2.401812 1_545
As3 Rh8 2.420958 1_555
As3 Rh2 2.423167 1_555
As3 Rh9 2.497457 1_556
As3 Rh9 2.531907 1_555
As3 Rh4 2.600372 1_545
As3 Rh4 2.606199 1_546
As3 Y1 3.074861 1_556
As3 Y1 3.097382 1_555
As4 Rh5 2.402166 1_555
As4 Rh9 2.421848 1_555
As4 Rh3 2.423291 1_555
As4 Rh7 2.497611 1_554
As4 Rh7 2.530896 1_555
As4 Rh2 2.600127 1_555
As4 Rh2 2.606739 1_554
As4 Y0 3.076015 1_554
As4 Y0 3.097318 1_555
As5 Rh3 2.402318 1_555
As5 Rh10 2.421789 1_565
As5 Rh4 2.423301 1_555
As5 Rh8 2.497387 1_564
As5 Rh8 2.531561 1_565
As5 Rh0 2.600679 1_555
As5 Rh0 2.606806 1_554
As5 Y0 3.075595 1_554
As5 Y0 3.097402 1_555
As6 Rh4 2.401922 1_555
As6 Rh11 2.422101 1_455
As6 Rh5 2.423519 1_555
As6 Rh6 2.497500 1_454
As6 Rh6 2.531065 1_455
As6 Rh1 2.600514 1_555
As6 Rh1 2.606791 1_554
As6 Y0 3.076422 1_554
As6 Y0 3.097647 1_555
Rh0 Rh3 2.811635 1_555
Rh0 Rh3 2.825499 1_556
Rh0 Rh10 2.858188 1_566
Rh0 Rh10 2.880077 1_565
Rh0 Rh8 2.901666 1_565
Rh0 Y1 3.117195 1_666
Rh0 Y1 3.131776 1_665
Rh0 Y0 3.523951 1_555
Rh1 Rh4 2.811782 1_555
Rh1 Rh4 2.825508 1_556
Rh1 Rh11 2.858422 1_456
Rh1 Rh11 2.880309 1_455
Rh1 Rh6 2.901202 1_455
Rh1 Y1 3.116678 1_566
Rh1 Y1 3.131397 1_565
Rh1 Y0 3.525073 1_555
Rh2 Rh5 2.811887 1_555
Rh2 Rh5 2.825803 1_556
Rh2 Rh9 2.858254 1_556
Rh2 Rh9 2.879933 1_555
Rh2 Rh7 2.900807 1_555
Rh2 Y1 3.117183 1_556
Rh2 Y1 3.131608 1_555
Rh2 Y0 3.524249 1_555
Rh3 Rh7 2.858761 1_554
Rh3 Rh7 2.880407 1_555
Rh3 Y0 3.116647 1_554
Rh3 Y0 3.130790 1_555
Rh3 Y1 3.524277 1_665
Rh4 Rh8 2.858659 1_564
Rh4 Rh8 2.880197 1_565
Rh4 Rh9 2.900788 1_565
Rh4 Y0 3.117470 1_554
Rh4 Y0 3.131290 1_555
Rh4 Y1 3.523786 1_565
Rh5 Rh6 2.858622 1_454
Rh5 Rh6 2.880440 1_455
Rh5 Y0 3.116928 1_554
Rh5 Y0 3.130929 1_555
Rh5 Y1 3.524211 1_555
Rh6 Y0 3.456150 1_655
Rh7 Rh9 2.965232 1_556
Rh7 Y0 3.455869 1_555
Rh8 Rh9 2.963349 1_556
Rh8 Y0 3.456216 1_545
Rh9 Y1 3.455935 1_555
Rh10 Rh5 2.901407 1_655
Rh10 Rh6 2.964076 1_554
Rh10 Rh8 2.965210 1_554
Rh10 Y1 3.455968 1_655
Rh11 Rh3 2.900834 1_555
Rh11 Rh7 2.963596 1_554
Rh11 Rh6 2.965326 1_554
Rh11 Y1 3.456089 1_665
