# generated using pymatgen
data_Zn4As2O9
_symmetry_space_group_name_H-M   'P 1'
_cell_length_a   8.35963000
_cell_length_b   9.93055900
_cell_length_c   10.59926663
_cell_angle_alpha   59.07728437
_cell_angle_beta   90.00000000
_cell_angle_gamma   90.00000000
_symmetry_Int_Tables_number   1
_chemical_formula_structural   Zn4As2O9
_chemical_formula_sum   'Zn16 As8 O36'
_cell_volume   754.83775496
_cell_formula_units_Z   4
loop_
 _symmetry_equiv_pos_site_id
 _symmetry_equiv_pos_as_xyz
  1  'x, y, z'
loop_
 _atom_site_type_symbol
 _atom_site_label
 _atom_site_symmetry_multiplicity
 _atom_site_fract_x
 _atom_site_fract_y
 _atom_site_fract_z
 _atom_site_occupancy
  Zn  Zn0  1  0.68153100  0.84730600  0.47668000  1
  Zn  Zn1  1  0.18153100  0.15269400  0.02332000  1
  Zn  Zn2  1  0.31846900  0.15269400  0.52332000  1
  Zn  Zn3  1  0.81846900  0.84730600  0.97668000  1
  Zn  Zn4  1  0.97965100  0.89933800  0.65424400  1
  Zn  Zn5  1  0.47965100  0.10066200  0.84575600  1
  Zn  Zn6  1  0.02034900  0.10066200  0.34575600  1
  Zn  Zn7  1  0.52034900  0.89933800  0.15424400  1
  Zn  Zn8  1  0.30716800  0.48449600  0.00554700  1
  Zn  Zn9  1  0.80716800  0.51550400  0.49445300  1
  Zn  Zn10  1  0.69283200  0.51550400  0.99445300  1
  Zn  Zn11  1  0.19283200  0.48449600  0.50554700  1
  Zn  Zn12  1  0.24361100  0.79402600  0.04365500  1
  Zn  Zn13  1  0.74361100  0.20597400  0.45634500  1
  Zn  Zn14  1  0.75638900  0.20597400  0.95634500  1
  Zn  Zn15  1  0.25638900  0.79402600  0.54365500  1
  As  As0  1  0.01636500  0.50001500  0.78607600  1
  As  As1  1  0.51636500  0.49998500  0.71392400  1
  As  As2  1  0.98363500  0.49998500  0.21392400  1
  As  As3  1  0.48363500  0.50001500  0.28607600  1
  As  As4  1  0.00554800  0.84081000  0.26671000  1
  As  As5  1  0.50554800  0.15919000  0.23329000  1
  As  As6  1  0.99445200  0.15919000  0.73329000  1
  As  As7  1  0.49445200  0.84081000  0.76671000  1
  O  O0  1  0.33527400  0.75817800  0.88552300  1
  O  O1  1  0.83527400  0.24182200  0.61447700  1
  O  O2  1  0.66472600  0.24182200  0.11447700  1
  O  O3  1  0.16472600  0.75817800  0.38552300  1
  O  O4  1  0.48344600  0.04490600  0.69349000  1
  O  O5  1  0.98344600  0.95509400  0.80651000  1
  O  O6  1  0.51655400  0.95509400  0.30651000  1
  O  O7  1  0.01655400  0.04490600  0.19349000  1
  O  O8  1  0.67347200  0.99529700  0.99136500  1
  O  O9  1  0.17347200  0.00470300  0.50863500  1
  O  O10  1  0.32652800  0.00470300  0.00863500  1
  O  O11  1  0.82652800  0.99529700  0.49136500  1
  O  O12  1  0.49932800  0.47642700  0.13654500  1
  O  O13  1  0.99932800  0.52357300  0.36345500  1
  O  O14  1  0.47562900  0.82454700  0.61291000  1
  O  O15  1  0.50067200  0.52357300  0.86345500  1
  O  O16  1  0.65806200  0.44361500  0.38660400  1
  O  O17  1  0.15806200  0.55638500  0.11339600  1
  O  O18  1  0.34193800  0.55638500  0.61339600  1
  O  O19  1  0.84193800  0.44361500  0.88660400  1
  O  O20  1  0.42767900  0.69307200  0.21637300  1
  O  O21  1  0.92767900  0.30692800  0.28362700  1
  O  O22  1  0.57232100  0.30692800  0.78362700  1
  O  O23  1  0.07232100  0.69307200  0.71637300  1
  O  O24  1  0.82078200  0.77725600  0.34676600  1
  O  O25  1  0.32078200  0.22274400  0.15323400  1
  O  O26  1  0.17921800  0.22274400  0.65323400  1
  O  O27  1  0.67921800  0.77725600  0.84676600  1
  O  O28  1  0.17072900  0.39395100  0.90571400  1
  O  O29  1  0.67072900  0.60604900  0.59428600  1
  O  O30  1  0.82927100  0.60604900  0.09428600  1
  O  O31  1  0.32927100  0.39395100  0.40571400  1
  O  O32  1  0.02437100  0.82454700  0.11291000  1
  O  O33  1  0.52437100  0.17545300  0.38709000  1
  O  O34  1  0.97562900  0.17545300  0.88709000  1
  O  O35  1  0.00067200  0.47642700  0.63654500  1
loop_
_geom_bond_atom_site_label_1
_geom_bond_atom_site_label_2
_geom_bond_distance
_geom_bond_site_symmetry_2
As0 O19 1.721008 1_455
As0 O35 1.722094 1_555
As0 O23 1.727550 1_555
As0 O28 1.734903 1_555
As1 O18 1.721008 1_555
As1 O15 1.722094 1_555
As1 O22 1.727550 1_555
As1 O29 1.734903 1_555
As2 O17 1.721008 1_655
As2 O13 1.722094 1_555
As2 O21 1.727550 1_555
As2 O30 1.734903 1_555
As3 O16 1.721008 1_555
As3 O12 1.722094 1_555
As3 O20 1.727550 1_555
As3 O31 1.734903 1_555
As4 O24 1.718617 1_455
As4 O3 1.722752 1_555
As4 O32 1.725940 1_555
As4 O7 1.761254 1_565
As5 O25 1.718617 1_555
As5 O2 1.722752 1_555
As5 O33 1.725940 1_555
As5 O6 1.761254 1_545
As6 O26 1.718617 1_655
As6 O1 1.722752 1_555
As6 O34 1.725940 1_555
As6 O5 1.761254 1_545
As7 O27 1.718617 1_555
As7 O0 1.722752 1_555
As7 O14 1.725940 1_555
As7 O4 1.761254 1_565
O0 Zn12 2.033811 1_556
O0 Zn8 2.346621 1_556
O1 Zn13 2.033811 1_555
O1 Zn9 2.346621 1_555
O2 Zn14 2.033811 1_554
O2 Zn10 2.346621 1_554
O3 Zn15 2.033811 1_555
O3 Zn11 2.346621 1_555
O4 Zn5 1.957214 1_555
O4 Zn2 2.077690 1_555
O5 Zn4 1.957214 1_555
O5 Zn3 2.077690 1_555
O6 Zn7 1.957214 1_555
O6 Zn0 2.077690 1_555
O7 Zn6 1.957214 1_555
O7 Zn1 2.077690 1_555
O8 Zn7 1.958634 1_556
O8 Zn3 1.971899 1_555
O8 Zn14 2.048697 1_565
O8 Zn5 2.107683 1_565
O9 Zn6 1.958634 1_555
O9 Zn2 1.971899 1_555
O9 Zn15 2.048697 1_545
O9 Zn4 2.107683 1_445
O10 Zn5 1.958634 1_554
O10 Zn1 1.971899 1_555
O10 Zn12 2.048697 1_545
O10 Zn7 2.107683 1_545
O11 Zn4 1.958634 1_555
O11 Zn0 1.971899 1_555
O11 Zn13 2.048697 1_565
O11 Zn6 2.107683 1_665
O12 Zn8 2.097721 1_555
O12 Zn10 2.105914 1_554
O13 Zn9 2.097721 1_555
O13 Zn11 2.105914 1_655
O14 Zn15 2.053871 1_555
O14 Zn0 2.182518 1_555
O15 Zn10 2.097721 1_555
O15 Zn8 2.105914 1_556
O16 Zn9 2.051534 1_555
O16 Zn13 2.198671 1_555
O17 Zn8 2.051534 1_555
O17 Zn12 2.198671 1_555
O18 Zn11 2.051534 1_555
O18 Zn15 2.198671 1_555
O19 Zn10 2.051534 1_555
O19 Zn14 2.198671 1_555
O20 Zn7 1.960396 1_555
O20 Zn12 2.199528 1_555
O21 Zn6 1.960396 1_655
O21 Zn13 2.199528 1_555
O22 Zn5 1.960396 1_555
O22 Zn14 2.199528 1_555
O23 Zn4 1.960396 1_455
O23 Zn15 2.199528 1_555
O24 Zn0 2.172463 1_555
O24 Zn9 2.244555 1_555
O25 Zn1 2.172463 1_555
O25 Zn8 2.244555 1_555
O26 Zn2 2.172463 1_555
O26 Zn11 2.244555 1_555
O27 Zn3 2.172463 1_555
O27 Zn10 2.244555 1_555
O28 Zn8 2.051092 1_556
O28 Zn1 2.057319 1_556
O29 Zn9 2.051092 1_555
O29 Zn0 2.057319 1_555
O30 Zn10 2.051092 1_554
O30 Zn3 2.057319 1_554
O31 Zn11 2.051092 1_555
O31 Zn2 2.057319 1_555
O32 Zn12 2.053871 1_555
O32 Zn3 2.182518 1_454
O33 Zn13 2.053871 1_555
O33 Zn2 2.182518 1_555
O34 Zn14 2.053871 1_555
O34 Zn1 2.182518 1_656
O35 Zn11 2.097721 1_555
O35 Zn9 2.105914 1_455
