# generated using pymatgen
data_Mg(BiO2)4
_symmetry_space_group_name_H-M   'P 1'
_cell_length_a   6.93597670
_cell_length_b   7.27168062
_cell_length_c   7.15702777
_cell_angle_alpha   60.16823628
_cell_angle_beta   63.42016960
_cell_angle_gamma   58.35377735
_symmetry_Int_Tables_number   1
_chemical_formula_structural   Mg(BiO2)4
_chemical_formula_sum   'Mg1 Bi4 O8'
_cell_volume   257.94253457
_cell_formula_units_Z   1
loop_
 _symmetry_equiv_pos_site_id
 _symmetry_equiv_pos_as_xyz
  1  'x, y, z'
loop_
 _atom_site_type_symbol
 _atom_site_label
 _atom_site_symmetry_multiplicity
 _atom_site_fract_x
 _atom_site_fract_y
 _atom_site_fract_z
 _atom_site_occupancy
  Mg  Mg0  1  0.06397100  0.03320300  0.37614700  1
  Bi  Bi0  1  0.47629900  0.99181300  0.53090000  1
  Bi  Bi1  1  0.59347500  0.43962000  0.00650400  1
  Bi  Bi2  1  0.99174700  0.50397200  0.50127600  1
  Bi  Bi3  1  0.47453400  0.50785700  0.52005200  1
  O  O0  1  0.19481900  0.26197300  0.32381200  1
  O  O1  1  0.76717400  0.22998900  0.27245100  1
  O  O2  1  0.18889800  0.72330500  0.32503100  1
  O  O3  1  0.24041900  0.29059800  0.69444000  1
  O  O4  1  0.72484100  0.72602100  0.33208500  1
  O  O5  1  0.77245600  0.29775100  0.74100400  1
  O  O6  1  0.25401400  0.81466000  0.62111600  1
  O  O7  1  0.75735000  0.67923600  0.75518300  1
loop_
_geom_bond_atom_site_label_1
_geom_bond_atom_site_label_2
_geom_bond_distance
_geom_bond_site_symmetry_2
Mg0 O1 2.013873 1_455
Mg0 O0 2.095581 1_555
Mg0 O6 2.105895 1_545
Mg0 O2 2.109592 1_545
Bi0 O6 2.195250 1_555
Bi0 O0 2.352792 1_565
Bi0 O4 2.403501 1_555
Bi0 O3 2.419412 1_565
Bi0 O7 2.462477 1_555
Bi0 O1 2.762455 1_565
Bi1 O1 2.153217 1_555
Bi1 O7 2.166515 1_554
Bi1 O5 2.170611 1_554
Bi2 O4 2.103504 1_555
Bi2 O3 2.117797 1_655
Bi2 O0 2.171548 1_655
Bi2 O2 2.179032 1_655
Bi2 O5 2.237007 1_555
Bi2 O7 2.248509 1_555
Bi3 O6 2.207852 1_555
Bi3 O2 2.317253 1_555
Bi3 O3 2.367902 1_555
Bi3 O4 2.453031 1_555
Bi3 O5 2.512468 1_555
Bi3 O1 2.717134 1_555
