# generated using pymatgen
data_MgV4(OF2)4
_symmetry_space_group_name_H-M   'P 1'
_cell_length_a   5.12843400
_cell_length_b   7.72228081
_cell_length_c   5.27625755
_cell_angle_alpha   93.19633151
_cell_angle_beta   89.99887383
_cell_angle_gamma   90.00030726
_symmetry_Int_Tables_number   1
_chemical_formula_structural   MgV4(OF2)4
_chemical_formula_sum   'Mg1 V4 O4 F8'
_cell_volume   208.63165582
_cell_formula_units_Z   1
loop_
 _symmetry_equiv_pos_site_id
 _symmetry_equiv_pos_as_xyz
  1  'x, y, z'
loop_
 _atom_site_type_symbol
 _atom_site_label
 _atom_site_symmetry_multiplicity
 _atom_site_fract_x
 _atom_site_fract_y
 _atom_site_fract_z
 _atom_site_occupancy
  Mg  Mg0  1  0.98484300  0.75002500  0.49996000  1
  V  V0  1  0.50354700  0.49159900  0.49225100  1
  V  V1  1  0.50354500  0.00841900  0.50776400  1
  V  V2  1  0.00166100  0.49158900  0.98965200  1
  V  V3  1  0.00163600  0.00839400  0.01033100  1
  O  O0  1  0.81740900  0.55781700  0.29387900  1
  O  O1  1  0.81737100  0.94218600  0.70613400  1
  O  O2  1  0.18364900  0.02839700  0.29491000  1
  O  O3  1  0.18368700  0.47160200  0.70508500  1
  F  F0  1  0.87474700  0.24998900  0.00002600  1
  F  F1  1  0.69959900  0.92562500  0.20333200  1
  F  F2  1  0.69959600  0.57433100  0.79670800  1
  F  F3  1  0.62273800  0.25000400  0.49998100  1
  F  F4  1  0.37013400  0.75001000  0.49999300  1
  F  F5  1  0.30612100  0.42506000  0.18508900  1
  F  F6  1  0.30608200  0.07495800  0.81490400  1
  F  F7  1  0.11113500  0.74999600  0.00000100  1
loop_
_geom_bond_atom_site_label_1
_geom_bond_atom_site_label_2
_geom_bond_distance
_geom_bond_site_symmetry_2
Mg0 O0 1.985641 1_555
Mg0 O1 1.985701 1_555
Mg0 O2 2.662774 1_665
Mg0 O3 2.663379 1_655
O0 V2 1.907733 1_654
O0 V0 2.001867 1_555
O1 V3 1.907630 1_666
O1 V1 2.001783 1_565
O2 V3 1.767456 1_555
O2 V1 1.998986 1_555
O3 V2 1.767403 1_555
O3 V0 1.998753 1_555
F0 V3 1.979508 1_655
F0 V2 1.979608 1_654
F0 F6 2.743531 1_654
F0 F5 2.743755 1_655
F1 V1 1.971092 1_565
F1 V3 1.979231 1_665
F1 Mg0 2.581674 1_555
F1 O2 2.642535 1_665
F1 F7 2.698598 1_655
F1 O1 2.701933 1_554
F1 F4 2.716734 1_555
F2 V0 1.971080 1_555
F2 V2 1.979146 1_655
F2 Mg0 2.582448 1_555
F2 O3 2.642666 1_655
F2 F7 2.698691 1_656
F2 O0 2.701828 1_556
F2 F4 2.717207 1_555
F3 V1 1.965779 1_555
F3 V0 1.965835 1_555
F3 F5 2.734049 1_555
F3 F6 2.734184 1_555
F4 Mg0 1.975939 1_455
F4 V1 2.107773 1_565
F4 V0 2.107802 1_555
F5 V0 1.955225 1_555
F5 V2 1.955607 1_554
F5 O3 2.653147 1_554
F5 O0 2.756177 1_455
F6 V1 1.955199 1_555
F6 V3 1.955563 1_556
F6 O2 2.653159 1_556
F6 O1 2.756205 1_445
F7 V3 2.070727 1_565
F7 V2 2.070751 1_554
F7 O3 2.609306 1_554
F7 O2 2.609306 1_565
F7 O0 2.670641 1_455
F7 O1 2.670808 1_454
F7 Mg0 2.716236 1_455
F7 Mg0 2.716705 1_454
