# generated using pymatgen
data_Na7MgNbO6
_symmetry_space_group_name_H-M   'P 1'
_cell_length_a   8.36372879
_cell_length_b   7.49680068
_cell_length_c   17.79890235
_cell_angle_alpha   79.29060490
_cell_angle_beta   145.60697162
_cell_angle_gamma   131.29861999
_symmetry_Int_Tables_number   1
_chemical_formula_structural   Na7MgNbO6
_chemical_formula_sum   'Na7 Mg1 Nb1 O6'
_cell_volume   252.94392578
_cell_formula_units_Z   1
loop_
 _symmetry_equiv_pos_site_id
 _symmetry_equiv_pos_as_xyz
  1  'x, y, z'
loop_
 _atom_site_type_symbol
 _atom_site_label
 _atom_site_symmetry_multiplicity
 _atom_site_fract_x
 _atom_site_fract_y
 _atom_site_fract_z
 _atom_site_occupancy
  Na  Na0  1  0.85760553  0.68021013  0.38731231  1
  Na  Na1  1  0.53595663  0.18294707  0.44101271  1
  Na  Na2  1  0.32638988  0.40503631  0.94635914  1
  Na  Na3  1  0.69723321  0.14464765  0.10425770  1
  Na  Na4  1  0.71716256  0.89272864  0.59296553  1
  Na  Na5  1  0.11983595  0.68582926  0.76799587  1
  Na  Na6  1  0.66030127  0.97325352  0.37232635  1
  Mg  Mg0  1  0.02862362  0.46686202  0.98473881  1
  Nb  Nb0  1  0.02665370  0.94704872  0.00072933  1
  O  O0  1  0.72209231  0.02522727  0.85729175  1
  O  O1  1  0.59322493  0.23092104  0.28406735  1
  O  O2  1  0.12278102  0.39663425  0.75295832  1
  O  O3  1  0.99557898  0.39371912  0.08395307  1
  O  O4  1  0.72815395  0.56420726  0.85209331  1
  O  O5  1  0.83594744  0.47577974  0.20520744  1
loop_
_geom_bond_atom_site_label_1
_geom_bond_atom_site_label_2
_geom_bond_distance
_geom_bond_site_symmetry_2
Na0 O3 2.317638 1_455
Na0 O1 2.318344 1_555
Na0 O2 2.737085 1_765
Na0 Na2 3.114017 1_765
Na0 Na5 3.173953 1_765
Na1 O2 2.331668 1_655
Na1 O0 2.565151 1_665
Na1 O5 2.597047 1_445
Na1 Na2 2.842778 1_444
Na1 Na5 2.980006 1_655
Na1 O1 3.125631 1_555
Na1 Na6 3.165130 1_545
Na2 O2 2.240096 1_555
Na2 O5 2.278235 1_556
Na2 O0 2.371474 1_455
Na2 O1 2.976618 1_666
Na3 O3 2.220588 1_555
Na3 O5 2.269975 1_555
Na3 O4 2.332478 1_444
Na3 Na6 2.788589 1_655
Na3 Na5 2.999737 1_544
Na4 O2 2.242149 1_665
Na4 O5 2.320266 1_455
Na4 O4 2.488456 1_665
Na4 O1 2.547534 1_455
Na4 O3 3.127684 1_666
Na5 O2 2.251591 1_555
Na5 O3 2.289526 1_566
Na5 O0 2.397024 1_565
Na6 O1 2.315617 1_565
Na6 O3 2.332431 1_455
Na6 O5 2.574667 1_455
Na6 O4 2.877250 1_665
Mg0 O3 1.934174 1_456
Mg0 O4 2.100138 1_455
Mg0 O0 2.160893 1_455
Mg0 Na3 2.914406 1_566
Nb0 O1 1.911712 1_565
Nb0 O4 1.983126 1_454
Nb0 O0 2.007936 1_464
Nb0 O5 2.015937 1_565
Nb0 O2 2.047364 1_454
