# generated using pymatgen
data_DyB3H18C2S
_symmetry_space_group_name_H-M   'P 1'
_cell_length_a   5.50837784
_cell_length_b   22.68787000
_cell_length_c   8.14909087
_cell_angle_alpha   90.00000000
_cell_angle_beta   100.04363148
_cell_angle_gamma   90.00000000
_symmetry_Int_Tables_number   1
_chemical_formula_structural   DyB3H18C2S
_chemical_formula_sum   'Dy4 B12 H72 C8 S4'
_cell_volume   1002.81223104
_cell_formula_units_Z   4
loop_
 _symmetry_equiv_pos_site_id
 _symmetry_equiv_pos_as_xyz
  1  'x, y, z'
loop_
 _atom_site_type_symbol
 _atom_site_label
 _atom_site_symmetry_multiplicity
 _atom_site_fract_x
 _atom_site_fract_y
 _atom_site_fract_z
 _atom_site_occupancy
  Dy  Dy0  1  0.68158500  0.33378700  0.11748000  1
  Dy  Dy1  1  0.31841500  0.83378700  0.38252000  1
  Dy  Dy2  1  0.31841500  0.66621300  0.88252000  1
  Dy  Dy3  1  0.68158500  0.16621300  0.61748000  1
  B  B0  1  0.16576500  0.16861600  0.56491100  1
  B  B1  1  0.83423500  0.66861600  0.93508900  1
  B  B2  1  0.83423500  0.83138400  0.43508900  1
  B  B3  1  0.16576500  0.33138400  0.06491100  1
  B  B4  1  0.80001500  0.08416000  0.81324800  1
  B  B5  1  0.19998500  0.58416000  0.68675200  1
  B  B6  1  0.19998500  0.91584000  0.18675200  1
  B  B7  1  0.80001500  0.41584000  0.31324800  1
  B  B8  1  0.32179700  0.75490500  0.12319200  1
  B  B9  1  0.67820300  0.25490500  0.37680800  1
  B  B10  1  0.67820300  0.24509500  0.87680800  1
  B  B11  1  0.32179700  0.74509500  0.62319200  1
  H  H0  1  0.28038000  0.19610700  0.47310400  1
  H  H1  1  0.71962000  0.69610700  0.02689600  1
  H  H2  1  0.71962000  0.80389300  0.52689600  1
  H  H3  1  0.28038000  0.30389300  0.97310400  1
  H  H4  1  0.29560500  0.13549000  0.66192000  1
  H  H5  1  0.70439500  0.63549000  0.83808000  1
  H  H6  1  0.70439500  0.86451000  0.33808000  1
  H  H7  1  0.29560500  0.36451000  0.16192000  1
  H  H8  1  0.07390600  0.20536900  0.64670900  1
  H  H9  1  0.92609400  0.70536900  0.85329100  1
  H  H10  1  0.92609400  0.79463100  0.35329100  1
  H  H11  1  0.07390600  0.29463100  0.14670900  1
  H  H12  1  0.00832800  0.13810700  0.47750400  1
  H  H13  1  0.99167200  0.63810700  0.02249600  1
  H  H14  1  0.99167200  0.86189300  0.52249600  1
  H  H15  1  0.00832800  0.36189300  0.97750400  1
  H  H16  1  0.85954400  0.04305200  0.90462300  1
  H  H17  1  0.14045600  0.54305200  0.59537700  1
  H  H18  1  0.14045600  0.95694800  0.09537700  1
  H  H19  1  0.85954400  0.45694800  0.40462300  1
  H  H20  1  0.96067300  0.12277400  0.82366100  1
  H  H21  1  0.03932700  0.62277400  0.67633900  1
  H  H22  1  0.03932700  0.87722600  0.17633900  1
  H  H23  1  0.96067300  0.37722600  0.32366100  1
  H  H24  1  0.75811200  0.06883900  0.66430500  1
  H  H25  1  0.24188900  0.56883900  0.83569500  1
  H  H26  1  0.24188900  0.93116100  0.33569500  1
  H  H27  1  0.75811200  0.43116100  0.16430500  1
  H  H28  1  0.61024300  0.10898800  0.83941400  1
  H  H29  1  0.38975700  0.60898800  0.66058600  1
  H  H30  1  0.38975700  0.89101200  0.16058600  1
  H  H31  1  0.61024300  0.39101200  0.33941400  1
  H  H32  1  0.13021400  0.77300500  0.16312400  1
  H  H33  1  0.86978600  0.27300500  0.33687600  1
  H  H34  1  0.86978600  0.22699500  0.83687600  1
  H  H35  1  0.13021400  0.72699500  0.66312400  1
  H  H36  1  0.33579800  0.70176200  0.15282000  1
  H  H37  1  0.66420200  0.20176200  0.34718000  1
  H  H38  1  0.66420200  0.29823800  0.84718000  1
  H  H39  1  0.33579800  0.79823800  0.65282000  1
  H  H40  1  0.31462500  0.76627100  0.97470700  1
  H  H41  1  0.68537500  0.26627100  0.52529300  1
  H  H42  1  0.68537500  0.23372900  0.02529300  1
  H  H43  1  0.31462500  0.73372900  0.47470700  1
  H  H44  1  0.50845500  0.77807500  0.20193200  1
  H  H45  1  0.49154500  0.27807500  0.29806800  1
  H  H46  1  0.49154500  0.22192500  0.79806800  1
  H  H47  1  0.50845500  0.72192500  0.70193200  1
  H  H48  1  0.80488700  0.00986800  0.41277600  1
  H  H49  1  0.19511300  0.50986800  0.08722400  1
  H  H50  1  0.19511300  0.99013200  0.58722400  1
  H  H51  1  0.80488700  0.49013200  0.91277600  1
  H  H52  1  0.85767400  0.05996000  0.25203700  1
  H  H53  1  0.14232600  0.55996000  0.24796300  1
  H  H54  1  0.14232600  0.94004000  0.74796300  1
  H  H55  1  0.85767400  0.44004000  0.75203700  1
  H  H56  1  0.63308700  0.00196800  0.20709500  1
  H  H57  1  0.36691300  0.50196800  0.29290500  1
  H  H58  1  0.36691300  0.99803200  0.79290500  1
  H  H59  1  0.63308700  0.49803200  0.70709500  1
  H  H60  1  0.21647700  0.14536500  0.18629400  1
  H  H61  1  0.78352300  0.64536500  0.31370600  1
  H  H62  1  0.78352300  0.85463500  0.81370600  1
  H  H63  1  0.21647700  0.35463500  0.68629400  1
  H  H64  1  0.27312500  0.08008900  0.07582800  1
  H  H65  1  0.72687500  0.58008900  0.42417200  1
  H  H66  1  0.72687500  0.91991100  0.92417200  1
  H  H67  1  0.27312500  0.41991100  0.57582800  1
  H  H68  1  0.50200100  0.13744900  0.11229100  1
  H  H69  1  0.49799900  0.63744900  0.38770900  1
  H  H70  1  0.49799900  0.86255100  0.88770900  1
  H  H71  1  0.50200100  0.36255100  0.61229100  1
  C  C0  1  0.71902700  0.03378200  0.30078500  1
  C  C1  1  0.28097300  0.53378200  0.19921500  1
  C  C2  1  0.28097300  0.96621800  0.69921500  1
  C  C3  1  0.71902700  0.46621800  0.80078500  1
  C  C4  1  0.35800700  0.11398100  0.16328200  1
  C  C5  1  0.64199300  0.61398100  0.33671800  1
  C  C6  1  0.64199300  0.88601900  0.83671800  1
  C  C7  1  0.35800700  0.38601900  0.66328200  1
  S  S0  1  0.48121800  0.07978600  0.36035600  1
  S  S1  1  0.51878200  0.57978600  0.13964400  1
  S  S2  1  0.51878200  0.92021400  0.63964400  1
  S  S3  1  0.48121800  0.42021400  0.86035600  1
loop_
_geom_bond_atom_site_label_1
_geom_bond_atom_site_label_2
_geom_bond_distance
_geom_bond_site_symmetry_2
Dy0 H27 2.268876 1_555
Dy0 H23 2.292758 1_555
Dy0 H11 2.310094 1_655
Dy0 H31 2.314917 1_555
Dy0 H45 2.323035 1_555
Dy0 H7 2.325076 1_555
Dy0 H38 2.331948 1_554
Dy0 H33 2.350833 1_555
Dy0 H15 2.379750 1_654
Dy0 H42 2.392412 1_555
Dy0 H3 2.412750 1_554
Dy0 S3 2.940548 1_554
Dy1 H26 2.268875 1_555
Dy1 H22 2.292758 1_555
Dy1 H10 2.310094 1_455
Dy1 H30 2.314917 1_555
Dy1 H44 2.323035 1_555
Dy1 H6 2.325076 1_555
Dy1 H39 2.331948 1_555
Dy1 H32 2.350833 1_555
Dy1 H14 2.379750 1_455
Dy1 H43 2.392412 1_555
Dy1 H2 2.412750 1_555
Dy1 S2 2.940548 1_555
Dy2 H25 2.268875 1_555
Dy2 H21 2.292758 1_555
Dy2 H9 2.310094 1_455
Dy2 H29 2.314917 1_555
Dy2 H47 2.323035 1_555
Dy2 H5 2.325076 1_555
Dy2 H36 2.331948 1_556
Dy2 H35 2.350833 1_555
Dy2 H13 2.379750 1_456
Dy2 H40 2.392412 1_555
Dy2 H1 2.412750 1_556
Dy2 S1 2.940548 1_556
Dy3 H24 2.268876 1_555
Dy3 H20 2.292758 1_555
Dy3 H8 2.310094 1_655
Dy3 H28 2.314917 1_555
Dy3 H46 2.323035 1_555
Dy3 H4 2.325076 1_555
Dy3 H37 2.331948 1_555
Dy3 H34 2.350833 1_555
Dy3 H12 2.379750 1_655
Dy3 H41 2.392412 1_555
Dy3 H0 2.412750 1_555
Dy3 S0 2.940548 1_555
B0 H4 1.226417 1_555
B0 H0 1.229666 1_555
B0 H8 1.230164 1_555
B0 H12 1.234136 1_555
B1 H5 1.226417 1_555
B1 H1 1.229666 1_556
B1 H9 1.230164 1_555
B1 H13 1.234136 1_556
B2 H6 1.226417 1_555
B2 H2 1.229666 1_555
B2 H10 1.230164 1_555
B2 H14 1.234136 1_555
B3 H7 1.226417 1_555
B3 H3 1.229666 1_554
B3 H11 1.230164 1_555
B3 H15 1.234136 1_554
B4 H16 1.202774 1_555
B4 H20 1.237606 1_555
B4 H28 1.238241 1_555
B4 H24 1.244819 1_555
B5 H17 1.202774 1_555
B5 H21 1.237606 1_555
B5 H29 1.238241 1_555
B5 H25 1.244819 1_555
B6 H18 1.202774 1_555
B6 H22 1.237606 1_555
B6 H30 1.238241 1_555
B6 H26 1.244819 1_555
B7 H19 1.202774 1_555
B7 H23 1.237606 1_555
B7 H31 1.238241 1_555
B7 H27 1.244819 1_555
B8 H32 1.228001 1_555
B8 H36 1.229416 1_555
B8 H44 1.230897 1_555
B8 H40 1.231068 1_554
B9 H33 1.228001 1_555
B9 H37 1.229416 1_555
B9 H45 1.230897 1_555
B9 H41 1.231068 1_555
B10 H34 1.228001 1_555
B10 H38 1.229416 1_555
B10 H46 1.230897 1_555
B10 H42 1.231068 1_556
B11 H35 1.228001 1_555
B11 H39 1.229416 1_555
B11 H47 1.230897 1_555
B11 H43 1.231068 1_555
C0 H52 1.095282 1_555
C0 H48 1.095621 1_555
C0 H56 1.096326 1_555
C0 S0 1.806319 1_555
C1 H53 1.095282 1_555
C1 H49 1.095621 1_555
C1 H57 1.096326 1_555
C1 S1 1.806319 1_555
C2 H54 1.095282 1_555
C2 H50 1.095621 1_555
C2 H58 1.096326 1_555
C2 S2 1.806319 1_555
C3 H55 1.095282 1_555
C3 H51 1.095621 1_555
C3 H59 1.096326 1_555
C3 S3 1.806319 1_555
C4 H68 1.095554 1_555
C4 H60 1.095870 1_555
C4 H64 1.096154 1_555
C4 S0 1.805958 1_555
C5 H69 1.095554 1_555
C5 H61 1.095870 1_555
C5 H65 1.096154 1_555
C5 S1 1.805958 1_555
C6 H70 1.095554 1_555
C6 H62 1.095870 1_555
C6 H66 1.096154 1_555
C6 S2 1.805958 1_555
C7 H71 1.095554 1_555
C7 H63 1.095870 1_555
C7 H67 1.096154 1_555
C7 S3 1.805958 1_555
