# generated using pymatgen
data_Na4Mg(BiO3)2
_symmetry_space_group_name_H-M   'P 1'
_cell_length_a   6.13116355
_cell_length_b   6.03309089
_cell_length_c   6.79144195
_cell_angle_alpha   84.00019388
_cell_angle_beta   94.77989849
_cell_angle_gamma   59.00261311
_symmetry_Int_Tables_number   1
_chemical_formula_structural   Na4Mg(BiO3)2
_chemical_formula_sum   'Na4 Mg1 Bi2 O6'
_cell_volume   211.36919647
_cell_formula_units_Z   1
loop_
 _symmetry_equiv_pos_site_id
 _symmetry_equiv_pos_as_xyz
  1  'x, y, z'
loop_
 _atom_site_type_symbol
 _atom_site_label
 _atom_site_symmetry_multiplicity
 _atom_site_fract_x
 _atom_site_fract_y
 _atom_site_fract_z
 _atom_site_occupancy
  Na  Na0  1  0.59391494  0.59606809  0.40397246  1
  Na  Na1  1  0.20230921  0.19287943  0.42993800  1
  Na  Na2  1  0.68540691  0.81972419  0.91161047  1
  Na  Na3  1  0.37670171  0.41315731  0.11882643  1
  Mg  Mg0  1  0.32758758  0.54149936  0.69053156  1
  Bi  Bi0  1  0.83389106  0.94986565  0.42538750  1
  Bi  Bi1  1  0.05328787  0.14194675  0.91848460  1
  O  O0  1  0.30383864  0.88033965  0.72130603  1
  O  O1  1  0.20048719  0.59514072  0.39473415  1
  O  O2  1  0.09378230  0.47420134  0.83921753  1
  O  O3  1  0.69720874  0.27789104  0.72626442  1
  O  O4  1  0.54090064  -0.03638804  0.21853814  1
  O  O5  1  0.83203421  0.25607350  0.24261972  1
loop_
_geom_bond_atom_site_label_1
_geom_bond_atom_site_label_2
_geom_bond_distance
_geom_bond_site_symmetry_2
Na0 O5 2.278546 1_555
Na0 O4 2.283474 1_565
Na0 O1 2.410660 1_555
Na0 O3 2.552515 1_555
Na0 Na3 2.876151 1_555
Na0 O0 3.003145 1_555
Na1 O5 2.333115 1_455
Na1 O0 2.379985 1_545
Na1 O1 2.407771 1_555
Na1 O4 2.497671 1_555
Na1 Na3 2.937140 1_555
Na2 O4 2.403642 1_566
Na2 O0 2.406926 1_555
Na2 O2 2.428931 1_655
Na2 O3 2.953665 1_565
Na3 O2 2.323231 1_554
Na3 O1 2.330141 1_555
Na3 O4 2.349034 1_555
Na3 O5 2.473026 1_555
Mg0 O3 1.959415 1_555
Mg0 O2 1.998615 1_555
Mg0 O0 2.007899 1_555
Mg0 O1 2.022642 1_555
Mg0 Na3 2.879934 1_556
Bi0 O5 2.109567 1_565
Bi0 O4 2.146844 1_565
Bi0 O1 2.211770 1_655
Bi0 O3 2.866486 1_565
Bi1 O3 2.144776 1_455
Bi1 O2 2.163066 1_555
Bi1 O0 2.220700 1_545
Bi1 O5 2.648149 1_456
