# generated using pymatgen
data_Li2H2C6N9Cl
_symmetry_space_group_name_H-M   'P 1'
_cell_length_a   8.69757365
_cell_length_b   8.63955322
_cell_length_c   7.13123769
_cell_angle_alpha   89.82892482
_cell_angle_beta   89.81501502
_cell_angle_gamma   120.13713701
_symmetry_Int_Tables_number   1
_chemical_formula_structural   Li2H2C6N9Cl
_chemical_formula_sum   'Li4 H4 C12 N18 Cl2'
_cell_volume   463.41993638
_cell_formula_units_Z   2
loop_
 _symmetry_equiv_pos_site_id
 _symmetry_equiv_pos_as_xyz
  1  'x, y, z'
loop_
 _atom_site_type_symbol
 _atom_site_label
 _atom_site_symmetry_multiplicity
 _atom_site_fract_x
 _atom_site_fract_y
 _atom_site_fract_z
 _atom_site_occupancy
  Li  Li0  1  0.77206500  0.74492200  0.21981200  1
  Li  Li1  1  0.99515100  0.77276800  0.72006000  1
  Li  Li2  1  0.12658000  0.19411800  0.22186500  1
  Li  Li3  1  0.88269600  0.11515100  0.72329700  1
  H  H0  1  0.02526200  0.71560900  0.22526300  1
  H  H1  1  0.74043500  0.98913500  0.23634200  1
  H  H2  1  0.71483100  0.74058600  0.72761000  1
  H  H3  1  0.27453500  0.02150400  0.73102300  1
  C  C0  1  0.64316700  0.15397000  0.22766000  1
  C  C1  1  0.84404500  0.44682300  0.22571700  1
  C  C2  1  0.54369800  0.35129900  0.22440200  1
  C  C3  1  0.36169700  0.84107300  0.72673800  1
  C  C4  1  0.15619900  0.53941100  0.72463900  1
  C  C5  1  0.45244200  0.63936400  0.72601800  1
  C  C6  1  0.83312200  0.38278100  0.72460200  1
  C  C7  1  0.53481600  0.18067000  0.72683400  1
  C  C8  1  0.62605000  0.47403100  0.72601400  1
  C  C9  1  0.18309100  0.61170100  0.22545500  1
  C  C10  1  0.47535400  0.81442100  0.22759100  1
  C  C11  1  0.38408800  0.51497200  0.22471400  1
  N  N0  1  0.50484200  0.17759000  0.22562800  1
  N  N1  1  0.81848700  0.28188100  0.22790100  1
  N  N2  1  0.71521100  0.49187300  0.22399600  1
  N  N3  1  0.50048000  0.81584000  0.72705100  1
  N  N4  1  0.18794500  0.71127100  0.72527500  1
  N  N5  1  0.28995200  0.50005100  0.72478200  1
  N  N6  1  0.80093800  0.52108000  0.72441900  1
  N  N7  1  0.69852800  0.20665300  0.72539300  1
  N  N8  1  0.48879800  0.30883800  0.72739100  1
  N  N9  1  0.20880300  0.47301500  0.22437400  1
  N  N10  1  0.31103800  0.78717700  0.22698500  1
  N  N11  1  0.52135500  0.68568200  0.22605500  1
  N  N12  1  0.62122600  0.98432200  0.23008500  1
  N  N13  1  0.01512400  0.59283600  0.22526200  1
  N  N14  1  0.39679800  0.36639600  0.22360200  1
  N  N15  1  0.38652100  0.01193200  0.72797600  1
  N  N16  1  0.99269500  0.39268500  0.72397600  1
  N  N17  1  0.60089800  0.61936200  0.72644100  1
  Cl  Cl0  1  0.95679500  0.95259600  0.46946400  1
  Cl  Cl1  1  0.95973500  0.95298100  0.97000700  1
loop_
_geom_bond_atom_site_label_1
_geom_bond_atom_site_label_2
_geom_bond_distance
_geom_bond_site_symmetry_2
Li0 N11 1.974181 1_555
Li0 N2 1.984686 1_555
Li1 N6 1.973219 1_555
Li1 N4 1.997587 1_655
Li2 N14 2.055926 1_555
Li2 N9 2.141890 1_555
Li3 N16 2.088357 1_555
Li3 N7 2.112448 1_555
H0 N13 1.019290 1_555
H0 Li0 2.340052 1_455
H1 N12 1.017719 1_555
H1 Li0 2.263921 1_555
H2 N17 1.018277 1_555
H2 Li1 2.311476 1_555
H2 Li3 2.803496 1_565
H3 N15 1.018212 1_555
H3 Li1 2.299474 1_445
C0 N0 1.317538 1_555
C0 N1 1.361751 1_555
C0 N12 1.379823 1_545
C1 N1 1.327446 1_555
C1 N2 1.358400 1_555
C1 N13 1.385833 1_655
C2 N14 1.347916 1_555
C2 N0 1.362793 1_555
C2 N2 1.371511 1_555
C3 N3 1.329966 1_555
C3 N4 1.356439 1_555
C3 N15 1.380492 1_565
C4 N16 1.348774 1_455
C4 N5 1.366090 1_555
C4 N4 1.367205 1_555
C5 N5 1.318388 1_555
C5 N3 1.363697 1_555
C5 N17 1.386061 1_555
C6 N16 1.346964 1_555
C6 N6 1.357147 1_555
C6 N7 1.377354 1_555
C7 N7 1.325485 1_555
C7 N8 1.353294 1_555
C7 N15 1.378649 1_555
C8 N8 1.323290 1_555
C8 N6 1.363123 1_555
C8 N17 1.378483 1_555
C9 N9 1.324698 1_555
C9 N10 1.357560 1_555
C9 N13 1.386266 1_555
C10 N10 1.326709 1_555
C10 N11 1.358008 1_555
C10 N12 1.376550 1_555
C11 N14 1.342585 1_555
C11 N11 1.353778 1_555
C11 N9 1.378686 1_555
Cl0 Li0 2.472467 1_555
Cl0 Li1 2.495269 1_555
Cl0 Li2 2.553319 1_665
Cl0 Li3 2.565313 1_565
Cl0 H1 2.649182 1_555
Cl0 H2 2.693878 1_555
Cl0 H0 2.969560 1_655
Cl0 H3 3.139856 1_665
Cl1 Li0 2.466735 1_556
Cl1 Li1 2.488108 1_555
Cl1 Li3 2.538280 1_565
Cl1 Li2 2.583663 1_666
Cl1 H2 2.647696 1_555
Cl1 H1 2.814496 1_556
Cl1 H0 3.000342 1_656
Cl1 H3 3.014595 1_665
