# generated using pymatgen
data_MgCo5BiO12
_symmetry_space_group_name_H-M   'P 1'
_cell_length_a   5.30965442
_cell_length_b   5.14113595
_cell_length_c   9.96788008
_cell_angle_alpha   84.82800143
_cell_angle_beta   91.72658530
_cell_angle_gamma   59.76335392
_symmetry_Int_Tables_number   1
_chemical_formula_structural   MgCo5BiO12
_chemical_formula_sum   'Mg1 Co5 Bi1 O12'
_cell_volume   233.22060314
_cell_formula_units_Z   1
loop_
 _symmetry_equiv_pos_site_id
 _symmetry_equiv_pos_as_xyz
  1  'x, y, z'
loop_
 _atom_site_type_symbol
 _atom_site_label
 _atom_site_symmetry_multiplicity
 _atom_site_fract_x
 _atom_site_fract_y
 _atom_site_fract_z
 _atom_site_occupancy
  Mg  Mg0  1  0.91402475  0.84460299  0.74279001  1
  Co  Co0  1  0.20678074  0.61780124  0.48607099  1
  Co  Co1  1  0.64576091  0.72271375  0.99897108  1
  Co  Co2  1  0.30012976  0.39203268  0.99672633  1
  Co  Co3  1  0.87161973  0.27352449  0.49657336  1
  Co  Co4  1  0.56112803  0.94403198  0.48307755  1
  Bi  Bi0  1  0.98037896  0.03917991  0.03391646  1
  O  O0  1  0.99784548  0.65386695  0.12600902  1
  O  O1  1  0.25345321  0.73938568  0.88998311  1
  O  O2  1  0.18580225  0.28941166  0.41747695  1
  O  O3  1  0.53817884  0.64206767  0.40872015  1
  O  O4  1  0.58690847  0.22340369  0.58923784  1
  O  O5  1  0.16161368  0.92166701  0.60197717  1
  O  O6  1  0.86200042  0.60658380  0.59521102  1
  O  O7  1  0.60589272  0.41230163  0.09681487  1
  O  O8  1  0.37347295  0.02602397  0.09903467  1
  O  O9  1  0.95445354  0.43345752  0.90489378  1
  O  O10  1  0.64376852  0.04892198  0.89162275  1
  O  O11  1  0.85053704  0.00652142  0.38776787  1
loop_
_geom_bond_atom_site_label_1
_geom_bond_atom_site_label_2
_geom_bond_distance
_geom_bond_site_symmetry_2
Mg0 O10 2.062665 1_565
Mg0 O6 2.092415 1_555
Mg0 O5 2.095419 1_655
Mg0 O1 2.099784 1_655
Mg0 O4 2.246727 1_565
Mg0 O9 2.455866 1_555
Co0 O2 1.929553 1_555
Co0 O5 1.948746 1_555
Co0 O3 1.997942 1_555
Co0 O11 2.063974 1_465
Co0 O4 2.149384 1_555
Co0 O6 2.180184 1_455
Co1 O8 1.900897 1_566
Co1 O7 1.901284 1_556
Co1 O10 1.901472 1_565
Co1 O9 1.914820 1_555
Co1 O0 2.081765 1_556
Co1 O1 2.278939 1_555
Co2 O1 1.891656 1_555
Co2 O8 1.903815 1_556
Co2 O9 1.929240 1_455
Co2 O7 1.932219 1_556
Co2 O0 2.076110 1_456
Co2 O10 2.178350 1_555
Co3 O11 1.867876 1_555
Co3 O5 1.871267 1_645
Co3 O2 1.901592 1_655
Co3 O4 1.907460 1_555
Co3 O3 1.928810 1_555
Co3 O6 2.029720 1_555
Co4 O3 1.834885 1_555
Co4 O6 1.887506 1_555
Co4 O4 1.914350 1_565
Co4 O2 1.923593 1_565
Co4 O11 1.974148 1_565
Co4 O5 2.508045 1_555
Bi0 O0 2.063348 1_545
Bi0 O7 2.115887 1_555
Bi0 O8 2.133198 1_655
Bi0 O1 2.193070 1_644
Bi0 O10 2.225519 1_554
Bi0 O9 2.240564 1_554
O0 O7 2.852009 1_655
O0 O8 2.859028 1_655
O0 O8 2.861611 1_565
