# generated using pymatgen
data_NaScNb3SiP5O24
_symmetry_space_group_name_H-M   'P 1'
_cell_length_a   8.83158122
_cell_length_b   8.82596531
_cell_length_c   22.87074086
_cell_angle_alpha   89.88515064
_cell_angle_beta   90.08836286
_cell_angle_gamma   120.07235856
_symmetry_Int_Tables_number   1
_chemical_formula_structural   NaScNb3SiP5O24
_chemical_formula_sum   'Na3 Sc3 Nb9 Si3 P15 O72'
_cell_volume   1542.74259772
_cell_formula_units_Z   3
loop_
 _symmetry_equiv_pos_site_id
 _symmetry_equiv_pos_as_xyz
  1  'x, y, z'
loop_
 _atom_site_type_symbol
 _atom_site_label
 _atom_site_symmetry_multiplicity
 _atom_site_fract_x
 _atom_site_fract_y
 _atom_site_fract_z
 _atom_site_occupancy
  Na  Na0  1  0.00060090  0.99980232  0.99407442  1
  Na  Na1  1  0.66486833  0.33233825  0.83836714  1
  Na  Na2  1  0.66648645  0.33313384  0.33740068  1
  Sc  Sc0  1  0.00518934  0.00282224  0.85461427  1
  Sc  Sc1  1  0.66642220  0.33360715  0.97766334  1
  Sc  Sc2  1  0.66659763  0.33431507  0.47947465  1
  Nb  Nb0  1  0.99462052  0.99806255  0.35854474  1
  Nb  Nb1  1  0.00317717  0.00428912  0.64598156  1
  Nb  Nb2  1  0.99740969  0.00127634  0.14646767  1
  Nb  Nb3  1  0.66485330  0.33359744  0.68706234  1
  Nb  Nb4  1  0.66873822  0.33563672  0.18772982  1
  Nb  Nb5  1  0.33342249  0.66633405  0.02217250  1
  Nb  Nb6  1  0.33297933  0.66573295  0.52325914  1
  Nb  Nb7  1  0.33293813  0.66519635  0.30808394  1
  Nb  Nb8  1  0.33350420  0.66519166  0.80941846  1
  Si  Si0  1  0.71650551  0.71397079  0.25129464  1
  Si  Si1  1  0.99652237  0.28254751  0.25092805  1
  Si  Si2  1  0.28698592  0.28528397  0.75192595  1
  P  P0  1  0.28421135  0.00265525  0.25114255  1
  P  P1  1  0.99861331  0.71346897  0.75090617  1
  P  P2  1  0.71536973  0.00176229  0.75070037  1
  P  P3  1  0.95209425  0.33175166  0.58216941  1
  P  P4  1  0.37892971  0.04628831  0.58226600  1
  P  P5  1  0.66883342  0.62175307  0.58218798  1
  P  P6  1  0.95404880  0.62203267  0.08212305  1
  P  P7  1  0.66733028  0.04685293  0.08223644  1
  P  P8  1  0.37879934  0.33126352  0.08209354  1
  P  P9  1  0.62027668  0.66737294  0.91653006  1
  P  P10  1  0.04625216  0.38030070  0.91651988  1
  P  P11  1  0.33302699  0.95299904  0.91644835  1
  P  P12  1  0.61565763  0.95198777  0.41614066  1
  P  P13  1  0.33478444  0.38286597  0.41591691  1
  P  P14  1  0.04914989  0.66600371  0.41592822  1
  O  O0  1  0.20238067  0.03516598  0.30527483  1
  O  O1  1  0.83995238  0.80310121  0.30825191  1
  O  O2  1  0.96749130  0.16038945  0.30781071  1
  O  O3  1  0.20982374  0.16618989  0.80799137  1
  O  O4  1  0.95631454  0.78390775  0.80442994  1
  O  O5  1  0.82675012  0.03883830  0.80428933  1
  O  O6  1  0.79954574  0.97182482  0.69548258  1
  O  O7  1  0.16658872  0.19272668  0.69335506  1
  O  O8  1  0.02474031  0.82688286  0.69573045  1
  O  O9  1  0.80829740  0.83304866  0.19356992  1
  O  O10  1  0.02967108  0.19529658  0.19318780  1
  O  O11  1  0.17221451  0.97233874  0.19595633  1
  O  O12  1  0.86903345  0.36436100  0.63668171  1
  O  O13  1  0.49685971  0.13239162  0.63677934  1
  O  O14  1  0.63619632  0.50250321  0.63660848  1
  O  O15  1  0.86475904  0.50586181  0.13763147  1
  O  O16  1  0.64095291  0.13363983  0.13756977  1
  O  O17  1  0.49315682  0.35836177  0.13750819  1
  O  O18  1  0.45801502  0.29826039  0.02868081  1
  O  O19  1  0.84034983  0.54391676  0.02896548  1
  O  O20  1  0.70265617  0.15960097  0.02875575  1
  O  O21  1  0.45592228  0.15861061  0.52870123  1
  O  O22  1  0.70182839  0.54340165  0.52865618  1
  O  O23  1  0.84151596  0.29942467  0.52836114  1
  O  O24  1  0.52267834  0.68367493  0.97193238  1
  O  O25  1  0.16091567  0.47669957  0.97196265  1
  O  O26  1  0.31700249  0.83886443  0.97208506  1
  O  O27  1  0.52904544  0.83807191  0.47137297  1
  O  O28  1  0.30821123  0.47008736  0.47098491  1
  O  O29  1  0.16247180  0.69058476  0.47125579  1
  O  O30  1  0.14113132  0.64427867  0.36209346  1
  O  O31  1  0.50289871  0.86096040  0.36213930  1
  O  O32  1  0.35679989  0.49852255  0.36195113  1
  O  O33  1  0.14226659  0.49508356  0.86186743  1
  O  O34  1  0.35184263  0.85899854  0.86186634  1
  O  O35  1  0.50581401  0.64929493  0.86177352  1
  O  O36  1  0.03915584  0.83578076  0.40778157  1
  O  O37  1  0.79718920  0.96310457  0.40862021  1
  O  O38  1  0.16768297  0.20176279  0.40727130  1
  O  O39  1  0.03507203  0.20254020  0.91404642  1
  O  O40  1  0.16454053  0.96089468  0.91480181  1
  O  O41  1  0.79716763  0.83422502  0.91369049  1
  O  O42  1  0.97650922  0.17226974  0.59476992  1
  O  O43  1  0.19427525  0.01764639  0.59552840  1
  O  O44  1  0.82440927  0.80447057  0.59605402  1
  O  O45  1  0.98224769  0.80819196  0.09321040  1
  O  O46  1  0.82845393  0.02076385  0.09248384  1
  O  O47  1  0.19334040  0.17043250  0.09259678  1
  O  O48  1  0.69093876  0.16284663  0.73786230  1
  O  O49  1  0.48369730  0.31472798  0.73740692  1
  O  O50  1  0.84106237  0.52554828  0.73788750  1
  O  O51  1  0.68977896  0.51899221  0.24059170  1
  O  O52  1  0.82409429  0.30203176  0.24052438  1
  O  O53  1  0.46849297  0.16390285  0.24116384  1
  O  O54  1  0.62948550  0.49959404  0.92068821  1
  O  O55  1  0.86929726  0.37081495  0.92066866  1
  O  O56  1  0.49965581  0.13137945  0.92110590  1
  O  O57  1  0.63859231  0.13397447  0.42123800  1
  O  O58  1  0.49623018  0.36402039  0.42088422  1
  O  O59  1  0.86747049  0.50576545  0.42114086  1
  O  O60  1  0.35798408  0.49449055  0.07443879  1
  O  O61  1  0.13640316  0.63978139  0.07467804  1
  O  O62  1  0.50501341  0.86229040  0.07463417  1
  O  O63  1  0.35905627  0.86167766  0.57331951  1
  O  O64  1  0.50329256  0.64032384  0.57310826  1
  O  O65  1  0.13853360  0.49497768  0.57311100  1
  O  O66  1  0.30487518  0.84113253  0.26080347  1
  O  O67  1  0.52695712  0.69655846  0.26184826  1
  O  O68  1  0.16437699  0.47570500  0.26168969  1
  O  O69  1  0.31074403  0.48042275  0.76004367  1
  O  O70  1  0.16251706  0.69451490  0.75889009  1
  O  O71  1  0.52944620  0.84144540  0.75879575  1
loop_
_geom_bond_atom_site_label_1
_geom_bond_atom_site_label_2
_geom_bond_distance
_geom_bond_site_symmetry_2
Na0 O40 2.451551 1_555
Na0 O39 2.467212 1_565
Na0 O41 2.472382 1_455
Na0 O47 2.770452 1_566
Na0 O46 2.775855 1_466
Na0 O45 2.781727 1_456
Na1 O56 2.501412 1_555
Na1 O55 2.509098 1_555
Na1 O54 2.509338 1_555
Na1 O49 2.767074 1_555
Na1 O48 2.816924 1_555
Na1 O50 2.818918 1_555
Na2 O57 2.526051 1_555
Na2 O58 2.530316 1_555
Na2 O59 2.535931 1_555
Na2 O51 2.698895 1_555
Na2 O52 2.704944 1_555
Na2 O53 2.741677 1_555
Nb0 O2 1.947526 1_565
Nb0 O1 1.948663 1_555
Nb0 O37 1.978045 1_555
Nb0 O36 2.007728 1_655
Nb0 O38 2.014732 1_665
Nb0 O0 2.088383 1_665
Nb1 O7 1.902539 1_555
Nb1 O42 1.991858 1_455
Nb1 O43 1.999943 1_555
Nb1 O8 2.018300 1_545
Nb1 O6 2.021526 1_445
Nb1 O44 2.029489 1_445
Nb2 O9 1.915303 1_545
Nb2 O10 1.916434 1_655
Nb2 O46 2.007764 1_555
Nb2 O11 2.029342 1_645
Nb2 O47 2.037475 1_655
Nb2 O45 2.045680 1_545
Nb3 O49 1.910770 1_555
Nb3 O14 1.997060 1_555
Nb3 O50 2.000805 1_555
Nb3 O48 2.003547 1_555
Nb3 O13 2.009919 1_555
Nb3 O12 2.041448 1_555
Nb4 O51 1.954693 1_555
Nb4 O52 1.956958 1_555
Nb4 O15 1.989877 1_555
Nb4 O17 2.017264 1_555
Nb4 O16 2.030667 1_555
Nb4 O53 2.057002 1_555
Nb5 O26 1.966174 1_554
Nb5 O24 1.971348 1_554
Nb5 O25 1.971770 1_554
Nb5 O60 2.024337 1_555
Nb5 O62 2.025672 1_555
Nb5 O61 2.030065 1_555
Nb6 O65 1.981328 1_555
Nb6 O64 1.986014 1_555
Nb6 O63 1.990647 1_555
Nb6 O29 2.013631 1_555
Nb6 O27 2.019822 1_555
Nb6 O28 2.021836 1_555
Nb7 O68 1.909489 1_555
Nb7 O67 1.913100 1_555
Nb7 O66 2.005009 1_555
Nb7 O32 2.007192 1_555
Nb7 O30 2.030150 1_555
Nb7 O31 2.042175 1_555
Nb8 O69 1.911320 1_555
Nb8 O35 1.994219 1_555
Nb8 O33 2.000821 1_555
Nb8 O71 2.013964 1_555
Nb8 O70 2.016902 1_555
Nb8 O34 2.030023 1_555
O0 P0 1.532770 1_555
O1 Si0 1.626210 1_555
O2 Si1 1.624503 1_555
O3 Si2 1.578878 1_555
O3 Sc0 1.967333 1_555
O4 P1 1.503912 1_555
O4 Sc0 2.099603 1_665
O5 P2 1.500706 1_555
O5 Sc0 2.098622 1_655
O6 P2 1.555123 1_565
O7 Si2 1.649799 1_555
O8 P1 1.553059 1_455
O9 Si0 1.627441 1_555
O10 Si1 1.629052 1_455
O11 P0 1.541175 1_565
O12 P3 1.546331 1_555
O13 P4 1.556676 1_555
O14 P5 1.559414 1_555
O15 P6 1.572376 1_555
O16 P7 1.557607 1_555
O17 P8 1.561615 1_555
O18 P8 1.508263 1_555
O18 Sc1 2.067886 1_554
O19 P6 1.505813 1_555
O19 Sc1 2.080216 1_554
O20 P7 1.506259 1_555
O20 Sc1 2.076203 1_554
O21 P4 1.506008 1_555
O21 Sc2 2.059618 1_555
O22 P5 1.506156 1_555
O22 Sc2 2.049219 1_555
O23 P3 1.506000 1_555
O23 Sc2 2.049726 1_555
O24 P9 1.580369 1_555
O25 P10 1.579281 1_555
O26 P11 1.583180 1_555
O27 P12 1.555248 1_555
O28 P13 1.555554 1_555
O29 P14 1.558678 1_555
O30 P14 1.540374 1_555
O31 P12 1.536515 1_555
O32 P13 1.549168 1_555
O33 P10 1.563641 1_555
O34 P11 1.554738 1_555
O35 P9 1.565539 1_555
O36 P14 1.555385 1_555
O37 P12 1.566088 1_555
O38 P13 1.551849 1_555
O39 P10 1.522994 1_555
O39 Sc0 2.136969 1_555
O40 P11 1.524520 1_555
O40 Sc0 2.127497 1_565
O41 P9 1.519121 1_555
O41 Sc0 2.162124 1_665
O42 P3 1.553442 1_555
O43 P4 1.550307 1_555
O44 P5 1.539207 1_555
O45 P6 1.554762 1_555
O46 P7 1.568419 1_555
O47 P8 1.557287 1_555
O48 P2 1.568319 1_555
O49 Si2 1.656771 1_555
O50 P1 1.569545 1_555
O51 Si0 1.634464 1_555
O52 Si1 1.632884 1_555
O53 P0 1.550747 1_555
O54 P9 1.525964 1_555
O54 Sc1 2.102516 1_555
O55 P10 1.525658 1_655
O55 Sc1 2.105472 1_555
O56 P11 1.527706 1_545
O56 Sc1 2.096885 1_555
O57 P12 1.519589 1_545
O57 Sc2 2.128811 1_555
O58 P13 1.520079 1_555
O58 Sc2 2.125072 1_555
O59 P14 1.521369 1_655
O59 Sc2 2.127384 1_555
O60 P8 1.550542 1_555
O61 P6 1.547603 1_455
O62 P7 1.548805 1_565
O63 P4 1.562733 1_565
O64 P5 1.564121 1_555
O65 P3 1.565907 1_455
O66 P0 1.540710 1_565
O67 Si0 1.620946 1_555
O68 Si1 1.622435 1_455
O69 Si2 1.638221 1_555
O70 P1 1.548681 1_455
O71 P2 1.550479 1_565
