# generated using pymatgen
data_Cd2Os2O7
_symmetry_space_group_name_H-M   'P 1'
_cell_length_a   7.23368563
_cell_length_b   7.23462272
_cell_length_c   7.23459858
_cell_angle_alpha   60.00007520
_cell_angle_beta   59.99582626
_cell_angle_gamma   59.99584994
_symmetry_Int_Tables_number   1
_chemical_formula_structural   Cd2Os2O7
_chemical_formula_sum   'Cd4 Os4 O14'
_cell_volume   267.69969924
_cell_formula_units_Z   2
loop_
 _symmetry_equiv_pos_site_id
 _symmetry_equiv_pos_as_xyz
  1  'x, y, z'
loop_
 _atom_site_type_symbol
 _atom_site_label
 _atom_site_symmetry_multiplicity
 _atom_site_fract_x
 _atom_site_fract_y
 _atom_site_fract_z
 _atom_site_occupancy
  Cd  Cd0  1  0.12499944  0.12500045  0.12500481  1
  Cd  Cd1  1  0.62500000  0.12499888  0.12500394  1
  Cd  Cd2  1  0.12499993  0.62500001  0.12500427  1
  Cd  Cd3  1  0.12499967  0.12500002  0.62500474  1
  Os  Os0  1  0.62499988  0.62500011  0.62499919  1
  Os  Os1  1  0.12499965  0.62500062  0.62499874  1
  Os  Os2  1  0.62499932  0.12500041  0.62499909  1
  Os  Os3  1  0.62500012  0.62500032  0.12499897  1
  O  O0  1  0.24652612  0.25115809  0.25115760  1
  O  O1  1  0.00347367  -0.00115795  0.99884004  1
  O  O2  1  0.54303313  0.95080410  0.55535755  1
  O  O3  1  0.31023058  0.69057815  0.30861415  1
  O  O4  1  0.54303131  0.55535370  0.95080659  1
  O  O5  1  0.93976885  0.55942315  0.55942227  1
  O  O6  1  0.54303371  0.95080363  0.95080421  1
  O  O7  1  0.93977355  0.94138927  0.55941623  1
  O  O8  1  0.93976909  0.55942277  0.94138414  1
  O  O9  1  0.70696600  0.29919683  0.29919512  1
  O  O10  1  0.31023103  0.69057691  0.69057579  1
  O  O11  1  0.70696657  0.29919642  0.69464009  1
  O  O12  1  0.31022652  0.30861045  0.69057998  1
  O  O13  1  0.70697185  0.69464266  0.29919249  1
loop_
_geom_bond_atom_site_label_1
_geom_bond_atom_site_label_2
_geom_bond_distance
_geom_bond_site_symmetry_2
Cd0 O0 2.208308 1_555
Cd0 O1 2.208378 1_554
Cd0 O9 2.507189 1_455
Cd0 O6 2.507204 1_544
Cd0 O7 2.613574 1_445
Cd0 O3 2.613640 1_545
Cd0 O12 2.613641 1_554
Cd0 O8 2.613652 1_454
Cd1 O1 2.235230 1_654
Cd1 O0 2.235231 1_555
Cd1 O2 2.571116 1_545
Cd1 O9 2.571127 1_555
Cd1 O4 2.571131 1_554
Cd1 O13 2.571136 1_545
Cd1 O6 2.571164 1_544
Cd1 O11 2.571179 1_554
Cd2 O0 2.208343 1_555
Cd2 O1 2.208344 1_564
Cd2 O13 2.507159 1_455
Cd2 O4 2.507175 1_554
Cd2 O5 2.613610 1_455
Cd2 O3 2.613613 1_555
Cd2 O8 2.613673 1_454
Cd2 O10 2.613674 1_554
Cd3 O1 2.208296 1_555
Cd3 O0 2.208366 1_555
Cd3 O2 2.507188 1_545
Cd3 O11 2.507199 1_455
Cd3 O12 2.613581 1_555
Cd3 O7 2.613644 1_445
Cd3 O5 2.613645 1_455
Cd3 O10 2.613658 1_545
O2 Os2 1.968410 1_565
O2 Os0 1.968414 1_555
O2 O9 2.704416 1_565
O3 Os3 1.923268 1_555
O3 Os1 1.934448 1_555
O3 O6 2.649287 1_554
O3 O4 2.649292 1_554
O3 O7 2.707806 1_455
O3 O5 2.707830 1_455
O4 Os0 1.968420 1_555
O4 Os3 1.968422 1_556
O4 O9 2.704393 1_556
O5 Os0 1.923265 1_555
O5 Os1 1.934449 1_655
O6 Os3 1.968408 1_556
O6 Os2 1.968415 1_565
O7 Os2 1.923287 1_565
O7 Os1 1.934467 1_655
O7 O9 2.649281 1_565
O8 Os3 1.923265 1_556
O8 Os1 1.934451 1_655
O8 O9 2.649291 1_556
O9 Os2 1.968409 1_555
O9 Os3 1.968411 1_555
O10 Os0 1.923265 1_555
O10 Os1 1.934449 1_555
O10 O4 2.649288 1_555
O10 O2 2.649293 1_555
O10 O7 2.707821 1_455
O10 O8 2.707828 1_455
O11 Os2 1.968411 1_555
O11 Os0 1.968413 1_555
O11 O7 2.649291 1_545
O11 O5 2.649293 1_555
O11 O4 2.704397 1_555
O11 O6 2.704417 1_545
O12 Os2 1.923278 1_555
O12 Os1 1.934476 1_555
O12 O2 2.649281 1_545
O12 O6 2.649291 1_545
O12 O5 2.707815 1_455
O12 O8 2.707819 1_455
O13 Os0 1.968416 1_555
O13 Os3 1.968423 1_555
O13 O5 2.649271 1_555
O13 O8 2.649280 1_554
O13 O6 2.704406 1_554
O13 O2 2.704407 1_555
