# generated using pymatgen
data_Pr2MgCr2O8
_symmetry_space_group_name_H-M   'P 1'
_cell_length_a   6.31368197
_cell_length_b   6.42427936
_cell_length_c   6.28879284
_cell_angle_alpha   105.98214462
_cell_angle_beta   105.22450842
_cell_angle_gamma   117.96109666
_symmetry_Int_Tables_number   1
_chemical_formula_structural   Pr2MgCr2O8
_chemical_formula_sum   'Pr2 Mg1 Cr2 O8'
_cell_volume   192.17198841
_cell_formula_units_Z   1
loop_
 _symmetry_equiv_pos_site_id
 _symmetry_equiv_pos_as_xyz
  1  'x, y, z'
loop_
 _atom_site_type_symbol
 _atom_site_label
 _atom_site_symmetry_multiplicity
 _atom_site_fract_x
 _atom_site_fract_y
 _atom_site_fract_z
 _atom_site_occupancy
  Pr  Pr0  1  0.15089600  0.90090800  0.30171700  1
  Pr  Pr1  1  0.87851600  0.12848700  0.75705400  1
  Mg  Mg0  1  0.86023800  0.61025400  0.72053900  1
  Cr  Cr0  1  0.37481700  0.62483700  0.74971400  1
  Cr  Cr1  1  0.60572400  0.35575400  0.21143300  1
  O  O0  1  0.80862200  0.71340100  0.44970200  1
  O  O1  1  0.38580300  0.80548700  0.57751400  1
  O  O2  1  0.73659000  0.78133700  0.91925100  1
  O  O3  1  0.79813500  0.38445500  0.04786100  1
  O  O4  1  0.64112100  0.23632600  0.44968500  1
  O  O5  1  0.19171400  0.27202300  0.57752700  1
  O  O6  1  0.18262300  0.63789900  0.91930200  1
  O  O7  1  0.24978600  0.16341900  0.04786700  1
loop_
_geom_bond_atom_site_label_1
_geom_bond_atom_site_label_2
_geom_bond_distance
_geom_bond_site_symmetry_2
Mg0 O6 1.984819 1_655
Mg0 O2 1.984875 1_555
Mg0 O4 1.994650 1_555
Mg0 O0 1.994697 1_555
Cr0 O5 1.783314 1_555
Cr0 O1 1.783385 1_555
Cr0 O2 1.828108 1_555
Cr0 O6 1.828342 1_555
Cr1 O7 1.765563 1_555
Cr1 O3 1.765976 1_555
Cr1 O0 1.871172 1_555
Cr1 O4 1.871235 1_555
O0 Pr0 2.493919 1_655
O0 Pr1 2.579118 1_565
O1 Pr0 2.381331 1_555
O1 Pr1 2.463691 1_565
O2 Pr1 2.583773 1_565
O2 Pr0 2.647943 1_656
O3 Pr1 2.433149 1_554
O3 Pr0 2.608345 1_655
O4 Pr0 2.493568 1_545
O4 Pr1 2.579227 1_555
O5 Pr0 2.381373 1_545
O5 Pr1 2.463966 1_455
O6 Pr1 2.584090 1_455
O6 Pr0 2.647914 1_556
O7 Pr1 2.432892 1_454
O7 Pr0 2.607891 1_545
