# generated using pymatgen
data_TiFeSi
_symmetry_space_group_name_H-M   'P 1'
_cell_length_a   7.23397161
_cell_length_b   7.23403304
_cell_length_c   7.23392362
_cell_angle_alpha   127.45366456
_cell_angle_beta   125.25917203
_cell_angle_gamma   79.31672706
_symmetry_Int_Tables_number   1
_chemical_formula_structural   TiFeSi
_chemical_formula_sum   'Ti6 Fe6 Si6'
_cell_volume   237.23578635
_cell_formula_units_Z   6
loop_
 _symmetry_equiv_pos_site_id
 _symmetry_equiv_pos_as_xyz
  1  'x, y, z'
loop_
 _atom_site_type_symbol
 _atom_site_label
 _atom_site_symmetry_multiplicity
 _atom_site_fract_x
 _atom_site_fract_y
 _atom_site_fract_z
 _atom_site_occupancy
  Ti  Ti0  1  0.74979943  0.09696366  0.84709750  1
  Ti  Ti1  1  0.45498101  0.91103317  0.95610402  1
  Ti  Ti2  1  0.54506428  0.50109441  0.45603794  1
  Ti  Ti3  1  0.95448394  0.91002351  0.45558803  1
  Ti  Ti4  1  0.25010976  0.09723625  0.34705729  1
  Ti  Ti5  1  0.04559102  0.50109774  0.95552896  1
  Fe  Fe0  1  0.49995049  0.75820914  0.25818261  1
  Fe  Fe1  1  0.00001308  0.75821027  0.75824917  1
  Fe  Fe2  1  0.87336825  0.24914643  0.37692815  1
  Fe  Fe3  1  0.62785746  0.50351694  0.87696351  1
  Fe  Fe4  1  0.37219064  0.24915453  0.87575709  1
  Fe  Fe5  1  0.12661595  0.50351928  0.37571795  1
  Si  Si0  1  0.25048908  0.50420317  0.75368767  1
  Si  Si1  1  0.16629933  0.16934282  0.00253989  1
  Si  Si2  1  0.66681463  0.16934912  0.50306301  1
  Si  Si3  1  0.33316967  0.83619233  0.50251462  1
  Si  Si4  1  0.74953874  0.50332945  0.25377695  1
  Si  Si5  1  0.83366425  0.83617978  0.00300262  1
loop_
_geom_bond_atom_site_label_1
_geom_bond_atom_site_label_2
_geom_bond_distance
_geom_bond_site_symmetry_2
Fe0 Si4 2.328353 1_555
Fe0 Si0 2.328389 1_554
Fe0 Si3 2.427922 1_555
Fe0 Si2 2.428031 1_565
Fe0 Ti4 2.734071 1_565
Fe0 Ti0 2.734221 1_565
Fe0 Fe4 2.826274 1_554
Fe0 Fe3 2.826662 1_554
Fe0 Ti5 2.839301 1_554
Fe0 Ti3 2.840268 1_555
Fe0 Ti1 2.843825 1_554
Fe0 Ti2 2.843940 1_555
Fe1 Si4 2.328301 1_455
Fe1 Si0 2.328403 1_555
Fe1 Si5 2.427885 1_456
Fe1 Si1 2.428010 1_566
Fe1 Ti4 2.733746 1_566
Fe1 Ti0 2.734510 1_465
Fe1 Fe2 2.826325 1_455
Fe1 Fe5 2.826706 1_555
Fe1 Ti5 2.839457 1_555
Fe1 Ti3 2.840057 1_455
Fe1 Ti2 2.843819 1_455
Fe1 Ti1 2.844078 1_555
Fe2 Si4 2.331825 1_555
Fe2 Si0 2.332513 1_655
Fe2 Si5 2.432456 1_545
Fe2 Si2 2.435763 1_555
Fe2 Ti1 2.731510 1_544
Fe2 Ti3 2.732215 1_545
Fe2 Ti5 2.817097 1_655
Fe2 Ti4 2.821790 1_655
Fe2 Ti0 2.824611 1_554
Fe2 Ti2 2.825856 1_555
Fe2 Fe5 2.833788 1_655
Fe3 Si0 2.331776 1_555
Fe3 Si4 2.332136 1_556
Fe3 Si2 2.431885 1_555
Fe3 Si5 2.435484 1_556
Fe3 Ti2 2.732059 1_555
Fe3 Ti5 2.732150 1_655
Fe3 Ti3 2.817403 1_556
Fe3 Ti0 2.821307 1_555
Fe3 Ti4 2.825021 1_555
Fe3 Ti1 2.826552 1_555
Fe3 Fe4 2.833746 1_555
Fe4 Si4 2.331821 1_556
Fe4 Si0 2.332534 1_555
Fe4 Si3 2.432437 1_545
Fe4 Si1 2.435733 1_556
Fe4 Ti3 2.731870 1_445
Fe4 Ti1 2.731920 1_545
Fe4 Ti5 2.816934 1_555
Fe4 Ti4 2.821924 1_555
Fe4 Ti0 2.824537 1_555
Fe4 Ti2 2.825898 1_556
Fe5 Si0 2.331373 1_555
Fe5 Si4 2.332524 1_455
Fe5 Si1 2.431919 1_555
Fe5 Si3 2.435503 1_555
Fe5 Ti2 2.731845 1_555
Fe5 Ti5 2.732251 1_554
Fe5 Ti3 2.817523 1_455
Fe5 Ti0 2.821737 1_454
Fe5 Ti4 2.824609 1_555
Fe5 Ti1 2.826432 1_555
Si0 Ti4 2.604033 1_555
Si0 Ti1 2.620271 1_555
Si0 Ti5 2.623039 1_555
Si1 Ti5 2.551586 1_554
Si1 Ti2 2.552199 1_555
Si1 Ti3 2.561356 1_444
Si1 Ti1 2.562288 1_544
Si1 Ti4 2.563226 1_555
Si1 Ti0 2.563921 1_454
Si2 Ti5 2.551544 1_655
Si2 Ti2 2.552268 1_555
Si2 Ti3 2.561617 1_545
Si2 Ti1 2.562082 1_544
Si2 Ti0 2.563559 1_555
Si2 Ti4 2.563566 1_555
Si3 Ti3 2.551317 1_455
Si3 Ti1 2.552279 1_555
Si3 Ti5 2.561392 1_554
Si3 Ti2 2.562234 1_555
Si3 Ti0 2.563337 1_565
Si3 Ti4 2.563935 1_565
Si4 Ti0 2.604313 1_554
Si4 Ti2 2.620174 1_555
Si4 Ti3 2.622851 1_555
Si5 Ti3 2.551549 1_555
Si5 Ti1 2.552058 1_554
Si5 Ti5 2.561561 1_654
Si5 Ti2 2.562024 1_554
Si5 Ti0 2.563662 1_564
Si5 Ti4 2.563677 1_665
