# generated using pymatgen
data_ErZn5
_symmetry_space_group_name_H-M   'P 1'
_cell_length_a   8.74666085
_cell_length_b   8.74666202
_cell_length_c   8.90737885
_cell_angle_alpha   90.00000000
_cell_angle_beta   90.00000000
_cell_angle_gamma   119.99999941
_symmetry_Int_Tables_number   1
_chemical_formula_structural   ErZn5
_chemical_formula_sum   'Er6 Zn30'
_cell_volume   590.15377671
_cell_formula_units_Z   6
loop_
 _symmetry_equiv_pos_site_id
 _symmetry_equiv_pos_as_xyz
  1  'x, y, z'
loop_
 _atom_site_type_symbol
 _atom_site_label
 _atom_site_symmetry_multiplicity
 _atom_site_fract_x
 _atom_site_fract_y
 _atom_site_fract_z
 _atom_site_occupancy
  Er  Er0  1  0.18903080  0.37806060  0.25000000  1
  Er  Er1  1  0.81096920  0.18903080  0.75000000  1
  Er  Er2  1  0.37806060  0.18903080  0.75000000  1
  Er  Er3  1  0.62193940  0.81096920  0.25000000  1
  Er  Er4  1  0.18903080  0.81096920  0.25000000  1
  Er  Er5  1  0.81096920  0.62193940  0.75000000  1
  Zn  Zn0  1  -0.00000000  -0.00000000  -0.00000000  1
  Zn  Zn1  1  -0.00000000  -0.00000000  0.50000000  1
  Zn  Zn2  1  0.33333300  0.66666700  0.01632282  1
  Zn  Zn3  1  0.66666700  0.33333300  0.51632282  1
  Zn  Zn4  1  0.66666700  0.33333300  0.98367718  1
  Zn  Zn5  1  0.33333300  0.66666700  0.48367718  1
  Zn  Zn6  1  0.50000000  -0.00000000  -0.00000000  1
  Zn  Zn7  1  0.50000000  0.50000000  0.50000000  1
  Zn  Zn8  1  -0.00000000  0.50000000  0.50000000  1
  Zn  Zn9  1  -0.00000000  0.50000000  -0.00000000  1
  Zn  Zn10  1  0.50000000  0.50000000  -0.00000000  1
  Zn  Zn11  1  0.50000000  -0.00000000  0.50000000  1
  Zn  Zn12  1  0.56800785  0.13601370  0.25000000  1
  Zn  Zn13  1  0.43199215  0.56800785  0.75000000  1
  Zn  Zn14  1  0.13601370  0.56800785  0.75000000  1
  Zn  Zn15  1  0.86398630  0.43199215  0.25000000  1
  Zn  Zn16  1  0.56800785  0.43199215  0.25000000  1
  Zn  Zn17  1  0.43199215  0.86398630  0.75000000  1
  Zn  Zn18  1  0.83887869  0.67775737  0.09250340  1
  Zn  Zn19  1  0.16112131  0.83887869  0.59250340  1
  Zn  Zn20  1  0.67775737  0.83887869  0.59250340  1
  Zn  Zn21  1  0.32224263  0.16112131  0.09250340  1
  Zn  Zn22  1  0.83887869  0.16112131  0.09250340  1
  Zn  Zn23  1  0.16112131  0.32224263  0.90749660  1
  Zn  Zn24  1  0.16112131  0.83887869  0.90749660  1
  Zn  Zn25  1  0.16112131  0.32224263  0.59250340  1
  Zn  Zn26  1  0.67775737  0.83887869  0.90749660  1
  Zn  Zn27  1  0.32224263  0.16112131  0.40749660  1
  Zn  Zn28  1  0.83887869  0.67775737  0.40749660  1
  Zn  Zn29  1  0.83887869  0.16112131  0.40749660  1
loop_
_geom_bond_atom_site_label_1
_geom_bond_atom_site_label_2
_geom_bond_distance
_geom_bond_site_symmetry_2
Er0 Zn5 3.018554 1_555
Er0 Zn2 3.018554 1_555
Er0 Zn21 3.022754 1_555
Er0 Zn27 3.022754 1_555
Er0 Zn29 3.022760 1_455
Er0 Zn22 3.022760 1_455
Er0 Zn25 3.079967 1_555
Er0 Zn23 3.079967 1_554
Er0 Zn15 3.105898 1_455
Er0 Zn16 3.105907 1_555
Er0 Zn10 3.254764 1_555
Er0 Zn7 3.254764 1_555
Er0 Zn9 3.254770 1_555
Er0 Zn8 3.254770 1_555
Er1 Zn4 3.018543 1_555
Er1 Zn3 3.018543 1_555
Er1 Zn25 3.022761 1_655
Er1 Zn23 3.022761 1_655
Er1 Zn20 3.022761 1_545
Er1 Zn26 3.022761 1_545
Er1 Zn29 3.079968 1_555
Er1 Zn22 3.079968 1_556
Er1 Zn17 3.105904 1_545
Er1 Zn14 3.105904 1_655
Er1 Zn6 3.254765 1_556
Er1 Zn11 3.254765 1_555
Er1 Zn8 3.254765 1_655
Er1 Zn9 3.254765 1_656
Er2 Zn4 3.018554 1_555
Er2 Zn3 3.018554 1_555
Er2 Zn25 3.022754 1_555
Er2 Zn23 3.022754 1_555
Er2 Zn24 3.022760 1_545
Er2 Zn19 3.022760 1_545
Er2 Zn27 3.079967 1_555
Er2 Zn21 3.079967 1_556
Er2 Zn17 3.105899 1_545
Er2 Zn13 3.105908 1_555
Er2 Zn7 3.254764 1_555
Er2 Zn10 3.254764 1_556
Er2 Zn11 3.254770 1_555
Er2 Zn6 3.254770 1_556
Er3 Zn2 3.018554 1_555
Er3 Zn5 3.018554 1_555
Er3 Zn18 3.022754 1_555
Er3 Zn28 3.022754 1_555
Er3 Zn22 3.022760 1_565
Er3 Zn29 3.022760 1_565
Er3 Zn20 3.079967 1_555
Er3 Zn26 3.079967 1_554
Er3 Zn12 3.105899 1_565
Er3 Zn16 3.105908 1_555
Er3 Zn7 3.254764 1_555
Er3 Zn10 3.254764 1_555
Er3 Zn6 3.254770 1_565
Er3 Zn11 3.254770 1_565
Er4 Zn5 3.018543 1_555
Er4 Zn2 3.018543 1_555
Er4 Zn18 3.022761 1_455
Er4 Zn28 3.022761 1_455
Er4 Zn27 3.022761 1_565
Er4 Zn21 3.022761 1_565
Er4 Zn24 3.079968 1_554
Er4 Zn19 3.079968 1_555
Er4 Zn12 3.105904 1_565
Er4 Zn15 3.105904 1_455
Er4 Zn6 3.254765 1_565
Er4 Zn11 3.254765 1_565
Er4 Zn9 3.254765 1_555
Er4 Zn8 3.254765 1_555
Er5 Zn4 3.018554 1_555
Er5 Zn3 3.018554 1_555
Er5 Zn26 3.022754 1_555
Er5 Zn20 3.022754 1_555
Er5 Zn19 3.022760 1_655
Er5 Zn24 3.022760 1_655
Er5 Zn28 3.079967 1_555
Er5 Zn18 3.079967 1_556
Er5 Zn14 3.105898 1_655
Er5 Zn13 3.105907 1_555
Er5 Zn7 3.254764 1_555
Er5 Zn10 3.254764 1_556
Er5 Zn9 3.254770 1_656
Er5 Zn8 3.254770 1_655
Zn0 Zn26 2.576251 1_444
Zn0 Zn21 2.576251 1_555
Zn0 Zn22 2.576251 1_455
Zn0 Zn24 2.576251 1_544
Zn0 Zn18 2.576251 1_445
Zn0 Zn23 2.576251 1_554
Zn1 Zn20 2.576251 1_445
Zn1 Zn27 2.576251 1_555
Zn1 Zn19 2.576251 1_545
Zn1 Zn29 2.576251 1_455
Zn1 Zn28 2.576251 1_445
Zn1 Zn25 2.576251 1_555
Zn2 Zn9 2.529124 1_555
Zn2 Zn6 2.529124 1_565
Zn2 Zn24 2.783211 1_554
Zn2 Zn26 2.783218 1_554
Zn2 Zn23 2.783219 1_554
Zn3 Zn8 2.529124 1_655
Zn3 Zn7 2.529131 1_555
Zn4 Zn9 2.529124 1_656
Zn4 Zn6 2.529124 1_556
Zn5 Zn8 2.529124 1_555
Zn5 Zn7 2.529131 1_555
Zn10 Zn16 2.453640 1_555
Zn10 Zn13 2.453640 1_554
Zn10 Zn2 2.529131 1_555
Zn10 Zn4 2.529131 1_554
Zn10 Zn18 2.696930 1_555
Zn10 Zn23 2.696930 1_554
Zn10 Zn21 2.696931 1_555
Zn10 Zn26 2.696931 1_554
Zn11 Zn17 2.453633 1_545
Zn11 Zn12 2.453633 1_555
Zn11 Zn3 2.529124 1_555
Zn11 Zn5 2.529124 1_545
Zn11 Zn19 2.696930 1_545
Zn11 Zn29 2.696930 1_555
Zn11 Zn27 2.696930 1_555
Zn11 Zn20 2.696930 1_545
Zn12 Zn6 2.453633 1_555
Zn12 Zn15 2.588823 1_555
Zn12 Zn16 2.588823 1_555
Zn12 Zn22 2.666306 1_555
Zn12 Zn29 2.666306 1_555
Zn12 Zn27 2.666321 1_555
Zn12 Zn21 2.666321 1_555
Zn12 Zn4 2.803841 1_554
Zn12 Zn3 2.803841 1_555
Zn13 Zn7 2.453640 1_555
Zn13 Zn14 2.588823 1_555
Zn13 Zn17 2.588823 1_555
Zn13 Zn25 2.666313 1_555
Zn13 Zn23 2.666313 1_555
Zn13 Zn26 2.666313 1_555
Zn13 Zn20 2.666313 1_555
Zn13 Zn5 2.803837 1_555
Zn13 Zn2 2.803837 1_556
Zn14 Zn8 2.453633 1_555
Zn14 Zn9 2.453633 1_556
Zn14 Zn17 2.588823 1_555
Zn14 Zn24 2.666306 1_555
Zn14 Zn19 2.666306 1_555
Zn14 Zn25 2.666321 1_555
Zn14 Zn23 2.666321 1_555
Zn14 Zn5 2.803841 1_555
Zn14 Zn2 2.803841 1_556
Zn15 Zn8 2.453633 1_655
Zn15 Zn9 2.453633 1_655
Zn15 Zn16 2.588823 1_555
Zn15 Zn22 2.666306 1_555
Zn15 Zn29 2.666306 1_555
Zn15 Zn28 2.666321 1_555
Zn15 Zn18 2.666321 1_555
Zn15 Zn4 2.803841 1_554
Zn15 Zn3 2.803841 1_555
Zn16 Zn7 2.453640 1_555
Zn16 Zn28 2.666313 1_555
Zn16 Zn18 2.666313 1_555
Zn16 Zn21 2.666313 1_555
Zn16 Zn27 2.666313 1_555
Zn16 Zn3 2.803837 1_555
Zn16 Zn4 2.803837 1_554
Zn17 Zn6 2.453633 1_566
Zn17 Zn24 2.666306 1_555
Zn17 Zn19 2.666306 1_555
Zn17 Zn26 2.666321 1_555
Zn17 Zn20 2.666321 1_555
Zn17 Zn5 2.803841 1_555
Zn17 Zn2 2.803841 1_556
Zn18 Zn9 2.696930 1_655
Zn18 Zn4 2.783219 1_554
Zn18 Zn28 2.805764 1_555
Zn18 Zn24 2.945134 1_654
Zn18 Zn26 2.945134 1_554
Zn19 Zn8 2.696931 1_555
Zn19 Zn5 2.783211 1_555
Zn19 Zn24 2.805764 1_555
Zn19 Zn28 2.945134 1_455
Zn19 Zn27 2.945134 1_565
Zn20 Zn7 2.696931 1_555
Zn20 Zn5 2.783218 1_555
Zn20 Zn26 2.805764 1_555
Zn20 Zn28 2.945134 1_555
Zn20 Zn29 2.945134 1_565
Zn21 Zn6 2.696930 1_555
Zn21 Zn4 2.783218 1_554
Zn21 Zn27 2.805764 1_555
Zn21 Zn23 2.945134 1_554
Zn21 Zn24 2.945134 1_544
Zn22 Zn6 2.696930 1_555
Zn22 Zn9 2.696931 1_655
Zn22 Zn4 2.783211 1_554
Zn22 Zn29 2.805764 1_555
Zn22 Zn23 2.945134 1_654
Zn22 Zn26 2.945134 1_544
Zn23 Zn9 2.696930 1_556
Zn23 Zn25 2.805764 1_555
Zn24 Zn6 2.696930 1_566
Zn24 Zn9 2.696931 1_556
Zn25 Zn7 2.696930 1_555
Zn25 Zn8 2.696930 1_555
Zn25 Zn5 2.783219 1_555
Zn25 Zn29 2.945134 1_455
Zn25 Zn27 2.945134 1_555
Zn26 Zn6 2.696930 1_566
Zn27 Zn7 2.696931 1_555
Zn27 Zn3 2.783218 1_555
Zn28 Zn7 2.696930 1_555
Zn28 Zn8 2.696930 1_655
Zn28 Zn3 2.783219 1_555
Zn29 Zn8 2.696931 1_655
Zn29 Zn3 2.783211 1_555
