# generated using pymatgen
data_CaPHO4
_symmetry_space_group_name_H-M   'P 1'
_cell_length_a   6.61753766
_cell_length_b   6.88992704
_cell_length_c   6.98009120
_cell_angle_alpha   75.83963236
_cell_angle_beta   83.57379713
_cell_angle_gamma   88.42936623
_symmetry_Int_Tables_number   1
_chemical_formula_structural   CaPHO4
_chemical_formula_sum   'Ca4 P4 H4 O16'
_cell_volume   306.64368559
_cell_formula_units_Z   4
loop_
 _symmetry_equiv_pos_site_id
 _symmetry_equiv_pos_as_xyz
  1  'x, y, z'
loop_
 _atom_site_type_symbol
 _atom_site_label
 _atom_site_symmetry_multiplicity
 _atom_site_fract_x
 _atom_site_fract_y
 _atom_site_fract_z
 _atom_site_occupancy
  Ca  Ca0  1  0.56038656  0.70033571  0.27229526  1
  Ca  Ca1  1  0.43852612  0.28958574  0.73100588  1
  Ca  Ca2  1  0.16191706  0.83730772  0.66860736  1
  Ca  Ca3  1  0.83149535  0.18647024  0.33553393  1
  P  P0  1  0.62121568  0.78923591  0.71641725  1
  P  P1  1  0.37562279  0.20637190  0.27678101  1
  P  P2  1  0.04895949  0.69409190  0.20673693  1
  P  P3  1  0.94260245  0.28893919  0.78906983  1
  H  H0  1  0.11947911  0.53050064  0.54049724  1
  H  H1  1  0.26223127  0.46569083  0.04603850  1
  H  H2  1  0.74492949  0.53989587  0.94861158  1
  H  H3  1  0.00158131  0.99110187  0.02391003  1
  O  O0  1  0.78913091  0.27519822  0.65047149  1
  O  O1  1  0.19572748  0.69095136  0.36277770  1
  O  O2  1  0.08203886  0.10549647  0.83112690  1
  O  O3  1  0.94060874  0.90585234  0.16101584  1
  O  O4  1  0.66759960  0.67365958  0.93445831  1
  O  O5  1  0.33440622  0.32849358  0.05952973  1
  O  O6  1  0.50495288  0.64592748  0.63034624  1
  O  O7  1  0.48575828  0.34709858  0.37078614  1
  O  O8  1  0.82017075  0.85823734  0.59175853  1
  O  O9  1  0.17486227  0.13631485  0.39724871  1
  O  O10  1  0.47815087  0.95810975  0.74277525  1
  O  O11  1  0.51914200  0.03833447  0.24869037  1
  O  O12  1  0.16901954  0.66972014  0.01457487  1
  O  O13  1  0.84537813  0.33510368  0.98023906  1
  O  O14  1  0.88103108  0.54325396  0.28668936  1
  O  O15  1  0.10157470  0.46591667  0.69010970  1
loop_
_geom_bond_atom_site_label_1
_geom_bond_atom_site_label_2
_geom_bond_distance
_geom_bond_site_symmetry_2
Ca0 O11 2.304860 1_565
Ca0 O14 2.356358 1_555
Ca0 O7 2.410611 1_555
Ca0 O6 2.421809 1_555
Ca0 O1 2.423582 1_555
Ca0 O4 2.434819 1_554
Ca0 O3 2.856395 1_555
Ca1 O10 2.274127 1_545
Ca1 O0 2.330576 1_555
Ca1 O5 2.396247 1_556
Ca1 O6 2.420901 1_555
Ca1 O7 2.433134 1_555
Ca1 O15 2.520663 1_555
Ca1 O2 2.650213 1_555
Ca2 O8 2.374621 1_455
Ca2 O2 2.412150 1_565
Ca2 O12 2.413562 1_556
Ca2 O10 2.426711 1_555
Ca2 O9 2.429670 1_565
Ca2 H0 2.522023 1_555
Ca2 O1 2.560832 1_555
Ca2 O15 2.566013 1_555
Ca2 O6 2.614510 1_555
Ca3 O9 2.360361 1_655
Ca3 O0 2.407278 1_555
Ca3 O14 2.423965 1_555
Ca3 O13 2.432914 1_554
Ca3 O8 2.513760 1_545
Ca3 O11 2.525971 1_555
Ca3 O7 2.527529 1_555
Ca3 O3 2.573397 1_545
H0 O15 1.024917 1_555
H0 O1 1.495007 1_555
H1 O5 1.035522 1_555
H1 O12 1.495519 1_555
H2 O4 1.030502 1_555
H2 O13 1.520049 1_555
H3 O3 1.036917 1_455
H3 O2 1.434976 1_564
O0 P3 1.498783 1_555
O1 P2 1.534342 1_555
O2 P3 1.533045 1_455
O3 P2 1.584531 1_655
O4 P0 1.594632 1_555
O5 P1 1.593002 1_555
O6 P0 1.537256 1_555
O7 P1 1.535880 1_555
O8 P0 1.513946 1_555
O9 P1 1.513796 1_555
O10 P0 1.513050 1_555
O11 P1 1.513270 1_555
O12 P2 1.524099 1_555
O13 P3 1.516557 1_555
O14 P2 1.505708 1_655
O15 P3 1.601951 1_455
