# generated using pymatgen
data_Ba5Ga6
_symmetry_space_group_name_H-M   'P 1'
_cell_length_a   7.81874122
_cell_length_b   7.81884131
_cell_length_c   14.47651040
_cell_angle_alpha   90.00034899
_cell_angle_beta   89.99951739
_cell_angle_gamma   119.99923933
_symmetry_Int_Tables_number   1
_chemical_formula_structural   Ba5Ga6
_chemical_formula_sum   'Ba10 Ga12'
_cell_volume   766.43809932
_cell_formula_units_Z   2
loop_
 _symmetry_equiv_pos_site_id
 _symmetry_equiv_pos_as_xyz
  1  'x, y, z'
loop_
 _atom_site_type_symbol
 _atom_site_label
 _atom_site_symmetry_multiplicity
 _atom_site_fract_x
 _atom_site_fract_y
 _atom_site_fract_z
 _atom_site_occupancy
  Ba  Ba0  1  0.68311813  0.66625958  0.24999952  1
  Ba  Ba1  1  0.98315583  0.31688950  0.25000058  1
  Ba  Ba2  1  0.33374959  0.01685762  0.24999972  1
  Ba  Ba3  1  0.98307754  0.66711716  0.75000175  1
  Ba  Ba4  1  0.33289808  0.31596607  0.74999985  1
  Ba  Ba5  1  0.68404379  0.01693234  0.75000067  1
  Ba  Ba6  1  0.00000917  0.99999668  -0.00005219  1
  Ba  Ba7  1  0.00000719  -0.00000047  0.50005110  1
  Ba  Ba8  1  0.66666806  0.33332563  -0.00000996  1
  Ba  Ba9  1  0.66666812  0.33333074  0.50000992  1
  Ga  Ga0  1  0.53164024  0.86525038  0.07645025  1
  Ga  Ga1  1  0.33361508  0.46834042  0.07644362  1
  Ga  Ga2  1  0.13473652  0.66637282  0.07645490  1
  Ga  Ga3  1  0.53163256  0.86525071  0.42354788  1
  Ga  Ga4  1  0.33361967  0.46835139  0.42355563  1
  Ga  Ga5  1  0.13472857  0.66637282  0.42355027  1
  Ga  Ga6  1  0.33303324  0.86497320  0.57682363  1
  Ga  Ga7  1  0.13502432  0.46805397  0.57682495  1
  Ga  Ga8  1  0.53196022  0.66697976  0.57682020  1
  Ga  Ga9  1  0.33303023  0.86496378  0.92317721  1
  Ga  Ga10  1  0.13502391  0.46804943  0.92317648  1
  Ga  Ga11  1  0.53195991  0.66696747  0.92317504  1
loop_
_geom_bond_atom_site_label_1
_geom_bond_atom_site_label_2
_geom_bond_distance
_geom_bond_site_symmetry_2
Ba0 Ga4 3.456284 1_555
Ba0 Ga1 3.456326 1_555
Ba0 Ga3 3.460974 1_555
Ba0 Ga0 3.460976 1_555
Ba0 Ga2 4.333250 1_655
Ba0 Ga5 4.333285 1_655
Ba0 Ba1 4.401530 1_555
Ba0 Ba2 4.401568 1_555
Ba0 Ba2 4.410045 1_665
Ba0 Ba1 4.410084 1_565
Ba0 Ba8 4.422345 1_555
Ba0 Ba9 4.422357 1_555
Ba0 Ba6 4.425647 1_655
Ba0 Ba7 4.425656 1_665
Ba1 Ga2 3.456137 1_655
Ba1 Ga5 3.456172 1_655
Ba1 Ga1 3.461001 1_655
Ba1 Ga4 3.461021 1_655
Ba1 Ga3 4.333459 1_545
Ba1 Ga0 4.333471 1_545
Ba1 Ba2 4.401537 1_555
Ba1 Ba2 4.409976 1_655
Ba1 Ba9 4.422313 1_555
Ba1 Ba8 4.422351 1_555
Ba1 Ba7 4.425648 1_655
Ba1 Ba6 4.425666 1_645
Ba2 Ga3 3.456164 1_545
Ba2 Ga0 3.456187 1_545
Ba2 Ga2 3.461021 1_545
Ba2 Ga5 3.461090 1_545
Ba2 Ga1 4.333338 1_555
Ba2 Ga4 4.333367 1_555
Ba2 Ba8 4.422289 1_555
Ba2 Ba9 4.422317 1_555
Ba2 Ba7 4.425602 1_555
Ba2 Ba6 4.425628 1_545
Ba3 Ga9 3.454291 1_655
Ba3 Ga6 3.454317 1_655
Ba3 Ga7 3.459470 1_655
Ba3 Ga10 3.459496 1_655
Ba3 Ga11 4.326828 1_555
Ba3 Ga8 4.326969 1_555
Ba3 Ba5 4.398002 1_565
Ba3 Ba4 4.398080 1_665
Ba3 Ba4 4.407265 1_555
Ba3 Ba5 4.407351 1_555
Ba3 Ba6 4.420352 1_656
Ba3 Ba7 4.420448 1_665
Ba3 Ba8 4.424031 1_556
Ba3 Ba9 4.424069 1_555
Ba4 Ga10 3.454299 1_555
Ba4 Ga7 3.454328 1_555
Ba4 Ga11 3.459454 1_555
Ba4 Ga8 3.459560 1_555
Ba4 Ga6 4.327007 1_545
Ba4 Ga9 4.327091 1_545
Ba4 Ba5 4.398054 1_455
Ba4 Ba5 4.407233 1_555
Ba4 Ba6 4.420453 1_546
Ba4 Ba7 4.420473 1_555
Ba4 Ba9 4.423950 1_555
Ba4 Ba8 4.423998 1_556
Ba5 Ga8 3.454355 1_545
Ba5 Ga11 3.454360 1_545
Ba5 Ga9 3.459482 1_545
Ba5 Ga6 3.459499 1_545
Ba5 Ga10 4.326960 1_655
Ba5 Ga7 4.326965 1_655
Ba5 Ba7 4.420440 1_655
Ba5 Ba6 4.420463 1_646
Ba5 Ba8 4.423937 1_556
Ba5 Ba9 4.424003 1_555
Ba6 Ga9 3.446540 1_554
Ba6 Ga11 3.446592 1_454
Ba6 Ga10 3.446635 1_564
Ba6 Ga1 3.447911 1_565
Ba6 Ga2 3.448000 1_555
Ba6 Ga0 3.448044 1_455
Ba7 Ga8 3.446537 1_445
Ba7 Ga6 3.446567 1_545
Ba7 Ga7 3.446646 1_555
Ba7 Ga5 3.447944 1_545
Ba7 Ga4 3.447965 1_555
Ba7 Ga3 3.448100 1_445
Ba8 Ga1 3.445193 1_555
Ba8 Ga2 3.445292 1_655
Ba8 Ga0 3.445323 1_545
Ba8 Ga10 3.449440 1_654
Ba8 Ga11 3.449460 1_554
Ba8 Ga9 3.449541 1_544
Ba9 Ga5 3.445206 1_655
Ba9 Ga4 3.445213 1_555
Ba9 Ga3 3.445343 1_545
Ba9 Ga7 3.449466 1_655
Ba9 Ga8 3.449472 1_555
Ba9 Ga6 3.449517 1_545
Ga0 Ga2 2.687549 1_555
Ga0 Ga1 2.687625 1_555
Ga0 Ga11 2.707559 1_554
Ga0 Ga9 2.707647 1_554
Ga1 Ga2 2.687584 1_555
Ga1 Ga10 2.707483 1_554
Ga1 Ga11 2.707683 1_554
Ga2 Ga9 2.707596 1_554
Ga3 Ga5 2.687550 1_555
Ga3 Ga4 2.687553 1_555
Ga3 Ga8 2.707504 1_555
Ga3 Ga6 2.707631 1_555
Ga4 Ga5 2.687594 1_555
Ga4 Ga7 2.707492 1_555
Ga4 Ga8 2.707635 1_555
Ga5 Ga6 2.707596 1_555
Ga5 Ga7 2.707675 1_555
Ga6 Ga8 2.687648 1_555
Ga6 Ga7 2.687688 1_555
Ga7 Ga8 2.687767 1_555
Ga10 Ga9 2.687655 1_555
Ga10 Ga11 2.687767 1_555
Ga10 Ga2 2.707706 1_556
Ga11 Ga9 2.687686 1_555
