# generated using pymatgen
data_Gd3(MnC3)2
_symmetry_space_group_name_H-M   'P 1'
_cell_length_a   8.13927786
_cell_length_b   8.13931592
_cell_length_c   5.04157488
_cell_angle_alpha   90.00007329
_cell_angle_beta   90.00007055
_cell_angle_gamma   119.99973085
_symmetry_Int_Tables_number   1
_chemical_formula_structural   Gd3(MnC3)2
_chemical_formula_sum   'Gd6 Mn4 C12'
_cell_volume   289.24896361
_cell_formula_units_Z   2
loop_
 _symmetry_equiv_pos_site_id
 _symmetry_equiv_pos_as_xyz
  1  'x, y, z'
loop_
 _atom_site_type_symbol
 _atom_site_label
 _atom_site_symmetry_multiplicity
 _atom_site_fract_x
 _atom_site_fract_y
 _atom_site_fract_z
 _atom_site_occupancy
  Gd  Gd0  1  0.61764424  0.68527817  0.75000211  1
  Gd  Gd1  1  0.93233362  0.61762453  0.24999653  1
  Gd  Gd2  1  0.68529089  0.06766890  0.24999735  1
  Gd  Gd3  1  0.31472231  0.93236740  0.75000202  1
  Gd  Gd4  1  0.06763614  0.38235564  0.75000235  1
  Gd  Gd5  1  0.38237653  0.31470746  0.24999761  1
  Mn  Mn0  1  0.00000441  0.00000196  0.49995651  1
  Mn  Mn1  1  0.00000441  0.00000205  0.00004341  1
  Mn  Mn2  1  0.66666817  0.33333864  0.75000025  1
  Mn  Mn3  1  0.33332443  0.66665204  0.25000056  1
  C  C0  1  0.96398173  0.77069164  0.75000126  1
  C  C1  1  0.19329901  0.96397351  0.24999917  1
  C  C2  1  0.77067416  0.80670218  0.24999850  1
  C  C3  1  0.22931037  0.19328705  0.75000200  1
  C  C4  1  0.80671098  0.03602318  0.75000175  1
  C  C5  1  0.03602675  0.22932324  0.24999871  1
  C  C6  1  0.86026012  0.57713466  0.74999455  1
  C  C7  1  0.28311711  0.86028313  0.25000519  1
  C  C8  1  0.57716265  0.71688002  0.25000488  1
  C  C9  1  0.42286711  0.28312607  0.74999567  1
  C  C10  1  0.13971365  0.42283033  0.25000521  1
  C  C11  1  0.71687420  0.13974922  0.74999539  1
loop_
_geom_bond_atom_site_label_1
_geom_bond_atom_site_label_2
_geom_bond_distance
_geom_bond_site_symmetry_2
C0 C6 1.365529 1_555
C0 Mn1 2.147421 1_666
C0 Mn0 2.147431 1_665
C0 Gd3 2.474825 1_655
C0 Gd0 2.543617 1_555
C0 Gd1 2.766200 1_556
C0 Gd1 2.766240 1_555
C1 C7 1.365176 1_555
C1 Mn1 2.147227 1_565
C1 Mn0 2.147233 1_565
C1 Gd5 2.474797 1_565
C1 Gd1 2.543793 1_455
C1 Gd3 2.766126 1_554
C1 Gd3 2.766150 1_555
C2 C8 1.365198 1_555
C2 Mn1 2.147278 1_665
C2 Mn0 2.147281 1_665
C2 Gd1 2.474803 1_555
C2 Gd2 2.543790 1_565
C2 Gd0 2.766123 1_554
C2 Gd0 2.766162 1_555
C3 C9 1.365519 1_555
C3 Mn1 2.147398 1_556
C3 Mn0 2.147405 1_555
C3 Gd4 2.474839 1_555
C3 Gd3 2.543579 1_545
C3 Gd5 2.766196 1_556
C3 Gd5 2.766242 1_555
C4 Mn1 2.147443 1_656
C4 Mn0 2.147456 1_655
C4 Gd0 2.474869 1_545
C4 Gd4 2.543608 1_655
C4 Gd2 2.766196 1_556
C4 Gd2 2.766235 1_555
C5 Mn1 2.147235 1_555
C5 Mn0 2.147246 1_555
C5 Gd2 2.474799 1_455
C5 Gd5 2.543782 1_555
C5 Gd4 2.766132 1_554
C5 Gd4 2.766162 1_555
C6 Mn2 1.814860 1_555
C6 Gd0 2.532281 1_555
C6 Gd1 2.571719 1_555
C6 Gd1 2.571736 1_556
C6 Gd4 2.835185 1_655
C7 Mn3 1.815183 1_555
C7 Gd1 2.532512 1_455
C7 Gd3 2.571724 1_555
C7 Gd3 2.571758 1_554
C7 Gd2 2.835323 1_565
C8 Mn3 1.815123 1_555
C8 Gd2 2.532554 1_565
C8 Gd0 2.571726 1_555
C8 Gd0 2.571753 1_554
C8 Gd5 2.835327 1_555
C9 Mn2 1.814866 1_555
C9 Gd3 2.532290 1_545
C9 Gd5 2.571716 1_555
C9 Gd5 2.571735 1_556
C9 Gd0 2.835183 1_555
C10 C5 1.365174 1_555
C10 Mn3 1.815047 1_555
C10 Gd5 2.532522 1_555
C10 Gd4 2.571718 1_555
C10 Gd4 2.571744 1_554
C10 Gd1 2.835320 1_455
C11 C4 1.365562 1_555
C11 Mn2 1.814843 1_555
C11 Gd4 2.532291 1_655
C11 Gd2 2.571727 1_555
C11 Gd2 2.571749 1_556
C11 Gd3 2.835170 1_545
