# generated using pymatgen
data_Na8CaZr3Si4(PO12)2
_symmetry_space_group_name_H-M   'P 1'
_cell_length_a   9.33668454
_cell_length_b   9.33917794
_cell_length_c   22.84546247
_cell_angle_alpha   90.00174404
_cell_angle_beta   89.91226885
_cell_angle_gamma   120.06428408
_symmetry_Int_Tables_number   1
_chemical_formula_structural   Na8CaZr3Si4(PO12)2
_chemical_formula_sum   'Na24 Ca3 Zr9 Si12 P6 O72'
_cell_volume   1724.04885181
_cell_formula_units_Z   3
loop_
 _symmetry_equiv_pos_site_id
 _symmetry_equiv_pos_as_xyz
  1  'x, y, z'
loop_
 _atom_site_type_symbol
 _atom_site_label
 _atom_site_symmetry_multiplicity
 _atom_site_fract_x
 _atom_site_fract_y
 _atom_site_fract_z
 _atom_site_occupancy
  Na  Na0  1  0.63840226  0.01312127  0.24072396  1
  Na  Na1  1  0.37516035  0.35985078  0.24174032  1
  Na  Na2  1  0.98584376  0.62652122  0.24179595  1
  Na  Na3  1  0.63598586  0.62261957  0.74605929  1
  Na  Na4  1  0.98231736  0.36712661  0.75080825  1
  Na  Na5  1  0.38320575  0.00974861  0.74458131  1
  Na  Na6  1  0.31375883  0.33511489  0.58567819  1
  Na  Na7  1  0.02965014  0.69816103  0.58374479  1
  Na  Na8  1  0.65963119  0.97133472  0.58970051  1
  Na  Na9  1  0.31362083  0.97149550  0.08269072  1
  Na  Na10  1  0.65795853  0.68652273  0.08262635  1
  Na  Na11  1  0.02826931  0.34170010  0.08262686  1
  Na  Na12  1  0.96584654  0.66430678  0.91720679  1
  Na  Na13  1  0.69917645  0.03578393  0.91733784  1
  Na  Na14  1  0.33487156  0.30077642  0.91858712  1
  Na  Na15  1  0.97101344  0.29296170  0.41398979  1
  Na  Na16  1  0.31515990  0.03248466  0.41603890  1
  Na  Na17  1  0.71349249  0.67621957  0.41326538  1
  Na  Na18  1  0.00842684  0.99848902  0.49658047  1
  Na  Na19  1  0.00077460  0.00095925  0.99869148  1
  Na  Na20  1  0.67299980  0.33374669  0.82958135  1
  Na  Na21  1  0.66796889  0.33706060  0.32979871  1
  Na  Na22  1  0.33416167  0.66753748  0.15973107  1
  Na  Na23  1  0.34121615  0.67700401  0.66981154  1
  Ca  Ca0  1  0.00170992  -0.00005926  0.35260059  1
  Ca  Ca1  1  0.66434657  0.33237819  0.68303121  1
  Ca  Ca2  1  0.66654930  0.33345898  0.17684314  1
  Zr  Zr0  1  0.99596150  0.99658974  0.85352162  1
  Zr  Zr1  1  0.99776181  0.99205689  0.64874020  1
  Zr  Zr2  1  0.00022361  0.99969594  0.14673149  1
  Zr  Zr3  1  0.66731502  0.33367602  0.98346143  1
  Zr  Zr4  1  0.66387044  0.33890064  0.48289004  1
  Zr  Zr5  1  0.33322634  0.66704862  0.01460151  1
  Zr  Zr6  1  0.33193538  0.66676447  0.51733347  1
  Zr  Zr7  1  0.32967562  0.66160183  0.31650540  1
  Zr  Zr8  1  0.33526033  0.67090133  0.81575860  1
  Si  Si0  1  0.00537860  0.70659355  0.75186434  1
  Si  Si1  1  0.70370615  0.99551437  0.75124071  1
  Si  Si2  1  0.36636474  0.03285279  0.58385058  1
  Si  Si3  1  0.66604365  0.63595114  0.58436199  1
  Si  Si4  1  0.97002689  0.63481320  0.08447372  1
  Si  Si5  1  0.66508336  0.03015969  0.08443761  1
  Si  Si6  1  0.36543729  0.33544776  0.08436377  1
  Si  Si7  1  0.62806386  0.66409061  0.91596669  1
  Si  Si8  1  0.03730813  0.37185146  0.91579891  1
  Si  Si9  1  0.33560442  0.96518766  0.91642015  1
  Si  Si10  1  0.33825469  0.37374559  0.41790881  1
  Si  Si11  1  0.03308330  0.65883177  0.41771648  1
  P  P0  1  0.29812936  0.99556896  0.25206491  1
  P  P1  1  0.69808065  0.70371235  0.25217838  1
  P  P2  1  0.00429873  0.30106649  0.25223389  1
  P  P3  1  0.28586407  0.29259126  0.75114007  1
  P  P4  1  0.96592115  0.33340047  0.58255603  1
  P  P5  1  0.62106374  0.96151571  0.41710243  1
  O  O0  1  0.21976552  0.01548536  0.30752027  1
  O  O1  1  0.79522757  0.78136266  0.30774590  1
  O  O2  1  0.98398646  0.20355330  0.30778554  1
  O  O3  1  0.19463698  0.18676483  0.80560698  1
  O  O4  1  0.99375127  0.80941523  0.80817103  1
  O  O5  1  0.81902869  0.01151160  0.80795148  1
  O  O6  1  0.79849928  0.97648933  0.69235605  1
  O  O7  1  0.18116407  0.20652667  0.69519251  1
  O  O8  1  0.02902864  0.82226471  0.69267504  1
  O  O9  1  0.79204517  0.81506701  0.19748529  1
  O  O10  1  0.02356331  0.20898220  0.19757838  1
  O  O11  1  0.18621730  0.97554998  0.19736804  1
  O  O12  1  0.89938056  0.37015112  0.63761864  1
  O  O13  1  0.47603601  0.09568383  0.64213654  1
  O  O14  1  0.62180945  0.52580032  0.64240646  1
  O  O15  1  0.90717110  0.52976973  0.14376824  1
  O  O16  1  0.62250578  0.09301422  0.14361050  1
  O  O17  1  0.47065944  0.37790867  0.14354245  1
  O  O18  1  0.45856688  0.30200115  0.02835583  1
  O  O19  1  0.84369897  0.54171025  0.02850508  1
  O  O20  1  0.69834048  0.15678277  0.02849478  1
  O  O21  1  0.46414962  0.15618339  0.52693162  1
  O  O22  1  0.69734266  0.54107493  0.52750683  1
  O  O23  1  0.85164343  0.30735274  0.52868334  1
  O  O24  1  0.54164501  0.69530785  0.97274844  1
  O  O25  1  0.15389180  0.45892177  0.97275818  1
  O  O26  1  0.30332688  0.84686391  0.97307310  1
  O  O27  1  0.53160614  0.85447370  0.47129614  1
  O  O28  1  0.32501769  0.47397188  0.47405224  1
  O  O29  1  0.14960418  0.67907342  0.47375156  1
  O  O30  1  0.13087500  0.63882227  0.35979061  1
  O  O31  1  0.51246685  0.87443268  0.36203730  1
  O  O32  1  0.36487330  0.49271948  0.35978216  1
  O  O33  1  0.12715666  0.49014647  0.85852920  1
  O  O34  1  0.36438651  0.87362770  0.85950578  1
  O  O35  1  0.50975556  0.63558341  0.85894823  1
  O  O36  1  0.00878442  0.81810022  0.41783836  1
  O  O37  1  0.79227584  0.97879145  0.41477416  1
  O  O38  1  0.17396412  0.19347871  0.41823467  1
  O  O39  1  0.01996161  0.18800831  0.91183251  1
  O  O40  1  0.17209498  0.98689341  0.91188676  1
  O  O41  1  0.81332940  0.83042132  0.91219145  1
  O  O42  1  0.98297608  0.17591038  0.58645682  1
  O  O43  1  0.18493791  0.02485410  0.58615002  1
  O  O44  1  0.83629012  0.82050930  0.58658514  1
  O  O45  1  0.98349559  0.81926681  0.08966475  1
  O  O46  1  0.83608166  0.01670938  0.08974875  1
  O  O47  1  0.18085331  0.16420954  0.08968199  1
  O  O48  1  0.68298626  0.15699642  0.75230088  1
  O  O49  1  0.45731351  0.30964126  0.74967309  1
  O  O50  1  0.84032626  0.52669354  0.75215942  1
  O  O51  1  0.67233697  0.52776059  0.24705545  1
  O  O52  1  0.85502963  0.32776836  0.24696391  1
  O  O53  1  0.47376525  0.14666905  0.24696781  1
  O  O54  1  0.64555203  0.49861025  0.92223228  1
  O  O55  1  0.85405450  0.35462083  0.92207583  1
  O  O56  1  0.50284258  0.14723004  0.92231384  1
  O  O57  1  0.63287635  0.13314165  0.42173793  1
  O  O58  1  0.50978628  0.36246236  0.42118719  1
  O  O59  1  0.85519057  0.48253847  0.42099289  1
  O  O60  1  0.33539132  0.49202945  0.07338710  1
  O  O61  1  0.15673151  0.66475736  0.07360112  1
  O  O62  1  0.50808563  0.84345453  0.07354412  1
  O  O63  1  0.33145027  0.84304541  0.57386182  1
  O  O64  1  0.50956725  0.66761407  0.57384710  1
  O  O65  1  0.14364924  0.48421243  0.57318856  1
  O  O66  1  0.30831919  0.83163481  0.25361286  1
  O  O67  1  0.52524777  0.69665011  0.25294920  1
  O  O68  1  0.17077458  0.47506442  0.25346292  1
  O  O69  1  0.29607515  0.46395492  0.75443096  1
  O  O70  1  0.17636973  0.69524756  0.75368036  1
  O  O71  1  0.52394778  0.82014329  0.75336315  1
loop_
_geom_bond_atom_site_label_1
_geom_bond_atom_site_label_2
_geom_bond_distance
_geom_bond_site_symmetry_2
Na0 O16 2.369178 1_555
Na0 O53 2.420543 1_555
Na0 O52 2.606160 1_555
Na0 O67 2.607714 1_545
Na0 O66 2.687195 1_545
Na0 O9 3.018100 1_545
Na0 O31 3.034056 1_545
Na0 O2 3.191638 1_555
Na1 O17 2.387350 1_555
Na1 O51 2.411223 1_555
Na1 O53 2.581192 1_555
Na1 O68 2.631877 1_555
Na1 O67 2.740023 1_555
Na1 O32 2.989939 1_555
Na1 O10 3.025771 1_555
Na1 O0 3.166230 1_555
Na2 O15 2.389817 1_555
Na2 O52 2.423960 1_555
Na2 O51 2.593652 1_555
Na2 O66 2.651658 1_655
Na2 O68 2.738899 1_655
Na2 O30 2.994762 1_655
Na2 O11 3.006617 1_655
Na2 O1 3.177878 1_555
Na3 O50 2.485011 1_555
Na3 O14 2.514646 1_555
Na3 O49 2.539182 1_555
Na3 O71 2.541245 1_555
Na3 O69 2.755108 1_555
Na3 O35 2.861568 1_555
Na3 O6 3.114453 1_555
Na3 O4 3.223425 1_555
Na4 O50 2.441026 1_555
Na4 O48 2.483451 1_555
Na4 O69 2.598618 1_655
Na4 O70 2.667372 1_655
Na4 O12 2.704661 1_555
Na4 O33 2.767357 1_655
Na4 O5 3.159051 1_555
Na4 O7 3.177025 1_655
Na5 O48 2.429265 1_555
Na5 O13 2.483895 1_555
Na5 O49 2.528845 1_555
Na5 O70 2.591379 1_545
Na5 O71 2.689765 1_545
Na5 O34 2.883612 1_545
Na5 O8 3.101244 1_545
Na5 O3 3.268800 1_555
Na6 O43 2.520083 1_555
Na6 O65 2.600033 1_555
Na6 O42 2.673621 1_455
Na6 O64 2.714502 1_555
Na6 O7 2.781265 1_555
Na6 O14 2.828896 1_555
Na6 O28 2.838804 1_555
Na6 O21 2.985034 1_555
Na7 O63 2.449450 1_555
Na7 O44 2.575959 1_455
Na7 O43 2.642355 1_565
Na7 O65 2.704351 1_555
Na7 O8 2.746422 1_555
Na7 O29 2.791398 1_555
Na7 O12 2.939512 1_455
Na7 O22 2.980075 1_455
Na8 O64 2.481843 1_555
Na8 O42 2.643881 1_565
Na8 O44 2.652774 1_555
Na8 O6 2.670243 1_555
Na8 O63 2.698206 1_555
Na8 O13 2.776735 1_565
Na8 O27 2.939319 1_555
Na8 O23 3.059537 1_565
Na9 O61 2.488317 1_555
Na9 O62 2.635223 1_555
Na9 O47 2.652571 1_565
Na9 O45 2.674877 1_455
Na9 O26 2.742964 1_554
Na9 O16 2.876632 1_565
Na9 O11 2.883684 1_555
Na9 O18 2.951183 1_565
Na10 O62 2.490966 1_555
Na10 O60 2.633454 1_555
Na10 O45 2.650858 1_555
Na10 O46 2.676525 1_565
Na10 O24 2.754067 1_554
Na10 O17 2.871354 1_555
Na10 O9 2.897919 1_555
Na10 O19 2.951023 1_555
Na11 O60 2.490524 1_555
Na11 O61 2.637698 1_555
Na11 O46 2.645892 1_455
Na11 O47 2.677691 1_555
Na11 O25 2.752981 1_554
Na11 O15 2.880835 1_455
Na11 O10 2.894826 1_555
Na11 O20 2.946570 1_455
Na12 O55 2.538054 1_555
Na12 O41 2.581015 1_555
Na12 O54 2.590974 1_555
Na12 O40 2.643083 1_655
Na12 O4 2.784569 1_555
Na12 O19 2.785618 1_556
Na12 O26 3.015589 1_655
Na12 O33 3.026386 1_655
Na13 O56 2.523388 1_555
Na13 O55 2.579836 1_555
Na13 O39 2.596150 1_655
Na13 O41 2.622192 1_545
Na13 O20 2.781069 1_556
Na13 O5 2.791786 1_555
Na13 O34 3.013196 1_545
Na13 O24 3.030722 1_545
Na14 O40 2.542294 1_545
Na14 O54 2.542776 1_555
Na14 O39 2.583925 1_555
Na14 O56 2.603238 1_555
Na14 O18 2.760111 1_556
Na14 O3 2.850159 1_555
Na14 O25 3.010349 1_555
Na14 O35 3.029432 1_555
Na15 O38 2.495539 1_655
Na15 O59 2.499490 1_555
Na15 O37 2.547176 1_545
Na15 O2 2.588256 1_555
Na15 O57 2.739203 1_555
Na15 O23 2.875227 1_555
Na15 O30 3.059134 1_655
Na15 O28 3.174984 1_655
Na16 O38 2.446810 1_555
Na16 O36 2.540525 1_545
Na16 O0 2.613385 1_555
Na16 O57 2.628204 1_555
Na16 O58 2.683781 1_555
Na16 O21 2.843980 1_555
Na16 O31 3.132395 1_545
Na16 O29 3.147020 1_545
Na17 O36 2.389254 1_655
Na17 O37 2.538644 1_555
Na17 O1 2.569336 1_555
Na17 O58 2.579036 1_555
Na17 O59 2.729788 1_555
Na17 O22 2.869777 1_555
Na17 O32 3.073692 1_555
Na17 O27 3.199760 1_555
Na18 O36 2.465693 1_555
Na18 O38 2.465815 1_565
Na18 O43 2.562716 1_565
Na18 O44 2.624369 1_455
Na18 O37 2.690550 1_455
Na18 O42 2.722264 1_465
Na19 O39 2.589758 1_555
Na19 O40 2.590237 1_545
Na19 O41 2.592731 1_445
Na19 O47 2.629558 1_556
Na19 O46 2.632555 1_456
Na19 O45 2.636228 1_446
Na20 O50 2.446900 1_555
Na20 O48 2.450318 1_555
Na20 O49 2.644929 1_555
Na20 O55 2.653574 1_555
Na20 O56 2.695090 1_555
Na20 O54 2.703706 1_555
Na21 O51 2.583411 1_555
Na21 O52 2.603996 1_555
Na21 O53 2.609635 1_555
Na21 O59 2.621713 1_555
Na21 O58 2.634018 1_555
Na21 O57 2.742047 1_555
Na22 O62 2.555458 1_555
Na22 O61 2.565867 1_555
Na22 O60 2.568345 1_555
Na22 O67 2.705143 1_555
Na22 O66 2.715812 1_555
Na22 O68 2.717797 1_555
Na23 O71 2.462910 1_555
Na23 O70 2.514508 1_555
Na23 O69 2.651644 1_555
Na23 O63 2.713001 1_555
Na23 O64 2.722559 1_555
Na23 O65 2.863841 1_555
Ca0 O0 2.219040 1_555
Ca0 O1 2.235316 1_445
Ca0 O2 2.237743 1_455
Ca0 O38 2.279589 1_555
Ca0 O36 2.285276 1_545
Ca0 O37 2.341944 1_445
Ca1 O13 2.227408 1_555
Ca1 O14 2.236566 1_555
Ca1 O12 2.287743 1_555
Ca1 O48 2.346056 1_555
Ca1 O50 2.346760 1_555
Ca1 O49 2.383114 1_555
Ca2 O15 2.201700 1_555
Ca2 O17 2.204813 1_555
Ca2 O16 2.205374 1_555
Ca2 O53 2.386377 1_555
Ca2 O52 2.401711 1_555
Ca2 O51 2.402190 1_555
O0 P0 1.519364 1_545
O1 P1 1.518081 1_555
O2 P2 1.517312 1_655
O3 P3 1.550485 1_555
O3 Zr0 2.118140 1_445
O4 Si0 1.640900 1_655
O4 Zr0 2.023202 1_555
O5 Si1 1.644168 1_545
O5 Zr0 2.016972 1_545
O6 Si1 1.666877 1_555
O6 Zr1 2.049048 1_555
O7 P3 1.565831 1_555
O7 Zr1 2.153891 1_445
O8 Si0 1.674630 1_555
O8 Zr1 2.017914 1_455
O9 P1 1.579557 1_555
O9 Zr2 2.175031 1_655
O10 P2 1.576467 1_555
O10 Zr2 2.188845 1_545
O11 P0 1.580011 1_555
O11 Zr2 2.191634 1_555
O12 P4 1.515715 1_555
O13 Si2 1.602503 1_555
O14 Si3 1.599989 1_555
O15 Si4 1.600807 1_555
O16 Si5 1.600681 1_555
O17 Si6 1.601224 1_555
O18 Si6 1.661184 1_555
O18 Zr3 2.086700 1_554
O19 Si4 1.661056 1_555
O19 Zr3 2.084469 1_554
O20 Si5 1.661086 1_555
O20 Zr3 2.086165 1_554
O21 Si2 1.671501 1_555
O21 Zr4 2.051245 1_555
O22 Si3 1.678038 1_555
O22 Zr4 2.027642 1_555
O23 P4 1.567256 1_555
O23 Zr4 2.185884 1_555
O24 Si7 1.628262 1_555
O24 Zr5 2.061629 1_556
O25 Si8 1.629963 1_555
O25 Zr5 2.058976 1_556
O26 Si9 1.628585 1_555
O26 Zr5 2.066106 1_556
O27 P5 1.546010 1_555
O27 Zr6 2.091516 1_555
O28 Si10 1.628465 1_555
O28 Zr6 2.026651 1_555
O29 Si11 1.629807 1_555
O29 Zr6 2.025800 1_555
O30 Si11 1.669449 1_555
O30 Zr7 2.016710 1_555
O31 P5 1.565137 1_555
O31 Zr7 2.133534 1_555
O32 Si10 1.667977 1_555
O32 Zr7 2.023247 1_555
O33 Si8 1.644444 1_555
O33 Zr8 2.070656 1_555
O34 Si9 1.650185 1_555
O34 Zr8 2.035246 1_555
O35 Si7 1.642428 1_555
O35 Zr8 2.068822 1_555
O36 Si11 1.613089 1_555
O37 P5 1.524979 1_555
O38 Si10 1.612398 1_555
O39 Si8 1.644311 1_555
O39 Zr0 2.149431 1_445
O40 Si9 1.641034 1_555
O40 Zr0 2.155555 1_455
O41 Si7 1.649207 1_555
O41 Zr0 2.110503 1_555
O42 P4 1.559278 1_555
O42 Zr1 2.286954 1_545
O43 Si2 1.658513 1_555
O43 Zr1 2.156062 1_445
O44 Si3 1.659891 1_555
O44 Zr1 2.107678 1_555
O45 Si4 1.667444 1_555
O45 Zr2 2.073715 1_655
O46 Si5 1.667642 1_555
O46 Zr2 2.078150 1_645
O47 Si6 1.667425 1_555
O47 Zr2 2.073806 1_545
O48 Si1 1.613911 1_545
O49 P3 1.527543 1_555
O50 Si0 1.613524 1_655
O51 P1 1.541447 1_555
O52 P2 1.538752 1_655
O53 P0 1.541065 1_545
O54 Si7 1.639660 1_555
O54 Zr3 2.164539 1_555
O55 Si8 1.642346 1_655
O55 Zr3 2.166944 1_555
O56 Si9 1.639358 1_545
O56 Zr3 2.160759 1_555
O57 P5 1.554154 1_545
O57 Zr4 2.274208 1_555
O58 Si10 1.658641 1_555
O58 Zr4 2.104415 1_555
O59 Si11 1.653704 1_655
O59 Zr4 2.140430 1_555
O60 Si6 1.640517 1_555
O60 Zr5 2.123450 1_555
O61 Si4 1.639785 1_455
O61 Zr5 2.119100 1_555
O62 Si5 1.640486 1_565
O62 Zr5 2.122391 1_555
O63 Si2 1.649798 1_565
O63 Zr6 2.094151 1_555
O64 Si3 1.647276 1_555
O64 Zr6 2.100219 1_555
O65 P4 1.562159 1_455
O65 Zr6 2.148409 1_555
O66 P0 1.581218 1_555
O66 Zr7 2.223532 1_555
O67 P1 1.581745 1_555
O67 Zr7 2.223213 1_555
O68 P2 1.589589 1_555
O68 Zr7 2.174183 1_555
O69 P3 1.556646 1_555
O69 Zr8 2.263871 1_555
O70 Si0 1.652704 1_555
O70 Zr8 2.146682 1_555
O71 Si1 1.657481 1_555
O71 Zr8 2.147187 1_555
