# generated using pymatgen
data_Na7TaZn3Si3(SO8)3
_symmetry_space_group_name_H-M   'P 1'
_cell_length_a   9.15101877
_cell_length_b   9.18558894
_cell_length_c   22.16773431
_cell_angle_alpha   89.55188593
_cell_angle_beta   90.64638896
_cell_angle_gamma   120.43250929
_symmetry_Int_Tables_number   1
_chemical_formula_structural   Na7TaZn3Si3(SO8)3
_chemical_formula_sum   'Na21 Ta3 Zn9 Si9 S9 O72'
_cell_volume   1606.53483500
_cell_formula_units_Z   3
loop_
 _symmetry_equiv_pos_site_id
 _symmetry_equiv_pos_as_xyz
  1  'x, y, z'
loop_
 _atom_site_type_symbol
 _atom_site_label
 _atom_site_symmetry_multiplicity
 _atom_site_fract_x
 _atom_site_fract_y
 _atom_site_fract_z
 _atom_site_occupancy
  Na  Na0  1  0.63899714  0.00546419  0.23721686  1
  Na  Na1  1  0.37792373  0.34739253  0.25486812  1
  Na  Na2  1  0.98359239  0.65060345  0.24893231  1
  Na  Na3  1  0.66627359  0.63838165  0.74956927  1
  Na  Na4  1  0.97762319  0.34082663  0.74897324  1
  Na  Na5  1  0.35856577  0.01647082  0.74813516  1
  Na  Na6  1  0.28789493  0.32458994  0.58822703  1
  Na  Na7  1  0.04015326  0.71417724  0.58726232  1
  Na  Na8  1  0.67586299  0.96733381  0.59394050  1
  Na  Na9  1  0.30247239  0.96425187  0.09234908  1
  Na  Na10  1  0.67124733  0.72504925  0.08181759  1
  Na  Na11  1  0.03330682  0.32159959  0.08027139  1
  Na  Na12  1  0.97341815  0.30037094  0.42135892  1
  Na  Na13  1  0.31775873  0.03921770  0.41497145  1
  Na  Na14  1  0.71128667  0.66075779  0.40854986  1
  Na  Na15  1  0.01360271  0.00024369  0.49662459  1
  Na  Na16  1  0.97648084  0.99243933  0.98898474  1
  Na  Na17  1  0.66880327  0.33974394  0.82070099  1
  Na  Na18  1  0.65597635  0.33957685  0.33312491  1
  Na  Na19  1  0.35647787  0.68912165  0.16304673  1
  Na  Na20  1  0.32959325  0.66742569  0.66329348  1
  Ta  Ta0  1  0.67006808  0.33024323  0.97528964  1
  Ta  Ta1  1  0.33039972  0.66379128  0.31654356  1
  Ta  Ta2  1  0.34445193  0.66126252  0.81298458  1
  Zn  Zn0  1  0.01380535  0.97904214  0.34879352  1
  Zn  Zn1  1  0.97776758  0.97895659  0.84017600  1
  Zn  Zn2  1  0.99824252  0.99339587  0.68141367  1
  Zn  Zn3  1  0.97915910  0.97948423  0.15803146  1
  Zn  Zn4  1  0.66065940  0.33236103  0.68920671  1
  Zn  Zn5  1  0.64887884  0.32042221  0.18585710  1
  Zn  Zn6  1  0.66743859  0.35183722  0.47800299  1
  Zn  Zn7  1  0.37593525  0.70015244  0.00939667  1
  Zn  Zn8  1  0.31289244  0.64335989  0.50629283  1
  Si  Si0  1  0.29587468  0.99818051  0.24900578  1
  Si  Si1  1  0.69766393  0.70056518  0.25003306  1
  Si  Si2  1  0.28867188  0.28699371  0.75074632  1
  Si  Si3  1  0.00244458  0.69956234  0.74857760  1
  Si  Si4  1  0.70431280  0.00320474  0.74896914  1
  Si  Si5  1  0.67043336  0.04212079  0.08645172  1
  Si  Si6  1  0.64310019  0.67465431  0.92128736  1
  Si  Si7  1  0.32565016  0.36073139  0.42040850  1
  Si  Si8  1  0.03515024  0.66479680  0.42155934  1
  S  S0  1  0.00646929  0.30169149  0.25089246  1
  S  S1  1  0.95835027  0.33163758  0.58087642  1
  S  S2  1  0.37806127  0.04047733  0.57965615  1
  S  S3  1  0.66677060  0.63503220  0.58092984  1
  S  S4  1  0.95747760  0.61942579  0.08204049  1
  S  S5  1  0.37589160  0.33330363  0.08102502  1
  S  S6  1  0.04368837  0.38120135  0.92218490  1
  S  S7  1  0.33413683  0.96325057  0.91941409  1
  S  S8  1  0.62331160  0.95769781  0.41821204  1
  O  O0  1  0.22197398  0.03898969  0.30796237  1
  O  O1  1  0.81155025  0.78845759  0.30916134  1
  O  O2  1  0.98348342  0.20038942  0.30463088  1
  O  O3  1  0.20114073  0.15926193  0.80555611  1
  O  O4  1  0.94613894  0.77628742  0.80178118  1
  O  O5  1  0.83497089  0.05842316  0.80407431  1
  O  O6  1  0.76308713  0.94128855  0.68969594  1
  O  O7  1  0.17718295  0.23028474  0.68817021  1
  O  O8  1  0.06248475  0.81928987  0.68820373  1
  O  O9  1  0.75782438  0.81689322  0.18891930  1
  O  O10  1  0.03655152  0.23154249  0.19569724  1
  O  O11  1  0.17522295  0.95770545  0.18851101  1
  O  O12  1  0.87012131  0.33907112  0.63497269  1
  O  O13  1  0.47308548  0.12982520  0.63465013  1
  O  O14  1  0.64951027  0.53299314  0.63521338  1
  O  O15  1  0.88010624  0.52825535  0.13836245  1
  O  O16  1  0.64826263  0.13025325  0.14551958  1
  O  O17  1  0.47306577  0.36263004  0.13790673  1
  O  O18  1  0.47994291  0.32554976  0.02955898  1
  O  O19  1  0.84407309  0.51997548  0.02913269  1
  O  O20  1  0.68215486  0.17012335  0.02836246  1
  O  O21  1  0.46760757  0.13587084  0.52403318  1
  O  O22  1  0.67715138  0.55018581  0.52522926  1
  O  O23  1  0.86296972  0.32461735  0.52465135  1
  O  O24  1  0.56118781  0.68092117  0.98444375  1
  O  O25  1  0.13534311  0.47111941  0.97742469  1
  O  O26  1  0.31803804  0.86986967  0.97674369  1
  O  O27  1  0.54616115  0.85611031  0.47275305  1
  O  O28  1  0.30653686  0.44280620  0.48189971  1
  O  O29  1  0.15348283  0.70515759  0.48087500  1
  O  O30  1  0.14916770  0.65378202  0.36252813  1
  O  O31  1  0.51370817  0.86143644  0.36295965  1
  O  O32  1  0.34739413  0.49649721  0.36314013  1
  O  O33  1  0.12371285  0.48647105  0.86768870  1
  O  O34  1  0.35908663  0.87871203  0.86754172  1
  O  O35  1  0.50305995  0.64567416  0.86584053  1
  O  O36  1  0.00540122  0.82386034  0.41602154  1
  O  O37  1  0.79339099  0.98257018  0.41094831  1
  O  O38  1  0.15178544  0.18104643  0.41162305  1
  O  O39  1  0.01855424  0.21367084  0.91877961  1
  O  O40  1  0.19664822  0.99564432  0.91419855  1
  O  O41  1  0.82735175  0.83295414  0.91143112  1
  O  O42  1  0.97641266  0.18032443  0.58016510  1
  O  O43  1  0.20688878  0.02036093  0.57813194  1
  O  O44  1  0.82223771  0.80351700  0.58227131  1
  O  O45  1  0.97114096  0.78643202  0.07842893  1
  O  O46  1  0.84512556  0.03251395  0.08408368  1
  O  O47  1  0.21411451  0.17126082  0.08014308  1
  O  O48  1  0.65446278  0.14786927  0.74067544  1
  O  O49  1  0.48574516  0.33768967  0.74443540  1
  O  O50  1  0.85083163  0.50609670  0.73996838  1
  O  O51  1  0.67842794  0.51368146  0.24341997  1
  O  O52  1  0.86598140  0.33595709  0.24540894  1
  O  O53  1  0.49092214  0.15560430  0.24708147  1
  O  O54  1  0.64739685  0.48950761  0.92540726  1
  O  O55  1  0.86475115  0.36547394  0.92359741  1
  O  O56  1  0.50200868  0.13765171  0.92354633  1
  O  O57  1  0.62655571  0.11938314  0.41671168  1
  O  O58  1  0.49809787  0.34955895  0.41587683  1
  O  O59  1  0.85763782  0.48373259  0.41687293  1
  O  O60  1  0.34314816  0.47477656  0.07490788  1
  O  O61  1  0.12544531  0.63404369  0.07629668  1
  O  O62  1  0.49557379  0.85549979  0.08112207  1
  O  O63  1  0.36530111  0.87043242  0.58148579  1
  O  O64  1  0.51289619  0.65487415  0.57927105  1
  O  O65  1  0.13181456  0.48939951  0.58244664  1
  O  O66  1  0.31012486  0.82118346  0.25735843  1
  O  O67  1  0.50252038  0.67460757  0.25941685  1
  O  O68  1  0.16850212  0.47628594  0.25617000  1
  O  O69  1  0.30373808  0.47992221  0.76298596  1
  O  O70  1  0.17575485  0.68699128  0.76661894  1
  O  O71  1  0.51229864  0.82502439  0.76241769  1
loop_
_geom_bond_atom_site_label_1
_geom_bond_atom_site_label_2
_geom_bond_distance
_geom_bond_site_symmetry_2
Na0 O16 2.306955 1_555
Na0 O53 2.385473 1_555
Na0 O66 2.641896 1_545
Na0 O52 2.678716 1_555
Na0 O67 2.680215 1_545
Na0 O9 2.700436 1_545
Na0 O31 3.051619 1_545
Na0 O2 3.097475 1_555
Na1 O51 2.390416 1_555
Na1 O53 2.461061 1_555
Na1 O67 2.621950 1_555
Na1 O0 2.708731 1_555
Na1 O68 2.715810 1_555
Na1 O17 2.724311 1_555
Na1 O32 2.858106 1_555
Na1 O10 3.028764 1_555
Na1 Na18 3.093932 1_555
Na2 O51 2.414919 1_555
Na2 O52 2.523528 1_555
Na2 O66 2.582184 1_655
Na2 O15 2.660863 1_555
Na2 O11 2.794509 1_655
Na2 O1 2.821011 1_555
Na2 O68 2.861378 1_655
Na2 O30 2.916851 1_655
Na3 O49 2.397741 1_555
Na3 O4 2.484509 1_555
Na3 O50 2.542694 1_555
Na3 O14 2.695574 1_555
Na3 O71 2.733058 1_555
Na3 O6 2.785626 1_555
Na3 O69 2.887379 1_555
Na3 O35 3.011562 1_555
Na4 O50 2.337764 1_555
Na4 O5 2.545796 1_555
Na4 O48 2.569744 1_555
Na4 O69 2.599518 1_655
Na4 O12 2.698686 1_555
Na4 O70 2.777424 1_655
Na4 O7 2.852735 1_655
Na4 O33 2.943885 1_655
Na5 O48 2.347816 1_555
Na5 O49 2.566470 1_555
Na5 O70 2.644431 1_545
Na5 O8 2.715075 1_545
Na5 O3 2.719851 1_555
Na5 O13 2.724752 1_555
Na5 O71 2.767548 1_545
Na5 O34 2.925944 1_545
Na6 O7 2.411819 1_555
Na6 O42 2.465436 1_455
Na6 O43 2.513247 1_555
Na6 O65 2.555691 1_555
Na6 O28 2.558367 1_555
Na6 O64 2.674839 1_555
Na6 O14 3.039075 1_555
Na7 O8 2.409280 1_555
Na7 O43 2.435131 1_565
Na7 O44 2.512717 1_455
Na7 O63 2.570809 1_555
Na7 O65 2.595758 1_555
Na7 O29 2.605681 1_555
Na7 O12 3.156036 1_455
Na7 O22 3.170944 1_455
Na8 O6 2.312444 1_555
Na8 O42 2.458414 1_565
Na8 O44 2.486199 1_555
Na8 O64 2.496987 1_555
Na8 O63 2.523637 1_555
Na8 O27 2.900362 1_555
Na8 O13 3.057804 1_565
Na8 O12 3.083823 1_565
Na9 O11 2.426266 1_555
Na9 O47 2.426365 1_565
Na9 O62 2.446316 1_555
Na9 O45 2.631733 1_455
Na9 O61 2.641424 1_555
Na9 O26 2.739977 1_554
Na9 O16 2.963666 1_565
Na9 O18 3.179245 1_565
Na10 O24 2.321444 1_554
Na10 O46 2.441031 1_565
Na10 O62 2.443570 1_555
Na10 O9 2.507596 1_555
Na10 O45 2.508258 1_555
Na10 O60 2.706627 1_555
Na10 O17 3.128482 1_555
Na11 O46 2.321898 1_455
Na11 O60 2.448808 1_555
Na11 O61 2.549859 1_555
Na11 O25 2.579906 1_554
Na11 O47 2.638088 1_555
Na11 O10 2.687442 1_555
Na11 O20 2.999700 1_455
Na11 O15 3.162599 1_455
Na12 O38 2.395034 1_655
Na12 O59 2.402511 1_555
Na12 O37 2.533575 1_545
Na12 O23 2.569510 1_555
Na12 O57 2.738458 1_555
Na12 O2 2.770527 1_555
Na12 O28 2.949621 1_655
Na12 O30 3.085093 1_655
Na13 O38 2.451536 1_555
Na13 O58 2.466679 1_555
Na13 O0 2.519266 1_555
Na13 O36 2.521257 1_545
Na13 O57 2.533558 1_555
Na13 O21 2.690556 1_555
Na13 O29 3.019351 1_545
Na13 O31 3.202191 1_545
Na14 O36 2.329123 1_655
Na14 O1 2.446800 1_555
Na14 O58 2.520726 1_555
Na14 O59 2.582188 1_555
Na14 O37 2.656518 1_555
Na14 O22 2.734038 1_555
Na14 O32 3.039224 1_555
Na14 O27 3.219356 1_555
Na15 O36 2.396312 1_545
Na15 O38 2.405218 1_555
Na15 O43 2.455468 1_555
Na15 O44 2.598524 1_445
Na15 O42 2.629450 1_455
Na15 O37 2.698413 1_445
Na16 O41 2.219292 1_555
Na16 O39 2.423078 1_665
Na16 O46 2.557765 1_566
Na16 O40 2.612098 1_655
Na16 O45 2.713743 1_556
Na16 O47 2.800834 1_666
Na17 O49 2.359951 1_555
Na17 O50 2.399679 1_555
Na17 O48 2.465752 1_555
Na17 O54 2.766142 1_555
Na17 O55 2.821497 1_555
Na17 O56 2.848746 1_555
Na18 O58 2.378538 1_555
Na18 O59 2.468034 1_555
Na18 O53 2.484935 1_555
Na18 O51 2.486119 1_555
Na18 O57 2.645328 1_555
Na18 O52 2.761388 1_555
Na19 O62 2.300448 1_555
Na19 O67 2.545442 1_555
Na19 O66 2.569695 1_555
Na19 O61 2.695139 1_555
Na19 O60 2.742330 1_555
Na19 O68 2.766353 1_555
Na20 O65 2.477121 1_555
Na20 O63 2.493183 1_555
Na20 O64 2.562419 1_555
Na20 O71 2.689675 1_555
Na20 O69 2.728689 1_555
Na20 O70 2.756083 1_555
O0 Si0 1.609455 1_545
O0 Zn0 1.928676 1_545
O1 Si1 1.609141 1_555
O1 Zn0 1.991768 1_655
O2 S0 1.455761 1_655
O2 Zn0 2.388219 1_645
O3 Si2 1.594382 1_555
O3 Zn1 2.023911 1_445
O4 Si3 1.596169 1_655
O4 Zn1 1.935782 1_555
O5 Si4 1.594186 1_555
O5 Zn1 1.953051 1_545
O6 Si4 1.636071 1_565
O6 Zn2 1.964088 1_555
O7 Si2 1.636294 1_555
O7 Zn2 1.956676 1_445
O8 Si3 1.638288 1_555
O8 Zn2 1.967892 1_455
O9 Si1 1.636602 1_555
O9 Zn3 1.937165 1_555
O10 S0 1.479084 1_555
O10 Zn3 2.263209 1_445
O11 Si0 1.647468 1_555
O11 Zn3 2.012407 1_455
O12 S1 1.474303 1_555
O12 Zn4 2.248205 1_555
O13 S2 1.478059 1_555
O13 Zn4 2.150215 1_555
O14 S3 1.479244 1_555
O14 Zn4 2.234411 1_555
O15 S4 1.471181 1_555
O15 Zn5 2.270892 1_555
O16 Si5 1.612459 1_555
O16 Zn5 1.966039 1_555
O17 S5 1.480077 1_555
O17 Zn5 2.110807 1_555
O18 S5 1.519149 1_555
O18 Ta0 2.108697 1_554
O19 S4 1.521823 1_555
O19 Ta0 2.043485 1_554
O20 Si5 1.704060 1_555
O20 Ta0 1.922091 1_554
O21 S2 1.496049 1_555
O21 Zn6 2.157779 1_555
O22 S3 1.494575 1_555
O22 Zn6 2.070527 1_555
O23 S1 1.496379 1_555
O23 Zn6 2.177362 1_555
O24 Si6 1.610569 1_555
O24 Zn7 1.880721 1_556
O25 S6 1.475136 1_555
O25 Zn7 2.251988 1_556
O26 S7 1.493893 1_555
O26 Zn7 2.011324 1_556
O27 S8 1.471466 1_555
O27 Zn8 2.171545 1_555
O28 Si7 1.616200 1_555
O28 Zn8 1.896267 1_555
O29 Si8 1.614865 1_555
O29 Zn8 1.892883 1_555
O30 Si8 1.717875 1_555
O30 Ta1 1.918402 1_555
O31 S8 1.542335 1_555
O31 Ta1 2.018346 1_555
O32 Si7 1.713485 1_555
O32 Ta1 1.914739 1_555
O33 S6 1.488298 1_555
O33 Ta2 2.206360 1_555
O34 S7 1.475429 1_555
O34 Ta2 2.287654 1_555
O35 Si6 1.687568 1_555
O35 Ta2 1.915608 1_555
O36 Si8 1.619679 1_555
O36 Zn0 2.029053 1_555
O37 S8 1.464704 1_555
O37 Zn0 2.469300 1_655
O38 Si7 1.622120 1_555
O38 Zn0 2.145794 1_545
O39 S6 1.438601 1_555
O39 Zn1 2.655686 1_445
O40 S7 1.435379 1_555
O40 Zn1 2.519278 1_455
O41 Si6 1.588908 1_555
O41 Zn1 2.081851 1_555
O42 S1 1.480718 1_555
O43 S2 1.481415 1_555
O44 S3 1.479637 1_555
O45 S4 1.476262 1_555
O45 Zn3 2.485563 1_555
O46 Si5 1.646504 1_555
O46 Zn3 2.230749 1_545
O47 S5 1.474806 1_555
O47 Zn3 2.628008 1_445
O48 Si4 1.617425 1_555
O48 Zn4 2.012642 1_555
O49 Si2 1.625627 1_555
O49 Zn4 2.046430 1_555
O50 Si3 1.618952 1_655
O50 Zn4 2.002997 1_555
O51 Si1 1.642119 1_555
O51 Zn5 2.096209 1_555
O52 S0 1.473916 1_655
O52 Zn5 2.316613 1_555
O53 Si0 1.632396 1_545
O53 Zn5 2.004652 1_555
O54 Si6 1.722624 1_555
O54 Ta0 1.919105 1_555
O55 S6 1.569893 1_655
O55 Ta0 2.011947 1_555
O56 S7 1.562270 1_545
O56 Ta0 2.011525 1_555
O57 S8 1.470482 1_545
O57 Zn6 2.402053 1_555
O58 Si7 1.636685 1_555
O58 Zn6 2.053762 1_555
O59 Si8 1.636352 1_655
O59 Zn6 2.055452 1_555
O60 S5 1.479084 1_555
O60 Zn7 2.412124 1_555
O61 S4 1.480510 1_455
O61 Zn7 2.544594 1_555
O62 Si5 1.653207 1_565
O62 Zn7 2.043641 1_555
O63 S2 1.506438 1_565
O63 Zn8 2.526248 1_555
O64 S3 1.508660 1_555
O64 Zn8 2.391209 1_555
O65 S1 1.513333 1_455
O65 Zn8 2.290735 1_555
O66 Si0 1.704146 1_555
O66 Ta1 2.020521 1_555
O67 Si1 1.692729 1_555
O67 Ta1 1.994729 1_555
O68 S0 1.540880 1_555
O68 Ta1 2.087797 1_555
O69 Si2 1.729839 1_555
O69 Ta2 1.879559 1_555
O70 Si3 1.690876 1_555
O70 Ta2 1.955872 1_555
O71 Si4 1.716369 1_565
O71 Ta2 1.884238 1_555
