# generated using pymatgen
data_Na8Mg3TiSi3(SO8)3
_symmetry_space_group_name_H-M   'P 1'
_cell_length_a   9.06237946
_cell_length_b   9.07284980
_cell_length_c   22.14023764
_cell_angle_alpha   89.84264858
_cell_angle_beta   89.58650170
_cell_angle_gamma   119.82567130
_symmetry_Int_Tables_number   1
_chemical_formula_structural   Na8Mg3TiSi3(SO8)3
_chemical_formula_sum   'Na24 Mg9 Ti3 Si9 S9 O72'
_cell_volume   1579.19663091
_cell_formula_units_Z   3
loop_
 _symmetry_equiv_pos_site_id
 _symmetry_equiv_pos_as_xyz
  1  'x, y, z'
loop_
 _atom_site_type_symbol
 _atom_site_label
 _atom_site_symmetry_multiplicity
 _atom_site_fract_x
 _atom_site_fract_y
 _atom_site_fract_z
 _atom_site_occupancy
  Na  Na0  1  0.63047179  0.99590557  0.25946385  1
  Na  Na1  1  0.36978671  0.36775267  0.24468264  1
  Na  Na2  1  0.00074336  0.62610600  0.25279806  1
  Na  Na3  1  0.64091430  0.64653796  0.73560917  1
  Na  Na4  1  0.98612208  0.34725605  0.75143673  1
  Na  Na5  1  0.38271276  0.01183871  0.73983525  1
  Na  Na6  1  0.31299957  0.33377695  0.58387050  1
  Na  Na7  1  0.04191837  0.71499404  0.57321491  1
  Na  Na8  1  0.65249714  0.94775672  0.58237525  1
  Na  Na9  1  0.28485502  0.95747747  0.07543109  1
  Na  Na10  1  0.66357664  0.68640260  0.08480607  1
  Na  Na11  1  0.05164206  0.34943610  0.07854592  1
  Na  Na12  1  0.98662123  0.67405315  0.92039293  1
  Na  Na13  1  0.71010079  0.04495575  0.90845587  1
  Na  Na14  1  0.31363198  0.28886833  0.92080122  1
  Na  Na15  1  0.96263354  0.30432343  0.41654903  1
  Na  Na16  1  0.32918850  0.00634822  0.42387548  1
  Na  Na17  1  0.71019142  0.68783885  0.42673277  1
  Na  Na18  1  0.99033402  0.98101535  0.50026939  1
  Na  Na19  1  0.01757122  0.01079149  0.99952588  1
  Na  Na20  1  0.66799671  0.31640302  0.83227757  1
  Na  Na21  1  0.67823181  0.33262203  0.34088393  1
  Na  Na22  1  0.32084692  0.65420665  0.15946800  1
  Na  Na23  1  0.35296966  0.68288864  0.65778554  1
  Mg  Mg0  1  0.99576376  0.99316072  0.35534182  1
  Mg  Mg1  1  0.00044978  0.01033138  0.85182388  1
  Mg  Mg2  1  0.98285725  0.98445144  0.64332698  1
  Mg  Mg3  1  0.00786700  0.99931623  0.14290469  1
  Mg  Mg4  1  0.65896791  0.32201838  0.67991312  1
  Mg  Mg5  1  0.66670732  0.33966363  0.17826297  1
  Mg  Mg6  1  0.31649611  0.65762214  0.01795113  1
  Mg  Mg7  1  0.34436124  0.68647656  0.51676307  1
  Mg  Mg8  1  0.33139724  0.67989805  0.32920695  1
  Ti  Ti0  1  0.66770890  0.33902870  0.98329024  1
  Ti  Ti1  1  0.66210678  0.33345938  0.48404559  1
  Ti  Ti2  1  0.33269569  0.68542706  0.81848169  1
  Si  Si0  1  0.70472370  -0.00013306  0.75149683  1
  Si  Si1  1  0.36685153  0.03622194  0.58635208  1
  Si  Si2  1  0.66155840  0.62332621  0.58609838  1
  Si  Si3  1  0.96191352  0.62809231  0.08666924  1
  Si  Si4  1  0.37282011  0.33783207  0.08571544  1
  Si  Si5  1  0.03869429  0.37226692  0.91828613  1
  Si  Si6  1  0.33372856  0.96759670  0.92080249  1
  Si  Si7  1  0.63471311  0.96950959  0.41587335  1
  Si  Si8  1  0.03305314  0.66154339  0.41630031  1
  S  S0  1  0.29509839  0.00036233  0.24892306  1
  S  S1  1  0.70453525  0.70544527  0.24969832  1
  S  S2  1  0.00058857  0.28982491  0.24857737  1
  S  S3  1  0.29499181  0.29775180  0.75127210  1
  S  S4  1  0.00287698  0.70749207  0.75200974  1
  S  S5  1  0.95914849  0.33408003  0.58392030  1
  S  S6  1  0.66824101  0.04368032  0.08436010  1
  S  S7  1  0.62296637  0.66522261  0.91691449  1
  S  S8  1  0.33413095  0.37326784  0.41480821  1
  O  O0  1  0.21399512  0.02547180  0.30305361  1
  O  O1  1  0.80902618  0.79093186  0.30319258  1
  O  O2  1  0.98565148  0.18895318  0.30314292  1
  O  O3  1  0.21368307  0.19148593  0.80573595  1
  O  O4  1  0.98169645  0.78719605  0.80675395  1
  O  O5  1  0.81294949  0.02045246  0.81176064  1
  O  O6  1  0.78279733  0.95821983  0.69203066  1
  O  O7  1  0.19122276  0.21859072  0.69693340  1
  O  O8  1  0.03193851  0.81320139  0.69747473  1
  O  O9  1  0.78502596  0.80950099  0.19453968  1
  O  O10  1  0.01600752  0.20451106  0.19367519  1
  O  O11  1  0.19204465  0.98184070  0.19456738  1
  O  O12  1  0.88329035  0.36218070  0.63928106  1
  O  O13  1  0.48311763  0.11710003  0.64508708  1
  O  O14  1  0.64438499  0.51503477  0.64659270  1
  O  O15  1  0.87963791  0.50958773  0.14560446  1
  O  O16  1  0.63868144  0.11947616  0.13926820  1
  O  O17  1  0.48090037  0.35913589  0.14597577  1
  O  O18  1  0.47898764  0.30982606  0.02606518  1
  O  O19  1  0.83206747  0.51801779  0.02687145  1
  O  O20  1  0.69358703  0.15291139  0.02957361  1
  O  O21  1  0.47654225  0.16483735  0.52670405  1
  O  O22  1  0.68451126  0.51756834  0.52671348  1
  O  O23  1  0.84947142  0.30910669  0.52992753  1
  O  O24  1  0.54822423  0.69364096  0.97175795  1
  O  O25  1  0.15640872  0.45327590  0.97601748  1
  O  O26  1  0.31102263  0.85089164  0.97798905  1
  O  O27  1  0.55133310  0.84173636  0.47256659  1
  O  O28  1  0.30482209  0.44870728  0.46919127  1
  O  O29  1  0.15198386  0.68692161  0.47375566  1
  O  O30  1  0.10142314  0.61527360  0.35409058  1
  O  O31  1  0.52005255  0.89616054  0.35451316  1
  O  O32  1  0.36218023  0.47941646  0.35969369  1
  O  O33  1  0.14096877  0.50346059  0.85842660  1
  O  O34  1  0.36362342  0.86754451  0.86010799  1
  O  O35  1  0.51481298  0.64061513  0.86292538  1
  O  O36  1  0.01720518  0.83360295  0.41030974  1
  O  O37  1  0.82991722  0.00620233  0.40914936  1
  O  O38  1  0.18678932  0.20092863  0.40744975  1
  O  O39  1  0.01004109  0.18175720  0.91173921  1
  O  O40  1  0.16443279  0.98122104  0.90944738  1
  O  O41  1  0.79772677  0.80957748  0.90970638  1
  O  O42  1  0.97215822  0.17825338  0.58817458  1
  O  O43  1  0.18529822  0.03477395  0.58690547  1
  O  O44  1  0.83365277  0.80981076  0.58243575  1
  O  O45  1  0.96230938  0.80876511  0.08506341  1
  O  O46  1  0.82436239  0.03169520  0.08880802  1
  O  O47  1  0.18488845  0.16727395  0.08460103  1
  O  O48  1  0.68204177  0.16939846  0.74803704  1
  O  O49  1  0.46870555  0.32062460  0.74806383  1
  O  O50  1  0.85457891  0.53412298  0.74741481  1
  O  O51  1  0.68954258  0.53320552  0.24734573  1
  O  O52  1  0.84265954  0.30506351  0.24703068  1
  O  O53  1  0.47084933  0.15213838  0.24454151  1
  O  O54  1  0.63341341  0.50463172  0.92025120  1
  O  O55  1  0.84940020  0.36315063  0.92191822  1
  O  O56  1  0.50998881  0.15575177  0.92176273  1
  O  O57  1  0.64721161  0.15947423  0.42525964  1
  O  O58  1  0.49196962  0.35854626  0.41968646  1
  O  O59  1  0.83665506  0.49255815  0.42505504  1
  O  O60  1  0.36720809  0.51320926  0.07783662  1
  O  O61  1  0.15253203  0.65628205  0.08050817  1
  O  O62  1  0.51922078  0.87244859  0.07758569  1
  O  O63  1  0.34160388  0.84654698  0.57978997  1
  O  O64  1  0.48659978  0.63092808  0.57835071  1
  O  O65  1  0.13008998  0.48307827  0.57623185  1
  O  O66  1  0.30989324  0.84339765  0.25218194  1
  O  O67  1  0.52939498  0.68281210  0.25437079  1
  O  O68  1  0.15584117  0.46221939  0.25024536  1
  O  O69  1  0.30975829  0.47018377  0.75690602  1
  O  O70  1  0.16233342  0.69073403  0.75607249  1
  O  O71  1  0.50508142  0.81905553  0.75972565  1
loop_
_geom_bond_atom_site_label_1
_geom_bond_atom_site_label_2
_geom_bond_distance
_geom_bond_site_symmetry_2
Na0 O31 2.303738 1_555
Na0 O53 2.500980 1_565
Na0 O52 2.502798 1_565
Na0 O67 2.517143 1_555
Na0 O66 2.527863 1_555
Na0 O16 2.870896 1_565
Na0 O2 2.968123 1_565
Na0 O9 3.037891 1_555
Na1 O17 2.417333 1_555
Na1 O68 2.481743 1_555
Na1 O67 2.490817 1_555
Na1 O51 2.515912 1_555
Na1 O53 2.539267 1_555
Na1 O32 2.756131 1_555
Na1 O0 2.982898 1_555
Na1 O10 3.014290 1_555
Na2 O30 2.447261 1_555
Na2 O66 2.498221 1_555
Na2 O68 2.503586 1_555
Na2 O51 2.513876 1_455
Na2 O52 2.531153 1_455
Na2 O15 2.617607 1_455
Na2 O1 3.010900 1_455
Na2 O11 3.076298 1_555
Na3 O14 2.314753 1_555
Na3 O71 2.482338 1_555
Na3 O49 2.579565 1_555
Na3 O50 2.613077 1_555
Na3 O6 2.632705 1_555
Na3 O69 2.643438 1_555
Na3 O35 3.024254 1_555
Na3 O4 3.131801 1_555
Na4 O48 2.404947 1_555
Na4 O50 2.512885 1_555
Na4 O69 2.571494 1_655
Na4 O12 2.685125 1_555
Na4 O70 2.706661 1_655
Na4 O33 2.770737 1_655
Na4 O5 2.890928 1_555
Na4 O7 2.899544 1_655
Na5 O13 2.288577 1_555
Na5 O48 2.363494 1_555
Na5 O49 2.514436 1_555
Na5 O71 2.532840 1_545
Na5 O70 2.607985 1_545
Na5 O34 2.929779 1_545
Na5 O8 2.930226 1_545
Na5 O3 3.097783 1_555
Na6 O64 2.352614 1_555
Na6 O43 2.361801 1_555
Na6 O65 2.616762 1_555
Na6 O42 2.683383 1_455
Na6 O7 2.715658 1_555
Na6 O28 2.757626 1_555
Na6 O21 2.896752 1_555
Na6 O14 2.968469 1_555
Na7 O63 2.367257 1_555
Na7 O44 2.440165 1_455
Na7 O29 2.476470 1_555
Na7 O43 2.541336 1_565
Na7 O65 2.596682 1_555
Na7 O8 2.908765 1_555
Na7 O22 3.007736 1_455
Na7 O12 3.133564 1_455
Na8 O63 2.492695 1_555
Na8 O64 2.497135 1_555
Na8 O44 2.511070 1_555
Na8 O42 2.600476 1_565
Na8 O27 2.616152 1_555
Na8 O6 2.688626 1_555
Na8 O13 2.995243 1_565
Na8 O23 3.067734 1_565
Na9 O61 2.378020 1_555
Na9 O26 2.424442 1_554
Na9 O47 2.489948 1_565
Na9 O45 2.544876 1_455
Na9 O62 2.596062 1_555
Na9 O11 2.805332 1_555
Na9 O18 2.977898 1_565
Na9 O16 3.135025 1_565
Na10 O60 2.348560 1_555
Na10 O45 2.360556 1_555
Na10 O62 2.604668 1_555
Na10 O9 2.681806 1_555
Na10 O46 2.721770 1_565
Na10 O24 2.732550 1_554
Na10 O17 2.906395 1_555
Na10 O19 2.934906 1_555
Na11 O25 2.451391 1_554
Na11 O61 2.461216 1_555
Na11 O60 2.481687 1_555
Na11 O47 2.488760 1_555
Na11 O46 2.586085 1_455
Na11 O10 2.806756 1_555
Na11 O15 2.996131 1_455
Na11 O20 3.031506 1_455
Na12 O40 2.438366 1_655
Na12 O55 2.452328 1_555
Na12 O41 2.568317 1_555
Na12 O4 2.723782 1_555
Na12 O19 2.735901 1_556
Na12 O54 2.777495 1_555
Na12 O26 2.866438 1_655
Na12 O33 2.893408 1_655
Na13 O39 2.362557 1_655
Na13 O5 2.383556 1_555
Na13 O56 2.488640 1_555
Na13 O55 2.530178 1_555
Na13 O41 2.622753 1_545
Na13 O20 2.885661 1_556
Na13 O34 2.937058 1_545
Na13 O24 3.093629 1_545
Na14 O39 2.429717 1_555
Na14 O40 2.436597 1_545
Na14 O54 2.566481 1_555
Na14 O56 2.600729 1_555
Na14 O3 2.709390 1_555
Na14 O18 2.735446 1_556
Na14 O25 2.801536 1_555
Na14 O35 3.050694 1_555
Na14 Na19 3.126783 1_555
Na15 O37 2.357683 1_555
Na15 O57 2.487779 1_555
Na15 O59 2.488710 1_555
Na15 O38 2.633972 1_655
Na15 O23 2.713397 1_555
Na15 O2 2.769034 1_555
Na15 O30 2.806635 1_655
Na15 O28 2.951374 1_655
Na16 O36 2.479374 1_545
Na16 O57 2.501177 1_555
Na16 O38 2.680233 1_555
Na16 O21 2.680642 1_555
Na16 O29 2.743148 1_545
Na16 O58 2.775429 1_555
Na16 O31 2.835448 1_545
Na16 O0 2.914373 1_555
Na16 O27 3.234003 1_545
Na17 O36 2.438212 1_655
Na17 O59 2.544311 1_555
Na17 O37 2.557788 1_565
Na17 O22 2.637585 1_555
Na17 O58 2.644048 1_555
Na17 O27 2.652955 1_555
Na17 O1 2.876755 1_555
Na17 Na18 3.088282 1_555
Na17 O32 3.142611 1_555
Na18 O44 2.343419 1_555
Na18 O36 2.479246 1_655
Na18 O43 2.497144 1_665
Na18 O37 2.570189 1_565
Na18 O42 2.706482 1_565
Na18 O38 2.786582 1_665
Na18 Na7 3.124742 1_655
Na19 O47 2.403585 1_556
Na19 O40 2.478023 1_545
Na19 O45 2.500245 1_446
Na19 O39 2.505795 1_555
Na19 O46 2.700298 1_456
Na19 O41 2.777747 1_445
Na20 O48 2.335126 1_555
Na20 O56 2.442791 1_555
Na20 O55 2.485858 1_555
Na20 O49 2.618534 1_555
Na20 O50 2.627271 1_555
Na20 O54 2.711148 1_555
Na21 O57 2.360867 1_555
Na21 O59 2.370840 1_555
Na21 O58 2.510632 1_555
Na21 O52 2.632397 1_555
Na21 O51 2.720654 1_555
Na21 O53 2.789112 1_555
Na22 O61 2.334532 1_555
Na22 O60 2.369776 1_555
Na22 O68 2.579928 1_555
Na22 O62 2.613716 1_555
Na22 O66 2.712148 1_555
Na22 O67 2.761621 1_555
Na23 O64 2.307279 1_555
Na23 O63 2.310406 1_555
Na23 O71 2.624242 1_555
Na23 O65 2.656060 1_555
Na23 O70 2.791780 1_555
Na23 O69 2.811811 1_555
Na23 Na8 3.058516 1_555
Mg0 O37 1.960601 1_565
Mg0 O36 1.971819 1_655
Mg0 O1 2.124761 1_555
Mg0 O2 2.156803 1_565
Mg0 O38 2.162393 1_665
Mg0 O0 2.173892 1_665
Mg1 O5 1.964437 1_455
Mg1 O39 2.016136 1_555
Mg1 O3 2.068762 1_555
Mg1 O40 2.078888 1_545
Mg1 O4 2.189611 1_445
Mg1 O41 2.227022 1_445
Mg2 O6 2.011863 1_555
Mg2 O44 2.015760 1_555
Mg2 O43 2.065249 1_665
Mg2 O8 2.175785 1_655
Mg2 O42 2.179840 1_565
Mg2 O7 2.354358 1_665
Mg3 O47 2.022275 1_565
Mg3 O45 2.027097 1_455
Mg3 O11 2.099793 1_555
Mg3 O10 2.147320 1_565
Mg3 O46 2.190690 1_465
Mg3 O9 2.201679 1_455
Mg4 O13 1.915501 1_555
Mg4 O14 1.962894 1_555
Mg4 O12 2.075976 1_555
Mg4 O48 2.125352 1_555
Mg4 O49 2.278263 1_555
Mg4 O50 2.395820 1_555
Mg5 O15 1.907280 1_555
Mg5 O17 1.920983 1_555
Mg5 O16 2.075748 1_555
Mg5 O51 2.263521 1_555
Mg5 O53 2.267867 1_555
Mg5 O52 2.342983 1_555
Mg6 O25 1.938396 1_554
Mg6 O26 1.984613 1_554
Mg6 O61 2.019553 1_555
Mg6 O60 2.069808 1_555
Mg6 O24 2.201662 1_554
Mg6 O62 2.324783 1_555
Mg7 O27 1.948747 1_555
Mg7 O29 1.994258 1_555
Mg7 O63 2.025768 1_555
Mg7 O64 2.107770 1_555
Mg7 O28 2.267258 1_555
Mg7 O65 2.301073 1_555
Mg8 O30 1.938286 1_555
Mg8 O31 1.941591 1_555
Mg8 O32 2.083912 1_555
Mg8 O66 2.329197 1_555
Mg8 O67 2.423895 1_555
Mg8 O68 2.534074 1_555
O0 S0 1.477757 1_555
O1 S1 1.480425 1_555
O2 S2 1.477745 1_655
O3 S3 1.483467 1_555
O4 S4 1.472539 1_655
O5 Si0 1.617126 1_555
O6 Si0 1.622352 1_565
O7 S3 1.482157 1_555
O8 S4 1.478126 1_555
O9 S1 1.486793 1_555
O10 S2 1.485437 1_555
O11 S0 1.486586 1_565
O12 S5 1.484532 1_555
O13 Si1 1.611093 1_555
O14 Si2 1.618979 1_555
O15 Si3 1.611013 1_555
O16 S6 1.485153 1_555
O17 Si4 1.615147 1_555
O18 Si4 1.720789 1_555
O18 Ti0 1.848404 1_554
O19 Si3 1.730787 1_555
O19 Ti0 1.846631 1_554
O20 S6 1.506383 1_555
O20 Ti0 2.084314 1_554
O21 Si1 1.706634 1_555
O21 Ti1 1.862928 1_555
O22 Si2 1.701224 1_555
O22 Ti1 1.843346 1_555
O23 S5 1.504286 1_555
O23 Ti1 2.088227 1_555
O24 S7 1.470795 1_555
O25 Si5 1.599025 1_555
O26 Si6 1.593335 1_555
O27 Si7 1.611635 1_555
O28 S8 1.472927 1_555
O29 Si8 1.614737 1_555
O30 Si8 1.645230 1_555
O31 Si7 1.644895 1_555
O32 S8 1.492206 1_555
O33 Si5 1.705430 1_555
O33 Ti2 1.908692 1_555
O34 Si6 1.717345 1_555
O34 Ti2 1.791517 1_555
O35 S7 1.496669 1_555
O35 Ti2 2.132166 1_555
O36 Si8 1.642351 1_555
O37 Si7 1.634783 1_545
O38 S8 1.477182 1_555
O39 Si5 1.622188 1_555
O40 Si6 1.620607 1_555
O41 S7 1.476806 1_555
O42 S5 1.478788 1_555
O43 Si1 1.638767 1_555
O44 Si2 1.635288 1_555
O45 Si3 1.637724 1_555
O46 S6 1.475892 1_555
O47 Si4 1.635551 1_555
O48 Si0 1.651682 1_555
O49 S3 1.483152 1_555
O50 S4 1.480116 1_655
O51 S1 1.500855 1_555
O52 S2 1.505381 1_655
O53 S0 1.502590 1_555
O54 S7 1.507994 1_555
O54 Ti0 2.182041 1_555
O55 Si5 1.677178 1_655
O55 Ti0 2.052553 1_555
O56 Si6 1.659636 1_545
O56 Ti0 2.083274 1_555
O57 Si7 1.683645 1_545
O57 Ti1 2.001467 1_555
O58 S8 1.505898 1_555
O58 Ti1 2.199667 1_555
O59 Si8 1.683744 1_655
O59 Ti1 1.995029 1_555
O60 Si4 1.626020 1_555
O61 Si3 1.620201 1_455
O62 S6 1.475485 1_565
O63 Si1 1.626380 1_565
O64 Si2 1.631184 1_555
O65 S5 1.472434 1_455
O66 S0 1.496930 1_565
O67 S1 1.498446 1_555
O68 S2 1.496453 1_555
O69 S3 1.507989 1_555
O69 Ti2 2.308769 1_555
O70 S4 1.529622 1_555
O70 Ti2 2.097504 1_555
O71 Si0 1.743253 1_565
O71 Ti2 1.918509 1_555
