# generated using pymatgen
data_Na4Ca3SnP2(SO6)4
_symmetry_space_group_name_H-M   'P 1'
_cell_length_a   9.17989996
_cell_length_b   9.19793801
_cell_length_c   23.50840942
_cell_angle_alpha   90.34953454
_cell_angle_beta   89.95162428
_cell_angle_gamma   119.96252809
_symmetry_Int_Tables_number   1
_chemical_formula_structural   Na4Ca3SnP2(SO6)4
_chemical_formula_sum   'Na12 Ca9 Sn3 P6 S12 O72'
_cell_volume   1719.63660579
_cell_formula_units_Z   3
loop_
 _symmetry_equiv_pos_site_id
 _symmetry_equiv_pos_as_xyz
  1  'x, y, z'
loop_
 _atom_site_type_symbol
 _atom_site_label
 _atom_site_symmetry_multiplicity
 _atom_site_fract_x
 _atom_site_fract_y
 _atom_site_fract_z
 _atom_site_occupancy
  Na  Na0  1  0.63621613  0.99932727  0.25692529  1
  Na  Na1  1  0.36123240  0.36204915  0.25169725  1
  Na  Na2  1  0.31091073  0.34397900  0.59432946  1
  Na  Na3  1  0.66541737  0.95049379  0.58088083  1
  Na  Na4  1  0.98202888  0.67874033  0.91153875  1
  Na  Na5  1  0.32122351  0.29634454  0.90675614  1
  Na  Na6  1  0.97601461  0.97133724  0.49639573  1
  Na  Na7  1  0.98355236  0.00170266  0.99398814  1
  Na  Na8  1  0.65331822  0.31916869  0.82461316  1
  Na  Na9  1  0.68063806  0.33719312  0.34159890  1
  Na  Na10  1  0.31652277  0.66612199  0.16034236  1
  Na  Na11  1  0.32809868  0.65642285  0.67724060  1
  Ca  Ca0  1  0.99399759  0.99600145  0.35461811  1
  Ca  Ca1  1  0.99458833  0.00357792  0.84736416  1
  Ca  Ca2  1  0.00178728  0.99341095  0.65655829  1
  Ca  Ca3  1  0.99946342  0.99435357  0.14442812  1
  Ca  Ca4  1  0.66598118  0.34444090  0.68888359  1
  Ca  Ca5  1  0.67543534  0.34086854  0.18264746  1
  Ca  Ca6  1  0.33992729  0.67036022  0.01666715  1
  Ca  Ca7  1  0.33469224  0.66996264  0.51200447  1
  Ca  Ca8  1  0.33486264  0.67837507  0.32650301  1
  Sn  Sn0  1  0.66565671  0.32684170  0.97956233  1
  Sn  Sn1  1  0.66927972  0.33787109  0.48392642  1
  Sn  Sn2  1  0.33698929  0.66339590  0.82173123  1
  P  P0  1  0.30524196  0.31816744  0.75404739  1
  P  P1  1  0.66782508  0.62698622  0.57977704  1
  P  P2  1  0.62943437  0.65681544  0.91933280  1
  P  P3  1  0.03499670  0.37636334  0.91890724  1
  P  P4  1  0.33983769  0.96363270  0.91714199  1
  P  P5  1  0.64363730  0.98976455  0.42072429  1
  S  S0  1  0.30116885  0.00061938  0.24926044  1
  S  S1  1  0.69442655  0.70016081  0.25008114  1
  S  S2  1  0.00397943  0.29823778  0.25007348  1
  S  S3  1  0.01616950  0.69569484  0.75595422  1
  S  S4  1  0.68033231  0.98705412  0.75071817  1
  S  S5  1  0.95738976  0.32902781  0.58206133  1
  S  S6  1  0.37783897  0.04720181  0.58152737  1
  S  S7  1  0.95838279  0.62629045  0.07851201  1
  S  S8  1  0.66964907  0.04267254  0.08220641  1
  S  S9  1  0.37306634  0.33069127  0.08146643  1
  S  S10  1  0.34410603  0.36052340  0.41811493  1
  S  S11  1  0.01617963  0.65528633  0.41970507  1
  O  O0  1  0.21909564  0.01957596  0.30033714  1
  O  O1  1  0.79266905  0.77989606  0.30172528  1
  O  O2  1  0.98272445  0.19430296  0.30045255  1
  O  O3  1  0.21381505  0.21731653  0.80685924  1
  O  O4  1  0.99618824  0.77375381  0.80797650  1
  O  O5  1  0.78521607  0.00194339  0.79970471  1
  O  O6  1  0.75020184  0.96217591  0.69653878  1
  O  O7  1  0.20771329  0.24167746  0.69734690  1
  O  O8  1  0.03574975  0.79645814  0.70467820  1
  O  O9  1  0.77602532  0.79873634  0.19875598  1
  O  O10  1  0.02449316  0.21757619  0.19833649  1
  O  O11  1  0.20516728  0.98462315  0.19728286  1
  O  O12  1  0.87688369  0.34737151  0.63223945  1
  O  O13  1  0.48274778  0.12617592  0.63125802  1
  O  O14  1  0.64356822  0.51545663  0.62989870  1
  O  O15  1  0.87208986  0.52960011  0.12923043  1
  O  O16  1  0.65949920  0.12219837  0.13563061  1
  O  O17  1  0.46610946  0.34082155  0.13396454  1
  O  O18  1  0.46485700  0.31710319  0.02899721  1
  O  O19  1  0.85727745  0.53828043  0.02475727  1
  O  O20  1  0.68427169  0.15070432  0.03116004  1
  O  O21  1  0.45930399  0.15332565  0.52861056  1
  O  O22  1  0.68985886  0.54254553  0.52295071  1
  O  O23  1  0.85185699  0.30511192  0.52875365  1
  O  O24  1  0.55446850  0.68267683  0.97245503  1
  O  O25  1  0.14037766  0.45571611  0.97126586  1
  O  O26  1  0.31076447  0.85886255  0.96936497  1
  O  O27  1  0.55254604  0.88772659  0.47342236  1
  O  O28  1  0.32573196  0.44370723  0.46897082  1
  O  O29  1  0.11384896  0.66822944  0.47061505  1
  O  O30  1  0.08995859  0.63037207  0.36742657  1
  O  O31  1  0.54440476  0.91672161  0.36437439  1
  O  O32  1  0.36425392  0.45848878  0.36560945  1
  O  O33  1  0.11503668  0.49707131  0.86562405  1
  O  O34  1  0.37066625  0.88113886  0.86258767  1
  O  O35  1  0.51061664  0.61939269  0.86548471  1
  O  O36  1  0.99448941  0.80318504  0.41673216  1
  O  O37  1  0.82204896  0.01557593  0.41838654  1
  O  O38  1  0.20095015  0.18880142  0.41464002  1
  O  O39  1  0.01250594  0.20186731  0.91024807  1
  O  O40  1  0.18894222  0.99144167  0.90859228  1
  O  O41  1  0.81054737  0.79683849  0.91047007  1
  O  O42  1  0.96946376  0.17220876  0.58377407  1
  O  O43  1  0.21250313  0.03989640  0.58468207  1
  O  O44  1  0.82075725  0.80709162  0.58247803  1
  O  O45  1  0.97053534  0.79245945  0.07820344  1
  O  O46  1  0.82270592  0.02811707  0.08029573  1
  O  O47  1  0.20609213  0.17744674  0.07995467  1
  O  O48  1  0.65853617  0.13471434  0.74820965  1
  O  O49  1  0.48415831  0.34480126  0.75246480  1
  O  O50  1  0.87312225  0.52346185  0.75106777  1
  O  O51  1  0.66520231  0.52541213  0.24705867  1
  O  O52  1  0.84846799  0.31173455  0.24703301  1
  O  O53  1  0.47268801  0.15802715  0.24700276  1
  O  O54  1  0.63251060  0.48249960  0.92290932  1
  O  O55  1  0.85628686  0.36751961  0.92312198  1
  O  O56  1  0.50227355  0.14716457  0.92202124  1
  O  O57  1  0.65594713  0.17018920  0.42483647  1
  O  O58  1  0.50509384  0.35154245  0.42180114  1
  O  O59  1  0.84302203  0.49853181  0.42281007  1
  O  O60  1  0.35956724  0.48347033  0.07918791  1
  O  O61  1  0.12559124  0.64115715  0.07703093  1
  O  O62  1  0.51631749  0.87740671  0.07875773  1
  O  O63  1  0.35970829  0.87923966  0.57466417  1
  O  O64  1  0.50407153  0.63867041  0.57474504  1
  O  O65  1  0.12918974  0.47527056  0.57590000  1
  O  O66  1  0.32919818  0.85400008  0.25218714  1
  O  O67  1  0.52352660  0.68715939  0.25357445  1
  O  O68  1  0.15847551  0.46707327  0.25492852  1
  O  O69  1  0.31673744  0.49829894  0.75862413  1
  O  O70  1  0.17782036  0.68849904  0.75930915  1
  O  O71  1  0.50879092  0.82956012  0.75683740  1
loop_
_geom_bond_atom_site_label_1
_geom_bond_atom_site_label_2
_geom_bond_distance
_geom_bond_site_symmetry_2
Na0 O66 2.445026 1_555
Na0 O67 2.520151 1_555
Na0 O52 2.553901 1_565
Na0 O53 2.575311 1_565
Na0 O31 2.654859 1_555
Na0 O2 2.943883 1_565
Na0 O16 3.041495 1_565
Na0 O9 3.041845 1_555
Na0 O1 3.188959 1_555
Na1 O51 2.422698 1_555
Na1 O68 2.489613 1_555
Na1 O53 2.548669 1_555
Na1 O67 2.590780 1_555
Na1 O32 2.811638 1_555
Na1 O10 2.962807 1_555
Na1 O17 2.966802 1_555
Na1 O0 2.978032 1_555
Na2 O64 2.432333 1_555
Na2 O43 2.481763 1_555
Na2 O65 2.539427 1_555
Na2 O7 2.604111 1_555
Na2 O42 2.726253 1_455
Na2 O14 2.772995 1_555
Na2 O28 3.074457 1_555
Na2 O21 3.109219 1_555
Na3 O44 2.377844 1_555
Na3 O64 2.488531 1_555
Na3 O42 2.503373 1_565
Na3 O63 2.547350 1_555
Na3 O27 2.679102 1_555
Na3 O6 2.815385 1_555
Na3 O13 3.083116 1_565
Na3 O23 3.088529 1_565
Na4 O41 2.316695 1_555
Na4 O55 2.511854 1_555
Na4 O40 2.535835 1_655
Na4 O4 2.572898 1_555
Na4 O33 2.731629 1_655
Na4 O54 2.800680 1_555
Na4 O19 2.936597 1_556
Na4 O26 2.947051 1_655
Na5 O40 2.437466 1_545
Na5 O3 2.506553 1_555
Na5 O39 2.516737 1_555
Na5 O54 2.519589 1_555
Na5 O56 2.656851 1_555
Na5 O35 2.768627 1_555
Na5 O25 3.099067 1_555
Na5 O18 3.127515 1_556
Na6 O37 2.472705 1_565
Na6 O36 2.480782 1_555
Na6 O44 2.508090 1_555
Na6 O42 2.775096 1_565
Na6 O38 2.805918 1_665
Na6 O43 2.835915 1_665
Na7 O46 2.589046 1_556
Na7 O39 2.624922 1_655
Na7 O41 2.626539 1_545
Na7 O45 2.730245 1_546
Na7 O47 2.745754 1_656
Na7 O40 2.786224 1_645
Na8 O49 2.391392 1_555
Na8 O48 2.480052 1_555
Na8 O50 2.614968 1_555
Na8 O56 2.741698 1_555
Na8 O54 2.806542 1_555
Na8 O55 2.863443 1_555
Na9 O59 2.414488 1_555
Na9 O57 2.434769 1_555
Na9 O58 2.524559 1_555
Na9 O52 2.778281 1_555
Na9 O53 2.850497 1_555
Na9 O51 2.872142 1_555
Na10 O61 2.561033 1_555
Na10 O60 2.690923 1_555
Na10 O62 2.701538 1_555
Na10 O66 2.723180 1_555
Na10 O68 2.791445 1_555
Na10 O67 2.843725 1_555
Na11 O69 2.380886 1_555
Na11 O70 2.471334 1_555
Na11 O71 2.473697 1_555
Na11 O64 2.948568 1_555
Na11 O65 2.950588 1_555
Na11 O63 3.092645 1_555
Ca0 O37 2.246743 1_565
Ca0 O2 2.275098 1_565
Ca0 O1 2.284104 1_555
Ca0 O36 2.305898 1_555
Ca0 O38 2.313832 1_665
Ca0 O0 2.344488 1_665
Ca1 O3 2.211197 1_655
Ca1 O5 2.219061 1_555
Ca1 O39 2.281827 1_655
Ca1 O4 2.309393 1_545
Ca1 O40 2.339377 1_645
Ca1 O41 2.343569 1_545
Ca2 O8 2.290932 1_555
Ca2 O7 2.317760 1_565
Ca2 O6 2.374172 1_455
Ca2 O44 2.419758 1_455
Ca2 O43 2.440648 1_565
Ca2 O42 2.498589 1_465
Ca3 O11 2.300404 1_655
Ca3 O10 2.317745 1_665
Ca3 O9 2.326572 1_555
Ca3 O45 2.327142 1_555
Ca3 O46 2.348515 1_565
Ca3 O47 2.359414 1_665
Ca4 O14 2.188556 1_555
Ca4 O49 2.240830 1_555
Ca4 O13 2.300548 1_555
Ca4 O50 2.304772 1_555
Ca4 O12 2.337995 1_555
Ca4 O48 2.360501 1_555
Ca5 O15 2.177584 1_555
Ca5 O16 2.228834 1_555
Ca5 O17 2.237224 1_555
Ca5 O51 2.304463 1_555
Ca5 O52 2.306527 1_555
Ca5 O53 2.341147 1_555
Ca6 O24 2.178764 1_554
Ca6 O25 2.181219 1_554
Ca6 O26 2.191359 1_554
Ca6 O62 2.295464 1_555
Ca6 O61 2.330082 1_555
Ca6 O60 2.342760 1_555
Ca7 O27 2.202730 1_555
Ca7 O29 2.242290 1_555
Ca7 O64 2.265394 1_555
Ca7 O28 2.272572 1_555
Ca7 O63 2.335014 1_555
Ca7 O65 2.382340 1_555
Ca8 O31 2.250720 1_555
Ca8 O30 2.277032 1_555
Ca8 O32 2.361493 1_555
Ca8 O66 2.404755 1_555
Ca8 O67 2.408786 1_555
Ca8 O68 2.460003 1_555
O0 S0 1.472054 1_555
O1 S1 1.468163 1_555
O2 S2 1.477067 1_655
O3 P0 1.529999 1_555
O4 S3 1.471473 1_655
O5 S4 1.462940 1_545
O6 S4 1.492534 1_555
O7 P0 1.560343 1_555
O8 S3 1.480267 1_555
O9 S1 1.473916 1_555
O10 S2 1.480993 1_555
O11 S0 1.470198 1_565
O12 S5 1.444566 1_555
O13 S6 1.454189 1_555
O14 P1 1.508779 1_555
O15 S7 1.465503 1_555
O16 S8 1.475716 1_555
O17 S9 1.477232 1_555
O18 S9 1.532529 1_555
O18 Sn0 2.142228 1_554
O19 S7 1.533841 1_555
O19 Sn0 2.136858 1_554
O20 S8 1.525283 1_555
O20 Sn0 2.103832 1_554
O21 S6 1.530907 1_555
O21 Sn1 2.109587 1_555
O22 P1 1.603923 1_555
O22 Sn1 2.011319 1_555
O23 S5 1.530752 1_555
O23 Sn1 2.126438 1_555
O24 P2 1.499386 1_555
O25 P3 1.506443 1_555
O26 P4 1.504681 1_555
O27 P5 1.530802 1_555
O28 S10 1.469892 1_555
O29 S11 1.464196 1_555
O30 S11 1.473709 1_555
O31 P5 1.554309 1_555
O32 S10 1.488762 1_555
O33 P3 1.594407 1_555
O33 Sn2 2.111572 1_555
O34 P4 1.581961 1_555
O34 Sn2 2.094707 1_555
O35 P2 1.591427 1_555
O35 Sn2 2.101062 1_555
O36 S11 1.472027 1_655
O37 P5 1.534077 1_545
O38 S10 1.467558 1_555
O39 P3 1.524857 1_555
O40 P4 1.542604 1_555
O41 P2 1.526501 1_555
O42 S5 1.501622 1_555
O43 S6 1.487155 1_555
O44 P1 1.547608 1_555
O45 S7 1.475927 1_555
O46 S8 1.477096 1_555
O47 S9 1.476120 1_555
O48 S4 1.469890 1_545
O49 P0 1.535283 1_555
O50 S3 1.472187 1_655
O51 S1 1.492797 1_555
O52 S2 1.495261 1_655
O53 S0 1.517200 1_555
O54 P2 1.620327 1_555
O54 Sn0 2.091720 1_555
O55 P3 1.604471 1_655
O55 Sn0 2.076283 1_555
O56 P4 1.603108 1_545
O56 Sn0 2.076255 1_555
O57 P5 1.608388 1_545
O57 Sn1 2.027061 1_555
O58 S10 1.523360 1_555
O58 Sn1 2.148425 1_555
O59 S11 1.524045 1_655
O59 Sn1 2.111776 1_555
O60 S9 1.472356 1_555
O61 S7 1.471841 1_455
O62 S8 1.469695 1_565
O63 S6 1.476696 1_565
O64 P1 1.564322 1_555
O65 S5 1.483443 1_455
O66 S0 1.495801 1_565
O67 S1 1.514866 1_555
O68 S2 1.494737 1_555
O69 P0 1.609666 1_555
O69 Sn2 2.057294 1_555
O70 S3 1.520211 1_555
O70 Sn2 2.164816 1_555
O71 S4 1.523986 1_555
O71 Sn2 2.183397 1_555
