# generated using pymatgen
data_Na6MgV2(SO3)2
_symmetry_space_group_name_H-M   'P 1'
_cell_length_a   6.64236649
_cell_length_b   6.50247279
_cell_length_c   6.86185104
_cell_angle_alpha   85.54196159
_cell_angle_beta   83.72639061
_cell_angle_gamma   80.36270225
_symmetry_Int_Tables_number   1
_chemical_formula_structural   Na6MgV2(SO3)2
_chemical_formula_sum   'Na6 Mg1 V2 S2 O6'
_cell_volume   289.90858747
_cell_formula_units_Z   1
loop_
 _symmetry_equiv_pos_site_id
 _symmetry_equiv_pos_as_xyz
  1  'x, y, z'
loop_
 _atom_site_type_symbol
 _atom_site_label
 _atom_site_symmetry_multiplicity
 _atom_site_fract_x
 _atom_site_fract_y
 _atom_site_fract_z
 _atom_site_occupancy
  Na  Na0  1  0.70461098  0.09014425  0.39244293  1
  Na  Na1  1  0.63644597  0.16989683  0.88867725  1
  Na  Na2  1  0.17345279  0.92642392  0.65447205  1
  Na  Na3  1  0.43030060  0.76066236  0.02048378  1
  Na  Na4  1  0.08551852  0.40739807  0.76377898  1
  Na  Na5  1  0.81086125  0.54071483  0.14377210  1
  Mg  Mg0  1  0.14109224  0.61597055  0.32734393  1
  V  V0  1  0.67999722  0.68236430  0.64657991  1
  V  V1  1  0.20972837  0.18172367  0.22393457  1
  S  S0  1  0.49277721  0.54026467  0.43136984  1
  S  S1  1  0.02414048  0.96526968  0.07343260  1
  O  O0  1  0.53653261  0.92928562  0.69580858  1
  O  O1  1  0.70644805  0.50335041  0.85465134  1
  O  O2  1  0.94340386  0.71553740  0.54140465  1
  O  O3  1  0.16073626  0.44942498  0.09390966  1
  O  O4  1  0.46502846  0.06355611  0.17508084  1
  O  O5  1  0.08438811  0.23305935  0.46248699  1
loop_
_geom_bond_atom_site_label_1
_geom_bond_atom_site_label_2
_geom_bond_distance
_geom_bond_site_symmetry_2
Na0 O4 2.331947 1_555
Na0 O0 2.493663 1_545
Na0 O2 2.857932 1_545
Na0 O5 2.928745 1_655
Na0 S1 2.939331 1_645
Na0 S0 3.046049 1_555
Na1 O4 2.280382 1_556
Na1 O1 2.281944 1_555
Na1 O0 2.345487 1_545
Na1 S1 3.051784 1_646
Na2 O5 2.329827 1_565
Na2 O2 2.437919 1_455
Na2 O0 2.462213 1_555
Na2 S1 2.952633 1_556
Na2 Na3 3.206264 1_556
Na2 Na4 3.215962 1_565
Na3 O4 2.363921 1_565
Na3 O0 2.489839 1_554
Na3 O1 2.504220 1_554
Na3 S1 2.799947 1_555
Na3 Na5 2.867031 1_555
Na3 O3 2.900576 1_555
Na3 S0 3.098993 1_555
Na4 O3 2.417692 1_556
Na4 O5 2.435159 1_555
Na4 O1 2.511849 1_455
Na4 O2 2.537789 1_455
Na5 O1 2.215397 1_554
Na5 O3 2.294841 1_655
Na5 S0 2.729190 1_555
Na5 S1 3.288473 1_655
Mg0 O2 1.934586 1_455
Mg0 O3 1.982987 1_555
Mg0 S0 2.476615 1_555
Mg0 O5 2.660823 1_555
Mg0 Na5 2.774304 1_455
Mg0 S1 2.808518 1_555
Mg0 Na3 2.902132 1_555
S0 V0 2.362044 1_555
S1 V1 2.377462 1_565
O0 V0 1.761202 1_555
O1 V0 1.775475 1_555
O2 V0 1.858715 1_555
O3 V1 1.887962 1_555
O4 V1 1.748724 1_555
O5 V1 1.782723 1_555
