# generated using pymatgen
data_Sr4MgFe4O11
_symmetry_space_group_name_H-M   'P 1'
_cell_length_a   5.61623976
_cell_length_b   6.97594704
_cell_length_c   7.04238894
_cell_angle_alpha   103.92883542
_cell_angle_beta   89.81549191
_cell_angle_gamma   92.01384460
_symmetry_Int_Tables_number   1
_chemical_formula_structural   Sr4MgFe4O11
_chemical_formula_sum   'Sr4 Mg1 Fe4 O11'
_cell_volume   267.62853927
_cell_formula_units_Z   1
loop_
 _symmetry_equiv_pos_site_id
 _symmetry_equiv_pos_as_xyz
  1  'x, y, z'
loop_
 _atom_site_type_symbol
 _atom_site_label
 _atom_site_symmetry_multiplicity
 _atom_site_fract_x
 _atom_site_fract_y
 _atom_site_fract_z
 _atom_site_occupancy
  Sr  Sr0  1  0.99749610  0.74563271  0.24878999  1
  Sr  Sr1  1  0.03746787  0.25679326  0.75198966  1
  Sr  Sr2  1  0.51007533  0.03964706  0.02289431  1
  Sr  Sr3  1  0.52856688  0.38999978  0.40212779  1
  Mg  Mg0  1  0.47057189  0.69870989  0.73869926  1
  Fe  Fe0  1  0.50103275  0.94860866  0.46265373  1
  Fe  Fe1  1  0.50385513  0.52074646  0.01750343  1
  Fe  Fe2  1  0.01424967  0.26128151  0.26531570  1
  Fe  Fe3  1  0.98412912  0.73596011  0.73634638  1
  O  O0  1  0.24881916  0.90022289  0.65453155  1
  O  O1  1  0.25818164  0.08788464  0.33973621  1
  O  O2  1  0.72843220  0.70910630  0.94349830  1
  O  O3  1  0.78359578  0.33762457  0.08886141  1
  O  O4  1  0.76086690  0.08283744  0.34085687  1
  O  O5  1  0.72899272  0.89165731  0.66078631  1
  O  O6  1  0.26364235  0.33578539  0.08924782  1
  O  O7  1  0.21435391  0.71557822  0.93838437  1
  O  O8  1  0.99605253  0.49094424  0.50887167  1
  O  O9  1  0.49728645  0.69204563  0.28977415  1
  O  O10  1  0.47232263  0.39967193  0.73986707  1
loop_
_geom_bond_atom_site_label_1
_geom_bond_atom_site_label_2
_geom_bond_distance
_geom_bond_site_symmetry_2
Mg0 O7 1.995315 1_555
Mg0 O2 2.034312 1_555
Mg0 O10 2.088436 1_555
Mg0 O0 2.099398 1_555
Mg0 O5 2.105306 1_555
Mg0 Sr2 2.717643 1_566
Mg0 Sr3 2.819375 1_555
Fe0 O9 1.906425 1_555
Fe0 O4 2.006145 1_565
Fe0 O5 2.014453 1_555
Fe0 O1 2.014741 1_565
Fe0 O0 2.029775 1_555
Fe1 O10 1.940182 1_554
Fe1 O2 1.948843 1_554
Fe1 O6 1.981735 1_555
Fe1 O9 2.001356 1_555
Fe1 O3 2.192701 1_555
Fe1 O7 2.308033 1_554
Fe2 O3 1.970628 1_455
Fe2 O6 2.004319 1_555
Fe2 O1 2.010217 1_555
Fe2 O4 2.011745 1_455
Fe2 O8 2.050999 1_455
Fe3 O7 1.959252 1_655
Fe3 O5 1.977020 1_555
Fe3 O0 2.011845 1_655
Fe3 O8 2.044833 1_555
Fe3 O2 2.079602 1_555
O0 Sr1 2.729034 1_565
O0 Sr2 2.921990 1_566
O0 Sr0 3.123370 1_455
O1 Sr3 2.504859 1_555
O1 Sr2 2.597123 1_555
O1 Sr0 2.697815 1_445
O1 Sr1 3.128314 1_555
O2 Sr0 2.588625 1_556
O2 Sr2 2.589798 1_566
O2 O7 2.728105 1_655
O3 Sr2 2.492339 1_555
O3 Sr3 2.584652 1_555
O3 O6 2.696551 1_655
O3 Sr1 2.714732 1_654
O3 Sr0 3.006302 1_555
O4 Sr3 2.495476 1_555
O4 Sr2 2.598930 1_555
O4 Sr0 2.683253 1_545
O4 Sr1 3.236335 1_655
O5 Sr2 2.807498 1_566
O5 Sr1 2.968408 1_665
O5 Sr0 3.222869 1_555
O6 Sr2 2.476619 1_555
O6 Sr3 2.606197 1_555
O6 Sr1 2.626489 1_554
O6 Sr0 3.227065 1_455
O7 Sr0 2.466989 1_456
O7 Sr2 2.705189 1_566
O7 Sr1 3.273426 1_555
O8 Sr1 2.651270 1_655
O8 Sr3 2.753581 1_555
O8 Sr0 2.842009 1_555
O8 Sr3 3.143901 1_655
O9 Sr3 2.434369 1_555
O9 Sr0 2.843961 1_555
O9 Sr0 2.869300 1_455
O10 Sr3 2.383475 1_555
O10 Sr1 2.614163 1_555
O10 Sr1 3.367492 1_655
