# generated using pymatgen
data_NaZnGa(SO4)3
_symmetry_space_group_name_H-M   'P 1'
_cell_length_a   8.56170837
_cell_length_b   8.56170811
_cell_length_c   22.33557446
_cell_angle_alpha   90.00000000
_cell_angle_beta   90.00000000
_cell_angle_gamma   120.00000103
_symmetry_Int_Tables_number   1
_chemical_formula_structural   NaZnGa(SO4)3
_chemical_formula_sum   'Na6 Zn6 Ga6 S18 O72'
_cell_volume   1417.90979461
_cell_formula_units_Z   6
loop_
 _symmetry_equiv_pos_site_id
 _symmetry_equiv_pos_as_xyz
  1  'x, y, z'
loop_
 _atom_site_type_symbol
 _atom_site_label
 _atom_site_symmetry_multiplicity
 _atom_site_fract_x
 _atom_site_fract_y
 _atom_site_fract_z
 _atom_site_occupancy
  Na  Na0  1  0.00000000  -0.00000000  0.49837485  1
  Na  Na1  1  0.00000000  -0.00000000  0.99837485  1
  Na  Na2  1  0.66666700  0.33333300  0.83170785  1
  Na  Na3  1  0.66666700  0.33333300  0.33170785  1
  Na  Na4  1  0.33333300  0.66666700  0.16504185  1
  Na  Na5  1  0.33333300  0.66666700  0.66504185  1
  Zn  Zn0  1  0.00000000  -0.00000000  0.35069520  1
  Zn  Zn1  1  0.00000000  -0.00000000  0.85069520  1
  Zn  Zn2  1  0.66666700  0.33333300  0.68402820  1
  Zn  Zn3  1  0.66666700  0.33333300  0.18402820  1
  Zn  Zn4  1  0.33333300  0.66666700  0.01736220  1
  Zn  Zn5  1  0.33333300  0.66666700  0.51736220  1
  Ga  Ga0  1  -0.00000000  -0.00000000  0.65005141  1
  Ga  Ga1  1  0.00000000  -0.00000000  0.15005141  1
  Ga  Ga2  1  0.66666700  0.33333300  0.98338441  1
  Ga  Ga3  1  0.66666700  0.33333300  0.48338441  1
  Ga  Ga4  1  0.33333300  0.66666700  0.31671841  1
  Ga  Ga5  1  0.33333300  0.66666700  0.81671841  1
  S  S0  1  0.29153944  0.99620117  0.25068314  1
  S  S1  1  0.70466173  0.70846056  0.25068314  1
  S  S2  1  0.00379883  0.29533827  0.25068314  1
  S  S3  1  0.29153944  0.29533827  0.75068314  1
  S  S4  1  0.00379883  0.70846056  0.75068314  1
  S  S5  1  0.70466173  0.99620117  0.75068314  1
  S  S6  1  0.95820644  0.32953417  0.58401614  1
  S  S7  1  0.37132873  0.04179356  0.58401614  1
  S  S8  1  0.67046583  0.62867127  0.58401614  1
  S  S9  1  0.95820644  0.62867127  0.08401614  1
  S  S10  1  0.67046583  0.04179356  0.08401614  1
  S  S11  1  0.37132873  0.32953417  0.08401614  1
  S  S12  1  0.62487244  0.66286817  0.91735014  1
  S  S13  1  0.03799473  0.37512756  0.91735014  1
  S  S14  1  0.33713183  0.96200527  0.91735014  1
  S  S15  1  0.62487244  0.96200527  0.41735014  1
  S  S16  1  0.33713183  0.37512756  0.41735014  1
  S  S17  1  0.03799473  0.66286817  0.41735014  1
  O  O0  1  0.21122291  0.02355377  0.30435735  1
  O  O1  1  0.81233086  0.78877709  0.30435735  1
  O  O2  1  0.97644623  0.18766914  0.30435735  1
  O  O3  1  0.21122291  0.18766914  0.80435735  1
  O  O4  1  0.97644623  0.78877709  0.80435735  1
  O  O5  1  0.81233086  0.02355377  0.80435735  1
  O  O6  1  0.78555808  0.96466443  0.69547192  1
  O  O7  1  0.17910635  0.21444192  0.69547192  1
  O  O8  1  0.03533557  0.82089365  0.69547192  1
  O  O9  1  0.78555808  0.82089365  0.19547192  1
  O  O10  1  0.03533557  0.21444192  0.19547192  1
  O  O11  1  0.17910635  0.96466443  0.19547192  1
  O  O12  1  0.87788991  0.35688677  0.63769035  1
  O  O13  1  0.47899786  0.12211009  0.63769035  1
  O  O14  1  0.64311323  0.52100214  0.63769035  1
  O  O15  1  0.87788991  0.52100214  0.13769035  1
  O  O16  1  0.64311323  0.12211009  0.13769035  1
  O  O17  1  0.47899786  0.35688677  0.13769035  1
  O  O18  1  0.45222508  0.29799743  0.02880492  1
  O  O19  1  0.84577335  0.54777492  0.02880492  1
  O  O20  1  0.70200257  0.15422665  0.02880492  1
  O  O21  1  0.45222508  0.15422665  0.52880492  1
  O  O22  1  0.70200257  0.54777492  0.52880492  1
  O  O23  1  0.84577335  0.29799743  0.52880492  1
  O  O24  1  0.54455591  0.69022077  0.97102435  1
  O  O25  1  0.14566386  0.45544409  0.97102435  1
  O  O26  1  0.30977923  0.85433614  0.97102435  1
  O  O27  1  0.54455591  0.85433614  0.47102435  1
  O  O28  1  0.30977923  0.45544409  0.47102435  1
  O  O29  1  0.14566386  0.69022077  0.47102435  1
  O  O30  1  0.11889108  0.63133143  0.36213892  1
  O  O31  1  0.51243935  0.88110892  0.36213892  1
  O  O32  1  0.36866857  0.48756065  0.36213892  1
  O  O33  1  0.11889108  0.48756065  0.86213892  1
  O  O34  1  0.36866857  0.88110892  0.86213892  1
  O  O35  1  0.51243935  0.63133143  0.86213892  1
  O  O36  1  0.01503097  0.82098237  0.41059378  1
  O  O37  1  0.80595139  0.98496903  0.41059378  1
  O  O38  1  0.17901763  0.19404861  0.41059378  1
  O  O39  1  0.01503097  0.19404861  0.91059378  1
  O  O40  1  0.17901763  0.98496903  0.91059378  1
  O  O41  1  0.80595139  0.82098237  0.91059378  1
  O  O42  1  0.97288590  0.16208425  0.58918666  1
  O  O43  1  0.18919835  0.02711410  0.58918666  1
  O  O44  1  0.83791575  0.81080165  0.58918666  1
  O  O45  1  0.97288590  0.81080165  0.08918666  1
  O  O46  1  0.83791575  0.02711410  0.08918666  1
  O  O47  1  0.18919835  0.16208425  0.08918666  1
  O  O48  1  0.68169797  0.15431537  0.74392678  1
  O  O49  1  0.47261839  0.31830203  0.74392678  1
  O  O50  1  0.84568463  0.52738161  0.74392678  1
  O  O51  1  0.68169797  0.52738161  0.24392678  1
  O  O52  1  0.84568463  0.31830203  0.24392678  1
  O  O53  1  0.47261839  0.15431537  0.24392678  1
  O  O54  1  0.63955290  0.49541725  0.92251966  1
  O  O55  1  0.85586535  0.36044710  0.92251966  1
  O  O56  1  0.50458275  0.14413465  0.92251966  1
  O  O57  1  0.63955290  0.14413465  0.42251966  1
  O  O58  1  0.50458275  0.36044710  0.42251966  1
  O  O59  1  0.85586535  0.49541725  0.42251966  1
  O  O60  1  0.34836397  0.48764937  0.07726078  1
  O  O61  1  0.13928439  0.65163603  0.07726078  1
  O  O62  1  0.51235063  0.86071561  0.07726078  1
  O  O63  1  0.34836397  0.86071561  0.57726078  1
  O  O64  1  0.51235063  0.65163603  0.57726078  1
  O  O65  1  0.13928439  0.48764937  0.57726078  1
  O  O66  1  0.30621890  0.82875125  0.25585366  1
  O  O67  1  0.52253135  0.69378110  0.25585366  1
  O  O68  1  0.17124875  0.47746865  0.25585366  1
  O  O69  1  0.30621890  0.47746865  0.75585366  1
  O  O70  1  0.17124875  0.69378110  0.75585366  1
  O  O71  1  0.52253135  0.82875125  0.75585366  1
loop_
_geom_bond_atom_site_label_1
_geom_bond_atom_site_label_2
_geom_bond_distance
_geom_bond_site_symmetry_2
Na0 O36 2.531220 1_545
Na0 O38 2.531220 1_555
Na0 O37 2.531220 1_445
Na0 O44 2.532970 1_445
Na0 O42 2.532970 1_455
Na0 O43 2.532970 1_555
Na1 O40 2.531220 1_545
Na1 O41 2.531220 1_445
Na1 O39 2.531220 1_555
Na1 O45 2.532970 1_446
Na1 O47 2.532970 1_556
Na1 O46 2.532970 1_456
Na2 O48 2.531220 1_555
Na2 O50 2.531220 1_555
Na2 O49 2.531220 1_555
Na2 O56 2.532970 1_555
Na2 O54 2.532970 1_555
Na2 O55 2.532970 1_555
Na3 O52 2.531220 1_555
Na3 O53 2.531220 1_555
Na3 O51 2.531220 1_555
Na3 O57 2.532970 1_555
Na3 O59 2.532970 1_555
Na3 O58 2.532970 1_555
Na4 O60 2.531220 1_555
Na4 O62 2.531220 1_555
Na4 O61 2.531220 1_555
Na4 O68 2.532970 1_555
Na4 O66 2.532970 1_555
Na4 O67 2.532970 1_555
Na5 O64 2.531220 1_555
Na5 O65 2.531220 1_555
Na5 O63 2.531220 1_555
Na5 O69 2.532970 1_555
Na5 O71 2.532970 1_555
Na5 O70 2.532970 1_555
Ga0 O7 1.983969 1_555
Ga0 O8 1.983969 1_545
Ga0 O6 1.983969 1_445
Ga0 O44 2.037131 1_445
Ga0 O42 2.037131 1_455
Ga0 O43 2.037131 1_555
Ga1 O10 1.983969 1_555
Ga1 O9 1.983969 1_445
Ga1 O11 1.983969 1_545
Ga1 O45 2.037131 1_445
Ga1 O47 2.037131 1_555
Ga1 O46 2.037131 1_455
Ga2 O19 1.983969 1_556
Ga2 O20 1.983969 1_556
Ga2 O18 1.983969 1_556
Ga2 O56 2.037131 1_555
Ga2 O54 2.037131 1_555
Ga2 O55 2.037131 1_555
Ga3 O22 1.983969 1_555
Ga3 O21 1.983969 1_555
Ga3 O23 1.983969 1_555
Ga3 O57 2.037131 1_555
Ga3 O59 2.037131 1_555
Ga3 O58 2.037131 1_555
Ga4 O31 1.983969 1_555
Ga4 O32 1.983969 1_555
Ga4 O30 1.983969 1_555
Ga4 O68 2.037131 1_555
Ga4 O66 2.037131 1_555
Ga4 O67 2.037131 1_555
Ga5 O34 1.983969 1_555
Ga5 O33 1.983969 1_555
Ga5 O35 1.983969 1_555
Ga5 O69 2.037131 1_555
Ga5 O71 2.037131 1_555
Ga5 O70 2.037131 1_555
O0 S0 1.458069 1_545
O0 Zn0 2.004391 1_555
O1 S1 1.458069 1_555
O1 Zn0 2.004391 1_665
O2 S2 1.458069 1_655
O2 Zn0 2.004391 1_655
O3 S3 1.458069 1_555
O3 Zn1 2.004391 1_555
O4 S4 1.458069 1_655
O4 Zn1 2.004391 1_665
O5 S5 1.458069 1_545
O5 Zn1 2.004391 1_655
O6 S5 1.503444 1_555
O7 S3 1.503444 1_555
O8 S4 1.503444 1_555
O9 S1 1.503444 1_555
O10 S2 1.503444 1_555
O11 S0 1.503444 1_555
O12 S6 1.458069 1_555
O12 Zn2 2.004391 1_555
O13 S7 1.458069 1_555
O13 Zn2 2.004391 1_555
O14 S8 1.458069 1_555
O14 Zn2 2.004391 1_555
O15 S9 1.458069 1_555
O15 Zn3 2.004391 1_555
O16 S10 1.458069 1_555
O16 Zn3 2.004391 1_555
O17 S11 1.458069 1_555
O17 Zn3 2.004391 1_555
O18 S11 1.503444 1_555
O19 S9 1.503444 1_555
O20 S10 1.503444 1_555
O21 S7 1.503444 1_555
O22 S8 1.503444 1_555
O23 S6 1.503444 1_555
O24 S12 1.458069 1_555
O24 Zn4 2.004391 1_556
O25 S13 1.458069 1_555
O25 Zn4 2.004391 1_556
O26 S14 1.458069 1_555
O26 Zn4 2.004391 1_556
O27 S15 1.458069 1_555
O27 Zn5 2.004391 1_555
O28 S16 1.458069 1_555
O28 Zn5 2.004391 1_555
O29 S17 1.458069 1_555
O29 Zn5 2.004391 1_555
O30 S17 1.503444 1_555
O31 S15 1.503444 1_555
O32 S16 1.503444 1_555
O33 S13 1.503444 1_555
O34 S14 1.503444 1_555
O35 S12 1.503444 1_555
O36 S17 1.469749 1_555
O36 Zn0 2.086350 1_565
O37 S15 1.469757 1_555
O37 Zn0 2.086351 1_665
O38 S16 1.469754 1_555
O38 Zn0 2.086351 1_555
O39 S13 1.469757 1_555
O39 Zn1 2.086351 1_555
O40 S14 1.469749 1_555
O40 Zn1 2.086351 1_565
O41 S12 1.469754 1_555
O41 Zn1 2.086351 1_665
O42 S6 1.504889 1_555
O43 S7 1.504897 1_555
O44 S8 1.504894 1_555
O45 S9 1.504897 1_555
O46 S10 1.504889 1_555
O47 S11 1.504894 1_555
O48 S5 1.469749 1_545
O48 Zn2 2.086350 1_555
O49 S3 1.469757 1_555
O49 Zn2 2.086351 1_555
O50 S4 1.469754 1_655
O50 Zn2 2.086351 1_555
O51 S1 1.469757 1_555
O51 Zn3 2.086351 1_555
O52 S2 1.469749 1_655
O52 Zn3 2.086351 1_555
O53 S0 1.469754 1_545
O53 Zn3 2.086351 1_555
O54 S12 1.504900 1_555
O55 S13 1.504883 1_655
O56 S14 1.504891 1_545
O57 S15 1.504883 1_545
O58 S16 1.504900 1_555
O59 S17 1.504891 1_655
O60 S11 1.469760 1_555
O60 Zn4 2.086350 1_555
O61 S9 1.469743 1_455
O61 Zn4 2.086351 1_555
O62 S10 1.469750 1_565
O62 Zn4 2.086351 1_555
O63 S7 1.469743 1_565
O63 Zn5 2.086351 1_555
O64 S8 1.469760 1_555
O64 Zn5 2.086351 1_555
O65 S6 1.469750 1_455
O65 Zn5 2.086351 1_555
O66 S0 1.504889 1_555
O67 S1 1.504897 1_555
O68 S2 1.504894 1_555
O69 S3 1.504897 1_555
O70 S4 1.504889 1_555
O71 S5 1.504894 1_555
