# generated using pymatgen
data_Na2LaInSi(SO6)2
_symmetry_space_group_name_H-M   'P 1'
_cell_length_a   9.29795937
_cell_length_b   9.32198568
_cell_length_c   24.00776708
_cell_angle_alpha   90.09276920
_cell_angle_beta   89.40968592
_cell_angle_gamma   119.93354285
_symmetry_Int_Tables_number   1
_chemical_formula_structural   Na2LaInSi(SO6)2
_chemical_formula_sum   'Na12 La6 In6 Si6 S12 O72'
_cell_volume   1803.19328709
_cell_formula_units_Z   6
loop_
 _symmetry_equiv_pos_site_id
 _symmetry_equiv_pos_as_xyz
  1  'x, y, z'
loop_
 _atom_site_type_symbol
 _atom_site_label
 _atom_site_symmetry_multiplicity
 _atom_site_fract_x
 _atom_site_fract_y
 _atom_site_fract_z
 _atom_site_occupancy
  Na  Na0  1  0.00113415  0.62326656  0.25431420  1
  Na  Na1  1  0.38251676  0.00996335  0.74525424  1
  Na  Na2  1  0.65695506  0.96893757  0.59624843  1
  Na  Na3  1  0.02859529  0.34271385  0.09928222  1
  Na  Na4  1  0.98785557  0.67903189  0.92837425  1
  Na  Na5  1  0.32104146  0.01754400  0.42190337  1
  Na  Na6  1  0.01544518  0.98367787  0.50133553  1
  Na  Na7  1  0.02001830  0.97759020  0.00134992  1
  Na  Na8  1  0.65674332  0.29373597  0.83192777  1
  Na  Na9  1  0.69719695  0.33979957  0.33609740  1
  Na  Na10  1  0.32381274  0.65237148  0.17149578  1
  Na  Na11  1  0.34262177  0.67409614  0.66654082  1
  La  La0  1  0.99365126  0.00864887  0.84500663  1
  La  La1  1  0.99779547  0.98773844  0.15628487  1
  La  La2  1  0.65140573  0.32140911  0.98331460  1
  La  La3  1  0.33371427  0.68796521  0.02003939  1
  La  La4  1  0.31242087  0.67132754  0.51586349  1
  La  La5  1  0.35700049  0.68620354  0.81186641  1
  In  In0  1  0.99070561  0.00252560  0.34753823  1
  In  In1  1  0.00748279  0.00181922  0.64661815  1
  In  In2  1  0.66878342  0.32942132  0.68030058  1
  In  In3  1  0.67868733  0.33492282  0.18835550  1
  In  In4  1  0.66773096  0.34468586  0.48308249  1
  In  In5  1  0.30785575  0.64128537  0.32089378  1
  Si  Si0  1  -0.00010140  0.30130173  0.25002876  1
  Si  Si1  1  0.70574333  0.01140756  0.73882553  1
  Si  Si2  1  0.37340178  0.05264220  0.58246917  1
  Si  Si3  1  0.95954700  0.62831155  0.08448295  1
  Si  Si4  1  0.32653573  0.97572395  0.91009087  1
  Si  Si5  1  0.01863892  0.67164962  0.41169266  1
  S  S0  1  0.31433182  0.00029270  0.25543782  1
  S  S1  1  0.68570002  0.68940806  0.25571415  1
  S  S2  1  0.30775431  0.30003804  0.74251101  1
  S  S3  1  0.98991903  0.69407981  0.74481270  1
  S  S4  1  0.95233712  0.32393617  0.58356063  1
  S  S5  1  0.67523971  0.63174193  0.58569332  1
  S  S6  1  0.66780612  0.03765837  0.08989370  1
  S  S7  1  0.36888319  0.33630258  0.09085584  1
  S  S8  1  0.64164840  0.66638786  0.91753913  1
  S  S9  1  0.03684298  0.36899007  0.91779444  1
  S  S10  1  0.62884647  0.96424346  0.41421813  1
  S  S11  1  0.33440854  0.36153853  0.41456482  1
  O  O0  1  0.23616677  0.02512968  0.30595897  1
  O  O1  1  0.80562609  0.77332148  0.30164313  1
  O  O2  1  0.98159830  0.17950297  0.30194969  1
  O  O3  1  0.23694664  0.20480581  0.79479909  1
  O  O4  1  0.96922801  0.75944497  0.79874973  1
  O  O5  1  0.79882119  0.01674814  0.79658130  1
  O  O6  1  0.80131687  0.99476890  0.68321410  1
  O  O7  1  0.20408000  0.20868515  0.69454302  1
  O  O8  1  0.01977108  0.81260672  0.69884359  1
  O  O9  1  0.75017315  0.78298272  0.20317325  1
  O  O10  1  0.01783087  0.22903053  0.18986600  1
  O  O11  1  0.20374520  0.96300141  0.20671226  1
  O  O12  1  0.87952155  0.35022377  0.63476624  1
  O  O13  1  0.48521335  0.13431760  0.63802211  1
  O  O14  1  0.66354389  0.53498084  0.63598985  1
  O  O15  1  0.86125948  0.51632901  0.14020914  1
  O  O16  1  0.64796756  0.12445869  0.13824907  1
  O  O17  1  0.46414566  0.33272726  0.13954268  1
  O  O18  1  0.44428447  0.32603372  0.03778911  1
  O  O19  1  0.87037815  0.54364322  0.02506690  1
  O  O20  1  0.67178407  0.12042342  0.03684467  1
  O  O21  1  0.46103522  0.15643246  0.52368187  1
  O  O22  1  0.69316578  0.55417793  0.53404495  1
  O  O23  1  0.85524713  0.31371104  0.53341948  1
  O  O24  1  0.55072292  0.66214809  0.96826316  1
  O  O25  1  0.12421546  0.44691935  0.97011790  1
  O  O26  1  0.31157923  0.85763056  0.96351561  1
  O  O27  1  0.56333650  0.87389475  0.46758185  1
  O  O28  1  0.31502845  0.43986129  0.46483629  1
  O  O29  1  0.14925339  0.72138048  0.46360045  1
  O  O30  1  0.09998257  0.63934966  0.35495912  1
  O  O31  1  0.51788486  0.86963480  0.36732745  1
  O  O32  1  0.36059811  0.46558454  0.36434775  1
  O  O33  1  0.13400604  0.46459453  0.86865734  1
  O  O34  1  0.33621728  0.88830869  0.85141744  1
  O  O35  1  0.54941122  0.65813288  0.86701634  1
  O  O36  1  0.01323643  0.84746928  0.40445918  1
  O  O37  1  0.79905573  0.99158128  0.40732698  1
  O  O38  1  0.18468058  0.19314522  0.40926911  1
  O  O39  1  0.00532269  0.19807719  0.91733341  1
  O  O40  1  0.14904164  0.97362208  0.91364853  1
  O  O41  1  0.80695221  0.81957223  0.91800271  1
  O  O42  1  0.95370887  0.16467059  0.58539918  1
  O  O43  1  0.18340621  0.02601336  0.58708286  1
  O  O44  1  0.82370483  0.80196751  0.58749151  1
  O  O45  1  0.98734922  0.81630658  0.08657116  1
  O  O46  1  0.82760388  0.03921860  0.09121576  1
  O  O47  1  0.19698396  0.19248627  0.09105629  1
  O  O48  1  0.68008498  0.17536635  0.74119728  1
  O  O49  1  0.47585218  0.31764902  0.73867899  1
  O  O50  1  0.84003590  0.53129821  0.73664320  1
  O  O51  1  0.67239013  0.52305458  0.25052643  1
  O  O52  1  0.83596730  0.33119179  0.25113337  1
  O  O53  1  0.47651750  0.15226445  0.24579122  1
  O  O54  1  0.67295097  0.52417716  0.91491473  1
  O  O55  1  0.87586473  0.36948060  0.91583552  1
  O  O56  1  0.49166105  0.15906250  0.91225421  1
  O  O57  1  0.63176573  0.12684911  0.41682429  1
  O  O58  1  0.48146363  0.33692306  0.41803140  1
  O  O59  1  0.83762937  0.50370123  0.42389727  1
  O  O60  1  0.35690269  0.48929665  0.09213248  1
  O  O61  1  0.13930280  0.62968509  0.08762001  1
  O  O62  1  0.52744612  0.86635601  0.09098569  1
  O  O63  1  0.36816075  0.87108017  0.57944605  1
  O  O64  1  0.52526320  0.65023983  0.58363512  1
  O  O65  1  0.12444762  0.46356128  0.58052735  1
  O  O66  1  0.33559877  0.85243945  0.26134261  1
  O  O67  1  0.52167495  0.67378625  0.26649936  1
  O  O68  1  0.16448569  0.49216442  0.25513370  1
  O  O69  1  0.32065663  0.46363705  0.74469734  1
  O  O70  1  0.14075855  0.67638160  0.74627512  1
  O  O71  1  0.51363238  0.84966138  0.73834595  1
loop_
_geom_bond_atom_site_label_1
_geom_bond_atom_site_label_2
_geom_bond_distance
_geom_bond_site_symmetry_2
Na0 O52 2.367756 1_455
Na0 O68 2.377822 1_555
Na0 O30 2.571494 1_555
Na0 O51 2.716579 1_455
Na0 O66 2.764570 1_555
Na0 O11 2.982957 1_555
Na0 O15 2.993364 1_455
Na0 O1 3.007029 1_455
Na1 O71 2.357940 1_545
Na1 O48 2.404040 1_555
Na1 O49 2.553303 1_555
Na1 O34 2.732587 1_545
Na1 O13 2.781630 1_555
Na1 O70 2.783249 1_545
Na1 O3 2.993174 1_555
Na1 O8 3.143258 1_545
Na2 O63 2.404518 1_555
Na2 O6 2.439743 1_555
Na2 O42 2.443899 1_565
Na2 O64 2.606053 1_555
Na2 O44 2.696538 1_555
Na2 O13 2.889865 1_565
Na2 O23 3.169981 1_565
Na2 O27 3.218922 1_555
Na3 O61 2.354293 1_555
Na3 O10 2.399917 1_555
Na3 O46 2.502662 1_455
Na3 O47 2.575349 1_555
Na3 O60 2.653693 1_555
Na3 O15 2.912375 1_455
Na3 O25 3.231250 1_554
Na3 O20 3.283140 1_455
Na4 O40 2.407765 1_655
Na4 O55 2.550820 1_555
Na4 O54 2.561458 1_555
Na4 O19 2.599269 1_556
Na4 O41 2.610852 1_555
Na4 O26 2.755019 1_655
Na4 O25 3.172490 1_655
Na4 Na7 3.173203 1_656
Na4 O4 3.228724 1_555
Na4 O33 3.249536 1_655
Na5 O36 2.524682 1_545
Na5 O57 2.540719 1_555
Na5 O38 2.541642 1_555
Na5 O58 2.581398 1_555
Na5 O29 2.598201 1_545
Na5 O21 2.777512 1_555
Na5 O0 2.911634 1_555
Na5 O31 3.070970 1_545
Na5 Na6 3.287098 1_545
Na6 O43 2.506194 1_565
Na6 O36 2.643354 1_555
Na6 O44 2.692126 1_455
Na6 O38 2.837298 1_565
Na6 O42 2.860225 1_465
Na6 O37 3.064195 1_455
Na6 O29 3.369402 1_555
Na7 O40 2.421924 1_554
Na7 O45 2.465788 1_455
Na7 O41 2.694112 1_454
Na7 O47 2.850987 1_565
Na7 O39 2.934470 1_564
Na7 O46 3.021209 1_465
Na8 O56 2.382180 1_555
Na8 O48 2.496171 1_555
Na8 O55 2.711407 1_555
Na8 O54 2.876800 1_555
Na8 O49 2.888542 1_555
Na8 O50 3.034994 1_555
Na9 O52 2.424995 1_555
Na9 O59 2.556915 1_555
Na9 O57 2.617220 1_555
Na9 O51 2.757949 1_555
Na9 O58 2.785454 1_555
Na9 O53 2.909696 1_555
Na10 O68 2.489443 1_555
Na10 O60 2.545826 1_555
Na10 O61 2.598169 1_555
Na10 O62 2.732719 1_555
Na10 O66 2.816197 1_555
Na10 O67 2.888776 1_555
Na11 O71 2.372511 1_555
Na11 O69 2.648705 1_555
Na11 O70 2.674572 1_555
Na11 O64 2.683421 1_555
Na11 O63 2.714301 1_555
Na11 O65 2.886351 1_555
La0 O5 2.195243 1_555
La0 O40 2.330540 1_645
La0 O3 2.395137 1_655
La0 O39 2.438812 1_655
La0 O41 2.466783 1_545
La0 O4 2.480298 1_545
La1 O45 2.281286 1_555
La1 O10 2.307198 1_665
La1 O11 2.382246 1_655
La1 O9 2.403984 1_555
La1 O47 2.438745 1_665
La1 O46 2.446631 1_565
La2 O56 2.281982 1_555
La2 O19 2.295156 1_556
La2 O18 2.334894 1_556
La2 O20 2.359005 1_556
La2 O54 2.436175 1_555
La2 O55 2.486006 1_555
La3 O26 2.173227 1_554
La3 O61 2.270990 1_555
La3 O25 2.439481 1_554
La3 O62 2.444548 1_555
La3 O24 2.471091 1_554
La3 O60 2.624604 1_555
La4 O29 2.200289 1_555
La4 O63 2.260550 1_555
La4 O65 2.406550 1_555
La4 O27 2.430437 1_555
La4 O28 2.490010 1_555
La4 O64 2.656688 1_555
La5 O34 2.200512 1_555
La5 O71 2.302024 1_555
La5 O35 2.353565 1_555
La5 O33 2.470172 1_555
La5 O69 2.513948 1_555
La5 O70 2.532126 1_555
In0 O2 2.018418 1_555
In0 O36 2.077282 1_645
In0 O37 2.238852 1_545
In0 O1 2.258896 1_545
In0 O38 2.335583 1_655
In0 O0 2.392380 1_655
In1 O6 2.071371 1_445
In1 O43 2.086646 1_555
In1 O7 2.214083 1_555
In1 O8 2.215280 1_545
In1 O44 2.295655 1_445
In1 O42 2.344054 1_455
In2 O13 2.045247 1_555
In2 O48 2.090793 1_555
In2 O12 2.156239 1_555
In2 O14 2.215128 1_555
In2 O49 2.224079 1_555
In2 O50 2.225366 1_555
In3 O15 2.044126 1_555
In3 O52 2.123120 1_555
In3 O16 2.195006 1_555
In3 O53 2.257009 1_555
In3 O17 2.315234 1_555
In3 O51 2.323601 1_555
In4 O21 2.079489 1_555
In4 O59 2.082160 1_555
In4 O22 2.214482 1_555
In4 O23 2.265087 1_555
In4 O58 2.318196 1_555
In4 O57 2.467512 1_555
In5 O30 2.082678 1_555
In5 O68 2.094940 1_555
In5 O32 2.197532 1_555
In5 O67 2.257492 1_555
In5 O31 2.340109 1_555
In5 O66 2.340906 1_555
O0 S0 1.483844 1_555
O1 S1 1.491027 1_555
O2 Si0 1.636851 1_655
O3 S2 1.483465 1_555
O4 S3 1.481346 1_555
O5 Si1 1.629596 1_555
O6 Si1 1.645808 1_565
O7 S2 1.476843 1_555
O8 S3 1.485732 1_455
O9 S1 1.475633 1_555
O10 Si0 1.634592 1_555
O11 S0 1.487703 1_565
O12 S4 1.475513 1_555
O13 Si2 1.635419 1_555
O14 S5 1.478662 1_555
O15 Si3 1.655904 1_555
O16 S6 1.475788 1_555
O17 S7 1.484189 1_555
O18 S7 1.473758 1_555
O19 Si3 1.647044 1_555
O20 S6 1.480674 1_555
O21 Si2 1.669103 1_555
O22 S5 1.483644 1_555
O23 S4 1.486354 1_555
O24 S8 1.464534 1_555
O25 S9 1.481474 1_555
O26 Si4 1.650588 1_555
O27 S10 1.482272 1_555
O28 S11 1.464970 1_555
O29 Si5 1.646277 1_555
O30 Si5 1.650025 1_555
O31 S10 1.490699 1_555
O32 S11 1.488466 1_555
O33 S9 1.476477 1_555
O34 Si4 1.650219 1_555
O35 S8 1.472386 1_555
O36 Si5 1.673986 1_555
O37 S10 1.479585 1_555
O38 S11 1.496817 1_555
O39 S9 1.469170 1_555
O40 Si4 1.641983 1_555
O41 S8 1.487115 1_555
O42 S4 1.491805 1_555
O43 Si2 1.659240 1_555
O44 S5 1.496793 1_555
O45 Si3 1.639639 1_555
O46 S6 1.479258 1_555
O47 S7 1.487737 1_555
O48 Si1 1.661196 1_555
O49 S2 1.489729 1_555
O50 S3 1.475618 1_555
O51 S1 1.497933 1_555
O52 Si0 1.680654 1_655
O53 S0 1.482052 1_555
O54 S8 1.493499 1_555
O55 S9 1.500277 1_655
O56 Si4 1.632028 1_545
O57 S10 1.503659 1_545
O58 S11 1.498216 1_555
O59 Si5 1.652638 1_655
O60 S7 1.485180 1_555
O61 Si3 1.667489 1_455
O62 S6 1.474275 1_565
O63 Si2 1.670217 1_565
O64 S5 1.489349 1_555
O65 S4 1.476315 1_455
O66 S0 1.494012 1_565
O67 S1 1.478010 1_555
O68 Si0 1.675823 1_555
O69 S2 1.469783 1_555
O70 S3 1.492452 1_455
O71 Si1 1.666352 1_565
