# generated using pymatgen
data_LaNb3(PO4)6
_symmetry_space_group_name_H-M   'P 1'
_cell_length_a   8.99310476
_cell_length_b   8.99310446
_cell_length_c   23.04623578
_cell_angle_alpha   90.00000000
_cell_angle_beta   90.00000000
_cell_angle_gamma   120.00000112
_symmetry_Int_Tables_number   1
_chemical_formula_structural   LaNb3(PO4)6
_chemical_formula_sum   'La3 Nb9 P18 O72'
_cell_volume   1614.17240232
_cell_formula_units_Z   3
loop_
 _symmetry_equiv_pos_site_id
 _symmetry_equiv_pos_as_xyz
  1  'x, y, z'
loop_
 _atom_site_type_symbol
 _atom_site_label
 _atom_site_symmetry_multiplicity
 _atom_site_fract_x
 _atom_site_fract_y
 _atom_site_fract_z
 _atom_site_occupancy
  La  La0  1  -0.00000000  -0.00000000  0.36944393  1
  La  La1  1  0.66666700  0.33333300  0.69398906  1
  La  La2  1  0.66666700  0.33333300  0.18466967  1
  Nb  Nb0  1  -0.00000000  -0.00000000  0.86018764  1
  Nb  Nb1  1  -0.00000000  -0.00000000  0.64162395  1
  Nb  Nb2  1  -0.00000000  -0.00000000  0.14743042  1
  Nb  Nb3  1  0.66666700  0.33333300  0.98011181  1
  Nb  Nb4  1  0.66666700  0.33333300  0.47761482  1
  Nb  Nb5  1  0.33333300  0.66666700  0.01746311  1
  Nb  Nb6  1  0.33333300  0.66666700  0.52335422  1
  Nb  Nb7  1  0.33333300  0.66666700  0.30757435  1
  Nb  Nb8  1  0.33333300  0.66666700  0.80930345  1
  P  P0  1  0.27616796  0.98061630  0.25066253  1
  P  P1  1  0.70444834  0.72383204  0.25066253  1
  P  P2  1  0.01938370  0.29555166  0.25066253  1
  P  P3  1  0.26286960  0.28246888  0.75313023  1
  P  P4  1  0.01959928  0.73713040  0.75313023  1
  P  P5  1  0.71753112  0.98040072  0.75313023  1
  P  P6  1  0.95830940  0.32994878  0.58166349  1
  P  P7  1  0.37164038  0.04169060  0.58166349  1
  P  P8  1  0.67005122  0.62835962  0.58166349  1
  P  P9  1  0.96568577  0.63620223  0.07901528  1
  P  P10  1  0.67051745  0.03431423  0.07901528  1
  P  P11  1  0.36379777  0.32948255  0.07901528  1
  P  P12  1  0.61511576  0.65919950  0.91492710  1
  P  P13  1  0.04408274  0.38488424  0.91492710  1
  P  P14  1  0.34080050  0.95591726  0.91492710  1
  P  P15  1  0.59302151  0.95444085  0.41878863  1
  P  P16  1  0.36141834  0.40697849  0.41878863  1
  P  P17  1  0.04555915  0.63858166  0.41878863  1
  O  O0  1  0.19978128  0.00863168  0.30409936  1
  O  O1  1  0.80885041  0.80021872  0.30409936  1
  O  O2  1  0.99136832  0.19114959  0.30409936  1
  O  O3  1  0.16884218  0.17658142  0.80813967  1
  O  O4  1  0.00773924  0.83115782  0.80813967  1
  O  O5  1  0.82341858  0.99226076  0.80813967  1
  O  O6  1  0.80240172  0.95862142  0.69775050  1
  O  O7  1  0.15621971  0.19759828  0.69775050  1
  O  O8  1  0.04137858  0.84378029  0.69775050  1
  O  O9  1  0.80337960  0.84040006  0.19498462  1
  O  O10  1  0.03702046  0.19662040  0.19498462  1
  O  O11  1  0.15959994  0.96297954  0.19498462  1
  O  O12  1  0.90135824  0.37764346  0.63627152  1
  O  O13  1  0.47628622  0.09864176  0.63627152  1
  O  O14  1  0.62235654  0.52371378  0.63627152  1
  O  O15  1  0.91756552  0.52747873  0.13247552  1
  O  O16  1  0.60991421  0.08243448  0.13247552  1
  O  O17  1  0.47252127  0.39008579  0.13247552  1
  O  O18  1  0.46850029  0.30312227  0.02810525  1
  O  O19  1  0.83462298  0.53149971  0.02810525  1
  O  O20  1  0.69687773  0.16537702  0.02810525  1
  O  O21  1  0.46297318  0.16796324  0.53070849  1
  O  O22  1  0.70499106  0.53702682  0.53070849  1
  O  O23  1  0.83203676  0.29500894  0.53070849  1
  O  O24  1  0.53094771  0.69461085  0.96668365  1
  O  O25  1  0.16366215  0.46905229  0.96668365  1
  O  O26  1  0.30538915  0.83633785  0.96668365  1
  O  O27  1  0.49458305  0.84859159  0.47251721  1
  O  O28  1  0.35400754  0.50541695  0.47251721  1
  O  O29  1  0.15140841  0.64599246  0.47251721  1
  O  O30  1  0.13048612  0.62073168  0.36298516  1
  O  O31  1  0.49024456  0.86951388  0.36298516  1
  O  O32  1  0.37926832  0.50975544  0.36298516  1
  O  O33  1  0.12973183  0.50199588  0.86160541  1
  O  O34  1  0.37226305  0.87026817  0.86160541  1
  O  O35  1  0.49800412  0.62773695  0.86160541  1
  O  O36  1  0.02414996  0.79276058  0.42149266  1
  O  O37  1  0.76861062  0.97585004  0.42149266  1
  O  O38  1  0.20723942  0.23138938  0.42149266  1
  O  O39  1  0.02026104  0.20256573  0.90592342  1
  O  O40  1  0.18230470  0.97973896  0.90592342  1
  O  O41  1  0.79743427  0.81769530  0.90592342  1
  O  O42  1  0.96987049  0.16237833  0.59310266  1
  O  O43  1  0.19250784  0.03012951  0.59310266  1
  O  O44  1  0.83762167  0.80749216  0.59310266  1
  O  O45  1  0.97566040  0.81003802  0.08810189  1
  O  O46  1  0.83437762  0.02433960  0.08810189  1
  O  O47  1  0.18996198  0.16562238  0.08810189  1
  O  O48  1  0.69752866  0.13520522  0.75186546  1
  O  O49  1  0.43767756  0.30247134  0.75186546  1
  O  O50  1  0.86479478  0.56232244  0.75186546  1
  O  O51  1  0.66138145  0.54294229  0.23885893  1
  O  O52  1  0.88156184  0.33861855  0.23885893  1
  O  O53  1  0.45705771  0.11843816  0.23885893  1
  O  O54  1  0.63523118  0.50112999  0.92778814  1
  O  O55  1  0.86589981  0.36476882  0.92778814  1
  O  O56  1  0.49887001  0.13410019  0.92778814  1
  O  O57  1  0.60616033  0.13369234  0.42822604  1
  O  O58  1  0.52753300  0.39383967  0.42822604  1
  O  O59  1  0.86630766  0.47246700  0.42822604  1
  O  O60  1  0.33440052  0.47940978  0.05891647  1
  O  O61  1  0.14500827  0.66559948  0.05891647  1
  O  O62  1  0.52059022  0.85499173  0.05891647  1
  O  O63  1  0.32669741  0.85578393  0.56681335  1
  O  O64  1  0.52908552  0.67330259  0.56681335  1
  O  O65  1  0.14421607  0.47091448  0.56681335  1
  O  O66  1  0.27368194  0.80478567  0.25780491  1
  O  O67  1  0.53110272  0.72631806  0.25780491  1
  O  O68  1  0.19521433  0.46889728  0.25780491  1
  O  O69  1  0.27508752  0.46200658  0.76233698  1
  O  O70  1  0.18691806  0.72491248  0.76233698  1
  O  O71  1  0.53799342  0.81308194  0.76233698  1
loop_
_geom_bond_atom_site_label_1
_geom_bond_atom_site_label_2
_geom_bond_distance
_geom_bond_site_symmetry_2
La0 O2 2.315685 1_455
La0 O1 2.315685 1_445
La0 O0 2.315686 1_555
La0 O38 2.316091 1_555
La0 O36 2.316091 1_545
La0 O37 2.316091 1_445
La1 O50 2.350620 1_555
La1 O48 2.350620 1_555
La1 O49 2.350620 1_555
La1 O13 2.354091 1_555
La1 O14 2.354091 1_555
La1 O12 2.354091 1_555
La2 O53 2.281420 1_555
La2 O51 2.281420 1_555
La2 O52 2.281420 1_555
La2 O16 2.376330 1_555
La2 O15 2.376330 1_555
La2 O17 2.376330 1_555
Nb0 O3 1.963399 1_555
Nb0 O4 1.963399 1_545
Nb0 O5 1.963399 1_445
Nb0 O39 2.032446 1_555
Nb0 O41 2.032446 1_445
Nb0 O40 2.032446 1_545
Nb1 O44 1.962644 1_445
Nb1 O42 1.962644 1_455
Nb1 O43 1.962644 1_555
Nb1 O7 2.075613 1_555
Nb1 O6 2.075613 1_445
Nb1 O8 2.075613 1_545
Nb2 O10 1.962109 1_555
Nb2 O9 1.962109 1_445
Nb2 O11 1.962109 1_545
Nb2 O45 2.112329 1_445
Nb2 O47 2.112329 1_555
Nb2 O46 2.112329 1_455
Nb3 O19 1.997253 1_556
Nb3 O20 1.997253 1_556
Nb3 O18 1.997253 1_556
Nb3 O56 2.058583 1_555
Nb3 O54 2.058583 1_555
Nb3 O55 2.058583 1_555
Nb4 O57 1.959113 1_555
Nb4 O59 1.959113 1_555
Nb4 O58 1.959113 1_555
Nb4 O22 2.083337 1_555
Nb4 O21 2.083337 1_555
Nb4 O23 2.083337 1_555
Nb5 O62 1.940329 1_555
Nb5 O61 1.940329 1_555
Nb5 O60 1.940329 1_555
Nb5 O26 2.035786 1_554
Nb5 O25 2.035786 1_554
Nb5 O24 2.035786 1_554
Nb6 O27 1.944156 1_555
Nb6 O28 1.944156 1_555
Nb6 O29 1.944156 1_555
Nb6 O65 2.000185 1_555
Nb6 O63 2.000185 1_555
Nb6 O64 2.000185 1_555
Nb7 O68 1.952579 1_555
Nb7 O67 1.952579 1_555
Nb7 O66 1.952579 1_555
Nb7 O31 2.091796 1_555
Nb7 O32 2.091796 1_555
Nb7 O30 2.091796 1_555
Nb8 O69 1.967089 1_555
Nb8 O71 1.967089 1_555
Nb8 O70 1.967089 1_555
Nb8 O34 2.070512 1_555
Nb8 O33 2.070512 1_555
Nb8 O35 2.070512 1_555
O0 P0 1.491674 1_545
O1 P1 1.491674 1_555
O2 P2 1.491674 1_655
O3 P3 1.556862 1_555
O4 P4 1.556862 1_555
O5 P5 1.556862 1_555
O6 P5 1.548978 1_555
O7 P3 1.548978 1_555
O8 P4 1.548978 1_555
O9 P1 1.613800 1_555
O10 P2 1.613800 1_555
O11 P0 1.613800 1_555
O12 P6 1.499939 1_555
O13 P7 1.499939 1_555
O14 P8 1.499939 1_555
O15 P9 1.496038 1_555
O16 P10 1.496038 1_555
O17 P11 1.496038 1_555
O18 P11 1.594560 1_555
O19 P9 1.594560 1_555
O20 P10 1.594560 1_555
O21 P7 1.552576 1_555
O22 P8 1.552576 1_555
O23 P6 1.552576 1_555
O24 P12 1.529107 1_555
O25 P13 1.529107 1_555
O26 P14 1.529107 1_555
O27 P15 1.542849 1_555
O28 P16 1.542849 1_555
O29 P17 1.542849 1_555
O30 P17 1.544554 1_555
O31 P15 1.544554 1_555
O32 P16 1.544554 1_555
O33 P13 1.549643 1_555
O34 P14 1.549643 1_555
O35 P12 1.549643 1_555
O36 P17 1.493461 1_555
O37 P15 1.493470 1_555
O38 P16 1.493466 1_555
O39 P13 1.557567 1_555
O40 P14 1.557558 1_555
O41 P12 1.557564 1_555
O42 P6 1.583659 1_555
O43 P7 1.583668 1_555
O44 P8 1.583664 1_555
O45 P9 1.534811 1_555
O46 P10 1.534802 1_555
O47 P11 1.534807 1_555
O48 P5 1.490565 1_545
O49 P3 1.490574 1_555
O50 P4 1.490570 1_655
O51 P1 1.496764 1_555
O52 P2 1.496755 1_655
O53 P0 1.496761 1_545
O54 P12 1.548708 1_555
O55 P13 1.548690 1_655
O56 P14 1.548698 1_545
O57 P15 1.571440 1_545
O58 P16 1.571458 1_555
O59 P17 1.571448 1_655
O60 P11 1.568072 1_555
O61 P9 1.568055 1_455
O62 P10 1.568061 1_565
O63 P7 1.549170 1_565
O64 P8 1.549188 1_555
O65 P6 1.549175 1_455
O66 P0 1.578808 1_555
O67 P1 1.578817 1_555
O68 P2 1.578813 1_555
O69 P3 1.576903 1_555
O70 P4 1.576894 1_555
O71 P5 1.576899 1_555
