# generated using pymatgen
data_NaSnP
_symmetry_space_group_name_H-M   'P 1'
_cell_length_a   3.90226432
_cell_length_b   3.90226492
_cell_length_c   11.60116774
_cell_angle_alpha   90.00000000
_cell_angle_beta   90.00000000
_cell_angle_gamma   120.00000372
_symmetry_Int_Tables_number   1
_chemical_formula_structural   NaSnP
_chemical_formula_sum   'Na2 Sn2 P2'
_cell_volume   152.99095454
_cell_formula_units_Z   2
loop_
 _symmetry_equiv_pos_site_id
 _symmetry_equiv_pos_as_xyz
  1  'x, y, z'
loop_
 _atom_site_type_symbol
 _atom_site_label
 _atom_site_symmetry_multiplicity
 _atom_site_fract_x
 _atom_site_fract_y
 _atom_site_fract_z
 _atom_site_occupancy
  Na  Na0  1  0.33333300  0.66666700  0.27766510  1
  Na  Na1  1  0.66666700  0.33333300  0.77766510  1
  Sn  Sn0  1  0.00000000  0.00000000  0.00021887  1
  Sn  Sn1  1  -0.00000000  0.00000000  0.50021887  1
  P  P0  1  0.33333300  0.66666700  0.61291703  1
  P  P1  1  0.66666700  0.33333300  0.11291703  1
loop_
_geom_bond_atom_site_label_1
_geom_bond_atom_site_label_2
_geom_bond_distance
_geom_bond_site_symmetry_2
Na0 P1 2.954460 1_455
Na0 P1 2.954460 1_565
Na0 P1 2.954465 1_555
Na0 Sn1 3.426661 1_565
Na0 Sn1 3.426663 1_665
Na0 Sn1 3.426663 1_555
Na1 P0 2.954460 1_655
Na1 P0 2.954460 1_545
Na1 P0 2.954465 1_555
Na1 Sn0 3.426661 1_656
Na1 Sn0 3.426663 1_556
Na1 Sn0 3.426663 1_666
P0 Sn1 2.604852 1_565
P0 Sn1 2.604855 1_665
P0 Sn1 2.604855 1_555
P1 Sn0 2.604852 1_655
P1 Sn0 2.604855 1_555
P1 Sn0 2.604855 1_665
