# generated using pymatgen
data_MgV2(HgO3)2
_symmetry_space_group_name_H-M   'P 1'
_cell_length_a   7.23686411
_cell_length_b   13.68991967
_cell_length_c   16.45236919
_cell_angle_alpha   88.85441650
_cell_angle_beta   89.47472675
_cell_angle_gamma   90.63716766
_symmetry_Int_Tables_number   1
_chemical_formula_structural   MgV2(HgO3)2
_chemical_formula_sum   'Mg8 V16 Hg16 O48'
_cell_volume   1629.47213362
_cell_formula_units_Z   8
loop_
 _symmetry_equiv_pos_site_id
 _symmetry_equiv_pos_as_xyz
  1  'x, y, z'
loop_
 _atom_site_type_symbol
 _atom_site_label
 _atom_site_symmetry_multiplicity
 _atom_site_fract_x
 _atom_site_fract_y
 _atom_site_fract_z
 _atom_site_occupancy
  Mg  Mg0_0  1  0.36819051  0.25068674  0.21984524  1
  Mg  Mg0_1  1  0.36819051  0.25068674  0.71984524  1
  Mg  Mg0_2  1  0.36819051  0.75068674  0.21984524  1
  Mg  Mg0_3  1  0.36819051  0.75068674  0.71984524  1
  Mg  Mg0_4  1  0.86819051  0.25068674  0.21984524  1
  Mg  Mg0_5  1  0.86819051  0.25068674  0.71984524  1
  Mg  Mg0_6  1  0.86819051  0.75068674  0.21984524  1
  Mg  Mg0_7  1  0.86819051  0.75068674  0.71984524  1
  V  V0_0  1  0.12039409  0.19170063  0.06883624  1
  V  V0_1  1  0.12039409  0.19170063  0.56883624  1
  V  V0_2  1  0.12039409  0.69170063  0.06883624  1
  V  V0_3  1  0.12039409  0.69170063  0.56883624  1
  V  V0_4  1  0.62039409  0.19170063  0.06883624  1
  V  V0_5  1  0.62039409  0.19170063  0.56883624  1
  V  V0_6  1  0.62039409  0.69170063  0.06883624  1
  V  V0_7  1  0.62039409  0.69170063  0.56883624  1
  V  V1_0  1  0.37545982  0.29528058  0.43636434  1
  V  V1_1  1  0.37545982  0.29528058  0.93636434  1
  V  V1_2  1  0.37545982  0.79528059  0.43636434  1
  V  V1_3  1  0.37545982  0.79528058  0.93636434  1
  V  V1_4  1  0.87545982  0.29528059  0.43636434  1
  V  V1_5  1  0.87545982  0.29528058  0.93636435  1
  V  V1_6  1  0.87545982  0.79528059  0.43636434  1
  V  V1_7  1  0.87545982  0.79528059  0.93636434  1
  Hg  Hg0_0  1  0.14260983  0.04396800  0.32425036  1
  Hg  Hg0_1  1  0.14260983  0.04396800  0.82425036  1
  Hg  Hg0_2  1  0.14260983  0.54396800  0.32425036  1
  Hg  Hg0_3  1  0.14260984  0.54396800  0.82425037  1
  Hg  Hg0_4  1  0.64260983  0.04396800  0.32425036  1
  Hg  Hg0_5  1  0.64260983  0.04396800  0.82425036  1
  Hg  Hg0_6  1  0.64260983  0.54396800  0.32425036  1
  Hg  Hg0_7  1  0.64260984  0.54396800  0.82425036  1
  Hg  Hg1_0  1  0.38190382  0.44914691  0.16419497  1
  Hg  Hg1_1  1  0.38190382  0.44914691  0.66419497  1
  Hg  Hg1_2  1  0.38190382  0.94914691  0.16419497  1
  Hg  Hg1_3  1  0.38190382  0.94914691  0.66419497  1
  Hg  Hg1_4  1  0.88190382  0.44914691  0.16419497  1
  Hg  Hg1_5  1  0.88190381  0.44914691  0.66419497  1
  Hg  Hg1_6  1  0.88190382  0.94914691  0.16419497  1
  Hg  Hg1_7  1  0.88190381  0.94914691  0.66419497  1
  O  O0_0  1  0.11837383  0.21871592  0.17669496  1
  O  O0_1  1  0.11837383  0.21871592  0.67669495  1
  O  O0_2  1  0.11837383  0.71871591  0.17669496  1
  O  O0_3  1  0.11837384  0.71871592  0.67669496  1
  O  O0_4  1  0.61837383  0.21871592  0.17669496  1
  O  O0_5  1  0.61837383  0.21871592  0.67669495  1
  O  O0_6  1  0.61837383  0.71871592  0.17669496  1
  O  O0_7  1  0.61837383  0.71871592  0.67669496  1
  O  O1_0  1  0.37644717  0.27266146  0.33450105  1
  O  O1_1  1  0.37644717  0.27266146  0.83450106  1
  O  O1_2  1  0.37644717  0.77266146  0.33450105  1
  O  O1_3  1  0.37644717  0.77266146  0.83450106  1
  O  O1_4  1  0.87644717  0.27266146  0.33450105  1
  O  O1_5  1  0.87644717  0.27266146  0.83450105  1
  O  O1_6  1  0.87644717  0.77266146  0.33450105  1
  O  O1_7  1  0.87644717  0.77266146  0.83450106  1
  O  O2_0  1  0.11873930  0.07340469  0.06223298  1
  O  O2_1  1  0.11873930  0.07340468  0.56223298  1
  O  O2_2  1  0.11873930  0.57340469  0.06223298  1
  O  O2_3  1  0.11873930  0.57340469  0.56223298  1
  O  O2_4  1  0.61873930  0.07340469  0.06223298  1
  O  O2_5  1  0.61873930  0.07340469  0.56223298  1
  O  O2_6  1  0.61873930  0.57340468  0.06223298  1
  O  O2_7  1  0.61873930  0.57340469  0.56223298  1
  O  O3_0  1  0.37753985  0.41310908  0.44604400  1
  O  O3_1  1  0.37753985  0.41310908  0.94604400  1
  O  O3_2  1  0.37753985  0.91310908  0.44604400  1
  O  O3_3  1  0.37753985  0.91310908  0.94604400  1
  O  O3_4  1  0.87753985  0.41310908  0.44604399  1
  O  O3_5  1  0.87753985  0.41310908  0.94604399  1
  O  O3_6  1  0.87753985  0.91310908  0.44604400  1
  O  O3_7  1  0.87753985  0.91310908  0.94604399  1
  O  O4_0  1  0.37149562  0.23199227  0.05702076  1
  O  O4_1  1  0.37149562  0.23199227  0.55702076  1
  O  O4_2  1  0.37149563  0.73199227  0.05702076  1
  O  O4_3  1  0.37149562  0.73199227  0.55702076  1
  O  O4_4  1  0.87149562  0.23199227  0.05702076  1
  O  O4_5  1  0.87149562  0.23199227  0.55702076  1
  O  O4_6  1  0.87149562  0.73199227  0.05702076  1
  O  O4_7  1  0.87149562  0.73199227  0.55702076  1
  O  O5_0  1  0.12384613  0.25308323  0.46001509  1
  O  O5_1  1  0.12384613  0.25308323  0.96001510  1
  O  O5_2  1  0.12384613  0.75308323  0.46001509  1
  O  O5_3  1  0.12384613  0.75308323  0.96001510  1
  O  O5_4  1  0.62384613  0.25308323  0.46001509  1
  O  O5_5  1  0.62384613  0.25308323  0.96001510  1
  O  O5_6  1  0.62384613  0.75308323  0.46001510  1
  O  O5_7  1  0.62384613  0.75308323  0.96001509  1
loop_
_geom_bond_atom_site_label_1
_geom_bond_atom_site_label_2
_geom_bond_distance
_geom_bond_site_symmetry_2
Mg0_0 O1_0 1.917494 1_555
Mg0_0 O0_4 1.995019 1_555
Mg0_0 O0_0 1.995589 1_555
Mg0_1 O1_1 1.917494 1_555
Mg0_1 O0_5 1.995019 1_555
Mg0_1 O0_1 1.995589 1_555
Mg0_2 O1_2 1.917494 1_555
Mg0_2 O0_6 1.995019 1_555
Mg0_2 O0_2 1.995589 1_555
Mg0_3 O1_3 1.917494 1_555
Mg0_3 O0_7 1.995019 1_555
Mg0_3 O0_3 1.995589 1_555
Mg0_4 O1_4 1.917494 1_555
Mg0_4 O0_0 1.995019 1_655
Mg0_4 O0_4 1.995589 1_555
Mg0_5 O1_5 1.917494 1_555
Mg0_5 O0_1 1.995019 1_655
Mg0_5 O0_5 1.995589 1_555
Mg0_6 O1_6 1.917494 1_555
Mg0_6 O0_2 1.995019 1_655
Mg0_6 O0_6 1.995589 1_555
Mg0_7 O1_7 1.917494 1_555
Mg0_7 O0_3 1.995019 1_655
Mg0_7 O0_7 1.995589 1_555
Hg0_0 O3_2 3.178313 1_545
Hg0_0 O3_6 3.257885 1_445
Hg0_0 O0_0 3.381142 1_555
Hg0_0 Hg1_2 3.423631 1_545
Hg0_0 Hg1_6 3.514567 1_445
Hg0_0 O1_0 3.550005 1_555
Hg0_0 Hg0_4 3.618432 1_555
Hg0_0 Hg0_4 3.618432 1_455
Hg0_0 O5_0 3.669041 1_555
Hg0_0 O1_4 3.699970 1_455
Hg0_0 O2_1 3.946475 1_555
Hg0_1 O3_3 3.178313 1_545
Hg0_1 O3_7 3.257885 1_445
Hg0_1 O0_1 3.381142 1_555
Hg0_1 Hg1_3 3.423631 1_545
Hg0_1 Hg1_7 3.514567 1_445
Hg0_1 O1_1 3.550005 1_555
Hg0_1 Hg0_5 3.618432 1_555
Hg0_1 Hg0_5 3.618432 1_455
Hg0_1 O5_1 3.669041 1_555
Hg0_1 O1_5 3.699970 1_455
Hg0_1 O2_0 3.946475 1_556
Hg0_2 O3_0 3.178313 1_555
Hg0_2 O3_4 3.257885 1_455
Hg0_2 O0_2 3.381142 1_555
Hg0_2 Hg1_0 3.423631 1_555
Hg0_2 Hg1_4 3.514567 1_455
Hg0_2 O1_2 3.550005 1_555
Hg0_2 Hg0_6 3.618432 1_555
Hg0_2 Hg0_6 3.618432 1_455
Hg0_2 O5_2 3.669041 1_555
Hg0_2 O1_6 3.699970 1_455
Hg0_2 O2_3 3.946475 1_555
Hg0_3 O3_1 3.178313 1_555
Hg0_3 O3_5 3.257885 1_455
Hg0_3 O0_3 3.381142 1_555
Hg0_3 Hg1_1 3.423631 1_555
Hg0_3 Hg1_5 3.514567 1_455
Hg0_3 O1_3 3.550005 1_555
Hg0_3 Hg0_7 3.618432 1_555
Hg0_3 Hg0_7 3.618432 1_455
Hg0_3 O5_3 3.669041 1_555
Hg0_3 O1_7 3.699970 1_455
Hg0_3 O2_2 3.946475 1_556
Hg0_4 O3_6 3.178313 1_545
Hg0_4 O3_2 3.257885 1_545
Hg0_4 O0_4 3.381142 1_555
Hg0_4 Hg1_6 3.423631 1_545
Hg0_4 Hg1_2 3.514567 1_545
Hg0_4 O1_4 3.550005 1_555
Hg0_4 O5_4 3.669041 1_555
Hg0_4 O1_0 3.699970 1_555
Hg0_4 O2_5 3.946475 1_555
Hg0_5 O3_7 3.178313 1_545
Hg0_5 O3_3 3.257885 1_545
Hg0_5 O0_5 3.381142 1_555
Hg0_5 Hg1_7 3.423631 1_545
Hg0_5 Hg1_3 3.514567 1_545
Hg0_5 O1_5 3.550005 1_555
Hg0_5 O5_5 3.669041 1_555
Hg0_5 O1_1 3.699970 1_555
Hg0_5 O2_4 3.946475 1_556
Hg0_6 O3_4 3.178313 1_555
Hg0_6 O3_0 3.257885 1_555
Hg0_6 O0_6 3.381142 1_555
Hg0_6 Hg1_4 3.423631 1_555
Hg0_6 Hg1_0 3.514567 1_555
Hg0_6 O1_6 3.550005 1_555
Hg0_6 O5_6 3.669041 1_555
Hg0_6 O1_2 3.699970 1_555
Hg0_6 O2_7 3.946475 1_555
Hg0_7 O3_5 3.178313 1_555
Hg0_7 O3_1 3.257885 1_555
Hg0_7 O0_7 3.381142 1_555
Hg0_7 Hg1_5 3.423631 1_555
Hg0_7 Hg1_1 3.514567 1_555
Hg0_7 O1_7 3.550005 1_555
Hg0_7 O5_7 3.669041 1_555
Hg0_7 O1_3 3.699970 1_555
Hg0_7 O2_6 3.946475 1_556
Hg1_0 Mg0_0 2.850012 1_555
Hg1_0 O2_6 2.900634 1_555
Hg1_0 O2_2 3.057994 1_555
Hg1_0 O4_0 3.487057 1_555
Hg1_0 Hg1_4 3.618432 1_455
Hg1_0 Hg1_4 3.618432 1_555
Hg1_0 O3_1 3.632984 1_554
Hg1_1 Mg0_1 2.850012 1_555
Hg1_1 O2_7 2.900634 1_555
Hg1_1 O2_3 3.057994 1_555
Hg1_1 O4_1 3.487057 1_555
Hg1_1 Hg1_5 3.618432 1_555
Hg1_1 Hg1_5 3.618432 1_455
Hg1_1 O3_0 3.632984 1_555
Hg1_2 Mg0_2 2.850012 1_555
Hg1_2 O2_4 2.900634 1_565
Hg1_2 O2_0 3.057994 1_565
Hg1_2 O4_2 3.487057 1_555
Hg1_2 Hg1_6 3.618432 1_455
Hg1_2 Hg1_6 3.618432 1_555
Hg1_2 O3_3 3.632984 1_554
Hg1_3 Mg0_3 2.850012 1_555
Hg1_3 O2_5 2.900634 1_565
Hg1_3 O2_1 3.057994 1_565
Hg1_3 O4_3 3.487057 1_555
Hg1_3 Hg1_7 3.618432 1_555
Hg1_3 Hg1_7 3.618432 1_455
Hg1_3 O3_2 3.632984 1_555
Hg1_4 Mg0_4 2.850012 1_555
Hg1_4 O2_2 2.900634 1_655
Hg1_4 O2_6 3.057994 1_555
Hg1_4 O4_4 3.487057 1_555
Hg1_4 O3_5 3.632984 1_554
Hg1_5 Mg0_5 2.850012 1_555
Hg1_5 O2_3 2.900634 1_655
Hg1_5 O2_7 3.057994 1_555
Hg1_5 O4_5 3.487057 1_555
Hg1_5 O3_4 3.632984 1_555
Hg1_6 Mg0_6 2.850012 1_555
Hg1_6 O2_0 2.900634 1_665
Hg1_6 O2_4 3.057994 1_565
Hg1_6 O4_6 3.487057 1_555
Hg1_6 O3_7 3.632984 1_554
Hg1_7 Mg0_7 2.850012 1_555
Hg1_7 O2_1 2.900634 1_665
Hg1_7 O2_5 3.057994 1_565
Hg1_7 O4_7 3.487057 1_555
Hg1_7 O3_6 3.632984 1_555
O0_0 V0_0 1.819847 1_555
O0_1 V0_1 1.819847 1_555
O0_2 V0_2 1.819847 1_555
O0_3 V0_3 1.819847 1_555
O0_4 V0_4 1.819847 1_555
O0_5 V0_5 1.819847 1_555
O0_6 V0_6 1.819847 1_555
O0_7 V0_7 1.819847 1_555
O1_0 V1_0 1.710302 1_555
O1_1 V1_1 1.710302 1_555
O1_2 V1_2 1.710302 1_555
O1_3 V1_3 1.710302 1_555
O1_4 V1_4 1.710302 1_555
O1_5 V1_5 1.710302 1_555
O1_6 V1_6 1.710302 1_555
O1_7 V1_7 1.710302 1_555
O2_0 V0_0 1.625186 1_555
O2_1 V0_1 1.625186 1_555
O2_2 V0_2 1.625186 1_555
O2_3 V0_3 1.625186 1_555
O2_4 V0_4 1.625186 1_555
O2_5 V0_5 1.625186 1_555
O2_6 V0_6 1.625186 1_555
O2_7 V0_7 1.625186 1_555
O3_0 V1_0 1.623987 1_555
O3_1 V1_1 1.623987 1_555
O3_2 V1_2 1.623987 1_555
O3_3 V1_3 1.623987 1_555
O3_4 V1_4 1.623987 1_555
O3_5 V1_5 1.623987 1_555
O3_6 V1_6 1.623987 1_555
O3_7 V1_7 1.623987 1_555
O4_0 V0_4 1.900198 1_555
O4_0 V0_0 1.900303 1_555
O4_0 V1_1 2.149810 1_554
O4_0 O5_5 2.425285 1_554
O4_0 O5_1 2.426525 1_554
O4_1 V0_5 1.900198 1_555
O4_1 V0_1 1.900303 1_555
O4_1 V1_0 2.149810 1_555
O4_1 O5_4 2.425285 1_555
O4_1 O5_0 2.426525 1_555
O4_2 V0_6 1.900198 1_555
O4_2 V0_2 1.900303 1_555
O4_2 V1_3 2.149810 1_554
O4_2 O5_7 2.425285 1_554
O4_2 O5_3 2.426525 1_554
O4_3 V0_7 1.900198 1_555
O4_3 V0_3 1.900303 1_555
O4_3 V1_2 2.149810 1_555
O4_3 O5_6 2.425285 1_555
O4_3 O5_2 2.426525 1_555
O4_4 V0_0 1.900198 1_655
O4_4 V0_4 1.900303 1_555
O4_4 V1_5 2.149810 1_554
O4_4 O5_1 2.425285 1_654
O4_4 O5_5 2.426525 1_554
O4_5 V0_1 1.900198 1_655
O4_5 V0_5 1.900303 1_555
O4_5 V1_4 2.149810 1_555
O4_5 O5_0 2.425285 1_655
O4_5 O5_4 2.426525 1_555
O4_6 V0_2 1.900198 1_655
O4_6 V0_6 1.900303 1_555
O4_6 V1_7 2.149810 1_554
O4_6 O5_3 2.425285 1_654
O4_6 O5_7 2.426525 1_554
O4_7 V0_3 1.900198 1_655
O4_7 V0_7 1.900303 1_555
O4_7 V1_6 2.149810 1_555
O4_7 O5_2 2.425285 1_655
O4_7 O5_6 2.426525 1_555
O5_0 V1_4 1.934734 1_455
O5_0 V1_0 1.937886 1_555
O5_0 V0_1 1.962328 1_555
O5_1 V1_5 1.934734 1_455
O5_1 V1_1 1.937886 1_555
O5_1 V0_0 1.962328 1_556
O5_2 V1_6 1.934734 1_455
O5_2 V1_2 1.937886 1_555
O5_2 V0_3 1.962328 1_555
O5_3 V1_7 1.934734 1_455
O5_3 V1_3 1.937886 1_555
O5_3 V0_2 1.962328 1_556
O5_4 V1_0 1.934734 1_555
O5_4 V1_4 1.937886 1_555
O5_4 V0_5 1.962328 1_555
O5_5 V1_1 1.934734 1_555
O5_5 V1_5 1.937886 1_555
O5_5 V0_4 1.962328 1_556
O5_6 V1_2 1.934734 1_555
O5_6 V1_6 1.937886 1_555
O5_6 V0_7 1.962328 1_555
O5_7 V1_3 1.934734 1_555
O5_7 V1_7 1.937886 1_555
O5_7 V0_6 1.962328 1_556
