# generated using pymatgen
data_Na14La4Ta4Si11SO48
_symmetry_space_group_name_H-M   'P 1'
_cell_length_a   18.87250070
_cell_length_b   9.42636130
_cell_length_c   22.88810414
_cell_angle_alpha   89.83244105
_cell_angle_beta   90.04868641
_cell_angle_gamma   119.96129053
_symmetry_Int_Tables_number   1
_chemical_formula_structural   Na14La4Ta4Si11SO48
_chemical_formula_sum   'Na42 La12 Ta12 Si33 S3 O144'
_cell_volume   3527.61588030
_cell_formula_units_Z   3
loop_
 _symmetry_equiv_pos_site_id
 _symmetry_equiv_pos_as_xyz
  1  'x, y, z'
loop_
 _atom_site_type_symbol
 _atom_site_label
 _atom_site_symmetry_multiplicity
 _atom_site_fract_x
 _atom_site_fract_y
 _atom_site_fract_z
 _atom_site_occupancy
  Na  Na0  1  0.32782937  0.99902661  0.24952905  1
  Na  Na1  1  0.82898422  0.00073340  0.24947305  1
  Na  Na2  1  0.32911235  0.64988938  0.74667412  1
  Na  Na3  1  0.82237494  0.64246310  0.74750216  1
  Na  Na4  1  0.49206624  0.35906615  0.74497200  1
  Na  Na5  1  0.67644541  0.00895658  0.75151341  1
  Na  Na6  1  0.14838367  0.32799205  0.57925205  1
  Na  Na7  1  0.65676684  0.32553978  0.58019668  1
  Na  Na8  1  0.01191827  0.69945079  0.58545017  1
  Na  Na9  1  0.51068228  0.68837119  0.58272535  1
  Na  Na10  1  0.32951418  0.98292168  0.58131013  1
  Na  Na11  1  0.84071532  0.97398760  0.58774121  1
  Na  Na12  1  0.14427775  0.95291584  0.07803306  1
  Na  Na13  1  0.64421059  0.95279623  0.07751636  1
  Na  Na14  1  0.33223169  0.71536936  0.08334346  1
  Na  Na15  1  0.83275949  0.71538707  0.08457386  1
  Na  Na16  1  0.02512206  0.33675480  0.08360899  1
  Na  Na17  1  0.52452220  0.33620272  0.08369675  1
  Na  Na18  1  0.48603072  0.68213026  0.91265568  1
  Na  Na19  1  0.98606235  0.67613797  0.91394104  1
  Na  Na20  1  0.35510065  0.02318535  0.91327358  1
  Na  Na21  1  0.85429214  0.02972139  0.91366954  1
  Na  Na22  1  0.15892239  0.29911043  0.91933418  1
  Na  Na23  1  0.66123421  0.29495798  0.91462928  1
  Na  Na24  1  0.47409475  0.28159540  0.41405146  1
  Na  Na25  1  0.97590130  0.28668763  0.41669164  1
  Na  Na26  1  0.16796799  0.04756620  0.42322606  1
  Na  Na27  1  0.66628635  0.04562053  0.42062883  1
  Na  Na28  1  0.35590113  0.66525753  0.41469712  1
  Na  Na29  1  0.85776236  0.66165391  0.41638946  1
  Na  Na30  1  0.00139947  0.99763861  0.50103652  1
  Na  Na31  1  0.49874200  0.99983311  0.49452558  1
  Na  Na32  1  -0.00002457  0.00219045  0.00014435  1
  Na  Na33  1  0.49949655  0.99871289  0.99824457  1
  Na  Na34  1  0.33559492  0.32246377  0.82952301  1
  Na  Na35  1  0.84261232  0.33365806  0.83195271  1
  Na  Na36  1  0.34125168  0.35810070  0.33319050  1
  Na  Na37  1  0.84257980  0.36130437  0.33288358  1
  Na  Na38  1  0.16210150  0.64014875  0.16780801  1
  Na  Na39  1  0.66203728  0.64011591  0.16794720  1
  Na  Na40  1  0.16077202  0.68561217  0.66998803  1
  Na  Na41  1  0.66717843  0.66656336  0.66813986  1
  La  La0  1  0.99472974  0.99350505  0.34780690  1
  La  La1  1  0.49448548  0.99326552  0.34693847  1
  La  La2  1  0.99398255  0.99128626  0.83969590  1
  La  La3  1  0.50464561  0.00765250  0.84127664  1
  La  La4  1  0.00065054  0.99094083  0.65977609  1
  La  La5  1  0.99801300  0.00662835  0.15120335  1
  La  La6  1  0.49773494  0.00623023  0.15066875  1
  La  La7  1  0.33005862  0.32465148  0.67331416  1
  La  La8  1  0.33843368  0.33848442  0.48404459  1
  La  La9  1  0.83087608  0.32506214  0.48336641  1
  La  La10  1  0.16685262  0.66699757  0.01876181  1
  La  La11  1  0.66843671  0.66673268  0.02090566  1
  Ta  Ta0  1  0.49905846  0.99844877  0.65571484  1
  Ta  Ta1  1  0.83441233  0.33299454  0.67898240  1
  Ta  Ta2  1  0.33748066  0.34778823  0.18436401  1
  Ta  Ta3  1  0.83811463  0.34887628  0.18443935  1
  Ta  Ta4  1  0.33366301  0.33583581  0.97668062  1
  Ta  Ta5  1  0.83365834  0.33308477  0.97668483  1
  Ta  Ta6  1  0.16403286  0.66527422  0.51848295  1
  Ta  Ta7  1  0.66885441  0.66527242  0.52084646  1
  Ta  Ta8  1  0.16390714  0.65173717  0.31555402  1
  Ta  Ta9  1  0.66361909  0.65191485  0.31505840  1
  Ta  Ta10  1  0.16802213  0.67787797  0.82184773  1
  Ta  Ta11  1  0.66460879  0.66899050  0.81821821  1
  Si  Si0  1  0.33706955  0.67834882  0.25051237  1
  Si  Si1  1  0.83712740  0.67884630  0.25042334  1
  Si  Si2  1  0.99791582  0.32147962  0.24968451  1
  Si  Si3  1  0.49753015  0.32132582  0.24954663  1
  Si  Si4  1  0.65672331  0.31379418  0.74922380  1
  Si  Si5  1  0.99967221  0.66520643  0.74929348  1
  Si  Si6  1  0.50187503  0.69241308  0.75396913  1
  Si  Si7  1  0.34302022  0.99070247  0.75472286  1
  Si  Si8  1  0.83620287  0.99899991  0.75065944  1
  Si  Si9  1  0.49357559  0.32781071  0.58398965  1
  Si  Si10  1  0.98686689  0.33773773  0.58098653  1
  Si  Si11  1  0.17498985  0.01608923  0.57539490  1
  Si  Si12  1  0.67749363  0.02430738  0.58447103  1
  Si  Si13  1  0.33478621  0.65706421  0.58493528  1
  Si  Si14  1  0.83143823  0.63475440  0.57998832  1
  Si  Si15  1  0.47333240  0.61958258  0.08060495  1
  Si  Si16  1  0.97328919  0.61964596  0.07999566  1
  Si  Si17  1  0.33473697  0.05962991  0.08385643  1
  Si  Si18  1  0.83515634  0.05961235  0.08451205  1
  Si  Si19  1  0.19281236  0.32636978  0.08223372  1
  Si  Si20  1  0.69325438  0.32506024  0.08223987  1
  Si  Si21  1  0.31591618  0.65886087  0.91784114  1
  Si  Si22  1  0.81366244  0.65504557  0.91636277  1
  Si  Si23  1  0.01586767  0.37001865  0.91959000  1
  Si  Si24  1  0.51346976  0.37249563  0.91811484  1
  Si  Si25  1  0.17138562  0.97806951  0.91872503  1
  Si  Si26  1  0.67198968  0.97347768  0.92002284  1
  Si  Si27  1  0.30580277  0.94622371  0.41413555  1
  Si  Si28  1  0.80597166  0.94292294  0.41555185  1
  Si  Si29  1  0.16556579  0.37859415  0.41990173  1
  Si  Si30  1  0.66518155  0.37960217  0.41761865  1
  Si  Si31  1  0.02585215  0.66797127  0.41532552  1
  Si  Si32  1  0.53005694  0.67376906  0.41836678  1
  S  S0  1  0.16327720  0.99982746  0.24995840  1
  S  S1  1  0.66322157  0.00007174  0.24990850  1
  S  S2  1  0.16151804  0.33702742  0.75586075  1
  O  O0  1  0.12518080  0.02274374  0.30263900  1
  O  O1  1  0.62468038  0.02207737  0.30269026  1
  O  O2  1  0.39133480  0.75020146  0.30995535  1
  O  O3  1  0.89129739  0.75045882  0.30958255  1
  O  O4  1  0.47619179  0.19723559  0.30564026  1
  O  O5  1  0.97555454  0.19699428  0.30551989  1
  O  O6  1  0.11999847  0.23996953  0.80816603  1
  O  O7  1  0.63887212  0.21419579  0.80990413  1
  O  O8  1  0.48942947  0.75834573  0.81534211  1
  O  O9  1  0.97237935  0.73562004  0.80430969  1
  O  O10  1  0.38909120  0.01748396  0.81608026  1
  O  O11  1  0.88863644  0.03815787  0.80981489  1
  O  O12  1  0.40605992  0.97795937  0.70281716  1
  O  O13  1  0.87318972  0.94642639  0.69584578  1
  O  O14  1  0.11743809  0.25511281  0.70157973  1
  O  O15  1  0.58345583  0.19035225  0.70197801  1
  O  O16  1  0.01879090  0.77280509  0.68971655  1
  O  O17  1  0.50829067  0.82841916  0.70234078  1
  O  O18  1  0.37838635  0.80499690  0.19549726  1
  O  O19  1  0.87780355  0.80452243  0.19500282  1
  O  O20  1  0.01565823  0.24765556  0.19076018  1
  O  O21  1  0.51592941  0.24789100  0.19090741  1
  O  O22  1  0.11365623  0.97767461  0.19719003  1
  O  O23  1  0.61346656  0.97700071  0.19733949  1
  O  O24  1  0.45916809  0.38239207  0.63927511  1
  O  O25  1  0.92328099  0.35026311  0.63030931  1
  O  O26  1  0.23905863  0.08743354  0.62938312  1
  O  O27  1  0.74774592  0.14073657  0.63298585  1
  O  O28  1  0.30900520  0.53972074  0.64216117  1
  O  O29  1  0.82487010  0.50345531  0.63233084  1
  O  O30  1  0.41642127  0.51474830  0.13770435  1
  O  O31  1  0.91664793  0.51508721  0.13718551  1
  O  O32  1  0.33916771  0.16695312  0.14204207  1
  O  O33  1  0.83997251  0.16806892  0.14226832  1
  O  O34  1  0.24583577  0.31560727  0.13743234  1
  O  O35  1  0.74627431  0.31450693  0.13727753  1
  O  O36  1  0.24419659  0.33039283  0.02138614  1
  O  O37  1  0.74501612  0.32994005  0.02111373  1
  O  O38  1  0.42035266  0.51392026  0.02170859  1
  O  O39  1  0.92058009  0.51355911  0.02082694  1
  O  O40  1  0.33469010  0.16514211  0.02421316  1
  O  O41  1  0.83473342  0.16463508  0.02441849  1
  O  O42  1  0.21480867  0.13084170  0.51809290  1
  O  O43  1  0.69897579  0.12681701  0.52368147  1
  O  O44  1  0.36460871  0.58835904  0.53044662  1
  O  O45  1  0.84460328  0.56639542  0.51875887  1
  O  O46  1  0.43272583  0.27063640  0.52783146  1
  O  O47  1  0.93743456  0.29448598  0.51974777  1
  O  O48  1  0.28240197  0.69111238  0.97842665  1
  O  O49  1  0.78271392  0.69104932  0.97701578  1
  O  O50  1  0.06104673  0.42517789  0.98223157  1
  O  O51  1  0.56350777  0.44228850  0.97794651  1
  O  O52  1  0.14881988  0.87538030  0.97892016  1
  O  O53  1  0.65770275  0.87691319  0.98066084  1
  O  O54  1  0.24895447  0.83716930  0.47107517  1
  O  O55  1  0.75453639  0.84321942  0.47661885  1
  O  O56  1  0.16355217  0.47723673  0.47995620  1
  O  O57  1  0.67047347  0.49560108  0.47462797  1
  O  O58  1  0.07513177  0.65617194  0.47393871  1
  O  O59  1  0.57877163  0.66760479  0.47938950  1
  O  O60  1  0.08466098  0.67739131  0.36056991  1
  O  O61  1  0.58719200  0.68162558  0.36309649  1
  O  O62  1  0.25605121  0.84077691  0.35585120  1
  O  O63  1  0.75497905  0.83257452  0.35859103  1
  O  O64  1  0.16301737  0.48846480  0.36340760  1
  O  O65  1  0.65972708  0.48255792  0.36054879  1
  O  O66  1  0.07955100  0.50997608  0.87003517  1
  O  O67  1  0.57030651  0.49700725  0.86145766  1
  O  O68  1  0.18092223  0.85958302  0.86614197  1
  O  O69  1  0.67329013  0.84907467  0.86580100  1
  O  O70  1  0.25092943  0.64559935  0.86386423  1
  O  O71  1  0.74925193  0.64477031  0.86152574  1
  O  O72  1  0.02364807  0.83822349  0.41898535  1
  O  O73  1  0.52506390  0.84121744  0.42081841  1
  O  O74  1  0.39438594  0.95387100  0.41984378  1
  O  O75  1  0.89494849  0.95450439  0.42012679  1
  O  O76  1  0.08294625  0.20083361  0.41943535  1
  O  O77  1  0.58052005  0.20493297  0.42155765  1
  O  O78  1  0.99909885  0.18679710  0.90693011  1
  O  O79  1  0.49789975  0.18880998  0.91024953  1
  O  O80  1  0.09876811  0.01535965  0.90311136  1
  O  O81  1  0.59813219  0.01208878  0.91256779  1
  O  O82  1  0.40847854  0.80842075  0.90960778  1
  O  O83  1  0.90645518  0.80512561  0.90735728  1
  O  O84  1  0.50859138  0.17158872  0.59921628  1
  O  O85  1  0.00559515  0.19254339  0.59759684  1
  O  O86  1  0.08436350  0.99340471  0.58359330  1
  O  O87  1  0.58656914  0.99231787  0.60568835  1
  O  O88  1  0.41593682  0.84283806  0.59894825  1
  O  O89  1  0.90643678  0.81801300  0.59076999  1
  O  O90  1  0.47811063  0.79630295  0.07867155  1
  O  O91  1  0.97756938  0.79599124  0.07806571  1
  O  O92  1  0.41838460  0.04874836  0.07906364  1
  O  O93  1  0.91863615  0.04857476  0.07888420  1
  O  O94  1  0.10459695  0.15778673  0.07925851  1
  O  O95  1  0.60493866  0.15762521  0.07915203  1
  O  O96  1  0.33593385  0.15111791  0.74164128  1
  O  O97  1  0.81851075  0.15153953  0.73538569  1
  O  O98  1  0.24678074  0.36620640  0.75531179  1
  O  O99  1  0.74629784  0.34586304  0.72639206  1
  O  O100  1  0.42536352  0.51217681  0.74217872  1
  O  O101  1  0.91513709  0.48346908  0.73612268  1
  O  O102  1  0.32284677  0.49286796  0.23903424  1
  O  O103  1  0.82273137  0.49320953  0.23866751  1
  O  O104  1  0.41365708  0.33597111  0.24215591  1
  O  O105  1  0.91436285  0.33777627  0.24194621  1
  O  O106  1  0.24790163  0.14526189  0.24463667  1
  O  O107  1  0.74765456  0.14537537  0.24465901  1
  O  O108  1  0.31280082  0.47817538  0.91802099  1
  O  O109  1  0.81314744  0.47770881  0.91645983  1
  O  O110  1  0.42594428  0.37527486  0.91772888  1
  O  O111  1  0.92767893  0.37304693  0.91841779  1
  O  O112  1  0.26142105  0.14917309  0.91927967  1
  O  O113  1  0.76282308  0.14588784  0.91780890  1
  O  O114  1  0.31461999  0.12719503  0.41185475  1
  O  O115  1  0.80883929  0.11822563  0.41175436  1
  O  O116  1  0.25167036  0.37925111  0.41522051  1
  O  O117  1  0.74778251  0.36925977  0.41133790  1
  O  O118  1  0.44196941  0.50579003  0.41368945  1
  O  O119  1  0.93679284  0.50233165  0.41142635  1
  O  O120  1  0.18811414  0.49312518  0.08905232  1
  O  O121  1  0.68892691  0.49184448  0.08959326  1
  O  O122  1  0.06001427  0.62590879  0.08814390  1
  O  O123  1  0.55979868  0.62494365  0.08893019  1
  O  O124  1  0.25168962  0.88197373  0.08885288  1
  O  O125  1  0.75240208  0.88247214  0.09051314  1
  O  O126  1  0.16334605  0.82961678  0.57013821  1
  O  O127  1  0.67203345  0.84218491  0.58106344  1
  O  O128  1  0.25566490  0.68307017  0.57180814  1
  O  O129  1  0.74503746  0.64333865  0.58096922  1
  O  O130  1  0.07592355  0.51161835  0.58043006  1
  O  O131  1  0.58506506  0.48939648  0.57288305  1
  O  O132  1  0.17478692  0.85374399  0.25515903  1
  O  O133  1  0.67505984  0.85430829  0.25561583  1
  O  O134  1  0.24582925  0.66385749  0.25825558  1
  O  O135  1  0.74567104  0.66435989  0.25820135  1
  O  O136  1  0.07749834  0.50587353  0.26121767  1
  O  O137  1  0.57625030  0.50713724  0.26117166  1
  O  O138  1  0.16506511  0.49897504  0.75813470  1
  O  O139  1  0.65884318  0.49144537  0.75482849  1
  O  O140  1  0.08297430  0.65618217  0.76572218  1
  O  O141  1  0.58915991  0.68895109  0.75551860  1
  O  O142  1  0.25518293  0.81345738  0.75700601  1
  O  O143  1  0.74537828  0.83203275  0.76241560  1
loop_
_geom_bond_atom_site_label_1
_geom_bond_atom_site_label_2
_geom_bond_distance
_geom_bond_site_symmetry_2
Na0 O106 2.502757 1_565
Na0 O132 2.506609 1_555
Na0 O134 2.744077 1_555
Na0 O18 2.746505 1_555
Na0 O104 2.756598 1_565
Na0 O4 2.786161 1_565
Na0 O62 2.819263 1_555
Na0 O32 2.871188 1_565
Na1 O107 2.513197 1_555
Na1 O133 2.521554 1_545
Na1 O19 2.746190 1_545
Na1 O135 2.753747 1_545
Na1 O105 2.757512 1_555
Na1 O5 2.759739 1_555
Na1 O33 2.864139 1_555
Na1 O63 2.910721 1_545
Na2 O98 2.334837 1_555
Na2 O142 2.555644 1_555
Na2 O28 2.562028 1_555
Na2 O138 2.697724 1_555
Na2 O100 2.711418 1_555
Na2 O12 2.859850 1_555
Na2 O70 3.052829 1_555
Na2 O8 3.095363 1_555
Na2 O17 3.099729 1_555
Na3 O99 2.471624 1_555
Na3 O139 2.681560 1_555
Na3 O13 2.786548 1_555
Na3 O9 2.827257 1_555
Na3 O101 2.828884 1_555
Na3 O143 2.831836 1_555
Na3 O29 2.958044 1_555
Na3 O71 2.958431 1_555
Na4 O100 2.342198 1_555
Na4 O24 2.533191 1_555
Na4 O96 2.600385 1_555
Na4 O141 2.719910 1_555
Na4 O139 2.755394 1_555
Na4 O67 3.012504 1_555
Na4 O15 3.037130 1_555
Na4 O10 3.243118 1_555
Na4 O12 3.265668 1_545
Na5 O97 2.351724 1_555
Na5 O143 2.588472 1_545
Na5 O141 2.618509 1_545
Na5 O7 2.723754 1_555
Na5 O99 2.821895 1_555
Na5 O17 2.974004 1_545
Na5 O69 3.000837 1_545
Na5 O27 3.005054 1_555
Na5 O15 3.204932 1_555
Na6 O85 2.372859 1_555
Na6 O56 2.608911 1_555
Na6 O130 2.689149 1_555
Na6 O86 2.758476 1_545
Na6 O14 2.871057 1_555
Na6 O128 2.925710 1_555
Na6 O28 3.035124 1_555
Na6 O42 3.054487 1_555
Na7 O84 2.461808 1_555
Na7 O131 2.516071 1_555
Na7 O129 2.601011 1_555
Na7 O43 2.706129 1_555
Na7 O87 2.792134 1_545
Na7 O57 2.835362 1_555
Na7 O29 2.998717 1_555
Na7 O15 3.087421 1_555
Na7 O27 3.227121 1_555
Na8 O86 2.400930 1_555
Na8 O16 2.471777 1_555
Na8 O126 2.508434 1_555
Na8 O130 2.597101 1_555
Na8 O89 2.729504 1_455
Na8 O58 2.932785 1_555
Na8 O25 3.028258 1_455
Na8 O45 3.149777 1_455
Na9 O87 2.538742 1_555
Na9 O127 2.639364 1_555
Na9 O44 2.706552 1_555
Na9 O59 2.746397 1_555
Na9 O88 2.839019 1_555
Na9 O24 2.849375 1_555
Na9 O131 2.858699 1_555
Na9 O17 3.053042 1_555
Na10 O128 2.459113 1_555
Na10 O88 2.591100 1_555
Na10 O26 2.604773 1_565
Na10 O46 2.712180 1_565
Na10 O126 2.731758 1_555
Na10 O54 2.914168 1_555
Na10 O84 2.958245 1_565
Na10 O12 3.143774 1_555
Na11 O89 2.350674 1_555
Na11 O13 2.591914 1_555
Na11 O129 2.716618 1_555
Na11 O85 2.752500 1_665
Na11 O127 2.784070 1_555
Na11 O55 2.939778 1_555
Na11 O47 3.057807 1_565
Na11 O27 3.064120 1_565
Na11 O25 3.233437 1_565
Na12 O94 2.394987 1_565
Na12 O52 2.400054 1_554
Na12 O124 2.443352 1_555
Na12 O122 2.680381 1_555
Na12 O91 2.727308 1_455
Na12 O22 2.822694 1_555
Na13 O53 2.383910 1_554
Na13 O95 2.389246 1_565
Na13 O125 2.459029 1_555
Na13 O123 2.689884 1_555
Na13 O90 2.717422 1_555
Na13 O23 2.837030 1_555
Na14 O90 2.464780 1_555
Na14 O120 2.472090 1_555
Na14 O48 2.547100 1_554
Na14 O124 2.679298 1_555
Na14 O18 2.708464 1_555
Na14 O92 2.724656 1_565
Na14 O30 3.260836 1_555
Na15 O91 2.448334 1_555
Na15 O121 2.471384 1_555
Na15 O49 2.605393 1_554
Na15 O19 2.666885 1_555
Na15 O125 2.680746 1_555
Na15 O93 2.724268 1_565
Na15 O31 3.238922 1_555
Na16 O50 2.442393 1_554
Na16 O93 2.445047 1_455
Na16 O122 2.466263 1_555
Na16 O20 2.567267 1_555
Na16 O120 2.668707 1_555
Na16 O94 2.763011 1_555
Na17 O92 2.438402 1_555
Na17 O123 2.461199 1_555
Na17 O21 2.567985 1_555
Na17 O51 2.579488 1_554
Na17 O121 2.692819 1_555
Na17 O95 2.775025 1_555
Na18 O82 2.303011 1_555
Na18 O8 2.329396 1_555
Na18 O110 2.527479 1_555
Na18 O81 2.752695 1_565
Na18 O108 2.849699 1_555
Na18 O38 2.880913 1_556
Na18 O67 3.120153 1_555
Na18 O53 3.218256 1_555
Na19 O83 2.362494 1_555
Na19 O111 2.498283 1_555
Na19 O9 2.610118 1_555
Na19 O39 2.819988 1_556
Na19 O80 2.830776 1_665
Na19 O109 2.837993 1_555
Na19 O66 3.057559 1_655
Na19 O52 3.069307 1_655
Na20 O10 2.323934 1_555
Na20 O79 2.345690 1_555
Na20 O112 2.579453 1_555
Na20 O82 2.675512 1_545
Na20 O110 2.895300 1_555
Na20 O40 2.987120 1_556
Na20 O68 3.047590 1_545
Na20 O48 3.096944 1_545
Na21 O78 2.375367 1_555
Na21 O11 2.454948 1_555
Na21 O113 2.465149 1_555
Na21 O83 2.748817 1_545
Na21 O111 2.815760 1_555
Na21 O41 2.944196 1_556
Na21 O49 3.128486 1_545
Na21 O69 3.156479 1_545
Na22 O80 2.356487 1_555
Na22 O108 2.527323 1_555
Na22 O6 2.630704 1_555
Na22 O78 2.666466 1_455
Na22 O36 2.767021 1_556
Na22 O112 2.910388 1_555
Na22 O50 3.017231 1_555
Na22 O70 3.099903 1_555
Na23 O81 2.314998 1_555
Na23 O7 2.488199 1_555
Na23 O109 2.501214 1_555
Na23 O79 2.726269 1_555
Na23 O37 2.833071 1_556
Na23 O113 2.888899 1_555
Na23 O71 3.101414 1_555
Na23 O51 3.163111 1_555
Na24 O77 2.456479 1_555
Na24 O118 2.472556 1_555
Na24 O114 2.608435 1_555
Na24 O4 2.614200 1_555
Na24 O74 2.679585 1_545
Na24 O46 2.706186 1_555
Na24 O65 3.275134 1_555
Na25 O47 2.480605 1_555
Na25 O119 2.487624 1_555
Na25 O76 2.524408 1_655
Na25 O5 2.682619 1_555
Na25 O75 2.713975 1_545
Na25 O115 2.733987 1_555
Na26 O42 2.329354 1_555
Na26 O72 2.440109 1_545
Na26 O114 2.493255 1_555
Na26 O76 2.642731 1_555
Na26 O116 2.714480 1_555
Na26 O0 2.852319 1_555
Na27 O73 2.384656 1_545
Na27 O115 2.430750 1_555
Na27 O43 2.462974 1_555
Na27 O117 2.651018 1_555
Na27 O77 2.702547 1_555
Na27 O1 2.788971 1_555
Na28 O116 2.416773 1_555
Na28 O74 2.443563 1_555
Na28 O2 2.508434 1_555
Na28 O118 2.708810 1_555
Na28 O73 2.770285 1_555
Na28 O44 2.770952 1_555
Na29 O45 2.474624 1_555
Na29 O75 2.487268 1_555
Na29 O117 2.491092 1_555
Na29 O3 2.557125 1_555
Na29 O119 2.594537 1_555
Na29 O72 2.714879 1_655
Na30 O86 2.465876 1_555
Na30 O76 2.562254 1_565
Na30 O72 2.570869 1_555
Na30 O75 2.610171 1_455
Na30 O89 2.692959 1_455
Na30 O85 2.853829 1_565
Na31 O77 2.431902 1_565
Na31 O73 2.467058 1_555
Na31 O74 2.476813 1_555
Na31 O88 2.831995 1_555
Na31 O84 2.849349 1_565
Na31 O87 3.055312 1_555
Na31 O43 3.411838 1_565
Na32 O91 2.509510 1_445
Na32 O94 2.538806 1_555
Na32 O93 2.544660 1_455
Na32 O78 2.754497 1_454
Na32 O83 2.796053 1_444
Na32 O80 2.863265 1_554
Na33 O90 2.530511 1_556
Na33 O95 2.581787 1_566
Na33 O92 2.592021 1_566
Na33 O81 2.663991 1_565
Na33 O82 2.687322 1_555
Na33 O79 2.702033 1_565
Na34 O110 2.526510 1_555
Na34 O98 2.558507 1_555
Na34 O112 2.559214 1_555
Na34 O96 2.585356 1_555
Na34 O100 2.650190 1_555
Na34 O108 2.663059 1_555
Na35 O111 2.456679 1_555
Na35 O113 2.566016 1_555
Na35 O109 2.581780 1_555
Na35 O101 2.595163 1_555
Na35 O97 2.698090 1_555
Na35 O99 3.058512 1_555
Na35 O11 3.346008 1_555
Na35 O9 3.387458 1_555
Na35 O7 3.461592 1_555
Na36 O118 2.512324 1_555
Na36 O104 2.558179 1_555
Na36 O116 2.601395 1_555
Na36 O102 2.608104 1_555
Na36 O114 2.667928 1_555
Na36 O106 2.779259 1_555
Na36 O2 3.367072 1_555
Na37 O119 2.409977 1_555
Na37 O105 2.554257 1_555
Na37 O117 2.563406 1_555
Na37 O103 2.604738 1_555
Na37 O115 2.726704 1_555
Na37 O107 2.793856 1_555
Na37 O3 3.347667 1_555
Na38 O120 2.471166 1_555
Na38 O134 2.544968 1_555
Na38 O136 2.587225 1_555
Na38 O122 2.606100 1_555
Na38 O124 2.729857 1_555
Na38 O132 2.765803 1_555
Na38 O20 3.373496 1_555
Na39 O121 2.480287 1_555
Na39 O135 2.539241 1_555
Na39 O137 2.590068 1_555
Na39 O123 2.595037 1_555
Na39 O125 2.712672 1_555
Na39 O133 2.773179 1_555
Na39 O21 3.370069 1_555
Na40 O142 2.541076 1_555
Na40 O140 2.574684 1_555
Na40 O130 2.616627 1_555
Na40 O126 2.642747 1_555
Na40 O138 2.700633 1_555
Na40 O128 2.882270 1_555
Na40 O16 3.203648 1_555
Na40 O26 3.432999 1_565
Na41 O139 2.531492 1_555
Na41 O129 2.552764 1_555
Na41 O141 2.555403 1_555
Na41 O127 2.559413 1_555
Na41 O143 2.642355 1_555
Na41 O131 2.715618 1_555
La0 O3 2.316588 1_555
La0 O5 2.330014 1_565
La0 O75 2.394045 1_555
La0 O72 2.424241 1_655
La0 O76 2.458295 1_665
La0 O0 2.555536 1_665
La1 O2 2.304188 1_555
La1 O4 2.315442 1_565
La1 O74 2.406694 1_555
La1 O73 2.461092 1_555
La1 O77 2.512695 1_565
La1 O1 2.544184 1_565
La2 O83 2.302053 1_555
La2 O11 2.342859 1_565
La2 O78 2.369072 1_565
La2 O80 2.370192 1_665
La2 O9 2.379021 1_555
La2 O6 2.469111 1_665
La3 O8 2.300300 1_545
La3 O10 2.301408 1_555
La3 O79 2.378596 1_555
La3 O81 2.387240 1_555
La3 O7 2.406651 1_555
La3 O82 2.418694 1_545
La4 O89 2.329914 1_455
La4 O85 2.335128 1_565
La4 O86 2.346221 1_555
La4 O16 2.347206 1_555
La4 O13 2.374288 1_455
La4 O14 2.550030 1_565
La5 O20 2.312670 1_655
La5 O19 2.336012 1_545
La5 O93 2.392468 1_555
La5 O94 2.432508 1_655
La5 O91 2.479238 1_545
La5 O22 2.556351 1_645
La6 O21 2.320726 1_555
La6 O18 2.334368 1_545
La6 O92 2.383433 1_555
La6 O95 2.432567 1_555
La6 O90 2.460595 1_545
La6 O23 2.565710 1_545
La7 O26 2.266069 1_555
La7 O96 2.302113 1_555
La7 O24 2.348706 1_555
La7 O28 2.360499 1_555
La7 O100 2.383259 1_555
La7 O98 2.601933 1_555
La8 O42 2.305360 1_555
La8 O46 2.389595 1_555
La8 O44 2.402393 1_555
La8 O118 2.410558 1_555
La8 O116 2.435341 1_555
La8 O114 2.454137 1_555
La9 O45 2.306563 1_555
La9 O47 2.322795 1_555
La9 O115 2.422499 1_555
La9 O43 2.426438 1_555
La9 O117 2.448430 1_555
La9 O119 2.480389 1_555
La10 O48 2.272995 1_554
La10 O50 2.311779 1_554
La10 O52 2.337205 1_554
La10 O122 2.441134 1_555
La10 O124 2.453061 1_555
La10 O120 2.464941 1_555
La11 O51 2.277835 1_554
La11 O53 2.281383 1_554
La11 O49 2.285077 1_554
La11 O121 2.441196 1_555
La11 O123 2.445001 1_555
La11 O125 2.445576 1_555
O0 S0 1.474981 1_545
O1 S1 1.478242 1_555
O2 Si0 1.633652 1_555
O3 Si1 1.627252 1_555
O4 Si3 1.643273 1_555
O5 Si2 1.638835 1_555
O6 S2 1.470845 1_555
O7 Si4 1.612795 1_555
O8 Si6 1.601913 1_555
O9 Si5 1.624491 1_555
O10 Si7 1.603959 1_545
O11 Si8 1.607629 1_545
O12 Si7 1.728361 1_555
O12 Ta0 1.985801 1_555
O13 Si8 1.630175 1_555
O14 S2 1.481237 1_555
O15 Si4 1.683164 1_555
O15 Ta0 2.015176 1_545
O16 Si5 1.626513 1_455
O17 Si6 1.700289 1_555
O17 Ta0 2.001669 1_555
O18 Si0 1.637645 1_555
O19 Si1 1.638983 1_555
O20 Si2 1.629198 1_455
O21 Si3 1.627084 1_555
O22 S0 1.477673 1_555
O23 S1 1.473893 1_565
O24 Si9 1.620639 1_555
O25 Si10 1.695001 1_555
O25 Ta1 1.951898 1_555
O26 Si11 1.622136 1_555
O27 Si12 1.657284 1_555
O27 Ta1 2.028660 1_555
O28 Si13 1.621989 1_555
O29 Si14 1.679522 1_555
O29 Ta1 2.008260 1_555
O30 Si15 1.665176 1_555
O30 Ta2 1.867590 1_555
O31 Si16 1.664328 1_555
O31 Ta3 1.869380 1_555
O32 Si17 1.651436 1_555
O32 Ta2 1.977112 1_555
O33 Si18 1.647984 1_555
O33 Ta3 1.976630 1_555
O34 Si19 1.645091 1_555
O34 Ta2 1.926651 1_555
O35 Si20 1.641507 1_555
O35 Ta3 1.926740 1_555
O36 Si19 1.687210 1_555
O36 Ta4 1.953612 1_554
O37 Si20 1.694354 1_555
O37 Ta5 1.945952 1_554
O38 Si15 1.679223 1_555
O38 Ta4 1.954700 1_554
O39 Si16 1.683927 1_555
O39 Ta5 1.955937 1_554
O40 Si17 1.686924 1_555
O40 Ta4 1.947766 1_554
O41 Si18 1.694650 1_555
O41 Ta5 1.933225 1_554
O42 Si11 1.623690 1_555
O43 Si12 1.623503 1_555
O44 Si13 1.631432 1_555
O45 Si14 1.614538 1_555
O46 Si9 1.626266 1_555
O47 Si10 1.619368 1_555
O48 Si21 1.615982 1_555
O49 Si22 1.607994 1_555
O50 Si23 1.616306 1_555
O51 Si24 1.607009 1_555
O52 Si25 1.611833 1_555
O53 Si26 1.604867 1_555
O54 Si27 1.673074 1_555
O54 Ta6 1.941728 1_555
O55 Si28 1.691906 1_555
O55 Ta7 1.933078 1_555
O56 Si29 1.672796 1_555
O56 Ta6 1.978008 1_555
O57 Si30 1.675483 1_555
O57 Ta7 1.933075 1_555
O58 Si31 1.666552 1_555
O58 Ta6 1.927587 1_555
O59 Si32 1.688215 1_555
O59 Ta7 1.955916 1_555
O60 Si31 1.647304 1_555
O60 Ta8 1.929278 1_555
O61 Si32 1.640271 1_555
O61 Ta9 1.943129 1_555
O62 Si27 1.650042 1_555
O62 Ta8 1.990439 1_555
O63 Si28 1.647348 1_555
O63 Ta9 1.984918 1_555
O64 Si29 1.669947 1_555
O64 Ta8 1.879626 1_555
O65 Si30 1.658559 1_555
O65 Ta9 1.873849 1_555
O66 Si23 1.697428 1_555
O66 Ta10 1.965350 1_555
O67 Si24 1.716314 1_555
O67 Ta11 1.971499 1_555
O68 Si25 1.713867 1_555
O68 Ta10 1.901067 1_555
O69 Si26 1.718497 1_555
O69 Ta11 1.956346 1_555
O70 Si21 1.700386 1_555
O70 Ta10 1.984149 1_555
O71 Si22 1.715478 1_555
O71 Ta11 1.986629 1_555
O72 Si31 1.628432 1_555
O73 Si32 1.628667 1_555
O74 Si27 1.642086 1_555
O75 Si28 1.630738 1_555
O76 Si29 1.621576 1_555
O77 Si30 1.625941 1_555
O78 Si23 1.619835 1_655
O79 Si24 1.615655 1_555
O80 Si25 1.615263 1_545
O81 Si26 1.615682 1_545
O82 Si21 1.616721 1_555
O83 Si22 1.623275 1_555
O84 Si9 1.668529 1_555
O84 Ta0 2.015699 1_545
O85 Si10 1.619441 1_455
O86 Si11 1.625186 1_565
O87 Si12 1.659833 1_565
O87 Ta0 2.034927 1_555
O88 Si13 1.684830 1_555
O88 Ta0 2.002483 1_555
O89 Si14 1.614962 1_555
O90 Si15 1.623149 1_555
O91 Si16 1.623932 1_555
O92 Si17 1.636080 1_555
O93 Si18 1.635140 1_555
O94 Si19 1.630814 1_555
O95 Si20 1.626950 1_555
O96 Si7 1.610391 1_545
O97 Si8 1.666625 1_545
O97 Ta1 2.038960 1_555
O98 S2 1.490980 1_555
O99 Si4 1.646934 1_555
O99 Ta1 2.040315 1_555
O100 Si6 1.611210 1_555
O101 Si5 1.686189 1_555
O101 Ta1 1.972916 1_555
O102 Si0 1.652819 1_555
O102 Ta2 1.974874 1_555
O103 Si1 1.654102 1_555
O103 Ta3 1.969999 1_555
O104 Si3 1.664603 1_555
O104 Ta2 1.996180 1_555
O105 Si2 1.668158 1_555
O105 Ta3 1.990091 1_555
O106 S0 1.502450 1_545
O106 Ta2 2.273904 1_555
O107 S1 1.499656 1_555
O107 Ta3 2.282883 1_555
O108 Si21 1.674612 1_555
O108 Ta4 2.067392 1_555
O109 Si22 1.666803 1_555
O109 Ta5 2.103248 1_555
O110 Si24 1.665079 1_555
O110 Ta4 2.084767 1_555
O111 Si23 1.678971 1_655
O111 Ta5 2.098192 1_555
O112 Si25 1.658766 1_545
O112 Ta4 2.072497 1_555
O113 Si26 1.673150 1_545
O113 Ta5 2.090803 1_555
O114 Si27 1.629869 1_545
O115 Si28 1.628180 1_545
O116 Si29 1.625550 1_555
O117 Si30 1.616342 1_555
O118 Si32 1.629054 1_555
O119 Si31 1.627935 1_655
O120 Si19 1.625961 1_555
O121 Si20 1.623740 1_555
O122 Si16 1.618688 1_455
O123 Si15 1.618304 1_555
O124 Si17 1.628360 1_565
O125 Si18 1.624945 1_565
O126 Si11 1.663687 1_565
O126 Ta6 1.956693 1_555
O127 Si12 1.669733 1_565
O127 Ta7 2.144195 1_555
O128 Si13 1.656651 1_555
O128 Ta6 2.053342 1_555
O129 Si14 1.672653 1_555
O129 Ta7 2.072546 1_555
O130 Si10 1.661278 1_455
O130 Ta6 2.111773 1_555
O131 Si9 1.654549 1_555
O131 Ta7 2.010155 1_555
O132 S0 1.501780 1_555
O132 Ta8 2.274529 1_555
O133 S1 1.503472 1_565
O133 Ta9 2.260830 1_555
O134 Si0 1.667500 1_555
O134 Ta8 1.987321 1_555
O135 Si1 1.671650 1_555
O135 Ta9 1.981487 1_555
O136 Si2 1.655639 1_455
O136 Ta8 1.965581 1_555
O137 Si3 1.657931 1_555
O137 Ta9 1.964994 1_555
O138 S2 1.495330 1_555
O138 Ta10 2.212209 1_555
O139 Si4 1.660327 1_555
O139 Ta11 2.179417 1_555
O140 Si5 1.659088 1_455
O140 Ta10 1.984550 1_555
O141 Si6 1.664168 1_555
O141 Ta11 2.094018 1_555
O142 Si7 1.665966 1_555
O142 Ta10 2.105940 1_555
O143 Si8 1.670721 1_555
O143 Ta11 1.992168 1_555
