# generated using pymatgen
data_MgV2(MoO5)2
_symmetry_space_group_name_H-M   'P 1'
_cell_length_a   5.79273100
_cell_length_b   6.61039501
_cell_length_c   6.61166901
_cell_angle_alpha   90.00584128
_cell_angle_beta   89.99986511
_cell_angle_gamma   89.99991832
_symmetry_Int_Tables_number   1
_chemical_formula_structural   MgV2(MoO5)2
_chemical_formula_sum   'Mg1 V2 Mo2 O10'
_cell_volume   253.17561576
_cell_formula_units_Z   1
loop_
 _symmetry_equiv_pos_site_id
 _symmetry_equiv_pos_as_xyz
  1  'x, y, z'
loop_
 _atom_site_type_symbol
 _atom_site_label
 _atom_site_symmetry_multiplicity
 _atom_site_fract_x
 _atom_site_fract_y
 _atom_site_fract_z
 _atom_site_occupancy
  Mg  Mg0  1  0.99988500  0.75000000  0.25000200  1
  V  V0  1  0.80917200  0.25000000  0.25000100  1
  V  V1  1  0.19067600  0.75000000  0.74999900  1
  Mo  Mo0  1  0.50025200  0.25000000  0.75000200  1
  Mo  Mo1  1  0.49989200  0.75000000  0.24999800  1
  O  O0  1  0.67976300  0.24432400  0.97030300  1
  O  O1  1  0.74348200  0.54653000  0.24476800  1
  O  O2  1  0.74348300  0.95346900  0.25523100  1
  O  O3  1  0.67976000  0.25567400  0.52969900  1
  O  O4  1  0.09195900  0.25000000  0.25000100  1
  O  O5  1  0.90801900  0.75000000  0.74999600  1
  O  O6  1  0.25625300  0.74523100  0.45341300  1
  O  O7  1  0.32057500  0.02961100  0.74482700  1
  O  O8  1  0.32057900  0.47038900  0.75517500  1
  O  O9  1  0.25624900  0.75477100  0.04658600  1
loop_
_geom_bond_atom_site_label_1
_geom_bond_atom_site_label_2
_geom_bond_distance
_geom_bond_site_symmetry_2
Mg0 O6 2.003788 1_655
Mg0 O9 2.003789 1_655
Mg0 O2 2.004059 1_555
Mg0 O1 2.004072 1_555
Mo0 O3 1.790050 1_555
Mo0 O0 1.790054 1_555
Mo0 O8 1.790768 1_555
Mo0 O7 1.790784 1_555
Mo1 O1 1.949697 1_555
Mo1 O2 1.949700 1_555
Mo1 O6 1.949782 1_555
Mo1 O9 1.949790 1_555
O0 V0 1.995783 1_556
O0 O2 2.717079 1_546
O0 O1 2.723848 1_556
O1 V0 1.997077 1_555
O1 O3 2.717099 1_555
O2 V0 1.997083 1_565
O2 O3 2.723858 1_565
O3 V0 1.995786 1_555
O4 V0 1.638109 1_455
O5 V1 1.637356 1_655
O6 V1 1.997628 1_555
O6 O7 2.717404 1_565
O6 O8 2.724156 1_555
O7 V1 1.995935 1_545
O7 O9 2.724132 1_546
O8 V1 1.995942 1_555
O8 O9 2.717404 1_556
O9 V1 1.997632 1_554
