# generated using pymatgen
data_MoS2Cl3
_symmetry_space_group_name_H-M   'P 1'
_cell_length_a   7.40593238
_cell_length_b   6.20863508
_cell_length_c   13.73843898
_cell_angle_alpha   64.47898292
_cell_angle_beta   90.00000000
_cell_angle_gamma   90.00000000
_symmetry_Int_Tables_number   1
_chemical_formula_structural   MoS2Cl3
_chemical_formula_sum   'Mo4 S8 Cl12'
_cell_volume   570.06646445
_cell_formula_units_Z   4
loop_
 _symmetry_equiv_pos_site_id
 _symmetry_equiv_pos_as_xyz
  1  'x, y, z'
loop_
 _atom_site_type_symbol
 _atom_site_label
 _atom_site_symmetry_multiplicity
 _atom_site_fract_x
 _atom_site_fract_y
 _atom_site_fract_z
 _atom_site_occupancy
  Mo  Mo0  1  0.59688085  0.70119900  0.99393651  1
  Mo  Mo1  1  0.09688085  0.29880100  0.50606349  1
  Mo  Mo2  1  0.40311915  0.29880100  0.00606349  1
  Mo  Mo3  1  0.90311915  0.70119900  0.49393651  1
  S  S0  1  0.72363751  0.31029166  0.04995160  1
  S  S1  1  0.27636249  0.68970834  0.95004840  1
  S  S2  1  0.77636249  0.31029166  0.54995160  1
  S  S3  1  0.22363751  0.68970834  0.45004840  1
  S  S4  1  0.05370318  0.66668142  0.34378876  1
  S  S5  1  0.55370318  0.33331858  0.15621124  1
  S  S6  1  0.94629682  0.33331858  0.65621124  1
  S  S7  1  0.44629682  0.66668142  0.84378876  1
  Cl  Cl0  1  0.66711763  0.77193058  0.35782381  1
  Cl  Cl1  1  0.83288237  0.77193058  0.85782381  1
  Cl  Cl2  1  0.16711763  0.22806942  0.14217619  1
  Cl  Cl3  1  0.33288237  0.22806942  0.64217619  1
  Cl  Cl4  1  0.92523675  0.14890847  0.38364675  1
  Cl  Cl5  1  0.42523675  0.85109153  0.11635325  1
  Cl  Cl6  1  0.07476325  0.85109153  0.61635325  1
  Cl  Cl7  1  0.57476325  0.14890847  0.88364675  1
  Cl  Cl8  1  0.65702427  0.76973456  0.58800038  1
  Cl  Cl9  1  0.15702427  0.23026544  0.91199962  1
  Cl  Cl10  1  0.34297573  0.23026544  0.41199962  1
  Cl  Cl11  1  0.84297573  0.76973456  0.08800038  1
loop_
_geom_bond_atom_site_label_1
_geom_bond_atom_site_label_2
_geom_bond_distance
_geom_bond_site_symmetry_2
Mo0 S0 2.398838 1_556
Mo0 S5 2.429316 1_556
Mo0 S7 2.434273 1_555
Mo0 S1 2.457710 1_555
Mo1 S3 2.398838 1_555
Mo1 S4 2.429316 1_555
Mo1 S6 2.434273 1_455
Mo1 S2 2.457710 1_455
Mo2 S1 2.398838 1_554
Mo2 S7 2.429316 1_554
Mo2 S5 2.434273 1_555
Mo2 S0 2.457710 1_555
Mo3 S2 2.398838 1_555
Mo3 S6 2.429316 1_555
Mo3 S4 2.434273 1_655
Mo3 S3 2.457710 1_655
S0 S5 1.978710 1_555
S1 S7 1.978710 1_555
S2 S6 1.978710 1_555
S3 S4 1.978710 1_555
Cl0 Mo3 2.457009 1_555
Cl0 S4 2.961363 1_655
Cl0 S2 3.052479 1_555
Cl0 Cl8 3.157302 1_555
Cl0 Cl4 3.158107 1_565
Cl1 Mo0 2.457009 1_555
Cl1 S7 2.961363 1_555
Cl1 S0 3.052479 1_556
Cl1 Cl11 3.157302 1_556
Cl1 Cl7 3.158107 1_565
Cl2 Mo2 2.457009 1_555
Cl2 S5 2.961363 1_555
Cl2 S1 3.052479 1_554
Cl2 Cl9 3.157302 1_554
Cl2 Cl5 3.158107 1_545
Cl3 Mo1 2.457009 1_555
Cl3 S6 2.961363 1_455
Cl3 S3 3.052479 1_555
Cl3 Cl6 3.158107 1_545
Cl4 Mo3 2.533773 1_545
Cl4 Mo1 2.580531 1_655
Cl4 S2 3.067957 1_555
Cl4 Cl6 3.126088 1_645
Cl4 S4 3.165797 1_655
Cl4 S4 3.403175 1_645
Cl4 Cl8 3.416813 1_545
Cl5 Mo2 2.533773 1_565
Cl5 Mo0 2.580531 1_554
Cl5 S1 3.067957 1_554
Cl5 Cl7 3.126088 1_564
Cl5 S5 3.165797 1_555
Cl5 S5 3.403175 1_565
Cl5 Cl9 3.416813 1_564
Cl6 Mo1 2.533773 1_565
Cl6 Mo3 2.580531 1_455
Cl6 S3 3.067957 1_555
Cl6 S6 3.165797 1_455
Cl6 Cl8 3.185542 1_455
Cl6 S6 3.403175 1_465
Cl7 Mo0 2.533773 1_545
Cl7 Mo2 2.580531 1_556
Cl7 S0 3.067957 1_556
Cl7 S7 3.165797 1_555
Cl7 Cl9 3.185542 1_555
Cl7 S7 3.403175 1_545
Cl8 Mo3 2.376265 1_555
Cl8 S2 3.236674 1_555
Cl8 S6 3.259060 1_555
Cl8 S2 3.287283 1_565
Cl9 Mo2 2.376265 1_556
Cl9 S1 3.236674 1_555
Cl9 S7 3.259060 1_555
Cl9 S1 3.287283 1_545
Cl10 Mo1 2.376265 1_555
Cl10 Cl3 3.157302 1_555
Cl10 Cl4 3.185542 1_455
Cl10 S3 3.236674 1_555
Cl10 S4 3.259060 1_555
Cl10 S3 3.287283 1_545
Cl10 Cl6 3.416813 1_545
Cl11 Mo0 2.376265 1_554
Cl11 Cl5 3.185542 1_555
Cl11 S0 3.236674 1_555
Cl11 S5 3.259060 1_555
Cl11 S0 3.287283 1_565
Cl11 Cl7 3.416813 1_564
