# generated using pymatgen
data_Nd2MgTi2S2O5
_symmetry_space_group_name_H-M   'P 1'
_cell_length_a   3.86677289
_cell_length_b   3.86677273
_cell_length_c   14.26860020
_cell_angle_alpha   97.78749191
_cell_angle_beta   97.78749388
_cell_angle_gamma   90.00000377
_symmetry_Int_Tables_number   1
_chemical_formula_structural   Nd2MgTi2S2O5
_chemical_formula_sum   'Nd2 Mg1 Ti2 S2 O5'
_cell_volume   209.38951272
_cell_formula_units_Z   1
loop_
 _symmetry_equiv_pos_site_id
 _symmetry_equiv_pos_as_xyz
  1  'x, y, z'
loop_
 _atom_site_type_symbol
 _atom_site_label
 _atom_site_symmetry_multiplicity
 _atom_site_fract_x
 _atom_site_fract_y
 _atom_site_fract_z
 _atom_site_occupancy
  Nd  Nd0  1  0.36336800  0.36336800  0.72673700  1
  Nd  Nd1  1  0.63663200  0.63663200  0.27326300  1
  Mg  Mg0  1  0.75000000  0.25000000  0.50000000  1
  Ti  Ti0  1  0.06490300  0.06490300  0.12980700  1
  Ti  Ti1  1  0.93509600  0.93509600  0.87019300  1
  S  S0  1  0.19325200  0.19325200  0.38650400  1
  S  S1  1  0.80674900  0.80674900  0.61349700  1
  O  O0  1  0.91038100  0.41038100  0.82076200  1
  O  O1  1  0.08902700  0.58902700  0.17805500  1
  O  O2  1  0.41097300  0.91097300  0.82194500  1
  O  O3  1  0.58961900  0.08961900  0.17923800  1
  O  O4  1  0.00000000  0.00000000  0.00000000  1
loop_
_geom_bond_atom_site_label_1
_geom_bond_atom_site_label_2
_geom_bond_distance
_geom_bond_site_symmetry_2
Nd0 O0 2.339185 1_455
Nd0 O0 2.339188 1_555
Nd0 O2 2.348549 1_545
Nd0 O2 2.348556 1_555
Nd0 S1 3.160823 1_445
Nd0 S1 3.160828 1_455
Nd0 S1 3.160828 1_545
Nd0 S1 3.160832 1_555
Nd1 O3 2.339185 1_565
Nd1 O3 2.339188 1_555
Nd1 O1 2.348549 1_655
Nd1 O1 2.348556 1_555
Nd1 S0 3.160833 1_665
Nd1 S0 3.160835 1_655
Nd1 S0 3.160835 1_565
Nd1 S0 3.160837 1_555
Mg0 S0 2.502845 1_655
Mg0 S0 2.502845 1_555
Mg0 S1 2.502852 1_545
Mg0 S1 2.502855 1_555
O0 Ti1 2.053576 1_555
O0 Ti1 2.053579 1_545
O0 O2 2.734269 1_545
O0 O2 2.734272 1_645
O0 O2 2.734272 1_555
O0 O2 2.734274 1_655
O1 Ti0 2.048052 1_565
O1 Ti0 2.048052 1_555
O1 O3 2.734269 1_455
O1 O3 2.734272 1_555
O1 O3 2.734272 1_465
O1 O3 2.734274 1_565
O2 Ti1 2.048049 1_555
O2 Ti1 2.048056 1_455
O3 Ti0 2.053576 1_655
O3 Ti0 2.053579 1_555
O4 Ti0 1.817840 1_555
O4 Ti1 1.817840 1_444
