# generated using pymatgen
data_MgMn2O4
_symmetry_space_group_name_H-M   'P 1'
_cell_length_a   2.87665600
_cell_length_b   6.31003376
_cell_length_c   5.32336569
_cell_angle_alpha   93.28470657
_cell_angle_beta   90.00000000
_cell_angle_gamma   117.12195500
_symmetry_Int_Tables_number   1
_chemical_formula_structural   MgMn2O4
_chemical_formula_sum   'Mg1 Mn2 O4'
_cell_volume   85.82479039
_cell_formula_units_Z   1
loop_
 _symmetry_equiv_pos_site_id
 _symmetry_equiv_pos_as_xyz
  1  'x, y, z'
loop_
 _atom_site_type_symbol
 _atom_site_label
 _atom_site_symmetry_multiplicity
 _atom_site_fract_x
 _atom_site_fract_y
 _atom_site_fract_z
 _atom_site_occupancy
  Mg  Mg0  1  0.00000000  0.00000000  0.50000000  1
  Mn  Mn0  1  0.00000000  0.00000000  0.00000000  1
  Mn  Mn1  1  0.00000000  0.50000000  0.50000000  1
  O  O0  1  0.39075700  0.89075700  0.21922300  1
  O  O1  1  0.31541400  0.31541400  0.34158700  1
  O  O2  1  0.68458600  0.68458600  0.65841300  1
  O  O3  1  0.60924300  0.10924300  0.78077700  1
loop_
_geom_bond_atom_site_label_1
_geom_bond_atom_site_label_2
_geom_bond_distance
_geom_bond_site_symmetry_2
Mg0 O1 2.010323 1_555
Mg0 O2 2.010323 1_445
Mg0 O3 2.135696 1_455
Mg0 O3 2.135696 1_555
Mg0 O0 2.135696 1_545
Mg0 O0 2.135696 1_445
Mn0 O3 1.974661 1_454
Mn0 O0 1.974661 1_545
Mn0 O0 1.974661 1_445
Mn0 O3 1.974661 1_554
Mn0 O1 2.455554 1_555
Mn0 O2 2.455554 1_444
Mn1 O2 1.934437 1_455
Mn1 O2 1.934437 1_555
Mn1 O1 1.934437 1_555
Mn1 O1 1.934437 1_455
Mn1 O0 2.733584 1_555
Mn1 O3 2.733584 1_455
