# generated using pymatgen
data_Na2TiZn3(SO4)6
_symmetry_space_group_name_H-M   'P 1'
_cell_length_a   8.66382871
_cell_length_b   8.66382843
_cell_length_c   22.60493322
_cell_angle_alpha   90.00000000
_cell_angle_beta   90.00000000
_cell_angle_gamma   120.00000102
_symmetry_Int_Tables_number   1
_chemical_formula_structural   Na2TiZn3(SO4)6
_chemical_formula_sum   'Na6 Ti3 Zn9 S18 O72'
_cell_volume   1469.44574792
_cell_formula_units_Z   3
loop_
 _symmetry_equiv_pos_site_id
 _symmetry_equiv_pos_as_xyz
  1  'x, y, z'
loop_
 _atom_site_type_symbol
 _atom_site_label
 _atom_site_symmetry_multiplicity
 _atom_site_fract_x
 _atom_site_fract_y
 _atom_site_fract_z
 _atom_site_occupancy
  Na  Na0  1  -0.00000000  -0.00000000  0.50505459  1
  Na  Na1  1  -0.00000000  -0.00000000  0.00265202  1
  Na  Na2  1  0.66666700  0.33333300  0.83118376  1
  Na  Na3  1  0.66666700  0.33333300  0.33526130  1
  Na  Na4  1  0.33333300  0.66666700  0.17320669  1
  Na  Na5  1  0.33333300  0.66666700  0.66103274  1
  Ti  Ti0  1  -0.00000000  -0.00000000  0.35435917  1
  Ti  Ti1  1  -0.00000000  -0.00000000  0.84709919  1
  Ti  Ti2  1  0.33333300  0.66666700  0.02075771  1
  Zn  Zn0  1  -0.00000000  -0.00000000  0.64370759  1
  Zn  Zn1  1  -0.00000000  -0.00000000  0.15269788  1
  Zn  Zn2  1  0.66666700  0.33333300  0.67668697  1
  Zn  Zn3  1  0.66666700  0.33333300  0.18754481  1
  Zn  Zn4  1  0.66666700  0.33333300  0.98385743  1
  Zn  Zn5  1  0.66666700  0.33333300  0.48666652  1
  Zn  Zn6  1  0.33333300  0.66666700  0.51881969  1
  Zn  Zn7  1  0.33333300  0.66666700  0.31809912  1
  Zn  Zn8  1  0.33333300  0.66666700  0.81509001  1
  S  S0  1  0.29057302  0.99880975  0.25005794  1
  S  S1  1  0.70823674  0.70942698  0.25005794  1
  S  S2  1  0.00119025  0.29176326  0.25005794  1
  S  S3  1  0.29238694  0.29281840  0.74906194  1
  S  S4  1  0.00043146  0.70761306  0.74906194  1
  S  S5  1  0.70718160  0.99956854  0.74906194  1
  S  S6  1  0.96234488  0.33476269  0.58342811  1
  S  S7  1  0.37241881  0.03765512  0.58342811  1
  S  S8  1  0.66523731  0.62758119  0.58342811  1
  S  S9  1  0.95903367  0.62737500  0.08221809  1
  S  S10  1  0.66834232  0.04096633  0.08221809  1
  S  S11  1  0.37262500  0.33165768  0.08221809  1
  S  S12  1  0.62496298  0.66723725  0.91612847  1
  S  S13  1  0.04227326  0.37503702  0.91612847  1
  S  S14  1  0.33276275  0.95772674  0.91612847  1
  S  S15  1  0.62592355  0.96098711  0.41551092  1
  S  S16  1  0.33506256  0.37407645  0.41551092  1
  S  S17  1  0.03901289  0.66493744  0.41551092  1
  O  O0  1  0.19810208  0.02179454  0.30323752  1
  O  O1  1  0.82369245  0.80189792  0.30323752  1
  O  O2  1  0.97820546  0.17630755  0.30323752  1
  O  O3  1  0.19491279  0.17388396  0.80491282  1
  O  O4  1  0.97897117  0.80508721  0.80491282  1
  O  O5  1  0.82611604  0.02102883  0.80491282  1
  O  O6  1  0.79064553  0.97283018  0.69765084  1
  O  O7  1  0.18218465  0.20935447  0.69765084  1
  O  O8  1  0.02716982  0.81781535  0.69765084  1
  O  O9  1  0.78532307  0.81362200  0.19557973  1
  O  O10  1  0.02829892  0.21467693  0.19557973  1
  O  O11  1  0.18637800  0.97170108  0.19557973  1
  O  O12  1  0.88533957  0.36289463  0.63846867  1
  O  O13  1  0.47755606  0.11466043  0.63846867  1
  O  O14  1  0.63710537  0.52244394  0.63846867  1
  O  O15  1  0.88940707  0.51750337  0.13546846  1
  O  O16  1  0.62809730  0.11059293  0.13546846  1
  O  O17  1  0.48249663  0.37190270  0.13546846  1
  O  O18  1  0.45134715  0.30590577  0.02826401  1
  O  O19  1  0.85455963  0.54865285  0.02826401  1
  O  O20  1  0.69409423  0.14544037  0.02826401  1
  O  O21  1  0.45211196  0.14627454  0.52983768  1
  O  O22  1  0.69416357  0.54788804  0.52983768  1
  O  O23  1  0.85372546  0.30583643  0.52983768  1
  O  O24  1  0.53771529  0.69496728  0.97016493  1
  O  O25  1  0.15725100  0.46228471  0.97016493  1
  O  O26  1  0.30503272  0.84274900  0.97016493  1
  O  O27  1  0.55680889  0.85124922  0.46854280  1
  O  O28  1  0.29443933  0.44319111  0.46854280  1
  O  O29  1  0.14875078  0.70556067  0.46854280  1
  O  O30  1  0.11755666  0.63899356  0.36150477  1
  O  O31  1  0.52143590  0.88244334  0.36150477  1
  O  O32  1  0.36100644  0.47856410  0.36150477  1
  O  O33  1  0.12151380  0.48158464  0.86323973  1
  O  O34  1  0.36006985  0.87848620  0.86323973  1
  O  O35  1  0.51841536  0.63993015  0.86323973  1
  O  O36  1  0.02127065  0.83270321  0.40599159  1
  O  O37  1  0.81143255  0.97872935  0.40599159  1
  O  O38  1  0.16729679  0.18856745  0.40599159  1
  O  O39  1  0.02929382  0.19573528  0.91137214  1
  O  O40  1  0.16644146  0.97070618  0.91137214  1
  O  O41  1  0.80426472  0.83355854  0.91137214  1
  O  O42  1  0.97841361  0.17230950  0.58847457  1
  O  O43  1  0.19389589  0.02158639  0.58847457  1
  O  O44  1  0.82769050  0.80610411  0.58847457  1
  O  O45  1  0.98742006  0.80879092  0.08810748  1
  O  O46  1  0.82137086  0.01257994  0.08810748  1
  O  O47  1  0.19120908  0.17862914  0.08810748  1
  O  O48  1  0.69830273  0.16448659  0.74918871  1
  O  O49  1  0.46618486  0.30169727  0.74918871  1
  O  O50  1  0.83551341  0.53381514  0.74918871  1
  O  O51  1  0.69802558  0.53363669  0.24725625  1
  O  O52  1  0.83561211  0.30197442  0.24725625  1
  O  O53  1  0.46636331  0.16438789  0.24725625  1
  O  O54  1  0.64736925  0.51078927  0.92406964  1
  O  O55  1  0.86342102  0.35263075  0.92406964  1
  O  O56  1  0.48921073  0.13657898  0.92406964  1
  O  O57  1  0.65438319  0.14268691  0.42146543  1
  O  O58  1  0.48830471  0.34561681  0.42146543  1
  O  O59  1  0.85731309  0.51169529  0.42146543  1
  O  O60  1  0.35505648  0.49977183  0.07273405  1
  O  O61  1  0.14471435  0.64494352  0.07273405  1
  O  O62  1  0.50022817  0.85528565  0.07273405  1
  O  O63  1  0.35531443  0.85909729  0.57817351  1
  O  O64  1  0.50378186  0.64468557  0.57817351  1
  O  O65  1  0.14090271  0.49621814  0.57817351  1
  O  O66  1  0.30887139  0.83954870  0.25689990  1
  O  O67  1  0.53067631  0.69112861  0.25689990  1
  O  O68  1  0.16045130  0.46932369  0.25689990  1
  O  O69  1  0.30703977  0.46734280  0.75839689  1
  O  O70  1  0.16030202  0.69296023  0.75839689  1
  O  O71  1  0.53265720  0.83969798  0.75839689  1
loop_
_geom_bond_atom_site_label_1
_geom_bond_atom_site_label_2
_geom_bond_distance
_geom_bond_site_symmetry_2
Na0 O44 2.469550 1_445
Na0 O42 2.469550 1_455
Na0 O43 2.469551 1_555
Na0 O36 2.723314 1_545
Na0 O38 2.723314 1_555
Na0 O37 2.723314 1_445
Na1 O45 2.511410 1_445
Na1 O47 2.511410 1_555
Na1 O46 2.511410 1_455
Na1 O39 2.601410 1_554
Na1 O41 2.601410 1_444
Na1 O40 2.601410 1_544
Na2 O50 2.459971 1_555
Na2 O48 2.459971 1_555
Na2 O49 2.459971 1_555
Na2 O56 2.656579 1_555
Na2 O54 2.656579 1_555
Na2 O55 2.656579 1_555
Na3 O57 2.522088 1_555
Na3 O59 2.522088 1_555
Na3 O58 2.522088 1_555
Na3 O51 2.563482 1_555
Na3 O53 2.563482 1_555
Na3 O52 2.563482 1_555
Na4 O68 2.486969 1_555
Na4 O66 2.486969 1_555
Na4 O67 2.486969 1_555
Na4 O62 2.748924 1_555
Na4 O60 2.748924 1_555
Na4 O61 2.748924 1_555
Na5 O63 2.450815 1_555
Na5 O65 2.450815 1_555
Na5 O64 2.450815 1_555
Na5 O69 2.735823 1_555
Na5 O71 2.735823 1_555
Na5 O70 2.735823 1_555
O0 S0 1.511997 1_545
O0 Ti0 1.998186 1_555
O1 S1 1.511996 1_555
O1 Ti0 1.998186 1_665
O2 S2 1.511996 1_655
O2 Ti0 1.998186 1_655
O3 S3 1.580723 1_555
O3 Ti1 1.867244 1_555
O4 S4 1.580723 1_655
O4 Ti1 1.867244 1_665
O5 S5 1.580723 1_545
O5 Ti1 1.867244 1_655
O6 S5 1.447293 1_555
O6 Zn0 2.098870 1_665
O7 S3 1.447293 1_555
O7 Zn0 2.098870 1_555
O8 S4 1.447293 1_555
O8 Zn0 2.098870 1_565
O9 S1 1.474650 1_555
O9 Zn1 2.000760 1_665
O10 S2 1.474650 1_555
O10 Zn1 2.000760 1_555
O11 S0 1.474650 1_555
O11 Zn1 2.000760 1_565
O12 S6 1.488328 1_555
O12 Zn2 1.978894 1_555
O13 S7 1.488328 1_555
O13 Zn2 1.978894 1_555
O14 S8 1.488328 1_555
O14 Zn2 1.978894 1_555
O15 S9 1.464494 1_555
O15 Zn3 2.139304 1_555
O16 S10 1.464494 1_555
O16 Zn3 2.139304 1_555
O17 S11 1.464494 1_555
O17 Zn3 2.139304 1_555
O18 S11 1.467860 1_555
O18 Zn4 2.025062 1_554
O19 S9 1.467860 1_555
O19 Zn4 2.025062 1_554
O20 S10 1.467860 1_555
O20 Zn4 2.025062 1_554
O21 S7 1.476506 1_555
O21 Zn5 2.005407 1_555
O22 S8 1.476506 1_555
O22 Zn5 2.005407 1_555
O23 S6 1.476506 1_555
O23 Zn5 2.005407 1_555
O24 S12 1.517480 1_555
O24 Ti2 2.017270 1_556
O25 S13 1.517480 1_555
O25 Ti2 2.017270 1_556
O26 S14 1.517480 1_555
O26 Ti2 2.017269 1_556
O27 S15 1.459540 1_555
O27 Zn6 2.121667 1_555
O28 S16 1.459540 1_555
O28 Zn6 2.121667 1_555
O29 S17 1.459540 1_555
O29 Zn6 2.121668 1_555
O30 S17 1.468643 1_555
O30 Zn7 2.016638 1_555
O31 S15 1.468643 1_555
O31 Zn7 2.016637 1_555
O32 S16 1.468643 1_555
O32 Zn7 2.016637 1_555
O33 S13 1.455693 1_555
O33 Zn8 2.044761 1_555
O34 S14 1.455693 1_555
O34 Zn8 2.044761 1_555
O35 S12 1.455693 1_555
O35 Zn8 2.044761 1_555
O36 S17 1.551129 1_555
O36 Ti0 1.940142 1_565
O37 S15 1.551138 1_555
O37 Ti0 1.940142 1_665
O38 S16 1.551134 1_555
O38 Ti0 1.940142 1_555
O39 S13 1.504225 1_555
O39 Ti1 2.149579 1_555
O40 S14 1.504216 1_555
O40 Ti1 2.149580 1_565
O41 S12 1.504221 1_555
O41 Ti1 2.149580 1_665
O42 S6 1.486371 1_555
O42 Zn0 2.025254 1_655
O43 S7 1.486380 1_555
O43 Zn0 2.025254 1_555
O44 S8 1.486376 1_555
O44 Zn0 2.025254 1_665
O45 S9 1.470400 1_555
O45 Zn1 2.169663 1_665
O46 S10 1.470392 1_555
O46 Zn1 2.169663 1_655
O47 S11 1.470397 1_555
O47 Zn1 2.169663 1_555
O48 S5 1.468799 1_545
O48 Zn2 2.302608 1_555
O49 S3 1.468807 1_555
O49 Zn2 2.302608 1_555
O50 S4 1.468803 1_655
O50 Zn2 2.302608 1_555
O51 S1 1.482120 1_555
O51 Zn3 2.106139 1_555
O52 S2 1.482112 1_655
O52 Zn3 2.106139 1_555
O53 S0 1.482116 1_545
O53 Zn3 2.106139 1_555
O54 S12 1.473175 1_555
O54 Zn4 2.115492 1_555
O55 S13 1.473158 1_655
O55 Zn4 2.115492 1_555
O56 S14 1.473165 1_545
O56 Zn4 2.115492 1_555
O57 S15 1.472724 1_545
O57 Zn5 2.176240 1_555
O58 S16 1.472741 1_555
O58 Zn5 2.176240 1_555
O59 S17 1.472730 1_655
O59 Zn5 2.176240 1_555
O60 S11 1.553143 1_555
O60 Ti2 1.943908 1_555
O61 S9 1.553126 1_455
O61 Ti2 1.943908 1_555
O62 S10 1.553133 1_565
O62 Ti2 1.943908 1_555
O63 S7 1.483244 1_565
O63 Zn6 2.073257 1_555
O64 S8 1.483261 1_555
O64 Zn6 2.073257 1_555
O65 S6 1.483251 1_455
O65 Zn6 2.073257 1_555
O66 S0 1.473661 1_555
O66 Zn7 2.125938 1_555
O67 S1 1.473670 1_555
O67 Zn7 2.125938 1_555
O68 S2 1.473666 1_555
O68 Zn7 2.125938 1_555
O69 S3 1.467986 1_555
O69 Zn8 2.069560 1_555
O70 S4 1.467978 1_555
O70 Zn8 2.069560 1_555
O71 S5 1.467982 1_555
O71 Zn8 2.069560 1_555
