# generated using pymatgen
data_Na3Sc2Al2P3(SO8)3
_symmetry_space_group_name_H-M   'P 1'
_cell_length_a   8.64262765
_cell_length_b   8.63220671
_cell_length_c   22.29420292
_cell_angle_alpha   89.24692500
_cell_angle_beta   90.73070341
_cell_angle_gamma   120.08446849
_symmetry_Int_Tables_number   1
_chemical_formula_structural   Na3Sc2Al2P3(SO8)3
_chemical_formula_sum   'Na9 Sc6 Al6 P9 S9 O72'
_cell_volume   1439.03512338
_cell_formula_units_Z   3
loop_
 _symmetry_equiv_pos_site_id
 _symmetry_equiv_pos_as_xyz
  1  'x, y, z'
loop_
 _atom_site_type_symbol
 _atom_site_label
 _atom_site_symmetry_multiplicity
 _atom_site_fract_x
 _atom_site_fract_y
 _atom_site_fract_z
 _atom_site_occupancy
  Na  Na0  1  0.36168432  0.36161293  0.25167568  1
  Na  Na1  1  0.68798162  0.01831593  0.91807248  1
  Na  Na2  1  0.97697326  0.30875951  0.41632834  1
  Na  Na3  1  0.00720841  0.99305062  0.49689470  1
  Na  Na4  1  0.00575378  0.99103233  0.00358721  1
  Na  Na5  1  0.65898320  0.33908435  0.83484477  1
  Na  Na6  1  0.66630009  0.33283666  0.33266185  1
  Na  Na7  1  0.33204582  0.68715363  0.16850696  1
  Na  Na8  1  0.33231760  0.66632131  0.66600766  1
  Sc  Sc0  1  0.99989935  0.99459838  0.85383501  1
  Sc  Sc1  1  0.99139454  0.00656296  0.64380906  1
  Sc  Sc2  1  0.67337667  0.32848537  0.68564550  1
  Sc  Sc3  1  0.34294840  0.67830609  0.02394654  1
  Sc  Sc4  1  0.32040228  0.65954885  0.51488395  1
  Sc  Sc5  1  0.34804245  0.67665891  0.81809399  1
  Al  Al0  1  0.01749174  0.00611558  0.34774220  1
  Al  Al1  1  0.00079673  0.00749373  0.15093790  1
  Al  Al2  1  0.66896657  0.31342302  0.18729720  1
  Al  Al3  1  0.66316218  0.32918989  0.98559594  1
  Al  Al4  1  0.66806336  0.34441907  0.47803219  1
  Al  Al5  1  0.31138107  0.66069634  0.31520018  1
  P  P0  1  0.28680621  0.99513759  0.24818813  1
  P  P1  1  0.99743579  0.28679616  0.25092943  1
  P  P2  1  0.70316400  0.99799001  0.75127144  1
  P  P3  1  0.95095243  0.33406399  0.57741007  1
  P  P4  1  0.68270886  0.05466420  0.08590554  1
  P  P5  1  0.62806736  0.65189938  0.92139401  1
  P  P6  1  0.34106894  0.97305333  0.92076814  1
  P  P7  1  0.33733589  0.37224400  0.41198365  1
  P  P8  1  0.03343384  0.67197038  0.41291742  1
  S  S0  1  0.71478062  0.71589586  0.24936670  1
  S  S1  1  0.29470417  0.29676015  0.74929951  1
  S  S2  1  0.00181079  0.70619437  0.74909859  1
  S  S3  1  0.38122648  0.04795755  0.57893538  1
  S  S4  1  0.66634253  0.61997470  0.57977007  1
  S  S5  1  0.94128008  0.61733009  0.08736369  1
  S  S6  1  0.37935145  0.32267223  0.08763305  1
  S  S7  1  0.03429499  0.37683987  0.91994430  1
  S  S8  1  0.62511861  0.95659544  0.41293003  1
  O  O0  1  0.20805495  0.04060293  0.30262390  1
  O  O1  1  0.82668975  0.79899222  0.30296636  1
  O  O2  1  0.96783661  0.17181147  0.30806788  1
  O  O3  1  0.21198750  0.18870679  0.80348662  1
  O  O4  1  0.98477092  0.79218031  0.80325892  1
  O  O5  1  0.80701990  0.01726938  0.80987898  1
  O  O6  1  0.79926917  0.98125961  0.69614308  1
  O  O7  1  0.19097836  0.20930820  0.69467220  1
  O  O8  1  0.02378442  0.81268023  0.69459989  1
  O  O9  1  0.79633118  0.82524417  0.19475530  1
  O  O10  1  0.03858759  0.20211031  0.19724120  1
  O  O11  1  0.16613353  0.96357169  0.19277216  1
  O  O12  1  0.86638999  0.35307388  0.63482797  1
  O  O13  1  0.47767133  0.12667075  0.63526315  1
  O  O14  1  0.64286842  0.51943233  0.63562259  1
  O  O15  1  0.85324204  0.50802945  0.14123975  1
  O  O16  1  0.65108720  0.14349466  0.13943430  1
  O  O17  1  0.48978270  0.35099139  0.14243704  1
  O  O18  1  0.46386110  0.30155925  0.03353908  1
  O  O19  1  0.83592087  0.53464218  0.03197997  1
  O  O20  1  0.70409807  0.16255275  0.02724025  1
  O  O21  1  0.47236183  0.16048968  0.52585644  1
  O  O22  1  0.68189950  0.52833558  0.52675567  1
  O  O23  1  0.83886447  0.31740634  0.52073705  1
  O  O24  1  0.53875404  0.69206714  0.97344750  1
  O  O25  1  0.14552869  0.45819884  0.97294399  1
  O  O26  1  0.30610839  0.84988318  0.97522293  1
  O  O27  1  0.55242888  0.85332650  0.46849394  1
  O  O28  1  0.29277199  0.45117690  0.46651852  1
  O  O29  1  0.14846153  0.71111862  0.46999472  1
  O  O30  1  0.12256617  0.62666819  0.36116003  1
  O  O31  1  0.50748708  0.86769449  0.36066821  1
  O  O32  1  0.36762858  0.49340248  0.35596519  1
  O  O33  1  0.11211806  0.48024340  0.86466076  1
  O  O34  1  0.37804386  0.89121695  0.86486787  1
  O  O35  1  0.51675044  0.62019844  0.86325489  1
  O  O36  1  0.01020804  0.83411901  0.40050492  1
  O  O37  1  0.80794827  0.98268153  0.40580520  1
  O  O38  1  0.16639271  0.18541136  0.40374179  1
  O  O39  1  0.00777427  0.19269633  0.91508690  1
  O  O40  1  0.18059467  0.00013158  0.91359803  1
  O  O41  1  0.81223420  0.82483995  0.91466413  1
  O  O42  1  0.96777824  0.16355018  0.58022383  1
  O  O43  1  0.20088146  0.02741517  0.58175725  1
  O  O44  1  0.83354033  0.79597906  0.58225450  1
  O  O45  1  0.96131713  0.79816981  0.09200663  1
  O  O46  1  0.85145172  0.03672084  0.09438892  1
  O  O47  1  0.20033039  0.15808194  0.09279533  1
  O  O48  1  0.68298426  0.16514021  0.74771655  1
  O  O49  1  0.47544978  0.32055625  0.74568037  1
  O  O50  1  0.83640364  0.53003621  0.74650045  1
  O  O51  1  0.68940662  0.53128727  0.24372211  1
  O  O52  1  0.83309410  0.31067170  0.24189143  1
  O  O53  1  0.47524092  0.16797952  0.23983383  1
  O  O54  1  0.65011371  0.48918485  0.93246833  1
  O  O55  1  0.85333637  0.35587051  0.92614481  1
  O  O56  1  0.51463120  0.15452863  0.92972001  1
  O  O57  1  0.64623616  0.13984248  0.41847023  1
  O  O58  1  0.50264708  0.35194813  0.42358403  1
  O  O59  1  0.84938701  0.49771625  0.42199253  1
  O  O60  1  0.35575665  0.48049474  0.08229190  1
  O  O61  1  0.11997468  0.63264358  0.08335431  1
  O  O62  1  0.51372029  0.86530886  0.08233291  1
  O  O63  1  0.36785160  0.87115223  0.57531206  1
  O  O64  1  0.51119209  0.64608662  0.57440711  1
  O  O65  1  0.13984310  0.49994518  0.57600231  1
  O  O66  1  0.30907704  0.83019186  0.25988452  1
  O  O67  1  0.53265539  0.69373637  0.25520812  1
  O  O68  1  0.16996385  0.47511987  0.25882308  1
  O  O69  1  0.30472947  0.47172015  0.75313636  1
  O  O70  1  0.15786794  0.68153618  0.75439887  1
  O  O71  1  0.51675600  0.82882420  0.75232361  1
loop_
_geom_bond_atom_site_label_1
_geom_bond_atom_site_label_2
_geom_bond_distance
_geom_bond_site_symmetry_2
Na0 O68 2.317214 1_555
Na0 O53 2.342988 1_555
Na0 O51 2.458857 1_555
Na0 O67 2.482920 1_555
Na0 O32 2.590484 1_555
Na0 O0 2.645517 1_555
Na0 O10 2.696100 1_555
Na0 O17 2.709541 1_555
Na1 O56 2.340650 1_555
Na1 O39 2.395878 1_655
Na1 O41 2.398286 1_545
Na1 O55 2.529350 1_555
Na1 O34 2.606294 1_545
Na1 O5 2.636261 1_555
Na1 O20 2.718491 1_556
Na1 O24 2.725160 1_545
Na2 O38 2.378999 1_655
Na2 O59 2.388417 1_555
Na2 O37 2.449127 1_545
Na2 O57 2.474293 1_555
Na2 O28 2.609021 1_655
Na2 O23 2.648261 1_555
Na2 O30 2.667550 1_655
Na2 O2 2.684338 1_555
Na3 O43 2.430099 1_565
Na3 O44 2.489216 1_455
Na3 O42 2.514837 1_465
Na3 O36 2.572033 1_555
Na3 O38 2.579710 1_565
Na3 O37 2.618932 1_455
Na3 O29 3.287636 1_555
Na4 O45 2.469205 1_455
Na4 O40 2.503741 1_564
Na4 O41 2.523937 1_454
Na4 O47 2.534107 1_565
Na4 O46 2.578586 1_465
Na4 O39 2.608395 1_564
Na4 O26 3.443248 1_554
Na5 O49 2.483300 1_555
Na5 O50 2.530843 1_555
Na5 O48 2.543605 1_555
Na5 O56 2.560183 1_555
Na5 O54 2.568961 1_555
Na5 O55 2.581104 1_555
Na5 O35 3.294188 1_555
Na6 O57 2.469869 1_555
Na6 O59 2.496419 1_555
Na6 O58 2.540168 1_555
Na6 O51 2.546364 1_555
Na6 O52 2.563380 1_555
Na6 O53 2.582466 1_555
Na7 O66 2.456886 1_555
Na7 O62 2.469772 1_555
Na7 O61 2.500963 1_555
Na7 O67 2.562058 1_555
Na7 O68 2.602157 1_555
Na7 O60 2.717629 1_555
Na7 O11 3.395019 1_555
Na8 O71 2.441873 1_555
Na8 O69 2.485229 1_555
Na8 O65 2.540020 1_555
Na8 O70 2.540637 1_555
Na8 O63 2.585834 1_555
Na8 O64 2.636570 1_555
Al0 O0 1.831868 1_555
Al0 O36 1.858573 1_545
Al0 O2 1.893355 1_455
Al0 O38 1.903465 1_555
Al0 O1 1.990361 1_445
Al0 O37 2.163780 1_445
Al1 O10 1.865877 1_555
Al1 O11 1.885567 1_545
Al1 O46 1.896222 1_455
Al1 O9 1.941257 1_445
Al1 O47 2.027117 1_555
Al1 O45 2.130823 1_445
Al2 O16 1.767447 1_555
Al2 O52 1.866302 1_555
Al2 O53 1.911891 1_555
Al2 O15 1.930524 1_555
Al2 O17 1.989749 1_555
Al2 O51 2.207697 1_555
Al3 O54 1.852786 1_555
Al3 O20 1.876966 1_556
Al3 O56 1.881772 1_555
Al3 O18 1.947990 1_556
Al3 O19 1.948861 1_556
Al3 O55 2.044318 1_555
Al4 O23 1.855613 1_555
Al4 O22 1.888497 1_555
Al4 O58 1.889017 1_555
Al4 O59 1.922312 1_555
Al4 O21 1.956426 1_555
Al4 O57 2.153765 1_555
Al5 O30 1.831201 1_555
Al5 O66 1.908690 1_555
Al5 O68 1.921093 1_555
Al5 O32 1.950844 1_555
Al5 O31 2.015078 1_555
Al5 O67 2.244062 1_555
O0 P0 1.546444 1_545
O1 S0 1.474933 1_555
O2 P1 1.547211 1_555
O3 S1 1.471181 1_555
O3 Sc0 2.085971 1_445
O4 S2 1.472504 1_655
O4 Sc0 2.039747 1_555
O5 P2 1.538385 1_545
O5 Sc0 2.014404 1_545
O6 P2 1.540216 1_555
O6 Sc1 1.960934 1_565
O7 S1 1.474649 1_555
O7 Sc1 2.073626 1_455
O8 S2 1.469272 1_555
O8 Sc1 2.138555 1_465
O9 S0 1.481480 1_555
O10 P1 1.545337 1_455
O11 P0 1.542523 1_555
O12 P3 1.532742 1_555
O12 Sc2 1.948898 1_555
O13 S3 1.470162 1_555
O13 Sc2 2.050926 1_555
O14 S4 1.465064 1_555
O14 Sc2 2.100002 1_555
O15 S5 1.478389 1_555
O16 P4 1.526206 1_555
O17 S6 1.485830 1_555
O18 S6 1.477420 1_555
O19 S5 1.485291 1_555
O20 P4 1.553596 1_555
O21 S3 1.480140 1_555
O22 S4 1.475132 1_555
O23 P3 1.545771 1_555
O24 P5 1.537710 1_555
O24 Sc3 1.997237 1_556
O25 S7 1.459291 1_555
O25 Sc3 2.138069 1_556
O26 P6 1.532633 1_555
O26 Sc3 1.973983 1_556
O27 S8 1.467382 1_555
O27 Sc4 2.129193 1_555
O28 P7 1.545190 1_555
O28 Sc4 2.017135 1_555
O29 P8 1.537524 1_555
O29 Sc4 2.005375 1_555
O30 P8 1.553820 1_555
O31 S8 1.480251 1_555
O32 P7 1.556144 1_555
O33 S7 1.469189 1_555
O33 Sc5 2.156809 1_555
O34 P6 1.553682 1_555
O34 Sc5 2.036506 1_555
O35 P5 1.547283 1_555
O35 Sc5 2.009812 1_555
O36 P8 1.531704 1_555
O37 S8 1.490464 1_555
O38 P7 1.558714 1_555
O39 S7 1.493185 1_555
O39 Sc0 2.176212 1_445
O40 P6 1.523847 1_545
O40 Sc0 2.022414 1_445
O41 P5 1.550025 1_555
O41 Sc0 2.058677 1_555
O42 P3 1.550333 1_555
O42 Sc1 2.026584 1_555
O43 S3 1.479838 1_555
O43 Sc1 2.225931 1_455
O44 S4 1.482765 1_555
O44 Sc1 2.140187 1_565
O45 S5 1.486720 1_555
O46 P4 1.550903 1_555
O47 S6 1.490674 1_555
O48 P2 1.538674 1_545
O48 Sc2 1.993290 1_555
O49 S1 1.473090 1_555
O49 Sc2 2.158904 1_555
O50 S2 1.476527 1_655
O50 Sc2 2.099655 1_555
O51 S0 1.502541 1_555
O52 P1 1.544520 1_555
O53 P0 1.573979 1_545
O54 P5 1.525817 1_555
O55 S7 1.489590 1_655
O56 P6 1.545538 1_545
O57 S8 1.505279 1_545
O58 P7 1.542453 1_555
O59 P8 1.560500 1_655
O60 S6 1.478316 1_555
O60 Sc3 2.178854 1_555
O61 S5 1.486319 1_455
O61 Sc3 2.216531 1_555
O62 P4 1.555080 1_565
O62 Sc3 2.023894 1_555
O63 S3 1.474912 1_565
O63 Sc4 2.149234 1_555
O64 S4 1.470154 1_555
O64 Sc4 2.150742 1_555
O65 P3 1.540457 1_455
O65 Sc4 2.009826 1_555
O66 P0 1.547934 1_555
O67 S0 1.494613 1_555
O68 P1 1.570896 1_455
O69 S1 1.472351 1_555
O69 Sc5 2.180956 1_555
O70 S2 1.470195 1_555
O70 Sc5 2.174393 1_555
O71 P2 1.539456 1_555
O71 Sc5 2.021198 1_555
