# generated using pymatgen
data_Na10Ga4Si7Ge4S5O48
_symmetry_space_group_name_H-M   'P 1'
_cell_length_a   17.40582590
_cell_length_b   8.77357835
_cell_length_c   22.02704873
_cell_angle_alpha   89.86370426
_cell_angle_beta   89.02577539
_cell_angle_gamma   120.19225437
_symmetry_Int_Tables_number   1
_chemical_formula_structural   Na10Ga4Si7Ge4S5O48
_chemical_formula_sum   'Na30 Ga12 Si21 Ge12 S15 O144'
_cell_volume   2906.80705732
_cell_formula_units_Z   3
loop_
 _symmetry_equiv_pos_site_id
 _symmetry_equiv_pos_as_xyz
  1  'x, y, z'
loop_
 _atom_site_type_symbol
 _atom_site_label
 _atom_site_symmetry_multiplicity
 _atom_site_fract_x
 _atom_site_fract_y
 _atom_site_fract_z
 _atom_site_occupancy
  Na  Na0  1  0.18399581  0.36879353  0.24623526  1
  Na  Na1  1  0.68393832  0.36888351  0.24618115  1
  Na  Na2  1  0.99616964  0.62918220  0.25170929  1
  Na  Na3  1  0.49632100  0.62927858  0.25154537  1
  Na  Na4  1  0.49605242  0.36157351  0.75405159  1
  Na  Na5  1  0.18355587  0.99911804  0.74806093  1
  Na  Na6  1  0.68457746  0.99949957  0.74788079  1
  Na  Na7  1  0.65388563  0.33819807  0.58192086  1
  Na  Na8  1  0.01826951  0.70293338  0.58179365  1
  Na  Na9  1  0.83024557  0.96284883  0.58720894  1
  Na  Na10  1  0.48661384  0.66931995  0.91520483  1
  Na  Na11  1  0.98794028  0.67239095  0.91446680  1
  Na  Na12  1  0.85084615  0.03282763  0.91218259  1
  Na  Na13  1  0.16285814  0.29531883  0.91953706  1
  Na  Na14  1  0.48699958  0.30505610  0.41463214  1
  Na  Na15  1  0.98608823  0.30363357  0.41457205  1
  Na  Na16  1  0.35144814  0.66867492  0.41223468  1
  Na  Na17  1  0.85144260  0.66878682  0.41361820  1
  Na  Na18  1  0.01108197  0.00542516  0.49885944  1
  Na  Na19  1  0.50617508  0.99498725  0.49838856  1
  Na  Na20  1  0.00534418  0.00759958  0.00105638  1
  Na  Na21  1  0.50628702  0.01782606  0.99793868  1
  Na  Na22  1  0.33624735  0.32977359  0.83269246  1
  Na  Na23  1  0.83701707  0.33667990  0.82943642  1
  Na  Na24  1  0.33265728  0.32927377  0.33114676  1
  Na  Na25  1  0.83265751  0.32887372  0.33182328  1
  Na  Na26  1  0.17091752  0.66491298  0.16281590  1
  Na  Na27  1  0.67068917  0.66451003  0.16277670  1
  Na  Na28  1  0.17053119  0.66976279  0.66752931  1
  Na  Na29  1  0.66999212  0.67618444  0.66613655  1
  Ga  Ga0  1  0.00171264  -0.00027121  0.35176688  1
  Ga  Ga1  1  0.50218048  0.99957007  0.35145144  1
  Ga  Ga2  1  0.99959052  0.99942037  0.85022779  1
  Ga  Ga3  1  0.49814821  0.00358340  0.85397343  1
  Ga  Ga4  1  0.33277216  0.32218304  0.68827801  1
  Ga  Ga5  1  0.83509813  0.33296303  0.68705528  1
  Ga  Ga6  1  0.33500324  0.34693826  0.18527876  1
  Ga  Ga7  1  0.83451594  0.34688336  0.18541876  1
  Ga  Ga8  1  0.16002864  0.64841523  0.01759377  1
  Ga  Ga9  1  0.65774845  0.64514334  0.01777955  1
  Ga  Ga10  1  0.16337448  0.67255387  0.51654209  1
  Ga  Ga11  1  0.66243327  0.66778039  0.51963016  1
  Si  Si0  1  0.35660289  0.72239480  0.25035552  1
  Si  Si1  1  0.85650933  0.72235504  0.25039598  1
  Si  Si2  1  0.99395533  0.28294610  0.25121920  1
  Si  Si3  1  0.49403622  0.28297023  0.25126709  1
  Si  Si4  1  0.99484898  0.70011602  0.75217252  1
  Si  Si5  1  0.49444982  0.70464000  0.75223711  1
  Si  Si6  1  0.35566538  0.98975260  0.75094993  1
  Si  Si7  1  0.85683940  0.99860953  0.75134605  1
  Si  Si8  1  0.19073494  0.04600607  0.58519557  1
  Si  Si9  1  0.68611398  0.04136322  0.58540045  1
  Si  Si10  1  0.83175333  0.62266677  0.58512414  1
  Si  Si11  1  0.18843441  0.33490072  0.08455271  1
  Si  Si12  1  0.68734009  0.33486885  0.08523896  1
  Si  Si13  1  0.02151488  0.37613083  0.91717164  1
  Si  Si14  1  0.52184379  0.37057647  0.91717814  1
  Si  Si15  1  0.16737358  0.95349023  0.91910277  1
  Si  Si16  1  0.66429459  0.95607279  0.92035210  1
  Si  Si17  1  0.16456627  0.37233896  0.41967655  1
  Si  Si18  1  0.66389186  0.36907714  0.41888756  1
  Si  Si19  1  0.02289754  0.67119135  0.41735804  1
  Si  Si20  1  0.52465817  0.67279988  0.41834185  1
  Ge  Ge0  1  0.99753133  0.97364736  0.64883258  1
  Ge  Ge1  1  0.49760054  0.97459193  0.65112534  1
  Ge  Ge2  1  0.99985860  0.02166626  0.14800083  1
  Ge  Ge3  1  0.49954551  0.02118821  0.14767800  1
  Ge  Ge4  1  0.32757482  0.30526201  0.97981981  1
  Ge  Ge5  1  0.82307274  0.31273963  0.97958176  1
  Ge  Ge6  1  0.32547273  0.33850677  0.47962699  1
  Ge  Ge7  1  0.82572579  0.35033690  0.48092486  1
  Ge  Ge8  1  0.16218538  0.63684598  0.31348110  1
  Ge  Ge9  1  0.66194746  0.63793360  0.31364488  1
  Ge  Ge10  1  0.16012119  0.68392847  0.81304348  1
  Ge  Ge11  1  0.66259819  0.68883325  0.81442365  1
  S  S0  1  0.14591244  0.99739264  0.24930787  1
  S  S1  1  0.64599370  0.99732954  0.24931260  1
  S  S2  1  0.14428800  0.29539506  0.74907113  1
  S  S3  1  0.64547753  0.29346676  0.74979548  1
  S  S4  1  0.47649369  0.32966486  0.58281687  1
  S  S5  1  0.98024394  0.33174087  0.58245591  1
  S  S6  1  0.33285162  0.62392523  0.58382003  1
  S  S7  1  0.47897643  0.62867204  0.08300322  1
  S  S8  1  0.97898508  0.62806946  0.08272915  1
  S  S9  1  0.33249082  0.04171467  0.08455902  1
  S  S10  1  0.83260862  0.04220133  0.08405717  1
  S  S11  1  0.30999212  0.66858618  0.91668356  1
  S  S12  1  0.80858055  0.66105469  0.91708921  1
  S  S13  1  0.30874702  0.95672362  0.41645143  1
  S  S14  1  0.80884404  0.95746307  0.41636080  1
  O  O0  1  0.10857521  0.03621968  0.30451871  1
  O  O1  1  0.60870221  0.03611816  0.30453230  1
  O  O2  1  0.41713431  0.79502034  0.31015598  1
  O  O3  1  0.91741398  0.79518833  0.30998699  1
  O  O4  1  0.48241221  0.17362953  0.31279213  1
  O  O5  1  0.98272789  0.17378932  0.31270031  1
  O  O6  1  0.10871362  0.18411896  0.80547905  1
  O  O7  1  0.60545112  0.17750473  0.80363789  1
  O  O8  1  0.48293103  0.79354726  0.81239799  1
  O  O9  1  0.98453306  0.79312841  0.81241759  1
  O  O10  1  0.42180927  0.04397619  0.80655042  1
  O  O11  1  0.91381892  0.03275034  0.81170189  1
  O  O12  1  0.40273902  0.96542748  0.68705991  1
  O  O13  1  0.90262259  0.96965077  0.68778273  1
  O  O14  1  0.08850207  0.21201716  0.69528063  1
  O  O15  1  0.58940707  0.21748218  0.69373167  1
  O  O16  1  0.02442323  0.83295429  0.69094971  1
  O  O17  1  0.52551796  0.83708279  0.69182430  1
  O  O18  1  0.40572900  0.84404931  0.18878717  1
  O  O19  1  0.90578255  0.84410652  0.18868978  1
  O  O20  1  0.02492400  0.20942548  0.19267277  1
  O  O21  1  0.52459929  0.20872560  0.19275395  1
  O  O22  1  0.08858395  0.96056079  0.19564329  1
  O  O23  1  0.58862791  0.96036611  0.19576221  1
  O  O24  1  0.43732014  0.36069883  0.63834851  1
  O  O25  1  0.93975138  0.36647452  0.63636044  1
  O  O26  1  0.24811025  0.13342997  0.64471624  1
  O  O27  1  0.74733491  0.12575723  0.64405614  1
  O  O28  1  0.31980408  0.51389235  0.63737335  1
  O  O29  1  0.81239515  0.49114356  0.64088765  1
  O  O30  1  0.43997583  0.51729866  0.13912095  1
  O  O31  1  0.93967378  0.51705604  0.13875185  1
  O  O32  1  0.31976472  0.12523475  0.13863560  1
  O  O33  1  0.82043228  0.12707346  0.13787108  1
  O  O34  1  0.24511385  0.35796927  0.14496245  1
  O  O35  1  0.74462370  0.35865994  0.14555372  1
  O  O36  1  0.23541213  0.29959082  0.02261755  1
  O  O37  1  0.73476530  0.29731593  0.02505180  1
  O  O38  1  0.42377071  0.54509814  0.02850711  1
  O  O39  1  0.92419933  0.54550993  0.02783137  1
  O  O40  1  0.35294945  0.15600550  0.02795168  1
  O  O41  1  0.85242259  0.15420387  0.02657159  1
  O  O42  1  0.23653598  0.17293125  0.52372984  1
  O  O43  1  0.73317233  0.17615359  0.52468016  1
  O  O44  1  0.35202706  0.55148910  0.52608451  1
  O  O45  1  0.85843345  0.55038274  0.52237742  1
  O  O46  1  0.42289516  0.30279267  0.52748339  1
  O  O47  1  0.92436420  0.29759580  0.52702490  1
  O  O48  1  0.27142119  0.69734042  0.97250883  1
  O  O49  1  0.77117090  0.69776833  0.97205267  1
  O  O50  1  0.08389707  0.45261351  0.97464115  1
  O  O51  1  0.57989550  0.45685395  0.97528638  1
  O  O52  1  0.14819474  0.82631215  0.97693567  1
  O  O53  1  0.65119058  0.82983056  0.97729847  1
  O  O54  1  0.27140047  0.84551317  0.47200164  1
  O  O55  1  0.77240607  0.84771953  0.47247469  1
  O  O56  1  0.15001970  0.47042847  0.47656776  1
  O  O57  1  0.64760552  0.45842976  0.47801671  1
  O  O58  1  0.07783085  0.70107111  0.47806429  1
  O  O59  1  0.58296469  0.70084707  0.47604547  1
  O  O60  1  0.06784978  0.62987035  0.35593666  1
  O  O61  1  0.56551941  0.62744029  0.35539949  1
  O  O62  1  0.25465125  0.87941493  0.36229785  1
  O  O63  1  0.75431546  0.87755383  0.36236901  1
  O  O64  1  0.19138522  0.50020417  0.35719519  1
  O  O65  1  0.69044305  0.50043537  0.35758764  1
  O  O66  1  0.06693016  0.50791354  0.85706567  1
  O  O67  1  0.56511712  0.50460372  0.85492588  1
  O  O68  1  0.18790005  0.87960762  0.85554502  1
  O  O69  1  0.69170737  0.88387729  0.85749359  1
  O  O70  1  0.25341322  0.62992517  0.86266175  1
  O  O71  1  0.75528393  0.63022137  0.86234847  1
  O  O72  1  0.00478451  0.83370894  0.41013699  1
  O  O73  1  0.50400290  0.83184688  0.41056755  1
  O  O74  1  0.39867449  0.97588759  0.41208022  1
  O  O75  1  0.89900685  0.97597832  0.41161316  1
  O  O76  1  0.07660691  0.18275860  0.41086983  1
  O  O77  1  0.57558215  0.17978572  0.41026095  1
  O  O78  1  0.00715813  0.17856115  0.90987858  1
  O  O79  1  0.50788368  0.17756585  0.90951284  1
  O  O80  1  0.08069211  0.97914689  0.91096992  1
  O  O81  1  0.57647738  0.96918871  0.91075738  1
  O  O82  1  0.40004202  0.82286724  0.91186277  1
  O  O83  1  0.89949908  0.82103512  0.91250942  1
  O  O84  1  0.48702918  0.17192410  0.58763081  1
  O  O85  1  0.98772931  0.17213583  0.58835205  1
  O  O86  1  0.08963760  0.02697763  0.59134075  1
  O  O87  1  0.58675862  0.03535087  0.59162398  1
  O  O88  1  0.41569718  0.80304824  0.58713767  1
  O  O89  1  0.92180768  0.82252586  0.58862502  1
  O  O90  1  0.48573106  0.80311616  0.08882461  1
  O  O91  1  0.98579119  0.80268853  0.08849042  1
  O  O92  1  0.41533323  0.02795512  0.08783906  1
  O  O93  1  0.91571072  0.02811525  0.08756353  1
  O  O94  1  0.08763300  0.14585720  0.09075703  1
  O  O95  1  0.58718570  0.14566846  0.09115980  1
  O  O96  1  0.34184765  0.16218300  0.74427438  1
  O  O97  1  0.83767513  0.16122607  0.74353634  1
  O  O98  1  0.23376506  0.31082914  0.74292500  1
  O  O99  1  0.73331961  0.30751290  0.74401769  1
  O  O100  1  0.41158264  0.50815220  0.74062768  1
  O  O101  1  0.90975902  0.50936702  0.74305246  1
  O  O102  1  0.34187724  0.52180134  0.24436194  1
  O  O103  1  0.84204296  0.52196169  0.24437618  1
  O  O104  1  0.41119606  0.31531214  0.24096517  1
  O  O105  1  0.91128828  0.31541061  0.24074157  1
  O  O106  1  0.23510784  0.15739342  0.24289649  1
  O  O107  1  0.73515353  0.15709256  0.24295426  1
  O  O108  1  0.32017296  0.50680205  0.92194619  1
  O  O109  1  0.82236768  0.50543000  0.92300434  1
  O  O110  1  0.42340321  0.36949897  0.92688024  1
  O  O111  1  0.92231081  0.36504256  0.92744596  1
  O  O112  1  0.25431158  0.15689801  0.92257517  1
  O  O113  1  0.75770275  0.15101024  0.92322932  1
  O  O114  1  0.32194723  0.13843816  0.42244795  1
  O  O115  1  0.82174313  0.13777840  0.42239548  1
  O  O116  1  0.25775856  0.36441556  0.42285779  1
  O  O117  1  0.75697039  0.36127555  0.42132670  1
  O  O118  1  0.42297924  0.48138899  0.42696156  1
  O  O119  1  0.92378392  0.47878966  0.42366841  1
  O  O120  1  0.17916093  0.50985441  0.07735533  1
  O  O121  1  0.67933140  0.51103858  0.07766953  1
  O  O122  1  0.06809776  0.64587288  0.07876502  1
  O  O123  1  0.56831886  0.64729152  0.07925357  1
  O  O124  1  0.25414370  0.86792568  0.07754506  1
  O  O125  1  0.75450452  0.86765233  0.07763942  1
  O  O126  1  0.17560423  0.84586402  0.57752955  1
  O  O127  1  0.67858490  0.85145745  0.57690555  1
  O  O128  1  0.25415215  0.64236957  0.57685857  1
  O  O129  1  0.74542585  0.64502866  0.57603884  1
  O  O130  1  0.06915151  0.49366140  0.57781520  1
  O  O131  1  0.56680461  0.48776816  0.57926384  1
  O  O132  1  0.15319019  0.83709079  0.25628752  1
  O  O133  1  0.65324386  0.83683042  0.25643388  1
  O  O134  1  0.25531824  0.69858376  0.25747485  1
  O  O135  1  0.75521878  0.69828506  0.25751438  1
  O  O136  1  0.08618533  0.48591601  0.25533175  1
  O  O137  1  0.58623265  0.48588065  0.25533832  1
  O  O138  1  0.15415512  0.47057746  0.75560669  1
  O  O139  1  0.65264926  0.46748072  0.75534888  1
  O  O140  1  0.08917931  0.69355921  0.75455438  1
  O  O141  1  0.58636755  0.68618303  0.75516580  1
  O  O142  1  0.25556149  0.81172116  0.75721299  1
  O  O143  1  0.75524268  0.81360585  0.75766167  1
loop_
_geom_bond_atom_site_label_1
_geom_bond_atom_site_label_2
_geom_bond_distance
_geom_bond_site_symmetry_2
Na0 O102 2.375084 1_555
Na0 O136 2.396551 1_555
Na0 O106 2.427960 1_555
Na0 O34 2.477668 1_555
Na0 O134 2.524964 1_555
Na0 O64 2.682254 1_555
Na0 O20 2.690394 1_555
Na0 O0 2.820924 1_555
Na1 O103 2.378470 1_555
Na1 O137 2.394097 1_555
Na1 O107 2.432496 1_555
Na1 O35 2.460362 1_555
Na1 O135 2.522185 1_555
Na1 O21 2.692667 1_555
Na1 O65 2.694131 1_555
Na1 O1 2.823133 1_555
Na2 O103 2.363277 1_555
Na2 O105 2.396683 1_555
Na2 O132 2.408963 1_655
Na2 O136 2.454744 1_655
Na2 O60 2.630088 1_655
Na2 O31 2.692089 1_555
Na2 O3 2.757797 1_555
Na2 O22 2.788722 1_655
Na3 O102 2.367766 1_555
Na3 O104 2.397333 1_555
Na3 O133 2.407536 1_555
Na3 O137 2.454245 1_555
Na3 O61 2.607133 1_555
Na3 O30 2.680402 1_555
Na3 O2 2.765021 1_555
Na3 O23 2.784040 1_555
Na4 O96 2.368466 1_555
Na4 O139 2.397711 1_555
Na4 O100 2.411992 1_555
Na4 O141 2.466056 1_555
Na4 O67 2.558080 1_555
Na4 O10 2.661518 1_555
Na4 O24 2.760665 1_555
Na4 O15 2.829243 1_555
Na5 O140 2.338085 1_555
Na5 O96 2.381564 1_565
Na5 O98 2.418067 1_565
Na5 O142 2.528686 1_555
Na5 O26 2.530127 1_565
Na5 O68 2.604705 1_555
Na5 O16 2.728666 1_555
Na5 O6 2.830470 1_565
Na6 O97 2.304606 1_565
Na6 O99 2.391719 1_565
Na6 O141 2.401377 1_555
Na6 O143 2.498865 1_555
Na6 O27 2.517216 1_565
Na6 O69 2.645593 1_555
Na6 O17 2.716008 1_555
Na6 O7 2.821221 1_565
Na7 O87 2.310206 1_555
Na7 O129 2.340840 1_555
Na7 O131 2.454809 1_555
Na7 O84 2.510792 1_555
Na7 O57 2.544767 1_555
Na7 O15 2.673017 1_555
Na7 O43 2.727326 1_555
Na7 O29 2.739733 1_555
Na8 O126 2.370140 1_555
Na8 O89 2.388869 1_455
Na8 O130 2.407663 1_555
Na8 O86 2.475822 1_565
Na8 O58 2.496449 1_555
Na8 O16 2.644383 1_555
Na8 O45 2.762451 1_455
Na8 O25 2.809974 1_455
Na9 O127 2.324145 1_555
Na9 O85 2.413742 1_565
Na9 O129 2.427028 1_555
Na9 O89 2.455925 1_555
Na9 O13 2.553091 1_555
Na9 O55 2.738012 1_555
Na9 O27 2.777611 1_565
Na9 O47 2.852207 1_565
Na10 O81 2.287450 1_555
Na10 O110 2.296168 1_555
Na10 O82 2.477080 1_555
Na10 O108 2.505510 1_555
Na10 O8 2.526578 1_555
Na10 O38 2.703341 1_556
Na10 O67 2.766241 1_555
Na10 O53 2.853890 1_555
Na11 O80 2.340989 1_655
Na11 O111 2.354783 1_555
Na11 O83 2.468522 1_555
Na11 O109 2.494156 1_555
Na11 O9 2.496963 1_555
Na11 O39 2.712178 1_556
Na11 O66 2.741621 1_655
Na11 O52 2.801470 1_655
Na12 O113 2.332666 1_555
Na12 O78 2.352844 1_655
Na12 O83 2.398519 1_545
Na12 O11 2.453232 1_555
Na12 O111 2.555014 1_555
Na12 O69 2.704003 1_545
Na12 O41 2.732974 1_556
Na12 O49 2.850080 1_545
Na13 O78 2.380662 1_555
Na13 O80 2.407747 1_545
Na13 O108 2.416311 1_555
Na13 O112 2.441495 1_555
Na13 O36 2.608058 1_556
Na13 O50 2.669391 1_555
Na13 O6 2.705430 1_555
Na13 O70 2.816638 1_555
Na13 Na20 3.156456 1_556
Na14 O77 2.300963 1_555
Na14 O118 2.331216 1_555
Na14 O114 2.485544 1_555
Na14 O74 2.499031 1_545
Na14 O4 2.508758 1_555
Na14 O46 2.703266 1_555
Na14 O61 2.757547 1_555
Na14 O57 2.816534 1_555
Na15 O119 2.290867 1_555
Na15 O76 2.300069 1_655
Na15 O115 2.474935 1_555
Na15 O75 2.487429 1_545
Na15 O5 2.507198 1_555
Na15 O47 2.672871 1_555
Na15 O60 2.776486 1_655
Na15 O56 2.844325 1_655
Na16 O73 2.296659 1_555
Na16 O116 2.333582 1_555
Na16 O74 2.389986 1_555
Na16 O2 2.493525 1_555
Na16 O118 2.534623 1_555
Na16 O44 2.710189 1_555
Na16 O64 2.719923 1_555
Na16 O54 2.864120 1_555
Na17 O72 2.308994 1_655
Na17 O117 2.353284 1_555
Na17 O75 2.388559 1_555
Na17 O3 2.525289 1_555
Na17 O119 2.555798 1_555
Na17 O45 2.637858 1_555
Na17 O65 2.742448 1_555
Na17 O55 2.856407 1_555
Na18 O76 2.367189 1_555
Na18 O86 2.427256 1_555
Na18 O72 2.440536 1_545
Na18 O89 2.504322 1_445
Na18 O85 2.602858 1_455
Na18 O75 2.681114 1_445
Na19 O73 2.398624 1_555
Na19 O77 2.406582 1_565
Na19 O87 2.431515 1_565
Na19 O88 2.519870 1_555
Na19 O84 2.626333 1_565
Na19 O74 2.636397 1_555
Na20 O94 2.405616 1_555
Na20 O80 2.441942 1_544
Na20 O78 2.494051 1_554
Na20 O93 2.506064 1_455
Na20 O91 2.530395 1_445
Na20 O83 2.642318 1_444
Na21 O79 2.388454 1_555
Na21 O81 2.410583 1_545
Na21 O95 2.444986 1_556
Na21 O92 2.543870 1_556
Na21 O82 2.625555 1_545
Na21 O90 2.638978 1_546
Na22 O112 2.443002 1_555
Na22 O100 2.472156 1_555
Na22 O96 2.473039 1_555
Na22 O110 2.511131 1_555
Na22 O108 2.605508 1_555
Na22 O98 2.634879 1_555
Na22 Na4 3.141450 1_555
Na23 O101 2.343946 1_555
Na23 O97 2.445556 1_555
Na23 O113 2.540240 1_555
Na23 O99 2.552769 1_555
Na23 O111 2.581982 1_555
Na23 O109 2.623204 1_555
Na24 O104 2.430420 1_555
Na24 O116 2.488617 1_555
Na24 O102 2.496962 1_555
Na24 O106 2.546879 1_555
Na24 O114 2.557318 1_555
Na24 O118 2.592857 1_555
Na25 O105 2.445925 1_555
Na25 O117 2.448301 1_555
Na25 O103 2.510427 1_555
Na25 O119 2.522319 1_555
Na25 O115 2.545204 1_555
Na25 O107 2.556945 1_555
Na26 O120 2.369441 1_555
Na26 O124 2.468854 1_555
Na26 O134 2.502693 1_555
Na26 O136 2.519374 1_555
Na26 O122 2.543993 1_555
Na26 O132 2.660501 1_555
Na27 O121 2.357152 1_555
Na27 O125 2.469318 1_555
Na27 O135 2.505211 1_555
Na27 O137 2.517888 1_555
Na27 O123 2.534675 1_555
Na27 O133 2.662547 1_555
Na28 O142 2.429248 1_555
Na28 O140 2.435182 1_555
Na28 O126 2.483389 1_555
Na28 O138 2.522542 1_555
Na28 O128 2.533838 1_555
Na28 O130 2.607100 1_555
Na29 O127 2.448382 1_555
Na29 O141 2.450355 1_555
Na29 O129 2.451978 1_555
Na29 O143 2.456361 1_555
Na29 O139 2.590808 1_555
Na29 O131 2.601123 1_555
Ga0 O3 1.904112 1_445
Ga0 O5 1.921668 1_455
Ga0 O72 1.961976 1_545
Ga0 O76 1.983694 1_555
Ga0 O0 1.994738 1_555
Ga0 O75 2.126229 1_445
Ga1 O2 1.902875 1_555
Ga1 O4 1.925597 1_565
Ga1 O77 1.960756 1_565
Ga1 O73 1.975160 1_555
Ga1 O1 1.985922 1_565
Ga1 O74 2.147743 1_555
Ga2 O11 1.874962 1_565
Ga2 O9 1.890929 1_555
Ga2 O78 2.005369 1_665
Ga2 O6 2.009504 1_665
Ga2 O80 2.032282 1_655
Ga2 O83 2.129022 1_555
Ga3 O10 1.871197 1_555
Ga3 O79 1.900306 1_555
Ga3 O8 1.957030 1_545
Ga3 O81 1.996081 1_545
Ga3 O7 2.025106 1_555
Ga3 O82 2.061301 1_545
Ga4 O26 1.853597 1_555
Ga4 O100 1.919665 1_555
Ga4 O96 1.933473 1_555
Ga4 O24 1.986679 1_555
Ga4 O98 2.045688 1_555
Ga4 O28 2.125737 1_555
Ga5 O101 1.909498 1_555
Ga5 O29 1.916997 1_555
Ga5 O27 1.949286 1_555
Ga5 O97 1.970043 1_555
Ga5 O25 2.010497 1_555
Ga5 O99 2.070685 1_555
Ga6 O34 1.856101 1_555
Ga6 O104 1.940150 1_555
Ga6 O30 1.946525 1_555
Ga6 O102 1.972788 1_555
Ga6 O106 2.099082 1_555
Ga6 O32 2.099839 1_555
Ga7 O35 1.854392 1_555
Ga7 O105 1.942110 1_555
Ga7 O31 1.953475 1_555
Ga7 O103 1.968764 1_555
Ga7 O107 2.094954 1_555
Ga7 O33 2.102149 1_555
Ga8 O50 1.833839 1_554
Ga8 O52 1.898299 1_554
Ga8 O120 1.932892 1_555
Ga8 O48 2.006273 1_554
Ga8 O122 2.065698 1_555
Ga8 O124 2.246974 1_555
Ga9 O51 1.800083 1_554
Ga9 O53 1.901665 1_554
Ga9 O121 1.928676 1_555
Ga9 O49 2.034345 1_554
Ga9 O123 2.053013 1_555
Ga9 O125 2.273062 1_555
Ga10 O58 1.847848 1_555
Ga10 O56 1.890485 1_555
Ga10 O126 1.963651 1_555
Ga10 O54 1.964961 1_555
Ga10 O130 2.073727 1_555
Ga10 O128 2.196011 1_555
Ga11 O59 1.834826 1_555
Ga11 O57 1.954412 1_555
Ga11 O127 1.957982 1_555
Ga11 O129 2.005072 1_555
Ga11 O55 2.029871 1_555
Ga11 O131 2.064465 1_555
Ge0 O16 1.787151 1_655
Ge0 O13 1.832950 1_555
Ge0 O89 1.887872 1_555
Ge0 O86 1.888518 1_665
Ge0 O14 2.159236 1_665
Ge0 O85 2.265409 1_565
Ge1 O17 1.759155 1_555
Ge1 O12 1.783532 1_555
Ge1 O87 1.872349 1_565
Ge1 O88 2.050475 1_555
Ge1 O15 2.147311 1_565
Ge1 O84 2.303261 1_565
Ge2 O20 1.780922 1_655
Ge2 O19 1.813607 1_545
Ge2 O94 1.834359 1_655
Ge2 O93 2.017419 1_555
Ge2 O22 2.158441 1_645
Ge2 O91 2.240330 1_545
Ge3 O21 1.784395 1_555
Ge3 O18 1.814468 1_545
Ge3 O95 1.822879 1_555
Ge3 O92 2.010529 1_555
Ge3 O23 2.167062 1_545
Ge3 O90 2.226808 1_545
Ge4 O112 1.817529 1_555
Ge4 O36 1.825541 1_556
Ge4 O110 1.856013 1_555
Ge4 O40 1.903935 1_556
Ge4 O38 2.215734 1_556
Ge4 O108 2.234345 1_555
Ge5 O37 1.766868 1_556
Ge5 O113 1.811447 1_555
Ge5 O111 1.909404 1_555
Ge5 O41 1.998198 1_556
Ge5 O109 2.103019 1_555
Ge5 O39 2.203829 1_556
Ge6 O42 1.769377 1_555
Ge6 O116 1.822827 1_555
Ge6 O118 1.893110 1_555
Ge6 O44 1.977129 1_555
Ge6 O114 2.139163 1_555
Ge6 O46 2.162979 1_555
Ge7 O45 1.805148 1_555
Ge7 O43 1.823064 1_555
Ge7 O117 1.825684 1_555
Ge7 O119 1.938855 1_555
Ge7 O115 2.242591 1_555
Ge7 O47 2.247009 1_555
Ge8 O64 1.801855 1_555
Ge8 O60 1.849555 1_555
Ge8 O136 1.856831 1_555
Ge8 O134 1.867825 1_555
Ge8 O62 2.213689 1_555
Ge8 O132 2.229582 1_555
Ge9 O65 1.802986 1_555
Ge9 O61 1.860948 1_555
Ge9 O137 1.861010 1_555
Ge9 O135 1.873147 1_555
Ge9 O63 2.196875 1_555
Ge9 O133 2.217681 1_555
Ge10 O68 1.801602 1_555
Ge10 O140 1.830361 1_555
Ge10 O66 1.837417 1_555
Ge10 O142 1.892007 1_555
Ge10 O70 2.210780 1_555
Ge10 O138 2.221593 1_555
Ge11 O69 1.799189 1_555
Ge11 O67 1.862969 1_555
Ge11 O141 1.868915 1_555
Ge11 O143 1.873863 1_555
Ge11 O71 2.207083 1_555
Ge11 O139 2.275131 1_555
O0 S0 1.488334 1_545
O1 S1 1.487912 1_545
O2 Si0 1.620838 1_555
O3 Si1 1.620202 1_555
O4 Si3 1.608443 1_555
O5 Si2 1.608087 1_555
O6 S2 1.496795 1_555
O7 S3 1.476580 1_555
O8 Si5 1.599344 1_555
O9 Si4 1.613566 1_555
O10 Si6 1.597356 1_545
O11 Si7 1.608956 1_545
O12 Si6 1.683896 1_555
O13 Si7 1.681459 1_555
O14 S2 1.486822 1_555
O15 S3 1.520671 1_555
O16 Si4 1.675529 1_455
O17 Si5 1.658200 1_555
O18 Si0 1.656894 1_555
O19 Si1 1.660131 1_555
O20 Si2 1.643092 1_455
O21 Si3 1.642472 1_555
O22 S0 1.488296 1_555
O23 S1 1.486507 1_555
O24 S4 1.481627 1_555
O25 S5 1.479435 1_555
O26 Si8 1.607298 1_555
O27 Si9 1.615804 1_555
O28 S6 1.462875 1_555
O29 Si10 1.594344 1_555
O30 S7 1.497377 1_555
O31 S8 1.494953 1_555
O32 S9 1.470812 1_555
O33 S10 1.469308 1_555
O34 Si11 1.621716 1_555
O35 Si12 1.624750 1_555
O36 Si11 1.686600 1_555
O37 Si12 1.669125 1_555
O38 S7 1.495545 1_555
O39 S8 1.498300 1_555
O40 S9 1.518828 1_555
O41 S10 1.525218 1_555
O42 Si8 1.664901 1_555
O43 Si9 1.685010 1_555
O44 S6 1.528194 1_555
O45 Si10 1.675318 1_555
O46 S4 1.493418 1_555
O47 S5 1.508513 1_555
O48 S11 1.473160 1_555
O49 S12 1.476315 1_555
O50 Si13 1.596769 1_555
O51 Si14 1.584784 1_555
O52 Si15 1.607291 1_555
O53 Si16 1.606792 1_555
O54 S13 1.483618 1_555
O55 S14 1.486789 1_555
O56 Si17 1.608916 1_555
O57 Si18 1.614651 1_555
O58 Si19 1.601263 1_555
O59 Si20 1.581212 1_555
O60 Si19 1.680980 1_555
O61 Si20 1.685288 1_555
O62 S13 1.472817 1_555
O63 S14 1.476416 1_555
O64 Si17 1.677694 1_555
O65 Si18 1.673516 1_555
O66 Si13 1.659036 1_555
O67 Si14 1.701972 1_555
O68 Si15 1.651681 1_555
O69 Si16 1.682750 1_555
O70 S11 1.485476 1_555
O71 S12 1.474731 1_555
O72 Si19 1.615718 1_555
O73 Si20 1.615953 1_555
O74 S13 1.489187 1_555
O75 S14 1.496039 1_555
O76 Si17 1.611986 1_555
O77 Si18 1.612692 1_555
O78 Si13 1.630926 1_555
O79 Si14 1.595001 1_555
O80 Si15 1.646123 1_555
O81 Si16 1.606891 1_555
O82 S11 1.469674 1_555
O83 S12 1.498133 1_555
O84 S4 1.488427 1_555
O85 S5 1.475777 1_555
O86 Si8 1.684930 1_555
O87 Si9 1.706581 1_555
O88 S6 1.509723 1_555
O89 Si10 1.666694 1_555
O90 S7 1.480930 1_555
O91 S8 1.481943 1_555
O92 S9 1.509162 1_555
O93 S10 1.515599 1_555
O94 Si11 1.706399 1_555
O95 Si12 1.700633 1_555
O96 Si6 1.653551 1_545
O97 Si7 1.629686 1_545
O98 S2 1.497616 1_555
O99 S3 1.474078 1_555
O100 Si5 1.622147 1_555
O101 Si4 1.597925 1_555
O102 Si0 1.651969 1_555
O103 Si1 1.652000 1_555
O104 Si3 1.622785 1_555
O105 Si2 1.621108 1_555
O106 S0 1.483378 1_545
O107 S1 1.482063 1_545
O108 S11 1.520696 1_555
O109 S12 1.506194 1_555
O110 Si14 1.718395 1_555
O111 Si13 1.691131 1_655
O112 Si15 1.664011 1_545
O113 Si16 1.667245 1_545
O114 S13 1.498529 1_545
O115 S14 1.488488 1_545
O116 Si17 1.660775 1_555
O117 Si18 1.657348 1_555
O118 Si20 1.728053 1_555
O119 Si19 1.704895 1_655
O120 Si11 1.629796 1_555
O121 Si12 1.628651 1_555
O122 S8 1.479701 1_455
O123 S7 1.480485 1_555
O124 S9 1.457847 1_565
O125 S10 1.458404 1_565
O126 Si8 1.648957 1_565
O127 Si9 1.615845 1_565
O128 S6 1.468371 1_555
O129 Si10 1.625701 1_555
O130 S5 1.485309 1_455
O131 S4 1.484385 1_555
O132 S0 1.482069 1_555
O133 S1 1.483839 1_555
O134 Si0 1.672188 1_555
O135 Si1 1.671369 1_555
O136 Si2 1.699071 1_455
O137 Si3 1.698462 1_555
O138 S2 1.465916 1_555
O139 S3 1.473484 1_555
O140 Si4 1.673262 1_455
O141 Si5 1.689414 1_555
O142 Si6 1.657754 1_555
O143 Si7 1.698431 1_555
