# generated using pymatgen
data_ZnH4(CO3)2
_symmetry_space_group_name_H-M   'P 1'
_cell_length_a   6.70826921
_cell_length_b   6.70826921
_cell_length_c   9.78065951
_cell_angle_alpha   56.32518362
_cell_angle_beta   56.32518362
_cell_angle_gamma   48.52824255
_symmetry_Int_Tables_number   1
_chemical_formula_structural   ZnH4(CO3)2
_chemical_formula_sum   'Zn2 H8 C4 O12'
_cell_volume   261.77836956
_cell_formula_units_Z   2
loop_
 _symmetry_equiv_pos_site_id
 _symmetry_equiv_pos_as_xyz
  1  'x, y, z'
loop_
 _atom_site_type_symbol
 _atom_site_label
 _atom_site_symmetry_multiplicity
 _atom_site_fract_x
 _atom_site_fract_y
 _atom_site_fract_z
 _atom_site_occupancy
  Zn  Zn0  1  0.57334200  0.42665800  0.25000000  1
  Zn  Zn1  1  0.42665800  0.57334200  0.75000000  1
  H  H0  1  0.35541500  0.12663500  0.34909300  1
  H  H1  1  0.87336500  0.64458500  0.15090700  1
  H  H2  1  0.49261700  0.19458200  0.14303800  1
  H  H3  1  0.80541800  0.50738300  0.35696200  1
  H  H4  1  0.50738300  0.80541800  0.85696200  1
  H  H5  1  0.12663500  0.35541500  0.84909300  1
  H  H6  1  0.64458500  0.87336500  0.65090700  1
  H  H7  1  0.19458200  0.49261700  0.64303800  1
  C  C0  1  0.12547700  0.97674600  0.14952700  1
  C  C1  1  0.97674600  0.12547700  0.64952700  1
  C  C2  1  0.87452300  0.02325400  0.85047300  1
  C  C3  1  0.02325400  0.87452300  0.35047300  1
  O  O0  1  0.60797900  0.73259900  0.75884400  1
  O  O1  1  0.96056200  0.22050000  0.07430800  1
  O  O2  1  0.26740100  0.39202100  0.74115600  1
  O  O3  1  0.77950000  0.03943800  0.42569200  1
  O  O4  1  0.73259900  0.60797900  0.25884400  1
  O  O5  1  0.39202100  0.26740100  0.24115600  1
  O  O6  1  0.19066500  0.63343000  0.42495000  1
  O  O7  1  0.63343000  0.19066500  0.92495000  1
  O  O8  1  0.22050000  0.96056200  0.57430800  1
  O  O9  1  0.36657000  0.80933500  0.07505000  1
  O  O10  1  0.03943800  0.77950000  0.92569200  1
  O  O11  1  0.80933500  0.36657000  0.57505000  1
loop_
_geom_bond_atom_site_label_1
_geom_bond_atom_site_label_2
_geom_bond_distance
_geom_bond_site_symmetry_2
H0 O5 0.990266 1_555
H1 O4 0.990266 1_555
H2 O5 0.989969 1_555
H3 O4 0.989969 1_555
H4 O0 0.989969 1_555
H5 O2 0.990266 1_555
H6 O0 0.990266 1_555
H7 O2 0.989969 1_555
C0 O9 1.265923 1_555
C0 O1 1.269420 1_465
C0 C3 1.561047 1_555
C1 O11 1.265923 1_555
C1 O8 1.269420 1_645
C1 C2 1.561047 1_555
C2 O7 1.265923 1_555
C2 O10 1.269420 1_645
C3 O6 1.265923 1_555
C3 O3 1.269420 1_465
O0 Zn1 2.137440 1_555
O1 Zn0 2.130768 1_555
O2 Zn1 2.137440 1_555
O3 Zn0 2.130768 1_555
O4 Zn0 2.137440 1_555
O5 Zn0 2.137440 1_555
O6 Zn0 2.118144 1_555
O7 Zn1 2.118144 1_555
O8 Zn1 2.130768 1_555
O9 Zn0 2.118144 1_555
O10 Zn1 2.130768 1_555
O11 Zn1 2.118144 1_555
