# generated using pymatgen
data_Na6Sc5Ta3(PO4)12
_symmetry_space_group_name_H-M   'P 1'
_cell_length_a   17.70387230
_cell_length_b   8.85056962
_cell_length_c   22.81065844
_cell_angle_alpha   90.02841803
_cell_angle_beta   90.00559206
_cell_angle_gamma   119.97354002
_symmetry_Int_Tables_number   1
_chemical_formula_structural   Na6Sc5Ta3(PO4)12
_chemical_formula_sum   'Na18 Sc15 Ta9 P36 O144'
_cell_volume   3096.16138643
_cell_formula_units_Z   3
loop_
 _symmetry_equiv_pos_site_id
 _symmetry_equiv_pos_as_xyz
  1  'x, y, z'
loop_
 _atom_site_type_symbol
 _atom_site_label
 _atom_site_symmetry_multiplicity
 _atom_site_fract_x
 _atom_site_fract_y
 _atom_site_fract_z
 _atom_site_occupancy
  Na  Na0  1  0.68342903  0.36812971  0.24937073  1
  Na  Na1  1  0.00017033  0.63227635  0.24946874  1
  Na  Na2  1  0.99957176  0.36627731  0.74782178  1
  Na  Na3  1  0.49963482  0.36634597  0.74793115  1
  Na  Na4  1  0.18298388  0.99807692  0.74782498  1
  Na  Na5  1  0.68296276  0.99809654  0.74802112  1
  Na  Na6  1  0.00010110  0.99967272  0.50420066  1
  Na  Na7  1  0.49992541  0.00007147  0.50432817  1
  Na  Na8  1  0.99897058  0.99825270  0.00493949  1
  Na  Na9  1  0.50108804  0.00212456  0.00458297  1
  Na  Na10  1  0.33319296  0.34068920  0.83570610  1
  Na  Na11  1  0.83285979  0.34026060  0.83635046  1
  Na  Na12  1  0.33322846  0.33356049  0.33846537  1
  Na  Na13  1  0.83312193  0.32491375  0.33646307  1
  Na  Na14  1  0.16957774  0.66534965  0.16970854  1
  Na  Na15  1  0.66789197  0.67695188  0.16932756  1
  Na  Na16  1  0.17087903  0.66609553  0.66571073  1
  Na  Na17  1  0.67084069  0.66600192  0.66588343  1
  Sc  Sc0  1  0.99909527  0.99866927  0.64443506  1
  Sc  Sc1  1  0.49905727  0.99853076  0.64446772  1
  Sc  Sc2  1  0.99833463  0.00054245  0.14639014  1
  Sc  Sc3  1  0.50084528  0.99940913  0.14638346  1
  Sc  Sc4  1  0.33296665  0.34028574  0.68154097  1
  Sc  Sc5  1  0.83294370  0.34022585  0.68156984  1
  Sc  Sc6  1  0.83291462  0.32376318  0.18375158  1
  Sc  Sc7  1  0.33363142  0.33300358  0.98022095  1
  Sc  Sc8  1  0.83320312  0.33294330  0.98194851  1
  Sc  Sc9  1  0.33322833  0.33295971  0.48164860  1
  Sc  Sc10  1  0.83350953  0.33394135  0.48127397  1
  Sc  Sc11  1  0.16993735  0.66614857  0.31500893  1
  Sc  Sc12  1  0.66620766  0.67314422  0.31530676  1
  Sc  Sc13  1  0.16950191  0.66603859  0.81615753  1
  Sc  Sc14  1  0.66941197  0.66628538  0.81631549  1
  Ta  Ta0  1  0.00042208  0.00310439  0.35507260  1
  Ta  Ta1  1  0.49907130  0.99773688  0.35511532  1
  Ta  Ta2  1  0.99933222  0.99838336  0.85530344  1
  Ta  Ta3  1  0.49966239  0.99854420  0.85531617  1
  Ta  Ta4  1  0.33346292  0.33527861  0.18661437  1
  Ta  Ta5  1  0.16637315  0.66711203  0.02104776  1
  Ta  Ta6  1  0.66697639  0.66571664  0.02085704  1
  Ta  Ta7  1  0.16644544  0.66689021  0.51993134  1
  Ta  Ta8  1  0.66651586  0.66692763  0.52006763  1
  P  P0  1  0.14492375  0.00212767  0.24943926  1
  P  P1  1  0.64403971  0.99790321  0.24979571  1
  P  P2  1  0.35601965  0.71211913  0.24894819  1
  P  P3  1  0.85464298  0.71175082  0.25003554  1
  P  P4  1  0.00042587  0.28996054  0.24988003  1
  P  P5  1  0.49864288  0.28732790  0.24966086  1
  P  P6  1  0.14459986  0.28934986  0.75013808  1
  P  P7  1  0.64464169  0.28956149  0.75008657  1
  P  P8  1  0.99895359  0.70971930  0.75033204  1
  P  P9  1  0.49892967  0.70969905  0.75031358  1
  P  P10  1  0.35490640  0.99778372  0.74988008  1
  P  P11  1  0.85481463  0.99769639  0.74982594  1
  P  P12  1  0.47944787  0.33344886  0.58281937  1
  P  P13  1  0.97947528  0.33361411  0.58280798  1
  P  P14  1  0.18732808  0.04133045  0.58297332  1
  P  P15  1  0.68738485  0.04152900  0.58290105  1
  P  P16  1  0.33323986  0.62564238  0.58159886  1
  P  P17  1  0.83331017  0.62561597  0.58164008  1
  P  P18  1  0.47780554  0.62225247  0.08211766  1
  P  P19  1  0.97874591  0.62568650  0.08302600  1
  P  P20  1  0.33355677  0.04486297  0.08246919  1
  P  P21  1  0.83375959  0.04178723  0.08160073  1
  P  P22  1  0.18884908  0.33328436  0.08215340  1
  P  P23  1  0.68718194  0.33181811  0.08308046  1
  P  P24  1  0.31174463  0.66626354  0.91687062  1
  P  P25  1  0.81172339  0.66536870  0.91665728  1
  P  P26  1  0.02143842  0.37701676  0.91577080  1
  P  P27  1  0.52150071  0.37688842  0.91555731  1
  P  P28  1  0.16693517  0.95693026  0.91572136  1
  P  P29  1  0.66711468  0.95721319  0.91589631  1
  P  P30  1  0.31109761  0.95691853  0.41597148  1
  P  P31  1  0.81157028  0.95731128  0.41623991  1
  P  P32  1  0.16739467  0.37725849  0.41627136  1
  P  P33  1  0.66695863  0.37724724  0.41499119  1
  P  P34  1  0.02167957  0.66627096  0.41493271  1
  P  P35  1  0.52110097  0.66506555  0.41616546  1
  O  O0  1  0.10120061  0.03094093  0.30519068  1
  O  O1  1  0.59589797  0.02494527  0.30490926  1
  O  O2  1  0.41431578  0.79886232  0.30481961  1
  O  O3  1  0.91584271  0.80659405  0.30501486  1
  O  O4  1  0.48386276  0.16940569  0.30506375  1
  O  O5  1  0.98945503  0.17178292  0.30540721  1
  O  O6  1  0.09709403  0.16872833  0.80571713  1
  O  O7  1  0.59713028  0.16885211  0.80566565  1
  O  O8  1  0.48826062  0.80546324  0.80601820  1
  O  O9  1  0.98829824  0.80558879  0.80605644  1
  O  O10  1  0.41500547  0.02394107  0.80544575  1
  O  O11  1  0.91503135  0.02397061  0.80543830  1
  O  O12  1  0.39757310  0.97240036  0.69642509  1
  O  O13  1  0.89764249  0.97239130  0.69645127  1
  O  O14  1  0.08674786  0.20575579  0.69705286  1
  O  O15  1  0.58676165  0.20581688  0.69703197  1
  O  O16  1  0.01667576  0.82662934  0.69752144  1
  O  O17  1  0.51660021  0.82654725  0.69748809  1
  O  O18  1  0.39790882  0.82065839  0.19511003  1
  O  O19  1  0.89737444  0.82168832  0.19627436  1
  O  O20  1  0.01392835  0.20569073  0.19622699  1
  O  O21  1  0.51448681  0.20557437  0.19616219  1
  O  O22  1  0.08801009  0.97023950  0.19602295  1
  O  O23  1  0.58902942  0.97424803  0.19593334  1
  O  O24  1  0.44403893  0.37011266  0.64005451  1
  O  O25  1  0.94398799  0.37004248  0.64007818  1
  O  O26  1  0.24104204  0.11224558  0.64023119  1
  O  O27  1  0.74102580  0.11227823  0.64019807  1
  O  O28  1  0.31448972  0.51418152  0.63744426  1
  O  O29  1  0.81442504  0.51415915  0.63744963  1
  O  O30  1  0.43298084  0.50283202  0.13787071  1
  O  O31  1  0.94393362  0.51770282  0.13975434  1
  O  O32  1  0.31840978  0.13461839  0.13801074  1
  O  O33  1  0.81438344  0.11462622  0.13714377  1
  O  O34  1  0.24875742  0.36395078  0.13794937  1
  O  O35  1  0.74097099  0.36942917  0.13989077  1
  O  O36  1  0.23143142  0.30920033  0.02859400  1
  O  O37  1  0.73060739  0.30861162  0.02932439  1
  O  O38  1  0.42314699  0.53715358  0.02855341  1
  O  O39  1  0.92393628  0.53864259  0.02923486  1
  O  O40  1  0.34550525  0.15325913  0.02865467  1
  O  O41  1  0.84589891  0.15084996  0.02757415  1
  O  O42  1  0.23108378  0.15299916  0.52970777  1
  O  O43  1  0.73121779  0.15328974  0.52960867  1
  O  O44  1  0.34586286  0.54042798  0.52790158  1
  O  O45  1  0.84583471  0.54043414  0.52785262  1
  O  O46  1  0.42363722  0.30943115  0.52955289  1
  O  O47  1  0.92353159  0.30945363  0.52954118  1
  O  O48  1  0.26708277  0.69678772  0.97151276  1
  O  O49  1  0.76681260  0.69609376  0.97113716  1
  O  O50  1  0.08259942  0.46883045  0.97015140  1
  O  O51  1  0.58168424  0.46782125  0.96976881  1
  O  O52  1  0.15269591  0.83613772  0.97005695  1
  O  O53  1  0.65171033  0.83569194  0.97000175  1
  O  O54  1  0.26716538  0.83757281  0.47074988  1
  O  O55  1  0.76725973  0.83783431  0.47089014  1
  O  O56  1  0.15181120  0.46578311  0.47095434  1
  O  O57  1  0.65169376  0.46750551  0.46937922  1
  O  O58  1  0.08193135  0.69622241  0.46947160  1
  O  O59  1  0.58105661  0.69709346  0.47082377  1
  O  O60  1  0.06255486  0.64338282  0.35939531  1
  O  O61  1  0.56344649  0.64131251  0.36196587  1
  O  O62  1  0.25707150  0.87248826  0.36173501  1
  O  O63  1  0.75740016  0.87227920  0.36200659  1
  O  O64  1  0.17896489  0.48510887  0.36203133  1
  O  O65  1  0.67815122  0.48107473  0.35929752  1
  O  O66  1  0.06222238  0.48153024  0.86016276  1
  O  O67  1  0.56172048  0.48103947  0.85984421  1
  O  O68  1  0.17843093  0.87597274  0.86000939  1
  O  O69  1  0.67822269  0.87580135  0.86002948  1
  O  O70  1  0.25766041  0.64180990  0.86251439  1
  O  O71  1  0.75772665  0.64180866  0.86229942  1
  O  O72  1  0.01516146  0.83779614  0.40833010  1
  O  O73  1  0.51451287  0.83675671  0.40861726  1
  O  O74  1  0.40329346  0.96959006  0.40850885  1
  O  O75  1  0.90395240  0.97082358  0.40875899  1
  O  O76  1  0.08171005  0.19277816  0.40918739  1
  O  O77  1  0.58091718  0.19200048  0.40810632  1
  O  O78  1  0.01509099  0.19292252  0.90914572  1
  O  O79  1  0.51476175  0.19249356  0.90898765  1
  O  O80  1  0.08141929  0.96994368  0.90951003  1
  O  O81  1  0.58133986  0.97033198  0.90930737  1
  O  O82  1  0.40355171  0.83707787  0.90955602  1
  O  O83  1  0.90348331  0.83677612  0.90933873  1
  O  O84  1  0.49313058  0.17695167  0.58875639  1
  O  O85  1  0.99314475  0.17707724  0.58877837  1
  O  O86  1  0.09546739  0.01424387  0.58903042  1
  O  O87  1  0.59550485  0.01427547  0.58900811  1
  O  O88  1  0.41161306  0.80880613  0.58848848  1
  O  O89  1  0.91155800  0.80881952  0.58848692  1
  O  O90  1  0.49048563  0.80349350  0.09032908  1
  O  O91  1  0.99388807  0.81051187  0.08862373  1
  O  O92  1  0.41086456  0.01791098  0.09097550  1
  O  O93  1  0.91179436  0.01398183  0.08780201  1
  O  O94  1  0.09827731  0.17861131  0.09076048  1
  O  O95  1  0.59486528  0.17593615  0.08844416  1
  O  O96  1  0.34855248  0.16643627  0.74767951  1
  O  O97  1  0.84857747  0.16641422  0.74765686  1
  O  O98  1  0.23329267  0.29769536  0.74729636  1
  O  O99  1  0.73329686  0.29773062  0.74723536  1
  O  O100  1  0.41848448  0.52649383  0.74728907  1
  O  O101  1  0.91852138  0.52657565  0.74728308  1
  O  O102  1  0.34852323  0.52632623  0.24142937  1
  O  O103  1  0.84871597  0.53063121  0.24739795  1
  O  O104  1  0.41500587  0.30475342  0.24187867  1
  O  O105  1  0.91818777  0.30879297  0.24729183  1
  O  O106  1  0.23722527  0.17004477  0.24163510  1
  O  O107  1  0.73272317  0.16963950  0.24740989  1
  O  O108  1  0.32450872  0.51043056  0.92400831  1
  O  O109  1  0.82471461  0.51010885  0.92382580  1
  O  O110  1  0.43084834  0.35150323  0.92336037  1
  O  O111  1  0.93103875  0.35214545  0.92346147  1
  O  O112  1  0.24484433  0.13807038  0.92350560  1
  O  O113  1  0.74493685  0.13848676  0.92336719  1
  O  O114  1  0.32472729  0.13881891  0.42359380  1
  O  O115  1  0.82460206  0.13869355  0.42379498  1
  O  O116  1  0.24489028  0.35054799  0.42360849  1
  O  O117  1  0.74444847  0.35064354  0.42319512  1
  O  O118  1  0.43045055  0.51021046  0.42361935  1
  O  O119  1  0.93110330  0.51053095  0.42320813  1
  O  O120  1  0.18211461  0.50458964  0.07534605  1
  O  O121  1  0.67807591  0.50128928  0.07243446  1
  O  O122  1  0.07269220  0.64255236  0.07223089  1
  O  O123  1  0.57000672  0.63655403  0.07551183  1
  O  O124  1  0.24808366  0.86016071  0.07533996  1
  O  O125  1  0.74869974  0.85440060  0.07213091  1
  O  O126  1  0.17842324  0.85468565  0.57304465  1
  O  O127  1  0.67852873  0.85469584  0.57305875  1
  O  O128  1  0.24885134  0.64358775  0.57265120  1
  O  O129  1  0.74877957  0.64321285  0.57260408  1
  O  O130  1  0.07273217  0.50273844  0.57305520  1
  O  O131  1  0.57281704  0.50234864  0.57297400  1
  O  O132  1  0.15465069  0.84078070  0.25723484  1
  O  O133  1  0.65449630  0.83849077  0.25692309  1
  O  O134  1  0.26475308  0.68464408  0.25662784  1
  O  O135  1  0.76214919  0.68266119  0.25690591  1
  O  O136  1  0.07954569  0.47478228  0.25693898  1
  O  O137  1  0.57952611  0.46742525  0.25761328  1
  O  O138  1  0.15166569  0.46823404  0.75781441  1
  O  O139  1  0.65169293  0.46836787  0.75779522  1
  O  O140  1  0.08107714  0.69104617  0.75795109  1
  O  O141  1  0.58104452  0.69097794  0.75785922  1
  O  O142  1  0.26242629  0.84140534  0.75694025  1
  O  O143  1  0.76239443  0.84134599  0.75691194  1
loop_
_geom_bond_atom_site_label_1
_geom_bond_atom_site_label_2
_geom_bond_distance
_geom_bond_site_symmetry_2
Na0 O107 2.319826 1_555
Na0 O137 2.409683 1_555
Na0 O135 2.417481 1_555
Na0 O103 2.535383 1_555
Na0 O35 2.695049 1_555
Na0 O65 2.717801 1_555
Na0 O21 2.861223 1_555
Na0 O1 2.921153 1_555
Na1 O103 2.364479 1_455
Na1 O132 2.423465 1_555
Na1 O136 2.429851 1_555
Na1 O105 2.480657 1_455
Na1 O31 2.696484 1_455
Na1 O60 2.721718 1_555
Na1 O22 2.864934 1_555
Na1 O3 2.917941 1_455
Na2 O97 2.355868 1_555
Na2 O138 2.385047 1_655
Na2 O101 2.471039 1_555
Na2 O140 2.500520 1_655
Na2 O25 2.653703 1_555
Na2 O66 2.775585 1_655
Na2 O14 2.816221 1_655
Na2 O11 2.935898 1_555
Na3 O96 2.357131 1_555
Na3 O139 2.384066 1_555
Na3 O100 2.471437 1_555
Na3 O141 2.499055 1_555
Na3 O24 2.656597 1_555
Na3 O67 2.763592 1_555
Na3 O15 2.816798 1_555
Na3 O10 2.935524 1_555
Na4 O98 2.337842 1_565
Na4 O140 2.407195 1_555
Na4 O142 2.427537 1_555
Na4 O96 2.539308 1_565
Na4 O26 2.658233 1_565
Na4 O68 2.763805 1_555
Na4 O16 2.796705 1_555
Na4 O6 2.937762 1_565
Na5 O99 2.337931 1_565
Na5 O141 2.407193 1_555
Na5 O143 2.427540 1_555
Na5 O97 2.540021 1_565
Na5 O27 2.663102 1_565
Na5 O69 2.760175 1_555
Na5 O17 2.799623 1_555
Na5 O7 2.935154 1_565
Na6 O89 2.522906 1_455
Na6 O85 2.528404 1_465
Na6 O86 2.528445 1_565
Na6 O76 2.691219 1_565
Na6 O75 2.695709 1_455
Na6 O72 2.699040 1_555
Na7 O88 2.520864 1_545
Na7 O84 2.521786 1_555
Na7 O87 2.529182 1_555
Na7 O73 2.700448 1_545
Na7 O74 2.704496 1_545
Na7 O77 2.707321 1_555
Na8 O93 2.487766 1_565
Na8 O91 2.503340 1_555
Na8 O94 2.581362 1_665
Na8 O83 2.690340 1_554
Na8 O80 2.701368 1_654
Na8 O78 2.708735 1_664
Na9 O95 2.495321 1_555
Na9 O90 2.573946 1_545
Na9 O92 2.584141 1_555
Na9 O81 2.687088 1_544
Na9 O79 2.692320 1_554
Na9 O82 2.699983 1_544
Na10 O108 2.562331 1_555
Na10 O100 2.564135 1_555
Na10 O98 2.581844 1_555
Na10 O110 2.613386 1_555
Na10 O112 2.622006 1_555
Na10 O96 2.626852 1_555
Na11 O109 2.544749 1_555
Na11 O101 2.579144 1_555
Na11 O99 2.591597 1_555
Na11 O113 2.603557 1_555
Na11 O111 2.607117 1_555
Na11 O97 2.638720 1_555
Na12 O116 2.544750 1_555
Na12 O118 2.547036 1_555
Na12 O114 2.551130 1_555
Na12 O104 2.717365 1_555
Na12 O106 2.720317 1_555
Na12 O102 2.725014 1_555
Na13 O115 2.542152 1_555
Na13 O105 2.576968 1_555
Na13 O107 2.594253 1_555
Na13 O119 2.602275 1_555
Na13 O117 2.605345 1_555
Na13 O103 2.649583 1_555
Na14 O134 2.551635 1_555
Na14 O136 2.581139 1_555
Na14 O132 2.621786 1_555
Na14 O120 2.649415 1_555
Na14 O124 2.673587 1_555
Na14 O122 2.753158 1_555
Na15 O133 2.535511 1_555
Na15 O135 2.587093 1_555
Na15 O137 2.654706 1_555
Na15 O123 2.662696 1_555
Na15 O125 2.681020 1_555
Na15 O121 2.758869 1_555
Na15 O33 3.497902 1_565
Na16 O128 2.593493 1_555
Na16 O142 2.616915 1_555
Na16 O138 2.646683 1_555
Na16 O126 2.655688 1_555
Na16 O130 2.657559 1_555
Na16 O140 2.711906 1_555
Na16 O28 3.478901 1_555
Na17 O129 2.598113 1_555
Na17 O143 2.613395 1_555
Na17 O139 2.642238 1_555
Na17 O127 2.658454 1_555
Na17 O131 2.661904 1_555
Na17 O141 2.707247 1_555
Na17 O29 3.478705 1_555
O0 P0 1.574361 1_555
O0 Ta0 2.024871 1_555
O1 P1 1.602472 1_545
O1 Ta1 1.973890 1_545
O2 P2 1.576669 1_555
O2 Ta1 2.006129 1_555
O3 P3 1.594136 1_555
O3 Ta0 1.991577 1_665
O4 P5 1.575869 1_555
O4 Ta1 2.023584 1_545
O5 P4 1.591978 1_655
O5 Ta0 1.959892 1_655
O6 P6 1.599611 1_555
O6 Ta2 1.985624 1_445
O7 P7 1.599945 1_555
O7 Ta3 1.983797 1_545
O8 P9 1.589832 1_555
O8 Ta3 1.969499 1_555
O9 P8 1.590650 1_555
O9 Ta2 1.968931 1_555
O10 P10 1.595467 1_545
O10 Ta3 1.981770 1_545
O11 P11 1.597356 1_545
O11 Ta2 1.977408 1_545
O12 P10 1.509078 1_555
O12 Sc1 2.066796 1_555
O13 P11 1.508966 1_555
O13 Sc0 2.066694 1_555
O14 P6 1.518023 1_555
O14 Sc0 2.088895 1_445
O15 P7 1.517880 1_555
O15 Sc1 2.089367 1_545
O16 P8 1.515645 1_455
O16 Sc0 2.087341 1_455
O17 P9 1.515721 1_555
O17 Sc1 2.085725 1_555
O18 P2 1.506815 1_555
O18 Sc3 2.044672 1_555
O19 P3 1.512878 1_555
O19 Sc2 2.042155 1_565
O20 P4 1.512795 1_555
O20 Sc2 2.040168 1_455
O21 P5 1.514412 1_555
O21 Sc3 2.057834 1_545
O22 P0 1.514866 1_565
O22 Sc2 2.073547 1_465
O23 P1 1.515793 1_555
O23 Sc3 2.027740 1_555
O24 P12 1.551058 1_555
O24 Sc4 2.076999 1_555
O25 P13 1.551582 1_555
O25 Sc5 2.076647 1_555
O26 P14 1.551344 1_555
O26 Sc4 2.079844 1_555
O27 P15 1.551422 1_555
O27 Sc5 2.079975 1_555
O28 P16 1.542799 1_555
O28 Sc4 1.998015 1_555
O29 P17 1.541857 1_555
O29 Sc5 1.998974 1_555
O30 P18 1.589875 1_555
O30 Ta4 1.982648 1_555
O31 P19 1.542898 1_555
O31 Sc6 2.108955 1_555
O32 P20 1.587456 1_555
O32 Ta4 1.994817 1_555
O33 P21 1.535815 1_555
O33 Sc6 2.013770 1_555
O34 P22 1.590658 1_555
O34 Ta4 1.981343 1_555
O35 P23 1.542574 1_555
O35 Sc6 2.114565 1_555
O36 P22 1.505609 1_555
O36 Sc7 2.038471 1_554
O37 P23 1.514775 1_555
O37 Sc8 2.030544 1_554
O38 P18 1.505706 1_555
O38 Sc7 2.031802 1_554
O39 P19 1.514103 1_555
O39 Sc8 2.033176 1_554
O40 P20 1.506798 1_555
O40 Sc7 2.032585 1_554
O41 P21 1.513487 1_555
O41 Sc8 2.023511 1_554
O42 P14 1.513121 1_555
O42 Sc9 2.032968 1_555
O43 P15 1.514191 1_555
O43 Sc10 2.039739 1_555
O44 P16 1.512153 1_555
O44 Sc9 2.030394 1_555
O45 P17 1.512964 1_555
O45 Sc10 2.028819 1_555
O46 P12 1.512426 1_555
O46 Sc9 2.032788 1_555
O47 P13 1.513571 1_555
O47 Sc10 2.035736 1_555
O48 P24 1.570044 1_555
O48 Ta5 2.014300 1_556
O49 P25 1.570471 1_555
O49 Ta6 2.002112 1_556
O50 P26 1.578306 1_555
O50 Ta5 2.006041 1_556
O51 P27 1.566550 1_555
O51 Ta6 2.015159 1_556
O52 P28 1.573137 1_555
O52 Ta5 2.003264 1_556
O53 P29 1.569283 1_555
O53 Ta6 2.022332 1_556
O54 P30 1.569265 1_555
O54 Ta7 2.007666 1_555
O55 P31 1.568513 1_555
O55 Ta8 2.008446 1_555
O56 P32 1.568742 1_555
O56 Ta7 2.005128 1_555
O57 P33 1.570071 1_555
O57 Ta8 2.013976 1_555
O58 P34 1.572475 1_555
O58 Ta7 2.004749 1_555
O59 P35 1.568522 1_555
O59 Ta8 2.006409 1_555
O60 P34 1.521841 1_555
O60 Sc11 2.073085 1_555
O61 P35 1.513976 1_555
O61 Sc12 2.002611 1_555
O62 P30 1.512783 1_555
O62 Sc11 2.008391 1_555
O63 P31 1.514659 1_555
O63 Sc12 2.000541 1_555
O64 P32 1.513189 1_555
O64 Sc11 2.000242 1_555
O65 P33 1.522138 1_555
O65 Sc12 2.074172 1_555
O66 P26 1.523134 1_555
O66 Sc13 2.045597 1_555
O67 P27 1.522263 1_555
O67 Sc14 2.046347 1_555
O68 P28 1.521407 1_555
O68 Sc13 2.045120 1_555
O69 P29 1.523997 1_555
O69 Sc14 2.041154 1_555
O70 P24 1.514411 1_555
O70 Sc13 1.983530 1_555
O71 P25 1.514961 1_555
O71 Sc14 1.982444 1_555
O72 P34 1.586152 1_555
O72 Ta0 2.016849 1_565
O73 P35 1.590495 1_555
O73 Ta1 1.996234 1_555
O74 P30 1.588356 1_555
O74 Ta1 1.999816 1_555
O75 P31 1.588392 1_555
O75 Ta0 2.002848 1_665
O76 P32 1.586822 1_555
O76 Ta0 1.999134 1_555
O77 P33 1.592902 1_555
O77 Ta1 2.006263 1_545
O78 P26 1.583355 1_555
O78 Ta2 2.017089 1_445
O79 P27 1.582819 1_555
O79 Ta3 2.014017 1_545
O80 P28 1.581021 1_555
O80 Ta2 2.017345 1_455
O81 P29 1.586884 1_555
O81 Ta3 2.007683 1_555
O82 P24 1.581201 1_555
O82 Ta3 2.010157 1_555
O83 P25 1.583083 1_555
O83 Ta2 2.005372 1_555
O84 P12 1.526736 1_555
O84 Sc1 2.070540 1_545
O85 P13 1.527007 1_555
O85 Sc0 2.069867 1_545
O86 P14 1.527055 1_555
O86 Sc0 2.071910 1_445
O87 P15 1.526942 1_555
O87 Sc1 2.073213 1_545
O88 P16 1.526455 1_555
O88 Sc1 2.060778 1_555
O89 P17 1.525731 1_555
O89 Sc0 2.061393 1_555
O90 P18 1.516066 1_555
O90 Sc3 2.086906 1_555
O91 P19 1.525011 1_555
O91 Sc2 2.106349 1_565
O92 P20 1.514581 1_555
O92 Sc3 2.102943 1_545
O93 P21 1.526063 1_555
O93 Sc2 2.080715 1_555
O94 P22 1.513505 1_555
O94 Sc2 2.107326 1_455
O95 P23 1.528627 1_555
O95 Sc3 2.088610 1_545
O96 P10 1.552768 1_545
O96 Sc4 2.268511 1_555
O97 P11 1.552179 1_545
O97 Sc5 2.267873 1_555
O98 P6 1.536015 1_555
O98 Sc4 2.200493 1_555
O99 P7 1.536082 1_555
O99 Sc5 2.198944 1_555
O100 P9 1.534497 1_555
O100 Sc4 2.182082 1_555
O101 P8 1.534107 1_555
O101 Sc5 2.182384 1_555
O102 P2 1.591429 1_555
O102 Ta4 2.010211 1_555
O103 P3 1.554384 1_555
O103 Sc6 2.241368 1_555
O104 P5 1.573506 1_555
O104 Ta4 2.033687 1_555
O105 P4 1.547087 1_655
O105 Sc6 2.144065 1_555
O106 P0 1.576187 1_555
O106 Ta4 2.032066 1_555
O107 P1 1.547218 1_545
O107 Sc6 2.168038 1_555
O108 P24 1.513746 1_555
O108 Sc7 2.095603 1_555
O109 P25 1.511257 1_555
O109 Sc8 2.115780 1_555
O110 P27 1.515804 1_555
O110 Sc7 2.095328 1_555
O111 P26 1.512835 1_655
O111 Sc8 2.124945 1_555
O112 P28 1.514719 1_545
O112 Sc7 2.099689 1_555
O113 P29 1.514029 1_545
O113 Sc8 2.121226 1_555
O114 P30 1.513888 1_545
O114 Sc9 2.113777 1_555
O115 P31 1.513167 1_545
O115 Sc10 2.110813 1_555
O116 P32 1.513367 1_555
O116 Sc9 2.113279 1_555
O117 P33 1.515005 1_555
O117 Sc10 2.120314 1_555
O118 P35 1.511757 1_555
O118 Sc9 2.116655 1_555
O119 P34 1.516157 1_655
O119 Sc10 2.118157 1_555
O120 P22 1.586785 1_555
O120 Ta5 2.020651 1_555
O121 P23 1.605203 1_555
O121 Ta6 1.956533 1_555
O122 P19 1.612836 1_455
O122 Ta5 1.949728 1_555
O123 P18 1.580129 1_555
O123 Ta6 2.031278 1_555
O124 P20 1.586363 1_565
O124 Ta5 2.018302 1_555
O125 P21 1.602813 1_565
O125 Ta6 1.957941 1_555
O126 P14 1.595108 1_565
O126 Ta7 1.980193 1_555
O127 P15 1.596836 1_565
O127 Ta8 1.978107 1_555
O128 P16 1.592483 1_555
O128 Ta7 1.979310 1_555
O129 P17 1.593476 1_555
O129 Ta8 1.976512 1_555
O130 P13 1.595914 1_455
O130 Ta7 1.981269 1_555
O131 P12 1.596503 1_555
O131 Ta8 1.979313 1_555
O132 P0 1.531814 1_565
O132 Sc11 2.149134 1_555
O133 P1 1.520696 1_555
O133 Sc12 2.064758 1_555
O134 P2 1.519224 1_555
O134 Sc11 2.084241 1_555
O135 P3 1.533324 1_555
O135 Sc12 2.127058 1_555
O136 P4 1.540773 1_555
O136 Sc11 2.115008 1_555
O137 P5 1.530724 1_555
O137 Sc12 2.146474 1_555
O138 P6 1.534518 1_555
O138 Sc13 2.093080 1_555
O139 P7 1.534032 1_555
O139 Sc14 2.096965 1_555
O140 P8 1.552877 1_455
O140 Sc13 2.146767 1_555
O141 P9 1.552782 1_555
O141 Sc14 2.148205 1_555
O142 P10 1.535632 1_555
O142 Sc13 2.095523 1_555
O143 P11 1.534950 1_555
O143 Sc14 2.097751 1_555
