# generated using pymatgen
data_GdPd3
_symmetry_space_group_name_H-M   'P 1'
_cell_length_a   4.11953915
_cell_length_b   4.11978267
_cell_length_c   4.11981470
_cell_angle_alpha   90.00000000
_cell_angle_beta   90.00000000
_cell_angle_gamma   90.00000000
_symmetry_Int_Tables_number   1
_chemical_formula_structural   GdPd3
_chemical_formula_sum   'Gd1 Pd3'
_cell_volume   69.91987188
_cell_formula_units_Z   1
loop_
 _symmetry_equiv_pos_site_id
 _symmetry_equiv_pos_as_xyz
  1  'x, y, z'
loop_
 _atom_site_type_symbol
 _atom_site_label
 _atom_site_symmetry_multiplicity
 _atom_site_fract_x
 _atom_site_fract_y
 _atom_site_fract_z
 _atom_site_occupancy
  Gd  Gd0  1  0.00000000  -0.00000000  -0.00000000  1
  Pd  Pd0  1  0.00000000  0.50000000  0.50000000  1
  Pd  Pd1  1  0.50000000  0.50000000  -0.00000000  1
  Pd  Pd2  1  0.50000000  -0.00000000  0.50000000  1
loop_
_geom_bond_atom_site_label_1
_geom_bond_atom_site_label_2
_geom_bond_distance
_geom_bond_site_symmetry_2
Gd0 Pd1 2.913040 1_555
Gd0 Pd1 2.913040 1_445
Gd0 Pd1 2.913040 1_455
Gd0 Pd1 2.913040 1_545
Gd0 Pd2 2.913051 1_554
Gd0 Pd2 2.913051 1_455
Gd0 Pd2 2.913051 1_555
Gd0 Pd2 2.913051 1_454
Gd0 Pd0 2.913138 1_545
Gd0 Pd0 2.913138 1_544
Gd0 Pd0 2.913138 1_555
Gd0 Pd0 2.913138 1_554
Pd0 Pd2 2.913040 1_455
Pd0 Pd2 2.913040 1_555
Pd0 Pd2 2.913040 1_565
Pd0 Pd2 2.913040 1_465
Pd0 Pd1 2.913051 1_555
Pd0 Pd1 2.913051 1_455
Pd0 Pd1 2.913051 1_456
Pd0 Pd1 2.913051 1_556
Pd1 Pd2 2.913138 1_565
Pd1 Pd2 2.913138 1_564
Pd1 Pd2 2.913138 1_554
Pd1 Pd2 2.913138 1_555
