# generated using pymatgen
data_MgMn6(OF)6
_symmetry_space_group_name_H-M   'P 1'
_cell_length_a   5.37961799
_cell_length_b   14.89835320
_cell_length_c   3.07580123
_cell_angle_alpha   90.00000000
_cell_angle_beta   90.00000000
_cell_angle_gamma   101.28967454
_symmetry_Int_Tables_number   1
_chemical_formula_structural   MgMn6(OF)6
_chemical_formula_sum   'Mg1 Mn6 O6 F6'
_cell_volume   241.74749458
_cell_formula_units_Z   1
loop_
 _symmetry_equiv_pos_site_id
 _symmetry_equiv_pos_as_xyz
  1  'x, y, z'
loop_
 _atom_site_type_symbol
 _atom_site_label
 _atom_site_symmetry_multiplicity
 _atom_site_fract_x
 _atom_site_fract_y
 _atom_site_fract_z
 _atom_site_occupancy
  Mg  Mg0  1  0.00000000  0.50000000  0.98350633  1
  Mn  Mn0  1  0.00000000  0.00000000  0.01313833  1
  Mn  Mn1  1  0.19267631  0.29230170  0.98006188  1
  Mn  Mn2  1  0.80732369  0.70769830  0.98006188  1
  Mn  Mn3  1  0.67012412  0.15603711  0.49374543  1
  Mn  Mn4  1  0.50000000  0.50000000  0.48437261  1
  Mn  Mn5  1  0.32987588  0.84396289  0.49374543  1
  O  O0  1  0.10695295  0.93364715  0.51370773  1
  O  O1  1  0.15955764  0.77380322  0.95492776  1
  O  O2  1  0.30522700  0.43197781  0.98516499  1
  O  O3  1  0.84044236  0.22619678  0.95492776  1
  O  O4  1  0.69477300  0.56802219  0.98516499  1
  O  O5  1  0.89304705  0.06635285  0.51370773  1
  F  F0  1  0.39792061  0.25152328  0.48150478  1
  F  F1  1  0.17825627  0.57297543  0.48339591  1
  F  F2  1  0.43756626  0.09560215  0.03364938  1
  F  F3  1  0.56243374  0.90439785  0.03364938  1
  F  F4  1  0.82174373  0.42702457  0.48339591  1
  F  F5  1  0.60207939  0.74847672  0.48150478  1
loop_
_geom_bond_atom_site_label_1
_geom_bond_atom_site_label_2
_geom_bond_distance
_geom_bond_site_symmetry_2
Mg0 O2 2.091592 1_555
Mg0 O4 2.091592 1_455
Mn0 O5 1.972492 1_454
Mn0 O0 1.972492 1_544
Mn0 O5 1.975222 1_455
Mn0 O0 1.975222 1_545
Mn1 O3 1.958524 1_455
Mn1 O2 2.050330 1_555
Mn2 O1 1.958524 1_655
Mn2 O4 2.050330 1_555
Mn3 O3 1.889248 1_555
Mn3 O5 1.963320 1_555
Mn3 O3 2.074543 1_554
Mn4 O4 2.016630 1_554
Mn4 O2 2.016630 1_554
Mn4 O4 2.020344 1_555
Mn4 O2 2.020344 1_555
Mn5 O1 1.889248 1_555
Mn5 O0 1.963320 1_555
Mn5 O1 2.074543 1_554
F0 Mn1 2.049966 1_555
F0 Mn1 2.056614 1_554
F0 Mn3 2.232741 1_555
F0 F2 2.744667 1_555
F1 Mg0 2.014324 1_554
F1 Mg0 2.014843 1_555
F1 Mn4 2.216916 1_555
F2 Mn3 1.984317 1_555
F2 Mn3 2.166227 1_554
F2 Mn0 2.502189 1_555
F3 Mn5 1.984317 1_555
F3 Mn5 2.166227 1_554
F3 Mn0 2.502189 1_665
F3 F5 2.744667 1_555
F4 Mg0 2.014324 1_654
F4 Mg0 2.014843 1_655
F4 Mn4 2.216916 1_555
F5 Mn2 2.049966 1_555
F5 Mn2 2.056614 1_554
F5 Mn5 2.232741 1_555
