# generated using pymatgen
data_Sr2MgCu(IO)2
_symmetry_space_group_name_H-M   'P 1'
_cell_length_a   8.12332681
_cell_length_b   8.12349197
_cell_length_c   27.40853068
_cell_angle_alpha   98.51250288
_cell_angle_beta   98.52204316
_cell_angle_gamma   90.00000552
_symmetry_Int_Tables_number   1
_chemical_formula_structural   Sr2MgCu(IO)2
_chemical_formula_sum   'Sr16 Mg8 Cu8 I16 O16'
_cell_volume   1768.56292894
_cell_formula_units_Z   8
loop_
 _symmetry_equiv_pos_site_id
 _symmetry_equiv_pos_as_xyz
  1  'x, y, z'
loop_
 _atom_site_type_symbol
 _atom_site_label
 _atom_site_symmetry_multiplicity
 _atom_site_fract_x
 _atom_site_fract_y
 _atom_site_fract_z
 _atom_site_occupancy
  Sr  Sr0_0  1  0.21988350  0.21989900  0.43976800  1
  Sr  Sr0_1  1  0.21988350  0.21989900  0.93976800  1
  Sr  Sr0_2  1  0.21988350  0.71989900  0.43976800  1
  Sr  Sr0_3  1  0.21988350  0.71989900  0.93976800  1
  Sr  Sr0_4  1  0.71988350  0.21989900  0.43976800  1
  Sr  Sr0_5  1  0.71988350  0.21989900  0.93976800  1
  Sr  Sr0_6  1  0.71988350  0.71989900  0.43976800  1
  Sr  Sr0_7  1  0.71988350  0.71989900  0.93976800  1
  Sr  Sr1_0  1  0.28011550  0.28010200  0.06023100  1
  Sr  Sr1_1  1  0.28011550  0.28010200  0.56023100  1
  Sr  Sr1_2  1  0.28011550  0.78010200  0.06023100  1
  Sr  Sr1_3  1  0.28011550  0.78010200  0.56023100  1
  Sr  Sr1_4  1  0.78011550  0.28010200  0.06023100  1
  Sr  Sr1_5  1  0.78011550  0.28010200  0.56023100  1
  Sr  Sr1_6  1  0.78011550  0.78010200  0.06023100  1
  Sr  Sr1_7  1  0.78011550  0.78010200  0.56023100  1
  Mg  Mg0_0  1  0.37500000  0.12500250  0.25000000  1
  Mg  Mg0_1  1  0.37500000  0.12500250  0.75000000  1
  Mg  Mg0_2  1  0.37500000  0.62500250  0.25000000  1
  Mg  Mg0_3  1  0.37500000  0.62500250  0.75000000  1
  Mg  Mg0_4  1  0.87500000  0.12500250  0.25000000  1
  Mg  Mg0_5  1  0.87500000  0.12500250  0.75000000  1
  Mg  Mg0_6  1  0.87500000  0.62500250  0.25000000  1
  Mg  Mg0_7  1  0.87500000  0.62500250  0.75000000  1
  Cu  Cu0_0  1  0.00000000  0.00000700  0.49999950  1
  Cu  Cu0_1  1  0.00000000  0.00000700  0.99999950  1
  Cu  Cu0_2  1  0.00000000  0.50000700  0.49999950  1
  Cu  Cu0_3  1  0.00000000  0.50000700  0.99999950  1
  Cu  Cu0_4  1  0.50000000  0.00000700  0.49999950  1
  Cu  Cu0_5  1  0.50000000  0.00000700  0.99999950  1
  Cu  Cu0_6  1  0.50000000  0.50000700  0.49999950  1
  Cu  Cu0_7  1  0.50000000  0.50000700  0.99999950  1
  I  I0_0  1  0.06605750  0.06615500  0.13211450  1
  I  I0_1  1  0.06605750  0.06615500  0.63211450  1
  I  I0_2  1  0.06605750  0.56615500  0.13211450  1
  I  I0_3  1  0.06605750  0.56615500  0.63211450  1
  I  I0_4  1  0.56605750  0.06615500  0.13211450  1
  I  I0_5  1  0.56605750  0.06615500  0.63211450  1
  I  I0_6  1  0.56605750  0.56615500  0.13211450  1
  I  I0_7  1  0.56605750  0.56615500  0.63211450  1
  I  I1_0  1  0.43394400  0.43383850  0.36788750  1
  I  I1_1  1  0.43394400  0.43383850  0.86788750  1
  I  I1_2  1  0.43394400  0.93383850  0.36788750  1
  I  I1_3  1  0.43394400  0.93383850  0.86788750  1
  I  I1_4  1  0.93394400  0.43383850  0.36788750  1
  I  I1_5  1  0.93394400  0.43383850  0.86788750  1
  I  I1_6  1  0.93394400  0.93383850  0.36788750  1
  I  I1_7  1  0.93394400  0.93383850  0.86788750  1
  O  O0_0  1  0.24996350  0.49996600  0.49992700  1
  O  O0_1  1  0.24996350  0.49996600  0.99992700  1
  O  O0_2  1  0.24996350  0.99996600  0.49992700  1
  O  O0_3  1  0.24996350  0.99996600  0.99992700  1
  O  O0_4  1  0.74996350  0.49996600  0.49992700  1
  O  O0_5  1  0.74996350  0.49996600  0.99992700  1
  O  O0_6  1  0.74996350  0.99996600  0.49992700  1
  O  O0_7  1  0.74996350  0.99996600  0.99992700  1
  O  O1_0  1  0.00003600  0.25003050  0.00007200  1
  O  O1_1  1  0.00003600  0.25003050  0.50007200  1
  O  O1_2  1  0.00003600  0.75003050  0.00007200  1
  O  O1_3  1  0.00003600  0.75003050  0.50007200  1
  O  O1_4  1  0.50003600  0.25003050  0.00007200  1
  O  O1_5  1  0.50003600  0.25003050  0.50007200  1
  O  O1_6  1  0.50003600  0.75003050  0.00007200  1
  O  O1_7  1  0.50003600  0.75003050  0.50007200  1
loop_
_geom_bond_atom_site_label_1
_geom_bond_atom_site_label_2
_geom_bond_distance
_geom_bond_site_symmetry_2
Mg0_0 Mg0_4 4.061663 1_455
Mg0_0 Mg0_4 4.061663 1_555
Mg0_0 Mg0_2 4.061746 1_555
Mg0_0 Mg0_2 4.061746 1_545
Mg0_1 Mg0_5 4.061663 1_555
Mg0_1 Mg0_5 4.061663 1_455
Mg0_1 Mg0_3 4.061746 1_545
Mg0_1 Mg0_3 4.061746 1_555
Mg0_2 Mg0_6 4.061663 1_555
Mg0_2 Mg0_6 4.061663 1_455
Mg0_3 Mg0_7 4.061663 1_455
Mg0_3 Mg0_7 4.061663 1_555
Mg0_4 Mg0_6 4.061746 1_555
Mg0_4 Mg0_6 4.061746 1_545
Mg0_5 Mg0_7 4.061746 1_545
Mg0_5 Mg0_7 4.061746 1_555
Cu0_0 O1_1 2.030771 1_555
Cu0_0 O0_2 2.030831 1_545
Cu0_0 O0_6 2.030835 1_445
Cu0_0 O1_3 2.030977 1_545
Cu0_0 I1_6 3.540676 1_445
Cu0_0 I0_1 3.540756 1_555
Cu0_1 O1_0 2.030771 1_556
Cu0_1 O0_3 2.030831 1_545
Cu0_1 O0_7 2.030835 1_445
Cu0_1 O1_2 2.030977 1_546
Cu0_1 I1_7 3.540676 1_445
Cu0_1 I0_0 3.540756 1_556
Cu0_2 O1_3 2.030771 1_555
Cu0_2 O0_0 2.030831 1_555
Cu0_2 O0_4 2.030835 1_455
Cu0_2 O1_1 2.030977 1_555
Cu0_2 I1_4 3.540676 1_455
Cu0_2 I0_3 3.540756 1_555
Cu0_3 O1_2 2.030771 1_556
Cu0_3 O0_1 2.030831 1_555
Cu0_3 O0_5 2.030835 1_455
Cu0_3 O1_0 2.030977 1_556
Cu0_3 I1_5 3.540676 1_455
Cu0_3 I0_2 3.540756 1_556
Cu0_4 O1_5 2.030771 1_555
Cu0_4 O0_6 2.030831 1_545
Cu0_4 O0_2 2.030835 1_545
Cu0_4 O1_7 2.030977 1_545
Cu0_4 I1_2 3.540676 1_545
Cu0_4 I0_5 3.540756 1_555
Cu0_5 O1_4 2.030771 1_556
Cu0_5 O0_7 2.030831 1_545
Cu0_5 O0_3 2.030835 1_545
Cu0_5 O1_6 2.030977 1_546
Cu0_5 I1_3 3.540676 1_545
Cu0_5 I0_4 3.540756 1_556
Cu0_6 O1_7 2.030771 1_555
Cu0_6 O0_4 2.030831 1_555
Cu0_6 O0_0 2.030835 1_555
Cu0_6 O1_5 2.030977 1_555
Cu0_6 I1_0 3.540676 1_555
Cu0_6 I0_7 3.540756 1_555
Cu0_7 O1_6 2.030771 1_556
Cu0_7 O0_5 2.030831 1_555
Cu0_7 O0_1 2.030835 1_555
Cu0_7 O1_4 2.030977 1_556
Cu0_7 I1_1 3.540676 1_555
Cu0_7 I0_6 3.540756 1_556
I0_0 Sr1_0 3.457626 1_555
I0_0 Sr1_4 3.457628 1_455
I0_0 Sr1_2 3.459075 1_545
I0_0 Sr1_6 3.459077 1_445
I0_0 Mg0_0 3.755803 1_555
I0_0 Mg0_4 3.755806 1_455
I0_0 I0_4 4.061663 1_555
I0_0 I0_4 4.061663 1_455
I0_0 I0_2 4.061746 1_545
I0_0 I0_2 4.061746 1_555
I0_1 Sr1_1 3.457626 1_555
I0_1 Sr1_5 3.457628 1_455
I0_1 Sr1_3 3.459075 1_545
I0_1 Sr1_7 3.459077 1_445
I0_1 Mg0_1 3.755803 1_555
I0_1 Mg0_5 3.755806 1_455
I0_1 I0_5 4.061663 1_455
I0_1 I0_5 4.061663 1_555
I0_1 I0_3 4.061746 1_545
I0_1 I0_3 4.061746 1_555
I0_2 Sr1_2 3.457626 1_555
I0_2 Sr1_6 3.457628 1_455
I0_2 Sr1_0 3.459075 1_555
I0_2 Sr1_4 3.459077 1_455
I0_2 Mg0_2 3.755803 1_555
I0_2 Mg0_6 3.755806 1_455
I0_2 I0_6 4.061663 1_455
I0_2 I0_6 4.061663 1_555
I0_3 Sr1_3 3.457626 1_555
I0_3 Sr1_7 3.457628 1_455
I0_3 Sr1_1 3.459075 1_555
I0_3 Sr1_5 3.459077 1_455
I0_3 Mg0_3 3.755803 1_555
I0_3 Mg0_7 3.755806 1_455
I0_3 I0_7 4.061663 1_555
I0_3 I0_7 4.061663 1_455
I0_4 Sr1_4 3.457626 1_555
I0_4 Sr1_0 3.457628 1_555
I0_4 Sr1_6 3.459075 1_545
I0_4 Sr1_2 3.459077 1_545
I0_4 Mg0_4 3.755803 1_555
I0_4 Mg0_0 3.755806 1_555
I0_4 I0_6 4.061746 1_545
I0_4 I0_6 4.061746 1_555
I0_5 Sr1_5 3.457626 1_555
I0_5 Sr1_1 3.457628 1_555
I0_5 Sr1_7 3.459075 1_545
I0_5 Sr1_3 3.459077 1_545
I0_5 Mg0_5 3.755803 1_555
I0_5 Mg0_1 3.755806 1_555
I0_5 I0_7 4.061746 1_555
I0_5 I0_7 4.061746 1_545
I0_6 Sr1_6 3.457626 1_555
I0_6 Sr1_2 3.457628 1_555
I0_6 Sr1_4 3.459075 1_555
I0_6 Sr1_0 3.459077 1_555
I0_6 Mg0_6 3.755803 1_555
I0_6 Mg0_2 3.755806 1_555
I0_7 Sr1_7 3.457626 1_555
I0_7 Sr1_3 3.457628 1_555
I0_7 Sr1_5 3.459075 1_555
I0_7 Sr1_1 3.459077 1_555
I0_7 Mg0_7 3.755803 1_555
I0_7 Mg0_3 3.755806 1_555
I1_0 Sr0_4 3.457536 1_555
I1_0 Sr0_0 3.457543 1_555
I1_0 Sr0_6 3.459070 1_555
I1_0 Sr0_2 3.459078 1_555
I1_0 Mg0_0 3.755691 1_555
I1_0 Mg0_2 3.756053 1_555
I1_0 I1_4 4.061663 1_555
I1_0 I1_4 4.061663 1_455
I1_0 I1_2 4.061746 1_555
I1_0 I1_2 4.061746 1_545
I1_1 Sr0_5 3.457536 1_555
I1_1 Sr0_1 3.457543 1_555
I1_1 Sr0_7 3.459070 1_555
I1_1 Sr0_3 3.459078 1_555
I1_1 Mg0_1 3.755691 1_555
I1_1 Mg0_3 3.756053 1_555
I1_1 I1_5 4.061663 1_455
I1_1 I1_5 4.061663 1_555
I1_1 I1_3 4.061746 1_545
I1_1 I1_3 4.061746 1_555
I1_2 Sr0_6 3.457536 1_555
I1_2 Sr0_2 3.457543 1_555
I1_2 Sr0_4 3.459070 1_565
I1_2 Sr0_0 3.459078 1_565
I1_2 Mg0_2 3.755691 1_555
I1_2 Mg0_0 3.756053 1_565
I1_2 I1_6 4.061663 1_555
I1_2 I1_6 4.061663 1_455
I1_3 Sr0_7 3.457536 1_555
I1_3 Sr0_3 3.457543 1_555
I1_3 Sr0_5 3.459070 1_565
I1_3 Sr0_1 3.459078 1_565
I1_3 Mg0_3 3.755691 1_555
I1_3 Mg0_1 3.756053 1_565
I1_3 I1_7 4.061663 1_555
I1_3 I1_7 4.061663 1_455
I1_4 Sr0_0 3.457536 1_655
I1_4 Sr0_4 3.457543 1_555
I1_4 Sr0_2 3.459070 1_655
I1_4 Sr0_6 3.459078 1_555
I1_4 Mg0_4 3.755691 1_555
I1_4 Mg0_6 3.756053 1_555
I1_4 I1_6 4.061746 1_545
I1_4 I1_6 4.061746 1_555
I1_5 Sr0_1 3.457536 1_655
I1_5 Sr0_5 3.457543 1_555
I1_5 Sr0_3 3.459070 1_655
I1_5 Sr0_7 3.459078 1_555
I1_5 Mg0_5 3.755691 1_555
I1_5 Mg0_7 3.756053 1_555
I1_5 I1_7 4.061746 1_555
I1_5 I1_7 4.061746 1_545
I1_6 Sr0_2 3.457536 1_655
I1_6 Sr0_6 3.457543 1_555
I1_6 Sr0_0 3.459070 1_665
I1_6 Sr0_4 3.459078 1_565
I1_6 Mg0_6 3.755691 1_555
I1_6 Mg0_4 3.756053 1_565
I1_7 Sr0_3 3.457536 1_655
I1_7 Sr0_7 3.457543 1_555
I1_7 Sr0_1 3.459070 1_665
I1_7 Sr0_5 3.459078 1_565
I1_7 Mg0_7 3.755691 1_555
I1_7 Mg0_5 3.756053 1_565
O0_0 Sr0_2 2.592919 1_555
O0_0 Sr0_0 2.593193 1_555
O0_0 Sr1_1 2.595359 1_555
O0_0 Sr1_3 2.595589 1_555
O0_1 Sr0_3 2.592919 1_555
O0_1 Sr0_1 2.593193 1_555
O0_1 Sr1_0 2.595359 1_556
O0_1 Sr1_2 2.595589 1_556
O0_2 Sr0_0 2.592919 1_565
O0_2 Sr0_2 2.593193 1_555
O0_2 Sr1_3 2.595359 1_555
O0_2 Sr1_1 2.595589 1_565
O0_3 Sr0_1 2.592919 1_565
O0_3 Sr0_3 2.593193 1_555
O0_3 Sr1_2 2.595359 1_556
O0_3 Sr1_0 2.595589 1_566
O0_4 Sr0_6 2.592919 1_555
O0_4 Sr0_4 2.593193 1_555
O0_4 Sr1_5 2.595359 1_555
O0_4 Sr1_7 2.595589 1_555
O0_5 Sr0_7 2.592919 1_555
O0_5 Sr0_5 2.593193 1_555
O0_5 Sr1_4 2.595359 1_556
O0_5 Sr1_6 2.595589 1_556
O0_6 Sr0_4 2.592919 1_565
O0_6 Sr0_6 2.593193 1_555
O0_6 Sr1_7 2.595359 1_555
O0_6 Sr1_5 2.595589 1_565
O0_7 Sr0_5 2.592919 1_565
O0_7 Sr0_7 2.593193 1_555
O0_7 Sr1_6 2.595359 1_556
O0_7 Sr1_4 2.595589 1_566
O1_0 Sr1_0 2.593023 1_555
O1_0 Sr1_4 2.593024 1_455
O1_0 Sr0_1 2.595439 1_554
O1_0 Sr0_5 2.595445 1_454
O1_1 Sr1_1 2.593023 1_555
O1_1 Sr1_5 2.593024 1_455
O1_1 Sr0_0 2.595439 1_555
O1_1 Sr0_4 2.595445 1_455
O1_2 Sr1_2 2.593023 1_555
O1_2 Sr1_6 2.593024 1_455
O1_2 Sr0_3 2.595439 1_554
O1_2 Sr0_7 2.595445 1_454
O1_3 Sr1_3 2.593023 1_555
O1_3 Sr1_7 2.593024 1_455
O1_3 Sr0_2 2.595439 1_555
O1_3 Sr0_6 2.595445 1_455
O1_4 Sr1_4 2.593023 1_555
O1_4 Sr1_0 2.593024 1_555
O1_4 Sr0_5 2.595439 1_554
O1_4 Sr0_1 2.595445 1_554
O1_5 Sr1_5 2.593023 1_555
O1_5 Sr1_1 2.593024 1_555
O1_5 Sr0_4 2.595439 1_555
O1_5 Sr0_0 2.595445 1_555
O1_6 Sr1_6 2.593023 1_555
O1_6 Sr1_2 2.593024 1_555
O1_6 Sr0_7 2.595439 1_554
O1_6 Sr0_3 2.595445 1_554
O1_7 Sr1_7 2.593023 1_555
O1_7 Sr1_3 2.593024 1_555
O1_7 Sr0_6 2.595439 1_555
O1_7 Sr0_2 2.595445 1_555
