# generated using pymatgen
data_MgTi4O8
_symmetry_space_group_name_H-M   'P 1'
_cell_length_a   5.94004955
_cell_length_b   14.75152746
_cell_length_c   14.75558727
_cell_angle_alpha   87.69609858
_cell_angle_beta   78.38649835
_cell_angle_gamma   78.38432622
_symmetry_Int_Tables_number   1
_chemical_formula_structural   MgTi4O8
_chemical_formula_sum   'Mg8 Ti32 O64'
_cell_volume   1240.54840655
_cell_formula_units_Z   8
loop_
 _symmetry_equiv_pos_site_id
 _symmetry_equiv_pos_as_xyz
  1  'x, y, z'
loop_
 _atom_site_type_symbol
 _atom_site_label
 _atom_site_symmetry_multiplicity
 _atom_site_fract_x
 _atom_site_fract_y
 _atom_site_fract_z
 _atom_site_occupancy
  Mg  Mg0_0  1  0.25000000  0.00000000  0.00000000  1
  Mg  Mg0_1  1  0.25000000  0.00000000  0.50000000  1
  Mg  Mg0_2  1  0.25000000  0.50000000  0.00000000  1
  Mg  Mg0_3  1  0.25000000  0.50000000  0.50000000  1
  Mg  Mg0_4  1  0.75000000  0.00000000  0.00000000  1
  Mg  Mg0_5  1  0.75000000  0.00000000  0.50000000  1
  Mg  Mg0_6  1  0.75000000  0.50000000  0.00000000  1
  Mg  Mg0_7  1  0.75000000  0.50000000  0.50000000  1
  Ti  Ti0_0  1  0.32420300  0.09085700  0.26058850  1
  Ti  Ti0_1  1  0.32420300  0.09085700  0.76058850  1
  Ti  Ti0_2  1  0.32420300  0.59085700  0.26058850  1
  Ti  Ti0_3  1  0.32420300  0.59085700  0.76058850  1
  Ti  Ti0_4  1  0.82420300  0.09085700  0.26058850  1
  Ti  Ti0_5  1  0.82420300  0.09085700  0.76058850  1
  Ti  Ti0_6  1  0.82420300  0.59085700  0.26058850  1
  Ti  Ti0_7  1  0.82420300  0.59085700  0.76058850  1
  Ti  Ti1_0  1  0.08482950  0.23932950  0.09088500  1
  Ti  Ti1_1  1  0.08482950  0.23932950  0.59088500  1
  Ti  Ti1_2  1  0.08482950  0.73932950  0.09088500  1
  Ti  Ti1_3  1  0.08482950  0.73932950  0.59088500  1
  Ti  Ti1_4  1  0.58482950  0.23932950  0.09088500  1
  Ti  Ti1_5  1  0.58482950  0.23932950  0.59088500  1
  Ti  Ti1_6  1  0.58482950  0.73932950  0.09088500  1
  Ti  Ti1_7  1  0.58482950  0.73932950  0.59088500  1
  Ti  Ti2_0  1  0.41517100  0.26066950  0.40911500  1
  Ti  Ti2_1  1  0.41517100  0.26066950  0.90911500  1
  Ti  Ti2_2  1  0.41517100  0.76066950  0.40911500  1
  Ti  Ti2_3  1  0.41517100  0.76066950  0.90911500  1
  Ti  Ti2_4  1  0.91517100  0.26066950  0.40911500  1
  Ti  Ti2_5  1  0.91517100  0.26066950  0.90911500  1
  Ti  Ti2_6  1  0.91517100  0.76066950  0.40911500  1
  Ti  Ti2_7  1  0.91517100  0.76066950  0.90911500  1
  Ti  Ti3_0  1  0.17579700  0.40914350  0.23941100  1
  Ti  Ti3_1  1  0.17579700  0.40914350  0.73941100  1
  Ti  Ti3_2  1  0.17579700  0.90914350  0.23941100  1
  Ti  Ti3_3  1  0.17579700  0.90914350  0.73941100  1
  Ti  Ti3_4  1  0.67579700  0.40914350  0.23941100  1
  Ti  Ti3_5  1  0.67579700  0.40914350  0.73941100  1
  Ti  Ti3_6  1  0.67579700  0.90914350  0.23941100  1
  Ti  Ti3_7  1  0.67579700  0.90914350  0.73941100  1
  O  O0_0  1  0.41779100  0.35315350  0.31123050  1
  O  O0_1  1  0.41779100  0.35315350  0.81123050  1
  O  O0_2  1  0.41779100  0.85315350  0.31123050  1
  O  O0_3  1  0.41779100  0.85315350  0.81123050  1
  O  O0_4  1  0.91779100  0.35315350  0.31123050  1
  O  O0_5  1  0.91779100  0.35315350  0.81123050  1
  O  O0_6  1  0.91779100  0.85315350  0.31123050  1
  O  O0_7  1  0.91779100  0.85315350  0.81123050  1
  O  O1_0  1  0.22902300  0.18873450  0.35326550  1
  O  O1_1  1  0.22902300  0.18873450  0.85326550  1
  O  O1_2  1  0.22902300  0.68873450  0.35326550  1
  O  O1_3  1  0.22902300  0.68873450  0.85326550  1
  O  O1_4  1  0.72902300  0.18873450  0.35326550  1
  O  O1_5  1  0.72902300  0.18873450  0.85326550  1
  O  O1_6  1  0.72902300  0.68873450  0.35326550  1
  O  O1_7  1  0.72902300  0.68873450  0.85326550  1
  O  O2_0  1  0.27097750  0.31126500  0.14673500  1
  O  O2_1  1  0.27097750  0.31126500  0.64673500  1
  O  O2_2  1  0.27097750  0.81126500  0.14673500  1
  O  O2_3  1  0.27097750  0.81126500  0.64673500  1
  O  O2_4  1  0.77097750  0.31126500  0.14673500  1
  O  O2_5  1  0.77097750  0.31126500  0.64673500  1
  O  O2_6  1  0.77097750  0.81126500  0.14673500  1
  O  O2_7  1  0.77097750  0.81126500  0.64673500  1
  O  O3_0  1  0.08220850  0.14684700  0.18877000  1
  O  O3_1  1  0.08220850  0.14684700  0.68877000  1
  O  O3_2  1  0.08220850  0.64684700  0.18877000  1
  O  O3_3  1  0.08220850  0.64684700  0.68877000  1
  O  O3_4  1  0.58220850  0.14684700  0.18877000  1
  O  O3_5  1  0.58220850  0.14684700  0.68877000  1
  O  O3_6  1  0.58220850  0.64684700  0.18877000  1
  O  O3_7  1  0.58220850  0.64684700  0.68877000  1
  O  O4_0  1  0.07662100  0.02339050  0.32350750  1
  O  O4_1  1  0.07662100  0.02339050  0.82350750  1
  O  O4_2  1  0.07662100  0.52339050  0.32350750  1
  O  O4_3  1  0.07662100  0.52339050  0.82350750  1
  O  O4_4  1  0.57662100  0.02339050  0.32350750  1
  O  O4_5  1  0.57662100  0.02339050  0.82350750  1
  O  O4_6  1  0.57662100  0.52339050  0.32350750  1
  O  O4_7  1  0.57662100  0.52339050  0.82350750  1
  O  O5_0  1  0.39995450  0.17649400  0.02347300  1
  O  O5_1  1  0.39995450  0.17649400  0.52347300  1
  O  O5_2  1  0.39995450  0.67649400  0.02347300  1
  O  O5_3  1  0.39995450  0.67649400  0.52347300  1
  O  O5_4  1  0.89995450  0.17649400  0.02347300  1
  O  O5_5  1  0.89995450  0.17649400  0.52347300  1
  O  O5_6  1  0.89995450  0.67649400  0.02347300  1
  O  O5_7  1  0.89995450  0.67649400  0.52347300  1
  O  O6_0  1  0.42337900  0.47660950  0.17649300  1
  O  O6_1  1  0.42337900  0.47660950  0.67649300  1
  O  O6_2  1  0.42337900  0.97660950  0.17649300  1
  O  O6_3  1  0.42337900  0.97660950  0.67649300  1
  O  O6_4  1  0.92337900  0.47660950  0.17649300  1
  O  O6_5  1  0.92337900  0.47660950  0.67649300  1
  O  O6_6  1  0.92337900  0.97660950  0.17649300  1
  O  O6_7  1  0.92337900  0.97660950  0.67649300  1
  O  O7_0  1  0.10004600  0.32350650  0.47652700  1
  O  O7_1  1  0.10004600  0.32350650  0.97652700  1
  O  O7_2  1  0.10004600  0.82350650  0.47652700  1
  O  O7_3  1  0.10004600  0.82350650  0.97652700  1
  O  O7_4  1  0.60004600  0.32350650  0.47652700  1
  O  O7_5  1  0.60004600  0.32350650  0.97652700  1
  O  O7_6  1  0.60004600  0.82350650  0.47652700  1
  O  O7_7  1  0.60004600  0.82350650  0.97652700  1
loop_
_geom_bond_atom_site_label_1
_geom_bond_atom_site_label_2
_geom_bond_distance
_geom_bond_site_symmetry_2
Mg0_0 Mg0_4 2.970025 1_555
Mg0_0 Mg0_4 2.970025 1_455
Mg0_0 O7_3 2.970256 1_544
Mg0_0 O5_0 2.970265 1_555
Mg0_0 O7_7 2.970596 1_544
Mg0_0 O5_4 2.970600 1_455
Mg0_0 O4_1 2.970914 1_554
Mg0_0 O6_2 2.970921 1_545
Mg0_0 O4_5 2.971262 1_554
Mg0_0 O6_6 2.971267 1_445
Mg0_0 O1_1 3.455289 1_554
Mg0_0 O2_2 3.455299 1_545
Mg0_0 O0_3 3.455761 1_544
Mg0_0 O3_0 3.455771 1_555
Mg0_1 Mg0_5 2.970025 1_555
Mg0_1 Mg0_5 2.970025 1_455
Mg0_1 O7_2 2.970256 1_545
Mg0_1 O5_1 2.970265 1_555
Mg0_1 O7_6 2.970596 1_545
Mg0_1 O5_5 2.970600 1_455
Mg0_1 O4_0 2.970914 1_555
Mg0_1 O6_3 2.970921 1_545
Mg0_1 O4_4 2.971262 1_555
Mg0_1 O6_7 2.971267 1_445
Mg0_1 O1_0 3.455289 1_555
Mg0_1 O2_3 3.455299 1_545
Mg0_1 O0_2 3.455761 1_545
Mg0_1 O3_1 3.455771 1_555
Mg0_2 Mg0_6 2.970025 1_555
Mg0_2 Mg0_6 2.970025 1_455
Mg0_2 O7_1 2.970256 1_554
Mg0_2 O5_2 2.970265 1_555
Mg0_2 O7_5 2.970596 1_554
Mg0_2 O5_6 2.970600 1_455
Mg0_2 O4_3 2.970914 1_554
Mg0_2 O6_0 2.970921 1_555
Mg0_2 O4_7 2.971262 1_554
Mg0_2 O6_4 2.971267 1_455
Mg0_2 O1_3 3.455289 1_554
Mg0_2 O2_0 3.455299 1_555
Mg0_2 O0_1 3.455761 1_554
Mg0_2 O3_2 3.455771 1_555
Mg0_3 Mg0_7 2.970025 1_455
Mg0_3 Mg0_7 2.970025 1_555
Mg0_3 O7_0 2.970256 1_555
Mg0_3 O5_3 2.970265 1_555
Mg0_3 O7_4 2.970596 1_555
Mg0_3 O5_7 2.970600 1_455
Mg0_3 O4_2 2.970914 1_555
Mg0_3 O6_1 2.970921 1_555
Mg0_3 O4_6 2.971262 1_555
Mg0_3 O6_5 2.971267 1_455
Mg0_3 O1_2 3.455289 1_555
Mg0_3 O2_1 3.455299 1_555
Mg0_3 O0_0 3.455761 1_555
Mg0_3 O3_3 3.455771 1_555
Mg0_4 O7_7 2.970256 1_544
Mg0_4 O5_4 2.970265 1_555
Mg0_4 O7_3 2.970596 1_644
Mg0_4 O5_0 2.970600 1_555
Mg0_4 O4_5 2.970914 1_554
Mg0_4 O6_6 2.970921 1_545
Mg0_4 O4_1 2.971262 1_654
Mg0_4 O6_2 2.971267 1_545
Mg0_4 O1_5 3.455289 1_554
Mg0_4 O2_6 3.455299 1_545
Mg0_4 O0_7 3.455761 1_544
Mg0_4 O3_4 3.455771 1_555
Mg0_5 O7_6 2.970256 1_545
Mg0_5 O5_5 2.970265 1_555
Mg0_5 O7_2 2.970596 1_645
Mg0_5 O5_1 2.970600 1_555
Mg0_5 O4_4 2.970914 1_555
Mg0_5 O6_7 2.970921 1_545
Mg0_5 O4_0 2.971262 1_655
Mg0_5 O6_3 2.971267 1_545
Mg0_5 O1_4 3.455289 1_555
Mg0_5 O2_7 3.455299 1_545
Mg0_5 O0_6 3.455761 1_545
Mg0_5 O3_5 3.455771 1_555
Mg0_6 O7_5 2.970256 1_554
Mg0_6 O5_6 2.970265 1_555
Mg0_6 O7_1 2.970596 1_654
Mg0_6 O5_2 2.970600 1_555
Mg0_6 O4_7 2.970914 1_554
Mg0_6 O6_4 2.970921 1_555
Mg0_6 O4_3 2.971262 1_654
Mg0_6 O6_0 2.971267 1_555
Mg0_6 O1_7 3.455289 1_554
Mg0_6 O2_4 3.455299 1_555
Mg0_6 O0_5 3.455761 1_554
Mg0_6 O3_6 3.455771 1_555
Mg0_7 O7_4 2.970256 1_555
Mg0_7 O5_7 2.970265 1_555
Mg0_7 O7_0 2.970596 1_655
Mg0_7 O5_3 2.970600 1_555
Mg0_7 O4_6 2.970914 1_555
Mg0_7 O6_5 2.970921 1_555
Mg0_7 O4_2 2.971262 1_655
Mg0_7 O6_1 2.971267 1_555
Mg0_7 O1_6 3.455289 1_555
Mg0_7 O2_5 3.455299 1_555
Mg0_7 O0_4 3.455761 1_555
Mg0_7 O3_7 3.455771 1_555
O0_0 Ti2_0 1.946459 1_555
O0_0 Ti3_0 1.984024 1_555
O0_0 Ti3_4 1.984803 1_555
O0_1 Ti2_1 1.946459 1_555
O0_1 Ti3_1 1.984024 1_555
O0_1 Ti3_5 1.984803 1_555
O0_2 Ti2_2 1.946459 1_555
O0_2 Ti3_2 1.984024 1_555
O0_2 Ti3_6 1.984803 1_555
O0_3 Ti2_3 1.946459 1_555
O0_3 Ti3_3 1.984024 1_555
O0_3 Ti3_7 1.984803 1_555
O0_4 Ti2_4 1.946459 1_555
O0_4 Ti3_4 1.984024 1_555
O0_4 Ti3_0 1.984803 1_655
O0_5 Ti2_5 1.946459 1_555
O0_5 Ti3_5 1.984024 1_555
O0_5 Ti3_1 1.984803 1_655
O0_6 Ti2_6 1.946459 1_555
O0_6 Ti3_6 1.984024 1_555
O0_6 Ti3_2 1.984803 1_655
O0_7 Ti2_7 1.946459 1_555
O0_7 Ti3_7 1.984024 1_555
O0_7 Ti3_3 1.984803 1_655
O1_0 Ti0_0 1.947597 1_555
O1_0 Ti2_4 1.983903 1_455
O1_0 Ti2_0 1.984309 1_555
O1_1 Ti0_1 1.947597 1_555
O1_1 Ti2_5 1.983903 1_455
O1_1 Ti2_1 1.984309 1_555
O1_2 Ti0_2 1.947597 1_555
O1_2 Ti2_6 1.983903 1_455
O1_2 Ti2_2 1.984309 1_555
O1_3 Ti0_3 1.947597 1_555
O1_3 Ti2_7 1.983903 1_455
O1_3 Ti2_3 1.984309 1_555
O1_4 Ti0_4 1.947597 1_555
O1_4 Ti2_0 1.983903 1_555
O1_4 Ti2_4 1.984309 1_555
O1_5 Ti0_5 1.947597 1_555
O1_5 Ti2_1 1.983903 1_555
O1_5 Ti2_5 1.984309 1_555
O1_6 Ti0_6 1.947597 1_555
O1_6 Ti2_2 1.983903 1_555
O1_6 Ti2_6 1.984309 1_555
O1_7 Ti0_7 1.947597 1_555
O1_7 Ti2_3 1.983903 1_555
O1_7 Ti2_7 1.984309 1_555
O2_0 Ti3_0 1.947598 1_555
O2_0 Ti1_4 1.983908 1_555
O2_0 Ti1_0 1.984318 1_555
O2_1 Ti3_1 1.947598 1_555
O2_1 Ti1_5 1.983908 1_555
O2_1 Ti1_1 1.984318 1_555
O2_2 Ti3_2 1.947598 1_555
O2_2 Ti1_6 1.983908 1_555
O2_2 Ti1_2 1.984318 1_555
O2_3 Ti3_3 1.947598 1_555
O2_3 Ti1_7 1.983908 1_555
O2_3 Ti1_3 1.984318 1_555
O2_4 Ti3_4 1.947598 1_555
O2_4 Ti1_0 1.983908 1_655
O2_4 Ti1_4 1.984318 1_555
O2_5 Ti3_5 1.947598 1_555
O2_5 Ti1_1 1.983908 1_655
O2_5 Ti1_5 1.984318 1_555
O2_6 Ti3_6 1.947598 1_555
O2_6 Ti1_2 1.983908 1_655
O2_6 Ti1_6 1.984318 1_555
O2_7 Ti3_7 1.947598 1_555
O2_7 Ti1_3 1.983908 1_655
O2_7 Ti1_7 1.984318 1_555
O3_0 Ti1_0 1.946450 1_555
O3_0 Ti0_0 1.984017 1_555
O3_0 Ti0_4 1.984796 1_455
O3_1 Ti1_1 1.946450 1_555
O3_1 Ti0_1 1.984017 1_555
O3_1 Ti0_5 1.984796 1_455
O3_2 Ti1_2 1.946450 1_555
O3_2 Ti0_2 1.984017 1_555
O3_2 Ti0_6 1.984796 1_455
O3_3 Ti1_3 1.946450 1_555
O3_3 Ti0_3 1.984017 1_555
O3_3 Ti0_7 1.984796 1_455
O3_4 Ti1_4 1.946450 1_555
O3_4 Ti0_4 1.984017 1_555
O3_4 Ti0_0 1.984796 1_555
O3_5 Ti1_5 1.946450 1_555
O3_5 Ti0_5 1.984017 1_555
O3_5 Ti0_1 1.984796 1_555
O3_6 Ti1_6 1.946450 1_555
O3_6 Ti0_6 1.984017 1_555
O3_6 Ti0_2 1.984796 1_555
O3_7 Ti1_7 1.946450 1_555
O3_7 Ti0_7 1.984017 1_555
O3_7 Ti0_3 1.984796 1_555
O4_0 Ti0_0 1.995151 1_555
O4_0 Ti0_4 1.996451 1_455
O4_0 Ti3_2 2.049676 1_545
O4_1 Ti0_1 1.995151 1_555
O4_1 Ti0_5 1.996451 1_455
O4_1 Ti3_3 2.049676 1_545
O4_2 Ti0_2 1.995151 1_555
O4_2 Ti0_6 1.996451 1_455
O4_2 Ti3_0 2.049676 1_555
O4_3 Ti0_3 1.995151 1_555
O4_3 Ti0_7 1.996451 1_455
O4_3 Ti3_1 2.049676 1_555
O4_4 Ti0_4 1.995151 1_555
O4_4 Ti0_0 1.996451 1_555
O4_4 Ti3_6 2.049676 1_545
O4_5 Ti0_5 1.995151 1_555
O4_5 Ti0_1 1.996451 1_555
O4_5 Ti3_7 2.049676 1_545
O4_6 Ti0_6 1.995151 1_555
O4_6 Ti0_2 1.996451 1_555
O4_6 Ti3_4 2.049676 1_555
O4_7 Ti0_7 1.995151 1_555
O4_7 Ti0_3 1.996451 1_555
O4_7 Ti3_5 2.049676 1_555
O5_0 Ti1_0 1.994555 1_555
O5_0 Ti1_4 1.994597 1_555
O5_0 Ti2_1 2.052497 1_554
O5_1 Ti1_1 1.994555 1_555
O5_1 Ti1_5 1.994597 1_555
O5_1 Ti2_0 2.052497 1_555
O5_2 Ti1_2 1.994555 1_555
O5_2 Ti1_6 1.994597 1_555
O5_2 Ti2_3 2.052497 1_554
O5_3 Ti1_3 1.994555 1_555
O5_3 Ti1_7 1.994597 1_555
O5_3 Ti2_2 2.052497 1_555
O5_4 Ti1_4 1.994555 1_555
O5_4 Ti1_0 1.994597 1_655
O5_4 Ti2_5 2.052497 1_554
O5_5 Ti1_5 1.994555 1_555
O5_5 Ti1_1 1.994597 1_655
O5_5 Ti2_4 2.052497 1_555
O5_6 Ti1_6 1.994555 1_555
O5_6 Ti1_2 1.994597 1_655
O5_6 Ti2_7 2.052497 1_554
O5_7 Ti1_7 1.994555 1_555
O5_7 Ti1_3 1.994597 1_655
O5_7 Ti2_6 2.052497 1_555
O6_0 Ti3_0 1.995142 1_555
O6_0 Ti3_4 1.996440 1_555
O6_0 Ti0_2 2.049673 1_555
O6_1 Ti3_1 1.995142 1_555
O6_1 Ti3_5 1.996440 1_555
O6_1 Ti0_3 2.049673 1_555
O6_2 Ti3_2 1.995142 1_555
O6_2 Ti3_6 1.996440 1_555
O6_2 Ti0_0 2.049673 1_565
O6_3 Ti3_3 1.995142 1_555
O6_3 Ti3_7 1.996440 1_555
O6_3 Ti0_1 2.049673 1_565
O6_4 Ti3_4 1.995142 1_555
O6_4 Ti3_0 1.996440 1_655
O6_4 Ti0_6 2.049673 1_555
O6_5 Ti3_5 1.995142 1_555
O6_5 Ti3_1 1.996440 1_655
O6_5 Ti0_7 2.049673 1_555
O6_6 Ti3_6 1.995142 1_555
O6_6 Ti3_2 1.996440 1_655
O6_6 Ti0_4 2.049673 1_565
O6_7 Ti3_7 1.995142 1_555
O6_7 Ti3_3 1.996440 1_655
O6_7 Ti0_5 2.049673 1_565
O7_0 Ti2_0 1.994562 1_555
O7_0 Ti2_4 1.994611 1_455
O7_0 Ti1_1 2.052510 1_555
O7_1 Ti2_1 1.994562 1_555
O7_1 Ti2_5 1.994611 1_455
O7_1 Ti1_0 2.052510 1_556
O7_2 Ti2_2 1.994562 1_555
O7_2 Ti2_6 1.994611 1_455
O7_2 Ti1_3 2.052510 1_555
O7_3 Ti2_3 1.994562 1_555
O7_3 Ti2_7 1.994611 1_455
O7_3 Ti1_2 2.052510 1_556
O7_4 Ti2_4 1.994562 1_555
O7_4 Ti2_0 1.994611 1_555
O7_4 Ti1_5 2.052510 1_555
O7_5 Ti2_5 1.994562 1_555
O7_5 Ti2_1 1.994611 1_555
O7_5 Ti1_4 2.052510 1_556
O7_6 Ti2_6 1.994562 1_555
O7_6 Ti2_2 1.994611 1_555
O7_6 Ti1_7 2.052510 1_555
O7_7 Ti2_7 1.994562 1_555
O7_7 Ti2_3 1.994611 1_555
O7_7 Ti1_6 2.052510 1_556
