# generated using pymatgen
data_Na14Zr4Ga4Si9(SO16)3
_symmetry_space_group_name_H-M   'P 1'
_cell_length_a   18.15856699
_cell_length_b   9.08191811
_cell_length_c   22.53810103
_cell_angle_alpha   90.21856774
_cell_angle_beta   90.26295021
_cell_angle_gamma   120.03001083
_symmetry_Int_Tables_number   1
_chemical_formula_structural   Na14Zr4Ga4Si9(SO16)3
_chemical_formula_sum   'Na42 Zr12 Ga12 Si27 S9 O144'
_cell_volume   3217.80927245
_cell_formula_units_Z   3
loop_
 _symmetry_equiv_pos_site_id
 _symmetry_equiv_pos_as_xyz
  1  'x, y, z'
loop_
 _atom_site_type_symbol
 _atom_site_label
 _atom_site_symmetry_multiplicity
 _atom_site_fract_x
 _atom_site_fract_y
 _atom_site_fract_z
 _atom_site_occupancy
  Na  Na0  1  0.81734593  0.00547930  0.25350670  1
  Na  Na1  1  0.17605253  0.35856206  0.25307739  1
  Na  Na2  1  0.69059889  0.37019307  0.25294087  1
  Na  Na3  1  0.99582167  0.62859174  0.24666428  1
  Na  Na4  1  0.50508064  0.64656485  0.25209552  1
  Na  Na5  1  0.31719314  0.62812367  0.75093725  1
  Na  Na6  1  0.00259232  0.36027920  0.74718243  1
  Na  Na7  1  0.49684127  0.36413601  0.74432802  1
  Na  Na8  1  0.18939834  0.01129190  0.74999022  1
  Na  Na9  1  0.68039542  0.99801229  0.74980966  1
  Na  Na10  1  0.14856122  0.32630020  0.58268213  1
  Na  Na11  1  0.65010566  0.33269063  0.58214909  1
  Na  Na12  1  0.33493333  0.98166834  0.58556678  1
  Na  Na13  1  0.83293005  0.96858833  0.58209599  1
  Na  Na14  1  0.14361648  0.96377561  0.08134155  1
  Na  Na15  1  0.65148724  0.97331866  0.08086190  1
  Na  Na16  1  0.33309296  0.68900697  0.08226275  1
  Na  Na17  1  0.83496161  0.68851076  0.08558557  1
  Na  Na18  1  0.48237939  0.67917974  0.91467438  1
  Na  Na19  1  0.98284922  0.67421374  0.92002288  1
  Na  Na20  1  0.34785691  0.02668142  0.91042290  1
  Na  Na21  1  0.84683762  0.02700831  0.91249621  1
  Na  Na22  1  0.16929615  0.29638837  0.91120498  1
  Na  Na23  1  0.66806777  0.29472956  0.91215646  1
  Na  Na24  1  0.48497235  0.29594136  0.42286848  1
  Na  Na25  1  0.97945677  0.28500381  0.41861275  1
  Na  Na26  1  0.16747129  0.04125163  0.41476024  1
  Na  Na27  1  0.67368510  0.04745085  0.41617652  1
  Na  Na28  1  0.34724574  0.66617138  0.41535561  1
  Na  Na29  1  0.84686666  0.66538206  0.41800252  1
  Na  Na30  1  0.99855800  0.99699865  0.49891601  1
  Na  Na31  1  0.50453704  0.01067694  0.49980523  1
  Na  Na32  1  0.00250801  0.99647820  0.99856413  1
  Na  Na33  1  0.50353643  -0.00002492  0.99504773  1
  Na  Na34  1  0.33015606  0.33416747  0.82830139  1
  Na  Na35  1  0.82609348  0.33016615  0.83290270  1
  Na  Na36  1  0.32666137  0.32050538  0.33764718  1
  Na  Na37  1  0.82956690  0.32566739  0.33309527  1
  Na  Na38  1  0.15921546  0.65515939  0.16926874  1
  Na  Na39  1  0.66502732  0.66014344  0.17012617  1
  Na  Na40  1  0.16326287  0.66777396  0.66892888  1
  Na  Na41  1  0.66434940  0.66400041  0.66512665  1
  Zr  Zr0  1  0.99908561  0.00592004  0.64392392  1
  Zr  Zr1  1  0.50267378  0.00486916  0.64942749  1
  Zr  Zr2  1  0.00178955  0.00013251  0.15012231  1
  Zr  Zr3  1  0.50458060  0.99144580  0.14781155  1
  Zr  Zr4  1  0.82932764  0.32857304  0.68383353  1
  Zr  Zr5  1  0.33109746  0.34231896  0.18763252  1
  Zr  Zr6  1  0.16244281  0.66430741  0.01764850  1
  Zr  Zr7  1  0.66711865  0.66620242  0.01844754  1
  Zr  Zr8  1  0.16611999  0.66754283  0.51884215  1
  Zr  Zr9  1  0.66776366  0.65943324  0.52056145  1
  Zr  Zr10  1  0.17520383  0.67365997  0.31255467  1
  Zr  Zr11  1  0.67625424  0.67849611  0.81112664  1
  Ga  Ga0  1  0.99694152  0.01491422  0.34593855  1
  Ga  Ga1  1  0.50374120  0.00379887  0.35097258  1
  Ga  Ga2  1  0.00317114  0.99927081  0.84788343  1
  Ga  Ga3  1  0.49789745  0.98142026  0.84388493  1
  Ga  Ga4  1  0.33607726  0.31746457  0.68973393  1
  Ga  Ga5  1  0.83619515  0.35443293  0.18994669  1
  Ga  Ga6  1  0.32285895  0.34908371  0.98009437  1
  Ga  Ga7  1  0.82235676  0.34787096  0.98339247  1
  Ga  Ga8  1  0.32331911  0.29852263  0.48365185  1
  Ga  Ga9  1  0.82551110  0.31952794  0.48645113  1
  Ga  Ga10  1  0.68806351  0.68998682  0.31790641  1
  Ga  Ga11  1  0.18666621  0.68409423  0.81559019  1
  Si  Si0  1  0.14484453  0.99891418  0.25389668  1
  Si  Si1  1  0.64897645  0.99555389  0.25442445  1
  Si  Si2  1  0.35893509  0.71888871  0.25207051  1
  Si  Si3  1  0.85409308  0.70984933  0.25251478  1
  Si  Si4  1  0.99555142  0.29347422  0.24989759  1
  Si  Si5  1  0.14704624  0.29868675  0.75325570  1
  Si  Si6  1  0.64535368  0.28947870  0.75481684  1
  Si  Si7  1  0.49562753  0.69807486  0.75008875  1
  Si  Si8  1  0.35419619  0.99874835  0.75257424  1
  Si  Si9  1  0.85958414  0.00632937  0.75286751  1
  Si  Si10  1  0.47345258  0.33561398  0.58329159  1
  Si  Si11  1  0.97835447  0.34098666  0.58148643  1
  Si  Si12  1  0.19102937  0.04727837  0.58544545  1
  Si  Si13  1  0.68358421  0.03650952  0.58056262  1
  Si  Si14  1  0.83671274  0.62036576  0.57871928  1
  Si  Si15  1  0.47789701  0.61550217  0.08073388  1
  Si  Si16  1  0.97404773  0.61182965  0.08326432  1
  Si  Si17  1  0.18394986  0.33166043  0.08089110  1
  Si  Si18  1  0.68955348  0.33428178  0.08562399  1
  Si  Si19  1  0.31713381  0.67239258  0.91652616  1
  Si  Si20  1  0.81941098  0.67127594  0.91689426  1
  Si  Si21  1  0.16779893  0.96400929  0.91369746  1
  Si  Si22  1  0.66832243  0.97258390  0.91818874  1
  Si  Si23  1  0.31944070  0.96754303  0.41702842  1
  Si  Si24  1  0.81778110  0.96904521  0.41654259  1
  Si  Si25  1  0.16808616  0.36376065  0.41745331  1
  Si  Si26  1  0.66601488  0.37009014  0.41204570  1
  S  S0  1  0.50008017  0.29129246  0.25168163  1
  S  S1  1  0.00085214  0.70850607  0.75274783  1
  S  S2  1  0.33436902  0.61969079  0.58218341  1
  S  S3  1  0.33509205  0.04767966  0.08095039  1
  S  S4  1  0.83473822  0.04922844  0.08217421  1
  S  S5  1  0.01897239  0.37223410  0.91406632  1
  S  S6  1  0.51729570  0.37011399  0.91671450  1
  S  S7  1  0.01873360  0.66636986  0.41533348  1
  S  S8  1  0.52001265  0.66635134  0.41424538  1
  O  O0  1  0.10134183  0.03661184  0.31045279  1
  O  O1  1  0.60254953  0.03573388  0.30884714  1
  O  O2  1  0.41947340  0.80448704  0.30964861  1
  O  O3  1  0.91676118  0.79848638  0.30955893  1
  O  O4  1  0.48619668  0.18866973  0.30557865  1
  O  O5  1  0.97813857  0.17849033  0.30916844  1
  O  O6  1  0.10416683  0.17178442  0.81060045  1
  O  O7  1  0.60026835  0.16739228  0.81202422  1
  O  O8  1  0.47708061  0.77549620  0.81050557  1
  O  O9  1  0.98757934  0.78438138  0.80727178  1
  O  O10  1  0.41498933  0.03323307  0.81093372  1
  O  O11  1  0.91806997  0.03417362  0.81181887  1
  O  O12  1  0.39300691  0.95952283  0.69294252  1
  O  O13  1  0.89918367  0.97453328  0.69311350  1
  O  O14  1  0.08623947  0.21199855  0.69446429  1
  O  O15  1  0.58884735  0.20968655  0.69363847  1
  O  O16  1  0.01418051  0.81621315  0.70035228  1
  O  O17  1  0.51765871  0.83099893  0.69556541  1
  O  O18  1  0.39746121  0.82403802  0.19095959  1
  O  O19  1  0.89280222  0.82530625  0.19216931  1
  O  O20  1  0.01845935  0.20641511  0.19450071  1
  O  O21  1  0.51209985  0.20793040  0.19867937  1
  O  O22  1  0.08978266  0.96846877  0.19202241  1
  O  O23  1  0.58756604  0.95962504  0.19414064  1
  O  O24  1  0.43247260  0.36034013  0.64369263  1
  O  O25  1  0.93844242  0.36474821  0.64313410  1
  O  O26  1  0.25055521  0.13271607  0.64386959  1
  O  O27  1  0.74306087  0.11939114  0.64072313  1
  O  O28  1  0.31999426  0.51859293  0.63585858  1
  O  O29  1  0.81717419  0.50121926  0.63735258  1
  O  O30  1  0.43662200  0.50894134  0.14155462  1
  O  O31  1  0.93341155  0.50510291  0.14327610  1
  O  O32  1  0.32172393  0.12624236  0.13451852  1
  O  O33  1  0.82012871  0.12202080  0.13597065  1
  O  O34  1  0.24486263  0.36407646  0.13996368  1
  O  O35  1  0.74887531  0.36456282  0.14367563  1
  O  O36  1  0.22664316  0.29209827  0.02404851  1
  O  O37  1  0.72403746  0.28877261  0.02515472  1
  O  O38  1  0.41693801  0.52593875  0.02299127  1
  O  O39  1  0.91768741  0.52574303  0.02251885  1
  O  O40  1  0.34587852  0.14539685  0.02730230  1
  O  O41  1  0.84483500  0.14600663  0.02798132  1
  O  O42  1  0.22531059  0.15950764  0.52459494  1
  O  O43  1  0.72487028  0.15729498  0.52299981  1
  O  O44  1  0.34463954  0.54262702  0.52773454  1
  O  O45  1  0.84856680  0.53390124  0.51924407  1
  O  O46  1  0.41643013  0.30543027  0.52253743  1
  O  O47  1  0.91880580  0.30494721  0.52316251  1
  O  O48  1  0.27105189  0.70012602  0.97515333  1
  O  O49  1  0.77533496  0.70418999  0.97578759  1
  O  O50  1  0.07467328  0.45527214  0.96777094  1
  O  O51  1  0.57437512  0.45673665  0.96930675  1
  O  O52  1  0.14866743  0.84319546  0.97315867  1
  O  O53  1  0.65036243  0.84491710  0.97531236  1
  O  O54  1  0.27507663  0.84568401  0.47505114  1
  O  O55  1  0.77075190  0.84152386  0.47264721  1
  O  O56  1  0.15072943  0.45740899  0.47414099  1
  O  O57  1  0.64456622  0.45025899  0.47064316  1
  O  O58  1  0.07520658  0.69382131  0.46814283  1
  O  O59  1  0.57470669  0.69474252  0.46699266  1
  O  O60  1  0.05959208  0.64011451  0.36249153  1
  O  O61  1  0.55754297  0.63668134  0.36067192  1
  O  O62  1  0.25170913  0.87645520  0.36247379  1
  O  O63  1  0.75479771  0.89056908  0.35808415  1
  O  O64  1  0.18497138  0.48849523  0.35998154  1
  O  O65  1  0.67924258  0.49407476  0.35467865  1
  O  O66  1  0.05782549  0.47953708  0.86204826  1
  O  O67  1  0.55600520  0.47753591  0.86396073  1
  O  O68  1  0.18220231  0.86606657  0.85735720  1
  O  O69  1  0.68474307  0.87986597  0.86133501  1
  O  O70  1  0.25242633  0.62248090  0.86001058  1
  O  O71  1  0.75063560  0.62568930  0.86342459  1
  O  O72  1  0.01246445  0.82123257  0.41218355  1
  O  O73  1  0.51234049  0.82309488  0.41107173  1
  O  O74  1  0.41174852  0.97929259  0.40834593  1
  O  O75  1  0.90975120  0.97503219  0.40982666  1
  O  O76  1  0.08267956  0.17604868  0.41132799  1
  O  O77  1  0.57966911  0.17835203  0.40714945  1
  O  O78  1  0.01303393  0.20303965  0.91199703  1
  O  O79  1  0.51100222  0.20278157  0.91347439  1
  O  O80  1  0.08223695  0.98357573  0.90855324  1
  O  O81  1  0.58289287  0.98956771  0.91238801  1
  O  O82  1  0.40981840  0.84622084  0.91116347  1
  O  O83  1  0.91245188  0.84353929  0.90899129  1
  O  O84  1  0.48121953  0.15953256  0.58625198  1
  O  O85  1  0.98763566  0.16788150  0.58558415  1
  O  O86  1  0.09730514  0.02858677  0.59084882  1
  O  O87  1  0.59175434  0.02786205  0.58596077  1
  O  O88  1  0.40770298  0.79587546  0.58652706  1
  O  O89  1  0.91634006  0.81400317  0.58562960  1
  O  O90  1  0.48373534  0.80555110  0.08518596  1
  O  O91  1  0.98297169  0.80414872  0.08554227  1
  O  O92  1  0.40871819  0.02072966  0.08771193  1
  O  O93  1  0.90786789  0.01910408  0.08645556  1
  O  O94  1  0.09214743  0.15864091  0.08549390  1
  O  O95  1  0.59395072  0.16491232  0.09040849  1
  O  O96  1  0.34437192  0.16841425  0.74902988  1
  O  O97  1  0.85096637  0.17819057  0.74983839  1
  O  O98  1  0.24130366  0.31913456  0.74460671  1
  O  O99  1  0.73820371  0.30212243  0.74932361  1
  O  O100  1  0.40987321  0.51235473  0.74261659  1
  O  O101  1  0.92530005  0.53648602  0.74747840  1
  O  O102  1  0.35117991  0.52797560  0.24779823  1
  O  O103  1  0.84407682  0.52035518  0.24805449  1
  O  O104  1  0.42352918  0.31070528  0.24522105  1
  O  O105  1  0.90992879  0.30733454  0.24196270  1
  O  O106  1  0.23915044  0.17051772  0.24579855  1
  O  O107  1  0.74137848  0.16389473  0.24359492  1
  O  O108  1  0.32616404  0.50003721  0.92058611  1
  O  O109  1  0.82792227  0.49949460  0.92131169  1
  O  O110  1  0.43260035  0.35254756  0.92430308  1
  O  O111  1  0.93385130  0.35195545  0.92231901  1
  O  O112  1  0.25664070  0.15006409  0.92294304  1
  O  O113  1  0.75841409  0.15642492  0.92587887  1
  O  O114  1  0.32781479  0.15625591  0.42076101  1
  O  O115  1  0.82750562  0.15921862  0.42269600  1
  O  O116  1  0.25814733  0.35989508  0.42485580  1
  O  O117  1  0.75290522  0.35829520  0.41858638  1
  O  O118  1  0.43378832  0.51624231  0.42107018  1
  O  O119  1  0.93520571  0.51282352  0.42070670  1
  O  O120  1  0.18344993  0.51073682  0.07705838  1
  O  O121  1  0.68441815  0.50946274  0.07826094  1
  O  O122  1  0.07405416  0.65264646  0.07830032  1
  O  O123  1  0.57659262  0.65678394  0.07826140  1
  O  O124  1  0.25607135  0.87369003  0.07784154  1
  O  O125  1  0.75560997  0.87255472  0.07784489  1
  O  O126  1  0.18583732  0.86137303  0.57799197  1
  O  O127  1  0.67971707  0.85443356  0.57615009  1
  O  O128  1  0.25544869  0.63821024  0.57771304  1
  O  O129  1  0.74994761  0.63830647  0.57693536  1
  O  O130  1  0.07728555  0.50052831  0.57832660  1
  O  O131  1  0.57145427  0.49402084  0.57794181  1
  O  O132  1  0.14858990  0.82388793  0.25678831  1
  O  O133  1  0.65153855  0.81599522  0.25956221  1
  O  O134  1  0.26069718  0.67867369  0.25348058  1
  O  O135  1  0.75773829  0.68721516  0.25505755  1
  O  O136  1  0.08083459  0.48178611  0.25677729  1
  O  O137  1  0.57574606  0.46246897  0.25566218  1
  O  O138  1  0.15122818  0.48620422  0.76051299  1
  O  O139  1  0.64787335  0.47109124  0.75837688  1
  O  O140  1  0.07783717  0.69063438  0.75772989  1
  O  O141  1  0.58062948  0.68015329  0.75787282  1
  O  O142  1  0.25769917  0.82880410  0.75515768  1
  O  O143  1  0.76169429  0.84392973  0.75436493  1
loop_
_geom_bond_atom_site_label_1
_geom_bond_atom_site_label_2
_geom_bond_distance
_geom_bond_site_symmetry_2
Na0 O105 2.409546 1_555
Na0 O107 2.451284 1_555
Na0 O135 2.529263 1_545
Na0 O63 2.606034 1_545
Na0 O133 2.620060 1_545
Na0 O5 2.815519 1_555
Na0 O33 2.847684 1_555
Na0 O19 2.951311 1_545
Na1 O136 2.487209 1_555
Na1 O106 2.492869 1_555
Na1 O134 2.518261 1_555
Na1 O64 2.647160 1_555
Na1 O102 2.757142 1_555
Na1 O20 2.799111 1_555
Na1 O34 2.833831 1_555
Na1 O0 2.852480 1_555
Na2 O103 2.416361 1_555
Na2 O107 2.476463 1_555
Na2 O135 2.502660 1_555
Na2 O65 2.604410 1_555
Na2 O137 2.608794 1_555
Na2 O35 2.695201 1_555
Na2 O1 2.925286 1_555
Na2 O21 3.056502 1_555
Na3 O103 2.418642 1_555
Na3 O132 2.441253 1_655
Na3 O136 2.504352 1_655
Na3 O105 2.529393 1_555
Na3 O31 2.579827 1_555
Na3 O60 2.831182 1_655
Na3 O3 2.944534 1_555
Na3 O22 2.955102 1_655
Na4 O133 2.316632 1_555
Na4 O102 2.442001 1_555
Na4 O137 2.568239 1_555
Na4 O61 2.640033 1_555
Na4 O104 2.644650 1_555
Na4 O30 2.776181 1_555
Na4 O23 2.795919 1_555
Na4 O2 2.896886 1_555
Na5 O100 2.396944 1_555
Na5 O98 2.432847 1_555
Na5 O142 2.543276 1_555
Na5 O138 2.628759 1_555
Na5 O70 2.719598 1_555
Na5 O28 2.784121 1_555
Na5 O8 2.843282 1_555
Na5 O12 2.926020 1_555
Na6 O138 2.362899 1_555
Na6 O97 2.400837 1_455
Na6 O101 2.603639 1_455
Na6 O140 2.610255 1_555
Na6 O25 2.623130 1_455
Na6 O14 2.753916 1_555
Na6 O66 2.783646 1_555
Na6 O11 2.958553 1_455
Na7 O139 2.426630 1_555
Na7 O96 2.431970 1_555
Na7 O141 2.502722 1_555
Na7 O100 2.536727 1_555
Na7 O24 2.539003 1_555
Na7 O67 2.886112 1_555
Na7 O15 2.900841 1_555
Na7 O10 3.013002 1_555
Na8 O96 2.436674 1_555
Na8 O98 2.466924 1_555
Na8 O142 2.521124 1_545
Na8 O140 2.591789 1_545
Na8 O26 2.643596 1_555
Na8 O68 2.732591 1_545
Na8 O6 2.940757 1_555
Na8 O16 2.970491 1_545
Na9 O99 2.414255 1_565
Na9 O143 2.493103 1_555
Na9 O141 2.533964 1_555
Na9 O97 2.682933 1_565
Na9 O27 2.710276 1_565
Na9 O69 2.753021 1_555
Na9 O17 2.827390 1_555
Na9 O7 2.948224 1_565
Na10 O86 2.386899 1_555
Na10 O130 2.497666 1_555
Na10 O128 2.511064 1_555
Na10 O85 2.531359 1_455
Na10 O56 2.716613 1_555
Na10 O14 2.752407 1_555
Na10 O42 2.839977 1_555
Na10 O28 2.947081 1_555
Na11 O87 2.420931 1_555
Na11 O129 2.443840 1_555
Na11 O131 2.507948 1_555
Na11 O84 2.657641 1_555
Na11 O57 2.755301 1_555
Na11 O15 2.757274 1_555
Na11 O43 2.884909 1_555
Na11 O29 2.897828 1_555
Na12 O84 2.317409 1_565
Na12 O126 2.363556 1_555
Na12 O88 2.612549 1_555
Na12 O12 2.683595 1_555
Na12 O128 2.707683 1_555
Na12 O54 2.742057 1_555
Na12 O26 2.839827 1_565
Na12 O46 2.923983 1_565
Na13 O127 2.437536 1_555
Na13 O85 2.466090 1_565
Na13 O89 2.529717 1_555
Na13 O129 2.598726 1_555
Na13 O55 2.709249 1_555
Na13 O13 2.759935 1_555
Na13 O27 2.920240 1_565
Na13 O47 2.968113 1_565
Na14 O94 2.381033 1_565
Na14 O122 2.451492 1_555
Na14 O91 2.528003 1_455
Na14 O124 2.553158 1_555
Na14 O52 2.689770 1_554
Na14 O22 2.691356 1_555
Na14 O36 2.894683 1_565
Na14 O32 3.041050 1_565
Na15 O95 2.446305 1_565
Na15 O125 2.479806 1_555
Na15 O123 2.490375 1_555
Na15 O90 2.639762 1_555
Na15 O53 2.640820 1_554
Na15 O23 2.786777 1_555
Na15 O37 2.790100 1_565
Na15 O33 2.925244 1_565
Na16 O120 2.368754 1_555
Na16 O90 2.388974 1_555
Na16 O92 2.613780 1_565
Na16 O124 2.669689 1_555
Na16 O48 2.682861 1_554
Na16 O18 2.718053 1_555
Na16 O34 2.877958 1_555
Na16 O38 2.925107 1_555
Na17 O91 2.345481 1_555
Na17 O121 2.385141 1_555
Na17 O93 2.605464 1_565
Na17 O19 2.658040 1_555
Na17 O125 2.703892 1_555
Na17 O49 2.729256 1_554
Na17 O35 2.873749 1_555
Na17 O39 2.947595 1_555
Na18 O82 2.458544 1_555
Na18 O108 2.469239 1_555
Na18 O81 2.476390 1_555
Na18 O8 2.526712 1_555
Na18 O110 2.643260 1_555
Na18 O38 2.775963 1_556
Na18 O53 2.964530 1_555
Na18 O67 2.982645 1_555
Na19 O109 2.442569 1_555
Na19 O83 2.455262 1_555
Na19 O80 2.480401 1_655
Na19 O111 2.599082 1_555
Na19 O39 2.646992 1_556
Na19 O9 2.720571 1_555
Na19 O52 2.860668 1_655
Na19 O66 3.015765 1_655
Na20 O82 2.407905 1_545
Na20 O112 2.436877 1_555
Na20 O10 2.543811 1_555
Na20 O79 2.567860 1_555
Na20 O110 2.579666 1_555
Na20 O40 2.849722 1_556
Na20 O68 2.858047 1_545
Na20 O48 2.963251 1_545
Na21 O113 2.437451 1_555
Na21 O83 2.487799 1_545
Na21 O111 2.565041 1_555
Na21 O11 2.601892 1_555
Na21 O78 2.614381 1_655
Na21 O69 2.792697 1_545
Na21 O41 2.821825 1_556
Na21 O49 2.924886 1_545
Na22 O80 2.465008 1_545
Na22 O108 2.509526 1_555
Na22 O78 2.522551 1_555
Na22 O6 2.537086 1_555
Na22 O112 2.541652 1_555
Na22 O36 2.751587 1_556
Na22 O70 2.819256 1_555
Na22 O50 3.024470 1_555
Na23 O81 2.404775 1_545
Na23 O113 2.534885 1_555
Na23 O79 2.539633 1_555
Na23 O7 2.544749 1_555
Na23 O109 2.552515 1_555
Na23 O37 2.748490 1_556
Na23 O71 2.831685 1_555
Na23 O51 3.038021 1_555
Na24 O77 2.462444 1_555
Na24 O114 2.475936 1_555
Na24 O74 2.511331 1_545
Na24 O118 2.594228 1_555
Na24 O46 2.595024 1_555
Na24 O57 2.723343 1_555
Na24 O4 2.817842 1_555
Na24 O61 3.040778 1_555
Na25 O115 2.403118 1_555
Na25 O75 2.448119 1_545
Na25 O76 2.525353 1_655
Na25 O119 2.567583 1_555
Na25 O5 2.641752 1_555
Na25 O47 2.649220 1_555
Na25 O56 2.960686 1_655
Na25 O60 3.077224 1_655
Na26 O76 2.400336 1_555
Na26 O72 2.507368 1_545
Na26 O116 2.521863 1_555
Na26 O114 2.556979 1_555
Na26 O0 2.625474 1_555
Na26 O42 2.685389 1_555
Na26 O62 2.874552 1_545
Na26 O58 2.994473 1_545
Na27 O117 2.444457 1_555
Na27 O115 2.451729 1_555
Na27 O77 2.529685 1_555
Na27 O43 2.586245 1_555
Na27 O73 2.601663 1_545
Na27 O1 2.713522 1_555
Na27 O63 2.831535 1_545
Na27 O59 3.014524 1_545
Na28 O116 2.429803 1_555
Na28 O74 2.480929 1_555
Na28 O118 2.545873 1_555
Na28 O73 2.599053 1_555
Na28 O2 2.715993 1_555
Na28 O44 2.765125 1_555
Na28 O64 2.834779 1_555
Na28 O54 2.885027 1_555
Na29 O117 2.434574 1_555
Na29 O75 2.457267 1_555
Na29 O45 2.586588 1_555
Na29 O119 2.592462 1_555
Na29 O72 2.609168 1_655
Na29 O3 2.749762 1_555
Na29 O55 2.863524 1_555
Na29 O65 2.987564 1_555
Na30 O75 2.513403 1_555
Na30 O89 2.525592 1_555
Na30 O76 2.537817 1_665
Na30 O85 2.559667 1_565
Na30 O72 2.610994 1_655
Na30 O86 2.652766 1_665
Na31 O87 2.454622 1_555
Na31 O84 2.522569 1_555
Na31 O77 2.551891 1_555
Na31 O74 2.579175 1_545
Na31 O73 2.672099 1_545
Na31 O88 2.710175 1_545
Na32 O94 2.491259 1_566
Na32 O83 2.520686 1_455
Na32 O80 2.533815 1_555
Na32 O91 2.536146 1_456
Na32 O78 2.652338 1_565
Na32 O93 2.702064 1_466
Na33 O81 2.390769 1_545
Na33 O82 2.447882 1_545
Na33 O79 2.563041 1_555
Na33 O90 2.602482 1_546
Na33 O95 2.653320 1_556
Na33 O92 2.777870 1_556
Na34 O96 2.428464 1_555
Na34 O98 2.435082 1_555
Na34 O100 2.479616 1_555
Na34 O108 2.586000 1_555
Na34 O112 2.635686 1_555
Na34 O110 2.796326 1_555
Na35 O99 2.392115 1_555
Na35 O97 2.495162 1_555
Na35 O109 2.502250 1_555
Na35 O113 2.549352 1_555
Na35 O101 2.672795 1_555
Na35 O111 2.739063 1_555
Na36 O114 2.405581 1_555
Na36 O116 2.449817 1_555
Na36 O106 2.539231 1_555
Na36 O118 2.638004 1_555
Na36 O102 2.654616 1_555
Na36 O104 2.762281 1_555
Na37 O117 2.484226 1_555
Na37 O115 2.516348 1_555
Na37 O107 2.526814 1_555
Na37 O103 2.536437 1_555
Na37 O105 2.577590 1_555
Na37 O119 2.672819 1_555
Na38 O136 2.490228 1_555
Na38 O122 2.555516 1_555
Na38 O132 2.559811 1_555
Na38 O134 2.571888 1_555
Na38 O120 2.607388 1_555
Na38 O124 2.801601 1_555
Na39 O135 2.472103 1_555
Na39 O133 2.540932 1_555
Na39 O137 2.590318 1_555
Na39 O121 2.598248 1_555
Na39 O123 2.605078 1_555
Na39 O125 2.763833 1_555
Na40 O142 2.508774 1_555
Na40 O130 2.547127 1_555
Na40 O138 2.587861 1_555
Na40 O126 2.602677 1_555
Na40 O140 2.608190 1_555
Na40 O128 2.752802 1_555
Na41 O131 2.535694 1_555
Na41 O127 2.576635 1_555
Na41 O129 2.609423 1_555
Na41 O143 2.625108 1_555
Na41 O141 2.636689 1_555
Na41 O139 2.661815 1_555
Ga0 O5 1.877450 1_555
Ga0 O3 1.941121 1_545
Ga0 O0 1.978281 1_655
Ga0 O75 2.040137 1_545
Ga0 O76 2.102251 1_655
Ga0 O72 2.432105 1_645
Ga1 O2 1.920206 1_545
Ga1 O1 1.923963 1_555
Ga1 O77 1.948868 1_555
Ga1 O74 2.040081 1_545
Ga1 O4 2.124309 1_555
Ga1 O73 2.196352 1_545
Ga2 O11 1.905226 1_465
Ga2 O6 1.916346 1_565
Ga2 O80 2.034614 1_555
Ga2 O9 2.039036 1_455
Ga2 O83 2.077156 1_455
Ga2 O78 2.278234 1_565
Ga3 O8 1.866956 1_555
Ga3 O7 1.924275 1_565
Ga3 O10 1.934152 1_565
Ga3 O82 2.106136 1_555
Ga3 O81 2.152722 1_555
Ga3 O79 2.460058 1_565
Ga4 O24 1.905220 1_555
Ga4 O26 1.912972 1_555
Ga4 O96 1.963958 1_555
Ga4 O100 1.986035 1_555
Ga4 O98 2.130005 1_555
Ga4 O28 2.333212 1_555
Ga5 O31 1.924946 1_555
Ga5 O35 1.934353 1_555
Ga5 O103 1.942608 1_555
Ga5 O105 1.978039 1_555
Ga5 O107 2.115140 1_555
Ga5 O33 2.319716 1_555
Ga6 O36 1.848374 1_556
Ga6 O108 1.901141 1_555
Ga6 O38 1.913002 1_556
Ga6 O112 2.040750 1_555
Ga6 O40 2.348120 1_556
Ga6 O110 2.348130 1_555
Ga7 O37 1.849760 1_556
Ga7 O39 1.886794 1_556
Ga7 O109 1.934129 1_555
Ga7 O113 1.999960 1_555
Ga7 O41 2.301489 1_556
Ga7 O111 2.438401 1_555
Ga8 O42 1.840602 1_555
Ga8 O46 1.873638 1_555
Ga8 O114 1.943674 1_555
Ga8 O116 2.029446 1_555
Ga8 O44 2.274294 1_555
Ga8 O118 2.449554 1_555
Ga9 O43 1.875413 1_555
Ga9 O45 1.918952 1_555
Ga9 O47 1.945407 1_555
Ga9 O115 2.055003 1_555
Ga9 O117 2.156826 1_555
Ga9 O119 2.406660 1_555
Ga10 O63 1.837054 1_555
Ga10 O65 1.898815 1_555
Ga10 O135 1.912030 1_555
Ga10 O133 2.059575 1_555
Ga10 O61 2.378381 1_555
Ga10 O137 2.476049 1_555
Ga11 O70 1.844833 1_555
Ga11 O142 1.891867 1_555
Ga11 O68 1.935691 1_555
Ga11 O138 2.000773 1_555
Ga11 O140 2.388265 1_555
Ga11 O66 2.389194 1_555
O0 Si0 1.625613 1_545
O1 Si1 1.631683 1_545
O2 Si2 1.618845 1_555
O3 Si3 1.630247 1_555
O4 S0 1.477856 1_555
O5 Si4 1.630649 1_555
O6 Si5 1.651474 1_555
O7 Si6 1.635261 1_555
O8 Si7 1.641926 1_555
O9 S1 1.485106 1_655
O10 Si8 1.638367 1_545
O11 Si9 1.634878 1_555
O12 Si8 1.638965 1_555
O12 Zr1 2.072983 1_565
O13 Si9 1.621086 1_565
O13 Zr0 2.025958 1_565
O14 Si5 1.644166 1_555
O14 Zr0 2.075449 1_455
O15 Si6 1.647524 1_555
O15 Zr1 1.989907 1_555
O16 S1 1.477978 1_555
O16 Zr0 2.268737 1_465
O17 Si7 1.630924 1_555
O17 Zr1 2.022084 1_565
O18 Si2 1.627446 1_555
O18 Zr3 2.027173 1_555
O19 Si3 1.650852 1_555
O19 Zr2 2.054087 1_665
O20 Si4 1.638129 1_455
O20 Zr2 2.004281 1_555
O21 S0 1.486170 1_555
O21 Zr3 2.216129 1_545
O22 Si0 1.651788 1_555
O22 Zr2 1.993908 1_565
O23 Si1 1.677650 1_555
O23 Zr3 1.966795 1_555
O24 Si10 1.622219 1_555
O25 Si11 1.632732 1_555
O25 Zr4 2.059759 1_555
O26 Si12 1.626032 1_555
O27 Si13 1.654260 1_555
O27 Zr4 2.000087 1_555
O28 S2 1.464961 1_555
O29 Si14 1.635250 1_555
O29 Zr4 1.990328 1_555
O30 Si15 1.634299 1_555
O30 Zr5 2.041598 1_555
O31 Si16 1.617615 1_555
O32 S3 1.481591 1_555
O32 Zr5 2.226848 1_555
O33 S4 1.466248 1_555
O34 Si17 1.655370 1_555
O34 Zr5 1.985254 1_555
O35 Si18 1.623465 1_555
O36 Si17 1.629660 1_555
O37 Si18 1.637955 1_555
O38 Si15 1.630364 1_555
O39 Si16 1.646559 1_555
O40 S3 1.457502 1_555
O41 S4 1.465237 1_555
O42 Si12 1.640341 1_555
O43 Si13 1.626394 1_555
O44 S2 1.468596 1_555
O45 Si14 1.619754 1_555
O46 Si10 1.649925 1_555
O47 Si11 1.622881 1_555
O48 Si19 1.651714 1_555
O48 Zr6 2.071284 1_556
O49 Si20 1.654676 1_555
O49 Zr7 2.060632 1_556
O50 S5 1.508363 1_555
O50 Zr6 2.084882 1_556
O51 S6 1.504548 1_555
O51 Zr7 2.107584 1_556
O52 Si21 1.659679 1_555
O52 Zr6 2.030855 1_556
O53 Si22 1.656811 1_555
O53 Zr7 2.043455 1_556
O54 Si23 1.646897 1_555
O54 Zr8 2.081417 1_555
O55 Si24 1.643371 1_555
O55 Zr9 2.082074 1_555
O56 Si25 1.648862 1_555
O56 Zr8 2.045506 1_555
O57 Si26 1.645358 1_555
O57 Zr9 2.056813 1_555
O58 S7 1.503666 1_555
O58 Zr8 2.113549 1_555
O59 S8 1.482117 1_555
O59 Zr9 2.223163 1_555
O60 S7 1.486175 1_555
O60 Zr10 2.269562 1_555
O61 S8 1.477783 1_555
O62 Si23 1.633654 1_555
O62 Zr10 1.999191 1_555
O63 Si24 1.647739 1_555
O64 Si25 1.649944 1_555
O64 Zr10 2.076654 1_555
O65 Si26 1.655465 1_555
O66 S5 1.466315 1_555
O67 S6 1.479751 1_555
O67 Zr11 2.359763 1_555
O68 Si21 1.642960 1_555
O69 Si22 1.639046 1_555
O69 Zr11 2.085505 1_555
O70 Si19 1.630121 1_555
O71 Si20 1.627331 1_555
O71 Zr11 2.020311 1_555
O72 S7 1.468688 1_555
O73 S8 1.500051 1_555
O74 Si23 1.638108 1_555
O75 Si24 1.651185 1_555
O76 Si25 1.637216 1_555
O77 Si26 1.663435 1_555
O78 S5 1.486113 1_555
O79 S6 1.467353 1_555
O80 Si21 1.653419 1_555
O81 Si22 1.638638 1_555
O82 Si19 1.638102 1_555
O83 Si20 1.641042 1_555
O84 Si10 1.675744 1_555
O84 Zr1 2.170261 1_555
O85 Si11 1.665736 1_555
O85 Zr0 2.062538 1_555
O86 Si12 1.628802 1_555
O86 Zr0 2.075630 1_455
O87 Si13 1.634742 1_555
O87 Zr1 2.095634 1_555
O88 S2 1.485960 1_555
O88 Zr1 2.295038 1_565
O89 Si14 1.630446 1_555
O89 Zr0 2.089238 1_565
O90 Si15 1.678048 1_555
O90 Zr3 2.079202 1_555
O91 Si16 1.671989 1_555
O91 Zr2 2.184094 1_665
O92 S3 1.482056 1_555
O92 Zr3 2.319501 1_545
O93 S4 1.486680 1_555
O93 Zr2 2.295848 1_655
O94 Si17 1.624748 1_555
O94 Zr2 2.135404 1_555
O95 Si18 1.649741 1_555
O95 Zr3 2.065232 1_545
O96 Si8 1.639664 1_545
O97 Si9 1.646366 1_555
O97 Zr4 2.186319 1_555
O98 Si5 1.639265 1_555
O99 Si6 1.636897 1_555
O99 Zr4 2.145130 1_555
O100 Si7 1.632379 1_555
O101 S1 1.479457 1_655
O101 Zr4 2.307136 1_555
O102 Si2 1.670203 1_555
O102 Zr5 2.043858 1_555
O103 Si3 1.640165 1_555
O104 S0 1.492708 1_555
O104 Zr5 2.247081 1_555
O105 Si4 1.630550 1_555
O106 Si0 1.651814 1_545
O106 Zr5 2.090209 1_555
O107 Si1 1.628286 1_545
O108 Si19 1.656304 1_555
O109 Si20 1.646240 1_555
O110 S6 1.475474 1_555
O111 S5 1.474994 1_655
O112 Si21 1.663422 1_545
O113 Si22 1.659907 1_545
O114 Si23 1.644840 1_545
O115 Si24 1.651094 1_545
O116 Si25 1.660887 1_555
O117 Si26 1.640069 1_555
O118 S8 1.483581 1_555
O119 S7 1.464842 1_655
O120 Si17 1.633531 1_555
O120 Zr6 2.103734 1_555
O121 Si18 1.648580 1_555
O121 Zr7 2.097778 1_555
O122 Si16 1.666160 1_455
O122 Zr6 2.075335 1_555
O123 Si15 1.638321 1_555
O123 Zr7 2.099358 1_555
O124 S3 1.513129 1_565
O124 Zr6 2.251726 1_555
O125 S4 1.529232 1_565
O125 Zr7 2.198479 1_555
O126 Si12 1.651088 1_565
O126 Zr8 2.085933 1_555
O127 Si13 1.622242 1_565
O127 Zr9 2.085416 1_555
O128 S2 1.527159 1_555
O128 Zr8 2.208634 1_555
O129 Si14 1.663392 1_555
O129 Zr9 2.036978 1_555
O130 Si11 1.651781 1_455
O130 Zr8 2.070407 1_555
O131 Si10 1.640701 1_555
O131 Zr9 2.096115 1_555
O132 Si0 1.626215 1_555
O132 Zr10 2.083795 1_555
O133 Si1 1.658977 1_555
O134 Si2 1.632500 1_555
O134 Zr10 2.033098 1_555
O135 Si3 1.657675 1_555
O136 Si4 1.640742 1_455
O136 Zr10 2.127932 1_555
O137 S0 1.473958 1_555
O138 Si5 1.673652 1_555
O139 Si6 1.628632 1_555
O139 Zr11 2.057370 1_555
O140 S1 1.489626 1_555
O141 Si7 1.639784 1_555
O141 Zr11 2.112601 1_555
O142 Si8 1.658500 1_555
O143 Si9 1.647111 1_565
O143 Zr11 2.000198 1_555
