# generated using pymatgen
data_TbNi2
_symmetry_space_group_name_H-M   'P 1'
_cell_length_a   5.02659888
_cell_length_b   5.02660014
_cell_length_c   5.02660283
_cell_angle_alpha   59.99997566
_cell_angle_beta   59.99996734
_cell_angle_gamma   59.99995288
_symmetry_Int_Tables_number   1
_chemical_formula_structural   TbNi2
_chemical_formula_sum   'Tb2 Ni4'
_cell_volume   89.80650615
_cell_formula_units_Z   2
loop_
 _symmetry_equiv_pos_site_id
 _symmetry_equiv_pos_as_xyz
  1  'x, y, z'
loop_
 _atom_site_type_symbol
 _atom_site_label
 _atom_site_symmetry_multiplicity
 _atom_site_fract_x
 _atom_site_fract_y
 _atom_site_fract_z
 _atom_site_occupancy
  Tb  Tb0  1  0.87500100  0.87500000  0.87499900  1
  Tb  Tb1  1  0.12499900  0.12500000  0.12500100  1
  Ni  Ni0  1  0.50000000  0.00000000  0.50000000  1
  Ni  Ni1  1  -0.00000000  0.50000000  0.50000000  1
  Ni  Ni2  1  0.50000000  0.50000000  0.50000000  1
  Ni  Ni3  1  0.50000000  0.50000000  -0.00000000  1
loop_
_geom_bond_atom_site_label_1
_geom_bond_atom_site_label_2
_geom_bond_distance
_geom_bond_site_symmetry_2
Tb0 Tb1 3.078144 1_665
Tb0 Tb1 3.078150 1_656
Tb0 Tb1 3.078152 1_666
Tb0 Tb1 3.078157 1_566
Ni0 Ni1 2.513298 1_645
Ni0 Ni1 2.513298 1_555
Ni0 Ni3 2.513300 1_546
Ni0 Ni3 2.513300 1_555
Ni0 Ni2 2.513300 1_555
Ni0 Ni2 2.513300 1_545
Ni0 Tb1 2.947100 1_655
Ni0 Tb0 2.947100 1_445
Ni0 Tb0 2.947106 1_545
Ni0 Tb1 2.947106 1_555
Ni0 Tb1 2.947110 1_556
Ni0 Tb0 2.947110 1_544
Ni1 Ni3 2.513299 1_555
Ni1 Ni3 2.513299 1_456
Ni1 Ni2 2.513299 1_455
Ni1 Ni2 2.513299 1_555
Ni1 Tb1 2.947103 1_565
Ni1 Tb0 2.947103 1_445
Ni1 Tb0 2.947104 1_455
Ni1 Tb1 2.947104 1_555
Ni1 Tb1 2.947108 1_556
Ni1 Tb0 2.947108 1_454
Ni2 Ni3 2.513301 1_555
Ni2 Ni3 2.513301 1_556
Ni2 Tb1 2.947099 1_655
Ni2 Tb0 2.947099 1_455
Ni2 Tb0 2.947104 1_545
Ni2 Tb1 2.947104 1_565
Ni2 Tb0 2.947109 1_554
Ni2 Tb1 2.947109 1_556
Ni3 Tb1 2.947102 1_655
Ni3 Tb0 2.947102 1_454
Ni3 Tb1 2.947106 1_565
Ni3 Tb0 2.947106 1_544
Ni3 Tb0 2.947108 1_554
Ni3 Tb1 2.947108 1_555
