# generated using pymatgen
data_Cr(PO3)3
_symmetry_space_group_name_H-M   'P 1'
_cell_length_a   6.59421908
_cell_length_b   6.59421908
_cell_length_c   9.62378765
_cell_angle_alpha   89.80198608
_cell_angle_beta   89.80198608
_cell_angle_gamma   60.02589593
_symmetry_Int_Tables_number   1
_chemical_formula_structural   Cr(PO3)3
_chemical_formula_sum   'Cr2 P6 O18'
_cell_volume   362.50434407
_cell_formula_units_Z   2
loop_
 _symmetry_equiv_pos_site_id
 _symmetry_equiv_pos_as_xyz
  1  'x, y, z'
loop_
 _atom_site_type_symbol
 _atom_site_label
 _atom_site_symmetry_multiplicity
 _atom_site_fract_x
 _atom_site_fract_y
 _atom_site_fract_z
 _atom_site_occupancy
  Cr  Cr0  1  0.33570000  0.33270800  0.49994200  1
  Cr  Cr1  1  0.33270800  0.33570000  0.99994200  1
  P  P0  1  0.06636200  0.71330200  0.74987800  1
  P  P1  1  0.22318000  0.06585300  0.75199600  1
  P  P2  1  0.71388900  0.22248200  0.74790900  1
  P  P3  1  0.71330200  0.06636200  0.24987800  1
  P  P4  1  0.06585300  0.22318000  0.25199600  1
  P  P5  1  0.22248200  0.71388900  0.24790900  1
  O  O0  1  0.81413800  0.94385200  0.74833100  1
  O  O1  1  0.24490400  0.81345600  0.75076300  1
  O  O2  1  0.59040200  0.32652400  0.61324800  1
  O  O3  1  0.58236500  0.32753800  0.88023900  1
  O  O4  1  0.58638600  0.08626600  0.38350700  1
  O  O5  1  0.32753800  0.58236500  0.38023900  1
  O  O6  1  0.32652400  0.59040200  0.11324800  1
  O  O7  1  0.58517400  0.09218300  0.11651400  1
  O  O8  1  0.08626600  0.58638600  0.88350700  1
  O  O9  1  0.09218300  0.58517400  0.61651400  1
  O  O10  1  0.32452000  0.08838700  0.88664800  1
  O  O11  1  0.81345600  0.24490400  0.25076300  1
  O  O12  1  0.94385200  0.81413800  0.24833100  1
  O  O13  1  0.33088400  0.08936900  0.61961500  1
  O  O14  1  0.08838700  0.32452000  0.38664800  1
  O  O15  1  0.08936900  0.33088400  0.11961500  1
  O  O16  1  0.94461600  0.24409900  0.75049200  1
  O  O17  1  0.24409900  0.94461600  0.25049200  1
loop_
_geom_bond_atom_site_label_1
_geom_bond_atom_site_label_2
_geom_bond_distance
_geom_bond_site_symmetry_2
Cr0 O9 1.984435 1_555
Cr0 O5 1.984705 1_555
Cr0 O13 1.984986 1_555
Cr0 O4 1.986126 1_555
Cr0 O14 1.987968 1_555
Cr0 O2 1.988855 1_555
Cr1 O7 1.984435 1_556
Cr1 O3 1.984705 1_555
Cr1 O15 1.984986 1_556
Cr1 O8 1.986126 1_555
Cr1 O10 1.987968 1_555
Cr1 O6 1.988855 1_556
O0 P0 1.597258 1_655
O0 P2 1.612198 1_565
O1 P1 1.597701 1_565
O1 P0 1.612282 1_555
O2 P2 1.502059 1_555
O3 P2 1.500690 1_555
O4 P3 1.501818 1_555
O5 P5 1.500690 1_555
O6 P5 1.502059 1_555
O7 P3 1.500792 1_555
O8 P0 1.501818 1_555
O9 P0 1.500792 1_555
O10 P1 1.501481 1_555
O11 P4 1.597701 1_655
O11 P3 1.612282 1_555
O12 P3 1.597258 1_565
O12 P5 1.612198 1_655
O13 P1 1.501328 1_555
O14 P4 1.501481 1_555
O15 P4 1.501328 1_555
O16 P2 1.597745 1_555
O16 P1 1.612038 1_655
O17 P5 1.597745 1_555
O17 P4 1.612038 1_565
