# generated using pymatgen
data_Na3CaNb5Si3(PO6)6
_symmetry_space_group_name_H-M   'P 1'
_cell_length_a   8.89431291
_cell_length_b   8.89431261
_cell_length_c   23.08026283
_cell_angle_alpha   90.00000000
_cell_angle_beta   90.00000000
_cell_angle_gamma   120.00000106
_symmetry_Int_Tables_number   1
_chemical_formula_structural   Na3CaNb5Si3(PO6)6
_chemical_formula_sum   'Na6 Ca2 Nb10 Si6 P12 O72'
_cell_volume   1581.23409878
_cell_formula_units_Z   2
loop_
 _symmetry_equiv_pos_site_id
 _symmetry_equiv_pos_as_xyz
  1  'x, y, z'
loop_
 _atom_site_type_symbol
 _atom_site_label
 _atom_site_symmetry_multiplicity
 _atom_site_fract_x
 _atom_site_fract_y
 _atom_site_fract_z
 _atom_site_occupancy
  Na  Na0  1  0.00000000  -0.00000000  0.49949479  1
  Na  Na1  1  0.00000000  -0.00000000  0.99949479  1
  Na  Na2  1  0.66666700  0.33333300  0.82756900  1
  Na  Na3  1  0.66666700  0.33333300  0.32756900  1
  Na  Na4  1  0.33333300  0.66666700  0.16666067  1
  Na  Na5  1  0.33333300  0.66666700  0.66666067  1
  Ca  Ca0  1  0.66666700  0.33333300  0.68687669  1
  Ca  Ca1  1  0.66666700  0.33333300  0.18687669  1
  Nb  Nb0  1  0.00000000  -0.00000000  0.35744945  1
  Nb  Nb1  1  0.00000000  -0.00000000  0.85744945  1
  Nb  Nb2  1  0.00000000  -0.00000000  0.64594638  1
  Nb  Nb3  1  0.00000000  -0.00000000  0.14594638  1
  Nb  Nb4  1  0.66666700  0.33333300  0.97778007  1
  Nb  Nb5  1  0.66666700  0.33333300  0.47778007  1
  Nb  Nb6  1  0.33333300  0.66666700  0.01758373  1
  Nb  Nb7  1  0.33333300  0.66666700  0.51758373  1
  Nb  Nb8  1  0.33333300  0.66666700  0.31317871  1
  Nb  Nb9  1  0.33333300  0.66666700  0.81317871  1
  Si  Si0  1  0.61911831  0.66518140  0.91614836  1
  Si  Si1  1  0.04606209  0.38088169  0.91614836  1
  Si  Si2  1  0.33481860  0.95393791  0.91614836  1
  Si  Si3  1  0.61911831  0.95393791  0.41614836  1
  Si  Si4  1  0.33481860  0.38088169  0.41614836  1
  Si  Si5  1  0.04606209  0.66518140  0.41614836  1
  P  P0  1  0.28155094  0.99418878  0.25209025  1
  P  P1  1  0.71263784  0.71844906  0.25209025  1
  P  P2  1  0.00581122  0.28736216  0.25209025  1
  P  P3  1  0.28155094  0.28736216  0.75209025  1
  P  P4  1  0.00581122  0.71844906  0.75209025  1
  P  P5  1  0.71263784  0.99418878  0.75209025  1
  P  P6  1  0.96162806  0.33468016  0.58276932  1
  P  P7  1  0.37305310  0.03837194  0.58276932  1
  P  P8  1  0.66531984  0.62694690  0.58276932  1
  P  P9  1  0.96162806  0.62694690  0.08276932  1
  P  P10  1  0.66531984  0.03837194  0.08276932  1
  P  P11  1  0.37305310  0.33468016  0.08276932  1
  O  O0  1  0.18076559  0.00514736  0.30500649  1
  O  O1  1  0.82438177  0.81923441  0.30500649  1
  O  O2  1  0.99485264  0.17561823  0.30500649  1
  O  O3  1  0.18076559  0.17561823  0.80500649  1
  O  O4  1  0.99485264  0.81923441  0.80500649  1
  O  O5  1  0.82438177  0.00514736  0.80500649  1
  O  O6  1  0.80526255  0.97373671  0.69612393  1
  O  O7  1  0.16847416  0.19473745  0.69612393  1
  O  O8  1  0.02626329  0.83152584  0.69612393  1
  O  O9  1  0.80526255  0.83152584  0.19612393  1
  O  O10  1  0.02626329  0.19473745  0.19612393  1
  O  O11  1  0.16847416  0.97373671  0.19612393  1
  O  O12  1  0.89778758  0.37182845  0.63792533  1
  O  O13  1  0.47404186  0.10221242  0.63792533  1
  O  O14  1  0.62817155  0.52595814  0.63792533  1
  O  O15  1  0.89778758  0.52595814  0.13792533  1
  O  O16  1  0.62817155  0.10221242  0.13792533  1
  O  O17  1  0.47404186  0.37182845  0.13792533  1
  O  O18  1  0.46241200  0.30527588  0.02900058  1
  O  O19  1  0.84286488  0.53758800  0.02900058  1
  O  O20  1  0.69472412  0.15713512  0.02900058  1
  O  O21  1  0.46241200  0.15713512  0.52900058  1
  O  O22  1  0.69472412  0.53758800  0.52900058  1
  O  O23  1  0.84286488  0.30527588  0.52900058  1
  O  O24  1  0.52989666  0.69660759  0.97244924  1
  O  O25  1  0.16670993  0.47010334  0.97244924  1
  O  O26  1  0.30339241  0.83329007  0.97244924  1
  O  O27  1  0.52989666  0.83329007  0.47244924  1
  O  O28  1  0.30339241  0.47010334  0.47244924  1
  O  O29  1  0.16670993  0.69660759  0.47244924  1
  O  O30  1  0.13727966  0.63458360  0.35902136  1
  O  O31  1  0.49730294  0.86272034  0.35902136  1
  O  O32  1  0.36541640  0.50269706  0.35902136  1
  O  O33  1  0.13727966  0.50269706  0.85902136  1
  O  O34  1  0.36541640  0.86272034  0.85902136  1
  O  O35  1  0.49730294  0.63458360  0.85902136  1
  O  O36  1  0.02350950  0.83447267  0.40772286  1
  O  O37  1  0.81096317  0.97649050  0.40772286  1
  O  O38  1  0.16552733  0.18903683  0.40772286  1
  O  O39  1  0.02350950  0.18903683  0.90772286  1
  O  O40  1  0.16552733  0.97649050  0.90772286  1
  O  O41  1  0.81096317  0.83447267  0.90772286  1
  O  O42  1  0.97966831  0.16666542  0.58913913  1
  O  O43  1  0.18699711  0.02033169  0.58913913  1
  O  O44  1  0.83333458  0.81300289  0.58913913  1
  O  O45  1  0.97966831  0.81300289  0.08913913  1
  O  O46  1  0.83333458  0.02033169  0.08913913  1
  O  O47  1  0.18699711  0.16666542  0.08913913  1
  O  O48  1  0.69548005  0.15339618  0.75138296  1
  O  O49  1  0.45791713  0.30451995  0.75138296  1
  O  O50  1  0.84660382  0.54208287  0.75138296  1
  O  O51  1  0.69548005  0.54208287  0.25138296  1
  O  O52  1  0.84660382  0.30451995  0.25138296  1
  O  O53  1  0.45791713  0.15339618  0.25138296  1
  O  O54  1  0.64025959  0.49510476  0.92694771  1
  O  O55  1  0.85484618  0.35974041  0.92694771  1
  O  O56  1  0.50489524  0.14515382  0.92694771  1
  O  O57  1  0.64025959  0.14515382  0.42694771  1
  O  O58  1  0.50489524  0.35974041  0.42694771  1
  O  O59  1  0.85484618  0.49510476  0.42694771  1
  O  O60  1  0.34198830  0.48915340  0.07080916  1
  O  O61  1  0.14716410  0.65801170  0.07080916  1
  O  O62  1  0.51084660  0.85283590  0.07080916  1
  O  O63  1  0.34198830  0.85283590  0.57080916  1
  O  O64  1  0.51084660  0.65801170  0.57080916  1
  O  O65  1  0.14716410  0.48915340  0.57080916  1
  O  O66  1  0.28922262  0.82291972  0.25595016  1
  O  O67  1  0.53369610  0.71077738  0.25595016  1
  O  O68  1  0.17708028  0.46630390  0.25595016  1
  O  O69  1  0.28922262  0.46630390  0.75595016  1
  O  O70  1  0.17708028  0.71077738  0.75595016  1
  O  O71  1  0.53369610  0.82291972  0.75595016  1
loop_
_geom_bond_atom_site_label_1
_geom_bond_atom_site_label_2
_geom_bond_distance
_geom_bond_site_symmetry_2
Na0 O44 2.603656 1_445
Na0 O42 2.603656 1_455
Na0 O43 2.603656 1_555
Na0 O38 2.646796 1_555
Na0 O36 2.646796 1_545
Na0 O37 2.646796 1_445
Na1 O45 2.603656 1_446
Na1 O47 2.603656 1_556
Na1 O46 2.603656 1_456
Na1 O39 2.646796 1_555
Na1 O41 2.646796 1_445
Na1 O40 2.646796 1_545
Na2 O50 2.475700 1_555
Na2 O48 2.475700 1_555
Na2 O49 2.475700 1_555
Na2 O54 2.779281 1_555
Na2 O56 2.779281 1_555
Na2 O55 2.779281 1_555
Na3 O51 2.475700 1_555
Na3 O53 2.475700 1_555
Na3 O52 2.475700 1_555
Na3 O58 2.779281 1_555
Na3 O59 2.779281 1_555
Na3 O57 2.779281 1_555
Na4 O68 2.622519 1_555
Na4 O66 2.622519 1_555
Na4 O67 2.622519 1_555
Na4 O62 2.741250 1_555
Na4 O60 2.741250 1_555
Na4 O61 2.741250 1_555
Na4 O15 3.487817 1_455
Na4 O16 3.487820 1_565
Na4 O17 3.487833 1_555
Na5 O69 2.622519 1_555
Na5 O71 2.622519 1_555
Na5 O70 2.622519 1_555
Na5 O63 2.741250 1_555
Na5 O65 2.741250 1_555
Na5 O64 2.741250 1_555
Na5 O13 3.487817 1_565
Na5 O12 3.487820 1_455
Na5 O14 3.487834 1_555
Ca0 O13 2.217115 1_555
Ca0 O12 2.217115 1_555
Ca0 O14 2.217115 1_555
Ca0 O50 2.292102 1_555
Ca0 O48 2.292102 1_555
Ca0 O49 2.292102 1_555
Ca1 O16 2.217115 1_555
Ca1 O15 2.217115 1_555
Ca1 O17 2.217115 1_555
Ca1 O51 2.292102 1_555
Ca1 O53 2.292102 1_555
Ca1 O52 2.292102 1_555
Nb0 O38 1.966074 1_555
Nb0 O36 1.966074 1_545
Nb0 O37 1.966074 1_445
Nb0 O1 1.994624 1_445
Nb0 O2 1.994624 1_455
Nb0 O0 1.994624 1_555
Nb1 O39 1.966074 1_555
Nb1 O41 1.966074 1_445
Nb1 O40 1.966074 1_545
Nb1 O4 1.994624 1_445
Nb1 O3 1.994624 1_555
Nb1 O5 1.994624 1_455
Nb2 O7 1.997800 1_555
Nb2 O8 1.997800 1_545
Nb2 O6 1.997801 1_445
Nb2 O44 2.053596 1_445
Nb2 O42 2.053596 1_455
Nb2 O43 2.053596 1_555
Nb3 O10 1.997800 1_555
Nb3 O9 1.997800 1_445
Nb3 O11 1.997801 1_545
Nb3 O45 2.053596 1_445
Nb3 O47 2.053596 1_555
Nb3 O46 2.053596 1_455
Nb4 O54 1.959555 1_555
Nb4 O56 1.959556 1_555
Nb4 O55 1.959556 1_555
Nb4 O19 2.075307 1_556
Nb4 O20 2.075307 1_556
Nb4 O18 2.075307 1_556
Nb5 O58 1.959556 1_555
Nb5 O59 1.959556 1_555
Nb5 O57 1.959556 1_555
Nb5 O22 2.075307 1_555
Nb5 O21 2.075307 1_555
Nb5 O23 2.075307 1_555
Nb6 O25 1.935733 1_554
Nb6 O26 1.935733 1_554
Nb6 O24 1.935733 1_554
Nb6 O62 2.032088 1_555
Nb6 O60 2.032088 1_555
Nb6 O61 2.032088 1_555
Nb7 O28 1.935733 1_555
Nb7 O27 1.935733 1_555
Nb7 O29 1.935733 1_555
Nb7 O63 2.032088 1_555
Nb7 O65 2.032088 1_555
Nb7 O64 2.032088 1_555
Nb8 O31 1.934947 1_555
Nb8 O32 1.934947 1_555
Nb8 O30 1.934947 1_555
Nb8 O68 2.091710 1_555
Nb8 O66 2.091710 1_555
Nb8 O67 2.091710 1_555
Nb9 O34 1.934947 1_555
Nb9 O33 1.934947 1_555
Nb9 O35 1.934947 1_555
Nb9 O69 2.091710 1_555
Nb9 O71 2.091710 1_555
Nb9 O70 2.091710 1_555
O0 P0 1.546629 1_545
O1 P1 1.546629 1_555
O2 P2 1.546629 1_655
O3 P3 1.546629 1_555
O4 P4 1.546629 1_655
O5 P5 1.546629 1_545
O6 P5 1.590656 1_555
O7 P3 1.590656 1_555
O8 P4 1.590656 1_555
O9 P1 1.590656 1_555
O10 P2 1.590656 1_555
O11 P0 1.590656 1_555
O12 P6 1.496585 1_555
O13 P7 1.496585 1_555
O14 P8 1.496585 1_555
O15 P9 1.496585 1_555
O16 P10 1.496585 1_555
O17 P11 1.496585 1_555
O18 P11 1.564614 1_555
O19 P9 1.564614 1_555
O20 P10 1.564614 1_555
O21 P7 1.564614 1_555
O22 P8 1.564614 1_555
O23 P6 1.564614 1_555
O24 Si0 1.618094 1_555
O25 Si1 1.618094 1_555
O26 Si2 1.618094 1_555
O27 Si3 1.618094 1_555
O28 Si4 1.618094 1_555
O29 Si5 1.618094 1_555
O30 Si5 1.640596 1_555
O31 Si3 1.640596 1_555
O32 Si4 1.640596 1_555
O33 Si1 1.640596 1_555
O34 Si2 1.640596 1_555
O35 Si0 1.640596 1_555
O36 Si5 1.627055 1_555
O37 Si3 1.627064 1_555
O38 Si4 1.627060 1_555
O39 Si1 1.627064 1_555
O40 Si2 1.627055 1_555
O41 Si0 1.627060 1_555
O42 P6 1.587545 1_555
O43 P7 1.587554 1_555
O44 P8 1.587550 1_555
O45 P9 1.587554 1_555
O46 P10 1.587545 1_555
O47 P11 1.587550 1_555
O48 P5 1.498273 1_545
O49 P3 1.498282 1_555
O50 P4 1.498278 1_655
O51 P1 1.498282 1_555
O52 P2 1.498273 1_655
O53 P0 1.498278 1_545
O54 Si0 1.634086 1_555
O55 Si1 1.634068 1_655
O56 Si2 1.634076 1_545
O57 Si3 1.634068 1_545
O58 Si4 1.634086 1_555
O59 Si5 1.634076 1_655
O60 P11 1.555587 1_555
O61 P9 1.555570 1_455
O62 P10 1.555576 1_565
O63 P7 1.555570 1_565
O64 P8 1.555587 1_555
O65 P6 1.555576 1_455
O66 P0 1.561102 1_555
O67 P1 1.561111 1_555
O68 P2 1.561107 1_555
O69 P3 1.561111 1_555
O70 P4 1.561102 1_555
O71 P5 1.561107 1_555
