# generated using pymatgen
data_MgVRhO4
_symmetry_space_group_name_H-M   'P 1'
_cell_length_a   3.00845500
_cell_length_b   5.05618569
_cell_length_c   5.01903635
_cell_angle_alpha   88.58195140
_cell_angle_beta   90.00000000
_cell_angle_gamma   90.00000000
_symmetry_Int_Tables_number   1
_chemical_formula_structural   MgVRhO4
_chemical_formula_sum   'Mg1 V1 Rh1 O4'
_cell_volume   76.32272192
_cell_formula_units_Z   1
loop_
 _symmetry_equiv_pos_site_id
 _symmetry_equiv_pos_as_xyz
  1  'x, y, z'
loop_
 _atom_site_type_symbol
 _atom_site_label
 _atom_site_symmetry_multiplicity
 _atom_site_fract_x
 _atom_site_fract_y
 _atom_site_fract_z
 _atom_site_occupancy
  Mg  Mg0  1  0.52975900  0.50000000  0.00000000  1
  V  V0  1  0.02975800  0.00000000  0.00000000  1
  Rh  Rh0  1  0.52965700  0.50000000  0.50000000  1
  O  O0  1  0.02978300  0.33510600  0.24724200  1
  O  O1  1  0.52979700  0.17000500  0.79850700  1
  O  O2  1  0.52979700  0.82999500  0.20149300  1
  O  O3  1  0.02978300  0.66489400  0.75275800  1
loop_
_geom_bond_atom_site_label_1
_geom_bond_atom_site_label_2
_geom_bond_distance
_geom_bond_site_symmetry_2
Mg0 O2 1.972356 1_555
Mg0 O1 1.972356 1_554
Mg0 O0 2.108617 1_555
Mg0 O3 2.108617 1_554
Mg0 O0 2.108720 1_655
Mg0 O3 2.108720 1_654
O0 V0 2.124803 1_555
O0 Rh0 2.149040 1_555
O0 Rh0 2.149570 1_455
O1 V0 1.995225 1_656
O1 V0 1.995402 1_556
O1 Rh0 2.214695 1_555
O2 V0 1.995225 1_665
O2 V0 1.995402 1_565
O2 Rh0 2.214695 1_555
O3 V0 2.124803 1_566
O3 Rh0 2.149040 1_555
O3 Rh0 2.149570 1_455
