# generated using pymatgen
data_Na8Zn3Sn(PO4)6
_symmetry_space_group_name_H-M   'P 1'
_cell_length_a   9.09623425
_cell_length_b   9.09623394
_cell_length_c   21.83517728
_cell_angle_alpha   90.00000000
_cell_angle_beta   90.00000000
_cell_angle_gamma   120.00000116
_symmetry_Int_Tables_number   1
_chemical_formula_structural   Na8Zn3Sn(PO4)6
_chemical_formula_sum   'Na24 Zn9 Sn3 P18 O72'
_cell_volume   1564.62622806
_cell_formula_units_Z   3
loop_
 _symmetry_equiv_pos_site_id
 _symmetry_equiv_pos_as_xyz
  1  'x, y, z'
loop_
 _atom_site_type_symbol
 _atom_site_label
 _atom_site_symmetry_multiplicity
 _atom_site_fract_x
 _atom_site_fract_y
 _atom_site_fract_z
 _atom_site_occupancy
  Na  Na0  1  0.63221459  0.99908377  0.25216135  1
  Na  Na1  1  0.36686918  0.36778541  0.25216135  1
  Na  Na2  1  0.00091623  0.63313082  0.25216135  1
  Na  Na3  1  0.64520094  0.63221192  0.74099800  1
  Na  Na4  1  0.98701099  0.35479906  0.74099800  1
  Na  Na5  1  0.36778808  0.01298901  0.74099800  1
  Na  Na6  1  0.29300070  0.33377707  0.58087066  1
  Na  Na7  1  0.04077737  0.70699930  0.58087066  1
  Na  Na8  1  0.66622293  0.95922263  0.58087066  1
  Na  Na9  1  0.29319255  0.96210576  0.09312705  1
  Na  Na10  1  0.66891421  0.70680745  0.09312705  1
  Na  Na11  1  0.03789424  0.33108579  0.09312705  1
  Na  Na12  1  0.97309835  0.68181775  0.91577884  1
  Na  Na13  1  0.70871840  0.02690165  0.91577884  1
  Na  Na14  1  0.31818225  0.29128160  0.91577884  1
  Na  Na15  1  0.97893237  0.29764057  0.40681402  1
  Na  Na16  1  0.31870720  0.02106763  0.40681402  1
  Na  Na17  1  0.70235943  0.68129280  0.40681402  1
  Na  Na18  1  -0.00000000  0.00000000  0.49630791  1
  Na  Na19  1  -0.00000000  0.00000000  0.00662574  1
  Na  Na20  1  0.66666700  0.33333300  0.82596753  1
  Na  Na21  1  0.66666700  0.33333300  0.32546138  1
  Na  Na22  1  0.33333300  0.66666700  0.17237931  1
  Na  Na23  1  0.33333300  0.66666700  0.65704644  1
  Zn  Zn0  1  -0.00000000  0.00000000  0.34198116  1
  Zn  Zn1  1  -0.00000000  0.00000000  0.84367020  1
  Zn  Zn2  1  -0.00000000  0.00000000  0.65255872  1
  Zn  Zn3  1  -0.00000000  0.00000000  0.15939731  1
  Zn  Zn4  1  0.66666700  0.33333300  0.67838182  1
  Zn  Zn5  1  0.66666700  0.33333300  0.18215658  1
  Zn  Zn6  1  0.33333300  0.66666700  0.01867257  1
  Zn  Zn7  1  0.33333300  0.66666700  0.50978708  1
  Zn  Zn8  1  0.33333300  0.66666700  0.31972689  1
  Sn  Sn0  1  0.66666700  0.33333300  0.98510886  1
  Sn  Sn1  1  0.66666700  0.33333300  0.48402813  1
  Sn  Sn2  1  0.33333300  0.66666700  0.81794608  1
  P  P0  1  0.29983432  0.99909150  0.24992692  1
  P  P1  1  0.69925718  0.70016568  0.24992692  1
  P  P2  1  0.00090850  0.30074282  0.24992692  1
  P  P3  1  0.29724478  0.30082345  0.75212475  1
  P  P4  1  0.00357868  0.70275522  0.75212475  1
  P  P5  1  0.69917655  0.99642132  0.75212475  1
  P  P6  1  0.96479807  0.33263400  0.58564339  1
  P  P7  1  0.36783693  0.03520193  0.58564339  1
  P  P8  1  0.66736600  0.63216307  0.58564339  1
  P  P9  1  0.96527084  0.63146202  0.08310721  1
  P  P10  1  0.66619219  0.03472916  0.08310721  1
  P  P11  1  0.36853798  0.33380781  0.08310721  1
  P  P12  1  0.63002128  0.66384830  0.91866801  1
  P  P13  1  0.03382603  0.36997872  0.91866801  1
  P  P14  1  0.33615170  0.96617397  0.91866801  1
  P  P15  1  0.63169968  0.96748878  0.41880938  1
  P  P16  1  0.33578811  0.36830032  0.41880938  1
  P  P17  1  0.03251122  0.66421189  0.41880938  1
  O  O0  1  0.21505139  0.02386225  0.30754588  1
  O  O1  1  0.80881086  0.78494861  0.30754588  1
  O  O2  1  0.97613775  0.19118914  0.30754588  1
  O  O3  1  0.21721828  0.19844870  0.81121536  1
  O  O4  1  0.98123042  0.78278172  0.81121536  1
  O  O5  1  0.80155130  0.01876958  0.81121536  1
  O  O6  1  0.77859364  0.96471851  0.69497014  1
  O  O7  1  0.18612487  0.22140636  0.69497014  1
  O  O8  1  0.03528149  0.81387513  0.69497014  1
  O  O9  1  0.78128127  0.80808116  0.19140397  1
  O  O10  1  0.02679988  0.21871873  0.19140397  1
  O  O11  1  0.19191884  0.97320012  0.19140397  1
  O  O12  1  0.88155163  0.35825479  0.64318022  1
  O  O13  1  0.47670416  0.11844837  0.64318022  1
  O  O14  1  0.64174521  0.52329584  0.64318022  1
  O  O15  1  0.87351885  0.51474125  0.13705351  1
  O  O16  1  0.64122341  0.12648115  0.13705351  1
  O  O17  1  0.48525875  0.35877659  0.13705351  1
  O  O18  1  0.44731077  0.30367369  0.02124903  1
  O  O19  1  0.85636393  0.55268923  0.02124903  1
  O  O20  1  0.69632631  0.14363607  0.02124903  1
  O  O21  1  0.45471866  0.15006112  0.52762670  1
  O  O22  1  0.69534346  0.54528134  0.52762670  1
  O  O23  1  0.84993888  0.30465654  0.52762670  1
  O  O24  1  0.54377241  0.68828304  0.97417605  1
  O  O25  1  0.14450963  0.45622759  0.97417605  1
  O  O26  1  0.31171696  0.85549037  0.97417605  1
  O  O27  1  0.55146244  0.86465238  0.47782498  1
  O  O28  1  0.31318894  0.44853756  0.47782498  1
  O  O29  1  0.13534762  0.68681106  0.47782498  1
  O  O30  1  0.11225476  0.63195332  0.36168468  1
  O  O31  1  0.51969756  0.88774524  0.36168468  1
  O  O32  1  0.36804668  0.48030244  0.36168468  1
  O  O33  1  0.11211218  0.48317435  0.85906462  1
  O  O34  1  0.37106117  0.88788782  0.85906462  1
  O  O35  1  0.51682565  0.62893883  0.85906462  1
  O  O36  1  0.00686246  0.81930292  0.41393764  1
  O  O37  1  0.81244046  0.99313754  0.41393764  1
  O  O38  1  0.18069708  0.18755954  0.41393764  1
  O  O39  1  0.01008055  0.19105196  0.91202513  1
  O  O40  1  0.18097142  0.98991945  0.91202513  1
  O  O41  1  0.80894804  0.81902858  0.91202513  1
  O  O42  1  0.97878713  0.16954532  0.58735624  1
  O  O43  1  0.19075819  0.02121287  0.58735624  1
  O  O44  1  0.83045468  0.80924181  0.58735624  1
  O  O45  1  0.98114603  0.80847130  0.08517570  1
  O  O46  1  0.82732527  0.01885397  0.08517570  1
  O  O47  1  0.19152870  0.17267473  0.08517570  1
  O  O48  1  0.67346309  0.15196969  0.74769249  1
  O  O49  1  0.47850760  0.32653691  0.74769249  1
  O  O50  1  0.84803031  0.52149240  0.74769249  1
  O  O51  1  0.68129587  0.52096044  0.24655976  1
  O  O52  1  0.83966558  0.31870413  0.24655976  1
  O  O53  1  0.47903956  0.16033442  0.24655976  1
  O  O54  1  0.64366380  0.49668513  0.91988104  1
  O  O55  1  0.85302233  0.35633620  0.91988104  1
  O  O56  1  0.50331487  0.14697767  0.91988104  1
  O  O57  1  0.64798927  0.15063634  0.42206947  1
  O  O58  1  0.50264806  0.35201073  0.42206947  1
  O  O59  1  0.84936366  0.49735194  0.42206947  1
  O  O60  1  0.35337170  0.49528999  0.07844176  1
  O  O61  1  0.14191729  0.64662830  0.07844176  1
  O  O62  1  0.50471001  0.85808271  0.07844176  1
  O  O63  1  0.35112924  0.85819992  0.57976973  1
  O  O64  1  0.50706968  0.64887076  0.57976973  1
  O  O65  1  0.14180008  0.49293032  0.57976973  1
  O  O66  1  0.31782918  0.83785555  0.25408367  1
  O  O67  1  0.52002537  0.68217082  0.25408367  1
  O  O68  1  0.16214445  0.47997463  0.25408367  1
  O  O69  1  0.31329152  0.48389463  0.75558141  1
  O  O70  1  0.17060211  0.68670848  0.75558141  1
  O  O71  1  0.51610537  0.82939789  0.75558141  1
loop_
_geom_bond_atom_site_label_1
_geom_bond_atom_site_label_2
_geom_bond_distance
_geom_bond_site_symmetry_2
Na0 O66 2.477221 1_555
Na0 O53 2.480200 1_565
Na0 O67 2.532077 1_555
Na0 O52 2.557778 1_565
Na0 O31 2.599181 1_555
Na0 O16 2.751697 1_565
Na0 O2 2.972583 1_565
Na0 O9 2.995494 1_555
Na1 O67 2.477221 1_555
Na1 O51 2.480208 1_555
Na1 O68 2.532086 1_555
Na1 O53 2.557785 1_555
Na1 O32 2.599183 1_555
Na1 O17 2.751700 1_555
Na1 O0 2.972582 1_555
Na1 O10 2.995494 1_555
Na2 O68 2.477213 1_555
Na2 O52 2.480208 1_455
Na2 O66 2.532079 1_555
Na2 O51 2.557777 1_455
Na2 O30 2.599180 1_555
Na2 O15 2.751698 1_455
Na2 O1 2.972583 1_455
Na2 O11 2.995494 1_555
Na3 O14 2.348046 1_555
Na3 O49 2.415699 1_555
Na3 O50 2.509538 1_555
Na3 O71 2.608404 1_555
Na3 O69 2.638840 1_555
Na3 O6 2.821416 1_555
Na3 O35 2.824151 1_555
Na3 O4 3.063172 1_555
Na4 O12 2.348042 1_555
Na4 O50 2.415692 1_555
Na4 O48 2.509531 1_555
Na4 O69 2.608396 1_655
Na4 O70 2.638840 1_655
Na4 O7 2.821416 1_655
Na4 O33 2.824149 1_655
Na4 O5 3.063172 1_555
Na5 O13 2.348044 1_555
Na5 O48 2.415700 1_555
Na5 O49 2.509530 1_555
Na5 O70 2.608397 1_545
Na5 O71 2.638832 1_545
Na5 O8 2.821416 1_545
Na5 O34 2.824147 1_545
Na5 O3 3.063172 1_555
Na6 O65 2.445220 1_555
Na6 O28 2.448330 1_555
Na6 O42 2.480134 1_455
Na6 O43 2.514824 1_555
Na6 O64 2.534975 1_555
Na6 O7 2.683875 1_555
Na6 O21 2.960819 1_555
Na6 O14 3.068792 1_555
Na7 O63 2.445204 1_555
Na7 O29 2.448323 1_555
Na7 O43 2.480134 1_565
Na7 O44 2.514833 1_455
Na7 O65 2.534961 1_555
Na7 O8 2.683877 1_555
Na7 O22 2.960819 1_455
Na7 O12 3.068792 1_455
Na8 O64 2.445204 1_555
Na8 O27 2.448328 1_555
Na8 O44 2.480126 1_555
Na8 O42 2.514826 1_565
Na8 O63 2.534978 1_555
Na8 O6 2.683874 1_555
Na8 O23 2.960819 1_565
Na8 O13 3.068792 1_565
Na9 O11 2.357252 1_555
Na9 O45 2.464388 1_455
Na9 O61 2.506486 1_555
Na9 O47 2.515012 1_565
Na9 O62 2.553528 1_555
Na9 O26 2.806843 1_554
Na9 O16 2.905894 1_565
Na9 O18 3.118688 1_565
Na10 O9 2.357250 1_555
Na10 O46 2.464388 1_565
Na10 O62 2.506502 1_555
Na10 O45 2.515004 1_555
Na10 O60 2.553542 1_555
Na10 O24 2.806850 1_554
Na10 O17 2.905894 1_555
Na10 O19 3.118688 1_555
Na11 O10 2.357248 1_555
Na11 O47 2.464380 1_555
Na11 O60 2.506487 1_555
Na11 O46 2.515005 1_455
Na11 O61 2.553545 1_555
Na11 O25 2.806847 1_554
Na11 O15 2.905894 1_455
Na11 O20 3.118688 1_455
Na12 O41 2.378566 1_555
Na12 O4 2.448226 1_555
Na12 O40 2.477334 1_655
Na12 O19 2.561945 1_556
Na12 O55 2.594754 1_555
Na12 O54 2.603321 1_555
Na12 O33 2.946568 1_655
Na12 O26 2.956857 1_655
Na13 O39 2.378573 1_655
Na13 O5 2.448229 1_555
Na13 O41 2.477341 1_545
Na13 O20 2.561940 1_556
Na13 O56 2.594738 1_555
Na13 O55 2.603319 1_555
Na13 O34 2.946568 1_545
Na13 O24 2.956857 1_545
Na14 O40 2.378574 1_545
Na14 O3 2.448227 1_555
Na14 O39 2.477332 1_555
Na14 O18 2.561948 1_556
Na14 O54 2.594752 1_555
Na14 O56 2.603336 1_555
Na14 O35 2.946568 1_555
Na14 O25 2.956857 1_555
Na15 O2 2.368938 1_555
Na15 O37 2.407269 1_545
Na15 O38 2.496576 1_655
Na15 O57 2.633585 1_555
Na15 O59 2.634613 1_555
Na15 O30 2.828683 1_655
Na15 O23 2.900790 1_555
Na15 O28 3.059303 1_655
Na16 O0 2.368935 1_555
Na16 O38 2.407262 1_555
Na16 O36 2.496569 1_545
Na16 O58 2.633586 1_555
Na16 O57 2.634630 1_555
Na16 O31 2.828683 1_545
Na16 O21 2.900794 1_555
Na16 O29 3.059303 1_545
Na17 O1 2.368937 1_555
Na17 O36 2.407270 1_655
Na17 O37 2.496567 1_555
Na17 O59 2.633601 1_555
Na17 O58 2.634628 1_555
Na17 O32 2.828683 1_555
Na17 O22 2.900798 1_555
Na17 O27 3.059303 1_555
Na18 O38 2.458247 1_555
Na18 O36 2.458247 1_545
Na18 O37 2.458247 1_445
Na18 O44 2.581790 1_445
Na18 O42 2.581790 1_455
Na18 O43 2.581790 1_555
Na19 O45 2.389058 1_445
Na19 O47 2.389058 1_555
Na19 O46 2.389058 1_455
Na19 O39 2.671326 1_554
Na19 O41 2.671326 1_444
Na19 O40 2.671326 1_544
Na20 O50 2.397620 1_555
Na20 O48 2.397620 1_555
Na20 O49 2.397620 1_555
Na20 O56 2.601460 1_555
Na20 O54 2.601460 1_555
Na20 O55 2.601460 1_555
Na21 O51 2.381508 1_555
Na21 O53 2.381508 1_555
Na21 O52 2.381508 1_555
Na21 O57 2.637816 1_555
Na21 O59 2.637816 1_555
Na21 O58 2.637816 1_555
Na22 O68 2.418064 1_555
Na22 O66 2.418064 1_555
Na22 O67 2.418064 1_555
Na22 O62 2.637174 1_555
Na22 O60 2.637174 1_555
Na22 O61 2.637174 1_555
Na23 O63 2.372064 1_555
Na23 O65 2.372064 1_555
Na23 O64 2.372064 1_555
Na23 O69 2.668944 1_555
Na23 O71 2.668944 1_555
Na23 O70 2.668945 1_555
O0 P0 1.549891 1_545
O0 Zn0 2.003603 1_555
O1 P1 1.549891 1_555
O1 Zn0 2.003603 1_665
O2 P2 1.549891 1_655
O2 Zn0 2.003603 1_655
O3 P3 1.544006 1_555
O3 Zn1 2.024365 1_555
O4 P4 1.544006 1_655
O4 Zn1 2.024365 1_665
O5 P5 1.544006 1_545
O5 Zn1 2.024365 1_655
O6 P5 1.539739 1_555
O6 Zn2 2.090525 1_665
O7 P3 1.539739 1_555
O7 Zn2 2.090525 1_555
O8 P4 1.539739 1_555
O8 Zn2 2.090525 1_565
O9 P1 1.555889 1_555
O9 Zn3 2.005249 1_665
O10 P2 1.555889 1_555
O10 Zn3 2.005249 1_555
O11 P0 1.555889 1_555
O11 Zn3 2.005249 1_565
O12 P6 1.543548 1_555
O12 Zn4 2.004920 1_555
O13 P7 1.543548 1_555
O13 Zn4 2.004919 1_555
O14 P8 1.543548 1_555
O14 Zn4 2.004919 1_555
O15 P9 1.524862 1_555
O15 Zn5 2.031823 1_555
O16 P10 1.524862 1_555
O16 Zn5 2.031823 1_555
O17 P11 1.524862 1_555
O17 Zn5 2.031823 1_555
O18 P11 1.615337 1_555
O18 Sn0 2.034325 1_554
O19 P9 1.615337 1_555
O19 Sn0 2.034325 1_554
O20 P10 1.615337 1_555
O20 Sn0 2.034325 1_554
O21 P7 1.579636 1_555
O21 Sn1 2.046542 1_555
O22 P8 1.579636 1_555
O22 Sn1 2.046542 1_555
O23 P6 1.579636 1_555
O23 Sn1 2.046543 1_555
O24 P12 1.519306 1_555
O24 Zn6 2.066507 1_556
O25 P13 1.519306 1_555
O25 Zn6 2.066507 1_556
O26 P14 1.519306 1_555
O26 Zn6 2.066507 1_556
O27 P15 1.544511 1_555
O27 Zn7 2.023350 1_555
O28 P16 1.544511 1_555
O28 Zn7 2.023350 1_555
O29 P17 1.544511 1_555
O29 Zn7 2.023350 1_555
O30 P17 1.543026 1_555
O30 Zn8 2.085208 1_555
O31 P15 1.543026 1_555
O31 Zn8 2.085208 1_555
O32 P16 1.543026 1_555
O32 Zn8 2.085208 1_555
O33 P13 1.589916 1_555
O33 Sn2 2.069432 1_555
O34 P14 1.589916 1_555
O34 Sn2 2.069432 1_555
O35 P12 1.589916 1_555
O35 Sn2 2.069432 1_555
O36 P17 1.544372 1_555
O36 Zn0 2.297116 1_565
O37 P15 1.544381 1_555
O37 Zn0 2.297116 1_665
O38 P16 1.544377 1_555
O38 Zn0 2.297116 1_555
O39 P13 1.537888 1_555
O39 Zn1 2.257625 1_555
O40 P14 1.537879 1_555
O40 Zn1 2.257625 1_565
O41 P12 1.537884 1_555
O41 Zn1 2.257625 1_665
O42 P6 1.551487 1_555
O42 Zn2 2.177203 1_655
O43 P7 1.551496 1_555
O43 Zn2 2.177203 1_555
O44 P8 1.551492 1_555
O44 Zn2 2.177203 1_665
O45 P9 1.543653 1_555
O45 Zn3 2.322140 1_665
O46 P10 1.543644 1_555
O46 Zn3 2.322140 1_655
O47 P11 1.543649 1_555
O47 Zn3 2.322140 1_555
O48 P5 1.548214 1_545
O48 Zn4 2.262256 1_555
O49 P3 1.548223 1_555
O49 Zn4 2.262256 1_555
O50 P4 1.548220 1_655
O50 Zn4 2.262256 1_555
O51 P1 1.556591 1_555
O51 Zn5 2.163559 1_555
O52 P2 1.556582 1_655
O52 Zn5 2.163559 1_555
O53 P0 1.556587 1_545
O53 Zn5 2.163559 1_555
O54 P12 1.586469 1_555
O54 Sn0 2.142680 1_555
O55 P13 1.586451 1_655
O55 Sn0 2.142681 1_555
O56 P14 1.586459 1_545
O56 Sn0 2.142680 1_555
O57 P15 1.598616 1_545
O57 Sn1 2.082919 1_555
O58 P16 1.598633 1_555
O58 Sn1 2.082919 1_555
O59 P17 1.598623 1_655
O59 Sn1 2.082919 1_555
O60 P11 1.545852 1_555
O60 Zn6 2.109670 1_555
O61 P9 1.545834 1_455
O61 Zn6 2.109670 1_555
O62 P10 1.545842 1_565
O62 Zn6 2.109670 1_555
O63 P7 1.545031 1_565
O63 Zn7 2.261542 1_555
O64 P8 1.545049 1_555
O64 Zn7 2.261542 1_555
O65 P6 1.545039 1_455
O65 Zn7 2.261542 1_555
O66 P0 1.557604 1_555
O66 Zn8 2.172259 1_555
O67 P1 1.557613 1_555
O67 Zn8 2.172260 1_555
O68 P2 1.557610 1_555
O68 Zn8 2.172259 1_555
O69 P3 1.599068 1_555
O69 Sn2 2.085314 1_555
O70 P4 1.599059 1_555
O70 Sn2 2.085314 1_555
O71 P5 1.599064 1_555
O71 Sn2 2.085314 1_555
