# generated using pymatgen
data_Na7Nb2Al2Si5PO24
_symmetry_space_group_name_H-M   'P 1'
_cell_length_a   8.94050725
_cell_length_b   8.94494504
_cell_length_c   22.17469460
_cell_angle_alpha   89.79195914
_cell_angle_beta   90.00946129
_cell_angle_gamma   119.93065237
_symmetry_Int_Tables_number   1
_chemical_formula_structural   Na7Nb2Al2Si5PO24
_chemical_formula_sum   'Na21 Nb6 Al6 Si15 P3 O72'
_cell_volume   1536.83600351
_cell_formula_units_Z   3
loop_
 _symmetry_equiv_pos_site_id
 _symmetry_equiv_pos_as_xyz
  1  'x, y, z'
loop_
 _atom_site_type_symbol
 _atom_site_label
 _atom_site_symmetry_multiplicity
 _atom_site_fract_x
 _atom_site_fract_y
 _atom_site_fract_z
 _atom_site_occupancy
  Na  Na0  1  0.63878082  0.00704766  0.24934736  1
  Na  Na1  1  0.37009515  0.36351701  0.24763022  1
  Na  Na2  1  0.99212326  0.62835287  0.24819206  1
  Na  Na3  1  0.63588400  0.62863294  0.74809544  1
  Na  Na4  1  0.99210943  0.36219020  0.74853510  1
  Na  Na5  1  0.37186091  0.00883164  0.74814747  1
  Na  Na6  1  0.30392193  0.33929037  0.58198196  1
  Na  Na7  1  0.03734567  0.69777750  0.58139009  1
  Na  Na8  1  0.65995559  0.96235339  0.58168458  1
  Na  Na9  1  0.30065378  0.96419084  0.08065509  1
  Na  Na10  1  0.03971367  0.34243911  0.08231102  1
  Na  Na11  1  0.97151511  0.67429666  0.91540849  1
  Na  Na12  1  0.32510960  0.29440365  0.91547369  1
  Na  Na13  1  0.32589607  0.02935361  0.41543545  1
  Na  Na14  1  0.70472022  0.67356375  0.41546920  1
  Na  Na15  1  0.99786979  0.00436653  0.49498774  1
  Na  Na16  1  0.99008878  0.99666597  0.99579233  1
  Na  Na17  1  0.66724305  0.32584825  0.82993275  1
  Na  Na18  1  0.67372747  0.33257139  0.33032080  1
  Na  Na19  1  0.33876085  0.66389704  0.16155097  1
  Na  Na20  1  0.33438163  0.66688228  0.66262114  1
  Nb  Nb0  1  0.99929642  0.99941009  0.64704070  1
  Nb  Nb1  1  0.00000278  0.99688879  0.14650948  1
  Nb  Nb2  1  0.66630734  0.33100768  0.97996853  1
  Nb  Nb3  1  0.67410054  0.33204433  0.47993732  1
  Nb  Nb4  1  0.32975701  0.66868664  0.31340050  1
  Nb  Nb5  1  0.33078841  0.66959058  0.81373476  1
  Al  Al0  1  0.99334830  0.99782184  0.35159376  1
  Al  Al1  1  0.00225946  0.00614116  0.85177191  1
  Al  Al2  1  0.66624357  0.33304927  0.68586739  1
  Al  Al3  1  0.66807754  0.34077157  0.18674162  1
  Al  Al4  1  0.32705978  0.65866117  0.01862182  1
  Al  Al5  1  0.33563041  0.67251996  0.51968122  1
  Si  Si0  1  0.29318691  0.00876708  0.25283204  1
  Si  Si1  1  0.71354501  0.70659074  0.25259139  1
  Si  Si2  1  0.99216231  0.28350426  0.25183353  1
  Si  Si3  1  0.29448015  0.28695087  0.75231572  1
  Si  Si4  1  0.99162728  0.70731532  0.75321851  1
  Si  Si5  1  0.71519352  0.00728923  0.75288757  1
  Si  Si6  1  0.96222939  0.34124055  0.58638454  1
  Si  Si7  1  0.38149273  0.04184737  0.58525090  1
  Si  Si8  1  0.65902940  0.61827354  0.58500633  1
  Si  Si9  1  0.95748932  0.62025232  0.08539422  1
  Si  Si10  1  0.38454680  0.34789694  0.08570381  1
  Si  Si11  1  0.04275577  0.36722588  0.91892873  1
  Si  Si12  1  0.32828462  0.95329980  0.92004815  1
  Si  Si13  1  0.63071604  0.95552417  0.41889936  1
  Si  Si14  1  0.04584189  0.67264738  0.41949797  1
  P  P0  1  0.65934253  0.03814206  0.08518656  1
  P  P1  1  0.62343385  0.67597190  0.91938226  1
  P  P2  1  0.32438123  0.37381021  0.41885115  1
  O  O0  1  0.20021973  0.03641956  0.31035350  1
  O  O1  1  0.83490140  0.79632267  0.31022379  1
  O  O2  1  0.96354151  0.15728179  0.30740446  1
  O  O3  1  0.20256859  0.16452208  0.80972197  1
  O  O4  1  0.96527400  0.80125057  0.81064340  1
  O  O5  1  0.84260012  0.03561322  0.80767618  1
  O  O6  1  0.79568646  0.96376757  0.69123208  1
  O  O7  1  0.16707526  0.20390945  0.69195469  1
  O  O8  1  0.03635084  0.83282279  0.69230891  1
  O  O9  1  0.80086926  0.83822650  0.19361952  1
  O  O10  1  0.03561362  0.20372040  0.19038921  1
  O  O11  1  0.16651719  0.96381037  0.19232279  1
  O  O12  1  0.86898063  0.37071792  0.64368569  1
  O  O13  1  0.50274236  0.13401155  0.64302179  1
  O  O14  1  0.63131504  0.49794515  0.64321926  1
  O  O15  1  0.86559297  0.49573002  0.14282858  1
  O  O16  1  0.63287439  0.12494850  0.14088458  1
  O  O17  1  0.49756454  0.35950220  0.14401183  1
  O  O18  1  0.46630940  0.30023029  0.02552870  1
  O  O19  1  0.83586388  0.53066314  0.02466173  1
  O  O20  1  0.69733539  0.16254398  0.02902206  1
  O  O21  1  0.46390000  0.16744809  0.52475851  1
  O  O22  1  0.70117849  0.53474093  0.52482689  1
  O  O23  1  0.83065199  0.29753289  0.52717910  1
  O  O24  1  0.53008912  0.69420252  0.97277428  1
  O  O25  1  0.16584074  0.46373296  0.97582566  1
  O  O26  1  0.30189136  0.82982023  0.97679356  1
  O  O27  1  0.53382170  0.83207414  0.47630087  1
  O  O28  1  0.30585720  0.46432300  0.47448377  1
  O  O29  1  0.16915824  0.69950089  0.47642938  1
  O  O30  1  0.13178381  0.63577293  0.35835306  1
  O  O31  1  0.50116320  0.86587145  0.35884010  1
  O  O32  1  0.36262868  0.49201979  0.36135342  1
  O  O33  1  0.13253765  0.49812285  0.85888151  1
  O  O34  1  0.36467486  0.86757343  0.85854443  1
  O  O35  1  0.50877669  0.63534785  0.86075210  1
  O  O36  1  0.02750089  0.84354032  0.41031913  1
  O  O37  1  0.81702305  0.97158776  0.40930387  1
  O  O38  1  0.17095356  0.19269223  0.41095458  1
  O  O39  1  0.02775975  0.18150464  0.90914563  1
  O  O40  1  0.15745167  0.97222682  0.91058898  1
  O  O41  1  0.80698160  0.82802104  0.91095092  1
  O  O42  1  0.97518055  0.16338467  0.58856997  1
  O  O43  1  0.18816774  0.02526435  0.58886041  1
  O  O44  1  0.83627505  0.81121898  0.58873230  1
  O  O45  1  0.97918999  0.81559501  0.08857596  1
  O  O46  1  0.83088307  0.03168613  0.08834181  1
  O  O47  1  0.18875331  0.16689790  0.08906438  1
  O  O48  1  0.69017825  0.17332755  0.74312996  1
  O  O49  1  0.48469989  0.30975416  0.74295845  1
  O  O50  1  0.82658223  0.51654418  0.74376804  1
  O  O51  1  0.69035884  0.51623890  0.24321461  1
  O  O52  1  0.82525711  0.30807790  0.24204947  1
  O  O53  1  0.48522710  0.17186672  0.24240129  1
  O  O54  1  0.63843398  0.50555275  0.92306260  1
  O  O55  1  0.85518915  0.36295301  0.92250774  1
  O  O56  1  0.50016055  0.14976856  0.92290376  1
  O  O57  1  0.63342548  0.14253665  0.42184126  1
  O  O58  1  0.49418909  0.36097073  0.42189333  1
  O  O59  1  0.84946731  0.50075065  0.42184162  1
  O  O60  1  0.35411893  0.50964372  0.07566160  1
  O  O61  1  0.15050818  0.64569399  0.07685467  1
  O  O62  1  0.50134812  0.86379924  0.07563495  1
  O  O63  1  0.35743973  0.85053977  0.57676120  1
  O  O64  1  0.49129305  0.64142102  0.57576914  1
  O  O65  1  0.15195656  0.50667381  0.57528424  1
  O  O66  1  0.30803412  0.82997429  0.25562664  1
  O  O67  1  0.52002180  0.68859790  0.25671304  1
  O  O68  1  0.17002509  0.47682190  0.25636565  1
  O  O69  1  0.31125399  0.48001486  0.75663138  1
  O  O70  1  0.17053660  0.69219761  0.75584579  1
  O  O71  1  0.52272418  0.82903428  0.75634858  1
loop_
_geom_bond_atom_site_label_1
_geom_bond_atom_site_label_2
_geom_bond_distance
_geom_bond_site_symmetry_2
Na0 O52 2.360813 1_555
Na0 O53 2.469820 1_555
Na0 O67 2.499326 1_545
Na0 O66 2.568449 1_545
Na0 O16 2.633773 1_555
Na0 O31 2.726131 1_545
Na0 O2 2.830441 1_555
Na0 O9 2.847002 1_545
Na1 O53 2.402954 1_555
Na1 O68 2.464729 1_555
Na1 O51 2.483981 1_555
Na1 O67 2.531283 1_555
Na1 O17 2.573292 1_555
Na1 O32 2.789754 1_555
Na1 O0 2.887669 1_555
Na1 O10 2.888490 1_555
Na2 O51 2.365896 1_555
Na2 O66 2.485139 1_655
Na2 O52 2.487832 1_555
Na2 O68 2.559163 1_655
Na2 O15 2.612639 1_555
Na2 O30 2.729134 1_655
Na2 O1 2.872028 1_555
Na2 O11 2.876573 1_655
Na3 O50 2.372314 1_555
Na3 O71 2.466290 1_555
Na3 O49 2.476058 1_555
Na3 O69 2.524849 1_555
Na3 O14 2.597822 1_555
Na3 O35 2.757862 1_555
Na3 O6 2.883906 1_555
Na3 O4 2.908087 1_555
Na4 O48 2.367658 1_555
Na4 O50 2.479001 1_555
Na4 O69 2.506934 1_655
Na4 O70 2.566915 1_655
Na4 O12 2.589393 1_555
Na4 O33 2.745768 1_655
Na4 O5 2.848909 1_555
Na4 O7 2.872159 1_655
Na5 O49 2.358896 1_555
Na5 O48 2.469183 1_555
Na5 O70 2.489992 1_545
Na5 O71 2.569310 1_545
Na5 O13 2.594542 1_555
Na5 O34 2.736797 1_545
Na5 O3 2.865753 1_555
Na5 O8 2.882686 1_545
Na6 O64 2.368242 1_555
Na6 O43 2.465870 1_555
Na6 O65 2.477491 1_555
Na6 O42 2.553254 1_455
Na6 O28 2.625776 1_555
Na6 O7 2.722358 1_555
Na6 O21 2.868321 1_555
Na6 O14 2.879769 1_555
Na7 O65 2.395838 1_555
Na7 O44 2.471726 1_455
Na7 O63 2.482822 1_555
Na7 O43 2.547256 1_565
Na7 O29 2.605508 1_555
Na7 O8 2.746119 1_555
Na7 O12 2.882647 1_455
Na7 O22 2.893302 1_455
Na8 O63 2.372474 1_555
Na8 O42 2.478742 1_565
Na8 O64 2.492991 1_555
Na8 O44 2.542053 1_555
Na8 O27 2.607318 1_555
Na8 O6 2.712491 1_555
Na8 O23 2.861323 1_565
Na8 O13 2.890110 1_565
Na9 O62 2.376349 1_555
Na9 O61 2.472023 1_555
Na9 O47 2.477115 1_565
Na9 O45 2.498816 1_455
Na9 O26 2.604308 1_554
Na9 O11 2.750747 1_555
Na9 O18 2.873045 1_565
Na9 O16 2.902451 1_565
Na10 O61 2.381247 1_555
Na10 O60 2.441981 1_555
Na10 O46 2.459432 1_455
Na10 O47 2.519847 1_555
Na10 O25 2.604949 1_554
Na10 O10 2.686586 1_555
Na10 O15 2.872022 1_455
Na10 O20 2.907390 1_455
Na11 O40 2.335395 1_655
Na11 O55 2.443138 1_555
Na11 O41 2.466146 1_555
Na11 O54 2.586105 1_555
Na11 O4 2.594932 1_555
Na11 O19 2.722916 1_556
Na11 O33 2.899290 1_655
Na11 O26 2.902522 1_655
Na12 O39 2.329971 1_555
Na12 O54 2.482974 1_555
Na12 O56 2.483789 1_555
Na12 O40 2.501036 1_545
Na12 O3 2.607277 1_555
Na12 O18 2.736118 1_556
Na12 O25 2.877561 1_555
Na12 O35 2.906213 1_555
Na13 O36 2.338596 1_545
Na13 O57 2.414102 1_555
Na13 O38 2.466195 1_555
Na13 O58 2.575370 1_555
Na13 O0 2.600976 1_555
Na13 O21 2.724850 1_555
Na13 O29 2.888642 1_545
Na13 O31 2.910234 1_545
Na14 O37 2.336611 1_555
Na14 O59 2.465523 1_555
Na14 O58 2.475220 1_555
Na14 O36 2.504612 1_655
Na14 O1 2.591116 1_555
Na14 O22 2.713373 1_555
Na14 O27 2.888060 1_555
Na14 O32 2.913418 1_555
Na15 O37 2.416654 1_545
Na15 O36 2.462680 1_645
Na15 O38 2.466071 1_655
Na15 O42 2.584605 1_555
Na15 O44 2.622500 1_545
Na15 O43 2.635699 1_655
Na16 O39 2.441346 1_665
Na16 O41 2.459728 1_555
Na16 O40 2.487319 1_655
Na16 O45 2.585400 1_556
Na16 O46 2.605086 1_566
Na16 O47 2.659686 1_666
Na17 O48 2.430360 1_555
Na17 O50 2.478319 1_555
Na17 O49 2.484023 1_555
Na17 O56 2.567480 1_555
Na17 O55 2.568080 1_555
Na17 O54 2.711533 1_555
Na18 O52 2.452532 1_555
Na18 O51 2.487044 1_555
Na18 O53 2.511820 1_555
Na18 O57 2.549887 1_555
Na18 O59 2.552027 1_555
Na18 O58 2.678828 1_555
Na19 O60 2.399643 1_555
Na19 O61 2.472705 1_555
Na19 O62 2.514435 1_555
Na19 O67 2.602479 1_555
Na19 O68 2.636821 1_555
Na19 O66 2.657834 1_555
Na20 O63 2.450648 1_555
Na20 O64 2.460076 1_555
Na20 O65 2.480150 1_555
Na20 O70 2.608818 1_555
Na20 O69 2.610063 1_555
Na20 O71 2.615792 1_555
Nb0 O6 1.948036 1_555
Nb0 O8 1.954346 1_655
Nb0 O7 1.965375 1_665
Nb0 O43 2.044056 1_665
Nb0 O42 2.044650 1_565
Nb0 O44 2.048561 1_555
Nb1 O9 1.934834 1_455
Nb1 O11 1.942363 1_555
Nb1 O10 1.973871 1_565
Nb1 O45 2.007160 1_455
Nb1 O47 2.051522 1_565
Nb1 O46 2.124352 1_465
Nb2 O19 1.944330 1_556
Nb2 O18 1.949628 1_556
Nb2 O20 1.983944 1_556
Nb2 O56 2.011747 1_555
Nb2 O55 2.018270 1_555
Nb2 O54 2.113272 1_555
Nb3 O23 1.892105 1_555
Nb3 O22 1.977835 1_555
Nb3 O21 1.978931 1_555
Nb3 O59 2.005140 1_555
Nb3 O57 2.016408 1_555
Nb3 O58 2.173265 1_555
Nb4 O30 1.921349 1_555
Nb4 O31 1.946747 1_555
Nb4 O66 2.006612 1_555
Nb4 O68 2.038082 1_555
Nb4 O32 2.040951 1_555
Nb4 O67 2.049928 1_555
Nb5 O34 1.921622 1_555
Nb5 O33 1.942393 1_555
Nb5 O70 2.007000 1_555
Nb5 O71 2.035522 1_555
Nb5 O35 2.048561 1_555
Nb5 O69 2.056556 1_555
Al0 O2 1.853313 1_565
Al0 O1 1.886958 1_555
Al0 O0 1.933215 1_665
Al0 O37 1.951203 1_555
Al0 O36 2.025051 1_655
Al0 O38 2.132224 1_665
Al1 O5 1.853745 1_455
Al1 O3 1.882248 1_555
Al1 O4 1.925437 1_445
Al1 O39 1.946450 1_555
Al1 O40 2.033422 1_545
Al1 O41 2.125662 1_445
Al2 O14 1.901809 1_555
Al2 O13 1.903677 1_555
Al2 O12 1.913812 1_555
Al2 O49 1.985399 1_555
Al2 O48 1.997784 1_555
Al2 O50 2.015985 1_555
Al3 O17 1.871666 1_555
Al3 O15 1.880435 1_555
Al3 O51 1.942556 1_555
Al3 O52 1.992827 1_555
Al3 O53 2.000224 1_555
Al3 O16 2.065871 1_555
Al4 O25 1.876697 1_554
Al4 O26 1.894289 1_554
Al4 O60 1.935087 1_555
Al4 O24 1.962639 1_554
Al4 O61 1.997328 1_555
Al4 O62 2.134563 1_555
Al5 O29 1.884033 1_555
Al5 O27 1.889174 1_555
Al5 O63 1.969892 1_555
Al5 O64 1.986035 1_555
Al5 O65 1.993487 1_555
Al5 O28 2.015520 1_555
O0 Si0 1.608349 1_555
O1 Si1 1.610165 1_555
O2 Si2 1.600132 1_555
O3 Si3 1.608474 1_555
O4 Si4 1.608865 1_555
O5 Si5 1.597346 1_555
O6 Si5 1.680006 1_565
O7 Si3 1.674265 1_555
O8 Si4 1.669046 1_455
O9 Si1 1.666677 1_555
O10 Si2 1.673486 1_455
O11 Si0 1.671396 1_565
O12 Si6 1.612831 1_555
O13 Si7 1.615942 1_555
O14 Si8 1.615571 1_555
O15 Si9 1.616952 1_555
O16 P0 1.541031 1_555
O17 Si10 1.612259 1_555
O18 Si10 1.676951 1_555
O19 Si9 1.666152 1_555
O20 P0 1.586700 1_555
O21 Si7 1.663664 1_555
O22 Si8 1.664174 1_555
O23 Si6 1.674685 1_555
O24 P1 1.504108 1_555
O25 Si11 1.614768 1_555
O26 Si12 1.609009 1_555
O27 Si13 1.620360 1_555
O28 P2 1.531639 1_555
O29 Si14 1.613829 1_555
O30 Si14 1.671544 1_555
O31 Si13 1.684846 1_555
O32 P2 1.578015 1_555
O33 Si11 1.685043 1_555
O34 Si12 1.676479 1_555
O35 P1 1.582533 1_555
O36 Si14 1.628768 1_555
O37 Si13 1.612906 1_555
O38 P2 1.523582 1_555
O39 Si11 1.614059 1_555
O40 Si12 1.631895 1_555
O41 P1 1.532549 1_555
O42 Si6 1.652276 1_555
O43 Si7 1.661316 1_555
O44 Si8 1.663866 1_555
O45 Si9 1.660835 1_555
O46 P0 1.564818 1_555
O47 Si10 1.691757 1_555
O48 Si5 1.622277 1_555
O49 Si3 1.621898 1_555
O50 Si4 1.619561 1_555
O51 Si1 1.623479 1_555
O52 Si2 1.627563 1_555
O53 Si0 1.621072 1_555
O54 P1 1.597344 1_555
O55 Si11 1.660106 1_655
O56 Si12 1.661235 1_545
O57 Si13 1.662381 1_545
O58 P2 1.580025 1_555
O59 Si14 1.659798 1_655
O60 Si10 1.614707 1_555
O61 Si9 1.635096 1_455
O62 P0 1.508716 1_565
O63 Si7 1.626382 1_565
O64 Si8 1.625797 1_555
O65 Si6 1.618737 1_455
O66 Si0 1.670425 1_565
O67 Si1 1.658281 1_555
O68 Si2 1.669184 1_455
O69 Si3 1.660346 1_555
O70 Si4 1.672115 1_455
O71 Si5 1.664479 1_565
