# generated using pymatgen
data_MgZn2(FeO2)4
_symmetry_space_group_name_H-M   'P 1'
_cell_length_a   6.19452800
_cell_length_b   5.92634679
_cell_length_c   6.06777112
_cell_angle_alpha   59.20740124
_cell_angle_beta   60.67461883
_cell_angle_gamma   66.70910680
_symmetry_Int_Tables_number   1
_chemical_formula_structural   MgZn2(FeO2)4
_chemical_formula_sum   'Mg1 Zn2 Fe4 O8'
_cell_volume   163.68775915
_cell_formula_units_Z   1
loop_
 _symmetry_equiv_pos_site_id
 _symmetry_equiv_pos_as_xyz
  1  'x, y, z'
loop_
 _atom_site_type_symbol
 _atom_site_label
 _atom_site_symmetry_multiplicity
 _atom_site_fract_x
 _atom_site_fract_y
 _atom_site_fract_z
 _atom_site_occupancy
  Mg  Mg0  1  0.62500000  0.12500000  0.12500000  1
  Zn  Zn0  1  0.12500000  0.62500000  0.62500000  1
  Zn  Zn1  1  0.62500000  0.12500000  0.62500000  1
  Fe  Fe0  1  0.09186800  0.98026692  0.96393304  1
  Fe  Fe1  1  0.15813200  0.26973308  0.28606696  1
  Fe  Fe2  1  0.62500000  0.62500000  0.12500000  1
  Fe  Fe3  1  0.62500000  0.62500000  0.62500000  1
  O  O0  1  0.39859956  0.35877395  0.36731028  1
  O  O1  1  0.39859956  0.35877395  0.87531620  1
  O  O2  1  0.37516372  0.86994186  0.37744671  1
  O  O3  1  0.80588441  0.43994799  0.37708330  1
  O  O4  1  0.44411559  0.81005201  0.87291670  1
  O  O5  1  0.87483628  0.38005814  0.87255329  1
  O  O6  1  0.85140044  0.89122605  0.37468380  1
  O  O7  1  0.85140044  0.89122605  0.88268972  1
loop_
_geom_bond_atom_site_label_1
_geom_bond_atom_site_label_2
_geom_bond_distance
_geom_bond_site_symmetry_2
Mg0 O2 2.045358 1_545
Mg0 O5 2.045358 1_554
Mg0 O7 2.139453 1_544
Mg0 O0 2.139453 1_555
Mg0 O6 2.139453 1_545
Mg0 O1 2.139453 1_554
Fe0 O4 1.932125 1_555
Fe0 O6 2.085073 1_456
Fe0 O7 2.085078 1_455
Fe0 O5 2.143513 1_465
Fe1 O3 1.932125 1_455
Fe1 O1 2.085073 1_554
Fe1 O0 2.085078 1_555
Fe1 O2 2.143513 1_545
Fe2 O4 1.946127 1_554
Fe2 O3 1.946127 1_555
Fe2 O0 1.993184 1_555
Fe2 O7 1.993184 1_554
Fe2 O5 2.242012 1_554
Fe2 O2 2.242012 1_555
Fe3 O3 1.946132 1_555
Fe3 O4 1.946132 1_555
Fe3 O1 1.993184 1_555
Fe3 O6 1.993184 1_555
Fe3 O2 2.242016 1_555
Fe3 O5 2.242016 1_555
O0 Zn1 2.173624 1_555
O0 Zn0 2.371076 1_555
O1 Zn1 2.173624 1_555
O1 Zn0 2.371076 1_555
O2 Zn0 2.007780 1_555
O3 Zn1 2.032301 1_555
O4 Zn1 2.032301 1_565
O5 Zn0 2.007780 1_655
O6 Zn1 2.173624 1_565
O6 Zn0 2.371076 1_655
O7 Zn1 2.173624 1_565
O7 Zn0 2.371076 1_655
