# generated using pymatgen
data_Na6Ta6In2Si9(SO16)3
_symmetry_space_group_name_H-M   'P 1'
_cell_length_a   17.88662310
_cell_length_b   8.96669165
_cell_length_c   23.00169820
_cell_angle_alpha   90.09639553
_cell_angle_beta   89.93845681
_cell_angle_gamma   120.03171489
_symmetry_Int_Tables_number   1
_chemical_formula_structural   Na6Ta6In2Si9(SO16)3
_chemical_formula_sum   'Na18 Ta18 In6 Si27 S9 O144'
_cell_volume   3193.82865254
_cell_formula_units_Z   3
loop_
 _symmetry_equiv_pos_site_id
 _symmetry_equiv_pos_as_xyz
  1  'x, y, z'
loop_
 _atom_site_type_symbol
 _atom_site_label
 _atom_site_symmetry_multiplicity
 _atom_site_fract_x
 _atom_site_fract_y
 _atom_site_fract_z
 _atom_site_occupancy
  Na  Na0  1  0.32116900  0.01312712  0.25193314  1
  Na  Na1  1  0.68517901  0.37066860  0.24694141  1
  Na  Na2  1  0.49226114  0.62132140  0.25004120  1
  Na  Na3  1  0.82069144  0.62949909  0.75060581  1
  Na  Na4  1  0.99243286  0.36252734  0.74832889  1
  Na  Na5  1  0.18642995  0.00373226  0.74454508  1
  Na  Na6  1  0.00262440  0.00738070  0.49939959  1
  Na  Na7  1  0.50424826  0.99919284  0.49727750  1
  Na  Na8  1  0.00442714  0.01227812  0.99517709  1
  Na  Na9  1  0.50275734  0.99802214  0.99820994  1
  Na  Na10  1  0.33821763  0.33216555  0.83263423  1
  Na  Na11  1  0.83107925  0.32428303  0.82725471  1
  Na  Na12  1  0.33072978  0.34015010  0.33174936  1
  Na  Na13  1  0.83760647  0.34313331  0.33626646  1
  Na  Na14  1  0.16715413  0.65805293  0.16686930  1
  Na  Na15  1  0.67062815  0.66884093  0.16451389  1
  Na  Na16  1  0.17204712  0.67275219  0.66290242  1
  Na  Na17  1  0.66104424  0.66849532  0.66245892  1
  Ta  Ta0  1  0.00186096  0.98692521  0.35885659  1
  Ta  Ta1  1  0.50195720  0.01676235  0.85691096  1
  Ta  Ta2  1  0.99753689  0.99176021  0.64350393  1
  Ta  Ta3  1  0.49875740  0.01439025  0.63962430  1
  Ta  Ta4  1  0.99985085  0.99708226  0.14487001  1
  Ta  Ta5  1  0.49773816  0.00262458  0.14426525  1
  Ta  Ta6  1  0.33071506  0.34528764  0.97579039  1
  Ta  Ta7  1  0.82773213  0.30994320  0.97783993  1
  Ta  Ta8  1  0.33400286  0.34581948  0.48230082  1
  Ta  Ta9  1  0.83012430  0.31436044  0.47619978  1
  Ta  Ta10  1  0.16766955  0.65711874  0.01427049  1
  Ta  Ta11  1  0.66012891  0.66423809  0.02365853  1
  Ta  Ta12  1  0.16024482  0.65420313  0.52395858  1
  Ta  Ta13  1  0.66146467  0.66958770  0.51683197  1
  Ta  Ta14  1  0.16501843  0.66155160  0.31402646  1
  Ta  Ta15  1  0.66939069  0.65850720  0.31754473  1
  Ta  Ta16  1  0.16936130  0.68041349  0.81581878  1
  Ta  Ta17  1  0.66175441  0.66673037  0.81074473  1
  In  In0  1  0.49936110  0.00024536  0.35644170  1
  In  In1  1  0.99963748  0.99919283  0.85565064  1
  In  In2  1  0.33736697  0.32954814  0.67838587  1
  In  In3  1  0.82935600  0.31756529  0.68576965  1
  In  In4  1  0.32912438  0.34161009  0.18602503  1
  In  In5  1  0.83339942  0.33827849  0.18134734  1
  Si  Si0  1  0.14249443  0.99628615  0.25082577  1
  Si  Si1  1  0.35453154  0.71095649  0.25161837  1
  Si  Si2  1  0.85689079  0.71222118  0.25063535  1
  Si  Si3  1  0.50061636  0.29220563  0.25061148  1
  Si  Si4  1  0.64247233  0.28603315  0.74986709  1
  Si  Si5  1  0.00023610  0.70976255  0.75049225  1
  Si  Si6  1  0.35744866  0.00297650  0.74988487  1
  Si  Si7  1  0.85495728  0.99873867  0.75168431  1
  Si  Si8  1  0.48059524  0.34160557  0.58131943  1
  Si  Si9  1  0.97452851  0.32818201  0.58507386  1
  Si  Si10  1  0.18793501  0.04145967  0.58322430  1
  Si  Si11  1  0.68761531  0.04036792  0.58311259  1
  Si  Si12  1  0.33302486  0.62529407  0.58594612  1
  Si  Si13  1  0.47462660  0.62112524  0.08498815  1
  Si  Si14  1  0.83349638  0.04019894  0.08461762  1
  Si  Si15  1  0.18698525  0.33465392  0.08283133  1
  Si  Si16  1  0.68784573  0.33463150  0.08329949  1
  Si  Si17  1  0.31283411  0.67149054  0.91411624  1
  Si  Si18  1  0.01945472  0.37462998  0.91476017  1
  Si  Si19  1  0.52275542  0.38406164  0.91792455  1
  Si  Si20  1  0.16569362  0.95832314  0.92017502  1
  Si  Si21  1  0.66366360  0.94719272  0.91585181  1
  Si  Si22  1  0.81079675  0.94955444  0.41657427  1
  Si  Si23  1  0.16785034  0.37793613  0.41669929  1
  Si  Si24  1  0.66654344  0.37336760  0.42030075  1
  Si  Si25  1  0.02225128  0.65924624  0.41849994  1
  Si  Si26  1  0.51806826  0.66347157  0.41476577  1
  S  S0  1  0.64571866  0.99861587  0.24912626  1
  S  S1  1  0.00027401  0.28447236  0.25122505  1
  S  S2  1  0.14659776  0.29347341  0.74919913  1
  S  S3  1  0.49899376  0.71629530  0.75135980  1
  S  S4  1  0.83186208  0.62375711  0.58228487  1
  S  S5  1  0.98125386  0.62749895  0.08131638  1
  S  S6  1  0.33150035  0.03946457  0.08263820  1
  S  S7  1  0.80745455  0.66127126  0.91851142  1
  S  S8  1  0.30762643  0.95363810  0.41826697  1
  O  O0  1  0.09286419  0.02265737  0.30613346  1
  O  O1  1  0.60966853  0.03071639  0.30134697  1
  O  O2  1  0.41558140  0.79636549  0.30627355  1
  O  O3  1  0.91720419  0.81579543  0.30634494  1
  O  O4  1  0.48398701  0.17337486  0.30583046  1
  O  O5  1  0.98928740  0.18239271  0.30286977  1
  O  O6  1  0.11003170  0.18949576  0.80181223  1
  O  O7  1  0.59410979  0.16519065  0.80696924  1
  O  O8  1  0.49107507  0.80022486  0.80476595  1
  O  O9  1  0.98388266  0.79273389  0.80689376  1
  O  O10  1  0.41677005  0.01728947  0.80688107  1
  O  O11  1  0.91510440  0.03632222  0.80735932  1
  O  O12  1  0.40305971  0.97107301  0.69328744  1
  O  O13  1  0.90263103  0.96329274  0.69382329  1
  O  O14  1  0.08975549  0.20962482  0.69689438  1
  O  O15  1  0.58098756  0.19119179  0.69375284  1
  O  O16  1  0.01952787  0.84143356  0.69353191  1
  O  O17  1  0.51511343  0.81712863  0.69879813  1
  O  O18  1  0.40294684  0.84173700  0.19325997  1
  O  O19  1  0.90381101  0.83410644  0.19275372  1
  O  O20  1  0.01430097  0.20773500  0.19708046  1
  O  O21  1  0.51943779  0.19726907  0.19302052  1
  O  O22  1  0.08070473  0.97117922  0.19355551  1
  O  O23  1  0.58997380  0.97142512  0.19629883  1
  O  O24  1  0.45126307  0.38375765  0.64187337  1
  O  O25  1  0.94644400  0.37722347  0.64474905  1
  O  O26  1  0.23536709  0.10054669  0.64563138  1
  O  O27  1  0.74329790  0.11040844  0.64057648  1
  O  O28  1  0.30950523  0.50991380  0.64326598  1
  O  O29  1  0.81928864  0.53146598  0.63761734  1
  O  O30  1  0.44590540  0.51489527  0.14419754  1
  O  O31  1  0.94859806  0.52901438  0.13606135  1
  O  O32  1  0.31777622  0.10485444  0.13716442  1
  O  O33  1  0.81559546  0.11814262  0.14205165  1
  O  O34  1  0.24207271  0.37642675  0.14030745  1
  O  O35  1  0.73863255  0.37353286  0.14438220  1
  O  O36  1  0.23416448  0.30437404  0.02547790  1
  O  O37  1  0.74019598  0.31032607  0.02765408  1
  O  O38  1  0.41470775  0.52446589  0.02728933  1
  O  O39  1  0.92586141  0.54506747  0.03096972  1
  O  O40  1  0.34645902  0.14885579  0.03146528  1
  O  O41  1  0.84896650  0.16775951  0.02691248  1
  O  O42  1  0.23620200  0.16828367  0.52717227  1
  O  O43  1  0.73504523  0.16720696  0.52576487  1
  O  O44  1  0.34896903  0.53267085  0.52749267  1
  O  O45  1  0.84768958  0.54400638  0.53168906  1
  O  O46  1  0.41639295  0.30580392  0.52544791  1
  O  O47  1  0.91521730  0.30526674  0.52726700  1
  O  O48  1  0.26660414  0.69547145  0.97237175  1
  O  O49  1  0.76417860  0.68342527  0.96920241  1
  O  O50  1  0.08224857  0.47837208  0.97139621  1
  O  O51  1  0.58475016  0.47383342  0.97316164  1
  O  O52  1  0.15740161  0.83454826  0.97502037  1
  O  O53  1  0.65520794  0.83343019  0.97235579  1
  O  O54  1  0.26372696  0.84389380  0.46859281  1
  O  O55  1  0.76683138  0.83453040  0.47339372  1
  O  O56  1  0.15460115  0.47648352  0.47145249  1
  O  O57  1  0.65830609  0.48130374  0.47359882  1
  O  O58  1  0.08513003  0.69625963  0.47295394  1
  O  O59  1  0.58102322  0.68716875  0.47066898  1
  O  O60  1  0.07028383  0.63900388  0.35989307  1
  O  O61  1  0.56839877  0.63845211  0.35678752  1
  O  O62  1  0.25523157  0.86965509  0.36245384  1
  O  O63  1  0.74934004  0.86179295  0.35891668  1
  O  O64  1  0.18054194  0.50199416  0.35920714  1
  O  O65  1  0.68318644  0.49554318  0.35966836  1
  O  O66  1  0.06769610  0.49789966  0.85742819  1
  O  O67  1  0.57038662  0.50269849  0.86043600  1
  O  O68  1  0.18246122  0.86816886  0.86073369  1
  O  O69  1  0.68126658  0.85921325  0.85892812  1
  O  O70  1  0.24858805  0.63518662  0.85910217  1
  O  O71  1  0.75640256  0.63631755  0.86356696  1
  O  O72  1  0.01313673  0.83273321  0.40995605  1
  O  O73  1  0.51120882  0.83384374  0.41490016  1
  O  O74  1  0.39250527  0.96992726  0.41423467  1
  O  O75  1  0.90732128  0.97935474  0.40609877  1
  O  O76  1  0.08086470  0.19043134  0.40620747  1
  O  O77  1  0.58223933  0.18950150  0.41482921  1
  O  O78  1  0.01030117  0.18879556  0.91595419  1
  O  O79  1  0.51303531  0.19236885  0.90990907  1
  O  O80  1  0.08130324  0.97398271  0.91596627  1
  O  O81  1  0.58061413  0.97205590  0.90755170  1
  O  O82  1  0.40805945  0.83656223  0.90770458  1
  O  O83  1  0.89361994  0.81460708  0.91523180  1
  O  O84  1  0.48824028  0.16456574  0.58693428  1
  O  O85  1  0.98731766  0.15736037  0.59202308  1
  O  O86  1  0.08997770  0.02051159  0.59040183  1
  O  O87  1  0.59090323  0.01747640  0.59143950  1
  O  O88  1  0.42016093  0.81460349  0.59212688  1
  O  O89  1  0.91356383  0.80166037  0.58784286  1
  O  O90  1  0.48766137  0.81765333  0.09168229  1
  O  O91  1  0.98844008  0.80155687  0.08814700  1
  O  O92  1  0.41201590  0.02221995  0.08759631  1
  O  O93  1  0.92041540  0.02224617  0.09168706  1
  O  O94  1  0.09001481  0.16120762  0.09148035  1
  O  O95  1  0.59105080  0.15971500  0.08985839  1
  O  O96  1  0.33895558  0.16373077  0.75038324  1
  O  O97  1  0.84579380  0.16677387  0.74803554  1
  O  O98  1  0.23296286  0.31453307  0.74327987  1
  O  O99  1  0.74118750  0.32991488  0.74779700  1
  O  O100  1  0.42366048  0.54061671  0.74916975  1
  O  O101  1  0.91667477  0.52167855  0.74364016  1
  O  O102  1  0.34575740  0.52518739  0.24766535  1
  O  O103  1  0.84199911  0.51628343  0.24805845  1
  O  O104  1  0.41639626  0.31075869  0.24308031  1
  O  O105  1  0.92479180  0.30870252  0.24514154  1
  O  O106  1  0.24015732  0.15147920  0.24655781  1
  O  O107  1  0.73267313  0.15227972  0.24330040  1
  O  O108  1  0.31955635  0.49674359  0.92284236  1
  O  O109  1  0.81598157  0.50408753  0.92470061  1
  O  O110  1  0.42645292  0.35698057  0.92694896  1
  O  O111  1  0.92775237  0.37358277  0.92719415  1
  O  O112  1  0.25587095  0.14288339  0.92744200  1
  O  O113  1  0.75042645  0.14257079  0.92426575  1
  O  O114  1  0.31313848  0.12314635  0.42134970  1
  O  O115  1  0.81982832  0.14146275  0.42266723  1
  O  O116  1  0.25203119  0.35467684  0.42388780  1
  O  O117  1  0.75667094  0.36789309  0.42628219  1
  O  O118  1  0.42598394  0.48316558  0.42340174  1
  O  O119  1  0.92625967  0.49480263  0.42602751  1
  O  O120  1  0.17315212  0.50353633  0.07245926  1
  O  O121  1  0.67628555  0.50095520  0.07060247  1
  O  O122  1  0.06995099  0.65337731  0.07406447  1
  O  O123  1  0.57274145  0.65177220  0.07292567  1
  O  O124  1  0.25561143  0.86207863  0.07467312  1
  O  O125  1  0.75184440  0.85046332  0.07038961  1
  O  O126  1  0.17572469  0.85076622  0.57025656  1
  O  O127  1  0.67735989  0.84997063  0.57176694  1
  O  O128  1  0.25175392  0.65422984  0.56988833  1
  O  O129  1  0.75774179  0.65093049  0.57499645  1
  O  O130  1  0.07264985  0.49328976  0.57324086  1
  O  O131  1  0.57928924  0.50161069  0.57191069  1
  O  O132  1  0.15038497  0.82009003  0.25981244  1
  O  O133  1  0.65024813  0.83710493  0.25310506  1
  O  O134  1  0.25957202  0.70466692  0.25690015  1
  O  O135  1  0.75953414  0.69135931  0.25757312  1
  O  O136  1  0.08066612  0.46116672  0.25610242  1
  O  O137  1  0.58958363  0.48723836  0.25500587  1
  O  O138  1  0.14993944  0.46406140  0.75413927  1
  O  O139  1  0.65076104  0.47858335  0.76122735  1
  O  O140  1  0.08929314  0.69206597  0.75579397  1
  O  O141  1  0.58008945  0.69746417  0.75838918  1
  O  O142  1  0.25989531  0.82663482  0.75910401  1
  O  O143  1  0.75999038  0.81520710  0.75810677  1
loop_
_geom_bond_atom_site_label_1
_geom_bond_atom_site_label_2
_geom_bond_distance
_geom_bond_site_symmetry_2
Na0 O106 2.335419 1_555
Na0 O104 2.348625 1_555
Na0 O134 2.414021 1_545
Na0 O132 2.658513 1_545
Na0 O32 2.776099 1_555
Na0 O4 2.809985 1_555
Na0 O62 2.827442 1_545
Na0 O18 2.926017 1_545
Na1 O137 2.416248 1_555
Na1 O103 2.430536 1_555
Na1 O107 2.495546 1_555
Na1 O135 2.503521 1_555
Na1 O35 2.539808 1_555
Na1 O65 2.829875 1_555
Na1 O21 2.851657 1_555
Na1 O1 2.927502 1_555
Na2 O102 2.313433 1_555
Na2 O104 2.416243 1_555
Na2 O133 2.502239 1_555
Na2 O137 2.566047 1_555
Na2 O30 2.594199 1_555
Na2 O61 2.775513 1_555
Na2 O2 2.856886 1_555
Na2 O23 2.992367 1_555
Na3 O99 2.327751 1_555
Na3 O101 2.359684 1_555
Na3 O143 2.406191 1_555
Na3 O139 2.647986 1_555
Na3 O29 2.738270 1_555
Na3 O9 2.839739 1_555
Na3 O71 2.853175 1_555
Na3 O13 2.903502 1_555
Na4 O97 2.313487 1_555
Na4 O101 2.412621 1_555
Na4 O138 2.493337 1_655
Na4 O25 2.546398 1_555
Na4 O140 2.576241 1_655
Na4 O66 2.818595 1_655
Na4 O11 2.876109 1_555
Na4 O14 2.947669 1_655
Na5 O96 2.366765 1_555
Na5 O26 2.436805 1_555
Na5 O140 2.457003 1_545
Na5 O98 2.477622 1_555
Na5 O142 2.540069 1_545
Na5 O16 2.839002 1_545
Na5 O68 2.923903 1_545
Na5 O6 2.940080 1_555
Na6 O86 2.580445 1_555
Na6 O85 2.603877 1_455
Na6 O76 2.636975 1_555
Na6 O72 2.646415 1_545
Na6 O89 2.672679 1_445
Na6 O75 2.674302 1_445
Na7 O73 2.445169 1_555
Na7 O77 2.465141 1_565
Na7 O87 2.621449 1_565
Na7 O84 2.635747 1_565
Na7 O74 2.682123 1_555
Na7 O88 2.697178 1_555
Na8 O78 2.383211 1_555
Na8 O80 2.406957 1_545
Na8 O83 2.632833 1_445
Na8 O94 2.642869 1_556
Na8 O93 2.705658 1_456
Na8 O91 2.774234 1_446
Na9 O81 2.580438 1_555
Na9 O95 2.597131 1_566
Na9 O82 2.615661 1_555
Na9 O90 2.623840 1_556
Na9 O79 2.624175 1_565
Na9 O92 2.693050 1_566
Na10 O96 2.422975 1_555
Na10 O100 2.580982 1_555
Na10 O110 2.626945 1_555
Na10 O108 2.660038 1_555
Na10 O112 2.703511 1_555
Na10 O98 2.739146 1_555
Na11 O97 2.397222 1_555
Na11 O99 2.452756 1_555
Na11 O101 2.543325 1_555
Na11 O113 2.714349 1_555
Na11 O111 2.776648 1_555
Na11 O109 2.849314 1_555
Na12 O102 2.475687 1_555
Na12 O106 2.564902 1_555
Na12 O116 2.581908 1_555
Na12 O118 2.608318 1_555
Na12 O104 2.640598 1_555
Na12 O114 2.744447 1_555
Na13 O103 2.534052 1_555
Na13 O119 2.542793 1_555
Na13 O117 2.597263 1_555
Na13 O115 2.599212 1_555
Na13 O105 2.719053 1_555
Na13 O107 2.793796 1_555
Na14 O134 2.551192 1_555
Na14 O120 2.604822 1_555
Na14 O136 2.644682 1_555
Na14 O132 2.682495 1_555
Na14 O124 2.730562 1_555
Na14 O122 2.741557 1_555
Na14 O34 3.453424 1_555
Na14 O31 3.549464 1_455
Na15 O137 2.593770 1_555
Na15 O135 2.614552 1_555
Na15 O121 2.661504 1_555
Na15 O125 2.662113 1_555
Na15 O133 2.664632 1_555
Na15 O123 2.695492 1_555
Na15 O35 3.453139 1_555
Na15 O33 3.573368 1_565
Na16 O128 2.620460 1_555
Na16 O126 2.645644 1_555
Na16 O140 2.652325 1_555
Na16 O142 2.663905 1_555
Na16 O130 2.671465 1_555
Na16 O138 2.707933 1_555
Na16 O26 3.436601 1_565
Na16 O28 3.459734 1_555
Na17 O131 2.553672 1_555
Na17 O127 2.572843 1_555
Na17 O129 2.706973 1_555
Na17 O143 2.715009 1_555
Na17 O141 2.720440 1_555
Na17 O139 2.791686 1_555
Na17 O24 3.351538 1_555
Na17 O27 3.505572 1_565
In0 O2 2.042974 1_545
In0 O4 2.067575 1_555
In0 O77 2.087961 1_555
In0 O73 2.098360 1_545
In0 O74 2.229291 1_545
In0 O1 2.242692 1_555
In1 O11 2.034596 1_565
In1 O9 2.058107 1_555
In1 O80 2.108439 1_655
In1 O78 2.125748 1_665
In1 O6 2.230140 1_665
In1 O83 2.252552 1_555
In2 O24 2.024443 1_555
In2 O28 2.080514 1_555
In2 O26 2.088173 1_555
In2 O96 2.237118 1_555
In2 O98 2.340201 1_555
In2 O100 2.384569 1_555
In3 O27 2.008809 1_555
In3 O97 2.090746 1_555
In3 O25 2.106803 1_555
In3 O101 2.167013 1_555
In3 O99 2.168943 1_555
In3 O29 2.300240 1_555
In4 O34 2.029510 1_555
In4 O102 2.076343 1_555
In4 O30 2.110708 1_555
In4 O106 2.159890 1_555
In4 O104 2.161809 1_555
In4 O32 2.317802 1_555
In5 O33 2.044518 1_555
In5 O35 2.058263 1_555
In5 O103 2.161563 1_555
In5 O31 2.174801 1_555
In5 O107 2.247889 1_555
In5 O105 2.310014 1_555
O0 Si0 1.633723 1_545
O0 Ta0 1.923000 1_545
O1 S0 1.457527 1_545
O2 Si1 1.588082 1_555
O3 Si2 1.632317 1_555
O3 Ta0 1.943791 1_655
O4 Si3 1.588566 1_555
O5 S1 1.452818 1_655
O5 Ta0 2.276776 1_645
O6 S2 1.467415 1_555
O7 Si4 1.646713 1_555
O7 Ta1 1.900805 1_555
O8 S3 1.482795 1_555
O8 Ta1 2.204719 1_565
O9 Si5 1.592450 1_655
O10 Si6 1.651417 1_555
O10 Ta1 1.912325 1_555
O11 Si7 1.596737 1_545
O12 Si6 1.634705 1_565
O12 Ta3 1.983936 1_565
O13 Si7 1.693185 1_555
O13 Ta2 1.962016 1_555
O14 S2 1.510254 1_555
O14 Ta2 2.194559 1_445
O15 Si4 1.631516 1_555
O15 Ta3 1.972319 1_555
O16 Si5 1.681082 1_555
O16 Ta2 1.957733 1_455
O17 S3 1.450619 1_555
O17 Ta3 2.365099 1_565
O18 Si1 1.706833 1_555
O18 Ta5 1.943960 1_565
O19 Si2 1.660042 1_555
O19 Ta4 1.946324 1_555
O20 S1 1.502236 1_555
O20 Ta4 2.140370 1_445
O21 Si3 1.695552 1_555
O21 Ta5 1.941835 1_555
O22 Si0 1.661494 1_555
O22 Ta4 1.933931 1_455
O23 S0 1.512751 1_555
O23 Ta5 2.167919 1_565
O24 Si8 1.597899 1_555
O25 Si9 1.596066 1_555
O26 Si10 1.615917 1_555
O27 Si11 1.583473 1_555
O28 Si12 1.597936 1_555
O29 S4 1.473743 1_555
O30 Si13 1.593455 1_555
O31 S5 1.480715 1_555
O32 S6 1.455329 1_555
O33 Si14 1.598814 1_555
O34 Si15 1.578193 1_555
O35 Si16 1.613951 1_555
O36 Si15 1.658900 1_555
O36 Ta6 1.945820 1_554
O37 Si16 1.662312 1_555
O37 Ta7 1.940594 1_554
O38 Si13 1.652457 1_555
O38 Ta6 1.955222 1_554
O39 S5 1.461381 1_555
O39 Ta7 2.304560 1_554
O40 S6 1.469592 1_555
O40 Ta6 2.307912 1_554
O41 Si14 1.683486 1_555
O41 Ta7 1.879949 1_554
O42 Si10 1.649439 1_555
O42 Ta8 1.968197 1_555
O43 Si11 1.670358 1_555
O43 Ta9 1.920360 1_555
O44 Si12 1.676711 1_555
O44 Ta8 1.872190 1_555
O45 S4 1.464599 1_555
O45 Ta9 2.304859 1_555
O46 Si8 1.645039 1_555
O46 Ta8 1.954242 1_555
O47 Si9 1.649116 1_555
O47 Ta9 1.957387 1_555
O48 Si17 1.643217 1_555
O48 Ta10 1.888617 1_556
O49 S7 1.466060 1_555
O49 Ta11 2.176572 1_556
O50 Si18 1.666489 1_555
O50 Ta10 1.850023 1_556
O51 Si19 1.611826 1_555
O51 Ta11 1.942783 1_556
O52 Si20 1.638531 1_555
O52 Ta10 1.917711 1_556
O53 Si21 1.613141 1_555
O53 Ta11 1.960038 1_556
O54 S8 1.467429 1_555
O54 Ta12 2.189020 1_555
O55 Si22 1.606470 1_555
O55 Ta13 1.987086 1_555
O56 Si23 1.621216 1_555
O56 Ta12 1.959845 1_555
O57 Si24 1.612359 1_555
O57 Ta13 1.934269 1_555
O58 Si25 1.603719 1_555
O58 Ta12 1.958505 1_555
O59 Si26 1.652057 1_555
O59 Ta13 1.858342 1_555
O60 Si25 1.655628 1_555
O60 Ta14 1.918112 1_555
O61 Si26 1.684583 1_555
O61 Ta15 1.944763 1_555
O62 S8 1.544805 1_555
O62 Ta14 2.075928 1_555
O63 Si22 1.649314 1_555
O63 Ta15 1.913400 1_555
O64 Si23 1.670111 1_555
O64 Ta14 1.899281 1_555
O65 Si24 1.706347 1_555
O65 Ta15 1.871131 1_555
O66 Si18 1.659258 1_555
O66 Ta16 1.980847 1_555
O67 Si19 1.643526 1_555
O67 Ta17 1.932918 1_555
O68 Si20 1.688459 1_555
O68 Ta16 1.885835 1_555
O69 Si21 1.637105 1_555
O69 Ta17 1.928844 1_555
O70 Si17 1.629443 1_555
O70 Ta16 1.934801 1_555
O71 S7 1.509353 1_555
O71 Ta17 2.210038 1_555
O72 Si25 1.655310 1_555
O72 Ta0 1.902324 1_555
O73 Si26 1.592624 1_555
O74 S8 1.453492 1_555
O75 Si22 1.627206 1_555
O75 Ta0 1.981486 1_655
O76 Si23 1.639146 1_555
O76 Ta0 1.982038 1_545
O77 Si24 1.587147 1_555
O78 Si18 1.590989 1_555
O79 Si19 1.648800 1_555
O79 Ta1 1.920022 1_555
O80 Si20 1.587472 1_555
O81 Si21 1.620194 1_555
O81 Ta1 2.016560 1_565
O82 Si17 1.609466 1_555
O82 Ta1 2.020487 1_565
O83 S7 1.466438 1_555
O84 Si8 1.665360 1_555
O84 Ta3 1.891307 1_555
O85 Si9 1.666020 1_555
O85 Ta2 1.979535 1_545
O86 Si10 1.674079 1_555
O86 Ta2 1.965281 1_445
O87 Si11 1.647791 1_555
O87 Ta3 1.973875 1_555
O88 Si12 1.637765 1_555
O88 Ta3 1.963421 1_565
O89 S4 1.537178 1_555
O89 Ta2 2.057859 1_555
O90 Si13 1.664739 1_555
O90 Ta5 1.985132 1_565
O91 S5 1.508470 1_555
O91 Ta4 2.110079 1_555
O92 S6 1.527830 1_555
O92 Ta5 2.087012 1_555
O93 Si14 1.649409 1_555
O93 Ta4 1.972738 1_545
O94 Si15 1.663412 1_555
O94 Ta4 1.975084 1_445
O95 Si16 1.662046 1_555
O95 Ta5 1.996034 1_555
O96 Si6 1.632319 1_555
O97 Si7 1.597423 1_545
O98 S2 1.465670 1_555
O99 Si4 1.605984 1_555
O100 S3 1.474742 1_555
O101 Si5 1.606091 1_655
O102 Si1 1.595437 1_555
O103 Si2 1.640874 1_555
O104 Si3 1.605761 1_555
O105 S1 1.477747 1_655
O106 Si0 1.601407 1_545
O107 S0 1.480061 1_545
O108 Si17 1.643051 1_555
O108 Ta6 1.909144 1_555
O109 S7 1.498626 1_555
O109 Ta7 2.223201 1_555
O110 Si19 1.627844 1_555
O110 Ta6 2.005506 1_555
O111 Si18 1.660083 1_655
O111 Ta7 1.964489 1_555
O112 Si20 1.641974 1_545
O112 Ta6 1.971600 1_555
O113 Si21 1.671260 1_545
O113 Ta7 1.898188 1_555
O114 S8 1.474648 1_545
O114 Ta8 2.310250 1_555
O115 Si22 1.651611 1_545
O115 Ta9 1.913606 1_555
O116 Si23 1.628798 1_555
O116 Ta8 2.020507 1_555
O117 Si24 1.643119 1_555
O117 Ta9 1.977690 1_555
O118 Si26 1.643506 1_555
O118 Ta8 2.007889 1_555
O119 Si25 1.618100 1_655
O119 Ta9 2.030678 1_555
O120 Si15 1.669634 1_555
O120 Ta10 1.959382 1_555
O121 Si16 1.631720 1_555
O121 Ta11 1.955141 1_555
O122 S5 1.493218 1_455
O122 Ta10 2.209987 1_555
O123 Si13 1.657954 1_555
O123 Ta11 1.887224 1_555
O124 S6 1.498147 1_565
O124 Ta10 2.210123 1_555
O125 Si14 1.626833 1_565
O125 Ta11 1.972485 1_555
O126 Si10 1.638602 1_565
O126 Ta12 1.955265 1_555
O127 Si11 1.643636 1_565
O127 Ta13 1.956327 1_555
O128 Si12 1.641913 1_555
O128 Ta12 1.948977 1_555
O129 S4 1.472777 1_555
O129 Ta13 2.253335 1_555
O130 Si9 1.656995 1_455
O130 Ta12 1.886932 1_555
O131 Si8 1.639094 1_555
O131 Ta13 1.954620 1_555
O132 Si0 1.668255 1_555
O132 Ta14 2.005869 1_555
O133 S0 1.493379 1_555
O133 Ta15 2.331678 1_555
O134 Si1 1.675279 1_555
O134 Ta14 2.019614 1_555
O135 Si2 1.663224 1_555
O135 Ta15 2.027446 1_555
O136 S1 1.519808 1_555
O136 Ta14 2.136055 1_555
O137 Si3 1.677797 1_555
O137 Ta15 2.065932 1_555
O138 S2 1.504695 1_555
O138 Ta16 2.283455 1_555
O139 Si4 1.677362 1_555
O139 Ta17 1.960631 1_555
O140 Si5 1.682548 1_555
O140 Ta16 2.030453 1_555
O141 S3 1.550626 1_555
O141 Ta17 2.016855 1_555
O142 Si6 1.681812 1_565
O142 Ta16 1.979687 1_555
O143 Si7 1.678579 1_555
O143 Ta17 1.996285 1_555
