# generated using pymatgen
data_MgMnCo3O8
_symmetry_space_group_name_H-M   'P 1'
_cell_length_a   2.87292783
_cell_length_b   2.96937454
_cell_length_c   19.65996000
_cell_angle_alpha   83.67109838
_cell_angle_beta   83.87817290
_cell_angle_gamma   61.28728769
_symmetry_Int_Tables_number   1
_chemical_formula_structural   MgMnCo3O8
_chemical_formula_sum   'Mg1 Mn1 Co3 O8'
_cell_volume   145.91886987
_cell_formula_units_Z   1
loop_
 _symmetry_equiv_pos_site_id
 _symmetry_equiv_pos_as_xyz
  1  'x, y, z'
loop_
 _atom_site_type_symbol
 _atom_site_label
 _atom_site_symmetry_multiplicity
 _atom_site_fract_x
 _atom_site_fract_y
 _atom_site_fract_z
 _atom_site_occupancy
  Mg  Mg0  1  0.15438289  0.98192364  0.86981274  1
  Mn  Mn0  1  0.00989849  0.06362957  0.00971416  1
  Co  Co0  1  0.50181907  0.49872817  0.25091861  1
  Co  Co1  1  0.99855180  0.00184167  0.49887845  1
  Co  Co2  1  0.52044921  0.45254162  0.73936161  1
  O  O0  1  0.19159810  0.18661871  0.20483337  1
  O  O1  1  0.64397833  0.72535146  0.05623821  1
  O  O2  1  0.20622293  0.14256429  0.69810441  1
  O  O3  1  0.35317546  0.36089974  0.45286678  1
  O  O4  1  0.81186174  0.81092687  0.29691907  1
  O  O5  1  0.64399043  0.64257141  0.54489494  1
  O  O6  1  0.44532576  0.29693548  0.93790918  1
  O  O7  1  0.85207879  0.66880037  0.81288146  1
loop_
_geom_bond_atom_site_label_1
_geom_bond_atom_site_label_2
_geom_bond_distance
_geom_bond_site_symmetry_2
Mg0 O7 2.020939 1_455
Mg0 O7 2.023668 1_555
Mg0 O7 2.041815 1_465
Mg0 O6 2.152189 1_565
Mg0 O6 2.152406 1_555
Mg0 O6 2.163450 1_465
Mn0 O1 1.886185 1_445
Mn0 O1 1.886453 1_545
Mn0 O1 2.002252 1_455
Mn0 O6 2.068352 1_554
Mn0 O6 2.072845 1_454
Mn0 O6 2.517175 1_544
Co0 O4 1.902820 1_555
Co0 O0 1.903968 1_555
Co0 O4 1.908737 1_455
Co0 O0 1.909035 1_655
Co0 O4 1.949128 1_545
Co0 O0 1.949998 1_565
Co1 O3 1.904593 1_655
Co1 O5 1.904974 1_545
Co1 O3 1.907476 1_555
Co1 O5 1.907685 1_645
Co1 O5 1.948495 1_555
Co1 O3 1.948936 1_645
Co2 O2 1.854516 1_555
Co2 O2 1.862276 1_655
Co2 O2 1.919254 1_565
Co2 O7 2.120250 1_555
Co2 O7 2.148614 1_455
Co2 O7 2.415480 1_545
