# generated using pymatgen
data_Cs(SO2)2
_symmetry_space_group_name_H-M   'P 1'
_cell_length_a   16.00406500
_cell_length_b   7.84812700
_cell_length_c   9.85507865
_cell_angle_alpha   81.59289324
_cell_angle_beta   90.00000000
_cell_angle_gamma   90.00000000
_symmetry_Int_Tables_number   1
_chemical_formula_structural   Cs(SO2)2
_chemical_formula_sum   'Cs8 S16 O32'
_cell_volume   1224.51561791
_cell_formula_units_Z   8
loop_
 _symmetry_equiv_pos_site_id
 _symmetry_equiv_pos_as_xyz
  1  'x, y, z'
loop_
 _atom_site_type_symbol
 _atom_site_label
 _atom_site_symmetry_multiplicity
 _atom_site_fract_x
 _atom_site_fract_y
 _atom_site_fract_z
 _atom_site_occupancy
  Cs  Cs0  1  0.39942300  0.83802900  0.40950400  1
  Cs  Cs1  1  0.89942300  0.66197100  0.59049600  1
  Cs  Cs2  1  0.60057700  0.16197100  0.59049600  1
  Cs  Cs3  1  0.10057700  0.33802900  0.40950400  1
  Cs  Cs4  1  0.60005200  0.28541200  0.08000500  1
  Cs  Cs5  1  0.10005200  0.21458800  0.91999500  1
  Cs  Cs6  1  0.39994800  0.71458800  0.91999500  1
  Cs  Cs7  1  0.89994800  0.78541200  0.08000500  1
  S  S0  1  0.82609100  0.26838700  0.32139800  1
  S  S1  1  0.32609100  0.23161300  0.67860200  1
  S  S2  1  0.17390900  0.73161300  0.67860200  1
  S  S3  1  0.67390900  0.76838700  0.32139800  1
  S  S4  1  0.39807800  0.37288600  0.32097100  1
  S  S5  1  0.89807800  0.12711400  0.67902900  1
  S  S6  1  0.60192200  0.62711400  0.67902900  1
  S  S7  1  0.10192200  0.87288600  0.32097100  1
  S  S8  1  0.30169800  0.25176400  0.21831800  1
  S  S9  1  0.80169800  0.24823600  0.78168200  1
  S  S10  1  0.69830200  0.74823600  0.78168200  1
  S  S11  1  0.19830200  0.75176400  0.21831800  1
  S  S12  1  0.36573700  0.16569900  0.04729900  1
  S  S13  1  0.86573700  0.33430100  0.95270100  1
  S  S14  1  0.63426300  0.83430100  0.95270100  1
  S  S15  1  0.13426300  0.66569900  0.04729900  1
  O  O0  1  0.88405200  0.40770500  0.33657200  1
  O  O1  1  0.38405200  0.09229500  0.66342800  1
  O  O2  1  0.11594800  0.59229500  0.66342800  1
  O  O3  1  0.61594800  0.90770500  0.33657200  1
  O  O4  1  0.73833500  0.30233700  0.34566800  1
  O  O5  1  0.23833500  0.19766300  0.65433200  1
  O  O6  1  0.26166500  0.69766300  0.65433200  1
  O  O7  1  0.76166500  0.80233700  0.34566800  1
  O  O8  1  0.42673100  0.52559200  0.22988800  1
  O  O9  1  0.92673100  0.97440800  0.77011200  1
  O  O10  1  0.57326900  0.47440800  0.77011200  1
  O  O11  1  0.07326900  0.02559200  0.22988800  1
  O  O12  1  0.34973000  0.41642300  0.43915800  1
  O  O13  1  0.84973000  0.08357700  0.56084200  1
  O  O14  1  0.65027000  0.58357700  0.56084200  1
  O  O15  1  0.15027000  0.91642300  0.43915800  1
  O  O16  1  0.46364400  0.24355200  0.35775300  1
  O  O17  1  0.96364400  0.25644800  0.64224700  1
  O  O18  1  0.53635600  0.75644800  0.64224700  1
  O  O19  1  0.03635600  0.74355200  0.35775300  1
  O  O20  1  0.41336200  0.31310500  0.97984800  1
  O  O21  1  0.91336200  0.18689500  0.02015200  1
  O  O22  1  0.58663800  0.68689500  0.02015200  1
  O  O23  1  0.08663800  0.81310500  0.97984800  1
  O  O24  1  0.08226700  0.51979900  0.10637400  1
  O  O25  1  0.58226700  0.98020100  0.89362600  1
  O  O26  1  0.91773300  0.48020100  0.89362600  1
  O  O27  1  0.41773300  0.01979900  0.10637400  1
  O  O28  1  0.20542100  0.61707000  0.96686900  1
  O  O29  1  0.70542100  0.88293000  0.03313100  1
  O  O30  1  0.79457900  0.38293000  0.03313100  1
  O  O31  1  0.29457900  0.11707000  0.96686900  1
loop_
_geom_bond_atom_site_label_1
_geom_bond_atom_site_label_2
_geom_bond_distance
_geom_bond_site_symmetry_2
Cs0 O27 3.130360 1_565
Cs0 O18 3.169254 1_555
Cs0 O8 3.256698 1_555
Cs0 O16 3.312215 1_565
Cs0 O6 3.334453 1_555
Cs0 O12 3.373931 1_555
Cs0 O1 3.430014 1_565
Cs0 O3 3.564949 1_555
Cs0 S11 3.839500 1_555
Cs0 S8 3.840634 1_565
Cs1 O26 3.130360 1_555
Cs1 O19 3.169254 1_655
Cs1 O9 3.256698 1_555
Cs1 O17 3.312215 1_555
Cs1 O7 3.334453 1_555
Cs1 O13 3.373931 1_565
Cs1 O0 3.430014 1_555
Cs1 O2 3.564949 1_655
Cs1 S10 3.839500 1_555
Cs1 S9 3.840634 1_555
Cs2 O25 3.130360 1_545
Cs2 O16 3.169254 1_555
Cs2 O10 3.256698 1_555
Cs2 O18 3.312215 1_545
Cs2 O4 3.334453 1_555
Cs2 O14 3.373931 1_555
Cs2 O3 3.430014 1_545
Cs2 O1 3.564949 1_555
Cs2 S9 3.839500 1_555
Cs2 S10 3.840634 1_545
Cs3 O24 3.130360 1_555
Cs3 O17 3.169254 1_455
Cs3 O11 3.256698 1_555
Cs3 O19 3.312215 1_555
Cs3 O5 3.334453 1_555
Cs3 O15 3.373931 1_545
Cs3 O2 3.430014 1_555
Cs3 O0 3.564949 1_455
Cs3 S8 3.839500 1_555
Cs3 S11 3.840634 1_555
Cs4 O22 3.127084 1_555
Cs4 O20 3.144158 1_554
Cs4 O10 3.222769 1_554
Cs4 O30 3.223028 1_555
Cs4 O25 3.237117 1_544
Cs4 O4 3.445534 1_555
Cs4 O16 3.478972 1_555
Cs4 O27 3.573284 1_555
Cs4 O3 3.612939 1_545
Cs4 O29 3.668973 1_545
Cs5 O23 3.127084 1_545
Cs5 O21 3.144158 1_456
Cs5 O11 3.222769 1_556
Cs5 O31 3.223028 1_555
Cs5 O24 3.237117 1_556
Cs5 O5 3.445534 1_555
Cs5 O17 3.478972 1_455
Cs5 O26 3.573284 1_455
Cs5 O2 3.612939 1_555
Cs5 O28 3.668973 1_555
Cs6 O20 3.127084 1_555
Cs6 O22 3.144158 1_556
Cs6 O8 3.222769 1_556
Cs6 O28 3.223028 1_555
Cs6 O27 3.237117 1_566
Cs6 O6 3.445534 1_555
Cs6 O18 3.478972 1_555
Cs6 O25 3.573284 1_555
Cs6 O1 3.612939 1_565
Cs6 O31 3.668973 1_565
Cs7 O21 3.127084 1_565
Cs7 O23 3.144158 1_654
Cs7 O9 3.222769 1_554
Cs7 O29 3.223028 1_555
Cs7 O26 3.237117 1_554
Cs7 O7 3.445534 1_555
Cs7 O19 3.478972 1_655
Cs7 O24 3.573284 1_655
Cs7 O0 3.612939 1_555
Cs7 O30 3.668973 1_555
S4 S8 2.141837 1_555
S5 S9 2.141837 1_555
S10 S6 2.141837 1_555
S10 S14 2.163353 1_555
S11 S7 2.141837 1_555
S11 S15 2.163353 1_555
S12 S8 2.163353 1_555
S13 S9 2.163353 1_555
O0 S0 1.458125 1_555
O1 S1 1.458125 1_555
O2 S2 1.458125 1_555
O3 S3 1.458125 1_555
O4 S0 1.455790 1_555
O5 S1 1.455790 1_555
O6 S2 1.455790 1_555
O7 S3 1.455790 1_555
O8 S4 1.462105 1_555
O9 S5 1.462105 1_565
O10 S6 1.462105 1_555
O11 S7 1.462105 1_545
O12 S4 1.479343 1_555
O12 S8 2.796419 1_555
O13 S5 1.479343 1_555
O13 S9 2.796419 1_555
O14 S6 1.479343 1_555
O14 S10 2.796419 1_555
O15 S7 1.479343 1_555
O15 S11 2.796419 1_555
O16 S4 1.468051 1_555
O17 S5 1.468051 1_555
O18 S6 1.468051 1_555
O19 S7 1.468051 1_555
O20 S12 1.461599 1_556
O21 S13 1.461599 1_554
O22 S14 1.461599 1_554
O23 S15 1.461599 1_556
O24 S15 1.465470 1_555
O25 S14 1.465470 1_555
O26 S13 1.465470 1_555
O27 S12 1.465470 1_555
O28 S15 1.469456 1_556
O28 S11 2.834986 1_556
O29 S14 1.469456 1_554
O29 S10 2.834986 1_554
O30 S13 1.469456 1_554
O30 S9 2.834986 1_554
O31 S12 1.469456 1_556
O31 S8 2.834986 1_556
