# generated using pymatgen
data_MgNb3O7F
_symmetry_space_group_name_H-M   'P 1'
_cell_length_a   3.90063101
_cell_length_b   11.12386830
_cell_length_c   4.14246200
_cell_angle_alpha   90.00000000
_cell_angle_beta   90.00000000
_cell_angle_gamma   79.89646833
_symmetry_Int_Tables_number   1
_chemical_formula_structural   MgNb3O7F
_chemical_formula_sum   'Mg1 Nb3 O7 F1'
_cell_volume   176.95449311
_cell_formula_units_Z   1
loop_
 _symmetry_equiv_pos_site_id
 _symmetry_equiv_pos_as_xyz
  1  'x, y, z'
loop_
 _atom_site_type_symbol
 _atom_site_label
 _atom_site_symmetry_multiplicity
 _atom_site_fract_x
 _atom_site_fract_y
 _atom_site_fract_z
 _atom_site_occupancy
  Mg  Mg0  1  0.72051000  0.55942100  0.50000000  1
  Nb  Nb0  1  0.17700900  0.64626600  0.00000000  1
  Nb  Nb1  1  0.82276900  0.35471700  0.00000000  1
  Nb  Nb2  1  0.99911200  0.00178400  0.00000000  1
  O  O0  1  0.09346100  0.81303300  0.00000000  1
  O  O1  1  0.18750200  0.62531600  0.50000000  1
  O  O2  1  0.70656000  0.58722100  0.00000000  1
  O  O3  1  0.29229300  0.41561600  0.00000000  1
  O  O4  1  0.81041800  0.37935400  0.50000000  1
  O  O5  1  0.90626700  0.18757200  0.00000000  1
  O  O6  1  0.50107100  0.99782500  0.00000000  1
  F  F0  1  0.99969400  0.00062400  0.50000000  1
loop_
_geom_bond_atom_site_label_1
_geom_bond_atom_site_label_2
_geom_bond_distance
_geom_bond_site_symmetry_2
Mg0 O4 1.971979 1_555
Mg0 O1 2.079390 1_655
Mg0 O1 2.079694 1_555
Mg0 O2 2.093487 1_556
Mg0 O2 2.093487 1_555
Nb0 O0 1.826326 1_555
Nb0 O2 2.054672 1_455
Nb0 O2 2.054758 1_555
Nb0 O1 2.083899 1_555
Nb0 O1 2.083899 1_554
Nb0 O3 2.525932 1_555
Nb1 O5 1.830466 1_555
Nb1 O3 2.061161 1_655
Nb1 O3 2.061228 1_555
Nb1 O4 2.088730 1_555
Nb1 O4 2.088730 1_554
Nb1 O2 2.546236 1_555
Nb2 O6 1.950713 1_645
Nb2 O6 1.950882 1_545
Nb2 O5 2.034632 1_555
Nb2 O0 2.067081 1_645
O0 O1 2.918242 1_555
O0 O1 2.918242 1_554
O2 O3 2.708086 1_655
O2 O3 2.708752 1_555
O3 O4 2.872487 1_554
O3 O4 2.872487 1_555
O3 O4 2.872574 1_454
O3 O4 2.872574 1_455
F0 Nb2 2.071270 1_555
F0 Nb2 2.071270 1_556
F0 O6 2.845051 1_645
F0 O6 2.845051 1_646
F0 O6 2.845175 1_545
F0 O6 2.845175 1_546
F0 O5 2.912315 1_556
F0 O5 2.912315 1_555
F0 O0 2.917270 1_645
F0 O0 2.917270 1_646
