# generated using pymatgen
data_Na2CaGeP2SO12
_symmetry_space_group_name_H-M   'P 1'
_cell_length_a   9.02443706
_cell_length_b   9.00852816
_cell_length_c   22.20432732
_cell_angle_alpha   91.92642873
_cell_angle_beta   90.00000000
_cell_angle_gamma   120.05843545
_symmetry_Int_Tables_number   1
_chemical_formula_structural   Na2CaGeP2SO12
_chemical_formula_sum   'Na12 Ca6 Ge6 P12 S6 O72'
_cell_volume   1561.19937379
_cell_formula_units_Z   6
loop_
 _symmetry_equiv_pos_site_id
 _symmetry_equiv_pos_as_xyz
  1  'x, y, z'
loop_
 _atom_site_type_symbol
 _atom_site_label
 _atom_site_symmetry_multiplicity
 _atom_site_fract_x
 _atom_site_fract_y
 _atom_site_fract_z
 _atom_site_occupancy
  Na  Na0  1  0.98721694  0.63889245  0.24417257  1
  Na  Na1  1  0.65167551  0.63889245  0.74417257  1
  Na  Na2  1  0.65388394  0.97222545  0.57750557  1
  Na  Na3  1  0.31834251  0.97222545  0.07750557  1
  Na  Na4  1  0.32054994  0.30555945  0.91083957  1
  Na  Na5  1  0.98500851  0.30555945  0.41083957  1
  Na  Na6  1  0.00913821  0.96926581  0.49973980  1
  Na  Na7  1  0.96012759  0.96926581  0.99973980  1
  Na  Na8  1  0.67580521  0.30259881  0.83307280  1
  Na  Na9  1  0.62679459  0.30259881  0.33307280  1
  Na  Na10  1  0.34247121  0.63593281  0.16640680  1
  Na  Na11  1  0.29346059  0.63593281  0.66640680  1
  Ca  Ca0  1  0.99621166  0.99530356  0.35547987  1
  Ca  Ca1  1  0.99909191  0.99530356  0.85547987  1
  Ca  Ca2  1  0.66287866  0.32863656  0.68881287  1
  Ca  Ca3  1  0.66575891  0.32863656  0.18881287  1
  Ca  Ca4  1  0.32954466  0.66197056  0.02214687  1
  Ca  Ca5  1  0.33242491  0.66197056  0.52214687  1
  Ge  Ge0  1  0.98750956  0.01320818  0.64934919  1
  Ge  Ge1  1  0.02569862  0.01320818  0.14934919  1
  Ge  Ge2  1  0.65417656  0.34654118  0.98268219  1
  Ge  Ge3  1  0.69236562  0.34654118  0.48268219  1
  Ge  Ge4  1  0.32084256  0.67987518  0.31601619  1
  Ge  Ge5  1  0.35903162  0.67987518  0.81601619  1
  P  P0  1  0.29189720  0.98375066  0.25146988  1
  P  P1  1  0.02824707  0.30724458  0.25408544  1
  P  P2  1  0.27899752  0.30724458  0.75408544  1
  P  P3  1  0.69185346  0.98375066  0.75146988  1
  P  P4  1  0.95856420  0.31708366  0.58480288  1
  P  P5  1  0.69491407  0.64057758  0.58741844  1
  P  P6  1  0.94566452  0.64057758  0.08741844  1
  P  P7  1  0.35852046  0.31708366  0.08480288  1
  P  P8  1  0.62523020  0.65041766  0.91813688  1
  P  P9  1  0.36158007  0.97391158  0.92075244  1
  P  P10  1  0.61233052  0.97391158  0.42075244  1
  P  P11  1  0.02518646  0.65041766  0.41813688  1
  S  S0  1  0.69048962  0.71849922  0.24850231  1
  S  S1  1  0.02800960  0.71849922  0.74850231  1
  S  S2  1  0.35715662  0.05183222  0.58183531  1
  S  S3  1  0.69467660  0.05183222  0.08183531  1
  S  S4  1  0.02382262  0.38516622  0.91516931  1
  S  S5  1  0.36134260  0.38516622  0.41516931  1
  O  O0  1  0.19774196  0.99537513  0.30466515  1
  O  O1  1  0.78555101  0.79678812  0.30408170  1
  O  O2  1  0.00625838  0.21748156  0.31178396  1
  O  O3  1  0.21122318  0.21748156  0.81178396  1
  O  O4  1  0.01123711  0.79678812  0.80408170  1
  O  O5  1  0.79763317  0.99537513  0.80466515  1
  O  O6  1  0.77406916  0.95393742  0.68983915  1
  O  O7  1  0.15272650  0.20591635  0.69655244  1
  O  O8  1  0.04255880  0.82097857  0.69404548  1
  O  O9  1  0.77841978  0.82097857  0.19404548  1
  O  O10  1  0.05318986  0.20591635  0.19655244  1
  O  O11  1  0.17986826  0.95393742  0.18983915  1
  O  O12  1  0.86440896  0.32870813  0.63799815  1
  O  O13  1  0.45221801  0.13012112  0.63741470  1
  O  O14  1  0.67292538  0.55081456  0.64511696  1
  O  O15  1  0.87789018  0.55081456  0.14511696  1
  O  O16  1  0.67790411  0.13012112  0.13741470  1
  O  O17  1  0.46430017  0.32870813  0.13799815  1
  O  O18  1  0.44073616  0.28727042  0.02317215  1
  O  O19  1  0.81939350  0.53924935  0.02988544  1
  O  O20  1  0.70922580  0.15431157  0.02737848  1
  O  O21  1  0.44508678  0.15431157  0.52737848  1
  O  O22  1  0.71985686  0.53924935  0.52988544  1
  O  O23  1  0.84653526  0.28727042  0.52317215  1
  O  O24  1  0.53107496  0.66204213  0.97133215  1
  O  O25  1  0.11888401  0.46345512  0.97074870  1
  O  O26  1  0.33959138  0.88414856  0.97845096  1
  O  O27  1  0.54455618  0.88414856  0.47845096  1
  O  O28  1  0.34457011  0.46345512  0.47074870  1
  O  O29  1  0.13096617  0.66204213  0.47133215  1
  O  O30  1  0.10740216  0.62060442  0.35650615  1
  O  O31  1  0.48605950  0.87258335  0.36321944  1
  O  O32  1  0.37589180  0.48764557  0.36071248  1
  O  O33  1  0.11175278  0.48764557  0.86071248  1
  O  O34  1  0.38652286  0.87258335  0.86321944  1
  O  O35  1  0.51320126  0.62060442  0.85650615  1
  O  O36  1  0.98567754  0.79370008  0.41457781  1
  O  O37  1  0.79466612  0.01312949  0.40992208  1
  O  O38  1  0.20882213  0.21181308  0.41011886  1
  O  O39  1  0.00299095  0.21181308  0.91011886  1
  O  O40  1  0.21846336  0.01312949  0.90992208  1
  O  O41  1  0.80802255  0.79370008  0.91457781  1
  O  O42  1  0.95472100  0.13570065  0.58684613  1
  O  O43  1  0.18458153  0.03988917  0.58433920  1
  O  O44  1  0.86927236  0.82382589  0.59042897  1
  O  O45  1  0.95455353  0.82382589  0.09042897  1
  O  O46  1  0.85530765  0.03988917  0.08433920  1
  O  O47  1  0.18097965  0.13570065  0.08684613  1
  O  O48  1  0.65234454  0.12703308  0.74791081  1
  O  O49  1  0.46133312  0.34646249  0.74325508  1
  O  O50  1  0.87548913  0.54514608  0.74345186  1
  O  O51  1  0.66965795  0.54514608  0.24345186  1
  O  O52  1  0.88513036  0.34646249  0.24325508  1
  O  O53  1  0.47468955  0.12703308  0.24791081  1
  O  O54  1  0.62138800  0.46903365  0.92017913  1
  O  O55  1  0.85124853  0.37322217  0.91767220  1
  O  O56  1  0.53593936  0.15715889  0.92376197  1
  O  O57  1  0.62122053  0.15715889  0.42376197  1
  O  O58  1  0.52197465  0.37322217  0.41767220  1
  O  O59  1  0.84764665  0.46903365  0.42017913  1
  O  O60  1  0.31901054  0.46036708  0.08124481  1
  O  O61  1  0.12799912  0.67979649  0.07658908  1
  O  O62  1  0.54215513  0.87848008  0.07678586  1
  O  O63  1  0.33632395  0.87848008  0.57678586  1
  O  O64  1  0.55179636  0.67979649  0.57658908  1
  O  O65  1  0.14135555  0.46036708  0.58124481  1
  O  O66  1  0.28805400  0.80236765  0.25351313  1
  O  O67  1  0.51791453  0.70655617  0.25100620  1
  O  O68  1  0.20260536  0.49049289  0.25709597  1
  O  O69  1  0.28788653  0.49049289  0.75709597  1
  O  O70  1  0.18864065  0.70655617  0.75100620  1
  O  O71  1  0.51431265  0.80236765  0.75351313  1
loop_
_geom_bond_atom_site_label_1
_geom_bond_atom_site_label_2
_geom_bond_distance
_geom_bond_site_symmetry_2
Na0 O52 2.313907 1_555
Na0 O15 2.353522 1_555
Na0 O66 2.357254 1_655
Na0 O51 2.549673 1_555
Na0 O30 2.762540 1_655
Na0 O11 2.796453 1_655
Na0 O68 2.876919 1_655
Na0 O0 3.053633 1_655
Na0 O1 3.093692 1_555
Na1 O49 2.313906 1_555
Na1 O14 2.353524 1_555
Na1 O71 2.357262 1_555
Na1 O50 2.549682 1_555
Na1 O35 2.762544 1_555
Na1 O6 2.796453 1_555
Na1 O69 2.876927 1_555
Na1 O5 3.053633 1_555
Na1 O4 3.093692 1_655
Na2 O64 2.313898 1_555
Na2 O27 2.353503 1_555
Na2 O42 2.357254 1_565
Na2 O63 2.549684 1_555
Na2 O6 2.762540 1_555
Na2 O23 2.796453 1_565
Na2 O44 2.876919 1_555
Na2 O12 3.053633 1_565
Na2 O13 3.093692 1_565
Na3 O61 2.313901 1_555
Na3 O26 2.353498 1_554
Na3 O47 2.357262 1_565
Na3 O62 2.549666 1_555
Na3 O11 2.762544 1_555
Na3 O18 2.796453 1_565
Na3 O45 2.876927 1_455
Na3 O17 3.053633 1_565
Na3 O16 3.093692 1_565
Na4 O40 2.313907 1_555
Na4 O3 2.353522 1_555
Na4 O54 2.357260 1_555
Na4 O39 2.549673 1_555
Na4 O18 2.762526 1_556
Na4 O35 2.796453 1_555
Na4 O56 2.876931 1_555
Na4 O24 3.053633 1_555
Na4 O25 3.093692 1_555
Na5 O37 2.313906 1_555
Na5 O2 2.353524 1_655
Na5 O59 2.357245 1_555
Na5 O38 2.549682 1_655
Na5 O23 2.762519 1_555
Na5 O30 2.796453 1_655
Na5 O57 2.876915 1_555
Na5 O29 3.053633 1_655
Na5 O28 3.093692 1_655
Na6 O43 2.313172 1_565
Na6 O36 2.363362 1_455
Na6 O44 2.425998 1_455
Na6 O42 2.602438 1_465
Na6 O38 2.886081 1_565
Na6 O37 2.949373 1_465
Na7 O46 2.313172 1_566
Na7 O41 2.363361 1_555
Na7 O45 2.425998 1_556
Na7 O47 2.602438 1_666
Na7 O39 2.886081 1_665
Na7 O40 2.949373 1_665
Na8 O55 2.313172 1_555
Na8 O48 2.363362 1_555
Na8 O56 2.425998 1_555
Na8 O54 2.602438 1_555
Na8 O50 2.886081 1_555
Na8 O49 2.949373 1_555
Na9 O58 2.313172 1_555
Na9 O53 2.363361 1_555
Na9 O57 2.425998 1_555
Na9 O59 2.602438 1_555
Na9 O51 2.886081 1_555
Na9 O52 2.949373 1_555
Na10 O67 2.313172 1_555
Na10 O60 2.363362 1_555
Na10 O68 2.425998 1_555
Na10 O66 2.602438 1_555
Na10 O62 2.886081 1_555
Na10 O61 2.949373 1_555
Na11 O70 2.313172 1_555
Na11 O65 2.363361 1_555
Na11 O69 2.425998 1_555
Na11 O71 2.602438 1_555
Na11 O63 2.886081 1_555
Na11 O64 2.949373 1_555
Ca0 O1 2.138167 1_555
Ca0 O0 2.140003 1_655
Ca0 O2 2.214575 1_665
Ca0 O36 2.239790 1_555
Ca0 O38 2.247107 1_665
Ca0 O37 2.252735 1_565
Ca1 O4 2.138167 1_655
Ca1 O5 2.140003 1_555
Ca1 O3 2.214575 1_665
Ca1 O41 2.239790 1_555
Ca1 O39 2.247107 1_665
Ca1 O40 2.252735 1_665
Ca2 O13 2.138167 1_555
Ca2 O12 2.140003 1_555
Ca2 O14 2.214575 1_555
Ca2 O48 2.239790 1_555
Ca2 O50 2.247107 1_555
Ca2 O49 2.252735 1_555
Ca3 O16 2.138167 1_555
Ca3 O17 2.140003 1_555
Ca3 O15 2.214575 1_555
Ca3 O53 2.239790 1_555
Ca3 O51 2.247107 1_555
Ca3 O52 2.252735 1_555
Ca4 O25 2.138167 1_554
Ca4 O24 2.140003 1_554
Ca4 O26 2.214575 1_554
Ca4 O60 2.239790 1_555
Ca4 O62 2.247107 1_555
Ca4 O61 2.252735 1_555
Ca5 O28 2.138167 1_555
Ca5 O29 2.140003 1_555
Ca5 O27 2.214575 1_555
Ca5 O65 2.239790 1_555
Ca5 O63 2.247107 1_555
Ca5 O64 2.252735 1_555
Ge0 O7 1.902647 1_655
Ge0 O42 1.913470 1_555
Ge0 O44 1.946045 1_545
Ge0 O6 1.950781 1_545
Ge0 O43 2.213484 1_655
Ge0 O8 2.282087 1_645
Ge1 O10 1.902647 1_555
Ge1 O47 1.913470 1_555
Ge1 O45 1.946045 1_445
Ge1 O11 1.950781 1_545
Ge1 O46 2.213484 1_455
Ge1 O9 2.282087 1_445
Ge2 O19 1.902647 1_556
Ge2 O54 1.913470 1_555
Ge2 O56 1.946045 1_555
Ge2 O18 1.950781 1_556
Ge2 O55 2.213484 1_555
Ge2 O20 2.282087 1_556
Ge3 O22 1.902647 1_555
Ge3 O59 1.913470 1_555
Ge3 O57 1.946045 1_555
Ge3 O23 1.950781 1_555
Ge3 O58 2.213484 1_555
Ge3 O21 2.282087 1_555
Ge4 O31 1.902647 1_555
Ge4 O66 1.913470 1_555
Ge4 O68 1.946045 1_555
Ge4 O30 1.950781 1_555
Ge4 O67 2.213484 1_555
Ge4 O32 2.282087 1_555
Ge5 O34 1.902647 1_555
Ge5 O71 1.913470 1_555
Ge5 O69 1.946045 1_555
Ge5 O35 1.950781 1_555
Ge5 O70 2.213484 1_555
Ge5 O33 2.282087 1_555
O0 P0 1.486245 1_555
O1 S0 1.446287 1_555
O2 P1 1.497843 1_555
O3 P2 1.497843 1_555
O4 S1 1.446287 1_555
O5 P3 1.486245 1_555
O6 P3 1.634087 1_555
O7 P2 1.625822 1_555
O8 S1 1.511704 1_555
O9 S0 1.511704 1_555
O10 P1 1.625822 1_555
O11 P0 1.634087 1_555
O12 P4 1.486245 1_555
O13 S2 1.446287 1_555
O14 P5 1.497843 1_555
O15 P6 1.497843 1_555
O16 S3 1.446287 1_555
O17 P7 1.486245 1_555
O18 P7 1.634087 1_555
O19 P6 1.625822 1_555
O20 S3 1.511704 1_555
O21 S2 1.511704 1_555
O22 P5 1.625822 1_555
O23 P4 1.634087 1_555
O24 P8 1.486245 1_555
O25 S4 1.446287 1_555
O26 P9 1.497843 1_555
O27 P10 1.497843 1_555
O28 S5 1.446287 1_555
O29 P11 1.486245 1_555
O30 P11 1.634087 1_555
O31 P10 1.625822 1_555
O32 S5 1.511704 1_555
O33 S4 1.511704 1_555
O34 P9 1.625822 1_555
O35 P8 1.634087 1_555
O36 P11 1.505765 1_655
O37 P10 1.521048 1_545
O38 S5 1.476754 1_555
O39 S4 1.476758 1_555
O40 P9 1.521039 1_545
O41 P8 1.505771 1_555
O42 P4 1.619077 1_555
O43 S2 1.507543 1_555
O44 P5 1.611194 1_555
O45 P6 1.611198 1_555
O46 S3 1.507534 1_555
O47 P7 1.619081 1_555
O48 P3 1.505765 1_545
O49 P2 1.521048 1_555
O50 S1 1.476754 1_655
O51 S0 1.476758 1_555
O52 P1 1.521039 1_655
O53 P0 1.505771 1_545
O54 P8 1.619089 1_555
O55 S4 1.507529 1_655
O56 P9 1.611193 1_545
O57 P10 1.611185 1_545
O58 S5 1.507548 1_555
O59 P11 1.619080 1_655
O60 P7 1.505778 1_555
O61 P6 1.521033 1_455
O62 S3 1.476752 1_565
O63 S2 1.476745 1_565
O64 P5 1.521050 1_555
O65 P4 1.505766 1_455
O66 P0 1.619077 1_555
O67 S0 1.507543 1_555
O68 P1 1.611194 1_555
O69 P2 1.611198 1_555
O70 S1 1.507534 1_555
O71 P3 1.619081 1_555
