# generated using pymatgen
data_Zr3(Cu2Si3)2
_symmetry_space_group_name_H-M   'P 1'
_cell_length_a   3.71291865
_cell_length_b   3.71291872
_cell_length_c   14.31151115
_cell_angle_alpha   97.45821338
_cell_angle_beta   97.45821117
_cell_angle_gamma   89.99249607
_symmetry_Int_Tables_number   1
_chemical_formula_structural   Zr3(Cu2Si3)2
_chemical_formula_sum   'Zr3 Cu4 Si6'
_cell_volume   193.94289335
_cell_formula_units_Z   1
loop_
 _symmetry_equiv_pos_site_id
 _symmetry_equiv_pos_as_xyz
  1  'x, y, z'
loop_
 _atom_site_type_symbol
 _atom_site_label
 _atom_site_symmetry_multiplicity
 _atom_site_fract_x
 _atom_site_fract_y
 _atom_site_fract_z
 _atom_site_occupancy
  Zr  Zr0  1  0.00000070  0.00000073  0.00000140  1
  Zr  Zr1  1  0.67400219  0.67400225  0.34911718  1
  Zr  Zr2  1  0.32599541  0.32599527  0.65087883  1
  Cu  Cu0  1  0.41157704  0.91161345  0.81955122  1
  Cu  Cu1  1  0.91161336  0.41157700  0.81955113  1
  Cu  Cu2  1  0.58842413  0.08838793  0.18045038  1
  Cu  Cu3  1  0.08838789  0.58842410  0.18045039  1
  Si  Si0  1  0.25001346  0.74998650  0.50000015  1
  Si  Si1  1  0.74998649  0.25001348  0.50000014  1
  Si  Si2  1  0.54005728  0.54005727  0.08216346  1
  Si  Si3  1  0.45994297  0.45994296  0.91783697  1
  Si  Si4  1  0.14438930  0.14438919  0.29030378  1
  Si  Si5  1  0.85560976  0.85560986  0.70969498  1
loop_
_geom_bond_atom_site_label_1
_geom_bond_atom_site_label_2
_geom_bond_distance
_geom_bond_site_symmetry_2
Cu0 Si3 2.312314 1_565
Cu0 Si3 2.317313 1_555
Cu0 Si5 2.412695 1_555
Cu0 Si5 2.418462 1_455
Cu0 Cu1 2.625067 1_465
Cu0 Cu1 2.625449 1_555
Cu0 Cu1 2.625602 1_565
Cu0 Cu1 2.625602 1_455
Cu0 Zr2 3.010028 1_565
Cu0 Zr2 3.015692 1_555
Cu0 Zr0 3.140974 1_666
Cu0 Zr0 3.149079 1_566
Cu1 Si3 2.312315 1_655
Cu1 Si3 2.317313 1_555
Cu1 Si5 2.412694 1_555
Cu1 Si5 2.418460 1_545
Cu1 Zr2 3.010027 1_655
Cu1 Zr2 3.015690 1_555
Cu1 Zr0 3.140975 1_666
Cu1 Zr0 3.149080 1_656
Cu2 Si2 2.312326 1_545
Cu2 Si2 2.317321 1_555
Cu2 Si4 2.412671 1_555
Cu2 Si4 2.418434 1_655
Cu2 Cu3 2.625068 1_645
Cu2 Cu3 2.625448 1_555
Cu2 Cu3 2.625602 1_655
Cu2 Cu3 2.625602 1_545
Cu2 Zr1 3.009968 1_545
Cu2 Zr1 3.015627 1_555
Cu2 Zr0 3.140961 1_555
Cu2 Zr0 3.149064 1_655
Cu3 Si2 2.312326 1_455
Cu3 Si2 2.317321 1_555
Cu3 Si4 2.412671 1_555
Cu3 Si4 2.418434 1_565
Cu3 Zr1 3.009968 1_455
Cu3 Zr1 3.015627 1_555
Cu3 Zr0 3.140961 1_555
Cu3 Zr0 3.149065 1_565
Si0 Si1 2.625116 1_555
Si0 Si1 2.625400 1_465
Si0 Si1 2.625602 1_455
Si0 Si1 2.625602 1_565
Si0 Zr2 2.818622 1_555
Si0 Zr1 2.818667 1_555
Si0 Zr2 2.821213 1_565
Si0 Zr1 2.821259 1_455
Si1 Zr2 2.818622 1_555
Si1 Zr1 2.818667 1_555
Si1 Zr2 2.821213 1_655
Si1 Zr1 2.821259 1_545
Si2 Si3 2.311828 1_554
Si2 Zr0 2.863746 1_555
Si2 Zr0 2.868463 1_655
Si2 Zr0 2.868463 1_565
Si2 Zr0 2.873800 1_665
Si3 Zr0 2.863759 1_666
Si3 Zr0 2.868476 1_656
Si3 Zr0 2.868476 1_566
Si3 Zr0 2.873814 1_556
Si4 Zr1 2.751931 1_445
Si4 Zr1 2.752559 1_545
Si4 Zr1 2.752560 1_455
Si4 Zr1 2.753843 1_555
Si5 Zr2 2.751943 1_665
Si5 Zr2 2.752570 1_565
Si5 Zr2 2.752572 1_655
Si5 Zr2 2.753855 1_555
