# generated using pymatgen
data_Er4Ni13C4
_symmetry_space_group_name_H-M   'P 1'
_cell_length_a   8.29186176
_cell_length_b   8.29186820
_cell_length_c   3.80725466
_cell_angle_alpha   89.99997290
_cell_angle_beta   90.00000197
_cell_angle_gamma   91.31364867
_symmetry_Int_Tables_number   1
_chemical_formula_structural   Er4Ni13C4
_chemical_formula_sum   'Er4 Ni13 C4'
_cell_volume   261.69909004
_cell_formula_units_Z   1
loop_
 _symmetry_equiv_pos_site_id
 _symmetry_equiv_pos_as_xyz
  1  'x, y, z'
loop_
 _atom_site_type_symbol
 _atom_site_label
 _atom_site_symmetry_multiplicity
 _atom_site_fract_x
 _atom_site_fract_y
 _atom_site_fract_z
 _atom_site_occupancy
  Er  Er0  1  0.34776251  0.34776576  0.50000011  1
  Er  Er1  1  0.65224011  0.65223730  0.49999971  1
  Er  Er2  1  0.18694350  0.81305511  0.50000025  1
  Er  Er3  1  0.81305447  0.18694201  0.49999842  1
  Ni  Ni0  1  0.49999200  0.00000602  0.49999688  1
  Ni  Ni1  1  0.00000705  0.49999164  0.50000302  1
  Ni  Ni2  1  0.00000868  0.00000642  -0.00000190  1
  Ni  Ni3  1  0.42985229  0.78469086  0.00000016  1
  Ni  Ni4  1  0.57014078  0.21530987  0.99999888  1
  Ni  Ni5  1  0.78469350  0.42985246  0.99999735  1
  Ni  Ni6  1  0.21530795  0.57013968  1.00000208  1
  Ni  Ni7  1  0.70946278  0.92515757  0.00000176  1
  Ni  Ni8  1  0.29053414  0.07484246  0.00000006  1
  Ni  Ni9  1  0.92515975  0.70945902  1.00000168  1
  Ni  Ni10  1  0.07484132  0.29054040  0.00000060  1
  Ni  Ni11  1  0.87638849  0.87638750  0.50000212  1
  Ni  Ni12  1  0.12361246  0.12361527  0.49999956  1
  C  C0  1  -0.00000046  0.49999850  0.00000227  1
  C  C1  1  0.49999739  1.00000047  -0.00000255  1
  C  C2  1  0.55723441  0.44276860  0.99999936  1
  C  C3  1  0.44276690  0.55723308  0.00000019  1
loop_
_geom_bond_atom_site_label_1
_geom_bond_atom_site_label_2
_geom_bond_distance
_geom_bond_site_symmetry_2
Er0 Ni12 2.598187 1_555
Er0 Ni6 2.884930 1_554
Er0 Ni6 2.884941 1_555
Er0 Ni4 2.884959 1_555
Er0 Ni4 2.884966 1_554
Er0 Ni10 2.986803 1_555
Er0 Ni10 2.986805 1_556
Er0 Ni8 2.986821 1_556
Er0 Ni8 2.986823 1_555
Er0 Ni1 3.174103 1_555
Er0 Ni0 3.174150 1_555
Er1 Ni11 2.598175 1_555
Er1 Ni5 2.884984 1_555
Er1 Ni5 2.884997 1_554
Er1 Ni3 2.885005 1_555
Er1 Ni3 2.885008 1_556
Er1 Ni9 2.986785 1_554
Er1 Ni7 2.986791 1_555
Er1 Ni9 2.986795 1_555
Er1 Ni7 2.986802 1_556
Er1 Ni1 3.174259 1_655
Er1 Ni0 3.174283 1_565
Er2 Ni11 2.639851 1_455
Er2 Ni12 2.639892 1_565
Er2 Ni3 2.785264 1_556
Er2 Ni3 2.785265 1_555
Er2 Ni6 2.785302 1_554
Er2 Ni6 2.785310 1_555
Er2 Ni2 2.922260 1_566
Er2 Ni2 2.922269 1_565
Er2 Ni0 2.992738 1_565
Er2 Ni1 2.992785 1_555
Er2 Ni9 2.998000 1_454
Er2 Ni9 2.998006 1_455
Er2 Ni8 2.998013 1_565
Er2 Ni8 2.998013 1_566
Er3 Ni11 2.639852 1_545
Er3 Ni12 2.639865 1_655
Er3 Ni5 2.785271 1_555
Er3 Ni5 2.785275 1_554
Er3 Ni4 2.785296 1_554
Er3 Ni4 2.785298 1_555
Er3 Ni2 2.922280 1_656
Er3 Ni2 2.922282 1_655
Er3 Ni1 2.992754 1_655
Er3 Ni0 2.992775 1_555
Er3 Ni7 2.997991 1_545
Er3 Ni7 2.998006 1_546
Er3 Ni10 2.998021 1_655
Er3 Ni10 2.998032 1_656
Ni0 Ni8 2.659828 1_555
Ni0 Ni8 2.659846 1_556
Ni0 Ni7 2.659919 1_545
Ni0 Ni7 2.659945 1_546
Ni0 Ni4 2.664897 1_554
Ni0 Ni4 2.664909 1_555
Ni0 Ni3 2.664942 1_545
Ni0 Ni3 2.664959 1_546
Ni1 Ni10 2.659790 1_556
Ni1 Ni10 2.659805 1_555
Ni1 Ni9 2.659909 1_455
Ni1 Ni9 2.659915 1_454
Ni1 Ni6 2.664883 1_555
Ni1 Ni6 2.664887 1_554
Ni1 Ni5 2.664924 1_455
Ni1 Ni5 2.664955 1_454
Ni2 Ni8 2.473820 1_555
Ni2 Ni7 2.474008 1_445
Ni2 Ni9 2.474022 1_444
Ni3 Ni6 2.486881 1_554
Ni3 Ni7 2.570639 1_555
Ni4 Ni5 2.486880 1_555
Ni4 Ni8 2.570613 1_556
Ni5 Ni9 2.570610 1_555
Ni7 Ni9 2.558202 1_554
Ni10 Ni12 2.393487 1_555
Ni10 Ni12 2.393494 1_554
Ni10 Ni2 2.473883 1_555
Ni10 Ni8 2.558174 1_555
Ni10 Ni6 2.570557 1_554
Ni11 Ni2 2.382638 1_666
Ni11 Ni2 2.382662 1_665
Ni11 Ni7 2.393490 1_556
Ni11 Ni7 2.393492 1_555
Ni11 Ni9 2.393505 1_555
Ni11 Ni9 2.393508 1_554
Ni11 Ni12 2.865662 1_665
Ni12 Ni2 2.382553 1_556
Ni12 Ni2 2.382563 1_555
Ni12 Ni8 2.393474 1_555
Ni12 Ni8 2.393477 1_556
C0 Ni10 1.857688 1_555
C0 Ni9 1.857701 1_454
C0 Ni5 1.864926 1_454
C0 Ni6 1.864933 1_554
C0 Ni1 1.903624 1_554
C0 Ni1 1.903630 1_555
C1 Ni8 1.857728 1_565
C1 Ni7 1.857748 1_555
C1 Ni4 1.864947 1_564
C1 Ni3 1.864953 1_555
C1 Ni0 1.903625 1_565
C1 Ni0 1.903630 1_564
C2 C3 1.357581 1_556
C2 Ni4 1.891539 1_555
C2 Ni5 1.891547 1_555
C2 Er1 2.682986 1_555
C2 Er1 2.682989 1_556
C2 Er0 2.682996 1_555
C2 Er0 2.682999 1_556
C3 Ni3 1.891537 1_555
C3 Ni6 1.891540 1_554
C3 Er0 2.682977 1_555
C3 Er0 2.682978 1_554
C3 Er1 2.683007 1_555
C3 Er1 2.683009 1_554
