# generated using pymatgen
data_Sr2EuCu3(PbO4)2
_symmetry_space_group_name_H-M   'P 1'
_cell_length_a   3.84361300
_cell_length_b   3.84361300
_cell_length_c   16.12272400
_cell_angle_alpha   90.00000000
_cell_angle_beta   90.00000000
_cell_angle_gamma   90.00000000
_symmetry_Int_Tables_number   1
_chemical_formula_structural   Sr2EuCu3(PbO4)2
_chemical_formula_sum   'Sr2 Eu1 Cu3 Pb2 O8'
_cell_volume   238.18682024
_cell_formula_units_Z   1
loop_
 _symmetry_equiv_pos_site_id
 _symmetry_equiv_pos_as_xyz
  1  'x, y, z'
loop_
 _atom_site_type_symbol
 _atom_site_label
 _atom_site_symmetry_multiplicity
 _atom_site_fract_x
 _atom_site_fract_y
 _atom_site_fract_z
 _atom_site_occupancy
  Sr  Sr0  1  0.00000000  0.00000000  0.77782100  1
  Sr  Sr1  1  0.00000000  0.00000000  0.22217900  1
  Eu  Eu0  1  0.00000000  0.00000000  0.00000000  1
  Cu  Cu0  1  0.00000000  0.00000000  0.50000000  1
  Cu  Cu1  1  0.50000000  0.50000000  0.89105800  1
  Cu  Cu2  1  0.50000000  0.50000000  0.10894200  1
  Pb  Pb0  1  0.50000000  0.50000000  0.38809100  1
  Pb  Pb1  1  0.50000000  0.50000000  0.61190900  1
  O  O0  1  0.00000000  0.50000000  0.90253000  1
  O  O1  1  0.50000000  0.00000000  0.09747000  1
  O  O2  1  0.00000000  0.50000000  0.09747000  1
  O  O3  1  0.50000000  0.00000000  0.90253000  1
  O  O4  1  0.00000000  0.00000000  0.38470600  1
  O  O5  1  0.50000000  0.50000000  0.74707700  1
  O  O6  1  0.50000000  0.50000000  0.25292300  1
  O  O7  1  0.00000000  0.00000000  0.61529400  1
loop_
_geom_bond_atom_site_label_1
_geom_bond_atom_site_label_2
_geom_bond_distance
_geom_bond_site_symmetry_2
Eu0 O0 2.482518 1_544
Eu0 O0 2.482518 1_554
Eu0 O3 2.482518 1_554
Eu0 O3 2.482518 1_454
Eu0 O2 2.482518 1_545
Eu0 O1 2.482518 1_455
Eu0 O1 2.482518 1_555
Eu0 O2 2.482518 1_555
Cu0 O4 1.858853 1_555
Cu0 O7 1.858853 1_555
Cu1 O3 1.930687 1_555
Cu1 O0 1.930687 1_555
Cu1 O3 1.930687 1_565
Cu1 O0 1.930687 1_655
Cu1 O5 2.321366 1_555
Cu2 O1 1.930687 1_565
Cu2 O2 1.930687 1_555
Cu2 O2 1.930687 1_655
Cu2 O1 1.930687 1_555
Cu2 O6 2.321366 1_555
O0 Sr0 2.781375 1_565
O0 Sr0 2.781375 1_555
O1 Sr1 2.781375 1_655
O1 Sr1 2.781375 1_555
O2 Sr1 2.781375 1_565
O2 Sr1 2.781375 1_555
O3 Sr0 2.781375 1_655
O3 Sr0 2.781375 1_555
O4 Sr1 2.620378 1_555
O4 Pb0 2.718393 1_555
O4 Pb0 2.718393 1_545
O4 Pb0 2.718393 1_445
O4 Pb0 2.718393 1_455
O5 Pb1 2.179276 1_555
O5 Sr0 2.762676 1_565
O5 Sr0 2.762676 1_655
O5 Sr0 2.762676 1_555
O5 Sr0 2.762676 1_665
O6 Pb0 2.179276 1_555
O6 Sr1 2.762676 1_565
O6 Sr1 2.762676 1_665
O6 Sr1 2.762676 1_655
O6 Sr1 2.762676 1_555
O7 Sr0 2.620378 1_555
O7 Pb1 2.718393 1_555
O7 Pb1 2.718393 1_455
O7 Pb1 2.718393 1_445
O7 Pb1 2.718393 1_545
