# generated using pymatgen
data_Na8Mg(FeO4)2
_symmetry_space_group_name_H-M   'P 1'
_cell_length_a   5.78128034
_cell_length_b   5.75159582
_cell_length_c   9.00168500
_cell_angle_alpha   75.69315337
_cell_angle_beta   82.74943541
_cell_angle_gamma   70.47697641
_symmetry_Int_Tables_number   1
_chemical_formula_structural   Na8Mg(FeO4)2
_chemical_formula_sum   'Na8 Mg1 Fe2 O8'
_cell_volume   273.05015967
_cell_formula_units_Z   1
loop_
 _symmetry_equiv_pos_site_id
 _symmetry_equiv_pos_as_xyz
  1  'x, y, z'
loop_
 _atom_site_type_symbol
 _atom_site_label
 _atom_site_symmetry_multiplicity
 _atom_site_fract_x
 _atom_site_fract_y
 _atom_site_fract_z
 _atom_site_occupancy
  Na  Na0  1  0.24210594  0.63668686  0.40696392  1
  Na  Na1  1  0.74723215  0.48624320  0.59192527  1
  Na  Na2  1  0.74586389  0.19277560  0.00760342  1
  Na  Na3  1  0.27761995  0.77563833  0.02739820  1
  Na  Na4  1  0.81553142  0.01951602  0.46355033  1
  Na  Na5  1  0.23345773  0.92543229  0.70182263  1
  Na  Na6  1  0.18745497  0.35761697  0.07348321  1
  Na  Na7  1  0.74785496  0.74458069  0.83322502  1
  Mg  Mg0  1  0.36664905  0.17034625  0.37709186  1
  Fe  Fe0  1  0.27591768  0.39483261  0.73769109  1
  Fe  Fe1  1  0.73249039  0.58001972  0.24731562  1
  O  O0  1  0.86183364  0.74000011  0.06515022  1
  O  O1  1  0.14086062  0.17444835  0.88791851  1
  O  O2  1  0.00861400  0.31460487  0.35301469  1
  O  O3  1  0.02766991  0.68713794  0.63456683  1
  O  O4  1  0.47393021  0.52398132  0.82989139  1
  O  O5  1  0.49957442  0.41648093  0.21702835  1
  O  O6  1  0.55368822  0.81689781  0.37339728  1
  O  O7  1  0.44706786  0.21984313  0.57721215  1
loop_
_geom_bond_atom_site_label_1
_geom_bond_atom_site_label_2
_geom_bond_distance
_geom_bond_site_symmetry_2
Na0 O3 2.287134 1_555
Na0 O6 2.316509 1_555
Na0 O5 2.431204 1_555
Na0 O7 2.498892 1_555
Na0 O2 2.787683 1_555
Na0 Na4 2.792397 1_465
Na1 O3 2.395703 1_655
Na1 O6 2.454130 1_555
Na1 O4 2.505682 1_555
Na1 O2 2.667400 1_655
Na1 O7 2.704089 1_555
Na1 Na7 2.920008 1_555
Na1 Na4 3.067078 1_555
Na2 O1 2.379249 1_654
Na2 O0 2.398665 1_545
Na2 O4 2.405528 1_554
Na2 O5 2.556083 1_555
Na2 Na6 3.069449 1_555
Na2 Na6 3.169542 1_655
Na3 O1 2.253460 1_564
Na3 O5 2.422003 1_555
Na3 O0 2.454454 1_455
Na3 O4 2.491702 1_554
Na3 Na6 2.552362 1_555
Na3 Na5 2.861916 1_554
Na3 Na7 3.017930 1_554
Na4 O3 2.232408 1_645
Na4 O2 2.295203 1_655
Na4 O7 2.303073 1_555
Na4 O6 2.502967 1_545
Na4 O5 3.034074 1_555
Na5 O3 2.311314 1_555
Na5 O4 2.353014 1_555
Na5 O1 2.364545 1_565
Na5 O7 2.399987 1_565
Na5 Na7 3.088257 1_555
Na6 O1 2.268405 1_554
Na6 O0 2.360793 1_455
Na6 O5 2.500677 1_555
Na6 O2 2.582316 1_555
Na6 O4 2.751765 1_554
Na7 O0 2.258744 1_556
Na7 O3 2.264623 1_655
Na7 O4 2.343594 1_555
Mg0 O6 1.964213 1_545
Mg0 O2 1.973924 1_555
Mg0 O7 2.023769 1_555
Mg0 O5 2.027370 1_555
Mg0 Na4 2.600832 1_555
Mg0 Na0 2.608016 1_555
Mg0 Na6 2.866464 1_555
Mg0 Na5 3.040331 1_545
Fe0 O1 1.895490 1_555
Fe0 O4 1.914145 1_555
Fe0 O3 1.923609 1_555
Fe0 O7 1.941908 1_555
Fe1 O0 1.870668 1_555
Fe1 O6 1.933816 1_555
Fe1 O2 1.954680 1_655
Fe1 O5 1.959141 1_555
