# generated using pymatgen
data_Al2(FeSi)3
_symmetry_space_group_name_H-M   'P 1'
_cell_length_a   4.55711018
_cell_length_b   6.26480012
_cell_length_c   7.38622215
_cell_angle_alpha   101.83111316
_cell_angle_beta   106.77241623
_cell_angle_gamma   100.60534069
_symmetry_Int_Tables_number   1
_chemical_formula_structural   Al2(FeSi)3
_chemical_formula_sum   'Al4 Fe6 Si6'
_cell_volume   190.84110148
_cell_formula_units_Z   2
loop_
 _symmetry_equiv_pos_site_id
 _symmetry_equiv_pos_as_xyz
  1  'x, y, z'
loop_
 _atom_site_type_symbol
 _atom_site_label
 _atom_site_symmetry_multiplicity
 _atom_site_fract_x
 _atom_site_fract_y
 _atom_site_fract_z
 _atom_site_occupancy
  Al  Al0  1  0.41306651  0.67480717  0.05040787  1
  Al  Al1  1  0.94867981  0.35526301  0.72786205  1
  Al  Al2  1  0.05132019  0.64473699  0.27213795  1
  Al  Al3  1  0.58693349  0.32519283  0.94959213  1
  Fe  Fe0  1  0.63544106  0.97206592  0.76741800  1
  Fe  Fe1  1  0.36455894  0.02793408  0.23258200  1
  Fe  Fe2  1  0.86547872  0.68172723  0.94301256  1
  Fe  Fe3  1  0.13452128  0.31827277  0.05698744  1
  Fe  Fe4  1  0.96099274  0.70843084  0.58579494  1
  Fe  Fe5  1  0.03900726  0.29156916  0.41420506  1
  Si  Si0  1  0.54197870  0.41322428  0.34793542  1
  Si  Si1  1  0.27546273  0.04160010  0.53242664  1
  Si  Si2  1  0.45802130  0.58677572  0.65206458  1
  Si  Si3  1  0.81985462  0.02290327  0.11242062  1
  Si  Si4  1  0.18014538  0.97709673  0.88757938  1
  Si  Si5  1  0.72453727  0.95839990  0.46757336  1
loop_
_geom_bond_atom_site_label_1
_geom_bond_atom_site_label_2
_geom_bond_distance
_geom_bond_site_symmetry_2
Al0 Fe3 2.374695 1_555
Al0 Fe2 2.402022 1_454
Al0 Fe2 2.409724 1_554
Al0 Fe1 2.425822 1_565
Al0 Si3 2.452406 1_565
Al0 Al3 2.507998 1_554
Al0 Al2 2.646832 1_555
Al0 Si4 2.663951 1_554
Al0 Al1 2.781549 1_454
Al0 Si2 2.954159 1_554
Al0 Al2 2.959151 1_655
Al0 Si0 2.991011 1_555
Al0 Si5 2.994707 1_555
Al1 Fe3 2.407424 1_656
Al1 Fe5 2.434692 1_655
Al1 Fe2 2.480437 1_555
Al1 Si5 2.625426 1_545
Al1 Fe4 2.634357 1_555
Al1 Al3 2.646832 1_555
Al1 Fe0 2.674526 1_545
Al1 Si2 2.765585 1_655
Al1 Si2 2.867206 1_555
Al1 Al3 2.959151 1_655
Al1 Si0 3.017549 1_555
Al1 Si1 3.052452 1_655
Al1 Si1 3.069064 1_555
Al2 Fe2 2.407424 1_454
Al2 Fe4 2.434692 1_455
Al2 Fe3 2.480437 1_555
Al2 Si1 2.625426 1_565
Al2 Fe5 2.634357 1_555
Al2 Fe1 2.674526 1_565
Al2 Si0 2.765585 1_455
Al2 Al3 2.781549 1_454
Al2 Si0 2.867206 1_555
Al2 Si2 3.017549 1_555
Al2 Si5 3.052452 1_455
Al2 Si5 3.069064 1_555
Al3 Fe2 2.374695 1_555
Al3 Fe3 2.402022 1_656
Al3 Fe3 2.409724 1_556
Al3 Fe0 2.425822 1_545
Al3 Si4 2.452406 1_545
Al3 Si3 2.663951 1_556
Al3 Si0 2.954159 1_556
Al3 Si2 2.991011 1_555
Al3 Si1 2.994707 1_555
Fe0 Si1 2.196198 1_565
Fe0 Si2 2.290562 1_555
Fe0 Si5 2.351847 1_555
Fe0 Si3 2.373618 1_566
Fe0 Si4 2.374583 1_655
Fe0 Si4 2.483758 1_555
Fe0 Fe2 2.640847 1_555
Fe1 Si5 2.196198 1_545
Fe1 Si0 2.290562 1_555
Fe1 Si1 2.351847 1_555
Fe1 Si4 2.373618 1_544
Fe1 Si3 2.374583 1_455
Fe1 Si3 2.483758 1_555
Fe1 Fe3 2.640847 1_555
Fe2 Si2 2.277311 1_555
Fe2 Si4 2.306694 1_655
Fe2 Si3 2.322597 1_566
Fe2 Fe4 2.827734 1_555
Fe3 Si0 2.277311 1_555
Fe3 Si3 2.306694 1_455
Fe3 Si4 2.322597 1_544
Fe3 Fe5 2.827734 1_555
Fe4 Si5 2.239376 1_555
Fe4 Si4 2.314525 1_655
Fe4 Si0 2.363203 1_555
Fe4 Si2 2.469669 1_655
Fe4 Si1 2.475491 1_665
Fe4 Si2 2.496326 1_555
Fe4 Fe5 2.792399 1_655
Fe5 Si1 2.239376 1_555
Fe5 Si3 2.314525 1_455
Fe5 Si2 2.363203 1_555
Fe5 Si0 2.469669 1_455
Fe5 Si5 2.475491 1_445
Fe5 Si0 2.496326 1_555
Si0 Si2 2.454043 1_555
Si1 Si5 2.350794 1_445
Si1 Si5 2.354838 1_545
Si1 Si4 2.874204 1_545
Si3 Si4 2.662305 1_644
Si3 Si4 2.835733 1_544
Si3 Si5 2.874204 1_545
