# generated using pymatgen
data_LiMnP2O7
_symmetry_space_group_name_H-M   'P 1'
_cell_length_a   8.13367403
_cell_length_b   6.80489204
_cell_length_c   9.16452792
_cell_angle_alpha   69.22702243
_cell_angle_beta   90.00000000
_cell_angle_gamma   90.00000000
_symmetry_Int_Tables_number   1
_chemical_formula_structural   LiMnP2O7
_chemical_formula_sum   'Li4 Mn4 P8 O28'
_cell_volume   474.27090720
_cell_formula_units_Z   4
loop_
 _symmetry_equiv_pos_site_id
 _symmetry_equiv_pos_as_xyz
  1  'x, y, z'
loop_
 _atom_site_type_symbol
 _atom_site_label
 _atom_site_symmetry_multiplicity
 _atom_site_fract_x
 _atom_site_fract_y
 _atom_site_fract_z
 _atom_site_occupancy
  Li  Li0  1  0.43660451  0.20757106  0.91577647  1
  Li  Li1  1  0.93660451  0.79242894  0.58422353  1
  Li  Li2  1  0.06339549  0.20757106  0.41577647  1
  Li  Li3  1  0.56339549  0.79242894  0.08422353  1
  Mn  Mn0  1  0.06995141  0.29959499  0.82480931  1
  Mn  Mn1  1  0.56995141  0.70040501  0.67519069  1
  Mn  Mn2  1  0.43004859  0.29959499  0.32480931  1
  Mn  Mn3  1  0.93004859  0.70040501  0.17519069  1
  P  P0  1  0.72637531  0.45571701  0.47362791  1
  P  P1  1  0.22637531  0.54428299  0.02637209  1
  P  P2  1  0.73886042  0.05536158  0.76361731  1
  P  P3  1  0.23886042  0.94463842  0.73638269  1
  P  P4  1  0.27362469  0.54428299  0.52637209  1
  P  P5  1  0.77362469  0.45571701  0.97362791  1
  P  P6  1  0.26113958  0.94463842  0.23638269  1
  P  P7  1  0.76113958  0.05536158  0.26361731  1
  O  O0  1  0.58110556  0.48508331  0.36193315  1
  O  O1  1  0.88766768  0.45628325  0.39249733  1
  O  O2  1  0.76969069  0.62111206  0.05129884  1
  O  O3  1  0.26969069  0.37888794  0.44870116  1
  O  O4  1  0.41889444  0.51491669  0.63806685  1
  O  O5  1  0.11233232  0.54371675  0.60750267  1
  O  O6  1  0.23030931  0.37888794  0.94870116  1
  O  O7  1  0.73030931  0.62111206  0.55129884  1
  O  O8  1  0.61233232  0.45628325  0.89249733  1
  O  O9  1  0.91889444  0.48508331  0.86193315  1
  O  O10  1  0.31061324  0.76211004  0.39561025  1
  O  O11  1  0.75292235  0.86299540  0.21207086  1
  O  O12  1  0.09027328  0.89435461  0.19173902  1
  O  O13  1  0.38816597  0.96421490  0.11634581  1
  O  O14  1  0.18938676  0.76211004  0.89561025  1
  O  O15  1  0.74707765  0.86299540  0.71207086  1
  O  O16  1  0.88816597  0.03578510  0.38365419  1
  O  O17  1  0.40972672  0.89435461  0.69173902  1
  O  O18  1  0.59027328  0.10564539  0.30826098  1
  O  O19  1  0.11183403  0.96421490  0.61634581  1
  O  O20  1  0.25292235  0.13700460  0.28792914  1
  O  O21  1  0.81061324  0.23788996  0.10438975  1
  O  O22  1  0.61183403  0.03578510  0.88365419  1
  O  O23  1  0.90972672  0.10564539  0.80826098  1
  O  O24  1  0.24707765  0.13700460  0.78792914  1
  O  O25  1  0.68938676  0.23788996  0.60438975  1
  O  O26  1  0.08110556  0.51491669  0.13806685  1
  O  O27  1  0.38766768  0.54371675  0.10750267  1
loop_
_geom_bond_atom_site_label_1
_geom_bond_atom_site_label_2
_geom_bond_distance
_geom_bond_site_symmetry_2
Li0 O22 1.930973 1_555
Li0 O13 2.029069 1_546
Li0 O24 2.092569 1_555
Li0 O6 2.124880 1_555
Li0 O8 2.167198 1_555
Li0 O4 2.663951 1_555
Li1 O19 1.930973 1_655
Li1 O16 2.029069 1_565
Li1 O15 2.092569 1_555
Li1 O7 2.124880 1_555
Li1 O5 2.167198 1_655
Li1 O9 2.663951 1_555
Li2 O16 1.930973 1_455
Li2 O19 2.029069 1_545
Li2 O20 2.092569 1_555
Li2 O3 2.124880 1_555
Li2 O1 2.167198 1_455
Li2 O26 2.663951 1_555
Li3 O13 1.930973 1_555
Li3 O22 2.029069 1_564
Li3 O11 2.092569 1_555
Li3 O2 2.124880 1_555
Li3 O27 2.167198 1_555
Li3 O0 2.663951 1_555
Mn0 O9 1.877009 1_455
Mn0 O23 1.898746 1_455
Mn0 O24 1.918129 1_555
Mn0 O6 1.927710 1_555
Mn0 O5 2.120824 1_555
Mn1 O4 1.877009 1_555
Mn1 O17 1.898746 1_555
Mn1 O15 1.918129 1_555
Mn1 O7 1.927710 1_555
Mn1 O8 2.120824 1_555
Mn2 O0 1.877009 1_555
Mn2 O18 1.898746 1_555
Mn2 O20 1.918129 1_555
Mn2 O3 1.927710 1_555
Mn2 O27 2.120824 1_555
Mn3 O26 1.877009 1_655
Mn3 O12 1.898746 1_655
Mn3 O11 1.918129 1_555
Mn3 O2 1.927710 1_555
Mn3 O1 2.120824 1_555
O0 P0 1.529306 1_555
O1 P0 1.507279 1_555
O2 P5 1.530597 1_554
O3 P4 1.530597 1_555
O4 P4 1.529306 1_555
O5 P4 1.507279 1_555
O6 P1 1.530597 1_556
O7 P0 1.530597 1_555
O8 P5 1.507279 1_555
O9 P5 1.529306 1_555
O10 P4 1.569642 1_555
O10 P6 1.596381 1_555
O11 P7 1.542670 1_565
O12 P6 1.521593 1_555
O13 P6 1.480357 1_555
O14 P1 1.569642 1_556
O14 P3 1.596381 1_555
O15 P2 1.542670 1_565
O16 P7 1.480357 1_555
O17 P3 1.521593 1_555
O18 P7 1.521593 1_555
O19 P3 1.480357 1_555
O20 P6 1.542670 1_545
O21 P5 1.569642 1_554
O21 P7 1.596381 1_555
O22 P2 1.480357 1_555
O23 P2 1.521593 1_555
O24 P3 1.542670 1_545
O25 P0 1.569642 1_555
O25 P2 1.596381 1_555
O26 P1 1.529306 1_555
O27 P1 1.507279 1_555
