# generated using pymatgen
data_Na3MgSn3P5SO24
_symmetry_space_group_name_H-M   'P 1'
_cell_length_a   8.77108475
_cell_length_b   8.76156441
_cell_length_c   22.70787556
_cell_angle_alpha   89.69300511
_cell_angle_beta   90.35664322
_cell_angle_gamma   119.93229402
_symmetry_Int_Tables_number   1
_chemical_formula_structural   Na3MgSn3P5SO24
_chemical_formula_sum   'Na9 Mg3 Sn9 P15 S3 O72'
_cell_volume   1512.26574940
_cell_formula_units_Z   3
loop_
 _symmetry_equiv_pos_site_id
 _symmetry_equiv_pos_as_xyz
  1  'x, y, z'
loop_
 _atom_site_type_symbol
 _atom_site_label
 _atom_site_symmetry_multiplicity
 _atom_site_fract_x
 _atom_site_fract_y
 _atom_site_fract_z
 _atom_site_occupancy
  Na  Na0  1  0.99109692  0.36316111  0.74563514  1
  Na  Na1  1  0.30895485  0.97442782  0.08634913  1
  Na  Na2  1  0.32610983  0.03062816  0.41084066  1
  Na  Na3  1  0.98323468  0.99805172  0.49574498  1
  Na  Na4  1  0.99055909  0.00038587  0.99927847  1
  Na  Na5  1  0.65563637  0.33296311  0.82911361  1
  Na  Na6  1  0.66866816  0.33527527  0.32808654  1
  Na  Na7  1  0.33287757  0.66111110  0.16725079  1
  Na  Na8  1  0.34318769  0.66863987  0.66605117  1
  Mg  Mg0  1  0.99858875  0.00009251  0.35343916  1
  Mg  Mg1  1  0.66596908  0.34145358  0.68692782  1
  Mg  Mg2  1  0.66169546  0.32805195  0.18462508  1
  Sn  Sn0  1  0.00087509  0.99900449  0.85240507  1
  Sn  Sn1  1  0.99266113  0.99708047  0.64860209  1
  Sn  Sn2  1  0.99921083  0.99825032  0.14974724  1
  Sn  Sn3  1  0.66943593  0.33507287  0.98237955  1
  Sn  Sn4  1  0.67827458  0.34395261  0.48266828  1
  Sn  Sn5  1  0.33341995  0.66188564  0.01794587  1
  Sn  Sn6  1  0.33386823  0.65883852  0.51846666  1
  Sn  Sn7  1  0.33384289  0.67128140  0.31587581  1
  Sn  Sn8  1  0.33729530  0.67005323  0.81507309  1
  P  P0  1  0.29719516  0.00275947  0.25232141  1
  P  P1  1  0.29472473  0.29072428  0.75036384  1
  P  P2  1  0.99983411  0.70787882  0.75034587  1
  P  P3  1  0.70364468  0.99988903  0.75017506  1
  P  P4  1  0.96087604  0.33353020  0.58614807  1
  P  P5  1  0.66752693  0.62646313  0.58490524  1
  P  P6  1  0.95679283  0.62249808  0.08524512  1
  P  P7  1  0.66928112  0.04208662  0.08438843  1
  P  P8  1  0.37661212  0.33553921  0.08511832  1
  P  P9  1  0.62769779  0.66627552  0.91685691  1
  P  P10  1  0.03785192  0.37196098  0.91558401  1
  P  P11  1  0.33503389  0.96220571  0.91773730  1
  P  P12  1  0.62972520  0.96134461  0.41836240  1
  P  P13  1  0.33269060  0.37165121  0.41600478  1
  P  P14  1  0.04049286  0.66639655  0.41667940  1
  S  S0  1  0.70683899  0.70606170  0.25173985  1
  S  S1  1  -0.00049583  0.29296309  0.25140641  1
  S  S2  1  0.37431058  0.04105350  0.58394261  1
  O  O0  1  0.20497728  0.01766900  0.30642704  1
  O  O1  1  0.81247874  0.79462314  0.30306384  1
  O  O2  1  0.97851762  0.18532500  0.30272243  1
  O  O3  1  0.21091798  0.18053698  0.80676804  1
  O  O4  1  0.97072788  0.78986989  0.80612322  1
  O  O5  1  0.82343100  0.03704925  0.80545815  1
  O  O6  1  0.78130617  0.95963682  0.69516096  1
  O  O7  1  0.16906789  0.21247026  0.69583041  1
  O  O8  1  0.03999505  0.82614955  0.69502575  1
  O  O9  1  0.77688727  0.81520842  0.19600266  1
  O  O10  1  0.03173846  0.21869840  0.19572232  1
  O  O11  1  0.18437899  0.96651726  0.19319159  1
  O  O12  1  0.87977911  0.35659492  0.64136788  1
  O  O13  1  0.48330441  0.12525760  0.63465295  1
  O  O14  1  0.63801419  0.51352997  0.63788510  1
  O  O15  1  0.87526640  0.51238033  0.13867891  1
  O  O16  1  0.63125152  0.12111446  0.13693339  1
  O  O17  1  0.48631539  0.36261772  0.13875288  1
  O  O18  1  0.44746777  0.29208398  0.02793349  1
  O  O19  1  0.85132266  0.55184035  0.02674675  1
  O  O20  1  0.70286990  0.14871527  0.02609861  1
  O  O21  1  0.44600273  0.14124490  0.52701170  1
  O  O22  1  0.69654258  0.55208336  0.52613187  1
  O  O23  1  0.84869101  0.29824905  0.52878217  1
  O  O24  1  0.54836267  0.70069472  0.97220396  1
  O  O25  1  0.15380707  0.45409893  0.97060651  1
  O  O26  1  0.30339024  0.85278794  0.97501405  1
  O  O27  1  0.54432941  0.84807249  0.47403147  1
  O  O28  1  0.30128999  0.45116391  0.47191360  1
  O  O29  1  0.16049792  0.70412516  0.47203200  1
  O  O30  1  0.11937738  0.62661906  0.36187780  1
  O  O31  1  0.50498240  0.88592458  0.36344314  1
  O  O32  1  0.37330695  0.49191669  0.36106206  1
  O  O33  1  0.11584909  0.48127573  0.85851677  1
  O  O34  1  0.36605130  0.87863259  0.86296773  1
  O  O35  1  0.51431591  0.63235322  0.86103982  1
  O  O36  1  0.02656692  0.83148786  0.41063305  1
  O  O37  1  0.80827659  0.98109205  0.41042781  1
  O  O38  1  0.17453817  0.18842901  0.40974347  1
  O  O39  1  0.02152344  0.18837043  0.91146233  1
  O  O40  1  0.16731640  0.97732285  0.91255566  1
  O  O41  1  0.81098219  0.83295539  0.91166669  1
  O  O42  1  0.98646984  0.16888492  0.58770213  1
  O  O43  1  0.19518458  0.02176851  0.58761887  1
  O  O44  1  0.83644097  0.81330505  0.58741714  1
  O  O45  1  0.98631033  0.81574389  0.08880651  1
  O  O46  1  0.83299781  0.01809291  0.09010191  1
  O  O47  1  0.18889148  0.16490993  0.08912471  1
  O  O48  1  0.69054229  0.16528347  0.74344547  1
  O  O49  1  0.47321910  0.30962001  0.74395064  1
  O  O50  1  0.84229217  0.52375378  0.74521376  1
  O  O51  1  0.69115631  0.53286463  0.24484157  1
  O  O52  1  0.84572237  0.31525231  0.24431577  1
  O  O53  1  0.47882796  0.16399081  0.24554564  1
  O  O54  1  0.64375112  0.49921077  0.92236752  1
  O  O55  1  0.85564961  0.35679625  0.92127093  1
  O  O56  1  0.50112185  0.14566818  0.92253100  1
  O  O57  1  0.63243868  0.14147487  0.42477859  1
  O  O58  1  0.49978207  0.35076944  0.42277865  1
  O  O59  1  0.85850078  0.49725362  0.42146886  1
  O  O60  1  0.35325174  0.49894647  0.07775381  1
  O  O61  1  0.14911823  0.65354521  0.07784447  1
  O  O62  1  0.49841460  0.85688687  0.07682329  1
  O  O63  1  0.35534653  0.86194009  0.57848741  1
  O  O64  1  0.50257896  0.65097994  0.57906367  1
  O  O65  1  0.14493756  0.50379932  0.57883513  1
  O  O66  1  0.30972769  0.82715311  0.25368068  1
  O  O67  1  0.52537628  0.68728696  0.25494640  1
  O  O68  1  0.16565527  0.47125721  0.25482330  1
  O  O69  1  0.29856522  0.47209228  0.75567092  1
  O  O70  1  0.16827207  0.68862105  0.75544745  1
  O  O71  1  0.52204436  0.83041634  0.75584255  1
loop_
_geom_bond_atom_site_label_1
_geom_bond_atom_site_label_2
_geom_bond_distance
_geom_bond_site_symmetry_2
Na0 O48 2.322927 1_555
Na0 O50 2.348561 1_555
Na0 O69 2.379453 1_655
Na0 O70 2.485180 1_655
Na0 O12 2.545426 1_555
Na0 O7 2.748394 1_655
Na0 O33 2.775290 1_655
Na0 O5 2.821692 1_555
Na1 O62 2.362955 1_555
Na1 O47 2.377842 1_565
Na1 O61 2.444575 1_555
Na1 O45 2.453435 1_455
Na1 O11 2.653417 1_555
Na1 O16 2.704106 1_565
Na1 O26 2.739590 1_554
Na1 O18 2.754584 1_565
Na2 O36 2.317823 1_545
Na2 O38 2.348002 1_555
Na2 O57 2.377203 1_555
Na2 O58 2.449613 1_555
Na2 O0 2.571877 1_555
Na2 O31 2.692202 1_545
Na2 O21 2.824880 1_555
Na2 O29 2.839000 1_545
Na3 O37 2.422584 1_555
Na3 O44 2.555125 1_555
Na3 O42 2.567462 1_565
Na3 O36 2.569524 1_655
Na3 O38 2.573788 1_665
Na3 O43 2.724429 1_665
Na4 O41 2.505450 1_545
Na4 O39 2.507618 1_655
Na4 O46 2.537784 1_556
Na4 O45 2.580136 1_546
Na4 O40 2.584075 1_645
Na4 O47 2.598349 1_656
Na4 O20 3.424526 1_556
Na5 O49 2.445573 1_555
Na5 O50 2.525465 1_555
Na5 O48 2.554088 1_555
Na5 O54 2.608463 1_555
Na5 O56 2.609333 1_555
Na5 O55 2.663469 1_555
Na6 O53 2.456703 1_555
Na6 O51 2.497605 1_555
Na6 O52 2.524533 1_555
Na6 O59 2.629287 1_555
Na6 O58 2.660787 1_555
Na6 O57 2.689870 1_555
Na7 O66 2.517923 1_555
Na7 O68 2.537477 1_555
Na7 O67 2.538813 1_555
Na7 O60 2.543558 1_555
Na7 O61 2.564780 1_555
Na7 O62 2.604009 1_555
Na8 O64 2.476648 1_555
Na8 O71 2.529745 1_555
Na8 O65 2.552144 1_555
Na8 O69 2.561242 1_555
Na8 O63 2.572875 1_555
Na8 O70 2.610734 1_555
Mg0 O0 2.045598 1_655
Mg0 O38 2.048402 1_655
Mg0 O37 2.058161 1_545
Mg0 O2 2.062473 1_555
Mg0 O36 2.065541 1_645
Mg0 O1 2.068872 1_545
Mg1 O14 1.980128 1_555
Mg1 O49 2.040956 1_555
Mg1 O50 2.055913 1_555
Mg1 O12 2.092668 1_555
Mg1 O48 2.093648 1_555
Mg1 O13 2.129757 1_555
Mg2 O17 1.996157 1_555
Mg2 O16 2.016370 1_555
Mg2 O15 2.047687 1_555
Mg2 O53 2.063506 1_555
Mg2 O52 2.146384 1_555
Mg2 O51 2.171595 1_555
O0 P0 1.516693 1_555
O1 S0 1.448333 1_555
O2 S1 1.448725 1_655
O3 P1 1.550203 1_555
O3 Sn0 2.019818 1_545
O4 P2 1.543458 1_555
O4 Sn0 2.016330 1_655
O5 P3 1.559615 1_545
O5 Sn0 2.040387 1_645
O6 P3 1.550505 1_555
O6 Sn1 2.018858 1_555
O7 P1 1.567255 1_555
O7 Sn1 2.047591 1_445
O8 P2 1.550226 1_455
O8 Sn1 2.030928 1_455
O9 S0 1.517987 1_555
O9 Sn2 2.089099 1_555
O10 S1 1.516261 1_555
O10 Sn2 2.090425 1_445
O11 P0 1.599162 1_565
O11 Sn2 2.028810 1_455
O12 P4 1.508772 1_555
O13 S2 1.440754 1_555
O14 P5 1.492959 1_555
O15 P6 1.491376 1_555
O16 P7 1.502889 1_555
O17 P8 1.492040 1_555
O18 P8 1.571273 1_555
O18 Sn3 2.071579 1_554
O19 P6 1.557435 1_555
O19 Sn3 2.035677 1_554
O20 P7 1.558377 1_555
O20 Sn3 2.048026 1_554
O21 S2 1.511415 1_555
O21 Sn4 2.171231 1_555
O22 P5 1.565161 1_555
O22 Sn4 2.012670 1_555
O23 P4 1.563813 1_555
O23 Sn4 2.016047 1_555
O24 P9 1.542434 1_555
O24 Sn5 2.032157 1_556
O25 P10 1.541687 1_555
O25 Sn5 2.022251 1_556
O26 P11 1.553489 1_555
O26 Sn5 2.058244 1_556
O27 P12 1.549351 1_555
O27 Sn6 2.031158 1_555
O28 P13 1.542175 1_555
O28 Sn6 2.001979 1_555
O29 P14 1.561357 1_555
O29 Sn6 2.039439 1_555
O30 P14 1.550742 1_555
O30 Sn7 2.017013 1_555
O31 P12 1.568234 1_555
O31 Sn7 2.034965 1_555
O32 P13 1.552624 1_555
O32 Sn7 2.040460 1_555
O33 P10 1.551929 1_555
O33 Sn8 2.069268 1_555
O34 P11 1.539396 1_555
O34 Sn8 2.035693 1_555
O35 P9 1.541828 1_555
O35 Sn8 2.024189 1_555
O36 P14 1.516572 1_555
O37 P12 1.499269 1_555
O38 P13 1.516309 1_555
O39 P10 1.545386 1_555
O39 Sn0 2.074839 1_545
O40 P11 1.545166 1_555
O40 Sn0 2.069329 1_555
O41 P9 1.545507 1_555
O41 Sn0 2.071318 1_655
O42 P4 1.566880 1_555
O42 Sn1 2.059023 1_545
O43 S2 1.496838 1_555
O43 Sn1 2.182623 1_445
O44 P5 1.567703 1_555
O44 Sn1 2.049149 1_555
O45 P6 1.582412 1_555
O45 Sn2 2.079888 1_555
O46 P7 1.556178 1_555
O46 Sn2 2.053262 1_545
O47 P8 1.580567 1_555
O47 Sn2 2.092308 1_445
O48 P3 1.516606 1_545
O49 P1 1.497867 1_555
O50 P2 1.516865 1_555
O51 S0 1.462931 1_555
O52 S1 1.463983 1_655
O53 P0 1.520551 1_555
O54 P9 1.543225 1_555
O54 Sn3 2.067479 1_555
O55 P10 1.542328 1_655
O55 Sn3 2.084371 1_555
O56 P11 1.543010 1_545
O56 Sn3 2.081976 1_555
O57 P12 1.574013 1_545
O57 Sn4 2.084104 1_555
O58 P13 1.571470 1_555
O58 Sn4 2.090462 1_555
O59 P14 1.547828 1_655
O59 Sn4 2.030439 1_555
O60 P8 1.552250 1_555
O60 Sn5 2.033930 1_555
O61 P6 1.578918 1_455
O61 Sn5 2.092123 1_555
O62 P7 1.575266 1_565
O62 Sn5 2.081778 1_555
O63 S2 1.499029 1_565
O63 Sn6 2.178974 1_555
O64 P5 1.569819 1_555
O64 Sn6 2.040404 1_555
O65 P4 1.567370 1_455
O65 Sn6 2.057280 1_555
O66 P0 1.596407 1_565
O66 Sn7 2.041654 1_555
O67 S0 1.518442 1_555
O67 Sn7 2.132594 1_555
O68 S1 1.515948 1_555
O68 Sn7 2.142456 1_555
O69 P1 1.577776 1_555
O69 Sn8 2.091555 1_555
O70 P2 1.571934 1_455
O70 Sn8 2.066615 1_555
O71 P3 1.548767 1_555
O71 Sn8 2.035622 1_555
