# generated using pymatgen
data_Ni23B6
_symmetry_space_group_name_H-M   'P 1'
_cell_length_a   7.36370112
_cell_length_b   7.36370112
_cell_length_c   7.36370112
_cell_angle_alpha   60.00000000
_cell_angle_beta   60.00000000
_cell_angle_gamma   60.00000000
_symmetry_Int_Tables_number   1
_chemical_formula_structural   Ni23B6
_chemical_formula_sum   'Ni23 B6'
_cell_volume   282.34068353
_cell_formula_units_Z   1
loop_
 _symmetry_equiv_pos_site_id
 _symmetry_equiv_pos_as_xyz
  1  'x, y, z'
loop_
 _atom_site_type_symbol
 _atom_site_label
 _atom_site_symmetry_multiplicity
 _atom_site_fract_x
 _atom_site_fract_y
 _atom_site_fract_z
 _atom_site_occupancy
  Ni  Ni0  1  0.00000000  0.00000000  0.33854900  1
  Ni  Ni1  1  0.00000000  0.00000000  0.66145100  1
  Ni  Ni2  1  0.00000000  0.33854900  0.00000000  1
  Ni  Ni3  1  0.66145100  0.00000000  0.33854900  1
  Ni  Ni4  1  0.33854900  0.00000000  0.00000000  1
  Ni  Ni5  1  0.00000000  0.66145100  0.00000000  1
  Ni  Ni6  1  0.33854900  0.00000000  0.66145100  1
  Ni  Ni7  1  0.00000000  0.66145100  0.33854900  1
  Ni  Ni8  1  0.33854900  0.66145100  0.00000000  1
  Ni  Ni9  1  0.61844200  0.14467400  0.61844200  1
  Ni  Ni10  1  0.38155800  0.38155800  0.85532600  1
  Ni  Ni11  1  0.85532600  0.38155800  0.38155800  1
  Ni  Ni12  1  0.38155800  0.38155800  0.38155800  1
  Ni  Ni13  1  0.14467400  0.61844200  0.61844200  1
  Ni  Ni14  1  0.61844200  0.61844200  0.61844200  1
  Ni  Ni15  1  0.61844200  0.61844200  0.14467400  1
  Ni  Ni16  1  0.38155800  0.85532600  0.38155800  1
  Ni  Ni17  1  0.66145100  0.00000000  0.00000000  1
  Ni  Ni18  1  0.00000000  0.33854900  0.66145100  1
  Ni  Ni19  1  0.66145100  0.33854900  0.00000000  1
  Ni  Ni20  1  0.25000000  0.25000000  0.25000000  1
  Ni  Ni21  1  0.75000000  0.75000000  0.75000000  1
  Ni  Ni22  1  0.00000000  0.00000000  0.00000000  1
  B  B0  1  0.72641000  0.72641000  0.27359000  1
  B  B1  1  0.72641000  0.27359000  0.72641000  1
  B  B2  1  0.27359000  0.72641000  0.27359000  1
  B  B3  1  0.72641000  0.27359000  0.27359000  1
  B  B4  1  0.27359000  0.72641000  0.72641000  1
  B  B5  1  0.27359000  0.27359000  0.72641000  1
loop_
_geom_bond_atom_site_label_1
_geom_bond_atom_site_label_2
_geom_bond_distance
_geom_bond_site_symmetry_2
Ni0 Ni1 2.377754 1_555
Ni0 Ni2 2.492974 1_555
Ni0 Ni7 2.492974 1_545
Ni0 Ni3 2.492974 1_455
Ni0 Ni22 2.492974 1_555
Ni0 Ni4 2.492974 1_555
Ni0 Ni16 2.586258 1_545
Ni0 Ni11 2.586258 1_455
Ni0 Ni9 2.586258 1_455
Ni0 Ni13 2.586258 1_545
Ni0 Ni21 2.862069 1_445
Ni0 Ni20 2.862069 1_555
Ni1 Ni22 2.492974 1_556
Ni1 Ni17 2.492974 1_456
Ni1 Ni6 2.492974 1_555
Ni1 Ni18 2.492974 1_555
Ni1 Ni5 2.492974 1_546
Ni1 Ni16 2.586258 1_545
Ni1 Ni11 2.586258 1_455
Ni1 Ni13 2.586258 1_545
Ni1 Ni9 2.586258 1_455
Ni1 Ni21 2.862069 1_445
Ni1 Ni20 2.862069 1_555
Ni2 Ni5 2.377754 1_555
Ni2 Ni22 2.492974 1_555
Ni2 Ni4 2.492974 1_555
Ni2 Ni21 2.862069 1_454
Ni2 Ni20 2.862069 1_555
Ni3 Ni6 2.377754 1_555
Ni3 Ni7 2.492974 1_645
Ni3 Ni9 2.586258 1_555
Ni4 Ni6 2.492974 1_554
Ni4 Ni8 2.492974 1_545
Ni4 Ni9 2.586258 1_554
Ni5 Ni8 2.492974 1_555
Ni5 Ni7 2.492974 1_555
Ni6 Ni8 2.492974 1_546
Ni6 Ni9 2.586258 1_555
Ni7 Ni8 2.492974 1_555
Ni10 Ni20 2.372952 1_556
Ni10 Ni14 2.466873 1_555
Ni10 Ni9 2.466873 1_555
Ni10 Ni13 2.466873 1_555
Ni10 Ni2 2.586258 1_556
Ni10 Ni4 2.586258 1_556
Ni10 Ni5 2.586258 1_556
Ni10 Ni17 2.586258 1_556
Ni10 Ni8 2.586258 1_556
Ni10 Ni19 2.586258 1_556
Ni11 Ni20 2.372952 1_655
Ni11 Ni14 2.466873 1_555
Ni11 Ni9 2.466873 1_555
Ni11 Ni15 2.466873 1_555
Ni11 Ni2 2.586258 1_655
Ni11 Ni5 2.586258 1_655
Ni11 Ni18 2.586258 1_655
Ni11 Ni7 2.586258 1_655
Ni12 Ni20 2.372952 1_555
Ni12 Ni9 2.466873 1_555
Ni12 Ni13 2.466873 1_555
Ni12 Ni15 2.466873 1_555
Ni12 Ni18 2.586258 1_555
Ni12 Ni8 2.586258 1_555
Ni12 Ni6 2.586258 1_555
Ni12 Ni3 2.586258 1_555
Ni12 Ni19 2.586258 1_555
Ni12 Ni7 2.586258 1_555
Ni13 Ni21 2.372952 1_455
Ni13 Ni16 2.466873 1_555
Ni13 Ni18 2.586258 1_555
Ni13 Ni7 2.586258 1_555
Ni13 Ni2 2.586258 1_556
Ni13 Ni5 2.586258 1_556
Ni14 Ni21 2.372952 1_555
Ni14 Ni16 2.466873 1_555
Ni14 Ni18 2.586258 1_655
Ni14 Ni6 2.586258 1_565
Ni14 Ni8 2.586258 1_556
Ni14 Ni7 2.586258 1_655
Ni14 Ni19 2.586258 1_556
Ni14 Ni3 2.586258 1_565
Ni15 Ni21 2.372952 1_554
Ni15 Ni16 2.466873 1_555
Ni15 Ni8 2.586258 1_555
Ni15 Ni19 2.586258 1_555
Ni15 Ni4 2.586258 1_565
Ni15 Ni2 2.586258 1_655
Ni15 Ni17 2.586258 1_565
Ni15 Ni5 2.586258 1_655
Ni16 Ni20 2.372952 1_565
Ni16 Ni4 2.586258 1_565
Ni16 Ni17 2.586258 1_565
Ni16 Ni6 2.586258 1_565
Ni16 Ni3 2.586258 1_565
Ni17 Ni4 2.377754 1_555
Ni17 Ni5 2.492974 1_645
Ni17 Ni3 2.492974 1_555
Ni17 Ni19 2.492974 1_555
Ni17 Ni22 2.492974 1_655
Ni17 Ni9 2.586258 1_554
Ni17 Ni21 2.862069 1_544
Ni17 Ni20 2.862069 1_555
Ni18 Ni7 2.377754 1_555
Ni18 Ni22 2.492974 1_556
Ni18 Ni2 2.492974 1_556
Ni18 Ni6 2.492974 1_555
Ni18 Ni19 2.492974 1_456
Ni18 Ni21 2.862069 1_455
Ni18 Ni20 2.862069 1_555
Ni19 Ni8 2.377754 1_555
Ni19 Ni3 2.492974 1_555
Ni19 Ni2 2.492974 1_655
Ni19 Ni22 2.492974 1_655
Ni19 Ni21 2.862069 1_554
Ni19 Ni20 2.862069 1_555
Ni20 Ni5 2.862069 1_555
Ni20 Ni6 2.862069 1_555
Ni20 Ni3 2.862069 1_555
Ni20 Ni8 2.862069 1_555
Ni20 Ni7 2.862069 1_555
Ni20 Ni4 2.862069 1_555
Ni21 Ni9 2.372952 1_565
Ni21 Ni7 2.862069 1_655
Ni21 Ni5 2.862069 1_656
Ni21 Ni4 2.862069 1_566
Ni21 Ni3 2.862069 1_565
Ni21 Ni6 2.862069 1_565
Ni21 Ni8 2.862069 1_556
Ni22 Ni6 2.492974 1_554
Ni22 Ni8 2.492974 1_545
Ni22 Ni3 2.492974 1_455
Ni22 Ni7 2.492974 1_545
Ni22 Ni5 2.492974 1_545
Ni22 Ni4 2.492974 1_555
B0 Ni7 2.070643 1_655
B0 Ni3 2.070643 1_565
B0 Ni5 2.070643 1_655
B0 Ni17 2.070643 1_565
B0 Ni14 2.075313 1_555
B0 Ni16 2.075313 1_555
B0 Ni11 2.075313 1_555
B0 Ni15 2.075313 1_555
B1 Ni19 2.070643 1_556
B1 Ni18 2.070643 1_655
B1 Ni1 2.070643 1_655
B1 Ni17 2.070643 1_556
B1 Ni14 2.075313 1_555
B1 Ni10 2.075313 1_555
B1 Ni11 2.075313 1_555
B1 Ni9 2.075313 1_555
B2 Ni0 2.070643 1_565
B2 Ni4 2.070643 1_565
B2 Ni7 2.070643 1_555
B2 Ni8 2.070643 1_555
B2 Ni16 2.075313 1_555
B2 Ni13 2.075313 1_555
B2 Ni15 2.075313 1_555
B2 Ni12 2.075313 1_555
B3 Ni2 2.070643 1_655
B3 Ni0 2.070643 1_655
B3 Ni19 2.070643 1_555
B3 Ni3 2.070643 1_555
B3 Ni11 2.075313 1_555
B3 Ni9 2.075313 1_555
B3 Ni15 2.075313 1_555
B3 Ni12 2.075313 1_555
B4 Ni8 2.070643 1_556
B4 Ni6 2.070643 1_565
B4 Ni1 2.070643 1_565
B4 Ni5 2.070643 1_556
B4 Ni14 2.075313 1_555
B4 Ni16 2.075313 1_555
B4 Ni10 2.075313 1_555
B4 Ni13 2.075313 1_555
B5 Ni4 2.070643 1_556
B5 Ni2 2.070643 1_556
B5 Ni18 2.070643 1_555
B5 Ni6 2.070643 1_555
B5 Ni10 2.075313 1_555
B5 Ni13 2.075313 1_555
B5 Ni9 2.075313 1_555
B5 Ni12 2.075313 1_555
