# generated using pymatgen
data_Na4MgTi3O8
_symmetry_space_group_name_H-M   'P 1'
_cell_length_a   6.32906778
_cell_length_b   6.17856336
_cell_length_c   6.19199965
_cell_angle_alpha   59.20686708
_cell_angle_beta   118.91664954
_cell_angle_gamma   90.04390365
_symmetry_Int_Tables_number   1
_chemical_formula_structural   Na4MgTi3O8
_chemical_formula_sum   'Na4 Mg1 Ti3 O8'
_cell_volume   171.98232293
_cell_formula_units_Z   1
loop_
 _symmetry_equiv_pos_site_id
 _symmetry_equiv_pos_as_xyz
  1  'x, y, z'
loop_
 _atom_site_type_symbol
 _atom_site_label
 _atom_site_symmetry_multiplicity
 _atom_site_fract_x
 _atom_site_fract_y
 _atom_site_fract_z
 _atom_site_occupancy
  Na  Na0  1  0.10805900  0.59693500  0.73966000  1
  Na  Na1  1  0.11706700  0.59170900  0.24234600  1
  Na  Na2  1  0.10895300  0.09704700  0.73850100  1
  Na  Na3  1  0.60555600  0.10220200  0.73418100  1
  Mg  Mg0  1  0.09708900  0.09002400  0.23243600  1
  Ti  Ti0  1  0.61093800  0.59930900  0.74714900  1
  Ti  Ti1  1  0.61455500  0.59740700  0.23475800  1
  Ti  Ti2  1  0.60579000  0.09658100  0.23863700  1
  O  O0  1  0.38130700  0.85135200  0.26303400  1
  O  O1  1  0.38079500  0.82716900  0.74371000  1
  O  O2  1  0.83126000  0.85586300  0.23689200  1
  O  O3  1  0.81115400  0.84745300  0.69265700  1
  O  O4  1  0.39690400  0.34429000  0.23734400  1
  O  O5  1  0.40842300  0.34732200  0.78981100  1
  O  O6  1  0.82963300  0.37614400  0.72365900  1
  O  O7  1  0.84251700  0.34169100  0.21772300  1
loop_
_geom_bond_atom_site_label_1
_geom_bond_atom_site_label_2
_geom_bond_distance
_geom_bond_site_symmetry_2
Na0 O4 2.215006 1_556
Na0 O6 2.223040 1_455
Na0 O2 2.225033 1_455
Na0 O1 2.234888 1_555
Na0 O3 2.241867 1_455
Na0 O5 2.243233 1_555
Na1 O0 2.320765 1_555
Na1 O7 2.325885 1_455
Na1 O4 2.362279 1_555
Na1 O2 2.413704 1_455
Na1 O5 2.426937 1_555
Na1 O3 2.440380 1_454
Na2 O7 2.298127 1_455
Na2 O0 2.316515 1_546
Na2 O1 2.374292 1_545
Na2 O6 2.406782 1_455
Na2 O3 2.436705 1_445
Na2 O5 2.449632 1_555
Na3 O4 2.192770 1_555
Na3 O6 2.202973 1_555
Na3 O1 2.211227 1_545
Na3 O2 2.213338 1_546
Na3 O5 2.218483 1_555
Na3 O3 2.231103 1_545
Mg0 O7 2.176916 1_455
Mg0 O0 2.198797 1_545
Mg0 O2 2.219202 1_445
Mg0 O6 2.249546 1_454
Mg0 O1 2.264280 1_545
Mg0 O4 2.461341 1_555
O0 Ti2 2.075339 1_565
O0 Ti0 2.129284 1_555
O0 Ti1 2.281783 1_555
O1 Ti0 2.011615 1_555
O1 Ti1 2.163931 1_556
O2 Ti2 2.069575 1_565
O2 Ti1 2.105248 1_555
O3 Ti0 1.987727 1_555
O3 Ti2 2.000197 1_565
O4 Ti2 2.017572 1_555
O4 Ti1 2.082309 1_555
O5 Ti2 1.980264 1_556
O5 Ti0 2.009947 1_555
O6 Ti0 2.059404 1_555
O6 Ti1 2.160233 1_555
O7 Ti0 2.072870 1_554
O7 Ti2 2.130353 1_555
O7 Ti1 2.215926 1_555
