# generated using pymatgen
data_Na14Y4Nb4Si11SO48
_symmetry_space_group_name_H-M   'P 1'
_cell_length_a   18.63232781
_cell_length_b   9.31485666
_cell_length_c   22.89346657
_cell_angle_alpha   89.87710489
_cell_angle_beta   90.00494405
_cell_angle_gamma   119.99686603
_symmetry_Int_Tables_number   1
_chemical_formula_structural   Na14Y4Nb4Si11SO48
_chemical_formula_sum   'Na42 Y12 Nb12 Si33 S3 O144'
_cell_volume   3441.10493976
_cell_formula_units_Z   3
loop_
 _symmetry_equiv_pos_site_id
 _symmetry_equiv_pos_as_xyz
  1  'x, y, z'
loop_
 _atom_site_type_symbol
 _atom_site_label
 _atom_site_symmetry_multiplicity
 _atom_site_fract_x
 _atom_site_fract_y
 _atom_site_fract_z
 _atom_site_occupancy
  Na  Na0  1  0.32461210  0.99943794  0.25008284  1
  Na  Na1  1  0.82549037  0.00042243  0.24997872  1
  Na  Na2  1  0.32362970  0.63918654  0.74911729  1
  Na  Na3  1  0.82320364  0.64469050  0.74803999  1
  Na  Na4  1  0.49333565  0.35951919  0.74761014  1
  Na  Na5  1  0.67988221  0.00650863  0.75062104  1
  Na  Na6  1  0.15051671  0.32590386  0.58100637  1
  Na  Na7  1  0.65361936  0.32809168  0.58201380  1
  Na  Na8  1  0.01403234  0.70456633  0.58493221  1
  Na  Na9  1  0.51033524  0.68849009  0.58341494  1
  Na  Na10  1  0.33130864  0.98132896  0.58293614  1
  Na  Na11  1  0.84000366  0.97412261  0.58626326  1
  Na  Na12  1  0.14555409  0.95529912  0.07959932  1
  Na  Na13  1  0.64546347  0.95530172  0.07901624  1
  Na  Na14  1  0.33245343  0.71331219  0.08358323  1
  Na  Na15  1  0.83260618  0.71305935  0.08421021  1
  Na  Na16  1  0.02442558  0.33584572  0.08365453  1
  Na  Na17  1  0.52406811  0.33531752  0.08368873  1
  Na  Na18  1  0.48539759  0.68005042  0.91395604  1
  Na  Na19  1  0.98585013  0.67606153  0.91433862  1
  Na  Na20  1  0.35463657  0.02644598  0.91451487  1
  Na  Na21  1  0.85362358  0.02901285  0.91427858  1
  Na  Na22  1  0.16073470  0.29976224  0.91931761  1
  Na  Na23  1  0.66052564  0.29351835  0.91514144  1
  Na  Na24  1  0.47541038  0.28599651  0.41565120  1
  Na  Na25  1  0.97696444  0.28856944  0.41665492  1
  Na  Na26  1  0.16807100  0.04495769  0.42222996  1
  Na  Na27  1  0.66727511  0.04377793  0.42004932  1
  Na  Na28  1  0.35574253  0.66480383  0.41604256  1
  Na  Na29  1  0.85705002  0.66418216  0.41643272  1
  Na  Na30  1  0.00170736  0.99938464  0.50098437  1
  Na  Na31  1  0.49878989  0.99889679  0.49583512  1
  Na  Na32  1  -0.00001556  0.00195459  0.99995204  1
  Na  Na33  1  0.49952598  0.99953410  0.99889581  1
  Na  Na34  1  0.33457484  0.32376212  0.82975743  1
  Na  Na35  1  0.84026132  0.33440322  0.83166929  1
  Na  Na36  1  0.33866539  0.35054646  0.33510547  1
  Na  Na37  1  0.83969737  0.35240413  0.33447874  1
  Na  Na38  1  0.16351472  0.64843560  0.16615836  1
  Na  Na39  1  0.66348364  0.64842757  0.16589064  1
  Na  Na40  1  0.16266249  0.67912257  0.66892474  1
  Na  Na41  1  0.66696600  0.66672292  0.66726564  1
  Y  Y0  1  0.99489439  0.99523368  0.35046672  1
  Y  Y1  1  0.49444897  0.99453322  0.34993290  1
  Y  Y2  1  0.99483867  0.99250327  0.84639066  1
  Y  Y3  1  0.50239796  0.00361176  0.84827269  1
  Y  Y4  1  0.99876237  0.99118445  0.65322686  1
  Y  Y5  1  0.99730507  0.00528407  0.14927026  1
  Y  Y6  1  0.49713459  0.00521911  0.14901459  1
  Y  Y7  1  0.33185234  0.32500370  0.67846683  1
  Y  Y8  1  0.33664427  0.33664922  0.48247861  1
  Y  Y9  1  0.83223991  0.32905514  0.48108866  1
  Y  Y10  1  0.16706932  0.66665063  0.02031349  1
  Y  Y11  1  0.66793765  0.66651745  0.02102435  1
  Nb  Nb0  1  0.49835873  0.99794001  0.65163946  1
  Nb  Nb1  1  0.83638810  0.33568591  0.68288671  1
  Nb  Nb2  1  0.33873851  0.34850558  0.18531733  1
  Nb  Nb3  1  0.83908386  0.34911576  0.18531670  1
  Nb  Nb4  1  0.33377751  0.33525538  0.97853785  1
  Nb  Nb5  1  0.83332901  0.33268885  0.97854203  1
  Nb  Nb6  1  0.16544327  0.66788870  0.51908637  1
  Nb  Nb7  1  0.66776716  0.66629670  0.52013754  1
  Nb  Nb8  1  0.16471291  0.65099329  0.31500248  1
  Nb  Nb9  1  0.66445618  0.65126682  0.31448315  1
  Nb  Nb10  1  0.16692446  0.67794620  0.81914363  1
  Nb  Nb11  1  0.66610583  0.66902761  0.81619970  1
  Si  Si0  1  0.34522111  0.69284800  0.25023803  1
  Si  Si1  1  0.84537622  0.69312302  0.25029502  1
  Si  Si2  1  0.99901624  0.30733357  0.24964855  1
  Si  Si3  1  0.49874020  0.30692905  0.24955989  1
  Si  Si4  1  0.65130846  0.30346159  0.74907387  1
  Si  Si5  1  0.00146000  0.68717254  0.74971222  1
  Si  Si6  1  0.50008535  0.69850688  0.75188079  1
  Si  Si7  1  0.34714801  0.99471094  0.75268936  1
  Si  Si8  1  0.84514440  0.00119146  0.75034484  1
  Si  Si9  1  0.48669157  0.33124155  0.58309190  1
  Si  Si10  1  0.98360559  0.33605684  0.58137509  1
  Si  Si11  1  0.18155043  0.02992375  0.57809583  1
  Si  Si12  1  0.68316365  0.03425021  0.58419226  1
  Si  Si13  1  0.33350063  0.63963795  0.58414112  1
  Si  Si14  1  0.83189632  0.62830052  0.58146898  1
  Si  Si15  1  0.47738712  0.62327181  0.08142787  1
  Si  Si16  1  0.97721040  0.62317284  0.08104493  1
  Si  Si17  1  0.33333114  0.05194675  0.08467286  1
  Si  Si18  1  0.83345871  0.05149369  0.08509012  1
  Si  Si19  1  0.19084897  0.32952326  0.08319268  1
  Si  Si20  1  0.69101735  0.32911329  0.08320332  1
  Si  Si21  1  0.31351513  0.66214962  0.91745710  1
  Si  Si22  1  0.81297793  0.66101741  0.91750617  1
  Si  Si23  1  0.01886713  0.37313213  0.91896416  1
  Si  Si24  1  0.51781661  0.37502250  0.91835503  1
  Si  Si25  1  0.16894911  0.96931583  0.91945996  1
  Si  Si26  1  0.66915990  0.96513229  0.91946657  1
  Si  Si27  1  0.30828300  0.95177087  0.41436980  1
  Si  Si28  1  0.80806326  0.94943293  0.41487352  1
  Si  Si29  1  0.16653409  0.37613363  0.41923073  1
  Si  Si30  1  0.66619382  0.37624240  0.41791252  1
  Si  Si31  1  0.02414038  0.66800996  0.41553949  1
  Si  Si32  1  0.52617500  0.67048139  0.41709641  1
  S  S0  1  0.15424817  -0.00014325  0.24958054  1
  S  S1  1  0.65413567  0.00004319  0.24977967  1
  S  S2  1  0.15317737  0.31293585  0.75212162  1
  O  O0  1  0.11414515  0.02173799  0.30279522  1
  O  O1  1  0.61419443  0.02150772  0.30312957  1
  O  O2  1  0.40013260  0.76611860  0.30941743  1
  O  O3  1  0.90011657  0.76656137  0.30935286  1
  O  O4  1  0.47838565  0.18706063  0.30685240  1
  O  O5  1  0.97783696  0.18685179  0.30677522  1
  O  O6  1  0.11105334  0.21146056  0.80452399  1
  O  O7  1  0.62101903  0.19421982  0.80780378  1
  O  O8  1  0.48743534  0.77739522  0.81033555  1
  O  O9  1  0.97793708  0.76001252  0.80658221  1
  O  O10  1  0.40106465  0.02380213  0.81083875  1
  O  O11  1  0.89788111  0.03414670  0.80951299  1
  O  O12  1  0.40261382  0.97436061  0.69678324  1
  O  O13  1  0.88165006  0.95338173  0.69400405  1
  O  O14  1  0.10531338  0.23272523  0.69842559  1
  O  O15  1  0.58485898  0.19706409  0.69555985  1
  O  O16  1  0.01813166  0.79541893  0.69080803  1
  O  O17  1  0.51189979  0.82865033  0.69621416  1
  O  O18  1  0.38507016  0.81354098  0.19337925  1
  O  O19  1  0.88472697  0.81327865  0.19321264  1
  O  O20  1  0.01657690  0.23289615  0.19068644  1
  O  O21  1  0.51690615  0.23327145  0.19072313  1
  O  O22  1  0.10362577  0.97863061  0.19693014  1
  O  O23  1  0.60354115  0.97852211  0.19730739  1
  O  O24  1  0.45094293  0.37984300  0.63947115  1
  O  O25  1  0.92720575  0.35819749  0.63497579  1
  O  O26  1  0.24533464  0.10434220  0.63237489  1
  O  O27  1  0.74784016  0.13544465  0.63815717  1
  O  O28  1  0.31057005  0.52272681  0.64144709  1
  O  O29  1  0.81934504  0.50162873  0.63750585  1
  O  O30  1  0.42481568  0.50624699  0.13848053  1
  O  O31  1  0.92479600  0.50653083  0.13822729  1
  O  O32  1  0.32794654  0.15195359  0.14224368  1
  O  O33  1  0.82815273  0.15224657  0.14236509  1
  O  O34  1  0.25039200  0.33945559  0.13787822  1
  O  O35  1  0.75059600  0.33940316  0.13787543  1
  O  O36  1  0.24037149  0.31910136  0.02298297  1
  O  O37  1  0.74100713  0.31921494  0.02292353  1
  O  O38  1  0.41946422  0.52188528  0.02336117  1
  O  O39  1  0.91938799  0.52124753  0.02288481  1
  O  O40  1  0.33992349  0.16673669  0.02543805  1
  O  O41  1  0.83984209  0.16600592  0.02554530  1
  O  O42  1  0.22105555  0.14381750  0.52006716  1
  O  O43  1  0.71341384  0.14382456  0.52495206  1
  O  O44  1  0.35968825  0.56970395  0.52768553  1
  O  O45  1  0.84695877  0.55144283  0.52296682  1
  O  O46  1  0.42844888  0.28320879  0.52558223  1
  O  O47  1  0.92820417  0.29513233  0.52291775  1
  O  O48  1  0.27535896  0.69489735  0.97576336  1
  O  O49  1  0.77666028  0.69615977  0.97580649  1
  O  O50  1  0.07040717  0.44255312  0.97868602  1
  O  O51  1  0.57223611  0.45113251  0.97631936  1
  O  O52  1  0.14842895  0.85717117  0.97722641  1
  O  O53  1  0.65346487  0.85741675  0.97770578  1
  O  O54  1  0.25611587  0.83593155  0.47227954  1
  O  O55  1  0.75794639  0.83707140  0.47469425  1
  O  O56  1  0.15790258  0.47358130  0.47733003  1
  O  O57  1  0.66129091  0.48170471  0.47516579  1
  O  O58  1  0.07873955  0.67531373  0.47442497  1
  O  O59  1  0.58051278  0.67976033  0.47731045  1
  O  O60  1  0.07915084  0.65796674  0.36104647  1
  O  O61  1  0.58017439  0.65950592  0.36233245  1
  O  O62  1  0.25271544  0.85112856  0.35687255  1
  O  O63  1  0.75196615  0.84817338  0.35785920  1
  O  O64  1  0.17263741  0.49381346  0.36201193  1
  O  O65  1  0.67147049  0.49231339  0.36087287  1
  O  O66  1  0.07474597  0.50876674  0.86546275  1
  O  O67  1  0.56907409  0.49950215  0.86038381  1
  O  O68  1  0.18251052  0.86276909  0.86374374  1
  O  O69  1  0.67805721  0.85761491  0.86239632  1
  O  O70  1  0.25028099  0.63762271  0.86073492  1
  O  O71  1  0.74991424  0.63985095  0.86021545  1
  O  O72  1  0.02165437  0.83989531  0.41539114  1
  O  O73  1  0.52283091  0.84170879  0.41660761  1
  O  O74  1  0.39799523  0.95952140  0.41701320  1
  O  O75  1  0.89786388  0.95938014  0.41707628  1
  O  O76  1  0.08252670  0.19693949  0.41588886  1
  O  O77  1  0.58121887  0.19804326  0.41700037  1
  O  O78  1  0.00545619  0.18899771  0.90901724  1
  O  O79  1  0.50373103  0.19005905  0.91140308  1
  O  O80  1  0.09275658  0.00186071  0.90717182  1
  O  O81  1  0.59209061  0.99741822  0.91312829  1
  O  O82  1  0.40690216  0.81731984  0.91144548  1
  O  O83  1  0.90638053  0.81766152  0.91041064  1
  O  O84  1  0.49963208  0.16862287  0.59462199  1
  O  O85  1  0.99974923  0.18363623  0.59387220  1
  O  O86  1  0.08939540  0.00708994  0.58539363  1
  O  O87  1  0.58967494  0.00623204  0.59841869  1
  O  O88  1  0.41632788  0.82874420  0.59503065  1
  O  O89  1  0.90992622  0.81399777  0.58931903  1
  O  O90  1  0.48201486  0.80155850  0.08335483  1
  O  O91  1  0.98166784  0.80138546  0.08299608  1
  O  O92  1  0.41844207  0.04239477  0.08246024  1
  O  O93  1  0.91865060  0.04238363  0.08241175  1
  O  O94  1  0.10198757  0.15821202  0.08355591  1
  O  O95  1  0.60221163  0.15837243  0.08359687  1
  O  O96  1  0.34031887  0.15900912  0.74393461  1
  O  O97  1  0.82813020  0.15824271  0.73967396  1
  O  O98  1  0.23770535  0.33639981  0.74978649  1
  O  O99  1  0.74393289  0.33023818  0.73484695  1
  O  O100  1  0.41993077  0.51630051  0.74408544  1
  O  O101  1  0.91485327  0.50341292  0.73912702  1
  O  O102  1  0.33132961  0.50436498  0.24012306  1
  O  O103  1  0.83126132  0.50447976  0.24008601  1
  O  O104  1  0.41229687  0.31750164  0.24184074  1
  O  O105  1  0.91254592  0.31828816  0.24169331  1
  O  O106  1  0.23898240  0.14823812  0.24511740  1
  O  O107  1  0.73900684  0.14809572  0.24532580  1
  O  O108  1  0.31523784  0.48448140  0.92006043  1
  O  O109  1  0.81564453  0.48494165  0.91899047  1
  O  O110  1  0.42728066  0.37036873  0.91997929  1
  O  O111  1  0.92782948  0.36752720  0.92008064  1
  O  O112  1  0.25821681  0.14625461  0.92079345  1
  O  O113  1  0.75865903  0.14491692  0.92002382  1
  O  O114  1  0.31634441  0.13379863  0.41488997  1
  O  O115  1  0.81261513  0.12785499  0.41527538  1
  O  O116  1  0.25281938  0.37381432  0.41738985  1
  O  O117  1  0.75070133  0.36839153  0.41505238  1
  O  O118  1  0.43663741  0.50188607  0.41618106  1
  O  O119  1  0.93429018  0.49982942  0.41497323  1
  O  O120  1  0.18553740  0.49795435  0.08544101  1
  O  O121  1  0.68584818  0.49753044  0.08551300  1
  O  O122  1  0.06531709  0.62985520  0.08500955  1
  O  O123  1  0.56543704  0.62944528  0.08519843  1
  O  O124  1  0.24966869  0.87141639  0.08534396  1
  O  O125  1  0.75003353  0.87119289  0.08612710  1
  O  O126  1  0.17107951  0.84152323  0.57198610  1
  O  O127  1  0.67581882  0.84885718  0.57993358  1
  O  O128  1  0.25226438  0.66484267  0.57387931  1
  O  O129  1  0.74516123  0.63936257  0.57947849  1
  O  O130  1  0.07385178  0.51131257  0.57967788  1
  O  O131  1  0.58001151  0.49666405  0.57445367  1
  O  O132  1  0.16508124  0.85223811  0.25459581  1
  O  O133  1  0.66502927  0.85205966  0.25492752  1
  O  O134  1  0.25352422  0.68250898  0.25820882  1
  O  O135  1  0.75348841  0.68267100  0.25833325  1
  O  O136  1  0.07977288  0.49546613  0.25987862  1
  O  O137  1  0.57918931  0.49561465  0.25996268  1
  O  O138  1  0.16011347  0.47994215  0.75644162  1
  O  O139  1  0.65666147  0.48637534  0.75410420  1
  O  O140  1  0.08447329  0.66846997  0.76193751  1
  O  O141  1  0.58772405  0.69125149  0.75476071  1
  O  O142  1  0.25835463  0.81405759  0.75609358  1
  O  O143  1  0.75170340  0.83125606  0.76020175  1
loop_
_geom_bond_atom_site_label_1
_geom_bond_atom_site_label_2
_geom_bond_distance
_geom_bond_site_symmetry_2
Na0 O134 2.567491 1_555
Na0 O104 2.576862 1_565
Na0 O132 2.578809 1_555
Na0 O106 2.586528 1_565
Na0 O62 2.795643 1_555
Na0 O18 2.812985 1_555
Na0 O4 2.820427 1_565
Na0 O32 2.830883 1_565
Na1 O135 2.573726 1_545
Na1 O105 2.574726 1_555
Na1 O107 2.591479 1_555
Na1 O133 2.594104 1_545
Na1 O5 2.800714 1_555
Na1 O19 2.807078 1_545
Na1 O33 2.826123 1_555
Na1 O63 2.833827 1_545
Na2 O98 2.450087 1_555
Na2 O142 2.477922 1_555
Na2 O100 2.568538 1_555
Na2 O138 2.644030 1_555
Na2 O28 2.656951 1_555
Na2 O70 2.894501 1_555
Na2 O12 2.956141 1_555
Na2 O8 3.002486 1_555
Na3 O99 2.555412 1_555
Na3 O101 2.633956 1_555
Na3 O143 2.681318 1_555
Na3 O139 2.691948 1_555
Na3 O13 2.799682 1_555
Na3 O29 2.846596 1_555
Na3 O9 2.858480 1_555
Na3 O71 2.898341 1_555
Na4 O100 2.450827 1_555
Na4 O96 2.510011 1_555
Na4 O24 2.633607 1_555
Na4 O139 2.661615 1_555
Na4 O141 2.690044 1_555
Na4 O67 2.920814 1_555
Na4 O15 3.034179 1_555
Na4 O10 3.071709 1_555
Na5 O97 2.405235 1_555
Na5 O141 2.556915 1_545
Na5 O143 2.585832 1_545
Na5 O99 2.654216 1_555
Na5 O7 2.810958 1_555
Na5 O27 2.853324 1_555
Na5 O69 2.900075 1_545
Na5 O17 2.985924 1_545
Na6 O85 2.451605 1_455
Na6 O86 2.596776 1_555
Na6 O56 2.709523 1_555
Na6 O130 2.736904 1_555
Na6 O128 2.757069 1_555
Na6 O14 2.819254 1_555
Na6 O28 2.951688 1_555
Na6 O42 2.964787 1_555
Na7 O84 2.501717 1_555
Na7 O129 2.524620 1_555
Na7 O131 2.555127 1_555
Na7 O87 2.640568 1_555
Na7 O43 2.795683 1_555
Na7 O57 2.798554 1_555
Na7 O15 2.882996 1_555
Na7 O29 2.962927 1_555
Na8 O86 2.440558 1_565
Na8 O130 2.550365 1_555
Na8 O16 2.557592 1_555
Na8 O126 2.558047 1_555
Na8 O89 2.605621 1_455
Na8 O58 2.874050 1_555
Na8 O25 3.017394 1_455
Na8 O45 3.050516 1_455
Na9 O87 2.587013 1_565
Na9 O88 2.671186 1_555
Na9 O127 2.671867 1_555
Na9 O131 2.690981 1_555
Na9 O44 2.762377 1_555
Na9 O59 2.779315 1_555
Na9 O24 2.817863 1_555
Na9 O17 2.889701 1_555
Na10 O128 2.562052 1_555
Na10 O126 2.604880 1_555
Na10 O88 2.618337 1_555
Na10 O26 2.645998 1_565
Na10 O84 2.735357 1_565
Na10 O46 2.793324 1_565
Na10 O54 2.886453 1_555
Na10 O12 2.940635 1_555
Na11 O89 2.422702 1_555
Na11 O13 2.621240 1_555
Na11 O85 2.625136 1_565
Na11 O127 2.678124 1_555
Na11 O129 2.713397 1_555
Na11 O55 2.924541 1_555
Na11 O47 2.968692 1_565
Na11 O27 3.034232 1_565
Na12 O94 2.403022 1_565
Na12 O124 2.430254 1_555
Na12 O52 2.527709 1_554
Na12 O122 2.628108 1_555
Na12 O91 2.647257 1_455
Na12 O22 2.836434 1_555
Na12 O36 3.206265 1_565
Na12 O32 3.278292 1_565
Na13 O95 2.400751 1_565
Na13 O125 2.441772 1_555
Na13 O53 2.525471 1_554
Na13 O123 2.632332 1_555
Na13 O90 2.640815 1_555
Na13 O23 2.857010 1_555
Na13 O37 3.202606 1_565
Na13 O33 3.289689 1_565
Na14 O120 2.455228 1_555
Na14 O90 2.480087 1_555
Na14 O124 2.611785 1_555
Na14 O92 2.655736 1_565
Na14 O48 2.659484 1_554
Na14 O18 2.691737 1_555
Na14 O38 3.257313 1_555
Na14 O34 3.266158 1_555
Na15 O121 2.453398 1_555
Na15 O91 2.471135 1_555
Na15 O125 2.608635 1_555
Na15 O93 2.657840 1_565
Na15 O49 2.666000 1_554
Na15 O19 2.672993 1_555
Na15 O35 3.259238 1_555
Na15 O39 3.267686 1_555
Na16 O93 2.443518 1_455
Na16 O122 2.448604 1_555
Na16 O50 2.575936 1_554
Na16 O120 2.600178 1_555
Na16 O20 2.606698 1_555
Na16 O94 2.686504 1_555
Na16 O31 3.239553 1_455
Na16 O41 3.266284 1_455
Na17 O92 2.439233 1_555
Na17 O123 2.447529 1_555
Na17 O21 2.605567 1_555
Na17 O121 2.610962 1_555
Na17 O51 2.651834 1_554
Na17 O95 2.690007 1_555
Na17 O30 3.237522 1_555
Na17 O40 3.261474 1_555
Na18 O82 2.376315 1_555
Na18 O110 2.527392 1_555
Na18 O8 2.531302 1_555
Na18 O81 2.610574 1_555
Na18 O108 2.759329 1_555
Na18 O38 2.850974 1_556
Na18 O67 3.065014 1_555
Na18 O53 3.082557 1_555
Na19 O83 2.427467 1_555
Na19 O111 2.517411 1_555
Na19 O9 2.612638 1_555
Na19 O80 2.675439 1_665
Na19 O109 2.755353 1_555
Na19 O39 2.826275 1_556
Na19 O52 2.999134 1_655
Na19 O66 3.002087 1_655
Na20 O79 2.410632 1_555
Na20 O10 2.530687 1_555
Na20 O112 2.549330 1_555
Na20 O82 2.577853 1_545
Na20 O110 2.788662 1_555
Na20 O40 2.933265 1_556
Na20 O68 3.013108 1_545
Na20 O48 3.017643 1_545
Na21 O78 2.454046 1_655
Na21 O113 2.494893 1_555
Na21 O11 2.528884 1_555
Na21 O83 2.604937 1_545
Na21 O111 2.741261 1_555
Na21 O41 2.919697 1_556
Na21 O49 3.031401 1_545
Na21 O69 3.073415 1_545
Na22 O80 2.422932 1_555
Na22 O108 2.509063 1_555
Na22 O78 2.550856 1_555
Na22 O36 2.756898 1_556
Na22 O6 2.772628 1_555
Na22 O112 2.818061 1_555
Na22 O50 2.948795 1_555
Na22 O70 3.036244 1_555
Na23 O81 2.391498 1_545
Na23 O109 2.527481 1_555
Na23 O79 2.579937 1_555
Na23 O7 2.600865 1_555
Na23 O113 2.793162 1_555
Na23 O37 2.835056 1_556
Na23 O51 3.040954 1_555
Na23 O71 3.061517 1_555
Na24 O118 2.453336 1_555
Na24 O77 2.484693 1_555
Na24 O114 2.567657 1_555
Na24 O74 2.634989 1_545
Na24 O46 2.660352 1_555
Na24 O4 2.667830 1_555
Na24 O61 3.255226 1_555
Na24 O57 3.297189 1_555
Na25 O119 2.463811 1_555
Na25 O76 2.505206 1_655
Na25 O47 2.608418 1_555
Na25 O115 2.652476 1_555
Na25 O75 2.656276 1_545
Na25 O5 2.692862 1_555
Na25 O56 3.234992 1_655
Na25 O60 3.242899 1_655
Na26 O72 2.430278 1_545
Na26 O42 2.436988 1_555
Na26 O114 2.461488 1_555
Na26 O76 2.611714 1_555
Na26 O116 2.655409 1_555
Na26 O0 2.883983 1_555
Na26 O58 3.210290 1_545
Na27 O73 2.393252 1_545
Na27 O115 2.416141 1_555
Na27 O43 2.565796 1_555
Na27 O117 2.621277 1_555
Na27 O77 2.635166 1_555
Na27 O1 2.825364 1_555
Na27 O59 3.213954 1_545
Na27 O63 3.274643 1_545
Na28 O116 2.414051 1_555
Na28 O74 2.448655 1_555
Na28 O2 2.596781 1_555
Na28 O118 2.619529 1_555
Na28 O73 2.697829 1_555
Na28 O44 2.716264 1_555
Na28 O64 3.206355 1_555
Na28 O54 3.257629 1_555
Na29 O75 2.459437 1_555
Na29 O117 2.461730 1_555
Na29 O119 2.572800 1_555
Na29 O3 2.605377 1_555
Na29 O45 2.622638 1_555
Na29 O72 2.658241 1_655
Na29 O65 3.257288 1_555
Na29 O55 3.281054 1_555
Na30 O86 2.508307 1_565
Na30 O76 2.581366 1_565
Na30 O72 2.598008 1_555
Na30 O75 2.618020 1_455
Na30 O89 2.651208 1_455
Na30 O85 2.747240 1_465
Na31 O77 2.488893 1_565
Na31 O74 2.496257 1_555
Na31 O73 2.510312 1_555
Na31 O88 2.753193 1_555
Na31 O84 2.757711 1_565
Na31 O87 2.876109 1_565
Na32 O91 2.562943 1_446
Na32 O93 2.564432 1_456
Na32 O94 2.576677 1_556
Na32 O78 2.680810 1_555
Na32 O83 2.685446 1_445
Na32 O80 2.738925 1_555
Na33 O90 2.574694 1_556
Na33 O92 2.590099 1_566
Na33 O95 2.605946 1_566
Na33 O81 2.620132 1_555
Na33 O82 2.636747 1_555
Na33 O79 2.648309 1_565
Na34 O96 2.530647 1_555
Na34 O110 2.586849 1_555
Na34 O100 2.593466 1_555
Na34 O112 2.595227 1_555
Na34 O98 2.614262 1_555
Na34 O108 2.682857 1_555
Na35 O111 2.520475 1_555
Na35 O101 2.587849 1_555
Na35 O113 2.611592 1_555
Na35 O97 2.612122 1_555
Na35 O109 2.613100 1_555
Na35 O99 2.840116 1_555
Na35 O11 3.498685 1_555
Na36 O118 2.490418 1_555
Na36 O116 2.550084 1_555
Na36 O114 2.594264 1_555
Na36 O104 2.638442 1_555
Na36 O102 2.642412 1_555
Na36 O106 2.785914 1_555
Na37 O119 2.445048 1_555
Na37 O117 2.534369 1_555
Na37 O105 2.624917 1_555
Na37 O103 2.628807 1_555
Na37 O115 2.641828 1_555
Na37 O107 2.784464 1_555
Na38 O120 2.476744 1_555
Na38 O122 2.552072 1_555
Na38 O134 2.612340 1_555
Na38 O136 2.613961 1_555
Na38 O124 2.638945 1_555
Na38 O132 2.768570 1_555
Na39 O121 2.476338 1_555
Na39 O123 2.541463 1_555
Na39 O135 2.619226 1_555
Na39 O125 2.622811 1_555
Na39 O137 2.623564 1_555
Na39 O133 2.777692 1_555
Na40 O142 2.551573 1_555
Na40 O140 2.553745 1_555
Na40 O130 2.604397 1_555
Na40 O126 2.643206 1_555
Na40 O138 2.711967 1_555
Na40 O128 2.786294 1_555
Na40 O16 3.405284 1_555
Na40 O26 3.556219 1_565
Na41 O139 2.544501 1_555
Na41 O141 2.565969 1_555
Na41 O129 2.569197 1_555
Na41 O127 2.570706 1_555
Na41 O143 2.638625 1_555
Na41 O131 2.663940 1_555
Nb0 O12 1.976460 1_555
Nb0 O17 1.995627 1_555
Nb0 O15 2.016809 1_565
Nb0 O88 2.024675 1_555
Nb0 O84 2.045866 1_565
Nb0 O87 2.062501 1_565
Nb1 O25 1.937765 1_555
Nb1 O101 1.990097 1_555
Nb1 O29 2.013295 1_555
Nb1 O27 2.044632 1_555
Nb1 O97 2.045064 1_555
Nb1 O99 2.073122 1_555
Nb2 O30 1.875669 1_555
Nb2 O34 1.938449 1_555
Nb2 O102 1.977194 1_555
Nb2 O32 2.001115 1_555
Nb2 O104 2.007535 1_555
Nb2 O106 2.308986 1_555
Nb3 O31 1.874753 1_555
Nb3 O35 1.938318 1_555
Nb3 O103 1.976488 1_555
Nb3 O33 2.001369 1_555
Nb3 O105 2.003221 1_555
Nb3 O107 2.317048 1_555
Nb4 O40 1.949998 1_556
Nb4 O36 1.955669 1_556
Nb4 O38 1.963734 1_556
Nb4 O108 2.077448 1_555
Nb4 O112 2.088166 1_555
Nb4 O110 2.090013 1_555
Nb5 O41 1.940235 1_556
Nb5 O37 1.947042 1_556
Nb5 O39 1.969242 1_556
Nb5 O113 2.089538 1_555
Nb5 O111 2.103348 1_555
Nb5 O109 2.106535 1_555
Nb6 O58 1.941943 1_555
Nb6 O54 1.949748 1_555
Nb6 O126 1.982967 1_555
Nb6 O56 1.990629 1_555
Nb6 O128 2.058301 1_555
Nb6 O130 2.113454 1_555
Nb7 O55 1.938207 1_555
Nb7 O59 1.955292 1_555
Nb7 O57 1.957336 1_555
Nb7 O131 2.031024 1_555
Nb7 O129 2.085169 1_555
Nb7 O127 2.131465 1_555
Nb8 O64 1.879630 1_555
Nb8 O60 1.939337 1_555
Nb8 O136 1.977628 1_555
Nb8 O134 2.006974 1_555
Nb8 O62 2.008404 1_555
Nb8 O132 2.324334 1_555
Nb9 O65 1.877219 1_555
Nb9 O61 1.947585 1_555
Nb9 O137 1.971871 1_555
Nb9 O135 2.000851 1_555
Nb9 O63 2.006492 1_555
Nb9 O133 2.307898 1_555
Nb10 O68 1.896934 1_555
Nb10 O66 1.960738 1_555
Nb10 O140 1.986859 1_555
Nb10 O70 2.010330 1_555
Nb10 O142 2.103802 1_555
Nb10 O138 2.292530 1_555
Nb11 O69 1.967425 1_555
Nb11 O67 1.980956 1_555
Nb11 O71 1.987611 1_555
Nb11 O143 2.013171 1_555
Nb11 O141 2.110641 1_555
Nb11 O139 2.158129 1_555
O0 S0 1.495845 1_555
O0 Y0 2.374808 1_445
O1 S1 1.495166 1_555
O1 Y1 2.372320 1_545
O2 Si0 1.629003 1_555
O2 Y1 2.178300 1_555
O3 Si1 1.625522 1_555
O3 Y0 2.188311 1_555
O4 Si3 1.637460 1_555
O4 Y1 2.192603 1_545
O5 Si2 1.636030 1_555
O5 Y0 2.201560 1_545
O6 S2 1.483973 1_555
O6 Y2 2.311544 1_445
O7 Si4 1.606785 1_555
O7 Y3 2.228260 1_555
O8 Si6 1.601204 1_555
O8 Y3 2.166248 1_565
O9 Si5 1.627501 1_655
O9 Y2 2.223990 1_555
O10 Si7 1.607469 1_545
O10 Y3 2.165346 1_555
O11 Si8 1.610758 1_555
O11 Y2 2.196787 1_545
O12 Si7 1.714417 1_555
O13 Si8 1.621776 1_565
O13 Y4 2.233287 1_555
O14 S2 1.483986 1_555
O14 Y4 2.370137 1_445
O15 Si4 1.671548 1_555
O16 Si5 1.616394 1_555
O16 Y4 2.201586 1_455
O17 Si6 1.693736 1_555
O18 Si0 1.633659 1_555
O18 Y6 2.200936 1_565
O19 Si1 1.634433 1_555
O19 Y5 2.202750 1_565
O20 Si2 1.625069 1_455
O20 Y5 2.184127 1_455
O21 Si3 1.623549 1_555
O21 Y6 2.187728 1_555
O22 S0 1.481879 1_565
O22 Y5 2.380495 1_465
O23 S1 1.477766 1_565
O23 Y6 2.388788 1_565
O24 Si9 1.618251 1_555
O24 Y7 2.201504 1_555
O25 Si10 1.694297 1_555
O26 Si11 1.617642 1_555
O26 Y7 2.152393 1_555
O27 Si12 1.654077 1_555
O28 Si13 1.618142 1_555
O28 Y7 2.234080 1_555
O29 Si14 1.676409 1_555
O30 Si15 1.667385 1_555
O31 Si16 1.667672 1_555
O32 Si17 1.647332 1_555
O33 Si18 1.645580 1_555
O34 Si19 1.644496 1_555
O35 Si20 1.643763 1_555
O36 Si19 1.688552 1_555
O37 Si20 1.693260 1_555
O38 Si15 1.676251 1_555
O39 Si16 1.678503 1_555
O40 Si17 1.691109 1_555
O41 Si18 1.696212 1_555
O42 Si11 1.626489 1_555
O42 Y8 2.175045 1_555
O43 Si12 1.617940 1_555
O43 Y9 2.249551 1_555
O44 Si13 1.629247 1_555
O44 Y8 2.246264 1_555
O45 Si14 1.609396 1_555
O45 Y9 2.173928 1_555
O46 Si9 1.621126 1_555
O46 Y8 2.235282 1_555
O47 Si10 1.615667 1_555
O47 Y9 2.185703 1_555
O48 Si21 1.612146 1_555
O48 Y10 2.156125 1_556
O49 Si22 1.603118 1_555
O49 Y11 2.165964 1_556
O50 Si23 1.610074 1_555
O50 Y10 2.181371 1_556
O51 Si24 1.605209 1_555
O51 Y11 2.164153 1_556
O52 Si25 1.606592 1_555
O52 Y10 2.202688 1_556
O53 Si26 1.603391 1_555
O53 Y11 2.165655 1_556
O54 Si27 1.676924 1_555
O55 Si28 1.691087 1_555
O56 Si29 1.664374 1_555
O57 Si30 1.669332 1_555
O58 Si31 1.669687 1_555
O59 Si32 1.686879 1_555
O60 Si31 1.646895 1_555
O61 Si32 1.642630 1_555
O62 Si27 1.648641 1_555
O63 Si28 1.644721 1_555
O64 Si29 1.673224 1_555
O65 Si30 1.664785 1_555
O66 Si23 1.690779 1_555
O67 Si24 1.704193 1_555
O68 Si25 1.712330 1_555
O69 Si26 1.705638 1_555
O70 Si21 1.690705 1_555
O71 Si22 1.705579 1_555
O72 Si31 1.624737 1_555
O72 Y0 2.294239 1_455
O73 Si32 1.627020 1_555
O73 Y1 2.319336 1_555
O74 Si27 1.637767 1_555
O74 Y1 2.259821 1_555
O75 Si28 1.629631 1_555
O75 Y0 2.258320 1_555
O76 Si29 1.621757 1_555
O76 Y0 2.320238 1_445
O77 Si30 1.623202 1_555
O77 Y1 2.347851 1_545
O78 Si23 1.621505 1_555
O78 Y2 2.256980 1_445
O79 Si24 1.616063 1_555
O79 Y3 2.252397 1_555
O80 Si25 1.617505 1_545
O80 Y2 2.261304 1_445
O81 Si26 1.614041 1_555
O81 Y3 2.257505 1_565
O82 Si21 1.618696 1_555
O82 Y3 2.274013 1_565
O83 Si22 1.626051 1_555
O83 Y2 2.196175 1_555
O84 Si9 1.669074 1_555
O85 Si10 1.616588 1_555
O85 Y4 2.239865 1_545
O86 Si11 1.629779 1_555
O86 Y4 2.243788 1_445
O87 Si12 1.659401 1_555
O88 Si13 1.682352 1_555
O89 Si14 1.620112 1_555
O89 Y4 2.209683 1_555
O90 Si15 1.620027 1_555
O90 Y6 2.327136 1_565
O91 Si16 1.620814 1_555
O91 Y5 2.335204 1_565
O92 Si17 1.632914 1_555
O92 Y6 2.257500 1_555
O93 Si18 1.632569 1_555
O93 Y5 2.261352 1_555
O94 Si19 1.626628 1_555
O94 Y5 2.304343 1_455
O95 Si20 1.623579 1_555
O95 Y6 2.304294 1_555
O96 Si7 1.609945 1_545
O96 Y7 2.212676 1_555
O97 Si8 1.662064 1_555
O98 S2 1.478809 1_555
O98 Y7 2.437565 1_555
O99 Si4 1.648043 1_555
O100 Si6 1.615429 1_555
O100 Y7 2.283017 1_555
O101 Si5 1.682985 1_655
O102 Si0 1.658439 1_555
O103 Si1 1.658661 1_555
O104 Si3 1.671398 1_555
O105 Si2 1.674401 1_555
O106 S0 1.493611 1_555
O107 S1 1.493906 1_555
O108 Si21 1.672169 1_555
O109 Si22 1.665791 1_555
O110 Si24 1.666062 1_555
O111 Si23 1.670949 1_655
O112 Si25 1.656186 1_545
O113 Si26 1.671288 1_545
O114 Si27 1.625751 1_545
O114 Y8 2.324961 1_555
O115 Si28 1.621285 1_545
O115 Y9 2.289773 1_555
O116 Si29 1.619158 1_555
O116 Y8 2.306009 1_555
O117 Si30 1.613718 1_555
O117 Y9 2.298211 1_555
O118 Si32 1.621837 1_555
O118 Y8 2.294984 1_555
O119 Si31 1.623176 1_655
O119 Y9 2.324369 1_555
O120 Si19 1.621583 1_555
O120 Y10 2.311112 1_555
O121 Si20 1.620057 1_555
O121 Y11 2.298691 1_555
O122 Si16 1.613969 1_455
O122 Y10 2.292185 1_555
O123 Si15 1.614902 1_555
O123 Y11 2.294340 1_555
O124 Si17 1.623822 1_565
O124 Y10 2.302098 1_555
O125 Si18 1.620764 1_565
O125 Y11 2.300386 1_555
O126 Si11 1.672150 1_565
O127 Si12 1.665792 1_565
O128 Si13 1.660239 1_555
O129 Si14 1.670590 1_555
O130 Si10 1.657988 1_455
O131 Si9 1.660276 1_555
O132 S0 1.490475 1_565
O133 S1 1.494744 1_565
O134 Si0 1.672450 1_555
O135 Si1 1.675673 1_555
O136 Si2 1.659828 1_455
O137 Si3 1.661361 1_555
O138 S2 1.498710 1_555
O139 Si4 1.660457 1_555
O140 Si5 1.664394 1_555
O141 Si6 1.669020 1_555
O142 Si7 1.670510 1_555
O143 Si8 1.682445 1_565
