# generated using pymatgen
data_Bi2(PO4)3
_symmetry_space_group_name_H-M   'P 1'
_cell_length_a   9.24782300
_cell_length_b   8.76163300
_cell_length_c   15.20089671
_cell_angle_alpha   55.62313018
_cell_angle_beta   90.00000000
_cell_angle_gamma   90.00000000
_symmetry_Int_Tables_number   1
_chemical_formula_structural   Bi2(PO4)3
_chemical_formula_sum   'Bi8 P12 O48'
_cell_volume   1016.54699632
_cell_formula_units_Z   4
loop_
 _symmetry_equiv_pos_site_id
 _symmetry_equiv_pos_as_xyz
  1  'x, y, z'
loop_
 _atom_site_type_symbol
 _atom_site_label
 _atom_site_symmetry_multiplicity
 _atom_site_fract_x
 _atom_site_fract_y
 _atom_site_fract_z
 _atom_site_occupancy
  Bi  Bi0  1  0.46649600  0.86517600  0.88860100  1
  Bi  Bi1  1  0.53350400  0.13482400  0.11139900  1
  Bi  Bi2  1  0.03620400  0.64154300  0.11179100  1
  Bi  Bi3  1  0.96379600  0.35845700  0.88820900  1
  Bi  Bi4  1  0.96649600  0.13482400  0.61139900  1
  Bi  Bi5  1  0.53620400  0.35845700  0.38820900  1
  Bi  Bi6  1  0.03350400  0.86517600  0.38860100  1
  Bi  Bi7  1  0.46379600  0.64154300  0.61179100  1
  P  P0  1  0.24768600  0.44838300  0.00587600  1
  P  P1  1  0.87716500  0.26846600  0.33727500  1
  P  P2  1  0.74768600  0.55161700  0.49412400  1
  P  P3  1  0.10828100  0.03177200  0.85233500  1
  P  P4  1  0.37716500  0.73153400  0.16272500  1
  P  P5  1  0.39171900  0.03177200  0.35233500  1
  P  P6  1  0.89171900  0.96822800  0.14766500  1
  P  P7  1  0.75231400  0.55161700  0.99412400  1
  P  P8  1  0.25231400  0.44838300  0.50587600  1
  P  P9  1  0.62283500  0.26846600  0.83727500  1
  P  P10  1  0.60828100  0.96822800  0.64766500  1
  P  P11  1  0.12283500  0.73153400  0.66272500  1
  O  O0  1  0.55214000  0.16793300  0.56336400  1
  O  O1  1  0.23926400  0.02405600  0.31381600  1
  O  O2  1  0.99688900  0.87133500  0.24227000  1
  O  O3  1  0.13620200  0.49158000  0.91767900  1
  O  O4  1  0.73926400  0.97594400  0.18618400  1
  O  O5  1  0.94786000  0.16793300  0.06336400  1
  O  O6  1  0.28754800  0.68898300  0.69162400  1
  O  O7  1  0.11259900  0.14758200  0.90174000  1
  O  O8  1  0.61259900  0.85241800  0.59826000  1
  O  O9  1  0.88740100  0.85241800  0.09826000  1
  O  O10  1  0.31845500  0.45378000  0.59862300  1
  O  O11  1  0.63620200  0.50842000  0.58232100  1
  O  O12  1  0.10656300  0.83120500  0.54201300  1
  O  O13  1  0.60656300  0.16879500  0.95798700  1
  O  O14  1  0.76073600  0.97594400  0.68618400  1
  O  O15  1  0.19341300  0.25015000  0.55721000  1
  O  O16  1  0.26073600  0.02405600  0.81381600  1
  O  O17  1  0.42465300  0.85571900  0.20009200  1
  O  O18  1  0.92465300  0.14428100  0.29990800  1
  O  O19  1  0.69341300  0.74985000  0.94279000  1
  O  O20  1  0.78754800  0.31101700  0.80837600  1
  O  O21  1  0.05214000  0.83206700  0.93663600  1
  O  O22  1  0.13042300  0.58914300  0.44600200  1
  O  O23  1  0.86957700  0.41085700  0.55399800  1
  O  O24  1  0.63042300  0.41085700  0.05399800  1
  O  O25  1  0.49688900  0.12866500  0.25773000  1
  O  O26  1  0.00311100  0.12866500  0.75773000  1
  O  O27  1  0.68154500  0.54622000  0.40137700  1
  O  O28  1  0.44786000  0.83206700  0.43663600  1
  O  O29  1  0.46992900  0.55076800  0.22058900  1
  O  O30  1  0.38740100  0.14758200  0.40174000  1
  O  O31  1  0.89343700  0.16879500  0.45798700  1
  O  O32  1  0.86379800  0.50842000  0.08232100  1
  O  O33  1  0.57534700  0.14428100  0.79990800  1
  O  O34  1  0.80658700  0.74985000  0.44279000  1
  O  O35  1  0.81845500  0.54622000  0.90137700  1
  O  O36  1  0.53007100  0.44923200  0.77941100  1
  O  O37  1  0.21245200  0.68898300  0.19162400  1
  O  O38  1  0.39343700  0.83120500  0.04201300  1
  O  O39  1  0.96992900  0.44923200  0.27941100  1
  O  O40  1  0.07534700  0.85571900  0.70009200  1
  O  O41  1  0.30658700  0.25015000  0.05721000  1
  O  O42  1  0.18154500  0.45378000  0.09862300  1
  O  O43  1  0.71245200  0.31101700  0.30837600  1
  O  O44  1  0.36379800  0.49158000  0.41767900  1
  O  O45  1  0.03007100  0.55076800  0.72058900  1
  O  O46  1  0.36957700  0.58914300  0.94600200  1
  O  O47  1  0.50311100  0.87133500  0.74227000  1
loop_
_geom_bond_atom_site_label_1
_geom_bond_atom_site_label_2
_geom_bond_distance
_geom_bond_site_symmetry_2
Bi0 O47 2.220317 1_555
Bi0 O46 2.242938 1_555
Bi0 O16 2.250297 1_565
Bi0 O33 2.255642 1_565
Bi0 O19 2.272279 1_555
Bi0 O38 2.280236 1_556
Bi1 O25 2.220317 1_555
Bi1 O24 2.242938 1_555
Bi1 O4 2.250297 1_545
Bi1 O17 2.255642 1_545
Bi1 O41 2.272279 1_555
Bi1 O13 2.280236 1_554
Bi2 O32 2.166379 1_455
Bi2 O39 2.204245 1_455
Bi2 O37 2.207181 1_555
Bi2 O21 2.208662 1_554
Bi2 O9 2.218216 1_455
Bi2 O42 2.219209 1_555
Bi3 O3 2.166379 1_655
Bi3 O45 2.204245 1_655
Bi3 O20 2.207181 1_555
Bi3 O5 2.208662 1_556
Bi3 O7 2.218216 1_655
Bi3 O35 2.219209 1_555
Bi4 O26 2.220317 1_655
Bi4 O23 2.242938 1_555
Bi4 O14 2.250297 1_545
Bi4 O40 2.255642 1_645
Bi4 O15 2.272279 1_655
Bi4 O31 2.280236 1_555
Bi5 O44 2.166379 1_555
Bi5 O29 2.204245 1_555
Bi5 O43 2.207181 1_555
Bi5 O0 2.208662 1_555
Bi5 O30 2.218216 1_555
Bi5 O27 2.219209 1_555
Bi6 O2 2.220317 1_455
Bi6 O22 2.242938 1_555
Bi6 O1 2.250297 1_565
Bi6 O18 2.255642 1_465
Bi6 O34 2.272279 1_455
Bi6 O12 2.280236 1_555
Bi7 O11 2.166379 1_555
Bi7 O36 2.204245 1_555
Bi7 O6 2.207181 1_555
Bi7 O28 2.208662 1_555
Bi7 O8 2.218216 1_555
Bi7 O10 2.219209 1_555
O0 P10 1.562437 1_545
O1 P5 1.542680 1_555
O2 P6 1.534944 1_555
O3 P0 1.559030 1_556
O4 P6 1.542680 1_555
O5 P6 1.562437 1_545
O6 P11 1.570755 1_555
O7 P3 1.567072 1_555
O8 P10 1.567072 1_555
O9 P6 1.567072 1_555
O10 P8 1.561823 1_555
O11 P2 1.559030 1_555
O12 P11 1.530583 1_555
O13 P9 1.530583 1_555
O14 P10 1.542680 1_555
O15 P8 1.546526 1_555
O16 P3 1.542680 1_555
O17 P4 1.548324 1_555
O18 P1 1.548324 1_555
O19 P7 1.546526 1_555
O20 P9 1.570755 1_555
O21 P3 1.562437 1_565
O22 P8 1.533763 1_555
O23 P2 1.533763 1_555
O24 P7 1.533763 1_554
O25 P5 1.534944 1_555
O26 P3 1.534944 1_555
O27 P2 1.561823 1_555
O28 P5 1.562437 1_565
O29 P4 1.563608 1_555
O30 P5 1.567072 1_555
O31 P1 1.530583 1_555
O32 P7 1.559030 1_554
O33 P9 1.548324 1_555
O34 P2 1.546526 1_555
O35 P7 1.561823 1_555
O36 P9 1.563608 1_555
O37 P4 1.570755 1_555
O38 P4 1.530583 1_555
O39 P1 1.563608 1_555
O40 P11 1.548324 1_555
O41 P0 1.546526 1_555
O42 P0 1.561823 1_555
O43 P1 1.570755 1_555
O44 P8 1.559030 1_555
O45 P11 1.563608 1_555
O46 P0 1.533763 1_556
O47 P10 1.534944 1_555
