# generated using pymatgen
data_MnHO2
_symmetry_space_group_name_H-M   'P 1'
_cell_length_a   5.23013727
_cell_length_b   5.30280922
_cell_length_c   5.31343401
_cell_angle_alpha   66.40262682
_cell_angle_beta   90.00000000
_cell_angle_gamma   90.00000000
_symmetry_Int_Tables_number   1
_chemical_formula_structural   MnHO2
_chemical_formula_sum   'Mn4 H4 O8'
_cell_volume   135.04250861
_cell_formula_units_Z   4
loop_
 _symmetry_equiv_pos_site_id
 _symmetry_equiv_pos_as_xyz
  1  'x, y, z'
loop_
 _atom_site_type_symbol
 _atom_site_label
 _atom_site_symmetry_multiplicity
 _atom_site_fract_x
 _atom_site_fract_y
 _atom_site_fract_z
 _atom_site_occupancy
  Mn  Mn0  1  0.51302617  0.26262053  0.74782114  1
  Mn  Mn1  1  0.01302617  0.73737947  0.75217886  1
  Mn  Mn2  1  0.48697383  0.73737947  0.25217886  1
  Mn  Mn3  1  0.98697383  0.26262053  0.24782114  1
  H  H0  1  0.52393830  0.78016961  0.76786390  1
  H  H1  1  0.02393830  0.21983039  0.73213610  1
  H  H2  1  0.47606170  0.21983039  0.23213610  1
  H  H3  1  0.97606170  0.78016961  0.26786390  1
  O  O0  1  0.37527161  0.12644953  0.12987749  1
  O  O1  1  0.87527161  0.87355047  0.37012251  1
  O  O2  1  0.12472839  0.12644953  0.62987749  1
  O  O3  1  0.62472839  0.87355047  0.87012251  1
  O  O4  1  0.63040594  0.37529478  0.38028637  1
  O  O5  1  0.36959406  0.62470522  0.61971363  1
  O  O6  1  0.13040594  0.62470522  0.11971363  1
  O  O7  1  0.86959406  0.37529478  0.88028637  1
loop_
_geom_bond_atom_site_label_1
_geom_bond_atom_site_label_2
_geom_bond_distance
_geom_bond_site_symmetry_2
Mn0 O4 1.900899 1_555
Mn0 O5 1.914776 1_555
Mn0 O3 1.986667 1_545
Mn0 O0 1.996981 1_556
Mn0 O7 2.160308 1_555
Mn0 O2 2.323962 1_555
Mn1 O6 1.900899 1_556
Mn1 O7 1.914776 1_455
Mn1 O2 1.986667 1_565
Mn1 O1 1.996981 1_455
Mn1 O5 2.160308 1_555
Mn1 O3 2.323962 1_455
Mn2 O5 1.900899 1_555
Mn2 O4 1.914776 1_555
Mn2 O0 1.986667 1_565
Mn2 O3 1.996981 1_554
Mn2 O6 2.160308 1_555
Mn2 O1 2.323962 1_555
Mn3 O7 1.900899 1_554
Mn3 O6 1.914776 1_655
Mn3 O1 1.986667 1_545
Mn3 O2 1.996981 1_655
Mn3 O4 2.160308 1_555
Mn3 O0 2.323962 1_655
H0 O3 1.016719 1_555
H0 O5 1.571781 1_555
H1 O2 1.016719 1_555
H1 O7 1.571781 1_455
H2 O0 1.016719 1_555
H2 O4 1.571781 1_555
H3 O1 1.016719 1_555
H3 O6 1.571781 1_655
