# generated using pymatgen
data_InPb2I5
_symmetry_space_group_name_H-M   'P 1'
_cell_length_a   10.06066613
_cell_length_b   10.06066613
_cell_length_c   10.06066613
_cell_angle_alpha   126.79597067
_cell_angle_beta   126.79597067
_cell_angle_gamma   78.58379571
_symmetry_Int_Tables_number   1
_chemical_formula_structural   InPb2I5
_chemical_formula_sum   'In2 Pb4 I10'
_cell_volume   632.10839637
_cell_formula_units_Z   2
loop_
 _symmetry_equiv_pos_site_id
 _symmetry_equiv_pos_as_xyz
  1  'x, y, z'
loop_
 _atom_site_type_symbol
 _atom_site_label
 _atom_site_symmetry_multiplicity
 _atom_site_fract_x
 _atom_site_fract_y
 _atom_site_fract_z
 _atom_site_occupancy
  In  In0  1  0.25000000  0.25000000  0.00000000  1
  In  In1  1  0.75000000  0.75000000  0.00000000  1
  Pb  Pb0  1  0.66337800  0.16337800  0.82675600  1
  Pb  Pb1  1  0.33662200  0.83662200  0.17324400  1
  Pb  Pb2  1  0.83662200  0.66337800  0.50000000  1
  Pb  Pb3  1  0.16337800  0.33662200  0.50000000  1
  I  I0  1  0.29567500  0.79567500  0.81292200  1
  I  I1  1  0.70432500  0.20432500  0.18707800  1
  I  I2  1  0.98275300  0.48275300  0.18707800  1
  I  I3  1  0.01724700  0.51724700  0.81292200  1
  I  I4  1  0.00000000  0.00000000  0.00000000  1
  I  I5  1  0.50000000  0.50000000  0.00000000  1
  I  I6  1  0.51724700  0.70432500  0.50000000  1
  I  I7  1  0.48275300  0.29567500  0.50000000  1
  I  I8  1  0.20432500  0.01724700  0.50000000  1
  I  I9  1  0.79567500  0.98275300  0.50000000  1
loop_
_geom_bond_atom_site_label_1
_geom_bond_atom_site_label_2
_geom_bond_distance
_geom_bond_site_symmetry_2
I0 Pb1 3.157512 1_556
I0 Pb2 3.606724 1_455
I0 Pb3 3.606724 1_555
I0 In1 3.813767 1_556
I0 In0 3.813767 1_566
I0 I2 3.987335 1_455
I0 I5 4.033397 1_556
I0 I4 4.033397 1_566
I0 I1 4.193799 1_566
I1 Pb0 3.157512 1_554
I1 Pb3 3.606724 1_655
I1 Pb2 3.606724 1_555
I1 In1 3.813767 1_545
I1 In0 3.813767 1_555
I1 I3 3.987335 1_655
I1 I4 4.033397 1_655
I1 I5 4.033397 1_555
I2 Pb0 3.157512 1_554
I2 Pb3 3.606724 1_655
I2 Pb2 3.606724 1_555
I2 In1 3.813767 1_555
I2 In0 3.813767 1_655
I2 I5 4.033397 1_555
I2 I4 4.033397 1_655
I2 I3 4.193799 1_654
I3 Pb1 3.157512 1_556
I3 Pb3 3.606724 1_555
I3 Pb2 3.606724 1_455
I3 In1 3.813767 1_456
I3 In0 3.813767 1_556
I3 I5 4.033397 1_556
I3 I4 4.033397 1_566
I4 Pb1 3.371368 1_545
I4 Pb3 3.371368 1_555
I4 Pb2 3.371368 1_444
I4 Pb0 3.371368 1_454
I4 In1 3.893124 1_445
I4 In0 3.893124 1_555
I4 I7 4.033397 1_555
I4 I9 4.033397 1_444
I4 I6 4.033397 1_444
I4 I8 4.033397 1_555
I5 Pb1 3.371368 1_555
I5 Pb2 3.371368 1_555
I5 Pb3 3.371368 1_554
I5 Pb0 3.371368 1_554
I5 In1 3.893124 1_555
I5 In0 3.893124 1_555
I5 I7 4.033397 1_554
I5 I9 4.033397 1_555
I5 I6 4.033397 1_555
I5 I8 4.033397 1_554
I6 Pb2 3.157512 1_555
I6 Pb0 3.606724 1_565
I6 Pb1 3.606724 1_555
I6 In1 3.813767 1_556
I6 In0 3.813767 1_555
I6 I8 3.987335 1_565
I6 I7 4.193799 1_555
I7 Pb3 3.157512 1_555
I7 Pb0 3.606724 1_555
I7 Pb1 3.606724 1_545
I7 In0 3.813767 1_555
I7 In1 3.813767 1_556
I7 I9 3.987335 1_545
I8 Pb3 3.157512 1_555
I8 Pb0 3.606724 1_555
I8 Pb1 3.606724 1_545
I8 In1 3.813767 1_445
I8 In0 3.813767 1_556
I8 I9 4.193799 1_445
I9 Pb2 3.157512 1_555
I9 Pb0 3.606724 1_565
I9 Pb1 3.606724 1_555
I9 In0 3.813767 1_666
I9 In1 3.813767 1_555
