# generated using pymatgen
data_Sr3MgCo2Cl2O5
_symmetry_space_group_name_H-M   'P 1'
_cell_length_a   7.76410585
_cell_length_b   8.22885847
_cell_length_c   29.03113086
_cell_angle_alpha   98.14765091
_cell_angle_beta   97.68463190
_cell_angle_gamma   89.99999415
_symmetry_Int_Tables_number   1
_chemical_formula_structural   Sr3MgCo2Cl2O5
_chemical_formula_sum   'Sr24 Mg8 Co16 Cl16 O40'
_cell_volume   1819.23994216
_cell_formula_units_Z   8
loop_
 _symmetry_equiv_pos_site_id
 _symmetry_equiv_pos_as_xyz
  1  'x, y, z'
loop_
 _atom_site_type_symbol
 _atom_site_label
 _atom_site_symmetry_multiplicity
 _atom_site_fract_x
 _atom_site_fract_y
 _atom_site_fract_z
 _atom_site_occupancy
  Sr  Sr0_0  1  0.47292511  0.47292510  0.44585021  1
  Sr  Sr0_1  1  0.47292510  0.47292510  0.94585021  1
  Sr  Sr0_2  1  0.47292511  0.97292510  0.44585021  1
  Sr  Sr0_3  1  0.47292511  0.97292511  0.94585021  1
  Sr  Sr0_4  1  0.97292510  0.47292510  0.44585021  1
  Sr  Sr0_5  1  0.97292510  0.47292511  0.94585021  1
  Sr  Sr0_6  1  0.97292510  0.97292510  0.44585021  1
  Sr  Sr0_7  1  0.97292510  0.97292510  0.94585021  1
  Sr  Sr1_0  1  0.08238993  0.08239043  0.16478086  1
  Sr  Sr1_1  1  0.08238993  0.08239043  0.66478086  1
  Sr  Sr1_2  1  0.08238993  0.58239043  0.16478086  1
  Sr  Sr1_3  1  0.08238993  0.58239043  0.66478086  1
  Sr  Sr1_4  1  0.58238993  0.08239043  0.16478086  1
  Sr  Sr1_5  1  0.58238993  0.08239043  0.66478086  1
  Sr  Sr1_6  1  0.58238993  0.58239043  0.16478086  1
  Sr  Sr1_7  1  0.58238993  0.58239043  0.66478086  1
  Sr  Sr2_0  1  0.41401855  0.41401805  0.32803660  1
  Sr  Sr2_1  1  0.41401855  0.41401805  0.82803660  1
  Sr  Sr2_2  1  0.41401855  0.91401805  0.32803660  1
  Sr  Sr2_3  1  0.41401855  0.91401805  0.82803660  1
  Sr  Sr2_4  1  0.91401855  0.41401805  0.32803660  1
  Sr  Sr2_5  1  0.91401855  0.41401805  0.82803660  1
  Sr  Sr2_6  1  0.91401855  0.91401805  0.32803660  1
  Sr  Sr2_7  1  0.91401855  0.91401805  0.82803660  1
  Mg  Mg0_0  1  0.01927788  0.26927788  0.03855576  1
  Mg  Mg0_1  1  0.01927788  0.26927788  0.53855577  1
  Mg  Mg0_2  1  0.01927789  0.76927788  0.03855577  1
  Mg  Mg0_3  1  0.01927788  0.76927789  0.53855577  1
  Mg  Mg0_4  1  0.51927789  0.26927788  0.03855576  1
  Mg  Mg0_5  1  0.51927788  0.26927788  0.53855577  1
  Mg  Mg0_6  1  0.51927789  0.76927789  0.03855577  1
  Mg  Mg0_7  1  0.51927788  0.76927789  0.53855577  1
  Co  Co0_0  1  0.19357758  0.19357808  0.38715616  1
  Co  Co0_1  1  0.19357758  0.19357808  0.88715616  1
  Co  Co0_2  1  0.19357758  0.69357808  0.38715616  1
  Co  Co0_3  1  0.19357758  0.69357808  0.88715616  1
  Co  Co0_4  1  0.69357758  0.19357808  0.38715616  1
  Co  Co0_5  1  0.69357758  0.19357808  0.88715616  1
  Co  Co0_6  1  0.69357758  0.69357808  0.38715616  1
  Co  Co0_7  1  0.69357758  0.69357808  0.88715615  1
  Co  Co1_0  1  0.30441412  0.30441512  0.10882925  1
  Co  Co1_1  1  0.30441412  0.30441513  0.60882925  1
  Co  Co1_2  1  0.30441412  0.80441512  0.10882925  1
  Co  Co1_3  1  0.30441412  0.80441513  0.60882925  1
  Co  Co1_4  1  0.80441412  0.30441513  0.10882925  1
  Co  Co1_5  1  0.80441412  0.30441513  0.60882925  1
  Co  Co1_6  1  0.80441412  0.80441513  0.10882925  1
  Co  Co1_7  1  0.80441412  0.80441513  0.60882925  1
  Cl  Cl0_0  1  0.14814991  0.14814941  0.29629882  1
  Cl  Cl0_1  1  0.14814991  0.14814941  0.79629882  1
  Cl  Cl0_2  1  0.14814991  0.64814941  0.29629882  1
  Cl  Cl0_3  1  0.14814991  0.64814941  0.79629882  1
  Cl  Cl0_4  1  0.64814991  0.14814941  0.29629882  1
  Cl  Cl0_5  1  0.64814991  0.14814941  0.79629882  1
  Cl  Cl0_6  1  0.64814991  0.64814941  0.29629882  1
  Cl  Cl0_7  1  0.64814991  0.64814941  0.79629882  1
  Cl  Cl1_0  1  0.35901844  0.35901743  0.21803637  1
  Cl  Cl1_1  1  0.35901843  0.35901743  0.71803637  1
  Cl  Cl1_2  1  0.35901844  0.85901744  0.21803637  1
  Cl  Cl1_3  1  0.35901843  0.85901744  0.71803637  1
  Cl  Cl1_4  1  0.85901843  0.35901743  0.21803637  1
  Cl  Cl1_5  1  0.85901843  0.35901743  0.71803637  1
  Cl  Cl1_6  1  0.85901844  0.85901743  0.21803637  1
  Cl  Cl1_7  1  0.85901843  0.85901744  0.71803637  1
  O  O0_0  1  0.25248003  0.25248053  0.00496057  1
  O  O0_1  1  0.25248003  0.25248054  0.50496057  1
  O  O0_2  1  0.25248003  0.75248053  0.00496057  1
  O  O0_3  1  0.25248003  0.75248054  0.50496057  1
  O  O0_4  1  0.75248003  0.25248054  0.00496057  1
  O  O0_5  1  0.75248003  0.25248054  0.50496057  1
  O  O0_6  1  0.75248003  0.75248054  0.00496057  1
  O  O0_7  1  0.75248003  0.75248054  0.50496057  1
  O  O1_0  1  0.19451508  0.44451558  0.38902967  1
  O  O1_1  1  0.19451508  0.44451559  0.88902967  1
  O  O1_2  1  0.19451508  0.94451558  0.38902967  1
  O  O1_3  1  0.19451508  0.94451558  0.88902967  1
  O  O1_4  1  0.69451508  0.44451558  0.38902967  1
  O  O1_5  1  0.69451508  0.44451559  0.88902967  1
  O  O1_6  1  0.69451509  0.94451559  0.38902967  1
  O  O1_7  1  0.69451508  0.94451559  0.88902967  1
  O  O2_0  1  0.44795264  0.19795264  0.39590528  1
  O  O2_1  1  0.44795264  0.19795264  0.89590528  1
  O  O2_2  1  0.44795264  0.69795264  0.39590528  1
  O  O2_3  1  0.44795264  0.69795264  0.89590528  1
  O  O2_4  1  0.94795264  0.19795264  0.39590528  1
  O  O2_5  1  0.94795264  0.19795264  0.89590528  1
  O  O2_6  1  0.94795264  0.69795264  0.39590528  1
  O  O2_7  1  0.94795264  0.69795264  0.89590528  1
  O  O3_0  1  0.05332735  0.30332735  0.10665571  1
  O  O3_1  1  0.05332735  0.30332735  0.60665570  1
  O  O3_2  1  0.05332735  0.80332735  0.10665571  1
  O  O3_3  1  0.05332735  0.80332735  0.60665570  1
  O  O3_4  1  0.55332735  0.30332735  0.10665571  1
  O  O3_5  1  0.55332735  0.30332735  0.60665571  1
  O  O3_6  1  0.55332735  0.80332735  0.10665571  1
  O  O3_7  1  0.55332735  0.80332735  0.60665570  1
  O  O4_0  1  0.30795187  0.05795287  0.11590474  1
  O  O4_1  1  0.30795187  0.05795287  0.61590474  1
  O  O4_2  1  0.30795187  0.55795287  0.11590474  1
  O  O4_3  1  0.30795187  0.55795287  0.61590474  1
  O  O4_4  1  0.80795187  0.05795287  0.11590474  1
  O  O4_5  1  0.80795187  0.05795287  0.61590474  1
  O  O4_6  1  0.80795187  0.55795287  0.11590474  1
  O  O4_7  1  0.80795187  0.55795287  0.61590474  1
loop_
_geom_bond_atom_site_label_1
_geom_bond_atom_site_label_2
_geom_bond_distance
_geom_bond_site_symmetry_2
Mg0_0 O3_0 1.939124 1_555
Mg0_0 O0_0 2.163951 1_555
Mg0_0 O0_4 2.163954 1_455
Mg0_0 Sr0_5 3.346710 1_454
Mg0_0 Sr0_7 3.346711 1_444
Mg0_1 O3_1 1.939124 1_555
Mg0_1 O0_1 2.163951 1_555
Mg0_1 O0_5 2.163954 1_455
Mg0_1 Sr0_4 3.346710 1_455
Mg0_1 Sr0_6 3.346711 1_445
Mg0_2 O3_2 1.939124 1_555
Mg0_2 O0_2 2.163951 1_555
Mg0_2 O0_6 2.163954 1_455
Mg0_2 Sr0_7 3.346710 1_454
Mg0_2 Sr0_5 3.346711 1_454
Mg0_3 O3_3 1.939124 1_555
Mg0_3 O0_3 2.163951 1_555
Mg0_3 O0_7 2.163954 1_455
Mg0_3 Sr0_6 3.346710 1_455
Mg0_3 Sr0_4 3.346711 1_455
Mg0_4 O3_4 1.939124 1_555
Mg0_4 O0_4 2.163951 1_555
Mg0_4 O0_0 2.163954 1_555
Mg0_4 Sr0_1 3.346710 1_554
Mg0_4 Sr0_3 3.346711 1_544
Mg0_5 O3_5 1.939124 1_555
Mg0_5 O0_5 2.163951 1_555
Mg0_5 O0_1 2.163954 1_555
Mg0_5 Sr0_0 3.346710 1_555
Mg0_5 Sr0_2 3.346711 1_545
Mg0_6 O3_6 1.939124 1_555
Mg0_6 O0_6 2.163951 1_555
Mg0_6 O0_2 2.163954 1_555
Mg0_6 Sr0_3 3.346710 1_554
Mg0_6 Sr0_1 3.346711 1_554
Mg0_7 O3_7 1.939124 1_555
Mg0_7 O0_7 2.163951 1_555
Mg0_7 O0_3 2.163954 1_555
Mg0_7 Sr0_2 3.346710 1_555
Mg0_7 Sr0_0 3.346711 1_555
Co0_0 O2_4 1.956945 1_455
Co0_0 O2_0 1.956953 1_555
Co0_0 O1_2 2.057900 1_545
Co0_0 O1_0 2.057912 1_555
Co0_1 O2_5 1.956945 1_455
Co0_1 O2_1 1.956953 1_555
Co0_1 O1_3 2.057900 1_545
Co0_1 O1_1 2.057912 1_555
Co0_2 O2_6 1.956945 1_455
Co0_2 O2_2 1.956953 1_555
Co0_2 O1_0 2.057900 1_555
Co0_2 O1_2 2.057912 1_555
Co0_3 O2_7 1.956945 1_455
Co0_3 O2_3 1.956953 1_555
Co0_3 O1_1 2.057900 1_555
Co0_3 O1_3 2.057912 1_555
Co0_4 O2_0 1.956945 1_555
Co0_4 O2_4 1.956953 1_555
Co0_4 O1_6 2.057900 1_545
Co0_4 O1_4 2.057912 1_555
Co0_5 O2_1 1.956945 1_555
Co0_5 O2_5 1.956953 1_555
Co0_5 O1_7 2.057900 1_545
Co0_5 O1_5 2.057912 1_555
Co0_6 O2_2 1.956945 1_555
Co0_6 O2_6 1.956953 1_555
Co0_6 O1_4 2.057900 1_555
Co0_6 O1_6 2.057912 1_555
Co0_7 O2_3 1.956945 1_555
Co0_7 O2_7 1.956953 1_555
Co0_7 O1_5 2.057900 1_555
Co0_7 O1_7 2.057912 1_555
Co1_0 O3_4 1.942013 1_555
Co1_0 O3_0 1.942013 1_555
Co1_0 O4_0 2.067057 1_555
Co1_0 O4_2 2.067057 1_555
Co1_1 O3_5 1.942013 1_555
Co1_1 O3_1 1.942013 1_555
Co1_1 O4_1 2.067057 1_555
Co1_1 O4_3 2.067057 1_555
Co1_2 O3_6 1.942013 1_555
Co1_2 O3_2 1.942013 1_555
Co1_2 O4_2 2.067057 1_555
Co1_2 O4_0 2.067057 1_565
Co1_3 O3_7 1.942013 1_555
Co1_3 O3_3 1.942013 1_555
Co1_3 O4_3 2.067057 1_555
Co1_3 O4_1 2.067057 1_565
Co1_4 O3_0 1.942013 1_655
Co1_4 O3_4 1.942013 1_555
Co1_4 O4_4 2.067057 1_555
Co1_4 O4_6 2.067057 1_555
Co1_5 O3_1 1.942013 1_655
Co1_5 O3_5 1.942013 1_555
Co1_5 O4_5 2.067057 1_555
Co1_5 O4_7 2.067057 1_555
Co1_6 O3_2 1.942013 1_655
Co1_6 O3_6 1.942013 1_555
Co1_6 O4_6 2.067057 1_555
Co1_6 O4_4 2.067057 1_565
Co1_7 O3_3 1.942013 1_655
Co1_7 O3_7 1.942013 1_555
Co1_7 O4_7 2.067057 1_555
Co1_7 O4_5 2.067057 1_565
Cl0_0 Co0_0 2.587134 1_555
Cl0_0 Sr2_0 2.969245 1_555
Cl0_0 Sr2_4 2.969247 1_455
Cl0_0 Sr2_2 2.969248 1_545
Cl0_0 Sr2_6 2.969250 1_445
Cl0_0 Cl1_0 3.600818 1_555
Cl0_0 Cl1_4 3.600820 1_455
Cl0_0 Cl1_2 3.600825 1_545
Cl0_0 Cl1_6 3.600827 1_445
Cl0_1 Co0_1 2.587134 1_555
Cl0_1 Sr2_1 2.969245 1_555
Cl0_1 Sr2_5 2.969247 1_455
Cl0_1 Sr2_3 2.969248 1_545
Cl0_1 Sr2_7 2.969250 1_445
Cl0_1 Cl1_1 3.600818 1_555
Cl0_1 Cl1_5 3.600820 1_455
Cl0_1 Cl1_3 3.600825 1_545
Cl0_1 Cl1_7 3.600827 1_445
Cl0_2 Co0_2 2.587134 1_555
Cl0_2 Sr2_2 2.969245 1_555
Cl0_2 Sr2_6 2.969247 1_455
Cl0_2 Sr2_0 2.969248 1_555
Cl0_2 Sr2_4 2.969250 1_455
Cl0_2 Cl1_2 3.600818 1_555
Cl0_2 Cl1_6 3.600820 1_455
Cl0_2 Cl1_0 3.600825 1_555
Cl0_2 Cl1_4 3.600827 1_455
Cl0_3 Co0_3 2.587134 1_555
Cl0_3 Sr2_3 2.969245 1_555
Cl0_3 Sr2_7 2.969247 1_455
Cl0_3 Sr2_1 2.969248 1_555
Cl0_3 Sr2_5 2.969250 1_455
Cl0_3 Cl1_3 3.600818 1_555
Cl0_3 Cl1_7 3.600820 1_455
Cl0_3 Cl1_1 3.600825 1_555
Cl0_3 Cl1_5 3.600827 1_455
Cl0_4 Co0_4 2.587134 1_555
Cl0_4 Sr2_4 2.969245 1_555
Cl0_4 Sr2_0 2.969247 1_555
Cl0_4 Sr2_6 2.969248 1_545
Cl0_4 Sr2_2 2.969250 1_545
Cl0_4 Cl1_4 3.600818 1_555
Cl0_4 Cl1_0 3.600820 1_555
Cl0_4 Cl1_6 3.600825 1_545
Cl0_4 Cl1_2 3.600827 1_545
Cl0_5 Co0_5 2.587134 1_555
Cl0_5 Sr2_5 2.969245 1_555
Cl0_5 Sr2_1 2.969247 1_555
Cl0_5 Sr2_7 2.969248 1_545
Cl0_5 Sr2_3 2.969250 1_545
Cl0_5 Cl1_5 3.600818 1_555
Cl0_5 Cl1_1 3.600820 1_555
Cl0_5 Cl1_7 3.600825 1_545
Cl0_5 Cl1_3 3.600827 1_545
Cl0_6 Co0_6 2.587134 1_555
Cl0_6 Sr2_6 2.969245 1_555
Cl0_6 Sr2_2 2.969247 1_555
Cl0_6 Sr2_4 2.969248 1_555
Cl0_6 Sr2_0 2.969250 1_555
Cl0_6 Cl1_6 3.600818 1_555
Cl0_6 Cl1_2 3.600820 1_555
Cl0_6 Cl1_4 3.600825 1_555
Cl0_6 Cl1_0 3.600827 1_555
Cl0_7 Co0_7 2.587134 1_555
Cl0_7 Sr2_7 2.969245 1_555
Cl0_7 Sr2_3 2.969247 1_555
Cl0_7 Sr2_5 2.969248 1_555
Cl0_7 Sr2_1 2.969250 1_555
Cl0_7 Cl1_7 3.600818 1_555
Cl0_7 Cl1_3 3.600820 1_555
Cl0_7 Cl1_5 3.600825 1_555
Cl0_7 Cl1_1 3.600827 1_555
Cl1_0 Co1_0 3.109638 1_555
Cl1_0 Sr2_0 3.132222 1_555
Cl1_0 Sr1_4 3.209243 1_555
Cl1_0 Sr1_0 3.209250 1_555
Cl1_0 Sr1_6 3.209251 1_555
Cl1_0 Sr1_2 3.209257 1_555
Cl1_0 Cl1_4 3.882053 1_555
Cl1_0 Cl1_4 3.882053 1_455
Cl1_1 Co1_1 3.109638 1_555
Cl1_1 Sr2_1 3.132222 1_555
Cl1_1 Sr1_5 3.209243 1_555
Cl1_1 Sr1_1 3.209250 1_555
Cl1_1 Sr1_7 3.209251 1_555
Cl1_1 Sr1_3 3.209257 1_555
Cl1_1 Cl1_5 3.882053 1_555
Cl1_1 Cl1_5 3.882053 1_455
Cl1_2 Co1_2 3.109638 1_555
Cl1_2 Sr2_2 3.132222 1_555
Cl1_2 Sr1_6 3.209243 1_555
Cl1_2 Sr1_2 3.209250 1_555
Cl1_2 Sr1_4 3.209251 1_565
Cl1_2 Sr1_0 3.209257 1_565
Cl1_2 Cl1_6 3.882053 1_455
Cl1_2 Cl1_6 3.882053 1_555
Cl1_3 Co1_3 3.109638 1_555
Cl1_3 Sr2_3 3.132222 1_555
Cl1_3 Sr1_7 3.209243 1_555
Cl1_3 Sr1_3 3.209250 1_555
Cl1_3 Sr1_5 3.209251 1_565
Cl1_3 Sr1_1 3.209257 1_565
Cl1_3 Cl1_7 3.882053 1_455
Cl1_3 Cl1_7 3.882053 1_555
Cl1_4 Co1_4 3.109638 1_555
Cl1_4 Sr2_4 3.132222 1_555
Cl1_4 Sr1_0 3.209243 1_655
Cl1_4 Sr1_4 3.209250 1_555
Cl1_4 Sr1_2 3.209251 1_655
Cl1_4 Sr1_6 3.209257 1_555
Cl1_5 Co1_5 3.109638 1_555
Cl1_5 Sr2_5 3.132222 1_555
Cl1_5 Sr1_1 3.209243 1_655
Cl1_5 Sr1_5 3.209250 1_555
Cl1_5 Sr1_3 3.209251 1_655
Cl1_5 Sr1_7 3.209257 1_555
Cl1_6 Co1_6 3.109638 1_555
Cl1_6 Sr2_6 3.132222 1_555
Cl1_6 Sr1_2 3.209243 1_655
Cl1_6 Sr1_6 3.209250 1_555
Cl1_6 Sr1_0 3.209251 1_665
Cl1_6 Sr1_4 3.209257 1_565
Cl1_7 Co1_7 3.109638 1_555
Cl1_7 Sr2_7 3.132222 1_555
Cl1_7 Sr1_3 3.209243 1_655
Cl1_7 Sr1_7 3.209250 1_555
Cl1_7 Sr1_1 3.209251 1_665
Cl1_7 Sr1_5 3.209257 1_565
O0_0 Sr0_5 3.291305 1_454
O0_0 Sr0_1 3.291307 1_554
O0_0 Sr0_7 3.291308 1_444
O0_0 Sr0_3 3.291310 1_544
O0_1 Sr0_4 3.291305 1_455
O0_1 Sr0_0 3.291307 1_555
O0_1 Sr0_6 3.291308 1_445
O0_1 Sr0_2 3.291310 1_545
O0_2 Sr0_7 3.291305 1_454
O0_2 Sr0_3 3.291307 1_554
O0_2 Sr0_5 3.291308 1_454
O0_2 Sr0_1 3.291310 1_554
O0_3 Sr0_6 3.291305 1_455
O0_3 Sr0_2 3.291307 1_555
O0_3 Sr0_4 3.291308 1_455
O0_3 Sr0_0 3.291310 1_555
O0_4 Sr0_1 3.291305 1_554
O0_4 Sr0_5 3.291307 1_554
O0_4 Sr0_3 3.291308 1_544
O0_4 Sr0_7 3.291310 1_544
O0_5 Sr0_0 3.291305 1_555
O0_5 Sr0_4 3.291307 1_555
O0_5 Sr0_2 3.291308 1_545
O0_5 Sr0_6 3.291310 1_545
O0_6 Sr0_3 3.291305 1_554
O0_6 Sr0_7 3.291307 1_554
O0_6 Sr0_1 3.291308 1_554
O0_6 Sr0_5 3.291310 1_554
O0_7 Sr0_2 3.291305 1_555
O0_7 Sr0_6 3.291307 1_555
O0_7 Sr0_0 3.291308 1_555
O0_7 Sr0_4 3.291310 1_555
O1_0 Sr0_0 2.526921 1_555
O1_0 Sr0_4 2.526924 1_455
O1_0 Sr2_4 2.604595 1_455
O1_0 Sr2_0 2.604595 1_555
O1_1 Sr0_1 2.526921 1_555
O1_1 Sr0_5 2.526924 1_455
O1_1 Sr2_5 2.604595 1_455
O1_1 Sr2_1 2.604595 1_555
O1_2 Sr0_2 2.526921 1_555
O1_2 Sr0_6 2.526924 1_455
O1_2 Sr2_6 2.604595 1_455
O1_2 Sr2_2 2.604595 1_555
O1_3 Sr0_3 2.526921 1_555
O1_3 Sr0_7 2.526924 1_455
O1_3 Sr2_7 2.604595 1_455
O1_3 Sr2_3 2.604595 1_555
O1_4 Sr0_4 2.526921 1_555
O1_4 Sr0_0 2.526924 1_555
O1_4 Sr2_0 2.604595 1_555
O1_4 Sr2_4 2.604595 1_555
O1_5 Sr0_5 2.526921 1_555
O1_5 Sr0_1 2.526924 1_555
O1_5 Sr2_1 2.604595 1_555
O1_5 Sr2_5 2.604595 1_555
O1_6 Sr0_6 2.526921 1_555
O1_6 Sr0_2 2.526924 1_555
O1_6 Sr2_2 2.604595 1_555
O1_6 Sr2_6 2.604595 1_555
O1_7 Sr0_7 2.526921 1_555
O1_7 Sr0_3 2.526924 1_555
O1_7 Sr2_3 2.604595 1_555
O1_7 Sr2_7 2.604595 1_555
O2_0 Sr0_2 2.500937 1_545
O2_0 Sr0_0 2.500938 1_555
O2_0 Sr2_0 2.822557 1_555
O2_0 Sr2_2 2.822561 1_545
O2_1 Sr0_3 2.500937 1_545
O2_1 Sr0_1 2.500938 1_555
O2_1 Sr2_1 2.822557 1_555
O2_1 Sr2_3 2.822561 1_545
O2_2 Sr0_0 2.500937 1_555
O2_2 Sr0_2 2.500938 1_555
O2_2 Sr2_2 2.822557 1_555
O2_2 Sr2_0 2.822561 1_555
O2_3 Sr0_1 2.500937 1_555
O2_3 Sr0_3 2.500938 1_555
O2_3 Sr2_3 2.822557 1_555
O2_3 Sr2_1 2.822561 1_555
O2_4 Sr0_6 2.500937 1_545
O2_4 Sr0_4 2.500938 1_555
O2_4 Sr2_4 2.822557 1_555
O2_4 Sr2_6 2.822561 1_545
O2_5 Sr0_7 2.500937 1_545
O2_5 Sr0_5 2.500938 1_555
O2_5 Sr2_5 2.822557 1_555
O2_5 Sr2_7 2.822561 1_545
O2_6 Sr0_4 2.500937 1_555
O2_6 Sr0_6 2.500938 1_555
O2_6 Sr2_6 2.822557 1_555
O2_6 Sr2_4 2.822561 1_555
O2_7 Sr0_5 2.500937 1_555
O2_7 Sr0_7 2.500938 1_555
O2_7 Sr2_7 2.822557 1_555
O2_7 Sr2_5 2.822561 1_555
O3_0 Sr1_0 2.640351 1_555
O3_0 Sr1_2 2.640358 1_555
O3_1 Sr1_1 2.640351 1_555
O3_1 Sr1_3 2.640358 1_555
O3_2 Sr1_2 2.640351 1_555
O3_2 Sr1_0 2.640358 1_565
O3_3 Sr1_3 2.640351 1_555
O3_3 Sr1_1 2.640358 1_565
O3_4 Sr1_4 2.640351 1_555
O3_4 Sr1_6 2.640358 1_555
O3_5 Sr1_5 2.640351 1_555
O3_5 Sr1_7 2.640358 1_555
O3_6 Sr1_6 2.640351 1_555
O3_6 Sr1_4 2.640358 1_565
O3_7 Sr1_7 2.640351 1_555
O3_7 Sr1_5 2.640358 1_565
O4_0 Sr1_4 2.388410 1_555
O4_0 Sr1_0 2.388410 1_555
O4_1 Sr1_5 2.388410 1_555
O4_1 Sr1_1 2.388410 1_555
O4_2 Sr1_6 2.388410 1_555
O4_2 Sr1_2 2.388410 1_555
O4_3 Sr1_7 2.388410 1_555
O4_3 Sr1_3 2.388410 1_555
O4_4 Sr1_0 2.388410 1_655
O4_4 Sr1_4 2.388410 1_555
O4_5 Sr1_1 2.388410 1_655
O4_5 Sr1_5 2.388410 1_555
O4_6 Sr1_2 2.388410 1_655
O4_6 Sr1_6 2.388410 1_555
O4_7 Sr1_3 2.388410 1_655
O4_7 Sr1_7 2.388410 1_555
