# generated using pymatgen
data_Cs2TeBr6
_symmetry_space_group_name_H-M   'P 1'
_cell_length_a   7.83467730
_cell_length_b   7.83467831
_cell_length_c   7.83467693
_cell_angle_alpha   60.00000136
_cell_angle_beta   59.99999713
_cell_angle_gamma   60.00000487
_symmetry_Int_Tables_number   1
_chemical_formula_structural   Cs2TeBr6
_chemical_formula_sum   'Cs2 Te1 Br6'
_cell_volume   340.05439157
_cell_formula_units_Z   1
loop_
 _symmetry_equiv_pos_site_id
 _symmetry_equiv_pos_as_xyz
  1  'x, y, z'
loop_
 _atom_site_type_symbol
 _atom_site_label
 _atom_site_symmetry_multiplicity
 _atom_site_fract_x
 _atom_site_fract_y
 _atom_site_fract_z
 _atom_site_occupancy
  Cs  Cs0  1  0.75000000  0.75000000  0.75000000  1
  Cs  Cs1  1  0.25000000  0.25000000  0.25000000  1
  Te  Te0  1  -0.00000000  0.00000000  -0.00000000  1
  Br  Br0  1  0.24583522  0.75416478  0.75416478  1
  Br  Br1  1  0.24583522  0.75416478  0.24583522  1
  Br  Br2  1  0.75416478  0.24583522  0.75416478  1
  Br  Br3  1  0.75416478  0.24583522  0.24583522  1
  Br  Br4  1  0.75416478  0.75416478  0.24583522  1
  Br  Br5  1  0.24583522  0.24583522  0.75416478  1
loop_
_geom_bond_atom_site_label_1
_geom_bond_atom_site_label_2
_geom_bond_distance
_geom_bond_site_symmetry_2
Br0 Te0 2.723831 1_566
Br0 Cs0 3.917610 1_555
Br0 Cs0 3.917610 1_455
Br0 Cs1 3.917611 1_565
Br0 Cs1 3.917611 1_556
Br1 Te0 2.723831 1_565
Br1 Cs0 3.917610 1_455
Br1 Cs0 3.917610 1_554
Br1 Cs1 3.917611 1_565
Br1 Cs1 3.917611 1_555
Br2 Te0 2.723831 1_656
Br2 Cs1 3.917610 1_655
Br2 Cs1 3.917610 1_556
Br2 Cs0 3.917611 1_545
Br2 Cs0 3.917611 1_555
Br3 Te0 2.723831 1_655
Br3 Cs1 3.917610 1_555
Br3 Cs1 3.917610 1_655
Br3 Cs0 3.917611 1_545
Br3 Cs0 3.917611 1_554
Br4 Te0 2.723831 1_665
Br4 Cs0 3.917610 1_555
Br4 Cs0 3.917610 1_554
Br4 Cs1 3.917611 1_565
Br4 Cs1 3.917611 1_655
Br5 Te0 2.723831 1_556
Br5 Cs1 3.917610 1_555
Br5 Cs1 3.917610 1_556
Br5 Cs0 3.917611 1_545
Br5 Cs0 3.917611 1_455
