# generated using pymatgen
data_ErGeIr
_symmetry_space_group_name_H-M   'P 1'
_cell_length_a   4.25547664
_cell_length_b   6.79321042
_cell_length_c   7.55617674
_cell_angle_alpha   90.00000000
_cell_angle_beta   90.00000000
_cell_angle_gamma   90.00000000
_symmetry_Int_Tables_number   1
_chemical_formula_structural   ErGeIr
_chemical_formula_sum   'Er4 Ge4 Ir4'
_cell_volume   218.43658866
_cell_formula_units_Z   4
loop_
 _symmetry_equiv_pos_site_id
 _symmetry_equiv_pos_as_xyz
  1  'x, y, z'
loop_
 _atom_site_type_symbol
 _atom_site_label
 _atom_site_symmetry_multiplicity
 _atom_site_fract_x
 _atom_site_fract_y
 _atom_site_fract_z
 _atom_site_occupancy
  Er  Er0  1  0.75000000  0.49446013  0.19258745  1
  Er  Er1  1  0.25000000  0.00553987  0.69258745  1
  Er  Er2  1  0.75000000  0.99446013  0.30741255  1
  Er  Er3  1  0.25000000  0.50553987  0.80741255  1
  Ge  Ge0  1  0.25000000  0.79061824  0.11169534  1
  Ge  Ge1  1  0.25000000  0.29061824  0.38830466  1
  Ge  Ge2  1  0.75000000  0.20938176  0.88830466  1
  Ge  Ge3  1  0.75000000  0.70938176  0.61169534  1
  Ir  Ir0  1  0.25000000  0.65993392  0.43537850  1
  Ir  Ir1  1  0.25000000  0.15993392  0.06462150  1
  Ir  Ir2  1  0.75000000  0.84006608  0.93537850  1
  Ir  Ir3  1  0.75000000  0.34006608  0.56462150  1
loop_
_geom_bond_atom_site_label_1
_geom_bond_atom_site_label_2
_geom_bond_distance
_geom_bond_site_symmetry_2
Er0 Ge1 2.938000 1_555
Er0 Ge1 2.938000 1_655
Er0 Ge0 2.991400 1_655
Er0 Ge0 2.991400 1_555
Er0 Ir3 3.000440 1_555
Er0 Ge2 3.006127 1_554
Er0 Ir0 3.025975 1_555
Er0 Ir0 3.025975 1_655
Er0 Ir2 3.047835 1_554
Er0 Ir1 3.259834 1_555
Er0 Ir1 3.259834 1_655
Er0 Er2 3.505670 1_545
Er0 Er2 3.505670 1_555
Er0 Er3 3.606058 1_554
Er0 Er3 3.606058 1_654
Er1 Ge2 2.938000 1_555
Er1 Ge2 2.938000 1_455
Er1 Ge3 2.991400 1_445
Er1 Ge3 2.991400 1_545
Er1 Ir1 3.000440 1_556
Er1 Ge1 3.006127 1_555
Er1 Ir2 3.025975 1_445
Er1 Ir2 3.025975 1_545
Er1 Ir0 3.047835 1_545
Er1 Ir3 3.259834 1_455
Er1 Ir3 3.259834 1_555
Er1 Er3 3.505670 1_545
Er1 Er3 3.505670 1_555
Er1 Er2 3.606058 1_545
Er1 Er2 3.606058 1_445
Er2 Ge0 2.938000 1_655
Er2 Ge0 2.938000 1_555
Er2 Ge1 2.991400 1_665
Er2 Ge1 2.991400 1_565
Er2 Ir2 3.000440 1_554
Er2 Ge3 3.006127 1_555
Er2 Ir1 3.025975 1_665
Er2 Ir1 3.025975 1_565
Er2 Ir3 3.047835 1_565
Er2 Ir0 3.259834 1_555
Er2 Ir0 3.259834 1_655
Er3 Ge3 2.938000 1_455
Er3 Ge3 2.938000 1_555
Er3 Ge2 2.991400 1_455
Er3 Ge2 2.991400 1_555
Er3 Ir0 3.000440 1_555
Er3 Ge0 3.006127 1_556
Er3 Ir3 3.025975 1_455
Er3 Ir3 3.025975 1_555
Er3 Ir1 3.047835 1_556
Er3 Ir2 3.259834 1_455
Er3 Ir2 3.259834 1_555
Ge0 Ir2 2.532801 1_554
Ge0 Ir2 2.532801 1_454
Ge0 Ir1 2.533929 1_565
Ge0 Ir0 2.601942 1_555
Ge1 Ir3 2.532801 1_555
Ge1 Ir3 2.532801 1_455
Ge1 Ir0 2.533929 1_555
Ge1 Ir1 2.601942 1_555
Ge2 Ir1 2.532801 1_656
Ge2 Ir1 2.532801 1_556
Ge2 Ir2 2.533929 1_545
Ge2 Ir3 2.601942 1_555
Ge3 Ir0 2.532801 1_655
Ge3 Ir0 2.532801 1_555
Ge3 Ir3 2.533929 1_555
Ge3 Ir2 2.601942 1_555
