# generated using pymatgen
data_CsSbF4
_symmetry_space_group_name_H-M   'P 1'
_cell_length_a   6.30917773
_cell_length_b   9.56851176
_cell_length_c   15.63181418
_cell_angle_alpha   90.00000000
_cell_angle_beta   90.00000000
_cell_angle_gamma   90.00000000
_symmetry_Int_Tables_number   1
_chemical_formula_structural   CsSbF4
_chemical_formula_sum   'Cs8 Sb8 F32'
_cell_volume   943.68388864
_cell_formula_units_Z   8
loop_
 _symmetry_equiv_pos_site_id
 _symmetry_equiv_pos_as_xyz
  1  'x, y, z'
loop_
 _atom_site_type_symbol
 _atom_site_label
 _atom_site_symmetry_multiplicity
 _atom_site_fract_x
 _atom_site_fract_y
 _atom_site_fract_z
 _atom_site_occupancy
  Cs  Cs0  1  0.50000000  0.91024651  0.61540715  1
  Cs  Cs1  1  0.50000000  0.08975349  0.38459285  1
  Cs  Cs2  1  0.50000000  0.41024651  0.88459285  1
  Cs  Cs3  1  0.50000000  0.58975349  0.11540715  1
  Cs  Cs4  1  -0.00000000  0.13908126  0.73720564  1
  Cs  Cs5  1  -0.00000000  0.86091874  0.26279436  1
  Cs  Cs6  1  -0.00000000  0.63908126  0.76279436  1
  Cs  Cs7  1  -0.00000000  0.36091874  0.23720564  1
  Sb  Sb0  1  -0.00000000  0.28879817  0.50190538  1
  Sb  Sb1  1  -0.00000000  0.71120183  0.49809462  1
  Sb  Sb2  1  -0.00000000  0.78879817  0.99809462  1
  Sb  Sb3  1  -0.00000000  0.21120183  0.00190538  1
  Sb  Sb4  1  0.50000000  0.52923461  0.37218000  1
  Sb  Sb5  1  0.50000000  0.47076539  0.62782000  1
  Sb  Sb6  1  0.50000000  0.02923461  0.12782000  1
  Sb  Sb7  1  0.50000000  0.97076539  0.87218000  1
  F  F0  1  0.22162259  0.83991879  0.45152580  1
  F  F1  1  0.22162259  0.16008121  0.54847420  1
  F  F2  1  0.77837741  0.33991879  0.04847420  1
  F  F3  1  0.77837741  0.66008121  0.95152580  1
  F  F4  1  0.77837741  0.16008121  0.54847420  1
  F  F5  1  0.77837741  0.83991879  0.45152580  1
  F  F6  1  0.22162259  0.66008121  0.95152580  1
  F  F7  1  0.22162259  0.33991879  0.04847420  1
  F  F8  1  -0.00000000  0.16321011  0.40395941  1
  F  F9  1  -0.00000000  0.83678989  0.59604059  1
  F  F10  1  -0.00000000  0.66321011  0.09604059  1
  F  F11  1  -0.00000000  0.33678989  0.90395941  1
  F  F12  1  0.25494478  0.62292676  0.58433252  1
  F  F13  1  0.25494478  0.37707324  0.41566748  1
  F  F14  1  0.74505522  0.12292676  0.91566748  1
  F  F15  1  0.74505522  0.87707324  0.08433252  1
  F  F16  1  0.50000000  0.11428127  0.78314792  1
  F  F17  1  0.50000000  0.88571873  0.21685208  1
  F  F18  1  0.50000000  0.61428127  0.71685208  1
  F  F19  1  0.50000000  0.38571873  0.28314792  1
  F  F20  1  0.27575642  0.89044712  0.79500492  1
  F  F21  1  0.27575642  0.10955288  0.20499508  1
  F  F22  1  0.72424358  0.39044712  0.70499508  1
  F  F23  1  0.72424358  0.60955288  0.29500492  1
  F  F24  1  0.72424358  0.10955288  0.20499508  1
  F  F25  1  0.72424358  0.89044712  0.79500492  1
  F  F26  1  0.27575642  0.60955288  0.29500492  1
  F  F27  1  0.27575642  0.39044712  0.70499508  1
  F  F28  1  0.25494478  0.12292676  0.91566748  1
  F  F29  1  0.25494478  0.87707324  0.08433252  1
  F  F30  1  0.74505522  0.62292676  0.58433252  1
  F  F31  1  0.74505522  0.37707324  0.41566748  1
loop_
_geom_bond_atom_site_label_1
_geom_bond_atom_site_label_2
_geom_bond_distance
_geom_bond_site_symmetry_2
Cs0 F4 3.145493 1_565
Cs0 F1 3.145493 1_565
Cs0 F20 3.149483 1_555
Cs0 F25 3.149483 1_555
Cs0 F0 3.178076 1_555
Cs0 F5 3.178076 1_555
Cs0 F30 3.191331 1_555
Cs0 F12 3.191331 1_555
Cs0 F18 3.245702 1_555
Cs0 F9 3.246091 1_555
Cs0 F9 3.246091 1_655
Cs0 F16 3.269079 1_565
Cs1 F0 3.145493 1_545
Cs1 F5 3.145493 1_545
Cs1 F24 3.149483 1_555
Cs1 F21 3.149483 1_555
Cs1 F4 3.178076 1_555
Cs1 F1 3.178076 1_555
Cs1 F31 3.191331 1_555
Cs1 F13 3.191331 1_555
Cs1 F19 3.245702 1_555
Cs1 F8 3.246091 1_555
Cs1 F8 3.246091 1_655
Cs1 F17 3.269079 1_545
Cs2 F6 3.145493 1_555
Cs2 F3 3.145493 1_555
Cs2 F27 3.149483 1_555
Cs2 F22 3.149483 1_555
Cs2 F7 3.178076 1_556
Cs2 F2 3.178076 1_556
Cs2 F14 3.191331 1_555
Cs2 F28 3.191331 1_555
Cs2 F16 3.245702 1_555
Cs2 F11 3.246091 1_555
Cs2 F11 3.246091 1_655
Cs2 F18 3.269079 1_555
Cs3 F2 3.145493 1_555
Cs3 F7 3.145493 1_555
Cs3 F23 3.149483 1_555
Cs3 F26 3.149483 1_555
Cs3 F6 3.178076 1_554
Cs3 F3 3.178076 1_554
Cs3 F15 3.191331 1_555
Cs3 F29 3.191331 1_555
Cs3 F17 3.245702 1_555
Cs3 F10 3.246091 1_655
Cs3 F10 3.246091 1_555
Cs3 F19 3.269079 1_555
Cs4 F27 3.010878 1_555
Cs4 F22 3.010878 1_455
Cs4 F25 3.082716 1_445
Cs4 F20 3.082716 1_545
Cs4 F11 3.220795 1_555
Cs4 F28 3.223890 1_555
Cs4 F14 3.223890 1_455
Cs4 F16 3.243994 1_455
Cs4 F16 3.243994 1_555
Cs4 F4 3.270973 1_455
Cs4 F1 3.270973 1_555
Cs4 F9 3.638105 1_545
Cs5 F26 3.010878 1_555
Cs5 F23 3.010878 1_455
Cs5 F21 3.082716 1_565
Cs5 F24 3.082716 1_465
Cs5 F10 3.220795 1_555
Cs5 F29 3.223890 1_555
Cs5 F15 3.223890 1_455
Cs5 F17 3.243994 1_555
Cs5 F17 3.243994 1_455
Cs5 F5 3.270973 1_455
Cs5 F0 3.270973 1_555
Cs5 F8 3.638105 1_565
Cs6 F20 3.010878 1_555
Cs6 F25 3.010878 1_455
Cs6 F27 3.082716 1_555
Cs6 F22 3.082716 1_455
Cs6 F9 3.220795 1_555
Cs6 F12 3.223890 1_555
Cs6 F30 3.223890 1_455
Cs6 F18 3.243994 1_455
Cs6 F18 3.243994 1_555
Cs6 F3 3.270973 1_455
Cs6 F6 3.270973 1_555
Cs6 F11 3.638105 1_555
Cs7 F24 3.010878 1_455
Cs7 F21 3.010878 1_555
Cs7 F23 3.082716 1_455
Cs7 F26 3.082716 1_555
Cs7 F8 3.220795 1_555
Cs7 F13 3.223890 1_555
Cs7 F31 3.223890 1_455
Cs7 F19 3.243994 1_455
Cs7 F19 3.243994 1_555
Cs7 F2 3.270973 1_455
Cs7 F7 3.270973 1_555
Cs7 F10 3.638105 1_555
F0 Sb1 2.000488 1_555
F0 F9 2.656920 1_555
F0 F5 2.796513 1_455
F0 F12 2.943637 1_555
F1 Sb0 2.000488 1_555
F1 F8 2.656920 1_555
F1 F4 2.796513 1_455
F1 F13 2.943637 1_555
F2 Sb3 2.000488 1_655
F2 F7 2.796513 1_655
F3 Sb2 2.000488 1_655
F3 F6 2.796513 1_655
F4 Sb0 2.000488 1_655
F4 F8 2.656920 1_655
F5 Sb1 2.000488 1_655
F5 F9 2.656920 1_655
F6 Sb2 2.000488 1_555
F7 Sb3 2.000488 1_555
F8 Sb0 1.946342 1_555
F9 Sb1 1.946342 1_555
F10 Sb2 1.946342 1_554
F10 F15 2.609272 1_455
F10 F29 2.609272 1_555
F10 F3 2.656920 1_454
F10 F6 2.656920 1_554
F11 Sb3 1.946342 1_556
F11 F28 2.609272 1_555
F11 F14 2.609272 1_455
F11 F2 2.656920 1_456
F11 F7 2.656920 1_556
F12 Sb5 2.229875 1_555
F12 Sb1 2.262289 1_555
F12 F18 2.586206 1_555
F12 F9 2.609272 1_555
F12 F27 2.919456 1_555
F12 F30 3.092194 1_555
F13 Sb4 2.229875 1_555
F13 Sb0 2.262289 1_555
F13 F19 2.586206 1_555
F13 F8 2.609272 1_555
F13 F26 2.919456 1_555
F13 F31 3.092194 1_555
F14 Sb7 2.229875 1_545
F14 Sb3 2.262289 1_656
F14 F16 2.586206 1_555
F14 F25 2.919456 1_545
F14 F2 2.943637 1_556
F14 F28 3.092194 1_555
F15 Sb6 2.229875 1_565
F15 Sb2 2.262289 1_654
F15 F17 2.586206 1_555
F15 F24 2.919456 1_565
F15 F3 2.943637 1_554
F15 F29 3.092194 1_555
F16 Sb7 1.955170 1_545
F16 F20 2.573543 1_545
F16 F25 2.573543 1_545
F16 F28 2.586206 1_555
F17 Sb6 1.955170 1_565
F17 F24 2.573543 1_565
F17 F21 2.573543 1_565
F17 F29 2.586206 1_555
F18 Sb5 1.955170 1_555
F18 F27 2.573543 1_555
F18 F22 2.573543 1_555
F18 F30 2.586206 1_555
F19 Sb4 1.955170 1_555
F19 F23 2.573543 1_555
F19 F26 2.573543 1_555
F19 F31 2.586206 1_555
F20 Sb7 2.011875 1_555
F20 F28 2.919456 1_565
F21 Sb6 2.011875 1_555
F21 F29 2.919456 1_545
F22 Sb5 2.011875 1_555
F22 F30 2.919456 1_555
F23 Sb4 2.011875 1_555
F23 F31 2.919456 1_555
F24 Sb6 2.011875 1_555
F25 Sb7 2.011875 1_555
F26 Sb4 2.011875 1_555
F27 Sb5 2.011875 1_555
F28 Sb7 2.229875 1_545
F28 Sb3 2.262289 1_556
F28 F7 2.943637 1_556
F29 Sb6 2.229875 1_565
F29 Sb2 2.262289 1_554
F29 F6 2.943637 1_554
F30 Sb5 2.229875 1_555
F30 Sb1 2.262289 1_655
F30 F9 2.609272 1_655
F30 F5 2.943637 1_555
F31 Sb4 2.229875 1_555
F31 Sb0 2.262289 1_655
F31 F8 2.609272 1_655
F31 F4 2.943637 1_555
