# generated using pymatgen
data_TbInRh
_symmetry_space_group_name_H-M   'P 1'
_cell_length_a   7.47238559
_cell_length_b   7.47238524
_cell_length_c   3.94318616
_cell_angle_alpha   90.00000000
_cell_angle_beta   90.00000000
_cell_angle_gamma   119.99999248
_symmetry_Int_Tables_number   1
_chemical_formula_structural   TbInRh
_chemical_formula_sum   'Tb3 In3 Rh3'
_cell_volume   190.67619358
_cell_formula_units_Z   3
loop_
 _symmetry_equiv_pos_site_id
 _symmetry_equiv_pos_as_xyz
  1  'x, y, z'
loop_
 _atom_site_type_symbol
 _atom_site_label
 _atom_site_symmetry_multiplicity
 _atom_site_fract_x
 _atom_site_fract_y
 _atom_site_fract_z
 _atom_site_occupancy
  Tb  Tb0  1  0.00000000  0.59283772  0.50000000  1
  Tb  Tb1  1  0.40716228  0.40716228  0.50000000  1
  Tb  Tb2  1  0.59283772  0.00000000  0.50000000  1
  In  In0  1  0.74501156  0.74501156  -0.00000000  1
  In  In1  1  -0.00000000  0.25498844  -0.00000000  1
  In  In2  1  0.25498844  -0.00000000  0.00000000  1
  Rh  Rh0  1  0.33333300  0.66666700  -0.00000000  1
  Rh  Rh1  1  0.00000000  0.00000000  0.50000000  1
  Rh  Rh2  1  0.66666700  0.33333300  0.00000000  1
loop_
_geom_bond_atom_site_label_1
_geom_bond_atom_site_label_2
_geom_bond_distance
_geom_bond_site_symmetry_2
In0 Rh1 2.741828 1_665
In0 Rh1 2.741828 1_664
In0 Rh2 2.829305 1_555
In0 Rh0 2.829305 1_555
In0 Tb1 3.203199 1_554
In0 Tb1 3.203199 1_555
In0 In1 3.300201 1_665
In0 In2 3.300201 1_665
In0 Tb2 3.313189 1_564
In0 Tb2 3.313189 1_565
In0 Tb0 3.313189 1_655
In0 Tb0 3.313189 1_654
In1 Rh1 2.741828 1_555
In1 Rh1 2.741828 1_554
In1 Rh2 2.829298 1_455
In1 Rh0 2.829303 1_555
In1 Tb0 3.203199 1_554
In1 Tb0 3.203199 1_555
In1 In2 3.300201 1_555
In1 Tb1 3.313189 1_554
In1 Tb1 3.313189 1_555
In1 Tb2 3.313189 1_454
In1 Tb2 3.313189 1_455
In2 Rh1 2.741828 1_555
In2 Rh1 2.741828 1_554
In2 Rh0 2.829298 1_545
In2 Rh2 2.829303 1_555
In2 Tb2 3.203199 1_555
In2 Tb2 3.203199 1_554
In2 Tb1 3.313189 1_554
In2 Tb1 3.313189 1_555
In2 Tb0 3.313189 1_545
In2 Tb0 3.313189 1_544
Rh0 Tb0 3.003574 1_555
Rh0 Tb0 3.003574 1_554
Rh0 Tb2 3.003576 1_565
Rh0 Tb2 3.003576 1_564
Rh0 Tb1 3.003579 1_554
Rh0 Tb1 3.003579 1_555
Rh1 Tb0 3.042473 1_545
Rh1 Tb2 3.042474 1_455
Rh1 Tb1 3.042474 1_555
Rh2 Tb2 3.003574 1_555
Rh2 Tb2 3.003574 1_554
Rh2 Tb0 3.003576 1_655
Rh2 Tb0 3.003576 1_654
Rh2 Tb1 3.003579 1_554
Rh2 Tb1 3.003579 1_555
