# generated using pymatgen
data_Ni(H2N)2
_symmetry_space_group_name_H-M   'P 1'
_cell_length_a   10.83044600
_cell_length_b   10.83044600
_cell_length_c   10.83044600
_cell_angle_alpha   90.00000000
_cell_angle_beta   90.00000000
_cell_angle_gamma   90.00000000
_symmetry_Int_Tables_number   1
_chemical_formula_structural   Ni(H2N)2
_chemical_formula_sum   'Ni18 H72 N36'
_cell_volume   1270.39572601
_cell_formula_units_Z   18
loop_
 _symmetry_equiv_pos_site_id
 _symmetry_equiv_pos_as_xyz
  1  'x, y, z'
loop_
 _atom_site_type_symbol
 _atom_site_label
 _atom_site_symmetry_multiplicity
 _atom_site_fract_x
 _atom_site_fract_y
 _atom_site_fract_z
 _atom_site_occupancy
  Ni  Ni0  1  0.81486500  0.50000000  0.00000000  1
  Ni  Ni1  1  0.50000000  0.00000000  0.81486500  1
  Ni  Ni2  1  0.00000000  0.81486500  0.50000000  1
  Ni  Ni3  1  0.50000000  0.00000000  0.18513500  1
  Ni  Ni4  1  0.00000000  0.18513500  0.50000000  1
  Ni  Ni5  1  0.18513500  0.50000000  0.00000000  1
  Ni  Ni6  1  0.00000000  0.63210800  0.13193000  1
  Ni  Ni7  1  0.00000000  0.36789200  0.86807000  1
  Ni  Ni8  1  0.00000000  0.63210800  0.86807000  1
  Ni  Ni9  1  0.36789200  0.86807000  0.00000000  1
  Ni  Ni10  1  0.86807000  0.00000000  0.63210800  1
  Ni  Ni11  1  0.86807000  0.00000000  0.36789200  1
  Ni  Ni12  1  0.63210800  0.13193000  0.00000000  1
  Ni  Ni13  1  0.13193000  0.00000000  0.63210800  1
  Ni  Ni14  1  0.63210800  0.86807000  0.00000000  1
  Ni  Ni15  1  0.36789200  0.13193000  0.00000000  1
  Ni  Ni16  1  0.13193000  0.00000000  0.36789200  1
  Ni  Ni17  1  0.00000000  0.36789200  0.13193000  1
  H  H0  1  0.00000000  0.92381800  0.19343300  1
  H  H1  1  0.00000000  0.07618200  0.80656700  1
  H  H2  1  0.00000000  0.92381800  0.80656700  1
  H  H3  1  0.07618200  0.80656700  0.00000000  1
  H  H4  1  0.80656700  0.00000000  0.92381800  1
  H  H5  1  0.80656700  0.00000000  0.07618200  1
  H  H6  1  0.92381800  0.19343300  0.00000000  1
  H  H7  1  0.19343300  0.00000000  0.92381800  1
  H  H8  1  0.92381800  0.80656700  0.00000000  1
  H  H9  1  0.07618200  0.19343300  0.00000000  1
  H  H10  1  0.19343300  0.00000000  0.07618200  1
  H  H11  1  0.00000000  0.07618200  0.19343300  1
  H  H12  1  0.50000000  0.69186400  0.07459800  1
  H  H13  1  0.50000000  0.30813600  0.92540200  1
  H  H14  1  0.50000000  0.69186400  0.92540200  1
  H  H15  1  0.30813600  0.92540200  0.50000000  1
  H  H16  1  0.92540200  0.50000000  0.69186400  1
  H  H17  1  0.92540200  0.50000000  0.30813600  1
  H  H18  1  0.69186400  0.07459800  0.50000000  1
  H  H19  1  0.07459800  0.50000000  0.69186400  1
  H  H20  1  0.69186400  0.92540200  0.50000000  1
  H  H21  1  0.30813600  0.07459800  0.50000000  1
  H  H22  1  0.07459800  0.50000000  0.30813600  1
  H  H23  1  0.50000000  0.30813600  0.07459800  1
  H  H24  1  0.20613900  0.21684600  0.59811800  1
  H  H25  1  0.20613900  0.78315400  0.40188200  1
  H  H26  1  0.79386100  0.21684600  0.40188200  1
  H  H27  1  0.78315400  0.40188200  0.20613900  1
  H  H28  1  0.40188200  0.79386100  0.21684600  1
  H  H29  1  0.40188200  0.20613900  0.78315400  1
  H  H30  1  0.21684600  0.59811800  0.20613900  1
  H  H31  1  0.59811800  0.20613900  0.21684600  1
  H  H32  1  0.21684600  0.40188200  0.79386100  1
  H  H33  1  0.78315400  0.59811800  0.79386100  1
  H  H34  1  0.59811800  0.79386100  0.78315400  1
  H  H35  1  0.79386100  0.78315400  0.59811800  1
  H  H36  1  0.79386100  0.78315400  0.40188200  1
  H  H37  1  0.79386100  0.21684600  0.59811800  1
  H  H38  1  0.20613900  0.78315400  0.59811800  1
  H  H39  1  0.21684600  0.59811800  0.79386100  1
  H  H40  1  0.59811800  0.20613900  0.78315400  1
  H  H41  1  0.59811800  0.79386100  0.21684600  1
  H  H42  1  0.78315400  0.40188200  0.79386100  1
  H  H43  1  0.40188200  0.79386100  0.78315400  1
  H  H44  1  0.78315400  0.59811800  0.20613900  1
  H  H45  1  0.21684600  0.40188200  0.20613900  1
  H  H46  1  0.40188200  0.20613900  0.21684600  1
  H  H47  1  0.20613900  0.21684600  0.40188200  1
  H  H48  1  0.09911400  0.22140500  0.70458600  1
  H  H49  1  0.09911400  0.77859500  0.29541400  1
  H  H50  1  0.90088600  0.22140500  0.29541400  1
  H  H51  1  0.77859500  0.29541400  0.09911400  1
  H  H52  1  0.29541400  0.90088600  0.22140500  1
  H  H53  1  0.29541400  0.09911400  0.77859500  1
  H  H54  1  0.09911400  0.22140500  0.29541400  1
  H  H55  1  0.29541400  0.09911400  0.22140500  1
  H  H56  1  0.22140500  0.29541400  0.09911400  1
  H  H57  1  0.77859500  0.70458600  0.09911400  1
  H  H58  1  0.29541400  0.90088600  0.77859500  1
  H  H59  1  0.77859500  0.29541400  0.90088600  1
  H  H60  1  0.70458600  0.90088600  0.22140500  1
  H  H61  1  0.70458600  0.09911400  0.77859500  1
  H  H62  1  0.22140500  0.70458600  0.90088600  1
  H  H63  1  0.09911400  0.77859500  0.70458600  1
  H  H64  1  0.90088600  0.22140500  0.70458600  1
  H  H65  1  0.90088600  0.77859500  0.29541400  1
  H  H66  1  0.90088600  0.77859500  0.70458600  1
  H  H67  1  0.70458600  0.90088600  0.77859500  1
  H  H68  1  0.77859500  0.70458600  0.90088600  1
  H  H69  1  0.22140500  0.29541400  0.90088600  1
  H  H70  1  0.70458600  0.09911400  0.22140500  1
  H  H71  1  0.22140500  0.70458600  0.09911400  1
  N  N0  1  0.75041600  0.00000000  0.00000000  1
  N  N1  1  0.00000000  0.00000000  0.75041600  1
  N  N2  1  0.00000000  0.75041600  0.00000000  1
  N  N3  1  0.00000000  0.00000000  0.24958400  1
  N  N4  1  0.00000000  0.24958400  0.00000000  1
  N  N5  1  0.24958400  0.00000000  0.00000000  1
  N  N6  1  0.75003700  0.00000000  0.50000000  1
  N  N7  1  0.00000000  0.50000000  0.75003700  1
  N  N8  1  0.50000000  0.75003700  0.00000000  1
  N  N9  1  0.00000000  0.50000000  0.24996300  1
  N  N10  1  0.50000000  0.24996300  0.00000000  1
  N  N11  1  0.24996300  0.00000000  0.50000000  1
  N  N12  1  0.12459200  0.17674500  0.62452800  1
  N  N13  1  0.12459200  0.82325500  0.37547200  1
  N  N14  1  0.87540800  0.17674500  0.37547200  1
  N  N15  1  0.82325500  0.37547200  0.12459200  1
  N  N16  1  0.37547200  0.87540800  0.17674500  1
  N  N17  1  0.37547200  0.12459200  0.82325500  1
  N  N18  1  0.17674500  0.62452800  0.12459200  1
  N  N19  1  0.62452800  0.12459200  0.17674500  1
  N  N20  1  0.17674500  0.37547200  0.87540800  1
  N  N21  1  0.82325500  0.62452800  0.87540800  1
  N  N22  1  0.62452800  0.87540800  0.82325500  1
  N  N23  1  0.87540800  0.82325500  0.62452800  1
  N  N24  1  0.87540800  0.82325500  0.37547200  1
  N  N25  1  0.87540800  0.17674500  0.62452800  1
  N  N26  1  0.12459200  0.82325500  0.62452800  1
  N  N27  1  0.17674500  0.62452800  0.87540800  1
  N  N28  1  0.62452800  0.12459200  0.82325500  1
  N  N29  1  0.62452800  0.87540800  0.17674500  1
  N  N30  1  0.82325500  0.37547200  0.87540800  1
  N  N31  1  0.37547200  0.87540800  0.82325500  1
  N  N32  1  0.82325500  0.62452800  0.12459200  1
  N  N33  1  0.17674500  0.37547200  0.12459200  1
  N  N34  1  0.37547200  0.12459200  0.17674500  1
  N  N35  1  0.12459200  0.17674500  0.37547200  1
loop_
_geom_bond_atom_site_label_1
_geom_bond_atom_site_label_2
_geom_bond_distance
_geom_bond_site_symmetry_2
H0 N3 1.024988 1_565
H1 N1 1.024988 1_555
H2 N1 1.024988 1_565
H3 N2 1.024988 1_555
H4 N0 1.024988 1_556
H5 N0 1.024988 1_555
H6 N4 1.024988 1_655
H7 N5 1.024988 1_556
H8 N2 1.024988 1_655
H9 N4 1.024988 1_555
H10 N5 1.024988 1_555
H11 N3 1.024988 1_555
H12 N8 1.024549 1_555
H13 N10 1.024549 1_556
H14 N8 1.024549 1_556
H15 N11 1.024549 1_565
H16 N7 1.024549 1_655
H17 N9 1.024549 1_655
H18 N6 1.024549 1_555
H19 N7 1.024549 1_555
H20 N6 1.024549 1_565
H21 N11 1.024549 1_555
H22 N9 1.024549 1_555
H23 N10 1.024549 1_555
H24 N12 1.024923 1_555
H25 N13 1.024923 1_555
H26 N14 1.024923 1_555
H27 N15 1.024923 1_555
H28 N16 1.024923 1_555
H29 N17 1.024923 1_555
H30 N18 1.024923 1_555
H31 N19 1.024923 1_555
H32 N20 1.024923 1_555
H33 N21 1.024923 1_555
H34 N22 1.024923 1_555
H35 N23 1.024923 1_555
H36 N24 1.024923 1_555
H37 N25 1.024923 1_555
H38 N26 1.024923 1_555
H39 N27 1.024923 1_555
H40 N28 1.024923 1_555
H41 N29 1.024923 1_555
H42 N30 1.024923 1_555
H43 N31 1.024923 1_555
H44 N32 1.024923 1_555
H45 N33 1.024923 1_555
H46 N34 1.024923 1_555
H47 N35 1.024923 1_555
H48 N12 1.030483 1_555
H48 Ni7 2.608520 1_555
H49 N13 1.030483 1_555
H49 Ni6 2.608520 1_555
H50 N14 1.030483 1_555
H50 Ni17 2.608520 1_655
H51 N15 1.030483 1_555
H51 Ni12 2.608520 1_555
H52 N16 1.030483 1_555
H52 Ni16 2.608520 1_565
H53 N17 1.030483 1_555
H53 Ni13 2.608520 1_555
H54 N35 1.030483 1_555
H54 Ni17 2.608520 1_555
H55 N34 1.030483 1_555
H55 Ni16 2.608520 1_555
H56 N33 1.030483 1_555
H56 Ni15 2.608520 1_555
H57 N32 1.030483 1_555
H57 Ni14 2.608520 1_555
H58 N31 1.030483 1_555
H58 Ni13 2.608520 1_565
H59 N30 1.030483 1_555
H59 Ni12 2.608520 1_556
H60 N29 1.030483 1_555
H60 Ni11 2.608520 1_565
H61 N28 1.030483 1_555
H61 Ni10 2.608520 1_555
H62 N27 1.030483 1_555
H62 Ni9 2.608520 1_556
H63 N26 1.030483 1_555
H63 Ni8 2.608520 1_555
H64 N25 1.030483 1_555
H64 Ni7 2.608520 1_655
H65 N24 1.030483 1_555
H65 Ni6 2.608520 1_655
H66 N23 1.030483 1_555
H66 Ni8 2.608520 1_655
H67 N22 1.030483 1_555
H67 Ni10 2.608520 1_565
H68 N21 1.030483 1_555
H68 Ni14 2.608520 1_556
H69 N20 1.030483 1_555
H69 Ni15 2.608520 1_556
H70 N19 1.030483 1_555
H70 Ni11 2.608520 1_555
H71 N18 1.030483 1_555
H71 Ni9 2.608520 1_555
N0 Ni14 1.919230 1_545
N0 Ni12 1.919230 1_555
N1 Ni10 1.919230 1_455
N1 Ni13 1.919230 1_555
N2 Ni8 1.919230 1_554
N2 Ni6 1.919230 1_555
N3 Ni11 1.919230 1_455
N3 Ni16 1.919230 1_555
N4 Ni7 1.919230 1_554
N4 Ni17 1.919230 1_555
N5 Ni9 1.919230 1_545
N5 Ni15 1.919230 1_555
N6 Ni11 1.918680 1_555
N6 Ni10 1.918680 1_555
N7 Ni8 1.918680 1_555
N7 Ni7 1.918680 1_555
N8 Ni14 1.918680 1_555
N8 Ni9 1.918680 1_555
N9 Ni6 1.918680 1_555
N9 Ni17 1.918680 1_555
N10 Ni12 1.918680 1_555
N10 Ni15 1.918680 1_555
N11 Ni13 1.918680 1_555
N11 Ni16 1.918680 1_555
N12 Ni4 1.909994 1_555
N12 Ni13 1.917634 1_555
N13 Ni2 1.909994 1_555
N13 Ni16 1.917634 1_565
N14 Ni4 1.909994 1_655
N14 Ni11 1.917634 1_555
N15 Ni0 1.909994 1_555
N15 Ni17 1.917634 1_655
N16 Ni3 1.909994 1_565
N16 Ni9 1.917634 1_555
N17 Ni1 1.909994 1_555
N17 Ni15 1.917634 1_556
N18 Ni5 1.909994 1_555
N18 Ni6 1.917634 1_555
N19 Ni3 1.909994 1_555
N19 Ni12 1.917634 1_555
N20 Ni5 1.909994 1_556
N20 Ni7 1.917634 1_555
N21 Ni0 1.909994 1_556
N21 Ni8 1.917634 1_655
N22 Ni1 1.909994 1_565
N22 Ni14 1.917634 1_556
N23 Ni2 1.909994 1_655
N23 Ni10 1.917634 1_565
N24 Ni2 1.909994 1_655
N24 Ni11 1.917634 1_565
N25 Ni4 1.909994 1_655
N25 Ni10 1.917634 1_555
N26 Ni2 1.909994 1_555
N26 Ni13 1.917634 1_565
N27 Ni5 1.909994 1_556
N27 Ni8 1.917634 1_555
N28 Ni1 1.909994 1_555
N28 Ni12 1.917634 1_556
N29 Ni3 1.909994 1_565
N29 Ni14 1.917634 1_555
N30 Ni0 1.909994 1_556
N30 Ni7 1.917634 1_655
N31 Ni1 1.909994 1_565
N31 Ni9 1.917634 1_556
N32 Ni0 1.909994 1_555
N32 Ni6 1.917634 1_655
N33 Ni5 1.909994 1_555
N33 Ni17 1.917634 1_555
N34 Ni3 1.909994 1_555
N34 Ni15 1.917634 1_555
N35 Ni4 1.909994 1_555
N35 Ni16 1.917634 1_555
