# generated using pymatgen
data_Na4MgMn4O8
_symmetry_space_group_name_H-M   'P 1'
_cell_length_a   6.04660903
_cell_length_b   7.26373464
_cell_length_c   6.04697703
_cell_angle_alpha   65.41085480
_cell_angle_beta   89.98926433
_cell_angle_gamma   114.59320221
_symmetry_Int_Tables_number   1
_chemical_formula_structural   Na4MgMn4O8
_chemical_formula_sum   'Na4 Mg1 Mn4 O8'
_cell_volume   214.71505687
_cell_formula_units_Z   1
loop_
 _symmetry_equiv_pos_site_id
 _symmetry_equiv_pos_as_xyz
  1  'x, y, z'
loop_
 _atom_site_type_symbol
 _atom_site_label
 _atom_site_symmetry_multiplicity
 _atom_site_fract_x
 _atom_site_fract_y
 _atom_site_fract_z
 _atom_site_occupancy
  Na  Na0  1  0.55287900  0.60593200  0.94403100  1
  Na  Na1  1  0.94400800  0.89423500  0.55278200  1
  Na  Na2  1  0.45011000  0.89421300  0.55299000  1
  Na  Na3  1  0.55312300  0.60601700  0.44987500  1
  Mg  Mg0  1  0.37498000  0.25008600  0.37497600  1
  Mn  Mn0  1  0.04215100  0.06892800  0.96548900  1
  Mn  Mn1  1  0.52681700  0.06904400  0.96551600  1
  Mn  Mn2  1  0.96545300  0.43095800  0.04231600  1
  Mn  Mn3  1  0.96553500  0.43095500  0.52682000  1
  O  O0  1  0.27154500  0.04336800  0.21748700  1
  O  O1  1  0.73928800  0.45666600  0.27186900  1
  O  O2  1  0.21737600  0.45670800  0.27174900  1
  O  O3  1  0.76360800  0.02700900  0.20755400  1
  O  O4  1  0.27161800  0.04332000  0.73915100  1
  O  O5  1  0.76536000  0.47275400  0.76348500  1
  O  O6  1  0.20750000  0.47278100  0.76343500  1
  O  O7  1  0.76364900  0.02702800  0.76547700  1
loop_
_geom_bond_atom_site_label_1
_geom_bond_atom_site_label_2
_geom_bond_distance
_geom_bond_site_symmetry_2
Na0 O2 2.366032 1_556
Na0 O1 2.367548 1_556
Na0 O6 2.384949 1_555
Na0 O5 2.385650 1_555
Na0 O7 2.480368 1_565
Na0 Na2 2.706523 1_555
Na0 Na1 2.707106 1_555
Na1 O0 2.364655 1_665
Na1 O4 2.365967 1_665
Na1 O3 2.383059 1_565
Na1 O7 2.383573 1_565
Na1 O5 2.482689 1_555
Na1 Na3 2.706024 1_555
Na2 O4 2.364797 1_565
Na2 O0 2.366597 1_565
Na2 O7 2.384554 1_565
Na2 O3 2.384695 1_565
Na2 O6 2.482294 1_555
Na2 Na3 2.707483 1_555
Na3 O1 2.364411 1_555
Na3 O2 2.366059 1_555
Na3 O6 2.384779 1_555
Na3 O5 2.384825 1_555
Na3 O3 2.479707 1_565
Mg0 O0 1.990311 1_555
Mg0 O2 1.990319 1_555
Mg0 O4 1.990352 1_555
Mg0 O1 1.990587 1_555
Mg0 Na3 2.589658 1_555
Mg0 Na1 2.589913 1_445
Mg0 Na0 2.589994 1_554
Mg0 Na2 2.590186 1_545
Mn0 O4 2.063724 1_555
Mn0 O0 2.064009 1_556
Mn0 O7 2.066829 1_455
Mn0 O3 2.067192 1_456
Mn0 O6 2.381868 1_555
Mn1 O0 2.064421 1_556
Mn1 O4 2.064793 1_555
Mn1 O7 2.068192 1_555
Mn1 O3 2.068358 1_556
Mn1 O5 2.381077 1_555
Mn2 O1 2.063831 1_555
Mn2 O2 2.063923 1_655
Mn2 O5 2.068663 1_554
Mn2 O6 2.069023 1_654
Mn2 O3 2.382495 1_555
Mn3 O2 2.062714 1_655
Mn3 O1 2.063249 1_555
Mn3 O5 2.066908 1_555
Mn3 O6 2.067037 1_655
Mn3 O7 2.382374 1_555
