# generated using pymatgen
data_Ce(GePt)2
_symmetry_space_group_name_H-M   'P 1'
_cell_length_a   5.89403204
_cell_length_b   5.89403204
_cell_length_c   5.89403204
_cell_angle_alpha   136.21418430
_cell_angle_beta   136.21418430
_cell_angle_gamma   63.64937622
_symmetry_Int_Tables_number   1
_chemical_formula_structural   Ce(GePt)2
_chemical_formula_sum   'Ce1 Ge2 Pt2'
_cell_volume   96.75361328
_cell_formula_units_Z   1
loop_
 _symmetry_equiv_pos_site_id
 _symmetry_equiv_pos_as_xyz
  1  'x, y, z'
loop_
 _atom_site_type_symbol
 _atom_site_label
 _atom_site_symmetry_multiplicity
 _atom_site_fract_x
 _atom_site_fract_y
 _atom_site_fract_z
 _atom_site_occupancy
  Ce  Ce0  1  0.00000000  0.00000000  0.00000000  1
  Ge  Ge0  1  0.62418300  0.62418300  0.00000000  1
  Ge  Ge1  1  0.37581700  0.37581700  0.00000000  1
  Pt  Pt0  1  0.75000000  0.25000000  0.50000000  1
  Pt  Pt1  1  0.25000000  0.75000000  0.50000000  1
loop_
_geom_bond_atom_site_label_1
_geom_bond_atom_site_label_2
_geom_bond_distance
_geom_bond_site_symmetry_2
Ce0 Pt1 3.331651 1_544
Ce0 Pt0 3.331651 1_455
Ce0 Pt1 3.331651 1_555
Ce0 Pt0 3.331651 1_555
Ce0 Pt1 3.331651 1_545
Ce0 Pt0 3.331651 1_444
Ce0 Pt1 3.331651 1_444
Ce0 Pt0 3.331651 1_454
Ce0 Ge0 3.347692 1_556
Ce0 Ge0 3.347692 1_444
Ce0 Ge0 3.347692 1_545
Ce0 Ge0 3.347692 1_455
Ce0 Ge1 3.347692 1_545
Ce0 Ge1 3.347692 1_444
Ce0 Ge1 3.347692 1_455
Ce0 Ge1 3.347692 1_556
Ge0 Ge1 2.487612 1_555
Ge0 Pt0 2.533383 1_554
Ge0 Pt0 2.533383 1_565
Ge0 Pt1 2.533383 1_554
Ge0 Pt1 2.533383 1_655
Ge1 Pt1 2.533383 1_555
Ge1 Pt0 2.533383 1_454
Ge1 Pt1 2.533383 1_544
Ge1 Pt0 2.533383 1_555
Pt0 Pt1 3.108053 1_555
Pt0 Pt1 3.108053 1_645
Pt0 Pt1 3.108053 1_656
Pt0 Pt1 3.108053 1_544
