# generated using pymatgen
data_Na6La4Al4Si3(S3O16)3
_symmetry_space_group_name_H-M   'P 1'
_cell_length_a   17.97469201
_cell_length_b   9.05938873
_cell_length_c   23.51038077
_cell_angle_alpha   90.36800340
_cell_angle_beta   89.22922196
_cell_angle_gamma   120.21055106
_symmetry_Int_Tables_number   1
_chemical_formula_structural   Na6La4Al4Si3(S3O16)3
_chemical_formula_sum   'Na18 La12 Al12 Si9 S27 O144'
_cell_volume   3308.15596599
_cell_formula_units_Z   3
loop_
 _symmetry_equiv_pos_site_id
 _symmetry_equiv_pos_as_xyz
  1  'x, y, z'
loop_
 _atom_site_type_symbol
 _atom_site_label
 _atom_site_symmetry_multiplicity
 _atom_site_fract_x
 _atom_site_fract_y
 _atom_site_fract_z
 _atom_site_occupancy
  Na  Na0  1  0.00433849  0.64052622  0.25538845  1
  Na  Na1  1  0.50257500  0.37020165  0.74110835  1
  Na  Na2  1  0.15991064  0.31062197  0.91264936  1
  Na  Na3  1  0.66130166  0.30503724  0.90860996  1
  Na  Na4  1  0.16436796  0.02242499  0.41641341  1
  Na  Na5  1  0.65879971  0.00483380  0.41881565  1
  Na  Na6  1  0.99269326  0.98366931  0.49381058  1
  Na  Na7  1  0.49067695  0.00148749  0.49712568  1
  Na  Na8  1  0.99199016  0.00031425  0.98850370  1
  Na  Na9  1  0.49359909  0.00223651  0.99000467  1
  Na  Na10  1  0.33453201  0.33381837  0.82658162  1
  Na  Na11  1  0.83949875  0.33678816  0.83949376  1
  Na  Na12  1  0.34176668  0.34679608  0.34299451  1
  Na  Na13  1  0.83268214  0.33146988  0.33337692  1
  Na  Na14  1  0.17361382  0.68296442  0.17749859  1
  Na  Na15  1  0.66753404  0.68778270  0.17458330  1
  Na  Na16  1  0.17092446  0.65115440  0.67212854  1
  Na  Na17  1  0.66171175  0.64611556  0.66792961  1
  La  La0  1  0.99618290  0.00950906  0.64650165  1
  La  La1  1  0.51284982  0.02276673  0.64649193  1
  La  La2  1  0.01326915  0.01022347  0.15013549  1
  La  La3  1  0.49724789  0.98326692  0.14685534  1
  La  La4  1  0.82643824  0.33253569  0.69562583  1
  La  La5  1  0.32778853  0.32378231  0.19654602  1
  La  La6  1  0.15412770  0.65029867  0.01046325  1
  La  La7  1  0.66665332  0.65786883  0.01069124  1
  La  La8  1  0.16823528  0.67607866  0.51163746  1
  La  La9  1  0.63951262  0.63371002  0.51734298  1
  La  La10  1  0.66028521  0.67579186  0.32225525  1
  La  La11  1  0.16012694  0.64307984  0.82010627  1
  Al  Al0  1  0.00413305  0.99190648  0.35460709  1
  Al  Al1  1  0.50963861  0.99213485  0.34522819  1
  Al  Al2  1  0.01050424  0.03262716  0.84194857  1
  Al  Al3  1  0.49982440  0.01746121  0.84756485  1
  Al  Al4  1  0.32252282  0.32828648  0.67818858  1
  Al  Al5  1  0.82200636  0.31782884  0.18547621  1
  Al  Al6  1  0.34519055  0.33536292  0.97702299  1
  Al  Al7  1  0.83863700  0.32834562  0.98529128  1
  Al  Al8  1  0.35342017  0.36675489  0.49109992  1
  Al  Al9  1  0.84518101  0.35217421  0.47801781  1
  Al  Al10  1  0.15965375  0.67428846  0.32237438  1
  Al  Al11  1  0.65199883  0.64636429  0.81851885  1
  Si  Si0  1  0.14412207  0.98140239  0.26143932  1
  Si  Si1  1  0.65528658  0.01527298  0.24945023  1
  Si  Si2  1  0.15932567  0.29482339  0.74822699  1
  Si  Si3  1  0.64561029  0.31034971  0.76196805  1
  Si  Si4  1  0.46585951  0.32833431  0.59086726  1
  Si  Si5  1  0.99929678  0.32999551  0.91636392  1
  Si  Si6  1  0.51227747  0.35333530  0.91283752  1
  Si  Si7  1  0.01261492  0.66953178  0.41344573  1
  Si  Si8  1  0.49920558  0.67014457  0.41513579  1
  S  S0  1  0.34559461  0.71538726  0.26198825  1
  S  S1  1  0.85431255  0.69412798  0.24949242  1
  S  S2  1  0.00165885  0.30416697  0.25518954  1
  S  S3  1  0.50135742  0.28062689  0.25668261  1
  S  S4  1  0.00073363  0.72351914  0.75696768  1
  S  S5  1  0.50395710  0.71088930  0.75870254  1
  S  S6  1  0.35611424  0.00827127  0.75441390  1
  S  S7  1  0.84516720  0.97667315  0.76264407  1
  S  S8  1  0.97292620  0.33090167  0.57640092  1
  S  S9  1  0.19851852  0.06492095  0.57918214  1
  S  S10  1  0.69648030  0.05526231  0.57300529  1
  S  S11  1  0.33074051  0.60267473  0.58468863  1
  S  S12  1  0.83478527  0.61668846  0.57432481  1
  S  S13  1  0.47214863  0.61384566  0.07621849  1
  S  S14  1  0.96368853  0.59669391  0.08588037  1
  S  S15  1  0.33391400  0.05224091  0.07446618  1
  S  S16  1  0.83245041  0.06541855  0.08530478  1
  S  S17  1  0.19326394  0.33451839  0.07467999  1
  S  S18  1  0.70226229  0.33517767  0.08091044  1
  S  S19  1  0.33088062  0.66530106  0.91908498  1
  S  S20  1  0.82221554  0.66605878  0.91232924  1
  S  S21  1  0.16941859  0.99471051  0.91793374  1
  S  S22  1  0.66349093  0.96882283  0.91247821  1
  S  S23  1  0.32040867  0.96963964  0.40822765  1
  S  S24  1  0.83112035  0.99325470  0.41870084  1
  S  S25  1  0.16074028  0.36040783  0.40881805  1
  S  S26  1  0.66879544  0.34185170  0.41577775  1
  O  O0  1  0.08551267  0.00606032  0.30929319  1
  O  O1  1  0.60461243  0.02527847  0.30708417  1
  O  O2  1  0.40928384  0.82450573  0.30425301  1
  O  O3  1  0.90720586  0.78210312  0.29982466  1
  O  O4  1  0.50108440  0.17552863  0.30421436  1
  O  O5  1  0.98448868  0.18584026  0.30233706  1
  O  O6  1  0.10988322  0.18774726  0.80756905  1
  O  O7  1  0.59122368  0.17415605  0.81180397  1
  O  O8  1  0.49073967  0.80475938  0.80600159  1
  O  O9  1  0.00074097  0.83057141  0.80502803  1
  O  O10  1  0.40903720  0.01293137  0.80402446  1
  O  O11  1  0.90973390  0.99710002  0.80537293  1
  O  O12  1  0.39115530  0.98031322  0.70096482  1
  O  O13  1  0.87151505  0.94761573  0.70540425  1
  O  O14  1  0.09590886  0.20479144  0.69429793  1
  O  O15  1  0.59548677  0.24492997  0.70132438  1
  O  O16  1  0.99769124  0.79470115  0.70133651  1
  O  O17  1  0.51949099  0.80057960  0.70384258  1
  O  O18  1  0.37116770  0.79409296  0.20427901  1
  O  O19  1  0.89058104  0.79830096  0.19725254  1
  O  O20  1  0.01790014  0.23985794  0.20059472  1
  O  O21  1  0.49834560  0.20258931  0.20050206  1
  O  O22  1  0.09391272  0.94198699  0.19978505  1
  O  O23  1  0.59636391  0.98330830  0.19316256  1
  O  O24  1  0.41473671  0.33270103  0.64937783  1
  O  O25  1  0.93357644  0.33049870  0.63171618  1
  O  O26  1  0.24258958  0.15730702  0.63143971  1
  O  O27  1  0.73398752  0.13666853  0.62813587  1
  O  O28  1  0.32712864  0.50876578  0.63711898  1
  O  O29  1  0.83221005  0.53529628  0.62926610  1
  O  O30  1  0.43251855  0.53648477  0.13149800  1
  O  O31  1  0.91903677  0.50319267  0.13909678  1
  O  O32  1  0.33091254  0.12849945  0.12962203  1
  O  O33  1  0.83214897  0.15766507  0.13831872  1
  O  O34  1  0.23172036  0.33216079  0.12957456  1
  O  O35  1  0.74875400  0.33618274  0.13289678  1
  O  O36  1  0.24586316  0.33897334  0.02481724  1
  O  O37  1  0.74771568  0.33292549  0.02674911  1
  O  O38  1  0.42252420  0.50527870  0.02764295  1
  O  O39  1  0.91925821  0.50645931  0.03275784  1
  O  O40  1  0.33294168  0.15609212  0.02586674  1
  O  O41  1  0.83163967  0.15704209  0.03304957  1
  O  O42  1  0.24352417  0.15754991  0.52525675  1
  O  O43  1  0.74905395  0.15946763  0.52353582  1
  O  O44  1  0.32704586  0.50698713  0.53178352  1
  O  O45  1  0.83413779  0.51018030  0.52537408  1
  O  O46  1  0.42252744  0.33411476  0.53067946  1
  O  O47  1  0.92358906  0.33966672  0.52771406  1
  O  O48  1  0.29308756  0.70744357  0.96883037  1
  O  O49  1  0.79608388  0.71357273  0.96729598  1
  O  O50  1  0.07059071  0.40561486  0.96863955  1
  O  O51  1  0.57722401  0.41994421  0.96831073  1
  O  O52  1  0.15240062  0.88760983  0.96924262  1
  O  O53  1  0.64893037  0.87276447  0.96641863  1
  O  O54  1  0.29474742  0.87425354  0.46332692  1
  O  O55  1  0.79397930  0.87752201  0.46753669  1
  O  O56  1  0.14577971  0.42348138  0.46366482  1
  O  O57  1  0.65219308  0.41540359  0.46709477  1
  O  O58  1  0.07874385  0.73221502  0.46778094  1
  O  O59  1  0.57122470  0.73473060  0.46617495  1
  O  O60  1  0.06375492  0.63634517  0.36055645  1
  O  O61  1  0.53676215  0.61473817  0.36068932  1
  O  O62  1  0.25281022  0.86282319  0.36510426  1
  O  O63  1  0.77332135  0.92706402  0.36861238  1
  O  O64  1  0.17432088  0.48126401  0.36214280  1
  O  O65  1  0.69107765  0.45445848  0.36624466  1
  O  O66  1  0.03899403  0.46244391  0.86359370  1
  O  O67  1  0.56491673  0.49522459  0.86243267  1
  O  O68  1  0.19113033  0.92419019  0.86858624  1
  O  O69  1  0.67986177  0.88063593  0.86484577  1
  O  O70  1  0.27109195  0.61524819  0.87023946  1
  O  O71  1  0.75651261  0.63185237  0.86836050  1
  O  O72  1  0.00081527  0.83825942  0.40355524  1
  O  O73  1  0.49636744  0.84456727  0.40053882  1
  O  O74  1  0.40687450  0.00510651  0.39372123  1
  O  O75  1  0.91704153  0.01571175  0.40362077  1
  O  O76  1  0.08222087  0.18637441  0.40029307  1
  O  O77  1  0.58976966  0.17204543  0.40617853  1
  O  O78  1  0.99746168  0.15045438  0.90005549  1
  O  O79  1  0.49881264  0.16036709  0.90170382  1
  O  O80  1  0.09130506  0.00905390  0.90875057  1
  O  O81  1  0.58669021  0.98806483  0.90367935  1
  O  O82  1  0.41576855  0.81336041  0.90552156  1
  O  O83  1  0.90923581  0.80425199  0.89861082  1
  O  O84  1  0.47583074  0.15886697  0.58472799  1
  O  O85  1  0.97713450  0.17211415  0.56971439  1
  O  O86  1  0.11052673  0.04002676  0.57834228  1
  O  O87  1  0.60960761  0.03510064  0.56804204  1
  O  O88  1  0.41070973  0.76880044  0.58270415  1
  O  O89  1  0.91540213  0.78507332  0.57059229  1
  O  O90  1  0.47659858  0.78099447  0.06976774  1
  O  O91  1  0.97064731  0.76632538  0.08396882  1
  O  O92  1  0.41341282  0.04140004  0.07040245  1
  O  O93  1  0.91138253  0.05313453  0.08339910  1
  O  O94  1  0.10678865  0.17778544  0.07011362  1
  O  O95  1  0.61595861  0.18202702  0.07962253  1
  O  O96  1  0.35798239  0.17357856  0.75340807  1
  O  O97  1  0.84234572  0.13808086  0.76188904  1
  O  O98  1  0.25324186  0.30511199  0.73670529  1
  O  O99  1  0.74020533  0.32597586  0.76230597  1
  O  O100  1  0.42894883  0.53497297  0.75473406  1
  O  O101  1  0.92454087  0.54990560  0.76311128  1
  O  O102  1  0.34188180  0.54736519  0.26134703  1
  O  O103  1  0.85596792  0.52929121  0.24177817  1
  O  O104  1  0.42472605  0.30191033  0.26228760  1
  O  O105  1  0.92616313  0.33136638  0.24687882  1
  O  O106  1  0.23784918  0.15482269  0.26086372  1
  O  O107  1  0.74934617  0.19379222  0.24003232  1
  O  O108  1  0.33614046  0.50864969  0.93145687  1
  O  O109  1  0.82042750  0.49825930  0.92212593  1
  O  O110  1  0.41925767  0.33949180  0.92600737  1
  O  O111  1  0.90889463  0.31954102  0.93512362  1
  O  O112  1  0.24359686  0.17328879  0.92905417  1
  O  O113  1  0.73941069  0.14664524  0.92045691  1
  O  O114  1  0.31704929  0.13063777  0.41497333  1
  O  O115  1  0.83846870  0.16344760  0.43049112  1
  O  O116  1  0.23497271  0.33261385  0.41357198  1
  O  O117  1  0.74258453  0.30982296  0.42638449  1
  O  O118  1  0.40696828  0.50001624  0.43279062  1
  O  O119  1  0.91925774  0.49783432  0.42620643  1
  O  O120  1  0.18421346  0.48868795  0.07645760  1
  O  O121  1  0.69706391  0.49298211  0.08272265  1
  O  O122  1  0.05112711  0.61706703  0.08628620  1
  O  O123  1  0.56009081  0.63836183  0.07644047  1
  O  O124  1  0.25688817  0.87859398  0.07305315  1
  O  O125  1  0.75444374  0.89410216  0.08583360  1
  O  O126  1  0.19363871  0.89649293  0.58225858  1
  O  O127  1  0.69126191  0.88763186  0.57398433  1
  O  O128  1  0.25372980  0.62207453  0.58522383  1
  O  O129  1  0.75907238  0.63879692  0.57266259  1
  O  O130  1  0.06084882  0.48186922  0.57643038  1
  O  O131  1  0.56232153  0.50126731  0.59440257  1
  O  O132  1  0.15429241  0.81139874  0.26875481  1
  O  O133  1  0.67107704  0.85250249  0.25239455  1
  O  O134  1  0.25801573  0.68792301  0.27356559  1
  O  O135  1  0.76466532  0.65567802  0.25554996  1
  O  O136  1  0.08003580  0.47750722  0.26404335  1
  O  O137  1  0.58033610  0.45125828  0.25531847  1
  O  O138  1  0.17417135  0.48846566  0.75185811  1
  O  O139  1  0.65375577  0.49945783  0.76853298  1
  O  O140  1  0.07976921  0.71118853  0.75605379  1
  O  O141  1  0.58317208  0.69405319  0.76772196  1
  O  O142  1  0.26679168  0.86718507  0.76005089  1
  O  O143  1  0.75885863  0.82984656  0.77565357  1
loop_
_geom_bond_atom_site_label_1
_geom_bond_atom_site_label_2
_geom_bond_distance
_geom_bond_site_symmetry_2
Na0 O103 2.354687 1_455
Na0 O132 2.361710 1_555
Na0 O105 2.428734 1_455
Na0 O136 2.471310 1_555
Na0 O22 2.706284 1_555
Na0 O60 2.714489 1_555
Na0 O3 2.823479 1_455
Na0 O31 3.085980 1_455
Na1 O96 2.310590 1_555
Na1 O139 2.450813 1_555
Na1 O100 2.460236 1_555
Na1 O24 2.607995 1_555
Na1 O15 2.608378 1_555
Na1 O141 2.611786 1_555
Na1 O67 3.072758 1_555
Na1 O10 3.163679 1_555
Na1 Na17 3.180806 1_555
Na2 O80 2.366942 1_555
Na2 O112 2.421686 1_555
Na2 O50 2.523891 1_555
Na2 O78 2.544252 1_455
Na2 O70 2.652460 1_555
Na2 O6 2.677332 1_555
Na2 O108 2.785082 1_555
Na2 O36 3.018082 1_556
Na3 O113 2.480097 1_555
Na3 O81 2.486420 1_545
Na3 O109 2.514915 1_555
Na3 O79 2.536196 1_555
Na3 O7 2.590736 1_555
Na3 O51 2.616300 1_555
Na3 O71 2.735603 1_555
Na3 O37 3.146916 1_556
Na4 O114 2.405061 1_555
Na4 O116 2.433719 1_555
Na4 O72 2.568833 1_545
Na4 O58 2.580338 1_545
Na4 O76 2.599866 1_555
Na4 O0 2.872855 1_555
Na4 O62 2.883083 1_545
Na4 O42 2.894141 1_555
Na5 O117 2.397351 1_555
Na5 O59 2.411802 1_545
Na5 O77 2.414501 1_555
Na5 O73 2.564535 1_545
Na5 O63 2.740502 1_545
Na5 O115 2.813977 1_555
Na5 O1 2.853060 1_555
Na5 O43 2.903769 1_555
Na6 O89 2.425803 1_555
Na6 O72 2.531516 1_655
Na6 O85 2.570054 1_565
Na6 O75 2.629101 1_565
Na6 O86 2.776381 1_665
Na6 O76 2.789020 1_665
Na6 O55 3.264863 1_555
Na7 O84 2.583834 1_555
Na7 O87 2.622350 1_555
Na7 O73 2.699358 1_545
Na7 O77 2.702267 1_555
Na7 O88 2.735913 1_545
Na7 O74 2.886083 1_555
Na7 O54 3.215780 1_545
Na7 O57 3.465748 1_555
Na8 O78 2.465782 1_555
Na8 O80 2.545267 1_655
Na8 O83 2.685427 1_545
Na8 O94 2.693025 1_656
Na8 O93 2.811195 1_556
Na8 O91 2.982901 1_546
Na8 O49 3.197125 1_545
Na8 O50 3.237257 1_655
Na9 O92 2.491747 1_556
Na9 O79 2.503720 1_555
Na9 O82 2.540120 1_545
Na9 O90 2.654009 1_546
Na9 O81 2.656479 1_545
Na9 O95 2.899128 1_556
Na9 O48 3.273312 1_545
Na9 O51 3.334579 1_555
Na10 O96 2.410145 1_555
Na10 O100 2.429901 1_555
Na10 O98 2.522125 1_555
Na10 O110 2.793110 1_555
Na10 O112 2.852652 1_555
Na10 O108 2.914549 1_555
Na11 O101 2.507935 1_555
Na11 O99 2.529250 1_555
Na11 O109 2.545927 1_555
Na11 O97 2.572952 1_555
Na11 O113 2.580379 1_555
Na11 O111 2.628931 1_555
Na11 O66 3.227033 1_655
Na12 O114 2.458184 1_555
Na12 O116 2.474562 1_555
Na12 O118 2.479717 1_555
Na12 O104 2.552145 1_555
Na12 O106 2.650819 1_555
Na12 O102 2.650897 1_555
Na12 O61 3.132794 1_555
Na13 O107 2.605514 1_555
Na13 O105 2.620792 1_555
Na13 O117 2.652017 1_555
Na13 O119 2.673037 1_555
Na13 O103 2.700936 1_555
Na13 O115 2.784094 1_555
Na13 O65 3.332736 1_555
Na13 O63 3.365775 1_545
Na14 O132 2.536142 1_555
Na14 O136 2.690653 1_555
Na14 O134 2.725262 1_555
Na14 O122 2.930900 1_555
Na14 O124 2.949334 1_555
Na14 O120 3.008094 1_555
Na14 O18 3.236307 1_555
Na14 O22 3.343720 1_555
Na15 O133 2.334508 1_555
Na15 O137 2.691332 1_555
Na15 O125 2.703999 1_555
Na15 O135 2.713643 1_555
Na15 O123 2.913872 1_555
Na15 O121 2.987183 1_555
Na16 O138 2.411289 1_555
Na16 O128 2.600986 1_555
Na16 O140 2.769413 1_555
Na16 O142 2.778929 1_555
Na16 O130 2.889735 1_555
Na16 O126 2.948705 1_555
Na17 O131 2.365698 1_555
Na17 O139 2.687014 1_555
Na17 O129 2.844809 1_555
Na17 O141 2.863707 1_555
Na17 O127 2.967945 1_555
Na17 O143 3.061659 1_555
Na17 O15 3.301600 1_555
La0 O14 2.107847 1_655
La0 O16 2.352877 1_545
La0 O13 2.432206 1_545
La0 O85 2.470776 1_555
La0 O86 2.492743 1_655
La0 O89 2.545482 1_545
La1 O15 2.220052 1_555
La1 O84 2.224015 1_555
La1 O12 2.378485 1_545
La1 O87 2.481897 1_555
La1 O17 2.482931 1_545
La1 O88 2.586906 1_545
La2 O22 2.191446 1_545
La2 O19 2.340322 1_445
La2 O20 2.353467 1_555
La2 O94 2.460314 1_555
La2 O91 2.484631 1_445
La2 O93 2.601624 1_455
La3 O23 2.100191 1_555
La3 O21 2.338387 1_565
La3 O18 2.436075 1_555
La3 O90 2.464001 1_555
La3 O95 2.524497 1_565
La3 O92 2.581203 1_565
La4 O99 2.169514 1_555
La4 O27 2.344161 1_555
La4 O29 2.378999 1_555
La4 O25 2.433956 1_555
La4 O101 2.458710 1_555
La4 O97 2.483195 1_555
La5 O106 2.171796 1_555
La5 O32 2.381276 1_555
La5 O34 2.381869 1_555
La5 O104 2.426530 1_555
La5 O30 2.430135 1_555
La5 O102 2.437690 1_555
La6 O50 2.190276 1_554
La6 O52 2.378429 1_554
La6 O120 2.385766 1_555
La6 O124 2.458488 1_555
La6 O122 2.460338 1_555
La6 O48 2.470689 1_554
La7 O51 2.179760 1_554
La7 O49 2.338650 1_554
La7 O53 2.373624 1_554
La7 O123 2.381756 1_555
La7 O121 2.505427 1_555
La7 O125 2.611331 1_555
La8 O58 2.187218 1_555
La8 O54 2.352138 1_555
La8 O130 2.383163 1_555
La8 O56 2.391904 1_555
La8 O126 2.452082 1_555
La8 O128 2.536335 1_555
La9 O131 2.220799 1_555
La9 O59 2.230634 1_555
La9 O127 2.402268 1_555
La9 O57 2.403190 1_555
La9 O129 2.507354 1_555
La9 O55 2.780807 1_555
La10 O61 2.183730 1_555
La10 O133 2.238485 1_555
La10 O137 2.399453 1_555
La10 O63 2.423026 1_555
La10 O135 2.504798 1_555
La10 O65 2.560361 1_555
La11 O66 2.199976 1_555
La11 O138 2.217284 1_555
La11 O140 2.387909 1_555
La11 O142 2.416212 1_555
La11 O70 2.450354 1_555
La11 O68 2.578149 1_555
Al0 O0 1.749910 1_565
Al0 O72 1.789018 1_555
Al0 O76 1.937860 1_565
Al0 O75 2.028057 1_465
Al0 O3 2.236797 1_455
Al0 O5 2.320635 1_465
Al1 O73 1.796707 1_555
Al1 O1 1.804183 1_565
Al1 O2 1.938886 1_555
Al1 O4 1.998860 1_565
Al1 O77 2.108907 1_565
Al1 O74 2.210353 1_565
Al2 O6 1.807913 1_555
Al2 O78 1.812500 1_455
Al2 O11 1.890915 1_445
Al2 O9 1.948177 1_545
Al2 O80 2.235934 1_555
Al2 O83 2.355570 1_445
Al3 O7 1.747064 1_555
Al3 O79 1.816155 1_555
Al3 O10 1.920823 1_555
Al3 O8 2.087605 1_545
Al3 O82 2.173442 1_545
Al3 O81 2.174334 1_545
Al4 O24 1.763858 1_555
Al4 O98 1.783832 1_555
Al4 O26 1.858107 1_555
Al4 O28 1.869332 1_555
Al5 O107 1.763551 1_555
Al5 O35 1.885781 1_555
Al5 O33 1.899447 1_555
Al5 O31 2.018843 1_555
Al5 O103 2.146402 1_555
Al5 O105 2.333125 1_555
Al6 O110 1.766324 1_555
Al6 O38 1.893602 1_556
Al6 O40 1.913662 1_556
Al6 O108 1.980375 1_555
Al6 O112 2.024414 1_555
Al6 O36 2.110825 1_556
Al7 O111 1.747110 1_555
Al7 O41 1.872724 1_556
Al7 O39 1.901645 1_556
Al7 O37 1.909839 1_556
Al7 O109 2.287236 1_555
Al7 O113 2.302279 1_555
Al8 O46 1.703121 1_555
Al8 O118 1.754873 1_555
Al8 O44 1.825338 1_555
Al8 O42 2.085226 1_555
Al9 O119 1.790756 1_555
Al9 O47 1.889697 1_555
Al9 O45 1.894076 1_555
Al9 O115 1.989423 1_555
Al9 O43 2.029064 1_555
Al9 O117 2.088984 1_555
Al10 O60 1.805918 1_555
Al10 O132 1.812509 1_555
Al10 O62 1.968594 1_555
Al10 O134 2.045830 1_555
Al10 O64 2.119706 1_555
Al10 O136 2.135594 1_555
Al11 O139 1.781718 1_555
Al11 O67 1.791263 1_555
Al11 O141 1.930718 1_555
Al11 O143 2.055329 1_555
Al11 O69 2.203814 1_555
Al11 O71 2.286765 1_555
O0 Si0 1.620868 1_545
O1 Si1 1.649905 1_555
O2 S0 1.467736 1_555
O3 S1 1.481548 1_555
O4 S3 1.471111 1_555
O5 S2 1.464977 1_655
O6 Si2 1.671438 1_555
O7 Si3 1.620096 1_555
O8 S5 1.483336 1_555
O9 S4 1.484277 1_555
O10 S6 1.501969 1_555
O11 S7 1.484308 1_555
O12 S6 1.474820 1_565
O13 S7 1.486049 1_555
O14 Si2 1.631603 1_555
O15 Si3 1.637711 1_555
O16 S4 1.475710 1_655
O17 S5 1.475523 1_555
O18 S0 1.492087 1_555
O19 S1 1.482655 1_555
O20 S2 1.491177 1_555
O21 S3 1.482813 1_555
O22 Si0 1.657509 1_555
O23 Si1 1.637364 1_565
O24 Si4 1.655337 1_555
O25 S8 1.471141 1_555
O26 S9 1.477574 1_555
O27 S10 1.479615 1_555
O28 S11 1.484312 1_555
O29 S12 1.480064 1_555
O30 S13 1.473790 1_555
O31 S14 1.493135 1_555
O32 S15 1.478456 1_555
O33 S16 1.497622 1_555
O34 S17 1.477536 1_555
O35 S18 1.487256 1_555
O36 S17 1.483971 1_555
O37 S18 1.509240 1_555
O38 S13 1.482338 1_555
O39 S14 1.490839 1_555
O40 S15 1.490595 1_555
O41 S16 1.491397 1_555
O42 S9 1.506271 1_555
O43 S10 1.491190 1_555
O44 S11 1.494456 1_555
O45 S12 1.493458 1_555
O46 Si4 1.638103 1_555
O47 S8 1.484020 1_555
O48 S19 1.486248 1_555
O49 S20 1.501971 1_555
O50 Si5 1.664358 1_455
O51 Si6 1.658251 1_555
O52 S21 1.482076 1_555
O53 S22 1.486630 1_555
O54 S23 1.494907 1_555
O55 S24 1.467533 1_555
O56 S25 1.482360 1_555
O57 S26 1.472671 1_555
O58 Si7 1.649079 1_555
O59 Si8 1.651829 1_555
O60 Si7 1.650484 1_555
O61 Si8 1.629637 1_555
O62 S23 1.509287 1_555
O63 S24 1.490828 1_555
O64 S25 1.483846 1_555
O65 S26 1.465879 1_555
O66 Si5 1.619196 1_455
O67 Si6 1.648429 1_555
O68 S21 1.461398 1_555
O69 S22 1.481610 1_555
O70 S19 1.488432 1_555
O71 S20 1.489892 1_555
O72 Si7 1.663651 1_555
O73 Si8 1.644947 1_555
O74 S23 1.455911 1_545
O75 S24 1.490729 1_545
O76 S25 1.510660 1_555
O77 S26 1.496749 1_555
O78 Si5 1.652889 1_555
O79 Si6 1.659289 1_555
O80 S21 1.492322 1_545
O81 S22 1.493050 1_555
O82 S19 1.470293 1_555
O83 S20 1.462502 1_555
O84 Si4 1.638104 1_555
O85 S8 1.485277 1_555
O86 S9 1.481421 1_555
O87 S10 1.484214 1_555
O88 S11 1.468129 1_555
O89 S12 1.486027 1_555
O90 S13 1.484295 1_555
O91 S14 1.478709 1_555
O92 S15 1.482619 1_555
O93 S16 1.477988 1_555
O94 S17 1.491696 1_555
O95 S18 1.472116 1_555
O96 S6 1.481306 1_555
O97 S7 1.488645 1_545
O98 Si2 1.661767 1_555
O99 Si3 1.633798 1_555
O100 S5 1.485079 1_555
O101 S4 1.483290 1_655
O102 S0 1.489700 1_555
O103 S1 1.518182 1_555
O104 S3 1.487921 1_555
O105 S2 1.511501 1_655
O106 Si0 1.625655 1_545
O107 Si1 1.663092 1_555
O108 S19 1.499548 1_555
O109 S20 1.523188 1_555
O110 Si6 1.637906 1_555
O111 Si5 1.634115 1_555
O112 S21 1.515450 1_545
O113 S22 1.511048 1_545
O114 S23 1.497182 1_545
O115 S24 1.504032 1_545
O116 S25 1.482817 1_555
O117 S26 1.517456 1_555
O118 Si8 1.647624 1_555
O119 Si7 1.640450 1_655
O120 S17 1.485482 1_555
O121 S18 1.479148 1_555
O122 S14 1.487546 1_455
O123 S13 1.481542 1_555
O124 S15 1.483721 1_565
O125 S16 1.478080 1_565
O126 S9 1.485839 1_565
O127 S10 1.473975 1_565
O128 S11 1.480374 1_555
O129 S12 1.472948 1_555
O130 S8 1.480867 1_455
O131 Si4 1.654148 1_555
O132 Si0 1.650026 1_555
O133 Si1 1.637936 1_565
O134 S0 1.486366 1_555
O135 S1 1.472333 1_555
O136 S2 1.507108 1_555
O137 S3 1.482188 1_555
O138 Si2 1.638165 1_555
O139 Si3 1.650790 1_555
O140 S4 1.479869 1_555
O141 S5 1.524045 1_555
O142 S6 1.469792 1_565
O143 S7 1.478307 1_555
