# generated using pymatgen
data_PuH2
_symmetry_space_group_name_H-M   'P 1'
_cell_length_a   3.79016034
_cell_length_b   3.79016203
_cell_length_c   3.79016162
_cell_angle_alpha   60.00001307
_cell_angle_beta   59.99999834
_cell_angle_gamma   60.00001367
_symmetry_Int_Tables_number   1
_chemical_formula_structural   PuH2
_chemical_formula_sum   'Pu1 H2'
_cell_volume   38.49977335
_cell_formula_units_Z   1
loop_
 _symmetry_equiv_pos_site_id
 _symmetry_equiv_pos_as_xyz
  1  'x, y, z'
loop_
 _atom_site_type_symbol
 _atom_site_label
 _atom_site_symmetry_multiplicity
 _atom_site_fract_x
 _atom_site_fract_y
 _atom_site_fract_z
 _atom_site_occupancy
  Pu  Pu0  1  -0.00000000  0.00000000  0.00000000  1
  H  H0  1  0.75000000  0.75000000  0.75000000  1
  H  H1  1  0.25000000  0.25000000  0.25000000  1
loop_
_geom_bond_atom_site_label_1
_geom_bond_atom_site_label_2
_geom_bond_distance
_geom_bond_site_symmetry_2
H0 Pu0 2.320990 1_566
H0 Pu0 2.320990 1_666
H0 Pu0 2.320991 1_665
H0 Pu0 2.320991 1_656
H0 H1 2.680049 1_665
H0 H1 2.680049 1_556
H0 H1 2.680049 1_656
H0 H1 2.680049 1_565
H0 H1 2.680049 1_566
H0 H1 2.680049 1_655
H1 Pu0 2.320990 1_655
H1 Pu0 2.320990 1_555
H1 Pu0 2.320991 1_556
H1 Pu0 2.320991 1_565
