# generated using pymatgen
data_LiMg6Mo
_symmetry_space_group_name_H-M   'P 1'
_cell_length_a   6.08867801
_cell_length_b   6.08867801
_cell_length_c   4.34089102
_cell_angle_alpha   90.00000000
_cell_angle_beta   90.00000000
_cell_angle_gamma   90.17879993
_symmetry_Int_Tables_number   1
_chemical_formula_structural   LiMg6Mo
_chemical_formula_sum   'Li1 Mg6 Mo1'
_cell_volume   160.92472804
_cell_formula_units_Z   1
loop_
 _symmetry_equiv_pos_site_id
 _symmetry_equiv_pos_as_xyz
  1  'x, y, z'
loop_
 _atom_site_type_symbol
 _atom_site_label
 _atom_site_symmetry_multiplicity
 _atom_site_fract_x
 _atom_site_fract_y
 _atom_site_fract_z
 _atom_site_occupancy
  Li  Li0  1  0.62502012  0.37497988  0.00000000  1
  Mg  Mg0  1  0.62498304  0.87498502  0.00000000  1
  Mg  Mg1  1  0.12501498  0.37501696  0.00000000  1
  Mg  Mg2  1  0.88657990  0.63659567  0.50000000  1
  Mg  Mg3  1  0.36340433  0.11342010  0.50000000  1
  Mg  Mg4  1  0.88800923  0.11199077  0.50000000  1
  Mg  Mg5  1  0.36199838  0.63800162  0.50000000  1
  Mo  Mo0  1  0.12499402  0.87500598  0.00000000  1
loop_
_geom_bond_atom_site_label_1
_geom_bond_atom_site_label_2
_geom_bond_distance
_geom_bond_site_symmetry_2
Li0 Mg1 3.044307 1_655
Li0 Mg0 3.044307 1_545
Li0 Mg0 3.044371 1_555
Li0 Mg1 3.044371 1_555
Li0 Mg2 3.125466 1_555
Li0 Mg2 3.125466 1_554
Li0 Mg3 3.125466 1_554
Li0 Mg3 3.125466 1_555
Li0 Mg4 3.139248 1_555
Li0 Mg4 3.139248 1_554
Li0 Mg5 3.139451 1_554
Li0 Mg5 3.139451 1_555
Mg0 Mo0 3.044273 1_555
Mg0 Mo0 3.044405 1_655
Mg0 Mg5 3.056526 1_554
Mg0 Mg5 3.056526 1_555
Mg0 Mg4 3.056722 1_564
Mg0 Mg4 3.056722 1_565
Mg0 Mg2 3.060881 1_555
Mg0 Mg2 3.060881 1_554
Mg0 Mg3 3.060956 1_564
Mg0 Mg3 3.060956 1_565
Mg1 Mo0 3.044273 1_555
Mg1 Mo0 3.044405 1_545
Mg1 Mg5 3.056526 1_554
Mg1 Mg5 3.056526 1_555
Mg1 Mg4 3.056722 1_455
Mg1 Mg4 3.056722 1_454
Mg1 Mg3 3.060881 1_554
Mg1 Mg3 3.060881 1_555
Mg1 Mg2 3.060956 1_455
Mg1 Mg2 3.060956 1_454
Mg2 Mg4 2.894514 1_565
Mg2 Mg5 2.894656 1_655
Mg2 Mo0 2.985307 1_656
Mg2 Mo0 2.985307 1_655
Mg2 Mg5 3.194046 1_555
Mg2 Mg4 3.194189 1_555
Mg3 Mg4 2.894514 1_455
Mg3 Mg5 2.894656 1_545
Mg3 Mo0 2.985307 1_545
Mg3 Mo0 2.985307 1_546
Mg3 Mg5 3.194046 1_555
Mg3 Mg4 3.194189 1_555
Mg4 Mo0 2.981256 1_646
Mg4 Mo0 2.981256 1_645
Mg5 Mo0 2.981372 1_556
Mg5 Mo0 2.981372 1_555
