# generated using pymatgen
data_TmMgSb(PbO3)2
_symmetry_space_group_name_H-M   'P 1'
_cell_length_a   7.51496723
_cell_length_b   7.51496842
_cell_length_c   7.51496780
_cell_angle_alpha   45.51788378
_cell_angle_beta   45.51788141
_cell_angle_gamma   45.51788356
_symmetry_Int_Tables_number   1
_chemical_formula_structural   TmMgSb(PbO3)2
_chemical_formula_sum   'Tm1 Mg1 Sb1 Pb2 O6'
_cell_volume   196.85087421
_cell_formula_units_Z   1
loop_
 _symmetry_equiv_pos_site_id
 _symmetry_equiv_pos_as_xyz
  1  'x, y, z'
loop_
 _atom_site_type_symbol
 _atom_site_label
 _atom_site_symmetry_multiplicity
 _atom_site_fract_x
 _atom_site_fract_y
 _atom_site_fract_z
 _atom_site_occupancy
  Tm  Tm0  1  0.00706258  0.00706258  0.00706258  1
  Mg  Mg0  1  0.64020548  0.64020548  0.64020548  1
  Sb  Sb0  1  0.43045078  0.43045078  0.43045078  1
  Pb  Pb0  1  0.85371132  0.85371132  0.85371132  1
  Pb  Pb1  1  0.26716047  0.26716047  0.26716047  1
  O  O0  1  0.38786971  0.08355397  0.66159447  1
  O  O1  1  0.66159447  0.38786971  0.08355397  1
  O  O2  1  0.08355397  0.66159447  0.38786971  1
  O  O3  1  0.69427178  0.85348535  0.24563410  1
  O  O4  1  0.24563410  0.69427178  0.85348535  1
  O  O5  1  0.85348535  0.24563410  0.69427178  1
loop_
_geom_bond_atom_site_label_1
_geom_bond_atom_site_label_2
_geom_bond_distance
_geom_bond_site_symmetry_2
Mg0 O4 2.022500 1_555
Mg0 O3 2.022501 1_555
Mg0 O5 2.022501 1_555
Mg0 O2 2.488336 1_655
Mg0 O1 2.488337 1_556
Mg0 O0 2.488337 1_565
O0 Sb0 1.989961 1_555
O0 Tm0 2.249992 1_556
O0 Pb1 2.792043 1_555
O1 Sb0 1.989961 1_555
O1 Tm0 2.249993 1_655
O1 Pb1 2.792042 1_555
O2 Sb0 1.989961 1_555
O2 Tm0 2.249993 1_565
O2 Pb1 2.792043 1_555
O3 Tm0 2.251221 1_665
O3 Pb0 2.271732 1_554
O3 Pb1 2.446779 1_565
O4 Tm0 2.251221 1_566
O4 Pb0 2.271732 1_455
O4 Pb1 2.446779 1_556
O5 Tm0 2.251221 1_656
O5 Pb0 2.271733 1_545
O5 Pb1 2.446779 1_655
