# generated using pymatgen
data_K2Mg(FeS2)2
_symmetry_space_group_name_H-M   'P 1'
_cell_length_a   5.28168764
_cell_length_b   6.78601722
_cell_length_c   6.78601795
_cell_angle_alpha   116.54390219
_cell_angle_beta   102.78353109
_cell_angle_gamma   102.78353235
_symmetry_Int_Tables_number   1
_chemical_formula_structural   K2Mg(FeS2)2
_chemical_formula_sum   'K2 Mg1 Fe2 S4'
_cell_volume   197.38734505
_cell_formula_units_Z   1
loop_
 _symmetry_equiv_pos_site_id
 _symmetry_equiv_pos_as_xyz
  1  'x, y, z'
loop_
 _atom_site_type_symbol
 _atom_site_label
 _atom_site_symmetry_multiplicity
 _atom_site_fract_x
 _atom_site_fract_y
 _atom_site_fract_z
 _atom_site_occupancy
  K  K0  1  0.75000000  0.58573600  0.41426400  1
  K  K1  1  0.25000000  0.35461800  0.64538200  1
  Mg  Mg0  1  0.25000000  0.75063300  0.24936700  1
  Fe  Fe0  1  0.25000000  0.01006100  0.98993900  1
  Fe  Fe1  1  0.75000000  0.01180500  0.98819500  1
  S  S0  1  0.38755200  0.91884000  0.68958500  1
  S  S1  1  0.11244800  0.31041500  0.08116000  1
  S  S2  1  0.89412300  0.71919600  0.93130300  1
  S  S3  1  0.60587700  0.06869700  0.28080400  1
loop_
_geom_bond_atom_site_label_1
_geom_bond_atom_site_label_2
_geom_bond_distance
_geom_bond_site_symmetry_2
K0 S3 3.063185 1_555
K0 S2 3.063186 1_555
K0 S0 3.164193 1_655
K0 S1 3.164193 1_555
K0 Mg0 3.255377 1_555
K0 Mg0 3.255377 1_655
K0 S0 3.462387 1_555
K0 S1 3.462387 1_655
K0 K1 3.753945 1_655
K0 K1 3.753945 1_555
K0 S3 3.948762 1_565
K0 S2 3.948763 1_554
K1 S2 3.243956 1_555
K1 S3 3.243956 1_455
K1 S0 3.318122 1_545
K1 S1 3.318122 1_556
K1 S2 3.577707 1_455
K1 S3 3.577707 1_555
K1 S0 3.594959 1_555
K1 S1 3.594960 1_555
K1 Mg0 3.765159 1_545
K1 Mg0 3.765159 1_556
Mg0 S3 2.419259 1_565
Mg0 S2 2.419259 1_454
Mg0 S1 2.525821 1_555
Mg0 S0 2.525821 1_555
Fe0 S1 2.189050 1_556
Fe0 S0 2.189051 1_545
Fe0 S2 2.216421 1_445
Fe0 S3 2.216421 1_556
Fe0 Fe1 2.640921 1_455
Fe0 Fe1 2.640921 1_555
Fe1 S1 2.185221 1_656
Fe1 S0 2.185221 1_545
Fe1 S2 2.187484 1_545
Fe1 S3 2.187484 1_556
