# generated using pymatgen
data_MgV6O5F19
_symmetry_space_group_name_H-M   'P 1'
_cell_length_a   5.38382400
_cell_length_b   5.34130676
_cell_length_c   15.55339001
_cell_angle_alpha   90.14019412
_cell_angle_beta   100.44785375
_cell_angle_gamma   90.21387604
_symmetry_Int_Tables_number   1
_chemical_formula_structural   MgV6O5F19
_chemical_formula_sum   'Mg1 V6 O5 F19'
_cell_volume   439.84272648
_cell_formula_units_Z   1
loop_
 _symmetry_equiv_pos_site_id
 _symmetry_equiv_pos_as_xyz
  1  'x, y, z'
loop_
 _atom_site_type_symbol
 _atom_site_label
 _atom_site_symmetry_multiplicity
 _atom_site_fract_x
 _atom_site_fract_y
 _atom_site_fract_z
 _atom_site_occupancy
  Mg  Mg0  1  0.98725800  0.75987200  0.48353200  1
  V  V0  1  0.98796700  0.98798400  0.00132000  1
  V  V1  1  0.17818600  0.49725000  0.32256800  1
  V  V2  1  0.34232100  0.00517400  0.67837700  1
  V  V3  1  0.45916300  0.47101100  0.99731300  1
  V  V4  1  0.65804900  0.05776800  0.31993400  1
  V  V5  1  0.82942700  0.44534900  0.67195200  1
  O  O0  1  0.04254400  0.22319100  0.65846200  1
  O  O1  1  0.20592200  0.29142100  0.97843100  1
  O  O2  1  0.37361500  0.20805100  0.31650700  1
  O  O3  1  0.55091200  0.28338200  0.65381300  1
  O  O4  1  0.86524300  0.28701700  0.30955700  1
  F  F0  1  0.12904800  0.72052200  0.68686800  1
  F  F1  1  0.05679400  0.08942300  0.11167400  1
  F  F2  1  0.18337900  0.47102000  0.44472100  1
  F  F3  1  0.39133100  0.07132700  0.79074400  1
  F  F4  1  0.11243900  0.58637300  0.21298100  1
  F  F5  1  0.25903000  0.93975700  0.55342400  1
  F  F6  1  0.46986700  0.58552400  0.89158100  1
  F  F7  1  0.68931500  0.20626500  0.97822200  1
  F  F8  1  0.29787500  0.77669100  0.02318100  1
  F  F9  1  0.47560000  0.69995400  0.34869100  1
  F  F10  1  0.62349000  0.78867000  0.68178700  1
  F  F11  1  0.56058600  0.42594800  0.11123000  1
  F  F12  1  0.74026000  0.03259800  0.44392900  1
  F  F13  1  0.88434700  0.46100200  0.78721200  1
  F  F14  1  0.61628400  0.91750800  0.21574200  1
  F  F15  1  0.79563200  0.57437200  0.55370400  1
  F  F16  1  0.96058200  0.93028600  0.88845000  1
  F  F17  1  0.80103300  0.70846500  0.02380600  1
  F  F18  1  0.97250100  0.79682800  0.35136200  1
loop_
_geom_bond_atom_site_label_1
_geom_bond_atom_site_label_2
_geom_bond_distance
_geom_bond_site_symmetry_2
O0 V5 1.692579 1_455
O0 V2 1.972639 1_555
O1 V3 1.645877 1_555
O1 V0 2.066553 1_446
O2 V4 1.723941 1_555
O2 V1 1.883988 1_555
O3 V5 1.706499 1_555
O3 V2 1.939392 1_555
O4 V4 1.681018 1_555
O4 V1 2.000414 1_655
F0 V2 1.921058 1_565
F0 V5 2.158959 1_455
F0 F5 2.588675 1_555
F0 F15 2.598944 1_455
F0 F13 2.614481 1_455
F0 F3 2.693177 1_565
F0 F10 2.700764 1_555
F1 V0 1.772036 1_445
F1 F8 2.649924 1_545
F1 F7 2.671735 1_454
F2 V1 1.900545 1_555
F2 Mg0 2.024454 1_455
F2 O4 2.643950 1_455
F2 F9 2.654817 1_555
F3 V2 1.754400 1_555
F4 V1 1.744553 1_555
F4 F9 2.670997 1_555
F5 Mg0 1.911354 1_455
F5 V2 1.944114 1_565
F5 O0 2.647826 1_565
F6 V3 1.766583 1_555
F6 F7 2.601770 1_555
F6 F8 2.602644 1_556
F7 V3 1.941043 1_555
F7 V0 1.969836 1_546
F7 O1 2.644204 1_555
F8 V3 1.927638 1_554
F8 V0 1.995832 1_455
F8 O1 2.702680 1_554
F9 V1 1.910550 1_555
F9 V4 2.228695 1_565
F10 V2 1.901536 1_565
F10 V5 2.165815 1_555
F10 F15 2.608454 1_555
F10 F13 2.630845 1_555
F10 F5 2.662007 1_555
F11 V3 1.774131 1_554
F11 F17 2.536858 1_555
F11 F7 2.578950 1_554
F11 F8 2.591426 1_555
F12 V4 1.904045 1_555
F12 Mg0 1.997887 1_545
F12 F18 2.424426 1_545
F12 F9 2.565940 1_545
F13 V5 1.764928 1_555
F14 V4 1.760287 1_565
F14 F9 2.602503 1_555
F14 F18 2.662999 1_555
F15 Mg0 1.908741 1_555
F15 V5 1.943273 1_555
F16 V0 1.761157 1_556
F16 F7 2.645935 1_565
F16 F8 2.645993 1_656
F17 V0 1.866341 1_555
F17 V3 2.207046 1_554
F17 F6 2.548387 1_554
F17 F8 2.700038 1_655
F18 V1 2.043738 1_655
F18 Mg0 2.052806 1_555
F18 V4 2.183671 1_565
F18 F2 2.419726 1_655
F18 F4 2.654464 1_655
F18 F9 2.715798 1_555
F18 O4 2.737683 1_565
F18 F9 2.767151 1_655
F18 O4 2.831023 1_555
