# generated using pymatgen
data_Na5Ca2Zn2PS5O24
_symmetry_space_group_name_H-M   'P 1'
_cell_length_a   9.13686650
_cell_length_b   9.13572411
_cell_length_c   23.06251062
_cell_angle_alpha   89.81328492
_cell_angle_beta   89.99329506
_cell_angle_gamma   119.93874557
_symmetry_Int_Tables_number   1
_chemical_formula_structural   Na5Ca2Zn2PS5O24
_chemical_formula_sum   'Na15 Ca6 Zn6 P3 S15 O72'
_cell_volume   1668.17657652
_cell_formula_units_Z   3
loop_
 _symmetry_equiv_pos_site_id
 _symmetry_equiv_pos_as_xyz
  1  'x, y, z'
loop_
 _atom_site_type_symbol
 _atom_site_label
 _atom_site_symmetry_multiplicity
 _atom_site_fract_x
 _atom_site_fract_y
 _atom_site_fract_z
 _atom_site_occupancy
  Na  Na0  1  0.36307762  0.35621649  0.24919454  1
  Na  Na1  1  0.00429064  0.64101399  0.24534985  1
  Na  Na2  1  0.63738626  0.64477733  0.74726202  1
  Na  Na3  1  0.99340093  0.35460405  0.75499838  1
  Na  Na4  1  0.31898456  0.34522818  0.58396523  1
  Na  Na5  1  0.66751128  0.96293854  0.58688594  1
  Na  Na6  1  0.29858853  0.96538903  0.08504421  1
  Na  Na7  1  0.69758780  0.03047266  0.91679035  1
  Na  Na8  1  0.69676981  0.66564571  0.41955430  1
  Na  Na9  1  0.00351511  0.98734708  0.50012486  1
  Na  Na10  1  0.99983096  0.99950489  0.00047016  1
  Na  Na11  1  0.65310116  0.32374483  0.83810809  1
  Na  Na12  1  0.65610912  0.29731080  0.32932002  1
  Na  Na13  1  0.34687355  0.67483991  0.16502523  1
  Na  Na14  1  0.34089673  0.68897927  0.66789751  1
  Ca  Ca0  1  0.00905118  0.01004818  0.34527494  1
  Ca  Ca1  1  0.99545491  0.98593230  0.65161397  1
  Ca  Ca2  1  0.66310818  0.33022617  0.68492235  1
  Ca  Ca3  1  0.67129048  0.33474952  0.48101781  1
  Ca  Ca4  1  0.32548472  0.66723814  0.51387056  1
  Ca  Ca5  1  0.33568170  0.67376738  0.82381981  1
  Zn  Zn0  1  0.00052312  0.99846746  0.84841796  1
  Zn  Zn1  1  0.00007098  0.99722087  0.15538896  1
  Zn  Zn2  1  0.65869735  0.31660559  0.17711216  1
  Zn  Zn3  1  0.67115371  0.34540311  0.98982190  1
  Zn  Zn4  1  0.32865164  0.65081108  0.01344653  1
  Zn  Zn5  1  0.33718726  0.69429495  0.31564741  1
  P  P0  1  0.30502090  0.00239714  0.24426398  1
  P  P1  1  0.70558487  0.00058785  0.75410715  1
  P  P2  1  0.66377675  0.63843022  0.58181968  1
  S  S0  1  0.69776234  0.69665239  0.24851832  1
  S  S1  1  0.99881498  0.30234170  0.24633555  1
  S  S2  1  0.29460378  0.29645279  0.75240249  1
  S  S3  1  0.00036234  0.70138882  0.75431617  1
  S  S4  1  0.97124284  0.33225433  0.58566231  1
  S  S5  1  0.36671434  0.03388784  0.58246782  1
  S  S6  1  0.96325718  0.62933230  0.08451037  1
  S  S7  1  0.66734231  0.03566291  0.08116391  1
  S  S8  1  0.37172619  0.33484322  0.08365164  1
  S  S9  1  0.63621378  0.66444517  0.91927919  1
  S  S10  1  0.02630848  0.36147198  0.91893970  1
  S  S11  1  0.33468971  0.97443602  0.92236594  1
  S  S12  1  0.63113373  0.96190764  0.41461406  1
  S  S13  1  0.33376927  0.37430070  0.41311174  1
  S  S14  1  0.03177781  0.66563871  0.41114457  1
  O  O0  1  0.22691966  0.03953898  0.29712893  1
  O  O1  1  0.79374571  0.76826517  0.30297090  1
  O  O2  1  0.96901471  0.20495997  0.30015205  1
  O  O3  1  0.20337988  0.18874877  0.80244492  1
  O  O4  1  0.98797852  0.79240001  0.80521516  1
  O  O5  1  0.81613259  0.01660864  0.80817271  1
  O  O6  1  0.78590380  0.98421597  0.69716892  1
  O  O7  1  0.20838012  0.22264132  0.69676668  1
  O  O8  1  0.02182095  0.79369099  0.70005205  1
  O  O9  1  0.78461397  0.80910889  0.19854161  1
  O  O10  1  0.02403657  0.21505532  0.19617918  1
  O  O11  1  0.19011830  0.96750205  0.18956184  1
  O  O12  1  0.89341557  0.34487851  0.64019531  1
  O  O13  1  0.46802897  0.11342892  0.63488255  1
  O  O14  1  0.64856970  0.53644770  0.63751024  1
  O  O15  1  0.88482803  0.53150518  0.13876569  1
  O  O16  1  0.63728984  0.11885929  0.13176864  1
  O  O17  1  0.46984048  0.36080973  0.13839086  1
  O  O18  1  0.45820388  0.30688689  0.03375242  1
  O  O19  1  0.85961727  0.54443560  0.03307999  1
  O  O20  1  0.69118276  0.13618351  0.02710671  1
  O  O21  1  0.45159788  0.13333369  0.53022532  1
  O  O22  1  0.67113829  0.54824739  0.52641566  1
  O  O23  1  0.86413568  0.31267909  0.53534591  1
  O  O24  1  0.54255657  0.69184617  0.96736586  1
  O  O25  1  0.13771797  0.45443752  0.96813057  1
  O  O26  1  0.30998038  0.86817251  0.97508235  1
  O  O27  1  0.55564286  0.87269197  0.47001149  1
  O  O28  1  0.32384246  0.45228631  0.46814339  1
  O  O29  1  0.12570376  0.67735927  0.46389103  1
  O  O30  1  0.11844778  0.65615561  0.35783306  1
  O  O31  1  0.52507598  0.86794189  0.36438793  1
  O  O32  1  0.34462763  0.47946383  0.36179872  1
  O  O33  1  0.09544911  0.45175071  0.86327294  1
  O  O34  1  0.36608007  0.89684575  0.87087609  1
  O  O35  1  0.54459196  0.63835830  0.86354065  1
  O  O36  1  0.00684771  0.81532675  0.41039230  1
  O  O37  1  0.79723059  0.96839936  0.41089871  1
  O  O38  1  0.18522794  0.20286081  0.41158862  1
  O  O39  1  0.00708428  0.18807108  0.91669648  1
  O  O40  1  0.18283867  0.99250952  0.91433821  1
  O  O41  1  0.80433952  0.82508242  0.91592409  1
  O  O42  1  0.99197447  0.17967829  0.58616250  1
  O  O43  1  0.20092255  0.02643372  0.58531426  1
  O  O44  1  0.81802745  0.82013653  0.58116782  1
  O  O45  1  0.98470178  0.80392228  0.08776866  1
  O  O46  1  0.81746918  0.01559981  0.08952066  1
  O  O47  1  0.20243814  0.17600322  0.08816991  1
  O  O48  1  0.69609787  0.16563669  0.75368430  1
  O  O49  1  0.47084416  0.32748070  0.75252514  1
  O  O50  1  0.83856684  0.53412101  0.75276302  1
  O  O51  1  0.68598065  0.52703816  0.24149680  1
  O  O52  1  0.85419852  0.33405359  0.23870889  1
  O  O53  1  0.48268283  0.16355855  0.23719445  1
  O  O54  1  0.65695706  0.51501457  0.92847601  1
  O  O55  1  0.85229622  0.33885105  0.92576650  1
  O  O56  1  0.49325853  0.14372021  0.92792140  1
  O  O57  1  0.65226761  0.13297042  0.41436874  1
  O  O58  1  0.49404339  0.36615266  0.41296422  1
  O  O59  1  0.86004372  0.51215078  0.41187489  1
  O  O60  1  0.35158730  0.48603569  0.07559046  1
  O  O61  1  0.13844077  0.65193815  0.07901545  1
  O  O62  1  0.50675983  0.86627455  0.07672229  1
  O  O63  1  0.34743987  0.86297477  0.58014782  1
  O  O64  1  0.49991815  0.65408956  0.58227660  1
  O  O65  1  0.14257123  0.48265972  0.58169222  1
  O  O66  1  0.31231134  0.83504309  0.25212050  1
  O  O67  1  0.52151826  0.66793974  0.25278858  1
  O  O68  1  0.15908183  0.47200291  0.25100519  1
  O  O69  1  0.30388546  0.46507674  0.75631078  1
  O  O70  1  0.14201922  0.66566728  0.75791916  1
  O  O71  1  0.53080355  0.83660799  0.75690936  1
loop_
_geom_bond_atom_site_label_1
_geom_bond_atom_site_label_2
_geom_bond_distance
_geom_bond_site_symmetry_2
Na0 O67 2.469653 1_555
Na0 O53 2.508318 1_555
Na0 O68 2.561825 1_555
Na0 O51 2.563925 1_555
Na0 O17 2.727875 1_555
Na0 O0 2.743361 1_555
Na0 O32 2.872050 1_555
Na0 O10 2.962744 1_555
Na1 O52 2.435667 1_455
Na1 O66 2.471733 1_555
Na1 O51 2.555108 1_455
Na1 O68 2.565104 1_555
Na1 O15 2.676045 1_455
Na1 O30 2.774096 1_555
Na1 O11 2.890377 1_555
Na1 O1 3.009956 1_455
Na2 O71 2.403150 1_555
Na2 O50 2.504180 1_555
Na2 O49 2.515510 1_555
Na2 O69 2.651083 1_555
Na2 O14 2.741135 1_555
Na2 O35 2.804014 1_555
Na2 O6 2.927186 1_555
Na2 O4 3.093063 1_555
Na3 O48 2.383210 1_555
Na3 O70 2.464496 1_655
Na3 O69 2.491923 1_655
Na3 O50 2.647449 1_555
Na3 O33 2.661104 1_655
Na3 O12 2.788116 1_555
Na3 O5 2.940202 1_555
Na3 O7 3.080387 1_655
Na4 O64 2.457545 1_555
Na4 O65 2.489343 1_555
Na4 O43 2.551534 1_555
Na4 O42 2.589627 1_455
Na4 O7 2.809615 1_555
Na4 O28 2.834285 1_555
Na4 O14 2.899844 1_555
Na4 O21 3.017957 1_555
Na4 O22 3.095267 1_555
Na4 O13 3.252774 1_555
Na5 O44 2.324344 1_555
Na5 O64 2.450860 1_555
Na5 O63 2.597271 1_555
Na5 O42 2.617299 1_565
Na5 O6 2.733280 1_555
Na5 O27 2.857227 1_555
Na5 O13 2.991343 1_565
Na5 O23 3.015708 1_565
Na6 O47 2.483407 1_565
Na6 O61 2.486138 1_555
Na6 O45 2.486292 1_455
Na6 O62 2.488891 1_555
Na6 O11 2.609917 1_555
Na6 O26 2.708838 1_554
Na6 O16 2.895459 1_565
Na6 O18 2.948488 1_565
Na7 O39 2.450643 1_655
Na7 O55 2.450885 1_555
Na7 O41 2.509906 1_545
Na7 O56 2.559547 1_555
Na7 O20 2.735195 1_556
Na7 O5 2.757277 1_555
Na7 O34 2.846825 1_545
Na7 O24 2.922232 1_545
Na8 O58 2.425773 1_555
Na8 O37 2.448411 1_555
Na8 O36 2.464189 1_655
Na8 O59 2.512551 1_555
Na8 O22 2.647789 1_555
Na8 O1 2.836727 1_555
Na8 O27 3.007188 1_555
Na8 O32 3.093980 1_555
Na8 O28 3.165576 1_555
Na8 O31 3.220900 1_555
Na9 O44 2.468944 1_455
Na9 O43 2.569687 1_565
Na9 O36 2.611941 1_555
Na9 O42 2.691338 1_465
Na9 O37 2.737598 1_455
Na9 O38 2.740877 1_565
Na10 O39 2.563029 1_664
Na10 O41 2.590675 1_554
Na10 O40 2.617753 1_654
Na10 O45 2.644833 1_555
Na10 O47 2.675896 1_665
Na10 O46 2.694699 1_565
Na11 O48 2.572193 1_555
Na11 O56 2.589940 1_555
Na11 O49 2.593651 1_555
Na11 O50 2.676426 1_555
Na11 O55 2.677768 1_555
Na11 O54 2.713011 1_555
Na12 O57 2.455762 1_555
Na12 O53 2.569662 1_555
Na12 O52 2.672739 1_555
Na12 O58 2.691885 1_555
Na12 O59 2.706278 1_555
Na12 O51 2.825226 1_555
Na12 O2 3.427674 1_555
Na13 O67 2.597562 1_555
Na13 O66 2.599369 1_555
Na13 O62 2.601145 1_555
Na13 O68 2.666732 1_555
Na13 O61 2.685359 1_555
Na13 O60 2.707139 1_555
Na14 O63 2.551460 1_555
Na14 O64 2.564674 1_555
Na14 O71 2.593626 1_555
Na14 O70 2.695835 1_555
Na14 O65 2.721216 1_555
Na14 O69 2.781787 1_555
Ca0 O0 2.174935 1_555
Ca0 O2 2.241807 1_455
Ca0 O38 2.284914 1_555
Ca0 O36 2.316703 1_545
Ca0 O1 2.319077 1_445
Ca0 O37 2.332705 1_445
Ca1 O6 2.177001 1_555
Ca1 O8 2.190890 1_655
Ca1 O44 2.264408 1_555
Ca1 O43 2.302505 1_665
Ca1 O7 2.315496 1_665
Ca1 O42 2.334790 1_565
Ca2 O13 2.218842 1_555
Ca2 O14 2.235857 1_555
Ca2 O12 2.286353 1_555
Ca2 O48 2.302954 1_555
Ca2 O49 2.339333 1_555
Ca2 O50 2.350875 1_555
Ca3 O22 2.217316 1_555
Ca3 O21 2.236546 1_555
Ca3 O23 2.251366 1_555
Ca3 O59 2.310050 1_555
Ca3 O57 2.343013 1_555
Ca3 O58 2.372706 1_555
Ca4 O29 2.199411 1_555
Ca4 O28 2.225475 1_555
Ca4 O27 2.239588 1_555
Ca4 O64 2.287764 1_555
Ca4 O63 2.287814 1_555
Ca4 O65 2.291798 1_555
Ca5 O34 2.204029 1_555
Ca5 O71 2.260499 1_555
Ca5 O35 2.280806 1_555
Ca5 O33 2.302924 1_555
Ca5 O70 2.305874 1_555
Ca5 O69 2.368526 1_555
O0 P0 1.534597 1_555
O1 S0 1.485637 1_555
O2 S1 1.468671 1_555
O3 S2 1.472621 1_555
O3 Zn0 2.086358 1_545
O4 S3 1.477259 1_655
O4 Zn0 2.084909 1_655
O5 P1 1.565342 1_555
O5 Zn0 2.001348 1_645
O6 P1 1.547861 1_565
O7 S2 1.482339 1_555
O8 S3 1.464144 1_555
O9 S0 1.480535 1_555
O9 Zn1 2.104935 1_655
O10 S1 1.488755 1_455
O10 Zn1 2.114380 1_545
O11 P0 1.569788 1_565
O11 Zn1 2.044394 1_555
O12 S4 1.477594 1_555
O13 S5 1.476738 1_555
O14 P2 1.549154 1_555
O15 S6 1.493707 1_555
O15 Zn2 2.201091 1_555
O16 S7 1.493039 1_555
O16 Zn2 2.013733 1_555
O17 S8 1.497857 1_555
O17 Zn2 2.152132 1_555
O18 S8 1.488965 1_555
O18 Zn3 2.061518 1_554
O19 S6 1.475903 1_555
O19 Zn3 2.038051 1_554
O20 S7 1.495938 1_555
O20 Zn3 2.182818 1_554
O21 S5 1.472374 1_555
O22 P2 1.542117 1_555
O23 S4 1.470781 1_555
O24 S9 1.496739 1_555
O24 Zn4 2.086935 1_556
O25 S10 1.479235 1_555
O25 Zn4 2.059817 1_556
O26 S11 1.498330 1_555
O26 Zn4 2.254300 1_556
O27 S12 1.484655 1_555
O28 S13 1.482219 1_555
O29 S14 1.461887 1_555
O30 S14 1.488357 1_555
O30 Zn5 2.089158 1_555
O31 S12 1.481260 1_555
O31 Zn5 2.005252 1_555
O32 S13 1.493567 1_555
O32 Zn5 2.260314 1_555
O33 S10 1.483355 1_555
O34 S11 1.484309 1_555
O35 S9 1.487662 1_555
O36 S14 1.494333 1_555
O37 S12 1.491336 1_555
O38 S13 1.474761 1_555
O39 S10 1.505269 1_555
O39 Zn0 2.323304 1_545
O40 S11 1.488308 1_555
O40 Zn0 2.275885 1_555
O41 S9 1.506137 1_555
O41 Zn0 2.301118 1_655
O42 S4 1.497462 1_555
O43 S5 1.483442 1_555
O44 P2 1.551385 1_555
O45 S6 1.508948 1_555
O45 Zn1 2.310996 1_655
O46 S7 1.484269 1_555
O46 Zn1 2.323350 1_645
O47 S8 1.505880 1_555
O47 Zn1 2.336274 1_545
O48 P1 1.552919 1_555
O49 S2 1.489219 1_555
O50 S3 1.505766 1_655
O51 S0 1.507997 1_555
O51 Zn2 2.345881 1_555
O52 S1 1.497542 1_555
O52 Zn2 2.225323 1_555
O53 P0 1.562740 1_555
O53 Zn2 2.050306 1_555
O54 S9 1.483557 1_555
O54 Zn3 2.146126 1_555
O55 S10 1.505699 1_655
O55 Zn3 2.241450 1_555
O56 S11 1.507349 1_545
O56 Zn3 2.259026 1_555
O57 S12 1.475920 1_545
O58 S13 1.502942 1_555
O59 S14 1.494087 1_655
O60 S8 1.492750 1_555
O60 Zn4 2.159839 1_555
O61 S6 1.513458 1_455
O61 Zn4 2.307501 1_555
O62 S7 1.514170 1_565
O62 Zn4 2.339741 1_555
O63 S5 1.482555 1_565
O64 P2 1.573480 1_555
O65 S4 1.482933 1_455
O66 P0 1.573104 1_565
O66 Zn5 2.032495 1_555
O67 S0 1.499935 1_555
O67 Zn5 2.324343 1_555
O68 S1 1.514580 1_455
O68 Zn5 2.390921 1_555
O69 S2 1.502986 1_555
O70 S3 1.486629 1_555
O71 P1 1.552445 1_565
