# generated using pymatgen
data_Mg2Nb4P6(SO12)3
_symmetry_space_group_name_H-M   'P 1'
_cell_length_a   8.76863398
_cell_length_b   8.76863370
_cell_length_c   22.58136802
_cell_angle_alpha   90.00000000
_cell_angle_beta   90.00000000
_cell_angle_gamma   120.00000106
_symmetry_Int_Tables_number   1
_chemical_formula_structural   Mg2Nb4P6(SO12)3
_chemical_formula_sum   'Mg4 Nb8 P12 S6 O72'
_cell_volume   1503.64303259
_cell_formula_units_Z   2
loop_
 _symmetry_equiv_pos_site_id
 _symmetry_equiv_pos_as_xyz
  1  'x, y, z'
loop_
 _atom_site_type_symbol
 _atom_site_label
 _atom_site_symmetry_multiplicity
 _atom_site_fract_x
 _atom_site_fract_y
 _atom_site_fract_z
 _atom_site_occupancy
  Mg  Mg0  1  0.00000000  0.00000000  0.35763056  1
  Mg  Mg1  1  0.00000000  0.00000000  0.85763056  1
  Mg  Mg2  1  0.66666700  0.33333300  0.68654584  1
  Mg  Mg3  1  0.66666700  0.33333300  0.18654584  1
  Nb  Nb0  1  0.00000000  0.00000000  0.64090035  1
  Nb  Nb1  1  0.00000000  0.00000000  0.14090035  1
  Nb  Nb2  1  0.66666700  0.33333300  0.97541833  1
  Nb  Nb3  1  0.66666700  0.33333300  0.47541833  1
  Nb  Nb4  1  0.33333300  0.66666700  0.02286111  1
  Nb  Nb5  1  0.33333300  0.66666700  0.52286111  1
  Nb  Nb6  1  0.33333300  0.66666700  0.31216557  1
  Nb  Nb7  1  0.33333300  0.66666700  0.81216557  1
  P  P0  1  0.94981348  0.33589789  0.58495730  1
  P  P1  1  0.38608541  0.05018652  0.58495730  1
  P  P2  1  0.66410211  0.61391459  0.58495730  1
  P  P3  1  0.94981348  0.61391459  0.08495730  1
  P  P4  1  0.66410211  0.05018652  0.08495730  1
  P  P5  1  0.38608541  0.33589789  0.08495730  1
  P  P6  1  0.62496880  0.67212890  0.91647797  1
  P  P7  1  0.04715910  0.37503120  0.91647797  1
  P  P8  1  0.32787110  0.95284090  0.91647797  1
  P  P9  1  0.62496880  0.95284090  0.41647797  1
  P  P10  1  0.32787110  0.37503120  0.41647797  1
  P  P11  1  0.04715910  0.67212890  0.41647797  1
  S  S0  1  0.29057175  0.00540389  0.25099633  1
  S  S1  1  0.71483213  0.70942825  0.25099633  1
  S  S2  1  0.99459611  0.28516787  0.25099633  1
  S  S3  1  0.29057175  0.28516787  0.75099633  1
  S  S4  1  0.99459611  0.70942825  0.75099633  1
  S  S5  1  0.71483213  0.00540389  0.75099633  1
  O  O0  1  0.20567316  0.02638384  0.30290928  1
  O  O1  1  0.82071068  0.79432684  0.30290928  1
  O  O2  1  0.97361616  0.17928932  0.30290928  1
  O  O3  1  0.20567316  0.17928932  0.80290928  1
  O  O4  1  0.97361616  0.79432684  0.80290928  1
  O  O5  1  0.82071068  0.02638384  0.80290928  1
  O  O6  1  0.79513007  0.96940115  0.69675026  1
  O  O7  1  0.17427108  0.20486993  0.69675026  1
  O  O8  1  0.03059885  0.82572892  0.69675026  1
  O  O9  1  0.79513007  0.82572892  0.19675026  1
  O  O10  1  0.03059885  0.20486993  0.19675026  1
  O  O11  1  0.17427108  0.96940115  0.19675026  1
  O  O12  1  0.87571889  0.36753145  0.63965784  1
  O  O13  1  0.49181356  0.12428111  0.63965784  1
  O  O14  1  0.63246855  0.50818644  0.63965784  1
  O  O15  1  0.87571889  0.50818644  0.13965784  1
  O  O16  1  0.63246855  0.12428111  0.13965784  1
  O  O17  1  0.49181356  0.36753145  0.13965784  1
  O  O18  1  0.46402204  0.30111834  0.02816011  1
  O  O19  1  0.83709730  0.53597796  0.02816011  1
  O  O20  1  0.69888166  0.16290270  0.02816011  1
  O  O21  1  0.46402204  0.16290270  0.52816011  1
  O  O22  1  0.69888166  0.53597796  0.52816011  1
  O  O23  1  0.83709730  0.30111834  0.52816011  1
  O  O24  1  0.52833411  0.69039464  0.97114613  1
  O  O25  1  0.16205953  0.47166589  0.97114613  1
  O  O26  1  0.30960536  0.83794047  0.97114613  1
  O  O27  1  0.52833411  0.83794047  0.47114613  1
  O  O28  1  0.30960536  0.47166589  0.47114613  1
  O  O29  1  0.16205953  0.69039464  0.47114613  1
  O  O30  1  0.13512760  0.63325125  0.36171243  1
  O  O31  1  0.49812265  0.86487240  0.36171243  1
  O  O32  1  0.36674875  0.50187735  0.36171243  1
  O  O33  1  0.13512760  0.50187735  0.86171243  1
  O  O34  1  0.36674875  0.86487240  0.86171243  1
  O  O35  1  0.49812265  0.63325125  0.86171243  1
  O  O36  1  0.02596219  0.82751435  0.40726166  1
  O  O37  1  0.80155216  0.97403781  0.40726166  1
  O  O38  1  0.17248565  0.19844784  0.40726166  1
  O  O39  1  0.02596219  0.19844784  0.90726166  1
  O  O40  1  0.17248565  0.97403781  0.90726166  1
  O  O41  1  0.80155216  0.82751435  0.90726166  1
  O  O42  1  0.97618917  0.17075709  0.59370312  1
  O  O43  1  0.19456792  0.02381083  0.59370312  1
  O  O44  1  0.82924291  0.80543208  0.59370312  1
  O  O45  1  0.97618917  0.80543208  0.09370312  1
  O  O46  1  0.82924291  0.02381083  0.09370312  1
  O  O47  1  0.19456792  0.17075709  0.09370312  1
  O  O48  1  0.68851455  0.15281807  0.74103421  1
  O  O49  1  0.46430452  0.31148545  0.74103421  1
  O  O50  1  0.84718193  0.53569548  0.74103421  1
  O  O51  1  0.68851455  0.53569548  0.24103421  1
  O  O52  1  0.84718193  0.31148545  0.24103421  1
  O  O53  1  0.46430452  0.15281807  0.24103421  1
  O  O54  1  0.63316949  0.49997119  0.92671467  1
  O  O55  1  0.86680270  0.36683051  0.92671467  1
  O  O56  1  0.50002881  0.13319730  0.92671467  1
  O  O57  1  0.63316949  0.13319730  0.42671467  1
  O  O58  1  0.50002881  0.36683051  0.42671467  1
  O  O59  1  0.86680270  0.49997119  0.42671467  1
  O  O60  1  0.35284270  0.49102804  0.07184962  1
  O  O61  1  0.13818434  0.64715730  0.07184962  1
  O  O62  1  0.50897196  0.86181566  0.07184962  1
  O  O63  1  0.35284270  0.86181566  0.57184962  1
  O  O64  1  0.50897196  0.64715730  0.57184962  1
  O  O65  1  0.13818434  0.49102804  0.57184962  1
  O  O66  1  0.30388145  0.83891679  0.25816182  1
  O  O67  1  0.53503434  0.69611855  0.25816182  1
  O  O68  1  0.16108321  0.46496566  0.25816182  1
  O  O69  1  0.30388145  0.46496566  0.75816182  1
  O  O70  1  0.16108321  0.69611855  0.75816182  1
  O  O71  1  0.53503434  0.83891679  0.75816182  1
loop_
_geom_bond_atom_site_label_1
_geom_bond_atom_site_label_2
_geom_bond_distance
_geom_bond_site_symmetry_2
Mg0 O38 1.984878 1_555
Mg0 O36 1.984878 1_545
Mg0 O37 1.984878 1_445
Mg0 O1 2.101359 1_445
Mg0 O2 2.101359 1_455
Mg0 O0 2.101359 1_555
Mg1 O39 1.984878 1_555
Mg1 O41 1.984878 1_445
Mg1 O40 1.984878 1_545
Mg1 O4 2.101359 1_445
Mg1 O3 2.101359 1_555
Mg1 O5 2.101359 1_455
Mg2 O13 2.005374 1_555
Mg2 O14 2.005374 1_555
Mg2 O12 2.005375 1_555
Mg2 O50 2.087905 1_555
Mg2 O48 2.087905 1_555
Mg2 O49 2.087905 1_555
Mg3 O16 2.005374 1_555
Mg3 O15 2.005374 1_555
Mg3 O17 2.005375 1_555
Mg3 O51 2.087905 1_555
Mg3 O53 2.087905 1_555
Mg3 O52 2.087905 1_555
Nb0 O44 1.932362 1_445
Nb0 O42 1.932362 1_455
Nb0 O43 1.932362 1_555
Nb0 O7 2.099450 1_555
Nb0 O8 2.099450 1_545
Nb0 O6 2.099450 1_445
Nb1 O45 1.932362 1_445
Nb1 O47 1.932362 1_555
Nb1 O46 1.932362 1_455
Nb1 O10 2.099450 1_555
Nb1 O9 2.099450 1_445
Nb1 O11 2.099450 1_545
Nb2 O56 1.964711 1_555
Nb2 O54 1.964711 1_555
Nb2 O55 1.964711 1_555
Nb2 O19 2.038071 1_556
Nb2 O20 2.038071 1_556
Nb2 O18 2.038071 1_556
Nb3 O57 1.964711 1_555
Nb3 O59 1.964711 1_555
Nb3 O58 1.964711 1_555
Nb3 O22 2.038071 1_555
Nb3 O21 2.038071 1_555
Nb3 O23 2.038071 1_555
Nb4 O62 1.971910 1_555
Nb4 O60 1.971910 1_555
Nb4 O61 1.971910 1_555
Nb4 O25 1.993743 1_554
Nb4 O26 1.993743 1_554
Nb4 O24 1.993743 1_554
Nb5 O63 1.971910 1_555
Nb5 O65 1.971910 1_555
Nb5 O64 1.971910 1_555
Nb5 O28 1.993743 1_555
Nb5 O27 1.993743 1_555
Nb5 O29 1.993743 1_555
Nb6 O31 1.961890 1_555
Nb6 O32 1.961890 1_555
Nb6 O30 1.961890 1_555
Nb6 O68 2.055523 1_555
Nb6 O66 2.055523 1_555
Nb6 O67 2.055523 1_555
Nb7 O34 1.961890 1_555
Nb7 O33 1.961890 1_555
Nb7 O35 1.961890 1_555
Nb7 O69 2.055523 1_555
Nb7 O71 2.055523 1_555
Nb7 O70 2.055523 1_555
O0 S0 1.448861 1_555
O1 S1 1.448861 1_555
O2 S2 1.448861 1_555
O3 S3 1.448861 1_555
O4 S4 1.448861 1_555
O5 S5 1.448862 1_555
O6 S5 1.522567 1_565
O7 S3 1.522567 1_555
O8 S4 1.522567 1_455
O9 S1 1.522567 1_555
O10 S2 1.522567 1_455
O11 S0 1.522567 1_565
O12 P0 1.484935 1_555
O13 P1 1.484935 1_555
O14 P2 1.484935 1_555
O15 P3 1.484935 1_555
O16 P4 1.484935 1_555
O17 P5 1.484935 1_555
O18 P5 1.553515 1_555
O19 P3 1.553515 1_555
O20 P4 1.553515 1_555
O21 P1 1.553515 1_555
O22 P2 1.553515 1_555
O23 P0 1.553515 1_555
O24 P6 1.550266 1_555
O25 P7 1.550266 1_555
O26 P8 1.550266 1_555
O27 P9 1.550266 1_555
O28 P10 1.550266 1_555
O29 P11 1.550266 1_555
O30 P11 1.582263 1_555
O31 P9 1.582263 1_555
O32 P10 1.582263 1_555
O33 P7 1.582263 1_555
O34 P8 1.582263 1_555
O35 P6 1.582263 1_555
O36 P11 1.479041 1_555
O37 P9 1.479050 1_555
O38 P10 1.479047 1_555
O39 P7 1.479050 1_555
O40 P8 1.479041 1_555
O41 P6 1.479047 1_555
O42 P0 1.588796 1_555
O43 P1 1.588805 1_555
O44 P2 1.588802 1_555
O45 P3 1.588805 1_555
O46 P4 1.588796 1_555
O47 P5 1.588802 1_555
O48 S5 1.439801 1_555
O49 S3 1.439810 1_555
O50 S4 1.439806 1_555
O51 S1 1.439810 1_555
O52 S2 1.439801 1_555
O53 S0 1.439806 1_555
O54 P6 1.563974 1_555
O55 P7 1.563956 1_655
O56 P8 1.563964 1_545
O57 P9 1.563956 1_545
O58 P10 1.563974 1_555
O59 P11 1.563964 1_655
O60 P5 1.555458 1_555
O61 P3 1.555441 1_455
O62 P4 1.555447 1_565
O63 P1 1.555441 1_565
O64 P2 1.555458 1_555
O65 P0 1.555447 1_455
O66 S0 1.530158 1_565
O67 S1 1.530167 1_555
O68 S2 1.530163 1_455
O69 S3 1.530167 1_555
O70 S4 1.530158 1_455
O71 S5 1.530163 1_565
