# generated using pymatgen
data_Ge5(Te4As)2
_symmetry_space_group_name_H-M   'P 1'
_cell_length_a   4.20025565
_cell_length_b   4.20025565
_cell_length_c   27.23070000
_cell_angle_alpha   90.00000000
_cell_angle_beta   90.00000000
_cell_angle_gamma   119.99999457
_symmetry_Int_Tables_number   1
_chemical_formula_structural   Ge5(Te4As)2
_chemical_formula_sum   'Ge5 Te8 As2'
_cell_volume   416.04557900
_cell_formula_units_Z   1
loop_
 _symmetry_equiv_pos_site_id
 _symmetry_equiv_pos_as_xyz
  1  'x, y, z'
loop_
 _atom_site_type_symbol
 _atom_site_label
 _atom_site_symmetry_multiplicity
 _atom_site_fract_x
 _atom_site_fract_y
 _atom_site_fract_z
 _atom_site_occupancy
  Ge  Ge0  1  0.00000000  0.00000000  0.00000000  1
  Ge  Ge1  1  0.33333300  0.66666700  0.74138200  1
  Ge  Ge2  1  0.66666700  0.33333300  0.87107800  1
  Ge  Ge3  1  0.66666700  0.33333300  0.25861800  1
  Ge  Ge4  1  0.33333300  0.66666700  0.12892200  1
  Te  Te0  1  0.66666700  0.33333300  0.67839300  1
  Te  Te1  1  0.66666700  0.33333300  0.06414600  1
  Te  Te2  1  0.33333300  0.66666700  0.32160700  1
  Te  Te3  1  0.33333300  0.66666700  0.93585400  1
  Te  Te4  1  0.00000000  0.00000000  0.19271900  1
  Te  Te5  1  0.00000000  0.00000000  0.80728100  1
  Te  Te6  1  0.66666700  0.33333300  0.44572600  1
  Te  Te7  1  0.33333300  0.66666700  0.55427400  1
  As  As0  1  0.00000000  0.00000000  0.38977100  1
  As  As1  1  0.00000000  0.00000000  0.61022900  1
loop_
_geom_bond_atom_site_label_1
_geom_bond_atom_site_label_2
_geom_bond_distance
_geom_bond_site_symmetry_2
Ge0 Te1 2.988613 1_455
Ge0 Te3 2.988613 1_544
Ge0 Te1 2.988616 1_445
Ge0 Te1 2.988616 1_555
Ge0 Te3 2.988616 1_554
Ge0 Te3 2.988616 1_444
Ge1 Te0 2.970309 1_455
Ge1 Te0 2.970309 1_565
Ge1 Te0 2.970315 1_555
Ge1 Te5 3.016761 1_565
Ge1 Te5 3.016764 1_555
Ge1 Te5 3.016764 1_665
Ge2 Te5 2.983068 1_655
Ge2 Te5 2.983071 1_665
Ge2 Te5 2.983071 1_555
Ge2 Te3 2.998672 1_545
Ge2 Te3 2.998672 1_655
Ge2 Te3 2.998678 1_555
Ge3 Te2 2.970309 1_545
Ge3 Te2 2.970309 1_655
Ge3 Te2 2.970315 1_555
Ge3 Te4 3.016761 1_655
Ge3 Te4 3.016764 1_555
Ge3 Te4 3.016764 1_665
Ge4 Te4 2.983068 1_565
Ge4 Te4 2.983071 1_665
Ge4 Te4 2.983071 1_555
Ge4 Te1 2.998672 1_565
Ge4 Te1 2.998672 1_455
Ge4 Te1 2.998678 1_555
Te6 Te7 3.823308 1_545
Te6 Te7 3.823308 1_655
Te6 Te7 3.823312 1_555
As0 Te6 2.863974 1_455
As0 Te6 2.863977 1_445
As0 Te6 2.863977 1_555
As0 Te2 3.053852 1_545
As0 Te2 3.053855 1_445
As0 Te2 3.053855 1_555
As1 Te7 2.863974 1_545
As1 Te7 2.863977 1_445
As1 Te7 2.863977 1_555
As1 Te0 3.053852 1_455
As1 Te0 3.053855 1_555
As1 Te0 3.053855 1_445
