# generated using pymatgen
data_MgMn4ZnO8
_symmetry_space_group_name_H-M   'P 1'
_cell_length_a   6.03779152
_cell_length_b   6.25823196
_cell_length_c   6.03779278
_cell_angle_alpha   60.81261968
_cell_angle_beta   59.63831643
_cell_angle_gamma   60.81408390
_symmetry_Int_Tables_number   1
_chemical_formula_structural   MgMn4ZnO8
_chemical_formula_sum   'Mg1 Mn4 Zn1 O8'
_cell_volume   162.81517308
_cell_formula_units_Z   1
loop_
 _symmetry_equiv_pos_site_id
 _symmetry_equiv_pos_as_xyz
  1  'x, y, z'
loop_
 _atom_site_type_symbol
 _atom_site_label
 _atom_site_symmetry_multiplicity
 _atom_site_fract_x
 _atom_site_fract_y
 _atom_site_fract_z
 _atom_site_occupancy
  Mg  Mg0  1  0.99999800  0.49999100  0.00000400  1
  Mn  Mn0  1  0.49999900  0.99999900  0.49999900  1
  Mn  Mn1  1  0.00000400  0.49999800  0.49999900  1
  Mn  Mn2  1  0.49999100  0.50000500  0.00000300  1
  Mn  Mn3  1  0.00000500  0.00000300  0.99998800  1
  Zn  Zn0  1  0.50000100  0.50000100  0.50000000  1
  O  O0  1  0.74777700  0.29939100  0.74778500  1
  O  O1  1  0.22160800  0.28370000  0.72604500  1
  O  O2  1  0.25222000  0.70061200  0.25221900  1
  O  O3  1  0.72603600  0.28370000  0.22161200  1
  O  O4  1  0.24503500  0.30123200  0.24504400  1
  O  O5  1  0.75496300  0.69877000  0.75495600  1
  O  O6  1  0.27396300  0.71630500  0.77838700  1
  O  O7  1  0.77839700  0.71629700  0.27395700  1
loop_
_geom_bond_atom_site_label_1
_geom_bond_atom_site_label_2
_geom_bond_distance
_geom_bond_site_symmetry_2
Mg0 O3 2.130370 1_555
Mg0 O1 2.130398 1_654
Mg0 O7 2.130441 1_555
Mg0 O6 2.130482 1_654
Mg0 O4 2.132618 1_655
Mg0 O5 2.132633 1_554
Mn0 O6 2.230134 1_555
Mn0 O3 2.230169 1_565
Mn0 O7 2.230250 1_555
Mn0 O1 2.230258 1_565
Mn0 O4 2.242361 1_565
Mn0 O5 2.242364 1_555
Mn1 O7 1.939854 1_455
Mn1 O1 1.939858 1_555
Mn1 O2 1.965461 1_555
Mn1 O0 1.965481 1_455
Mn1 O4 1.968824 1_555
Mn1 O5 1.968860 1_455
Mn2 O6 1.939832 1_554
Mn2 O3 1.939876 1_555
Mn2 O2 1.965472 1_555
Mn2 O0 1.965514 1_554
Mn2 O4 1.968817 1_555
Mn2 O5 1.968855 1_554
Mn3 O1 2.212154 1_555
Mn3 O6 2.212209 1_545
Mn3 O7 2.212221 1_446
Mn3 O3 2.212294 1_456
Mn3 O0 2.219741 1_455
Mn3 O2 2.219800 1_546
O0 Zn0 2.156701 1_555
O1 Zn0 2.149078 1_555
O2 Zn0 2.156705 1_555
O3 Zn0 2.149102 1_555
O6 Zn0 2.149110 1_555
O7 Zn0 2.149071 1_555
