# generated using pymatgen
data_Hf2Sc2SiS5O24
_symmetry_space_group_name_H-M   'P 1'
_cell_length_a   8.90057776
_cell_length_b   8.91741583
_cell_length_c   22.97369693
_cell_angle_alpha   90.16748596
_cell_angle_beta   89.95958174
_cell_angle_gamma   119.97034930
_symmetry_Int_Tables_number   1
_chemical_formula_structural   Hf2Sc2SiS5O24
_chemical_formula_sum   'Hf6 Sc6 Si3 S15 O72'
_cell_volume   1579.59735444
_cell_formula_units_Z   3
loop_
 _symmetry_equiv_pos_site_id
 _symmetry_equiv_pos_as_xyz
  1  'x, y, z'
loop_
 _atom_site_type_symbol
 _atom_site_label
 _atom_site_symmetry_multiplicity
 _atom_site_fract_x
 _atom_site_fract_y
 _atom_site_fract_z
 _atom_site_occupancy
  Hf  Hf0  1  0.99935802  0.00628307  0.64348157  1
  Hf  Hf1  1  0.00649811  0.00710693  0.14340926  1
  Hf  Hf2  1  0.67494613  0.32389011  0.47694121  1
  Hf  Hf3  1  0.33315397  0.66024402  0.02290974  1
  Hf  Hf4  1  0.33821590  0.66790336  0.52256431  1
  Hf  Hf5  1  0.34120766  0.67660468  0.31207624  1
  Sc  Sc0  1  0.99142125  0.00071031  0.35770618  1
  Sc  Sc1  1  0.00152131  0.00036833  0.85522031  1
  Sc  Sc2  1  0.68134607  0.33804020  0.68727758  1
  Sc  Sc3  1  0.65684339  0.33648028  0.18646521  1
  Sc  Sc4  1  0.65246667  0.32933224  0.97943620  1
  Sc  Sc5  1  0.33187397  0.66631312  0.81110193  1
  Si  Si0  1  0.95851040  0.33723518  0.58406383  1
  Si  Si1  1  0.38051378  0.33382048  0.08326114  1
  Si  Si2  1  0.62330055  0.95433274  0.41715980  1
  S  S0  1  0.28812312  0.00033876  0.25061028  1
  S  S1  1  0.71262328  0.71048118  0.25026024  1
  S  S2  1  0.99830478  0.28920113  0.25030847  1
  S  S3  1  0.28995817  0.28866969  0.75061010  1
  S  S4  1  0.00021473  0.71217341  0.75068648  1
  S  S5  1  0.71067637  0.99933592  0.75090724  1
  S  S6  1  0.37856684  0.04592002  0.58400084  1
  S  S7  1  0.66725868  0.62071927  0.58396318  1
  S  S8  1  0.95470135  0.62169969  0.08331884  1
  S  S9  1  0.66647575  0.04494847  0.08324471  1
  S  S10  1  0.62262305  0.66739119  0.91580471  1
  S  S11  1  0.04318196  0.37785528  0.91603682  1
  S  S12  1  0.33330414  0.95468759  0.91600748  1
  S  S13  1  0.33376813  0.37885435  0.41640824  1
  S  S14  1  0.04628341  0.66853491  0.41642269  1
  O  O0  1  0.20823042  0.02637901  0.30214723  1
  O  O1  1  0.81954307  0.79205361  0.30191192  1
  O  O2  1  0.97368015  0.18137856  0.30157556  1
  O  O3  1  0.20527775  0.17910894  0.80214796  1
  O  O4  1  0.97438127  0.79595265  0.80257424  1
  O  O5  1  0.82138335  0.02709695  0.80236031  1
  O  O6  1  0.79390605  0.97045373  0.69861356  1
  O  O7  1  0.17702727  0.20407807  0.69832159  1
  O  O8  1  0.02815258  0.82079592  0.69839231  1
  O  O9  1  0.79041331  0.81956246  0.19795462  1
  O  O10  1  0.02713534  0.20493809  0.19786817  1
  O  O11  1  0.17697037  0.97051906  0.19807074  1
  O  O12  1  0.86500779  0.36332090  0.64044042  1
  O  O13  1  0.48400383  0.12314851  0.63590105  1
  O  O14  1  0.63559939  0.51432281  0.63592419  1
  O  O15  1  0.88221007  0.51535269  0.13556437  1
  O  O16  1  0.63761665  0.12083116  0.13566209  1
  O  O17  1  0.49856431  0.36519934  0.14036812  1
  O  O18  1  0.46720939  0.30158372  0.02630613  1
  O  O19  1  0.84980289  0.54545450  0.03096231  1
  O  O20  1  0.70071231  0.15162044  0.03109809  1
  O  O21  1  0.45366617  0.15457291  0.53149380  1
  O  O22  1  0.69454074  0.54385217  0.53107423  1
  O  O23  1  0.83393626  0.30348058  0.52747408  1
  O  O24  1  0.53922558  0.69595453  0.96814709  1
  O  O25  1  0.15616701  0.46251385  0.96837621  1
  O  O26  1  0.30547337  0.84597205  0.96832242  1
  O  O27  1  0.52750603  0.83289808  0.47277258  1
  O  O28  1  0.30341474  0.45919711  0.46853490  1
  O  O29  1  0.15385359  0.69279389  0.46837828  1
  O  O30  1  0.12468265  0.63458259  0.36404503  1
  O  O31  1  0.49838859  0.86013673  0.36016213  1
  O  O32  1  0.35887605  0.48826095  0.36414074  1
  O  O33  1  0.12792776  0.48759240  0.86457980  1
  O  O34  1  0.35913524  0.87088793  0.86415600  1
  O  O35  1  0.51192047  0.63944590  0.86436286  1
  O  O36  1  0.03008044  0.82151021  0.40756755  1
  O  O37  1  0.81152659  0.97652441  0.40612949  1
  O  O38  1  0.18288556  0.20716753  0.40756322  1
  O  O39  1  0.02841049  0.20634689  0.90776725  1
  O  O40  1  0.17891533  0.97370963  0.90752052  1
  O  O41  1  0.79471569  0.82305014  0.90780761  1
  O  O42  1  0.97700047  0.16516700  0.59491108  1
  O  O43  1  0.20210163  0.02206944  0.59302128  1
  O  O44  1  0.82186028  0.79509226  0.59341124  1
  O  O45  1  0.97463979  0.79601009  0.09371789  1
  O  O46  1  0.81764300  0.01877066  0.09344376  1
  O  O47  1  0.18769134  0.16626017  0.09477460  1
  O  O48  1  0.68963733  0.15049862  0.74217571  1
  O  O49  1  0.46033553  0.30723558  0.74096583  1
  O  O50  1  0.84508473  0.54118448  0.74314663  1
  O  O51  1  0.69352796  0.53854254  0.24227047  1
  O  O52  1  0.84720384  0.30887664  0.24008277  1
  O  O53  1  0.46234477  0.14819551  0.24130168  1
  O  O54  1  0.64355325  0.51609679  0.92466226  1
  O  O55  1  0.87290830  0.35940437  0.92586582  1
  O  O56  1  0.48845713  0.12564827  0.92375144  1
  O  O57  1  0.63596543  0.14193285  0.42451672  1
  O  O58  1  0.49022995  0.36562612  0.42571525  1
  O  O59  1  0.87142700  0.51562840  0.42471756  1
  O  O60  1  0.35454837  0.50072948  0.07181653  1
  O  O61  1  0.13211811  0.64794158  0.07320925  1
  O  O62  1  0.51206206  0.87056757  0.07304493  1
  O  O63  1  0.35660324  0.87183285  0.57427372  1
  O  O64  1  0.51453570  0.64362218  0.57543665  1
  O  O65  1  0.14768004  0.50195450  0.57184404  1
  O  O66  1  0.30210071  0.84054567  0.25743521  1
  O  O67  1  0.53579687  0.68892874  0.25840009  1
  O  O68  1  0.15558534  0.46167151  0.25863923  1
  O  O69  1  0.30484495  0.46023007  0.75900889  1
  O  O70  1  0.15453746  0.69308539  0.75926411  1
  O  O71  1  0.53865856  0.84357310  0.75896974  1
loop_
_geom_bond_atom_site_label_1
_geom_bond_atom_site_label_2
_geom_bond_distance
_geom_bond_site_symmetry_2
Hf0 O42 1.892980 1_555
Hf0 O43 2.089078 1_655
Hf0 O44 2.093585 1_545
Hf0 O7 2.098127 1_655
Hf0 O6 2.113200 1_545
Hf0 O8 2.197544 1_645
Hf1 O47 1.893001 1_555
Hf1 O46 2.081361 1_455
Hf1 O10 2.091629 1_555
Hf1 O45 2.093277 1_445
Hf1 O11 2.117857 1_545
Hf1 O9 2.204873 1_445
Hf2 O57 1.905366 1_555
Hf2 O23 1.908996 1_555
Hf2 O59 2.107792 1_555
Hf2 O21 2.183104 1_555
Hf2 O58 2.200710 1_555
Hf2 O22 2.251391 1_555
Hf3 O60 1.897979 1_555
Hf3 O61 2.085854 1_555
Hf3 O25 2.091626 1_554
Hf3 O62 2.094283 1_555
Hf3 O24 2.112791 1_554
Hf3 O26 2.190138 1_554
Hf4 O27 1.960178 1_555
Hf4 O65 1.961471 1_555
Hf4 O64 2.080599 1_555
Hf4 O63 2.106027 1_555
Hf4 O28 2.124029 1_555
Hf4 O29 2.158697 1_555
Hf5 O31 1.886840 1_555
Hf5 O67 2.083265 1_555
Hf5 O66 2.086610 1_555
Hf5 O32 2.133581 1_555
Hf5 O30 2.134897 1_555
Hf5 O68 2.176144 1_555
O0 S0 1.457256 1_555
O0 Sc0 2.227631 1_455
O1 S1 1.465531 1_555
O1 Sc0 2.142511 1_565
O2 S2 1.468137 1_555
O2 Sc0 2.133084 1_555
O3 S3 1.481312 1_555
O3 Sc1 2.106257 1_555
O4 S4 1.482581 1_655
O4 Sc1 2.095610 1_665
O5 S5 1.478416 1_545
O5 Sc1 2.118603 1_655
O6 S5 1.498659 1_555
O7 S3 1.503743 1_555
O8 S4 1.486323 1_555
O9 S1 1.484021 1_555
O10 S2 1.506252 1_455
O11 S0 1.497784 1_565
O12 Si0 1.616891 1_555
O12 Sc2 1.873932 1_555
O13 S6 1.458666 1_555
O13 Sc2 2.185694 1_555
O14 S7 1.464114 1_555
O14 Sc2 2.163288 1_555
O15 S8 1.466470 1_555
O15 Sc3 2.178587 1_555
O16 S9 1.463720 1_555
O16 Sc3 2.178971 1_555
O17 Si1 1.615424 1_555
O17 Sc3 1.880403 1_555
O18 Si1 1.614978 1_555
O18 Sc4 1.879080 1_554
O19 S8 1.464017 1_555
O19 Sc4 2.192740 1_554
O20 S9 1.466103 1_555
O20 Sc4 2.189983 1_554
O21 S6 1.483009 1_555
O22 S7 1.471796 1_555
O23 Si0 1.636000 1_555
O24 S10 1.499239 1_555
O25 S11 1.504976 1_555
O26 S12 1.487334 1_555
O27 Si2 1.617416 1_555
O28 S13 1.486037 1_555
O29 S14 1.476943 1_555
O30 S14 1.494760 1_555
O31 Si2 1.648901 1_555
O32 S13 1.494085 1_555
O33 S11 1.480571 1_555
O33 Sc5 2.112434 1_555
O34 S12 1.482009 1_555
O34 Sc5 2.101815 1_555
O35 S10 1.477912 1_555
O35 Sc5 2.123850 1_555
O36 S14 1.456466 1_555
O36 Sc0 2.131853 1_465
O37 Si2 1.605781 1_555
O37 Sc0 1.871280 1_565
O38 S13 1.460519 1_555
O38 Sc0 2.112195 1_455
O39 S11 1.479837 1_555
O39 Sc1 2.106339 1_555
O40 S12 1.479369 1_555
O40 Sc1 2.091052 1_565
O41 S10 1.477680 1_555
O41 Sc1 2.109044 1_665
O42 Si0 1.642610 1_555
O43 S6 1.490350 1_555
O44 S7 1.489690 1_555
O45 S8 1.492317 1_555
O46 S9 1.494747 1_555
O47 Si1 1.639399 1_555
O48 S5 1.464987 1_545
O48 Sc2 2.128086 1_555
O49 S3 1.457753 1_555
O49 Sc2 2.219239 1_555
O50 S4 1.468593 1_655
O50 Sc2 2.098645 1_555
O51 S1 1.466789 1_555
O51 Sc3 2.096734 1_555
O52 S2 1.459840 1_555
O52 Sc3 2.206813 1_555
O53 S0 1.465337 1_555
O53 Sc3 2.123282 1_555
O54 S10 1.465981 1_555
O54 Sc4 2.123185 1_555
O55 S11 1.457911 1_655
O55 Sc4 2.215642 1_555
O56 S12 1.469085 1_545
O56 Sc4 2.099185 1_555
O57 Si2 1.627839 1_545
O58 S13 1.470939 1_555
O59 S14 1.482761 1_655
O60 Si1 1.638264 1_555
O61 S8 1.494289 1_455
O62 S9 1.491633 1_565
O63 S6 1.480861 1_565
O64 S7 1.485201 1_555
O65 Si0 1.613102 1_455
O66 S0 1.499657 1_565
O67 S1 1.498839 1_555
O68 S2 1.486372 1_455
O69 S3 1.480232 1_555
O69 Sc5 2.100765 1_555
O70 S4 1.479408 1_555
O70 Sc5 2.085041 1_555
O71 S5 1.477884 1_555
O71 Sc5 2.102798 1_555
