# generated using pymatgen
data_Mg4B3Ir2
_symmetry_space_group_name_H-M   'P 1'
_cell_length_a   4.92574736
_cell_length_b   4.92574736
_cell_length_c   6.86245505
_cell_angle_alpha   67.76976254
_cell_angle_beta   67.76976254
_cell_angle_gamma   58.75377907
_symmetry_Int_Tables_number   1
_chemical_formula_structural   Mg4B3Ir2
_chemical_formula_sum   'Mg4 B3 Ir2'
_cell_volume   128.23567779
_cell_formula_units_Z   1
loop_
 _symmetry_equiv_pos_site_id
 _symmetry_equiv_pos_as_xyz
  1  'x, y, z'
loop_
 _atom_site_type_symbol
 _atom_site_label
 _atom_site_symmetry_multiplicity
 _atom_site_fract_x
 _atom_site_fract_y
 _atom_site_fract_z
 _atom_site_occupancy
  Mg  Mg0  1  0.28890608  0.32531381  0.84324009  1
  Mg  Mg1  1  0.67468619  0.71109392  0.15675991  1
  Mg  Mg2  1  0.28371449  0.32106016  0.35913054  1
  Mg  Mg3  1  0.67893984  0.71628551  0.64086946  1
  B  B0  1  0.65573791  0.34426209  -0.00000000  1
  B  B1  1  0.30638587  0.69361413  -0.00000000  1
  B  B2  1  0.97974435  0.02025565  0.50000000  1
  Ir  Ir0  1  0.99597833  0.03409206  0.78117716  1
  Ir  Ir1  1  0.96590794  0.00402167  0.21882284  1
loop_
_geom_bond_atom_site_label_1
_geom_bond_atom_site_label_2
_geom_bond_distance
_geom_bond_site_symmetry_2
Mg0 Mg3 3.020661 1_555
Mg0 Mg1 3.097955 1_456
Mg0 Mg1 3.097955 1_546
Mg0 Mg3 3.126263 1_545
Mg0 Mg3 3.129765 1_455
Mg0 Mg2 3.339982 1_555
Mg1 Mg2 3.020661 1_555
Mg1 Mg2 3.126263 1_655
Mg1 Mg2 3.129765 1_565
Mg1 Mg3 3.339982 1_555
Mg2 Mg3 2.979228 1_545
Mg2 Mg3 2.979228 1_455
B0 B1 1.688304 1_555
B0 Ir0 2.138530 1_554
B0 Ir1 2.138530 1_555
B0 Mg3 2.455984 1_554
B0 Mg2 2.455984 1_555
B0 Mg1 2.480456 1_555
B0 Mg0 2.480456 1_554
B0 Mg0 2.851028 1_654
B0 Mg1 2.851028 1_545
B1 Ir0 2.139373 1_464
B1 Ir1 2.139373 1_465
B1 Mg3 2.456865 1_554
B1 Mg2 2.456865 1_555
B1 Mg1 2.482870 1_555
B1 Mg0 2.482870 1_554
B1 Mg0 2.847112 1_564
B1 Mg1 2.847112 1_455
B2 Ir0 1.989013 1_555
B2 Ir1 1.989013 1_555
B2 Mg2 2.343991 1_655
B2 Mg3 2.343991 1_545
B2 Mg0 3.270217 1_555
B2 Mg1 3.270217 1_555
B2 Mg1 3.284838 1_645
B2 Mg0 3.284838 1_645
Ir0 Mg0 2.719489 1_655
Ir0 Mg3 2.811237 1_555
Ir0 Mg3 2.814425 1_645
Ir0 Mg1 2.846394 1_546
Ir0 Mg2 2.875745 1_655
Ir0 Mg0 2.919966 1_555
Ir0 Mg0 2.926780 1_645
Ir1 Mg1 2.719489 1_545
Ir1 Mg2 2.811237 1_555
Ir1 Mg2 2.814425 1_645
Ir1 Mg0 2.846394 1_654
Ir1 Mg3 2.875745 1_545
Ir1 Mg1 2.919966 1_555
Ir1 Mg1 2.926780 1_645
