# generated using pymatgen
data_Sr2SmTa(CuO4)2
_symmetry_space_group_name_H-M   'P 1'
_cell_length_a   3.93868100
_cell_length_b   3.93868100
_cell_length_c   11.76544800
_cell_angle_alpha   90.00000000
_cell_angle_beta   90.00000000
_cell_angle_gamma   90.00000000
_symmetry_Int_Tables_number   1
_chemical_formula_structural   Sr2SmTa(CuO4)2
_chemical_formula_sum   'Sr2 Sm1 Ta1 Cu2 O8'
_cell_volume   182.51984227
_cell_formula_units_Z   1
loop_
 _symmetry_equiv_pos_site_id
 _symmetry_equiv_pos_as_xyz
  1  'x, y, z'
loop_
 _atom_site_type_symbol
 _atom_site_label
 _atom_site_symmetry_multiplicity
 _atom_site_fract_x
 _atom_site_fract_y
 _atom_site_fract_z
 _atom_site_occupancy
  Sr  Sr0  1  0.50000000  0.50000000  0.79939200  1
  Sr  Sr1  1  0.50000000  0.50000000  0.20060800  1
  Sm  Sm0  1  0.50000000  0.50000000  0.50000000  1
  Ta  Ta0  1  0.00000000  0.00000000  0.00000000  1
  Cu  Cu0  1  0.00000000  0.00000000  0.64027500  1
  Cu  Cu1  1  0.00000000  0.00000000  0.35972500  1
  O  O0  1  0.50000000  0.00000000  0.62798500  1
  O  O1  1  0.00000000  0.50000000  0.62798500  1
  O  O2  1  0.50000000  0.00000000  0.37201500  1
  O  O3  1  0.00000000  0.50000000  0.37201500  1
  O  O4  1  0.00000000  0.50000000  0.00000000  1
  O  O5  1  0.50000000  0.00000000  0.00000000  1
  O  O6  1  0.00000000  0.00000000  0.16857800  1
  O  O7  1  0.00000000  0.00000000  0.83142200  1
loop_
_geom_bond_atom_site_label_1
_geom_bond_atom_site_label_2
_geom_bond_distance
_geom_bond_site_symmetry_2
Cu0 O1 1.974642 1_545
Cu0 O0 1.974642 1_455
Cu0 O1 1.974642 1_555
Cu0 O0 1.974642 1_555
Cu0 O7 2.248930 1_555
Cu1 O2 1.974642 1_455
Cu1 O2 1.974642 1_555
Cu1 O3 1.974642 1_555
Cu1 O3 1.974642 1_545
Cu1 O6 2.248930 1_555
O0 Sm0 2.479060 1_555
O0 Sm0 2.479060 1_545
O0 Sr0 2.818741 1_545
O0 Sr0 2.818741 1_555
O1 Sm0 2.479060 1_455
O1 Sm0 2.479060 1_555
O1 Sr0 2.818741 1_455
O1 Sr0 2.818741 1_555
O2 Sm0 2.479060 1_555
O2 Sm0 2.479060 1_545
O2 Sr1 2.818741 1_545
O2 Sr1 2.818741 1_555
O3 Sm0 2.479060 1_455
O3 Sm0 2.479060 1_555
O3 Sr1 2.818741 1_455
O3 Sr1 2.818741 1_555
O4 Ta0 1.969340 1_565
O4 Ta0 1.969340 1_555
O4 Sr1 3.073931 1_555
O4 Sr1 3.073931 1_455
O4 Sr0 3.073931 1_554
O4 Sr0 3.073931 1_454
O5 Ta0 1.969340 1_655
O5 Ta0 1.969340 1_555
O5 Sr1 3.073931 1_555
O5 Sr1 3.073931 1_545
O5 Sr0 3.073931 1_544
O5 Sr0 3.073931 1_554
O6 Ta0 1.983396 1_555
O6 Sr1 2.810448 1_455
O6 Sr1 2.810448 1_555
O6 Sr1 2.810448 1_445
O6 Sr1 2.810448 1_545
O7 Ta0 1.983396 1_556
O7 Sr0 2.810448 1_545
O7 Sr0 2.810448 1_455
O7 Sr0 2.810448 1_555
O7 Sr0 2.810448 1_445
