# generated using pymatgen
data_Ta3InSi3(SO8)3
_symmetry_space_group_name_H-M   'P 1'
_cell_length_a   8.90949697
_cell_length_b   8.92474270
_cell_length_c   22.96224909
_cell_angle_alpha   89.81078401
_cell_angle_beta   89.47047845
_cell_angle_gamma   119.96777231
_symmetry_Int_Tables_number   1
_chemical_formula_structural   Ta3InSi3(SO8)3
_chemical_formula_sum   'Ta9 In3 Si9 S9 O72'
_cell_volume   1581.60560553
_cell_formula_units_Z   3
loop_
 _symmetry_equiv_pos_site_id
 _symmetry_equiv_pos_as_xyz
  1  'x, y, z'
loop_
 _atom_site_type_symbol
 _atom_site_label
 _atom_site_symmetry_multiplicity
 _atom_site_fract_x
 _atom_site_fract_y
 _atom_site_fract_z
 _atom_site_occupancy
  Ta  Ta0  1  0.00833278  0.98734383  0.85737237  1
  Ta  Ta1  1  0.01227814  0.01447959  0.64731254  1
  Ta  Ta2  1  0.99732945  0.99542773  0.13919089  1
  Ta  Ta3  1  0.67822329  0.33930303  0.97445377  1
  Ta  Ta4  1  0.66772604  0.32208126  0.47563948  1
  Ta  Ta5  1  0.34337901  0.68719919  0.02141344  1
  Ta  Ta6  1  0.33604632  0.65540457  0.52251926  1
  Ta  Ta7  1  0.34337854  0.66902033  0.31251033  1
  Ta  Ta8  1  0.34041601  0.67108368  0.80824057  1
  In  In0  1  0.00245351  0.00771826  0.35920094  1
  In  In1  1  0.67716428  0.34561483  0.69311046  1
  In  In2  1  0.67157219  0.32856113  0.18281732  1
  Si  Si0  1  0.28806090  0.28814090  0.75228958  1
  Si  Si1  1  0.00471359  0.71465690  0.74943729  1
  Si  Si2  1  0.94979175  0.32962042  0.58416204  1
  Si  Si3  1  0.95409267  0.61382555  0.08295513  1
  Si  Si4  1  0.66566418  0.05071478  0.08354018  1
  Si  Si5  1  0.61671464  0.66624642  0.91520337  1
  Si  Si6  1  0.34141185  0.95726866  0.91525748  1
  Si  Si7  1  0.61642220  0.94878252  0.41672977  1
  Si  Si8  1  0.34042820  0.38031278  0.41704807  1
  S  S0  1  0.28653565  0.99806776  0.25017018  1
  S  S1  1  0.71297880  0.71190679  0.24990556  1
  S  S2  1  0.00356863  0.29202578  0.25012421  1
  S  S3  1  0.71750394  0.99677792  0.75138609  1
  S  S4  1  0.37682198  0.04196055  0.58229011  1
  S  S5  1  0.67038278  0.62510844  0.58220116  1
  S  S6  1  0.37730421  0.33614531  0.08283174  1
  S  S7  1  0.05110734  0.38112645  0.91597302  1
  S  S8  1  0.04945631  0.66291574  0.41728350  1
  O  O0  1  0.20613731  0.02017673  0.30304342  1
  O  O1  1  0.81615983  0.78749075  0.30166910  1
  O  O2  1  0.97541657  0.18568175  0.30216531  1
  O  O3  1  0.17789274  0.16733898  0.80772049  1
  O  O4  1  0.98208672  0.81582743  0.80659430  1
  O  O5  1  0.82138182  0.01867312  0.80293449  1
  O  O6  1  0.79807286  0.96838988  0.69722774  1
  O  O7  1  0.15984863  0.19696648  0.69350939  1
  O  O8  1  0.03000716  0.84163202  0.69215698  1
  O  O9  1  0.79752097  0.82665894  0.19744588  1
  O  O10  1  0.03468012  0.21089884  0.19782927  1
  O  O11  1  0.17562120  0.97258858  0.19811478  1
  O  O12  1  0.86987431  0.36739647  0.63986751  1
  O  O13  1  0.48050925  0.11038482  0.63394984  1
  O  O14  1  0.62282759  0.51703251  0.63416835  1
  O  O15  1  0.88394558  0.51916940  0.14389259  1
  O  O16  1  0.61640903  0.10667876  0.14303126  1
  O  O17  1  0.47620551  0.37076344  0.13634101  1
  O  O18  1  0.45429280  0.29766086  0.03210363  1
  O  O19  1  0.82759671  0.52688213  0.02712848  1
  O  O20  1  0.69949530  0.17447686  0.02729303  1
  O  O21  1  0.46078342  0.15838550  0.52970859  1
  O  O22  1  0.69496825  0.54143066  0.53016321  1
  O  O23  1  0.82870366  0.30781892  0.52588283  1
  O  O24  1  0.51733195  0.68460680  0.97261326  1
  O  O25  1  0.15380231  0.45706604  0.96858841  1
  O  O26  1  0.30459426  0.83347030  0.97304080  1
  O  O27  1  0.51011334  0.83357406  0.47298010  1
  O  O28  1  0.31339683  0.48166729  0.47237856  1
  O  O29  1  0.15577755  0.68652718  0.46910886  1
  O  O30  1  0.12815253  0.63063442  0.36373986  1
  O  O31  1  0.48837211  0.85798955  0.35879680  1
  O  O32  1  0.36512834  0.50937907  0.35936943  1
  O  O33  1  0.12759802  0.49217151  0.86386713  1
  O  O34  1  0.36672171  0.85975609  0.86008955  1
  O  O35  1  0.49377023  0.63549744  0.85931451  1
  O  O36  1  0.03005113  0.81240772  0.40977359  1
  O  O37  1  0.79715728  0.96134223  0.40914228  1
  O  O38  1  0.17880226  0.19575908  0.41007679  1
  O  O39  1  0.02237681  0.20592542  0.90783743  1
  O  O40  1  0.16973666  0.97768856  0.90787423  1
  O  O41  1  0.80400935  0.84023104  0.90495711  1
  O  O42  1  0.97257586  0.15832650  0.59269476  1
  O  O43  1  0.20198110  0.02680059  0.58875144  1
  O  O44  1  0.82195871  0.79873493  0.58939089  1
  O  O45  1  0.98325549  0.81533120  0.09572676  1
  O  O46  1  0.84076627  0.02883427  0.09649423  1
  O  O47  1  0.20029398  0.17418441  0.09383446  1
  O  O48  1  0.69150560  0.14313295  0.74471560  1
  O  O49  1  0.46431887  0.29233107  0.74078799  1
  O  O50  1  0.83663985  0.53197547  0.74812263  1
  O  O51  1  0.67770218  0.53578703  0.24117664  1
  O  O52  1  0.85457816  0.31695393  0.24429785  1
  O  O53  1  0.45945978  0.14926263  0.24290001  1
  O  O54  1  0.64175157  0.49919589  0.92942074  1
  O  O55  1  0.87496026  0.36606061  0.92373589  1
  O  O56  1  0.50672055  0.14633106  0.92999969  1
  O  O57  1  0.62994096  0.13920799  0.42710828  1
  O  O58  1  0.51882642  0.37883470  0.43121492  1
  O  O59  1  0.87521473  0.50421582  0.42548023  1
  O  O60  1  0.34318436  0.47811361  0.07137618  1
  O  O61  1  0.14283995  0.63770643  0.06833253  1
  O  O62  1  0.50883175  0.85359456  0.07063472  1
  O  O63  1  0.34877400  0.86695200  0.56955587  1
  O  O64  1  0.51463072  0.65021855  0.57134353  1
  O  O65  1  0.14270586  0.49808198  0.56850817  1
  O  O66  1  0.29910192  0.83588560  0.25774061  1
  O  O67  1  0.53739406  0.70376462  0.25715600  1
  O  O68  1  0.16459065  0.46817701  0.25853554  1
  O  O69  1  0.29990209  0.47519325  0.76243979  1
  O  O70  1  0.18196909  0.70796193  0.76192686  1
  O  O71  1  0.54503593  0.83391071  0.75653715  1
loop_
_geom_bond_atom_site_label_1
_geom_bond_atom_site_label_2
_geom_bond_distance
_geom_bond_site_symmetry_2
In0 O37 2.008412 1_445
In0 O38 2.015546 1_555
In0 O2 2.161063 1_455
In0 O0 2.173157 1_555
In0 O36 2.206231 1_545
In0 O1 2.271952 1_445
In1 O50 2.016671 1_555
In1 O49 2.019428 1_555
In1 O12 2.026473 1_555
In1 O48 2.214817 1_555
In1 O14 2.268255 1_555
In1 O13 2.389712 1_555
In2 O15 2.003989 1_555
In2 O16 2.011340 1_555
In2 O52 2.207382 1_555
In2 O53 2.225199 1_555
In2 O17 2.235435 1_555
In2 O51 2.266270 1_555
O0 S0 1.467226 1_545
O1 S1 1.455643 1_555
O2 S2 1.463153 1_655
O3 Si0 1.629877 1_555
O3 Ta0 1.922046 1_545
O4 Si1 1.662295 1_655
O4 Ta0 1.848400 1_655
O5 S3 1.461815 1_545
O5 Ta0 2.217322 1_645
O6 S3 1.514355 1_555
O6 Ta1 2.072997 1_665
O7 Si0 1.701734 1_555
O7 Ta1 1.845092 1_555
O8 Si1 1.671675 1_555
O8 Ta1 1.923776 1_565
O9 S1 1.507206 1_555
O9 Ta2 2.119212 1_555
O10 S2 1.497697 1_555
O10 Ta2 2.237814 1_445
O11 S0 1.502043 1_555
O11 Ta2 2.181032 1_455
O12 Si2 1.575637 1_555
O13 S4 1.447378 1_555
O14 S5 1.452094 1_555
O15 Si3 1.584537 1_555
O16 Si4 1.587618 1_555
O17 S6 1.460181 1_555
O18 S6 1.472595 1_555
O18 Ta3 2.253470 1_554
O19 Si3 1.635592 1_555
O19 Ta3 1.963171 1_554
O20 Si4 1.621659 1_555
O20 Ta3 1.985687 1_554
O21 S4 1.515100 1_555
O21 Ta4 2.080851 1_555
O22 S5 1.482559 1_555
O22 Ta4 2.237375 1_555
O23 Si2 1.676686 1_555
O23 Ta4 1.901641 1_555
O24 Si5 1.635079 1_555
O24 Ta5 1.913654 1_556
O25 S7 1.470542 1_555
O25 Ta5 2.265217 1_556
O26 Si6 1.645912 1_555
O26 Ta5 1.872294 1_556
O27 Si7 1.618124 1_555
O27 Ta6 1.928574 1_555
O28 Si8 1.646211 1_555
O28 Ta6 1.863879 1_555
O29 S8 1.476807 1_555
O29 Ta6 2.154222 1_555
O30 S8 1.508126 1_555
O30 Ta7 2.116018 1_555
O31 Si7 1.685054 1_555
O31 Ta7 1.871738 1_555
O32 Si8 1.691353 1_555
O32 Ta7 1.869435 1_555
O33 S7 1.476655 1_555
O33 Ta8 2.166435 1_555
O34 Si6 1.615863 1_555
O34 Ta8 1.982897 1_555
O35 Si5 1.627913 1_555
O35 Ta8 1.950317 1_555
O36 S8 1.438447 1_555
O37 Si7 1.565317 1_555
O38 Si8 1.564816 1_555
O39 S7 1.465707 1_555
O39 Ta0 2.222109 1_545
O40 Si6 1.638448 1_555
O40 Ta0 1.890519 1_555
O41 Si5 1.628729 1_555
O41 Ta0 1.948748 1_655
O42 Si2 1.650899 1_555
O42 Ta1 1.948686 1_655
O43 S4 1.500642 1_555
O43 Ta1 2.109093 1_555
O44 S5 1.472206 1_555
O44 Ta1 2.269018 1_665
O45 Si3 1.710493 1_555
O45 Ta2 1.845757 1_555
O46 Si4 1.694987 1_555
O46 Ta2 1.853285 1_545
O47 S6 1.534011 1_555
O47 Ta2 1.992981 1_445
O48 S3 1.443889 1_545
O49 Si0 1.571881 1_555
O50 Si1 1.569569 1_655
O51 S1 1.455779 1_555
O52 S2 1.458625 1_655
O53 S0 1.462595 1_545
O54 Si5 1.646038 1_555
O54 Ta3 1.915963 1_555
O55 S7 1.515478 1_655
O55 Ta3 2.006981 1_555
O56 Si6 1.631304 1_545
O56 Ta3 1.937590 1_555
O57 Si7 1.660814 1_545
O57 Ta4 1.867878 1_555
O58 Si8 1.631804 1_555
O58 Ta4 1.936478 1_555
O59 S8 1.499224 1_655
O59 Ta4 2.081466 1_555
O60 S6 1.466641 1_555
O60 Ta5 2.186522 1_555
O61 Si3 1.617751 1_455
O61 Ta5 1.928983 1_555
O62 Si4 1.640277 1_565
O62 Ta5 1.873672 1_555
O63 S4 1.483893 1_565
O63 Ta6 2.132092 1_555
O64 S5 1.534509 1_555
O64 Ta6 1.974039 1_555
O65 Si2 1.657471 1_455
O65 Ta6 1.895820 1_555
O66 S0 1.516051 1_555
O66 Ta7 2.130439 1_555
O67 S1 1.536814 1_555
O67 Ta7 2.030034 1_555
O68 S2 1.523453 1_555
O68 Ta7 2.117804 1_555
O69 Si0 1.636889 1_555
O69 Ta8 1.918728 1_555
O70 Si1 1.637803 1_555
O70 Ta8 1.929182 1_555
O71 S3 1.500699 1_555
O71 Ta8 2.036356 1_555
