# generated using pymatgen
data_ZrCuSi
_symmetry_space_group_name_H-M   'P 1'
_cell_length_a   3.92391181
_cell_length_b   6.51216815
_cell_length_c   7.24547221
_cell_angle_alpha   90.00000000
_cell_angle_beta   90.00000000
_cell_angle_gamma   90.00000000
_symmetry_Int_Tables_number   1
_chemical_formula_structural   ZrCuSi
_chemical_formula_sum   'Zr4 Cu4 Si4'
_cell_volume   185.14480856
_cell_formula_units_Z   4
loop_
 _symmetry_equiv_pos_site_id
 _symmetry_equiv_pos_as_xyz
  1  'x, y, z'
loop_
 _atom_site_type_symbol
 _atom_site_label
 _atom_site_symmetry_multiplicity
 _atom_site_fract_x
 _atom_site_fract_y
 _atom_site_fract_z
 _atom_site_occupancy
  Zr  Zr0  1  0.25000000  0.50784081  0.30472248  1
  Zr  Zr1  1  0.75000000  0.49215919  0.69527752  1
  Zr  Zr2  1  0.25000000  0.00784081  0.19527752  1
  Zr  Zr3  1  0.75000000  0.99215919  0.80472248  1
  Cu  Cu0  1  0.75000000  0.82681550  0.42251919  1
  Cu  Cu1  1  0.25000000  0.17318450  0.57748081  1
  Cu  Cu2  1  0.75000000  0.32681550  0.07748081  1
  Cu  Cu3  1  0.25000000  0.67318450  0.92251919  1
  Si  Si0  1  0.25000000  0.28109855  0.90130220  1
  Si  Si1  1  0.75000000  0.71890145  0.09869780  1
  Si  Si2  1  0.25000000  0.78109855  0.59869780  1
  Si  Si3  1  0.75000000  0.21890145  0.40130220  1
loop_
_geom_bond_atom_site_label_1
_geom_bond_atom_site_label_2
_geom_bond_distance
_geom_bond_site_symmetry_2
Zr0 Zr2 3.351254 1_565
Zr0 Zr2 3.351254 1_555
Zr1 Zr3 3.351254 1_555
Zr1 Zr3 3.351254 1_545
Cu0 Si2 2.359524 1_655
Cu0 Si2 2.359524 1_555
Cu0 Si1 2.449225 1_555
Cu0 Si3 2.557953 1_565
Cu0 Zr2 2.819552 1_565
Cu0 Zr2 2.819552 1_665
Cu0 Zr1 2.941960 1_555
Cu0 Zr3 2.971210 1_555
Cu0 Zr0 2.982038 1_655
Cu0 Zr0 2.982038 1_555
Cu1 Si3 2.359524 1_555
Cu1 Si3 2.359524 1_455
Cu1 Si0 2.449225 1_555
Cu1 Si2 2.557953 1_545
Cu1 Zr3 2.819552 1_545
Cu1 Zr3 2.819552 1_445
Cu1 Zr0 2.941960 1_555
Cu1 Zr2 2.971210 1_555
Cu1 Zr1 2.982038 1_455
Cu1 Zr1 2.982038 1_555
Cu2 Si0 2.359524 1_554
Cu2 Si0 2.359524 1_654
Cu2 Si3 2.449225 1_555
Cu2 Si1 2.557953 1_555
Cu2 Zr0 2.819552 1_655
Cu2 Zr0 2.819552 1_555
Cu2 Zr3 2.941960 1_544
Cu2 Zr1 2.971210 1_554
Cu2 Zr2 2.982038 1_655
Cu2 Zr2 2.982038 1_555
Cu3 Si1 2.359524 1_556
Cu3 Si1 2.359524 1_456
Cu3 Si2 2.449225 1_555
Cu3 Si0 2.557953 1_555
Cu3 Zr1 2.819552 1_555
Cu3 Zr1 2.819552 1_455
Cu3 Zr2 2.941960 1_566
Cu3 Zr0 2.971210 1_556
Cu3 Zr3 2.982038 1_555
Cu3 Zr3 2.982038 1_455
Si0 Zr2 2.775514 1_556
Si0 Zr3 2.807035 1_545
Si0 Zr3 2.807035 1_445
Si0 Zr1 2.822536 1_555
Si0 Zr1 2.822536 1_455
Si1 Zr3 2.775514 1_554
Si1 Zr2 2.807035 1_565
Si1 Zr2 2.807035 1_665
Si1 Zr0 2.822536 1_555
Si1 Zr0 2.822536 1_655
Si2 Zr0 2.775514 1_555
Si2 Zr1 2.807035 1_555
Si2 Zr1 2.807035 1_455
Si2 Zr3 2.822536 1_455
Si2 Zr3 2.822536 1_555
Si3 Zr1 2.775514 1_555
Si3 Zr0 2.807035 1_555
Si3 Zr0 2.807035 1_655
Si3 Zr2 2.822536 1_555
Si3 Zr2 2.822536 1_655
