# generated using pymatgen
data_He
_symmetry_space_group_name_H-M   'P 1'
_cell_length_a   5.64332997
_cell_length_b   5.64332997
_cell_length_c   5.64332997
_cell_angle_alpha   109.47122063
_cell_angle_beta   109.47122063
_cell_angle_gamma   109.47122063
_symmetry_Int_Tables_number   1
_chemical_formula_structural   He
_chemical_formula_sum   He8
_cell_volume   138.35168219
_cell_formula_units_Z   8
loop_
 _symmetry_equiv_pos_site_id
 _symmetry_equiv_pos_as_xyz
  1  'x, y, z'
loop_
 _atom_site_type_symbol
 _atom_site_label
 _atom_site_symmetry_multiplicity
 _atom_site_fract_x
 _atom_site_fract_y
 _atom_site_fract_z
 _atom_site_occupancy
  He  He0_0  1  0.00000000  0.00000000  0.00000000  1
  He  He0_1  1  0.00000000  0.00000000  0.50000000  1
  He  He0_2  1  0.00000000  0.50000000  0.00000000  1
  He  He0_3  1  0.00000000  0.50000000  0.50000000  1
  He  He0_4  1  0.50000000  0.00000000  0.00000000  1
  He  He0_5  1  0.50000000  0.00000000  0.50000000  1
  He  He0_6  1  0.50000000  0.50000000  0.00000000  1
  He  He0_7  1  0.50000000  0.50000000  0.50000000  1
loop_
_geom_bond_atom_site_label_1
_geom_bond_atom_site_label_2
_geom_bond_distance
_geom_bond_site_symmetry_2
He0_0 He0_2 2.821665 1_555
He0_0 He0_4 2.821665 1_455
He0_0 He0_1 2.821665 1_554
He0_0 He0_7 2.821665 1_555
He0_0 He0_2 2.821665 1_545
He0_0 He0_1 2.821665 1_555
He0_0 He0_7 2.821665 1_444
He0_0 He0_4 2.821665 1_555
He0_0 He0_5 3.258178 1_454
He0_0 He0_5 3.258178 1_555
He0_0 He0_6 3.258178 1_555
He0_0 He0_3 3.258178 1_544
He0_0 He0_6 3.258178 1_445
He0_0 He0_3 3.258178 1_555
He0_1 He0_6 2.821665 1_556
He0_1 He0_5 2.821665 1_555
He0_1 He0_5 2.821665 1_455
He0_1 He0_3 2.821665 1_545
He0_1 He0_6 2.821665 1_445
He0_1 He0_3 2.821665 1_555
He0_1 He0_7 3.258178 1_555
He0_1 He0_4 3.258178 1_556
He0_1 He0_2 3.258178 1_545
He0_1 He0_2 3.258178 1_556
He0_1 He0_7 3.258178 1_445
He0_1 He0_4 3.258178 1_455
He0_2 He0_5 2.821665 1_565
He0_2 He0_6 2.821665 1_555
He0_2 He0_5 2.821665 1_454
He0_2 He0_3 2.821665 1_554
He0_2 He0_6 2.821665 1_455
He0_2 He0_3 2.821665 1_555
He0_2 He0_7 3.258178 1_555
He0_2 He0_4 3.258178 1_565
He0_2 He0_7 3.258178 1_454
He0_2 He0_4 3.258178 1_455
He0_3 He0_4 2.821665 1_566
He0_3 He0_4 2.821665 1_455
He0_3 He0_7 2.821665 1_555
He0_3 He0_7 2.821665 1_455
He0_3 He0_6 3.258178 1_556
He0_3 He0_5 3.258178 1_455
He0_3 He0_6 3.258178 1_455
He0_3 He0_5 3.258178 1_565
He0_4 He0_6 2.821665 1_555
He0_4 He0_5 2.821665 1_555
He0_4 He0_5 2.821665 1_554
He0_4 He0_6 2.821665 1_545
He0_4 He0_7 3.258178 1_555
He0_4 He0_7 3.258178 1_544
He0_5 He0_7 2.821665 1_545
He0_5 He0_7 2.821665 1_555
He0_5 He0_6 3.258178 1_556
He0_5 He0_6 3.258178 1_545
He0_6 He0_7 2.821665 1_555
He0_6 He0_7 2.821665 1_554
