# generated using pymatgen
data_Cd2P3Cl
_symmetry_space_group_name_H-M   'P 1'
_cell_length_a   6.11639198
_cell_length_b   6.11639198
_cell_length_c   7.66724285
_cell_angle_alpha   96.92006244
_cell_angle_beta   96.92006244
_cell_angle_gamma   96.79401101
_symmetry_Int_Tables_number   1
_chemical_formula_structural   Cd2P3Cl
_chemical_formula_sum   'Cd4 P6 Cl2'
_cell_volume   280.09071814
_cell_formula_units_Z   2
loop_
 _symmetry_equiv_pos_site_id
 _symmetry_equiv_pos_as_xyz
  1  'x, y, z'
loop_
 _atom_site_type_symbol
 _atom_site_label
 _atom_site_symmetry_multiplicity
 _atom_site_fract_x
 _atom_site_fract_y
 _atom_site_fract_z
 _atom_site_occupancy
  Cd  Cd0  1  0.33266800  0.64012000  0.56723200  1
  Cd  Cd1  1  0.64012000  0.33266800  0.06723200  1
  Cd  Cd2  1  0.85072500  0.15786900  0.49951700  1
  Cd  Cd3  1  0.15786900  0.85072500  0.99951700  1
  P  P0  1  0.05035200  0.44006900  0.03286600  1
  P  P1  1  0.44006900  0.05035200  0.53286600  1
  P  P2  1  0.31506700  0.40552800  0.24725200  1
  P  P3  1  0.40552800  0.31506700  0.74725200  1
  P  P4  1  0.17554600  0.08518900  0.31849600  1
  P  P5  1  0.08518900  0.17554600  0.81849600  1
  Cl  Cl0  1  0.88054100  0.60832800  0.52663700  1
  Cl  Cl1  1  0.60832800  0.88054100  0.02663700  1
loop_
_geom_bond_atom_site_label_1
_geom_bond_atom_site_label_2
_geom_bond_distance
_geom_bond_site_symmetry_2
Cd0 P1 2.570560 1_565
Cd0 P3 2.603674 1_555
Cd0 P2 2.672254 1_555
Cd0 Cl0 2.726321 1_455
Cd0 Cl0 3.428535 1_555
Cd0 Cl1 3.761169 1_556
Cd1 P0 2.570560 1_655
Cd1 P2 2.603674 1_555
Cd1 P3 2.672254 1_554
Cd1 Cl1 2.726321 1_545
Cd1 Cl1 3.428535 1_555
Cd1 Cl0 3.761169 1_555
Cd2 P1 2.571209 1_555
Cd2 P4 2.606880 1_655
Cd2 P5 2.665352 1_655
Cd2 Cl0 2.720563 1_555
Cd2 Cl0 3.417385 1_545
Cd3 P0 2.571209 1_556
Cd3 P5 2.606880 1_565
Cd3 P4 2.665352 1_566
Cd3 Cl1 2.720563 1_556
Cd3 Cl1 3.417385 1_456
P0 P5 2.211279 1_554
P0 P2 2.211636 1_555
P1 P4 2.211279 1_555
P1 P3 2.211636 1_555
P2 P4 2.200040 1_555
P3 P5 2.200040 1_555
