# generated using pymatgen
data_TbCuPb
_symmetry_space_group_name_H-M   'P 1'
_cell_length_a   4.58012341
_cell_length_b   4.58012341
_cell_length_c   7.40532069
_cell_angle_alpha   90.00000000
_cell_angle_beta   90.00000000
_cell_angle_gamma   119.99998862
_symmetry_Int_Tables_number   1
_chemical_formula_structural   TbCuPb
_chemical_formula_sum   'Tb2 Cu2 Pb2'
_cell_volume   134.53302659
_cell_formula_units_Z   2
loop_
 _symmetry_equiv_pos_site_id
 _symmetry_equiv_pos_as_xyz
  1  'x, y, z'
loop_
 _atom_site_type_symbol
 _atom_site_label
 _atom_site_symmetry_multiplicity
 _atom_site_fract_x
 _atom_site_fract_y
 _atom_site_fract_z
 _atom_site_occupancy
  Tb  Tb0  1  -0.00000000  -0.00000000  0.99584545  1
  Tb  Tb1  1  -0.00000000  -0.00000000  0.49584545  1
  Cu  Cu0  1  0.66666700  0.33333300  0.32422212  1
  Cu  Cu1  1  0.33333300  0.66666700  0.82422212  1
  Pb  Pb0  1  0.33333300  0.66666700  0.22583243  1
  Pb  Pb1  1  0.66666700  0.33333300  0.72583243  1
loop_
_geom_bond_atom_site_label_1
_geom_bond_atom_site_label_2
_geom_bond_distance
_geom_bond_site_symmetry_2
Tb0 Tb1 3.702660 1_555
Tb0 Tb1 3.702660 1_556
Cu0 Pb0 2.742876 1_545
Cu0 Pb0 2.742876 1_655
Cu0 Pb0 2.742883 1_555
Cu0 Tb1 2.933896 1_655
Cu0 Tb1 2.933900 1_555
Cu0 Tb1 2.933900 1_665
Cu0 Pb1 2.974053 1_555
Cu0 Tb0 3.592468 1_654
Cu0 Tb0 3.592472 1_554
Cu0 Tb0 3.592472 1_664
Cu1 Pb1 2.742876 1_455
Cu1 Pb1 2.742876 1_565
Cu1 Pb1 2.742883 1_555
Cu1 Tb0 2.933896 1_565
Cu1 Tb0 2.933900 1_665
Cu1 Tb0 2.933900 1_555
Cu1 Pb0 2.974053 1_556
Cu1 Tb1 3.592468 1_565
Cu1 Tb1 3.592472 1_665
Cu1 Tb1 3.592472 1_555
Pb0 Tb0 3.145336 1_564
Pb0 Tb0 3.145340 1_554
Pb0 Tb0 3.145340 1_664
Pb0 Tb1 3.315212 1_565
Pb0 Tb1 3.315215 1_555
Pb0 Tb1 3.315215 1_665
Pb1 Tb1 3.145336 1_655
Pb1 Tb1 3.145340 1_555
Pb1 Tb1 3.145340 1_665
Pb1 Tb0 3.315212 1_655
Pb1 Tb0 3.315215 1_665
Pb1 Tb0 3.315215 1_555
