# generated using pymatgen
data_Pr2I5
_symmetry_space_group_name_H-M   'P 1'
_cell_length_a   8.75472452
_cell_length_b   18.04193596
_cell_length_c   29.60288213
_cell_angle_alpha   92.33346013
_cell_angle_beta   90.00000000
_cell_angle_gamma   90.00000000
_symmetry_Int_Tables_number   1
_chemical_formula_structural   Pr2I5
_chemical_formula_sum   'Pr32 I80'
_cell_volume   4671.96248026
_cell_formula_units_Z   16
loop_
 _symmetry_equiv_pos_site_id
 _symmetry_equiv_pos_as_xyz
  1  'x, y, z'
loop_
 _atom_site_type_symbol
 _atom_site_label
 _atom_site_symmetry_multiplicity
 _atom_site_fract_x
 _atom_site_fract_y
 _atom_site_fract_z
 _atom_site_occupancy
  Pr  Pr0_0  1  0.37500000  0.44968662  0.42320627  1
  Pr  Pr0_1  1  0.37500000  0.44968662  0.92320627  1
  Pr  Pr0_2  1  0.37500000  0.94968662  0.42320627  1
  Pr  Pr0_3  1  0.37500000  0.94968661  0.92320627  1
  Pr  Pr0_4  1  0.87500000  0.44968662  0.42320627  1
  Pr  Pr0_5  1  0.87500000  0.44968662  0.92320627  1
  Pr  Pr0_6  1  0.87500000  0.94968662  0.42320627  1
  Pr  Pr0_7  1  0.87500000  0.94968661  0.92320627  1
  Pr  Pr1_0  1  0.12500000  0.05031338  0.07679374  1
  Pr  Pr1_1  1  0.12500000  0.05031339  0.57679373  1
  Pr  Pr1_2  1  0.12500000  0.55031338  0.07679374  1
  Pr  Pr1_3  1  0.12500000  0.55031338  0.57679374  1
  Pr  Pr1_4  1  0.62500000  0.05031338  0.07679374  1
  Pr  Pr1_5  1  0.62500000  0.05031339  0.57679373  1
  Pr  Pr1_6  1  0.62500000  0.55031338  0.07679374  1
  Pr  Pr1_7  1  0.62500000  0.55031338  0.57679374  1
  Pr  Pr2_0  1  0.37500000  0.20739979  0.17091421  1
  Pr  Pr2_1  1  0.37500000  0.20739979  0.67091421  1
  Pr  Pr2_2  1  0.37500000  0.70739979  0.17091421  1
  Pr  Pr2_3  1  0.37500000  0.70739979  0.67091421  1
  Pr  Pr2_4  1  0.87500000  0.20739979  0.17091421  1
  Pr  Pr2_5  1  0.87500000  0.20739979  0.67091421  1
  Pr  Pr2_6  1  0.87500000  0.70739979  0.17091421  1
  Pr  Pr2_7  1  0.87500000  0.70739979  0.67091421  1
  Pr  Pr3_0  1  0.12500000  0.29260021  0.32908579  1
  Pr  Pr3_1  1  0.12500000  0.29260021  0.82908579  1
  Pr  Pr3_2  1  0.12500000  0.79260021  0.32908579  1
  Pr  Pr3_3  1  0.12500000  0.79260021  0.82908579  1
  Pr  Pr3_4  1  0.62500000  0.29260021  0.32908579  1
  Pr  Pr3_5  1  0.62500000  0.29260021  0.82908579  1
  Pr  Pr3_6  1  0.62500000  0.79260021  0.32908579  1
  Pr  Pr3_7  1  0.62500000  0.79260021  0.82908579  1
  I  I0_0  1  0.37500000  0.17623031  0.35872761  1
  I  I0_1  1  0.37500000  0.17623031  0.85872761  1
  I  I0_2  1  0.37500000  0.67623031  0.35872761  1
  I  I0_3  1  0.37500000  0.67623031  0.85872761  1
  I  I0_4  1  0.87500000  0.17623031  0.35872761  1
  I  I0_5  1  0.87500000  0.17623031  0.85872761  1
  I  I0_6  1  0.87500000  0.67623031  0.35872761  1
  I  I0_7  1  0.87500000  0.67623031  0.85872761  1
  I  I1_0  1  0.12500000  0.32376970  0.14127239  1
  I  I1_1  1  0.12500000  0.32376970  0.64127239  1
  I  I1_2  1  0.12500000  0.82376970  0.14127239  1
  I  I1_3  1  0.12500000  0.82376970  0.64127239  1
  I  I1_4  1  0.62500000  0.32376970  0.14127239  1
  I  I1_5  1  0.62500000  0.32376970  0.64127239  1
  I  I1_6  1  0.62500000  0.82376970  0.14127239  1
  I  I1_7  1  0.62500000  0.82376970  0.64127239  1
  I  I2_0  1  0.37500000  0.43072231  0.03642563  1
  I  I2_1  1  0.37500000  0.43072232  0.53642563  1
  I  I2_2  1  0.37500000  0.93072231  0.03642563  1
  I  I2_3  1  0.37500000  0.93072232  0.53642563  1
  I  I2_4  1  0.87500000  0.43072231  0.03642563  1
  I  I2_5  1  0.87500000  0.43072232  0.53642563  1
  I  I2_6  1  0.87500000  0.93072231  0.03642563  1
  I  I2_7  1  0.87500000  0.93072232  0.53642563  1
  I  I3_0  1  0.12500000  0.06927769  0.46357438  1
  I  I3_1  1  0.12500000  0.06927769  0.96357438  1
  I  I3_2  1  0.12500000  0.56927768  0.46357438  1
  I  I3_3  1  0.12500000  0.56927768  0.96357438  1
  I  I3_4  1  0.62500000  0.06927769  0.46357438  1
  I  I3_5  1  0.62500000  0.06927769  0.96357438  1
  I  I3_6  1  0.62500000  0.56927768  0.46357438  1
  I  I3_7  1  0.62500000  0.56927768  0.96357438  1
  I  I4_0  1  0.12500000  0.15637617  0.24375510  1
  I  I4_1  1  0.12500000  0.15637617  0.74375510  1
  I  I4_2  1  0.12500000  0.65637617  0.24375510  1
  I  I4_3  1  0.12500000  0.65637617  0.74375510  1
  I  I4_4  1  0.62500000  0.15637617  0.24375510  1
  I  I4_5  1  0.62500000  0.15637617  0.74375510  1
  I  I4_6  1  0.62500000  0.65637617  0.24375510  1
  I  I4_7  1  0.62500000  0.65637617  0.74375510  1
  I  I5_0  1  0.37500000  0.34362383  0.25624491  1
  I  I5_1  1  0.37500000  0.34362383  0.75624491  1
  I  I5_2  1  0.37500000  0.84362383  0.25624491  1
  I  I5_3  1  0.37500000  0.84362383  0.75624491  1
  I  I5_4  1  0.87500000  0.34362383  0.25624491  1
  I  I5_5  1  0.87500000  0.34362383  0.75624491  1
  I  I5_6  1  0.87500000  0.84362383  0.25624491  1
  I  I5_7  1  0.87500000  0.84362383  0.75624491  1
  I  I6_0  1  0.12500000  0.47284927  0.34377109  1
  I  I6_1  1  0.12500000  0.47284927  0.84377109  1
  I  I6_2  1  0.12500000  0.97284927  0.34377109  1
  I  I6_3  1  0.12500000  0.97284927  0.84377109  1
  I  I6_4  1  0.62500000  0.47284927  0.34377109  1
  I  I6_5  1  0.62500000  0.47284927  0.84377109  1
  I  I6_6  1  0.62500000  0.97284927  0.34377109  1
  I  I6_7  1  0.62500000  0.97284927  0.84377109  1
  I  I7_0  1  0.37500000  0.02715073  0.15622892  1
  I  I7_1  1  0.37500000  0.02715073  0.65622892  1
  I  I7_2  1  0.37500000  0.52715073  0.15622891  1
  I  I7_3  1  0.37500000  0.52715073  0.65622892  1
  I  I7_4  1  0.87500000  0.02715073  0.15622892  1
  I  I7_5  1  0.87500000  0.02715073  0.65622892  1
  I  I7_6  1  0.87500000  0.52715073  0.15622891  1
  I  I7_7  1  0.87500000  0.52715073  0.65622892  1
  I  I8_0  1  0.12500000  0.32144090  0.43895380  1
  I  I8_1  1  0.12500000  0.32144090  0.93895380  1
  I  I8_2  1  0.12500000  0.82144090  0.43895380  1
  I  I8_3  1  0.12500000  0.82144090  0.93895380  1
  I  I8_4  1  0.62500000  0.32144090  0.43895380  1
  I  I8_5  1  0.62500000  0.32144090  0.93895380  1
  I  I8_6  1  0.62500000  0.82144090  0.43895380  1
  I  I8_7  1  0.62500000  0.82144090  0.93895380  1
  I  I9_0  1  0.37500000  0.17855910  0.06104620  1
  I  I9_1  1  0.37500000  0.17855910  0.56104620  1
  I  I9_2  1  0.37500000  0.67855910  0.06104620  1
  I  I9_3  1  0.37500000  0.67855910  0.56104620  1
  I  I9_4  1  0.87500000  0.17855910  0.06104620  1
  I  I9_5  1  0.87500000  0.17855910  0.56104620  1
  I  I9_6  1  0.87500000  0.67855910  0.06104620  1
  I  I9_7  1  0.87500000  0.67855910  0.56104620  1
loop_
_geom_bond_atom_site_label_1
_geom_bond_atom_site_label_2
_geom_bond_distance
_geom_bond_site_symmetry_2
I0_0 Pr3_4 3.180941 1_555
I0_0 Pr3_0 3.180941 1_555
I0_0 I4_4 4.050098 1_555
I0_0 I4_0 4.050098 1_555
I0_0 I8_0 4.097281 1_555
I0_0 I8_4 4.097281 1_555
I0_0 I6_6 4.280008 1_545
I0_0 I6_2 4.280008 1_545
I0_0 I3_0 4.316813 1_555
I0_0 I3_4 4.316813 1_555
I0_1 Pr3_5 3.180941 1_555
I0_1 Pr3_1 3.180941 1_555
I0_1 I4_5 4.050098 1_555
I0_1 I4_1 4.050098 1_555
I0_1 I8_1 4.097281 1_555
I0_1 I8_5 4.097281 1_555
I0_1 I6_3 4.280008 1_545
I0_1 I6_7 4.280008 1_545
I0_1 I3_5 4.316813 1_555
I0_1 I3_1 4.316813 1_555
I0_2 Pr3_6 3.180941 1_555
I0_2 Pr3_2 3.180941 1_555
I0_2 I4_2 4.050098 1_555
I0_2 I4_6 4.050098 1_555
I0_2 I8_6 4.097281 1_555
I0_2 I8_2 4.097281 1_555
I0_2 I6_4 4.280008 1_555
I0_2 I6_0 4.280008 1_555
I0_2 I3_6 4.316813 1_555
I0_2 I3_2 4.316813 1_555
I0_3 Pr3_7 3.180941 1_555
I0_3 Pr3_3 3.180941 1_555
I0_3 I4_3 4.050098 1_555
I0_3 I4_7 4.050098 1_555
I0_3 I8_7 4.097281 1_555
I0_3 I8_3 4.097281 1_555
I0_3 I6_5 4.280008 1_555
I0_3 I6_1 4.280008 1_555
I0_3 I3_7 4.316813 1_555
I0_3 I3_3 4.316813 1_555
I0_4 Pr3_0 3.180941 1_655
I0_4 Pr3_4 3.180941 1_555
I0_4 I4_0 4.050098 1_655
I0_4 I4_4 4.050098 1_555
I0_4 I8_0 4.097281 1_655
I0_4 I8_4 4.097281 1_555
I0_4 I6_2 4.280008 1_645
I0_4 I6_6 4.280008 1_545
I0_4 I3_0 4.316813 1_655
I0_4 I3_4 4.316813 1_555
I0_5 Pr3_1 3.180941 1_655
I0_5 Pr3_5 3.180941 1_555
I0_5 I4_1 4.050098 1_655
I0_5 I4_5 4.050098 1_555
I0_5 I8_1 4.097281 1_655
I0_5 I8_5 4.097281 1_555
I0_5 I6_3 4.280008 1_645
I0_5 I6_7 4.280008 1_545
I0_5 I3_1 4.316813 1_655
I0_5 I3_5 4.316813 1_555
I0_6 Pr3_2 3.180941 1_655
I0_6 Pr3_6 3.180941 1_555
I0_6 I4_2 4.050098 1_655
I0_6 I4_6 4.050098 1_555
I0_6 I8_2 4.097281 1_655
I0_6 I8_6 4.097281 1_555
I0_6 I6_0 4.280008 1_655
I0_6 I6_4 4.280008 1_555
I0_6 I3_2 4.316813 1_655
I0_6 I3_6 4.316813 1_555
I0_7 Pr3_3 3.180941 1_655
I0_7 Pr3_7 3.180941 1_555
I0_7 I4_3 4.050098 1_655
I0_7 I4_7 4.050098 1_555
I0_7 I8_3 4.097281 1_655
I0_7 I8_7 4.097281 1_555
I0_7 I6_1 4.280008 1_655
I0_7 I6_5 4.280008 1_555
I0_7 I3_3 4.316813 1_655
I0_7 I3_7 4.316813 1_555
I1_0 Pr2_0 3.180941 1_555
I1_0 Pr2_4 3.180941 1_455
I1_0 I5_4 4.050098 1_455
I1_0 I5_0 4.050098 1_555
I1_0 I9_4 4.097281 1_455
I1_0 I9_0 4.097281 1_555
I1_0 I7_6 4.280008 1_455
I1_0 I7_2 4.280008 1_555
I1_0 I2_0 4.316813 1_555
I1_0 I2_4 4.316813 1_455
I1_1 Pr2_1 3.180941 1_555
I1_1 Pr2_5 3.180941 1_455
I1_1 I5_5 4.050098 1_455
I1_1 I5_1 4.050098 1_555
I1_1 I9_5 4.097281 1_455
I1_1 I9_1 4.097281 1_555
I1_1 I7_7 4.280008 1_455
I1_1 I7_3 4.280008 1_555
I1_1 I2_5 4.316813 1_455
I1_1 I2_1 4.316813 1_555
I1_2 Pr2_2 3.180941 1_555
I1_2 Pr2_6 3.180941 1_455
I1_2 I5_6 4.050098 1_455
I1_2 I5_2 4.050098 1_555
I1_2 I9_6 4.097281 1_455
I1_2 I9_2 4.097281 1_555
I1_2 I7_0 4.280008 1_565
I1_2 I7_4 4.280008 1_465
I1_2 I2_2 4.316813 1_555
I1_2 I2_6 4.316813 1_455
I1_3 Pr2_3 3.180941 1_555
I1_3 Pr2_7 3.180941 1_455
I1_3 I5_7 4.050098 1_455
I1_3 I5_3 4.050098 1_555
I1_3 I9_7 4.097281 1_455
I1_3 I9_3 4.097281 1_555
I1_3 I7_5 4.280008 1_465
I1_3 I7_1 4.280008 1_565
I1_3 I2_3 4.316813 1_555
I1_3 I2_7 4.316813 1_455
I1_4 Pr2_0 3.180941 1_555
I1_4 Pr2_4 3.180941 1_555
I1_4 I5_0 4.050098 1_555
I1_4 I5_4 4.050098 1_555
I1_4 I9_0 4.097281 1_555
I1_4 I9_4 4.097281 1_555
I1_4 I7_2 4.280008 1_555
I1_4 I7_6 4.280008 1_555
I1_4 I2_0 4.316813 1_555
I1_4 I2_4 4.316813 1_555
I1_5 Pr2_1 3.180941 1_555
I1_5 Pr2_5 3.180941 1_555
I1_5 I5_1 4.050098 1_555
I1_5 I5_5 4.050098 1_555
I1_5 I9_1 4.097281 1_555
I1_5 I9_5 4.097281 1_555
I1_5 I7_3 4.280008 1_555
I1_5 I7_7 4.280008 1_555
I1_5 I2_1 4.316813 1_555
I1_5 I2_5 4.316813 1_555
I1_6 Pr2_2 3.180941 1_555
I1_6 Pr2_6 3.180941 1_555
I1_6 I5_2 4.050098 1_555
I1_6 I5_6 4.050098 1_555
I1_6 I9_2 4.097281 1_555
I1_6 I9_6 4.097281 1_555
I1_6 I7_0 4.280008 1_565
I1_6 I7_4 4.280008 1_565
I1_6 I2_2 4.316813 1_555
I1_6 I2_6 4.316813 1_555
I1_7 Pr2_3 3.180941 1_555
I1_7 Pr2_7 3.180941 1_555
I1_7 I5_3 4.050098 1_555
I1_7 I5_7 4.050098 1_555
I1_7 I9_3 4.097281 1_555
I1_7 I9_7 4.097281 1_555
I1_7 I7_1 4.280008 1_565
I1_7 I7_5 4.280008 1_565
I1_7 I2_3 4.316813 1_555
I1_7 I2_7 4.316813 1_555
I2_0 Pr1_6 3.265561 1_555
I2_0 Pr1_2 3.265561 1_555
I2_0 Pr0_1 3.382869 1_554
I2_0 I7_2 3.886147 1_555
I2_0 I3_3 4.016132 1_554
I2_0 I3_7 4.016132 1_554
I2_0 I8_1 4.066972 1_554
I2_0 I8_5 4.066972 1_554
I2_0 I2_4 4.377362 1_555
I2_0 I2_4 4.377362 1_455
I2_1 Pr1_7 3.265561 1_555
I2_1 Pr1_3 3.265561 1_555
I2_1 Pr0_0 3.382869 1_555
I2_1 I7_3 3.886147 1_555
I2_1 I3_2 4.016132 1_555
I2_1 I3_6 4.016132 1_555
I2_1 I8_0 4.066972 1_555
I2_1 I8_4 4.066972 1_555
I2_1 I2_5 4.377362 1_555
I2_1 I2_5 4.377362 1_455
I2_2 Pr1_4 3.265561 1_565
I2_2 Pr1_0 3.265561 1_565
I2_2 Pr0_3 3.382869 1_554
I2_2 I7_0 3.886147 1_565
I2_2 I3_5 4.016132 1_564
I2_2 I3_1 4.016132 1_564
I2_2 I8_7 4.066972 1_554
I2_2 I8_3 4.066972 1_554
I2_2 I2_6 4.377362 1_555
I2_2 I2_6 4.377362 1_455
I2_3 Pr1_5 3.265561 1_565
I2_3 Pr1_1 3.265561 1_565
I2_3 Pr0_2 3.382869 1_555
I2_3 I7_1 3.886147 1_565
I2_3 I3_4 4.016132 1_565
I2_3 I3_0 4.016132 1_565
I2_3 I8_6 4.066972 1_555
I2_3 I8_2 4.066972 1_555
I2_3 I2_7 4.377362 1_555
I2_3 I2_7 4.377362 1_455
I2_4 Pr1_2 3.265561 1_655
I2_4 Pr1_6 3.265561 1_555
I2_4 Pr0_5 3.382869 1_554
I2_4 I7_6 3.886147 1_555
I2_4 I3_3 4.016132 1_654
I2_4 I3_7 4.016132 1_554
I2_4 I8_5 4.066972 1_554
I2_4 I8_1 4.066972 1_654
I2_5 Pr1_3 3.265561 1_655
I2_5 Pr1_7 3.265561 1_555
I2_5 Pr0_4 3.382869 1_555
I2_5 I7_7 3.886147 1_555
I2_5 I3_2 4.016132 1_655
I2_5 I3_6 4.016132 1_555
I2_5 I8_0 4.066972 1_655
I2_5 I8_4 4.066972 1_555
I2_6 Pr1_0 3.265561 1_665
I2_6 Pr1_4 3.265561 1_565
I2_6 Pr0_7 3.382869 1_554
I2_6 I7_4 3.886147 1_565
I2_6 I3_5 4.016132 1_564
I2_6 I3_1 4.016132 1_664
I2_6 I8_3 4.066972 1_654
I2_6 I8_7 4.066972 1_554
I2_7 Pr1_1 3.265561 1_665
I2_7 Pr1_5 3.265561 1_565
I2_7 Pr0_6 3.382869 1_555
I2_7 I7_5 3.886147 1_565
I2_7 I3_0 4.016132 1_665
I2_7 I3_4 4.016132 1_565
I2_7 I8_2 4.066972 1_655
I2_7 I8_6 4.066972 1_555
I3_0 Pr0_6 3.265561 1_445
I3_0 Pr0_2 3.265561 1_545
I3_0 Pr1_1 3.382869 1_555
I3_0 I6_2 3.886147 1_545
I3_0 I9_5 4.066972 1_455
I3_0 I9_1 4.066972 1_555
I3_0 I3_4 4.377362 1_555
I3_0 I3_4 4.377362 1_455
I3_1 Pr0_3 3.265561 1_545
I3_1 Pr0_7 3.265561 1_445
I3_1 Pr1_0 3.382869 1_556
I3_1 I6_3 3.886147 1_545
I3_1 I9_0 4.066972 1_556
I3_1 I9_4 4.066972 1_456
I3_1 I3_5 4.377362 1_555
I3_1 I3_5 4.377362 1_455
I3_2 Pr0_4 3.265561 1_455
I3_2 Pr0_0 3.265561 1_555
I3_2 Pr1_3 3.382869 1_555
I3_2 I6_0 3.886147 1_555
I3_2 I9_3 4.066972 1_555
I3_2 I9_7 4.066972 1_455
I3_2 I3_6 4.377362 1_555
I3_2 I3_6 4.377362 1_455
I3_3 Pr0_5 3.265561 1_455
I3_3 Pr0_1 3.265561 1_555
I3_3 Pr1_2 3.382869 1_556
I3_3 I6_1 3.886147 1_555
I3_3 I9_6 4.066972 1_456
I3_3 I9_2 4.066972 1_556
I3_3 I3_7 4.377362 1_555
I3_3 I3_7 4.377362 1_455
I3_4 Pr0_2 3.265561 1_545
I3_4 Pr0_6 3.265561 1_545
I3_4 Pr1_5 3.382869 1_555
I3_4 I6_6 3.886147 1_545
I3_4 I9_1 4.066972 1_555
I3_4 I9_5 4.066972 1_555
I3_5 Pr0_3 3.265561 1_545
I3_5 Pr0_7 3.265561 1_545
I3_5 Pr1_4 3.382869 1_556
I3_5 I6_7 3.886147 1_545
I3_5 I9_0 4.066972 1_556
I3_5 I9_4 4.066972 1_556
I3_6 Pr0_0 3.265561 1_555
I3_6 Pr0_4 3.265561 1_555
I3_6 Pr1_7 3.382869 1_555
I3_6 I6_4 3.886147 1_555
I3_6 I9_3 4.066972 1_555
I3_6 I9_7 4.066972 1_555
I3_7 Pr0_1 3.265561 1_555
I3_7 Pr0_5 3.265561 1_555
I3_7 Pr1_6 3.382869 1_556
I3_7 I6_5 3.886147 1_555
I3_7 I9_2 4.066972 1_556
I3_7 I9_6 4.066972 1_556
I4_0 Pr2_4 3.232497 1_455
I4_0 Pr2_0 3.232497 1_555
I4_0 Pr3_0 3.451929 1_555
I4_0 I5_4 4.029677 1_455
I4_0 I5_0 4.029677 1_555
I4_0 I7_0 4.055566 1_555
I4_0 I7_4 4.055566 1_455
I4_0 I4_4 4.377362 1_555
I4_0 I4_4 4.377362 1_455
I4_0 I6_2 4.530821 1_545
I4_1 Pr2_1 3.232497 1_555
I4_1 Pr2_5 3.232497 1_455
I4_1 Pr3_1 3.451929 1_555
I4_1 I5_1 4.029677 1_555
I4_1 I5_5 4.029677 1_455
I4_1 I7_1 4.055566 1_555
I4_1 I7_5 4.055566 1_455
I4_1 I4_5 4.377362 1_555
I4_1 I4_5 4.377362 1_455
I4_1 I6_3 4.530821 1_545
I4_2 Pr2_6 3.232497 1_455
I4_2 Pr2_2 3.232497 1_555
I4_2 Pr3_2 3.451929 1_555
I4_2 I5_2 4.029677 1_555
I4_2 I5_6 4.029677 1_455
I4_2 I7_6 4.055566 1_455
I4_2 I7_2 4.055566 1_555
I4_2 I4_6 4.377362 1_555
I4_2 I4_6 4.377362 1_455
I4_2 I6_0 4.530821 1_555
I4_3 Pr2_3 3.232497 1_555
I4_3 Pr2_7 3.232497 1_455
I4_3 Pr3_3 3.451929 1_555
I4_3 I5_3 4.029677 1_555
I4_3 I5_7 4.029677 1_455
I4_3 I7_3 4.055566 1_555
I4_3 I7_7 4.055566 1_455
I4_3 I4_7 4.377362 1_555
I4_3 I4_7 4.377362 1_455
I4_3 I6_1 4.530821 1_555
I4_4 Pr2_0 3.232497 1_555
I4_4 Pr2_4 3.232497 1_555
I4_4 Pr3_4 3.451929 1_555
I4_4 I5_0 4.029677 1_555
I4_4 I5_4 4.029677 1_555
I4_4 I7_0 4.055566 1_555
I4_4 I7_4 4.055566 1_555
I4_4 I6_6 4.530821 1_545
I4_5 Pr2_1 3.232497 1_555
I4_5 Pr2_5 3.232497 1_555
I4_5 Pr3_5 3.451929 1_555
I4_5 I5_1 4.029677 1_555
I4_5 I5_5 4.029677 1_555
I4_5 I7_1 4.055566 1_555
I4_5 I7_5 4.055566 1_555
I4_5 I6_7 4.530821 1_545
I4_6 Pr2_2 3.232497 1_555
I4_6 Pr2_6 3.232497 1_555
I4_6 Pr3_6 3.451929 1_555
I4_6 I5_2 4.029677 1_555
I4_6 I5_6 4.029677 1_555
I4_6 I7_2 4.055566 1_555
I4_6 I7_6 4.055566 1_555
I4_6 I6_4 4.530821 1_555
I4_7 Pr2_3 3.232497 1_555
I4_7 Pr2_7 3.232497 1_555
I4_7 Pr3_7 3.451929 1_555
I4_7 I5_3 4.029677 1_555
I4_7 I5_7 4.029677 1_555
I4_7 I7_3 4.055566 1_555
I4_7 I7_7 4.055566 1_555
I4_7 I6_5 4.530821 1_555
I5_0 Pr3_4 3.232497 1_555
I5_0 Pr3_0 3.232497 1_555
I5_0 Pr2_0 3.451929 1_555
I5_0 I6_4 4.055566 1_555
I5_0 I6_0 4.055566 1_555
I5_0 I5_4 4.377362 1_555
I5_0 I5_4 4.377362 1_455
I5_0 I7_2 4.530821 1_555
I5_1 Pr3_5 3.232497 1_555
I5_1 Pr3_1 3.232497 1_555
I5_1 Pr2_1 3.451929 1_555
I5_1 I6_5 4.055566 1_555
I5_1 I6_1 4.055566 1_555
I5_1 I5_5 4.377362 1_455
I5_1 I5_5 4.377362 1_555
I5_1 I7_3 4.530821 1_555
I5_2 Pr3_6 3.232497 1_555
I5_2 Pr3_2 3.232497 1_555
I5_2 Pr2_2 3.451929 1_555
I5_2 I6_6 4.055566 1_555
I5_2 I6_2 4.055566 1_555
I5_2 I5_6 4.377362 1_455
I5_2 I5_6 4.377362 1_555
I5_2 I7_0 4.530821 1_565
I5_3 Pr3_7 3.232497 1_555
I5_3 Pr3_3 3.232497 1_555
I5_3 Pr2_3 3.451929 1_555
I5_3 I6_7 4.055566 1_555
I5_3 I6_3 4.055566 1_555
I5_3 I5_7 4.377362 1_555
I5_3 I5_7 4.377362 1_455
I5_3 I7_1 4.530821 1_565
I5_4 Pr3_0 3.232497 1_655
I5_4 Pr3_4 3.232497 1_555
I5_4 Pr2_4 3.451929 1_555
I5_4 I6_0 4.055566 1_655
I5_4 I6_4 4.055566 1_555
I5_4 I7_6 4.530821 1_555
I5_5 Pr3_1 3.232497 1_655
I5_5 Pr3_5 3.232497 1_555
I5_5 Pr2_5 3.451929 1_555
I5_5 I6_1 4.055566 1_655
I5_5 I6_5 4.055566 1_555
I5_5 I7_7 4.530821 1_555
I5_6 Pr3_2 3.232497 1_655
I5_6 Pr3_6 3.232497 1_555
I5_6 Pr2_6 3.451929 1_555
I5_6 I6_2 4.055566 1_655
I5_6 I6_6 4.055566 1_555
I5_6 I7_4 4.530821 1_565
I5_7 Pr3_3 3.232497 1_655
I5_7 Pr3_7 3.232497 1_555
I5_7 Pr2_7 3.451929 1_555
I5_7 I6_3 4.055566 1_655
I5_7 I6_7 4.055566 1_555
I5_7 I7_5 4.530821 1_565
I6_0 Pr0_4 3.251859 1_455
I6_0 Pr0_0 3.251859 1_555
I6_0 Pr3_0 3.263379 1_555
I6_0 I6_4 4.377362 1_555
I6_0 I6_4 4.377362 1_455
I6_1 Pr0_1 3.251859 1_555
I6_1 Pr0_5 3.251859 1_455
I6_1 Pr3_1 3.263379 1_555
I6_1 I6_5 4.377362 1_555
I6_1 I6_5 4.377362 1_455
I6_2 Pr0_2 3.251859 1_555
I6_2 Pr0_6 3.251859 1_455
I6_2 Pr3_2 3.263379 1_555
I6_2 I6_6 4.377362 1_555
I6_2 I6_6 4.377362 1_455
I6_3 Pr0_7 3.251859 1_455
I6_3 Pr0_3 3.251859 1_555
I6_3 Pr3_3 3.263379 1_555
I6_3 I6_7 4.377362 1_555
I6_3 I6_7 4.377362 1_455
I6_4 Pr0_0 3.251859 1_555
I6_4 Pr0_4 3.251859 1_555
I6_4 Pr3_4 3.263379 1_555
I6_5 Pr0_1 3.251859 1_555
I6_5 Pr0_5 3.251859 1_555
I6_5 Pr3_5 3.263379 1_555
I6_6 Pr0_2 3.251859 1_555
I6_6 Pr0_6 3.251859 1_555
I6_6 Pr3_6 3.263379 1_555
I6_7 Pr0_3 3.251859 1_555
I6_7 Pr0_7 3.251859 1_555
I6_7 Pr3_7 3.263379 1_555
I7_0 Pr1_4 3.251859 1_555
I7_0 Pr1_0 3.251859 1_555
I7_0 Pr2_0 3.263379 1_555
I7_0 I7_4 4.377362 1_455
I7_0 I7_4 4.377362 1_555
I7_1 Pr1_5 3.251859 1_555
I7_1 Pr1_1 3.251859 1_555
I7_1 Pr2_1 3.263379 1_555
I7_1 I7_5 4.377362 1_455
I7_1 I7_5 4.377362 1_555
I7_2 Pr1_6 3.251859 1_555
I7_2 Pr1_2 3.251859 1_555
I7_2 Pr2_2 3.263379 1_555
I7_2 I7_6 4.377362 1_555
I7_2 I7_6 4.377362 1_455
I7_3 Pr1_7 3.251859 1_555
I7_3 Pr1_3 3.251859 1_555
I7_3 Pr2_3 3.263379 1_555
I7_3 I7_7 4.377362 1_455
I7_3 I7_7 4.377362 1_555
I7_4 Pr1_0 3.251859 1_655
I7_4 Pr1_4 3.251859 1_555
I7_4 Pr2_4 3.263379 1_555
I7_5 Pr1_1 3.251859 1_655
I7_5 Pr1_5 3.251859 1_555
I7_5 Pr2_5 3.263379 1_555
I7_6 Pr1_2 3.251859 1_655
I7_6 Pr1_6 3.251859 1_555
I7_6 Pr2_6 3.263379 1_555
I7_7 Pr1_3 3.251859 1_655
I7_7 Pr1_7 3.251859 1_555
I7_7 Pr2_7 3.263379 1_555
I8_0 Pr0_4 3.232515 1_455
I8_0 Pr0_0 3.232515 1_555
I8_0 Pr3_0 3.272784 1_555
I8_0 I8_4 4.377362 1_555
I8_0 I8_4 4.377362 1_455
I8_1 Pr0_5 3.232515 1_455
I8_1 Pr0_1 3.232515 1_555
I8_1 Pr3_1 3.272784 1_555
I8_1 I8_5 4.377362 1_555
I8_1 I8_5 4.377362 1_455
I8_2 Pr0_6 3.232515 1_455
I8_2 Pr0_2 3.232515 1_555
I8_2 Pr3_2 3.272784 1_555
I8_2 I8_6 4.377362 1_555
I8_2 I8_6 4.377362 1_455
I8_3 Pr0_7 3.232515 1_455
I8_3 Pr0_3 3.232515 1_555
I8_3 Pr3_3 3.272784 1_555
I8_3 I8_7 4.377362 1_555
I8_3 I8_7 4.377362 1_455
I8_4 Pr0_0 3.232515 1_555
I8_4 Pr0_4 3.232515 1_555
I8_4 Pr3_4 3.272784 1_555
I8_5 Pr0_1 3.232515 1_555
I8_5 Pr0_5 3.232515 1_555
I8_5 Pr3_5 3.272784 1_555
I8_6 Pr0_2 3.232515 1_555
I8_6 Pr0_6 3.232515 1_555
I8_6 Pr3_6 3.272784 1_555
I8_7 Pr0_3 3.232515 1_555
I8_7 Pr0_7 3.232515 1_555
I8_7 Pr3_7 3.272784 1_555
I9_0 Pr1_4 3.232515 1_555
I9_0 Pr1_0 3.232515 1_555
I9_0 Pr2_0 3.272784 1_555
I9_0 I9_4 4.377362 1_555
I9_0 I9_4 4.377362 1_455
I9_1 Pr1_5 3.232515 1_555
I9_1 Pr1_1 3.232515 1_555
I9_1 Pr2_1 3.272784 1_555
I9_1 I9_5 4.377362 1_455
I9_1 I9_5 4.377362 1_555
I9_2 Pr1_6 3.232515 1_555
I9_2 Pr1_2 3.232515 1_555
I9_2 Pr2_2 3.272784 1_555
I9_2 I9_6 4.377362 1_455
I9_2 I9_6 4.377362 1_555
I9_3 Pr1_7 3.232515 1_555
I9_3 Pr1_3 3.232515 1_555
I9_3 Pr2_3 3.272784 1_555
I9_3 I9_7 4.377362 1_455
I9_3 I9_7 4.377362 1_555
I9_4 Pr1_0 3.232515 1_655
I9_4 Pr1_4 3.232515 1_555
I9_4 Pr2_4 3.272784 1_555
I9_5 Pr1_1 3.232515 1_655
I9_5 Pr1_5 3.232515 1_555
I9_5 Pr2_5 3.272784 1_555
I9_6 Pr1_2 3.232515 1_655
I9_6 Pr1_6 3.232515 1_555
I9_6 Pr2_6 3.272784 1_555
I9_7 Pr1_3 3.232515 1_655
I9_7 Pr1_7 3.232515 1_555
I9_7 Pr2_7 3.272784 1_555
