# generated using pymatgen
data_Fe4P9O32
_symmetry_space_group_name_H-M   'P 1'
_cell_length_a   14.16400400
_cell_length_b   14.16400400
_cell_length_c   6.39979300
_cell_angle_alpha   90.00000000
_cell_angle_beta   90.00000000
_cell_angle_gamma   90.00000000
_symmetry_Int_Tables_number   1
_chemical_formula_structural   Fe4P9O32
_chemical_formula_sum   'Fe8 P18 O64'
_cell_volume   1283.92013146
_cell_formula_units_Z   2
loop_
 _symmetry_equiv_pos_site_id
 _symmetry_equiv_pos_as_xyz
  1  'x, y, z'
loop_
 _atom_site_type_symbol
 _atom_site_label
 _atom_site_symmetry_multiplicity
 _atom_site_fract_x
 _atom_site_fract_y
 _atom_site_fract_z
 _atom_site_occupancy
  Fe  Fe0  1  0.30131200  0.61909500  0.87490600  1
  Fe  Fe1  1  0.88090500  0.19868800  0.37490600  1
  Fe  Fe2  1  0.11909500  0.80131200  0.37490600  1
  Fe  Fe3  1  0.69868800  0.38090500  0.87490600  1
  Fe  Fe4  1  0.38090500  0.30131200  0.12509400  1
  Fe  Fe5  1  0.61909500  0.69868800  0.12509400  1
  Fe  Fe6  1  0.19868800  0.11909500  0.62509400  1
  Fe  Fe7  1  0.80131200  0.88090500  0.62509400  1
  P  P0  1  0.89245500  0.24674600  0.86470800  1
  P  P1  1  0.94039200  0.70026600  0.61652300  1
  P  P2  1  0.70026600  0.05960800  0.38347700  1
  P  P3  1  0.24674600  0.10754500  0.13529200  1
  P  P4  1  0.20026600  0.44039200  0.11652300  1
  P  P5  1  0.79973400  0.55960800  0.11652300  1
  P  P6  1  0.50000000  0.50000000  0.00000000  1
  P  P7  1  0.44039200  0.79973400  0.88347700  1
  P  P8  1  0.39245500  0.25325400  0.63529200  1
  P  P9  1  0.29973400  0.94039200  0.38347700  1
  P  P10  1  0.55960800  0.20026600  0.88347700  1
  P  P11  1  0.75325400  0.89245500  0.13529200  1
  P  P12  1  0.74674600  0.39245500  0.36470800  1
  P  P13  1  0.60754500  0.74674600  0.63529200  1
  P  P14  1  0.10754500  0.75325400  0.86470800  1
  P  P15  1  0.00000000  0.00000000  0.50000000  1
  P  P16  1  0.05960800  0.29973400  0.61652300  1
  P  P17  1  0.25325400  0.60754500  0.36470800  1
  O  O0  1  0.66281000  0.83367000  0.12596800  1
  O  O1  1  0.06097600  0.93394500  0.36087400  1
  O  O2  1  0.75916500  0.50719900  0.92764800  1
  O  O3  1  0.50073600  0.22102500  0.67267700  1
  O  O4  1  0.00073600  0.27897500  0.82732300  1
  O  O5  1  0.33367000  0.16281000  0.62596800  1
  O  O6  1  0.81791300  0.86560300  0.31838400  1
  O  O7  1  0.27897500  0.99926400  0.17267700  1
  O  O8  1  0.33719000  0.16633000  0.12596800  1
  O  O9  1  0.18208700  0.13439700  0.31838400  1
  O  O10  1  0.36560300  0.31791300  0.81838400  1
  O  O11  1  0.83719000  0.33367000  0.37403200  1
  O  O12  1  0.10614300  0.80812200  0.06854900  1
  O  O13  1  0.84343000  0.74485200  0.64989300  1
  O  O14  1  0.13439700  0.81791300  0.68161600  1
  O  O15  1  0.60614300  0.69187800  0.43145100  1
  O  O16  1  0.16633000  0.66281000  0.87403200  1
  O  O17  1  0.15657000  0.25514800  0.64989300  1
  O  O18  1  0.57134000  0.09308700  0.90608700  1
  O  O19  1  0.92866000  0.59308700  0.59391300  1
  O  O20  1  0.07134000  0.40691300  0.59391300  1
  O  O21  1  0.90691300  0.57134000  0.09391300  1
  O  O22  1  0.74083500  0.00719900  0.57235200  1
  O  O23  1  0.77897500  0.50073600  0.32732300  1
  O  O24  1  0.25916500  0.99280100  0.57235200  1
  O  O25  1  0.24083500  0.49280100  0.92764800  1
  O  O26  1  0.93902400  0.06605500  0.36087400  1
  O  O27  1  0.09308700  0.42866000  0.09391300  1
  O  O28  1  0.93394500  0.93902400  0.63912600  1
  O  O29  1  0.66633000  0.83719000  0.62596800  1
  O  O30  1  0.56097600  0.56605500  0.13912600  1
  O  O31  1  0.86560300  0.18208700  0.68161600  1
  O  O32  1  0.40691300  0.92866000  0.40608700  1
  O  O33  1  0.30812200  0.60614300  0.56854900  1
  O  O34  1  0.34343000  0.75514800  0.85010700  1
  O  O35  1  0.24485200  0.34343000  0.14989300  1
  O  O36  1  0.89385700  0.19187800  0.06854900  1
  O  O37  1  0.63439700  0.68208700  0.81838400  1
  O  O38  1  0.99926400  0.72102500  0.82732300  1
  O  O39  1  0.19187800  0.10614300  0.93145100  1
  O  O40  1  0.00719900  0.25916500  0.42764800  1
  O  O41  1  0.80812200  0.89385700  0.93145100  1
  O  O42  1  0.59308700  0.07134000  0.40608700  1
  O  O43  1  0.69187800  0.39385700  0.56854900  1
  O  O44  1  0.50719900  0.24083500  0.07235200  1
  O  O45  1  0.42866000  0.90691300  0.90608700  1
  O  O46  1  0.83367000  0.33719000  0.87403200  1
  O  O47  1  0.75514800  0.65657000  0.14989300  1
  O  O48  1  0.68208700  0.36560300  0.18161600  1
  O  O49  1  0.39385700  0.30812200  0.43145100  1
  O  O50  1  0.65657000  0.24485200  0.85010700  1
  O  O51  1  0.16281000  0.66633000  0.37403200  1
  O  O52  1  0.72102500  0.00073600  0.17267700  1
  O  O53  1  0.43902400  0.43394500  0.13912600  1
  O  O54  1  0.31791300  0.63439700  0.18161600  1
  O  O55  1  0.49280100  0.75916500  0.07235200  1
  O  O56  1  0.43394500  0.56097600  0.86087400  1
  O  O57  1  0.06605500  0.06097600  0.63912600  1
  O  O58  1  0.56605500  0.43902400  0.86087400  1
  O  O59  1  0.22102500  0.49926400  0.32732300  1
  O  O60  1  0.25514800  0.84343000  0.35010700  1
  O  O61  1  0.74485200  0.15657000  0.35010700  1
  O  O62  1  0.49926400  0.77897500  0.67267700  1
  O  O63  1  0.99280100  0.74083500  0.42764800  1
loop_
_geom_bond_atom_site_label_1
_geom_bond_atom_site_label_2
_geom_bond_distance
_geom_bond_site_symmetry_2
Fe0 O33 1.971546 1_555
Fe0 O54 1.988759 1_556
Fe0 O16 2.009657 1_555
Fe0 O25 2.011864 1_555
Fe0 O34 2.023515 1_555
Fe0 O56 2.053025 1_555
Fe1 O36 1.971546 1_555
Fe1 O31 1.988759 1_555
Fe1 O11 2.009657 1_555
Fe1 O40 2.011864 1_655
Fe1 O61 2.023515 1_555
Fe1 O26 2.053025 1_555
Fe2 O12 1.971546 1_555
Fe2 O14 1.988759 1_555
Fe2 O51 2.009657 1_555
Fe2 O63 2.011864 1_455
Fe2 O60 2.023515 1_555
Fe2 O1 2.053025 1_555
Fe3 O43 1.971546 1_555
Fe3 O48 1.988759 1_556
Fe3 O46 2.009657 1_555
Fe3 O2 2.011864 1_555
Fe3 O50 2.023515 1_555
Fe3 O58 2.053025 1_555
Fe4 O49 1.971546 1_555
Fe4 O10 1.988759 1_554
Fe4 O8 2.009657 1_555
Fe4 O44 2.011864 1_555
Fe4 O35 2.023515 1_555
Fe4 O53 2.053025 1_555
Fe5 O15 1.971546 1_555
Fe5 O37 1.988759 1_554
Fe5 O0 2.009657 1_555
Fe5 O55 2.011864 1_555
Fe5 O47 2.023515 1_555
Fe5 O30 2.053025 1_555
Fe6 O39 1.971546 1_555
Fe6 O9 1.988759 1_555
Fe6 O5 2.009657 1_555
Fe6 O24 2.011864 1_545
Fe6 O17 2.023515 1_555
Fe6 O57 2.053025 1_555
Fe7 O41 1.971546 1_555
Fe7 O6 1.988759 1_555
Fe7 O29 2.009657 1_555
Fe7 O22 2.011864 1_565
Fe7 O13 2.023515 1_555
Fe7 O28 2.053025 1_555
O0 P11 1.529027 1_555
O1 P15 1.553719 1_565
O2 P5 1.530468 1_556
O3 P10 1.613006 1_555
O3 P8 1.617974 1_555
O4 P16 1.613006 1_555
O4 P0 1.617974 1_455
O5 P8 1.529027 1_555
O6 P11 1.535056 1_555
O7 P9 1.613006 1_555
O7 P3 1.617974 1_565
O8 P3 1.529027 1_555
O9 P3 1.535056 1_555
O10 P8 1.535056 1_555
O11 P12 1.529027 1_555
O12 P14 1.518612 1_554
O13 P1 1.526619 1_555
O14 P14 1.535056 1_555
O15 P13 1.518612 1_555
O16 P14 1.529027 1_555
O17 P16 1.526619 1_555
O18 P10 1.533991 1_555
O19 P1 1.533991 1_555
O20 P16 1.533991 1_555
O21 P5 1.533991 1_555
O22 P2 1.530468 1_555
O23 P5 1.613006 1_555
O23 P12 1.617974 1_555
O24 P9 1.530468 1_555
O25 P4 1.530468 1_556
O26 P15 1.553719 1_655
O27 P4 1.533991 1_555
O28 P15 1.553719 1_665
O29 P13 1.529027 1_555
O30 P6 1.553719 1_555
O31 P0 1.535056 1_555
O32 P9 1.533991 1_555
O33 P17 1.518612 1_555
O34 P7 1.526619 1_555
O35 P4 1.526619 1_555
O36 P0 1.518612 1_554
O37 P13 1.535056 1_555
O38 P1 1.613006 1_555
O38 P14 1.617974 1_655
O39 P3 1.518612 1_556
O40 P16 1.530468 1_555
O41 P11 1.518612 1_556
O42 P2 1.533991 1_555
O43 P12 1.518612 1_555
O44 P10 1.530468 1_554
O45 P7 1.533991 1_555
O46 P0 1.529027 1_555
O47 P5 1.526619 1_555
O48 P12 1.535056 1_555
O49 P8 1.518612 1_555
O50 P10 1.526619 1_555
O51 P17 1.529027 1_555
O52 P2 1.613006 1_555
O52 P11 1.617974 1_545
O53 P6 1.553719 1_555
O54 P17 1.535056 1_555
O55 P7 1.530468 1_554
O56 P6 1.553719 1_556
O57 P15 1.553719 1_555
O58 P6 1.553719 1_556
O59 P4 1.613006 1_555
O59 P17 1.617974 1_555
O60 P9 1.526619 1_555
O61 P2 1.526619 1_555
O62 P7 1.613006 1_555
O62 P13 1.617974 1_555
O63 P1 1.530468 1_555
