# generated using pymatgen
data_Na5HfZn3P3(SO8)3
_symmetry_space_group_name_H-M   'P 1'
_cell_length_a   8.93900261
_cell_length_b   8.95877071
_cell_length_c   22.45227376
_cell_angle_alpha   90.15849401
_cell_angle_beta   89.58291337
_cell_angle_gamma   119.88997765
_symmetry_Int_Tables_number   1
_chemical_formula_structural   Na5HfZn3P3(SO8)3
_chemical_formula_sum   'Na15 Hf3 Zn9 P9 S9 O72'
_cell_volume   1558.82420782
_cell_formula_units_Z   3
loop_
 _symmetry_equiv_pos_site_id
 _symmetry_equiv_pos_as_xyz
  1  'x, y, z'
loop_
 _atom_site_type_symbol
 _atom_site_label
 _atom_site_symmetry_multiplicity
 _atom_site_fract_x
 _atom_site_fract_y
 _atom_site_fract_z
 _atom_site_occupancy
  Na  Na0  1  0.00249613  0.63429821  0.25394198  1
  Na  Na1  1  0.29904542  0.34009667  0.58794081  1
  Na  Na2  1  0.02923890  0.69439308  0.58220463  1
  Na  Na3  1  0.67074694  0.96103188  0.58101777  1
  Na  Na4  1  0.66845902  0.70146963  0.08262696  1
  Na  Na5  1  0.03621530  0.34026533  0.08545105  1
  Na  Na6  1  0.97889951  0.68225131  0.91223673  1
  Na  Na7  1  0.32213562  0.29372905  0.90791549  1
  Na  Na8  1  0.70282650  0.67989277  0.41610363  1
  Na  Na9  1  0.99804553  0.00312417  0.49516588  1
  Na  Na10  1  -0.00001029  0.99448023  0.99562686  1
  Na  Na11  1  0.65820226  0.32137791  0.82135421  1
  Na  Na12  1  0.65698110  0.30787521  0.33060322  1
  Na  Na13  1  0.33566155  0.67739522  0.17124163  1
  Na  Na14  1  0.33189244  0.65393065  0.66454612  1
  Hf  Hf0  1  0.66931020  0.33357003  0.97971775  1
  Hf  Hf1  1  0.67958098  0.33381046  0.47985129  1
  Hf  Hf2  1  0.33552375  0.66317742  0.81336579  1
  Zn  Zn0  1  0.00034211  0.00363318  0.35234060  1
  Zn  Zn1  1  0.00225736  0.00936897  0.84639620  1
  Zn  Zn2  1  0.99803725  0.00998097  0.65532578  1
  Zn  Zn3  1  0.00565587  0.99158841  0.15637119  1
  Zn  Zn4  1  0.66488115  0.34533248  0.68419065  1
  Zn  Zn5  1  0.66767870  0.33136807  0.18483298  1
  Zn  Zn6  1  0.32467369  0.67240509  0.01011826  1
  Zn  Zn7  1  0.33257923  0.66732900  0.50883701  1
  Zn  Zn8  1  0.33585979  0.67724047  0.32376140  1
  P  P0  1  0.29930006  0.29188576  0.74976654  1
  P  P1  1  0.96214085  0.33459410  0.58670970  1
  P  P2  1  0.66523520  0.62847147  0.58381869  1
  P  P3  1  0.96455488  0.63038285  0.08583434  1
  P  P4  1  0.62909007  0.67293729  0.92014509  1
  P  P5  1  0.04184395  0.37006328  0.91893929  1
  P  P6  1  0.33166838  0.95935714  0.91696717  1
  P  P7  1  0.62869462  0.95947629  0.41662258  1
  P  P8  1  0.04194450  0.67269526  0.41569591  1
  S  S0  1  0.29723551  0.00286424  0.24999497  1
  S  S1  1  0.69896817  0.70190292  0.24926874  1
  S  S2  1  0.00163484  0.29419334  0.24851582  1
  S  S3  1  0.99898906  0.70485541  0.75050249  1
  S  S4  1  0.70533689  0.00277918  0.74978704  1
  S  S5  1  0.37459118  0.04030664  0.58461500  1
  S  S6  1  0.66434681  0.03851477  0.08551282  1
  S  S7  1  0.37164434  0.33139710  0.08488174  1
  S  S8  1  0.33123551  0.36942684  0.41695467  1
  O  O0  1  0.21379165  0.02613883  0.30315576  1
  O  O1  1  0.81083256  0.78449286  0.30177067  1
  O  O2  1  0.98033436  0.18632329  0.30033548  1
  O  O3  1  0.21646176  0.19122446  0.80768474  1
  O  O4  1  0.97831302  0.78572092  0.80537624  1
  O  O5  1  0.80852380  0.02048440  0.80277926  1
  O  O6  1  0.77385844  0.96886020  0.69408601  1
  O  O7  1  0.19146738  0.21733720  0.69282158  1
  O  O8  1  0.02563632  0.80766702  0.69593463  1
  O  O9  1  0.77749977  0.80437607  0.19325949  1
  O  O10  1  0.02079140  0.21637727  0.19147953  1
  O  O11  1  0.19068761  0.97251441  0.19525925  1
  O  O12  1  0.87445411  0.36398180  0.64006800  1
  O  O13  1  0.48169700  0.11848934  0.63709084  1
  O  O14  1  0.62942935  0.50982815  0.63677921  1
  O  O15  1  0.87763781  0.51527375  0.14055827  1
  O  O16  1  0.63994839  0.11941228  0.13792973  1
  O  O17  1  0.48153078  0.35521400  0.13586323  1
  O  O18  1  0.45542606  0.30942162  0.02887742  1
  O  O19  1  0.84495156  0.53541315  0.02925385  1
  O  O20  1  0.68696542  0.14953276  0.03120422  1
  O  O21  1  0.45995544  0.15168139  0.53068376  1
  O  O22  1  0.69099326  0.53964819  0.52643731  1
  O  O23  1  0.84401366  0.30585323  0.53045939  1
  O  O24  1  0.55064434  0.69289342  0.97837518  1
  O  O25  1  0.14640128  0.44379005  0.97629077  1
  O  O26  1  0.29790316  0.85085351  0.97281528  1
  O  O27  1  0.55467015  0.85283177  0.47469149  1
  O  O28  1  0.30676830  0.44292422  0.47302921  1
  O  O29  1  0.14144201  0.69174427  0.47332529  1
  O  O30  1  0.11329640  0.63556522  0.35862810  1
  O  O31  1  0.51847160  0.87972511  0.36178570  1
  O  O32  1  0.36768721  0.48248891  0.36484542  1
  O  O33  1  0.13003480  0.49589318  0.86568417  1
  O  O34  1  0.36136734  0.87207888  0.86225858  1
  O  O35  1  0.50563532  0.63660474  0.86667317  1
  O  O36  1  0.01020822  0.82699800  0.41096176  1
  O  O37  1  0.81056671  0.97866195  0.41075961  1
  O  O38  1  0.18106739  0.19640964  0.41023450  1
  O  O39  1  0.02097294  0.19208605  0.91030311  1
  O  O40  1  0.17301214  0.98354429  0.91049931  1
  O  O41  1  0.81318428  0.82021936  0.91058954  1
  O  O42  1  0.97753920  0.16883230  0.58735201  1
  O  O43  1  0.20036127  0.02414887  0.58761610  1
  O  O44  1  0.83411995  0.80650139  0.58766686  1
  O  O45  1  0.96819513  0.80530913  0.08779002  1
  O  O46  1  0.82798987  0.03029052  0.08695868  1
  O  O47  1  0.19568596  0.17885520  0.08772221  1
  O  O48  1  0.68429231  0.15444427  0.74495731  1
  O  O49  1  0.48099273  0.31434241  0.74556963  1
  O  O50  1  0.84879177  0.53016557  0.74687376  1
  O  O51  1  0.69104319  0.53033493  0.24427259  1
  O  O52  1  0.84494247  0.31632561  0.24586439  1
  O  O53  1  0.47065743  0.15776181  0.24343024  1
  O  O54  1  0.63920556  0.49918557  0.92391688  1
  O  O55  1  0.86223195  0.36283230  0.92369067  1
  O  O56  1  0.49489469  0.14436966  0.92346145  1
  O  O57  1  0.64445070  0.14173894  0.42370130  1
  O  O58  1  0.49453988  0.35666531  0.42333065  1
  O  O59  1  0.85219949  0.50729238  0.42194687  1
  O  O60  1  0.35832768  0.49043719  0.07938328  1
  O  O61  1  0.14100598  0.64052255  0.07844973  1
  O  O62  1  0.51606443  0.86234703  0.07897484  1
  O  O63  1  0.35441564  0.86582808  0.57772422  1
  O  O64  1  0.50487416  0.65148320  0.57755364  1
  O  O65  1  0.14280121  0.49648165  0.57829872  1
  O  O66  1  0.30921421  0.84164935  0.25395282  1
  O  O67  1  0.52523142  0.68135032  0.25505885  1
  O  O68  1  0.15613281  0.47095737  0.25257027  1
  O  O69  1  0.31477433  0.47714459  0.75705867  1
  O  O70  1  0.16142696  0.69051833  0.75625905  1
  O  O71  1  0.52802635  0.84215136  0.75674378  1
loop_
_geom_bond_atom_site_label_1
_geom_bond_atom_site_label_2
_geom_bond_distance
_geom_bond_site_symmetry_2
Na0 O66 2.427298 1_555
Na0 O68 2.455715 1_555
Na0 O51 2.467583 1_455
Na0 O52 2.476577 1_455
Na0 O30 2.555039 1_555
Na0 O15 2.775538 1_455
Na0 O1 2.856906 1_455
Na0 O11 2.942176 1_555
Na1 O65 2.432431 1_555
Na1 O64 2.470525 1_555
Na1 O42 2.493880 1_455
Na1 O43 2.510252 1_555
Na1 O7 2.570347 1_555
Na1 O28 2.730769 1_555
Na1 O14 2.792612 1_555
Na1 O21 2.991944 1_555
Na2 O44 2.409984 1_455
Na2 O65 2.444095 1_555
Na2 O63 2.522954 1_555
Na2 O43 2.564914 1_565
Na2 O29 2.640125 1_555
Na2 O8 2.751042 1_555
Na2 O12 2.877049 1_455
Na2 O22 2.915388 1_455
Na3 O64 2.407767 1_555
Na3 O42 2.433636 1_565
Na3 O44 2.467988 1_555
Na3 O63 2.515491 1_555
Na3 O27 2.595401 1_555
Na3 O6 2.695889 1_555
Na3 O23 2.907845 1_565
Na3 O13 2.960708 1_565
Na4 O45 2.361656 1_555
Na4 O62 2.428749 1_555
Na4 O60 2.458351 1_555
Na4 O46 2.556269 1_565
Na4 O24 2.558924 1_554
Na4 O9 2.664016 1_555
Na4 O19 2.905176 1_555
Na4 O17 2.944261 1_555
Na5 O61 2.372081 1_555
Na5 O46 2.454646 1_455
Na5 O47 2.486290 1_555
Na5 O60 2.500740 1_555
Na5 O10 2.602948 1_555
Na5 O25 2.627578 1_554
Na5 O15 2.859589 1_455
Na5 O20 2.979392 1_455
Na6 O41 2.355711 1_555
Na6 O40 2.372696 1_655
Na6 O55 2.523545 1_555
Na6 O4 2.575474 1_555
Na6 O54 2.646947 1_555
Na6 O33 2.814756 1_655
Na6 O26 2.831105 1_655
Na6 O19 2.910385 1_556
Na7 O39 2.373678 1_555
Na7 O40 2.410446 1_545
Na7 O3 2.440264 1_555
Na7 O54 2.522269 1_555
Na7 O56 2.523304 1_555
Na7 O35 2.820541 1_555
Na7 O25 2.947893 1_555
Na7 O18 2.948457 1_556
Na8 O37 2.353086 1_555
Na8 O36 2.384757 1_655
Na8 O59 2.500514 1_555
Na8 O58 2.550055 1_555
Na8 O1 2.734125 1_555
Na8 O22 2.758161 1_555
Na8 O27 2.809469 1_555
Na8 O32 2.861020 1_555
Na9 O37 2.475061 1_545
Na9 O36 2.495448 1_645
Na9 O38 2.541779 1_655
Na9 O42 2.601958 1_555
Na9 O44 2.639461 1_545
Na9 O43 2.706980 1_655
Na10 O40 2.482290 1_555
Na10 O41 2.510515 1_455
Na10 O39 2.553761 1_565
Na10 O45 2.601074 1_456
Na10 O46 2.667192 1_466
Na10 O47 2.686631 1_566
Na11 O49 2.312495 1_555
Na11 O48 2.358130 1_555
Na11 O50 2.448958 1_555
Na11 O56 2.750568 1_555
Na11 O54 2.848267 1_555
Na11 O55 2.850408 1_555
Na12 O53 2.492759 1_555
Na12 O52 2.505204 1_555
Na12 O57 2.538633 1_555
Na12 O58 2.686551 1_555
Na12 O51 2.688806 1_555
Na12 O59 2.714334 1_555
Na12 O31 3.464773 1_545
Na13 O66 2.448492 1_555
Na13 O68 2.519531 1_555
Na13 O67 2.529926 1_555
Na13 O62 2.635290 1_555
Na13 O61 2.636933 1_555
Na13 O60 2.722689 1_555
Na14 O64 2.489170 1_555
Na14 O65 2.500560 1_555
Na14 O69 2.572594 1_555
Na14 O63 2.660455 1_555
Na14 O70 2.667944 1_555
Na14 O71 2.699873 1_555
Hf0 O55 2.035872 1_555
Hf0 O19 2.038763 1_556
Hf0 O54 2.063154 1_555
Hf0 O56 2.069335 1_555
Hf0 O20 2.086175 1_556
Hf0 O18 2.116321 1_556
Hf1 O23 1.976650 1_555
Hf1 O59 2.019521 1_555
Hf1 O57 2.025848 1_555
Hf1 O22 2.075660 1_555
Hf1 O21 2.145735 1_555
Hf1 O58 2.181253 1_555
Hf2 O69 2.023355 1_555
Hf2 O35 2.047035 1_555
Hf2 O33 2.057802 1_555
Hf2 O34 2.079030 1_555
Hf2 O71 2.092284 1_555
Hf2 O70 2.129930 1_555
O0 S0 1.471448 1_555
O0 Zn0 2.118455 1_555
O1 S1 1.487225 1_555
O1 Zn0 2.171203 1_665
O2 S2 1.464040 1_655
O2 Zn0 2.092709 1_655
O3 P0 1.542568 1_555
O3 Zn1 1.987594 1_555
O4 S3 1.483953 1_555
O4 Zn1 2.115121 1_665
O5 S4 1.469928 1_555
O5 Zn1 2.040865 1_655
O6 S4 1.484521 1_565
O6 Zn2 2.037012 1_565
O7 P0 1.543194 1_555
O7 Zn2 1.990107 1_455
O8 S3 1.479688 1_455
O8 Zn2 2.152988 1_465
O9 S1 1.506055 1_555
O9 Zn3 2.057257 1_655
O10 S2 1.505355 1_555
O10 Zn3 2.101522 1_545
O11 S0 1.499481 1_565
O11 Zn3 1.957244 1_555
O12 P1 1.519609 1_555
O12 Zn4 2.044696 1_555
O13 S5 1.462496 1_555
O13 Zn4 2.150879 1_555
O14 P2 1.519375 1_555
O14 Zn4 1.970877 1_555
O15 P3 1.539904 1_555
O15 Zn5 2.031038 1_555
O16 S6 1.451532 1_555
O16 Zn5 2.073578 1_555
O17 S7 1.458336 1_555
O17 Zn5 2.098939 1_555
O18 S7 1.520735 1_555
O19 P3 1.608706 1_555
O20 S6 1.523021 1_555
O21 S5 1.509457 1_555
O22 P2 1.587034 1_555
O23 P1 1.588388 1_555
O24 P4 1.530778 1_555
O24 Zn6 2.057202 1_556
O25 P5 1.538001 1_555
O25 Zn6 2.016716 1_556
O26 P6 1.522210 1_555
O26 Zn6 1.925130 1_556
O27 P7 1.553940 1_555
O27 Zn7 1.996866 1_555
O28 S8 1.483713 1_555
O28 Zn7 2.067057 1_555
O29 P8 1.535784 1_555
O29 Zn7 1.999016 1_555
O30 P8 1.535054 1_555
O30 Zn8 1.987193 1_555
O31 P7 1.519315 1_555
O31 Zn8 1.935088 1_555
O32 S8 1.474119 1_555
O32 Zn8 2.117399 1_555
O33 P5 1.558829 1_555
O34 P6 1.545148 1_555
O35 P4 1.557008 1_555
O36 P8 1.547519 1_555
O36 Zn0 2.096785 1_565
O37 P7 1.551920 1_555
O37 Zn0 2.058935 1_665
O38 S8 1.468042 1_555
O38 Zn0 2.125918 1_555
O39 P5 1.522180 1_555
O39 Zn1 2.117514 1_555
O40 P6 1.545599 1_555
O40 Zn1 2.200140 1_565
O41 P4 1.525580 1_555
O41 Zn1 2.220113 1_665
O42 P1 1.558306 1_555
O42 Zn2 2.159626 1_555
O43 S5 1.491626 1_555
O43 Zn2 2.308770 1_455
O44 P2 1.559387 1_555
O44 Zn2 2.265527 1_565
O45 P3 1.551670 1_555
O45 Zn3 2.168975 1_655
O46 S6 1.501468 1_555
O46 Zn3 2.378892 1_645
O47 S7 1.484015 1_555
O47 Zn3 2.282901 1_545
O48 S4 1.466003 1_555
O48 Zn4 2.264549 1_555
O49 P0 1.536044 1_555
O49 Zn4 2.047567 1_555
O50 S3 1.471453 1_555
O50 Zn4 2.175530 1_555
O51 S1 1.506893 1_555
O51 Zn5 2.149839 1_555
O52 S2 1.510901 1_655
O52 Zn5 2.156887 1_555
O53 S0 1.484699 1_555
O53 Zn5 2.121120 1_555
O54 P4 1.606076 1_555
O55 P5 1.577104 1_655
O56 P6 1.577605 1_545
O57 P7 1.575110 1_545
O58 S8 1.527739 1_555
O59 P8 1.607800 1_655
O60 S7 1.493219 1_555
O60 Zn6 2.382482 1_555
O61 P3 1.541778 1_455
O61 Zn6 2.151566 1_555
O62 S6 1.478480 1_565
O62 Zn6 2.309773 1_555
O63 S5 1.489257 1_565
O63 Zn7 2.288208 1_555
O64 P2 1.553946 1_555
O64 Zn7 2.241938 1_555
O65 P1 1.552345 1_455
O65 Zn7 2.244910 1_555
O66 S0 1.503434 1_565
O66 Zn8 2.247366 1_555
O67 S1 1.474756 1_555
O67 Zn8 2.268585 1_555
O68 S2 1.498213 1_555
O68 Zn8 2.369209 1_555
O69 P0 1.603287 1_555
O70 S3 1.526535 1_455
O71 S4 1.527009 1_565
