# generated using pymatgen
data_LiMnO2
_symmetry_space_group_name_H-M   'P 1'
_cell_length_a   5.13937131
_cell_length_b   5.20865472
_cell_length_c   5.67819294
_cell_angle_alpha   90.00001247
_cell_angle_beta   89.99999333
_cell_angle_gamma   90.00009495
_symmetry_Int_Tables_number   1
_chemical_formula_structural   LiMnO2
_chemical_formula_sum   'Li4 Mn4 O8'
_cell_volume   152.00074278
_cell_formula_units_Z   4
loop_
 _symmetry_equiv_pos_site_id
 _symmetry_equiv_pos_as_xyz
  1  'x, y, z'
loop_
 _atom_site_type_symbol
 _atom_site_label
 _atom_site_symmetry_multiplicity
 _atom_site_fract_x
 _atom_site_fract_y
 _atom_site_fract_z
 _atom_site_occupancy
  Li  Li0  1  0.00000078  0.50000124  0.25967189  1
  Li  Li1  1  -0.00000210  0.50000162  0.75967329  1
  Li  Li2  1  0.50000267  0.00000948  0.99032131  1
  Li  Li3  1  0.50000051  0.00000950  0.49032269  1
  Mn  Mn0  1  0.49999652  0.50000930  0.74657593  1
  Mn  Mn1  1  0.00000185  0.00000324  0.00342598  1
  Mn  Mn2  1  0.50000228  0.50000828  0.24657694  1
  Mn  Mn3  1  -0.00000350  0.00000251  0.50342555  1
  O  O0  1  0.28871601  0.34723518  0.99659503  1
  O  O1  1  0.28871508  0.34723426  0.49659332  1
  O  O2  1  0.21128516  0.84723246  0.25340883  1
  O  O3  1  0.21128444  0.84723328  0.75340700  1
  O  O4  1  0.71129063  0.65277948  0.99659404  1
  O  O5  1  0.71129192  0.65278089  0.49659477  1
  O  O6  1  0.78871099  0.15277903  0.25340771  1
  O  O7  1  0.78871175  0.15277825  0.75340772  1
loop_
_geom_bond_atom_site_label_1
_geom_bond_atom_site_label_2
_geom_bond_distance
_geom_bond_site_symmetry_2
Li0 O6 2.109816 1_455
Li0 O2 2.109841 1_555
Li0 O1 2.155144 1_555
Li0 O5 2.155154 1_455
Li0 O0 2.250844 1_554
Li0 O4 2.250853 1_454
Li1 O7 2.109811 1_455
Li1 O3 2.109849 1_555
Li1 O4 2.155137 1_455
Li1 O0 2.155157 1_555
Li1 O5 2.250844 1_455
Li1 O1 2.250865 1_555
Li2 O0 2.109827 1_555
Li2 O4 2.109849 1_545
Li2 O7 2.155099 1_555
Li2 O3 2.155148 1_545
Li2 O6 2.250861 1_556
Li2 O2 2.250911 1_546
Li3 O1 2.109819 1_555
Li3 O5 2.109852 1_545
Li3 O6 2.155110 1_555
Li3 O2 2.155138 1_545
Li3 O7 2.250865 1_555
Li3 O3 2.250892 1_545
Mn0 O1 1.956306 1_555
Mn0 O5 1.956333 1_555
Mn0 O0 1.956452 1_555
Mn0 O4 1.956478 1_555
Mn0 O3 2.339679 1_555
Mn0 O7 2.339718 1_555
Mn1 O2 1.956305 1_545
Mn1 O6 1.956332 1_455
Mn1 O3 1.956450 1_544
Mn1 O7 1.956480 1_454
Mn1 O4 2.339671 1_444
Mn1 O0 2.339714 1_554
Mn2 O0 1.956313 1_554
Mn2 O4 1.956319 1_554
Mn2 O1 1.956460 1_555
Mn2 O5 1.956470 1_555
Mn2 O6 2.339689 1_555
Mn2 O2 2.339696 1_555
Mn3 O3 1.956309 1_545
Mn3 O7 1.956317 1_455
Mn3 O2 1.956458 1_545
Mn3 O6 1.956468 1_455
Mn3 O5 2.339641 1_445
Mn3 O1 2.339727 1_555
