# generated using pymatgen
data_Ag4P2S7
_symmetry_space_group_name_H-M   'P 1'
_cell_length_a   6.40783236
_cell_length_b   6.40783236
_cell_length_c   16.53335431
_cell_angle_alpha   76.27878790
_cell_angle_beta   76.27878790
_cell_angle_gamma   62.57489976
_symmetry_Int_Tables_number   1
_chemical_formula_structural   Ag4P2S7
_chemical_formula_sum   'Ag8 P4 S14'
_cell_volume   578.89312359
_cell_formula_units_Z   2
loop_
 _symmetry_equiv_pos_site_id
 _symmetry_equiv_pos_as_xyz
  1  'x, y, z'
loop_
 _atom_site_type_symbol
 _atom_site_label
 _atom_site_symmetry_multiplicity
 _atom_site_fract_x
 _atom_site_fract_y
 _atom_site_fract_z
 _atom_site_occupancy
  Ag  Ag0  1  0.82194700  0.26106800  0.44504800  1
  Ag  Ag1  1  0.73893200  0.17805300  0.05495200  1
  Ag  Ag2  1  0.17805300  0.73893200  0.55495200  1
  Ag  Ag3  1  0.26106800  0.82194700  0.94504800  1
  Ag  Ag4  1  0.96187000  0.55454400  0.16294800  1
  Ag  Ag5  1  0.44545600  0.03813000  0.33705200  1
  Ag  Ag6  1  0.03813000  0.44545600  0.83705200  1
  Ag  Ag7  1  0.55454400  0.96187000  0.66294800  1
  P  P0  1  0.71697700  0.06687800  0.85643200  1
  P  P1  1  0.06687800  0.71697700  0.35643200  1
  P  P2  1  0.28302300  0.93312200  0.14356800  1
  P  P3  1  0.93312200  0.28302300  0.64356800  1
  S  S0  1  0.63761700  0.35196100  0.59742400  1
  S  S1  1  0.64803900  0.36238300  0.90257600  1
  S  S2  1  0.06316700  0.42467400  0.32375900  1
  S  S3  1  0.57532600  0.93683300  0.17624100  1
  S  S4  1  0.00524600  0.99475400  0.25000000  1
  S  S5  1  0.35196100  0.63761700  0.09742400  1
  S  S6  1  0.36238300  0.64803900  0.40257600  1
  S  S7  1  0.99475400  0.00524600  0.75000000  1
  S  S8  1  0.23932400  0.10024200  0.56805200  1
  S  S9  1  0.89975800  0.76067600  0.93194800  1
  S  S10  1  0.76067600  0.89975800  0.43194800  1
  S  S11  1  0.10024200  0.23932400  0.06805200  1
  S  S12  1  0.42467400  0.06316700  0.82375900  1
  S  S13  1  0.93683300  0.57532600  0.67624100  1
loop_
_geom_bond_atom_site_label_1
_geom_bond_atom_site_label_2
_geom_bond_distance
_geom_bond_site_symmetry_2
Ag0 S2 2.556264 1_655
Ag0 S10 2.583957 1_545
Ag0 S0 2.594586 1_555
Ag0 S6 2.956700 1_555
Ag0 S8 3.376058 1_655
Ag0 Ag2 3.428253 1_645
Ag1 S3 2.556264 1_545
Ag1 S11 2.583957 1_655
Ag1 S1 2.594586 1_554
Ag1 S5 2.956700 1_555
Ag1 S9 3.376058 1_544
Ag1 Ag3 3.428253 1_644
Ag2 S13 2.556264 1_455
Ag2 S8 2.583957 1_565
Ag2 S6 2.594586 1_555
Ag2 S0 2.956700 1_555
Ag2 S10 3.376058 1_455
Ag3 S12 2.556264 1_565
Ag3 S9 2.583957 1_455
Ag3 S5 2.594586 1_556
Ag3 S1 2.956700 1_555
Ag3 S11 3.376058 1_566
Ag4 S11 2.553693 1_655
Ag4 S3 2.567491 1_555
Ag4 S5 2.715267 1_655
Ag4 S2 2.730249 1_655
Ag4 S4 3.440609 1_645
Ag5 S10 2.553693 1_545
Ag5 S2 2.567491 1_555
Ag5 S6 2.715267 1_545
Ag5 S3 2.730249 1_545
Ag5 S4 3.440609 1_645
Ag6 S9 2.553693 1_455
Ag6 S12 2.567491 1_555
Ag6 S1 2.715267 1_455
Ag6 S13 2.730249 1_455
Ag6 S7 3.440609 1_465
Ag7 S8 2.553693 1_565
Ag7 S13 2.567491 1_555
Ag7 S0 2.715267 1_565
Ag7 S12 2.730249 1_565
Ag7 S7 3.440609 1_465
P0 S1 2.029189 1_555
P0 S9 2.048187 1_545
P0 S12 2.080319 1_555
P0 S7 2.148701 1_555
P1 S6 2.029189 1_555
P1 S10 2.048187 1_455
P1 S2 2.080319 1_555
P1 S4 2.148701 1_555
P2 S5 2.029189 1_555
P2 S11 2.048187 1_565
P2 S3 2.080319 1_555
P2 S4 2.148701 1_555
P3 S0 2.029189 1_555
P3 S8 2.048187 1_655
P3 S13 2.080319 1_555
P3 S7 2.148701 1_555
