# generated using pymatgen
data_CaB8H4O15
_symmetry_space_group_name_H-M   'P 1'
_cell_length_a   8.40780400
_cell_length_b   7.59770900
_cell_length_c   9.83220063
_cell_angle_alpha   71.98355423
_cell_angle_beta   90.00000000
_cell_angle_gamma   90.00000000
_symmetry_Int_Tables_number   1
_chemical_formula_structural   CaB8H4O15
_chemical_formula_sum   'Ca2 B16 H8 O30'
_cell_volume   597.28522122
_cell_formula_units_Z   2
loop_
 _symmetry_equiv_pos_site_id
 _symmetry_equiv_pos_as_xyz
  1  'x, y, z'
loop_
 _atom_site_type_symbol
 _atom_site_label
 _atom_site_symmetry_multiplicity
 _atom_site_fract_x
 _atom_site_fract_y
 _atom_site_fract_z
 _atom_site_occupancy
  Ca  Ca0  1  0.09995500  0.10723400  0.71941000  1
  Ca  Ca1  1  0.59995500  0.89276600  0.28059000  1
  B  B0  1  0.12764500  0.58755800  0.47722900  1
  B  B1  1  0.72411400  0.12590800  0.71836200  1
  B  B2  1  0.76402600  0.03398400  0.98130800  1
  B  B3  1  0.26402600  0.96601600  0.01869200  1
  B  B4  1  0.22411400  0.87409200  0.28163800  1
  B  B5  1  0.62764500  0.41244200  0.52277100  1
  B  B6  1  0.52098600  0.61590100  0.84935700  1
  B  B7  1  0.02098600  0.38409900  0.15064300  1
  B  B8  1  0.61475200  0.40381300  0.27059800  1
  B  B9  1  0.11475200  0.59618700  0.72940200  1
  B  B10  1  0.51385600  0.91590300  0.90379500  1
  B  B11  1  0.01385600  0.08409700  0.09620500  1
  B  B12  1  0.51630800  0.91033900  0.64264700  1
  B  B13  1  0.01630800  0.08966100  0.35735300  1
  B  B14  1  0.77421300  0.01497500  0.51256800  1
  B  B15  1  0.27421300  0.98502500  0.48743200  1
  H  H0  1  0.07095000  0.62579700  0.17705700  1
  H  H1  1  0.57095000  0.37420300  0.82294300  1
  H  H2  1  0.07208400  0.67154700  0.90624100  1
  H  H3  1  0.57208400  0.32845300  0.09375900  1
  H  H4  1  0.08270100  0.36679300  0.89646100  1
  H  H5  1  0.58270100  0.63320700  0.10353900  1
  H  H6  1  0.05524600  0.36847200  0.42493100  1
  H  H7  1  0.55524600  0.63152800  0.57506900  1
  O  O0  1  0.08755100  0.01419800  0.24433400  1
  O  O1  1  0.83331300  0.08015000  0.61849000  1
  O  O2  1  0.58619000  0.27570100  0.19884700  1
  O  O3  1  0.82079900  0.10956000  0.84505300  1
  O  O4  1  0.85183200  0.01435400  0.10218500  1
  O  O5  1  0.35183200  0.98564600  0.89781500  1
  O  O6  1  0.33331300  0.91985000  0.38151000  1
  O  O7  1  0.08619000  0.72429900  0.80115300  1
  O  O8  1  0.15618600  0.68714800  0.33715500  1
  O  O9  1  0.65618600  0.31285200  0.66284500  1
  O  O10  1  0.86096100  0.00415400  0.39771600  1
  O  O11  1  0.36096100  0.99584600  0.60228400  1
  O  O12  1  0.50350300  0.70611400  0.70621500  1
  O  O13  1  0.00350300  0.29388600  0.29378500  1
  O  O14  1  0.51622100  0.71071200  0.94733600  1
  O  O15  1  0.01622100  0.28928800  0.05266400  1
  O  O16  1  0.14251000  0.66855900  0.58455600  1
  O  O17  1  0.64251000  0.33144100  0.41544400  1
  O  O18  1  0.57993300  0.59464600  0.48751100  1
  O  O19  1  0.07993300  0.40535400  0.51248900  1
  O  O20  1  0.54587500  0.42711200  0.90056800  1
  O  O21  1  0.04587500  0.57288800  0.09943200  1
  O  O22  1  0.61797700  0.59241000  0.20703200  1
  O  O23  1  0.11797700  0.40759000  0.79296800  1
  O  O24  1  0.12276800  0.05605200  0.47957200  1
  O  O25  1  0.62276800  0.94394800  0.52042800  1
  O  O26  1  0.10950600  0.02756000  0.99322500  1
  O  O27  1  0.60950600  0.97244000  0.00677500  1
  O  O28  1  0.32079900  0.89044000  0.15494700  1
  O  O29  1  0.58755100  0.98580200  0.75566600  1
loop_
_geom_bond_atom_site_label_1
_geom_bond_atom_site_label_2
_geom_bond_distance
_geom_bond_site_symmetry_2
Ca0 O1 2.485807 1_455
Ca0 O24 2.513174 1_555
Ca0 O19 2.539156 1_555
Ca0 O26 2.571527 1_555
Ca0 O23 2.602799 1_555
Ca0 O3 2.654944 1_455
Ca0 O5 2.722632 1_545
Ca0 O11 2.731492 1_545
Ca0 O7 2.770861 1_545
Ca1 O6 2.485807 1_555
Ca1 O25 2.513174 1_555
Ca1 O18 2.539156 1_555
Ca1 O27 2.571527 1_555
Ca1 O22 2.602799 1_555
Ca1 O28 2.654944 1_555
Ca1 O4 2.722632 1_565
Ca1 O10 2.731492 1_565
Ca1 O2 2.770861 1_565
B0 O8 1.371959 1_555
B0 O19 1.378629 1_555
B0 O16 1.381906 1_555
B1 O3 1.460202 1_555
B1 O1 1.462613 1_555
B1 O9 1.470353 1_555
B1 O29 1.531174 1_545
B2 O4 1.367523 1_556
B2 O3 1.369845 1_555
B2 O27 1.377232 1_546
B3 O5 1.367523 1_554
B3 O28 1.369845 1_555
B3 O26 1.377232 1_564
B4 O28 1.460202 1_555
B4 O6 1.462613 1_555
B4 O8 1.470353 1_555
B4 O0 1.531174 1_565
B5 O9 1.371959 1_555
B5 O18 1.378629 1_555
B5 O17 1.381906 1_555
B6 O12 1.369475 1_555
B6 O14 1.370331 1_555
B6 O20 1.381291 1_555
B7 O13 1.369475 1_555
B7 O15 1.370331 1_555
B7 O21 1.381291 1_555
B8 O22 1.374989 1_555
B8 O17 1.378634 1_555
B8 O2 1.388361 1_555
B9 O23 1.374989 1_555
B9 O16 1.378634 1_555
B9 O7 1.388361 1_555
B10 O5 1.456274 1_555
B10 O27 1.457909 1_556
B10 O14 1.483660 1_555
B10 O29 1.519442 1_555
B11 O4 1.456274 1_455
B11 O26 1.457909 1_554
B11 O15 1.483660 1_555
B11 O0 1.519442 1_555
B12 O25 1.456237 1_555
B12 O11 1.458093 1_555
B12 O12 1.486583 1_555
B12 O29 1.521990 1_555
B13 O24 1.456237 1_555
B13 O10 1.458093 1_455
B13 O13 1.486583 1_555
B13 O0 1.521990 1_555
B14 O10 1.367975 1_555
B14 O25 1.375766 1_545
B14 O1 1.376855 1_555
B15 O11 1.367975 1_555
B15 O24 1.375766 1_565
B15 O6 1.376855 1_555
H0 O21 0.989109 1_555
H0 O8 1.913785 1_555
H1 O20 0.989109 1_555
H1 O9 1.913785 1_555
H2 O7 0.993043 1_555
H3 O2 0.993043 1_555
H4 O23 1.012115 1_555
H4 O15 1.567957 1_556
H5 O22 1.012115 1_555
H5 O14 1.567957 1_554
H6 O19 1.005961 1_555
H6 O13 1.620212 1_555
H7 O18 1.005961 1_555
H7 O12 1.620212 1_555
