# generated using pymatgen
data_MgMn3Cd2O8
_symmetry_space_group_name_H-M   'P 1'
_cell_length_a   5.33675026
_cell_length_b   6.23243229
_cell_length_c   5.85035914
_cell_angle_alpha   108.86450955
_cell_angle_beta   116.33163397
_cell_angle_gamma   89.52435890
_symmetry_Int_Tables_number   1
_chemical_formula_structural   MgMn3Cd2O8
_chemical_formula_sum   'Mg1 Mn3 Cd2 O8'
_cell_volume   162.92271162
_cell_formula_units_Z   1
loop_
 _symmetry_equiv_pos_site_id
 _symmetry_equiv_pos_as_xyz
  1  'x, y, z'
loop_
 _atom_site_type_symbol
 _atom_site_label
 _atom_site_symmetry_multiplicity
 _atom_site_fract_x
 _atom_site_fract_y
 _atom_site_fract_z
 _atom_site_occupancy
  Mg  Mg0  1  0.72499439  0.11656441  0.47766884  1
  Mn  Mn0  1  0.46089631  0.98046043  0.92323241  1
  Mn  Mn1  1  0.01401222  0.75242073  0.03415906  1
  Mn  Mn2  1  0.01222813  0.24614929  0.02419981  1
  Cd  Cd0  1  0.68170259  0.61732239  0.39379618  1
  Cd  Cd1  1  0.30815040  0.40427257  0.63674807  1
  O  O0  1  0.99886367  0.42500440  0.79511214  1
  O  O1  1  0.02476458  0.53585910  0.27806767  1
  O  O2  1  0.02439705  0.97586406  0.74121389  1
  O  O3  1  0.96014997  0.06738942  0.22808754  1
  O  O4  1  0.42832851  0.26828950  0.21669350  1
  O  O5  1  0.42388691  0.83347128  0.16581508  1
  O  O6  1  0.59885247  0.16811627  0.78411208  1
  O  O7  1  0.61377782  0.71298314  0.78026270  1
loop_
_geom_bond_atom_site_label_1
_geom_bond_atom_site_label_2
_geom_bond_distance
_geom_bond_site_symmetry_2
Mg0 O2 2.089213 1_645
Mg0 O5 2.094859 1_545
Mg0 O6 2.113090 1_555
Mg0 O4 2.120438 1_555
Mg0 O0 2.147230 1_555
Mg0 O3 2.265108 1_555
Mn0 O6 1.932301 1_565
Mn0 O7 1.955872 1_555
Mn0 O5 1.996191 1_556
Mn0 O2 2.083757 1_555
Mn0 O4 2.112752 1_566
Mn0 O3 2.399356 1_566
Mn1 O7 1.946042 1_454
Mn1 O5 1.976167 1_555
Mn1 O3 2.015694 1_465
Mn1 O0 2.045338 1_454
Mn1 O1 2.243372 1_555
Mn1 O2 2.551184 1_554
Mn2 O1 1.910556 1_555
Mn2 O2 1.967967 1_544
Mn2 O3 1.974817 1_455
Mn2 O6 1.975696 1_454
Mn2 O4 1.975987 1_555
Mn2 O0 1.980879 1_454
Cd0 O1 2.220378 1_655
Cd0 O4 2.232136 1_555
Cd0 O5 2.233816 1_555
Cd0 O7 2.334661 1_555
Cd0 O2 2.510466 1_655
Cd0 O0 2.841589 1_555
Cd1 O7 2.204477 1_555
Cd1 O0 2.207985 1_455
Cd1 O6 2.216416 1_555
Cd1 O1 2.374873 1_555
Cd1 O3 2.540291 1_455
Cd1 O4 2.685360 1_555
