# generated using pymatgen
data_K3CoO2
_symmetry_space_group_name_H-M   'P 1'
_cell_length_a   5.95544226
_cell_length_b   7.26840212
_cell_length_c   11.83142730
_cell_angle_alpha   90.00085206
_cell_angle_beta   89.99418889
_cell_angle_gamma   89.99351302
_symmetry_Int_Tables_number   1
_chemical_formula_structural   K3CoO2
_chemical_formula_sum   'K12 Co4 O8'
_cell_volume   512.14165293
_cell_formula_units_Z   4
loop_
 _symmetry_equiv_pos_site_id
 _symmetry_equiv_pos_as_xyz
  1  'x, y, z'
loop_
 _atom_site_type_symbol
 _atom_site_label
 _atom_site_symmetry_multiplicity
 _atom_site_fract_x
 _atom_site_fract_y
 _atom_site_fract_z
 _atom_site_occupancy
  K  K0  1  0.21664629  0.25000149  0.09523062  1
  K  K1  1  0.78351848  0.74998136  0.90477991  1
  K  K2  1  0.28354235  0.24997085  0.59523855  1
  K  K3  1  0.71638510  0.75000407  0.40478918  1
  K  K4  1  0.16598829  0.50005283  0.36086920  1
  K  K5  1  0.66612474  0.00004107  0.13913714  1
  K  K6  1  0.83394117  0.00012055  0.63918530  1
  K  K7  1  0.66610844  0.49994044  0.13915001  1
  K  K8  1  0.83396363  0.49989818  0.63918126  1
  K  K9  1  0.16597413  0.99992254  0.36083766  1
  K  K10  1  0.33397334  0.99998182  0.86079841  1
  K  K11  1  0.33398592  0.50007378  0.86079843  1
  Co  Co0  1  0.17900160  0.75000495  0.11828885  1
  Co  Co1  1  0.32093096  0.74999473  0.61827349  1
  Co  Co2  1  0.82106823  0.24999346  0.88171699  1
  Co  Co3  1  0.67902605  0.25001788  0.38173555  1
  O  O0  1  0.53950456  0.74999365  0.71740463  1
  O  O1  1  0.46043451  0.25002983  0.28253609  1
  O  O2  1  0.03956290  0.24998398  0.78255067  1
  O  O3  1  0.96056915  0.75005162  0.21748003  1
  O  O4  1  0.90784310  0.24997652  0.47395584  1
  O  O5  1  0.40786699  0.74994703  0.02604914  1
  O  O6  1  0.59213932  0.25001079  0.97389831  1
  O  O7  1  0.09189574  0.75000761  0.52611176  1
loop_
_geom_bond_atom_site_label_1
_geom_bond_atom_site_label_2
_geom_bond_distance
_geom_bond_site_symmetry_2
K0 O1 2.649458 1_555
K0 O6 2.657220 1_554
K0 K5 3.276486 1_555
K0 K7 3.276672 1_555
K0 K10 3.388658 1_544
K0 K11 3.389008 1_554
K0 K9 3.642867 1_545
K0 K4 3.643001 1_555
K0 K7 3.783964 1_455
K0 K5 3.784298 1_455
K1 O0 2.650886 1_555
K1 O5 2.657612 1_556
K1 K11 3.277005 1_555
K1 K10 3.277113 1_555
K1 K5 3.388170 1_566
K1 K7 3.388371 1_556
K1 K8 3.642605 1_555
K1 K6 3.642836 1_565
K1 K11 3.783592 1_655
K1 K10 3.784215 1_655
K2 O2 2.649902 1_555
K2 O4 2.658182 1_455
K2 K8 3.276814 1_455
K2 K6 3.276965 1_455
K2 K4 3.388732 1_555
K2 K9 3.388964 1_545
K2 K6 3.783081 1_555
K2 K8 3.783808 1_555
K3 O3 2.650541 1_555
K3 O7 2.657491 1_655
K3 K4 3.276987 1_655
K3 K9 3.277190 1_655
K3 K8 3.389075 1_555
K3 K6 3.389169 1_565
K3 K7 3.642951 1_555
K3 K5 3.642991 1_565
K3 K9 3.783389 1_555
K3 K4 3.783728 1_555
K4 O1 2.689845 1_555
K4 O7 2.705022 1_555
K4 O4 2.730905 1_455
K4 O3 2.770659 1_455
K5 O3 2.689855 1_545
K5 O6 2.705063 1_554
K5 O5 2.731502 1_545
K5 O1 2.771210 1_555
K6 O0 2.690142 1_545
K6 O4 2.704349 1_555
K6 O7 2.730109 1_645
K6 O2 2.770524 1_655
K7 O3 2.690713 1_555
K7 O6 2.704989 1_554
K7 O5 2.730894 1_555
K7 O1 2.770917 1_555
K8 O0 2.689804 1_555
K8 O4 2.704507 1_555
K8 O7 2.730252 1_655
K8 O2 2.770587 1_655
K9 O1 2.690473 1_565
K9 O7 2.705190 1_555
K9 O4 2.730674 1_465
K9 O3 2.769933 1_455
K10 O2 2.689397 1_565
K10 O5 2.705393 1_556
K10 O6 2.730949 1_565
K10 O0 2.770752 1_555
K10 K2 3.641960 1_565
K11 O2 2.690126 1_555
K11 O5 2.704620 1_556
K11 O6 2.730866 1_555
K11 O0 2.770608 1_555
K11 K2 3.642366 1_555
Co0 O5 1.745981 1_555
Co0 O3 1.751915 1_455
Co0 K9 3.397151 1_555
Co0 K4 3.397654 1_555
Co0 K1 3.453954 1_454
Co0 K0 3.651310 1_555
Co0 K0 3.651318 1_565
Co1 O7 1.746367 1_555
Co1 O0 1.752240 1_555
Co1 K11 3.396988 1_555
Co1 K10 3.397207 1_555
Co1 K3 3.453273 1_555
Co1 K2 3.651009 1_565
Co1 K2 3.651397 1_555
Co2 O6 1.745844 1_555
Co2 O2 1.751993 1_655
Co2 K6 3.396786 1_555
Co2 K8 3.397007 1_555
Co2 K0 3.454380 1_656
Co2 K1 3.651167 1_555
Co2 K1 3.651400 1_545
Co3 O4 1.745785 1_555
Co3 O1 1.752861 1_555
Co3 K7 3.397581 1_555
Co3 K5 3.397882 1_555
Co3 K2 3.453555 1_555
Co3 K3 3.651130 1_555
Co3 K3 3.651288 1_545
