# generated using pymatgen
data_MgTiZn(BiO3)2
_symmetry_space_group_name_H-M   'P 1'
_cell_length_a   5.58067916
_cell_length_b   5.58067916
_cell_length_c   6.72851355
_cell_angle_alpha   90.00000000
_cell_angle_beta   90.00000000
_cell_angle_gamma   109.16416929
_symmetry_Int_Tables_number   1
_chemical_formula_structural   MgTiZn(BiO3)2
_chemical_formula_sum   'Mg1 Ti1 Zn1 Bi2 O6'
_cell_volume   197.93966781
_cell_formula_units_Z   1
loop_
 _symmetry_equiv_pos_site_id
 _symmetry_equiv_pos_as_xyz
  1  'x, y, z'
loop_
 _atom_site_type_symbol
 _atom_site_label
 _atom_site_symmetry_multiplicity
 _atom_site_fract_x
 _atom_site_fract_y
 _atom_site_fract_z
 _atom_site_occupancy
  Mg  Mg0  1  0.15105586  0.84894414  -0.00000000  1
  Ti  Ti0  1  0.46146526  0.53853474  -0.00000000  1
  Zn  Zn0  1  0.46444190  0.53555810  0.50000000  1
  Bi  Bi0  1  0.84432202  0.15567798  0.75040723  1
  Bi  Bi1  1  0.84432202  0.15567798  0.24959277  1
  O  O0  1  0.09190695  0.35789204  0.50000000  1
  O  O1  1  0.64210796  0.90809305  0.50000000  1
  O  O2  1  0.11229996  0.48280065  -0.00000000  1
  O  O3  1  0.51719935  0.88770004  -0.00000000  1
  O  O4  1  0.56902186  0.43097814  0.76837971  1
  O  O5  1  0.56902186  0.43097814  0.23162029  1
loop_
_geom_bond_atom_site_label_1
_geom_bond_atom_site_label_2
_geom_bond_distance
_geom_bond_site_symmetry_2
Mg0 O3 1.982881 1_555
Mg0 O2 1.982881 1_555
Bi0 O1 2.235539 1_545
Bi0 O0 2.235539 1_655
Bi0 O4 2.507024 1_555
Bi0 O3 2.568478 1_546
Bi0 O2 2.568478 1_656
Bi1 O1 2.235539 1_545
Bi1 O0 2.235539 1_655
Bi1 O5 2.507024 1_555
Bi1 O2 2.568478 1_655
Bi1 O3 2.568478 1_545
O0 Zn0 1.987948 1_555
O1 Zn0 1.987948 1_555
O2 Ti0 1.869702 1_555
O3 Ti0 1.869702 1_555
O4 Ti0 1.840087 1_556
O4 Zn0 2.041024 1_555
O5 Ti0 1.840087 1_555
O5 Zn0 2.041024 1_555
