# generated using pymatgen
data_MgV2(AuS2)2
_symmetry_space_group_name_H-M   'P 1'
_cell_length_a   6.48628400
_cell_length_b   6.48628338
_cell_length_c   33.87167400
_cell_angle_alpha   90.00000000
_cell_angle_beta   90.00000000
_cell_angle_gamma   120.00000318
_symmetry_Int_Tables_number   1
_chemical_formula_structural   MgV2(AuS2)2
_chemical_formula_sum   'Mg8 V16 Au16 S32'
_cell_volume   1234.12502049
_cell_formula_units_Z   8
loop_
 _symmetry_equiv_pos_site_id
 _symmetry_equiv_pos_as_xyz
  1  'x, y, z'
loop_
 _atom_site_type_symbol
 _atom_site_label
 _atom_site_symmetry_multiplicity
 _atom_site_fract_x
 _atom_site_fract_y
 _atom_site_fract_z
 _atom_site_occupancy
  Mg  Mg0_0  1  0.16666650  0.33333350  0.21201700  1
  Mg  Mg0_1  1  0.16666650  0.33333350  0.71201700  1
  Mg  Mg0_2  1  0.16666650  0.83333350  0.21201700  1
  Mg  Mg0_3  1  0.16666650  0.83333350  0.71201700  1
  Mg  Mg0_4  1  0.66666650  0.33333350  0.21201700  1
  Mg  Mg0_5  1  0.66666650  0.33333350  0.71201700  1
  Mg  Mg0_6  1  0.66666650  0.83333350  0.21201700  1
  Mg  Mg0_7  1  0.66666650  0.83333350  0.71201700  1
  V  V0_0  1  0.16666650  0.33333350  0.10844000  1
  V  V0_1  1  0.16666650  0.33333350  0.60844000  1
  V  V0_2  1  0.16666650  0.83333350  0.10844000  1
  V  V0_3  1  0.16666650  0.83333350  0.60844000  1
  V  V0_4  1  0.66666650  0.33333350  0.10844000  1
  V  V0_5  1  0.66666650  0.33333350  0.60844000  1
  V  V0_6  1  0.66666650  0.83333350  0.10844000  1
  V  V0_7  1  0.66666650  0.83333350  0.60844000  1
  V  V1_0  1  0.33333350  0.16666650  0.38499800  1
  V  V1_1  1  0.33333350  0.16666650  0.88499800  1
  V  V1_2  1  0.33333350  0.66666650  0.38499800  1
  V  V1_3  1  0.33333350  0.66666650  0.88499800  1
  V  V1_4  1  0.83333350  0.16666650  0.38499800  1
  V  V1_5  1  0.83333350  0.16666650  0.88499800  1
  V  V1_6  1  0.83333350  0.66666650  0.38499800  1
  V  V1_7  1  0.83333350  0.66666650  0.88499800  1
  Au  Au0_0  1  0.00000000  0.00000000  0.49642050  1
  Au  Au0_1  1  0.00000000  0.00000000  0.99642050  1
  Au  Au0_2  1  0.00000000  0.50000000  0.49642050  1
  Au  Au0_3  1  0.00000000  0.50000000  0.99642050  1
  Au  Au0_4  1  0.50000000  0.00000000  0.49642050  1
  Au  Au0_5  1  0.50000000  0.00000000  0.99642050  1
  Au  Au0_6  1  0.50000000  0.50000000  0.49642050  1
  Au  Au0_7  1  0.50000000  0.50000000  0.99642050  1
  Au  Au1_0  1  0.00000000  0.00000000  0.26859600  1
  Au  Au1_1  1  0.00000000  0.00000000  0.76859600  1
  Au  Au1_2  1  0.00000000  0.50000000  0.26859600  1
  Au  Au1_3  1  0.00000000  0.50000000  0.76859600  1
  Au  Au1_4  1  0.50000000  0.00000000  0.26859600  1
  Au  Au1_5  1  0.50000000  0.00000000  0.76859600  1
  Au  Au1_6  1  0.50000000  0.50000000  0.26859600  1
  Au  Au1_7  1  0.50000000  0.50000000  0.76859600  1
  S  S0_0  1  0.00000000  0.00000000  0.15202850  1
  S  S0_1  1  0.00000000  0.00000000  0.65202850  1
  S  S0_2  1  0.00000000  0.50000000  0.15202850  1
  S  S0_3  1  0.00000000  0.50000000  0.65202850  1
  S  S0_4  1  0.50000000  0.00000000  0.15202850  1
  S  S0_5  1  0.50000000  0.00000000  0.65202850  1
  S  S0_6  1  0.50000000  0.50000000  0.15202850  1
  S  S0_7  1  0.50000000  0.50000000  0.65202850  1
  S  S1_0  1  0.00000000  0.00000000  0.42685000  1
  S  S1_1  1  0.00000000  0.00000000  0.92685000  1
  S  S1_2  1  0.00000000  0.50000000  0.42685000  1
  S  S1_3  1  0.00000000  0.50000000  0.92685000  1
  S  S1_4  1  0.50000000  0.00000000  0.42685000  1
  S  S1_5  1  0.50000000  0.00000000  0.92685000  1
  S  S1_6  1  0.50000000  0.50000000  0.42685000  1
  S  S1_7  1  0.50000000  0.50000000  0.92685000  1
  S  S2_0  1  0.00000000  0.00000000  0.06626800  1
  S  S2_1  1  0.00000000  0.00000000  0.56626800  1
  S  S2_2  1  0.00000000  0.50000000  0.06626800  1
  S  S2_3  1  0.00000000  0.50000000  0.56626800  1
  S  S2_4  1  0.50000000  0.00000000  0.06626800  1
  S  S2_5  1  0.50000000  0.00000000  0.56626800  1
  S  S2_6  1  0.50000000  0.50000000  0.06626800  1
  S  S2_7  1  0.50000000  0.50000000  0.56626800  1
  S  S3_0  1  0.00000000  0.00000000  0.34271550  1
  S  S3_1  1  0.00000000  0.00000000  0.84271550  1
  S  S3_2  1  0.00000000  0.50000000  0.34271550  1
  S  S3_3  1  0.00000000  0.50000000  0.84271550  1
  S  S3_4  1  0.50000000  0.00000000  0.34271550  1
  S  S3_5  1  0.50000000  0.00000000  0.84271550  1
  S  S3_6  1  0.50000000  0.50000000  0.34271550  1
  S  S3_7  1  0.50000000  0.50000000  0.84271550  1
loop_
_geom_bond_atom_site_label_1
_geom_bond_atom_site_label_2
_geom_bond_distance
_geom_bond_site_symmetry_2
Mg0_0 S0_2 2.763086 1_555
Mg0_0 S0_0 2.763088 1_555
Mg0_0 S0_6 2.763088 1_555
Mg0_0 Mg0_2 3.243142 1_545
Mg0_0 Mg0_2 3.243142 1_555
Mg0_0 Mg0_6 3.243142 1_445
Mg0_0 Mg0_6 3.243142 1_555
Mg0_0 Mg0_4 3.243142 1_455
Mg0_0 Mg0_4 3.243142 1_555
Mg0_1 S0_3 2.763086 1_555
Mg0_1 S0_1 2.763088 1_555
Mg0_1 S0_7 2.763088 1_555
Mg0_1 Mg0_3 3.243142 1_545
Mg0_1 Mg0_3 3.243142 1_555
Mg0_1 Mg0_7 3.243142 1_445
Mg0_1 Mg0_7 3.243142 1_555
Mg0_1 Mg0_5 3.243142 1_455
Mg0_1 Mg0_5 3.243142 1_555
Mg0_2 S0_0 2.763086 1_565
Mg0_2 S0_2 2.763088 1_555
Mg0_2 S0_4 2.763088 1_565
Mg0_2 Mg0_4 3.243142 1_455
Mg0_2 Mg0_4 3.243142 1_565
Mg0_2 Mg0_6 3.243142 1_455
Mg0_2 Mg0_6 3.243142 1_555
Mg0_3 S0_1 2.763086 1_565
Mg0_3 S0_3 2.763088 1_555
Mg0_3 S0_5 2.763088 1_565
Mg0_3 Mg0_5 3.243142 1_565
Mg0_3 Mg0_5 3.243142 1_455
Mg0_3 Mg0_7 3.243142 1_455
Mg0_3 Mg0_7 3.243142 1_555
Mg0_4 S0_6 2.763086 1_555
Mg0_4 S0_4 2.763088 1_555
Mg0_4 S0_2 2.763088 1_655
Mg0_4 Mg0_6 3.243142 1_545
Mg0_4 Mg0_6 3.243142 1_555
Mg0_5 S0_7 2.763086 1_555
Mg0_5 S0_5 2.763088 1_555
Mg0_5 S0_3 2.763088 1_655
Mg0_5 Mg0_7 3.243142 1_545
Mg0_5 Mg0_7 3.243142 1_555
Mg0_6 S0_4 2.763086 1_565
Mg0_6 S0_6 2.763088 1_555
Mg0_6 S0_0 2.763088 1_665
Mg0_7 S0_5 2.763086 1_565
Mg0_7 S0_7 2.763088 1_555
Mg0_7 S0_1 2.763088 1_665
Au0_0 S1_0 2.356469 1_555
Au0_0 S2_1 2.365852 1_555
Au0_0 Au0_2 3.243142 1_555
Au0_0 Au0_2 3.243142 1_545
Au0_0 Au0_6 3.243142 1_555
Au0_0 Au0_6 3.243142 1_445
Au0_0 Au0_4 3.243142 1_555
Au0_0 Au0_4 3.243142 1_455
Au0_1 S1_1 2.356469 1_555
Au0_1 S2_0 2.365852 1_556
Au0_1 Au0_3 3.243142 1_545
Au0_1 Au0_3 3.243142 1_555
Au0_1 Au0_7 3.243142 1_555
Au0_1 Au0_7 3.243142 1_445
Au0_1 Au0_5 3.243142 1_455
Au0_1 Au0_5 3.243142 1_555
Au0_2 S1_2 2.356469 1_555
Au0_2 S2_3 2.365852 1_555
Au0_2 Au0_4 3.243142 1_455
Au0_2 Au0_4 3.243142 1_565
Au0_2 Au0_6 3.243142 1_555
Au0_2 Au0_6 3.243142 1_455
Au0_3 S1_3 2.356469 1_555
Au0_3 S2_2 2.365852 1_556
Au0_3 Au0_5 3.243142 1_565
Au0_3 Au0_5 3.243142 1_455
Au0_3 Au0_7 3.243142 1_455
Au0_3 Au0_7 3.243142 1_555
Au0_4 S1_4 2.356469 1_555
Au0_4 S2_5 2.365852 1_555
Au0_4 Au0_6 3.243142 1_555
Au0_4 Au0_6 3.243142 1_545
Au0_5 S1_5 2.356469 1_555
Au0_5 S2_4 2.365852 1_556
Au0_5 Au0_7 3.243142 1_555
Au0_5 Au0_7 3.243142 1_545
Au0_6 S1_6 2.356469 1_555
Au0_6 S2_7 2.365852 1_555
Au0_7 S1_7 2.356469 1_555
Au0_7 S2_6 2.365852 1_556
Au1_0 S3_0 2.510552 1_555
Au1_0 Mg0_2 2.679304 1_545
Au1_0 Mg0_0 2.679306 1_555
Au1_0 Mg0_6 2.679306 1_445
Au1_0 Au1_2 3.243142 1_555
Au1_0 Au1_2 3.243142 1_545
Au1_0 Au1_6 3.243142 1_555
Au1_0 Au1_6 3.243142 1_445
Au1_0 Au1_4 3.243142 1_455
Au1_0 Au1_4 3.243142 1_555
Au1_1 S3_1 2.510552 1_555
Au1_1 Mg0_3 2.679304 1_545
Au1_1 Mg0_1 2.679306 1_555
Au1_1 Mg0_7 2.679306 1_445
Au1_1 Au1_3 3.243142 1_555
Au1_1 Au1_3 3.243142 1_545
Au1_1 Au1_7 3.243142 1_555
Au1_1 Au1_7 3.243142 1_445
Au1_1 Au1_5 3.243142 1_455
Au1_1 Au1_5 3.243142 1_555
Au1_2 S3_2 2.510552 1_555
Au1_2 Mg0_0 2.679304 1_555
Au1_2 Mg0_2 2.679306 1_555
Au1_2 Mg0_4 2.679306 1_455
Au1_2 Au1_4 3.243142 1_455
Au1_2 Au1_4 3.243142 1_565
Au1_2 Au1_6 3.243142 1_455
Au1_2 Au1_6 3.243142 1_555
Au1_3 S3_3 2.510552 1_555
Au1_3 Mg0_1 2.679304 1_555
Au1_3 Mg0_3 2.679306 1_555
Au1_3 Mg0_5 2.679306 1_455
Au1_3 Au1_5 3.243142 1_565
Au1_3 Au1_5 3.243142 1_455
Au1_3 Au1_7 3.243142 1_555
Au1_3 Au1_7 3.243142 1_455
Au1_4 S3_4 2.510552 1_555
Au1_4 Mg0_6 2.679304 1_545
Au1_4 Mg0_4 2.679306 1_555
Au1_4 Mg0_2 2.679306 1_545
Au1_4 Au1_6 3.243142 1_545
Au1_4 Au1_6 3.243142 1_555
Au1_5 S3_5 2.510552 1_555
Au1_5 Mg0_7 2.679304 1_545
Au1_5 Mg0_5 2.679306 1_555
Au1_5 Mg0_3 2.679306 1_545
Au1_5 Au1_7 3.243142 1_545
Au1_5 Au1_7 3.243142 1_555
Au1_6 S3_6 2.510552 1_555
Au1_6 Mg0_4 2.679304 1_555
Au1_6 Mg0_6 2.679306 1_555
Au1_6 Mg0_0 2.679306 1_555
Au1_7 S3_7 2.510552 1_555
Au1_7 Mg0_5 2.679304 1_555
Au1_7 Mg0_7 2.679306 1_555
Au1_7 Mg0_1 2.679306 1_555
S0_0 V0_2 2.384488 1_545
S0_0 V0_0 2.384491 1_555
S0_0 V0_6 2.384491 1_445
S0_1 V0_3 2.384488 1_545
S0_1 V0_1 2.384491 1_555
S0_1 V0_7 2.384491 1_445
S0_2 V0_0 2.384488 1_555
S0_2 V0_2 2.384491 1_555
S0_2 V0_4 2.384491 1_455
S0_3 V0_1 2.384488 1_555
S0_3 V0_3 2.384491 1_555
S0_3 V0_5 2.384491 1_455
S0_4 V0_6 2.384488 1_545
S0_4 V0_4 2.384491 1_555
S0_4 V0_2 2.384491 1_545
S0_5 V0_7 2.384488 1_545
S0_5 V0_5 2.384491 1_555
S0_5 V0_3 2.384491 1_545
S0_6 V0_4 2.384488 1_555
S0_6 V0_6 2.384491 1_555
S0_6 V0_0 2.384491 1_555
S0_7 V0_5 2.384488 1_555
S0_7 V0_7 2.384491 1_555
S0_7 V0_1 2.384491 1_555
S1_0 V1_4 2.348524 1_455
S1_0 V1_6 2.348526 1_445
S1_0 V1_0 2.348526 1_555
S1_1 V1_5 2.348524 1_455
S1_1 V1_7 2.348526 1_445
S1_1 V1_1 2.348526 1_555
S1_2 V1_6 2.348524 1_455
S1_2 V1_4 2.348526 1_455
S1_2 V1_2 2.348526 1_555
S1_3 V1_7 2.348524 1_455
S1_3 V1_5 2.348526 1_455
S1_3 V1_3 2.348526 1_555
S1_4 V1_0 2.348524 1_555
S1_4 V1_2 2.348526 1_545
S1_4 V1_4 2.348526 1_555
S1_5 V1_1 2.348524 1_555
S1_5 V1_3 2.348526 1_545
S1_5 V1_5 2.348526 1_555
S1_6 V1_2 2.348524 1_555
S1_6 V1_0 2.348526 1_555
S1_6 V1_6 2.348526 1_555
S1_7 V1_3 2.348524 1_555
S1_7 V1_1 2.348526 1_555
S1_7 V1_7 2.348526 1_555
S2_0 V0_2 2.355082 1_545
S2_0 V0_0 2.355084 1_555
S2_0 V0_6 2.355085 1_445
S2_1 V0_3 2.355082 1_545
S2_1 V0_1 2.355084 1_555
S2_1 V0_7 2.355085 1_445
S2_2 V0_0 2.355082 1_555
S2_2 V0_2 2.355084 1_555
S2_2 V0_4 2.355085 1_455
S2_3 V0_1 2.355082 1_555
S2_3 V0_3 2.355084 1_555
S2_3 V0_5 2.355085 1_455
S2_4 V0_6 2.355082 1_545
S2_4 V0_4 2.355084 1_555
S2_4 V0_2 2.355085 1_545
S2_5 V0_7 2.355082 1_545
S2_5 V0_5 2.355084 1_555
S2_5 V0_3 2.355085 1_545
S2_6 V0_4 2.355082 1_555
S2_6 V0_6 2.355084 1_555
S2_6 V0_0 2.355085 1_555
S2_7 V0_5 2.355082 1_555
S2_7 V0_7 2.355084 1_555
S2_7 V0_1 2.355085 1_555
S3_0 V1_4 2.357354 1_455
S3_0 V1_6 2.357356 1_445
S3_0 V1_0 2.357357 1_555
S3_1 V1_5 2.357354 1_455
S3_1 V1_7 2.357356 1_445
S3_1 V1_1 2.357357 1_555
S3_2 V1_6 2.357354 1_455
S3_2 V1_4 2.357356 1_455
S3_2 V1_2 2.357357 1_555
S3_3 V1_7 2.357354 1_455
S3_3 V1_5 2.357356 1_455
S3_3 V1_3 2.357357 1_555
S3_4 V1_0 2.357354 1_555
S3_4 V1_2 2.357356 1_545
S3_4 V1_4 2.357357 1_555
S3_5 V1_1 2.357354 1_555
S3_5 V1_3 2.357356 1_545
S3_5 V1_5 2.357357 1_555
S3_6 V1_2 2.357354 1_555
S3_6 V1_0 2.357356 1_555
S3_6 V1_6 2.357357 1_555
S3_7 V1_3 2.357354 1_555
S3_7 V1_1 2.357356 1_555
S3_7 V1_7 2.357357 1_555
