# generated using pymatgen
data_Eu2Sb3
_symmetry_space_group_name_H-M   'P 1'
_cell_length_a   6.32460287
_cell_length_b   13.06379263
_cell_length_c   19.92262669
_cell_angle_alpha   49.08055295
_cell_angle_beta   90.00000000
_cell_angle_gamma   90.00000000
_symmetry_Int_Tables_number   1
_chemical_formula_structural   Eu2Sb3
_chemical_formula_sum   'Eu16 Sb24'
_cell_volume   1243.82423846
_cell_formula_units_Z   8
loop_
 _symmetry_equiv_pos_site_id
 _symmetry_equiv_pos_as_xyz
  1  'x, y, z'
loop_
 _atom_site_type_symbol
 _atom_site_label
 _atom_site_symmetry_multiplicity
 _atom_site_fract_x
 _atom_site_fract_y
 _atom_site_fract_z
 _atom_site_occupancy
  Eu  Eu0  1  0.94313194  -0.00000000  0.75000000  1
  Eu  Eu1  1  0.05663013  -0.00000000  0.25000000  1
  Eu  Eu2  1  0.55553940  0.74947812  0.75041493  1
  Eu  Eu3  1  0.44435879  0.25051400  0.24958962  1
  Eu  Eu4  1  0.55553940  0.25052188  0.74958507  1
  Eu  Eu5  1  0.44435879  0.74948600  0.25041038  1
  Eu  Eu6  1  0.94349290  0.50000000  0.75000000  1
  Eu  Eu7  1  0.05682959  0.50000000  0.25000000  1
  Eu  Eu8  1  0.75055261  0.87510418  0.00008970  1
  Eu  Eu9  1  0.24940084  0.12483891  -0.00015732  1
  Eu  Eu10  1  0.75055261  0.12489582  0.49991030  1
  Eu  Eu11  1  0.24940084  0.87516109  0.50015732  1
  Eu  Eu12  1  0.74899984  0.62551131  0.49959734  1
  Eu  Eu13  1  0.25090390  0.37443613  0.50029348  1
  Eu  Eu14  1  0.74899984  0.37448869  0.00040266  1
  Eu  Eu15  1  0.25090390  0.62556387  -0.00029348  1
  Sb  Sb0  1  0.92286972  0.87473506  0.15684722  1
  Sb  Sb1  1  0.07658630  0.12569302  0.84293357  1
  Sb  Sb2  1  0.92286972  0.12526494  0.34315278  1
  Sb  Sb3  1  0.07658630  0.87430698  0.65706643  1
  Sb  Sb4  1  0.75078691  0.70031164  0.92476370  1
  Sb  Sb5  1  0.24910109  0.29973649  0.07518198  1
  Sb  Sb6  1  0.75078691  0.29968836  0.57523630  1
  Sb  Sb7  1  0.24910109  0.70026351  0.42481802  1
  Sb  Sb8  1  0.74980367  0.79920757  0.57566275  1
  Sb  Sb9  1  0.25027201  0.20078567  0.42437639  1
  Sb  Sb10  1  0.74980367  0.20079243  0.92433725  1
  Sb  Sb11  1  0.25027201  0.79921433  0.07562361  1
  Sb  Sb12  1  0.42168115  0.93867839  0.84349352  1
  Sb  Sb13  1  0.57812315  0.06130722  0.15653439  1
  Sb  Sb14  1  0.42168115  0.06132161  0.65650648  1
  Sb  Sb15  1  0.57812315  0.93869278  0.34346561  1
  Sb  Sb16  1  0.92238422  0.37623212  0.15583466  1
  Sb  Sb17  1  0.07797874  0.62324506  0.84443748  1
  Sb  Sb18  1  0.92238422  0.62376788  0.34416534  1
  Sb  Sb19  1  0.07797874  0.37675494  0.65556252  1
  Sb  Sb20  1  0.42245553  0.56236424  0.65641216  1
  Sb  Sb21  1  0.57815986  0.43775445  0.34356797  1
  Sb  Sb22  1  0.42245553  0.43763576  0.84358784  1
  Sb  Sb23  1  0.57815986  0.56224555  0.15643203  1
loop_
_geom_bond_atom_site_label_1
_geom_bond_atom_site_label_2
_geom_bond_distance
_geom_bond_site_symmetry_2
Eu0 Sb3 3.289266 1_645
Eu0 Sb1 3.289266 1_655
Eu0 Sb4 3.327659 1_545
Eu0 Sb6 3.327659 1_555
Eu0 Sb12 3.364071 1_645
Eu0 Sb14 3.364071 1_655
Eu0 Sb12 3.610133 1_545
Eu0 Sb14 3.610133 1_555
Eu1 Sb0 3.288799 1_445
Eu1 Sb2 3.288799 1_455
Eu1 Sb7 3.328557 1_545
Eu1 Sb5 3.328557 1_555
Eu1 Sb13 3.363633 1_455
Eu1 Sb15 3.363633 1_445
Eu1 Sb13 3.610193 1_555
Eu1 Sb15 3.610193 1_545
Eu2 Sb14 3.290718 1_565
Eu2 Sb22 3.293032 1_555
Eu2 Sb4 3.328650 1_555
Eu2 Sb8 3.330118 1_555
Eu2 Sb17 3.362196 1_555
Eu2 Sb3 3.364676 1_555
Eu2 Sb3 3.606220 1_655
Eu2 Sb17 3.619328 1_655
Eu3 Sb15 3.290470 1_545
Eu3 Sb23 3.293013 1_555
Eu3 Sb5 3.329391 1_555
Eu3 Sb9 3.330344 1_555
Eu3 Sb16 3.362740 1_555
Eu3 Sb2 3.363842 1_555
Eu3 Sb2 3.610344 1_455
Eu3 Sb16 3.614694 1_455
Eu4 Sb12 3.290718 1_545
Eu4 Sb20 3.293032 1_555
Eu4 Sb6 3.328650 1_555
Eu4 Sb10 3.330118 1_555
Eu4 Sb19 3.362196 1_555
Eu4 Sb1 3.364676 1_555
Eu4 Sb1 3.606220 1_655
Eu4 Sb19 3.619328 1_655
Eu5 Sb13 3.290470 1_565
Eu5 Sb21 3.293013 1_555
Eu5 Sb7 3.329391 1_555
Eu5 Sb11 3.330344 1_555
Eu5 Sb18 3.362740 1_555
Eu5 Sb0 3.363842 1_555
Eu5 Sb0 3.610344 1_455
Eu5 Sb18 3.614694 1_455
Eu6 Sb19 3.289955 1_655
Eu6 Sb17 3.289955 1_655
Eu6 Sb8 3.325355 1_555
Eu6 Sb10 3.325355 1_555
Eu6 Sb20 3.365499 1_655
Eu6 Sb22 3.365499 1_655
Eu6 Sb22 3.606882 1_555
Eu6 Sb20 3.606882 1_555
Eu7 Sb16 3.290955 1_455
Eu7 Sb18 3.290955 1_455
Eu7 Sb11 3.325038 1_555
Eu7 Sb9 3.325038 1_555
Eu7 Sb23 3.363862 1_455
Eu7 Sb21 3.363862 1_455
Eu7 Sb21 3.608603 1_555
Eu7 Sb23 3.608603 1_555
Eu8 Sb23 3.304286 1_555
Eu8 Sb0 3.304740 1_555
Eu8 Sb11 3.358863 1_655
Eu8 Sb11 3.362203 1_555
Eu8 Sb1 3.368182 1_664
Eu8 Sb12 3.369719 1_554
Eu8 Sb4 3.457640 1_554
Eu8 Sb10 3.459572 1_564
Eu9 Sb1 3.304721 1_554
Eu9 Sb22 3.304940 1_554
Eu9 Sb10 3.357992 1_454
Eu9 Sb10 3.362787 1_554
Eu9 Sb0 3.366928 1_445
Eu9 Sb13 3.370792 1_555
Eu9 Sb11 3.458578 1_545
Eu9 Sb5 3.459166 1_555
Eu10 Sb21 3.304286 1_555
Eu10 Sb2 3.304740 1_555
Eu10 Sb9 3.358863 1_655
Eu10 Sb9 3.362203 1_555
Eu10 Sb3 3.368182 1_645
Eu10 Sb14 3.369719 1_555
Eu10 Sb6 3.457640 1_555
Eu10 Sb8 3.459572 1_545
Eu11 Sb3 3.304721 1_555
Eu11 Sb20 3.304940 1_555
Eu11 Sb8 3.357992 1_455
Eu11 Sb8 3.362787 1_555
Eu11 Sb2 3.366928 1_465
Eu11 Sb15 3.370792 1_555
Eu11 Sb9 3.458578 1_565
Eu11 Sb7 3.459166 1_555
Eu12 Sb18 3.299156 1_555
Eu12 Sb15 3.303202 1_555
Eu12 Sb7 3.356098 1_555
Eu12 Sb7 3.357304 1_655
Eu12 Sb19 3.364051 1_655
Eu12 Sb20 3.366014 1_555
Eu12 Sb8 3.456901 1_555
Eu12 Sb6 3.462084 1_555
Eu13 Sb19 3.299808 1_555
Eu13 Sb14 3.302664 1_555
Eu13 Sb6 3.356831 1_555
Eu13 Sb6 3.358224 1_455
Eu13 Sb18 3.365918 1_455
Eu13 Sb21 3.366603 1_555
Eu13 Sb9 3.453769 1_555
Eu13 Sb7 3.463346 1_555
Eu14 Sb16 3.299156 1_555
Eu14 Sb13 3.303202 1_555
Eu14 Sb5 3.356098 1_555
Eu14 Sb5 3.357304 1_655
Eu14 Sb17 3.364051 1_654
Eu14 Sb22 3.366014 1_554
Eu14 Sb10 3.456901 1_554
Eu14 Sb4 3.462084 1_554
Eu15 Sb17 3.299808 1_554
Eu15 Sb12 3.302664 1_554
Eu15 Sb4 3.356831 1_554
Eu15 Sb4 3.358224 1_454
Eu15 Sb16 3.365918 1_455
Eu15 Sb23 3.366603 1_555
Eu15 Sb11 3.453769 1_555
Eu15 Sb5 3.463346 1_555
Sb0 Sb18 2.940724 1_555
Sb0 Sb11 3.157693 1_655
Sb0 Sb13 3.267238 1_565
Sb0 Sb10 3.866722 1_564
Sb1 Sb19 2.941655 1_555
Sb1 Sb10 3.154132 1_455
Sb1 Sb12 3.270619 1_545
Sb1 Sb11 3.871287 1_546
Sb2 Sb9 3.157693 1_655
Sb2 Sb8 3.866722 1_545
Sb3 Sb8 3.154132 1_455
Sb3 Sb9 3.871287 1_565
Sb10 Sb22 3.150728 1_555
Sb10 Sb13 3.854414 1_556
Sb11 Sb23 3.153877 1_555
Sb11 Sb12 3.852828 1_554
Sb12 Sb14 2.936980 1_565
Sb12 Sb4 3.169545 1_555
Sb13 Sb15 2.936074 1_545
Sb13 Sb5 3.169510 1_555
Sb14 Sb6 3.169545 1_555
Sb14 Sb3 3.270619 1_545
Sb14 Sb9 3.852828 1_555
Sb15 Sb7 3.169510 1_555
Sb15 Sb2 3.267238 1_565
Sb15 Sb8 3.854414 1_555
Sb16 Sb2 2.940724 1_555
Sb16 Sb5 3.154966 1_655
Sb16 Sb23 3.268457 1_555
Sb16 Sb4 3.842246 1_554
Sb17 Sb3 2.941655 1_555
Sb17 Sb4 3.157128 1_455
Sb17 Sb22 3.268052 1_555
Sb17 Sb5 3.835934 1_556
Sb18 Sb7 3.154966 1_655
Sb18 Sb21 3.268457 1_555
Sb18 Sb6 3.842246 1_555
Sb19 Sb6 3.157128 1_455
Sb19 Sb20 3.268052 1_555
Sb19 Sb7 3.835934 1_555
Sb20 Sb22 2.932735 1_555
Sb20 Sb8 3.150728 1_555
Sb20 Sb7 3.853237 1_555
Sb21 Sb23 2.932878 1_555
Sb21 Sb9 3.153877 1_555
Sb21 Sb6 3.852558 1_555
Sb22 Sb5 3.853237 1_556
Sb23 Sb4 3.852558 1_554
