# generated using pymatgen
data_Ca3AsCl3
_symmetry_space_group_name_H-M   'P 1'
_cell_length_a   5.75617461
_cell_length_b   5.75617461
_cell_length_c   5.75617461
_cell_angle_alpha   90.00000000
_cell_angle_beta   90.00000000
_cell_angle_gamma   90.00000000
_symmetry_Int_Tables_number   1
_chemical_formula_structural   Ca3AsCl3
_chemical_formula_sum   'Ca3 As1 Cl3'
_cell_volume   190.72247703
_cell_formula_units_Z   1
loop_
 _symmetry_equiv_pos_site_id
 _symmetry_equiv_pos_as_xyz
  1  'x, y, z'
loop_
 _atom_site_type_symbol
 _atom_site_label
 _atom_site_symmetry_multiplicity
 _atom_site_fract_x
 _atom_site_fract_y
 _atom_site_fract_z
 _atom_site_occupancy
  Ca  Ca0  1  0.50000000  -0.00000000  -0.00000000  1
  Ca  Ca1  1  -0.00000000  0.50000000  -0.00000000  1
  Ca  Ca2  1  0.00000000  -0.00000000  0.50000000  1
  As  As0  1  0.00000000  0.00000000  0.00000000  1
  Cl  Cl0  1  0.50000000  0.00000000  0.50000000  1
  Cl  Cl1  1  0.50000000  0.50000000  0.00000000  1
  Cl  Cl2  1  0.00000000  0.50000000  0.50000000  1
loop_
_geom_bond_atom_site_label_1
_geom_bond_atom_site_label_2
_geom_bond_distance
_geom_bond_site_symmetry_2
Ca0 Cl1 2.878087 1_545
Ca0 Cl0 2.878087 1_554
Ca0 Cl0 2.878087 1_555
Ca0 Cl1 2.878087 1_555
Ca1 Cl2 2.878087 1_554
Ca1 Cl2 2.878087 1_555
Ca1 Cl1 2.878087 1_455
Ca1 Cl1 2.878087 1_555
Ca2 Cl2 2.878087 1_545
Ca2 Cl2 2.878087 1_555
Ca2 Cl0 2.878087 1_455
Ca2 Cl0 2.878087 1_555
As0 Ca0 2.878087 1_455
As0 Ca2 2.878087 1_555
As0 Ca0 2.878087 1_555
As0 Ca2 2.878087 1_554
As0 Ca1 2.878087 1_545
As0 Ca1 2.878087 1_555
