# generated using pymatgen
data_MgFe4(OF)4
_symmetry_space_group_name_H-M   'P 1'
_cell_length_a   5.12696607
_cell_length_b   9.81581112
_cell_length_c   3.06539011
_cell_angle_alpha   90.02552564
_cell_angle_beta   89.99131923
_cell_angle_gamma   95.74080538
_symmetry_Int_Tables_number   1
_chemical_formula_structural   MgFe4(OF)4
_chemical_formula_sum   'Mg1 Fe4 O4 F4'
_cell_volume   153.49304224
_cell_formula_units_Z   1
loop_
 _symmetry_equiv_pos_site_id
 _symmetry_equiv_pos_as_xyz
  1  'x, y, z'
loop_
 _atom_site_type_symbol
 _atom_site_label
 _atom_site_symmetry_multiplicity
 _atom_site_fract_x
 _atom_site_fract_y
 _atom_site_fract_z
 _atom_site_occupancy
  Mg  Mg0  1  0.99465700  0.24860500  0.51756100  1
  Fe  Fe0  1  0.06646800  0.97664900  0.01372000  1
  Fe  Fe1  1  0.97099000  0.52258600  0.01382100  1
  Fe  Fe2  1  0.49549600  0.25668300  0.51637200  1
  Fe  Fe3  1  0.45795500  0.74688100  0.51144000  1
  O  O0  1  0.23161100  0.90602000  0.51342000  1
  O  O1  1  0.23200700  0.17173000  0.01593300  1
  O  O2  1  0.28412700  0.66443600  0.01173100  1
  O  O3  1  0.76378300  0.32252100  0.01689300  1
  F  F0  1  0.21986800  0.41974400  0.51502500  1
  F  F1  1  0.71353100  0.84225500  0.01294400  1
  F  F2  1  0.81848300  0.06209700  0.51545000  1
  F  F3  1  0.75102400  0.60979600  0.51318800  1
loop_
_geom_bond_atom_site_label_1
_geom_bond_atom_site_label_2
_geom_bond_distance
_geom_bond_site_symmetry_2
Mg0 O3 2.107291 1_556
Mg0 O3 2.110998 1_555
Mg0 O1 2.137613 1_656
Mg0 O1 2.144014 1_655
Fe0 O0 1.913796 1_555
Fe0 O0 1.914569 1_554
Fe0 O1 2.015435 1_565
Fe1 O2 2.017174 1_655
Fe1 O3 2.137246 1_555
Fe2 O3 2.115729 1_555
Fe2 O3 2.117927 1_556
Fe2 O1 2.154175 1_556
Fe2 O1 2.155852 1_555
Fe3 O2 1.910657 1_555
Fe3 O2 1.912449 1_556
Fe3 O0 2.037014 1_555
F0 Mg0 1.940927 1_455
F0 Fe2 2.238597 1_555
F0 Fe1 2.289273 1_456
F0 Fe1 2.295069 1_455
F1 Fe0 2.130020 1_655
F1 Fe3 2.164182 1_555
F1 Fe3 2.170394 1_554
F1 F2 2.653722 1_564
F1 F2 2.661568 1_565
F1 F3 2.770352 1_554
F1 F3 2.772335 1_555
F2 Mg0 1.958730 1_555
F2 Fe0 2.206347 1_646
F2 Fe0 2.212918 1_645
F2 Fe2 2.650110 1_555
F3 Fe3 2.114907 1_555
F3 Fe1 2.130561 1_555
F3 Fe1 2.134145 1_556
