# generated using pymatgen
data_MgCo6(OF)6
_symmetry_space_group_name_H-M   'P 1'
_cell_length_a   4.91475776
_cell_length_b   4.96591348
_cell_length_c   8.83357006
_cell_angle_alpha   91.46902495
_cell_angle_beta   91.77348314
_cell_angle_gamma   87.73550420
_symmetry_Int_Tables_number   1
_chemical_formula_structural   MgCo6(OF)6
_chemical_formula_sum   'Mg1 Co6 O6 F6'
_cell_volume   215.25852839
_cell_formula_units_Z   1
loop_
 _symmetry_equiv_pos_site_id
 _symmetry_equiv_pos_as_xyz
  1  'x, y, z'
loop_
 _atom_site_type_symbol
 _atom_site_label
 _atom_site_symmetry_multiplicity
 _atom_site_fract_x
 _atom_site_fract_y
 _atom_site_fract_z
 _atom_site_occupancy
  Mg  Mg0  1  0.49280900  0.97299800  0.16941100  1
  Co  Co0  1  0.96066500  0.95143000  0.99162700  1
  Co  Co1  1  0.03255000  0.04031600  0.34508800  1
  Co  Co2  1  0.06789400  0.04185300  0.67310800  1
  Co  Co3  1  0.55740700  0.45847000  0.17312500  1
  Co  Co4  1  0.47051100  0.53543500  0.83575800  1
  Co  Co5  1  0.44532800  0.50878400  0.50385300  1
  O  O0  1  0.16114300  0.80045200  0.83623600  1
  O  O1  1  0.17768300  0.83471600  0.50198000  1
  O  O2  1  0.34455200  0.26358100  0.32277000  1
  O  O3  1  0.31005700  0.32099500  0.68772300  1
  O  O4  1  0.65269300  0.69692400  0.00758600  1
  O  O5  1  0.84127500  0.16228500  0.16551600  1
  F  F0  1  0.18313100  0.74986800  0.16895200  1
  F  F1  1  0.33797100  0.23365700  0.00953500  1
  F  F2  1  0.65589200  0.71413400  0.67458400  1
  F  F3  1  0.67425600  0.73867800  0.33209700  1
  F  F4  1  0.81349500  0.20717300  0.83547100  1
  F  F5  1  0.82068900  0.24047000  0.50843800  1
loop_
_geom_bond_atom_site_label_1
_geom_bond_atom_site_label_2
_geom_bond_distance
_geom_bond_site_symmetry_2
Mg0 O5 1.987552 1_565
Mg0 O2 2.079955 1_565
Mg0 O4 2.103416 1_555
Co0 O0 1.841111 1_655
Co0 O5 1.930012 1_566
Co0 F4 1.998580 1_565
Co0 O4 2.020329 1_556
Co0 F0 2.130464 1_656
Co0 F1 2.367235 1_666
Co1 O1 1.850888 1_545
Co1 O5 1.918015 1_455
Co1 O2 1.945185 1_555
Co1 F5 2.022855 1_455
Co1 F0 2.218277 1_545
Co1 F3 2.354759 1_445
Co2 O3 1.861828 1_555
Co2 O1 1.887133 1_545
Co2 O0 1.930769 1_545
Co2 F4 2.064903 1_455
Co2 F5 2.105786 1_455
Co2 F2 2.648018 1_445
Co3 O4 1.983638 1_555
Co3 O5 1.988178 1_555
Co3 O2 2.002411 1_555
Co3 F3 2.037429 1_555
Co3 F1 2.100879 1_555
Co3 F0 2.295036 1_555
Co4 O3 1.843102 1_555
Co4 O4 1.912827 1_556
Co4 F2 1.963058 1_555
Co4 O0 1.971247 1_555
Co4 F4 2.298201 1_555
Co4 F1 2.298602 1_556
Co5 O3 2.035495 1_555
Co5 O1 2.045008 1_555
Co5 O2 2.045850 1_555
Co5 F2 2.072039 1_555
Co5 F5 2.232533 1_555
Co5 F3 2.273140 1_555
F0 Mg0 1.917524 1_555
F1 Mg0 2.049023 1_545
F1 O0 2.761020 1_544
F1 F4 2.833949 1_554
F1 O5 2.878353 1_455
F2 F5 2.844077 1_555
F3 Mg0 2.034431 1_555
F5 O2 2.816037 1_555
