# generated using pymatgen
data_EuC2(SN)2
_symmetry_space_group_name_H-M   'P 1'
_cell_length_a   6.04419998
_cell_length_b   6.04419998
_cell_length_c   8.12078869
_cell_angle_alpha   88.99991860
_cell_angle_beta   88.99991860
_cell_angle_gamma   64.45454682
_symmetry_Int_Tables_number   1
_chemical_formula_structural   EuC2(SN)2
_chemical_formula_sum   'Eu2 C4 S4 N4'
_cell_volume   267.61296528
_cell_formula_units_Z   2
loop_
 _symmetry_equiv_pos_site_id
 _symmetry_equiv_pos_as_xyz
  1  'x, y, z'
loop_
 _atom_site_type_symbol
 _atom_site_label
 _atom_site_symmetry_multiplicity
 _atom_site_fract_x
 _atom_site_fract_y
 _atom_site_fract_z
 _atom_site_occupancy
  Eu  Eu0  1  0.91217500  0.08782500  0.75000000  1
  Eu  Eu1  1  0.08782500  0.91217500  0.25000000  1
  C  C0  1  0.51329500  0.24795600  0.10154000  1
  C  C1  1  0.24795600  0.51329500  0.60154000  1
  C  C2  1  0.48670500  0.75204400  0.89846000  1
  C  C3  1  0.75204400  0.48670500  0.39846000  1
  S  S0  1  0.76505400  0.64010000  0.82664600  1
  S  S1  1  0.35990000  0.23494600  0.67335400  1
  S  S2  1  0.23494600  0.35990000  0.17335400  1
  S  S3  1  0.64010000  0.76505400  0.32664600  1
  N  N0  1  0.71924100  0.16169400  0.05001600  1
  N  N1  1  0.16169400  0.71924100  0.55001600  1
  N  N2  1  0.83830600  0.28075900  0.44998400  1
  N  N3  1  0.28075900  0.83830600  0.94998400  1
loop_
_geom_bond_atom_site_label_1
_geom_bond_atom_site_label_2
_geom_bond_distance
_geom_bond_site_symmetry_2
Eu0 N0 2.642886 1_556
Eu0 N2 2.642886 1_555
Eu0 N3 2.649175 1_645
Eu0 N1 2.649175 1_645
Eu0 S0 3.132726 1_555
Eu0 S1 3.132726 1_555
Eu0 S0 3.240155 1_545
Eu0 S1 3.240155 1_655
Eu1 N1 2.642886 1_555
Eu1 N3 2.642886 1_554
Eu1 N2 2.649175 1_465
Eu1 N0 2.649175 1_465
Eu1 S3 3.132726 1_555
Eu1 S2 3.132726 1_555
Eu1 S3 3.240155 1_455
Eu1 S2 3.240155 1_565
C0 N0 1.194187 1_555
C0 S2 1.620536 1_555
C1 N1 1.194187 1_555
C1 S1 1.620536 1_555
C2 N3 1.194187 1_555
C2 S0 1.620536 1_555
C3 N2 1.194187 1_555
C3 S3 1.620536 1_555
