# generated using pymatgen
data_YbInPd
_symmetry_space_group_name_H-M   'P 1'
_cell_length_a   3.72778570
_cell_length_b   7.63379665
_cell_length_c   7.63379665
_cell_angle_alpha   119.99999583
_cell_angle_beta   90.00000000
_cell_angle_gamma   90.00000000
_symmetry_Int_Tables_number   1
_chemical_formula_structural   YbInPd
_chemical_formula_sum   'Yb3 In3 Pd3'
_cell_volume   188.13203884
_cell_formula_units_Z   3
loop_
 _symmetry_equiv_pos_site_id
 _symmetry_equiv_pos_as_xyz
  1  'x, y, z'
loop_
 _atom_site_type_symbol
 _atom_site_label
 _atom_site_symmetry_multiplicity
 _atom_site_fract_x
 _atom_site_fract_y
 _atom_site_fract_z
 _atom_site_occupancy
  Yb  Yb0  1  0.50000000  0.40686735  1.00000000  1
  Yb  Yb1  1  0.50000000  1.00000000  0.40686735  1
  Yb  Yb2  1  0.50000000  0.59313265  0.59313265  1
  In  In0  1  0.00000000  0.73744572  0.00000000  1
  In  In1  1  0.00000000  0.00000000  0.73744572  1
  In  In2  1  0.00000000  0.26255428  0.26255428  1
  Pd  Pd0  1  0.50000000  0.00000000  0.00000000  1
  Pd  Pd1  1  0.00000000  0.66666700  0.33333300  1
  Pd  Pd2  1  0.00000000  0.33333300  0.66666700  1
loop_
_geom_bond_atom_site_label_1
_geom_bond_atom_site_label_2
_geom_bond_distance
_geom_bond_site_symmetry_2
In0 Pd0 2.737016 1_565
In0 Pd0 2.737016 1_465
In0 Pd1 2.853380 1_555
In0 Pd2 2.853385 1_554
In0 Yb0 3.137275 1_454
In0 Yb0 3.137275 1_554
In0 Yb2 3.303474 1_454
In0 Yb2 3.303474 1_554
In0 Yb1 3.303474 1_455
In0 Yb1 3.303474 1_555
In1 Pd0 2.737016 1_556
In1 Pd0 2.737016 1_456
In1 Pd2 2.853380 1_555
In1 Pd1 2.853385 1_545
In1 Yb1 3.137275 1_545
In1 Yb1 3.137275 1_445
In1 Yb2 3.303474 1_445
In1 Yb2 3.303474 1_545
In1 Yb0 3.303474 1_455
In1 Yb0 3.303474 1_555
In2 Pd0 2.737017 1_455
In2 Pd0 2.737017 1_555
In2 Pd1 2.853388 1_555
In2 Pd2 2.853388 1_555
In2 Yb2 3.137275 1_455
In2 Yb2 3.137275 1_555
In2 Yb0 3.303474 1_454
In2 Yb0 3.303474 1_554
In2 Yb1 3.303474 1_545
In2 Yb1 3.303474 1_445
Pd0 Yb0 3.105943 1_554
Pd0 Yb1 3.105943 1_545
Pd0 Yb2 3.105943 1_544
Pd1 Yb1 2.972504 1_455
Pd1 Yb1 2.972504 1_555
Pd1 Yb0 2.972505 1_454
Pd1 Yb0 2.972505 1_554
Pd1 Yb2 2.972509 1_455
Pd1 Yb2 2.972509 1_555
Pd2 Yb0 2.972504 1_555
Pd2 Yb0 2.972504 1_455
Pd2 Yb1 2.972505 1_445
Pd2 Yb1 2.972505 1_545
Pd2 Yb2 2.972509 1_455
Pd2 Yb2 2.972509 1_555
