# generated using pymatgen
data_MgTi(SO4)3
_symmetry_space_group_name_H-M   'P 1'
_cell_length_a   8.59939534
_cell_length_b   8.59939508
_cell_length_c   22.18902567
_cell_angle_alpha   90.00000000
_cell_angle_beta   90.00000000
_cell_angle_gamma   120.00000100
_symmetry_Int_Tables_number   1
_chemical_formula_structural   MgTi(SO4)3
_chemical_formula_sum   'Mg6 Ti6 S18 O72'
_cell_volume   1421.03468079
_cell_formula_units_Z   6
loop_
 _symmetry_equiv_pos_site_id
 _symmetry_equiv_pos_as_xyz
  1  'x, y, z'
loop_
 _atom_site_type_symbol
 _atom_site_label
 _atom_site_symmetry_multiplicity
 _atom_site_fract_x
 _atom_site_fract_y
 _atom_site_fract_z
 _atom_site_occupancy
  Mg  Mg0  1  0.00000000  -0.00000000  0.35454618  1
  Mg  Mg1  1  0.00000000  -0.00000000  0.85454618  1
  Mg  Mg2  1  0.66666700  0.33333300  0.68787918  1
  Mg  Mg3  1  0.66666700  0.33333300  0.18787918  1
  Mg  Mg4  1  0.33333300  0.66666700  0.02121318  1
  Mg  Mg5  1  0.33333300  0.66666700  0.52121318  1
  Ti  Ti0  1  0.00000000  -0.00000000  0.64469760  1
  Ti  Ti1  1  0.00000000  -0.00000000  0.14469760  1
  Ti  Ti2  1  0.66666700  0.33333300  0.97803060  1
  Ti  Ti3  1  0.66666700  0.33333300  0.47803060  1
  Ti  Ti4  1  0.33333300  0.66666700  0.31136460  1
  Ti  Ti5  1  0.33333300  0.66666700  0.81136460  1
  S  S0  1  0.28992306  0.00217265  0.25095685  1
  S  S1  1  0.71224958  0.71007694  0.25095685  1
  S  S2  1  0.99782735  0.28775042  0.25095685  1
  S  S3  1  0.28992306  0.28775042  0.75095685  1
  S  S4  1  0.99782735  0.71007694  0.75095685  1
  S  S5  1  0.71224958  0.00217265  0.75095685  1
  S  S6  1  0.95659006  0.33550565  0.58428985  1
  S  S7  1  0.37891658  0.04340994  0.58428985  1
  S  S8  1  0.66449435  0.62108342  0.58428985  1
  S  S9  1  0.95659006  0.62108342  0.08428985  1
  S  S10  1  0.66449435  0.04340994  0.08428985  1
  S  S11  1  0.37891658  0.33550565  0.08428985  1
  S  S12  1  0.62325606  0.66883965  0.91762385  1
  S  S13  1  0.04558258  0.37674394  0.91762385  1
  S  S14  1  0.33116035  0.95441742  0.91762385  1
  S  S15  1  0.62325606  0.95441742  0.41762385  1
  S  S16  1  0.33116035  0.37674394  0.41762385  1
  S  S17  1  0.04558258  0.66883965  0.41762385  1
  O  O0  1  0.20739649  0.02857912  0.30378273  1
  O  O1  1  0.82118263  0.79260351  0.30378273  1
  O  O2  1  0.97142088  0.17881737  0.30378273  1
  O  O3  1  0.20739649  0.17881737  0.80378273  1
  O  O4  1  0.97142088  0.79260351  0.80378273  1
  O  O5  1  0.82118263  0.02857912  0.80378273  1
  O  O6  1  0.79422401  0.96600549  0.69597584  1
  O  O7  1  0.17178148  0.20577599  0.69597584  1
  O  O8  1  0.03399451  0.82821852  0.69597584  1
  O  O9  1  0.79422401  0.82821852  0.19597584  1
  O  O10  1  0.03399451  0.20577599  0.19597584  1
  O  O11  1  0.17178148  0.96600549  0.19597584  1
  O  O12  1  0.87406349  0.36191212  0.63711573  1
  O  O13  1  0.48784963  0.12593651  0.63711573  1
  O  O14  1  0.63808788  0.51215037  0.63711573  1
  O  O15  1  0.87406349  0.51215037  0.13711573  1
  O  O16  1  0.63808788  0.12593651  0.13711573  1
  O  O17  1  0.48784963  0.36191212  0.13711573  1
  O  O18  1  0.46089101  0.29933849  0.02930884  1
  O  O19  1  0.83844848  0.53910899  0.02930884  1
  O  O20  1  0.70066151  0.16155152  0.02930884  1
  O  O21  1  0.46089101  0.16155152  0.52930884  1
  O  O22  1  0.70066151  0.53910899  0.52930884  1
  O  O23  1  0.83844848  0.29933849  0.52930884  1
  O  O24  1  0.54072949  0.69524612  0.97044973  1
  O  O25  1  0.15451563  0.45927051  0.97044973  1
  O  O26  1  0.30475388  0.84548437  0.97044973  1
  O  O27  1  0.54072949  0.84548437  0.47044973  1
  O  O28  1  0.30475388  0.45927051  0.47044973  1
  O  O29  1  0.15451563  0.69524612  0.47044973  1
  O  O30  1  0.12755701  0.63267249  0.36264284  1
  O  O31  1  0.50511448  0.87244299  0.36264284  1
  O  O32  1  0.36732751  0.49488552  0.36264284  1
  O  O33  1  0.12755701  0.49488552  0.86264284  1
  O  O34  1  0.36732751  0.87244299  0.86264284  1
  O  O35  1  0.50511448  0.63267249  0.86264284  1
  O  O36  1  0.02092152  0.82091277  0.40734535  1
  O  O37  1  0.79999125  0.97907848  0.40734535  1
  O  O38  1  0.17908723  0.20000875  0.40734535  1
  O  O39  1  0.02092152  0.20000875  0.90734535  1
  O  O40  1  0.17908723  0.97907848  0.90734535  1
  O  O41  1  0.79999125  0.82091277  0.90734535  1
  O  O42  1  0.97130305  0.16819706  0.59219131  1
  O  O43  1  0.19689401  0.02869695  0.59219131  1
  O  O44  1  0.83180294  0.80310599  0.59219131  1
  O  O45  1  0.97130305  0.80310599  0.09219131  1
  O  O46  1  0.83180294  0.02869695  0.09219131  1
  O  O47  1  0.19689401  0.16819706  0.09219131  1
  O  O48  1  0.68758852  0.15424577  0.74067835  1
  O  O49  1  0.46665825  0.31241148  0.74067835  1
  O  O50  1  0.84575423  0.53334175  0.74067835  1
  O  O51  1  0.68758852  0.53334175  0.24067835  1
  O  O52  1  0.84575423  0.31241148  0.24067835  1
  O  O53  1  0.46665825  0.15424577  0.24067835  1
  O  O54  1  0.63797005  0.50153006  0.92552431  1
  O  O55  1  0.86356101  0.36202995  0.92552431  1
  O  O56  1  0.49846994  0.13643899  0.92552431  1
  O  O57  1  0.63797005  0.13643899  0.42552431  1
  O  O58  1  0.49846994  0.36202995  0.42552431  1
  O  O59  1  0.86356101  0.50153006  0.42552431  1
  O  O60  1  0.35425452  0.48757977  0.07401235  1
  O  O61  1  0.13332425  0.64574548  0.07401235  1
  O  O62  1  0.51242023  0.86667575  0.07401235  1
  O  O63  1  0.35425452  0.86667575  0.57401235  1
  O  O64  1  0.51242023  0.64574548  0.57401235  1
  O  O65  1  0.13332425  0.48757977  0.57401235  1
  O  O66  1  0.30463605  0.83486406  0.25885831  1
  O  O67  1  0.53022701  0.69536395  0.25885831  1
  O  O68  1  0.16513594  0.46977299  0.25885831  1
  O  O69  1  0.30463605  0.46977299  0.75885831  1
  O  O70  1  0.16513594  0.69536395  0.75885831  1
  O  O71  1  0.53022701  0.83486406  0.75885831  1
loop_
_geom_bond_atom_site_label_1
_geom_bond_atom_site_label_2
_geom_bond_distance
_geom_bond_site_symmetry_2
Mg0 O38 2.013387 1_555
Mg0 O36 2.013387 1_545
Mg0 O37 2.013387 1_445
Mg0 O1 2.017835 1_445
Mg0 O2 2.017835 1_455
Mg0 O0 2.017835 1_555
Mg1 O39 2.013387 1_555
Mg1 O41 2.013387 1_445
Mg1 O40 2.013387 1_545
Mg1 O4 2.017835 1_445
Mg1 O3 2.017835 1_555
Mg1 O5 2.017835 1_455
Mg2 O50 2.013387 1_555
Mg2 O48 2.013387 1_555
Mg2 O49 2.013387 1_555
Mg2 O13 2.017835 1_555
Mg2 O14 2.017835 1_555
Mg2 O12 2.017835 1_555
Mg3 O51 2.013387 1_555
Mg3 O53 2.013387 1_555
Mg3 O52 2.013387 1_555
Mg3 O16 2.017835 1_555
Mg3 O15 2.017835 1_555
Mg3 O17 2.017835 1_555
Mg4 O62 2.013387 1_555
Mg4 O60 2.013387 1_555
Mg4 O61 2.013387 1_555
Mg4 O25 2.017835 1_554
Mg4 O26 2.017835 1_554
Mg4 O24 2.017835 1_554
Mg5 O63 2.013387 1_555
Mg5 O65 2.013387 1_555
Mg5 O64 2.013387 1_555
Mg5 O28 2.017835 1_555
Mg5 O27 2.017835 1_555
Mg5 O29 2.017835 1_555
O0 S0 1.445790 1_555
O1 S1 1.445790 1_555
O2 S2 1.445790 1_555
O3 S3 1.445790 1_555
O4 S4 1.445790 1_555
O5 S5 1.445790 1_555
O6 S5 1.516984 1_565
O6 Ti0 1.998521 1_665
O7 S3 1.516984 1_555
O7 Ti0 1.998521 1_555
O8 S4 1.516984 1_455
O8 Ti0 1.998521 1_565
O9 S1 1.516984 1_555
O9 Ti1 1.998521 1_665
O10 S2 1.516984 1_455
O10 Ti1 1.998521 1_555
O11 S0 1.516984 1_565
O11 Ti1 1.998521 1_565
O12 S6 1.445790 1_555
O13 S7 1.445790 1_555
O14 S8 1.445790 1_555
O15 S9 1.445790 1_555
O16 S10 1.445790 1_555
O17 S11 1.445790 1_555
O18 S11 1.516984 1_555
O18 Ti2 1.998521 1_554
O19 S9 1.516984 1_555
O19 Ti2 1.998521 1_554
O20 S10 1.516984 1_555
O20 Ti2 1.998521 1_554
O21 S7 1.516984 1_555
O21 Ti3 1.998521 1_555
O22 S8 1.516984 1_555
O22 Ti3 1.998521 1_555
O23 S6 1.516984 1_555
O23 Ti3 1.998521 1_555
O24 S12 1.445790 1_555
O25 S13 1.445790 1_555
O26 S14 1.445790 1_555
O27 S15 1.445790 1_555
O28 S16 1.445790 1_555
O29 S17 1.445790 1_555
O30 S17 1.516984 1_555
O30 Ti4 1.998521 1_555
O31 S15 1.516984 1_555
O31 Ti4 1.998521 1_555
O32 S16 1.516984 1_555
O32 Ti4 1.998521 1_555
O33 S13 1.516984 1_555
O33 Ti5 1.998521 1_555
O34 S14 1.516984 1_555
O34 Ti5 1.998521 1_555
O35 S12 1.516984 1_555
O35 Ti5 1.998521 1_555
O36 S17 1.443779 1_555
O37 S15 1.443787 1_555
O38 S16 1.443784 1_555
O39 S13 1.443787 1_555
O40 S14 1.443779 1_555
O41 S12 1.443784 1_555
O42 S6 1.516177 1_555
O42 Ti0 1.966535 1_655
O43 S7 1.516185 1_555
O43 Ti0 1.966535 1_555
O44 S8 1.516181 1_555
O44 Ti0 1.966535 1_665
O45 S9 1.516185 1_555
O45 Ti1 1.966535 1_665
O46 S10 1.516177 1_555
O46 Ti1 1.966535 1_655
O47 S11 1.516181 1_555
O47 Ti1 1.966535 1_555
O48 S5 1.443779 1_555
O49 S3 1.443787 1_555
O50 S4 1.443784 1_555
O51 S1 1.443787 1_555
O52 S2 1.443779 1_555
O53 S0 1.443784 1_555
O54 S12 1.516187 1_555
O54 Ti2 1.966535 1_555
O55 S13 1.516170 1_655
O55 Ti2 1.966535 1_555
O56 S14 1.516178 1_545
O56 Ti2 1.966535 1_555
O57 S15 1.516170 1_545
O57 Ti3 1.966535 1_555
O58 S16 1.516187 1_555
O58 Ti3 1.966535 1_555
O59 S17 1.516178 1_655
O59 Ti3 1.966535 1_555
O60 S11 1.443789 1_555
O61 S9 1.443772 1_455
O62 S10 1.443779 1_565
O63 S7 1.443772 1_565
O64 S8 1.443789 1_555
O65 S6 1.443779 1_455
O66 S0 1.516177 1_565
O66 Ti4 1.966535 1_555
O67 S1 1.516185 1_555
O67 Ti4 1.966535 1_555
O68 S2 1.516181 1_455
O68 Ti4 1.966535 1_555
O69 S3 1.516185 1_555
O69 Ti5 1.966535 1_555
O70 S4 1.516177 1_455
O70 Ti5 1.966535 1_555
O71 S5 1.516181 1_565
O71 Ti5 1.966535 1_555
