# generated using pymatgen
data_RbAg3S2
_symmetry_space_group_name_H-M   'P 1'
_cell_length_a   9.43007549
_cell_length_b   9.43007549
_cell_length_c   9.96128537
_cell_angle_alpha   63.25239392
_cell_angle_beta   63.25239392
_cell_angle_gamma   26.68713460
_symmetry_Int_Tables_number   1
_chemical_formula_structural   RbAg3S2
_chemical_formula_sum   'Rb2 Ag6 S4'
_cell_volume   352.72106800
_cell_formula_units_Z   2
loop_
 _symmetry_equiv_pos_site_id
 _symmetry_equiv_pos_as_xyz
  1  'x, y, z'
loop_
 _atom_site_type_symbol
 _atom_site_label
 _atom_site_symmetry_multiplicity
 _atom_site_fract_x
 _atom_site_fract_y
 _atom_site_fract_z
 _atom_site_occupancy
  Rb  Rb0  1  0.85368000  0.85367900  0.18885100  1
  Rb  Rb1  1  0.14632100  0.14632100  0.81114900  1
  Ag  Ag0  1  0.09111700  0.09111700  0.50861600  1
  Ag  Ag1  1  0.94650200  0.94650200  0.77265800  1
  Ag  Ag2  1  0.90888300  0.90888300  0.49138400  1
  Ag  Ag3  1  0.63582000  0.63582000  0.27369600  1
  Ag  Ag4  1  0.36418000  0.36418000  0.72630400  1
  Ag  Ag5  1  0.05349800  0.05349800  0.22734200  1
  S  S0  1  0.52678700  0.52678700  0.72492300  1
  S  S1  1  0.20447000  0.20447000  0.24854300  1
  S  S2  1  0.79553000  0.79553000  0.75145700  1
  S  S3  1  0.47321300  0.47321300  0.27507700  1
loop_
_geom_bond_atom_site_label_1
_geom_bond_atom_site_label_2
_geom_bond_distance
_geom_bond_site_symmetry_2
Rb0 S1 3.328868 1_655
Rb0 S1 3.328871 1_565
Rb0 S3 3.468280 1_655
Rb0 S3 3.468283 1_565
Rb1 S2 3.328863 1_545
Rb1 S2 3.328863 1_455
Rb1 S0 3.468288 1_545
Rb1 S0 3.468288 1_455
Ag0 S1 2.460330 1_555
Ag0 Ag1 2.739250 1_445
Ag0 S0 2.901684 1_455
Ag0 S0 2.901684 1_545
Ag0 Ag3 3.018231 1_455
Ag0 Ag3 3.018231 1_545
Ag0 Ag5 3.180615 1_555
Ag0 Ag2 3.426954 1_445
Ag0 Rb1 3.596168 1_555
Ag1 S0 2.546609 1_565
Ag1 S0 2.546609 1_655
Ag1 Ag4 2.806646 1_655
Ag1 Ag4 2.806646 1_565
Ag1 S2 2.874277 1_555
Ag1 Ag2 3.180615 1_555
Ag1 Rb0 3.681896 1_556
Ag2 S2 2.460330 1_555
Ag2 Ag5 2.739250 1_665
Ag2 S3 2.901684 1_565
Ag2 S3 2.901684 1_655
Ag2 Ag4 3.018231 1_565
Ag2 Ag4 3.018231 1_655
Ag2 Rb0 3.596162 1_555
Ag3 S1 2.468687 1_565
Ag3 S1 2.468687 1_655
Ag3 Ag5 2.806646 1_565
Ag3 Ag5 2.806646 1_655
Ag3 S3 2.977662 1_555
Ag3 Rb0 3.684019 1_555
Ag4 S2 2.468687 1_545
Ag4 S2 2.468687 1_455
Ag4 S0 2.977662 1_555
Ag4 Rb1 3.684010 1_555
Ag5 S3 2.546609 1_455
Ag5 S3 2.546609 1_545
Ag5 S1 2.874277 1_555
Ag5 Rb1 3.681896 1_554
