# generated using pymatgen
data_CuTeO4
_symmetry_space_group_name_H-M   'P 1'
_cell_length_a   3.03121394
_cell_length_b   5.12691788
_cell_length_c   5.12664717
_cell_angle_alpha   76.07512635
_cell_angle_beta   90.00000000
_cell_angle_gamma   90.00000000
_symmetry_Int_Tables_number   1
_chemical_formula_structural   CuTeO4
_chemical_formula_sum   'Cu1 Te1 O4'
_cell_volume   77.33072494
_cell_formula_units_Z   1
loop_
 _symmetry_equiv_pos_site_id
 _symmetry_equiv_pos_as_xyz
  1  'x, y, z'
loop_
 _atom_site_type_symbol
 _atom_site_label
 _atom_site_symmetry_multiplicity
 _atom_site_fract_x
 _atom_site_fract_y
 _atom_site_fract_z
 _atom_site_occupancy
  Cu  Cu0  1  0.00000000  -0.00000000  -0.00000000  1
  Te  Te0  1  0.50000000  0.50000000  0.50000000  1
  O  O0  1  0.00000000  0.66152943  0.66332129  1
  O  O1  1  0.50000000  0.80988579  0.19230125  1
  O  O2  1  0.00000000  0.33847057  0.33667871  1
  O  O3  1  0.50000000  0.19011421  0.80769875  1
loop_
_geom_bond_atom_site_label_1
_geom_bond_atom_site_label_2
_geom_bond_distance
_geom_bond_site_symmetry_2
Cu0 O3 1.938179 1_554
Cu0 O3 1.938179 1_454
Cu0 O1 1.938179 1_545
Cu0 O1 1.938179 1_445
Cu0 O0 2.726184 1_544
Cu0 O2 2.726184 1_555
O0 Te0 2.004416 1_555
O0 Te0 2.004416 1_455
O0 O1 2.796897 1_455
O0 O1 2.796897 1_555
O0 O3 2.797383 1_455
O0 O3 2.797383 1_555
O1 Te0 1.950976 1_555
O1 O2 2.797383 1_655
O1 O2 2.797383 1_555
O2 Te0 2.004416 1_555
O2 Te0 2.004416 1_455
O2 O3 2.796897 1_555
O2 O3 2.796897 1_455
O3 Te0 1.950976 1_555
