# generated using pymatgen
data_Ba(Co5As3)2
_symmetry_space_group_name_H-M   'P 1'
_cell_length_a   6.81229000
_cell_length_b   8.90452400
_cell_length_c   16.42082300
_cell_angle_alpha   90.00000000
_cell_angle_beta   90.00000000
_cell_angle_gamma   90.00000000
_symmetry_Int_Tables_number   1
_chemical_formula_structural   Ba(Co5As3)2
_chemical_formula_sum   'Ba4 Co40 As24'
_cell_volume   996.09040406
_cell_formula_units_Z   4
loop_
 _symmetry_equiv_pos_site_id
 _symmetry_equiv_pos_as_xyz
  1  'x, y, z'
loop_
 _atom_site_type_symbol
 _atom_site_label
 _atom_site_symmetry_multiplicity
 _atom_site_fract_x
 _atom_site_fract_y
 _atom_site_fract_z
 _atom_site_occupancy
  Ba  Ba0  1  0.25000000  0.45859200  0.74951000  1
  Ba  Ba1  1  0.75000000  0.54140800  0.25049000  1
  Ba  Ba2  1  0.75000000  0.95859200  0.75049000  1
  Ba  Ba3  1  0.25000000  0.04140800  0.24951000  1
  Co  Co0  1  0.75000000  0.74202400  0.06554700  1
  Co  Co1  1  0.43776500  0.49990000  0.42801600  1
  Co  Co2  1  0.93776500  0.50010000  0.57198400  1
  Co  Co3  1  0.56223500  0.99990000  0.07198400  1
  Co  Co4  1  0.25000000  0.64671900  0.20496800  1
  Co  Co5  1  0.75000000  0.35328100  0.79503200  1
  Co  Co6  1  0.75000000  0.14671900  0.29503200  1
  Co  Co7  1  0.25000000  0.85328100  0.70496800  1
  Co  Co8  1  0.25000000  0.08342600  0.79854000  1
  Co  Co9  1  0.75000000  0.91657400  0.20146000  1
  Co  Co10  1  0.75000000  0.58342600  0.70146000  1
  Co  Co11  1  0.25000000  0.41657400  0.29854000  1
  Co  Co12  1  0.25000000  0.82137400  0.03600900  1
  Co  Co13  1  0.75000000  0.17862600  0.96399100  1
  Co  Co14  1  0.75000000  0.32137400  0.46399100  1
  Co  Co15  1  0.56223500  0.50010000  0.57198400  1
  Co  Co16  1  0.25000000  0.25797600  0.93445300  1
  Co  Co17  1  0.25000000  0.67862600  0.53600900  1
  Co  Co18  1  0.75000000  0.75797600  0.56554700  1
  Co  Co19  1  0.25000000  0.24202400  0.43445300  1
  Co  Co20  1  0.06071000  0.56950200  0.06881200  1
  Co  Co21  1  0.56071000  0.43049800  0.93118800  1
  Co  Co22  1  0.93929000  0.06950200  0.43118800  1
  Co  Co23  1  0.43929000  0.93049800  0.56881200  1
  Co  Co24  1  0.93929000  0.43049800  0.93118800  1
  Co  Co25  1  0.43929000  0.56950200  0.06881200  1
  Co  Co26  1  0.06071000  0.93049800  0.56881200  1
  Co  Co27  1  0.56071000  0.06950200  0.43118800  1
  Co  Co28  1  0.00015400  0.28317200  0.07108500  1
  Co  Co29  1  0.50015400  0.71682800  0.92891500  1
  Co  Co30  1  0.99984600  0.78317200  0.42891500  1
  Co  Co31  1  0.49984600  0.21682800  0.57108500  1
  Co  Co32  1  0.99984600  0.71682800  0.92891500  1
  Co  Co33  1  0.49984600  0.28317200  0.07108500  1
  Co  Co34  1  0.00015400  0.21682800  0.57108500  1
  Co  Co35  1  0.50015400  0.78317200  0.42891500  1
  Co  Co36  1  0.93776500  0.99990000  0.07198400  1
  Co  Co37  1  0.43776500  0.00010000  0.92801600  1
  Co  Co38  1  0.06223500  0.49990000  0.42801600  1
  Co  Co39  1  0.06223500  0.00010000  0.92801600  1
  As  As0  1  0.48654900  0.71170200  0.64774500  1
  As  As1  1  0.98654900  0.21170200  0.85225500  1
  As  As2  1  0.48654900  0.78829800  0.14774500  1
  As  As3  1  0.01345100  0.71170200  0.64774500  1
  As  As4  1  0.25000000  0.09427600  0.04273900  1
  As  As5  1  0.75000000  0.90572400  0.95726100  1
  As  As6  1  0.75000000  0.59427600  0.45726100  1
  As  As7  1  0.25000000  0.40572400  0.54273900  1
  As  As8  1  0.25000000  0.52723500  0.95425100  1
  As  As9  1  0.75000000  0.47276500  0.04574900  1
  As  As10  1  0.75000000  0.02723500  0.54574900  1
  As  As11  1  0.25000000  0.97276500  0.45425100  1
  As  As12  1  0.25000000  0.82894000  0.84567300  1
  As  As13  1  0.75000000  0.17106000  0.15432700  1
  As  As14  1  0.51345100  0.28829800  0.35225500  1
  As  As15  1  0.25000000  0.67106000  0.34567300  1
  As  As16  1  0.25000000  0.39843100  0.15632200  1
  As  As17  1  0.75000000  0.60156900  0.84367800  1
  As  As18  1  0.75000000  0.89843100  0.34367800  1
  As  As19  1  0.25000000  0.10156900  0.65632200  1
  As  As20  1  0.01345100  0.78829800  0.14774500  1
  As  As21  1  0.51345100  0.21170200  0.85225500  1
  As  As22  1  0.98654900  0.28829800  0.35225500  1
  As  As23  1  0.75000000  0.32894000  0.65432700  1
loop_
_geom_bond_atom_site_label_1
_geom_bond_atom_site_label_2
_geom_bond_distance
_geom_bond_site_symmetry_2
Ba0 Co8 3.436323 1_555
Ba0 Co16 3.523358 1_555
Ba0 Co5 3.611088 1_455
Ba0 Co5 3.611088 1_555
Ba0 Co15 3.627511 1_555
Ba0 Co2 3.627511 1_455
Ba0 Co24 3.666452 1_455
Ba0 Co21 3.666452 1_555
Ba0 Co10 3.668788 1_555
Ba0 Co10 3.668788 1_455
Ba1 Co9 3.436323 1_555
Ba1 Co0 3.523358 1_555
Ba1 Co4 3.611088 1_655
Ba1 Co4 3.611088 1_555
Ba1 Co38 3.627511 1_655
Ba1 Co1 3.627511 1_555
Ba1 Co20 3.666452 1_655
Ba1 Co25 3.666452 1_555
Ba1 Co11 3.668788 1_555
Ba1 Co11 3.668788 1_655
Ba2 Co10 3.436323 1_555
Ba2 Co18 3.523358 1_555
Ba2 Co7 3.611088 1_555
Ba2 Co7 3.611088 1_655
Ba2 Co39 3.627511 1_665
Ba2 Co37 3.627511 1_565
Ba2 Co23 3.666452 1_555
Ba2 Co26 3.666452 1_655
Ba2 Co8 3.668788 1_665
Ba2 Co8 3.668788 1_565
Ba3 Co11 3.436323 1_555
Ba3 Co19 3.523358 1_555
Ba3 Co6 3.611088 1_555
Ba3 Co6 3.611088 1_455
Ba3 Co3 3.627511 1_545
Ba3 Co36 3.627511 1_445
Ba3 Co27 3.666452 1_555
Ba3 Co22 3.666452 1_455
Ba3 Co9 3.668788 1_545
Ba3 Co9 3.668788 1_445
Co0 Co20 2.615924 1_655
Co0 Co25 2.615924 1_555
Co0 Co36 2.630612 1_555
Co0 Co3 2.630612 1_555
Co0 Co9 2.719696 1_555
Co0 Co32 2.825067 1_554
Co0 Co29 2.825067 1_554
Co1 Co15 2.511538 1_555
Co1 Co35 2.558001 1_555
Co1 Co38 2.558219 1_555
Co1 Co11 2.589781 1_555
Co1 Co19 2.630612 1_555
Co1 Co17 2.704369 1_555
Co1 Co14 2.720361 1_555
Co2 Co38 2.511538 1_655
Co2 Co34 2.558001 1_655
Co3 Co37 2.511538 1_564
Co3 Co33 2.558001 1_565
Co3 Co36 2.558219 1_555
Co3 Co9 2.589781 1_555
Co6 Co9 2.561383 1_545
Co7 Co8 2.561383 1_565
Co10 Co5 2.561383 1_555
Co10 Co2 2.589781 1_555
Co10 Co15 2.589781 1_555
Co10 Co18 2.719696 1_555
Co11 Co4 2.561383 1_555
Co11 Co38 2.589781 1_555
Co11 Co19 2.719696 1_555
Co12 Co29 2.619779 1_554
Co12 Co32 2.619779 1_454
Co12 Co20 2.642557 1_555
Co12 Co25 2.642557 1_555
Co12 Co37 2.704369 1_564
Co12 Co39 2.704369 1_564
Co12 Co3 2.720361 1_555
Co12 Co36 2.720361 1_455
Co13 Co28 2.619779 1_656
Co13 Co33 2.619779 1_556
Co13 Co21 2.642557 1_555
Co13 Co24 2.642557 1_555
Co13 Co36 2.704369 1_546
Co13 Co3 2.704369 1_546
Co13 Co39 2.720361 1_655
Co13 Co37 2.720361 1_555
Co14 Co34 2.619779 1_655
Co14 Co31 2.619779 1_555
Co14 Co27 2.642557 1_555
Co14 Co22 2.642557 1_555
Co14 Co2 2.704369 1_555
Co14 Co15 2.704369 1_555
Co14 Co38 2.720361 1_655
Co15 Co31 2.558001 1_555
Co15 Co2 2.558219 1_555
Co15 Co18 2.630612 1_555
Co15 Co17 2.720361 1_555
Co16 Co21 2.615924 1_555
Co16 Co24 2.615924 1_455
Co16 Co37 2.630612 1_555
Co16 Co39 2.630612 1_555
Co16 Co8 2.719696 1_555
Co16 Co33 2.825067 1_556
Co16 Co28 2.825067 1_556
Co17 Co35 2.619779 1_555
Co17 Co30 2.619779 1_455
Co17 Co26 2.642557 1_555
Co17 Co23 2.642557 1_555
Co17 Co38 2.704369 1_555
Co17 Co2 2.720361 1_455
Co18 Co23 2.615924 1_555
Co18 Co26 2.615924 1_655
Co18 Co2 2.630612 1_555
Co18 Co30 2.825067 1_555
Co18 Co35 2.825067 1_555
Co19 Co22 2.615924 1_455
Co19 Co27 2.615924 1_555
Co19 Co38 2.630612 1_555
Co19 Co31 2.825067 1_555
Co19 Co34 2.825067 1_555
Co20 Co25 2.578997 1_555
Co20 Co28 2.583059 1_555
Co20 Co4 2.671020 1_555
Co20 Co32 2.677713 1_454
Co20 Co24 2.706174 1_454
Co21 Co24 2.578997 1_555
Co21 Co29 2.583059 1_555
Co21 Co5 2.671020 1_555
Co21 Co33 2.677713 1_556
Co21 Co25 2.706174 1_556
Co22 Co27 2.578997 1_555
Co22 Co30 2.583059 1_545
Co22 Co6 2.671020 1_555
Co22 Co34 2.677713 1_655
Co22 Co26 2.706174 1_645
Co23 Co26 2.578997 1_555
Co23 Co31 2.583059 1_565
Co23 Co7 2.671020 1_555
Co23 Co35 2.677713 1_555
Co23 Co27 2.706174 1_565
Co24 Co32 2.583059 1_555
Co24 Co5 2.671020 1_555
Co24 Co28 2.677713 1_656
Co25 Co33 2.583059 1_555
Co25 Co4 2.671020 1_555
Co25 Co29 2.677713 1_554
Co26 Co34 2.583059 1_565
Co26 Co7 2.671020 1_555
Co26 Co30 2.677713 1_455
Co27 Co35 2.583059 1_545
Co27 Co6 2.671020 1_555
Co27 Co31 2.677713 1_555
Co28 Co36 2.558001 1_445
Co29 Co37 2.558001 1_565
Co30 Co38 2.558001 1_655
Co32 Co39 2.558001 1_665
Co36 Co39 2.511538 1_664
Co36 Co9 2.589781 1_555
Co37 Co39 2.558219 1_555
Co37 Co8 2.589781 1_555
Co39 Co8 2.589781 1_555
As0 Co7 2.251450 1_555
As0 Co18 2.283111 1_555
As0 Co10 2.302970 1_555
As0 Co15 2.315985 1_555
As0 Co23 2.362078 1_555
As0 Co17 2.459668 1_555
As0 Ba0 3.235571 1_555
As0 Ba2 3.301605 1_555
As1 Co5 2.251450 1_555
As1 Co16 2.283111 1_655
As1 Co8 2.302970 1_655
As1 Co39 2.315985 1_655
As1 Co24 2.362078 1_555
As1 Co13 2.459668 1_555
As1 Ba2 3.235571 1_545
As1 Ba0 3.301605 1_655
As2 Co4 2.251450 1_555
As2 Co0 2.283111 1_555
As2 Co9 2.302970 1_555
As2 Co3 2.315985 1_555
As2 Co25 2.362078 1_555
As2 Co12 2.459668 1_555
As2 Ba3 3.235571 1_565
As2 Ba1 3.301605 1_555
As3 Co7 2.251450 1_555
As3 Co18 2.283111 1_455
As3 Co10 2.302970 1_455
As3 Co2 2.315985 1_455
As3 Co26 2.362078 1_555
As3 Co17 2.459668 1_555
As3 Ba0 3.235571 1_555
As3 Ba2 3.301605 1_455
As4 Co16 2.299262 1_554
As4 Co3 2.336905 1_545
As4 Co36 2.336905 1_445
As4 Co37 2.426569 1_554
As4 Co39 2.426569 1_554
As4 Co12 2.432574 1_545
As4 Co33 2.437778 1_555
As4 Co28 2.437778 1_555
As4 Ba3 3.427830 1_555
As5 Co0 2.299262 1_556
As5 Co39 2.336905 1_665
As5 Co37 2.336905 1_565
As5 Co36 2.426569 1_556
As5 Co3 2.426569 1_556
As5 Co13 2.432574 1_565
As5 Co32 2.437778 1_555
As5 Co29 2.437778 1_555
As5 Ba2 3.427830 1_555
As6 Co18 2.299262 1_555
As6 Co38 2.336905 1_655
As6 Co1 2.336905 1_555
As6 Co2 2.426569 1_555
As6 Co15 2.426569 1_555
As6 Co14 2.432574 1_555
As6 Co30 2.437778 1_555
As6 Co35 2.437778 1_555
As6 Ba1 3.427830 1_555
As7 Co19 2.299262 1_555
As7 Co15 2.336905 1_555
As7 Co2 2.336905 1_455
As7 Co1 2.426569 1_555
As7 Co38 2.426569 1_555
As7 Co17 2.432574 1_555
As7 Co31 2.437778 1_555
As7 Co34 2.437778 1_555
As7 Ba0 3.427830 1_555
As8 Co20 2.311562 1_556
As8 Co25 2.311562 1_556
As8 Co24 2.316381 1_455
As8 Co21 2.316381 1_555
As8 Co16 2.419563 1_555
As8 Co29 2.434596 1_555
As8 Co32 2.434596 1_455
As8 Ba0 3.417127 1_555
As9 Co21 2.311562 1_554
As9 Co24 2.311562 1_554
As9 Co20 2.316381 1_655
As9 Co25 2.316381 1_555
As9 Co0 2.419563 1_555
As9 Co28 2.434596 1_655
As9 Co33 2.434596 1_555
As9 Ba1 3.417127 1_555
As10 Co27 2.311562 1_555
As10 Co22 2.311562 1_555
As10 Co26 2.316381 1_645
As10 Co23 2.316381 1_545
As10 Co18 2.419563 1_545
As10 Co34 2.434596 1_655
As10 Co31 2.434596 1_555
As10 Ba2 3.417127 1_545
As11 Co26 2.311562 1_555
As11 Co23 2.311562 1_555
As11 Co22 2.316381 1_465
As11 Co27 2.316381 1_565
As11 Co19 2.419563 1_565
As11 Co35 2.434596 1_555
As11 Co30 2.434596 1_455
As11 Ba3 3.417127 1_565
As12 Co7 2.320636 1_555
As12 Co8 2.394603 1_565
As12 Co29 2.401887 1_555
As12 Co32 2.401887 1_455
As12 Co37 2.405676 1_565
As12 Co39 2.405676 1_565
As12 Ba0 3.656335 1_555
As13 Co6 2.320636 1_555
As13 Co9 2.394603 1_545
As13 Co28 2.401887 1_655
As13 Co33 2.401887 1_555
As13 Co36 2.405676 1_545
As13 Co3 2.405676 1_545
As13 Ba1 3.656335 1_555
As14 Co6 2.251450 1_555
As14 Co19 2.283111 1_555
As14 Co11 2.302970 1_555
As14 Co1 2.315985 1_555
As14 Co27 2.362078 1_555
As14 Co14 2.459668 1_555
As14 Ba1 3.235571 1_555
As14 Ba3 3.301605 1_555
As15 Co4 2.320636 1_555
As15 Co11 2.394603 1_555
As15 Co35 2.401887 1_555
As15 Co30 2.401887 1_455
As15 Co1 2.405676 1_555
As15 Co38 2.405676 1_555
As15 Ba3 3.656335 1_565
As16 Co11 2.340918 1_555
As16 Co4 2.350768 1_555
As16 Co33 2.430902 1_555
As16 Co28 2.430902 1_555
As16 Co25 2.459308 1_555
As16 Co20 2.459308 1_555
As16 Ba3 3.528227 1_555
As17 Co10 2.340918 1_555
As17 Co5 2.350768 1_555
As17 Co32 2.430902 1_555
As17 Co29 2.430902 1_555
As17 Co24 2.459308 1_555
As17 Co21 2.459308 1_555
As17 Ba2 3.528227 1_555
As18 Co9 2.340918 1_555
As18 Co6 2.350768 1_565
As18 Co30 2.430902 1_555
As18 Co35 2.430902 1_555
As18 Co27 2.459308 1_565
As18 Co22 2.459308 1_565
As18 Ba1 3.528227 1_555
As19 Co8 2.340918 1_555
As19 Co7 2.350768 1_545
As19 Co31 2.430902 1_555
As19 Co34 2.430902 1_555
As19 Co26 2.459308 1_545
As19 Co23 2.459308 1_545
As19 Ba0 3.528227 1_555
As20 Co4 2.251450 1_555
As20 Co0 2.283111 1_455
As20 Co9 2.302970 1_455
As20 Co36 2.315985 1_455
As20 Co20 2.362078 1_555
As20 Co12 2.459668 1_555
As20 Ba3 3.235571 1_565
As20 Ba1 3.301605 1_455
As21 Co5 2.251450 1_555
As21 Co16 2.283111 1_555
As21 Co8 2.302970 1_555
As21 Co37 2.315985 1_555
As21 Co21 2.362078 1_555
As21 Co13 2.459668 1_555
As21 Ba2 3.235571 1_545
As21 Ba0 3.301605 1_555
As22 Co6 2.251450 1_555
As22 Co19 2.283111 1_655
As22 Co11 2.302970 1_655
As22 Co38 2.315985 1_655
As22 Co22 2.362078 1_555
As22 Co14 2.459668 1_555
As22 Ba1 3.235571 1_555
As22 Ba3 3.301605 1_655
As23 Co5 2.320636 1_555
As23 Co10 2.394603 1_555
As23 Co34 2.401887 1_655
As23 Co31 2.401887 1_555
As23 Co2 2.405676 1_555
As23 Co15 2.405676 1_555
As23 Ba2 3.656335 1_545
