# generated using pymatgen
data_Na5Hf3MgSiP5O24
_symmetry_space_group_name_H-M   'P 1'
_cell_length_a   9.00922856
_cell_length_b   8.96829653
_cell_length_c   22.71642643
_cell_angle_alpha   89.98405774
_cell_angle_beta   90.23845348
_cell_angle_gamma   119.85155120
_symmetry_Int_Tables_number   1
_chemical_formula_structural   Na5Hf3MgSiP5O24
_chemical_formula_sum   'Na15 Hf9 Mg3 Si3 P15 O72'
_cell_volume   1591.88329464
_cell_formula_units_Z   3
loop_
 _symmetry_equiv_pos_site_id
 _symmetry_equiv_pos_as_xyz
  1  'x, y, z'
loop_
 _atom_site_type_symbol
 _atom_site_label
 _atom_site_symmetry_multiplicity
 _atom_site_fract_x
 _atom_site_fract_y
 _atom_site_fract_z
 _atom_site_occupancy
  Na  Na0  1  0.64479482  0.01627561  0.24244108  1
  Na  Na1  1  0.37288660  0.35659611  0.24231986  1
  Na  Na2  1  0.98417933  0.62885734  0.24290468  1
  Na  Na3  1  0.63652346  0.62425704  0.74639462  1
  Na  Na4  1  0.98749840  0.36329053  0.74676374  1
  Na  Na5  1  0.38069852  0.01599491  0.74167831  1
  Na  Na6  1  0.66052371  0.97720924  0.58456826  1
  Na  Na7  1  0.33216745  0.30790033  0.92367902  1
  Na  Na8  1  0.32309925  0.03115043  0.41344509  1
  Na  Na9  1  0.00130197  0.00075035  0.49053259  1
  Na  Na10  1  0.98149496  0.98813031  0.00291153  1
  Na  Na11  1  0.68169186  0.33826036  0.83895692  1
  Na  Na12  1  0.68072002  0.34606974  0.32952473  1
  Na  Na13  1  0.33358353  0.66785342  0.15798573  1
  Na  Na14  1  0.32162469  0.66181685  0.65997332  1
  Hf  Hf0  1  0.99157276  0.99387369  0.85673707  1
  Hf  Hf1  1  0.01040321  0.00144984  0.64292686  1
  Hf  Hf2  1  0.00007852  0.00148100  0.14628680  1
  Hf  Hf3  1  0.67583806  0.33637679  0.98301746  1
  Hf  Hf4  1  0.66757001  0.33816456  0.48165946  1
  Hf  Hf5  1  0.33517447  0.66529209  0.02001101  1
  Hf  Hf6  1  0.32848951  0.66149798  0.51864270  1
  Hf  Hf7  1  0.33348055  0.66432834  0.31553699  1
  Hf  Hf8  1  0.33188420  0.66484024  0.81780143  1
  Mg  Mg0  1  0.99119666  0.99872950  0.35188540  1
  Mg  Mg1  1  0.66575197  0.33210998  0.67939630  1
  Mg  Mg2  1  0.66800944  0.33480081  0.17897796  1
  Si  Si0  1  0.37548632  0.03953650  0.58428522  1
  Si  Si1  1  0.62692111  0.66439861  0.91721563  1
  Si  Si2  1  0.03748960  0.37377604  0.91563137  1
  P  P0  1  0.29271065  0.00102476  0.25360607  1
  P  P1  1  0.71014770  0.70861646  0.25192267  1
  P  P2  1  -0.00115430  0.29109970  0.25216517  1
  P  P3  1  0.29313660  0.29359575  0.75100609  1
  P  P4  1  0.00055171  0.70713109  0.74937323  1
  P  P5  1  0.70732802  0.00092525  0.74835210  1
  P  P6  1  0.95862078  0.33566111  0.58658011  1
  P  P7  1  0.66486838  0.62664627  0.58639935  1
  P  P8  1  0.96252817  0.62849303  0.08710299  1
  P  P9  1  0.66484156  0.03884515  0.08726348  1
  P  P10  1  0.37280947  0.33199931  0.08544840  1
  P  P11  1  0.33447109  0.96012896  0.91673461  1
  P  P12  1  0.63008118  0.96093546  0.41794367  1
  P  P13  1  0.33231013  0.36844706  0.41598554  1
  P  P14  1  0.03849693  0.66757278  0.41535882  1
  O  O0  1  0.21452694  0.02749816  0.30936789  1
  O  O1  1  0.82295692  0.79069100  0.30535722  1
  O  O2  1  0.97026519  0.17806760  0.30524074  1
  O  O3  1  0.20788129  0.18475859  0.80610801  1
  O  O4  1  0.97872188  0.79799524  0.80344107  1
  O  O5  1  0.82422695  0.01839060  0.80147033  1
  O  O6  1  0.78764804  0.97186901  0.69253654  1
  O  O7  1  0.17378788  0.20113829  0.69739120  1
  O  O8  1  0.02610209  0.82313238  0.69510491  1
  O  O9  1  0.79268547  0.82626309  0.19703268  1
  O  O10  1  0.03235565  0.20785890  0.19699513  1
  O  O11  1  0.17137081  0.96933720  0.19986401  1
  O  O12  1  0.88974706  0.36456408  0.64410761  1
  O  O13  1  0.48744553  0.11141348  0.64398446  1
  O  O14  1  0.64267737  0.52999294  0.64372599  1
  O  O15  1  0.88707497  0.53044530  0.14406674  1
  O  O16  1  0.64644214  0.11692376  0.14445320  1
  O  O17  1  0.47420174  0.35155468  0.14162414  1
  O  O18  1  0.45956903  0.31239688  0.02938447  1
  O  O19  1  0.84661514  0.53400144  0.03292438  1
  O  O20  1  0.68486362  0.15311853  0.03334925  1
  O  O21  1  0.47068082  0.15609669  0.52579788  1
  O  O22  1  0.69113105  0.53544695  0.53288706  1
  O  O23  1  0.83899540  0.30923861  0.53360588  1
  O  O24  1  0.52978636  0.69203259  0.97202478  1
  O  O25  1  0.16695666  0.47078209  0.96995238  1
  O  O26  1  0.30888978  0.84516151  0.96918042  1
  O  O27  1  0.53418003  0.85177802  0.47272601  1
  O  O28  1  0.31914221  0.46748431  0.46911040  1
  O  O29  1  0.15622764  0.68498898  0.46819171  1
  O  O30  1  0.12527783  0.64413673  0.35889124  1
  O  O31  1  0.51207083  0.87086286  0.36269110  1
  O  O32  1  0.35275890  0.47685000  0.35940748  1
  O  O33  1  0.12076898  0.48449987  0.85424502  1
  O  O34  1  0.35869838  0.87881681  0.85899938  1
  O  O35  1  0.51195587  0.63528370  0.85621052  1
  O  O36  1  0.03172178  0.83347597  0.41235907  1
  O  O37  1  0.80521665  0.97843866  0.41357223  1
  O  O38  1  0.17896219  0.18774295  0.41313980  1
  O  O39  1  0.03537302  0.19034165  0.90978772  1
  O  O40  1  0.17741861  0.98528763  0.90937798  1
  O  O41  1  0.81809819  0.82951335  0.91192528  1
  O  O42  1  0.96344973  0.16380756  0.58980646  1
  O  O43  1  0.18406018  0.02012102  0.58667073  1
  O  O44  1  0.82135889  0.81359167  0.58949153  1
  O  O45  1  0.97774514  0.80987518  0.08991663  1
  O  O46  1  0.82946587  0.02102283  0.08961276  1
  O  O47  1  0.19071277  0.16770319  0.08928936  1
  O  O48  1  0.69183906  0.16356315  0.74740619  1
  O  O49  1  0.47300436  0.31735345  0.74517226  1
  O  O50  1  0.84295686  0.52806264  0.74460548  1
  O  O51  1  0.68068189  0.52472986  0.24369561  1
  O  O52  1  0.84480705  0.32009168  0.24419048  1
  O  O53  1  0.47408813  0.15591702  0.24476457  1
  O  O54  1  0.62740762  0.48364757  0.92369309  1
  O  O55  1  0.84728687  0.34732607  0.92247519  1
  O  O56  1  0.49089066  0.14148275  0.92395217  1
  O  O57  1  0.63573073  0.13804122  0.42205605  1
  O  O58  1  0.49870209  0.35531456  0.42069142  1
  O  O59  1  0.86172483  0.50487843  0.42186858  1
  O  O60  1  0.35115244  0.49390028  0.07962600  1
  O  O61  1  0.14307908  0.65097236  0.07840689  1
  O  O62  1  0.50415385  0.85864370  0.07949841  1
  O  O63  1  0.35928393  0.84894259  0.57527805  1
  O  O64  1  0.50708096  0.65069401  0.57663460  1
  O  O65  1  0.14120159  0.48718455  0.57592378  1
  O  O66  1  0.30841082  0.83262847  0.25655196  1
  O  O67  1  0.52742355  0.69393162  0.25722304  1
  O  O68  1  0.16691121  0.47386952  0.25671032  1
  O  O69  1  0.30620156  0.47533534  0.75304199  1
  O  O70  1  0.16780423  0.69493028  0.75281115  1
  O  O71  1  0.52535714  0.83794271  0.75465547  1
loop_
_geom_bond_atom_site_label_1
_geom_bond_atom_site_label_2
_geom_bond_distance
_geom_bond_site_symmetry_2
Na0 O16 2.399081 1_555
Na0 O52 2.405075 1_555
Na0 O53 2.419605 1_555
Na0 O67 2.558775 1_545
Na0 O66 2.653023 1_545
Na0 O9 2.831236 1_545
Na0 O2 2.910210 1_555
Na0 O31 3.010853 1_545
Na1 O53 2.388836 1_555
Na1 O51 2.408512 1_555
Na1 O17 2.475102 1_555
Na1 O68 2.569970 1_555
Na1 O67 2.647474 1_555
Na1 O10 2.855185 1_555
Na1 O32 2.910478 1_555
Na1 O0 2.981609 1_555
Na2 O52 2.405055 1_555
Na2 O15 2.408635 1_555
Na2 O51 2.409801 1_555
Na2 O66 2.578182 1_655
Na2 O68 2.648409 1_655
Na2 O11 2.830133 1_655
Na2 O1 2.888918 1_555
Na2 O30 2.894095 1_655
Na3 O49 2.389535 1_555
Na3 O50 2.408875 1_555
Na3 O14 2.491194 1_555
Na3 O71 2.573577 1_555
Na3 O69 2.590308 1_555
Na3 O35 2.761579 1_555
Na3 O4 2.966052 1_555
Na3 O6 2.975838 1_555
Na4 O48 2.356757 1_555
Na4 O50 2.407678 1_555
Na4 O12 2.491332 1_555
Na4 O69 2.529562 1_655
Na4 O70 2.586964 1_655
Na4 O33 2.694881 1_655
Na4 O7 2.938665 1_655
Na4 O5 2.959625 1_555
Na5 O49 2.400920 1_555
Na5 O13 2.404101 1_555
Na5 O48 2.435146 1_555
Na5 O71 2.530518 1_545
Na5 O70 2.557224 1_545
Na5 O34 2.900944 1_545
Na5 O8 2.964596 1_545
Na5 O3 3.036956 1_555
Na6 O63 2.370806 1_555
Na6 O42 2.390316 1_565
Na6 O44 2.525969 1_555
Na6 O64 2.546901 1_555
Na6 O6 2.713053 1_555
Na6 O13 2.754728 1_565
Na6 O27 2.778276 1_555
Na6 O23 2.835431 1_565
Na7 O54 2.320708 1_555
Na7 O39 2.355324 1_555
Na7 O56 2.529212 1_555
Na7 O40 2.530117 1_545
Na7 O18 2.648789 1_556
Na7 O25 2.762709 1_555
Na7 O3 2.890028 1_555
Na7 O35 2.979415 1_555
Na8 O36 2.324036 1_545
Na8 O38 2.339649 1_555
Na8 O57 2.489556 1_555
Na8 O58 2.530061 1_555
Na8 O0 2.548821 1_555
Na8 O21 2.833306 1_555
Na8 O31 2.957666 1_545
Na8 O29 2.968461 1_545
Na9 O38 2.411376 1_555
Na9 O37 2.416578 1_445
Na9 O36 2.427751 1_545
Na9 O43 2.682572 1_555
Na9 O44 2.796123 1_445
Na9 O42 2.800915 1_455
Na10 O46 2.503417 1_565
Na10 O41 2.520762 1_554
Na10 O45 2.531437 1_555
Na10 O47 2.635465 1_665
Na10 O39 2.670121 1_664
Na10 O40 2.776131 1_654
Na11 O55 2.384871 1_555
Na11 O54 2.507701 1_555
Na11 O56 2.608250 1_555
Na11 O48 2.633282 1_555
Na11 O50 2.676584 1_555
Na11 O49 2.779344 1_555
Na12 O52 2.522767 1_555
Na12 O51 2.523400 1_555
Na12 O59 2.597926 1_555
Na12 O53 2.625390 1_555
Na12 O58 2.673692 1_555
Na12 O57 2.704703 1_555
Na13 O62 2.423146 1_555
Na13 O60 2.424284 1_555
Na13 O61 2.439714 1_555
Na13 O66 2.754691 1_555
Na13 O68 2.781399 1_555
Na13 O67 2.783398 1_555
Na14 O63 2.463727 1_555
Na14 O65 2.486357 1_555
Na14 O64 2.564758 1_555
Na14 O70 2.625006 1_555
Na14 O69 2.656168 1_555
Na14 O71 2.751886 1_555
Hf0 O41 1.977107 1_555
Hf0 O39 2.004413 1_665
Hf0 O5 2.052233 1_565
Hf0 O40 2.085882 1_655
Hf0 O4 2.088711 1_555
Hf0 O3 2.178883 1_665
Hf1 O43 1.965858 1_555
Hf1 O8 2.050636 1_545
Hf1 O7 2.065541 1_555
Hf1 O44 2.083269 1_445
Hf1 O42 2.088821 1_455
Hf1 O6 2.203750 1_445
Hf2 O45 2.070735 1_445
Hf2 O10 2.073581 1_555
Hf2 O46 2.074226 1_455
Hf2 O47 2.077757 1_555
Hf2 O11 2.091157 1_545
Hf2 O9 2.093634 1_445
Hf3 O19 2.016355 1_556
Hf3 O20 2.036232 1_556
Hf3 O55 2.038031 1_555
Hf3 O54 2.078157 1_555
Hf3 O18 2.133499 1_556
Hf3 O56 2.171427 1_555
Hf4 O21 1.987078 1_555
Hf4 O22 2.038349 1_555
Hf4 O23 2.056330 1_555
Hf4 O58 2.114632 1_555
Hf4 O59 2.134246 1_555
Hf4 O57 2.149959 1_555
Hf5 O24 1.979148 1_554
Hf5 O25 1.996959 1_554
Hf5 O26 2.090099 1_554
Hf5 O60 2.105903 1_555
Hf5 O62 2.122924 1_555
Hf5 O61 2.137536 1_555
Hf6 O29 2.019143 1_555
Hf6 O63 2.022892 1_555
Hf6 O28 2.038405 1_555
Hf6 O27 2.073908 1_555
Hf6 O65 2.091728 1_555
Hf6 O64 2.114503 1_555
Hf7 O32 2.034368 1_555
Hf7 O31 2.046208 1_555
Hf7 O30 2.048972 1_555
Hf7 O68 2.094795 1_555
Hf7 O67 2.106067 1_555
Hf7 O66 2.111950 1_555
Hf8 O33 1.966909 1_555
Hf8 O35 1.969674 1_555
Hf8 O34 2.038237 1_555
Hf8 O69 2.170988 1_555
Hf8 O70 2.194614 1_555
Hf8 O71 2.198104 1_555
Mg0 O2 2.011082 1_565
Mg0 O1 2.016948 1_555
Mg0 O37 2.126043 1_555
Mg0 O0 2.132359 1_665
Mg0 O36 2.179514 1_655
Mg0 O38 2.190513 1_665
Mg1 O13 1.992500 1_555
Mg1 O14 2.052885 1_555
Mg1 O12 2.056297 1_555
Mg1 O50 2.240568 1_555
Mg1 O49 2.249066 1_555
Mg1 O48 2.253062 1_555
Mg2 O17 2.009998 1_555
Mg2 O16 2.023000 1_555
Mg2 O15 2.041472 1_555
Mg2 O51 2.209560 1_555
Mg2 O52 2.222252 1_555
Mg2 O53 2.255999 1_555
O0 P0 1.526808 1_555
O1 P1 1.514473 1_555
O2 P2 1.513155 1_655
O3 P3 1.539632 1_555
O4 P4 1.540582 1_655
O5 P5 1.554035 1_555
O6 P5 1.547488 1_565
O7 P3 1.558575 1_555
O8 P4 1.555083 1_555
O9 P1 1.564248 1_555
O10 P2 1.564339 1_555
O11 P0 1.563981 1_565
O12 P6 1.525464 1_555
O13 Si0 1.616758 1_555
O14 P7 1.521917 1_555
O15 P8 1.523615 1_555
O16 P9 1.524282 1_555
O17 P10 1.524657 1_555
O18 P10 1.552112 1_555
O19 P8 1.559583 1_555
O20 P9 1.549168 1_555
O21 Si0 1.646127 1_555
O22 P7 1.548628 1_555
O23 P6 1.549491 1_555
O24 Si1 1.613250 1_555
O25 Si2 1.618174 1_555
O26 P11 1.516785 1_555
O27 P12 1.555564 1_555
O28 P13 1.538191 1_555
O29 P14 1.553835 1_555
O30 P14 1.572560 1_555
O31 P12 1.578845 1_555
O32 P13 1.566505 1_555
O33 Si2 1.661265 1_555
O34 P11 1.568732 1_555
O35 Si1 1.667474 1_555
O36 P14 1.520672 1_555
O37 P12 1.509568 1_555
O38 P13 1.519752 1_555
O39 Si2 1.641094 1_555
O40 P11 1.548117 1_555
O41 Si1 1.623680 1_555
O42 P6 1.565032 1_555
O43 Si0 1.646006 1_555
O44 P7 1.565144 1_555
O45 P8 1.564281 1_555
O46 P9 1.569530 1_555
O47 P10 1.569965 1_555
O48 P5 1.532966 1_555
O49 P3 1.531972 1_555
O50 P4 1.528253 1_655
O51 P1 1.545648 1_555
O52 P2 1.543833 1_655
O53 P0 1.543707 1_555
O54 Si1 1.629828 1_555
O55 Si2 1.616891 1_655
O56 P11 1.540969 1_545
O57 P12 1.566427 1_545
O58 P13 1.564260 1_555
O59 P14 1.541325 1_655
O60 P10 1.563810 1_555
O61 P8 1.549764 1_455
O62 P9 1.551646 1_565
O63 Si0 1.654221 1_565
O64 P7 1.555331 1_555
O65 P6 1.545591 1_455
O66 P0 1.586756 1_565
O67 P1 1.589856 1_555
O68 P2 1.586853 1_555
O69 P3 1.575297 1_555
O70 P4 1.565797 1_555
O71 P5 1.568755 1_565
