# generated using pymatgen
data_Na14Mg6Si5Ge2S7O48
_symmetry_space_group_name_H-M   'P 1'
_cell_length_a   17.98633547
_cell_length_b   9.04575161
_cell_length_c   22.02105906
_cell_angle_alpha   89.98112304
_cell_angle_beta   90.04983943
_cell_angle_gamma   120.52832938
_symmetry_Int_Tables_number   1
_chemical_formula_structural   Na14Mg6Si5Ge2S7O48
_chemical_formula_sum   'Na42 Mg18 Si15 Ge6 S21 O144'
_cell_volume   3086.16549098
_cell_formula_units_Z   3
loop_
 _symmetry_equiv_pos_site_id
 _symmetry_equiv_pos_as_xyz
  1  'x, y, z'
loop_
 _atom_site_type_symbol
 _atom_site_label
 _atom_site_symmetry_multiplicity
 _atom_site_fract_x
 _atom_site_fract_y
 _atom_site_fract_z
 _atom_site_occupancy
  Na  Na0  1  0.81097423  0.00391231  0.24670417  1
  Na  Na1  1  0.68652954  0.35674082  0.24497455  1
  Na  Na2  1  0.50065476  0.64880246  0.24356440  1
  Na  Na3  1  0.30867497  0.61243645  0.74624646  1
  Na  Na4  1  0.00241062  0.36477112  0.74129344  1
  Na  Na5  1  0.17473956  0.99408927  0.74224464  1
  Na  Na6  1  0.15230366  0.32504642  0.57340547  1
  Na  Na7  1  0.67521409  0.36591240  0.58514322  1
  Na  Na8  1  0.01276853  0.68619923  0.57006411  1
  Na  Na9  1  0.51822062  0.67781808  0.59697887  1
  Na  Na10  1  0.32688990  0.99049070  0.58613122  1
  Na  Na11  1  0.82682174  0.97406725  0.59885683  1
  Na  Na12  1  0.17185706  0.98158140  0.07805023  1
  Na  Na13  1  0.65928720  0.99396377  0.06547941  1
  Na  Na14  1  0.32154103  0.67938886  0.09176543  1
  Na  Na15  1  0.82824438  0.66415828  0.08032619  1
  Na  Na16  1  0.01807286  0.35860183  0.09085311  1
  Na  Na17  1  0.51246843  0.33157559  0.06396731  1
  Na  Na18  1  0.49050198  0.66857972  0.92188889  1
  Na  Na19  1  0.97790087  0.65936772  0.91370276  1
  Na  Na20  1  0.35718579  0.04514373  0.92565190  1
  Na  Na21  1  0.84445341  0.04260832  0.91006701  1
  Na  Na22  1  0.16608050  0.28896760  0.91450232  1
  Na  Na23  1  0.66137646  0.29093909  0.92865997  1
  Na  Na24  1  0.48167063  0.30436450  0.42941035  1
  Na  Na25  1  0.98983482  0.31319378  0.42850041  1
  Na  Na26  1  0.15734814  0.02592866  0.43231712  1
  Na  Na27  1  0.66871757  0.04632696  0.42177900  1
  Na  Na28  1  0.34233111  0.65210192  0.41715363  1
  Na  Na29  1  0.85588300  0.67048114  0.42736607  1
  Na  Na30  1  0.00286441  0.98653383  0.50038027  1
  Na  Na31  1  0.50743350  0.01605965  0.50724642  1
  Na  Na32  1  0.00568420  0.99653114  0.00103615  1
  Na  Na33  1  0.50451483  0.02247349  0.99491326  1
  Na  Na34  1  0.34114630  0.33391273  0.82919789  1
  Na  Na35  1  0.82352721  0.33074648  0.82681950  1
  Na  Na36  1  0.31280137  0.32016934  0.33185646  1
  Na  Na37  1  0.84458275  0.34893508  0.33101239  1
  Na  Na38  1  0.16918834  0.67523806  0.16124605  1
  Na  Na39  1  0.66654654  0.66255751  0.16307561  1
  Na  Na40  1  0.15705466  0.67091024  0.66716556  1
  Na  Na41  1  0.67079774  0.66313773  0.66256725  1
  Mg  Mg0  1  0.00629181  0.00431667  0.35495311  1
  Mg  Mg1  1  0.50154290  0.00344874  0.34578941  1
  Mg  Mg2  1  0.99840168  0.98403719  0.84100330  1
  Mg  Mg3  1  0.50729935  0.00953548  0.85452367  1
  Mg  Mg4  1  0.33198787  0.32259588  0.68088793  1
  Mg  Mg5  1  0.82897612  0.34293562  0.68351014  1
  Mg  Mg6  1  0.32371224  0.31947089  0.18074191  1
  Mg  Mg7  1  0.83207189  0.33817492  0.18028470  1
  Mg  Mg8  1  0.33390509  0.31125315  0.98727091  1
  Mg  Mg9  1  0.82741881  0.34088435  0.98633011  1
  Mg  Mg10  1  0.32706407  0.32032587  0.48877512  1
  Mg  Mg11  1  0.83511265  0.35904616  0.49185553  1
  Mg  Mg12  1  0.16698005  0.66663396  0.02364167  1
  Mg  Mg13  1  0.66276950  0.65820050  0.01552446  1
  Mg  Mg14  1  0.16196712  0.66690198  0.51649329  1
  Mg  Mg15  1  0.66834649  0.67321483  0.52549773  1
  Mg  Mg16  1  0.66319668  0.67552315  0.31190103  1
  Mg  Mg17  1  0.16007679  0.64757104  0.80911378  1
  Si  Si0  1  0.64792968  0.00290768  0.25065915  1
  Si  Si1  1  0.14726351  0.28671816  0.74987987  1
  Si  Si2  1  0.99526716  0.68218413  0.75628390  1
  Si  Si3  1  0.47959367  0.33135554  0.58243471  1
  Si  Si4  1  0.18479101  0.02554950  0.58554540  1
  Si  Si5  1  0.68657594  0.04666884  0.58331998  1
  Si  Si6  1  0.84098422  0.65144930  0.58627107  1
  Si  Si7  1  0.97928131  0.62744092  0.08193168  1
  Si  Si8  1  0.33987782  0.03520289  0.08723296  1
  Si  Si9  1  0.18622728  0.33065266  0.08218508  1
  Si  Si10  1  0.68289349  0.34117889  0.08765025  1
  Si  Si11  1  0.51842770  0.37746754  0.91379880  1
  Si  Si12  1  0.67066608  0.97088429  0.92088665  1
  Si  Si13  1  0.16965445  0.37061283  0.42099407  1
  Si  Si14  1  0.01519826  0.65892370  0.41575029  1
  Ge  Ge0  1  0.01481164  0.97334402  0.65156116  1
  Ge  Ge1  1  0.51302759  0.03739701  0.64842004  1
  Ge  Ge2  1  0.01355933  0.99093505  0.14651450  1
  Ge  Ge3  1  0.50769863  0.01561369  0.14680659  1
  Ge  Ge4  1  0.15823398  0.63239943  0.32355595  1
  Ge  Ge5  1  0.66530726  0.69166664  0.82272495  1
  S  S0  1  0.14877892  0.98767517  0.25183653  1
  S  S1  1  0.34688395  0.70138198  0.25207490  1
  S  S2  1  0.85692135  0.71841523  0.25129817  1
  S  S3  1  0.00737727  0.29637211  0.25123702  1
  S  S4  1  0.49864771  0.29680707  0.25164332  1
  S  S5  1  0.64680414  0.30906616  0.75217516  1
  S  S6  1  0.50687975  0.72076499  0.75098407  1
  S  S7  1  0.36160392  0.99840883  0.75041497  1
  S  S8  1  0.83900318  0.97755380  0.75591575  1
  S  S9  1  0.98127173  0.32939654  0.58371309  1
  S  S10  1  0.33743528  0.63878333  0.58534164  1
  S  S11  1  0.48130903  0.63502618  0.08785023  1
  S  S12  1  0.83707165  0.03545556  0.08636570  1
  S  S13  1  0.31108489  0.66416709  0.91426840  1
  S  S14  1  0.81056595  0.67071981  0.91509152  1
  S  S15  1  0.01785002  0.36670981  0.91744837  1
  S  S16  1  0.16756958  0.95663919  0.91554441  1
  S  S17  1  0.31148836  0.95292059  0.41146838  1
  S  S18  1  0.81096957  0.95977416  0.41348442  1
  S  S19  1  0.66358597  0.37721950  0.41248128  1
  S  S20  1  0.51760948  0.66852464  0.41471080  1
  O  O0  1  0.09954492  0.99386839  0.30338966  1
  O  O1  1  0.60497520  0.02837602  0.31114712  1
  O  O2  1  0.39718594  0.79519511  0.30688176  1
  O  O3  1  0.90228769  0.81621670  0.30527064  1
  O  O4  1  0.48786924  0.19723202  0.30695009  1
  O  O5  1  0.00244459  0.19553842  0.30478806  1
  O  O6  1  0.10279725  0.18024110  0.81130274  1
  O  O7  1  0.59801642  0.20520385  0.80421899  1
  O  O8  1  0.50158559  0.80887683  0.80560784  1
  O  O9  1  0.98275419  0.76639454  0.81713876  1
  O  O10  1  0.40764598  -0.00212546  0.80480221  1
  O  O11  1  0.89016179  0.98982384  0.81028858  1
  O  O12  1  0.40512058  0.97211669  0.69372735  1
  O  O13  1  0.87810730  0.96058620  0.69973425  1
  O  O14  1  0.07590386  0.17688863  0.69033574  1
  O  O15  1  0.59333292  0.22757692  0.69261591  1
  O  O16  1  0.01403669  0.81430467  0.69618053  1
  O  O17  1  0.51309714  0.82161612  0.69393125  1
  O  O18  1  0.39128389  0.79754959  0.19573142  1
  O  O19  1  0.89972707  0.82721221  0.19418636  1
  O  O20  1  0.01397839  0.21321245  0.19340855  1
  O  O21  1  0.50655131  0.20633826  0.19663838  1
  O  O22  1  0.09823599  0.96932066  0.19179383  1
  O  O23  1  0.57565345  0.96911803  0.19230101  1
  O  O24  1  0.43614389  0.38190862  0.63595557  1
  O  O25  1  0.93922667  0.33654843  0.64010615  1
  O  O26  1  0.24161042  0.10948791  0.64576627  1
  O  O27  1  0.75289862  0.13479934  0.63787420  1
  O  O28  1  0.32635141  0.53689684  0.64045245  1
  O  O29  1  0.81844258  0.51181102  0.63775840  1
  O  O30  1  0.44006002  0.54312776  0.14482091  1
  O  O31  1  0.93490302  0.49158357  0.13613829  1
  O  O32  1  0.32510557  0.13461839  0.14124462  1
  O  O33  1  0.82674962  0.11326687  0.14259359  1
  O  O34  1  0.25005091  0.37840288  0.13884483  1
  O  O35  1  0.73989086  0.37113416  0.14789428  1
  O  O36  1  0.21870689  0.27134799  0.02217721  1
  O  O37  1  0.72040488  0.29673903  0.02749107  1
  O  O38  1  0.43004559  0.54172124  0.03383781  1
  O  O39  1  0.92133038  0.56914531  0.01963536  1
  O  O40  1  0.36945510  0.14994537  0.02442949  1
  O  O41  1  0.84551579  0.13945802  0.03228807  1
  O  O42  1  0.22172869  0.14227790  0.52472197  1
  O  O43  1  0.71584490  0.16603309  0.52107570  1
  O  O44  1  0.34750886  0.55519507  0.53008022  1
  O  O45  1  0.87055709  0.59524500  0.52331808  1
  O  O46  1  0.42050953  0.27538493  0.52019957  1
  O  O47  1  0.93078426  0.32502206  0.52938114  1
  O  O48  1  0.26894257  0.68387108  0.96859821  1
  O  O49  1  0.76983672  0.68025205  0.97173646  1
  O  O50  1  0.07087556  0.45585070  0.97097251  1
  O  O51  1  0.57585795  0.45909198  0.97376972  1
  O  O52  1  0.16640919  0.86249476  0.97062784  1
  O  O53  1  0.65945318  0.85280737  0.97923460  1
  O  O54  1  0.27421767  0.85912963  0.46806800  1
  O  O55  1  0.76615360  0.85114354  0.46604030  1
  O  O56  1  0.16034408  0.46800246  0.47891593  1
  O  O57  1  0.66112929  0.46895202  0.46666767  1
  O  O58  1  0.07633597  0.69574306  0.47353136  1
  O  O59  1  0.57223745  0.68698823  0.46699519  1
  O  O60  1  0.06536305  0.61756190  0.35555084  1
  O  O61  1  0.55798387  0.65800251  0.35702233  1
  O  O62  1  0.25430495  0.85985146  0.35717015  1
  O  O63  1  0.76256372  0.87681993  0.35610618  1
  O  O64  1  0.19289658  0.50471845  0.35913796  1
  O  O65  1  0.66462041  0.47000087  0.35612726  1
  O  O66  1  0.06068558  0.45947724  0.86082929  1
  O  O67  1  0.57165247  0.51871399  0.85493674  1
  O  O68  1  0.16949510  0.86591759  0.86015875  1
  O  O69  1  0.69398707  0.88410479  0.86062757  1
  O  O70  1  0.26151638  0.65104543  0.85826118  1
  O  O71  1  0.75486325  0.64952439  0.86074985  1
  O  O72  1  0.00490662  0.82629777  0.40709245  1
  O  O73  1  0.50485343  0.82195315  0.41393647  1
  O  O74  1  0.39920879  0.97036106  0.40567994  1
  O  O75  1  0.89970186  0.98367595  0.41109111  1
  O  O76  1  0.08094852  0.18725412  0.41308519  1
  O  O77  1  0.58231807  0.20009602  0.41389370  1
  O  O78  1  0.00367325  0.18730261  0.91670910  1
  O  O79  1  0.50666343  0.18718499  0.90690673  1
  O  O80  1  0.08889060  0.97519805  0.91788813  1
  O  O81  1  0.58170005  0.97592745  0.91346762  1
  O  O82  1  0.40044684  0.81871064  0.91153422  1
  O  O83  1  0.89663408  0.83249085  0.91200216  1
  O  O84  1  0.48041115  0.14412220  0.59489274  1
  O  O85  1  0.98794334  0.17127981  0.58058511  1
  O  O86  1  0.08763282  0.01076637  0.58919891  1
  O  O87  1  0.58657240  0.02832868  0.59620764  1
  O  O88  1  0.41942146  0.81198903  0.58884247  1
  O  O89  1  0.92527297  0.85247959  0.60080050  1
  O  O90  1  0.48676502  0.80851112  0.08620134  1
  O  O91  1  0.98040209  0.81747399  0.09489388  1
  O  O92  1  0.42311259  0.99874134  0.09985048  1
  O  O93  1  0.91879135  0.02604201  0.08922285  1
  O  O94  1  0.08615029  0.14753853  0.09418161  1
  O  O95  1  0.58501894  0.15844386  0.09197462  1
  O  O96  1  0.35737939  0.15617261  0.74653784  1
  O  O97  1  0.82704554  0.12693636  0.75496020  1
  O  O98  1  0.24383082  0.30911426  0.74390317  1
  O  O99  1  0.72889292  0.31395115  0.74720464  1
  O  O100  1  0.42787574  0.54874379  0.74774905  1
  O  O101  1  0.91671937  0.48658360  0.74683211  1
  O  O102  1  0.34315719  0.53221894  0.25211479  1
  O  O103  1  0.85165097  0.55063328  0.24994217  1
  O  O104  1  0.42719313  0.33280777  0.24643481  1
  O  O105  1  0.92962433  0.31229696  0.24904211  1
  O  O106  1  0.23294113  0.14814811  0.24851882  1
  O  O107  1  0.74499983  0.17013363  0.24340916  1
  O  O108  1  0.31854521  0.50765746  0.91789852  1
  O  O109  1  0.82059425  0.51769252  0.91368313  1
  O  O110  1  0.42477257  0.36776769  0.91472214  1
  O  O111  1  0.93152299  0.35357185  0.92046249  1
  O  O112  1  0.24686003  0.13251814  0.91457896  1
  O  O113  1  0.75600457  0.16335803  0.92027472  1
  O  O114  1  0.32157116  0.12585704  0.41022795  1
  O  O115  1  0.81866920  0.13106127  0.41750260  1
  O  O116  1  0.25563137  0.35260236  0.41966211  1
  O  O117  1  0.74095525  0.35829019  0.41139790  1
  O  O118  1  0.43083874  0.50993736  0.41868792  1
  O  O119  1  0.92116287  0.48195715  0.41690777  1
  O  O120  1  0.16457993  0.48274977  0.07433663  1
  O  O121  1  0.66803198  0.50402767  0.08174335  1
  O  O122  1  0.07879500  0.67703450  0.07575515  1
  O  O123  1  0.57001042  0.66360626  0.08572977  1
  O  O124  1  0.25720280  0.84431644  0.07864999  1
  O  O125  1  0.76167610  0.85778487  0.08207236  1
  O  O126  1  0.17026516  0.83314664  0.58064968  1
  O  O127  1  0.66349692  0.84919305  0.57547631  1
  O  O128  1  0.26245954  0.66460020  0.58026399  1
  O  O129  1  0.75975441  0.68053225  0.57667201  1
  O  O130  1  0.07001402  0.48287551  0.58232913  1
  O  O131  1  0.57960665  0.48043139  0.57475013  1
  O  O132  1  0.15830835  0.83437310  0.25162487  1
  O  O133  1  0.65252607  0.82557475  0.24734210  1
  O  O134  1  0.25879859  0.68263890  0.25231033  1
  O  O135  1  0.76682428  0.69029848  0.24916738  1
  O  O136  1  0.08932243  0.47372897  0.25258864  1
  O  O137  1  0.58217245  0.46648064  0.25230817  1
  O  O138  1  0.15636932  0.47607367  0.74632279  1
  O  O139  1  0.65640755  0.48070315  0.75206805  1
  O  O140  1  0.08760993  0.68617681  0.75332502  1
  O  O141  1  0.58715424  0.70794140  0.75163338  1
  O  O142  1  0.27316853  0.84429953  0.74821456  1
  O  O143  1  0.74951614  0.80621381  0.75816164  1
loop_
_geom_bond_atom_site_label_1
_geom_bond_atom_site_label_2
_geom_bond_distance
_geom_bond_site_symmetry_2
Na0 O107 2.342349 1_555
Na0 O33 2.455532 1_555
Na0 O133 2.460470 1_545
Na0 O105 2.508100 1_555
Na0 O135 2.528383 1_545
Na0 O63 2.620820 1_545
Na0 O19 3.006203 1_545
Na0 O5 3.229541 1_655
Na1 O35 2.320514 1_555
Na1 O107 2.400028 1_555
Na1 O137 2.535390 1_555
Na1 O103 2.572206 1_555
Na1 O135 2.602153 1_555
Na1 O65 2.758561 1_555
Na1 O1 2.944867 1_555
Na1 O21 2.997288 1_555
Na2 O133 2.363831 1_555
Na2 O30 2.401790 1_555
Na2 O104 2.466451 1_555
Na2 O102 2.477531 1_555
Na2 O61 2.687187 1_555
Na2 O137 2.713439 1_555
Na2 O23 2.742109 1_555
Na2 O2 3.109748 1_555
Na3 O138 2.364964 1_555
Na3 O98 2.374906 1_555
Na3 O142 2.483869 1_555
Na3 O100 2.486867 1_555
Na3 O28 2.493698 1_555
Na3 O70 2.689074 1_555
Na3 O12 3.033090 1_555
Na3 O8 3.261192 1_555
Na4 O101 2.308748 1_455
Na4 O138 2.421003 1_555
Na4 O25 2.454182 1_455
Na4 O140 2.518883 1_555
Na4 O97 2.788396 1_455
Na4 O66 2.801074 1_555
Na4 O14 2.860277 1_555
Na5 O26 2.403642 1_565
Na5 O140 2.416422 1_555
Na5 O98 2.463414 1_565
Na5 O16 2.692380 1_555
Na5 O142 2.724686 1_555
Na5 O68 2.825378 1_555
Na5 O96 2.838378 1_565
Na5 O6 3.006858 1_565
Na6 O56 2.414841 1_555
Na6 O86 2.489295 1_555
Na6 O130 2.532786 1_555
Na6 O85 2.553876 1_455
Na6 O128 2.683252 1_555
Na6 O42 2.746404 1_555
Na6 O14 2.906474 1_555
Na6 O28 3.090529 1_555
Na7 O131 2.427246 1_555
Na7 O129 2.459717 1_555
Na7 O29 2.502508 1_555
Na7 O87 2.642037 1_555
Na7 O43 2.671974 1_555
Na7 O15 2.732723 1_555
Na7 O57 2.824310 1_555
Na7 O84 3.034347 1_555
Na8 O58 2.395276 1_555
Na8 O126 2.453471 1_555
Na8 O45 2.477340 1_455
Na8 O130 2.537497 1_555
Na8 O86 2.567883 1_565
Na8 O89 2.757618 1_455
Na8 O47 2.959107 1_455
Na8 O16 3.005238 1_555
Na8 O25 3.143619 1_455
Na9 O127 2.311177 1_555
Na9 O24 2.463147 1_555
Na9 O17 2.526385 1_555
Na9 O131 2.578960 1_555
Na9 O88 2.617894 1_555
Na9 O87 2.757636 1_565
Na9 O59 3.011118 1_555
Na9 O44 3.059671 1_555
Na10 O84 2.386200 1_565
Na10 O126 2.429507 1_555
Na10 O128 2.565004 1_555
Na10 O26 2.630172 1_565
Na10 O46 2.679168 1_565
Na10 O12 2.802321 1_555
Na10 O54 2.814771 1_555
Na10 O88 2.847904 1_555
Na11 O129 2.343062 1_555
Na11 O13 2.431263 1_555
Na11 O89 2.515076 1_555
Na11 O85 2.547947 1_565
Na11 O27 2.566477 1_565
Na11 O127 2.607152 1_555
Na11 O25 2.987958 1_565
Na11 O55 3.121740 1_555
Na11 O47 3.144289 1_565
Na12 O122 2.389317 1_555
Na12 O124 2.415501 1_555
Na12 O52 2.580680 1_554
Na12 O36 2.617276 1_565
Na12 O94 2.666185 1_565
Na12 O32 2.751117 1_565
Na12 O22 2.809968 1_555
Na12 O91 3.001329 1_455
Na13 O53 2.289726 1_554
Na13 O37 2.520079 1_565
Na13 O95 2.521819 1_565
Na13 O123 2.613970 1_555
Na13 O125 2.710289 1_555
Na13 O90 2.713818 1_555
Na13 O41 3.001832 1_565
Na13 O23 3.126689 1_555
Na13 O33 3.132196 1_565
Na14 O124 2.324083 1_555
Na14 O120 2.485628 1_555
Na14 O92 2.520421 1_555
Na14 O34 2.566089 1_555
Na14 O18 2.567494 1_555
Na14 O90 2.585516 1_555
Na14 O48 2.878805 1_554
Na14 O38 3.075904 1_555
Na15 O91 2.378855 1_555
Na15 O121 2.482445 1_555
Na15 O125 2.575544 1_555
Na15 O39 2.606645 1_555
Na15 O49 2.644566 1_554
Na15 O35 2.736292 1_555
Na15 O93 2.826712 1_565
Na15 O19 2.861022 1_555
Na15 O37 3.100240 1_555
Na16 O120 2.309180 1_555
Na16 O122 2.530687 1_555
Na16 O31 2.551623 1_455
Na16 O20 2.595240 1_555
Na16 O93 2.604259 1_455
Na16 O94 2.743100 1_555
Na16 O50 2.792661 1_554
Na16 O41 2.994970 1_455
Na17 O51 2.289535 1_554
Na17 O40 2.403666 1_555
Na17 O121 2.445360 1_555
Na17 O95 2.570999 1_555
Na17 O123 2.676512 1_555
Na17 O92 2.712328 1_545
Na17 O38 3.018597 1_555
Na17 O21 3.115458 1_555
Na17 Na33 3.121992 1_554
Na18 O110 2.357665 1_555
Na18 O81 2.412809 1_555
Na18 O82 2.598811 1_555
Na18 O108 2.668005 1_555
Na18 O38 2.704021 1_556
Na18 O8 2.819378 1_555
Na18 O67 2.856086 1_555
Na18 O53 2.907948 1_555
Na19 O9 2.319434 1_555
Na19 O109 2.442123 1_555
Na19 O111 2.454659 1_555
Na19 O39 2.510442 1_556
Na19 O80 2.522191 1_655
Na19 O83 2.629785 1_555
Na19 O66 3.095454 1_655
Na19 O52 3.179383 1_655
Na20 O40 2.338129 1_556
Na20 O79 2.354087 1_555
Na20 O112 2.492828 1_555
Na20 O110 2.539384 1_555
Na20 O82 2.552930 1_545
Na20 O10 2.913409 1_555
Na20 O48 2.970576 1_545
Na21 O113 2.353844 1_555
Na21 O111 2.437583 1_555
Na21 O78 2.475309 1_655
Na21 O11 2.476754 1_545
Na21 O83 2.511447 1_545
Na21 O69 2.572757 1_545
Na21 O41 2.827750 1_556
Na21 O49 3.149667 1_545
Na22 O108 2.434655 1_555
Na22 O80 2.446561 1_545
Na22 O112 2.490529 1_555
Na22 O6 2.507408 1_555
Na22 O78 2.579157 1_555
Na22 O36 2.587020 1_556
Na22 O50 3.064082 1_555
Na22 O70 3.081734 1_555
Na23 O37 2.409565 1_556
Na23 O81 2.477207 1_545
Na23 O79 2.489688 1_555
Na23 O113 2.501804 1_555
Na23 O109 2.559432 1_555
Na23 O51 2.836715 1_555
Na23 O7 2.916783 1_555
Na23 Na33 3.005038 1_555
Na23 O71 3.169432 1_555
Na24 O46 2.233041 1_555
Na24 O77 2.453443 1_555
Na24 O118 2.464995 1_555
Na24 O114 2.520395 1_555
Na24 O74 2.654881 1_545
Na24 O4 2.887178 1_555
Na24 O57 2.902148 1_555
Na25 O119 2.415796 1_555
Na25 O76 2.448803 1_655
Na25 O47 2.488833 1_555
Na25 O75 2.598148 1_545
Na25 O115 2.664031 1_555
Na25 O60 2.864871 1_655
Na25 O56 2.868983 1_655
Na25 O5 2.975573 1_655
Na26 O42 2.312657 1_555
Na26 O72 2.460728 1_545
Na26 O76 2.496610 1_555
Na26 O116 2.574504 1_555
Na26 O114 2.658598 1_555
Na26 O58 2.728890 1_545
Na26 O0 2.985750 1_545
Na26 Na30 3.015793 1_545
Na27 O43 2.395451 1_555
Na27 O115 2.402250 1_555
Na27 O117 2.445187 1_555
Na27 O77 2.564220 1_555
Na27 O73 2.599614 1_545
Na27 O1 2.661259 1_555
Na27 O59 2.973018 1_545
Na27 O63 3.150680 1_545
Na28 O116 2.341490 1_555
Na28 O118 2.503761 1_555
Na28 O73 2.519545 1_555
Na28 O74 2.531072 1_555
Na28 O64 2.643573 1_555
Na28 O44 2.653711 1_555
Na28 O2 2.692621 1_555
Na28 O54 2.932517 1_555
Na28 O56 3.131423 1_555
Na29 O45 2.275527 1_555
Na29 O72 2.352439 1_655
Na29 O119 2.524834 1_555
Na29 O117 2.537811 1_555
Na29 O75 2.550952 1_555
Na29 O3 2.923561 1_555
Na29 O55 2.946776 1_555
Na30 O86 2.419443 1_565
Na30 O76 2.525122 1_565
Na30 O72 2.525587 1_555
Na30 O85 2.538244 1_465
Na30 O89 2.567596 1_455
Na30 O75 2.693449 1_455
Na30 O45 3.144838 1_455
Na31 O87 2.389770 1_555
Na31 O84 2.424546 1_555
Na31 O88 2.485189 1_545
Na31 O77 2.556585 1_555
Na31 O73 2.688251 1_545
Na31 O74 2.852707 1_545
Na32 O80 2.434743 1_554
Na32 O94 2.481135 1_565
Na32 O91 2.520565 1_455
Na32 O78 2.547307 1_564
Na32 O93 2.591249 1_465
Na32 O83 2.632761 1_454
Na33 O79 2.432484 1_555
Na33 O81 2.433100 1_545
Na33 O95 2.522877 1_556
Na33 O82 2.600662 1_545
Na33 O92 2.686248 1_546
Na33 O90 2.694410 1_546
Na34 O110 2.330370 1_555
Na34 O98 2.497527 1_555
Na34 O100 2.519855 1_555
Na34 O96 2.542315 1_555
Na34 O112 2.567972 1_555
Na34 O108 2.665169 1_555
Na35 O101 2.345700 1_555
Na35 O99 2.392968 1_555
Na35 O97 2.455116 1_555
Na35 O113 2.477300 1_555
Na35 O109 2.571837 1_555
Na35 O111 2.766573 1_555
Na36 O116 2.278695 1_555
Na36 O106 2.361996 1_555
Na36 O102 2.448754 1_555
Na36 O114 2.524293 1_555
Na36 O118 2.720827 1_555
Na36 O104 2.748163 1_555
Na37 O119 2.288248 1_555
Na37 O105 2.495589 1_555
Na37 O103 2.508930 1_555
Na37 O107 2.568762 1_555
Na37 O117 2.603997 1_555
Na37 O115 2.606683 1_555
Na38 O124 2.386819 1_555
Na38 O122 2.491850 1_555
Na38 O132 2.521951 1_555
Na38 O134 2.551167 1_555
Na38 O120 2.560610 1_555
Na38 O136 2.602797 1_555
Na39 O121 2.303387 1_555
Na39 O123 2.434652 1_555
Na39 O133 2.462087 1_555
Na39 O125 2.482263 1_555
Na39 O135 2.538658 1_555
Na39 O137 2.564854 1_555
Na40 O140 2.314861 1_555
Na40 O126 2.341907 1_555
Na40 O138 2.474023 1_555
Na40 O130 2.475055 1_555
Na40 O142 2.583542 1_555
Na40 O128 2.715866 1_555
Na41 O129 2.431433 1_555
Na41 O139 2.497921 1_555
Na41 O143 2.499212 1_555
Na41 O131 2.530617 1_555
Na41 O127 2.598041 1_555
Na41 O141 2.626691 1_555
Mg0 O72 1.967253 1_545
Mg0 O76 1.980194 1_555
Mg0 O0 2.067839 1_545
Mg0 O5 2.082630 1_555
Mg0 O3 2.086977 1_445
Mg0 O75 2.208828 1_445
Mg1 O1 1.915713 1_555
Mg1 O2 2.052312 1_545
Mg1 O4 2.073965 1_555
Mg1 O74 2.158960 1_545
Mg1 O77 2.212828 1_555
Mg1 O73 2.246883 1_545
Mg2 O9 1.915421 1_555
Mg2 O6 1.928521 1_665
Mg2 O11 2.086052 1_555
Mg2 O83 2.264616 1_555
Mg2 O80 2.376809 1_655
Mg2 O78 2.448202 1_665
Mg3 O79 1.983190 1_555
Mg3 O81 1.994502 1_545
Mg3 O7 2.022403 1_555
Mg3 O10 2.056028 1_555
Mg3 O8 2.068110 1_545
Mg3 O82 2.209484 1_545
Mg4 O24 1.938608 1_555
Mg4 O26 1.942159 1_555
Mg4 O98 2.064448 1_555
Mg4 O28 2.181592 1_555
Mg4 O96 2.293636 1_555
Mg4 O100 2.395904 1_555
Mg5 O29 1.917607 1_555
Mg5 O27 1.951568 1_555
Mg5 O101 2.009355 1_555
Mg5 O99 2.191168 1_555
Mg5 O25 2.229109 1_555
Mg5 O97 2.494711 1_555
Mg6 O32 1.896502 1_555
Mg6 O34 1.898904 1_555
Mg6 O106 2.174183 1_555
Mg6 O30 2.190595 1_555
Mg6 O104 2.310588 1_555
Mg6 O102 2.369261 1_555
Mg7 O31 1.919992 1_555
Mg7 O35 1.961275 1_555
Mg7 O107 2.068686 1_555
Mg7 O33 2.154116 1_555
Mg7 O103 2.341769 1_555
Mg7 O105 2.416279 1_555
Mg8 O40 2.038064 1_556
Mg8 O36 2.063264 1_556
Mg8 O110 2.154071 1_555
Mg8 O38 2.173444 1_556
Mg8 O112 2.247964 1_555
Mg8 O108 2.462227 1_555
Mg9 O37 1.976811 1_556
Mg9 O39 2.027315 1_556
Mg9 O113 2.060898 1_555
Mg9 O41 2.247396 1_556
Mg9 O109 2.308612 1_555
Mg9 O111 2.325817 1_555
Mg10 O42 1.926613 1_555
Mg10 O46 2.039842 1_555
Mg10 O116 2.104684 1_555
Mg10 O44 2.164103 1_555
Mg10 O118 2.357683 1_555
Mg10 O114 2.433358 1_555
Mg11 O45 2.016901 1_555
Mg11 O43 2.064177 1_555
Mg11 O47 2.067385 1_555
Mg11 O119 2.147220 1_555
Mg11 O117 2.447511 1_555
Mg11 O115 2.530437 1_555
Mg12 O120 1.985152 1_555
Mg12 O122 1.999114 1_555
Mg12 O124 2.008021 1_555
Mg12 O52 2.125800 1_554
Mg12 O48 2.137774 1_554
Mg12 O50 2.149012 1_554
Mg13 O51 1.916055 1_554
Mg13 O53 1.961310 1_554
Mg13 O121 2.052510 1_555
Mg13 O49 2.071457 1_554
Mg13 O123 2.294223 1_555
Mg13 O125 2.303484 1_555
Mg14 O58 1.934119 1_555
Mg14 O56 1.967303 1_555
Mg14 O126 2.013134 1_555
Mg14 O54 2.161694 1_555
Mg14 O130 2.194052 1_555
Mg14 O128 2.296368 1_555
Mg15 O129 1.965610 1_555
Mg15 O127 1.973645 1_555
Mg15 O131 1.984692 1_555
Mg15 O55 2.127357 1_555
Mg15 O57 2.206086 1_555
Mg15 O59 2.208679 1_555
Mg16 O63 2.037006 1_555
Mg16 O133 2.040391 1_555
Mg16 O61 2.071718 1_555
Mg16 O65 2.110106 1_555
Mg16 O137 2.149487 1_555
Mg16 O135 2.269719 1_555
Mg17 O140 1.946658 1_555
Mg17 O138 2.054052 1_555
Mg17 O66 2.073606 1_555
Mg17 O70 2.107022 1_555
Mg17 O68 2.203290 1_555
Mg17 O142 2.329930 1_555
Ge0 O16 1.736090 1_555
Ge0 O89 1.802031 1_455
Ge0 O86 1.807876 1_565
Ge0 O14 1.808470 1_565
Ge1 O87 1.786464 1_555
Ge1 O84 1.799722 1_555
Ge1 O15 1.862051 1_555
Ge1 O12 1.987379 1_545
Ge1 O17 2.194430 1_545
Ge1 O88 2.285532 1_545
Ge2 O91 1.777413 1_455
Ge2 O94 1.778215 1_565
Ge2 O22 1.910964 1_555
Ge2 O19 2.099889 1_455
Ge2 O20 2.257249 1_565
Ge2 O93 2.268013 1_465
Ge3 O92 1.780057 1_545
Ge3 O23 1.787269 1_545
Ge3 O95 1.799382 1_555
Ge3 O21 2.053907 1_555
Ge3 O90 2.171794 1_545
Ge3 O18 2.289645 1_545
Ge4 O64 1.751200 1_555
Ge4 O60 1.754680 1_555
Ge4 O62 2.038110 1_555
Ge4 O136 2.056547 1_555
Ge4 O134 2.260325 1_555
Ge4 O132 2.417149 1_555
Ge5 O69 1.755249 1_555
Ge5 O67 1.764177 1_555
Ge5 O143 1.948705 1_555
Ge5 O71 2.015531 1_555
Ge5 O141 2.157478 1_555
Ge5 O139 2.404050 1_555
O0 S0 1.458874 1_555
O1 Si0 1.614634 1_555
O2 S1 1.487984 1_555
O3 S2 1.458327 1_555
O4 S4 1.467822 1_555
O5 S3 1.465510 1_555
O6 Si1 1.617186 1_555
O7 S5 1.459329 1_555
O8 S6 1.472812 1_555
O9 Si2 1.613108 1_555
O10 S7 1.456900 1_545
O11 S8 1.478872 1_555
O12 S7 1.555156 1_555
O13 S8 1.469748 1_555
O14 Si1 1.748193 1_555
O15 S5 1.570581 1_555
O16 Si2 1.698205 1_455
O17 S6 1.522841 1_555
O18 S1 1.493043 1_555
O19 S2 1.540820 1_555
O20 S3 1.514350 1_555
O21 S4 1.508717 1_555
O22 S0 1.564268 1_555
O23 Si0 1.740277 1_565
O24 Si3 1.604353 1_555
O25 S9 1.472964 1_555
O26 Si4 1.609203 1_555
O27 Si5 1.591784 1_555
O28 S10 1.474790 1_555
O29 Si6 1.589017 1_555
O30 S11 1.479781 1_555
O31 Si7 1.605123 1_555
O32 Si8 1.593102 1_555
O33 S12 1.482145 1_555
O34 Si9 1.598519 1_555
O35 Si10 1.612460 1_555
O36 Si9 1.641783 1_555
O37 Si10 1.627657 1_555
O38 S11 1.478296 1_555
O39 Si7 1.638909 1_555
O40 Si8 1.646928 1_555
O41 S12 1.476708 1_555
O42 Si4 1.624261 1_555
O43 Si5 1.656672 1_555
O44 S10 1.491843 1_555
O45 Si6 1.655202 1_555
O46 Si3 1.647791 1_555
O47 S9 1.489733 1_555
O48 S13 1.475349 1_555
O49 S14 1.471695 1_555
O50 S15 1.471876 1_555
O51 Si11 1.606129 1_555
O52 S16 1.475918 1_555
O53 Si12 1.616518 1_555
O54 S17 1.464791 1_555
O55 S18 1.466611 1_555
O56 Si13 1.606869 1_555
O57 S19 1.467080 1_555
O58 Si14 1.601534 1_555
O59 S20 1.466417 1_555
O60 Si14 1.748380 1_555
O61 S20 1.490681 1_555
O62 S17 1.521567 1_555
O63 S18 1.500863 1_555
O64 Si13 1.728137 1_555
O65 S19 1.492730 1_555
O66 S15 1.482050 1_555
O67 Si11 1.728442 1_555
O68 S16 1.480477 1_555
O69 Si12 1.699754 1_555
O70 S13 1.490221 1_555
O71 S14 1.508460 1_555
O72 Si14 1.627070 1_555
O73 S20 1.517435 1_555
O74 S17 1.509288 1_555
O75 S18 1.498739 1_555
O76 Si13 1.624250 1_555
O77 S19 1.524935 1_555
O78 S15 1.509505 1_555
O79 Si11 1.631138 1_555
O80 S16 1.508303 1_555
O81 Si12 1.631878 1_555
O82 S13 1.502899 1_555
O83 S14 1.497051 1_555
O84 Si3 1.723070 1_555
O85 S9 1.496430 1_555
O86 Si4 1.685529 1_555
O87 Si5 1.743868 1_555
O88 S10 1.512590 1_555
O89 Si6 1.704799 1_555
O90 S11 1.522226 1_555
O91 Si7 1.732606 1_555
O92 Si8 1.711173 1_565
O93 S12 1.516121 1_555
O94 Si9 1.739258 1_555
O95 Si10 1.698338 1_555
O96 S7 1.469601 1_545
O97 S8 1.472372 1_545
O98 Si1 1.648653 1_555
O99 S5 1.458736 1_555
O100 S6 1.482952 1_555
O101 Si2 1.621757 1_555
O102 S1 1.497271 1_555
O103 S2 1.472140 1_555
O104 S4 1.481849 1_555
O105 S3 1.477635 1_655
O106 S0 1.473672 1_545
O107 Si0 1.636827 1_555
O108 S13 1.490516 1_555
O109 S14 1.484362 1_555
O110 Si11 1.641827 1_555
O111 S15 1.497376 1_655
O112 S16 1.503476 1_545
O113 Si12 1.634792 1_545
O114 S17 1.480729 1_545
O115 S18 1.486535 1_545
O116 Si13 1.635487 1_555
O117 S19 1.486119 1_555
O118 S20 1.492296 1_555
O119 Si14 1.635017 1_655
O120 Si9 1.618126 1_555
O121 Si10 1.630403 1_555
O122 Si7 1.614954 1_455
O123 S11 1.481706 1_555
O124 Si8 1.618536 1_565
O125 S12 1.488824 1_565
O126 Si4 1.626988 1_565
O127 Si5 1.624756 1_565
O128 S10 1.485013 1_555
O129 Si6 1.624316 1_555
O130 S9 1.491597 1_455
O131 Si3 1.618327 1_555
O132 S0 1.481183 1_555
O133 Si0 1.649289 1_565
O134 S1 1.505325 1_555
O135 S2 1.508017 1_555
O136 S3 1.531272 1_555
O137 S4 1.506750 1_555
O138 Si1 1.637618 1_555
O139 S5 1.472383 1_555
O140 Si2 1.644205 1_455
O141 S6 1.506141 1_555
O142 S7 1.490966 1_555
O143 S8 1.568753 1_555
