# generated using pymatgen
data_MgCu3(NiO3)4
_symmetry_space_group_name_H-M   'P 1'
_cell_length_a   6.26329591
_cell_length_b   6.26576809
_cell_length_c   6.28975529
_cell_angle_alpha   109.38395163
_cell_angle_beta   109.46384194
_cell_angle_gamma   109.43134537
_symmetry_Int_Tables_number   1
_chemical_formula_structural   MgCu3(NiO3)4
_chemical_formula_sum   'Mg1 Cu3 Ni4 O12'
_cell_volume   190.33027226
_cell_formula_units_Z   1
loop_
 _symmetry_equiv_pos_site_id
 _symmetry_equiv_pos_as_xyz
  1  'x, y, z'
loop_
 _atom_site_type_symbol
 _atom_site_label
 _atom_site_symmetry_multiplicity
 _atom_site_fract_x
 _atom_site_fract_y
 _atom_site_fract_z
 _atom_site_occupancy
  Mg  Mg0  1  0.94805800  0.98140500  0.92305100  1
  Cu  Cu0  1  0.48531300  0.49235700  0.97886100  1
  Cu  Cu1  1  0.98574000  0.49590700  0.48146800  1
  Cu  Cu2  1  0.49284900  0.99302100  0.48593900  1
  Ni  Ni0  1  0.98832500  0.99506800  0.47472500  1
  Ni  Ni1  1  0.98834900  0.49690500  0.98159200  1
  Ni  Ni2  1  0.48040400  0.48716500  0.47575500  1
  Ni  Ni3  1  0.48489900  0.99290200  0.98150300  1
  O  O0  1  0.83587300  0.28393300  0.12023900  1
  O  O1  1  0.13387800  0.70798900  0.84170600  1
  O  O2  1  0.79461000  0.66471400  0.45986600  1
  O  O3  1  0.28721400  0.46641000  0.14254200  1
  O  O4  1  0.47159300  0.16324200  0.29522300  1
  O  O5  1  0.13202100  0.82134800  0.29662300  1
  O  O6  1  0.67394200  0.85411100  0.14307600  1
  O  O7  1  0.51939400  0.82514200  0.67898500  1
  O  O8  1  0.18128000  0.33366400  0.51426000  1
  O  O9  1  0.68427100  0.51788700  0.81535500  1
  O  O10  1  0.85397000  0.16142600  0.67779400  1
  O  O11  1  0.29676100  0.12998500  0.81477000  1
loop_
_geom_bond_atom_site_label_1
_geom_bond_atom_site_label_2
_geom_bond_distance
_geom_bond_site_symmetry_2
Mg0 O10 2.233985 1_565
Mg0 O7 2.242806 1_555
Mg0 O0 2.351922 1_566
Mg0 O1 2.385971 1_655
Mg0 O11 2.481904 1_665
Mg0 O2 2.525156 1_555
Mg0 O9 2.525689 1_555
Mg0 O3 2.572745 1_666
Mg0 O6 2.627542 1_556
Mg0 O4 2.856307 1_666
Mg0 O5 2.895367 1_656
Mg0 O8 3.101594 1_666
Cu0 O6 1.857781 1_556
Cu0 O3 1.858482 1_556
Cu0 O11 1.861000 1_555
Cu0 O9 1.861904 1_555
Cu0 O8 2.501454 1_555
Cu0 O2 2.570129 1_556
Cu1 O8 1.837156 1_655
Cu1 O2 1.843833 1_555
Cu1 O1 1.881652 1_655
Cu1 O0 1.885055 1_555
Cu2 O5 1.849690 1_555
Cu2 O4 1.852440 1_565
Cu2 O10 1.852911 1_565
Cu2 O7 1.854202 1_555
Ni0 O5 1.940111 1_655
Ni0 O8 1.940877 1_665
Ni0 O10 1.960147 1_565
Ni0 O2 1.972416 1_555
Ni0 O6 1.972634 1_555
Ni0 O11 1.995187 1_665
Ni1 O9 1.915341 1_555
Ni1 O3 1.915408 1_656
Ni1 O5 1.946626 1_656
Ni1 O1 1.964440 1_655
Ni1 O10 1.965462 1_555
Ni1 O0 1.983121 1_556
Ni2 O8 1.936957 1_555
Ni2 O4 1.940541 1_555
Ni2 O7 1.956836 1_555
Ni2 O2 1.966896 1_555
Ni2 O3 1.974304 1_555
Ni2 O9 1.993962 1_555
Ni3 O6 1.913324 1_556
Ni3 O11 1.916743 1_565
Ni3 O4 1.952050 1_566
Ni3 O1 1.962657 1_555
Ni3 O7 1.967110 1_555
Ni3 O0 1.979219 1_566
O0 O8 2.526877 1_655
O1 O2 2.477956 1_455
O4 O5 2.471073 1_545
O6 O9 2.447098 1_554
O11 O3 2.445119 1_556
