# generated using pymatgen
data_RbH2OF
_symmetry_space_group_name_H-M   'P 1'
_cell_length_a   4.22104000
_cell_length_b   8.18682600
_cell_length_c   8.47497800
_cell_angle_alpha   90.00000000
_cell_angle_beta   90.00000000
_cell_angle_gamma   90.00000000
_symmetry_Int_Tables_number   1
_chemical_formula_structural   RbH2OF
_chemical_formula_sum   'Rb4 H8 O4 F4'
_cell_volume   292.86913691
_cell_formula_units_Z   4
loop_
 _symmetry_equiv_pos_site_id
 _symmetry_equiv_pos_as_xyz
  1  'x, y, z'
loop_
 _atom_site_type_symbol
 _atom_site_label
 _atom_site_symmetry_multiplicity
 _atom_site_fract_x
 _atom_site_fract_y
 _atom_site_fract_z
 _atom_site_occupancy
  Rb  Rb0  1  0.75000000  0.25972800  0.04221000  1
  Rb  Rb1  1  0.25000000  0.74027200  0.95779000  1
  Rb  Rb2  1  0.75000000  0.75972800  0.45779000  1
  Rb  Rb3  1  0.25000000  0.24027200  0.54221000  1
  H  H0  1  0.56109900  0.96827500  0.74034500  1
  H  H1  1  0.06109900  0.03172500  0.25965500  1
  H  H2  1  0.93890100  0.46827500  0.75965500  1
  H  H3  1  0.43890100  0.53172500  0.24034500  1
  H  H4  1  0.43890100  0.03172500  0.25965500  1
  H  H5  1  0.93890100  0.96827500  0.74034500  1
  H  H6  1  0.06109900  0.53172500  0.24034500  1
  H  H7  1  0.56109900  0.46827500  0.75965500  1
  O  O0  1  0.75000000  0.50478100  0.69761900  1
  O  O1  1  0.25000000  0.49521900  0.30238100  1
  O  O2  1  0.75000000  0.00478100  0.80238100  1
  O  O3  1  0.25000000  0.99521900  0.19761900  1
  F  F0  1  0.75000000  0.09812900  0.35276000  1
  F  F1  1  0.25000000  0.90187100  0.64724000  1
  F  F2  1  0.75000000  0.59812900  0.14724000  1
  F  F3  1  0.25000000  0.40187100  0.85276000  1
loop_
_geom_bond_atom_site_label_1
_geom_bond_atom_site_label_2
_geom_bond_distance
_geom_bond_site_symmetry_2
H0 O2 1.000760 1_565
H0 Rb1 2.933382 1_555
H0 Rb3 3.082641 1_565
H1 O3 1.000760 1_545
H1 Rb0 2.933382 1_455
H1 Rb2 3.082641 1_445
H2 O0 1.000760 1_555
H2 Rb3 2.933382 1_655
H2 Rb1 3.082641 1_655
H3 O1 1.000760 1_555
H3 Rb2 2.933382 1_555
H3 Rb0 3.082641 1_555
H4 O3 1.000760 1_545
H4 Rb0 2.933382 1_555
H4 Rb2 3.082641 1_545
H5 O2 1.000760 1_565
H5 Rb1 2.933382 1_655
H5 Rb3 3.082641 1_665
H6 O1 1.000760 1_555
H6 Rb2 2.933382 1_455
H6 Rb0 3.082641 1_455
H7 O0 1.000760 1_555
H7 Rb3 2.933382 1_555
H7 Rb1 3.082641 1_555
O0 Rb2 2.913361 1_555
O1 Rb3 2.913361 1_555
O2 Rb0 2.913361 1_556
O3 Rb1 2.913361 1_554
F0 H4 1.625594 1_555
F0 H1 1.625594 1_655
F0 Rb3 2.895927 1_555
F0 Rb3 2.895927 1_655
F0 Rb2 2.909916 1_545
F0 Rb0 2.945710 1_555
F1 H0 1.625594 1_555
F1 H5 1.625594 1_455
F1 Rb2 2.895927 1_555
F1 Rb2 2.895927 1_455
F1 Rb3 2.909916 1_565
F1 Rb1 2.945710 1_555
F2 H6 1.625594 1_655
F2 H3 1.625594 1_555
F2 Rb1 2.895927 1_554
F2 Rb1 2.895927 1_654
F2 Rb0 2.909916 1_555
F2 Rb2 2.945710 1_555
F3 H2 1.625594 1_455
F3 H7 1.625594 1_555
F3 Rb0 2.895927 1_456
F3 Rb0 2.895927 1_556
F3 Rb1 2.909916 1_555
F3 Rb3 2.945710 1_555
