# generated using pymatgen
data_Na3YAl(PO4)3
_symmetry_space_group_name_H-M   'P 1'
_cell_length_a   15.64724416
_cell_length_b   8.95116539
_cell_length_c   8.98987645
_cell_angle_alpha   90.03699356
_cell_angle_beta   124.94771278
_cell_angle_gamma   90.02217079
_symmetry_Int_Tables_number   1
_chemical_formula_structural   Na3YAl(PO4)3
_chemical_formula_sum   'Na12 Y4 Al4 P12 O48'
_cell_volume   1032.07831328
_cell_formula_units_Z   4
loop_
 _symmetry_equiv_pos_site_id
 _symmetry_equiv_pos_as_xyz
  1  'x, y, z'
loop_
 _atom_site_type_symbol
 _atom_site_label
 _atom_site_symmetry_multiplicity
 _atom_site_fract_x
 _atom_site_fract_y
 _atom_site_fract_z
 _atom_site_occupancy
  Na  Na0  1  0.23883018  0.78065708  0.99560353  1
  Na  Na1  1  0.74868553  0.71439999  0.50553781  1
  Na  Na2  1  0.74883820  0.27443850  0.00695667  1
  Na  Na3  1  0.23788399  0.21026459  0.49104587  1
  Na  Na4  1  0.50411424  0.09116394  0.76958231  1
  Na  Na5  1  0.50323326  0.90690755  0.24330217  1
  Na  Na6  1  0.00474704  0.62308981  0.75054629  1
  Na  Na7  1  0.99964797  0.38353132  0.23813766  1
  Na  Na8  1  0.81763414  0.93823721  0.23111611  1
  Na  Na9  1  0.81702621  0.07238968  0.72124108  1
  Na  Na10  1  0.29698904  0.43280353  0.19371716  1
  Na  Na11  1  0.30792942  0.55265425  0.73766221  1
  Y  Y0  1  0.10795951  0.76447477  0.55381930  1
  Y  Y1  1  0.60148135  0.26055923  0.55505336  1
  Y  Y2  1  0.39665459  0.74997475  0.43996540  1
  Y  Y3  1  0.60871263  0.73821789  0.05982180  1
  Al  Al0  1  0.90021869  0.74637133  0.94513143  1
  Al  Al1  1  0.90016847  0.25331823  0.44653308  1
  Al  Al2  1  0.09833782  0.24728849  0.04602323  1
  Al  Al3  1  0.38770173  0.25385406  0.93533275  1
  P  P0  1  0.99671018  0.96939854  0.75084574  1
  P  P1  1  0.99806153  0.04995713  0.23145351  1
  P  P2  1  0.48654035  0.43250547  0.74544535  1
  P  P3  1  0.48547873  0.54721151  0.22423543  1
  P  P4  1  0.36050483  0.90961185  0.78154212  1
  P  P5  1  0.66485288  0.88784280  0.75167673  1
  P  P6  1  0.65725622  0.11682269  0.24602911  1
  P  P7  1  0.34733128  0.11276735  0.24293337  1
  P  P8  1  0.86752461  0.40298577  0.75604346  1
  P  P9  1  0.14298746  0.37997082  0.74788742  1
  P  P10  1  0.14187880  0.59707281  0.23054011  1
  P  P11  1  0.86432186  0.59337252  0.26034354  1
  O  O0  1  0.15293159  0.55375373  0.74397256  1
  O  O1  1  0.86590006  0.57693790  0.77018417  1
  O  O2  1  0.86139465  0.41981674  0.26571909  1
  O  O3  1  0.14578118  0.42375801  0.21300430  1
  O  O4  1  0.67644320  0.05977509  0.74740853  1
  O  O5  1  0.34754018  0.08054831  0.78446609  1
  O  O6  1  0.34267053  0.93999665  0.23034662  1
  O  O7  1  0.67064582  0.94361799  0.24351871  1
  O  O8  1  0.42230533  0.52215093  0.56604848  1
  O  O9  1  0.54210471  0.54314084  0.90240626  1
  O  O10  1  0.53610831  0.45762296  0.39929087  1
  O  O11  1  0.43072308  0.44297704  0.05592229  1
  O  O12  1  0.92618460  0.06164512  0.57063818  1
  O  O13  1  0.05763118  0.07424486  0.91239934  1
  O  O14  1  0.07594025  0.96901836  0.41037110  1
  O  O15  1  0.93047464  0.93522136  0.07618449  1
  O  O16  1  0.27353989  0.81912230  0.77116918  1
  O  O17  1  0.75866890  0.80723336  0.77081870  1
  O  O18  1  0.75407730  0.18995402  0.26493858  1
  O  O19  1  0.24815360  0.18201664  0.21519299  1
  O  O20  1  0.77240615  0.33589307  0.74318426  1
  O  O21  1  0.24153554  0.31532046  0.76834889  1
  O  O22  1  0.23118861  0.66689013  0.22751531  1
  O  O23  1  0.76978672  0.66270243  0.24624148  1
  O  O24  1  0.36394192  0.87449224  0.61581526  1
  O  O25  1  0.66201455  0.85901420  0.91705556  1
  O  O26  1  0.65937470  0.14260452  0.41797880  1
  O  O27  1  0.36753771  0.17223096  0.10275050  1
  O  O28  1  0.86770673  0.36525694  0.58704505  1
  O  O29  1  0.14035144  0.34848075  0.91398840  1
  O  O30  1  0.16021736  0.62256666  0.41700899  1
  O  O31  1  0.87076571  0.63983576  0.10033033  1
  O  O32  1  0.46379392  0.86325965  0.95541502  1
  O  O33  1  0.56211364  0.83552883  0.57484803  1
  O  O34  1  0.55287907  0.17086343  0.07534191  1
  O  O35  1  0.44273380  0.15404877  0.43565013  1
  O  O36  1  0.96593679  0.33743366  0.92653437  1
  O  O37  1  0.04306554  0.32002446  0.57004244  1
  O  O38  1  0.03762134  0.66725997  0.07525430  1
  O  O39  1  0.95882249  0.65383654  0.44121923  1
  O  O40  1  0.07357204  0.86456980  0.74572004  1
  O  O41  1  0.92156197  0.86457704  0.76785530  1
  O  O42  1  0.92075338  0.14393921  0.25279907  1
  O  O43  1  0.06521311  0.15785834  0.20313352  1
  O  O44  1  0.56986953  0.32878013  0.75985175  1
  O  O45  1  0.40665626  0.33668001  0.75665215  1
  O  O46  1  0.39857659  0.64702840  0.20661488  1
  O  O47  1  0.57054171  0.65235593  0.24669939  1
loop_
_geom_bond_atom_site_label_1
_geom_bond_atom_site_label_2
_geom_bond_distance
_geom_bond_site_symmetry_2
Na0 O6 2.278972 1_556
Na0 O40 2.376095 1_555
Na0 O22 2.384576 1_556
Na0 O16 2.395943 1_555
Na0 O46 2.418702 1_556
Na0 O0 2.749100 1_555
Na1 O1 2.354690 1_555
Na1 O17 2.443955 1_555
Na1 O47 2.461525 1_555
Na1 O23 2.576315 1_555
Na1 O41 2.714830 1_555
Na1 O7 2.821738 1_555
Na2 O2 2.346744 1_555
Na2 O18 2.396229 1_555
Na2 O44 2.426716 1_554
Na2 O42 2.584526 1_555
Na2 O20 2.657994 1_554
Na2 O4 2.717358 1_554
Na3 O5 2.463840 1_555
Na3 O43 2.490966 1_555
Na3 O19 2.587535 1_555
Na3 O45 2.593429 1_555
Na3 O21 2.633621 1_555
Na3 O3 2.803222 1_555
Na3 O14 3.081956 1_545
Na3 O24 3.414136 1_545
Na4 O44 2.385751 1_555
Na4 O34 2.498180 1_556
Na4 O5 2.530730 1_555
Na4 O35 2.636426 1_555
Na4 O45 2.639794 1_555
Na4 O24 2.646266 1_545
Na4 O4 2.829482 1_555
Na4 O25 2.904309 1_545
Na4 O32 2.926011 1_545
Na5 O32 2.323858 1_554
Na5 O6 2.465492 1_555
Na5 O47 2.503389 1_555
Na5 O7 2.638843 1_555
Na5 O33 2.645310 1_555
Na5 O46 2.753011 1_555
Na5 O26 2.912469 1_565
Na5 O27 2.946075 1_565
Na6 O1 2.315323 1_455
Na6 O40 2.426045 1_555
Na6 O0 2.433724 1_555
Na6 O39 2.456999 1_455
Na6 O41 2.573846 1_455
Na6 O38 2.687017 1_556
Na6 O28 2.909609 1_455
Na6 O29 3.023266 1_555
Na7 O2 2.337035 1_555
Na7 O43 2.367005 1_655
Na7 O3 2.449597 1_655
Na7 O42 2.515050 1_555
Na7 O36 2.569265 1_554
Na7 O37 2.714369 1_655
Na7 O31 2.830216 1_555
Na7 O30 2.973069 1_655
Na8 O7 2.366104 1_555
Na8 O42 2.380897 1_565
Na8 O18 2.550581 1_565
Na8 O25 2.554081 1_554
Na8 O23 2.603376 1_555
Na8 O12 2.734272 1_565
Na8 O15 2.806344 1_555
Na8 O39 3.187297 1_555
Na9 O4 2.345126 1_555
Na9 O41 2.351467 1_545
Na9 O26 2.492273 1_555
Na9 O20 2.499624 1_555
Na9 O17 2.670525 1_545
Na9 O12 2.721939 1_555
Na9 O15 2.891002 1_546
Na9 O36 3.086615 1_555
Na10 O19 2.414274 1_555
Na10 O29 2.415698 1_554
Na10 O22 2.429427 1_555
Na10 O46 2.450185 1_555
Na10 O3 2.470702 1_555
Na10 O8 2.857329 1_555
Na10 O27 2.891595 1_555
Na10 O11 2.981848 1_555
Na10 O10 3.088845 1_555
Na11 O45 2.419402 1_555
Na11 O21 2.448653 1_555
Na11 O0 2.458248 1_555
Na11 O16 2.501046 1_555
Na11 O30 2.532517 1_555
Na11 O11 2.559020 1_556
Na11 O8 2.969972 1_555
Na11 O9 3.067607 1_555
Al0 O38 1.900830 1_656
Al0 O17 1.919309 1_555
Al0 O31 1.951011 1_556
Al0 O15 1.956404 1_556
Al0 O1 2.022570 1_555
Al0 O41 2.093460 1_555
Al1 O28 1.895109 1_555
Al1 O37 1.934598 1_655
Al1 O12 1.958770 1_555
Al1 O18 1.983603 1_555
Al1 O2 2.026197 1_555
Al1 O42 2.176323 1_555
Al2 O13 1.835265 1_554
Al2 O36 1.884097 1_454
Al2 O29 1.885853 1_554
Al2 O43 1.934984 1_555
Al2 O3 2.004746 1_555
Al2 O19 2.016768 1_555
Al3 O27 1.855761 1_556
Al3 O11 1.911776 1_556
Al3 O5 1.913363 1_555
Al3 O45 1.940372 1_555
Al3 O21 1.963586 1_555
Al3 O34 2.256509 1_556
O0 P9 1.565686 1_555
O0 Y0 2.366899 1_555
O1 P8 1.563574 1_555
O2 P11 1.555781 1_555
O3 P10 1.564005 1_555
O4 P5 1.552643 1_545
O4 Y1 2.297414 1_555
O5 P4 1.545732 1_545
O6 P7 1.549198 1_565
O6 Y2 2.310710 1_555
O7 P6 1.566435 1_565
O7 Y3 2.282075 1_555
O8 P2 1.549293 1_555
O8 Y2 2.255431 1_555
O9 P2 1.523069 1_555
O9 Y3 2.107995 1_556
O10 P3 1.523514 1_555
O10 Y1 2.117132 1_555
O11 P3 1.551269 1_555
O12 P0 1.574290 1_545
O13 P0 1.519939 1_445
O14 P1 1.534149 1_465
O14 Y0 2.128332 1_555
O15 P1 1.558103 1_565
O16 P4 1.539520 1_555
O16 Y0 2.228856 1_555
O17 P5 1.554584 1_555
O18 P6 1.567363 1_555
O19 P7 1.553142 1_555
O20 P8 1.546382 1_555
O20 Y1 2.298488 1_555
O21 P9 1.556398 1_555
O22 P10 1.545009 1_555
O22 Y2 2.288166 1_555
O23 P11 1.541181 1_555
O23 Y3 2.186653 1_555
O24 P4 1.553260 1_555
O24 Y2 2.220056 1_555
O25 P5 1.534626 1_555
O25 Y3 2.177024 1_556
O26 P6 1.544249 1_555
O26 Y1 2.175282 1_555
O27 P7 1.558420 1_555
O28 P8 1.557740 1_555
O29 P9 1.543366 1_555
O30 P10 1.546892 1_555
O30 Y0 2.223908 1_555
O31 P11 1.555419 1_555
O32 P4 1.527944 1_555
O32 Y3 2.200138 1_556
O33 P5 1.549630 1_555
O33 Y2 2.271624 1_555
O34 P6 1.544792 1_555
O35 P7 1.549935 1_555
O35 Y1 2.274510 1_555
O36 P8 1.537074 1_555
O37 P9 1.556614 1_555
O38 P10 1.548437 1_555
O39 P11 1.538528 1_555
O39 Y0 2.177547 1_655
O40 P0 1.547043 1_455
O40 Y0 2.265018 1_555
O41 P0 1.578519 1_555
O42 P1 1.572996 1_555
O43 P1 1.551684 1_455
O44 P2 1.544839 1_555
O44 Y1 2.247082 1_555
O45 P2 1.565840 1_555
O46 P3 1.557801 1_555
O46 Y2 2.306639 1_555
O47 P3 1.545632 1_555
O47 Y3 2.218271 1_555
