# generated using pymatgen
data_Tl3PdCl5
_symmetry_space_group_name_H-M   'P 1'
_cell_length_a   7.78994800
_cell_length_b   16.70955900
_cell_length_c   16.76956400
_cell_angle_alpha   90.00000000
_cell_angle_beta   90.00000000
_cell_angle_gamma   90.00000000
_symmetry_Int_Tables_number   1
_chemical_formula_structural   Tl3PdCl5
_chemical_formula_sum   'Tl24 Pd8 Cl40'
_cell_volume   2182.83705747
_cell_formula_units_Z   8
loop_
 _symmetry_equiv_pos_site_id
 _symmetry_equiv_pos_as_xyz
  1  'x, y, z'
loop_
 _atom_site_type_symbol
 _atom_site_label
 _atom_site_symmetry_multiplicity
 _atom_site_fract_x
 _atom_site_fract_y
 _atom_site_fract_z
 _atom_site_occupancy
  Tl  Tl0  1  0.87429000  0.05876500  0.19422800  1
  Tl  Tl1  1  0.37429000  0.44123500  0.80577200  1
  Tl  Tl2  1  0.12571000  0.55876500  0.30577200  1
  Tl  Tl3  1  0.62571000  0.94123500  0.69422800  1
  Tl  Tl4  1  0.12571000  0.94123500  0.80577200  1
  Tl  Tl5  1  0.62571000  0.55876500  0.19422800  1
  Tl  Tl6  1  0.87429000  0.44123500  0.69422800  1
  Tl  Tl7  1  0.37429000  0.05876500  0.30577200  1
  Tl  Tl8  1  0.11097100  0.40321000  0.08552400  1
  Tl  Tl9  1  0.61097100  0.09679000  0.91447600  1
  Tl  Tl10  1  0.88902900  0.90321000  0.41447600  1
  Tl  Tl11  1  0.38902900  0.59679000  0.58552400  1
  Tl  Tl12  1  0.88902900  0.59679000  0.91447600  1
  Tl  Tl13  1  0.38902900  0.90321000  0.08552400  1
  Tl  Tl14  1  0.11097100  0.09679000  0.58552400  1
  Tl  Tl15  1  0.61097100  0.40321000  0.41447600  1
  Tl  Tl16  1  0.58921200  0.29565500  0.14963800  1
  Tl  Tl17  1  0.08921200  0.20434500  0.85036200  1
  Tl  Tl18  1  0.41078800  0.79565500  0.35036200  1
  Tl  Tl19  1  0.91078800  0.70434500  0.64963800  1
  Tl  Tl20  1  0.41078800  0.70434500  0.85036200  1
  Tl  Tl21  1  0.91078800  0.79565500  0.14963800  1
  Tl  Tl22  1  0.58921200  0.20434500  0.64963800  1
  Tl  Tl23  1  0.08921200  0.29565500  0.35036200  1
  Pd  Pd0  1  0.19157000  0.14173700  0.07159500  1
  Pd  Pd1  1  0.69157000  0.35826300  0.92840500  1
  Pd  Pd2  1  0.80843000  0.64173700  0.42840500  1
  Pd  Pd3  1  0.30843000  0.85826300  0.57159500  1
  Pd  Pd4  1  0.80843000  0.85826300  0.92840500  1
  Pd  Pd5  1  0.30843000  0.64173700  0.07159500  1
  Pd  Pd6  1  0.19157000  0.35826300  0.57159500  1
  Pd  Pd7  1  0.69157000  0.14173700  0.42840500  1
  Cl  Cl0  1  0.37432600  0.42740200  0.23773300  1
  Cl  Cl1  1  0.87432600  0.07259800  0.76226700  1
  Cl  Cl2  1  0.62567400  0.92740200  0.26226700  1
  Cl  Cl3  1  0.12567400  0.57259800  0.73773300  1
  Cl  Cl4  1  0.62567400  0.57259800  0.76226700  1
  Cl  Cl5  1  0.12567400  0.92740200  0.23773300  1
  Cl  Cl6  1  0.37432600  0.07259800  0.73773300  1
  Cl  Cl7  1  0.87432600  0.42740200  0.26226700  1
  Cl  Cl8  1  0.93314400  0.19611100  0.02619400  1
  Cl  Cl9  1  0.43314400  0.30388900  0.97380600  1
  Cl  Cl10  1  0.06685600  0.69611100  0.47380600  1
  Cl  Cl11  1  0.56685600  0.80388900  0.52619400  1
  Cl  Cl12  1  0.06685600  0.80388900  0.97380600  1
  Cl  Cl13  1  0.56685600  0.69611100  0.02619400  1
  Cl  Cl14  1  0.93314400  0.30388900  0.52619400  1
  Cl  Cl15  1  0.43314400  0.19611100  0.47380600  1
  Cl  Cl16  1  0.70846500  0.44321400  0.03849900  1
  Cl  Cl17  1  0.20846500  0.05678600  0.96150100  1
  Cl  Cl18  1  0.29153500  0.94321400  0.46150100  1
  Cl  Cl19  1  0.79153500  0.55678600  0.53849900  1
  Cl  Cl20  1  0.29153500  0.55678600  0.96150100  1
  Cl  Cl21  1  0.79153500  0.94321400  0.03849900  1
  Cl  Cl22  1  0.70846500  0.05678600  0.53849900  1
  Cl  Cl23  1  0.20846500  0.44321400  0.46150100  1
  Cl  Cl24  1  0.18414300  0.22611900  0.18144300  1
  Cl  Cl25  1  0.68414300  0.27388100  0.81855700  1
  Cl  Cl26  1  0.81585700  0.72611900  0.31855700  1
  Cl  Cl27  1  0.31585700  0.77388100  0.68144300  1
  Cl  Cl28  1  0.81585700  0.77388100  0.81855700  1
  Cl  Cl29  1  0.31585700  0.72611900  0.18144300  1
  Cl  Cl30  1  0.18414300  0.27388100  0.68144300  1
  Cl  Cl31  1  0.68414300  0.22611900  0.31855700  1
  Cl  Cl32  1  0.45476700  0.09188200  0.11655000  1
  Cl  Cl33  1  0.95476700  0.40811800  0.88345000  1
  Cl  Cl34  1  0.54523300  0.59188200  0.38345000  1
  Cl  Cl35  1  0.04523300  0.90811800  0.61655000  1
  Cl  Cl36  1  0.54523300  0.90811800  0.88345000  1
  Cl  Cl37  1  0.04523300  0.59188200  0.11655000  1
  Cl  Cl38  1  0.45476700  0.40811800  0.61655000  1
  Cl  Cl39  1  0.95476700  0.09188200  0.38345000  1
loop_
_geom_bond_atom_site_label_1
_geom_bond_atom_site_label_2
_geom_bond_distance
_geom_bond_site_symmetry_2
Pd0 Tl0 3.501451 1_455
Pd1 Tl1 3.501451 1_555
Pd2 Tl2 3.501451 1_655
Pd3 Tl3 3.501451 1_555
Pd4 Tl4 3.501451 1_655
Pd5 Tl5 3.501451 1_555
Pd6 Tl6 3.501451 1_455
Pd7 Tl7 3.501451 1_555
Cl0 Tl5 3.030705 1_555
Cl0 Tl16 3.135424 1_555
Cl0 Tl2 3.141779 1_555
Cl0 Tl8 3.299590 1_555
Cl0 Tl15 3.513751 1_555
Cl0 Tl23 3.653299 1_555
Cl0 Cl24 3.794479 1_555
Cl1 Tl4 3.030705 1_645
Cl1 Tl17 3.135424 1_655
Cl1 Tl3 3.141779 1_545
Cl1 Tl9 3.299590 1_555
Cl1 Tl14 3.513751 1_655
Cl1 Tl22 3.653299 1_555
Cl1 Cl25 3.794479 1_555
Cl2 Tl7 3.030705 1_565
Cl2 Tl18 3.135424 1_555
Cl2 Tl0 3.141779 1_565
Cl2 Tl10 3.299590 1_555
Cl2 Tl13 3.513751 1_555
Cl2 Tl21 3.653299 1_555
Cl2 Cl26 3.794479 1_555
Cl3 Tl6 3.030705 1_455
Cl3 Tl19 3.135424 1_455
Cl3 Tl1 3.141779 1_555
Cl3 Tl11 3.299590 1_555
Cl3 Tl12 3.513751 1_455
Cl3 Tl20 3.653299 1_555
Cl4 Tl1 3.030705 1_555
Cl4 Tl20 3.135424 1_555
Cl4 Tl6 3.141779 1_555
Cl4 Tl12 3.299590 1_555
Cl4 Tl11 3.513751 1_555
Cl4 Tl19 3.653299 1_555
Cl5 Tl0 3.030705 1_465
Cl5 Tl21 3.135424 1_455
Cl5 Tl7 3.141779 1_565
Cl5 Tl13 3.299590 1_555
Cl5 Tl10 3.513751 1_455
Cl5 Tl18 3.653299 1_555
Cl6 Tl3 3.030705 1_545
Cl6 Tl22 3.135424 1_555
Cl6 Tl4 3.141779 1_545
Cl6 Tl14 3.299590 1_555
Cl6 Tl9 3.513751 1_555
Cl6 Tl17 3.653299 1_555
Cl7 Tl2 3.030705 1_655
Cl7 Tl23 3.135424 1_655
Cl7 Tl5 3.141779 1_555
Cl7 Tl15 3.299590 1_555
Cl7 Tl8 3.513751 1_655
Cl7 Tl16 3.653299 1_555
Cl8 Pd0 2.336199 1_655
Cl8 Tl17 3.192397 1_654
Cl8 Tl9 3.544406 1_554
Cl8 Tl0 3.662990 1_555
Cl8 Tl16 3.772292 1_555
Cl8 Tl8 3.857997 1_655
Cl9 Pd1 2.336199 1_555
Cl9 Tl16 3.192397 1_556
Cl9 Tl8 3.544406 1_556
Cl9 Tl1 3.662990 1_555
Cl9 Tl17 3.772292 1_555
Cl9 Tl9 3.857997 1_555
Cl10 Pd2 2.336199 1_455
Cl10 Tl19 3.192397 1_455
Cl10 Tl11 3.544406 1_555
Cl10 Tl2 3.662990 1_555
Cl10 Tl18 3.772292 1_555
Cl10 Tl10 3.857997 1_455
Cl11 Pd3 2.336199 1_555
Cl11 Tl18 3.192397 1_555
Cl11 Tl10 3.544406 1_555
Cl11 Tl3 3.662990 1_555
Cl11 Tl19 3.772292 1_555
Cl11 Tl11 3.857997 1_555
Cl12 Pd4 2.336199 1_455
Cl12 Tl21 3.192397 1_456
Cl12 Tl13 3.544406 1_556
Cl12 Tl4 3.662990 1_555
Cl12 Tl20 3.772292 1_555
Cl12 Tl12 3.857997 1_455
Cl13 Pd5 2.336199 1_555
Cl13 Tl20 3.192397 1_554
Cl13 Tl12 3.544406 1_554
Cl13 Tl5 3.662990 1_555
Cl13 Tl21 3.772292 1_555
Cl13 Tl13 3.857997 1_555
Cl14 Pd6 2.336199 1_655
Cl14 Tl23 3.192397 1_655
Cl14 Tl15 3.544406 1_555
Cl14 Tl6 3.662990 1_555
Cl14 Tl22 3.772292 1_555
Cl14 Tl14 3.857997 1_655
Cl15 Pd7 2.336199 1_555
Cl15 Tl22 3.192397 1_555
Cl15 Tl14 3.544406 1_555
Cl15 Tl7 3.662990 1_555
Cl15 Tl23 3.772292 1_555
Cl15 Tl15 3.857997 1_555
Cl16 Pd1 2.332562 1_554
Cl16 Tl16 3.227379 1_555
Cl16 Tl8 3.301524 1_655
Cl16 Tl5 3.311128 1_555
Cl16 Tl12 3.590183 1_554
Cl17 Pd0 2.332562 1_556
Cl17 Tl17 3.227379 1_555
Cl17 Tl9 3.301524 1_555
Cl17 Tl4 3.311128 1_545
Cl17 Tl13 3.590183 1_546
Cl18 Pd3 2.332562 1_555
Cl18 Tl18 3.227379 1_555
Cl18 Tl10 3.301524 1_455
Cl18 Tl7 3.311128 1_565
Cl18 Tl14 3.590183 1_565
Cl19 Pd2 2.332562 1_555
Cl19 Tl19 3.227379 1_555
Cl19 Tl11 3.301524 1_555
Cl19 Tl6 3.311128 1_555
Cl19 Tl15 3.590183 1_555
Cl20 Pd5 2.332562 1_556
Cl20 Tl20 3.227379 1_555
Cl20 Tl12 3.301524 1_455
Cl20 Tl1 3.311128 1_555
Cl20 Tl8 3.590183 1_556
Cl21 Pd4 2.332562 1_554
Cl21 Tl21 3.227379 1_555
Cl21 Tl13 3.301524 1_555
Cl21 Tl0 3.311128 1_565
Cl21 Tl9 3.590183 1_564
Cl22 Pd7 2.332562 1_555
Cl22 Tl22 3.227379 1_555
Cl22 Tl14 3.301524 1_655
Cl22 Tl3 3.311128 1_545
Cl22 Tl10 3.590183 1_545
Cl23 Pd6 2.332562 1_555
Cl23 Tl23 3.227379 1_555
Cl23 Tl15 3.301524 1_555
Cl23 Tl2 3.311128 1_555
Cl23 Tl11 3.590183 1_555
Cl24 Pd0 2.320507 1_555
Cl24 Tl23 3.149777 1_555
Cl24 Tl16 3.404627 1_555
Cl24 Tl8 3.415932 1_555
Cl24 Tl0 3.700273 1_455
Cl24 Tl7 3.789586 1_555
Cl25 Pd1 2.320507 1_555
Cl25 Tl22 3.149777 1_555
Cl25 Tl17 3.404627 1_655
Cl25 Tl9 3.415932 1_555
Cl25 Tl1 3.700273 1_555
Cl25 Tl6 3.789586 1_555
Cl26 Pd2 2.320507 1_555
Cl26 Tl21 3.149777 1_555
Cl26 Tl18 3.404627 1_555
Cl26 Tl10 3.415932 1_555
Cl26 Tl2 3.700273 1_655
Cl26 Tl5 3.789586 1_555
Cl27 Pd3 2.320507 1_555
Cl27 Tl20 3.149777 1_555
Cl27 Tl19 3.404627 1_455
Cl27 Tl11 3.415932 1_555
Cl27 Tl3 3.700273 1_555
Cl27 Tl4 3.789586 1_555
Cl27 Cl3 3.794479 1_555
Cl28 Pd4 2.320507 1_555
Cl28 Tl19 3.149777 1_555
Cl28 Tl20 3.404627 1_555
Cl28 Tl12 3.415932 1_555
Cl28 Tl4 3.700273 1_655
Cl28 Tl3 3.789586 1_555
Cl28 Cl4 3.794479 1_555
Cl29 Pd5 2.320507 1_555
Cl29 Tl18 3.149777 1_555
Cl29 Tl21 3.404627 1_455
Cl29 Tl13 3.415932 1_555
Cl29 Tl5 3.700273 1_555
Cl29 Tl2 3.789586 1_555
Cl29 Cl5 3.794479 1_555
Cl30 Pd6 2.320507 1_555
Cl30 Tl17 3.149777 1_555
Cl30 Tl22 3.404627 1_555
Cl30 Tl14 3.415932 1_555
Cl30 Tl6 3.700273 1_455
Cl30 Tl1 3.789586 1_555
Cl30 Cl6 3.794479 1_555
Cl31 Pd7 2.320507 1_555
Cl31 Tl16 3.149777 1_555
Cl31 Tl23 3.404627 1_655
Cl31 Tl15 3.415932 1_555
Cl31 Tl7 3.700273 1_555
Cl31 Tl0 3.789586 1_555
Cl31 Cl7 3.794479 1_555
Cl32 Pd0 2.337948 1_555
Cl32 Tl13 3.236046 1_545
Cl32 Tl7 3.281501 1_555
Cl32 Tl0 3.561360 1_555
Cl32 Tl9 3.601474 1_554
Cl32 Tl16 3.605342 1_555
Cl33 Pd1 2.337948 1_555
Cl33 Tl12 3.236046 1_555
Cl33 Tl6 3.281501 1_555
Cl33 Tl1 3.561360 1_655
Cl33 Tl8 3.601474 1_656
Cl33 Tl17 3.605342 1_655
Cl34 Pd2 2.337948 1_555
Cl34 Tl15 3.236046 1_555
Cl34 Tl5 3.281501 1_555
Cl34 Tl2 3.561360 1_555
Cl34 Tl11 3.601474 1_555
Cl34 Tl18 3.605342 1_555
Cl35 Pd3 2.337948 1_555
Cl35 Tl14 3.236046 1_565
Cl35 Tl4 3.281501 1_555
Cl35 Tl3 3.561360 1_455
Cl35 Tl10 3.601474 1_455
Cl35 Tl19 3.605342 1_455
Cl36 Pd4 2.337948 1_555
Cl36 Tl9 3.236046 1_565
Cl36 Tl3 3.281501 1_555
Cl36 Tl4 3.561360 1_555
Cl36 Tl13 3.601474 1_556
Cl36 Tl20 3.605342 1_555
Cl37 Pd5 2.337948 1_555
Cl37 Tl8 3.236046 1_555
Cl37 Tl2 3.281501 1_555
Cl37 Tl5 3.561360 1_455
Cl37 Tl12 3.601474 1_454
Cl37 Tl21 3.605342 1_455
Cl38 Pd6 2.337948 1_555
Cl38 Tl11 3.236046 1_555
Cl38 Tl1 3.281501 1_555
Cl38 Tl6 3.561360 1_555
Cl38 Tl15 3.601474 1_555
Cl38 Tl22 3.605342 1_555
Cl39 Pd7 2.337948 1_555
Cl39 Tl10 3.236046 1_545
Cl39 Tl0 3.281501 1_555
Cl39 Tl7 3.561360 1_655
Cl39 Tl14 3.601474 1_655
Cl39 Tl23 3.605342 1_655
