# generated using pymatgen
data_Cd4Sb2I3
_symmetry_space_group_name_H-M   'P 1'
_cell_length_a   13.69201328
_cell_length_b   13.69201328
_cell_length_c   13.69201328
_cell_angle_alpha   90.00000000
_cell_angle_beta   90.00000000
_cell_angle_gamma   90.00000000
_symmetry_Int_Tables_number   1
_chemical_formula_structural   Cd4Sb2I3
_chemical_formula_sum   'Cd32 Sb16 I24'
_cell_volume   2566.85853873
_cell_formula_units_Z   8
loop_
 _symmetry_equiv_pos_site_id
 _symmetry_equiv_pos_as_xyz
  1  'x, y, z'
loop_
 _atom_site_type_symbol
 _atom_site_label
 _atom_site_symmetry_multiplicity
 _atom_site_fract_x
 _atom_site_fract_y
 _atom_site_fract_z
 _atom_site_occupancy
  Cd  Cd0  1  0.03110785  0.01804485  0.25443183  1
  Cd  Cd1  1  0.25443183  0.03110785  0.01804485  1
  Cd  Cd2  1  0.01804485  0.25443183  0.03110785  1
  Cd  Cd3  1  0.48195515  0.74556817  0.53110785  1
  Cd  Cd4  1  0.75443183  0.46889215  0.98195515  1
  Cd  Cd5  1  0.98195515  0.75443183  0.46889215  1
  Cd  Cd6  1  0.24556817  0.96889215  0.51804485  1
  Cd  Cd7  1  0.74556817  0.53110785  0.48195515  1
  Cd  Cd8  1  0.51804485  0.24556817  0.96889215  1
  Cd  Cd9  1  0.53110785  0.48195515  0.74556817  1
  Cd  Cd10  1  0.96889215  0.51804485  0.24556817  1
  Cd  Cd11  1  0.46889215  0.98195515  0.75443183  1
  Cd  Cd12  1  0.96889215  0.98195515  0.74556817  1
  Cd  Cd13  1  0.74556817  0.96889215  0.98195515  1
  Cd  Cd14  1  0.98195515  0.74556817  0.96889215  1
  Cd  Cd15  1  0.51804485  0.25443183  0.46889215  1
  Cd  Cd16  1  0.24556817  0.53110785  0.01804485  1
  Cd  Cd17  1  0.01804485  0.24556817  0.53110785  1
  Cd  Cd18  1  0.75443183  0.03110785  0.48195515  1
  Cd  Cd19  1  0.25443183  0.46889215  0.51804485  1
  Cd  Cd20  1  0.48195515  0.75443183  0.03110785  1
  Cd  Cd21  1  0.46889215  0.51804485  0.25443183  1
  Cd  Cd22  1  0.03110785  0.48195515  0.75443183  1
  Cd  Cd23  1  0.53110785  0.01804485  0.24556817  1
  Cd  Cd24  1  0.77842195  0.22157805  0.72157805  1
  Cd  Cd25  1  0.72157805  0.77842195  0.22157805  1
  Cd  Cd26  1  0.22157805  0.72157805  0.77842195  1
  Cd  Cd27  1  0.27842195  0.27842195  0.27842195  1
  Cd  Cd28  1  0.22157805  0.77842195  0.27842195  1
  Cd  Cd29  1  0.27842195  0.22157805  0.77842195  1
  Cd  Cd30  1  0.77842195  0.27842195  0.22157805  1
  Cd  Cd31  1  0.72157805  0.72157805  0.72157805  1
  Sb  Sb0  1  0.89488076  0.10511924  0.60511924  1
  Sb  Sb1  1  0.60511924  0.89488076  0.10511924  1
  Sb  Sb2  1  0.10511924  0.60511924  0.89488076  1
  Sb  Sb3  1  0.39488076  0.39488076  0.39488076  1
  Sb  Sb4  1  0.10511924  0.89488076  0.39488076  1
  Sb  Sb5  1  0.39488076  0.10511924  0.89488076  1
  Sb  Sb6  1  0.89488076  0.39488076  0.10511924  1
  Sb  Sb7  1  0.60511924  0.60511924  0.60511924  1
  Sb  Sb8  1  0.55885094  0.05885094  0.44114906  1
  Sb  Sb9  1  0.44114906  0.55885094  0.05885094  1
  Sb  Sb10  1  0.05885094  0.44114906  0.55885094  1
  Sb  Sb11  1  0.94114906  0.94114906  0.94114906  1
  Sb  Sb12  1  0.44114906  0.94114906  0.55885094  1
  Sb  Sb13  1  0.55885094  0.44114906  0.94114906  1
  Sb  Sb14  1  0.94114906  0.55885094  0.44114906  1
  Sb  Sb15  1  0.05885094  0.05885094  0.05885094  1
  I  I0  1  0.23734254  0.18324734  0.56856044  1
  I  I1  1  0.56856044  0.23734254  0.18324734  1
  I  I2  1  0.18324734  0.56856044  0.23734254  1
  I  I3  1  0.31675266  0.43143956  0.73734254  1
  I  I4  1  0.06856044  0.26265746  0.81675266  1
  I  I5  1  0.81675266  0.06856044  0.26265746  1
  I  I6  1  0.93143956  0.76265746  0.68324734  1
  I  I7  1  0.43143956  0.73734254  0.31675266  1
  I  I8  1  0.68324734  0.93143956  0.76265746  1
  I  I9  1  0.73734254  0.31675266  0.43143956  1
  I  I10  1  0.76265746  0.68324734  0.93143956  1
  I  I11  1  0.26265746  0.81675266  0.06856044  1
  I  I12  1  0.76265746  0.81675266  0.43143956  1
  I  I13  1  0.43143956  0.76265746  0.81675266  1
  I  I14  1  0.81675266  0.43143956  0.76265746  1
  I  I15  1  0.68324734  0.56856044  0.26265746  1
  I  I16  1  0.93143956  0.73734254  0.18324734  1
  I  I17  1  0.18324734  0.93143956  0.73734254  1
  I  I18  1  0.06856044  0.23734254  0.31675266  1
  I  I19  1  0.56856044  0.26265746  0.68324734  1
  I  I20  1  0.31675266  0.06856044  0.23734254  1
  I  I21  1  0.26265746  0.68324734  0.56856044  1
  I  I22  1  0.23734254  0.31675266  0.06856044  1
  I  I23  1  0.73734254  0.18324734  0.93143956  1
loop_
_geom_bond_atom_site_label_1
_geom_bond_atom_site_label_2
_geom_bond_distance
_geom_bond_site_symmetry_2
Cd0 Sb4 2.751140 1_545
Cd0 Sb15 2.761808 1_555
Cd0 I5 3.017455 1_455
Cd0 I18 3.163361 1_555
Cd0 I20 3.978627 1_555
Cd1 Sb5 2.751140 1_554
Cd1 Sb15 2.761808 1_555
Cd1 I11 3.017455 1_545
Cd1 I20 3.163361 1_555
Cd1 I22 3.978627 1_555
Cd2 Sb6 2.751140 1_455
Cd2 Sb15 2.761808 1_555
Cd2 I4 3.017455 1_554
Cd2 I22 3.163361 1_555
Cd2 I18 3.978627 1_555
Cd3 Sb7 2.751140 1_555
Cd3 Sb12 2.761808 1_555
Cd3 I7 3.017455 1_555
Cd3 I21 3.163361 1_555
Cd3 I13 3.978627 1_555
Cd4 Sb6 2.751140 1_556
Cd4 Sb13 2.761808 1_555
Cd4 I10 3.017455 1_555
Cd4 I14 3.163361 1_555
Cd4 I23 3.978627 1_555
Cd5 Sb4 2.751140 1_655
Cd5 Sb14 2.761808 1_555
Cd5 I6 3.017455 1_555
Cd5 I12 3.163361 1_555
Cd5 I16 3.978627 1_555
Cd6 Sb4 2.751140 1_555
Cd6 Sb12 2.761808 1_555
Cd6 I0 3.017455 1_565
Cd6 I17 3.163361 1_555
Cd6 I21 3.978627 1_555
Cd7 Sb7 2.751140 1_555
Cd7 Sb14 2.761808 1_555
Cd7 I9 3.017455 1_555
Cd7 I15 3.163361 1_555
Cd7 I12 3.978627 1_555
Cd8 Sb5 2.751140 1_555
Cd8 Sb13 2.761808 1_555
Cd8 I1 3.017455 1_556
Cd8 I23 3.163361 1_555
Cd8 I19 3.978627 1_555
Cd9 Sb7 2.751140 1_555
Cd9 Sb13 2.761808 1_555
Cd9 I3 3.017455 1_555
Cd9 I19 3.163361 1_555
Cd9 I14 3.978627 1_555
Cd10 Sb6 2.751140 1_555
Cd10 Sb14 2.761808 1_555
Cd10 I2 3.017455 1_655
Cd10 I16 3.163361 1_555
Cd10 I15 3.978627 1_555
Cd11 Sb5 2.751140 1_565
Cd11 Sb12 2.761808 1_555
Cd11 I8 3.017455 1_555
Cd11 I13 3.163361 1_555
Cd11 I17 3.978627 1_555
Cd12 Sb0 2.751140 1_565
Cd12 Sb11 2.761808 1_555
Cd12 I17 3.017455 1_655
Cd12 I6 3.163361 1_555
Cd12 I8 3.978627 1_555
Cd13 Sb1 2.751140 1_556
Cd13 Sb11 2.761808 1_555
Cd13 I23 3.017455 1_565
Cd13 I8 3.163361 1_555
Cd13 I10 3.978627 1_555
Cd14 Sb2 2.751140 1_655
Cd14 Sb11 2.761808 1_555
Cd14 I16 3.017455 1_556
Cd14 I10 3.163361 1_555
Cd14 I6 3.978627 1_555
Cd15 Sb3 2.751140 1_555
Cd15 Sb8 2.761808 1_555
Cd15 I19 3.017455 1_555
Cd15 I9 3.163361 1_555
Cd15 I1 3.978627 1_555
Cd16 Sb2 2.751140 1_554
Cd16 Sb9 2.761808 1_555
Cd16 I22 3.017455 1_555
Cd16 I2 3.163361 1_555
Cd16 I11 3.978627 1_555
Cd17 Sb0 2.751140 1_455
Cd17 Sb10 2.761808 1_555
Cd17 I18 3.017455 1_555
Cd17 I0 3.163361 1_555
Cd17 I4 3.978627 1_555
Cd18 Sb0 2.751140 1_555
Cd18 Sb8 2.761808 1_555
Cd18 I12 3.017455 1_545
Cd18 I5 3.163361 1_555
Cd18 I9 3.978627 1_555
Cd19 Sb3 2.751140 1_555
Cd19 Sb10 2.761808 1_555
Cd19 I21 3.017455 1_555
Cd19 I3 3.163361 1_555
Cd19 I0 3.978627 1_555
Cd20 Sb1 2.751140 1_555
Cd20 Sb9 2.761808 1_555
Cd20 I13 3.017455 1_554
Cd20 I11 3.163361 1_555
Cd20 I7 3.978627 1_555
Cd21 Sb3 2.751140 1_555
Cd21 Sb9 2.761808 1_555
Cd21 I15 3.017455 1_555
Cd21 I7 3.163361 1_555
Cd21 I2 3.978627 1_555
Cd22 Sb2 2.751140 1_555
Cd22 Sb10 2.761808 1_555
Cd22 I14 3.017455 1_455
Cd22 I4 3.163361 1_555
Cd22 I3 3.978627 1_555
Cd23 Sb1 2.751140 1_545
Cd23 Sb8 2.761808 1_555
Cd23 I20 3.017455 1_555
Cd23 I1 3.163361 1_555
Cd23 I5 3.978627 1_555
Cd24 Sb0 2.761851 1_555
Cd24 I19 2.974623 1_555
Cd24 I14 2.974623 1_555
Cd24 I23 2.974623 1_555
Cd25 Sb1 2.761851 1_555
Cd25 I15 2.974623 1_555
Cd25 I12 2.974623 1_555
Cd25 I16 2.974623 1_555
Cd26 Sb2 2.761851 1_555
Cd26 I21 2.974623 1_555
Cd26 I13 2.974623 1_555
Cd26 I17 2.974623 1_555
Cd27 Sb3 2.761851 1_555
Cd27 I18 2.974623 1_555
Cd27 I20 2.974623 1_555
Cd27 I22 2.974623 1_555
Cd28 Sb4 2.761851 1_555
Cd28 I2 2.974623 1_555
Cd28 I7 2.974623 1_555
Cd28 I11 2.974623 1_555
Cd29 Sb5 2.761851 1_555
Cd29 I0 2.974623 1_555
Cd29 I3 2.974623 1_555
Cd29 I4 2.974623 1_555
Cd30 Sb6 2.761851 1_555
Cd30 I1 2.974623 1_555
Cd30 I9 2.974623 1_555
Cd30 I5 2.974623 1_555
Cd31 Sb7 2.761851 1_555
Cd31 I8 2.974623 1_555
Cd31 I6 2.974623 1_555
Cd31 I10 2.974623 1_555
Sb10 Sb14 2.791331 1_455
Sb11 Sb15 2.791331 1_666
Sb12 Sb8 2.791331 1_565
Sb13 Sb9 2.791331 1_556
