# generated using pymatgen
data_CsMgNb(PO4)2
_symmetry_space_group_name_H-M   'P 1'
_cell_length_a   5.15416746
_cell_length_b   5.15416696
_cell_length_c   9.24191955
_cell_angle_alpha   89.51818323
_cell_angle_beta   89.51817654
_cell_angle_gamma   63.85029800
_symmetry_Int_Tables_number   1
_chemical_formula_structural   CsMgNb(PO4)2
_chemical_formula_sum   'Cs1 Mg1 Nb1 P2 O8'
_cell_volume   220.37523228
_cell_formula_units_Z   1
loop_
 _symmetry_equiv_pos_site_id
 _symmetry_equiv_pos_as_xyz
  1  'x, y, z'
loop_
 _atom_site_type_symbol
 _atom_site_label
 _atom_site_symmetry_multiplicity
 _atom_site_fract_x
 _atom_site_fract_y
 _atom_site_fract_z
 _atom_site_occupancy
  Cs  Cs0  1  0.98656600  0.98656600  0.04024200  1
  Mg  Mg0  1  0.33298800  0.33298800  0.63545600  1
  Nb  Nb0  1  0.99930600  0.99930600  0.50318100  1
  P  P0  1  0.37068600  0.37068600  0.31749400  1
  P  P1  1  0.63426700  0.63426700  0.70937700  1
  O  O0  1  0.73999100  0.29759200  0.67417800  1
  O  O1  1  0.76563900  0.76563900  0.59703500  1
  O  O2  1  0.68169100  0.68169100  0.86467800  1
  O  O3  1  0.29759200  0.73999100  0.67417800  1
  O  O4  1  0.31119200  0.31119200  0.16625900  1
  O  O5  1  0.24504000  0.24504000  0.44278700  1
  O  O6  1  0.70236800  0.24517300  0.35185300  1
  O  O7  1  0.24517300  0.70236800  0.35185300  1
loop_
_geom_bond_atom_site_label_1
_geom_bond_atom_site_label_2
_geom_bond_distance
_geom_bond_site_symmetry_2
Cs0 O4 3.080352 1_665
Cs0 O2 3.135815 1_554
Cs0 O6 3.238622 1_565
Cs0 O7 3.238622 1_655
Cs0 O4 3.332271 1_655
Cs0 O4 3.332271 1_565
Cs0 O2 3.594576 1_564
Cs0 O2 3.594576 1_654
Cs0 O3 3.716979 1_654
Cs0 O0 3.716980 1_564
Mg0 O5 1.946760 1_555
Mg0 O3 2.058191 1_555
Mg0 O0 2.058191 1_555
Nb0 O7 2.049604 1_655
Nb0 O6 2.049604 1_565
Nb0 O0 2.200370 1_565
Nb0 O3 2.200370 1_655
Nb0 O1 2.212847 1_555
Nb0 O5 2.215861 1_665
O0 P1 1.608413 1_555
O1 P1 1.541238 1_555
O2 P1 1.497993 1_555
O3 P1 1.608413 1_555
O4 P0 1.496304 1_555
O5 P0 1.588727 1_555
O6 P0 1.572496 1_555
O7 P0 1.572496 1_555
