# generated using pymatgen
data_MgCu2(NiO2)4
_symmetry_space_group_name_H-M   'P 1'
_cell_length_a   6.01397899
_cell_length_b   6.19896683
_cell_length_c   6.01108795
_cell_angle_alpha   58.95440879
_cell_angle_beta   92.65050926
_cell_angle_gamma   121.01775919
_symmetry_Int_Tables_number   1
_chemical_formula_structural   MgCu2(NiO2)4
_chemical_formula_sum   'Mg1 Cu2 Ni4 O8'
_cell_volume   157.01689660
_cell_formula_units_Z   1
loop_
 _symmetry_equiv_pos_site_id
 _symmetry_equiv_pos_as_xyz
  1  'x, y, z'
loop_
 _atom_site_type_symbol
 _atom_site_label
 _atom_site_symmetry_multiplicity
 _atom_site_fract_x
 _atom_site_fract_y
 _atom_site_fract_z
 _atom_site_occupancy
  Mg  Mg0  1  0.18528946  0.00017699  0.18516858  1
  Cu  Cu0  1  0.88341402  0.99944358  0.88433374  1
  Cu  Cu1  1  0.29805421  0.49994433  0.29824713  1
  Ni  Ni0  1  0.68097289  0.26387522  0.15311346  1
  Ni  Ni1  1  0.62792206  0.26200236  0.62767273  1
  Ni  Ni2  1  0.62790510  0.73828991  0.62766136  1
  Ni  Ni3  1  0.15325348  0.73594170  0.68126817  1
  O  O0  1  0.87823776  0.21843224  0.44144546  1
  O  O1  1  0.37518101  0.20434043  0.37525194  1
  O  O2  1  0.88106354  0.29490497  0.88105217  1
  O  O3  1  0.80953446  0.71487975  0.37982963  1
  O  O4  1  0.38081334  0.28571189  0.80943471  1
  O  O5  1  0.88103896  0.70491657  0.88102978  1
  O  O6  1  0.37517317  0.79565051  0.37525098  1
  O  O7  1  0.44131353  0.78148955  0.87840717  1
loop_
_geom_bond_atom_site_label_1
_geom_bond_atom_site_label_2
_geom_bond_distance
_geom_bond_site_symmetry_2
Mg0 O4 1.895782 1_554
Mg0 O3 1.895992 1_445
Mg0 O1 2.023063 1_555
Mg0 O6 2.023445 1_545
Cu0 O5 1.828799 1_555
Cu0 O2 1.828818 1_565
Cu0 O7 2.287908 1_555
Cu0 O0 2.289011 1_565
Cu0 O3 2.464919 1_556
Cu0 O4 2.475807 1_665
Cu0 Mg0 2.502481 1_666
Cu1 O1 1.941258 1_555
Cu1 O6 1.941298 1_555
Cu1 O7 2.065357 1_554
Cu1 O0 2.066776 1_455
Ni0 O5 1.943463 1_554
Ni0 O2 1.943839 1_554
Ni0 O0 2.035039 1_555
Ni0 O6 2.077985 1_545
Ni0 O1 2.078600 1_555
Ni0 O4 2.676427 1_554
Ni1 O4 1.991173 1_555
Ni1 O3 1.992548 1_555
Ni1 O2 2.113057 1_555
Ni1 O0 2.116370 1_555
Ni1 O7 2.117621 1_545
Ni1 O1 2.127568 1_555
Ni2 O4 1.991166 1_555
Ni2 O3 1.992583 1_555
Ni2 O5 2.113071 1_555
Ni2 O0 2.116539 1_565
Ni2 O7 2.117835 1_555
Ni2 O6 2.127422 1_555
Ni3 O5 1.943725 1_455
Ni3 O2 1.944059 1_455
Ni3 O7 2.033787 1_555
Ni3 O6 2.077894 1_555
Ni3 O1 2.078453 1_565
Ni3 O3 2.681925 1_455
