# generated using pymatgen
data_La4Ru6O19
_symmetry_space_group_name_H-M   'P 1'
_cell_length_a   7.77412603
_cell_length_b   7.77417556
_cell_length_c   7.78895578
_cell_angle_alpha   109.48959251
_cell_angle_beta   109.54871801
_cell_angle_gamma   109.29826049
_symmetry_Int_Tables_number   1
_chemical_formula_structural   La4Ru6O19
_chemical_formula_sum   'La4 Ru6 O19'
_cell_volume   362.72214511
_cell_formula_units_Z   1
loop_
 _symmetry_equiv_pos_site_id
 _symmetry_equiv_pos_as_xyz
  1  'x, y, z'
loop_
 _atom_site_type_symbol
 _atom_site_label
 _atom_site_symmetry_multiplicity
 _atom_site_fract_x
 _atom_site_fract_y
 _atom_site_fract_z
 _atom_site_occupancy
  La  La0  1  -0.00091686  -0.00329897  0.31914449  1
  La  La1  1  0.00015473  0.32305066  0.00074837  1
  La  La2  1  0.67754972  0.67993320  0.68084517  1
  La  La3  1  0.32233624  -0.00058278  -0.00074195  1
  Ru  Ru0  1  0.36151077  0.49861888  0.86266439  1
  Ru  Ru1  1  0.86244951  0.36244615  0.50000371  1
  Ru  Ru2  1  0.49921218  0.13757787  0.63517316  1
  Ru  Ru3  1  0.13792319  0.63791776  0.50000281  1
  Ru  Ru4  1  0.50240009  0.86403650  0.36481681  1
  Ru  Ru5  1  0.63595876  0.49886647  0.13734974  1
  O  O0  1  0.32664983  0.00289765  0.32625787  1
  O  O1  1  0.32367277  0.32367361  0.00000200  1
  O  O2  1  -0.00286148  0.67210586  0.66939405  1
  O  O3  1  0.67224121  0.67224474  -0.00000091  1
  O  O4  1  0.00271197  0.32774103  0.33060593  1
  O  O5  1  0.67663348  0.00038708  0.67373362  1
  O  O6  1  -0.00277673  -0.00277348  -0.00000153  1
  O  O7  1  0.36791236  0.31154075  0.62569637  1
  O  O8  1  0.05945149  0.32027826  0.69349683  1
  O  O9  1  0.74372713  0.37327889  0.68735289  1
  O  O10  1  0.37392966  0.69076013  0.74828402  1
  O  O11  1  0.25650922  0.94193162  0.62801324  1
  O  O12  1  0.62678606  0.36595667  0.30650093  1
  O  O13  1  0.31392429  0.62849688  0.37198858  1
  O  O14  1  0.68592726  0.05636966  0.31263988  1
  O  O15  1  0.94247725  0.62564760  0.25172773  1
  O  O16  1  0.68584006  0.74221973  0.37430321  1
  O  O17  1  0.62843523  0.25784253  0.93760249  1
  O  O18  1  0.32023064  0.69083506  0.06239511  1
loop_
_geom_bond_atom_site_label_1
_geom_bond_atom_site_label_2
_geom_bond_distance
_geom_bond_site_symmetry_2
La0 O6 2.482390 1_555
La0 O0 2.512567 1_555
La0 O3 2.520080 1_445
La0 O4 2.535550 1_555
La0 O15 2.605010 1_445
La0 O7 2.606421 1_555
La0 O14 2.612313 1_455
La0 O11 2.828215 1_545
La0 O16 2.848097 1_445
La0 O8 2.908566 1_555
La1 O1 2.515430 1_555
La1 O6 2.523608 1_555
La1 O5 2.526888 1_454
La1 O4 2.550603 1_555
La1 O8 2.578886 1_554
La1 O17 2.600764 1_454
La1 O13 2.611422 1_555
La1 O15 2.787787 1_455
La1 O9 2.824736 1_454
La1 O18 2.859922 1_555
La2 O6 2.482427 1_666
La2 O5 2.512581 1_565
La2 O3 2.520124 1_556
La2 O2 2.535571 1_655
La2 O10 2.604985 1_555
La2 O16 2.606394 1_555
La2 O9 2.612372 1_555
La2 O13 2.828122 1_555
La2 O7 2.848078 1_555
La2 O12 2.908539 1_555
La3 O1 2.515473 1_555
La3 O6 2.523845 1_555
La3 O0 2.526907 1_555
La3 O2 2.550720 1_544
La3 O12 2.578778 1_555
La3 O18 2.600734 1_545
La3 O11 2.611372 1_544
La3 O10 2.787645 1_544
La3 O14 2.824567 1_555
La3 O17 2.859754 1_554
Ru2 Ru4 2.457415 1_545
O0 Ru2 1.978838 1_555
O0 Ru4 2.009731 1_545
O0 O7 2.560522 1_555
O0 O18 2.576109 1_545
O0 O14 2.728650 1_555
O0 O11 2.734289 1_545
O0 O6 2.917839 1_555
O1 Ru0 1.999378 1_554
O1 Ru5 1.999391 1_555
O1 O12 2.561204 1_555
O1 O8 2.561216 1_554
O1 O17 2.741833 1_554
O1 O18 2.741886 1_555
O1 O6 2.936702 1_555
O2 Ru1 1.980517 1_455
O2 Ru3 1.983416 1_555
O2 O9 2.583372 1_455
O2 O6 2.945200 1_566
O3 Ru5 1.988384 1_555
O3 Ru0 1.988388 1_554
O3 O7 2.739391 1_554
O3 O6 2.923530 1_665
O4 Ru1 1.980517 1_455
O4 Ru3 1.983425 1_555
O4 O8 2.734820 1_555
O4 O6 2.945169 1_555
O5 Ru4 1.978848 1_545
O5 Ru2 2.009736 1_555
O5 O9 2.728632 1_555
O5 O6 2.917841 1_656
O7 Ru2 1.950650 1_555
O7 Ru0 1.960234 1_555
O7 O8 2.639162 1_555
O7 O9 2.641456 1_555
O8 Ru0 1.931603 1_555
O8 Ru1 1.959911 1_455
O8 O9 2.607596 1_455
O9 Ru2 1.954474 1_555
O9 Ru1 1.964453 1_555
O10 Ru3 1.967758 1_555
O10 Ru0 1.970918 1_555
O10 O3 2.570812 1_556
O10 O18 2.615882 1_556
O10 O13 2.651691 1_555
O10 O11 2.711117 1_555
O10 O2 2.726567 1_555
O10 O7 2.757881 1_555
O11 Ru3 1.949927 1_555
O11 Ru2 1.962821 1_565
O11 O2 2.580749 1_555
O11 O17 2.625889 1_565
O11 O15 2.651636 1_455
O11 O7 2.721590 1_565
O12 Ru5 1.931608 1_555
O12 Ru1 1.959964 1_555
O12 O14 2.607638 1_555
O12 O16 2.639206 1_555
O12 O17 2.717157 1_554
O12 O2 2.734811 1_655
O13 Ru3 1.949922 1_555
O13 Ru4 1.962824 1_555
O13 O4 2.580786 1_555
O13 O18 2.625905 1_555
O13 O15 2.711142 1_455
O13 O16 2.721504 1_555
O13 O5 2.734213 1_565
O14 Ru4 1.954476 1_545
O14 Ru1 1.964499 1_555
O14 O4 2.583336 1_655
O14 O16 2.641426 1_545
O14 O18 2.685661 1_545
O15 Ru3 1.967769 1_655
O15 Ru5 1.970892 1_555
O15 O3 2.570900 1_555
O15 O17 2.615901 1_554
O15 O4 2.726581 1_655
O15 O16 2.757870 1_555
O16 Ru4 1.950610 1_555
O16 Ru5 1.960127 1_555
O16 O5 2.560456 1_565
O16 O3 2.739402 1_555
O17 Ru2 1.938602 1_555
O17 Ru5 1.963771 1_556
O17 O5 2.576179 1_555
O17 O9 2.685654 1_555
O18 Ru4 1.938559 1_555
O18 Ru0 1.963679 1_554
O18 O8 2.717187 1_554
