# generated using pymatgen
data_Tb(FeGe)6
_symmetry_space_group_name_H-M   'P 1'
_cell_length_a   9.75032163
_cell_length_b   9.75032163
_cell_length_c   5.13064204
_cell_angle_alpha   90.00000000
_cell_angle_beta   90.00000000
_cell_angle_gamma   130.10162177
_symmetry_Int_Tables_number   1
_chemical_formula_structural   Tb(FeGe)6
_chemical_formula_sum   'Tb2 Fe12 Ge12'
_cell_volume   373.09210504
_cell_formula_units_Z   2
loop_
 _symmetry_equiv_pos_site_id
 _symmetry_equiv_pos_as_xyz
  1  'x, y, z'
loop_
 _atom_site_type_symbol
 _atom_site_label
 _atom_site_symmetry_multiplicity
 _atom_site_fract_x
 _atom_site_fract_y
 _atom_site_fract_z
 _atom_site_occupancy
  Tb  Tb0  1  0.12759742  0.87240258  0.25000000  1
  Tb  Tb1  1  0.87240258  0.12759742  0.75000000  1
  Fe  Fe0  1  0.12491708  0.37473859  0.25000000  1
  Fe  Fe1  1  0.87508292  0.62526141  0.75000000  1
  Fe  Fe2  1  0.75037779  0.75037779  0.50000000  1
  Fe  Fe3  1  0.24962221  0.24962221  0.00000000  1
  Fe  Fe4  1  0.24962221  0.24962221  0.50000000  1
  Fe  Fe5  1  0.75037779  0.75037779  0.00000000  1
  Fe  Fe6  1  -0.00000000  0.50000000  0.50000000  1
  Fe  Fe7  1  -0.00000000  0.50000000  0.00000000  1
  Fe  Fe8  1  0.50000000  -0.00000000  0.50000000  1
  Fe  Fe9  1  0.50000000  -0.00000000  0.00000000  1
  Fe  Fe10  1  0.37473859  0.12491708  0.75000000  1
  Fe  Fe11  1  0.62526141  0.87508292  0.25000000  1
  Ge  Ge0  1  0.77701030  0.52762654  0.25000000  1
  Ge  Ge1  1  0.22298970  0.47237346  0.75000000  1
  Ge  Ge2  1  0.70476346  0.29523654  0.75000000  1
  Ge  Ge3  1  0.29523654  0.70476346  0.25000000  1
  Ge  Ge4  1  0.21094445  0.78905555  0.75000000  1
  Ge  Ge5  1  0.78905555  0.21094445  0.25000000  1
  Ge  Ge6  1  0.54044296  0.45955704  0.75000000  1
  Ge  Ge7  1  0.45955704  0.54044296  0.25000000  1
  Ge  Ge8  1  0.04155835  0.95844165  0.75000000  1
  Ge  Ge9  1  0.95844165  0.04155835  0.25000000  1
  Ge  Ge10  1  0.47237346  0.22298970  0.25000000  1
  Ge  Ge11  1  0.52762654  0.77701030  0.75000000  1
loop_
_geom_bond_atom_site_label_1
_geom_bond_atom_site_label_2
_geom_bond_distance
_geom_bond_site_symmetry_2
Fe0 Ge3 2.495602 1_555
Fe0 Ge9 2.528821 1_455
Fe0 Ge7 2.542656 1_555
Fe0 Fe3 2.553985 1_555
Fe0 Fe4 2.553985 1_555
Fe0 Fe6 2.556714 1_555
Fe0 Fe7 2.556714 1_555
Fe0 Ge5 2.556739 1_455
Fe0 Ge1 2.688637 1_554
Fe0 Ge1 2.688637 1_555
Fe0 Tb1 3.287269 1_455
Fe0 Tb1 3.287269 1_454
Fe1 Ge2 2.495602 1_555
Fe1 Ge8 2.528821 1_655
Fe1 Ge6 2.542656 1_555
Fe1 Fe5 2.553985 1_556
Fe1 Fe2 2.553985 1_555
Fe1 Fe6 2.556714 1_655
Fe1 Fe7 2.556714 1_656
Fe1 Ge4 2.556739 1_655
Fe1 Ge0 2.688637 1_555
Fe1 Ge0 2.688637 1_556
Fe1 Tb0 3.287269 1_655
Fe1 Tb0 3.287269 1_656
Fe2 Ge6 2.529459 1_555
Fe2 Ge7 2.529459 1_555
Fe2 Ge8 2.530058 1_655
Fe2 Ge9 2.530058 1_565
Fe2 Fe5 2.565321 1_556
Fe2 Fe5 2.565321 1_555
Fe2 Ge0 2.675138 1_555
Fe2 Ge11 2.675138 1_555
Fe2 Tb0 3.309226 1_655
Fe2 Tb1 3.309226 1_565
Fe3 Ge6 2.529459 1_554
Fe3 Ge7 2.529459 1_555
Fe3 Ge8 2.530058 1_544
Fe3 Ge9 2.530058 1_455
Fe3 Fe4 2.565321 1_555
Fe3 Fe4 2.565321 1_554
Fe3 Ge10 2.675138 1_555
Fe3 Ge1 2.675138 1_554
Fe3 Tb1 3.309226 1_454
Fe3 Tb0 3.309226 1_545
Fe4 Ge6 2.529459 1_555
Fe4 Ge7 2.529459 1_555
Fe4 Ge8 2.530058 1_545
Fe4 Ge9 2.530058 1_455
Fe4 Ge10 2.675138 1_555
Fe4 Ge1 2.675138 1_555
Fe4 Tb1 3.309226 1_455
Fe4 Tb0 3.309226 1_545
Fe5 Ge6 2.529459 1_554
Fe5 Ge7 2.529459 1_555
Fe5 Ge9 2.530058 1_565
Fe5 Ge8 2.530058 1_654
Fe5 Ge0 2.675138 1_555
Fe5 Ge11 2.675138 1_554
Fe5 Tb0 3.309226 1_655
Fe5 Tb1 3.309226 1_564
Fe6 Ge5 2.520098 1_455
Fe6 Ge4 2.520098 1_555
Fe6 Ge2 2.552208 1_455
Fe6 Ge3 2.552208 1_555
Fe6 Fe7 2.565321 1_555
Fe6 Fe7 2.565321 1_556
Fe6 Ge1 2.683192 1_555
Fe6 Ge0 2.683192 1_455
Fe6 Tb0 3.249270 1_555
Fe6 Tb1 3.249270 1_455
Fe7 Ge5 2.520098 1_455
Fe7 Ge4 2.520098 1_554
Fe7 Ge2 2.552208 1_454
Fe7 Ge3 2.552208 1_555
Fe7 Ge1 2.683192 1_554
Fe7 Ge0 2.683192 1_455
Fe7 Tb0 3.249270 1_555
Fe7 Tb1 3.249270 1_454
Fe8 Ge4 2.520098 1_545
Fe8 Ge5 2.520098 1_555
Fe8 Ge3 2.552208 1_545
Fe8 Ge2 2.552208 1_555
Fe8 Fe9 2.565321 1_555
Fe8 Fe9 2.565321 1_556
Fe8 Ge10 2.683192 1_555
Fe8 Ge11 2.683192 1_545
Fe8 Tb1 3.249270 1_555
Fe8 Tb0 3.249270 1_545
Fe9 Ge4 2.520098 1_544
Fe9 Ge5 2.520098 1_555
Fe9 Ge2 2.552208 1_554
Fe9 Ge3 2.552208 1_545
Fe9 Ge10 2.683192 1_555
Fe9 Ge11 2.683192 1_544
Fe9 Tb1 3.249270 1_554
Fe9 Tb0 3.249270 1_545
Fe10 Ge2 2.495602 1_555
Fe10 Ge8 2.528821 1_545
Fe10 Ge6 2.542656 1_555
Fe10 Fe4 2.553985 1_555
Fe10 Fe3 2.553985 1_556
Fe10 Fe9 2.556714 1_556
Fe10 Fe8 2.556714 1_555
Fe10 Ge4 2.556739 1_545
Fe10 Ge10 2.688637 1_555
Fe10 Ge10 2.688637 1_556
Fe10 Tb0 3.287269 1_545
Fe10 Tb0 3.287269 1_546
Fe11 Ge3 2.495602 1_555
Fe11 Ge9 2.528821 1_565
Fe11 Ge7 2.542656 1_555
Fe11 Fe2 2.553985 1_555
Fe11 Fe5 2.553985 1_555
Fe11 Fe9 2.556714 1_565
Fe11 Fe8 2.556714 1_565
Fe11 Ge5 2.556739 1_565
Fe11 Ge11 2.688637 1_555
Fe11 Ge11 2.688637 1_554
Fe11 Tb1 3.287269 1_565
Fe11 Tb1 3.287269 1_564
Ge0 Ge10 2.505836 1_555
Ge0 Tb0 2.860369 1_655
Ge0 Ge5 3.164679 1_555
Ge0 Ge7 3.177205 1_555
Ge0 Ge2 3.186689 1_555
Ge0 Ge2 3.186689 1_554
Ge0 Ge6 3.220182 1_555
Ge0 Ge6 3.220182 1_554
Ge1 Ge11 2.505836 1_555
Ge1 Tb1 2.860369 1_455
Ge1 Ge4 3.164679 1_555
Ge1 Ge6 3.177205 1_555
Ge1 Ge3 3.186689 1_556
Ge1 Ge3 3.186689 1_555
Ge1 Ge7 3.220182 1_556
Ge1 Ge7 3.220182 1_555
Ge2 Ge6 2.905332 1_555
Ge2 Tb1 2.964008 1_555
Ge2 Ge5 2.966823 1_556
Ge2 Ge5 2.966823 1_555
Ge3 Ge7 2.905332 1_555
Ge3 Tb0 2.964008 1_555
Ge3 Ge4 2.966823 1_555
Ge3 Ge4 2.966823 1_554
Ge4 Tb0 2.958465 1_555
Ge4 Tb0 2.958465 1_556
Ge4 Ge8 2.994896 1_555
Ge5 Tb1 2.958465 1_555
Ge5 Tb1 2.958465 1_554
Ge5 Ge9 2.994896 1_555
Ge6 Ge7 2.937032 1_556
Ge6 Ge7 2.937032 1_555
Ge8 Ge9 2.956438 1_466
Ge8 Ge9 2.956438 1_465
Ge8 Tb0 2.982459 1_555
Ge8 Tb0 2.982459 1_556
Ge8 Tb1 2.990824 1_465
Ge9 Tb1 2.982459 1_555
Ge9 Tb1 2.982459 1_554
Ge9 Tb0 2.990824 1_645
Ge10 Tb0 2.860369 1_545
Ge10 Ge5 3.164679 1_555
Ge10 Ge7 3.177205 1_555
Ge10 Ge2 3.186689 1_554
Ge10 Ge2 3.186689 1_555
Ge10 Ge6 3.220182 1_555
Ge10 Ge6 3.220182 1_554
Ge11 Tb1 2.860369 1_565
Ge11 Ge4 3.164679 1_555
Ge11 Ge6 3.177205 1_555
Ge11 Ge3 3.186689 1_555
Ge11 Ge3 3.186689 1_556
Ge11 Ge7 3.220182 1_556
Ge11 Ge7 3.220182 1_555
