# generated using pymatgen
data_Nd(CuSi)2
_symmetry_space_group_name_H-M   'P 1'
_cell_length_a   4.06883986
_cell_length_b   4.06883932
_cell_length_c   5.71087296
_cell_angle_alpha   110.86924169
_cell_angle_beta   110.86923988
_cell_angle_gamma   89.99999801
_symmetry_Int_Tables_number   1
_chemical_formula_structural   Nd(CuSi)2
_chemical_formula_sum   'Nd1 Cu2 Si2'
_cell_volume   81.67115694
_cell_formula_units_Z   1
loop_
 _symmetry_equiv_pos_site_id
 _symmetry_equiv_pos_as_xyz
  1  'x, y, z'
loop_
 _atom_site_type_symbol
 _atom_site_label
 _atom_site_symmetry_multiplicity
 _atom_site_fract_x
 _atom_site_fract_y
 _atom_site_fract_z
 _atom_site_occupancy
  Nd  Nd0  1  0.00000000  0.00000000  -0.00000000  1
  Cu  Cu0  1  0.75000000  0.25000000  0.50000000  1
  Cu  Cu1  1  0.25000000  0.75000000  0.50000000  1
  Si  Si0  1  0.62174516  0.62174516  0.24349031  1
  Si  Si1  1  0.37825484  0.37825484  0.75650969  1
loop_
_geom_bond_atom_site_label_1
_geom_bond_atom_site_label_2
_geom_bond_distance
_geom_bond_site_symmetry_2
Nd0 Si1 3.117782 1_444
Nd0 Si0 3.117782 1_555
Nd0 Si0 3.117783 1_455
Nd0 Si1 3.117783 1_544
Nd0 Si1 3.117783 1_454
Nd0 Si0 3.117783 1_545
Nd0 Si1 3.117783 1_554
Nd0 Si0 3.117783 1_445
Cu0 Si0 2.395856 1_545
Cu0 Si1 2.395856 1_655
Cu0 Si0 2.395856 1_555
Cu0 Si1 2.395857 1_555
Cu0 Cu1 2.877104 1_555
Cu0 Cu1 2.877104 1_645
Cu0 Cu1 2.877104 1_545
Cu0 Cu1 2.877104 1_655
Cu0 Nd0 3.197334 1_666
Cu0 Nd0 3.197334 1_555
Cu0 Nd0 3.197335 1_656
Cu0 Nd0 3.197335 1_655
Cu1 Si1 2.395856 1_565
Cu1 Si0 2.395856 1_455
Cu1 Si1 2.395856 1_555
Cu1 Si0 2.395857 1_555
Cu1 Nd0 3.197334 1_555
Cu1 Nd0 3.197334 1_666
Cu1 Nd0 3.197335 1_565
Cu1 Nd0 3.197335 1_566
Si0 Si1 2.402366 1_554
