# generated using pymatgen
data_CsSeBr3
_symmetry_space_group_name_H-M   'P 1'
_cell_length_a   5.53489269
_cell_length_b   7.91990307
_cell_length_c   9.00691026
_cell_angle_alpha   90.00000000
_cell_angle_beta   90.00000000
_cell_angle_gamma   100.25176692
_symmetry_Int_Tables_number   1
_chemical_formula_structural   CsSeBr3
_chemical_formula_sum   'Cs2 Se2 Br6'
_cell_volume   388.52193715
_cell_formula_units_Z   2
loop_
 _symmetry_equiv_pos_site_id
 _symmetry_equiv_pos_as_xyz
  1  'x, y, z'
loop_
 _atom_site_type_symbol
 _atom_site_label
 _atom_site_symmetry_multiplicity
 _atom_site_fract_x
 _atom_site_fract_y
 _atom_site_fract_z
 _atom_site_occupancy
  Cs  Cs0  1  0.80595000  0.34796648  0.01010052  1
  Cs  Cs1  1  0.19404900  0.65203352  0.51010052  1
  Se  Se0  1  0.01673206  0.99393164  0.76923419  1
  Se  Se1  1  0.98326894  0.00606736  0.26923419  1
  Br  Br0  1  0.71087456  0.70376009  0.77106774  1
  Br  Br1  1  0.28912544  0.29623891  0.27106774  1
  Br  Br2  1  0.69566778  0.70895765  0.24780375  1
  Br  Br3  1  0.30433222  0.29104335  0.74780375  1
  Br  Br4  1  0.21650348  0.92362352  -0.00050719  1
  Br  Br5  1  0.78349752  0.07637648  0.49949181  1
loop_
_geom_bond_atom_site_label_1
_geom_bond_atom_site_label_2
_geom_bond_distance
_geom_bond_site_symmetry_2
Cs0 Se1 3.832614 1_555
Cs0 Se0 3.885101 1_644
Cs1 Se0 3.832604 1_555
Cs1 Se1 3.885090 1_465
Br0 Se0 2.600527 1_655
Br0 Br3 3.629516 1_555
Br0 Cs1 3.637949 1_655
Br0 Br4 3.655488 1_656
Br0 Cs0 3.657895 1_556
Br0 Cs1 3.668579 1_555
Br1 Se1 2.600524 1_455
Br1 Br2 3.629529 1_555
Br1 Cs0 3.637955 1_455
Br1 Br5 3.655477 1_455
Br1 Cs1 3.657903 1_555
Br1 Cs0 3.668574 1_555
Br2 Se1 2.602867 1_565
Br2 Cs1 3.612128 1_555
Br2 Cs0 3.708301 1_555
Br2 Cs1 3.719743 1_655
Br3 Se0 2.602877 1_545
Br3 Cs0 3.612124 1_556
Br3 Cs1 3.708296 1_555
Br3 Cs0 3.719746 1_456
Br4 Se0 2.460277 1_554
Br4 Se1 2.880193 1_465
Br4 Cs0 4.247947 1_565
Br4 Cs0 4.719214 1_455
Br5 Se1 2.460271 1_555
Br5 Se0 2.880203 1_645
Br5 Cs1 4.247955 1_545
Br5 Cs1 4.719210 1_655
