# generated using pymatgen
data_K2Li2FeO4
_symmetry_space_group_name_H-M   'P 1'
_cell_length_a   9.10377200
_cell_length_b   5.54233900
_cell_length_c   11.21899694
_cell_angle_alpha   69.26627958
_cell_angle_beta   90.00000000
_cell_angle_gamma   90.00000000
_symmetry_Int_Tables_number   1
_chemical_formula_structural   K2Li2FeO4
_chemical_formula_sum   'K8 Li8 Fe4 O16'
_cell_volume   529.40693793
_cell_formula_units_Z   4
loop_
 _symmetry_equiv_pos_site_id
 _symmetry_equiv_pos_as_xyz
  1  'x, y, z'
loop_
 _atom_site_type_symbol
 _atom_site_label
 _atom_site_symmetry_multiplicity
 _atom_site_fract_x
 _atom_site_fract_y
 _atom_site_fract_z
 _atom_site_occupancy
  K  K0  1  0.74847000  0.23320100  0.13274000  1
  K  K1  1  0.50061300  0.29097600  0.35746800  1
  K  K2  1  0.75153000  0.23320100  0.63274000  1
  K  K3  1  0.00061300  0.70902400  0.14253200  1
  K  K4  1  0.99938700  0.29097600  0.85746800  1
  K  K5  1  0.24847000  0.76679900  0.36726000  1
  K  K6  1  0.49938700  0.70902400  0.64253200  1
  K  K7  1  0.25153000  0.76679900  0.86726000  1
  Li  Li0  1  0.48669000  0.64020400  0.07375400  1
  Li  Li1  1  0.24660500  0.37988700  0.19568800  1
  Li  Li2  1  0.98669000  0.35979600  0.42624600  1
  Li  Li3  1  0.74660500  0.62011300  0.30431200  1
  Li  Li4  1  0.25339500  0.37988700  0.69568800  1
  Li  Li5  1  0.01331000  0.64020400  0.57375400  1
  Li  Li6  1  0.51331000  0.35979600  0.92624600  1
  Li  Li7  1  0.75339500  0.62011300  0.80431200  1
  Fe  Fe0  1  0.29252000  0.10943400  0.05372600  1
  Fe  Fe1  1  0.20748000  0.10943400  0.55372600  1
  Fe  Fe2  1  0.79252000  0.89056600  0.44627400  1
  Fe  Fe3  1  0.70748000  0.89056600  0.94627400  1
  O  O0  1  0.30921100  0.26265200  0.87690700  1
  O  O1  1  0.70494700  0.24548600  0.87887400  1
  O  O2  1  0.93245100  0.71986400  0.38291800  1
  O  O3  1  0.62119200  0.79007400  0.40211400  1
  O  O4  1  0.69078900  0.73734800  0.12309300  1
  O  O5  1  0.29505300  0.75451400  0.12112600  1
  O  O6  1  0.06754900  0.28013600  0.61708200  1
  O  O7  1  0.37880800  0.20992600  0.59788600  1
  O  O8  1  0.79505300  0.24548600  0.37887400  1
  O  O9  1  0.19078900  0.26265200  0.37690700  1
  O  O10  1  0.12119200  0.20992600  0.09788600  1
  O  O11  1  0.43245100  0.28013600  0.11708200  1
  O  O12  1  0.87880800  0.79007400  0.90211400  1
  O  O13  1  0.56754900  0.71986400  0.88291800  1
  O  O14  1  0.80921100  0.73734800  0.62309300  1
  O  O15  1  0.20494700  0.75451400  0.62112600  1
loop_
_geom_bond_atom_site_label_1
_geom_bond_atom_site_label_2
_geom_bond_distance
_geom_bond_site_symmetry_2
K0 O4 2.807246 1_555
K0 O8 2.818298 1_555
K0 O4 2.837355 1_545
K0 O1 2.852389 1_554
K0 O11 2.888442 1_555
K0 Li6 3.048195 1_554
K0 O3 3.354430 1_545
K0 O10 3.423288 1_655
K0 O12 3.460349 1_554
K0 K3 3.527177 1_655
K1 O8 2.695093 1_555
K1 O11 2.788657 1_555
K1 O7 2.801548 1_555
K1 Li3 2.815706 1_555
K1 O9 2.829057 1_555
K1 O3 2.859794 1_545
K1 Li1 2.872481 1_555
K1 Li0 3.087333 1_555
K1 O3 3.176256 1_555
K1 K5 3.527177 1_555
K2 O14 2.807246 1_555
K2 O1 2.818298 1_555
K2 O14 2.837355 1_545
K2 O8 2.852389 1_555
K2 O6 2.888442 1_655
K2 Li2 3.048195 1_555
K2 O12 3.354430 1_545
K2 O7 3.423288 1_555
K2 O3 3.460349 1_555
K2 K6 3.527177 1_555
K3 O5 2.695093 1_555
K3 O2 2.788657 1_455
K3 O12 2.801548 1_454
K3 Li1 2.815706 1_555
K3 O4 2.829057 1_455
K3 O10 2.859794 1_565
K3 Li3 2.872481 1_455
K3 Li2 3.087333 1_455
K3 O10 3.176256 1_555
K4 O1 2.695093 1_555
K4 O6 2.788657 1_655
K4 O10 2.801548 1_656
K4 Li7 2.815706 1_555
K4 O0 2.829057 1_655
K4 O12 2.859794 1_545
K4 Li4 2.872481 1_655
K4 Li5 3.087333 1_655
K4 O12 3.176256 1_555
K4 K7 3.527177 1_655
K5 O9 2.807246 1_555
K5 O5 2.818298 1_555
K5 O9 2.837355 1_565
K5 O15 2.852389 1_555
K5 O2 2.888442 1_455
K5 Li5 3.048195 1_555
K5 O10 3.354430 1_565
K5 O3 3.423288 1_555
K5 O7 3.460349 1_555
K6 O15 2.695093 1_555
K6 O13 2.788657 1_555
K6 O3 2.801548 1_555
K6 Li4 2.815706 1_555
K6 O14 2.829057 1_555
K6 O7 2.859794 1_565
K6 Li7 2.872481 1_555
K6 Li6 3.087333 1_555
K6 O7 3.176256 1_555
K7 O0 2.807246 1_555
K7 O15 2.818298 1_555
K7 O0 2.837355 1_565
K7 O5 2.852389 1_556
K7 O13 2.888442 1_555
K7 Li0 3.048195 1_556
K7 O7 3.354430 1_565
K7 O12 3.423288 1_455
K7 O10 3.460349 1_556
Li0 O11 1.943129 1_555
Li0 O5 1.991467 1_555
Li0 O4 2.063910 1_555
Li0 O13 2.156698 1_554
Li1 O9 1.969395 1_555
Li1 O5 1.993882 1_555
Li1 O10 2.031414 1_555
Li1 O11 2.071496 1_555
Li2 O2 1.943129 1_555
Li2 O8 1.991467 1_555
Li2 O9 2.063910 1_655
Li2 O6 2.156698 1_655
Li3 O4 1.969395 1_555
Li3 O8 1.993882 1_555
Li3 O3 2.031414 1_555
Li3 O2 2.071496 1_555
Li4 O0 1.969395 1_555
Li4 O15 1.993882 1_555
Li4 O7 2.031414 1_555
Li4 O6 2.071496 1_555
Li5 O6 1.943129 1_555
Li5 O15 1.991467 1_555
Li5 O14 2.063910 1_455
Li5 O2 2.156698 1_455
Li6 O13 1.943129 1_555
Li6 O1 1.991467 1_555
Li6 O0 2.063910 1_555
Li6 O11 2.156698 1_556
Li7 O14 1.969395 1_555
Li7 O1 1.993882 1_555
Li7 O12 2.031414 1_555
Li7 O13 2.071496 1_555
Fe0 O10 1.784319 1_555
Fe0 O5 1.840805 1_545
Fe0 O0 1.867256 1_554
Fe0 O11 1.870634 1_555
Fe1 O7 1.784319 1_555
Fe1 O15 1.840805 1_545
Fe1 O9 1.867256 1_555
Fe1 O6 1.870634 1_555
Fe2 O3 1.784319 1_555
Fe2 O8 1.840805 1_565
Fe2 O14 1.867256 1_555
Fe2 O2 1.870634 1_555
Fe3 O12 1.784319 1_555
Fe3 O1 1.840805 1_565
Fe3 O4 1.867256 1_556
Fe3 O13 1.870634 1_555
