# generated using pymatgen
data_H4NClO
_symmetry_space_group_name_H-M   'P 1'
_cell_length_a   6.08395300
_cell_length_b   6.99918800
_cell_length_c   7.77859699
_cell_angle_alpha   58.42123899
_cell_angle_beta   90.00000000
_cell_angle_gamma   90.00000000
_symmetry_Int_Tables_number   1
_chemical_formula_structural   H4NClO
_chemical_formula_sum   'H16 N4 Cl4 O4'
_cell_volume   282.18515411
_cell_formula_units_Z   4
loop_
 _symmetry_equiv_pos_site_id
 _symmetry_equiv_pos_as_xyz
  1  'x, y, z'
loop_
 _atom_site_type_symbol
 _atom_site_label
 _atom_site_symmetry_multiplicity
 _atom_site_fract_x
 _atom_site_fract_y
 _atom_site_fract_z
 _atom_site_occupancy
  H  H0  1  0.48387100  0.25841200  0.68729300  1
  H  H1  1  0.98387100  0.74158800  0.81270700  1
  H  H2  1  0.51612900  0.74158800  0.31270700  1
  H  H3  1  0.01612900  0.25841200  0.18729300  1
  H  H4  1  0.15620700  0.37532600  0.72564200  1
  H  H5  1  0.65620700  0.62467400  0.77435800  1
  H  H6  1  0.84379300  0.62467400  0.27435800  1
  H  H7  1  0.34379300  0.37532600  0.22564200  1
  H  H8  1  0.03605500  0.21669900  0.64316900  1
  H  H9  1  0.53605500  0.78330100  0.85683100  1
  H  H10  1  0.96394500  0.78330100  0.35683100  1
  H  H11  1  0.46394500  0.21669900  0.14316900  1
  H  H12  1  0.31968200  0.08499500  0.36751800  1
  H  H13  1  0.81968200  0.91500500  0.13248200  1
  H  H14  1  0.68031800  0.91500500  0.63248200  1
  H  H15  1  0.18031800  0.08499500  0.86751800  1
  N  N0  1  0.83015400  0.77235800  0.27720900  1
  N  N1  1  0.33015400  0.22764200  0.22279100  1
  N  N2  1  0.66984600  0.77235800  0.77720900  1
  N  N3  1  0.16984600  0.22764200  0.72279100  1
  Cl  Cl0  1  0.31971400  0.74074900  0.10116900  1
  Cl  Cl1  1  0.81971400  0.25925100  0.39883100  1
  Cl  Cl2  1  0.68028600  0.25925100  0.89883100  1
  Cl  Cl3  1  0.18028600  0.74074900  0.60116900  1
  O  O0  1  0.35932300  0.23968600  0.61114800  1
  O  O1  1  0.64067700  0.76031400  0.38885200  1
  O  O2  1  0.85932300  0.76031400  0.88885200  1
  O  O3  1  0.14067700  0.23968600  0.11114800  1
loop_
_geom_bond_atom_site_label_1
_geom_bond_atom_site_label_2
_geom_bond_distance
_geom_bond_site_symmetry_2
H0 O0 1.011673 1_555
H1 O2 1.011673 1_555
H2 O1 1.011673 1_555
H3 O3 1.011673 1_555
H4 N3 1.048740 1_555
H5 N2 1.048740 1_555
H6 N0 1.048740 1_555
H7 N1 1.048740 1_555
H8 N3 1.049619 1_555
H9 N2 1.049619 1_555
H10 N0 1.049619 1_555
H11 N1 1.049619 1_555
H12 N1 1.044536 1_555
H13 N0 1.044536 1_555
H14 N2 1.044536 1_555
H15 N3 1.044536 1_555
N0 O1 1.418969 1_555
N1 O3 1.418969 1_555
N2 O2 1.418969 1_555
N3 O0 1.418969 1_555
Cl0 H2 2.036099 1_555
Cl0 H9 2.200127 1_554
Cl0 H7 2.215161 1_555
Cl0 H15 2.289423 1_564
Cl1 H3 2.036099 1_655
Cl1 H8 2.200127 1_655
Cl1 H6 2.215161 1_555
Cl1 H14 2.289423 1_545
Cl2 H0 2.036099 1_555
Cl2 H11 2.200127 1_556
Cl2 H5 2.215161 1_555
Cl2 H13 2.289423 1_546
Cl3 H1 2.036099 1_455
Cl3 H10 2.200127 1_455
Cl3 H4 2.215161 1_555
Cl3 H12 2.289423 1_565
