# generated using pymatgen
data_Ba2YMgNi3O8
_symmetry_space_group_name_H-M   'P 1'
_cell_length_a   4.01709725
_cell_length_b   3.85892932
_cell_length_c   14.13171904
_cell_angle_alpha   90.00001177
_cell_angle_beta   90.00003120
_cell_angle_gamma   90.00001442
_symmetry_Int_Tables_number   1
_chemical_formula_structural   Ba2YMgNi3O8
_chemical_formula_sum   'Ba2 Y1 Mg1 Ni3 O8'
_cell_volume   219.06558933
_cell_formula_units_Z   1
loop_
 _symmetry_equiv_pos_site_id
 _symmetry_equiv_pos_as_xyz
  1  'x, y, z'
loop_
 _atom_site_type_symbol
 _atom_site_label
 _atom_site_symmetry_multiplicity
 _atom_site_fract_x
 _atom_site_fract_y
 _atom_site_fract_z
 _atom_site_occupancy
  Ba  Ba0  1  0.50000000  0.50000000  0.07434638  1
  Ba  Ba1  1  0.50000000  0.50000000  0.79547617  1
  Y  Y0  1  0.50000000  0.50000000  0.52477709  1
  Mg  Mg0  1  1.00000000  0.50000000  0.27537848  1
  Ni  Ni0  1  0.00000100  0.00000100  0.40070324  1
  Ni  Ni1  1  0.99999900  0.00000000  0.93339153  1
  Ni  Ni2  1  0.00000000  0.99999800  0.65332903  1
  O  O0  1  1.00000000  0.50000000  0.41190926  1
  O  O1  1  0.50000000  1.00000000  0.43184565  1
  O  O2  1  0.49999900  1.00000000  0.95915469  1
  O  O3  1  1.00000000  1.00000000  0.23900760  1
  O  O4  1  0.00000000  0.49999900  0.61111385  1
  O  O5  1  0.50000000  0.00000000  0.63286390  1
  O  O6  1  0.99999900  0.00000000  0.79339127  1
  O  O7  1  0.00000000  0.50000000  0.96886786  1
loop_
_geom_bond_atom_site_label_1
_geom_bond_atom_site_label_2
_geom_bond_distance
_geom_bond_site_symmetry_2
Ba0 O7 2.501226 1_554
Ba0 O7 2.501227 1_654
Ba0 O2 2.524431 1_544
Ba0 O2 2.524431 1_554
Ba0 Mg0 3.479244 1_555
Ba0 Mg0 3.479246 1_455
Ba1 O6 2.785310 1_565
Ba1 O6 2.785311 1_555
Ba1 O6 2.785316 1_455
Ba1 O6 2.785316 1_465
Ba1 O5 3.000599 1_555
Ba1 O5 3.000600 1_565
Ba1 O2 3.012154 1_555
Ba1 O2 3.012155 1_545
Ba1 O7 3.168334 1_655
Ba1 O7 3.168336 1_555
Ba1 O4 3.289703 1_555
Ba1 O4 3.289705 1_655
Mg0 O0 1.929415 1_555
Mg0 O3 1.996750 1_545
Mg0 O3 1.996751 1_555
Ni0 O0 1.935949 1_455
Ni0 O0 1.935956 1_445
Ni0 O1 2.056194 1_545
Ni0 O1 2.056203 1_445
Ni0 O3 2.285037 1_445
Ni1 O6 1.978444 1_555
Ni1 O7 1.993534 1_655
Ni1 O7 1.993534 1_645
Ni1 O2 2.041279 1_645
Ni1 O2 2.041279 1_545
Ni2 O6 1.979320 1_465
Ni2 O4 2.019584 1_555
Ni2 O4 2.019591 1_565
Ni2 O5 2.029263 1_465
Ni2 O5 2.029263 1_565
O0 Y0 2.564828 1_655
O0 Y0 2.564829 1_555
O0 O4 2.815103 1_655
O1 Y0 2.333997 1_565
O1 Y0 2.333997 1_555
O1 O5 2.840733 1_565
O4 Y0 2.350080 1_455
O4 Y0 2.350081 1_555
O5 Y0 2.460883 1_545
O5 Y0 2.460883 1_555
