# generated using pymatgen
data_CaH2(CO2)2
_symmetry_space_group_name_H-M   'P 1'
_cell_length_a   6.38270500
_cell_length_b   10.26759500
_cell_length_c   13.72474200
_cell_angle_alpha   90.00000000
_cell_angle_beta   90.00000000
_cell_angle_gamma   90.00000000
_symmetry_Int_Tables_number   1
_chemical_formula_structural   CaH2(CO2)2
_chemical_formula_sum   'Ca8 H16 C16 O32'
_cell_volume   899.45137795
_cell_formula_units_Z   8
loop_
 _symmetry_equiv_pos_site_id
 _symmetry_equiv_pos_as_xyz
  1  'x, y, z'
loop_
 _atom_site_type_symbol
 _atom_site_label
 _atom_site_symmetry_multiplicity
 _atom_site_fract_x
 _atom_site_fract_y
 _atom_site_fract_z
 _atom_site_occupancy
  Ca  Ca0  1  0.03014400  0.63469100  0.60699600  1
  Ca  Ca1  1  0.53014400  0.36530900  0.89300400  1
  Ca  Ca2  1  0.46985600  0.13469100  0.39300400  1
  Ca  Ca3  1  0.96985600  0.86530900  0.10699600  1
  Ca  Ca4  1  0.96985600  0.36530900  0.39300400  1
  Ca  Ca5  1  0.46985600  0.63469100  0.10699600  1
  Ca  Ca6  1  0.53014400  0.86530900  0.60699600  1
  Ca  Ca7  1  0.03014400  0.13469100  0.89300400  1
  H  H0  1  0.47444200  0.65561300  0.79147100  1
  H  H1  1  0.97444200  0.34438700  0.70852900  1
  H  H2  1  0.02555800  0.15561300  0.20852900  1
  H  H3  1  0.52555800  0.84438700  0.29147100  1
  H  H4  1  0.52555800  0.34438700  0.20852900  1
  H  H5  1  0.02555800  0.65561300  0.29147100  1
  H  H6  1  0.97444200  0.84438700  0.79147100  1
  H  H7  1  0.47444200  0.15561300  0.70852900  1
  H  H8  1  0.03729500  0.10280600  0.60628000  1
  H  H9  1  0.53729500  0.89719400  0.89372000  1
  H  H10  1  0.53729500  0.39719400  0.60628000  1
  H  H11  1  0.03729500  0.60280600  0.89372000  1
  H  H12  1  0.96270500  0.89719400  0.39372000  1
  H  H13  1  0.46270500  0.10280600  0.10628000  1
  H  H14  1  0.46270500  0.60280600  0.39372000  1
  H  H15  1  0.96270500  0.39719400  0.10628000  1
  C  C0  1  0.63089500  0.12505300  0.73495600  1
  C  C1  1  0.13089500  0.87494700  0.76504400  1
  C  C2  1  0.86910500  0.62505300  0.26504400  1
  C  C3  1  0.36910500  0.37494700  0.23495600  1
  C  C4  1  0.36910500  0.87494700  0.26504400  1
  C  C5  1  0.86910500  0.12505300  0.23495600  1
  C  C6  1  0.13089500  0.37494700  0.73495600  1
  C  C7  1  0.63089500  0.62505300  0.76504400  1
  C  C8  1  0.34287900  0.11330300  0.04827700  1
  C  C9  1  0.84287900  0.88669700  0.45172300  1
  C  C10  1  0.15712100  0.61330300  0.95172300  1
  C  C11  1  0.65712100  0.38669700  0.54827700  1
  C  C12  1  0.65712100  0.88669700  0.95172300  1
  C  C13  1  0.15712100  0.11330300  0.54827700  1
  C  C14  1  0.84287900  0.38669700  0.04827700  1
  C  C15  1  0.34287900  0.61330300  0.45172300  1
  O  O0  1  0.36592700  0.70146900  0.51573800  1
  O  O1  1  0.86592700  0.79853100  0.51573800  1
  O  O2  1  0.13407300  0.70146900  0.01573800  1
  O  O3  1  0.63407300  0.29853100  0.48426200  1
  O  O4  1  0.63407300  0.79853100  0.01573800  1
  O  O5  1  0.13407300  0.20146900  0.48426200  1
  O  O6  1  0.86592700  0.29853100  0.98426200  1
  O  O7  1  0.36592700  0.20146900  0.98426200  1
  O  O8  1  0.71610000  0.19765000  0.79970000  1
  O  O9  1  0.21610000  0.80235000  0.70030000  1
  O  O10  1  0.78390000  0.69765000  0.20030000  1
  O  O11  1  0.28390000  0.30235000  0.29970000  1
  O  O12  1  0.28390000  0.80235000  0.20030000  1
  O  O13  1  0.78390000  0.19765000  0.29970000  1
  O  O14  1  0.18741800  0.53632800  0.45229200  1
  O  O15  1  0.71610000  0.69765000  0.70030000  1
  O  O16  1  0.71106500  0.02303100  0.69995300  1
  O  O17  1  0.21106500  0.97696900  0.80004700  1
  O  O18  1  0.78893500  0.52303100  0.30004700  1
  O  O19  1  0.28893500  0.47696900  0.19995300  1
  O  O20  1  0.28893500  0.97696900  0.30004700  1
  O  O21  1  0.78893500  0.02303100  0.19995300  1
  O  O22  1  0.68741800  0.46367200  0.04770800  1
  O  O23  1  0.71106500  0.52303100  0.80004700  1
  O  O24  1  0.31258200  0.03632800  0.54770800  1
  O  O25  1  0.81258200  0.96367200  0.95229200  1
  O  O26  1  0.81258200  0.46367200  0.54770800  1
  O  O27  1  0.31258200  0.53632800  0.95229200  1
  O  O28  1  0.68741800  0.96367200  0.45229200  1
  O  O29  1  0.18741800  0.03632800  0.04770800  1
  O  O30  1  0.21610000  0.30235000  0.79970000  1
  O  O31  1  0.21106500  0.47696900  0.69995300  1
loop_
_geom_bond_atom_site_label_1
_geom_bond_atom_site_label_2
_geom_bond_distance
_geom_bond_site_symmetry_2
Ca0 O1 2.344631 1_455
Ca0 O31 2.362989 1_555
Ca0 O26 2.381975 1_455
Ca0 O9 2.451940 1_555
Ca0 O15 2.464867 1_455
Ca0 O14 2.556554 1_555
Ca0 O0 2.575301 1_555
Ca1 O7 2.344631 1_555
Ca1 O23 2.362989 1_555
Ca1 O27 2.381975 1_555
Ca1 O8 2.451940 1_555
Ca1 O30 2.464867 1_555
Ca1 O22 2.556554 1_556
Ca1 O6 2.575301 1_555
Ca2 O3 2.344631 1_555
Ca2 O20 2.362989 1_545
Ca2 O28 2.381975 1_545
Ca2 O11 2.451940 1_555
Ca2 O13 2.464867 1_555
Ca2 O24 2.556554 1_555
Ca2 O5 2.575301 1_555
Ca3 O2 2.344631 1_655
Ca3 O21 2.362989 1_565
Ca3 O29 2.381975 1_665
Ca3 O10 2.451940 1_555
Ca3 O12 2.464867 1_655
Ca3 O25 2.556554 1_554
Ca3 O4 2.575301 1_555
Ca4 O5 2.344631 1_655
Ca4 O18 2.362989 1_555
Ca4 O14 2.381975 1_655
Ca4 O13 2.451940 1_555
Ca4 O11 2.464867 1_655
Ca4 O26 2.556554 1_555
Ca4 O3 2.575301 1_555
Ca5 O4 2.344631 1_555
Ca5 O19 2.362989 1_555
Ca5 O22 2.381975 1_555
Ca5 O12 2.451940 1_555
Ca5 O10 2.464867 1_555
Ca5 O27 2.556554 1_554
Ca5 O2 2.575301 1_555
Ca6 O0 2.344631 1_555
Ca6 O16 2.362989 1_565
Ca6 O24 2.381975 1_565
Ca6 O15 2.451940 1_555
Ca6 O9 2.464867 1_555
Ca6 O28 2.556554 1_555
Ca6 O1 2.575301 1_555
Ca7 O6 2.344631 1_455
Ca7 O17 2.362989 1_545
Ca7 O25 2.381975 1_445
Ca7 O30 2.451940 1_555
Ca7 O8 2.464867 1_455
Ca7 O29 2.556554 1_556
Ca7 O7 2.575301 1_555
C0 H7 1.107790 1_555
C0 O16 1.260924 1_555
C0 O8 1.281006 1_555
C1 H6 1.107790 1_455
C1 O17 1.260924 1_555
C1 O9 1.281006 1_555
C2 H5 1.107790 1_655
C2 O18 1.260924 1_555
C2 O10 1.281006 1_555
C3 H4 1.107790 1_555
C3 O19 1.260924 1_555
C3 O11 1.281006 1_555
C4 H3 1.107790 1_555
C4 O20 1.260924 1_555
C4 O12 1.281006 1_555
C5 H2 1.107790 1_655
C5 O21 1.260924 1_555
C5 O13 1.281006 1_555
C6 H1 1.107790 1_455
C6 O31 1.260924 1_555
C6 O30 1.281006 1_555
C7 H0 1.107790 1_555
C7 O23 1.260924 1_555
C7 O15 1.281006 1_555
C8 H13 1.109186 1_555
C8 O29 1.268580 1_555
C8 O7 1.270056 1_554
C9 H12 1.109186 1_555
C9 O28 1.268580 1_555
C9 O1 1.270056 1_555
C10 H11 1.109186 1_555
C10 O27 1.268580 1_555
C10 O2 1.270056 1_556
C11 H10 1.109186 1_555
C11 O26 1.268580 1_555
C11 O3 1.270056 1_555
C12 H9 1.109186 1_555
C12 O25 1.268580 1_555
C12 O4 1.270056 1_556
C13 H8 1.109186 1_555
C13 O24 1.268580 1_555
C13 O5 1.270056 1_555
C14 H15 1.109186 1_555
C14 O22 1.268580 1_555
C14 O6 1.270056 1_554
C15 H14 1.109186 1_555
C15 O14 1.268580 1_555
C15 O0 1.270056 1_555
