# generated using pymatgen
data_MgFe6(OF)6
_symmetry_space_group_name_H-M   'P 1'
_cell_length_a   8.14659572
_cell_length_b   5.98122725
_cell_length_c   5.77138373
_cell_angle_alpha   68.43353444
_cell_angle_beta   66.70994277
_cell_angle_gamma   64.49323866
_symmetry_Int_Tables_number   1
_chemical_formula_structural   MgFe6(OF)6
_chemical_formula_sum   'Mg1 Fe6 O6 F6'
_cell_volume   226.42877943
_cell_formula_units_Z   1
loop_
 _symmetry_equiv_pos_site_id
 _symmetry_equiv_pos_as_xyz
  1  'x, y, z'
loop_
 _atom_site_type_symbol
 _atom_site_label
 _atom_site_symmetry_multiplicity
 _atom_site_fract_x
 _atom_site_fract_y
 _atom_site_fract_z
 _atom_site_occupancy
  Mg  Mg0  1  0.99794900  0.49503500  0.01127200  1
  Fe  Fe0  1  0.81067000  0.64702200  0.62771200  1
  Fe  Fe1  1  0.64868300  0.30587200  0.33220900  1
  Fe  Fe2  1  0.34522100  0.70247300  0.62673100  1
  Fe  Fe3  1  0.21287100  0.35152300  0.39073700  1
  Fe  Fe4  1  0.51098800  0.95669800  0.99913400  1
  Fe  Fe5  1  0.00844300  0.98955200  0.99830200  1
  O  O0  1  0.65319000  0.00290500  0.62826000  1
  O  O1  1  0.38569300  0.47173100  0.40359800  1
  O  O2  1  0.35497700  0.01208100  0.33876000  1
  O  O3  1  0.70624000  0.61541700  0.02954500  1
  O  O4  1  0.02405400  0.33131600  0.73301400  1
  O  O5  1  0.99455900  0.65005900  0.27663100  1
  F  F0  1  0.29454600  0.38611600  0.95016000  1
  F  F1  1  0.31867900  0.88021600  0.91766000  1
  F  F2  1  0.94114500  0.19580400  0.27258200  1
  F  F3  1  0.64507200  0.51368700  0.58125000  1
  F  F4  1  0.03972600  0.79508100  0.73559800  1
  F  F5  1  0.69896100  0.11407900  0.07541700  1
loop_
_geom_bond_atom_site_label_1
_geom_bond_atom_site_label_2
_geom_bond_distance
_geom_bond_site_symmetry_2
Mg0 O5 2.048035 1_555
Mg0 O4 2.071195 1_654
Mg0 O3 2.135646 1_555
Fe0 O0 1.956208 1_565
Fe0 O5 1.986497 1_555
Fe0 O4 2.030181 1_655
Fe0 O3 2.096164 1_556
Fe1 O1 1.875114 1_555
Fe1 O0 1.980048 1_555
Fe1 O3 2.102719 1_555
Fe2 O2 1.989347 1_565
Fe2 O1 2.061742 1_555
Fe3 O1 1.870388 1_555
Fe3 O2 1.923827 1_555
Fe3 O4 1.965887 1_555
Fe3 O5 2.027761 1_455
Fe4 O2 1.926621 1_566
Fe4 O0 1.969768 1_565
Fe4 O3 1.971994 1_556
Fe5 O4 2.075578 1_565
Fe5 O5 2.091071 1_456
F0 Mg0 2.127541 1_456
F0 Fe2 2.168397 1_555
F0 Fe3 2.311917 1_556
F0 Fe4 2.397063 1_545
F0 O2 2.552109 1_556
F0 O1 2.837552 1_555
F0 F1 2.978505 1_555
F1 Fe4 2.059785 1_555
F1 Fe2 2.196237 1_555
F1 Fe5 2.214046 1_555
F1 O0 2.824260 1_565
F2 Mg0 1.966961 1_555
F2 Fe1 2.096612 1_555
F2 Fe5 2.120170 1_644
F3 Fe0 1.974272 1_555
F3 Fe2 2.155537 1_555
F3 Fe1 2.204594 1_555
F4 Mg0 1.966379 1_456
F4 Fe5 2.110056 1_555
F4 Fe2 2.174284 1_555
F4 Fe0 2.720541 1_455
F5 Fe1 2.011312 1_555
F5 Fe5 2.201932 1_644
F5 Fe4 2.346104 1_544
