# generated using pymatgen
data_Dy2InPd2
_symmetry_space_group_name_H-M   'P 1'
_cell_length_a   15.48078872
_cell_length_b   15.48078872
_cell_length_c   7.26997238
_cell_angle_alpha   90.00000000
_cell_angle_beta   90.00000000
_cell_angle_gamma   90.00000000
_symmetry_Int_Tables_number   1
_chemical_formula_structural   Dy2InPd2
_chemical_formula_sum   'Dy32 In16 Pd32'
_cell_volume   1742.28391772
_cell_formula_units_Z   16
loop_
 _symmetry_equiv_pos_site_id
 _symmetry_equiv_pos_as_xyz
  1  'x, y, z'
loop_
 _atom_site_type_symbol
 _atom_site_label
 _atom_site_symmetry_multiplicity
 _atom_site_fract_x
 _atom_site_fract_y
 _atom_site_fract_z
 _atom_site_occupancy
  Dy  Dy0_0  1  0.16359862  0.41359862  0.25000000  1
  Dy  Dy0_1  1  0.16359862  0.41359862  0.75000000  1
  Dy  Dy0_2  1  0.16359862  0.91359862  0.25000000  1
  Dy  Dy0_3  1  0.16359862  0.91359862  0.75000000  1
  Dy  Dy0_4  1  0.66359862  0.41359862  0.25000000  1
  Dy  Dy0_5  1  0.66359862  0.41359862  0.75000000  1
  Dy  Dy0_6  1  0.66359862  0.91359862  0.25000000  1
  Dy  Dy0_7  1  0.66359862  0.91359862  0.75000000  1
  Dy  Dy1_0  1  0.41359862  0.33640138  0.25000000  1
  Dy  Dy1_1  1  0.41359862  0.33640138  0.75000000  1
  Dy  Dy1_2  1  0.41359862  0.83640138  0.25000000  1
  Dy  Dy1_3  1  0.41359862  0.83640138  0.75000000  1
  Dy  Dy1_4  1  0.91359862  0.33640138  0.25000000  1
  Dy  Dy1_5  1  0.91359862  0.33640138  0.75000000  1
  Dy  Dy1_6  1  0.91359862  0.83640138  0.25000000  1
  Dy  Dy1_7  1  0.91359862  0.83640138  0.75000000  1
  Dy  Dy2_0  1  0.08640138  0.16359862  0.25000000  1
  Dy  Dy2_1  1  0.08640138  0.16359862  0.75000000  1
  Dy  Dy2_2  1  0.08640138  0.66359862  0.25000000  1
  Dy  Dy2_3  1  0.08640138  0.66359862  0.75000000  1
  Dy  Dy2_4  1  0.58640138  0.16359862  0.25000000  1
  Dy  Dy2_5  1  0.58640138  0.16359862  0.75000000  1
  Dy  Dy2_6  1  0.58640138  0.66359862  0.25000000  1
  Dy  Dy2_7  1  0.58640138  0.66359862  0.75000000  1
  Dy  Dy3_0  1  0.33640138  0.08640138  0.25000000  1
  Dy  Dy3_1  1  0.33640138  0.08640138  0.75000000  1
  Dy  Dy3_2  1  0.33640138  0.58640138  0.25000000  1
  Dy  Dy3_3  1  0.33640138  0.58640138  0.75000000  1
  Dy  Dy3_4  1  0.83640138  0.08640138  0.25000000  1
  Dy  Dy3_5  1  0.83640138  0.08640138  0.75000000  1
  Dy  Dy3_6  1  0.83640138  0.58640138  0.25000000  1
  Dy  Dy3_7  1  0.83640138  0.58640138  0.75000000  1
  In  In0_0  1  0.00000000  0.00000000  0.00000000  1
  In  In0_1  1  0.00000000  0.00000000  0.50000000  1
  In  In0_2  1  0.00000000  0.50000000  0.00000000  1
  In  In0_3  1  0.00000000  0.50000000  0.50000000  1
  In  In0_4  1  0.50000000  0.00000000  0.00000000  1
  In  In0_5  1  0.50000000  0.00000000  0.50000000  1
  In  In0_6  1  0.50000000  0.50000000  0.00000000  1
  In  In0_7  1  0.50000000  0.50000000  0.50000000  1
  In  In1_0  1  0.25000000  0.25000000  0.00000000  1
  In  In1_1  1  0.25000000  0.25000000  0.50000000  1
  In  In1_2  1  0.25000000  0.75000000  0.00000000  1
  In  In1_3  1  0.25000000  0.75000000  0.50000000  1
  In  In1_4  1  0.75000000  0.25000000  0.00000000  1
  In  In1_5  1  0.75000000  0.25000000  0.50000000  1
  In  In1_6  1  0.75000000  0.75000000  0.00000000  1
  In  In1_7  1  0.75000000  0.75000000  0.50000000  1
  Pd  Pd0_0  1  0.18594869  0.06405131  0.00000000  1
  Pd  Pd0_1  1  0.18594869  0.06405131  0.50000000  1
  Pd  Pd0_2  1  0.18594869  0.56405131  0.00000000  1
  Pd  Pd0_3  1  0.18594869  0.56405131  0.50000000  1
  Pd  Pd0_4  1  0.68594869  0.06405131  0.00000000  1
  Pd  Pd0_5  1  0.68594869  0.06405131  0.50000000  1
  Pd  Pd0_6  1  0.68594869  0.56405131  0.00000000  1
  Pd  Pd0_7  1  0.68594869  0.56405131  0.50000000  1
  Pd  Pd1_0  1  0.43594868  0.18594869  0.00000000  1
  Pd  Pd1_1  1  0.43594868  0.18594869  0.50000000  1
  Pd  Pd1_2  1  0.43594868  0.68594869  0.00000000  1
  Pd  Pd1_3  1  0.43594868  0.68594869  0.50000000  1
  Pd  Pd1_4  1  0.93594869  0.18594869  0.00000000  1
  Pd  Pd1_5  1  0.93594869  0.18594869  0.50000000  1
  Pd  Pd1_6  1  0.93594869  0.68594869  0.00000000  1
  Pd  Pd1_7  1  0.93594869  0.68594869  0.50000000  1
  Pd  Pd2_0  1  0.06405131  0.31405131  0.00000000  1
  Pd  Pd2_1  1  0.06405131  0.31405131  0.50000000  1
  Pd  Pd2_2  1  0.06405131  0.81405132  0.00000000  1
  Pd  Pd2_3  1  0.06405131  0.81405132  0.50000000  1
  Pd  Pd2_4  1  0.56405131  0.31405131  0.00000000  1
  Pd  Pd2_5  1  0.56405131  0.31405131  0.50000000  1
  Pd  Pd2_6  1  0.56405131  0.81405132  0.00000000  1
  Pd  Pd2_7  1  0.56405131  0.81405132  0.50000000  1
  Pd  Pd3_0  1  0.31405131  0.43594868  0.00000000  1
  Pd  Pd3_1  1  0.31405131  0.43594868  0.50000000  1
  Pd  Pd3_2  1  0.31405131  0.93594869  0.00000000  1
  Pd  Pd3_3  1  0.31405131  0.93594869  0.50000000  1
  Pd  Pd3_4  1  0.81405132  0.43594868  0.00000000  1
  Pd  Pd3_5  1  0.81405132  0.43594868  0.50000000  1
  Pd  Pd3_6  1  0.81405132  0.93594869  0.00000000  1
  Pd  Pd3_7  1  0.81405132  0.93594869  0.50000000  1
loop_
_geom_bond_atom_site_label_1
_geom_bond_atom_site_label_2
_geom_bond_distance
_geom_bond_site_symmetry_2
Dy0_0 Pd2_1 2.837795 1_555
Dy0_0 Pd2_0 2.837795 1_555
Dy0_0 Pd0_2 2.974529 1_555
Dy0_0 Pd0_3 2.974529 1_555
Dy0_0 Pd3_1 2.974529 1_555
Dy0_0 Pd3_0 2.974529 1_555
Dy0_0 In1_0 3.392137 1_555
Dy0_0 In1_1 3.392137 1_555
Dy0_0 In0_2 3.392137 1_555
Dy0_0 In0_3 3.392137 1_555
Dy0_1 Pd2_0 2.837795 1_556
Dy0_1 Pd2_1 2.837795 1_555
Dy0_1 Pd0_2 2.974529 1_556
Dy0_1 Pd3_0 2.974529 1_556
Dy0_1 Pd3_1 2.974529 1_555
Dy0_1 Pd0_3 2.974529 1_555
Dy0_1 In1_0 3.392137 1_556
Dy0_1 In0_2 3.392137 1_556
Dy0_1 In1_1 3.392137 1_555
Dy0_1 In0_3 3.392137 1_555
Dy0_2 Pd2_2 2.837795 1_555
Dy0_2 Pd2_3 2.837795 1_555
Dy0_2 Pd0_1 2.974529 1_565
Dy0_2 Pd0_0 2.974529 1_565
Dy0_2 Pd3_2 2.974529 1_555
Dy0_2 Pd3_3 2.974529 1_555
Dy0_2 In0_1 3.392137 1_565
Dy0_2 In0_0 3.392137 1_565
Dy0_2 In1_2 3.392137 1_555
Dy0_2 In1_3 3.392137 1_555
Dy0_3 Pd2_2 2.837795 1_556
Dy0_3 Pd2_3 2.837795 1_555
Dy0_3 Pd0_0 2.974529 1_566
Dy0_3 Pd3_2 2.974529 1_556
Dy0_3 Pd0_1 2.974529 1_565
Dy0_3 Pd3_3 2.974529 1_555
Dy0_3 In0_0 3.392137 1_566
Dy0_3 In1_2 3.392137 1_556
Dy0_3 In0_1 3.392137 1_565
Dy0_3 In1_3 3.392137 1_555
Dy0_4 Pd2_5 2.837795 1_555
Dy0_4 Pd2_4 2.837795 1_555
Dy0_4 Pd0_6 2.974529 1_555
Dy0_4 Pd0_7 2.974529 1_555
Dy0_4 Pd3_4 2.974529 1_555
Dy0_4 Pd3_5 2.974529 1_555
Dy0_4 In1_4 3.392137 1_555
Dy0_4 In1_5 3.392137 1_555
Dy0_4 In0_7 3.392137 1_555
Dy0_4 In0_6 3.392137 1_555
Dy0_5 Pd2_4 2.837795 1_556
Dy0_5 Pd2_5 2.837795 1_555
Dy0_5 Pd0_6 2.974529 1_556
Dy0_5 Pd3_4 2.974529 1_556
Dy0_5 Pd0_7 2.974529 1_555
Dy0_5 Pd3_5 2.974529 1_555
Dy0_5 In1_4 3.392137 1_556
Dy0_5 In0_6 3.392137 1_556
Dy0_5 In1_5 3.392137 1_555
Dy0_5 In0_7 3.392137 1_555
Dy0_6 Pd2_6 2.837795 1_555
Dy0_6 Pd2_7 2.837795 1_555
Dy0_6 Pd0_4 2.974529 1_565
Dy0_6 Pd0_5 2.974529 1_565
Dy0_6 Pd3_6 2.974529 1_555
Dy0_6 Pd3_7 2.974529 1_555
Dy0_6 In1_6 3.392137 1_555
Dy0_6 In1_7 3.392137 1_555
Dy0_6 In0_4 3.392137 1_565
Dy0_6 In0_5 3.392137 1_565
Dy0_7 Pd2_6 2.837795 1_556
Dy0_7 Pd2_7 2.837795 1_555
Dy0_7 Pd0_4 2.974529 1_566
Dy0_7 Pd3_6 2.974529 1_556
Dy0_7 Pd0_5 2.974529 1_565
Dy0_7 Pd3_7 2.974529 1_555
Dy0_7 In0_4 3.392137 1_566
Dy0_7 In1_6 3.392137 1_556
Dy0_7 In0_5 3.392137 1_565
Dy0_7 In1_7 3.392137 1_555
Dy1_0 Pd3_0 2.837795 1_555
Dy1_0 Pd3_1 2.837795 1_555
Dy1_0 Pd2_4 2.974529 1_555
Dy1_0 Pd2_5 2.974529 1_555
Dy1_0 Pd1_0 2.974529 1_555
Dy1_0 Pd1_1 2.974529 1_555
Dy1_0 In1_0 3.392137 1_555
Dy1_0 In1_1 3.392137 1_555
Dy1_0 In0_6 3.392137 1_555
Dy1_0 In0_7 3.392137 1_555
Dy1_1 Pd3_0 2.837795 1_556
Dy1_1 Pd3_1 2.837795 1_555
Dy1_1 Pd2_4 2.974529 1_556
Dy1_1 Pd1_0 2.974529 1_556
Dy1_1 Pd2_5 2.974529 1_555
Dy1_1 Pd1_1 2.974529 1_555
Dy1_1 In0_6 3.392137 1_556
Dy1_1 In1_0 3.392137 1_556
Dy1_1 In0_7 3.392137 1_555
Dy1_1 In1_1 3.392137 1_555
Dy1_2 Pd3_3 2.837795 1_555
Dy1_2 Pd3_2 2.837795 1_555
Dy1_2 Pd2_7 2.974529 1_555
Dy1_2 Pd1_3 2.974529 1_555
Dy1_2 Pd1_2 2.974529 1_555
Dy1_2 Pd2_6 2.974529 1_555
Dy1_2 In1_3 3.392137 1_555
Dy1_2 In1_2 3.392137 1_555
Dy1_2 In0_5 3.392137 1_565
Dy1_2 In0_4 3.392137 1_565
Dy1_3 Pd3_2 2.837795 1_556
Dy1_3 Pd3_3 2.837795 1_555
Dy1_3 Pd1_2 2.974529 1_556
Dy1_3 Pd2_6 2.974529 1_556
Dy1_3 Pd1_3 2.974529 1_555
Dy1_3 Pd2_7 2.974529 1_555
Dy1_3 In1_2 3.392137 1_556
Dy1_3 In1_3 3.392137 1_555
Dy1_3 In0_4 3.392137 1_566
Dy1_3 In0_5 3.392137 1_565
Dy1_4 Pd3_4 2.837795 1_555
Dy1_4 Pd3_5 2.837795 1_555
Dy1_4 Pd2_0 2.974529 1_655
Dy1_4 Pd2_1 2.974529 1_655
Dy1_4 Pd1_4 2.974529 1_555
Dy1_4 Pd1_5 2.974529 1_555
Dy1_4 In0_3 3.392137 1_655
Dy1_4 In0_2 3.392137 1_655
Dy1_4 In1_5 3.392137 1_555
Dy1_4 In1_4 3.392137 1_555
Dy1_5 Pd3_4 2.837795 1_556
Dy1_5 Pd3_5 2.837795 1_555
Dy1_5 Pd2_0 2.974529 1_656
Dy1_5 Pd2_1 2.974529 1_655
Dy1_5 Pd1_4 2.974529 1_556
Dy1_5 Pd1_5 2.974529 1_555
Dy1_5 In0_2 3.392137 1_656
Dy1_5 In1_4 3.392137 1_556
Dy1_5 In0_3 3.392137 1_655
Dy1_5 In1_5 3.392137 1_555
Dy1_6 Pd3_6 2.837795 1_555
Dy1_6 Pd3_7 2.837795 1_555
Dy1_6 Pd1_6 2.974529 1_555
Dy1_6 Pd1_7 2.974529 1_555
Dy1_6 Pd2_2 2.974529 1_655
Dy1_6 Pd2_3 2.974529 1_655
Dy1_6 In1_6 3.392137 1_555
Dy1_6 In0_0 3.392137 1_665
Dy1_6 In1_7 3.392137 1_555
Dy1_6 In0_1 3.392137 1_665
Dy1_7 Pd3_6 2.837795 1_556
Dy1_7 Pd3_7 2.837795 1_555
Dy1_7 Pd1_6 2.974529 1_556
Dy1_7 Pd2_2 2.974529 1_656
Dy1_7 Pd1_7 2.974529 1_555
Dy1_7 Pd2_3 2.974529 1_655
Dy1_7 In0_0 3.392137 1_666
Dy1_7 In1_6 3.392137 1_556
Dy1_7 In1_7 3.392137 1_555
Dy1_7 In0_1 3.392137 1_665
Dy2_0 Pd0_0 2.837795 1_555
Dy2_0 Pd0_1 2.837795 1_555
Dy2_0 Pd1_4 2.974529 1_455
Dy2_0 Pd1_5 2.974529 1_455
Dy2_0 Pd2_0 2.974529 1_555
Dy2_0 Pd2_1 2.974529 1_555
Dy2_0 In1_0 3.392137 1_555
Dy2_0 In0_1 3.392137 1_555
Dy2_0 In0_0 3.392137 1_555
Dy2_0 In1_1 3.392137 1_555
Dy2_1 Pd0_0 2.837795 1_556
Dy2_1 Pd0_1 2.837795 1_555
Dy2_1 Pd1_4 2.974529 1_456
Dy2_1 Pd2_0 2.974529 1_556
Dy2_1 Pd1_5 2.974529 1_455
Dy2_1 Pd2_1 2.974529 1_555
Dy2_1 In0_0 3.392137 1_556
Dy2_1 In1_0 3.392137 1_556
Dy2_1 In0_1 3.392137 1_555
Dy2_1 In1_1 3.392137 1_555
Dy2_2 Pd0_3 2.837795 1_555
Dy2_2 Pd0_2 2.837795 1_555
Dy2_2 Pd1_7 2.974529 1_455
Dy2_2 Pd1_6 2.974529 1_455
Dy2_2 Pd2_2 2.974529 1_555
Dy2_2 Pd2_3 2.974529 1_555
Dy2_2 In1_3 3.392137 1_555
Dy2_2 In1_2 3.392137 1_555
Dy2_2 In0_2 3.392137 1_555
Dy2_2 In0_3 3.392137 1_555
Dy2_3 Pd0_2 2.837795 1_556
Dy2_3 Pd0_3 2.837795 1_555
Dy2_3 Pd1_6 2.974529 1_456
Dy2_3 Pd2_2 2.974529 1_556
Dy2_3 Pd1_7 2.974529 1_455
Dy2_3 Pd2_3 2.974529 1_555
Dy2_3 In1_2 3.392137 1_556
Dy2_3 In0_2 3.392137 1_556
Dy2_3 In1_3 3.392137 1_555
Dy2_3 In0_3 3.392137 1_555
Dy2_4 Pd0_4 2.837795 1_555
Dy2_4 Pd0_5 2.837795 1_555
Dy2_4 Pd2_4 2.974529 1_555
Dy2_4 Pd2_5 2.974529 1_555
Dy2_4 Pd1_0 2.974529 1_555
Dy2_4 Pd1_1 2.974529 1_555
Dy2_4 In0_5 3.392137 1_555
Dy2_4 In0_4 3.392137 1_555
Dy2_4 In1_5 3.392137 1_555
Dy2_4 In1_4 3.392137 1_555
Dy2_5 Pd0_4 2.837795 1_556
Dy2_5 Pd0_5 2.837795 1_555
Dy2_5 Pd2_4 2.974529 1_556
Dy2_5 Pd1_0 2.974529 1_556
Dy2_5 Pd2_5 2.974529 1_555
Dy2_5 Pd1_1 2.974529 1_555
Dy2_5 In0_4 3.392137 1_556
Dy2_5 In1_4 3.392137 1_556
Dy2_5 In0_5 3.392137 1_555
Dy2_5 In1_5 3.392137 1_555
Dy2_6 Pd0_7 2.837795 1_555
Dy2_6 Pd0_6 2.837795 1_555
Dy2_6 Pd1_3 2.974529 1_555
Dy2_6 Pd2_6 2.974529 1_555
Dy2_6 Pd2_7 2.974529 1_555
Dy2_6 Pd1_2 2.974529 1_555
Dy2_6 In1_6 3.392137 1_555
Dy2_6 In1_7 3.392137 1_555
Dy2_6 In0_6 3.392137 1_555
Dy2_6 In0_7 3.392137 1_555
Dy2_7 Pd0_6 2.837795 1_556
Dy2_7 Pd0_7 2.837795 1_555
Dy2_7 Pd1_2 2.974529 1_556
Dy2_7 Pd2_6 2.974529 1_556
Dy2_7 Pd2_7 2.974529 1_555
Dy2_7 Pd1_3 2.974529 1_555
Dy2_7 In0_6 3.392137 1_556
Dy2_7 In1_6 3.392137 1_556
Dy2_7 In0_7 3.392137 1_555
Dy2_7 In1_7 3.392137 1_555
Dy3_0 Pd1_0 2.837795 1_555
Dy3_0 Pd1_1 2.837795 1_555
Dy3_0 Pd3_3 2.974529 1_545
Dy3_0 Pd3_2 2.974529 1_545
Dy3_0 Pd0_0 2.974529 1_555
Dy3_0 Pd0_1 2.974529 1_555
Dy3_0 In0_4 3.392137 1_555
Dy3_0 In0_5 3.392137 1_555
Dy3_0 In1_0 3.392137 1_555
Dy3_0 In1_1 3.392137 1_555
Dy3_1 Pd1_0 2.837795 1_556
Dy3_1 Pd1_1 2.837795 1_555
Dy3_1 Pd3_2 2.974529 1_546
Dy3_1 Pd0_0 2.974529 1_556
Dy3_1 Pd3_3 2.974529 1_545
Dy3_1 Pd0_1 2.974529 1_555
Dy3_1 In0_4 3.392137 1_556
Dy3_1 In1_0 3.392137 1_556
Dy3_1 In0_5 3.392137 1_555
Dy3_1 In1_1 3.392137 1_555
Dy3_2 Pd1_2 2.837795 1_555
Dy3_2 Pd1_3 2.837795 1_555
Dy3_2 Pd3_0 2.974529 1_555
Dy3_2 Pd0_2 2.974529 1_555
Dy3_2 Pd3_1 2.974529 1_555
Dy3_2 Pd0_3 2.974529 1_555
Dy3_2 In0_7 3.392137 1_555
Dy3_2 In0_6 3.392137 1_555
Dy3_2 In1_2 3.392137 1_555
Dy3_2 In1_3 3.392137 1_555
Dy3_3 Pd1_2 2.837795 1_556
Dy3_3 Pd1_3 2.837795 1_555
Dy3_3 Pd3_0 2.974529 1_556
Dy3_3 Pd0_2 2.974529 1_556
Dy3_3 Pd3_1 2.974529 1_555
Dy3_3 Pd0_3 2.974529 1_555
Dy3_3 In0_6 3.392137 1_556
Dy3_3 In1_2 3.392137 1_556
Dy3_3 In0_7 3.392137 1_555
Dy3_3 In1_3 3.392137 1_555
Dy3_4 Pd1_4 2.837795 1_555
Dy3_4 Pd1_5 2.837795 1_555
Dy3_4 Pd3_7 2.974529 1_545
Dy3_4 Pd3_6 2.974529 1_545
Dy3_4 Pd0_4 2.974529 1_555
Dy3_4 Pd0_5 2.974529 1_555
Dy3_4 In1_4 3.392137 1_555
Dy3_4 In1_5 3.392137 1_555
Dy3_4 In0_0 3.392137 1_655
Dy3_4 In0_1 3.392137 1_655
Dy3_5 Pd1_4 2.837795 1_556
Dy3_5 Pd1_5 2.837795 1_555
Dy3_5 Pd0_4 2.974529 1_556
Dy3_5 Pd3_6 2.974529 1_546
Dy3_5 Pd3_7 2.974529 1_545
Dy3_5 Pd0_5 2.974529 1_555
Dy3_5 In1_4 3.392137 1_556
Dy3_5 In0_0 3.392137 1_656
Dy3_5 In1_5 3.392137 1_555
Dy3_5 In0_1 3.392137 1_655
Dy3_6 Pd1_6 2.837795 1_555
Dy3_6 Pd1_7 2.837795 1_555
Dy3_6 Pd0_6 2.974529 1_555
Dy3_6 Pd0_7 2.974529 1_555
Dy3_6 Pd3_4 2.974529 1_555
Dy3_6 Pd3_5 2.974529 1_555
Dy3_6 In1_6 3.392137 1_555
Dy3_6 In1_7 3.392137 1_555
Dy3_6 In0_2 3.392137 1_655
Dy3_6 In0_3 3.392137 1_655
Dy3_7 Pd1_6 2.837795 1_556
Dy3_7 Pd1_7 2.837795 1_555
Dy3_7 Pd0_6 2.974529 1_556
Dy3_7 Pd3_4 2.974529 1_556
Dy3_7 Pd0_7 2.974529 1_555
Dy3_7 Pd3_5 2.974529 1_555
Dy3_7 In1_6 3.392137 1_556
Dy3_7 In0_2 3.392137 1_656
Dy3_7 In0_3 3.392137 1_655
Dy3_7 In1_7 3.392137 1_555
In0_0 Pd3_6 3.044622 1_445
In0_0 Pd1_4 3.044622 1_455
In0_0 Pd2_2 3.044622 1_545
In0_0 Pd0_0 3.044622 1_555
In0_0 In0_1 3.634986 1_555
In0_0 In0_1 3.634986 1_554
In0_1 Pd3_7 3.044622 1_445
In0_1 Pd1_5 3.044622 1_455
In0_1 Pd2_3 3.044622 1_545
In0_1 Pd0_1 3.044622 1_555
In0_2 Pd3_4 3.044622 1_455
In0_2 Pd0_2 3.044622 1_555
In0_2 Pd2_0 3.044622 1_555
In0_2 Pd1_6 3.044622 1_455
In0_2 In0_3 3.634986 1_554
In0_2 In0_3 3.634986 1_555
In0_3 Pd3_5 3.044622 1_455
In0_3 Pd0_3 3.044622 1_555
In0_3 Pd2_1 3.044622 1_555
In0_3 Pd1_7 3.044622 1_455
In0_4 Pd2_6 3.044622 1_545
In0_4 Pd3_2 3.044622 1_545
In0_4 Pd1_0 3.044622 1_555
In0_4 Pd0_4 3.044622 1_555
In0_4 In0_5 3.634986 1_555
In0_4 In0_5 3.634986 1_554
In0_5 Pd2_7 3.044622 1_545
In0_5 Pd3_3 3.044622 1_545
In0_5 Pd1_1 3.044622 1_555
In0_5 Pd0_5 3.044622 1_555
In0_6 Pd2_4 3.044622 1_555
In0_6 Pd3_0 3.044622 1_555
In0_6 Pd0_6 3.044622 1_555
In0_6 Pd1_2 3.044622 1_555
In0_6 In0_7 3.634986 1_554
In0_6 In0_7 3.634986 1_555
In0_7 Pd2_5 3.044622 1_555
In0_7 Pd3_1 3.044622 1_555
In0_7 Pd0_7 3.044622 1_555
In0_7 Pd1_3 3.044622 1_555
In1_0 Pd1_0 3.044622 1_555
In1_0 Pd3_0 3.044622 1_555
In1_0 Pd2_0 3.044622 1_555
In1_0 Pd0_0 3.044622 1_555
In1_0 In1_1 3.634986 1_554
In1_0 In1_1 3.634986 1_555
In1_1 Pd1_1 3.044622 1_555
In1_1 Pd3_1 3.044622 1_555
In1_1 Pd0_1 3.044622 1_555
In1_1 Pd2_1 3.044622 1_555
In1_2 Pd1_2 3.044622 1_555
In1_2 Pd2_2 3.044622 1_555
In1_2 Pd3_2 3.044622 1_555
In1_2 Pd0_2 3.044622 1_555
In1_2 In1_3 3.634986 1_555
In1_2 In1_3 3.634986 1_554
In1_3 Pd1_3 3.044622 1_555
In1_3 Pd2_3 3.044622 1_555
In1_3 Pd0_3 3.044622 1_555
In1_3 Pd3_3 3.044622 1_555
In1_4 Pd0_4 3.044622 1_555
In1_4 Pd3_4 3.044622 1_555
In1_4 Pd2_4 3.044622 1_555
In1_4 Pd1_4 3.044622 1_555
In1_4 In1_5 3.634986 1_554
In1_4 In1_5 3.634986 1_555
In1_5 Pd0_5 3.044622 1_555
In1_5 Pd3_5 3.044622 1_555
In1_5 Pd1_5 3.044622 1_555
In1_5 Pd2_5 3.044622 1_555
In1_6 Pd1_6 3.044622 1_555
In1_6 Pd0_6 3.044622 1_555
In1_6 Pd2_6 3.044622 1_555
In1_6 Pd3_6 3.044622 1_555
In1_6 In1_7 3.634986 1_554
In1_6 In1_7 3.634986 1_555
In1_7 Pd1_7 3.044622 1_555
In1_7 Pd0_7 3.044622 1_555
In1_7 Pd3_7 3.044622 1_555
In1_7 Pd2_7 3.044622 1_555
Pd0_0 Pd3_2 2.804569 1_545
Pd0_1 Pd3_3 2.804569 1_545
Pd0_2 Pd3_0 2.804569 1_555
Pd0_3 Pd3_1 2.804569 1_555
Pd0_4 Pd3_6 2.804569 1_545
Pd0_5 Pd3_7 2.804569 1_545
Pd0_6 Pd3_4 2.804569 1_555
Pd0_7 Pd3_5 2.804569 1_555
Pd1_0 Pd2_4 2.804569 1_555
Pd1_1 Pd2_5 2.804569 1_555
Pd1_2 Pd2_6 2.804569 1_555
Pd1_3 Pd2_7 2.804569 1_555
Pd1_4 Pd2_0 2.804569 1_655
Pd1_5 Pd2_1 2.804569 1_655
Pd1_6 Pd2_2 2.804569 1_655
Pd1_7 Pd2_3 2.804569 1_655
