# generated using pymatgen
data_Mg9Sn5
_symmetry_space_group_name_H-M   'P 1'
_cell_length_a   8.88839894
_cell_length_b   8.88839894
_cell_length_c   8.88839933
_cell_angle_alpha   96.87517038
_cell_angle_beta   96.87517037
_cell_angle_gamma   96.87516981
_symmetry_Int_Tables_number   1
_chemical_formula_structural   Mg9Sn5
_chemical_formula_sum   'Mg18 Sn10'
_cell_volume   685.72386640
_cell_formula_units_Z   2
loop_
 _symmetry_equiv_pos_site_id
 _symmetry_equiv_pos_as_xyz
  1  'x, y, z'
loop_
 _atom_site_type_symbol
 _atom_site_label
 _atom_site_symmetry_multiplicity
 _atom_site_fract_x
 _atom_site_fract_y
 _atom_site_fract_z
 _atom_site_occupancy
  Mg  Mg0  1  0.75179727  0.34888797  0.65984475  1
  Mg  Mg1  1  0.34888797  0.65984475  0.75179727  1
  Mg  Mg2  1  0.65984475  0.75179727  0.34888797  1
  Mg  Mg3  1  0.25683155  0.66150174  0.34947647  1
  Mg  Mg4  1  0.66150174  0.34947647  0.25683155  1
  Mg  Mg5  1  0.34947647  0.25683155  0.66150174  1
  Mg  Mg6  1  0.60633555  0.97913468  0.67614095  1
  Mg  Mg7  1  0.97913468  0.67614095  0.60633555  1
  Mg  Mg8  1  0.67614095  0.60633555  0.97913468  1
  Mg  Mg9  1  0.40378993  0.03113602  0.33436098  1
  Mg  Mg10  1  0.08228840  0.68033305  0.99863041  1
  Mg  Mg11  1  0.99863041  0.08228840  0.68033305  1
  Mg  Mg12  1  0.68033305  0.99863041  0.08228840  1
  Mg  Mg13  1  0.92765665  0.32763295  0.01029331  1
  Mg  Mg14  1  0.01029331  0.92765665  0.32763295  1
  Mg  Mg15  1  0.32763295  0.01029331  0.92765665  1
  Mg  Mg16  1  0.33436098  0.40378993  0.03113602  1
  Mg  Mg17  1  0.03113602  0.33436098  0.40378993  1
  Sn  Sn0  1  0.13871270  0.13871270  0.13871270  1
  Sn  Sn1  1  0.87453053  0.87453053  0.87453053  1
  Sn  Sn2  1  0.37485469  0.37485469  0.37485469  1
  Sn  Sn3  1  0.63833921  0.63833921  0.63833921  1
  Sn  Sn4  1  0.59302939  0.25451959  0.91715281  1
  Sn  Sn5  1  0.25451959  0.91715281  0.59302939  1
  Sn  Sn6  1  0.91715281  0.59302939  0.25451959  1
  Sn  Sn7  1  0.41655319  0.75461112  0.09262616  1
  Sn  Sn8  1  0.75461112  0.09262616  0.41655319  1
  Sn  Sn9  1  0.09262616  0.41655319  0.75461112  1
loop_
_geom_bond_atom_site_label_1
_geom_bond_atom_site_label_2
_geom_bond_distance
_geom_bond_site_symmetry_2
Mg0 Sn3 2.892294 1_555
Mg0 Sn8 2.951682 1_555
Mg0 Sn4 2.978966 1_555
Mg0 Sn9 3.013339 1_655
Mg0 Mg13 3.350771 1_556
Mg0 Mg6 3.411055 1_545
Mg0 Mg11 3.422592 1_555
Mg0 Mg7 3.453154 1_555
Mg0 Mg17 3.566569 1_655
Mg0 Mg5 3.573847 1_555
Mg0 Mg4 3.576744 1_555
Mg0 Mg8 3.607375 1_555
Mg1 Sn3 2.892294 1_555
Mg1 Sn9 2.951682 1_555
Mg1 Sn5 2.978966 1_555
Mg1 Sn7 3.013339 1_556
Mg1 Mg15 3.350771 1_565
Mg1 Mg7 3.411055 1_455
Mg1 Mg10 3.422592 1_555
Mg1 Mg8 3.453154 1_555
Mg1 Mg16 3.566569 1_556
Mg1 Mg3 3.573848 1_555
Mg1 Mg5 3.576744 1_555
Mg1 Mg6 3.607375 1_555
Mg2 Sn3 2.892294 1_555
Mg2 Sn7 2.951682 1_555
Mg2 Sn6 2.978966 1_555
Mg2 Sn8 3.013339 1_565
Mg2 Mg8 3.411055 1_554
Mg2 Mg6 3.453154 1_555
Mg2 Mg9 3.566569 1_565
Mg2 Mg4 3.573847 1_555
Mg2 Mg3 3.576744 1_555
Mg2 Mg7 3.607375 1_555
Mg3 Sn2 2.891998 1_555
Mg3 Sn5 2.948621 1_555
Mg3 Sn7 2.976478 1_555
Mg3 Sn6 3.004221 1_455
Mg3 Mg9 3.411560 1_565
Mg3 Mg7 3.560429 1_455
Mg4 Sn2 2.891998 1_555
Mg4 Sn6 2.948621 1_555
Mg4 Sn8 2.976478 1_555
Mg4 Sn4 3.004221 1_554
Mg4 Mg8 3.560429 1_554
Mg4 Mg9 3.608491 1_555
Mg5 Sn2 2.891998 1_555
Mg5 Sn4 2.948621 1_555
Mg5 Sn9 2.976478 1_555
Mg5 Sn5 3.004221 1_545
Mg5 Mg9 3.447294 1_555
Mg5 Mg6 3.560429 1_545
Mg6 Sn8 3.007530 1_565
Mg6 Sn3 3.058582 1_555
Mg6 Sn4 3.077179 1_565
Mg6 Sn5 3.092720 1_555
Mg6 Sn1 3.094076 1_555
Mg6 Mg9 3.451007 1_565
Mg7 Sn9 3.007530 1_655
Mg7 Sn3 3.058582 1_555
Mg7 Sn5 3.077178 1_655
Mg7 Sn6 3.092720 1_555
Mg7 Sn1 3.094076 1_555
Mg8 Sn7 3.007530 1_556
Mg8 Sn3 3.058582 1_555
Mg8 Sn6 3.077179 1_556
Mg8 Sn4 3.092720 1_555
Mg8 Sn1 3.094076 1_555
Mg9 Sn5 3.006495 1_545
Mg9 Sn0 3.073467 1_555
Mg9 Sn2 3.078376 1_555
Mg9 Sn8 3.083314 1_555
Mg9 Sn7 3.087290 1_545
Mg10 Sn1 2.887475 1_455
Mg10 Sn7 2.960615 1_556
Mg10 Sn6 2.979730 1_456
Mg10 Sn9 3.015231 1_555
Mg10 Mg13 3.287551 1_456
Mg10 Mg3 3.344926 1_556
Mg10 Mg7 3.492225 1_455
Mg10 Mg16 3.532543 1_556
Mg10 Mg8 3.570605 1_455
Mg10 Mg15 3.605001 1_565
Mg10 Mg14 3.611007 1_556
Mg11 Sn1 2.887475 1_545
Mg11 Sn9 2.960615 1_655
Mg11 Sn5 2.979730 1_645
Mg11 Sn8 3.015231 1_555
Mg11 Mg14 3.287551 1_645
Mg11 Mg5 3.344926 1_655
Mg11 Mg6 3.492225 1_545
Mg11 Mg17 3.532543 1_655
Mg11 Mg7 3.570605 1_545
Mg11 Mg13 3.605001 1_556
Mg11 Mg15 3.611007 1_655
Mg12 Sn1 2.887475 1_554
Mg12 Sn8 2.960615 1_565
Mg12 Sn4 2.979730 1_564
Mg12 Sn7 3.015231 1_555
Mg12 Mg15 3.287551 1_564
Mg12 Mg4 3.344926 1_565
Mg12 Mg2 3.422592 1_555
Mg12 Mg8 3.492225 1_554
Mg12 Mg9 3.532543 1_565
Mg12 Mg6 3.570605 1_554
Mg12 Mg14 3.605001 1_655
Mg12 Mg13 3.611007 1_565
Mg13 Sn0 2.888286 1_655
Mg13 Sn4 2.961938 1_554
Mg13 Sn9 2.981587 1_654
Mg13 Sn6 3.026701 1_555
Mg13 Mg4 3.418383 1_555
Mg13 Mg17 3.499860 1_655
Mg13 Mg8 3.543021 1_554
Mg13 Mg16 3.575499 1_655
Mg14 Sn0 2.888286 1_565
Mg14 Sn6 2.961938 1_455
Mg14 Sn8 2.981587 1_465
Mg14 Sn5 3.026701 1_555
Mg14 Mg2 3.350771 1_455
Mg14 Mg3 3.418383 1_555
Mg14 Mg9 3.499859 1_565
Mg14 Mg7 3.543021 1_455
Mg14 Mg17 3.575499 1_565
Mg15 Sn0 2.888286 1_556
Mg15 Sn5 2.961938 1_545
Mg15 Sn7 2.981587 1_546
Mg15 Sn4 3.026701 1_555
Mg15 Mg5 3.418383 1_555
Mg15 Mg16 3.499859 1_556
Mg15 Mg6 3.543021 1_545
Mg15 Mg9 3.575499 1_556
Mg16 Sn4 3.006495 1_554
Mg16 Sn0 3.073467 1_555
Mg16 Sn2 3.078376 1_555
Mg16 Sn7 3.083314 1_555
Mg16 Sn9 3.087290 1_554
Mg16 Mg5 3.411560 1_554
Mg16 Mg4 3.447294 1_555
Mg16 Mg8 3.451006 1_554
Mg16 Mg3 3.608491 1_555
Mg17 Sn6 3.006495 1_455
Mg17 Sn0 3.073467 1_555
Mg17 Sn2 3.078376 1_555
Mg17 Sn9 3.083314 1_555
Mg17 Sn8 3.087290 1_455
Mg17 Mg4 3.411560 1_455
Mg17 Mg3 3.447294 1_555
Mg17 Mg7 3.451006 1_455
Mg17 Mg5 3.608491 1_555
Sn0 Sn2 3.170529 1_555
Sn0 Sn1 3.547007 1_444
Sn1 Sn3 3.171192 1_555
Sn2 Sn3 3.537640 1_555
