# generated using pymatgen
data_Na7Zr3Ta(SiO4)6
_symmetry_space_group_name_H-M   'P 1'
_cell_length_a   9.24428271
_cell_length_b   9.23769290
_cell_length_c   22.78382584
_cell_angle_alpha   90.01991238
_cell_angle_beta   89.95215059
_cell_angle_gamma   120.01966512
_symmetry_Int_Tables_number   1
_chemical_formula_structural   Na7Zr3Ta(SiO4)6
_chemical_formula_sum   'Na21 Zr9 Ta3 Si18 O72'
_cell_volume   1684.64259155
_cell_formula_units_Z   3
loop_
 _symmetry_equiv_pos_site_id
 _symmetry_equiv_pos_as_xyz
  1  'x, y, z'
loop_
 _atom_site_type_symbol
 _atom_site_label
 _atom_site_symmetry_multiplicity
 _atom_site_fract_x
 _atom_site_fract_y
 _atom_site_fract_z
 _atom_site_occupancy
  Na  Na0  1  0.37206636  0.36545943  0.24838816  1
  Na  Na1  1  0.64125033  0.63617147  0.74998138  1
  Na  Na2  1  0.99459628  0.36042351  0.74968978  1
  Na  Na3  1  0.36433147  0.00440012  0.74957193  1
  Na  Na4  1  0.29932164  0.33330856  0.58224655  1
  Na  Na5  1  0.03380848  0.70032115  0.58198943  1
  Na  Na6  1  0.66651694  0.96600267  0.58199023  1
  Na  Na7  1  0.30984614  0.97160877  0.08353549  1
  Na  Na8  1  0.66196964  0.69243145  0.08361642  1
  Na  Na9  1  0.02937257  0.33799265  0.08267540  1
  Na  Na10  1  0.96043855  0.66635273  0.91852498  1
  Na  Na11  1  0.70723241  0.03641679  0.91890089  1
  Na  Na12  1  0.96510703  0.29496888  0.41385807  1
  Na  Na13  1  0.33058960  0.03699262  0.41421792  1
  Na  Na14  1  0.70449489  0.66820690  0.41352785  1
  Na  Na15  1  0.00033918  0.00030205  0.49853984  1
  Na  Na16  1  0.01350416  0.01296811  0.99770236  1
  Na  Na17  1  0.65604103  0.33252922  0.83647136  1
  Na  Na18  1  0.67813628  0.33313587  0.32773457  1
  Na  Na19  1  0.33264819  0.67697626  0.16798041  1
  Na  Na20  1  0.33322626  0.66681456  0.66410772  1
  Zr  Zr0  1  0.99799515  0.99851773  0.35013664  1
  Zr  Zr1  1  0.00576957  0.00532119  0.85356985  1
  Zr  Zr2  1  0.00031210  0.00040026  0.64865616  1
  Zr  Zr3  1  0.66711406  0.33359139  0.68515693  1
  Zr  Zr4  1  0.67220532  0.33294032  0.18780532  1
  Zr  Zr5  1  0.66053794  0.33283925  0.98029189  1
  Zr  Zr6  1  0.66649520  0.33334972  0.47887421  1
  Zr  Zr7  1  0.33316029  0.66441962  0.01917163  1
  Zr  Zr8  1  0.33329964  0.66674252  0.51789510  1
  Ta  Ta0  1  0.99810042  0.99813433  0.15002459  1
  Ta  Ta1  1  0.33354909  0.67026507  0.31001163  1
  Ta  Ta2  1  0.33332853  0.66503199  0.81549498  1
  Si  Si0  1  0.29132139  0.99483942  0.25045378  1
  Si  Si1  1  0.70282085  0.70702838  0.25098576  1
  Si  Si2  1  0.00265156  0.29670312  0.25125379  1
  Si  Si3  1  0.29551419  0.29988115  0.74941944  1
  Si  Si4  1  0.00422867  0.70508333  0.75159354  1
  Si  Si5  1  0.70024239  0.99526133  0.75132188  1
  Si  Si6  1  0.96102947  0.33214266  0.58285784  1
  Si  Si7  1  0.37129961  0.03885288  0.58301901  1
  Si  Si8  1  0.66767256  0.62883661  0.58292809  1
  Si  Si9  1  0.95926664  0.63165382  0.08268518  1
  Si  Si10  1  0.67176601  0.04155221  0.08276633  1
  Si  Si11  1  0.36883949  0.32774074  0.08650440  1
  Si  Si12  1  0.62445474  0.66379472  0.91631624  1
  Si  Si13  1  0.04022982  0.37353035  0.91724982  1
  Si  Si14  1  0.33437909  0.95908166  0.91682901  1
  Si  Si15  1  0.62306968  0.95616914  0.41548338  1
  Si  Si16  1  0.33326672  0.37670136  0.41440720  1
  Si  Si17  1  0.04379450  0.66606850  0.41523490  1
  O  O0  1  0.20563516  0.02313193  0.30905358  1
  O  O1  1  0.81125202  0.79232805  0.31031496  1
  O  O2  1  0.98303526  0.18912779  0.31064060  1
  O  O3  1  0.20139782  0.17046302  0.80320172  1
  O  O4  1  0.96915685  0.79204728  0.80792760  1
  O  O5  1  0.82193341  0.02821061  0.80752504  1
  O  O6  1  0.78626978  0.96291438  0.69310539  1
  O  O7  1  0.17995102  0.21903296  0.69039881  1
  O  O8  1  0.03818162  0.82424497  0.69346204  1
  O  O9  1  0.80602431  0.82872666  0.19368876  1
  O  O10  1  0.02650763  0.19288920  0.19488905  1
  O  O11  1  0.16832947  0.97459903  0.19329791  1
  O  O12  1  0.87251456  0.35825565  0.64143044  1
  O  O13  1  0.48594617  0.12786727  0.64150201  1
  O  O14  1  0.64205502  0.51406551  0.64139500  1
  O  O15  1  0.86537362  0.50320268  0.13640157  1
  O  O16  1  0.63303897  0.13293161  0.13638830  1
  O  O17  1  0.48641099  0.36460956  0.14372603  1
  O  O18  1  0.45959589  0.29282454  0.03015856  1
  O  O19  1  0.84446862  0.55093209  0.02318948  1
  O  O20  1  0.70868862  0.15694182  0.02315562  1
  O  O21  1  0.46109480  0.15549668  0.52509099  1
  O  O22  1  0.69455510  0.53903079  0.52500083  1
  O  O23  1  0.84429474  0.30561101  0.52504167  1
  O  O24  1  0.53842233  0.69050457  0.97481160  1
  O  O25  1  0.14618555  0.46166364  0.97658939  1
  O  O26  1  0.31078531  0.84756727  0.97546212  1
  O  O27  1  0.54183560  0.84821032  0.47607382  1
  O  O28  1  0.30649971  0.46082758  0.47430992  1
  O  O29  1  0.15253769  0.69436209  0.47575244  1
  O  O30  1  0.14788898  0.64362063  0.36007781  1
  O  O31  1  0.49740786  0.85040700  0.36035518  1
  O  O32  1  0.35544559  0.49771745  0.35747813  1
  O  O33  1  0.14469449  0.49418166  0.85959944  1
  O  O34  1  0.35144125  0.85478839  0.85918917  1
  O  O35  1  0.50732277  0.64997750  0.85819688  1
  O  O36  1  0.02203624  0.83141129  0.41195766  1
  O  O37  1  0.81032129  0.97846469  0.41259622  1
  O  O38  1  0.16844221  0.18856872  0.41269428  1
  O  O39  1  0.01017332  0.18424144  0.91262177  1
  O  O40  1  0.16339529  0.96841126  0.91173358  1
  O  O41  1  0.80869495  0.83300618  0.91171052  1
  O  O42  1  0.97648768  0.16290347  0.58719897  1
  O  O43  1  0.18610950  0.02196944  0.58748754  1
  O  O44  1  0.83640923  0.81373101  0.58763528  1
  O  O45  1  0.97541766  0.81841345  0.09188384  1
  O  O46  1  0.84180923  0.02512839  0.09288670  1
  O  O47  1  0.18031804  0.15779564  0.09214679  1
  O  O48  1  0.67795442  0.16013230  0.74609582  1
  O  O49  1  0.48271556  0.32279205  0.74586947  1
  O  O50  1  0.83981460  0.51794145  0.74591299  1
  O  O51  1  0.67318511  0.51866607  0.24582244  1
  O  O52  1  0.84127001  0.31897807  0.24518630  1
  O  O53  1  0.47112942  0.16455031  0.24448970  1
  O  O54  1  0.64651222  0.49938845  0.91810682  1
  O  O55  1  0.85957460  0.36675999  0.91760211  1
  O  O56  1  0.50936867  0.13708144  0.91850107  1
  O  O57  1  0.63531170  0.13955299  0.41772625  1
  O  O58  1  0.50403720  0.36372765  0.41804338  1
  O  O59  1  0.86023926  0.49523032  0.41791982  1
  O  O60  1  0.34500471  0.49159223  0.07905311  1
  O  O61  1  0.14838706  0.65723344  0.07933552  1
  O  O62  1  0.50862867  0.85222649  0.07866634  1
  O  O63  1  0.35281335  0.85297739  0.58025507  1
  O  O64  1  0.50005780  0.64674706  0.58007409  1
  O  O65  1  0.14689585  0.49935555  0.57990581  1
  O  O66  1  0.30564420  0.82483804  0.25636597  1
  O  O67  1  0.51620763  0.69138454  0.25555773  1
  O  O68  1  0.18079592  0.47724118  0.25528942  1
  O  O69  1  0.31225418  0.48572622  0.75781802  1
  O  O70  1  0.17309145  0.68622215  0.75811198  1
  O  O71  1  0.51272811  0.82597089  0.75753947  1
loop_
_geom_bond_atom_site_label_1
_geom_bond_atom_site_label_2
_geom_bond_distance
_geom_bond_site_symmetry_2
Na0 O51 2.410984 1_555
Na0 O53 2.447731 1_555
Na0 O68 2.458393 1_555
Na0 O17 2.609176 1_555
Na0 O67 2.617802 1_555
Na0 O32 2.806961 1_555
Na0 O10 3.023448 1_555
Na0 O0 3.067417 1_555
Na1 O49 2.508380 1_555
Na1 O50 2.564452 1_555
Na1 O71 2.568872 1_555
Na1 O69 2.642546 1_555
Na1 O14 2.720212 1_555
Na1 O35 2.789399 1_555
Na1 O6 2.921967 1_555
Na1 O4 2.939886 1_555
Na2 O50 2.501120 1_555
Na2 O48 2.565023 1_555
Na2 O69 2.568455 1_655
Na2 O70 2.616962 1_655
Na2 O12 2.709238 1_555
Na2 O33 2.830376 1_655
Na2 O7 2.949754 1_655
Na2 O5 2.966491 1_555
Na3 O48 2.511516 1_555
Na3 O70 2.569603 1_545
Na3 O49 2.575809 1_555
Na3 O71 2.625787 1_545
Na3 O13 2.709565 1_555
Na3 O34 2.828238 1_545
Na3 O3 2.902157 1_555
Na3 O8 2.911804 1_545
Na4 O43 2.523789 1_555
Na4 O64 2.540341 1_555
Na4 O65 2.550286 1_555
Na4 O42 2.587675 1_455
Na4 O7 2.689918 1_555
Na4 O28 2.713537 1_555
Na4 O21 3.013872 1_555
Na4 O14 3.058523 1_555
Na5 O44 2.521203 1_455
Na5 O65 2.546242 1_555
Na5 O63 2.554484 1_555
Na5 O43 2.576955 1_565
Na5 O29 2.668774 1_555
Na5 O8 2.777485 1_555
Na5 O22 3.011855 1_455
Na5 O12 3.054099 1_455
Na6 O42 2.513697 1_565
Na6 O63 2.544016 1_555
Na6 O64 2.554726 1_555
Na6 O44 2.583156 1_555
Na6 O27 2.661548 1_555
Na6 O6 2.769802 1_555
Na6 O23 3.011118 1_565
Na6 O13 3.058251 1_565
Na7 O61 2.516670 1_555
Na7 O47 2.547640 1_565
Na7 O62 2.575385 1_555
Na7 O45 2.686654 1_455
Na7 O26 2.717364 1_554
Na7 O11 2.827877 1_555
Na7 O18 2.844242 1_565
Na7 O16 2.854277 1_565
Na8 O62 2.509019 1_555
Na8 O45 2.532300 1_555
Na8 O60 2.568932 1_555
Na8 O46 2.672388 1_565
Na8 O24 2.726623 1_554
Na8 O9 2.823779 1_555
Na8 O19 2.941369 1_555
Na8 O17 2.960019 1_555
Na9 O60 2.527996 1_555
Na9 O46 2.529636 1_455
Na9 O61 2.581987 1_555
Na9 O25 2.660171 1_554
Na9 O47 2.662604 1_555
Na9 O10 2.881088 1_555
Na9 O15 2.904597 1_455
Na9 O20 2.910073 1_455
Na10 O55 2.438669 1_555
Na10 O40 2.468089 1_655
Na10 O54 2.514382 1_555
Na10 O41 2.554063 1_555
Na10 O19 2.612756 1_556
Na10 O4 2.759044 1_555
Na10 O26 3.091120 1_655
Na10 O33 3.152563 1_655
Na11 O39 2.429165 1_655
Na11 O56 2.431543 1_555
Na11 O41 2.490064 1_545
Na11 O20 2.620144 1_556
Na11 O55 2.645064 1_555
Na11 O5 2.764976 1_555
Na11 O24 3.046101 1_545
Na11 O34 3.157195 1_545
Na12 O59 2.482917 1_555
Na12 O38 2.519630 1_655
Na12 O37 2.531922 1_545
Na12 O2 2.583360 1_555
Na12 O57 2.642668 1_555
Na12 O23 2.789078 1_555
Na12 O30 3.046903 1_655
Na12 O28 3.061366 1_655
Na13 O57 2.483756 1_555
Na13 O38 2.511735 1_555
Na13 O36 2.514996 1_545
Na13 O58 2.616516 1_555
Na13 O0 2.635932 1_555
Na13 O21 2.777911 1_555
Na13 O29 3.078831 1_545
Na13 O31 3.083825 1_545
Na14 O58 2.477973 1_555
Na14 O37 2.523160 1_555
Na14 O36 2.542188 1_655
Na14 O1 2.585410 1_555
Na14 O59 2.634098 1_555
Na14 O22 2.788346 1_555
Na14 O32 3.073025 1_555
Na14 O27 3.090840 1_555
Na15 O38 2.560878 1_555
Na15 O37 2.571269 1_445
Na15 O36 2.583812 1_545
Na15 O42 2.591084 1_455
Na15 O43 2.599578 1_555
Na15 O44 2.602204 1_445
Na16 O39 2.512533 1_555
Na16 O40 2.547838 1_545
Na16 O47 2.595646 1_556
Na16 O41 2.653569 1_445
Na16 O45 2.706808 1_446
Na16 O46 2.721653 1_456
Na17 O54 2.444735 1_555
Na17 O56 2.477863 1_555
Na17 O55 2.543037 1_555
Na17 O49 2.587993 1_555
Na17 O48 2.671511 1_555
Na17 O50 2.676173 1_555
Na18 O52 2.453783 1_555
Na18 O51 2.550152 1_555
Na18 O53 2.589708 1_555
Na18 O59 2.603750 1_555
Na18 O57 2.617514 1_555
Na18 O58 2.711621 1_555
Na19 O66 2.514292 1_555
Na19 O67 2.580309 1_555
Na19 O61 2.590062 1_555
Na19 O68 2.595812 1_555
Na19 O62 2.601884 1_555
Na19 O60 2.691432 1_555
Na20 O63 2.516007 1_555
Na20 O64 2.521799 1_555
Na20 O65 2.525409 1_555
Na20 O71 2.647491 1_555
Na20 O70 2.659083 1_555
Na20 O69 2.659289 1_555
O0 Si0 1.638123 1_545
O0 Zr0 2.042720 1_445
O1 Si1 1.632199 1_555
O1 Zr0 2.035336 1_555
O2 Si2 1.634442 1_655
O2 Zr0 2.043101 1_545
O3 Si3 1.626725 1_555
O3 Zr1 2.037626 1_555
O4 Si4 1.630051 1_655
O4 Zr1 2.099865 1_665
O5 Si5 1.630157 1_545
O5 Zr1 2.096671 1_655
O6 Si5 1.648268 1_555
O6 Zr2 2.090923 1_665
O7 Si3 1.646413 1_555
O7 Zr2 2.094430 1_555
O8 Si4 1.648948 1_555
O8 Zr2 2.093907 1_565
O9 Si1 1.674512 1_555
O9 Ta0 1.951736 1_555
O10 Si2 1.681602 1_555
O10 Ta0 1.969003 1_445
O11 Si0 1.677218 1_555
O11 Ta0 1.959786 1_455
O12 Si6 1.644414 1_555
O12 Zr3 2.052785 1_555
O13 Si7 1.644522 1_555
O13 Zr3 2.054880 1_555
O14 Si8 1.644344 1_555
O14 Zr3 2.053098 1_555
O15 Si9 1.621085 1_555
O15 Zr4 2.054675 1_555
O16 Si10 1.623037 1_555
O16 Zr4 2.060823 1_555
O17 Si11 1.621310 1_555
O17 Zr4 2.133066 1_555
O18 Si11 1.650659 1_555
O18 Zr5 2.046400 1_554
O19 Si9 1.652157 1_555
O19 Zr5 2.116369 1_554
O20 Si10 1.653331 1_555
O20 Zr5 2.125479 1_554
O21 Si7 1.642016 1_555
O21 Zr6 2.071197 1_555
O22 Si8 1.642210 1_555
O22 Zr6 2.070689 1_555
O23 Si6 1.642348 1_555
O23 Zr6 2.073186 1_555
O24 Si12 1.632165 1_555
O24 Zr7 2.054150 1_556
O25 Si13 1.628991 1_555
O25 Zr7 2.049182 1_556
O26 Si14 1.633707 1_555
O26 Zr7 2.061214 1_556
O27 Si15 1.647456 1_555
O27 Zr8 2.049110 1_555
O28 Si16 1.648934 1_555
O28 Zr8 2.047766 1_555
O29 Si17 1.648988 1_555
O29 Zr8 2.051527 1_555
O30 Si17 1.657019 1_555
O30 Ta1 1.970198 1_555
O31 Si15 1.657575 1_555
O31 Ta1 1.964365 1_555
O32 Si16 1.656911 1_555
O32 Ta1 2.018810 1_555
O33 Si13 1.679880 1_555
O33 Ta2 1.945726 1_555
O34 Si14 1.681826 1_555
O34 Ta2 1.948636 1_555
O35 Si12 1.675170 1_555
O35 Ta2 1.944105 1_555
O36 Si17 1.639038 1_555
O36 Zr0 2.182102 1_455
O37 Si15 1.638970 1_555
O37 Zr0 2.178036 1_555
O38 Si16 1.641318 1_555
O38 Zr0 2.197846 1_445
O39 Si13 1.630853 1_555
O39 Zr1 2.115381 1_555
O40 Si14 1.629691 1_555
O40 Zr1 2.120448 1_565
O41 Si12 1.640463 1_555
O41 Zr1 2.168712 1_665
O42 Si6 1.642568 1_555
O42 Zr2 2.143689 1_655
O43 Si7 1.642565 1_555
O43 Zr2 2.141441 1_555
O44 Si8 1.642022 1_555
O44 Zr2 2.142363 1_665
O45 Si9 1.668739 1_555
O45 Ta0 2.050758 1_555
O46 Si10 1.669252 1_555
O46 Ta0 2.051396 1_545
O47 Si11 1.667477 1_555
O47 Ta0 2.064806 1_445
O48 Si5 1.640242 1_545
O48 Zr3 2.160502 1_555
O49 Si3 1.636891 1_555
O49 Zr3 2.157578 1_555
O50 Si4 1.639058 1_655
O50 Zr3 2.155624 1_555
O51 Si1 1.624665 1_555
O51 Zr4 2.161902 1_555
O52 Si2 1.610780 1_655
O52 Zr4 2.091327 1_555
O53 Si0 1.622189 1_545
O53 Zr4 2.155693 1_555
O54 Si12 1.630864 1_555
O54 Zr5 2.143052 1_555
O55 Si13 1.639646 1_655
O55 Zr5 2.223222 1_555
O56 Si14 1.631122 1_545
O56 Zr5 2.162851 1_555
O57 Si15 1.641135 1_545
O57 Zr6 2.170614 1_555
O58 Si16 1.644050 1_555
O58 Zr6 2.163445 1_555
O59 Si17 1.641339 1_655
O59 Zr6 2.165661 1_555
O60 Si11 1.643875 1_555
O60 Zr7 2.144518 1_555
O61 Si9 1.644562 1_455
O61 Zr7 2.164183 1_555
O62 Si10 1.644029 1_565
O62 Zr7 2.159785 1_555
O63 Si7 1.639452 1_565
O63 Zr8 2.167746 1_555
O64 Si8 1.639871 1_555
O64 Zr8 2.169386 1_555
O65 Si6 1.639201 1_455
O65 Zr8 2.165125 1_555
O66 Si0 1.646246 1_555
O66 Ta1 1.992395 1_555
O67 Si1 1.660718 1_555
O67 Ta1 2.023748 1_555
O68 Si2 1.659486 1_555
O68 Ta1 2.051805 1_555
O69 Si3 1.655865 1_555
O69 Ta2 2.045585 1_555
O70 Si4 1.661846 1_555
O70 Ta2 2.057996 1_555
O71 Si5 1.660661 1_555
O71 Ta2 2.057885 1_555
