# generated using pymatgen
data_NaHf2Zn2PS5O24
_symmetry_space_group_name_H-M   'P 1'
_cell_length_a   8.80232928
_cell_length_b   8.80088312
_cell_length_c   22.78745302
_cell_angle_alpha   90.08394212
_cell_angle_beta   89.87862054
_cell_angle_gamma   120.07475691
_symmetry_Int_Tables_number   1
_chemical_formula_structural   NaHf2Zn2PS5O24
_chemical_formula_sum   'Na3 Hf6 Zn6 P3 S15 O72'
_cell_volume   1527.64208099
_cell_formula_units_Z   3
loop_
 _symmetry_equiv_pos_site_id
 _symmetry_equiv_pos_as_xyz
  1  'x, y, z'
loop_
 _atom_site_type_symbol
 _atom_site_label
 _atom_site_symmetry_multiplicity
 _atom_site_fract_x
 _atom_site_fract_y
 _atom_site_fract_z
 _atom_site_occupancy
  Na  Na0  1  0.66980771  0.33339038  0.82833615  1
  Na  Na1  1  0.66236965  0.33407525  0.33270795  1
  Na  Na2  1  0.33662151  0.66975648  0.16285308  1
  Hf  Hf0  1  0.00200627  0.99399944  0.35558185  1
  Hf  Hf1  1  0.99915670  -0.00000631  0.64238418  1
  Hf  Hf2  1  0.99871357  0.99327326  0.14410476  1
  Hf  Hf3  1  0.67114172  0.33302710  0.97765588  1
  Hf  Hf4  1  0.33907646  0.67243413  0.31340628  1
  Hf  Hf5  1  0.32577498  0.66116273  0.81096024  1
  Zn  Zn0  1  0.00012713  0.00819797  0.85438775  1
  Zn  Zn1  1  0.66666010  0.33288371  0.68021181  1
  Zn  Zn2  1  0.65721394  0.33364044  0.18654301  1
  Zn  Zn3  1  0.66641618  0.33336810  0.48849932  1
  Zn  Zn4  1  0.32797213  0.65896297  0.01338606  1
  Zn  Zn5  1  0.33339507  0.66609113  0.52535405  1
  P  P0  1  0.29459746  0.00449784  0.24946330  1
  P  P1  1  0.71098321  0.70534188  0.24957723  1
  P  P2  1  0.04714190  0.37242963  0.91740569  1
  S  S0  1  0.99726107  0.28890779  0.25001714  1
  S  S1  1  0.29337151  0.28625401  0.75061388  1
  S  S2  1  0.99381460  0.70916780  0.75114561  1
  S  S3  1  0.71180540  0.00467981  0.75085947  1
  S  S4  1  0.95768710  0.33817987  0.58293159  1
  S  S5  1  0.38020681  0.04203758  0.58295444  1
  S  S6  1  0.66163543  0.61934308  0.58298332  1
  S  S7  1  0.95941282  0.61904166  0.08470601  1
  S  S8  1  0.66113164  0.04005360  0.08466158  1
  S  S9  1  0.37824169  0.33901509  0.08418285  1
  S  S10  1  0.62590187  0.67182396  0.91708958  1
  S  S11  1  0.32777955  0.95370079  0.91718638  1
  S  S12  1  0.62347657  0.96115501  0.41872913  1
  S  S13  1  0.33705018  0.37840303  0.41813600  1
  S  S14  1  0.04065821  0.66028880  0.41851187  1
  O  O0  1  0.20153868  0.02597323  0.30415315  1
  O  O1  1  0.82338733  0.80091946  0.30425300  1
  O  O2  1  0.97557770  0.18160810  0.30290802  1
  O  O3  1  0.21389911  0.18072801  0.80299335  1
  O  O4  1  0.96977141  0.78998722  0.80373861  1
  O  O5  1  0.81792161  0.03054450  0.80304654  1
  O  O6  1  0.79262338  0.97328460  0.69775650  1
  O  O7  1  0.18083941  0.20712470  0.69776558  1
  O  O8  1  0.02584316  0.82031119  0.69798249  1
  O  O9  1  0.79571360  0.82610671  0.19537940  1
  O  O10  1  0.02931709  0.20944289  0.19724475  1
  O  O11  1  0.17486528  0.97243309  0.19536273  1
  O  O12  1  0.87975344  0.36492999  0.63614459  1
  O  O13  1  0.48490061  0.12016833  0.63606107  1
  O  O14  1  0.63498452  0.51474228  0.63610211  1
  O  O15  1  0.87771885  0.51308184  0.13700228  1
  O  O16  1  0.63655358  0.12200686  0.13698510  1
  O  O17  1  0.48425623  0.36452895  0.13655366  1
  O  O18  1  0.45889910  0.30688465  0.03127849  1
  O  O19  1  0.84698582  0.53942607  0.03156778  1
  O  O20  1  0.69231132  0.15276180  0.03141102  1
  O  O21  1  0.44919569  0.15178169  0.53013622  1
  O  O22  1  0.70280480  0.55076668  0.53010386  1
  O  O23  1  0.84798126  0.29709677  0.53017290  1
  O  O24  1  0.54777344  0.69631081  0.97016792  1
  O  O25  1  0.15181993  0.45666740  0.97227355  1
  O  O26  1  0.30806481  0.85345193  0.97033153  1
  O  O27  1  0.54588096  0.84936203  0.46924660  1
  O  O28  1  0.30392405  0.45527262  0.46920749  1
  O  O29  1  0.15124526  0.69532827  0.46934571  1
  O  O30  1  0.12679375  0.63894569  0.36384932  1
  O  O31  1  0.51294389  0.87400988  0.36410495  1
  O  O32  1  0.35972672  0.48803831  0.36373535  1
  O  O33  1  0.13086131  0.49644127  0.86269023  1
  O  O34  1  0.36727547  0.87649436  0.86431449  1
  O  O35  1  0.51016584  0.63549358  0.86436347  1
  O  O36  1  0.02439593  0.82071602  0.40793355  1
  O  O37  1  0.79852463  0.97797603  0.40659448  1
  O  O38  1  0.17699923  0.20321889  0.40664194  1
  O  O39  1  0.01959789  0.19270910  0.90680696  1
  O  O40  1  0.17848020  0.97635937  0.90763329  1
  O  O41  1  0.80011408  0.81844016  0.90753818  1
  O  O42  1  0.97577591  0.17664011  0.59309231  1
  O  O43  1  0.20063285  0.02400106  0.59326721  1
  O  O44  1  0.82346031  0.79912476  0.59310113  1
  O  O45  1  0.97180591  0.79557004  0.09053744  1
  O  O46  1  0.82448676  0.02816592  0.09133508  1
  O  O47  1  0.20152555  0.17722332  0.09162915  1
  O  O48  1  0.68782165  0.15710715  0.74286622  1
  O  O49  1  0.47041871  0.31233758  0.74261192  1
  O  O50  1  0.84314432  0.53168983  0.74328349  1
  O  O51  1  0.69392971  0.52713032  0.24439943  1
  O  O52  1  0.84388433  0.30838753  0.24419525  1
  O  O53  1  0.47541504  0.16262796  0.24447646  1
  O  O54  1  0.63749835  0.50471138  0.92385417  1
  O  O55  1  0.86023669  0.35981054  0.92421079  1
  O  O56  1  0.49302469  0.13447472  0.92358488  1
  O  O57  1  0.64232650  0.13601001  0.42168402  1
  O  O58  1  0.49212120  0.35762313  0.42125534  1
  O  O59  1  0.86417543  0.50611690  0.42162280  1
  O  O60  1  0.35606256  0.49223790  0.07725742  1
  O  O61  1  0.13630704  0.64649273  0.07727400  1
  O  O62  1  0.50928841  0.86423025  0.07625273  1
  O  O63  1  0.35428529  0.86614288  0.57485859  1
  O  O64  1  0.51191564  0.64546282  0.57503292  1
  O  O65  1  0.13370069  0.48818762  0.57496927  1
  O  O66  1  0.30389769  0.83306992  0.25744058  1
  O  O67  1  0.52778395  0.69116822  0.25736290  1
  O  O68  1  0.15941877  0.46475852  0.25706544  1
  O  O69  1  0.30845428  0.46398536  0.75795892  1
  O  O70  1  0.15779358  0.69598081  0.75782801  1
  O  O71  1  0.53523463  0.84241036  0.75861550  1
loop_
_geom_bond_atom_site_label_1
_geom_bond_atom_site_label_2
_geom_bond_distance
_geom_bond_site_symmetry_2
Na0 O50 2.541391 1_555
Na0 O48 2.542015 1_555
Na0 O49 2.572571 1_555
Na0 O55 2.694485 1_555
Na0 O56 2.731967 1_555
Na0 O54 2.740338 1_555
Na1 O53 2.558065 1_555
Na1 O51 2.558906 1_555
Na1 O58 2.580180 1_555
Na1 O59 2.619892 1_555
Na1 O57 2.623207 1_555
Na1 O52 2.649370 1_555
Na2 O62 2.554150 1_555
Na2 O60 2.555821 1_555
Na2 O61 2.570115 1_555
Na2 O66 2.682877 1_555
Na2 O67 2.683547 1_555
Na2 O68 2.733798 1_555
Hf0 O0 2.008548 1_565
Hf0 O1 2.012923 1_455
Hf0 O36 2.023693 1_555
Hf0 O38 2.067742 1_565
Hf0 O37 2.077922 1_455
Hf0 O2 2.147792 1_465
Hf1 O44 2.009862 1_545
Hf1 O42 2.011892 1_555
Hf1 O43 2.014758 1_655
Hf1 O6 2.124913 1_545
Hf1 O8 2.130840 1_645
Hf1 O7 2.133825 1_655
Hf2 O9 2.020882 1_555
Hf2 O11 2.023729 1_655
Hf2 O45 2.038516 1_555
Hf2 O47 2.082735 1_665
Hf2 O46 2.091200 1_565
Hf2 O10 2.153910 1_665
Hf3 O55 1.976939 1_555
Hf3 O56 2.070222 1_555
Hf3 O54 2.080688 1_555
Hf3 O20 2.086895 1_556
Hf3 O19 2.094810 1_556
Hf3 O18 2.143981 1_556
Hf4 O31 2.025948 1_555
Hf4 O67 2.033325 1_555
Hf4 O66 2.041246 1_555
Hf4 O32 2.069776 1_555
Hf4 O30 2.083187 1_555
Hf4 O68 2.143493 1_555
Hf5 O33 1.984531 1_555
Hf5 O70 2.051570 1_555
Hf5 O69 2.054944 1_555
Hf5 O71 2.101238 1_555
Hf5 O34 2.122346 1_555
Hf5 O35 2.131423 1_555
O0 P0 1.552409 1_555
O1 P1 1.551398 1_555
O2 S0 1.484092 1_555
O3 S1 1.457777 1_555
O3 Zn0 2.085705 1_555
O4 S2 1.460931 1_555
O4 Zn0 2.138251 1_665
O5 S3 1.459223 1_555
O5 Zn0 2.074721 1_655
O6 S3 1.496359 1_565
O7 S1 1.492536 1_555
O8 S2 1.493161 1_455
O9 P1 1.554555 1_555
O10 S0 1.486179 1_455
O11 P0 1.554547 1_565
O12 S4 1.467615 1_555
O12 Zn1 2.017145 1_555
O13 S5 1.467567 1_555
O13 Zn1 2.018905 1_555
O14 S6 1.467407 1_555
O14 Zn1 2.025556 1_555
O15 S7 1.460959 1_555
O15 Zn2 2.111759 1_555
O16 S8 1.463362 1_555
O16 Zn2 2.105408 1_555
O17 S9 1.462653 1_555
O17 Zn2 2.027898 1_555
O18 S9 1.494651 1_555
O19 S7 1.498053 1_555
O20 S8 1.503650 1_555
O21 S5 1.470620 1_555
O21 Zn3 2.011045 1_555
O22 S6 1.470645 1_555
O22 Zn3 2.010940 1_555
O23 S4 1.470482 1_555
O23 Zn3 2.019055 1_555
O24 S10 1.458281 1_555
O24 Zn4 2.043706 1_556
O25 P2 1.509764 1_555
O25 Zn4 1.919924 1_556
O26 S11 1.457375 1_555
O26 Zn4 2.056542 1_556
O27 S12 1.444359 1_555
O27 Zn5 2.169527 1_555
O28 S13 1.446054 1_555
O28 Zn5 2.158419 1_555
O29 S14 1.444767 1_555
O29 Zn5 2.165399 1_555
O30 S14 1.516497 1_555
O31 S12 1.529273 1_555
O32 S13 1.522173 1_555
O33 P2 1.575691 1_555
O34 S11 1.505567 1_555
O35 S10 1.503747 1_555
O36 S14 1.508566 1_555
O37 S12 1.497408 1_555
O38 S13 1.501279 1_555
O39 P2 1.494545 1_555
O39 Zn0 1.951762 1_555
O40 S11 1.441607 1_555
O40 Zn0 2.113128 1_565
O41 S10 1.442269 1_555
O41 Zn0 2.098952 1_665
O42 S4 1.525834 1_555
O43 S5 1.525122 1_555
O44 S6 1.525479 1_555
O45 S7 1.507595 1_555
O46 S8 1.501131 1_555
O47 S9 1.501869 1_555
O48 S3 1.470402 1_555
O48 Zn1 2.182362 1_555
O49 S1 1.467993 1_555
O49 Zn1 2.171577 1_555
O50 S2 1.467896 1_555
O50 Zn1 2.195034 1_555
O51 P1 1.503316 1_555
O51 Zn2 2.045990 1_555
O52 S0 1.449997 1_555
O52 Zn2 2.202550 1_555
O53 P0 1.504196 1_555
O53 Zn2 2.037592 1_555
O54 S10 1.532465 1_555
O55 P2 1.599659 1_655
O56 S11 1.532644 1_545
O57 S12 1.464255 1_545
O57 Zn3 2.237077 1_555
O58 S13 1.467082 1_555
O58 Zn3 2.255328 1_555
O59 S14 1.465109 1_655
O59 Zn3 2.237651 1_555
O60 S9 1.464948 1_555
O60 Zn4 2.168867 1_555
O61 S7 1.460658 1_455
O61 Zn4 2.186850 1_555
O62 S8 1.464556 1_565
O62 Zn4 2.230563 1_555
O63 S5 1.458705 1_565
O63 Zn5 2.019105 1_555
O64 S6 1.458509 1_555
O64 Zn5 2.019372 1_555
O65 S4 1.457991 1_455
O65 Zn5 2.014415 1_555
O66 P0 1.562251 1_565
O67 P1 1.563552 1_555
O68 S0 1.498188 1_455
O69 S1 1.511135 1_555
O70 S2 1.512921 1_455
O71 S3 1.503772 1_565
