# generated using pymatgen
data_LiCr2P3O11
_symmetry_space_group_name_H-M   'P 1'
_cell_length_a   7.15415058
_cell_length_b   7.15415058
_cell_length_c   8.69306493
_cell_angle_alpha   70.18217989
_cell_angle_beta   70.18217989
_cell_angle_gamma   74.03022159
_symmetry_Int_Tables_number   1
_chemical_formula_structural   LiCr2P3O11
_chemical_formula_sum   'Li2 Cr4 P6 O22'
_cell_volume   387.28305344
_cell_formula_units_Z   2
loop_
 _symmetry_equiv_pos_site_id
 _symmetry_equiv_pos_as_xyz
  1  'x, y, z'
loop_
 _atom_site_type_symbol
 _atom_site_label
 _atom_site_symmetry_multiplicity
 _atom_site_fract_x
 _atom_site_fract_y
 _atom_site_fract_z
 _atom_site_occupancy
  Li  Li0  1  0.48322600  0.00832100  0.23585800  1
  Li  Li1  1  0.99167900  0.51677400  0.76414200  1
  Cr  Cr0  1  0.88487500  0.36352400  0.20497900  1
  Cr  Cr1  1  0.36279200  0.88550000  0.70422700  1
  Cr  Cr2  1  0.63647600  0.11512500  0.79502100  1
  Cr  Cr3  1  0.11450000  0.63720800  0.29577300  1
  P  P0  1  0.04249100  0.95750900  0.50000000  1
  P  P1  1  0.31994600  0.45162300  0.96303900  1
  P  P2  1  0.67818000  0.54835800  0.53824400  1
  P  P3  1  0.95707300  0.04292700  0.00000000  1
  P  P4  1  0.45164200  0.32182000  0.46175600  1
  P  P5  1  0.54837700  0.68005400  0.03696100  1
  O  O0  1  0.87900800  0.98298600  0.66207400  1
  O  O1  1  0.76267100  0.61883300  0.05301100  1
  O  O2  1  0.25992300  0.95422000  0.50852700  1
  O  O3  1  0.98482000  0.88032400  0.16167400  1
  O  O4  1  0.01701400  0.12099200  0.33792600  1
  O  O5  1  0.11967600  0.01518000  0.83832600  1
  O  O6  1  0.24016000  0.38104200  0.44059100  1
  O  O7  1  0.47022400  0.14725900  0.62495700  1
  O  O8  1  0.61694000  0.27468100  0.30600500  1
  O  O9  1  0.04578000  0.74007700  0.49147300  1
  O  O10  1  0.38116700  0.23732900  0.94698900  1
  O  O11  1  0.49027700  0.50972300  0.50000000  1
  O  O12  1  0.38575200  0.72931400  0.19333000  1
  O  O13  1  0.27068600  0.61424800  0.80667000  1
  O  O14  1  0.73942800  0.04590500  0.99138200  1
  O  O15  1  0.14575100  0.47188300  0.12558000  1
  O  O16  1  0.72531800  0.38306000  0.69399500  1
  O  O17  1  0.85274100  0.52977600  0.37504300  1
  O  O18  1  0.50726500  0.49273500  0.00000000  1
  O  O19  1  0.61895800  0.75984000  0.55940900  1
  O  O20  1  0.95409500  0.26057200  0.00861800  1
  O  O21  1  0.52811700  0.85424900  0.87442000  1
loop_
_geom_bond_atom_site_label_1
_geom_bond_atom_site_label_2
_geom_bond_distance
_geom_bond_site_symmetry_2
Li0 O14 2.278361 1_554
Li0 O2 2.339009 1_545
Li0 O12 2.459333 1_545
Li0 O8 2.665464 1_555
Li0 O10 2.705285 1_554
Li0 O19 3.086395 1_545
Li0 O4 3.092005 1_555
Li1 O20 2.278361 1_556
Li1 O9 2.339009 1_655
Li1 O13 2.459333 1_655
Li1 O16 2.665471 1_555
Li1 O1 2.705285 1_556
Li1 O6 3.086395 1_655
Li1 O0 3.092005 1_555
Cr0 O4 1.928337 1_655
Cr0 O20 1.944250 1_555
Cr0 O8 2.000004 1_555
Cr0 O1 2.028311 1_555
Cr0 O15 2.029892 1_655
Cr0 O17 2.112931 1_555
Cr1 O5 1.927535 1_565
Cr1 O2 1.939132 1_555
Cr1 O19 2.011986 1_555
Cr1 O13 2.031512 1_555
Cr1 O7 2.032317 1_565
Cr1 O21 2.110583 1_555
Cr2 O0 1.928337 1_545
Cr2 O14 1.944250 1_555
Cr2 O16 2.000001 1_555
Cr2 O10 2.028311 1_555
Cr2 O21 2.029892 1_545
Cr2 O7 2.112931 1_555
Cr3 O3 1.927535 1_455
Cr3 O9 1.939132 1_555
Cr3 O6 2.011986 1_555
Cr3 O12 2.031512 1_555
Cr3 O17 2.032317 1_455
Cr3 O15 2.110583 1_555
O0 P0 1.525018 1_655
O1 P5 1.515185 1_555
O2 P0 1.575633 1_555
O3 P3 1.523624 1_565
O4 P0 1.525018 1_545
O5 P3 1.523624 1_456
O6 P4 1.511825 1_555
O7 P4 1.557305 1_555
O8 P4 1.532929 1_555
O9 P0 1.575633 1_555
O10 P1 1.515185 1_555
O11 P4 1.601197 1_555
O11 P2 1.601197 1_555
O12 P5 1.533759 1_555
O13 P1 1.533759 1_555
O14 P3 1.578061 1_556
O15 P1 1.554370 1_554
O16 P2 1.532927 1_555
O17 P2 1.557305 1_555
O18 P5 1.599551 1_555
O18 P1 1.599551 1_554
O19 P2 1.511825 1_555
O20 P3 1.578061 1_555
O21 P5 1.554370 1_556
