# generated using pymatgen
data_AlMo3
_symmetry_space_group_name_H-M   'P 1'
_cell_length_a   4.95117426
_cell_length_b   4.95117426
_cell_length_c   4.95117426
_cell_angle_alpha   90.00000000
_cell_angle_beta   90.00000000
_cell_angle_gamma   90.00000000
_symmetry_Int_Tables_number   1
_chemical_formula_structural   AlMo3
_chemical_formula_sum   'Al2 Mo6'
_cell_volume   121.37371240
_cell_formula_units_Z   2
loop_
 _symmetry_equiv_pos_site_id
 _symmetry_equiv_pos_as_xyz
  1  'x, y, z'
loop_
 _atom_site_type_symbol
 _atom_site_label
 _atom_site_symmetry_multiplicity
 _atom_site_fract_x
 _atom_site_fract_y
 _atom_site_fract_z
 _atom_site_occupancy
  Al  Al0  1  0.00000000  0.00000000  -0.00000000  1
  Al  Al1  1  0.50000000  0.50000000  0.50000000  1
  Mo  Mo0  1  0.25000000  0.00000000  0.50000000  1
  Mo  Mo1  1  0.75000000  0.00000000  0.50000000  1
  Mo  Mo2  1  0.00000000  0.50000000  0.25000000  1
  Mo  Mo3  1  0.00000000  0.50000000  0.75000000  1
  Mo  Mo4  1  0.50000000  0.75000000  -0.00000000  1
  Mo  Mo5  1  0.50000000  0.25000000  -0.00000000  1
loop_
_geom_bond_atom_site_label_1
_geom_bond_atom_site_label_2
_geom_bond_distance
_geom_bond_site_symmetry_2
Al0 Mo5 2.767791 1_455
Al0 Mo3 2.767791 1_544
Al0 Mo0 2.767791 1_555
Al0 Mo4 2.767791 1_445
Al0 Mo4 2.767791 1_545
Al0 Mo1 2.767791 1_454
Al0 Mo2 2.767791 1_545
Al0 Mo2 2.767791 1_555
Al0 Mo3 2.767791 1_554
Al0 Mo0 2.767791 1_554
Al0 Mo5 2.767791 1_555
Al0 Mo1 2.767791 1_455
Al1 Mo1 2.767791 1_565
Al1 Mo3 2.767791 1_555
Al1 Mo0 2.767791 1_555
Al1 Mo3 2.767791 1_655
Al1 Mo2 2.767791 1_655
Al1 Mo4 2.767791 1_555
Al1 Mo5 2.767791 1_556
Al1 Mo1 2.767791 1_555
Al1 Mo4 2.767791 1_556
Al1 Mo2 2.767791 1_555
Al1 Mo5 2.767791 1_555
Al1 Mo0 2.767791 1_565
Mo0 Mo1 2.475587 1_455
Mo0 Mo1 2.475587 1_555
Mo0 Mo3 3.031963 1_545
Mo0 Mo2 3.031963 1_545
Mo0 Mo2 3.031963 1_555
Mo0 Mo5 3.031963 1_555
Mo0 Mo4 3.031963 1_546
Mo0 Mo3 3.031963 1_555
Mo0 Mo5 3.031963 1_556
Mo0 Mo4 3.031963 1_545
Mo1 Mo5 3.031963 1_555
Mo1 Mo4 3.031963 1_546
Mo1 Mo3 3.031963 1_645
Mo1 Mo2 3.031963 1_655
Mo1 Mo5 3.031963 1_556
Mo1 Mo3 3.031963 1_655
Mo1 Mo2 3.031963 1_645
Mo1 Mo4 3.031963 1_545
Mo2 Mo3 2.475587 1_554
Mo2 Mo3 2.475587 1_555
Mo2 Mo5 3.031963 1_555
Mo2 Mo5 3.031963 1_455
Mo2 Mo4 3.031963 1_455
Mo2 Mo4 3.031963 1_555
Mo3 Mo4 3.031963 1_556
Mo3 Mo4 3.031963 1_456
Mo3 Mo5 3.031963 1_456
Mo3 Mo5 3.031963 1_556
Mo4 Mo5 2.475587 1_555
Mo4 Mo5 2.475587 1_565
