# generated using pymatgen
data_Na12Mg2Nb4(SiO4)9
_symmetry_space_group_name_H-M   'P 1'
_cell_length_a   9.14439882
_cell_length_b   9.14439850
_cell_length_c   22.41822323
_cell_angle_alpha   90.00000000
_cell_angle_beta   90.00000000
_cell_angle_gamma   120.00000116
_symmetry_Int_Tables_number   1
_chemical_formula_structural   Na12Mg2Nb4(SiO4)9
_chemical_formula_sum   'Na24 Mg4 Nb8 Si18 O72'
_cell_volume   1623.46196619
_cell_formula_units_Z   2
loop_
 _symmetry_equiv_pos_site_id
 _symmetry_equiv_pos_as_xyz
  1  'x, y, z'
loop_
 _atom_site_type_symbol
 _atom_site_label
 _atom_site_symmetry_multiplicity
 _atom_site_fract_x
 _atom_site_fract_y
 _atom_site_fract_z
 _atom_site_occupancy
  Na  Na0  1  0.64062265  0.01933304  0.24681171  1
  Na  Na1  1  0.37871039  0.35937735  0.24681171  1
  Na  Na2  1  0.98066696  0.62128961  0.24681171  1
  Na  Na3  1  0.64062265  0.62128961  0.74681171  1
  Na  Na4  1  0.98066696  0.35937735  0.74681171  1
  Na  Na5  1  0.37871039  0.01933304  0.74681171  1
  Na  Na6  1  0.30759556  0.33364269  0.58690402  1
  Na  Na7  1  0.02604813  0.69240444  0.58690402  1
  Na  Na8  1  0.66635731  0.97395187  0.58690402  1
  Na  Na9  1  0.30759556  0.97395187  0.08690402  1
  Na  Na10  1  0.66635731  0.69240444  0.08690402  1
  Na  Na11  1  0.02604813  0.33364269  0.08690402  1
  Na  Na12  1  0.96518706  0.68239468  0.90881825  1
  Na  Na13  1  0.71720662  0.03481294  0.90881825  1
  Na  Na14  1  0.31760532  0.28279338  0.90881825  1
  Na  Na15  1  0.96518706  0.28279338  0.40881825  1
  Na  Na16  1  0.31760532  0.03481294  0.40881825  1
  Na  Na17  1  0.71720662  0.68239468  0.40881825  1
  Na  Na18  1  0.00000000  -0.00000000  0.49413647  1
  Na  Na19  1  0.00000000  -0.00000000  0.99413647  1
  Na  Na20  1  0.66666700  0.33333300  0.82359260  1
  Na  Na21  1  0.66666700  0.33333300  0.32359260  1
  Na  Na22  1  0.33333300  0.66666700  0.16763912  1
  Na  Na23  1  0.33333300  0.66666700  0.66763912  1
  Mg  Mg0  1  0.00000000  -0.00000000  0.35205473  1
  Mg  Mg1  1  0.00000000  -0.00000000  0.85205473  1
  Mg  Mg2  1  0.66666700  0.33333300  0.68536616  1
  Mg  Mg3  1  0.66666700  0.33333300  0.18536616  1
  Nb  Nb0  1  0.00000000  -0.00000000  0.64958975  1
  Nb  Nb1  1  0.00000000  -0.00000000  0.14958975  1
  Nb  Nb2  1  0.66666700  0.33333300  0.98018028  1
  Nb  Nb3  1  0.66666700  0.33333300  0.48018028  1
  Nb  Nb4  1  0.33333300  0.66666700  0.01904669  1
  Nb  Nb5  1  0.33333300  0.66666700  0.51904669  1
  Nb  Nb6  1  0.33333300  0.66666700  0.31106526  1
  Nb  Nb7  1  0.33333300  0.66666700  0.81106526  1
  Si  Si0  1  0.29369699  0.00331315  0.25403962  1
  Si  Si1  1  0.70961617  0.70630301  0.25403962  1
  Si  Si2  1  0.99668685  0.29038383  0.25403962  1
  Si  Si3  1  0.29369699  0.29038383  0.75403962  1
  Si  Si4  1  0.99668685  0.70630301  0.75403962  1
  Si  Si5  1  0.70961617  0.00331315  0.75403962  1
  Si  Si6  1  0.95815175  0.33326869  0.58547062  1
  Si  Si7  1  0.37511795  0.04184825  0.58547062  1
  Si  Si8  1  0.66673131  0.62488205  0.58547062  1
  Si  Si9  1  0.95815175  0.62488205  0.08547062  1
  Si  Si10  1  0.66673131  0.04184825  0.08547062  1
  Si  Si11  1  0.37511795  0.33326869  0.08547062  1
  Si  Si12  1  0.62572129  0.66602693  0.91627418  1
  Si  Si13  1  0.04030464  0.37427871  0.91627418  1
  Si  Si14  1  0.33397307  0.95969536  0.91627418  1
  Si  Si15  1  0.62572129  0.95969536  0.41627418  1
  Si  Si16  1  0.33397307  0.37427871  0.41627418  1
  Si  Si17  1  0.04030464  0.66602693  0.41627418  1
  O  O0  1  0.20789805  0.02905014  0.31153798  1
  O  O1  1  0.82115209  0.79210195  0.31153798  1
  O  O2  1  0.97094986  0.17884791  0.31153798  1
  O  O3  1  0.20789805  0.17884791  0.81153798  1
  O  O4  1  0.97094986  0.79210195  0.81153798  1
  O  O5  1  0.82115209  0.02905014  0.81153798  1
  O  O6  1  0.80230923  0.96880296  0.69292925  1
  O  O7  1  0.16649372  0.19769077  0.69292925  1
  O  O8  1  0.03119704  0.83350628  0.69292925  1
  O  O9  1  0.80230923  0.83350628  0.19292925  1
  O  O10  1  0.03119704  0.19769077  0.19292925  1
  O  O11  1  0.16649372  0.96880296  0.19292925  1
  O  O12  1  0.88388157  0.37626760  0.64246373  1
  O  O13  1  0.49238703  0.11611843  0.64246373  1
  O  O14  1  0.62373240  0.50761297  0.64246373  1
  O  O15  1  0.88388157  0.50761297  0.14246373  1
  O  O16  1  0.62373240  0.11611843  0.14246373  1
  O  O17  1  0.49238703  0.37626760  0.14246373  1
  O  O18  1  0.46875466  0.30360755  0.02577895  1
  O  O19  1  0.83485390  0.53124534  0.02577895  1
  O  O20  1  0.69639245  0.16514610  0.02577895  1
  O  O21  1  0.46875466  0.16514610  0.52577895  1
  O  O22  1  0.69639245  0.53124534  0.52577895  1
  O  O23  1  0.83485390  0.30360755  0.52577895  1
  O  O24  1  0.52291930  0.68335005  0.97431831  1
  O  O25  1  0.16042975  0.47708070  0.97431831  1
  O  O26  1  0.31664995  0.83957025  0.97431831  1
  O  O27  1  0.52291930  0.83957025  0.47431831  1
  O  O28  1  0.31664995  0.47708070  0.47431831  1
  O  O29  1  0.16042975  0.68335005  0.47431831  1
  O  O30  1  0.13461474  0.63262274  0.35879736  1
  O  O31  1  0.49800700  0.86538526  0.35879736  1
  O  O32  1  0.36737726  0.50199300  0.35879736  1
  O  O33  1  0.13461474  0.50199300  0.85879736  1
  O  O34  1  0.36737726  0.86538526  0.85879736  1
  O  O35  1  0.49800700  0.63262274  0.85879736  1
  O  O36  1  0.02296803  0.83073093  0.41608123  1
  O  O37  1  0.80776290  0.97703197  0.41608123  1
  O  O38  1  0.16926907  0.19223710  0.41608123  1
  O  O39  1  0.02296803  0.19223710  0.91608123  1
  O  O40  1  0.16926907  0.97703197  0.91608123  1
  O  O41  1  0.80776290  0.83073093  0.91608123  1
  O  O42  1  0.97615032  0.16198098  0.58794190  1
  O  O43  1  0.18583066  0.02384968  0.58794190  1
  O  O44  1  0.83801902  0.81416934  0.58794190  1
  O  O45  1  0.97615032  0.81416934  0.08794190  1
  O  O46  1  0.83801902  0.02384968  0.08794190  1
  O  O47  1  0.18583066  0.16198098  0.08794190  1
  O  O48  1  0.68109843  0.16144259  0.74487212  1
  O  O49  1  0.48034516  0.31890157  0.74487212  1
  O  O50  1  0.83855741  0.51965484  0.74487212  1
  O  O51  1  0.68109843  0.51965484  0.24487212  1
  O  O52  1  0.83855741  0.31890157  0.24487212  1
  O  O53  1  0.48034516  0.16144259  0.24487212  1
  O  O54  1  0.63341276  0.48945515  0.92267250  1
  O  O55  1  0.85604339  0.36658724  0.92267250  1
  O  O56  1  0.51054485  0.14395661  0.92267250  1
  O  O57  1  0.63341276  0.14395661  0.42267250  1
  O  O58  1  0.51054485  0.36658724  0.42267250  1
  O  O59  1  0.85604339  0.48945515  0.42267250  1
  O  O60  1  0.34643457  0.49733574  0.07507775  1
  O  O61  1  0.15090016  0.65356543  0.07507775  1
  O  O62  1  0.50266426  0.84909984  0.07507775  1
  O  O63  1  0.34643457  0.84909984  0.57507775  1
  O  O64  1  0.50266426  0.65356543  0.57507775  1
  O  O65  1  0.15090016  0.49733574  0.57507775  1
  O  O66  1  0.30021371  0.82188030  0.25498681  1
  O  O67  1  0.52166559  0.69978629  0.25498681  1
  O  O68  1  0.17811970  0.47833441  0.25498681  1
  O  O69  1  0.30021371  0.47833441  0.75498681  1
  O  O70  1  0.17811970  0.69978629  0.75498681  1
  O  O71  1  0.52166559  0.82188030  0.75498681  1
loop_
_geom_bond_atom_site_label_1
_geom_bond_atom_site_label_2
_geom_bond_distance
_geom_bond_site_symmetry_2
Na0 O53 2.396523 1_555
Na0 O52 2.413273 1_555
Na0 O16 2.533014 1_555
Na0 O67 2.564515 1_545
Na0 O66 2.713481 1_545
Na0 O31 2.854707 1_545
Na0 O2 2.991893 1_555
Na0 O9 3.007513 1_545
Na1 O51 2.396531 1_555
Na1 O53 2.413280 1_555
Na1 O17 2.533018 1_555
Na1 O68 2.564523 1_555
Na1 O67 2.713482 1_555
Na1 O32 2.854710 1_555
Na1 O0 2.991893 1_555
Na1 O10 3.007513 1_555
Na2 O52 2.396531 1_555
Na2 O51 2.413272 1_555
Na2 O15 2.533017 1_555
Na2 O66 2.564516 1_655
Na2 O68 2.713474 1_655
Na2 O30 2.854705 1_655
Na2 O1 2.991893 1_555
Na2 O11 3.007513 1_655
Na3 O49 2.396531 1_555
Na3 O50 2.413280 1_555
Na3 O14 2.533018 1_555
Na3 O71 2.564523 1_555
Na3 O69 2.713482 1_555
Na3 O35 2.854710 1_555
Na3 O4 2.991893 1_555
Na3 O6 3.007513 1_555
Na4 O50 2.396523 1_555
Na4 O48 2.413273 1_555
Na4 O12 2.533014 1_555
Na4 O69 2.564515 1_655
Na4 O70 2.713481 1_655
Na4 O33 2.854707 1_655
Na4 O5 2.991893 1_555
Na4 O7 3.007513 1_655
Na5 O48 2.396531 1_555
Na5 O49 2.413272 1_555
Na5 O13 2.533017 1_555
Na5 O70 2.564516 1_545
Na5 O71 2.713474 1_545
Na5 O34 2.854705 1_545
Na5 O3 2.991893 1_555
Na5 O8 3.007513 1_545
Na6 O43 2.472084 1_555
Na6 O65 2.551261 1_555
Na6 O64 2.567542 1_555
Na6 O42 2.625473 1_455
Na6 O7 2.693686 1_555
Na6 O14 2.800078 1_555
Na6 O28 2.826504 1_555
Na6 O21 2.948612 1_555
Na7 O44 2.472092 1_455
Na7 O63 2.551245 1_555
Na7 O65 2.567527 1_555
Na7 O43 2.625473 1_565
Na7 O8 2.693689 1_555
Na7 O12 2.800078 1_455
Na7 O29 2.826496 1_555
Na7 O22 2.948612 1_455
Na8 O42 2.472085 1_565
Na8 O64 2.551245 1_555
Na8 O63 2.567544 1_555
Na8 O44 2.625465 1_555
Na8 O6 2.693684 1_555
Na8 O13 2.800078 1_565
Na8 O27 2.826500 1_555
Na8 O23 2.948612 1_565
Na9 O47 2.472092 1_565
Na9 O61 2.551245 1_555
Na9 O62 2.567527 1_555
Na9 O45 2.625473 1_455
Na9 O11 2.693689 1_555
Na9 O16 2.800078 1_565
Na9 O26 2.826496 1_554
Na9 O18 2.948612 1_565
Na10 O45 2.472084 1_555
Na10 O62 2.551261 1_555
Na10 O60 2.567542 1_555
Na10 O46 2.625473 1_565
Na10 O9 2.693686 1_555
Na10 O17 2.800078 1_555
Na10 O24 2.826504 1_554
Na10 O19 2.948612 1_555
Na11 O46 2.472085 1_455
Na11 O60 2.551245 1_555
Na11 O61 2.567544 1_555
Na11 O47 2.625465 1_555
Na11 O10 2.693684 1_555
Na11 O15 2.800078 1_455
Na11 O25 2.826500 1_554
Na11 O20 2.948612 1_455
Na12 O4 2.390072 1_555
Na12 O40 2.395893 1_655
Na12 O41 2.427227 1_555
Na12 O55 2.559319 1_555
Na12 O54 2.657248 1_555
Na12 O19 2.925522 1_556
Na12 O33 2.989165 1_655
Na12 O26 3.151495 1_655
Na13 O5 2.390076 1_555
Na13 O41 2.395900 1_545
Na13 O39 2.427235 1_655
Na13 O56 2.559302 1_555
Na13 O55 2.657246 1_555
Na13 O20 2.925517 1_556
Na13 O34 2.989165 1_545
Na13 O24 3.151495 1_545
Na14 O3 2.390074 1_555
Na14 O39 2.395891 1_555
Na14 O40 2.427235 1_545
Na14 O54 2.559316 1_555
Na14 O56 2.657263 1_555
Na14 O18 2.925525 1_556
Na14 O35 2.989165 1_555
Na14 O25 3.151495 1_555
Na15 O2 2.390076 1_555
Na15 O38 2.395900 1_655
Na15 O37 2.427234 1_545
Na15 O59 2.559302 1_555
Na15 O57 2.657246 1_555
Na15 O23 2.925517 1_555
Na15 O30 2.989165 1_655
Na15 O28 3.151495 1_655
Na16 O0 2.390072 1_555
Na16 O36 2.395893 1_545
Na16 O38 2.427227 1_555
Na16 O57 2.559319 1_555
Na16 O58 2.657248 1_555
Na16 O21 2.925522 1_555
Na16 O31 2.989165 1_545
Na16 O29 3.151495 1_545
Na17 O1 2.390074 1_555
Na17 O37 2.395891 1_555
Na17 O36 2.427235 1_655
Na17 O58 2.559316 1_555
Na17 O59 2.657262 1_555
Na17 O22 2.925525 1_555
Na17 O32 2.989165 1_555
Na17 O27 3.151495 1_555
Na18 O38 2.413939 1_555
Na18 O36 2.413939 1_545
Na18 O37 2.413939 1_445
Na18 O44 2.643296 1_445
Na18 O42 2.643296 1_455
Na18 O43 2.643296 1_555
Na19 O39 2.413939 1_555
Na19 O41 2.413939 1_445
Na19 O40 2.413939 1_545
Na19 O45 2.643296 1_446
Na19 O47 2.643296 1_556
Na19 O46 2.643296 1_456
Na20 O50 2.410380 1_555
Na20 O48 2.410380 1_555
Na20 O49 2.410380 1_555
Na20 O56 2.738335 1_555
Na20 O54 2.738335 1_555
Na20 O55 2.738335 1_555
Na21 O51 2.410380 1_555
Na21 O53 2.410380 1_555
Na21 O52 2.410380 1_555
Na21 O57 2.738335 1_555
Na21 O59 2.738335 1_555
Na21 O58 2.738335 1_555
Na22 O68 2.523994 1_555
Na22 O66 2.523994 1_555
Na22 O67 2.523995 1_555
Na22 O60 2.627430 1_555
Na22 O62 2.627430 1_555
Na22 O61 2.627430 1_555
Na23 O69 2.523994 1_555
Na23 O71 2.523994 1_555
Na23 O70 2.523995 1_555
Na23 O65 2.627430 1_555
Na23 O64 2.627430 1_555
Na23 O63 2.627430 1_555
Mg0 O1 2.001193 1_445
Mg0 O2 2.001193 1_455
Mg0 O0 2.001193 1_555
Mg0 O38 2.196668 1_555
Mg0 O36 2.196668 1_545
Mg0 O37 2.196668 1_445
Mg1 O4 2.001193 1_445
Mg1 O3 2.001193 1_555
Mg1 O5 2.001193 1_455
Mg1 O39 2.196668 1_555
Mg1 O41 2.196668 1_445
Mg1 O40 2.196668 1_545
Mg2 O13 2.060274 1_555
Mg2 O14 2.060274 1_555
Mg2 O12 2.060274 1_555
Mg2 O50 2.115446 1_555
Mg2 O48 2.115446 1_555
Mg2 O49 2.115446 1_555
Mg3 O16 2.060274 1_555
Mg3 O15 2.060274 1_555
Mg3 O17 2.060274 1_555
Mg3 O51 2.115446 1_555
Mg3 O53 2.115446 1_555
Mg3 O52 2.115446 1_555
Nb0 O8 1.943623 1_545
Nb0 O7 1.943623 1_555
Nb0 O6 1.943623 1_445
Nb0 O44 2.115333 1_445
Nb0 O42 2.115333 1_455
Nb0 O43 2.115333 1_555
Nb1 O11 1.943623 1_545
Nb1 O9 1.943623 1_445
Nb1 O10 1.943623 1_555
Nb1 O45 2.115333 1_445
Nb1 O47 2.115333 1_555
Nb1 O46 2.115333 1_455
Nb2 O19 1.975414 1_556
Nb2 O18 1.975414 1_556
Nb2 O20 1.975414 1_556
Nb2 O56 2.055933 1_555
Nb2 O54 2.055933 1_555
Nb2 O55 2.055933 1_555
Nb3 O22 1.975414 1_555
Nb3 O21 1.975414 1_555
Nb3 O23 1.975414 1_555
Nb3 O57 2.055933 1_555
Nb3 O59 2.055933 1_555
Nb3 O58 2.055933 1_555
Nb4 O25 1.941601 1_554
Nb4 O26 1.941601 1_554
Nb4 O24 1.941601 1_554
Nb4 O60 2.043364 1_555
Nb4 O62 2.043364 1_555
Nb4 O61 2.043364 1_555
Nb5 O28 1.941601 1_555
Nb5 O27 1.941601 1_555
Nb5 O29 1.941601 1_555
Nb5 O65 2.043364 1_555
Nb5 O64 2.043364 1_555
Nb5 O63 2.043364 1_555
Nb6 O31 1.994573 1_555
Nb6 O32 1.994573 1_555
Nb6 O30 1.994573 1_555
Nb6 O68 2.028935 1_555
Nb6 O66 2.028935 1_555
Nb6 O67 2.028935 1_555
Nb7 O34 1.994573 1_555
Nb7 O33 1.994573 1_555
Nb7 O35 1.994573 1_555
Nb7 O69 2.028935 1_555
Nb7 O71 2.028935 1_555
Nb7 O70 2.028935 1_555
O0 Si0 1.586554 1_555
O1 Si1 1.586554 1_555
O2 Si2 1.586554 1_555
O3 Si3 1.586554 1_555
O4 Si4 1.586554 1_555
O5 Si5 1.586554 1_555
O6 Si5 1.721163 1_565
O7 Si3 1.721163 1_555
O8 Si4 1.721163 1_455
O9 Si1 1.721163 1_555
O10 Si2 1.721163 1_455
O11 Si0 1.721163 1_565
O12 Si6 1.585995 1_555
O13 Si7 1.585995 1_555
O14 Si8 1.585995 1_555
O15 Si9 1.585995 1_555
O16 Si10 1.585995 1_555
O17 Si11 1.585995 1_555
O18 Si11 1.682173 1_555
O19 Si9 1.682173 1_555
O20 Si10 1.682173 1_555
O21 Si7 1.682173 1_555
O22 Si8 1.682173 1_555
O23 Si6 1.682173 1_555
O24 Si12 1.658604 1_555
O25 Si13 1.658604 1_555
O26 Si14 1.658604 1_555
O27 Si15 1.658604 1_555
O28 Si16 1.658604 1_555
O29 Si17 1.658604 1_555
O30 Si17 1.661564 1_555
O31 Si15 1.661564 1_555
O32 Si16 1.661564 1_555
O33 Si13 1.661564 1_555
O34 Si14 1.661564 1_555
O35 Si12 1.661564 1_555
O36 Si17 1.591325 1_555
O37 Si15 1.591334 1_555
O38 Si16 1.591330 1_555
O39 Si13 1.591334 1_555
O40 Si14 1.591325 1_555
O41 Si12 1.591330 1_555
O42 Si6 1.655693 1_555
O43 Si7 1.655703 1_555
O44 Si8 1.655699 1_555
O45 Si9 1.655703 1_555
O46 Si10 1.655694 1_555
O47 Si11 1.655699 1_555
O48 Si5 1.605690 1_555
O49 Si3 1.605699 1_555
O50 Si4 1.605695 1_555
O51 Si1 1.605698 1_555
O52 Si2 1.605690 1_555
O53 Si0 1.605695 1_555
O54 Si12 1.657153 1_555
O55 Si13 1.657135 1_655
O56 Si14 1.657144 1_545
O57 Si15 1.657135 1_545
O58 Si16 1.657153 1_555
O59 Si17 1.657144 1_655
O60 Si11 1.663575 1_555
O61 Si9 1.663557 1_455
O62 Si10 1.663563 1_565
O63 Si7 1.663557 1_565
O64 Si8 1.663575 1_555
O65 Si6 1.663563 1_455
O66 Si0 1.689812 1_565
O67 Si1 1.689821 1_555
O68 Si2 1.689817 1_455
O69 Si3 1.689821 1_555
O70 Si4 1.689812 1_455
O71 Si5 1.689817 1_565
