# generated using pymatgen
data_MgHg4(MoO4)2
_symmetry_space_group_name_H-M   'P 1'
_cell_length_a   5.39767268
_cell_length_b   8.85504906
_cell_length_c   6.89876252
_cell_angle_alpha   108.31955877
_cell_angle_beta   97.09871538
_cell_angle_gamma   114.03361660
_symmetry_Int_Tables_number   1
_chemical_formula_structural   MgHg4(MoO4)2
_chemical_formula_sum   'Mg1 Hg4 Mo2 O8'
_cell_volume   273.58758671
_cell_formula_units_Z   1
loop_
 _symmetry_equiv_pos_site_id
 _symmetry_equiv_pos_as_xyz
  1  'x, y, z'
loop_
 _atom_site_type_symbol
 _atom_site_label
 _atom_site_symmetry_multiplicity
 _atom_site_fract_x
 _atom_site_fract_y
 _atom_site_fract_z
 _atom_site_occupancy
  Mg  Mg0  1  0.08485234  0.95355216  0.35676835  1
  Hg  Hg0  1  0.77719817  0.24501327  0.58917489  1
  Hg  Hg1  1  0.80035424  0.53860711  0.85058357  1
  Hg  Hg2  1  0.45012221  0.74898657  0.47291038  1
  Hg  Hg3  1  0.05918017  0.41596152  0.23388251  1
  Mo  Mo0  1  0.25069742  0.07507854  0.89805509  1
  Mo  Mo1  1  0.68514026  0.92929485  0.04608836  1
  O  O0  1  0.74056176  0.99692875  0.36907760  1
  O  O1  1  0.30455827  0.97243459  0.61042191  1
  O  O2  1  0.82958847  0.89601968  0.78514765  1
  O  O3  1  0.30670368  0.83294406  0.93873896  1
  O  O4  1  0.27481072  0.27628201  0.88979458  1
  O  O5  1  0.67617689  0.16411454  0.04846338  1
  O  O6  1  0.13872468  0.09600719  0.17369733  1
  O  O7  1  0.77133071  0.74270415  0.09433844  1
loop_
_geom_bond_atom_site_label_1
_geom_bond_atom_site_label_2
_geom_bond_distance
_geom_bond_site_symmetry_2
Mg0 O1 1.907381 1_555
Mg0 O6 2.016030 1_565
Mg0 O7 2.042467 1_455
Mg0 O0 2.051390 1_455
Hg0 O0 2.155371 1_545
Hg0 Hg1 2.599818 1_555
Hg0 O1 2.766750 1_545
Hg1 O7 2.122230 1_556
Hg1 O3 2.724561 1_655
Hg1 O4 2.955213 1_555
Hg2 O2 2.346203 1_555
Hg2 O1 2.388070 1_555
Hg2 O0 2.500754 1_555
Hg2 Hg3 2.623479 1_555
Hg3 O5 2.163624 1_455
Hg3 O4 2.920467 1_554
Hg3 O6 2.946056 1_555
Mo0 O4 1.752511 1_555
Mo0 O1 2.017965 1_545
Mo0 O2 2.034137 1_445
Mo0 O6 2.041921 1_556
Mo0 O5 2.096308 1_556
Mo0 O3 2.377536 1_545
Mo1 O3 1.805059 1_554
Mo1 O7 1.997704 1_555
Mo1 O2 2.033697 1_554
Mo1 O0 2.064844 1_555
Mo1 O5 2.094513 1_565
Mo1 O6 2.157496 1_665
O0 O6 2.669996 1_665
O2 O6 2.570802 1_666
