# generated using pymatgen
data_Na6HfZn3P4(SO12)2
_symmetry_space_group_name_H-M   'P 1'
_cell_length_a   9.05732852
_cell_length_b   9.03009429
_cell_length_c   22.07995842
_cell_angle_alpha   89.79618582
_cell_angle_beta   89.92251726
_cell_angle_gamma   119.87090868
_symmetry_Int_Tables_number   1
_chemical_formula_structural   Na6HfZn3P4(SO12)2
_chemical_formula_sum   'Na18 Hf3 Zn9 P12 S6 O72'
_cell_volume   1565.95467726
_cell_formula_units_Z   3
loop_
 _symmetry_equiv_pos_site_id
 _symmetry_equiv_pos_as_xyz
  1  'x, y, z'
loop_
 _atom_site_type_symbol
 _atom_site_label
 _atom_site_symmetry_multiplicity
 _atom_site_fract_x
 _atom_site_fract_y
 _atom_site_fract_z
 _atom_site_occupancy
  Na  Na0  1  0.36484440  0.36786475  0.25307638  1
  Na  Na1  1  0.64371133  0.63653149  0.74155886  1
  Na  Na2  1  0.99245349  0.34575874  0.74649067  1
  Na  Na3  1  0.29485341  0.34348940  0.58466023  1
  Na  Na4  1  0.03209041  0.69692737  0.57970761  1
  Na  Na5  1  0.67334812  0.95769548  0.58031670  1
  Na  Na6  1  0.28894341  0.96025040  0.07913248  1
  Na  Na7  1  0.66024711  0.69660628  0.08235829  1
  Na  Na8  1  0.04828141  0.34387022  0.08391309  1
  Na  Na9  1  0.31947424  0.29442473  0.90879905  1
  Na  Na10  1  0.98169437  0.30393060  0.40748514  1
  Na  Na11  1  0.69439062  0.67860689  0.40769970  1
  Na  Na12  1  0.00890974  0.00011282  0.49355797  1
  Na  Na13  1  0.98910127  0.98135656  0.99069951  1
  Na  Na14  1  0.64945154  0.29755090  0.82697705  1
  Na  Na15  1  0.66647245  0.31054833  0.32448618  1
  Na  Na16  1  0.32119496  0.67414545  0.17208986  1
  Na  Na17  1  0.33996786  0.67100772  0.66098136  1
  Hf  Hf0  1  0.67092913  0.34157355  0.97811364  1
  Hf  Hf1  1  0.66785320  0.33450335  0.47962662  1
  Hf  Hf2  1  0.33574258  0.67393616  0.81829930  1
  Zn  Zn0  1  0.00714490  0.99607312  0.34987251  1
  Zn  Zn1  1  0.99447507  0.00381369  0.85075398  1
  Zn  Zn2  1  0.99189774  0.01116713  0.65588274  1
  Zn  Zn3  1  0.00827353  0.99352056  0.15318501  1
  Zn  Zn4  1  0.65914465  0.32570553  0.68292518  1
  Zn  Zn5  1  0.67357027  0.34582289  0.18014686  1
  Zn  Zn6  1  0.32725763  0.66405944  0.00960379  1
  Zn  Zn7  1  0.33129288  0.66372315  0.50482569  1
  Zn  Zn8  1  0.33486557  0.67996969  0.32584060  1
  P  P0  1  0.30114453  0.29972990  0.75100152  1
  P  P1  1  0.70041986  0.00065331  0.74782459  1
  P  P2  1  0.96576273  0.33592951  0.58660317  1
  P  P3  1  0.66830328  0.63185090  0.58646884  1
  P  P4  1  0.96444200  0.62945120  0.08574427  1
  P  P5  1  0.36922486  0.33364831  0.08657498  1
  P  P6  1  0.63457698  0.67434905  0.91990320  1
  P  P7  1  0.03338233  0.36523017  0.91872902  1
  P  P8  1  0.32920494  0.96580880  0.92219555  1
  P  P9  1  0.63354323  0.96396013  0.41829020  1
  P  P10  1  0.33113032  0.36568282  0.41513957  1
  P  P11  1  0.03808374  0.67058410  0.41888542  1
  S  S0  1  0.30325357  0.99916119  0.24817953  1
  S  S1  1  0.69744560  0.70053267  0.24956769  1
  S  S2  1  0.99834884  0.29741641  0.24895620  1
  S  S3  1  0.00524585  0.70730015  0.74886937  1
  S  S4  1  0.36933734  0.03532864  0.58512864  1
  S  S5  1  0.66696270  0.04135800  0.08588937  1
  O  O0  1  0.20730136  0.02066194  0.29830357  1
  O  O1  1  0.79406271  0.78969509  0.30462805  1
  O  O2  1  0.98812493  0.19944594  0.30492144  1
  O  O3  1  0.21470964  0.19846140  0.80836655  1
  O  O4  1  0.99081671  0.79937257  0.80078021  1
  O  O5  1  0.82148082  0.02526808  0.79947101  1
  O  O6  1  0.76129484  0.95677005  0.68759521  1
  O  O7  1  0.19420865  0.22174836  0.69237567  1
  O  O8  1  0.02401554  0.79731392  0.69046332  1
  O  O9  1  0.78485996  0.79425837  0.19300110  1
  O  O10  1  0.01306192  0.20880929  0.19347650  1
  O  O11  1  0.21524561  0.98294643  0.18879745  1
  O  O12  1  0.88203231  0.35434315  0.64459917  1
  O  O13  1  0.46831104  0.11344107  0.64014917  1
  O  O14  1  0.64717713  0.52616192  0.64404726  1
  O  O15  1  0.88512471  0.51543710  0.14135744  1
  O  O16  1  0.64453604  0.12151033  0.14041639  1
  O  O17  1  0.47222427  0.35398482  0.14450090  1
  O  O18  1  0.46785610  0.31471946  0.03050858  1
  O  O19  1  0.84868672  0.53183766  0.02944560  1
  O  O20  1  0.68263646  0.14879906  0.03097796  1
  O  O21  1  0.46246943  0.14273927  0.53085333  1
  O  O22  1  0.67612237  0.52821449  0.53011045  1
  O  O23  1  0.84918253  0.31948548  0.53094214  1
  O  O24  1  0.55318072  0.68882388  0.97882771  1
  O  O25  1  0.13501322  0.44760383  0.97673067  1
  O  O26  1  0.31953641  0.87502793  0.98198033  1
  O  O27  1  0.55597337  0.86353872  0.47790970  1
  O  O28  1  0.30414864  0.44367542  0.47401096  1
  O  O29  1  0.13074548  0.69172864  0.47974953  1
  O  O30  1  0.11843691  0.62582916  0.36630181  1
  O  O31  1  0.52466252  0.88177696  0.36302184  1
  O  O32  1  0.36925446  0.48280893  0.35938333  1
  O  O33  1  0.12808851  0.47977374  0.86209383  1
  O  O34  1  0.34577987  0.86287735  0.86813814  1
  O  O35  1  0.51228501  0.64730769  0.86481595  1
  O  O36  1  0.00048099  0.81783815  0.41077973  1
  O  O37  1  0.81640747  0.98948708  0.41324037  1
  O  O38  1  0.17329709  0.18769831  0.40897353  1
  O  O39  1  0.01658810  0.18878950  0.91337688  1
  O  O40  1  0.17792980  0.99495574  0.91474320  1
  O  O41  1  0.81325136  0.82021738  0.91054382  1
  O  O42  1  0.98084033  0.17160333  0.58502064  1
  O  O43  1  0.19992684  0.02451719  0.58544367  1
  O  O44  1  0.83706628  0.80552144  0.58496041  1
  O  O45  1  0.96794547  0.80381730  0.08711641  1
  O  O46  1  0.82529267  0.02965952  0.08658619  1
  O  O47  1  0.19026639  0.16968435  0.08657041  1
  O  O48  1  0.68434340  0.16252616  0.74394882  1
  O  O49  1  0.48698609  0.33630559  0.74753140  1
  O  O50  1  0.85302284  0.53243787  0.74883648  1
  O  O51  1  0.67750851  0.52444969  0.25034419  1
  O  O52  1  0.84491540  0.31555878  0.24700961  1
  O  O53  1  0.47347776  0.15926069  0.24742147  1
  O  O54  1  0.63227061  0.49721328  0.92048338  1
  O  O55  1  0.85418970  0.35076823  0.92053397  1
  O  O56  1  0.49572538  0.14714562  0.92078430  1
  O  O57  1  0.66149536  0.15126158  0.42308919  1
  O  O58  1  0.49646990  0.35058973  0.42270945  1
  O  O59  1  0.85301732  0.50399029  0.42375077  1
  O  O60  1  0.35264839  0.49584523  0.08078304  1
  O  O61  1  0.14631043  0.65670423  0.07937987  1
  O  O62  1  0.51619617  0.86812879  0.08121930  1
  O  O63  1  0.34924618  0.86246301  0.58006645  1
  O  O64  1  0.50993152  0.65410627  0.58167047  1
  O  O65  1  0.14368524  0.49743539  0.58080738  1
  O  O66  1  0.32114313  0.84553125  0.25484273  1
  O  O67  1  0.52296694  0.67909617  0.24991579  1
  O  O68  1  0.15832672  0.46704058  0.25041360  1
  O  O69  1  0.31392352  0.48382447  0.75515559  1
  O  O70  1  0.15918358  0.68253448  0.75392877  1
  O  O71  1  0.51938723  0.83797317  0.75794828  1
loop_
_geom_bond_atom_site_label_1
_geom_bond_atom_site_label_2
_geom_bond_distance
_geom_bond_site_symmetry_2
Na0 O67 2.437953 1_555
Na0 O68 2.443931 1_555
Na0 O51 2.456209 1_555
Na0 O53 2.525792 1_555
Na0 O32 2.562194 1_555
Na0 O17 2.612684 1_555
Na0 O0 2.894967 1_555
Na0 O10 3.068054 1_555
Na1 O49 2.354969 1_555
Na1 O14 2.382472 1_555
Na1 O50 2.505642 1_555
Na1 O71 2.598409 1_555
Na1 O69 2.608749 1_555
Na1 O6 2.796549 1_555
Na1 O35 2.990248 1_555
Na1 O4 3.029159 1_555
Na2 O48 2.435222 1_555
Na2 O12 2.479867 1_555
Na2 O69 2.540870 1_655
Na2 O50 2.561288 1_555
Na2 O70 2.643016 1_655
Na2 O5 2.765674 1_555
Na2 O33 2.835243 1_655
Na2 O7 2.839524 1_655
Na3 O65 2.389519 1_555
Na3 O42 2.469987 1_455
Na3 O64 2.494451 1_555
Na3 O43 2.562955 1_555
Na3 O7 2.583289 1_555
Na3 O28 2.588878 1_555
Na3 O14 3.067081 1_555
Na3 O21 3.123183 1_555
Na4 O29 2.389348 1_555
Na4 O44 2.412647 1_455
Na4 O65 2.465929 1_555
Na4 O63 2.491827 1_555
Na4 O43 2.569346 1_565
Na4 O8 2.624652 1_555
Na4 O22 3.007309 1_455
Na4 O12 3.040621 1_455
Na5 O64 2.380046 1_555
Na5 O27 2.466917 1_555
Na5 O44 2.475224 1_555
Na5 O42 2.478310 1_565
Na5 O6 2.501387 1_555
Na5 O63 2.615767 1_555
Na5 O23 3.030746 1_565
Na5 O13 3.127334 1_565
Na6 O26 2.343731 1_554
Na6 O61 2.378011 1_555
Na6 O47 2.467369 1_565
Na6 O45 2.526916 1_455
Na6 O11 2.546795 1_555
Na6 O62 2.576095 1_555
Na6 O18 2.971265 1_565
Na6 O16 3.111056 1_565
Na7 O60 2.453443 1_555
Na7 O45 2.455446 1_555
Na7 O24 2.471872 1_554
Na7 O62 2.472782 1_555
Na7 O46 2.610082 1_565
Na7 O9 2.655383 1_555
Na7 O19 3.004706 1_555
Na7 O17 3.011687 1_555
Na8 O60 2.391267 1_555
Na8 O47 2.479059 1_555
Na8 O61 2.505569 1_555
Na8 O25 2.518232 1_554
Na8 O46 2.534459 1_455
Na8 O10 2.651588 1_555
Na8 O15 2.912419 1_455
Na8 O20 3.106607 1_455
Na9 O40 2.348905 1_545
Na9 O3 2.401900 1_555
Na9 O39 2.416189 1_555
Na9 O54 2.506777 1_555
Na9 O56 2.549625 1_555
Na9 O35 2.928708 1_555
Na9 O18 2.971449 1_556
Na9 O25 3.043738 1_555
Na10 O38 2.434876 1_655
Na10 O37 2.466277 1_545
Na10 O2 2.468117 1_555
Na10 O57 2.538008 1_555
Na10 O59 2.617577 1_555
Na10 O30 2.683701 1_655
Na10 O28 2.938279 1_655
Na10 O23 3.008768 1_555
Na11 O36 2.408415 1_655
Na11 O37 2.455523 1_555
Na11 O1 2.465107 1_555
Na11 O58 2.607544 1_555
Na11 O59 2.632513 1_555
Na11 O32 2.787819 1_555
Na11 O27 2.976960 1_555
Na11 O22 2.987608 1_555
Na11 O31 3.082677 1_555
Na12 O36 2.439724 1_545
Na12 O38 2.456001 1_555
Na12 O37 2.457052 1_445
Na12 O43 2.605932 1_555
Na12 O44 2.612504 1_445
Na12 O42 2.637061 1_455
Na13 O41 2.346026 1_555
Na13 O40 2.352535 1_655
Na13 O39 2.448882 1_665
Na13 O45 2.609158 1_556
Na13 O46 2.741650 1_566
Na13 O47 2.764487 1_666
Na14 O48 2.312041 1_555
Na14 O49 2.424959 1_555
Na14 O56 2.482319 1_555
Na14 O50 2.635358 1_555
Na14 O55 2.658323 1_555
Na14 O54 2.800471 1_555
Na15 O52 2.336613 1_555
Na15 O53 2.337342 1_555
Na15 O51 2.491096 1_555
Na15 O57 2.593030 1_555
Na15 O58 2.785012 1_555
Na15 O59 2.794144 1_555
Na16 O66 2.398872 1_555
Na16 O68 2.426206 1_555
Na16 O67 2.494463 1_555
Na16 O61 2.546906 1_555
Na16 O62 2.664063 1_555
Na16 O60 2.686330 1_555
Na17 O64 2.385031 1_555
Na17 O65 2.450230 1_555
Na17 O63 2.453741 1_555
Na17 O69 2.610163 1_555
Na17 O70 2.658199 1_555
Na17 O71 2.662673 1_555
Hf0 O19 2.022881 1_556
Hf0 O54 2.048346 1_555
Hf0 O55 2.057817 1_555
Hf0 O18 2.080424 1_556
Hf0 O56 2.109274 1_555
Hf0 O20 2.138628 1_556
Hf1 O59 2.025180 1_555
Hf1 O22 2.047322 1_555
Hf1 O57 2.054180 1_555
Hf1 O23 2.055558 1_555
Hf1 O58 2.058788 1_555
Hf1 O21 2.123699 1_555
Hf2 O34 1.997330 1_555
Hf2 O35 2.013755 1_555
Hf2 O33 2.060292 1_555
Hf2 O71 2.064523 1_555
Hf2 O69 2.147059 1_555
Hf2 O70 2.170818 1_555
O0 S0 1.478123 1_545
O0 Zn0 2.055239 1_545
O1 S1 1.483261 1_555
O1 Zn0 2.152113 1_655
O2 S2 1.492825 1_555
O2 Zn0 2.165650 1_645
O3 P0 1.526242 1_555
O3 Zn1 2.105988 1_455
O4 S3 1.461746 1_655
O4 Zn1 2.140201 1_565
O5 P1 1.521351 1_555
O5 Zn1 2.019993 1_555
O6 P1 1.564918 1_565
O6 Zn2 2.016349 1_565
O7 P0 1.562077 1_555
O7 Zn2 2.041315 1_455
O8 S3 1.485591 1_555
O8 Zn2 2.224072 1_465
O9 S1 1.491800 1_555
O9 Zn3 2.112425 1_655
O10 S2 1.507086 1_455
O10 Zn3 2.121601 1_545
O11 S0 1.504624 1_555
O11 Zn3 2.079266 1_555
O12 P2 1.538532 1_555
O12 Zn4 2.081398 1_555
O13 S4 1.468399 1_555
O13 Zn4 2.066589 1_555
O14 P3 1.540305 1_555
O14 Zn4 2.051800 1_555
O15 P4 1.528329 1_555
O15 Zn5 1.952907 1_555
O16 S5 1.471941 1_555
O16 Zn5 2.103403 1_555
O17 P5 1.540818 1_555
O17 Zn5 2.021874 1_555
O18 P5 1.584420 1_555
O19 P4 1.584989 1_555
O20 S5 1.511765 1_555
O21 S4 1.504156 1_555
O22 P3 1.582213 1_555
O23 P2 1.579885 1_555
O24 P6 1.532296 1_555
O24 Zn6 2.058714 1_556
O25 P7 1.539053 1_555
O25 Zn6 2.000648 1_556
O26 P8 1.530580 1_555
O26 Zn6 2.032420 1_556
O27 P9 1.550230 1_555
O27 Zn7 2.020323 1_555
O28 P10 1.556442 1_555
O28 Zn7 1.998800 1_555
O29 P11 1.546637 1_555
O29 Zn7 2.032044 1_555
O30 P11 1.528089 1_555
O30 Zn8 1.979223 1_555
O31 P9 1.514318 1_555
O31 Zn8 1.960621 1_555
O32 P10 1.542490 1_555
O32 Zn8 2.087799 1_555
O33 P7 1.572746 1_555
O34 P8 1.567648 1_555
O35 P6 1.581859 1_555
O36 P11 1.538101 1_555
O36 Zn0 2.071291 1_555
O37 P9 1.558137 1_555
O37 Zn0 2.199140 1_655
O38 P10 1.535822 1_555
O38 Zn0 2.095076 1_545
O39 P7 1.528271 1_555
O39 Zn1 2.103809 1_455
O40 P8 1.527473 1_555
O40 Zn1 2.213935 1_465
O41 P6 1.506819 1_555
O41 Zn1 2.110344 1_565
O42 P2 1.556914 1_555
O42 Zn2 2.164675 1_555
O43 S4 1.488198 1_555
O43 Zn2 2.397522 1_455
O44 P3 1.551996 1_555
O44 Zn2 2.302154 1_565
O45 P4 1.559385 1_555
O45 Zn3 2.142882 1_655
O46 S5 1.489575 1_555
O46 Zn3 2.357430 1_645
O47 P5 1.558509 1_555
O47 Zn3 2.185390 1_545
O48 P1 1.541534 1_555
O48 Zn4 2.088194 1_555
O49 P0 1.547228 1_555
O49 Zn4 2.149210 1_555
O50 S3 1.491872 1_655
O50 Zn4 2.333972 1_555
O51 S1 1.508291 1_555
O51 Zn5 2.228470 1_555
O52 S2 1.478796 1_555
O52 Zn5 2.255771 1_555
O53 S0 1.498979 1_545
O53 Zn5 2.294067 1_555
O54 P6 1.589257 1_555
O55 P7 1.562516 1_655
O56 P8 1.580045 1_545
O57 P9 1.584552 1_545
O58 P10 1.578906 1_555
O59 P11 1.603402 1_655
O60 P5 1.549796 1_555
O60 Zn6 2.272050 1_555
O61 P4 1.545654 1_455
O61 Zn6 2.224416 1_555
O62 S5 1.481918 1_565
O62 Zn6 2.389884 1_555
O63 S4 1.483460 1_565
O63 Zn7 2.395494 1_555
O64 P3 1.548094 1_555
O64 Zn7 2.377111 1_555
O65 P2 1.548335 1_455
O65 Zn7 2.321534 1_555
O66 S0 1.481554 1_555
O66 Zn8 2.208391 1_555
O67 S1 1.493371 1_555
O67 Zn8 2.391395 1_555
O68 S2 1.495476 1_455
O68 Zn8 2.448454 1_555
O69 P0 1.610841 1_555
O70 S3 1.522268 1_555
O71 P1 1.579200 1_565
