# generated using pymatgen
data_Ho2MgCuO4
_symmetry_space_group_name_H-M   'P 1'
_cell_length_a   8.78041298
_cell_length_b   8.78041298
_cell_length_c   8.78041298
_cell_angle_alpha   153.35083055
_cell_angle_beta   153.35083055
_cell_angle_gamma   38.04385289
_symmetry_Int_Tables_number   1
_chemical_formula_structural   Ho2MgCuO4
_chemical_formula_sum   'Ho2 Mg1 Cu1 O4'
_cell_volume   135.96784676
_cell_formula_units_Z   1
loop_
 _symmetry_equiv_pos_site_id
 _symmetry_equiv_pos_as_xyz
  1  'x, y, z'
loop_
 _atom_site_type_symbol
 _atom_site_label
 _atom_site_symmetry_multiplicity
 _atom_site_fract_x
 _atom_site_fract_y
 _atom_site_fract_z
 _atom_site_occupancy
  Ho  Ho0  1  0.30670600  0.30670600  0.00000000  1
  Ho  Ho1  1  0.69329400  0.69329400  0.00000000  1
  Mg  Mg0  1  0.50000000  0.50000000  0.00000000  1
  Cu  Cu0  1  0.00000000  0.00000000  0.00000000  1
  O  O0  1  0.50000000  0.00000000  0.50000000  1
  O  O1  1  0.75000000  0.25000000  0.50000000  1
  O  O2  1  0.00000000  0.50000000  0.50000000  1
  O  O3  1  0.25000000  0.75000000  0.50000000  1
loop_
_geom_bond_atom_site_label_1
_geom_bond_atom_site_label_2
_geom_bond_distance
_geom_bond_site_symmetry_2
Ho0 O3 2.231868 1_555
Ho0 O3 2.231868 1_544
Ho0 O1 2.231868 1_454
Ho0 O1 2.231868 1_555
Ho1 O1 2.231868 1_565
Ho1 O3 2.231868 1_554
Ho1 O3 2.231868 1_655
Ho1 O1 2.231868 1_554
Mg0 O0 2.023598 1_565
Mg0 O2 2.023598 1_655
Mg0 O2 2.023598 1_554
Mg0 O0 2.023598 1_554
Cu0 O0 2.023598 1_555
Cu0 O2 2.023598 1_544
Cu0 O2 2.023598 1_555
Cu0 O0 2.023598 1_454
