# generated using pymatgen
data_ScPd
_symmetry_space_group_name_H-M   'P 1'
_cell_length_a   6.59893260
_cell_length_b   6.59893260
_cell_length_c   6.59893260
_cell_angle_alpha   90.00000000
_cell_angle_beta   90.00000000
_cell_angle_gamma   90.00000000
_symmetry_Int_Tables_number   1
_chemical_formula_structural   ScPd
_chemical_formula_sum   'Sc8 Pd8'
_cell_volume   287.35653473
_cell_formula_units_Z   8
loop_
 _symmetry_equiv_pos_site_id
 _symmetry_equiv_pos_as_xyz
  1  'x, y, z'
loop_
 _atom_site_type_symbol
 _atom_site_label
 _atom_site_symmetry_multiplicity
 _atom_site_fract_x
 _atom_site_fract_y
 _atom_site_fract_z
 _atom_site_occupancy
  Sc  Sc0_0  1  0.25000000  0.25000000  0.25000000  1
  Sc  Sc0_1  1  0.25000000  0.25000000  0.75000000  1
  Sc  Sc0_2  1  0.25000000  0.75000000  0.25000000  1
  Sc  Sc0_3  1  0.25000000  0.75000000  0.75000000  1
  Sc  Sc0_4  1  0.75000000  0.25000000  0.25000000  1
  Sc  Sc0_5  1  0.75000000  0.25000000  0.75000000  1
  Sc  Sc0_6  1  0.75000000  0.75000000  0.25000000  1
  Sc  Sc0_7  1  0.75000000  0.75000000  0.75000000  1
  Pd  Pd0_0  1  0.00000000  0.00000000  0.00000000  1
  Pd  Pd0_1  1  0.00000000  0.00000000  0.50000000  1
  Pd  Pd0_2  1  0.00000000  0.50000000  0.00000000  1
  Pd  Pd0_3  1  0.00000000  0.50000000  0.50000000  1
  Pd  Pd0_4  1  0.50000000  0.00000000  0.00000000  1
  Pd  Pd0_5  1  0.50000000  0.00000000  0.50000000  1
  Pd  Pd0_6  1  0.50000000  0.50000000  0.00000000  1
  Pd  Pd0_7  1  0.50000000  0.50000000  0.50000000  1
loop_
_geom_bond_atom_site_label_1
_geom_bond_atom_site_label_2
_geom_bond_distance
_geom_bond_site_symmetry_2
Sc0_0 Sc0_2 3.299466 1_555
Sc0_0 Sc0_4 3.299466 1_555
Sc0_0 Sc0_2 3.299466 1_545
Sc0_0 Sc0_1 3.299466 1_554
Sc0_0 Sc0_1 3.299466 1_555
Sc0_0 Sc0_4 3.299466 1_455
Sc0_1 Sc0_3 3.299466 1_555
Sc0_1 Sc0_5 3.299466 1_555
Sc0_1 Sc0_3 3.299466 1_545
Sc0_1 Sc0_5 3.299466 1_455
Sc0_2 Sc0_3 3.299466 1_555
Sc0_2 Sc0_6 3.299466 1_555
Sc0_2 Sc0_6 3.299466 1_455
Sc0_2 Sc0_3 3.299466 1_554
Sc0_3 Sc0_7 3.299466 1_555
Sc0_3 Sc0_7 3.299466 1_455
Sc0_4 Sc0_6 3.299466 1_545
Sc0_4 Sc0_5 3.299466 1_555
Sc0_4 Sc0_5 3.299466 1_554
Sc0_4 Sc0_6 3.299466 1_555
Sc0_5 Sc0_7 3.299466 1_555
Sc0_5 Sc0_7 3.299466 1_545
Sc0_6 Sc0_7 3.299466 1_555
Sc0_6 Sc0_7 3.299466 1_554
Pd0_0 Sc0_6 2.857422 1_445
Pd0_0 Sc0_7 2.857422 1_444
Pd0_0 Sc0_5 2.857422 1_454
Pd0_0 Sc0_0 2.857422 1_555
Pd0_0 Sc0_4 2.857422 1_455
Pd0_0 Sc0_2 2.857422 1_545
Pd0_0 Sc0_1 2.857422 1_554
Pd0_0 Sc0_3 2.857422 1_544
Pd0_0 Pd0_4 3.299466 1_455
Pd0_0 Pd0_2 3.299466 1_545
Pd0_0 Pd0_1 3.299466 1_554
Pd0_0 Pd0_4 3.299466 1_555
Pd0_0 Pd0_1 3.299466 1_555
Pd0_0 Pd0_2 3.299466 1_555
Pd0_1 Sc0_5 2.857422 1_455
Pd0_1 Sc0_6 2.857422 1_445
Pd0_1 Sc0_7 2.857422 1_445
Pd0_1 Sc0_2 2.857422 1_545
Pd0_1 Sc0_0 2.857422 1_555
Pd0_1 Sc0_3 2.857422 1_545
Pd0_1 Sc0_4 2.857422 1_455
Pd0_1 Sc0_1 2.857422 1_555
Pd0_1 Pd0_3 3.299466 1_555
Pd0_1 Pd0_5 3.299466 1_455
Pd0_1 Pd0_3 3.299466 1_545
Pd0_1 Pd0_5 3.299466 1_555
Pd0_2 Sc0_7 2.857422 1_454
Pd0_2 Sc0_5 2.857422 1_454
Pd0_2 Sc0_0 2.857422 1_555
Pd0_2 Sc0_2 2.857422 1_555
Pd0_2 Sc0_6 2.857422 1_455
Pd0_2 Sc0_3 2.857422 1_554
Pd0_2 Sc0_4 2.857422 1_455
Pd0_2 Sc0_1 2.857422 1_554
Pd0_2 Pd0_3 3.299466 1_554
Pd0_2 Pd0_6 3.299466 1_555
Pd0_2 Pd0_3 3.299466 1_555
Pd0_2 Pd0_6 3.299466 1_455
Pd0_3 Sc0_5 2.857422 1_455
Pd0_3 Sc0_3 2.857422 1_555
Pd0_3 Sc0_2 2.857422 1_555
Pd0_3 Sc0_0 2.857422 1_555
Pd0_3 Sc0_6 2.857422 1_455
Pd0_3 Sc0_7 2.857422 1_455
Pd0_3 Sc0_4 2.857422 1_455
Pd0_3 Sc0_1 2.857422 1_555
Pd0_3 Pd0_7 3.299466 1_455
Pd0_3 Pd0_7 3.299466 1_555
Pd0_4 Sc0_6 2.857422 1_545
Pd0_4 Sc0_5 2.857422 1_554
Pd0_4 Sc0_7 2.857422 1_544
Pd0_4 Sc0_0 2.857422 1_555
Pd0_4 Sc0_4 2.857422 1_555
Pd0_4 Sc0_2 2.857422 1_545
Pd0_4 Sc0_1 2.857422 1_554
Pd0_4 Sc0_3 2.857422 1_544
Pd0_4 Pd0_6 3.299466 1_555
Pd0_4 Pd0_6 3.299466 1_545
Pd0_4 Pd0_5 3.299466 1_554
Pd0_4 Pd0_5 3.299466 1_555
Pd0_5 Sc0_6 2.857422 1_545
Pd0_5 Sc0_5 2.857422 1_555
Pd0_5 Sc0_7 2.857422 1_545
Pd0_5 Sc0_0 2.857422 1_555
Pd0_5 Sc0_4 2.857422 1_555
Pd0_5 Sc0_2 2.857422 1_545
Pd0_5 Sc0_1 2.857422 1_555
Pd0_5 Sc0_3 2.857422 1_545
Pd0_5 Pd0_7 3.299466 1_545
Pd0_5 Pd0_7 3.299466 1_555
Pd0_6 Sc0_7 2.857422 1_554
Pd0_6 Sc0_5 2.857422 1_554
Pd0_6 Sc0_0 2.857422 1_555
Pd0_6 Sc0_2 2.857422 1_555
Pd0_6 Sc0_3 2.857422 1_554
Pd0_6 Sc0_4 2.857422 1_555
Pd0_6 Sc0_6 2.857422 1_555
Pd0_6 Sc0_1 2.857422 1_554
Pd0_6 Pd0_7 3.299466 1_554
Pd0_6 Pd0_7 3.299466 1_555
Pd0_7 Sc0_3 2.857422 1_555
Pd0_7 Sc0_5 2.857422 1_555
Pd0_7 Sc0_7 2.857422 1_555
Pd0_7 Sc0_2 2.857422 1_555
Pd0_7 Sc0_0 2.857422 1_555
Pd0_7 Sc0_4 2.857422 1_555
Pd0_7 Sc0_6 2.857422 1_555
Pd0_7 Sc0_1 2.857422 1_555
