# generated using pymatgen
data_Na2Zn2Si3Ge6(S3O16)3
_symmetry_space_group_name_H-M   'P 1'
_cell_length_a   16.97212230
_cell_length_b   8.49189250
_cell_length_c   22.08479704
_cell_angle_alpha   90.10891294
_cell_angle_beta   89.27193187
_cell_angle_gamma   120.09402101
_symmetry_Int_Tables_number   1
_chemical_formula_structural   Na2Zn2Si3Ge6(S3O16)3
_chemical_formula_sum   'Na6 Zn6 Si9 Ge18 S27 O144'
_cell_volume   2753.66803602
_cell_formula_units_Z   3
loop_
 _symmetry_equiv_pos_site_id
 _symmetry_equiv_pos_as_xyz
  1  'x, y, z'
loop_
 _atom_site_type_symbol
 _atom_site_label
 _atom_site_symmetry_multiplicity
 _atom_site_fract_x
 _atom_site_fract_y
 _atom_site_fract_z
 _atom_site_occupancy
  Na  Na0  1  0.00128028  0.99412467  0.49677438  1
  Na  Na1  1  0.50008472  0.00773501  0.99921859  1
  Na  Na2  1  0.33166693  0.32809454  0.83561474  1
  Na  Na3  1  0.83415836  0.33401579  0.83517523  1
  Na  Na4  1  0.32747939  0.32540947  0.33250794  1
  Na  Na5  1  0.83267931  0.33637789  0.33418117  1
  Zn  Zn0  1  0.00701419  0.98903893  0.35306932  1
  Zn  Zn1  1  0.50027707  0.01227070  0.85533380  1
  Zn  Zn2  1  0.00342525  0.01152689  0.65140436  1
  Zn  Zn3  1  0.50267012  0.99414682  0.15255340  1
  Zn  Zn4  1  0.83610572  0.33352603  0.98291008  1
  Zn  Zn5  1  0.33461969  0.33520034  0.47977296  1
  Si  Si0  1  0.14758829  0.00152785  0.25045353  1
  Si  Si1  1  0.64540755  0.99207869  0.24886161  1
  Si  Si2  1  0.14567752  0.29930644  0.74906369  1
  Si  Si3  1  0.69035813  0.04157324  0.58145401  1
  Si  Si4  1  0.18925396  0.33831616  0.08087936  1
  Si  Si5  1  0.52175979  0.38040510  0.91989649  1
  Si  Si6  1  0.16441283  0.94121193  0.91712183  1
  Si  Si7  1  0.66277549  0.38532298  0.41644780  1
  Si  Si8  1  0.02051157  0.66278225  0.41968444  1
  Ge  Ge0  1  0.51246400  0.02024023  0.35353601  1
  Ge  Ge1  1  0.01427029  0.00763926  0.85601937  1
  Ge  Ge2  1  0.50496576  0.00207629  0.64386776  1
  Ge  Ge3  1  0.01405293  0.00807488  0.14707005  1
  Ge  Ge4  1  0.32440837  0.32590639  0.68435574  1
  Ge  Ge5  1  0.83237434  0.32412628  0.67956979  1
  Ge  Ge6  1  0.32388134  0.33541916  0.18448605  1
  Ge  Ge7  1  0.82732235  0.32359009  0.18627379  1
  Ge  Ge8  1  0.32571877  0.31159445  0.97668786  1
  Ge  Ge9  1  0.82426098  0.33667881  0.47449329  1
  Ge  Ge10  1  0.16517466  0.66869130  0.02384775  1
  Ge  Ge11  1  0.66342396  0.65711875  0.02281927  1
  Ge  Ge12  1  0.16514401  0.67181790  0.51718019  1
  Ge  Ge13  1  0.66486074  0.66819409  0.51955449  1
  Ge  Ge14  1  0.15599598  0.66755365  0.31077830  1
  Ge  Ge15  1  0.66901671  0.66617974  0.31104377  1
  Ge  Ge16  1  0.16782869  0.66660535  0.81380748  1
  Ge  Ge17  1  0.66095865  0.66253944  0.81609171  1
  S  S0  1  0.35302566  0.71032120  0.25300865  1
  S  S1  1  0.85510404  0.70987404  0.24674752  1
  S  S2  1  0.99934743  0.28959915  0.24918409  1
  S  S3  1  0.49948006  0.29461189  0.25005054  1
  S  S4  1  0.64844536  0.29641563  0.74900217  1
  S  S5  1  0.99799714  0.70246108  0.74981122  1
  S  S6  1  0.50105953  0.70904039  0.74939402  1
  S  S7  1  0.35595584  0.00191406  0.74694508  1
  S  S8  1  0.85126681  0.99576664  0.75282296  1
  S  S9  1  0.47725385  0.33150745  0.58543392  1
  S  S10  1  0.97910781  0.33637471  0.58053890  1
  S  S11  1  0.18813108  0.03655673  0.58125418  1
  S  S12  1  0.33221547  0.62876571  0.58356070  1
  S  S13  1  0.83304426  0.62346537  0.58258403  1
  S  S14  1  0.47656091  0.61779526  0.08181702  1
  S  S15  1  0.97645906  0.62404577  0.08480118  1
  S  S16  1  0.33389494  0.04407916  0.08268486  1
  S  S17  1  0.83361300  0.03507055  0.08358965  1
  S  S18  1  0.68856092  0.33793927  0.08183367  1
  S  S19  1  0.30976943  0.66459778  0.91809647  1
  S  S20  1  0.81229526  0.67364726  0.91445849  1
  S  S21  1  0.02113426  0.37354385  0.91584502  1
  S  S22  1  0.66830145  0.95265385  0.91766387  1
  S  S23  1  0.31272158  0.95089749  0.41426879  1
  S  S24  1  0.81074406  0.95500826  0.41723232  1
  S  S25  1  0.16765465  0.38655326  0.41630089  1
  S  S26  1  0.52178460  0.66972270  0.41525091  1
  O  O0  1  0.11533774  0.06243323  0.30900788  1
  O  O1  1  0.60489519  0.04256796  0.31002800  1
  O  O2  1  0.41191427  0.79275096  0.30722182  1
  O  O3  1  0.90649194  0.77749475  0.30193172  1
  O  O4  1  0.47715128  0.17412573  0.30559170  1
  O  O5  1  0.97721359  0.17999178  0.30354893  1
  O  O6  1  0.10428982  0.16624762  0.80994731  1
  O  O7  1  0.61237595  0.18270680  0.80283569  1
  O  O8  1  0.48247883  0.78293117  0.80362011  1
  O  O9  1  0.97557627  0.77718197  0.80518181  1
  O  O10  1  0.41005607  0.03902730  0.80109443  1
  O  O11  1  0.90844630  0.03019981  0.80696054  1
  O  O12  1  0.39862906  0.96734208  0.69188353  1
  O  O13  1  0.88476416  0.95848760  0.69723706  1
  O  O14  1  0.08854815  0.22648273  0.68999644  1
  O  O15  1  0.59024256  0.21735532  0.69452750  1
  O  O16  1  0.01303450  0.80750226  0.69511337  1
  O  O17  1  0.51704103  0.82373961  0.69377098  1
  O  O18  1  0.38626828  0.81587426  0.19749646  1
  O  O19  1  0.89563913  0.82627680  0.19189913  1
  O  O20  1  0.01316794  0.20748776  0.19291359  1
  O  O21  1  0.51570219  0.21916626  0.19551901  1
  O  O22  1  0.08269324  0.95436973  0.19068905  1
  O  O23  1  0.58889551  0.95140170  0.18941824  1
  O  O24  1  0.43439837  0.36801072  0.64094409  1
  O  O25  1  0.94236014  0.37704192  0.63936072  1
  O  O26  1  0.24555413  0.11781109  0.63806230  1
  O  O27  1  0.75202143  0.12398370  0.64308896  1
  O  O28  1  0.31418050  0.51183626  0.63959078  1
  O  O29  1  0.81601575  0.50729222  0.63926327  1
  O  O30  1  0.43918727  0.50407188  0.13848372  1
  O  O31  1  0.93454094  0.50160097  0.13955753  1
  O  O32  1  0.31785914  0.12660473  0.13734323  1
  O  O33  1  0.81285638  0.11599111  0.13830477  1
  O  O34  1  0.25342115  0.38558892  0.14050250  1
  O  O35  1  0.74596265  0.37084301  0.13713638  1
  O  O36  1  0.23615032  0.29710283  0.02275917  1
  O  O37  1  0.72872730  0.30811743  0.02721156  1
  O  O38  1  0.42131353  0.52965009  0.02776752  1
  O  O39  1  0.92422365  0.55023553  0.03006945  1
  O  O40  1  0.35261267  0.15824934  0.02661367  1
  O  O41  1  0.85203275  0.14593601  0.02930410  1
  O  O42  1  0.23005846  0.15211930  0.52836394  1
  O  O43  1  0.73758688  0.17725247  0.52440544  1
  O  O44  1  0.35295021  0.55538749  0.53032361  1
  O  O45  1  0.85194893  0.54321190  0.52837600  1
  O  O46  1  0.42301573  0.29408271  0.53164118  1
  O  O47  1  0.92081574  0.31175623  0.52891714  1
  O  O48  1  0.26801810  0.69680904  0.97249235  1
  O  O49  1  0.77437978  0.70955827  0.97044055  1
  O  O50  1  0.07643582  0.44835629  0.97036656  1
  O  O51  1  0.59005066  0.47431469  0.97744748  1
  O  O52  1  0.14736183  0.81666813  0.97736626  1
  O  O53  1  0.65566215  0.84187790  0.97331123  1
  O  O54  1  0.27604533  0.84160749  0.47235377  1
  O  O55  1  0.76951727  0.84064946  0.47328154  1
  O  O56  1  0.15621284  0.47106146  0.47513323  1
  O  O57  1  0.64701330  0.47546242  0.47826039  1
  O  O58  1  0.08739823  0.70912150  0.47891573  1
  O  O59  1  0.57696304  0.70611614  0.47127965  1
  O  O60  1  0.06257668  0.61406479  0.35966655  1
  O  O61  1  0.56405015  0.63635824  0.36151821  1
  O  O62  1  0.25308096  0.86646631  0.36168966  1
  O  O63  1  0.75416065  0.87715740  0.36285376  1
  O  O64  1  0.18505279  0.50165546  0.36150625  1
  O  O65  1  0.68511309  0.51352349  0.35616153  1
  O  O66  1  0.06265917  0.48939702  0.86074186  1
  O  O67  1  0.56324771  0.50622297  0.85686150  1
  O  O68  1  0.18526045  0.85823064  0.85518540  1
  O  O69  1  0.68697113  0.87549507  0.86068163  1
  O  O70  1  0.25488681  0.63129732  0.86215602  1
  O  O71  1  0.75238297  0.63535119  0.85972952  1
  O  O72  1  0.00700583  0.83411384  0.41724958  1
  O  O73  1  0.51111310  0.83146767  0.40845605  1
  O  O74  1  0.40198900  0.96193541  0.40645458  1
  O  O75  1  0.90070789  0.97699162  0.41174259  1
  O  O76  1  0.08350006  0.21342327  0.41500586  1
  O  O77  1  0.57130011  0.18785260  0.40940050  1
  O  O78  1  0.01032376  0.18911290  0.90802451  1
  O  O79  1  0.51212392  0.18496252  0.91529042  1
  O  O80  1  0.07202267  0.95341722  0.91008519  1
  O  O81  1  0.58447157  0.95866756  0.91217010  1
  O  O82  1  0.40023773  0.82398065  0.91232992  1
  O  O83  1  0.90124602  0.84221924  0.90500248  1
  O  O84  1  0.48555869  0.16645738  0.59612847  1
  O  O85  1  0.98492879  0.17184601  0.58589812  1
  O  O86  1  0.09719699  0.00975295  0.58859745  1
  O  O87  1  0.59047363  0.02350922  0.59386472  1
  O  O88  1  0.41320671  0.81201565  0.59454965  1
  O  O89  1  0.91323863  0.80282292  0.58989516  1
  O  O90  1  0.48515439  0.79709189  0.08533195  1
  O  O91  1  0.98239461  0.80259781  0.09327658  1
  O  O92  1  0.41307665  0.02147727  0.08830452  1
  O  O93  1  0.91182646  0.01106727  0.09510697  1
  O  O94  1  0.08818060  0.16057671  0.09105833  1
  O  O95  1  0.59653637  0.18352164  0.08828925  1
  O  O96  1  0.34829680  0.16973601  0.73774643  1
  O  O97  1  0.84323417  0.16606816  0.74712924  1
  O  O98  1  0.24909611  0.31719659  0.74275590  1
  O  O99  1  0.74193291  0.31876237  0.73986509  1
  O  O100  1  0.42118563  0.52292188  0.73985538  1
  O  O101  1  0.91367387  0.51323899  0.74399633  1
  O  O102  1  0.34941050  0.52878565  0.24677418  1
  O  O103  1  0.84647292  0.52450480  0.23788820  1
  O  O104  1  0.41937775  0.32010694  0.24452836  1
  O  O105  1  0.92015697  0.32131870  0.23935554  1
  O  O106  1  0.25102021  0.17954884  0.23936943  1
  O  O107  1  0.74847941  0.18041427  0.24270685  1
  O  O108  1  0.31602208  0.49741381  0.92319485  1
  O  O109  1  0.82157877  0.51196907  0.91951610  1
  O  O110  1  0.42384240  0.37423272  0.92738108  1
  O  O111  1  0.93110606  0.35732888  0.92047422  1
  O  O112  1  0.25390764  0.14282960  0.92161226  1
  O  O113  1  0.74973069  0.13321826  0.92108876  1
  O  O114  1  0.32219241  0.13170996  0.42067451  1
  O  O115  1  0.81548371  0.13375739  0.42374645  1
  O  O116  1  0.24967392  0.36977938  0.42131327  1
  O  O117  1  0.75262767  0.36356237  0.42149325  1
  O  O118  1  0.43204143  0.50440347  0.42131463  1
  O  O119  1  0.92293576  0.47040995  0.42796681  1
  O  O120  1  0.17706865  0.51531471  0.06996952  1
  O  O121  1  0.68700886  0.51438548  0.07837944  1
  O  O122  1  0.06812497  0.64209134  0.08052814  1
  O  O123  1  0.57062543  0.63892389  0.07729581  1
  O  O124  1  0.24892922  0.86538435  0.07626676  1
  O  O125  1  0.74800311  0.85218417  0.07622834  1
  O  O126  1  0.18679840  0.85857721  0.57761823  1
  O  O127  1  0.67610316  0.83893859  0.57061088  1
  O  O128  1  0.24970778  0.64498603  0.57700275  1
  O  O129  1  0.74893127  0.63234450  0.57705562  1
  O  O130  1  0.07164952  0.50220502  0.57649028  1
  O  O131  1  0.56805740  0.49478445  0.58099330  1
  O  O132  1  0.15938743  0.82227307  0.25699991  1
  O  O133  1  0.66066253  0.82180499  0.26451900  1
  O  O134  1  0.25964937  0.67733256  0.26388847  1
  O  O135  1  0.76239329  0.68551878  0.25190005  1
  O  O136  1  0.08489799  0.46886913  0.25381320  1
  O  O137  1  0.58226818  0.47367466  0.25988272  1
  O  O138  1  0.16133899  0.50111065  0.76446700  1
  O  O139  1  0.65856295  0.48056067  0.75587804  1
  O  O140  1  0.07879360  0.68376603  0.75979515  1
  O  O141  1  0.58608833  0.69757584  0.75411161  1
  O  O142  1  0.26461445  0.84066922  0.75185855  1
  O  O143  1  0.75696819  0.83194540  0.76225071  1
loop_
_geom_bond_atom_site_label_1
_geom_bond_atom_site_label_2
_geom_bond_distance
_geom_bond_site_symmetry_2
Na0 O72 2.249294 1_555
Na0 O76 2.453369 1_565
Na0 O75 2.508523 1_455
Na0 O89 2.569343 1_455
Na0 O85 2.573644 1_465
Na0 O86 2.578036 1_565
Na1 O79 2.331299 1_555
Na1 O92 2.482588 1_556
Na1 O95 2.529363 1_556
Na1 O82 2.531465 1_545
Na1 O90 2.535118 1_546
Na1 O81 2.538925 1_545
Na2 O112 2.385249 1_555
Na2 O98 2.473944 1_555
Na2 O110 2.484159 1_555
Na2 O108 2.497643 1_555
Na2 O96 2.629408 1_555
Na2 O100 2.632281 1_555
Na3 O97 2.457825 1_555
Na3 O111 2.458859 1_555
Na3 O113 2.460442 1_555
Na3 O101 2.464806 1_555
Na3 O109 2.470102 1_555
Na3 O99 2.603232 1_555
Na3 O7 3.397680 1_555
Na4 O106 2.428052 1_555
Na4 O102 2.460917 1_555
Na4 O116 2.482455 1_555
Na4 O104 2.490602 1_555
Na4 O114 2.522844 1_555
Na4 O118 2.584252 1_555
Na4 O0 3.193694 1_555
Na5 O117 2.421506 1_555
Na5 O107 2.458173 1_555
Na5 O119 2.501045 1_555
Na5 O115 2.540283 1_555
Na5 O105 2.591658 1_555
Na5 O103 2.598973 1_555
Na5 O3 3.374903 1_555
Na5 O5 3.385278 1_555
Ge0 O1 1.756217 1_555
Ge0 O77 1.773273 1_555
Ge0 O4 1.998705 1_555
Ge0 O73 2.002798 1_545
Ge0 O74 2.035222 1_545
Ge0 O2 2.102654 1_545
Ge1 O80 1.755824 1_545
Ge1 O6 1.756612 1_555
Ge1 O78 1.947632 1_555
Ge1 O83 2.018413 1_445
Ge1 O9 2.059918 1_445
Ge1 O11 2.198116 1_455
Ge2 O87 1.747540 1_555
Ge2 O84 1.908960 1_555
Ge2 O88 1.931922 1_545
Ge2 O17 1.968101 1_545
Ge2 O12 1.971638 1_545
Ge2 O15 2.017053 1_555
Ge3 O22 1.748177 1_545
Ge3 O94 1.767128 1_555
Ge3 O91 1.952654 1_445
Ge3 O20 1.977739 1_555
Ge3 O19 2.060666 1_445
Ge3 O93 2.103038 1_455
Ge4 O98 1.779443 1_555
Ge4 O26 1.901394 1_555
Ge4 O28 1.945657 1_555
Ge4 O24 1.954045 1_555
Ge4 O96 1.967428 1_555
Ge4 O100 2.070462 1_555
Ge5 O27 1.759503 1_555
Ge5 O25 1.895579 1_555
Ge5 O29 1.932211 1_555
Ge5 O99 2.002398 1_555
Ge5 O97 2.079513 1_555
Ge5 O101 2.080005 1_555
Ge6 O106 1.754111 1_555
Ge6 O34 1.759876 1_555
Ge6 O32 2.013130 1_555
Ge6 O30 2.014294 1_555
Ge6 O102 2.017289 1_555
Ge6 O104 2.160736 1_555
Ge7 O107 1.775937 1_555
Ge7 O103 1.939546 1_555
Ge7 O35 1.959793 1_555
Ge7 O33 1.963639 1_555
Ge7 O31 1.964827 1_555
Ge7 O105 1.983603 1_555
Ge8 O36 1.770556 1_556
Ge8 O112 1.816089 1_555
Ge8 O110 1.819316 1_555
Ge8 O40 1.932379 1_556
Ge8 O108 2.045765 1_555
Ge8 O38 2.087932 1_556
Ge9 O43 1.783018 1_555
Ge9 O119 1.789859 1_555
Ge9 O117 1.793263 1_555
Ge9 O45 1.972986 1_555
Ge9 O115 1.996767 1_555
Ge9 O47 2.138632 1_555
Ge10 O120 1.746027 1_555
Ge10 O52 1.765784 1_554
Ge10 O124 1.950417 1_555
Ge10 O122 1.976509 1_555
Ge10 O48 1.980605 1_554
Ge10 O50 2.091658 1_554
Ge11 O51 1.746937 1_554
Ge11 O121 1.907790 1_555
Ge11 O123 1.913224 1_555
Ge11 O125 1.961331 1_555
Ge11 O53 1.972789 1_554
Ge11 O49 2.046540 1_554
Ge12 O58 1.733241 1_555
Ge12 O56 1.878838 1_555
Ge12 O54 1.959143 1_555
Ge12 O126 1.962591 1_555
Ge12 O130 1.992622 1_555
Ge12 O128 2.057806 1_555
Ge13 O57 1.762462 1_555
Ge13 O127 1.769736 1_555
Ge13 O55 1.922230 1_555
Ge13 O59 1.997337 1_555
Ge13 O129 2.055328 1_555
Ge13 O131 2.057561 1_555
Ge14 O132 1.751711 1_555
Ge14 O60 1.766936 1_555
Ge14 O136 1.968318 1_555
Ge14 O134 1.995404 1_555
Ge14 O62 2.020183 1_555
Ge14 O64 2.049333 1_555
Ge15 O133 1.737561 1_555
Ge15 O65 1.764925 1_555
Ge15 O137 1.933458 1_555
Ge15 O135 1.982892 1_555
Ge15 O61 1.994658 1_555
Ge15 O63 2.011261 1_555
Ge16 O138 1.736826 1_555
Ge16 O68 1.757555 1_555
Ge16 O66 1.946845 1_555
Ge16 O70 1.974539 1_555
Ge16 O140 1.998725 1_555
Ge16 O142 2.066541 1_555
Ge17 O67 1.755539 1_555
Ge17 O69 1.907508 1_555
Ge17 O143 1.935219 1_555
Ge17 O71 1.946243 1_555
Ge17 O141 2.000444 1_555
Ge17 O139 2.022048 1_555
O0 Si0 1.582004 1_555
O0 Zn0 1.876992 1_545
O1 Si1 1.658678 1_545
O2 S0 1.499344 1_555
O3 S1 1.448386 1_555
O3 Zn0 2.093079 1_655
O4 S3 1.516299 1_555
O5 S2 1.446073 1_555
O5 Zn0 2.219140 1_645
O6 Si2 1.662503 1_555
O7 S4 1.453859 1_555
O7 Zn1 2.060966 1_555
O8 S6 1.453731 1_555
O8 Zn1 2.144484 1_565
O9 S5 1.506699 1_555
O10 S7 1.452172 1_555
O10 Zn1 2.056153 1_555
O11 S8 1.483366 1_545
O12 S7 1.509616 1_565
O13 S8 1.446277 1_555
O13 Zn2 2.079329 1_665
O14 Si2 1.565892 1_555
O14 Zn2 1.877861 1_555
O15 S4 1.495308 1_555
O16 S5 1.444992 1_455
O16 Zn2 2.062494 1_565
O17 S6 1.504140 1_555
O18 S0 1.450592 1_555
O18 Zn3 2.033843 1_555
O19 S1 1.489656 1_555
O20 S2 1.496295 1_455
O21 S3 1.449891 1_555
O21 Zn3 2.043335 1_545
O22 Si0 1.645654 1_565
O23 Si1 1.568663 1_555
O23 Zn3 1.870920 1_555
O24 S9 1.526444 1_555
O25 S10 1.545808 1_555
O26 S11 1.534061 1_555
O27 Si3 1.654081 1_555
O28 S12 1.516933 1_555
O29 S13 1.527488 1_555
O30 S14 1.507074 1_555
O31 S15 1.513519 1_555
O32 S16 1.483925 1_555
O33 S17 1.511707 1_555
O34 Si4 1.636174 1_555
O35 S18 1.508258 1_555
O36 Si4 1.629487 1_555
O37 S18 1.461209 1_555
O37 Zn4 1.971354 1_554
O38 S14 1.478359 1_555
O39 S15 1.451542 1_555
O39 Zn4 1.995060 1_554
O40 S16 1.503338 1_555
O41 S17 1.456369 1_555
O41 Zn4 2.026226 1_554
O42 S11 1.454897 1_555
O42 Zn5 1.977140 1_555
O43 Si3 1.615879 1_555
O44 S12 1.449507 1_555
O44 Zn5 2.063211 1_555
O45 S13 1.485610 1_555
O46 S9 1.446620 1_555
O46 Zn5 2.062866 1_555
O47 S10 1.463751 1_555
O48 S19 1.480412 1_555
O49 S20 1.486878 1_555
O50 S21 1.470453 1_555
O51 Si5 1.643605 1_555
O52 Si6 1.631293 1_555
O53 S22 1.495527 1_555
O54 S23 1.516329 1_555
O55 S24 1.505335 1_555
O56 S25 1.539704 1_555
O57 Si7 1.647160 1_555
O58 Si8 1.656050 1_555
O59 S26 1.497131 1_555
O60 Si8 1.645545 1_555
O61 S26 1.477820 1_555
O62 S23 1.478495 1_555
O63 S24 1.480260 1_555
O64 S25 1.487602 1_555
O65 Si7 1.637178 1_555
O66 S21 1.494309 1_555
O67 Si5 1.673805 1_555
O68 Si6 1.651318 1_555
O69 S22 1.519320 1_555
O70 S19 1.495884 1_555
O71 S20 1.516160 1_555
O72 Si8 1.583449 1_555
O72 Zn0 1.935656 1_555
O73 S26 1.480822 1_555
O74 S23 1.478164 1_555
O75 S24 1.445834 1_555
O75 Zn0 2.168135 1_655
O76 S25 1.448223 1_555
O76 Zn0 2.177515 1_545
O77 Si7 1.625078 1_555
O78 S21 1.492642 1_555
O79 Si5 1.587201 1_555
O79 Zn1 1.909973 1_555
O80 Si6 1.631850 1_555
O81 S22 1.455638 1_555
O81 Zn1 2.127146 1_565
O82 S19 1.455086 1_555
O82 Zn1 2.062684 1_565
O83 S20 1.482503 1_555
O84 S9 1.496770 1_555
O85 S10 1.454364 1_555
O85 Zn2 2.119560 1_655
O86 S11 1.449660 1_555
O86 Zn2 2.103560 1_555
O87 Si3 1.643198 1_555
O88 S12 1.493948 1_555
O89 S13 1.457431 1_555
O89 Zn2 2.156952 1_665
O90 S14 1.456932 1_555
O90 Zn3 2.143687 1_555
O91 S15 1.480001 1_555
O92 S16 1.456453 1_555
O92 Zn3 2.188471 1_545
O93 S17 1.465773 1_555
O94 Si4 1.632885 1_555
O95 S18 1.456156 1_555
O95 Zn3 2.126129 1_545
O96 S7 1.508874 1_555
O97 S8 1.524693 1_545
O98 Si2 1.688129 1_555
O99 S4 1.511405 1_555
O100 S6 1.495800 1_555
O101 S5 1.531130 1_555
O102 S0 1.517809 1_555
O103 S1 1.518536 1_555
O104 S3 1.486435 1_555
O105 S2 1.515513 1_555
O106 Si0 1.660139 1_555
O107 Si1 1.680951 1_545
O108 S19 1.480375 1_555
O109 S20 1.462967 1_555
O109 Zn4 2.169933 1_555
O110 Si5 1.642427 1_555
O111 S21 1.466013 1_655
O111 Zn4 2.039509 1_555
O112 Si6 1.625889 1_545
O113 S22 1.464213 1_545
O113 Zn4 2.108996 1_555
O114 S23 1.468220 1_545
O114 Zn5 2.089722 1_555
O115 S24 1.486020 1_545
O116 S25 1.474160 1_555
O116 Zn5 2.074828 1_555
O117 Si7 1.630684 1_555
O118 S26 1.469659 1_555
O118 Zn5 2.008862 1_555
O119 Si8 1.650780 1_655
O120 Si4 1.635348 1_555
O121 S18 1.513826 1_555
O122 S15 1.486618 1_455
O123 S14 1.516461 1_555
O124 S16 1.487341 1_565
O125 S17 1.513814 1_565
O126 S11 1.502179 1_565
O127 Si3 1.630728 1_565
O128 S12 1.483083 1_555
O129 S13 1.473423 1_555
O130 S10 1.495587 1_455
O131 S9 1.470016 1_555
O132 Si0 1.638721 1_565
O133 Si1 1.630022 1_555
O134 S0 1.480926 1_555
O135 S1 1.483510 1_555
O136 S2 1.490874 1_455
O137 S3 1.482387 1_555
O138 Si2 1.632916 1_555
O139 S4 1.492751 1_555
O140 S5 1.476613 1_455
O141 S6 1.499227 1_555
O142 S7 1.468849 1_565
O143 S8 1.516552 1_555
