# generated using pymatgen
data_Ca2Fe7O11
_symmetry_space_group_name_H-M   'P 1'
_cell_length_a   3.05927100
_cell_length_b   5.23908390
_cell_length_c   14.43192545
_cell_angle_alpha   99.80959652
_cell_angle_beta   90.00000000
_cell_angle_gamma   106.97570151
_symmetry_Int_Tables_number   1
_chemical_formula_structural   Ca2Fe7O11
_chemical_formula_sum   'Ca2 Fe7 O11'
_cell_volume   217.69469226
_cell_formula_units_Z   1
loop_
 _symmetry_equiv_pos_site_id
 _symmetry_equiv_pos_as_xyz
  1  'x, y, z'
loop_
 _atom_site_type_symbol
 _atom_site_label
 _atom_site_symmetry_multiplicity
 _atom_site_fract_x
 _atom_site_fract_y
 _atom_site_fract_z
 _atom_site_occupancy
  Ca  Ca0  1  0.57889700  0.15779300  0.72412500  1
  Ca  Ca1  1  0.42110300  0.84220700  0.27587500  1
  Fe  Fe0  1  0.63863800  0.27727700  0.14743800  1
  Fe  Fe1  1  0.36136200  0.72272300  0.85256200  1
  Fe  Fe2  1  0.87608600  0.75217200  0.04878100  1
  Fe  Fe3  1  0.12391400  0.24782800  0.95121900  1
  Fe  Fe4  1  0.00000000  0.00000000  0.50000000  1
  Fe  Fe5  1  0.29176600  0.58353200  0.59870600  1
  Fe  Fe6  1  0.70823400  0.41646800  0.40129400  1
  O  O0  1  0.34854700  0.69709500  0.45566600  1
  O  O1  1  0.65145300  0.30290500  0.54433400  1
  O  O2  1  0.06192700  0.12385500  0.37754800  1
  O  O3  1  0.93807300  0.87614500  0.62245200  1
  O  O4  1  0.74753900  0.49507900  0.27305700  1
  O  O5  1  0.25246100  0.50492100  0.72694300  1
  O  O6  1  0.00578800  0.01157600  0.17068400  1
  O  O7  1  0.99421200  0.98842400  0.82931600  1
  O  O8  1  0.24734700  0.49469500  0.08726900  1
  O  O9  1  0.50000000  0.00000000  0.00000000  1
  O  O10  1  0.75265300  0.50530500  0.91273100  1
loop_
_geom_bond_atom_site_label_1
_geom_bond_atom_site_label_2
_geom_bond_distance
_geom_bond_site_symmetry_2
Ca0 O5 2.311217 1_555
Ca0 O5 2.311217 1_655
Ca0 O3 2.397250 1_545
Ca0 O3 2.397250 1_445
Ca0 O7 2.413234 1_545
Ca0 O7 2.413236 1_445
Ca0 O1 2.816651 1_555
Ca0 O10 2.958468 1_555
Ca1 O4 2.311217 1_555
Ca1 O4 2.311217 1_455
Ca1 O2 2.397250 1_565
Ca1 O2 2.397250 1_665
Ca1 O6 2.413234 1_565
Ca1 O6 2.413236 1_665
Ca1 O0 2.816651 1_555
Ca1 O8 2.958468 1_555
Fe0 O4 1.942386 1_555
Fe0 O6 2.093807 1_555
Fe0 O6 2.093809 1_655
Fe0 O8 2.148894 1_555
Fe0 O8 2.148894 1_655
Fe0 O9 2.324804 1_555
Fe1 O5 1.942386 1_555
Fe1 O7 2.093807 1_555
Fe1 O7 2.093809 1_455
Fe1 O10 2.148894 1_555
Fe1 O10 2.148894 1_455
Fe1 O9 2.324804 1_566
Fe2 O6 1.992473 1_665
Fe2 O10 2.126041 1_554
Fe2 O8 2.137326 1_655
Fe2 O8 2.137328 1_555
Fe2 O9 2.165407 1_565
Fe2 O9 2.165408 1_665
Fe3 O7 1.992473 1_445
Fe3 O8 2.126041 1_556
Fe3 O10 2.137326 1_455
Fe3 O10 2.137328 1_555
Fe3 O9 2.165407 1_556
Fe3 O9 2.165408 1_456
Fe4 O2 1.974580 1_555
Fe4 O3 1.974580 1_445
Fe4 O1 2.169536 1_455
Fe4 O0 2.169536 1_545
Fe4 O1 2.169538 1_555
Fe4 O0 2.169538 1_445
Fe5 O5 1.959592 1_555
Fe5 O3 2.104288 1_455
Fe5 O3 2.104291 1_555
Fe5 O1 2.130662 1_455
Fe5 O1 2.130664 1_555
Fe5 O0 2.236925 1_555
Fe6 O4 1.959592 1_555
Fe6 O2 2.104288 1_655
Fe6 O2 2.104291 1_555
Fe6 O0 2.130662 1_655
Fe6 O0 2.130664 1_555
Fe6 O1 2.236925 1_555
