# generated using pymatgen
data_Na10Zn3Si6Ge5(SO8)6
_symmetry_space_group_name_H-M   'P 1'
_cell_length_a   17.55003785
_cell_length_b   8.82185133
_cell_length_c   21.99984599
_cell_angle_alpha   89.63430776
_cell_angle_beta   89.06118612
_cell_angle_gamma   119.78811977
_symmetry_Int_Tables_number   1
_chemical_formula_structural   Na10Zn3Si6Ge5(SO8)6
_chemical_formula_sum   'Na30 Zn9 Si18 Ge15 S18 O144'
_cell_volume   2955.23634772
_cell_formula_units_Z   3
loop_
 _symmetry_equiv_pos_site_id
 _symmetry_equiv_pos_as_xyz
  1  'x, y, z'
loop_
 _atom_site_type_symbol
 _atom_site_label
 _atom_site_symmetry_multiplicity
 _atom_site_fract_x
 _atom_site_fract_y
 _atom_site_fract_z
 _atom_site_occupancy
  Na  Na0  1  0.31870255  0.00496315  0.24620691  1
  Na  Na1  1  0.19229897  0.37076591  0.24645587  1
  Na  Na2  1  0.68937829  0.37118354  0.24510672  1
  Na  Na3  1  0.99763896  0.63175505  0.24947493  1
  Na  Na4  1  0.31475264  0.62053414  0.75332932  1
  Na  Na5  1  0.81613431  0.62195665  0.74992870  1
  Na  Na6  1  0.99346335  0.36358147  0.75008392  1
  Na  Na7  1  0.49547202  0.37616943  0.74350155  1
  Na  Na8  1  0.18635604  0.01012367  0.74974161  1
  Na  Na9  1  0.68858896  0.01337901  0.75105571  1
  Na  Na10  1  0.64942064  0.34351622  0.57787399  1
  Na  Na11  1  0.32513667  0.68909648  0.07935632  1
  Na  Na12  1  0.82672524  0.69064941  0.08520847  1
  Na  Na13  1  0.16366166  0.30890473  0.92140080  1
  Na  Na14  1  0.99283573  0.30629218  0.41944303  1
  Na  Na15  1  0.16424409  0.02727381  0.41973822  1
  Na  Na16  1  0.66344727  0.02566038  0.41460741  1
  Na  Na17  1  0.84546370  0.66922897  0.41897032  1
  Na  Na18  1  0.00166684  0.00296312  0.50208820  1
  Na  Na19  1  0.49160501  0.00164442  0.49685863  1
  Na  Na20  1  0.00235397  0.01167937  0.99949879  1
  Na  Na21  1  0.50179031  0.01879310  0.99629955  1
  Na  Na22  1  0.34057252  0.34676957  0.83466266  1
  Na  Na23  1  0.83434867  0.33397606  0.83257810  1
  Na  Na24  1  0.34162689  0.35981958  0.32941013  1
  Na  Na25  1  0.83179168  0.32902663  0.32979890  1
  Na  Na26  1  0.16561850  0.66174512  0.15990232  1
  Na  Na27  1  0.66143956  0.66582690  0.16164162  1
  Na  Na28  1  0.16412677  0.66311521  0.66084453  1
  Na  Na29  1  0.66038526  0.66650806  0.66060242  1
  Zn  Zn0  1  0.49938032  0.00265989  0.35129863  1
  Zn  Zn1  1  0.33805826  0.35268627  0.68462728  1
  Zn  Zn2  1  0.83604533  0.33765337  0.69193666  1
  Zn  Zn3  1  0.32888329  0.34017911  0.18644223  1
  Zn  Zn4  1  0.83120286  0.33846233  0.18212510  1
  Zn  Zn5  1  0.16409277  0.63702396  0.01174207  1
  Zn  Zn6  1  0.65744709  0.63591035  0.01510776  1
  Zn  Zn7  1  0.15954771  0.65147316  0.51256321  1
  Zn  Zn8  1  0.66394363  0.65363224  0.51529115  1
  Si  Si0  1  0.14471188  0.99207954  0.25333457  1
  Si  Si1  1  0.35941430  0.71475781  0.25277079  1
  Si  Si2  1  0.85761930  0.72269631  0.25054383  1
  Si  Si3  1  0.14333048  0.28945595  0.75048416  1
  Si  Si4  1  0.64105698  0.28707623  0.75220493  1
  Si  Si5  1  0.00550923  0.72203978  0.75461756  1
  Si  Si6  1  0.50080216  0.72587928  0.75058414  1
  Si  Si7  1  0.85429660  0.99119260  0.75155903  1
  Si  Si8  1  0.47693196  0.33147068  0.58626924  1
  Si  Si9  1  0.18330638  0.32504546  0.08516836  1
  Si  Si10  1  0.68429865  0.32792753  0.08630672  1
  Si  Si11  1  0.31577799  0.67780307  0.91682630  1
  Si  Si12  1  0.01049171  0.35766922  0.91834585  1
  Si  Si13  1  0.51773015  0.36762135  0.91625070  1
  Si  Si14  1  0.81310259  0.95779211  0.41824551  1
  Si  Si15  1  0.17066144  0.37613308  0.41699401  1
  Si  Si16  1  0.66110609  0.36594928  0.41865704  1
  Si  Si17  1  0.02495287  0.67001588  0.41740448  1
  Ge  Ge0  1  0.00198210  0.99250674  0.35547237  1
  Ge  Ge1  1  0.99757350  0.00892885  0.84828574  1
  Ge  Ge2  1  0.50103946  0.99938340  0.85581534  1
  Ge  Ge3  1  0.00340179  0.00197822  0.65792652  1
  Ge  Ge4  1  0.50402762  0.01864380  0.64987885  1
  Ge  Ge5  1  0.00894700  0.99204656  0.14942151  1
  Ge  Ge6  1  0.49921082  0.00604250  0.14608879  1
  Ge  Ge7  1  0.33602509  0.35177016  0.97807992  1
  Ge  Ge8  1  0.82783237  0.31769403  0.98226931  1
  Ge  Ge9  1  0.33596252  0.33988857  0.48471253  1
  Ge  Ge10  1  0.83433437  0.33479488  0.47427569  1
  Ge  Ge11  1  0.17358322  0.66981785  0.31658153  1
  Ge  Ge12  1  0.68215728  0.68291609  0.31865725  1
  Ge  Ge13  1  0.15283678  0.63464290  0.81898571  1
  Ge  Ge14  1  0.65556467  0.65671235  0.80870386  1
  S  S0  1  0.64540731  0.98780179  0.25046307  1
  S  S1  1  0.99920772  0.28393328  0.24958223  1
  S  S2  1  0.50414271  0.30091636  0.24998827  1
  S  S3  1  0.35463159  0.99425800  0.75111304  1
  S  S4  1  0.97780196  0.32477122  0.58413822  1
  S  S5  1  0.18296674  0.03934092  0.58572010  1
  S  S6  1  0.68822884  0.04301223  0.58360369  1
  S  S7  1  0.33396313  0.63316363  0.58314191  1
  S  S8  1  0.84057557  0.63281956  0.58426288  1
  S  S9  1  0.48007167  0.62930379  0.08440927  1
  S  S10  1  0.98066815  0.62705217  0.08307852  1
  S  S11  1  0.33549874  0.04847379  0.08491996  1
  S  S12  1  0.83520356  0.04453670  0.08386832  1
  S  S13  1  0.81519521  0.66737137  0.91663338  1
  S  S14  1  0.16493228  0.95255492  0.91619236  1
  S  S15  1  0.66765659  0.95791178  0.91716731  1
  S  S16  1  0.31372439  0.96293513  0.41897977  1
  S  S17  1  0.51960949  0.65700528  0.41653863  1
  O  O0  1  0.09880354  0.03569723  0.31078826  1
  O  O1  1  0.61025184  0.02272705  0.30641401  1
  O  O2  1  0.41326869  0.81129241  0.30999325  1
  O  O3  1  0.91806090  0.81510243  0.30939092  1
  O  O4  1  0.48973549  0.19662280  0.30510433  1
  O  O5  1  0.98725379  0.18572289  0.30723825  1
  O  O6  1  0.10145965  0.16719913  0.81141069  1
  O  O7  1  0.59490569  0.15209811  0.80849511  1
  O  O8  1  0.48279259  0.81529644  0.80858643  1
  O  O9  1  0.98452924  0.81367660  0.81134575  1
  O  O10  1  0.41039468  0.02730607  0.80405712  1
  O  O11  1  0.91958580  0.04139350  0.80824853  1
  O  O12  1  0.39403092  0.96123007  0.69465467  1
  O  O13  1  0.89689687  0.94062543  0.69177542  1
  O  O14  1  0.07576961  0.20711728  0.69270078  1
  O  O15  1  0.58104607  0.21414400  0.68998247  1
  O  O16  1  0.03101035  0.85121941  0.69320704  1
  O  O17  1  0.51909232  0.85235597  0.68850732  1
  O  O18  1  0.40233230  0.84911502  0.18834610  1
  O  O19  1  0.90215255  0.84046716  0.18680529  1
  O  O20  1  0.01493526  0.20011933  0.19596891  1
  O  O21  1  0.52495104  0.21979473  0.19530675  1
  O  O22  1  0.07894126  0.94480214  0.19471493  1
  O  O23  1  0.59081477  0.96732126  0.19632957  1
  O  O24  1  0.43395717  0.34435707  0.64883971  1
  O  O25  1  0.93363830  0.34089164  0.63872693  1
  O  O26  1  0.23283785  0.12397810  0.63990529  1
  O  O27  1  0.73742325  0.12576421  0.63818492  1
  O  O28  1  0.31793325  0.53055284  0.63967190  1
  O  O29  1  0.82778424  0.52167674  0.63799572  1
  O  O30  1  0.44099538  0.52140895  0.13861442  1
  O  O31  1  0.94484028  0.52950473  0.14109234  1
  O  O32  1  0.33033196  0.12757531  0.14218584  1
  O  O33  1  0.82628334  0.12790169  0.13844322  1
  O  O34  1  0.23925803  0.35722963  0.14476299  1
  O  O35  1  0.74003331  0.36368723  0.14708621  1
  O  O36  1  0.23409891  0.29808264  0.02172256  1
  O  O37  1  0.73513576  0.29456199  0.02512839  1
  O  O38  1  0.42353583  0.55092506  0.02891592  1
  O  O39  1  0.92055958  0.53903243  0.03138694  1
  O  O40  1  0.35027149  0.16024830  0.03030688  1
  O  O41  1  0.85160298  0.15811319  0.02710441  1
  O  O42  1  0.22436433  0.14897613  0.52775402  1
  O  O43  1  0.73112919  0.16062065  0.52667159  1
  O  O44  1  0.34793577  0.54344672  0.52824168  1
  O  O45  1  0.85059916  0.54787671  0.52619555  1
  O  O46  1  0.41185582  0.29857321  0.52560997  1
  O  O47  1  0.92561789  0.30407485  0.52659639  1
  O  O48  1  0.28018449  0.71272347  0.97863716  1
  O  O49  1  0.77777379  0.69682811  0.97226527  1
  O  O50  1  0.07670146  0.43474524  0.97203291  1
  O  O51  1  0.57490930  0.43985570  0.97417217  1
  O  O52  1  0.15358559  0.84885842  0.97026112  1
  O  O53  1  0.65915644  0.85509508  0.97086791  1
  O  O54  1  0.27109428  0.85717890  0.47282651  1
  O  O55  1  0.77415471  0.82872600  0.47463732  1
  O  O56  1  0.14138976  0.44400183  0.47408143  1
  O  O57  1  0.64889613  0.44043979  0.48056870  1
  O  O58  1  0.08716828  0.72807055  0.47363112  1
  O  O59  1  0.57283383  0.68775394  0.47024989  1
  O  O60  1  0.06711952  0.61974442  0.35741056  1
  O  O61  1  0.56140997  0.62860873  0.36022737  1
  O  O62  1  0.25751890  0.88560301  0.36208697  1
  O  O63  1  0.74623509  0.88138729  0.35911560  1
  O  O64  1  0.18838875  0.49697448  0.35385973  1
  O  O65  1  0.68688551  0.50355937  0.35760122  1
  O  O66  1  0.05034497  0.47720524  0.85430616  1
  O  O67  1  0.56032326  0.50015815  0.85374790  1
  O  O68  1  0.17809439  0.87121627  0.85909150  1
  O  O69  1  0.68236272  0.88321194  0.85943019  1
  O  O70  1  0.24527292  0.63051978  0.85704309  1
  O  O71  1  0.76171064  0.64233896  0.86142046  1
  O  O72  1  0.00490452  0.83222504  0.40823805  1
  O  O73  1  0.50802545  0.80974857  0.40975854  1
  O  O74  1  0.40167998  0.98918888  0.41173747  1
  O  O75  1  0.91347936  0.99283296  0.40587801  1
  O  O76  1  0.08341173  0.17723518  0.40710065  1
  O  O77  1  0.58499866  0.16799373  0.40914816  1
  O  O78  1  0.00563292  0.16349447  0.90896278  1
  O  O79  1  0.50644346  0.17368265  0.90352497  1
  O  O80  1  0.08619275  0.97703862  0.91127745  1
  O  O81  1  0.58829782  0.97755775  0.91234892  1
  O  O82  1  0.41479457  0.84262322  0.90704814  1
  O  O83  1  0.90507745  0.82378541  0.90990647  1
  O  O84  1  0.48726996  0.14338347  0.58907713  1
  O  O85  1  0.98371877  0.15995260  0.58631744  1
  O  O86  1  0.09302300  0.02890115  0.58777806  1
  O  O87  1  0.59993843  0.03519532  0.58490629  1
  O  O88  1  0.41691226  0.80394248  0.58567552  1
  O  O89  1  0.92315745  0.80525320  0.58625814  1
  O  O90  1  0.48055375  0.80270240  0.08866981  1
  O  O91  1  0.97989122  0.80045791  0.08631187  1
  O  O92  1  0.41766999  0.02512325  0.08561035  1
  O  O93  1  0.91442012  0.02205170  0.08467280  1
  O  O94  1  0.08367906  0.13866142  0.09153881  1
  O  O95  1  0.58547398  0.14157011  0.09228113  1
  O  O96  1  0.34149607  0.14558500  0.74590747  1
  O  O97  1  0.84091543  0.15692928  0.74505840  1
  O  O98  1  0.23915645  0.30968843  0.74400779  1
  O  O99  1  0.73824945  0.31369172  0.74670455  1
  O  O100  1  0.41849004  0.53056261  0.74918851  1
  O  O101  1  0.92237188  0.52980257  0.74869484  1
  O  O102  1  0.34346228  0.52138499  0.24650218  1
  O  O103  1  0.84681050  0.52782394  0.24936079  1
  O  O104  1  0.42564851  0.31479728  0.24052259  1
  O  O105  1  0.92278528  0.30956078  0.24413200  1
  O  O106  1  0.24238757  0.15492593  0.25014643  1
  O  O107  1  0.73548648  0.13880536  0.24335092  1
  O  O108  1  0.31830132  0.48922995  0.92078432  1
  O  O109  1  0.82336575  0.50503474  0.92159691  1
  O  O110  1  0.41641091  0.34571097  0.92553445  1
  O  O111  1  0.91294797  0.34578956  0.92736123  1
  O  O112  1  0.24398257  0.13294791  0.91642014  1
  O  O113  1  0.74792957  0.13921591  0.91943807  1
  O  O114  1  0.31752791  0.13871592  0.42133065  1
  O  O115  1  0.82392009  0.15528744  0.42522211  1
  O  O116  1  0.25875802  0.34856211  0.42758372  1
  O  O117  1  0.75767492  0.35832816  0.42256762  1
  O  O118  1  0.43007357  0.49292263  0.42173186  1
  O  O119  1  0.92674051  0.49019071  0.42474355  1
  O  O120  1  0.17351415  0.49686899  0.07964520  1
  O  O121  1  0.67841158  0.50411114  0.07945162  1
  O  O122  1  0.06975577  0.66185402  0.07392484  1
  O  O123  1  0.57006747  0.66551473  0.07584459  1
  O  O124  1  0.25835891  0.87377791  0.08061639  1
  O  O125  1  0.75721265  0.87141056  0.07703841  1
  O  O126  1  0.17355217  0.86595494  0.57996447  1
  O  O127  1  0.67789664  0.87073342  0.57587445  1
  O  O128  1  0.25803583  0.65819371  0.57511098  1
  O  O129  1  0.76232114  0.65221799  0.58135000  1
  O  O130  1  0.06522536  0.48095544  0.57996072  1
  O  O131  1  0.57548742  0.49631747  0.58068031  1
  O  O132  1  0.14925437  0.80901396  0.26113401  1
  O  O133  1  0.64762949  0.81906065  0.25501987  1
  O  O134  1  0.25681759  0.69935386  0.25529359  1
  O  O135  1  0.75676390  0.69893030  0.25618859  1
  O  O136  1  0.08061466  0.46070986  0.25147274  1
  O  O137  1  0.58512500  0.47689662  0.25326084  1
  O  O138  1  0.15255302  0.48604526  0.75655008  1
  O  O139  1  0.64973292  0.48290317  0.75756420  1
  O  O140  1  0.09685553  0.70783205  0.76098476  1
  O  O141  1  0.59278523  0.71400555  0.75438790  1
  O  O142  1  0.26729737  0.83344850  0.75604544  1
  O  O143  1  0.75725981  0.81260141  0.76163717  1
loop_
_geom_bond_atom_site_label_1
_geom_bond_atom_site_label_2
_geom_bond_distance
_geom_bond_site_symmetry_2
Na0 O106 2.304274 1_555
Na0 O134 2.358988 1_545
Na0 O104 2.429007 1_555
Na0 O32 2.486443 1_555
Na0 O132 2.606281 1_545
Na0 O62 2.741081 1_545
Na0 O18 2.762400 1_545
Na0 O4 2.942844 1_555
Na1 O102 2.302436 1_555
Na1 O34 2.395708 1_555
Na1 O136 2.454168 1_555
Na1 O106 2.463415 1_555
Na1 O134 2.544774 1_555
Na1 O64 2.632809 1_555
Na1 O0 2.912788 1_555
Na1 O20 2.944114 1_555
Na2 O35 2.332878 1_555
Na2 O103 2.401822 1_555
Na2 O137 2.436443 1_555
Na2 O135 2.537491 1_555
Na2 O107 2.550889 1_555
Na2 O65 2.752220 1_555
Na2 O21 2.757589 1_555
Na2 O1 2.973459 1_555
Na3 O103 2.331592 1_555
Na3 O132 2.341904 1_655
Na3 O105 2.473429 1_555
Na3 O136 2.565916 1_655
Na3 O31 2.574302 1_555
Na3 O22 2.664577 1_655
Na3 O60 2.712332 1_655
Na3 O3 2.918137 1_555
Na4 O100 2.320368 1_555
Na4 O98 2.392349 1_555
Na4 O142 2.404017 1_555
Na4 O138 2.480421 1_555
Na4 O70 2.592074 1_555
Na4 O28 2.636334 1_555
Na4 O8 2.869966 1_555
Na4 O12 2.893474 1_555
Na5 O99 2.362453 1_555
Na5 O101 2.375412 1_555
Na5 O143 2.384526 1_555
Na5 O139 2.546237 1_555
Na5 O71 2.657133 1_555
Na5 O29 2.660712 1_555
Na5 O13 2.735775 1_555
Na5 O9 2.934942 1_555
Na6 O101 2.350815 1_555
Na6 O97 2.380360 1_555
Na6 O138 2.449646 1_655
Na6 O66 2.523626 1_655
Na6 O25 2.650633 1_555
Na6 O140 2.668569 1_655
Na6 O14 2.743899 1_655
Na6 O11 2.763104 1_555
Na7 O24 2.315463 1_555
Na7 O100 2.349699 1_555
Na7 O139 2.410405 1_555
Na7 O96 2.444439 1_555
Na7 O141 2.611841 1_555
Na7 O67 2.694765 1_555
Na7 O15 2.789498 1_555
Na7 O10 2.965238 1_555
Na8 O98 2.327506 1_555
Na8 O140 2.336017 1_545
Na8 O96 2.367849 1_555
Na8 O26 2.569732 1_555
Na8 O142 2.582613 1_545
Na8 O68 2.661650 1_545
Na8 O16 2.698318 1_545
Na8 O6 2.826630 1_555
Na9 O141 2.321383 1_545
Na9 O97 2.321725 1_555
Na9 O99 2.342532 1_555
Na9 O143 2.601689 1_545
Na9 O69 2.616662 1_545
Na9 O27 2.634017 1_555
Na9 O7 2.783599 1_555
Na9 O17 2.953080 1_545
Na10 O131 2.289270 1_555
Na10 O57 2.301932 1_555
Na10 O87 2.412382 1_555
Na10 O129 2.448370 1_555
Na10 O84 2.501113 1_555
Na10 O15 2.707734 1_555
Na10 O43 2.863154 1_555
Na10 O29 3.048324 1_555
Na11 O120 2.339305 1_555
Na11 O48 2.406324 1_554
Na11 O90 2.406435 1_555
Na11 O124 2.434192 1_555
Na11 O92 2.583230 1_565
Na11 O38 2.783045 1_555
Na11 O18 2.797659 1_555
Na11 O34 2.899025 1_555
Na12 O121 2.292765 1_555
Na12 O91 2.362176 1_555
Na12 O125 2.449474 1_555
Na12 O93 2.538587 1_565
Na12 O19 2.625107 1_555
Na12 O49 2.651353 1_554
Na12 O35 2.830095 1_555
Na12 O39 2.836869 1_555
Na13 O108 2.367516 1_555
Na13 O78 2.430368 1_555
Na13 O50 2.538861 1_555
Na13 O80 2.555913 1_545
Na13 O112 2.565114 1_555
Na13 O36 2.571450 1_556
Na13 O6 2.716427 1_555
Na13 O70 2.819684 1_555
Na14 O76 2.384289 1_655
Na14 O119 2.420506 1_555
Na14 O75 2.423455 1_545
Na14 O115 2.576934 1_555
Na14 O56 2.586937 1_655
Na14 O47 2.614289 1_555
Na14 O5 2.678111 1_555
Na14 O60 2.742291 1_655
Na15 O114 2.362275 1_555
Na15 O76 2.390156 1_555
Na15 O72 2.468310 1_545
Na15 O116 2.481752 1_555
Na15 O58 2.561744 1_545
Na15 O42 2.627184 1_555
Na15 O0 2.691155 1_555
Na15 O62 2.799159 1_545
Na16 O77 2.282044 1_555
Na16 O73 2.435056 1_545
Na16 O115 2.473628 1_555
Na16 O117 2.563611 1_555
Na16 O1 2.566589 1_555
Na16 O63 2.649598 1_545
Na16 O43 2.763132 1_555
Na16 O59 2.844830 1_545
Na17 O117 2.386871 1_555
Na17 O72 2.435053 1_655
Na17 O75 2.500005 1_555
Na17 O55 2.601383 1_555
Na17 O119 2.605247 1_555
Na17 O45 2.605646 1_555
Na17 O3 2.705851 1_555
Na17 O65 2.794840 1_555
Na18 O89 2.420092 1_445
Na18 O85 2.428594 1_455
Na18 O86 2.432451 1_555
Na18 O76 2.541249 1_555
Na18 O72 2.579879 1_545
Na18 O75 2.618342 1_445
Na19 O84 2.409800 1_555
Na19 O74 2.436545 1_545
Na19 O77 2.456384 1_555
Na19 O88 2.485787 1_545
Na19 O87 2.650162 1_555
Na19 O73 2.669961 1_545
Na20 O78 2.376932 1_555
Na20 O94 2.434565 1_556
Na20 O93 2.439034 1_456
Na20 O80 2.527054 1_545
Na20 O91 2.544639 1_446
Na20 O83 2.624368 1_445
Na21 O79 2.426440 1_555
Na21 O92 2.455894 1_556
Na21 O81 2.512721 1_545
Na21 O95 2.517767 1_556
Na21 O82 2.526141 1_545
Na21 O90 2.668767 1_546
Na21 O51 3.301806 1_555
Na22 O100 2.389284 1_555
Na22 O108 2.411675 1_555
Na22 O110 2.422298 1_555
Na22 O112 2.519235 1_555
Na22 O98 2.607422 1_555
Na22 O96 2.652297 1_555
Na23 O101 2.447591 1_555
Na23 O113 2.485523 1_555
Na23 O111 2.493186 1_555
Na23 O99 2.500882 1_555
Na23 O97 2.523878 1_555
Na23 O109 2.542457 1_555
Na24 O102 2.297530 1_555
Na24 O118 2.497245 1_555
Na24 O106 2.520555 1_555
Na24 O116 2.557455 1_555
Na24 O104 2.579441 1_555
Na24 O114 2.678599 1_555
Na25 O103 2.400527 1_555
Na25 O117 2.485530 1_555
Na25 O105 2.511898 1_555
Na25 O115 2.552322 1_555
Na25 O107 2.572484 1_555
Na25 O119 2.638010 1_555
Na26 O120 2.340370 1_555
Na26 O124 2.455772 1_555
Na26 O122 2.552265 1_555
Na26 O136 2.579985 1_555
Na26 O134 2.582103 1_555
Na26 O132 2.667761 1_555
Na27 O121 2.414738 1_555
Na27 O123 2.495814 1_555
Na27 O137 2.507010 1_555
Na27 O125 2.530660 1_555
Na27 O133 2.539875 1_555
Na27 O135 2.616652 1_555
Na28 O126 2.459895 1_555
Na28 O130 2.475446 1_555
Na28 O128 2.499177 1_555
Na28 O138 2.557982 1_555
Na28 O140 2.606068 1_555
Na28 O142 2.717363 1_555
Na29 O131 2.337214 1_555
Na29 O127 2.490602 1_555
Na29 O141 2.502977 1_555
Na29 O129 2.526054 1_555
Na29 O139 2.617395 1_555
Na29 O143 2.734126 1_555
Ge0 O0 1.815515 1_565
Ge0 O72 1.844606 1_555
Ge0 O3 1.850740 1_455
Ge0 O75 1.894797 1_455
Ge0 O76 1.936741 1_565
Ge0 O5 2.126477 1_465
Ge1 O11 1.776772 1_555
Ge1 O9 1.819883 1_545
Ge1 O6 1.827415 1_655
Ge1 O78 1.870562 1_655
Ge1 O83 2.099015 1_545
Ge1 O80 2.217853 1_645
Ge2 O82 1.821611 1_555
Ge2 O7 1.825740 1_565
Ge2 O8 1.826250 1_555
Ge2 O79 1.831386 1_565
Ge2 O81 2.069156 1_555
Ge2 O10 2.081608 1_565
Ge3 O14 1.799770 1_555
Ge3 O16 1.801515 1_545
Ge3 O13 1.812543 1_445
Ge3 O86 2.111049 1_555
Ge3 O85 2.238639 1_455
Ge3 O89 2.271659 1_445
Ge4 O17 1.822332 1_545
Ge4 O15 1.822686 1_555
Ge4 O84 1.844549 1_555
Ge4 O12 1.978214 1_545
Ge4 O87 2.138235 1_555
Ge4 O88 2.268851 1_545
Ge5 O22 1.794183 1_555
Ge5 O94 1.803720 1_565
Ge5 O19 1.850025 1_455
Ge5 O91 2.059409 1_455
Ge5 O20 2.065169 1_565
Ge5 O93 2.315212 1_465
Ge6 O95 1.802076 1_555
Ge6 O18 1.806833 1_545
Ge6 O21 2.031757 1_555
Ge6 O92 2.036018 1_555
Ge6 O90 2.092759 1_545
Ge6 O23 2.126487 1_545
Ge7 O110 1.830774 1_555
Ge7 O36 1.855298 1_556
Ge7 O108 1.877295 1_555
Ge7 O38 2.024015 1_556
Ge7 O40 2.154463 1_556
Ge7 O112 2.276598 1_555
Ge8 O37 1.787369 1_556
Ge8 O111 1.822413 1_555
Ge8 O41 1.925653 1_556
Ge8 O113 2.062458 1_555
Ge8 O39 2.134477 1_556
Ge8 O109 2.150157 1_555
Ge9 O46 1.798288 1_555
Ge9 O116 1.891803 1_555
Ge9 O44 1.959488 1_555
Ge9 O118 2.038624 1_555
Ge9 O42 2.051954 1_555
Ge9 O114 2.162058 1_555
Ge10 O119 1.846847 1_555
Ge10 O115 1.856466 1_555
Ge10 O117 1.863292 1_555
Ge10 O43 2.028318 1_555
Ge10 O45 2.103493 1_555
Ge10 O47 2.110136 1_555
Ge11 O64 1.857362 1_555
Ge11 O134 1.890107 1_555
Ge11 O60 1.900762 1_555
Ge11 O132 1.922785 1_555
Ge11 O62 2.020498 1_555
Ge11 O136 2.288362 1_555
Ge12 O63 1.794106 1_555
Ge12 O65 1.833016 1_555
Ge12 O135 1.837884 1_555
Ge12 O61 2.116301 1_555
Ge12 O133 2.121132 1_555
Ge12 O137 2.304676 1_555
Ge13 O66 1.796235 1_555
Ge13 O70 1.853858 1_555
Ge13 O138 1.903137 1_555
Ge13 O140 1.916034 1_555
Ge13 O68 2.108969 1_555
Ge13 O142 2.325049 1_555
Ge14 O67 1.821504 1_555
Ge14 O141 1.867086 1_555
Ge14 O139 1.870075 1_555
Ge14 O143 1.905606 1_555
Ge14 O69 2.138016 1_555
Ge14 O71 2.266054 1_555
O0 Si0 1.635757 1_545
O1 S0 1.469547 1_545
O1 Zn0 2.094061 1_555
O2 Si1 1.567251 1_555
O2 Zn0 1.867980 1_565
O3 Si2 1.632512 1_555
O4 S2 1.457834 1_555
O4 Zn0 2.064115 1_555
O5 S1 1.483310 1_555
O6 Si3 1.631449 1_555
O7 Si4 1.611687 1_555
O8 Si6 1.611764 1_555
O9 Si5 1.624867 1_655
O10 S3 1.468881 1_545
O11 Si7 1.616832 1_545
O12 S3 1.510767 1_555
O13 Si7 1.671657 1_555
O14 Si3 1.659805 1_555
O15 Si4 1.668002 1_555
O16 Si5 1.666743 1_555
O17 Si6 1.680288 1_555
O18 Si1 1.742865 1_555
O19 Si2 1.671894 1_555
O20 S1 1.489066 1_455
O21 S2 1.532625 1_555
O22 Si0 1.657331 1_555
O23 S0 1.495678 1_555
O24 Si8 1.590530 1_555
O24 Zn1 1.880971 1_555
O25 S4 1.464385 1_555
O25 Zn2 2.046934 1_555
O26 S5 1.463147 1_555
O26 Zn1 2.198141 1_555
O27 S6 1.462576 1_555
O27 Zn2 2.183785 1_555
O28 S7 1.471858 1_555
O28 Zn1 2.026645 1_555
O29 S8 1.472057 1_555
O29 Zn2 2.068738 1_555
O30 S9 1.452068 1_555
O30 Zn3 2.078392 1_555
O31 S10 1.478815 1_555
O31 Zn4 2.052965 1_555
O32 S11 1.467217 1_555
O32 Zn3 2.129838 1_555
O33 S12 1.458222 1_555
O33 Zn4 2.060961 1_555
O34 Si9 1.591755 1_555
O34 Zn3 1.902124 1_555
O35 Si10 1.608067 1_555
O35 Zn4 1.896265 1_555
O36 Si9 1.724408 1_555
O37 Si10 1.709026 1_555
O38 S9 1.523760 1_555
O39 S10 1.498573 1_555
O40 S11 1.484500 1_555
O41 S12 1.527079 1_555
O42 S5 1.531422 1_555
O43 S6 1.545455 1_555
O44 S7 1.529924 1_555
O45 S8 1.536309 1_555
O46 Si8 1.701478 1_555
O47 S4 1.532781 1_555
O48 Si11 1.582075 1_555
O48 Zn5 1.928921 1_556
O49 S13 1.464258 1_555
O49 Zn6 2.106497 1_556
O50 Si12 1.574088 1_555
O50 Zn5 1.909000 1_556
O51 Si13 1.566438 1_555
O51 Zn6 1.863882 1_556
O52 S14 1.445259 1_555
O52 Zn5 2.164543 1_556
O53 S15 1.444571 1_555
O53 Zn6 2.145788 1_556
O54 S16 1.448037 1_555
O54 Zn7 2.069700 1_555
O55 Si14 1.575959 1_555
O55 Zn8 1.970832 1_555
O56 Si15 1.579166 1_555
O56 Zn7 1.901920 1_555
O57 Si16 1.573119 1_555
O57 Zn8 1.929236 1_555
O58 Si17 1.575228 1_555
O58 Zn7 1.919605 1_555
O59 S17 1.459754 1_555
O59 Zn8 2.038524 1_555
O60 Si17 1.669699 1_555
O61 S17 1.514075 1_555
O62 S16 1.545229 1_555
O63 Si14 1.673017 1_555
O64 Si15 1.673264 1_555
O65 Si16 1.701828 1_555
O66 Si12 1.673927 1_555
O67 Si13 1.701179 1_555
O68 S14 1.520855 1_555
O69 S15 1.511040 1_555
O70 Si11 1.726957 1_555
O71 S13 1.496700 1_555
O72 Si17 1.646538 1_555
O73 S17 1.466251 1_555
O73 Zn0 2.192794 1_565
O74 S16 1.448465 1_555
O74 Zn0 2.107818 1_565
O75 Si14 1.647735 1_555
O76 Si15 1.678418 1_555
O77 Si16 1.604284 1_555
O77 Zn0 1.978306 1_555
O78 Si12 1.686459 1_555
O79 Si13 1.648028 1_555
O80 S14 1.506353 1_555
O81 S15 1.491799 1_555
O82 Si11 1.628941 1_555
O83 S13 1.497091 1_555
O84 Si8 1.757302 1_555
O85 S4 1.508808 1_555
O86 S5 1.534732 1_555
O87 S6 1.516205 1_555
O88 S7 1.488862 1_555
O89 S8 1.492930 1_555
O90 S9 1.528995 1_555
O91 S10 1.538666 1_555
O92 S11 1.555050 1_555
O93 S12 1.499076 1_555
O94 Si9 1.706716 1_555
O95 Si10 1.698482 1_555
O96 S3 1.467356 1_545
O96 Zn1 2.289083 1_555
O97 Si7 1.597793 1_545
O97 Zn2 2.007445 1_555
O98 Si3 1.604374 1_555
O98 Zn1 2.031851 1_555
O99 Si4 1.604441 1_555
O99 Zn2 2.002672 1_555
O100 Si6 1.608002 1_555
O100 Zn1 2.089403 1_555
O101 Si5 1.603867 1_655
O101 Zn2 2.065245 1_555
O102 Si1 1.592878 1_555
O102 Zn3 1.999601 1_555
O103 Si2 1.633646 1_555
O103 Zn4 2.154947 1_555
O104 S2 1.460398 1_555
O104 Zn3 2.188674 1_555
O105 S1 1.473281 1_555
O105 Zn4 2.232444 1_555
O106 Si0 1.598498 1_545
O106 Zn3 2.091761 1_555
O107 S0 1.481573 1_545
O107 Zn4 2.166619 1_555
O108 Si11 1.687739 1_555
O109 S13 1.511945 1_555
O110 Si13 1.699122 1_555
O111 Si12 1.670707 1_655
O112 S14 1.504646 1_545
O113 S15 1.519833 1_545
O114 S16 1.519910 1_545
O115 Si14 1.664585 1_545
O116 Si15 1.699581 1_555
O117 Si16 1.732669 1_555
O118 S17 1.519718 1_555
O119 Si17 1.668652 1_655
O120 Si9 1.612176 1_555
O120 Zn5 1.993827 1_555
O121 Si10 1.614383 1_555
O121 Zn6 1.977922 1_555
O122 S10 1.446123 1_455
O122 Zn5 2.224960 1_555
O123 S9 1.456131 1_555
O123 Zn6 2.130857 1_555
O124 S11 1.466256 1_565
O124 Zn5 2.466678 1_555
O125 S12 1.470123 1_565
O125 Zn6 2.395454 1_555
O126 S5 1.461169 1_565
O126 Zn7 2.329161 1_555
O127 S6 1.449872 1_565
O127 Zn8 2.254284 1_555
O128 S7 1.468049 1_555
O128 Zn7 2.204943 1_555
O129 S8 1.468262 1_555
O129 Zn8 2.279581 1_555
O130 S4 1.467729 1_455
O130 Zn7 2.149074 1_555
O131 Si8 1.616537 1_555
O131 Zn8 2.041107 1_555
O132 Si0 1.663966 1_555
O133 S0 1.511104 1_555
O134 Si1 1.736991 1_555
O135 Si2 1.678117 1_555
O136 S1 1.504641 1_455
O137 S2 1.499257 1_555
O138 Si3 1.666282 1_555
O139 Si4 1.662338 1_555
O140 Si5 1.676944 1_555
O141 Si6 1.672210 1_555
O142 S3 1.485156 1_555
O143 Si7 1.657971 1_555
