# generated using pymatgen
data_Sr8MgMn6O20
_symmetry_space_group_name_H-M   'P 1'
_cell_length_a   5.53295702
_cell_length_b   6.65309163
_cell_length_c   14.25656487
_cell_angle_alpha   86.01670415
_cell_angle_beta   89.69767529
_cell_angle_gamma   113.37247561
_symmetry_Int_Tables_number   1
_chemical_formula_structural   Sr8MgMn6O20
_chemical_formula_sum   'Sr8 Mg1 Mn6 O20'
_cell_volume   480.26703192
_cell_formula_units_Z   1
loop_
 _symmetry_equiv_pos_site_id
 _symmetry_equiv_pos_as_xyz
  1  'x, y, z'
loop_
 _atom_site_type_symbol
 _atom_site_label
 _atom_site_symmetry_multiplicity
 _atom_site_fract_x
 _atom_site_fract_y
 _atom_site_fract_z
 _atom_site_occupancy
  Sr  Sr0  1  0.27788300  0.52712000  0.16443300  1
  Sr  Sr1  1  0.71161700  0.48261500  0.81349400  1
  Sr  Sr2  1  0.75499100  0.48585500  0.39920200  1
  Sr  Sr3  1  0.25499100  0.50149700  0.60401800  1
  Sr  Sr4  1  0.96720100  0.91816800  0.62306200  1
  Sr  Sr5  1  0.04328400  0.07185600  0.35872700  1
  Sr  Sr6  1  0.55469000  0.10026100  0.15427100  1
  Sr  Sr7  1  0.42555100  0.90140500  0.86905800  1
  Mg  Mg0  1  0.84640500  0.59203500  0.01040700  1
  Mn  Mn0  1  0.60618600  0.21067100  0.64219800  1
  Mn  Mn1  1  0.39019300  0.76153500  0.35257500  1
  Mn  Mn2  1  0.91419500  0.80932700  0.16791800  1
  Mn  Mn3  1  0.10142700  0.24307100  0.82397200  1
  Mn  Mn4  1  0.50893100  0.99800600  0.49343800  1
  Mn  Mn5  1  0.00922200  0.06927500  0.00356700  1
  O  O0  1  0.32757100  0.16970700  0.72956300  1
  O  O1  1  0.15131900  0.79264700  0.26270100  1
  O  O2  1  0.65819000  0.80328100  0.26036800  1
  O  O3  1  0.80610200  0.15379000  0.74392200  1
  O  O4  1  0.17163300  0.78135300  0.45822600  1
  O  O5  1  0.38359600  0.21028600  0.53199600  1
  O  O6  1  0.32105800  0.23825100  0.92806800  1
  O  O7  1  0.16106700  0.83608700  0.06452300  1
  O  O8  1  0.84463300  0.20480000  0.53041800  1
  O  O9  1  0.62860100  0.77905400  0.45575200  1
  O  O10  1  0.69301200  0.83891200  0.06780300  1
  O  O11  1  0.85917100  0.29218500  0.96786600  1
  O  O12  1  0.76107900  0.51795000  0.64188800  1
  O  O13  1  0.24894000  0.46297300  0.34767900  1
  O  O14  1  0.07603100  0.13050700  0.16381000  1
  O  O15  1  0.89564300  0.82173900  0.89237400  1
  O  O16  1  0.45876200  0.89513200  0.62249300  1
  O  O17  1  0.75557100  0.49791600  0.15098500  1
  O  O18  1  0.24890700  0.54577400  0.79189200  1
  O  O19  1  0.55139600  0.09569800  0.36045800  1
loop_
_geom_bond_atom_site_label_1
_geom_bond_atom_site_label_2
_geom_bond_distance
_geom_bond_site_symmetry_2
Mg0 O7 2.051359 1_655
Mg0 O17 2.055887 1_555
Mg0 O15 2.132820 1_554
Mg0 O11 2.152209 1_554
Mg0 O10 2.317995 1_555
Mn0 O12 1.876830 1_555
Mn0 O0 1.897701 1_555
Mn0 O3 1.934609 1_555
Mn0 O16 1.969034 1_545
Mn0 O5 2.000909 1_555
Mn0 O8 2.075820 1_555
Mn1 O13 1.830145 1_555
Mn1 O2 1.898917 1_555
Mn1 O1 1.905120 1_555
Mn1 O9 1.959494 1_555
Mn1 O4 1.970615 1_555
Mn1 O19 2.052640 1_565
Mn2 O2 1.916479 1_555
Mn2 O1 1.916508 1_655
Mn2 O10 1.934971 1_555
Mn2 O17 1.936520 1_555
Mn2 O7 1.954394 1_655
Mn2 O14 1.958382 1_665
Mn3 O18 1.869519 1_555
Mn3 O3 1.915476 1_455
Mn3 O6 1.929639 1_555
Mn3 O0 2.042912 1_555
Mn3 O11 2.554099 1_455
Mn3 O15 2.679789 1_445
Mn4 O16 1.897256 1_555
Mn4 O5 1.912756 1_565
Mn4 O8 1.924683 1_565
Mn4 O9 1.928555 1_555
Mn4 O19 1.942882 1_565
Mn4 O4 1.946454 1_555
Mn5 O6 1.916410 1_554
Mn5 O10 1.977174 1_445
Mn5 O11 2.006047 1_454
Mn5 O7 2.173135 1_545
Mn5 O15 2.274240 1_444
Mn5 O14 2.353793 1_555
O0 Sr4 2.611351 1_445
O0 Sr1 2.672837 1_555
O0 Sr7 2.778710 1_545
O0 Sr3 2.898198 1_555
O1 Sr0 2.624668 1_555
O1 Sr5 2.628276 1_565
O1 Sr6 2.731161 1_565
O1 Sr2 2.934919 1_455
O2 Sr0 2.643137 1_555
O2 Sr6 2.647910 1_565
O2 Sr5 2.656691 1_665
O2 Sr2 2.998722 1_555
O3 Sr7 2.678555 1_545
O3 Sr1 2.691940 1_555
O3 Sr4 2.772817 1_545
O4 Sr2 2.557707 1_455
O4 Sr5 2.640211 1_565
O4 Sr3 2.855407 1_555
O4 Sr4 2.952365 1_455
O5 Sr3 2.583957 1_555
O5 Sr4 2.614561 1_445
O5 Sr2 2.766894 1_555
O5 Sr5 3.079756 1_555
O6 Sr1 2.605246 1_555
O6 Sr7 2.710944 1_545
O7 Sr6 2.602733 1_565
O7 Sr0 2.707230 1_555
O7 Sr7 3.062672 1_554
O8 Sr4 2.554720 1_545
O8 Sr3 2.628605 1_655
O8 Sr2 2.738905 1_555
O8 Sr5 3.004243 1_655
O9 Sr2 2.497803 1_555
O9 Sr5 2.649240 1_665
O9 Sr3 2.921316 1_555
O9 Sr4 3.005676 1_555
O10 Sr6 2.544088 1_565
O10 Sr0 2.695523 1_555
O10 Sr7 3.280221 1_554
O11 Sr1 2.750911 1_555
O11 Sr6 3.050481 1_556
O11 Sr7 3.177323 1_545
O12 Sr4 2.439410 1_555
O12 Sr1 2.444906 1_555
O12 Sr3 2.815201 1_555
O12 Sr3 2.828713 1_655
O13 Sr5 2.383827 1_555
O13 Sr0 2.611356 1_555
O13 Sr2 2.846320 1_555
O13 Sr2 2.890755 1_455
O14 Sr0 2.423907 1_555
O14 Sr6 2.737855 1_555
O14 Sr5 2.773991 1_555
O14 Sr6 2.815503 1_455
O15 Sr1 2.435938 1_555
O15 Sr7 2.778500 1_655
O15 Sr7 2.869679 1_555
O16 Sr3 2.440365 1_555
O16 Sr4 2.756052 1_555
O16 Sr4 2.784143 1_455
O17 Sr6 2.426130 1_555
O17 Sr0 2.732649 1_555
O17 Sr0 2.826963 1_655
O18 Sr7 2.510358 1_555
O18 Sr3 2.716335 1_555
O18 Sr1 2.769421 1_555
O18 Sr1 2.844330 1_455
O19 Sr2 2.489528 1_555
O19 Sr5 2.752632 1_555
O19 Sr5 2.788406 1_655
O19 Sr6 2.937451 1_555
