# generated using pymatgen
data_Na5SnSb3
_symmetry_space_group_name_H-M   'P 1'
_cell_length_a   9.29013600
_cell_length_b   12.57594300
_cell_length_c   18.71360157
_cell_angle_alpha   81.79645822
_cell_angle_beta   90.00000000
_cell_angle_gamma   90.00000000
_symmetry_Int_Tables_number   1
_chemical_formula_structural   Na5SnSb3
_chemical_formula_sum   'Na40 Sn8 Sb24'
_cell_volume   2163.97959567
_cell_formula_units_Z   8
loop_
 _symmetry_equiv_pos_site_id
 _symmetry_equiv_pos_as_xyz
  1  'x, y, z'
loop_
 _atom_site_type_symbol
 _atom_site_label
 _atom_site_symmetry_multiplicity
 _atom_site_fract_x
 _atom_site_fract_y
 _atom_site_fract_z
 _atom_site_occupancy
  Na  Na0  1  0.92853900  0.86381800  0.99446400  1
  Na  Na1  1  0.42853900  0.63618200  0.00553600  1
  Na  Na2  1  0.07146100  0.13618200  0.00553600  1
  Na  Na3  1  0.57146100  0.36381800  0.99446400  1
  Na  Na4  1  0.93127900  0.51209400  0.65203200  1
  Na  Na5  1  0.43127900  0.98790600  0.34796800  1
  Na  Na6  1  0.06872100  0.48790600  0.34796800  1
  Na  Na7  1  0.56872100  0.01209400  0.65203200  1
  Na  Na8  1  0.17547800  0.05649500  0.69991900  1
  Na  Na9  1  0.67547800  0.44350500  0.30008100  1
  Na  Na10  1  0.82452200  0.94350500  0.30008100  1
  Na  Na11  1  0.32452200  0.55649500  0.69991900  1
  Na  Na12  1  0.92910300  0.17405900  0.81885900  1
  Na  Na13  1  0.42910300  0.32594100  0.18114100  1
  Na  Na14  1  0.07089700  0.82594100  0.18114100  1
  Na  Na15  1  0.57089700  0.67405900  0.81885900  1
  Na  Na16  1  0.93764000  0.87289800  0.48500800  1
  Na  Na17  1  0.43764000  0.62710200  0.51499200  1
  Na  Na18  1  0.06236000  0.12710200  0.51499200  1
  Na  Na19  1  0.56236000  0.37289800  0.48500800  1
  Na  Na20  1  0.18252900  0.72347300  0.87154400  1
  Na  Na21  1  0.68252900  0.77652700  0.12845600  1
  Na  Na22  1  0.81747100  0.27652700  0.12845600  1
  Na  Na23  1  0.31747100  0.22347300  0.87154400  1
  Na  Na24  1  0.84652700  0.90187700  0.80451600  1
  Na  Na25  1  0.34652700  0.59812300  0.19548400  1
  Na  Na26  1  0.15347300  0.09812300  0.19548400  1
  Na  Na27  1  0.65347300  0.40187700  0.80451600  1
  Na  Na28  1  0.84021200  0.58185000  0.97285400  1
  Na  Na29  1  0.34021200  0.91815000  0.02714600  1
  Na  Na30  1  0.15978800  0.41815000  0.02714600  1
  Na  Na31  1  0.65978800  0.08185000  0.97285400  1
  Na  Na32  1  0.81892300  0.59452400  0.46658100  1
  Na  Na33  1  0.31892300  0.90547600  0.53341900  1
  Na  Na34  1  0.18107700  0.40547600  0.53341900  1
  Na  Na35  1  0.68107700  0.09452400  0.46658100  1
  Na  Na36  1  0.81237100  0.24438000  0.62769200  1
  Na  Na37  1  0.31237100  0.25562000  0.37230800  1
  Na  Na38  1  0.18762900  0.75562000  0.37230800  1
  Na  Na39  1  0.68762900  0.74438000  0.62769200  1
  Sn  Sn0  1  0.06879900  0.77908100  0.66927200  1
  Sn  Sn1  1  0.56879900  0.72091900  0.33072800  1
  Sn  Sn2  1  0.93120100  0.22091900  0.33072800  1
  Sn  Sn3  1  0.43120100  0.27908100  0.66927200  1
  Sn  Sn4  1  0.41741300  0.94589400  0.82744400  1
  Sn  Sn5  1  0.91741300  0.55410600  0.17255600  1
  Sn  Sn6  1  0.58258700  0.05410600  0.17255600  1
  Sn  Sn7  1  0.08258700  0.44589400  0.82744400  1
  Sb  Sb0  1  0.37067600  0.81817900  0.70661800  1
  Sb  Sb1  1  0.87067600  0.68182100  0.29338200  1
  Sb  Sb2  1  0.62932400  0.18182100  0.29338200  1
  Sb  Sb3  1  0.12932400  0.31817900  0.70661800  1
  Sb  Sb4  1  0.89089300  0.96569400  0.63391300  1
  Sb  Sb5  1  0.39089300  0.53430600  0.36608700  1
  Sb  Sb6  1  0.10910700  0.03430600  0.36608700  1
  Sb  Sb7  1  0.60910700  0.46569400  0.63391300  1
  Sb  Sb8  1  0.13866500  0.98625700  0.88228400  1
  Sb  Sb9  1  0.63866500  0.51374300  0.11771600  1
  Sb  Sb10  1  0.86133500  0.01374300  0.11771600  1
  Sb  Sb11  1  0.36133500  0.48625700  0.88228400  1
  Sb  Sb12  1  0.91694100  0.64373700  0.78539500  1
  Sb  Sb13  1  0.41694100  0.85626300  0.21460500  1
  Sb  Sb14  1  0.08305900  0.35626300  0.21460500  1
  Sb  Sb15  1  0.58305900  0.14373700  0.78539500  1
  Sb  Sb16  1  0.60683700  0.83714100  0.93371100  1
  Sb  Sb17  1  0.10683700  0.66285900  0.06628900  1
  Sb  Sb18  1  0.39316300  0.16285900  0.06628900  1
  Sb  Sb19  1  0.89316300  0.33714100  0.93371100  1
  Sb  Sb20  1  0.11909100  0.66975100  0.54615600  1
  Sb  Sb21  1  0.61909100  0.83024900  0.45384400  1
  Sb  Sb22  1  0.88090900  0.33024900  0.45384400  1
  Sb  Sb23  1  0.38090900  0.16975100  0.54615600  1
loop_
_geom_bond_atom_site_label_1
_geom_bond_atom_site_label_2
_geom_bond_distance
_geom_bond_site_symmetry_2
Na0 Sb8 3.109048 1_655
Na0 Sb17 3.157199 1_656
Na0 Sb16 3.232031 1_555
Na0 Sb10 3.241242 1_566
Na0 Na21 3.454030 1_556
Na0 Na24 3.599905 1_555
Na0 Na31 3.687697 1_565
Na0 Na14 3.702016 1_656
Na0 Na2 3.706839 1_666
Na0 Na28 3.717570 1_555
Na0 Na20 3.890081 1_655
Na0 Na29 3.948033 1_656
Na1 Sb9 3.109048 1_555
Na1 Sb16 3.157199 1_554
Na1 Sb17 3.232031 1_555
Na1 Sb11 3.241242 1_554
Na1 Na20 3.454030 1_554
Na1 Na25 3.599905 1_555
Na1 Na30 3.687697 1_555
Na1 Na15 3.702016 1_554
Na1 Na3 3.706839 1_554
Na1 Na29 3.717570 1_555
Na1 Na21 3.890081 1_555
Na1 Na28 3.948033 1_554
Na2 Sb10 3.109048 1_455
Na2 Sb19 3.157199 1_454
Na2 Sb18 3.232031 1_555
Na2 Sb8 3.241242 1_544
Na2 Na23 3.454030 1_554
Na2 Na26 3.599905 1_555
Na2 Na29 3.687697 1_545
Na2 Na30 3.717570 1_555
Na2 Na22 3.890081 1_455
Na2 Na31 3.948033 1_454
Na3 Sb11 3.109048 1_555
Na3 Sb18 3.157199 1_556
Na3 Sb19 3.232031 1_555
Na3 Sb9 3.241242 1_556
Na3 Na31 3.717570 1_555
Na3 Na30 3.948033 1_556
Na4 Sb7 3.077355 1_555
Na4 Sb3 3.108816 1_655
Na4 Sb20 3.127288 1_655
Na4 Sb12 3.188445 1_555
Na4 Sn7 3.558724 1_655
Na4 Sn0 3.649520 1_655
Na5 Sb6 3.077355 1_565
Na5 Sb2 3.108816 1_565
Na5 Sb21 3.127288 1_555
Na5 Sb13 3.188445 1_555
Na5 Sn6 3.558724 1_565
Na5 Sn1 3.649520 1_555
Na6 Sb5 3.077355 1_555
Na6 Sb1 3.108816 1_455
Na6 Sb22 3.127288 1_455
Na6 Sb14 3.188445 1_555
Na6 Sn5 3.558724 1_455
Na6 Sn2 3.649520 1_455
Na6 Na9 3.821534 1_455
Na7 Sb4 3.077355 1_545
Na7 Sb0 3.108816 1_545
Na7 Sb23 3.127288 1_555
Na7 Sb15 3.188445 1_555
Na7 Sn4 3.558724 1_545
Na7 Sn3 3.649520 1_555
Na7 Na8 3.821534 1_555
Na8 Sb4 3.197199 1_445
Na8 Sb3 3.338784 1_555
Na8 Sb8 3.418112 1_545
Na8 Sn4 3.425531 1_545
Na8 Sb0 3.489881 1_545
Na8 Sb23 3.575069 1_555
Na8 Sn3 3.653821 1_555
Na8 Sn0 3.748794 1_545
Na9 Sb5 3.197199 1_555
Na9 Sb2 3.338784 1_555
Na9 Sb9 3.418112 1_555
Na9 Sn5 3.425531 1_555
Na9 Sb1 3.489881 1_555
Na9 Sb22 3.575069 1_555
Na9 Sn2 3.653821 1_555
Na9 Sn1 3.748794 1_555
Na10 Sb6 3.197199 1_665
Na10 Sb1 3.338784 1_555
Na10 Sb10 3.418112 1_565
Na10 Sn6 3.425531 1_565
Na10 Sb2 3.489881 1_565
Na10 Sb21 3.575069 1_555
Na10 Na16 3.604437 1_555
Na10 Na14 3.649392 1_655
Na10 Sn1 3.653821 1_555
Na10 Sn2 3.748794 1_565
Na10 Na5 3.821534 1_555
Na10 Na26 3.983123 1_665
Na10 Na35 4.096331 1_565
Na11 Sb7 3.197199 1_555
Na11 Sb0 3.338784 1_555
Na11 Sb11 3.418112 1_555
Na11 Sn7 3.425531 1_555
Na11 Sb3 3.489881 1_555
Na11 Sb20 3.575069 1_555
Na11 Na17 3.604437 1_555
Na11 Na15 3.649392 1_555
Na11 Sn0 3.653821 1_555
Na11 Sn3 3.748794 1_555
Na11 Na4 3.821534 1_455
Na11 Na27 3.983123 1_555
Na11 Na34 4.096331 1_555
Na12 Sb8 3.158650 1_645
Na12 Sb3 3.173367 1_655
Na12 Sb19 3.192983 1_555
Na12 Sb15 3.307664 1_555
Na12 Na24 3.555179 1_545
Na12 Na8 3.649392 1_655
Na12 Na2 3.702016 1_656
Na12 Na36 3.721992 1_555
Na12 Sn7 3.728592 1_655
Na12 Na23 3.814534 1_655
Na12 Na27 3.823328 1_555
Na12 Na31 3.867257 1_555
Na13 Sb9 3.158650 1_555
Na13 Sb2 3.173367 1_555
Na13 Sb18 3.192983 1_555
Na13 Sb14 3.307664 1_555
Na13 Na25 3.555179 1_555
Na13 Na9 3.649392 1_555
Na13 Na3 3.702016 1_554
Na13 Na37 3.721992 1_555
Na13 Sn6 3.728592 1_555
Na13 Na22 3.814534 1_555
Na13 Na26 3.823328 1_555
Na13 Na30 3.867257 1_555
Na14 Sb10 3.158650 1_465
Na14 Sb1 3.173367 1_455
Na14 Sb17 3.192983 1_555
Na14 Sb13 3.307664 1_555
Na14 Na26 3.555179 1_565
Na14 Na38 3.721992 1_555
Na14 Sn5 3.728592 1_455
Na14 Na21 3.814534 1_455
Na14 Na25 3.823328 1_555
Na14 Na29 3.867257 1_555
Na15 Sb11 3.158650 1_555
Na15 Sb0 3.173367 1_555
Na15 Sb16 3.192983 1_555
Na15 Sb12 3.307664 1_555
Na15 Na27 3.555179 1_555
Na15 Na39 3.721992 1_555
Na15 Sn4 3.728592 1_555
Na15 Na20 3.814534 1_555
Na15 Na24 3.823328 1_555
Na15 Na28 3.867257 1_555
Na16 Sb21 3.078130 1_555
Na16 Sb20 3.137445 1_655
Na16 Sb4 3.200526 1_555
Na16 Sb6 3.212670 1_665
Na16 Na18 3.519821 1_665
Na16 Na38 3.592302 1_655
Na16 Na35 3.646089 1_565
Na16 Sn0 3.688641 1_655
Na16 Na33 3.693438 1_655
Na16 Na39 3.728925 1_555
Na16 Na32 3.733030 1_555
Na17 Sb20 3.078130 1_555
Na17 Sb21 3.137445 1_555
Na17 Sb5 3.200526 1_555
Na17 Sb7 3.212670 1_555
Na17 Na19 3.519821 1_555
Na17 Na39 3.592302 1_555
Na17 Na34 3.646089 1_555
Na17 Sn1 3.688641 1_555
Na17 Na32 3.693438 1_555
Na17 Na38 3.728925 1_555
Na17 Na33 3.733030 1_555
Na18 Sb23 3.078130 1_555
Na18 Sb22 3.137445 1_455
Na18 Sb6 3.200526 1_555
Na18 Sb4 3.212670 1_445
Na18 Na36 3.592302 1_455
Na18 Na8 3.604437 1_555
Na18 Na33 3.646089 1_545
Na18 Sn2 3.688641 1_455
Na18 Na35 3.693438 1_455
Na18 Na37 3.728925 1_555
Na18 Na34 3.733030 1_555
Na19 Sb22 3.078130 1_555
Na19 Sb23 3.137445 1_555
Na19 Sb7 3.200526 1_555
Na19 Sb5 3.212670 1_555
Na19 Na37 3.592302 1_555
Na19 Na9 3.604437 1_555
Na19 Na32 3.646089 1_555
Na19 Sn3 3.688641 1_555
Na19 Na34 3.693438 1_555
Na19 Na36 3.728925 1_555
Na19 Na35 3.733030 1_555
Na20 Sb12 3.186491 1_455
Na20 Sb8 3.364137 1_555
Na20 Sb11 3.395323 1_555
Na20 Sn4 3.550767 1_555
Na20 Sb0 3.598652 1_555
Na20 Sb17 3.682968 1_556
Na20 Sn7 3.814589 1_555
Na20 Sn0 3.895893 1_555
Na20 Na24 3.943064 1_455
Na20 Na28 3.989526 1_455
Na21 Sb13 3.186491 1_555
Na21 Sb9 3.364137 1_555
Na21 Sb10 3.395323 1_565
Na21 Sn5 3.550767 1_555
Na21 Sb1 3.598652 1_555
Na21 Sb16 3.682968 1_554
Na21 Sn6 3.814589 1_565
Na21 Sn1 3.895893 1_555
Na21 Na25 3.943064 1_555
Na21 Na29 3.989526 1_555
Na22 Sb14 3.186491 1_655
Na22 Sb10 3.364137 1_555
Na22 Sb9 3.395323 1_555
Na22 Na3 3.454030 1_554
Na22 Sn6 3.550767 1_555
Na22 Sb2 3.598652 1_555
Na22 Sb19 3.682968 1_554
Na22 Sn5 3.814589 1_555
Na22 Sn2 3.895893 1_555
Na22 Na26 3.943064 1_655
Na22 Na30 3.989526 1_655
Na23 Sb15 3.186491 1_555
Na23 Sb11 3.364137 1_555
Na23 Sb8 3.395323 1_545
Na23 Sn7 3.550767 1_555
Na23 Sb3 3.598652 1_555
Na23 Sb18 3.682968 1_556
Na23 Sn4 3.814589 1_545
Na23 Na3 3.890081 1_555
Na23 Sn3 3.895893 1_555
Na23 Na27 3.943064 1_555
Na23 Na31 3.989526 1_555
Na24 Sb4 3.205533 1_555
Na24 Sb16 3.302241 1_555
Na24 Sb8 3.324235 1_655
Na24 Sb12 3.380277 1_555
Na24 Sn0 3.764253 1_655
Na24 Sb15 3.880707 1_565
Na24 Na7 3.949165 1_565
Na24 Na8 3.983123 1_665
Na25 Sb5 3.205533 1_555
Na25 Sb17 3.302241 1_555
Na25 Sb9 3.324235 1_555
Na25 Sb13 3.380277 1_555
Na25 Sn1 3.764253 1_555
Na25 Sb14 3.880707 1_555
Na25 Na6 3.949165 1_555
Na25 Na9 3.983123 1_555
Na26 Sb6 3.205533 1_555
Na26 Sb18 3.302241 1_555
Na26 Sb10 3.324235 1_455
Na26 Sb14 3.380277 1_555
Na26 Sn2 3.764253 1_455
Na26 Sb13 3.880707 1_545
Na26 Na5 3.949165 1_545
Na27 Sb7 3.205533 1_555
Na27 Sb19 3.302241 1_555
Na27 Sb11 3.324235 1_555
Na27 Sb15 3.380277 1_555
Na27 Na3 3.599905 1_555
Na27 Sn3 3.764253 1_555
Na27 Sb12 3.880707 1_555
Na27 Na4 3.949165 1_555
Na28 Sb17 3.277033 1_656
Na28 Sb19 3.300386 1_555
Na28 Sb9 3.305418 1_556
Na28 Sb12 3.555416 1_555
Na28 Na30 3.672589 1_656
Na28 Na3 3.687697 1_555
Na28 Sn5 3.772301 1_556
Na28 Sb16 3.856617 1_555
Na29 Sb16 3.277033 1_554
Na29 Sb18 3.300386 1_565
Na29 Sb8 3.305418 1_554
Na29 Sb13 3.555416 1_555
Na29 Na31 3.672589 1_564
Na29 Sn4 3.772301 1_554
Na29 Sb17 3.856617 1_555
Na30 Sb19 3.277033 1_454
Na30 Sb17 3.300386 1_555
Na30 Sb11 3.305418 1_554
Na30 Sb14 3.555416 1_555
Na30 Sn7 3.772301 1_554
Na30 Sb18 3.856617 1_555
Na31 Sb18 3.277033 1_556
Na31 Sb16 3.300386 1_545
Na31 Sb10 3.305418 1_556
Na31 Sb15 3.555416 1_555
Na31 Sn6 3.772301 1_556
Na31 Sb19 3.856617 1_555
Na32 Sb1 3.305477 1_555
Na32 Sb20 3.360190 1_655
Na32 Sb22 3.414703 1_555
Na32 Sb21 3.477022 1_555
Na32 Na6 3.599939 1_655
Na32 Na4 3.630636 1_555
Na32 Sn1 3.638156 1_555
Na32 Sb7 3.844751 1_555
Na32 Na39 3.968747 1_555
Na32 Na9 4.096331 1_555
Na33 Sb0 3.305477 1_555
Na33 Sb21 3.360190 1_555
Na33 Sb23 3.414703 1_565
Na33 Sb20 3.477022 1_555
Na33 Na7 3.599939 1_565
Na33 Na5 3.630636 1_555
Na33 Sn0 3.638156 1_555
Na33 Sb6 3.844751 1_565
Na33 Na38 3.968747 1_555
Na33 Na8 4.096331 1_565
Na34 Sb3 3.305477 1_555
Na34 Sb22 3.360190 1_455
Na34 Sb20 3.414703 1_555
Na34 Sb23 3.477022 1_555
Na34 Na4 3.599939 1_455
Na34 Na6 3.630636 1_555
Na34 Sn3 3.638156 1_555
Na34 Sb5 3.844751 1_555
Na34 Na37 3.968747 1_555
Na35 Sb2 3.305477 1_555
Na35 Sb23 3.360190 1_555
Na35 Sb21 3.414703 1_545
Na35 Sb22 3.477022 1_555
Na35 Na5 3.599939 1_545
Na35 Na7 3.630636 1_555
Na35 Sn2 3.638156 1_555
Na35 Sb4 3.844751 1_545
Na35 Na36 3.968747 1_555
Na36 Sb22 3.339622 1_555
Na36 Sb7 3.379093 1_555
Na36 Sb3 3.479130 1_655
Na36 Sb4 3.565453 1_545
Na36 Na4 3.633243 1_555
Na36 Sn3 3.665016 1_555
Na36 Na7 3.672175 1_555
Na36 Sb15 3.712661 1_555
Na37 Sb23 3.339622 1_555
Na37 Sb6 3.379093 1_555
Na37 Sb2 3.479130 1_555
Na37 Sb5 3.565453 1_555
Na37 Na5 3.633243 1_545
Na37 Sn2 3.665016 1_455
Na37 Na6 3.672175 1_555
Na37 Sb14 3.712661 1_555
Na38 Sb20 3.339622 1_555
Na38 Sb5 3.379093 1_555
Na38 Sb1 3.479130 1_455
Na38 Sb6 3.565453 1_565
Na38 Na6 3.633243 1_555
Na38 Sn1 3.665016 1_555
Na38 Na5 3.672175 1_555
Na38 Sb13 3.712661 1_555
Na39 Sb21 3.339622 1_555
Na39 Sb4 3.379093 1_555
Na39 Sb0 3.479130 1_555
Na39 Sb7 3.565453 1_555
Na39 Na7 3.633243 1_565
Na39 Sn0 3.665016 1_655
Na39 Na4 3.672175 1_555
Na39 Sb12 3.712661 1_555
Sb0 Sn0 2.948450 1_555
Sb0 Sn4 2.986154 1_555
Sb1 Sn1 2.948450 1_555
Sb1 Sn5 2.986154 1_555
Sb2 Sn2 2.948450 1_555
Sb2 Sn6 2.986154 1_555
Sb3 Sn3 2.948450 1_555
Sb3 Sn7 2.986154 1_555
Sb4 Sn0 2.869488 1_655
Sb5 Sn1 2.869488 1_555
Sb6 Sn2 2.869488 1_455
Sb7 Sn3 2.869488 1_555
Sb8 Sn4 2.857549 1_555
Sb9 Sn5 2.857549 1_555
Sb10 Sn6 2.857549 1_555
Sb11 Sn7 2.857549 1_555
Sb12 Sn0 2.924739 1_655
Sb12 Sn7 2.935823 1_655
Sb13 Sn1 2.924739 1_555
Sb13 Sn6 2.935823 1_565
Sb14 Sn2 2.924739 1_455
Sb14 Sn5 2.935823 1_455
Sb15 Sn3 2.924739 1_555
Sb15 Sn4 2.935823 1_545
Sb16 Sn4 2.854091 1_555
Sb17 Sn5 2.854091 1_455
Sb18 Sn6 2.854091 1_555
Sb19 Sn7 2.854091 1_655
Sb20 Sn0 2.884596 1_555
Sb21 Sn1 2.884596 1_555
Sb22 Sn2 2.884596 1_555
Sb23 Sn3 2.884596 1_555
