# generated using pymatgen
data_H6CN4O
_symmetry_space_group_name_H-M   'P 1'
_cell_length_a   8.90660200
_cell_length_b   3.80535400
_cell_length_c   12.52561740
_cell_angle_alpha   72.60991084
_cell_angle_beta   90.00000000
_cell_angle_gamma   90.00000000
_symmetry_Int_Tables_number   1
_chemical_formula_structural   H6CN4O
_chemical_formula_sum   'H24 C4 N16 O4'
_cell_volume   405.12360981
_cell_formula_units_Z   4
loop_
 _symmetry_equiv_pos_site_id
 _symmetry_equiv_pos_as_xyz
  1  'x, y, z'
loop_
 _atom_site_type_symbol
 _atom_site_label
 _atom_site_symmetry_multiplicity
 _atom_site_fract_x
 _atom_site_fract_y
 _atom_site_fract_z
 _atom_site_occupancy
  H  H0  1  0.52814600  0.45721600  0.16599900  1
  H  H1  1  0.02814600  0.54278400  0.33400100  1
  H  H2  1  0.47185400  0.54278400  0.83400100  1
  H  H3  1  0.97185400  0.45721600  0.66599900  1
  H  H4  1  0.45558000  0.78063700  0.21332700  1
  H  H5  1  0.95558000  0.21936300  0.28667300  1
  H  H6  1  0.54442000  0.21936300  0.78667300  1
  H  H7  1  0.04442000  0.78063700  0.71332700  1
  H  H8  1  0.70911100  0.68178900  0.26787600  1
  H  H9  1  0.20911100  0.31821100  0.23212400  1
  H  H10  1  0.29088900  0.31821100  0.73212400  1
  H  H11  1  0.79088900  0.68178900  0.76787600  1
  H  H12  1  0.86953900  0.54972800  0.95280300  1
  H  H13  1  0.87137200  0.09111400  0.47959500  1
  H  H14  1  0.13046100  0.45027200  0.04719700  1
  H  H15  1  0.63046100  0.54972800  0.45280300  1
  H  H16  1  0.92147100  0.20979800  0.90447300  1
  H  H17  1  0.42147100  0.79020200  0.59552700  1
  H  H18  1  0.07852900  0.79020200  0.09552700  1
  H  H19  1  0.57852900  0.20979800  0.40447300  1
  H  H20  1  0.62862800  0.09111400  0.97959500  1
  H  H21  1  0.12862800  0.90888600  0.52040500  1
  H  H22  1  0.37137200  0.90888600  0.02040500  1
  H  H23  1  0.36953900  0.45027200  0.54719700  1
  C  C0  1  0.72093500  0.99992700  0.61225800  1
  C  C1  1  0.27906500  0.00007300  0.38774200  1
  C  C2  1  0.22093500  0.00007300  0.88774200  1
  C  C3  1  0.77906500  0.99992700  0.11225800  1
  N  N0  1  0.17307800  0.17164700  0.31145400  1
  N  N1  1  0.02994000  0.26480200  0.34416600  1
  N  N2  1  0.47006000  0.26480200  0.84416600  1
  N  N3  1  0.97006000  0.73519800  0.65583400  1
  N  N4  1  0.67307800  0.82835300  0.18854600  1
  N  N5  1  0.52994000  0.73519800  0.15583400  1
  N  N6  1  0.32692200  0.17164700  0.81145400  1
  N  N7  1  0.82692200  0.82835300  0.68854600  1
  N  N8  1  0.76127100  0.10383400  0.50189500  1
  N  N9  1  0.32936000  0.65041900  0.57917800  1
  N  N10  1  0.82936000  0.34958100  0.92082200  1
  N  N11  1  0.67064000  0.34958100  0.42082200  1
  N  N12  1  0.73872900  0.10383400  0.00189500  1
  N  N13  1  0.23872900  0.89616600  0.49810500  1
  N  N14  1  0.26127100  0.89616600  0.99810500  1
  N  N15  1  0.17064000  0.65041900  0.07917800  1
  O  O0  1  0.90843900  0.05979500  0.14398500  1
  O  O1  1  0.40843900  0.94020500  0.35601500  1
  O  O2  1  0.09156100  0.94020500  0.85601500  1
  O  O3  1  0.59156100  0.05979500  0.64398500  1
loop_
_geom_bond_atom_site_label_1
_geom_bond_atom_site_label_2
_geom_bond_distance
_geom_bond_site_symmetry_2
H0 N5 1.027103 1_555
H1 N1 1.027103 1_555
H2 N2 1.027103 1_555
H3 N3 1.027103 1_555
H4 N5 1.030320 1_555
H5 N1 1.030320 1_655
H6 N2 1.030320 1_555
H7 N3 1.030320 1_455
H8 N4 1.034478 1_555
H9 N0 1.034478 1_555
H10 N6 1.034478 1_555
H11 N7 1.034478 1_555
H12 N10 1.025173 1_555
H13 N8 1.024730 1_555
H14 N15 1.025173 1_555
H15 N11 1.025173 1_555
H16 N10 1.031038 1_555
H17 N9 1.031038 1_555
H18 N15 1.031038 1_555
H19 N11 1.031038 1_555
H20 N12 1.024730 1_556
H21 N13 1.024730 1_555
H22 N14 1.024730 1_554
H23 N9 1.025173 1_555
C0 O3 1.261627 1_565
C0 N7 1.362917 1_555
C0 N8 1.367339 1_565
C1 O1 1.261627 1_545
C1 N0 1.362917 1_555
C1 N13 1.367339 1_545
C2 O2 1.261627 1_545
C2 N6 1.362917 1_555
C2 N14 1.367339 1_545
C3 O0 1.261627 1_565
C3 N4 1.362917 1_555
C3 N12 1.367339 1_565
N0 N1 1.416217 1_555
N2 N6 1.416217 1_555
N3 N7 1.416217 1_555
N4 N5 1.416217 1_555
N10 N12 1.410560 1_556
N11 N8 1.410560 1_555
N13 N9 1.410560 1_555
N14 N15 1.410560 1_556
