# generated using pymatgen
data_Na7Ti2Zn2SiP5O24
_symmetry_space_group_name_H-M   'P 1'
_cell_length_a   8.96109408
_cell_length_b   8.96351040
_cell_length_c   21.89249775
_cell_angle_alpha   90.16979700
_cell_angle_beta   89.68598368
_cell_angle_gamma   119.96921406
_symmetry_Int_Tables_number   1
_chemical_formula_structural   Na7Ti2Zn2SiP5O24
_chemical_formula_sum   'Na21 Ti6 Zn6 Si3 P15 O72'
_cell_volume   1523.32726355
_cell_formula_units_Z   3
loop_
 _symmetry_equiv_pos_site_id
 _symmetry_equiv_pos_as_xyz
  1  'x, y, z'
loop_
 _atom_site_type_symbol
 _atom_site_label
 _atom_site_symmetry_multiplicity
 _atom_site_fract_x
 _atom_site_fract_y
 _atom_site_fract_z
 _atom_site_occupancy
  Na  Na0  1  0.36085967  0.37039052  0.25304041  1
  Na  Na1  1  0.00897094  0.63807428  0.25257733  1
  Na  Na2  1  0.62852785  0.64125610  0.75095748  1
  Na  Na3  1  0.00863591  0.37190248  0.75238744  1
  Na  Na4  1  0.36063837  0.98680086  0.75301422  1
  Na  Na5  1  0.29450663  0.31871981  0.58333728  1
  Na  Na6  1  0.02631324  0.70620804  0.58531017  1
  Na  Na7  1  0.67849870  0.97085953  0.58756180  1
  Na  Na8  1  0.29345540  0.97375557  0.08583250  1
  Na  Na9  1  0.68124108  0.70582327  0.08420339  1
  Na  Na10  1  0.02853213  0.32380897  0.08602079  1
  Na  Na11  1  0.95915021  0.65561537  0.92069397  1
  Na  Na12  1  0.69411342  0.03611330  0.91917087  1
  Na  Na13  1  0.96379358  0.30541641  0.41865076  1
  Na  Na14  1  0.34642494  0.04080163  0.42032569  1
  Na  Na15  1  0.99543755  0.99056250  0.50325053  1
  Na  Na16  1  0.01045477  0.00425479  0.00303673  1
  Na  Na17  1  0.65507099  0.33371624  0.83910292  1
  Na  Na18  1  0.66474835  0.33417711  0.33777200  1
  Na  Na19  1  0.34526554  0.67918213  0.17272118  1
  Na  Na20  1  0.33733561  0.66957017  0.67089550  1
  Ti  Ti0  1  0.99454689  0.99497727  0.35104804  1
  Ti  Ti1  1  0.99925815  0.00597511  0.85085449  1
  Ti  Ti2  1  0.66309091  0.32172720  0.68424058  1
  Ti  Ti3  1  0.67316388  0.33160695  0.18437490  1
  Ti  Ti4  1  0.32635987  0.66379651  0.01769305  1
  Ti  Ti5  1  0.33856506  0.67397309  0.51727622  1
  Zn  Zn0  1  0.00068476  0.99782256  0.65201914  1
  Zn  Zn1  1  0.99906975  0.99510618  0.15259084  1
  Zn  Zn2  1  0.66148618  0.33750310  0.98479049  1
  Zn  Zn3  1  0.66182346  0.33778104  0.48402987  1
  Zn  Zn4  1  0.34024257  0.67223103  0.31817588  1
  Zn  Zn5  1  0.33929065  0.67086638  0.81905887  1
  Si  Si0  1  0.70511761  0.00062653  0.74753271  1
  Si  Si1  1  0.36928536  0.03613553  0.58013046  1
  Si  Si2  1  0.96227391  0.62896374  0.08066410  1
  P  P0  1  0.29654569  0.00180182  0.24932548  1
  P  P1  1  0.70532932  0.70538383  0.24782064  1
  P  P2  1  0.99442270  0.28855101  0.24871788  1
  P  P3  1  0.29369866  0.29195605  0.74837277  1
  P  P4  1  0.99675573  0.70488926  0.74959744  1
  P  P5  1  0.96169752  0.33675180  0.58070660  1
  P  P6  1  0.66347755  0.62243101  0.58275005  1
  P  P7  1  0.66462072  0.03998031  0.08080372  1
  P  P8  1  0.37664208  0.33635057  0.08348905  1
  P  P9  1  0.62738103  0.66696775  0.91486723  1
  P  P10  1  0.04332197  0.37089496  0.91442714  1
  P  P11  1  0.33170376  0.96261366  0.91569796  1
  P  P12  1  0.62994370  0.95838213  0.41508151  1
  P  P13  1  0.33180025  0.37267490  0.41412942  1
  P  P14  1  0.03919553  0.66761459  0.41481185  1
  O  O0  1  0.19945774  0.02910629  0.30615435  1
  O  O1  1  0.83243118  0.80587122  0.30289481  1
  O  O2  1  0.97310494  0.17264829  0.30620910  1
  O  O3  1  0.19851312  0.16576910  0.80381435  1
  O  O4  1  0.97130037  0.80047649  0.80651316  1
  O  O5  1  0.83772292  0.03423286  0.80775635  1
  O  O6  1  0.78693012  0.96689394  0.68793157  1
  O  O7  1  0.19015067  0.21841147  0.69028340  1
  O  O8  1  0.03352126  0.81309037  0.69214354  1
  O  O9  1  0.78101345  0.80461089  0.18924143  1
  O  O10  1  0.02557028  0.21187453  0.19135615  1
  O  O11  1  0.19007728  0.97288495  0.19165031  1
  O  O12  1  0.87105583  0.36696860  0.63875687  1
  O  O13  1  0.50273555  0.13389005  0.64071536  1
  O  O14  1  0.63342681  0.50628654  0.64125438  1
  O  O15  1  0.86401433  0.49496319  0.14090882  1
  O  O16  1  0.63271519  0.13471762  0.13679003  1
  O  O17  1  0.49489641  0.36665868  0.14144427  1
  O  O18  1  0.45152262  0.29495577  0.02829439  1
  O  O19  1  0.84823703  0.54749499  0.02109783  1
  O  O20  1  0.69517116  0.14559472  0.02304866  1
  O  O21  1  0.45114824  0.15145111  0.52076699  1
  O  O22  1  0.70116420  0.54453487  0.52759810  1
  O  O23  1  0.85323804  0.30751495  0.52410011  1
  O  O24  1  0.53470957  0.69499153  0.97203583  1
  O  O25  1  0.15912972  0.46663733  0.97233808  1
  O  O26  1  0.30420651  0.83721708  0.97256332  1
  O  O27  1  0.53914339  0.84272984  0.47404608  1
  O  O28  1  0.30443336  0.46551687  0.47152677  1
  O  O29  1  0.16408956  0.69926383  0.47173743  1
  O  O30  1  0.11816892  0.63824717  0.35718203  1
  O  O31  1  0.51225991  0.87713281  0.36109522  1
  O  O32  1  0.34935905  0.47314526  0.35604396  1
  O  O33  1  0.12238872  0.48043749  0.85785212  1
  O  O34  1  0.36054008  0.88414403  0.85798503  1
  O  O35  1  0.52819449  0.64730935  0.85667493  1
  O  O36  1  0.03427461  0.84052707  0.41110712  1
  O  O37  1  0.81145601  0.97175716  0.41055240  1
  O  O38  1  0.15814923  0.19005602  0.41220766  1
  O  O39  1  0.03078925  0.18965983  0.91243931  1
  O  O40  1  0.15910770  0.96531685  0.91346875  1
  O  O41  1  0.80992128  0.84054639  0.91290992  1
  O  O42  1  0.98668245  0.18076064  0.58751859  1
  O  O43  1  0.17784841  0.00776863  0.58814472  1
  O  O44  1  0.81644392  0.80625927  0.58790627  1
  O  O45  1  0.99260399  0.82143737  0.08782194  1
  O  O46  1  0.82173040  0.01754091  0.08923223  1
  O  O47  1  0.19173021  0.18529489  0.09055170  1
  O  O48  1  0.69897333  0.18486173  0.74516655  1
  O  O49  1  0.47502206  0.30421187  0.74616841  1
  O  O50  1  0.82516944  0.52756019  0.74672897  1
  O  O51  1  0.69917488  0.52528873  0.24705650  1
  O  O52  1  0.82660720  0.30365908  0.24589793  1
  O  O53  1  0.47269553  0.17433509  0.24635140  1
  O  O54  1  0.65879587  0.51471076  0.91974794  1
  O  O55  1  0.86008277  0.34328398  0.92055294  1
  O  O56  1  0.49314971  0.13822775  0.92367821  1
  O  O57  1  0.65921804  0.14175283  0.42153233  1
  O  O58  1  0.48387448  0.34144211  0.41872299  1
  O  O59  1  0.86277765  0.50811875  0.42322029  1
  O  O60  1  0.36992979  0.50875453  0.07817581  1
  O  O61  1  0.15409288  0.63744198  0.07713965  1
  O  O62  1  0.49569492  0.85891747  0.07848429  1
  O  O63  1  0.36152743  0.84531807  0.57694863  1
  O  O64  1  0.49111583  0.63021521  0.57783768  1
  O  O65  1  0.14239995  0.50628708  0.57807285  1
  O  O66  1  0.31208380  0.84043122  0.25673472  1
  O  O67  1  0.52125833  0.67212713  0.25549103  1
  O  O68  1  0.15107896  0.47186740  0.25487059  1
  O  O69  1  0.31618501  0.47195721  0.75650106  1
  O  O70  1  0.15056897  0.67515634  0.75675101  1
  O  O71  1  0.51260757  0.83809547  0.75422719  1
loop_
_geom_bond_atom_site_label_1
_geom_bond_atom_site_label_2
_geom_bond_distance
_geom_bond_site_symmetry_2
Na0 O67 2.345195 1_555
Na0 O53 2.422899 1_555
Na0 O32 2.454377 1_555
Na0 O68 2.463761 1_555
Na0 O51 2.631981 1_555
Na0 O17 2.723989 1_555
Na0 O0 2.895579 1_555
Na0 O10 2.939027 1_555
Na1 O68 2.395877 1_555
Na1 O66 2.399100 1_555
Na1 O51 2.437720 1_455
Na1 O30 2.494980 1_555
Na1 O52 2.604459 1_455
Na1 O15 2.767832 1_455
Na1 O1 2.885581 1_455
Na1 O11 2.924637 1_555
Na2 O69 2.430125 1_555
Na2 O50 2.438038 1_555
Na2 O71 2.454932 1_555
Na2 O35 2.488582 1_555
Na2 O49 2.622606 1_555
Na2 O14 2.695973 1_555
Na2 O6 2.881231 1_555
Na2 O4 2.932906 1_555
Na3 O70 2.358237 1_555
Na3 O48 2.427189 1_455
Na3 O69 2.437357 1_555
Na3 O33 2.517578 1_555
Na3 O50 2.638172 1_455
Na3 O12 2.772877 1_455
Na3 O5 2.888960 1_455
Na3 O7 2.930462 1_555
Na4 O71 2.333671 1_555
Na4 O70 2.469742 1_555
Na4 O34 2.477811 1_555
Na4 O49 2.501017 1_565
Na4 O48 2.644240 1_565
Na4 O13 2.776968 1_565
Na4 O3 2.867243 1_565
Na4 O8 2.874627 1_555
Na5 O42 2.395109 1_455
Na5 O43 2.441721 1_555
Na5 O64 2.449363 1_555
Na5 O7 2.512594 1_555
Na5 O65 2.643894 1_555
Na5 O28 2.762396 1_555
Na5 O21 2.857275 1_555
Na5 O14 2.930266 1_555
Na6 O43 2.342448 1_565
Na6 O44 2.455184 1_455
Na6 O65 2.485441 1_555
Na6 O8 2.513719 1_555
Na6 O63 2.620088 1_555
Na6 O29 2.784336 1_555
Na6 O22 2.827900 1_455
Na6 O12 2.885773 1_455
Na7 O44 2.350991 1_555
Na7 O6 2.414972 1_555
Na7 O42 2.444489 1_565
Na7 O63 2.490093 1_555
Na7 O64 2.658139 1_555
Na7 O27 2.763808 1_555
Na7 O13 2.870475 1_565
Na7 O23 2.961149 1_565
Na8 O45 2.335772 1_455
Na8 O47 2.482260 1_565
Na8 O11 2.488838 1_555
Na8 O62 2.495877 1_555
Na8 O61 2.630846 1_555
Na8 O26 2.784503 1_554
Na8 O18 2.794606 1_565
Na8 O16 2.866018 1_565
Na9 O46 2.426797 1_565
Na9 O45 2.445062 1_555
Na9 O60 2.449388 1_555
Na9 O9 2.467969 1_555
Na9 O62 2.635559 1_555
Na9 O24 2.769528 1_554
Na9 O19 2.872214 1_555
Na9 O17 2.920422 1_555
Na10 O47 2.346572 1_555
Na10 O46 2.427461 1_455
Na10 O61 2.459188 1_555
Na10 O10 2.512308 1_555
Na10 O60 2.658201 1_555
Na10 O25 2.773594 1_554
Na10 O15 2.863606 1_455
Na10 O20 2.939518 1_455
Na11 O54 2.333247 1_555
Na11 O19 2.405208 1_556
Na11 O40 2.443749 1_655
Na11 O55 2.478457 1_555
Na11 O41 2.604576 1_555
Na11 O4 2.796675 1_555
Na11 O26 2.915322 1_655
Na11 O33 2.959383 1_655
Na12 O55 2.388005 1_555
Na12 O56 2.394767 1_555
Na12 O41 2.446043 1_545
Na12 O20 2.472360 1_556
Na12 O39 2.620310 1_655
Na12 O5 2.755508 1_555
Na12 O24 2.892811 1_545
Na12 O34 2.924054 1_545
Na13 O57 2.367229 1_555
Na13 O59 2.402444 1_555
Na13 O38 2.432717 1_655
Na13 O23 2.510882 1_555
Na13 O37 2.600036 1_545
Na13 O2 2.749988 1_555
Na13 O28 2.893031 1_655
Na13 O30 2.916347 1_655
Na14 O58 2.337569 1_555
Na14 O21 2.404031 1_555
Na14 O36 2.464749 1_545
Na14 O57 2.478472 1_555
Na14 O38 2.632043 1_555
Na14 O0 2.808829 1_555
Na14 O31 2.861424 1_545
Na14 O29 2.882954 1_545
Na15 O43 2.435084 1_665
Na15 O44 2.464737 1_555
Na15 O42 2.535641 1_565
Na15 O36 2.538276 1_655
Na15 O37 2.573322 1_555
Na15 O38 2.584685 1_665
Na16 O45 2.430864 1_445
Na16 O40 2.484571 1_544
Na16 O47 2.514944 1_555
Na16 O39 2.538104 1_554
Na16 O46 2.569059 1_455
Na16 O41 2.581248 1_444
Na17 O54 2.383223 1_555
Na17 O56 2.460431 1_555
Na17 O49 2.533590 1_555
Na17 O55 2.537637 1_555
Na17 O48 2.581379 1_555
Na17 O50 2.602521 1_555
Na18 O58 2.417719 1_555
Na18 O57 2.504451 1_555
Na18 O59 2.516800 1_555
Na18 O51 2.541509 1_555
Na18 O53 2.564685 1_555
Na18 O52 2.566180 1_555
Na19 O67 2.430295 1_555
Na19 O66 2.442947 1_555
Na19 O68 2.543724 1_555
Na19 O62 2.547246 1_555
Na19 O61 2.616809 1_555
Na19 O60 2.642022 1_555
Na20 O71 2.391999 1_555
Na20 O69 2.523122 1_555
Na20 O70 2.526877 1_555
Na20 O63 2.536118 1_555
Na20 O64 2.573815 1_555
Na20 O65 2.605773 1_555
O0 P0 1.601167 1_555
O0 Ti0 1.962668 1_445
O1 P1 1.595609 1_555
O1 Ti0 1.908139 1_555
O2 P2 1.583280 1_555
O2 Ti0 1.963113 1_545
O3 P3 1.585246 1_555
O3 Ti1 1.932288 1_455
O4 P4 1.588879 1_555
O4 Ti1 1.982183 1_565
O5 Si0 1.702431 1_555
O5 Ti1 1.852683 1_555
O6 Si0 1.593767 1_565
O6 Zn0 1.954044 1_655
O7 P3 1.519767 1_555
O7 Zn0 2.036109 1_545
O8 P4 1.521419 1_455
O8 Zn0 2.024422 1_555
O9 P1 1.513368 1_555
O9 Zn1 2.008761 1_555
O10 P2 1.519863 1_455
O10 Zn1 2.020731 1_445
O11 P0 1.528377 1_565
O11 Zn1 2.014508 1_455
O12 P5 1.598325 1_555
O12 Ti2 1.963665 1_555
O13 Si1 1.709005 1_555
O13 Ti2 1.842817 1_555
O14 P6 1.587712 1_555
O14 Ti2 2.035756 1_555
O15 Si2 1.702218 1_555
O15 Ti3 1.860903 1_555
O16 P7 1.593013 1_555
O16 Ti3 1.919731 1_555
O17 P8 1.591112 1_555
O17 Ti3 2.013357 1_555
O18 P8 1.511699 1_555
O18 Zn2 1.964232 1_554
O19 Si2 1.594211 1_555
O19 Zn2 1.958056 1_554
O20 P7 1.521260 1_555
O20 Zn2 2.069226 1_554
O21 Si1 1.592325 1_555
O21 Zn3 1.959995 1_555
O22 P6 1.511796 1_555
O22 Zn3 1.951674 1_555
O23 P5 1.518508 1_555
O23 Zn3 2.065951 1_555
O24 P9 1.585649 1_555
O24 Ti4 2.005682 1_556
O25 P10 1.593424 1_555
O25 Ti4 1.927381 1_556
O26 P11 1.613117 1_555
O26 Ti4 1.936866 1_556
O27 P12 1.598997 1_555
O27 Ti5 1.920416 1_555
O28 P13 1.589330 1_555
O28 Ti5 2.002320 1_555
O29 P14 1.606913 1_555
O29 Ti5 1.965286 1_555
O30 P14 1.528484 1_555
O30 Zn4 2.039482 1_555
O31 P12 1.510180 1_555
O31 Zn4 1.951767 1_555
O32 P13 1.521796 1_555
O32 Zn4 2.008378 1_555
O33 P10 1.517467 1_555
O33 Zn5 2.022031 1_555
O34 P11 1.526634 1_555
O34 Zn5 2.011364 1_555
O35 P9 1.516137 1_555
O35 Zn5 1.990400 1_555
O36 P14 1.574734 1_555
O36 Ti0 2.068931 1_455
O37 P12 1.572688 1_555
O37 Ti0 2.017235 1_555
O38 P13 1.599429 1_555
O38 Ti0 2.108586 1_445
O39 P10 1.571903 1_555
O39 Ti1 2.033389 1_455
O40 P11 1.559926 1_555
O40 Ti1 2.147031 1_465
O41 P9 1.598515 1_555
O41 Ti1 2.096724 1_565
O42 P5 1.530285 1_555
O42 Zn0 2.218056 1_645
O43 Si1 1.612297 1_555
O43 Zn0 2.078172 1_545
O44 P6 1.533235 1_555
O44 Zn0 2.196153 1_655
O45 Si2 1.614086 1_555
O45 Zn1 2.082046 1_555
O46 P7 1.530553 1_555
O46 Zn1 2.198846 1_545
O47 P8 1.536173 1_555
O47 Zn1 2.186114 1_445
O48 Si0 1.680534 1_555
O48 Ti2 1.948333 1_555
O49 P3 1.573338 1_555
O49 Ti2 2.101151 1_555
O50 P4 1.566327 1_555
O50 Ti2 2.171312 1_555
O51 P1 1.587495 1_555
O51 Ti3 2.129897 1_555
O52 P2 1.577378 1_555
O52 Ti3 2.033222 1_555
O53 P0 1.564658 1_555
O53 Ti3 2.123653 1_555
O54 P9 1.529137 1_555
O54 Zn2 2.145521 1_555
O55 P10 1.538588 1_655
O55 Zn2 2.242414 1_555
O56 P11 1.525562 1_545
O56 Zn2 2.138231 1_555
O57 P12 1.535769 1_545
O57 Zn3 2.214748 1_555
O58 P13 1.525911 1_555
O58 Zn3 2.159991 1_555
O59 P14 1.522286 1_655
O59 Zn3 2.141290 1_555
O60 P8 1.580900 1_555
O60 Ti4 2.096596 1_555
O61 Si2 1.683582 1_455
O61 Ti4 1.935981 1_555
O62 P7 1.572868 1_565
O62 Ti4 2.118862 1_555
O63 Si1 1.678000 1_565
O63 Ti5 1.945026 1_555
O64 P6 1.584803 1_555
O64 Ti5 2.083044 1_555
O65 P5 1.573458 1_455
O65 Ti5 2.113594 1_555
O66 P0 1.529954 1_565
O66 Zn4 2.131159 1_555
O67 P1 1.530964 1_555
O67 Zn4 2.119338 1_555
O68 P2 1.544352 1_455
O68 Zn4 2.233631 1_555
O69 P3 1.532758 1_555
O69 Zn5 2.171905 1_555
O70 P4 1.537848 1_455
O70 Zn5 2.193796 1_555
O71 Si0 1.614770 1_565
O71 Zn5 2.082327 1_555
