# generated using pymatgen
data_Na12Nb2Zn4Si3(PO6)6
_symmetry_space_group_name_H-M   'P 1'
_cell_length_a   9.15011478
_cell_length_b   9.15011446
_cell_length_c   21.93372983
_cell_angle_alpha   90.00000000
_cell_angle_beta   90.00000000
_cell_angle_gamma   120.00000115
_symmetry_Int_Tables_number   1
_chemical_formula_structural   Na12Nb2Zn4Si3(PO6)6
_chemical_formula_sum   'Na24 Nb4 Zn8 Si6 P12 O72'
_cell_volume   1590.36271407
_cell_formula_units_Z   2
loop_
 _symmetry_equiv_pos_site_id
 _symmetry_equiv_pos_as_xyz
  1  'x, y, z'
loop_
 _atom_site_type_symbol
 _atom_site_label
 _atom_site_symmetry_multiplicity
 _atom_site_fract_x
 _atom_site_fract_y
 _atom_site_fract_z
 _atom_site_occupancy
  Na  Na0  1  0.64684924  0.01416494  0.24442156  1
  Na  Na1  1  0.36731571  0.35315076  0.24442156  1
  Na  Na2  1  0.98583506  0.63268429  0.24442156  1
  Na  Na3  1  0.64684924  0.63268429  0.74442156  1
  Na  Na4  1  0.98583506  0.35315076  0.74442156  1
  Na  Na5  1  0.36731571  0.01416494  0.74442156  1
  Na  Na6  1  0.29167131  0.33784083  0.58173925  1
  Na  Na7  1  0.04617051  0.70832869  0.58173925  1
  Na  Na8  1  0.66215917  0.95382949  0.58173925  1
  Na  Na9  1  0.29167131  0.95382949  0.08173925  1
  Na  Na10  1  0.66215917  0.70832869  0.08173925  1
  Na  Na11  1  0.04617051  0.33784083  0.08173925  1
  Na  Na12  1  0.97858626  0.69250223  0.91439322  1
  Na  Na13  1  0.71391497  0.02141374  0.91439322  1
  Na  Na14  1  0.30749777  0.28608503  0.91439322  1
  Na  Na15  1  0.97858626  0.28608503  0.41439322  1
  Na  Na16  1  0.30749777  0.02141374  0.41439322  1
  Na  Na17  1  0.71391497  0.69250223  0.41439322  1
  Na  Na18  1  -0.00000000  0.00000000  0.49592226  1
  Na  Na19  1  -0.00000000  0.00000000  0.99592226  1
  Na  Na20  1  0.66666700  0.33333300  0.82652968  1
  Na  Na21  1  0.66666700  0.33333300  0.32652968  1
  Na  Na22  1  0.33333300  0.66666700  0.15816469  1
  Na  Na23  1  0.33333300  0.66666700  0.65816469  1
  Nb  Nb0  1  0.66666700  0.33333300  0.97890869  1
  Nb  Nb1  1  0.66666700  0.33333300  0.47890869  1
  Nb  Nb2  1  0.33333300  0.66666700  0.31762693  1
  Nb  Nb3  1  0.33333300  0.66666700  0.81762693  1
  Zn  Zn0  1  -0.00000000  0.00000000  0.34967145  1
  Zn  Zn1  1  -0.00000000  0.00000000  0.84967145  1
  Zn  Zn2  1  -0.00000000  0.00000000  0.65421746  1
  Zn  Zn3  1  -0.00000000  0.00000000  0.15421746  1
  Zn  Zn4  1  0.66666700  0.33333300  0.67836350  1
  Zn  Zn5  1  0.66666700  0.33333300  0.17836350  1
  Zn  Zn6  1  0.33333300  0.66666700  0.00953047  1
  Zn  Zn7  1  0.33333300  0.66666700  0.50953047  1
  Si  Si0  1  0.63009179  0.66824630  0.92083982  1
  Si  Si1  1  0.03815351  0.36990821  0.92083982  1
  Si  Si2  1  0.33175370  0.96184649  0.92083982  1
  Si  Si3  1  0.63009179  0.96184649  0.42083982  1
  Si  Si4  1  0.33175370  0.36990821  0.42083982  1
  Si  Si5  1  0.03815351  0.66824630  0.42083982  1
  P  P0  1  0.29703454  0.99725170  0.24997051  1
  P  P1  1  0.70021716  0.70296546  0.24997051  1
  P  P2  1  0.00274830  0.29978284  0.24997051  1
  P  P3  1  0.29703454  0.29978284  0.74997051  1
  P  P4  1  0.00274830  0.70296546  0.74997051  1
  P  P5  1  0.70021716  0.99725170  0.74997051  1
  P  P6  1  0.96110172  0.33325811  0.58584286  1
  P  P7  1  0.37215739  0.03889828  0.58584286  1
  P  P8  1  0.66674189  0.62784261  0.58584286  1
  P  P9  1  0.96110172  0.62784261  0.08584286  1
  P  P10  1  0.66674189  0.03889828  0.08584286  1
  P  P11  1  0.37215739  0.33325811  0.08584286  1
  O  O0  1  0.21657999  0.02360862  0.30701310  1
  O  O1  1  0.80702863  0.78342001  0.30701310  1
  O  O2  1  0.97639138  0.19297137  0.30701310  1
  O  O3  1  0.21657999  0.19297137  0.80701310  1
  O  O4  1  0.97639138  0.78342001  0.80701310  1
  O  O5  1  0.80702863  0.02360862  0.80701310  1
  O  O6  1  0.77372724  0.96078924  0.69208157  1
  O  O7  1  0.18706200  0.22627276  0.69208157  1
  O  O8  1  0.03921076  0.81293800  0.69208157  1
  O  O9  1  0.77372724  0.81293800  0.19208157  1
  O  O10  1  0.03921076  0.22627276  0.19208157  1
  O  O11  1  0.18706200  0.96078924  0.19208157  1
  O  O12  1  0.87782924  0.35541355  0.64356369  1
  O  O13  1  0.47758531  0.12217076  0.64356369  1
  O  O14  1  0.64458645  0.52241469  0.64356369  1
  O  O15  1  0.87782924  0.52241469  0.14356369  1
  O  O16  1  0.64458645  0.12217076  0.14356369  1
  O  O17  1  0.47758531  0.35541355  0.14356369  1
  O  O18  1  0.47626346  0.31921875  0.02901091  1
  O  O19  1  0.84295628  0.52373654  0.02901091  1
  O  O20  1  0.68078125  0.15704372  0.02901091  1
  O  O21  1  0.47626346  0.15704372  0.52901091  1
  O  O22  1  0.68078125  0.52373654  0.52901091  1
  O  O23  1  0.84295628  0.31921875  0.52901091  1
  O  O24  1  0.55303163  0.70355282  0.98064175  1
  O  O25  1  0.15052019  0.44696837  0.98064175  1
  O  O26  1  0.29644718  0.84947981  0.98064175  1
  O  O27  1  0.55303163  0.84947981  0.48064175  1
  O  O28  1  0.29644718  0.44696837  0.48064175  1
  O  O29  1  0.15052019  0.70355282  0.48064175  1
  O  O30  1  0.13472476  0.63214330  0.36113669  1
  O  O31  1  0.49741754  0.86527524  0.36113669  1
  O  O32  1  0.36785670  0.50258246  0.36113669  1
  O  O33  1  0.13472476  0.50258246  0.86113669  1
  O  O34  1  0.36785670  0.86527524  0.86113669  1
  O  O35  1  0.49741754  0.63214330  0.86113669  1
  O  O36  1  0.00602533  0.82316926  0.41031820  1
  O  O37  1  0.81714393  0.99397467  0.41031820  1
  O  O38  1  0.17683074  0.18285607  0.41031820  1
  O  O39  1  0.00602533  0.18285607  0.91031820  1
  O  O40  1  0.17683074  0.99397467  0.91031820  1
  O  O41  1  0.81714393  0.82316926  0.91031820  1
  O  O42  1  0.96532379  0.16671933  0.58300306  1
  O  O43  1  0.20139553  0.03467621  0.58300306  1
  O  O44  1  0.83328067  0.79860447  0.58300306  1
  O  O45  1  0.96532379  0.79860447  0.08300306  1
  O  O46  1  0.83328067  0.03467621  0.08300306  1
  O  O47  1  0.20139553  0.16671933  0.08300306  1
  O  O48  1  0.67215019  0.15094606  0.74618474  1
  O  O49  1  0.47879687  0.32784981  0.74618474  1
  O  O50  1  0.84905394  0.52120313  0.74618474  1
  O  O51  1  0.67215019  0.52120313  0.24618474  1
  O  O52  1  0.84905394  0.32784981  0.24618474  1
  O  O53  1  0.47879687  0.15094606  0.24618474  1
  O  O54  1  0.63316064  0.48657920  0.92256785  1
  O  O55  1  0.85341957  0.36683936  0.92256785  1
  O  O56  1  0.51342080  0.14658043  0.92256785  1
  O  O57  1  0.63316064  0.14658043  0.42256785  1
  O  O58  1  0.51342080  0.36683936  0.42256785  1
  O  O59  1  0.85341957  0.48657920  0.42256785  1
  O  O60  1  0.35441976  0.49091760  0.08194022  1
  O  O61  1  0.13649684  0.64558024  0.08194022  1
  O  O62  1  0.50908240  0.86350316  0.08194022  1
  O  O63  1  0.35441976  0.86350316  0.58194022  1
  O  O64  1  0.50908240  0.64558024  0.58194022  1
  O  O65  1  0.13649684  0.49091760  0.58194022  1
  O  O66  1  0.31352786  0.83101121  0.25568592  1
  O  O67  1  0.51748235  0.68647214  0.25568592  1
  O  O68  1  0.16898879  0.48251765  0.25568592  1
  O  O69  1  0.31352786  0.48251765  0.75568592  1
  O  O70  1  0.16898879  0.68647214  0.75568592  1
  O  O71  1  0.51748235  0.83101121  0.75568592  1
loop_
_geom_bond_atom_site_label_1
_geom_bond_atom_site_label_2
_geom_bond_distance
_geom_bond_site_symmetry_2
Na0 O53 2.420113 1_555
Na0 O16 2.427208 1_555
Na0 O52 2.520425 1_555
Na0 O67 2.627451 1_545
Na0 O66 2.657135 1_545
Na0 O9 2.862434 1_545
Na0 O31 2.901102 1_545
Na0 O2 2.953049 1_555
Na1 O51 2.420121 1_555
Na1 O17 2.427212 1_555
Na1 O53 2.520432 1_555
Na1 O68 2.627460 1_555
Na1 O67 2.657136 1_555
Na1 O10 2.862434 1_555
Na1 O32 2.901104 1_555
Na1 O0 2.953049 1_555
Na2 O52 2.420121 1_555
Na2 O15 2.427210 1_555
Na2 O51 2.520423 1_555
Na2 O66 2.627452 1_655
Na2 O68 2.657128 1_655
Na2 O11 2.862434 1_655
Na2 O30 2.901099 1_655
Na2 O1 2.953049 1_555
Na3 O49 2.420121 1_555
Na3 O14 2.427212 1_555
Na3 O50 2.520432 1_555
Na3 O71 2.627460 1_555
Na3 O69 2.657136 1_555
Na3 O6 2.862434 1_555
Na3 O35 2.901104 1_555
Na3 O4 2.953049 1_555
Na4 O50 2.420113 1_555
Na4 O12 2.427208 1_555
Na4 O48 2.520425 1_555
Na4 O69 2.627451 1_655
Na4 O70 2.657135 1_655
Na4 O7 2.862434 1_655
Na4 O33 2.901102 1_655
Na4 O5 2.953049 1_555
Na5 O48 2.420121 1_555
Na5 O13 2.427210 1_555
Na5 O49 2.520423 1_555
Na5 O70 2.627452 1_545
Na5 O71 2.657128 1_545
Na5 O8 2.862434 1_545
Na5 O34 2.901099 1_545
Na5 O3 2.953049 1_555
Na6 O28 2.423303 1_555
Na6 O65 2.442677 1_555
Na6 O43 2.467127 1_555
Na6 O64 2.506954 1_555
Na6 O42 2.587224 1_455
Na6 O7 2.615085 1_555
Na6 O14 3.108895 1_555
Na6 O21 3.117911 1_555
Na7 O29 2.423296 1_555
Na7 O63 2.442661 1_555
Na7 O44 2.467136 1_455
Na7 O65 2.506941 1_555
Na7 O43 2.587224 1_565
Na7 O8 2.615086 1_555
Na7 O12 3.108895 1_455
Na7 O22 3.117911 1_455
Na8 O27 2.423300 1_555
Na8 O64 2.442661 1_555
Na8 O42 2.467129 1_565
Na8 O63 2.506959 1_555
Na8 O44 2.587216 1_555
Na8 O6 2.615083 1_555
Na8 O13 3.108895 1_565
Na8 O23 3.117911 1_565
Na9 O26 2.423296 1_554
Na9 O61 2.442661 1_555
Na9 O47 2.467136 1_565
Na9 O62 2.506941 1_555
Na9 O45 2.587224 1_455
Na9 O11 2.615086 1_555
Na9 O16 3.108895 1_565
Na9 O18 3.117911 1_565
Na10 O24 2.423303 1_554
Na10 O62 2.442677 1_555
Na10 O45 2.467127 1_555
Na10 O60 2.506954 1_555
Na10 O46 2.587224 1_565
Na10 O9 2.615085 1_555
Na10 O17 3.108895 1_555
Na10 O19 3.117911 1_555
Na11 O25 2.423300 1_554
Na11 O60 2.442661 1_555
Na11 O46 2.467129 1_455
Na11 O61 2.506959 1_555
Na11 O47 2.587216 1_555
Na11 O10 2.615083 1_555
Na11 O15 3.108895 1_455
Na11 O20 3.117911 1_455
Na12 O41 2.320742 1_555
Na12 O40 2.429811 1_655
Na12 O4 2.501273 1_555
Na12 O55 2.609706 1_555
Na12 O54 2.759879 1_555
Na12 O19 2.885918 1_556
Na12 O26 2.907942 1_655
Na12 O33 2.984676 1_655
Na13 O39 2.320750 1_655
Na13 O41 2.429818 1_545
Na13 O5 2.501276 1_555
Na13 O56 2.609689 1_555
Na13 O55 2.759877 1_555
Na13 O20 2.885912 1_556
Na13 O24 2.907942 1_545
Na13 O34 2.984676 1_545
Na14 O40 2.320750 1_545
Na14 O39 2.429809 1_555
Na14 O3 2.501275 1_555
Na14 O54 2.609703 1_555
Na14 O56 2.759894 1_555
Na14 O18 2.885921 1_556
Na14 O25 2.907942 1_555
Na14 O35 2.984676 1_555
Na15 O37 2.320750 1_545
Na15 O38 2.429818 1_655
Na15 O2 2.501276 1_555
Na15 O59 2.609689 1_555
Na15 O57 2.759877 1_555
Na15 O23 2.885912 1_555
Na15 O28 2.907942 1_655
Na15 O30 2.984676 1_655
Na16 O38 2.320742 1_555
Na16 O36 2.429811 1_545
Na16 O0 2.501273 1_555
Na16 O57 2.609706 1_555
Na16 O58 2.759879 1_555
Na16 O21 2.885918 1_555
Na16 O29 2.907942 1_545
Na16 O31 2.984676 1_545
Na17 O36 2.320751 1_655
Na17 O37 2.429809 1_555
Na17 O1 2.501275 1_555
Na17 O58 2.609703 1_555
Na17 O59 2.759894 1_555
Na17 O22 2.885921 1_555
Na17 O27 2.907942 1_555
Na17 O32 2.984676 1_555
Na18 O38 2.497135 1_555
Na18 O36 2.497135 1_545
Na18 O37 2.497135 1_445
Na18 O44 2.561246 1_445
Na18 O43 2.561246 1_555
Na18 O42 2.561246 1_455
Na19 O39 2.497135 1_555
Na19 O41 2.497135 1_445
Na19 O40 2.497135 1_545
Na19 O45 2.561246 1_446
Na19 O47 2.561246 1_556
Na19 O46 2.561246 1_456
Na20 O50 2.444774 1_555
Na20 O48 2.444774 1_555
Na20 O49 2.444774 1_555
Na20 O54 2.631987 1_555
Na20 O56 2.631987 1_555
Na20 O55 2.631988 1_555
Na21 O51 2.444774 1_555
Na21 O53 2.444774 1_555
Na21 O52 2.444774 1_555
Na21 O58 2.631987 1_555
Na21 O59 2.631987 1_555
Na21 O57 2.631987 1_555
Na22 O62 2.393489 1_555
Na22 O60 2.393489 1_555
Na22 O61 2.393489 1_555
Na22 O68 2.672454 1_555
Na22 O66 2.672454 1_555
Na22 O67 2.672454 1_555
Na23 O63 2.393489 1_555
Na23 O65 2.393489 1_555
Na23 O64 2.393489 1_555
Na23 O69 2.672454 1_555
Na23 O71 2.672454 1_555
Na23 O70 2.672454 1_555
Nb0 O54 2.004304 1_555
Nb0 O56 2.004304 1_555
Nb0 O55 2.004304 1_555
Nb0 O20 2.008639 1_556
Nb0 O19 2.008639 1_556
Nb0 O18 2.008639 1_556
Nb1 O58 2.004304 1_555
Nb1 O59 2.004304 1_555
Nb1 O57 2.004304 1_555
Nb1 O21 2.008639 1_555
Nb1 O23 2.008639 1_555
Nb1 O22 2.008639 1_555
Nb2 O31 1.933650 1_555
Nb2 O32 1.933650 1_555
Nb2 O30 1.933650 1_555
Nb2 O68 2.100585 1_555
Nb2 O66 2.100585 1_555
Nb2 O67 2.100585 1_555
Nb3 O34 1.933650 1_555
Nb3 O33 1.933650 1_555
Nb3 O35 1.933650 1_555
Nb3 O69 2.100585 1_555
Nb3 O71 2.100585 1_555
Nb3 O70 2.100585 1_555
O0 P0 1.530699 1_545
O0 Zn0 2.102685 1_555
O1 P1 1.530699 1_555
O1 Zn0 2.102685 1_665
O2 P2 1.530699 1_655
O2 Zn0 2.102685 1_655
O3 P3 1.530699 1_555
O3 Zn1 2.102685 1_555
O4 P4 1.530699 1_655
O4 Zn1 2.102685 1_665
O5 P5 1.530699 1_545
O5 Zn1 2.102685 1_655
O6 P5 1.549303 1_555
O6 Zn2 2.088605 1_665
O7 P3 1.549303 1_555
O7 Zn2 2.088605 1_555
O8 P4 1.549303 1_555
O8 Zn2 2.088605 1_565
O9 P1 1.549303 1_555
O9 Zn3 2.088605 1_665
O10 P2 1.549303 1_555
O10 Zn3 2.088605 1_555
O11 P0 1.549303 1_555
O11 Zn3 2.088605 1_565
O12 P6 1.542393 1_555
O12 Zn4 1.991556 1_555
O13 P7 1.542393 1_555
O13 Zn4 1.991556 1_555
O14 P8 1.542393 1_555
O14 Zn4 1.991556 1_555
O15 P9 1.542393 1_555
O15 Zn5 1.991556 1_555
O16 P10 1.542393 1_555
O16 Zn5 1.991556 1_555
O17 P11 1.542393 1_555
O17 Zn5 1.991556 1_555
O18 P11 1.612495 1_555
O19 P9 1.612495 1_555
O20 P10 1.612495 1_555
O21 P7 1.612495 1_555
O22 P8 1.612495 1_555
O23 P6 1.612495 1_555
O24 Si0 1.596822 1_555
O24 Zn6 1.969289 1_556
O25 Si1 1.596822 1_555
O25 Zn6 1.969289 1_556
O26 Si2 1.596822 1_555
O26 Zn6 1.969289 1_556
O27 Si3 1.596822 1_555
O27 Zn7 1.969289 1_555
O28 Si4 1.596822 1_555
O28 Zn7 1.969289 1_555
O29 Si5 1.596822 1_555
O29 Zn7 1.969289 1_555
O30 Si5 1.701962 1_555
O31 Si3 1.701962 1_555
O32 Si4 1.701962 1_555
O33 Si1 1.701962 1_555
O34 Si2 1.701962 1_555
O35 Si0 1.701962 1_555
O36 Si5 1.601841 1_555
O36 Zn0 2.116529 1_565
O37 Si3 1.601850 1_555
O37 Zn0 2.116529 1_665
O38 Si4 1.601847 1_555
O38 Zn0 2.116529 1_555
O39 Si1 1.601850 1_555
O39 Zn1 2.116529 1_555
O40 Si2 1.601841 1_555
O40 Zn1 2.116529 1_565
O41 Si0 1.601847 1_555
O41 Zn1 2.116529 1_665
O42 P6 1.544784 1_555
O42 Zn2 2.313372 1_655
O43 P7 1.544793 1_555
O43 Zn2 2.313372 1_555
O44 P8 1.544789 1_555
O44 Zn2 2.313372 1_665
O45 P9 1.544793 1_555
O45 Zn3 2.313372 1_665
O46 P10 1.544784 1_555
O46 Zn3 2.313372 1_655
O47 P11 1.544789 1_555
O47 Zn3 2.313372 1_555
O48 P5 1.552982 1_545
O48 Zn4 2.254821 1_555
O49 P3 1.552991 1_555
O49 Zn4 2.254821 1_555
O50 P4 1.552988 1_655
O50 Zn4 2.254821 1_555
O51 P1 1.552991 1_555
O51 Zn5 2.254821 1_555
O52 P2 1.552982 1_655
O52 Zn5 2.254821 1_555
O53 P0 1.552988 1_545
O53 Zn5 2.254821 1_555
O54 Si0 1.676920 1_555
O55 Si1 1.676901 1_655
O56 Si2 1.676910 1_545
O57 Si3 1.676901 1_545
O58 Si4 1.676920 1_555
O59 Si5 1.676910 1_655
O60 P11 1.532614 1_555
O60 Zn6 2.335811 1_555
O61 P9 1.532596 1_455
O61 Zn6 2.335811 1_555
O62 P10 1.532604 1_565
O62 Zn6 2.335811 1_555
O63 P7 1.532596 1_565
O63 Zn7 2.335811 1_555
O64 P8 1.532614 1_555
O64 Zn7 2.335811 1_555
O65 P6 1.532604 1_455
O65 Zn7 2.335811 1_555
O66 P0 1.606816 1_555
O67 P1 1.606825 1_555
O68 P2 1.606821 1_555
O69 P3 1.606825 1_555
O70 P4 1.606816 1_555
O71 P5 1.606821 1_555
