# generated using pymatgen
data_MgV4ZnO10
_symmetry_space_group_name_H-M   'P 1'
_cell_length_a   3.69483114
_cell_length_b   5.42680006
_cell_length_c   11.33822700
_cell_angle_alpha   90.00000000
_cell_angle_beta   90.00000000
_cell_angle_gamma   109.87101626
_symmetry_Int_Tables_number   1
_chemical_formula_structural   MgV4ZnO10
_chemical_formula_sum   'Mg1 V4 Zn1 O10'
_cell_volume   213.80801446
_cell_formula_units_Z   1
loop_
 _symmetry_equiv_pos_site_id
 _symmetry_equiv_pos_as_xyz
  1  'x, y, z'
loop_
 _atom_site_type_symbol
 _atom_site_label
 _atom_site_symmetry_multiplicity
 _atom_site_fract_x
 _atom_site_fract_y
 _atom_site_fract_z
 _atom_site_occupancy
  Mg  Mg0  1  0.10774200  0.21371100  0.25000000  1
  V  V0  1  0.20215500  0.40364200  0.59671800  1
  V  V1  1  0.79871700  0.59650400  0.40116900  1
  V  V2  1  0.79871700  0.59650400  0.09883100  1
  V  V3  1  0.20215500  0.40364200  0.90328200  1
  Zn  Zn0  1  0.89596600  0.79221200  0.75000000  1
  O  O0  1  0.69738400  0.39341200  0.25000000  1
  O  O1  1  0.30279500  0.60532700  0.75000000  1
  O  O2  1  0.23306000  0.46501900  0.07747200  1
  O  O3  1  0.76509500  0.52965100  0.92576100  1
  O  O4  1  0.76509500  0.52965100  0.57423900  1
  O  O5  1  0.23306000  0.46501900  0.42252700  1
  O  O6  1  0.04255400  0.08471900  0.62864600  1
  O  O7  1  0.95836800  0.91595900  0.37101500  1
  O  O8  1  0.04255400  0.08471900  0.87135400  1
  O  O9  1  0.95836800  0.91595900  0.12898600  1
loop_
_geom_bond_atom_site_label_1
_geom_bond_atom_site_label_2
_geom_bond_distance
_geom_bond_site_symmetry_2
Mg0 O9 2.047415 1_445
Mg0 O7 2.047423 1_445
Mg0 O0 2.062308 1_555
Mg0 O0 2.062779 1_455
Mg0 O5 2.339141 1_555
Mg0 O2 2.339151 1_555
O0 V2 2.003029 1_555
O0 V1 2.003029 1_555
O1 V3 2.019899 1_555
O1 V0 2.019899 1_555
O1 Zn0 2.078684 1_555
O1 Zn0 2.079529 1_455
O2 V2 1.980330 1_455
O2 V2 1.980434 1_555
O2 V3 1.999693 1_554
O3 V3 1.972577 1_655
O3 V3 1.972798 1_555
O3 V2 1.991749 1_556
O3 Zn0 2.401459 1_555
O4 V0 1.972577 1_655
O4 V0 1.972798 1_555
O4 V1 1.991749 1_555
O4 Zn0 2.401459 1_555
O5 V1 1.980328 1_455
O5 V1 1.980432 1_555
O5 V0 1.999705 1_555
O6 V0 1.667455 1_555
O6 Zn0 2.030236 1_445
O7 V1 1.665861 1_555
O8 V3 1.667455 1_555
O8 Zn0 2.030236 1_445
O9 V2 1.665863 1_555
