# generated using pymatgen
data_NaScNb(PO4)3
_symmetry_space_group_name_H-M   'P 1'
_cell_length_a   8.80701313
_cell_length_b   8.80701285
_cell_length_c   23.03532747
_cell_angle_alpha   90.00000000
_cell_angle_beta   90.00000000
_cell_angle_gamma   120.00000108
_symmetry_Int_Tables_number   1
_chemical_formula_structural   NaScNb(PO4)3
_chemical_formula_sum   'Na6 Sc6 Nb6 P18 O72'
_cell_volume   1547.32766891
_cell_formula_units_Z   6
loop_
 _symmetry_equiv_pos_site_id
 _symmetry_equiv_pos_as_xyz
  1  'x, y, z'
loop_
 _atom_site_type_symbol
 _atom_site_label
 _atom_site_symmetry_multiplicity
 _atom_site_fract_x
 _atom_site_fract_y
 _atom_site_fract_z
 _atom_site_occupancy
  Na  Na0  1  0.00000000  0.00000000  0.49716173  1
  Na  Na1  1  0.00000000  0.00000000  0.99716173  1
  Na  Na2  1  0.66666700  0.33333300  0.83049473  1
  Na  Na3  1  0.66666700  0.33333300  0.33049473  1
  Na  Na4  1  0.33333300  0.66666700  0.16382873  1
  Na  Na5  1  0.33333300  0.66666700  0.66382873  1
  Sc  Sc0  1  0.00000000  0.00000000  0.35290127  1
  Sc  Sc1  1  0.00000000  0.00000000  0.85290127  1
  Sc  Sc2  1  0.66666700  0.33333300  0.68623427  1
  Sc  Sc3  1  0.66666700  0.33333300  0.18623427  1
  Sc  Sc4  1  0.33333300  0.66666700  0.01956827  1
  Sc  Sc5  1  0.33333300  0.66666700  0.51956827  1
  Nb  Nb0  1  0.00000000  0.00000000  0.64599239  1
  Nb  Nb1  1  0.00000000  0.00000000  0.14599239  1
  Nb  Nb2  1  0.66666700  0.33333300  0.97932539  1
  Nb  Nb3  1  0.66666700  0.33333300  0.47932539  1
  Nb  Nb4  1  0.33333300  0.66666700  0.31265939  1
  Nb  Nb5  1  0.33333300  0.66666700  0.81265939  1
  P  P0  1  0.28997314  0.00204476  0.25097663  1
  P  P1  1  0.71207162  0.71002686  0.25097663  1
  P  P2  1  0.99795524  0.28792838  0.25097663  1
  P  P3  1  0.28997314  0.28792838  0.75097663  1
  P  P4  1  0.99795524  0.71002686  0.75097663  1
  P  P5  1  0.71207162  0.00204476  0.75097663  1
  P  P6  1  0.95664014  0.33537776  0.58430963  1
  P  P7  1  0.37873862  0.04335986  0.58430963  1
  P  P8  1  0.66462224  0.62126138  0.58430963  1
  P  P9  1  0.95664014  0.62126138  0.08430963  1
  P  P10  1  0.66462224  0.04335986  0.08430963  1
  P  P11  1  0.37873862  0.33537776  0.08430963  1
  P  P12  1  0.62330614  0.66871176  0.91764363  1
  P  P13  1  0.04540462  0.37669386  0.91764363  1
  P  P14  1  0.33128824  0.95459538  0.91764363  1
  P  P15  1  0.62330614  0.95459538  0.41764363  1
  P  P16  1  0.33128824  0.37669386  0.41764363  1
  P  P17  1  0.04540462  0.66871176  0.41764363  1
  O  O0  1  0.20546792  0.02619883  0.30448120  1
  O  O1  1  0.82073091  0.79453208  0.30448120  1
  O  O2  1  0.97380117  0.17926909  0.30448120  1
  O  O3  1  0.20546792  0.17926909  0.80448120  1
  O  O4  1  0.97380117  0.79453208  0.80448120  1
  O  O5  1  0.82073091  0.02619883  0.80448120  1
  O  O6  1  0.79914335  0.96967297  0.69555789  1
  O  O7  1  0.17052962  0.20085665  0.69555789  1
  O  O8  1  0.03032703  0.82947038  0.69555789  1
  O  O9  1  0.79914335  0.82947038  0.19555789  1
  O  O10  1  0.03032703  0.20085665  0.19555789  1
  O  O11  1  0.17052962  0.96967297  0.19555789  1
  O  O12  1  0.87213492  0.35953183  0.63781420  1
  O  O13  1  0.48739791  0.12786508  0.63781420  1
  O  O14  1  0.64046817  0.51260209  0.63781420  1
  O  O15  1  0.87213492  0.51260209  0.13781420  1
  O  O16  1  0.64046817  0.12786508  0.13781420  1
  O  O17  1  0.48739791  0.35953183  0.13781420  1
  O  O18  1  0.46581035  0.30300597  0.02889089  1
  O  O19  1  0.83719662  0.53418965  0.02889089  1
  O  O20  1  0.69699403  0.16280338  0.02889089  1
  O  O21  1  0.46581035  0.16280338  0.52889089  1
  O  O22  1  0.69699403  0.53418965  0.52889089  1
  O  O23  1  0.83719662  0.30300597  0.52889089  1
  O  O24  1  0.53880092  0.69286583  0.97114820  1
  O  O25  1  0.15406391  0.46119908  0.97114820  1
  O  O26  1  0.30713417  0.84593609  0.97114820  1
  O  O27  1  0.53880092  0.84593609  0.47114820  1
  O  O28  1  0.30713417  0.46119908  0.47114820  1
  O  O29  1  0.15406391  0.69286583  0.47114820  1
  O  O30  1  0.13247635  0.63633997  0.36222489  1
  O  O31  1  0.50386262  0.86752365  0.36222489  1
  O  O32  1  0.36366003  0.49613738  0.36222489  1
  O  O33  1  0.13247635  0.49613738  0.86222489  1
  O  O34  1  0.36366003  0.86752365  0.86222489  1
  O  O35  1  0.50386262  0.63633997  0.86222489  1
  O  O36  1  0.01917090  0.82483148  0.40942419  1
  O  O37  1  0.80566058  0.98082910  0.40942419  1
  O  O38  1  0.17516852  0.19433942  0.40942419  1
  O  O39  1  0.01917090  0.19433942  0.90942419  1
  O  O40  1  0.17516852  0.98082910  0.90942419  1
  O  O41  1  0.80566058  0.82483148  0.90942419  1
  O  O42  1  0.97097375  0.16409343  0.59087496  1
  O  O43  1  0.19311968  0.02902625  0.59087496  1
  O  O44  1  0.83590657  0.80688032  0.59087496  1
  O  O45  1  0.97097375  0.80688032  0.09087496  1
  O  O46  1  0.83590657  0.02902625  0.09087496  1
  O  O47  1  0.19311968  0.16409343  0.09087496  1
  O  O48  1  0.68583790  0.15816448  0.74275719  1
  O  O49  1  0.47232758  0.31416210  0.74275719  1
  O  O50  1  0.84183552  0.52767242  0.74275719  1
  O  O51  1  0.68583790  0.52767242  0.24275719  1
  O  O52  1  0.84183552  0.31416210  0.24275719  1
  O  O53  1  0.47232758  0.15816448  0.24275719  1
  O  O54  1  0.63764075  0.49742643  0.92420796  1
  O  O55  1  0.85978668  0.36235925  0.92420796  1
  O  O56  1  0.50257357  0.14021332  0.92420796  1
  O  O57  1  0.63764075  0.14021332  0.42420796  1
  O  O58  1  0.50257357  0.36235925  0.42420796  1
  O  O59  1  0.85978668  0.49742643  0.42420796  1
  O  O60  1  0.35250390  0.49149848  0.07609119  1
  O  O61  1  0.13899358  0.64749610  0.07609119  1
  O  O62  1  0.50850152  0.86100642  0.07609119  1
  O  O63  1  0.35250390  0.86100642  0.57609119  1
  O  O64  1  0.50850152  0.64749610  0.57609119  1
  O  O65  1  0.13899358  0.49149848  0.57609119  1
  O  O66  1  0.30430675  0.83076043  0.25754196  1
  O  O67  1  0.52645268  0.69569325  0.25754196  1
  O  O68  1  0.16923957  0.47354732  0.25754196  1
  O  O69  1  0.30430675  0.47354732  0.75754196  1
  O  O70  1  0.16923957  0.69569325  0.75754196  1
  O  O71  1  0.52645268  0.83076043  0.75754196  1
loop_
_geom_bond_atom_site_label_1
_geom_bond_atom_site_label_2
_geom_bond_distance
_geom_bond_site_symmetry_2
Na0 O38 2.598775 1_555
Na0 O36 2.598775 1_545
Na0 O37 2.598775 1_445
Na0 O44 2.680179 1_445
Na0 O42 2.680179 1_455
Na0 O43 2.680179 1_555
Na1 O39 2.598775 1_555
Na1 O41 2.598775 1_445
Na1 O40 2.598775 1_545
Na1 O45 2.680179 1_446
Na1 O47 2.680179 1_556
Na1 O46 2.680179 1_456
Na2 O50 2.598775 1_555
Na2 O48 2.598775 1_555
Na2 O49 2.598775 1_555
Na2 O56 2.680179 1_555
Na2 O54 2.680179 1_555
Na2 O55 2.680179 1_555
Na3 O51 2.598775 1_555
Na3 O53 2.598775 1_555
Na3 O52 2.598775 1_555
Na3 O57 2.680179 1_555
Na3 O59 2.680179 1_555
Na3 O58 2.680179 1_555
Na4 O62 2.598775 1_555
Na4 O60 2.598775 1_555
Na4 O61 2.598775 1_555
Na4 O68 2.680179 1_555
Na4 O66 2.680179 1_555
Na4 O67 2.680179 1_555
Na5 O63 2.598775 1_555
Na5 O65 2.598775 1_555
Na5 O64 2.598775 1_555
Na5 O69 2.680179 1_555
Na5 O71 2.680179 1_555
Na5 O70 2.680179 1_555
Nb0 O7 2.007897 1_555
Nb0 O8 2.007898 1_545
Nb0 O6 2.007898 1_445
Nb0 O44 2.033548 1_445
Nb0 O42 2.033548 1_455
Nb0 O43 2.033548 1_555
Nb1 O10 2.007898 1_555
Nb1 O9 2.007898 1_445
Nb1 O11 2.007898 1_545
Nb1 O45 2.033548 1_445
Nb1 O47 2.033548 1_555
Nb1 O46 2.033548 1_455
Nb2 O19 2.007897 1_556
Nb2 O20 2.007898 1_556
Nb2 O18 2.007898 1_556
Nb2 O56 2.033548 1_555
Nb2 O54 2.033548 1_555
Nb2 O55 2.033548 1_555
Nb3 O22 2.007898 1_555
Nb3 O21 2.007898 1_555
Nb3 O23 2.007898 1_555
Nb3 O57 2.033548 1_555
Nb3 O59 2.033548 1_555
Nb3 O58 2.033548 1_555
Nb4 O31 2.007897 1_555
Nb4 O32 2.007898 1_555
Nb4 O30 2.007898 1_555
Nb4 O68 2.033548 1_555
Nb4 O66 2.033548 1_555
Nb4 O67 2.033548 1_555
Nb5 O34 2.007898 1_555
Nb5 O33 2.007898 1_555
Nb5 O35 2.007898 1_555
Nb5 O69 2.033548 1_555
Nb5 O71 2.033548 1_555
Nb5 O70 2.033548 1_555
O0 P0 1.508809 1_555
O0 Sc0 2.038203 1_555
O1 P1 1.508809 1_555
O1 Sc0 2.038203 1_665
O2 P2 1.508809 1_555
O2 Sc0 2.038203 1_655
O3 P3 1.508809 1_555
O3 Sc1 2.038203 1_555
O4 P4 1.508809 1_555
O4 Sc1 2.038203 1_665
O5 P5 1.508809 1_555
O5 Sc1 2.038203 1_655
O6 P5 1.586705 1_565
O7 P3 1.586705 1_555
O8 P4 1.586705 1_455
O9 P1 1.586705 1_555
O10 P2 1.586705 1_455
O11 P0 1.586705 1_565
O12 P6 1.508809 1_555
O12 Sc2 2.038203 1_555
O13 P7 1.508809 1_555
O13 Sc2 2.038203 1_555
O14 P8 1.508809 1_555
O14 Sc2 2.038203 1_555
O15 P9 1.508809 1_555
O15 Sc3 2.038203 1_555
O16 P10 1.508809 1_555
O16 Sc3 2.038203 1_555
O17 P11 1.508809 1_555
O17 Sc3 2.038203 1_555
O18 P11 1.586705 1_555
O19 P9 1.586705 1_555
O20 P10 1.586705 1_555
O21 P7 1.586705 1_555
O22 P8 1.586705 1_555
O23 P6 1.586705 1_555
O24 P12 1.508809 1_555
O24 Sc4 2.038203 1_556
O25 P13 1.508809 1_555
O25 Sc4 2.038203 1_556
O26 P14 1.508809 1_555
O26 Sc4 2.038203 1_556
O27 P15 1.508809 1_555
O27 Sc5 2.038203 1_555
O28 P16 1.508809 1_555
O28 Sc5 2.038203 1_555
O29 P17 1.508809 1_555
O29 Sc5 2.038203 1_555
O30 P17 1.586705 1_555
O31 P15 1.586705 1_555
O32 P16 1.586705 1_555
O33 P13 1.586705 1_555
O34 P14 1.586705 1_555
O35 P12 1.586705 1_555
O36 P17 1.515711 1_555
O36 Sc0 2.089067 1_565
O37 P15 1.515720 1_555
O37 Sc0 2.089067 1_665
O38 P16 1.515717 1_555
O38 Sc0 2.089067 1_555
O39 P13 1.515720 1_555
O39 Sc1 2.089067 1_555
O40 P14 1.515711 1_555
O40 Sc1 2.089067 1_565
O41 P12 1.515717 1_555
O41 Sc1 2.089067 1_665
O42 P6 1.582662 1_555
O43 P7 1.582670 1_555
O44 P8 1.582666 1_555
O45 P9 1.582670 1_555
O46 P10 1.582662 1_555
O47 P11 1.582666 1_555
O48 P5 1.515711 1_555
O48 Sc2 2.089067 1_555
O49 P3 1.515720 1_555
O49 Sc2 2.089067 1_555
O50 P4 1.515717 1_555
O50 Sc2 2.089067 1_555
O51 P1 1.515720 1_555
O51 Sc3 2.089067 1_555
O52 P2 1.515711 1_555
O52 Sc3 2.089067 1_555
O53 P0 1.515717 1_555
O53 Sc3 2.089067 1_555
O54 P12 1.582673 1_555
O55 P13 1.582656 1_655
O56 P14 1.582663 1_545
O57 P15 1.582655 1_545
O58 P16 1.582673 1_555
O59 P17 1.582663 1_655
O60 P11 1.515722 1_555
O60 Sc4 2.089067 1_555
O61 P9 1.515705 1_455
O61 Sc4 2.089067 1_555
O62 P10 1.515712 1_565
O62 Sc4 2.089067 1_555
O63 P7 1.515705 1_565
O63 Sc5 2.089067 1_555
O64 P8 1.515722 1_555
O64 Sc5 2.089067 1_555
O65 P6 1.515712 1_455
O65 Sc5 2.089067 1_555
O66 P0 1.582662 1_565
O67 P1 1.582670 1_555
O68 P2 1.582666 1_455
O69 P3 1.582670 1_555
O70 P4 1.582662 1_455
O71 P5 1.582666 1_565
