# generated using pymatgen
data_MgZn2(CoS2)4
_symmetry_space_group_name_H-M   'P 1'
_cell_length_a   7.17311288
_cell_length_b   6.73278597
_cell_length_c   7.17162666
_cell_angle_alpha   61.93160549
_cell_angle_beta   57.88916865
_cell_angle_gamma   61.93712654
_symmetry_Int_Tables_number   1
_chemical_formula_structural   MgZn2(CoS2)4
_chemical_formula_sum   'Mg1 Zn2 Co4 S8'
_cell_volume   247.36138912
_cell_formula_units_Z   1
loop_
 _symmetry_equiv_pos_site_id
 _symmetry_equiv_pos_as_xyz
  1  'x, y, z'
loop_
 _atom_site_type_symbol
 _atom_site_label
 _atom_site_symmetry_multiplicity
 _atom_site_fract_x
 _atom_site_fract_y
 _atom_site_fract_z
 _atom_site_occupancy
  Mg  Mg0  1  0.64851000  0.10391100  0.64866900  1
  Zn  Zn0  1  0.92709800  0.82191200  0.92711400  1
  Zn  Zn1  1  0.09731700  0.15334400  0.09731700  1
  Co  Co0  1  0.47222000  0.53884000  0.47216400  1
  Co  Co1  1  0.49669000  0.50213600  0.99854900  1
  Co  Co2  1  0.99845300  0.50222600  0.49659500  1
  Co  Co3  1  0.47415700  0.01466600  0.47411400  1
  S  S0  1  0.77730100  0.69247000  0.77727000  1
  S  S1  1  0.24610600  0.28654700  0.68082400  1
  S  S2  1  0.24596200  0.72642000  0.24594700  1
  S  S3  1  0.68070600  0.28654500  0.24622700  1
  S  S4  1  0.77908000  0.25248300  0.77906000  1
  S  S5  1  0.32224900  0.72070300  0.73477500  1
  S  S6  1  0.24742500  0.27890800  0.24740900  1
  S  S7  1  0.73487500  0.72073700  0.32211500  1
loop_
_geom_bond_atom_site_label_1
_geom_bond_atom_site_label_2
_geom_bond_distance
_geom_bond_site_symmetry_2
Mg0 S4 2.333475 1_555
Mg0 S0 2.339120 1_545
Mg0 S3 2.472677 1_555
Mg0 S1 2.473197 1_555
Mg0 Zn0 2.947961 1_545
Co0 S5 2.231680 1_555
Co0 S7 2.232228 1_555
Co0 S3 2.317594 1_555
Co0 S1 2.318448 1_555
Co0 S2 2.409065 1_555
Co0 Mg0 2.550637 1_555
Co1 S2 2.288325 1_556
Co1 S6 2.291883 1_556
Co1 S3 2.295194 1_556
Co1 S4 2.302779 1_555
Co1 S0 2.308558 1_555
Co1 S5 2.339662 1_555
Co2 S2 2.288445 1_655
Co2 S6 2.291914 1_655
Co2 S1 2.296229 1_655
Co2 S4 2.302680 1_555
Co2 S0 2.308393 1_555
Co2 S7 2.338903 1_555
Co3 S5 2.231802 1_545
Co3 S7 2.232184 1_545
Co3 S3 2.319289 1_555
Co3 S1 2.320038 1_555
Co3 S6 2.412536 1_555
Co3 Mg0 2.563519 1_555
S0 Zn0 2.461484 1_555
S1 Zn1 2.419871 1_556
S1 S4 3.135822 1_455
S2 Zn1 2.444703 1_565
S3 Zn1 2.421182 1_655
S3 S4 3.135724 1_554
S4 Zn0 2.462618 1_545
S5 Zn0 2.304752 1_455
S6 Zn1 2.444928 1_555
S7 Zn0 2.303316 1_554
