# generated using pymatgen
data_Zr2Si(SO6)2
_symmetry_space_group_name_H-M   'P 1'
_cell_length_a   9.06537408
_cell_length_b   9.06449086
_cell_length_c   23.29860474
_cell_angle_alpha   90.00772011
_cell_angle_beta   90.00000000
_cell_angle_gamma   120.00322326
_symmetry_Int_Tables_number   1
_chemical_formula_structural   Zr2Si(SO6)2
_chemical_formula_sum   'Zr12 Si6 S12 O72'
_cell_volume   1657.96584080
_cell_formula_units_Z   6
loop_
 _symmetry_equiv_pos_site_id
 _symmetry_equiv_pos_as_xyz
  1  'x, y, z'
loop_
 _atom_site_type_symbol
 _atom_site_label
 _atom_site_symmetry_multiplicity
 _atom_site_fract_x
 _atom_site_fract_y
 _atom_site_fract_z
 _atom_site_occupancy
  Zr  Zr0  1  0.98936839  0.00920005  0.35595608  1
  Zr  Zr1  1  0.01983165  0.00920005  0.85595608  1
  Zr  Zr2  1  0.00774554  0.01931692  0.64418270  1
  Zr  Zr3  1  0.01157139  0.01931692  0.14418270  1
  Zr  Zr4  1  0.67127098  0.33702256  0.68920291  1
  Zr  Zr5  1  0.66575258  0.33702256  0.18920291  1
  Zr  Zr6  1  0.64716033  0.32391399  0.97733809  1
  Zr  Zr7  1  0.67675467  0.32391399  0.47733809  1
  Zr  Zr8  1  0.32934956  0.66781139  0.02271001  1
  Zr  Zr9  1  0.33846083  0.66781139  0.52271001  1
  Zr  Zr10  1  0.33520115  0.67080035  0.31074899  1
  Zr  Zr11  1  0.33559820  0.67080035  0.81074899  1
  Si  Si0  1  0.00011894  0.29436035  0.24994761  1
  Si  Si1  1  0.29424141  0.29436035  0.74994761  1
  Si  Si2  1  0.95879376  0.33796703  0.58403053  1
  Si  Si3  1  0.37917427  0.33796703  0.08403053  1
  Si  Si4  1  0.33353849  0.95187560  0.91668305  1
  Si  Si5  1  0.61833611  0.95187560  0.41668305  1
  S  S0  1  0.28831446  -0.00005318  0.25020769  1
  S  S1  1  0.71199197  0.71185845  0.24981629  1
  S  S2  1  -0.00013352  0.71185845  0.74981629  1
  S  S3  1  0.71163236  -0.00005318  0.75020769  1
  S  S4  1  0.37781278  0.04448119  0.58332953  1
  S  S5  1  0.66848580  0.62256873  0.58323459  1
  S  S6  1  0.95408394  0.62256873  0.08323459  1
  S  S7  1  0.66666941  0.04448119  0.08332953  1
  S  S8  1  0.62318290  0.66869587  0.91655832  1
  S  S9  1  0.04321804  0.37842863  0.91676463  1
  S  S10  1  0.33520960  0.37842863  0.41676463  1
  S  S11  1  0.04551197  0.66869587  0.41655832  1
  O  O0  1  0.21049301  0.02682684  0.30165502  1
  O  O1  1  0.81918511  0.78845721  0.30152666  1
  O  O2  1  0.97150824  0.16971983  0.30507991  1
  O  O3  1  0.19821159  0.16971983  0.80507991  1
  O  O4  1  0.96927209  0.78845721  0.80152666  1
  O  O5  1  0.81633382  0.02682684  0.80165502  1
  O  O6  1  0.78837941  0.96932077  0.69852482  1
  O  O7  1  0.16962198  0.19794808  0.69484315  1
  O  O8  1  0.02688328  0.81632200  0.69833833  1
  O  O9  1  0.78943872  0.81632200  0.19833833  1
  O  O10  1  0.02832610  0.19794808  0.19484315  1
  O  O11  1  0.18094136  0.96932077  0.19852482  1
  O  O12  1  0.86266744  0.36161144  0.63926417  1
  O  O13  1  0.48456099  0.12299164  0.63460306  1
  O  O14  1  0.63717578  0.51406073  0.63492958  1
  O  O15  1  0.87688595  0.51406073  0.13492958  1
  O  O16  1  0.63843164  0.12299164  0.13460306  1
  O  O17  1  0.49894500  0.36161144  0.13926417  1
  O  O18  1  0.46927039  0.30541596  0.02818977  1
  O  O19  1  0.85020183  0.54246650  0.03162274  1
  O  O20  1  0.69834574  0.15246586  0.03194566  1
  O  O21  1  0.45412112  0.15246586  0.53194566  1
  O  O22  1  0.69226567  0.54246650  0.53162274  1
  O  O23  1  0.83614657  0.30541596  0.52818977  1
  O  O24  1  0.54231448  0.69380728  0.96804174  1
  O  O25  1  0.15241402  0.45520696  0.96808114  1
  O  O26  1  0.30581800  0.83398850  0.97267605  1
  O  O27  1  0.52816950  0.83398850  0.47267605  1
  O  O28  1  0.30279194  0.45520696  0.46808114  1
  O  O29  1  0.15149180  0.69380728  0.46804174  1
  O  O30  1  0.12205339  0.63620936  0.36519903  1
  O  O31  1  0.50063690  0.86160429  0.36066556  1
  O  O32  1  0.36044247  0.48468176  0.36533787  1
  O  O33  1  0.12423830  0.48468176  0.86533787  1
  O  O34  1  0.36096638  0.86160429  0.86066556  1
  O  O35  1  0.51415497  0.63620936  0.86519903  1
  O  O36  1  0.02772068  0.81967346  0.40745792  1
  O  O37  1  0.80665894  0.97264870  0.40783586  1
  O  O38  1  0.18428132  0.20641910  0.40824463  1
  O  O39  1  0.02213779  0.20641910  0.90824463  1
  O  O40  1  0.16598976  0.97264870  0.90783586  1
  O  O41  1  0.79195279  0.81967346  0.90745792  1
  O  O42  1  0.97249196  0.16588012  0.59224493  1
  O  O43  1  0.20555301  0.02141861  0.59166597  1
  O  O44  1  0.81832461  0.79193546  0.59284955  1
  O  O45  1  0.97361085  0.79193546  0.09284955  1
  O  O46  1  0.81586560  0.02141861  0.09166597  1
  O  O47  1  0.19338816  0.16588012  0.09224493  1
  O  O48  1  0.69048926  0.15011452  0.74132407  1
  O  O49  1  0.47783346  0.31036852  0.73810211  1
  O  O50  1  0.84786993  0.54042077  0.74234282  1
  O  O51  1  0.69255184  0.54042077  0.24234282  1
  O  O52  1  0.83253606  0.31036852  0.23810211  1
  O  O53  1  0.45962626  0.15011452  0.24132407  1
  O  O54  1  0.64449659  0.51781295  0.92500388  1
  O  O55  1  0.87468923  0.36094043  0.92584127  1
  O  O56  1  0.50087954  0.14010678  0.92557882  1
  O  O57  1  0.63922824  0.14010678  0.42557882  1
  O  O58  1  0.48625220  0.36094043  0.42584127  1
  O  O59  1  0.87331736  0.51781295  0.42500388  1
  O  O60  1  0.35590968  0.50062880  0.07157210  1
  O  O61  1  0.12536445  0.63999768  0.07552513  1
  O  O62  1  0.51546230  0.87401823  0.07502369  1
  O  O63  1  0.35855493  0.87401823  0.57502369  1
  O  O64  1  0.51463224  0.63999768  0.57552513  1
  O  O65  1  0.14471811  0.50062880  0.57157210  1
  O  O66  1  0.30736792  0.84781385  0.25770746  1
  O  O67  1  0.54052573  0.69048937  0.25857990  1
  O  O68  1  0.16731934  0.47795970  0.26186460  1
  O  O69  1  0.31063936  0.47795970  0.76186460  1
  O  O70  1  0.14996264  0.69048937  0.75857990  1
  O  O71  1  0.54044493  0.84781385  0.75770746  1
loop_
_geom_bond_atom_site_label_1
_geom_bond_atom_site_label_2
_geom_bond_distance
_geom_bond_site_symmetry_2
O0 S0 1.471620 1_555
O0 Zr0 2.307417 1_455
O1 S1 1.484208 1_555
O1 Zr0 2.214506 1_565
O2 Si0 1.643475 1_655
O2 Zr0 1.945363 1_555
O3 Si1 1.643475 1_555
O3 Zr1 1.945363 1_555
O4 S2 1.484208 1_655
O4 Zr1 2.214506 1_665
O5 S3 1.471620 1_555
O5 Zr1 2.307417 1_655
O6 S3 1.484636 1_565
O6 Zr2 2.204969 1_665
O7 Si1 1.643355 1_555
O7 Zr2 1.947191 1_555
O8 S2 1.470872 1_555
O8 Zr2 2.308196 1_565
O9 S1 1.470872 1_555
O9 Zr3 2.308196 1_665
O10 Si0 1.643355 1_555
O10 Zr3 1.947191 1_555
O11 S0 1.484636 1_565
O11 Zr3 2.204969 1_565
O12 Si2 1.627282 1_555
O12 Zr4 2.006796 1_555
O13 S4 1.476828 1_555
O13 Zr4 2.227617 1_555
O14 S5 1.489873 1_555
O14 Zr4 2.183194 1_555
O15 S6 1.489873 1_555
O15 Zr5 2.183194 1_555
O16 S7 1.476828 1_555
O16 Zr5 2.227617 1_555
O17 Si3 1.627282 1_555
O17 Zr5 2.006796 1_555
O18 Si3 1.639418 1_555
O18 Zr6 1.939596 1_554
O19 S6 1.475109 1_555
O19 Zr6 2.294503 1_554
O20 S7 1.480876 1_555
O20 Zr6 2.229557 1_554
O21 S4 1.480876 1_555
O21 Zr7 2.229558 1_555
O22 S5 1.475109 1_555
O22 Zr7 2.294503 1_555
O23 Si2 1.639418 1_555
O23 Zr7 1.939596 1_555
O24 S8 1.481501 1_555
O24 Zr8 2.224899 1_556
O25 S9 1.484759 1_555
O25 Zr8 2.194210 1_556
O26 Si4 1.624413 1_555
O26 Zr8 1.998805 1_556
O27 Si5 1.624413 1_555
O27 Zr9 1.998805 1_555
O28 S10 1.484759 1_555
O28 Zr9 2.194210 1_555
O29 S11 1.481501 1_555
O29 Zr9 2.224899 1_555
O30 S11 1.484683 1_555
O30 Zr10 2.198981 1_555
O31 Si5 1.624171 1_555
O31 Zr10 1.999602 1_555
O32 S10 1.481735 1_555
O32 Zr10 2.214229 1_555
O33 S9 1.481735 1_555
O33 Zr11 2.214229 1_555
O34 Si4 1.624171 1_555
O34 Zr11 1.999602 1_555
O35 S8 1.484683 1_555
O35 Zr11 2.198981 1_555
O36 S11 1.471285 1_555
O36 Zr0 2.260530 1_465
O37 Si5 1.634334 1_555
O37 Zr0 1.940490 1_565
O38 S10 1.486230 1_555
O38 Zr0 2.154633 1_455
O39 S9 1.486233 1_555
O39 Zr1 2.154633 1_555
O40 Si4 1.634325 1_555
O40 Zr1 1.940490 1_565
O41 S8 1.471290 1_555
O41 Zr1 2.260530 1_665
O42 Si2 1.636789 1_555
O42 Zr2 1.938155 1_655
O43 S4 1.481062 1_555
O43 Zr2 2.163072 1_555
O44 S5 1.471916 1_555
O44 Zr2 2.255422 1_665
O45 S6 1.471919 1_555
O45 Zr3 2.255422 1_665
O46 S7 1.481053 1_555
O46 Zr3 2.163072 1_655
O47 Si3 1.636794 1_555
O47 Zr3 1.938155 1_555
O48 S3 1.481022 1_555
O48 Zr4 2.161285 1_555
O49 Si1 1.620402 1_555
O49 Zr4 2.001937 1_555
O50 S2 1.484016 1_655
O50 Zr4 2.131322 1_555
O51 S1 1.484020 1_555
O51 Zr5 2.131322 1_555
O52 Si0 1.620393 1_655
O52 Zr5 2.001937 1_555
O53 S0 1.481027 1_555
O53 Zr5 2.161285 1_555
O54 S8 1.486925 1_555
O54 Zr6 2.149296 1_555
O55 S9 1.470290 1_655
O55 Zr6 2.261505 1_555
O56 Si4 1.633022 1_545
O56 Zr6 1.943843 1_555
O57 Si5 1.633015 1_545
O57 Zr7 1.943843 1_555
O58 S10 1.470307 1_555
O58 Zr7 2.261505 1_555
O59 S11 1.486915 1_655
O59 Zr7 2.149296 1_555
O60 Si3 1.616736 1_555
O60 Zr8 2.003962 1_555
O61 S6 1.490921 1_455
O61 Zr8 2.128640 1_555
O62 S7 1.478380 1_565
O62 Zr8 2.161335 1_555
O63 S4 1.478372 1_565
O63 Zr9 2.161335 1_555
O64 S5 1.490939 1_555
O64 Zr9 2.128640 1_555
O65 Si2 1.616725 1_455
O65 Zr9 2.003962 1_555
O66 S0 1.483344 1_565
O66 Zr10 2.137947 1_555
O67 S1 1.481310 1_555
O67 Zr10 2.154448 1_555
O68 Si0 1.619046 1_555
O68 Zr10 2.001951 1_555
O69 Si1 1.619049 1_555
O69 Zr11 2.001951 1_555
O70 S2 1.481301 1_555
O70 Zr11 2.154448 1_555
O71 S3 1.483349 1_565
O71 Zr11 2.137947 1_555
