# generated using pymatgen
data_MgCd2(BiO3)2
_symmetry_space_group_name_H-M   'P 1'
_cell_length_a   5.56458951
_cell_length_b   7.02002750
_cell_length_c   5.77107555
_cell_angle_alpha   63.13246042
_cell_angle_beta   117.61251132
_cell_angle_gamma   114.96516471
_symmetry_Int_Tables_number   1
_chemical_formula_structural   MgCd2(BiO3)2
_chemical_formula_sum   'Mg1 Cd2 Bi2 O6'
_cell_volume   171.63177267
_cell_formula_units_Z   1
loop_
 _symmetry_equiv_pos_site_id
 _symmetry_equiv_pos_as_xyz
  1  'x, y, z'
loop_
 _atom_site_type_symbol
 _atom_site_label
 _atom_site_symmetry_multiplicity
 _atom_site_fract_x
 _atom_site_fract_y
 _atom_site_fract_z
 _atom_site_occupancy
  Mg  Mg0  1  0.35442290  0.27169800  0.26333399  1
  Cd  Cd0  1  0.69541334  0.40984819  0.89785696  1
  Cd  Cd1  1  0.46226031  0.85399351  0.02104478  1
  Bi  Bi0  1  0.88365021  0.05057840  0.64708386  1
  Bi  Bi1  1  0.10231103  0.62540127  0.46597177  1
  O  O0  1  0.02010582  0.71863773  0.73008892  1
  O  O1  1  0.58556560  0.16771390  0.68571581  1
  O  O2  1  0.22398651  0.33695303  0.83690227  1
  O  O3  1  0.65476709  0.57640209  0.19490452  1
  O  O4  1  0.45449001  0.98176266  0.30821753  1
  O  O5  1  0.02135917  0.28826021  0.30304659  1
loop_
_geom_bond_atom_site_label_1
_geom_bond_atom_site_label_2
_geom_bond_distance
_geom_bond_site_symmetry_2
Mg0 O5 2.025025 1_555
Mg0 O3 2.086910 1_555
Mg0 O2 2.097366 1_554
Mg0 O1 2.099287 1_555
Mg0 O4 2.205969 1_545
Cd0 O5 2.248894 1_656
Cd0 O1 2.252103 1_555
Cd0 O0 2.306363 1_655
Cd0 O2 2.332681 1_555
Cd0 O3 2.598327 1_556
Cd1 O3 2.224903 1_555
Cd1 O4 2.235119 1_555
Cd1 O1 2.273575 1_564
Cd1 O0 2.326999 1_554
Bi0 O5 2.156390 1_655
Bi0 O1 2.266515 1_555
Bi0 O4 2.304718 1_545
Bi0 O2 2.383635 1_655
Bi0 O0 2.526562 1_645
Bi1 O0 2.182146 1_555
Bi1 O3 2.217987 1_455
Bi1 O2 2.244328 1_555
Bi1 O4 2.526774 1_555
Bi1 O5 2.721628 1_555
O1 O4 2.697397 1_545
O2 O3 2.826136 1_556
O2 O5 2.878647 1_555
O2 O4 2.931965 1_546
