# generated using pymatgen
data_MgMn6O7F5
_symmetry_space_group_name_H-M   'P 1'
_cell_length_a   5.47005209
_cell_length_b   7.57974455
_cell_length_c   5.78548327
_cell_angle_alpha   96.62269809
_cell_angle_beta   83.29718075
_cell_angle_gamma   91.52258958
_symmetry_Int_Tables_number   1
_chemical_formula_structural   MgMn6O7F5
_chemical_formula_sum   'Mg1 Mn6 O7 F5'
_cell_volume   236.62520255
_cell_formula_units_Z   1
loop_
 _symmetry_equiv_pos_site_id
 _symmetry_equiv_pos_as_xyz
  1  'x, y, z'
loop_
 _atom_site_type_symbol
 _atom_site_label
 _atom_site_symmetry_multiplicity
 _atom_site_fract_x
 _atom_site_fract_y
 _atom_site_fract_z
 _atom_site_occupancy
  Mg  Mg0  1  0.00354748  0.50359633  0.00637250  1
  Mn  Mn0  1  0.50804905  0.98983888  0.48330742  1
  Mn  Mn1  1  0.50224588  0.66632181  0.13299224  1
  Mn  Mn2  1  0.51087535  0.33904929  0.83543049  1
  Mn  Mn3  1  0.91747462  0.71047040  0.58783026  1
  Mn  Mn4  1  0.04671719  0.16809242  0.53681224  1
  Mn  Mn5  1  0.99644520  0.98577117  0.00474423  1
  O  O0  1  0.85099367  0.75445652  0.94876865  1
  O  O1  1  0.82504990  0.06098080  0.32019739  1
  O  O2  1  0.60605730  0.75106892  0.43589133  1
  O  O3  1  0.65302554  0.43962889  0.10426574  1
  O  O4  1  0.35038738  0.55834412  0.86482434  1
  O  O5  1  0.38422001  0.23386145  0.54909291  1
  O  O6  1  0.14657191  0.94701820  0.65095613  1
  F  F0  1  0.90385846  0.41530131  0.65912509  1
  F  F1  1  0.69946905  0.11016739  0.80888778  1
  F  F2  1  0.33454690  0.90838388  0.14850336  1
  F  F3  1  0.12769426  0.59214944  0.30302174  1
  F  F4  1  0.13276885  0.24049881  0.01183514  1
loop_
_geom_bond_atom_site_label_1
_geom_bond_atom_site_label_2
_geom_bond_distance
_geom_bond_site_symmetry_2
Mg0 O3 1.998152 1_455
Mg0 O4 2.028839 1_554
Mg0 O0 2.172180 1_454
Mn0 O2 1.881704 1_555
Mn0 O5 1.966929 1_565
Mn0 O1 1.968193 1_565
Mn0 O6 2.132282 1_555
Mn1 O3 1.907297 1_555
Mn1 O4 1.933595 1_554
Mn1 O2 1.938896 1_555
Mn1 O0 2.200755 1_554
Mn2 O4 1.881486 1_555
Mn2 O3 1.892675 1_556
Mn2 O5 1.947795 1_555
Mn3 O2 2.051590 1_555
Mn3 O0 2.067021 1_555
Mn3 O6 2.180589 1_655
Mn4 O5 1.906673 1_555
Mn4 O1 1.941048 1_455
Mn4 O6 1.982538 1_545
Mn5 O0 1.914948 1_554
Mn5 O1 1.980848 1_565
Mn5 O6 2.105219 1_654
F0 Mn4 2.065270 1_655
F0 Mg0 2.169683 1_656
F0 Mn3 2.319064 1_555
F0 Mn2 2.356592 1_555
F0 F3 2.738880 1_655
F1 Mn2 2.023427 1_555
F1 Mn0 2.343014 1_545
F1 Mn5 2.359973 1_546
F1 Mn4 2.386550 1_655
F1 F4 2.868783 1_656
F2 Mn1 2.061106 1_555
F2 Mn5 2.232821 1_455
F2 Mn0 2.270694 1_555
F2 F3 2.817615 1_555
F3 Mg0 1.959430 1_555
F3 Mn3 2.028139 1_455
F3 Mn1 2.253281 1_555
F4 Mn5 2.048897 1_445
F4 Mg0 2.138265 1_555
F4 Mn2 2.340574 1_554
F4 O1 2.757673 1_455
F4 Mn4 2.831241 1_554
