# generated using pymatgen
data_Na8Ca3Si3Ge(SO8)3
_symmetry_space_group_name_H-M   'P 1'
_cell_length_a   9.41267645
_cell_length_b   9.43853378
_cell_length_c   22.68354882
_cell_angle_alpha   90.53413128
_cell_angle_beta   88.83261779
_cell_angle_gamma   120.65048179
_symmetry_Int_Tables_number   1
_chemical_formula_structural   Na8Ca3Si3Ge(SO8)3
_chemical_formula_sum   'Na24 Ca9 Si9 Ge3 S9 O72'
_cell_volume   1733.34363013
_cell_formula_units_Z   3
loop_
 _symmetry_equiv_pos_site_id
 _symmetry_equiv_pos_as_xyz
  1  'x, y, z'
loop_
 _atom_site_type_symbol
 _atom_site_label
 _atom_site_symmetry_multiplicity
 _atom_site_fract_x
 _atom_site_fract_y
 _atom_site_fract_z
 _atom_site_occupancy
  Na  Na0  1  0.63283381  0.99978517  0.26489419  1
  Na  Na1  1  0.36681130  0.36898658  0.23940923  1
  Na  Na2  1  0.99714885  0.62184269  0.25292713  1
  Na  Na3  1  0.62670369  0.64995607  0.73102897  1
  Na  Na4  1  0.98779232  0.34218160  0.75613504  1
  Na  Na5  1  0.36810446  0.00884888  0.73506750  1
  Na  Na6  1  0.32129670  0.33215800  0.58065818  1
  Na  Na7  1  0.04799903  0.72453843  0.56463539  1
  Na  Na8  1  0.64696914  0.93641029  0.57690350  1
  Na  Na9  1  0.27906165  0.95536088  0.06887727  1
  Na  Na10  1  0.66392926  0.67738839  0.08033114  1
  Na  Na11  1  0.06274886  0.35194538  0.07202834  1
  Na  Na12  1  0.98525509  0.67949375  0.92711162  1
  Na  Na13  1  0.70899094  0.04748206  0.90543673  1
  Na  Na14  1  0.31604252  0.30135562  0.92520319  1
  Na  Na15  1  0.97457065  0.32631112  0.41946929  1
  Na  Na16  1  0.33243193  0.00560502  0.43271370  1
  Na  Na17  1  0.69329291  0.67979757  0.44020760  1
  Na  Na18  1  0.99471675  0.98583393  0.49910287  1
  Na  Na19  1  0.02246340  0.00768153  0.99877281  1
  Na  Na20  1  0.66330855  0.31582052  0.83560166  1
  Na  Na21  1  0.67881332  0.33139220  0.34685439  1
  Na  Na22  1  0.31015369  0.64803771  0.15508943  1
  Na  Na23  1  0.36410605  0.69156321  0.65615148  1
  Ca  Ca0  1  0.99307232  0.99325988  0.35356516  1
  Ca  Ca1  1  0.00109411  0.00601726  0.84949232  1
  Ca  Ca2  1  0.97845766  0.98078078  0.64714839  1
  Ca  Ca3  1  0.00824521  0.99638123  0.14227127  1
  Ca  Ca4  1  0.66235724  0.32769101  0.68283036  1
  Ca  Ca5  1  0.66641804  0.33637799  0.18014721  1
  Ca  Ca6  1  0.33559962  0.66936494  0.01370109  1
  Ca  Ca7  1  0.33876964  0.67206547  0.51327461  1
  Ca  Ca8  1  0.32586921  0.68022631  0.33008700  1
  Si  Si0  1  0.67417097  0.98185900  0.75800793  1
  Si  Si1  1  0.36729178  0.03925174  0.58404313  1
  Si  Si2  1  0.66561464  0.62179269  0.58408672  1
  Si  Si3  1  0.95905348  0.62583059  0.08140413  1
  Si  Si4  1  0.37718375  0.33246243  0.08143042  1
  Si  Si5  1  0.03433898  0.38252624  0.91843108  1
  Si  Si6  1  0.34823915  0.98858514  0.92411624  1
  Si  Si7  1  0.64701216  0.99506401  0.41930613  1
  Si  Si8  1  0.00563812  0.65188278  0.41923835  1
  Ge  Ge0  1  0.67066400  0.33289454  0.98393154  1
  Ge  Ge1  1  0.66765753  0.33074482  0.48872879  1
  Ge  Ge2  1  0.32340966  0.70629649  0.82603359  1
  S  S0  1  0.30286978  0.99226307  0.24941413  1
  S  S1  1  0.68807200  0.69542393  0.25001030  1
  S  S2  1  0.00468906  0.30427285  0.24788235  1
  S  S3  1  0.30158162  0.31310824  0.75113541  1
  S  S4  1  0.01241174  0.69522387  0.75562337  1
  S  S5  1  0.95924178  0.32631436  0.58214548  1
  S  S6  1  0.67602962  0.04415300  0.08009916  1
  S  S7  1  0.62986491  0.65519769  0.91533682  1
  S  S8  1  0.34294173  0.35994434  0.41426157  1
  O  O0  1  0.21597839  0.00221291  0.30257259  1
  O  O1  1  0.78412783  0.78808896  0.30161157  1
  O  O2  1  0.00519268  0.21336797  0.30026280  1
  O  O3  1  0.22254891  0.21516033  0.80509767  1
  O  O4  1  0.99493979  0.77238498  0.80934953  1
  O  O5  1  0.78565598  0.00226295  0.81367462  1
  O  O6  1  0.73597007  0.93357400  0.69730111  1
  O  O7  1  0.20578528  0.22047904  0.69861099  1
  O  O8  1  0.03036185  0.79193809  0.70245445  1
  O  O9  1  0.77091727  0.78604182  0.19499987  1
  O  O10  1  0.00733924  0.21786729  0.19332252  1
  O  O11  1  0.21310396  0.98830808  0.19591921  1
  O  O12  1  0.88886122  0.34573331  0.63804894  1
  O  O13  1  0.45865326  0.11424882  0.64555564  1
  O  O14  1  0.66504203  0.54195574  0.64663693  1
  O  O15  1  0.88393062  0.53778537  0.14406100  1
  O  O16  1  0.65722163  0.11702274  0.13503895  1
  O  O17  1  0.45670991  0.33647418  0.14424790  1
  O  O18  1  0.48985610  0.31299885  0.02299142  1
  O  O19  1  0.83294273  0.51025729  0.02274999  1
  O  O20  1  0.68899247  0.14561197  0.02666452  1
  O  O21  1  0.48306982  0.16853944  0.52686611  1
  O  O22  1  0.67421008  0.50467607  0.52726533  1
  O  O23  1  0.85704215  0.31649088  0.53020860  1
  O  O24  1  0.56682662  0.67978914  0.97209626  1
  O  O25  1  0.13877355  0.44754866  0.97684224  1
  O  O26  1  0.32064414  0.87847955  0.98045517  1
  O  O27  1  0.56570705  0.85867780  0.47093576  1
  O  O28  1  0.31795425  0.43681325  0.46729409  1
  O  O29  1  0.13504472  0.68246049  0.47053342  1
  O  O30  1  0.06636436  0.60840065  0.35617898  1
  O  O31  1  0.53479739  0.92905499  0.35902731  1
  O  O32  1  0.35124572  0.45390950  0.36062947  1
  O  O33  1  0.14792484  0.52904676  0.86037989  1
  O  O34  1  0.37359909  0.89120487  0.86386953  1
  O  O35  1  0.52368388  0.64707975  0.86581269  1
  O  O36  1  0.97782129  0.80964534  0.41749609  1
  O  O37  1  0.84004358  0.04604704  0.41266228  1
  O  O38  1  0.20428440  0.18695693  0.41161769  1
  O  O39  1  0.00331764  0.20141534  0.90475755  1
  O  O40  1  0.19450947  0.01707669  0.91456011  1
  O  O41  1  0.80468688  0.79231716  0.90911215  1
  O  O42  1  0.96277354  0.17051674  0.58186960  1
  O  O43  1  0.19029096  0.03331933  0.57868046  1
  O  O44  1  0.83055997  0.80442612  0.57395504  1
  O  O45  1  0.96012258  0.79987227  0.07337641  1
  O  O46  1  0.83090886  0.03792662  0.07951553  1
  O  O47  1  0.19346625  0.16834778  0.07370320  1
  O  O48  1  0.65276606  0.14366912  0.75527661  1
  O  O49  1  0.47388280  0.34431838  0.74996074  1
  O  O50  1  0.87504338  0.52220435  0.75214596  1
  O  O51  1  0.67201260  0.52909572  0.25193063  1
  O  O52  1  0.85136897  0.31585362  0.25141297  1
  O  O53  1  0.47474938  0.13777115  0.24965979  1
  O  O54  1  0.62854597  0.49425196  0.91446608  1
  O  O55  1  0.84814729  0.37541492  0.92104347  1
  O  O56  1  0.53514365  0.17073566  0.92588080  1
  O  O57  1  0.64620598  0.17268373  0.43281953  1
  O  O58  1  0.50101339  0.35988070  0.41699409  1
  O  O59  1  0.82086976  0.47807815  0.43242944  1
  O  O60  1  0.37043826  0.50175309  0.07784357  1
  O  O61  1  0.14479363  0.65384222  0.07821350  1
  O  O62  1  0.53268734  0.87482417  0.07630202  1
  O  O63  1  0.34399968  0.85517229  0.57887442  1
  O  O64  1  0.49613008  0.62906940  0.57971666  1
  O  O65  1  0.12914879  0.46812732  0.57572469  1
  O  O66  1  0.31253975  0.83837294  0.24936275  1
  O  O67  1  0.51947375  0.67488061  0.25266277  1
  O  O68  1  0.15496931  0.47354917  0.24653860  1
  O  O69  1  0.30383276  0.47221196  0.75277254  1
  O  O70  1  0.17566539  0.69358107  0.75805843  1
  O  O71  1  0.47936336  0.79981115  0.76724202  1
loop_
_geom_bond_atom_site_label_1
_geom_bond_atom_site_label_2
_geom_bond_distance
_geom_bond_site_symmetry_2
Na0 O31 2.274813 1_555
Na0 O53 2.456631 1_565
Na0 O66 2.623834 1_555
Na0 O52 2.637992 1_565
Na0 O67 2.698074 1_555
Na0 O1 3.113631 1_555
Na0 O16 3.118943 1_565
Na0 O2 3.142010 1_665
Na1 O17 2.376493 1_555
Na1 O51 2.493190 1_555
Na1 O67 2.502486 1_555
Na1 O68 2.639425 1_555
Na1 O53 2.851077 1_555
Na1 O32 2.878725 1_555
Na1 O10 3.125959 1_555
Na1 O0 3.324302 1_555
Na2 O30 2.465373 1_655
Na2 O52 2.486872 1_555
Na2 O68 2.508837 1_655
Na2 O66 2.608373 1_655
Na2 O15 2.659334 1_555
Na2 O51 2.720987 1_555
Na2 O11 3.252022 1_655
Na2 O1 3.284431 1_555
Na3 O14 2.268138 1_555
Na3 O6 2.451137 1_555
Na3 O49 2.518425 1_555
Na3 O71 2.555522 1_555
Na3 O69 2.655126 1_555
Na3 O50 3.174538 1_555
Na3 O35 3.184725 1_555
Na4 O50 2.422183 1_555
Na4 O69 2.575156 1_655
Na4 O48 2.726344 1_555
Na4 O70 2.854796 1_655
Na4 O12 2.859785 1_555
Na4 O33 2.886365 1_655
Na4 O5 3.061036 1_555
Na4 O7 3.081975 1_655
Na4 O3 3.221728 1_655
Na5 O13 2.222936 1_555
Na5 O48 2.360404 1_555
Na5 O70 2.627241 1_545
Na5 O71 2.772517 1_545
Na5 O49 2.812571 1_555
Na5 O8 2.876925 1_545
Na6 O64 2.420666 1_555
Na6 O43 2.435563 1_555
Na6 O65 2.703361 1_555
Na6 O28 2.769779 1_555
Na6 O7 2.866625 1_555
Na6 O42 2.909338 1_455
Na6 O21 2.911920 1_555
Na6 O22 3.083960 1_555
Na6 O14 3.199903 1_555
Na7 O29 2.372788 1_555
Na7 O63 2.431846 1_555
Na7 O44 2.520921 1_455
Na7 O43 2.531685 1_565
Na7 O65 2.899625 1_555
Na7 O22 3.169885 1_455
Na7 O8 3.202341 1_555
Na8 O64 2.497045 1_555
Na8 O27 2.524102 1_555
Na8 O63 2.547231 1_555
Na8 O44 2.594468 1_555
Na8 O42 2.653919 1_565
Na8 O6 2.877252 1_555
Na8 O23 3.264080 1_565
Na8 O13 3.355136 1_565
Na9 O26 2.221073 1_554
Na9 O61 2.464619 1_555
Na9 O47 2.519136 1_565
Na9 O45 2.583566 1_455
Na9 O62 2.859093 1_555
Na9 O11 2.982270 1_555
Na9 O18 3.093087 1_565
Na10 O60 2.391271 1_555
Na10 O45 2.415242 1_555
Na10 O24 2.641450 1_554
Na10 O62 2.713303 1_555
Na10 O9 2.799203 1_555
Na10 O46 2.932133 1_565
Na10 O19 3.026707 1_555
Na10 O17 3.135743 1_555
Na11 O25 2.302885 1_554
Na11 O60 2.498258 1_555
Na11 O61 2.547316 1_555
Na11 O47 2.587531 1_555
Na11 O46 2.641061 1_455
Na11 O10 2.962617 1_555
Na11 O20 3.217568 1_455
Na12 O41 2.463981 1_555
Na12 O55 2.478916 1_555
Na12 O19 2.629870 1_556
Na12 O40 2.776364 1_665
Na12 O4 2.804444 1_555
Na12 O54 2.908094 1_555
Na12 O33 2.955420 1_655
Na12 O26 3.004261 1_655
Na13 O5 2.296032 1_555
Na13 O39 2.383476 1_655
Na13 O56 2.479128 1_555
Na13 O55 2.699276 1_555
Na13 O34 2.894567 1_545
Na13 O20 2.926481 1_556
Na13 O41 2.972760 1_545
Na14 O40 2.331510 1_555
Na14 O54 2.558351 1_555
Na14 O39 2.643093 1_555
Na14 O18 2.751198 1_556
Na14 O3 2.860973 1_555
Na14 O25 2.880613 1_555
Na14 O56 2.892649 1_555
Na14 O35 3.123277 1_555
Na15 O37 2.282512 1_555
Na15 O59 2.513809 1_555
Na15 O57 2.673528 1_555
Na15 O23 2.707195 1_555
Na15 O30 2.751682 1_655
Na15 O2 2.959564 1_655
Na15 O38 3.052308 1_655
Na15 O28 3.065315 1_655
Na15 O29 3.121661 1_655
Na16 O57 2.541881 1_555
Na16 O38 2.599570 1_555
Na16 O21 2.603000 1_555
Na16 O29 2.774259 1_545
Na16 O31 2.862707 1_545
Na16 O58 2.900955 1_555
Na16 O36 2.902016 1_445
Na16 O0 3.164099 1_555
Na16 O27 3.271212 1_545
Na17 O36 2.355626 1_555
Na17 O22 2.531354 1_555
Na17 O27 2.605751 1_555
Na17 O58 2.666017 1_555
Na17 O59 2.722931 1_555
Na17 O37 3.063464 1_565
Na17 O28 3.129770 1_555
Na17 O1 3.273970 1_555
Na18 O44 2.334935 1_555
Na18 O36 2.429480 1_555
Na18 O43 2.475313 1_665
Na18 O42 2.665348 1_565
Na18 O37 2.695920 1_565
Na18 O38 2.743279 1_665
Na19 O47 2.313886 1_556
Na19 O45 2.429648 1_446
Na19 O40 2.451547 1_555
Na19 O46 2.658468 1_456
Na19 O41 2.883514 1_445
Na19 O39 2.889369 1_555
Na20 O48 2.399514 1_555
Na20 O56 2.406555 1_555
Na20 O55 2.493788 1_555
Na20 O54 2.573996 1_555
Na20 O50 2.703137 1_555
Na20 O49 2.768604 1_555
Na21 O59 2.375062 1_555
Na21 O57 2.387867 1_555
Na21 O58 2.397257 1_555
Na21 O52 2.727684 1_555
Na21 O51 2.885272 1_555
Na21 O53 2.899717 1_555
Na21 O30 3.237953 1_655
Na22 O61 2.380307 1_555
Na22 O60 2.451897 1_555
Na22 O68 2.576143 1_555
Na22 O62 2.740559 1_555
Na22 O66 2.773092 1_555
Na22 O67 2.916013 1_555
Na23 O64 2.353475 1_555
Na23 O63 2.419742 1_555
Na23 O71 2.739364 1_555
Na23 O65 2.829155 1_555
Na23 O69 2.871960 1_555
Na23 O70 2.890776 1_555
Na23 Na8 3.044648 1_555
Na23 O6 3.206549 1_555
Ca0 O37 2.181889 1_565
Ca0 O36 2.216261 1_555
Ca0 O1 2.274993 1_555
Ca0 O38 2.320515 1_665
Ca0 O0 2.338683 1_665
Ca0 O2 2.364415 1_665
Ca1 O5 2.183317 1_455
Ca1 O39 2.211769 1_555
Ca1 O3 2.238743 1_555
Ca1 O40 2.327371 1_555
Ca1 O41 2.337108 1_445
Ca1 O4 2.351521 1_445
Ca2 O44 2.268305 1_555
Ca2 O43 2.348140 1_665
Ca2 O6 2.359895 1_555
Ca2 O42 2.397792 1_565
Ca2 O8 2.438038 1_655
Ca2 O7 2.485239 1_665
Ca3 O47 2.268157 1_565
Ca3 O45 2.281617 1_455
Ca3 O11 2.334971 1_555
Ca3 O10 2.384101 1_565
Ca3 O46 2.396047 1_465
Ca3 O9 2.403290 1_455
Ca4 O13 2.132066 1_555
Ca4 O14 2.177740 1_555
Ca4 O12 2.269606 1_555
Ca4 O48 2.369138 1_555
Ca4 O49 2.379077 1_555
Ca4 O50 2.485474 1_555
Ca5 O15 2.113755 1_555
Ca5 O17 2.151000 1_555
Ca5 O16 2.263264 1_555
Ca5 O53 2.397095 1_555
Ca5 O51 2.411102 1_555
Ca5 O52 2.479079 1_555
Ca6 O25 2.142506 1_554
Ca6 O26 2.190784 1_554
Ca6 O61 2.239896 1_555
Ca6 O60 2.306200 1_555
Ca6 O24 2.310202 1_554
Ca6 O62 2.367807 1_555
Ca7 O27 2.167808 1_555
Ca7 O29 2.212721 1_555
Ca7 O63 2.252076 1_555
Ca7 O64 2.311992 1_555
Ca7 O28 2.361811 1_555
Ca7 O65 2.381077 1_555
Ca8 O30 2.244223 1_555
Ca8 O31 2.264700 1_555
Ca8 O32 2.377925 1_555
Ca8 O66 2.418275 1_555
Ca8 O67 2.523803 1_555
Ca8 O68 2.615436 1_555
Ge0 O19 1.825131 1_556
Ge0 O18 1.825517 1_556
Ge0 O56 1.934921 1_555
Ge0 O55 2.053506 1_555
Ge0 O20 2.108018 1_556
Ge0 O54 2.375991 1_555
Ge1 O22 1.826246 1_555
Ge1 O21 1.833673 1_555
Ge1 O57 1.882243 1_555
Ge1 O59 1.886206 1_555
Ge1 O23 2.096750 1_555
Ge1 O58 2.394985 1_555
Ge2 O34 1.775856 1_555
Ge2 O33 1.813433 1_555
Ge2 O71 1.825793 1_555
Ge2 O70 2.059035 1_555
Ge2 O35 2.415212 1_555
O0 S0 1.472336 1_545
O1 S1 1.473180 1_555
O2 S2 1.473548 1_555
O3 S3 1.479584 1_555
O4 S4 1.462903 1_655
O5 Si0 1.605034 1_545
O6 Si0 1.633487 1_555
O7 S3 1.489136 1_555
O8 S4 1.473558 1_555
O9 S1 1.482202 1_555
O10 S2 1.482591 1_555
O11 S0 1.482079 1_555
O12 S5 1.471648 1_555
O13 Si1 1.611624 1_555
O14 Si2 1.611367 1_555
O15 Si3 1.610144 1_555
O16 S6 1.468554 1_555
O17 Si4 1.614227 1_555
O18 Si4 1.747158 1_555
O19 Si3 1.756767 1_555
O20 S6 1.515773 1_555
O21 Si1 1.724784 1_555
O22 Si2 1.717597 1_555
O23 S5 1.508356 1_555
O24 S7 1.472189 1_555
O25 Si5 1.587861 1_555
O26 Si6 1.586407 1_555
O27 Si7 1.612912 1_555
O28 S8 1.474797 1_555
O29 Si8 1.616751 1_555
O30 Si8 1.654133 1_555
O31 Si7 1.656931 1_555
O32 S8 1.489391 1_555
O33 Si5 1.805165 1_555
O34 Si6 1.719414 1_555
O35 S7 1.494262 1_555
O36 Si8 1.639029 1_655
O37 Si7 1.629198 1_545
O38 S8 1.483739 1_555
O39 Si5 1.608871 1_555
O40 Si6 1.619802 1_545
O41 S7 1.491726 1_555
O42 S5 1.487676 1_555
O43 Si1 1.645198 1_555
O44 Si2 1.642816 1_555
O45 Si3 1.649353 1_555
O46 S6 1.488437 1_555
O47 Si4 1.642150 1_555
O48 Si0 1.641017 1_545
O49 S3 1.492998 1_555
O50 S4 1.481136 1_655
O51 S1 1.499454 1_555
O52 S2 1.502336 1_655
O53 S0 1.496126 1_545
O54 S7 1.512748 1_555
O55 Si5 1.719126 1_655
O56 Si6 1.723401 1_545
O57 Si7 1.705246 1_545
O58 S8 1.490735 1_555
O59 Si8 1.698334 1_655
O60 Si4 1.633973 1_555
O61 Si3 1.629614 1_455
O62 S6 1.478406 1_565
O63 Si1 1.639932 1_565
O64 Si2 1.636405 1_555
O65 S5 1.477177 1_455
O66 S0 1.500932 1_555
O67 S1 1.497414 1_555
O68 S2 1.499793 1_555
O69 S3 1.491140 1_555
O70 S4 1.546727 1_555
O71 Si0 1.771218 1_555
