# generated using pymatgen
data_Ta2NiS5
_symmetry_space_group_name_H-M   'P 1'
_cell_length_a   6.85920020
_cell_length_b   13.12622298
_cell_length_c   30.32452750
_cell_angle_alpha   90.00000000
_cell_angle_beta   90.00000000
_cell_angle_gamma   105.14594307
_symmetry_Int_Tables_number   1
_chemical_formula_structural   Ta2NiS5
_chemical_formula_sum   'Ta32 Ni16 S80'
_cell_volume   2635.44012153
_cell_formula_units_Z   16
loop_
 _symmetry_equiv_pos_site_id
 _symmetry_equiv_pos_as_xyz
  1  'x, y, z'
loop_
 _atom_site_type_symbol
 _atom_site_label
 _atom_site_symmetry_multiplicity
 _atom_site_fract_x
 _atom_site_fract_y
 _atom_site_fract_z
 _atom_site_occupancy
  Ta  Ta0_0  1  0.11088021  0.22176043  0.30448676  1
  Ta  Ta0_1  1  0.11088021  0.22176043  0.80448677  1
  Ta  Ta0_2  1  0.11088021  0.72176043  0.30448676  1
  Ta  Ta0_3  1  0.11088021  0.72176043  0.80448677  1
  Ta  Ta0_4  1  0.61088022  0.22176043  0.30448676  1
  Ta  Ta0_5  1  0.61088022  0.22176043  0.80448677  1
  Ta  Ta0_6  1  0.61088021  0.72176043  0.30448676  1
  Ta  Ta0_7  1  0.61088021  0.72176043  0.80448677  1
  Ta  Ta1_0  1  0.38911978  0.27823957  0.19551324  1
  Ta  Ta1_1  1  0.38911978  0.27823957  0.69551324  1
  Ta  Ta1_2  1  0.38911978  0.77823957  0.19551324  1
  Ta  Ta1_3  1  0.38911978  0.77823957  0.69551324  1
  Ta  Ta1_4  1  0.88911978  0.27823957  0.19551324  1
  Ta  Ta1_5  1  0.88911978  0.27823957  0.69551324  1
  Ta  Ta1_6  1  0.88911978  0.77823957  0.19551324  1
  Ta  Ta1_7  1  0.88911978  0.77823957  0.69551324  1
  Ta  Ta2_0  1  0.38911978  0.27823957  0.05448677  1
  Ta  Ta2_1  1  0.38911978  0.27823957  0.55448677  1
  Ta  Ta2_2  1  0.38911978  0.77823957  0.05448677  1
  Ta  Ta2_3  1  0.38911978  0.77823957  0.55448677  1
  Ta  Ta2_4  1  0.88911978  0.27823957  0.05448677  1
  Ta  Ta2_5  1  0.88911978  0.27823957  0.55448677  1
  Ta  Ta2_6  1  0.88911978  0.77823957  0.05448677  1
  Ta  Ta2_7  1  0.88911978  0.77823957  0.55448677  1
  Ta  Ta3_0  1  0.11088021  0.22176043  0.44551324  1
  Ta  Ta3_1  1  0.11088021  0.22176043  0.94551324  1
  Ta  Ta3_2  1  0.11088021  0.72176043  0.44551324  1
  Ta  Ta3_3  1  0.11088021  0.72176043  0.94551324  1
  Ta  Ta3_4  1  0.61088022  0.22176043  0.44551324  1
  Ta  Ta3_5  1  0.61088022  0.22176043  0.94551324  1
  Ta  Ta3_6  1  0.61088021  0.72176043  0.44551324  1
  Ta  Ta3_7  1  0.61088021  0.72176043  0.94551324  1
  Ni  Ni0_0  1  0.15042030  0.30084011  0.12500000  1
  Ni  Ni0_1  1  0.15042030  0.30084011  0.62500000  1
  Ni  Ni0_2  1  0.15042030  0.80084011  0.12500000  1
  Ni  Ni0_3  1  0.15042030  0.80084011  0.62500000  1
  Ni  Ni0_4  1  0.65042031  0.30084011  0.12500000  1
  Ni  Ni0_5  1  0.65042031  0.30084011  0.62500000  1
  Ni  Ni0_6  1  0.65042030  0.80084011  0.12500000  1
  Ni  Ni0_7  1  0.65042030  0.80084011  0.62500000  1
  Ni  Ni1_0  1  0.34957970  0.19915989  0.37500000  1
  Ni  Ni1_1  1  0.34957970  0.19915989  0.87500000  1
  Ni  Ni1_2  1  0.34957969  0.69915989  0.37500000  1
  Ni  Ni1_3  1  0.34957969  0.69915989  0.87500000  1
  Ni  Ni1_4  1  0.84957969  0.19915989  0.37500000  1
  Ni  Ni1_5  1  0.84957969  0.19915989  0.87500000  1
  Ni  Ni1_6  1  0.84957969  0.69915989  0.37500000  1
  Ni  Ni1_7  1  0.84957969  0.69915989  0.87500000  1
  S  S0_0  1  0.34307762  0.18615475  0.12500000  1
  S  S0_1  1  0.34307762  0.18615475  0.62500000  1
  S  S0_2  1  0.34307762  0.68615474  0.12500000  1
  S  S0_3  1  0.34307762  0.68615474  0.62500000  1
  S  S0_4  1  0.84307763  0.18615475  0.12500000  1
  S  S0_5  1  0.84307763  0.18615475  0.62500000  1
  S  S0_6  1  0.84307762  0.68615474  0.12500000  1
  S  S0_7  1  0.84307762  0.68615474  0.62500000  1
  S  S1_0  1  0.15692237  0.31384525  0.37500000  1
  S  S1_1  1  0.15692237  0.31384525  0.87500000  1
  S  S1_2  1  0.15692237  0.81384525  0.37500000  1
  S  S1_3  1  0.15692237  0.81384525  0.87500000  1
  S  S1_4  1  0.65692237  0.31384525  0.37500000  1
  S  S1_5  1  0.65692237  0.31384525  0.87500000  1
  S  S1_6  1  0.65692237  0.81384525  0.37500000  1
  S  S1_7  1  0.65692237  0.81384525  0.87500000  1
  S  S2_0  1  0.07665179  0.15330358  0.22496109  1
  S  S2_1  1  0.07665179  0.15330358  0.72496109  1
  S  S2_2  1  0.07665179  0.65330358  0.22496109  1
  S  S2_3  1  0.07665179  0.65330358  0.72496109  1
  S  S2_4  1  0.57665179  0.15330358  0.22496109  1
  S  S2_5  1  0.57665179  0.15330358  0.72496109  1
  S  S2_6  1  0.57665179  0.65330358  0.22496109  1
  S  S2_7  1  0.57665179  0.65330358  0.72496109  1
  S  S3_0  1  0.42334821  0.34669642  0.27503891  1
  S  S3_1  1  0.42334821  0.34669642  0.77503891  1
  S  S3_2  1  0.42334821  0.84669642  0.27503891  1
  S  S3_3  1  0.42334821  0.84669642  0.77503891  1
  S  S3_4  1  0.92334821  0.34669642  0.27503891  1
  S  S3_5  1  0.92334821  0.34669642  0.77503891  1
  S  S3_6  1  0.92334821  0.84669642  0.27503891  1
  S  S3_7  1  0.92334821  0.84669642  0.77503891  1
  S  S4_0  1  0.42334821  0.34669642  0.47496109  1
  S  S4_1  1  0.42334821  0.34669642  0.97496109  1
  S  S4_2  1  0.42334821  0.84669642  0.47496109  1
  S  S4_3  1  0.42334821  0.84669642  0.97496109  1
  S  S4_4  1  0.92334821  0.34669642  0.47496109  1
  S  S4_5  1  0.92334821  0.34669642  0.97496109  1
  S  S4_6  1  0.92334821  0.84669642  0.47496109  1
  S  S4_7  1  0.92334821  0.84669642  0.97496109  1
  S  S5_0  1  0.07665179  0.15330358  0.02503891  1
  S  S5_1  1  0.07665179  0.15330358  0.52503891  1
  S  S5_2  1  0.07665179  0.65330358  0.02503891  1
  S  S5_3  1  0.07665179  0.65330358  0.52503891  1
  S  S5_4  1  0.57665179  0.15330358  0.02503891  1
  S  S5_5  1  0.57665179  0.15330358  0.52503891  1
  S  S5_6  1  0.57665179  0.65330358  0.02503891  1
  S  S5_7  1  0.57665179  0.65330358  0.52503891  1
  S  S6_0  1  0.29519148  0.09038196  0.43193345  1
  S  S6_1  1  0.29519148  0.09038196  0.93193345  1
  S  S6_2  1  0.29519148  0.59038196  0.43193345  1
  S  S6_3  1  0.29519148  0.59038196  0.93193345  1
  S  S6_4  1  0.79519148  0.09038196  0.43193345  1
  S  S6_5  1  0.79519148  0.09038196  0.93193345  1
  S  S6_6  1  0.79519148  0.59038196  0.43193345  1
  S  S6_7  1  0.79519148  0.59038196  0.93193345  1
  S  S7_0  1  0.20480852  0.40961804  0.06806655  1
  S  S7_1  1  0.20480852  0.40961804  0.56806655  1
  S  S7_2  1  0.20480852  0.90961804  0.06806655  1
  S  S7_3  1  0.20480852  0.90961804  0.56806655  1
  S  S7_4  1  0.70480852  0.40961804  0.06806655  1
  S  S7_5  1  0.70480852  0.40961804  0.56806655  1
  S  S7_6  1  0.70480852  0.90961804  0.06806655  1
  S  S7_7  1  0.70480852  0.90961804  0.56806655  1
  S  S8_0  1  0.20480852  0.40961804  0.18193345  1
  S  S8_1  1  0.20480852  0.40961804  0.68193345  1
  S  S8_2  1  0.20480852  0.90961804  0.18193345  1
  S  S8_3  1  0.20480852  0.90961804  0.68193345  1
  S  S8_4  1  0.70480852  0.40961804  0.18193345  1
  S  S8_5  1  0.70480852  0.40961804  0.68193345  1
  S  S8_6  1  0.70480852  0.90961804  0.18193345  1
  S  S8_7  1  0.70480852  0.90961804  0.68193345  1
  S  S9_0  1  0.29519148  0.09038196  0.31806655  1
  S  S9_1  1  0.29519148  0.09038196  0.81806655  1
  S  S9_2  1  0.29519148  0.59038196  0.31806655  1
  S  S9_3  1  0.29519148  0.59038196  0.81806655  1
  S  S9_4  1  0.79519148  0.09038196  0.31806655  1
  S  S9_5  1  0.79519148  0.09038196  0.81806655  1
  S  S9_6  1  0.79519148  0.59038196  0.31806655  1
  S  S9_7  1  0.79519148  0.59038196  0.81806655  1
loop_
_geom_bond_atom_site_label_1
_geom_bond_atom_site_label_2
_geom_bond_distance
_geom_bond_site_symmetry_2
Ni0_0 S8_0 2.209138 1_555
Ni0_0 S7_0 2.209138 1_555
Ni0_0 S0_4 2.247670 1_455
Ni0_0 S0_0 2.247670 1_555
Ni0_0 Ta2_0 2.755862 1_555
Ni0_0 Ta1_0 2.755862 1_555
Ni0_0 Ta2_4 2.755864 1_455
Ni0_0 Ta1_4 2.755864 1_455
Ni0_1 S8_1 2.209138 1_555
Ni0_1 S7_1 2.209138 1_555
Ni0_1 S0_5 2.247670 1_455
Ni0_1 S0_1 2.247670 1_555
Ni0_1 Ta2_1 2.755862 1_555
Ni0_1 Ta1_1 2.755862 1_555
Ni0_1 Ta2_5 2.755864 1_455
Ni0_1 Ta1_5 2.755864 1_455
Ni0_2 S7_2 2.209138 1_555
Ni0_2 S8_2 2.209138 1_555
Ni0_2 S0_6 2.247670 1_455
Ni0_2 S0_2 2.247670 1_555
Ni0_2 Ta2_2 2.755862 1_555
Ni0_2 Ta1_2 2.755862 1_555
Ni0_2 Ta2_6 2.755864 1_455
Ni0_2 Ta1_6 2.755864 1_455
Ni0_3 S8_3 2.209138 1_555
Ni0_3 S7_3 2.209138 1_555
Ni0_3 S0_7 2.247670 1_455
Ni0_3 S0_3 2.247670 1_555
Ni0_3 Ta2_3 2.755862 1_555
Ni0_3 Ta1_3 2.755862 1_555
Ni0_3 Ta2_7 2.755864 1_455
Ni0_3 Ta1_7 2.755864 1_455
Ni0_4 S7_4 2.209138 1_555
Ni0_4 S8_4 2.209138 1_555
Ni0_4 S0_0 2.247670 1_555
Ni0_4 S0_4 2.247670 1_555
Ni0_4 Ta2_4 2.755862 1_555
Ni0_4 Ta1_4 2.755862 1_555
Ni0_4 Ta2_0 2.755864 1_555
Ni0_4 Ta1_0 2.755864 1_555
Ni0_5 S8_5 2.209138 1_555
Ni0_5 S7_5 2.209138 1_555
Ni0_5 S0_1 2.247670 1_555
Ni0_5 S0_5 2.247670 1_555
Ni0_5 Ta2_5 2.755862 1_555
Ni0_5 Ta1_5 2.755862 1_555
Ni0_5 Ta2_1 2.755864 1_555
Ni0_5 Ta1_1 2.755864 1_555
Ni0_6 S8_6 2.209138 1_555
Ni0_6 S7_6 2.209138 1_555
Ni0_6 S0_2 2.247670 1_555
Ni0_6 S0_6 2.247670 1_555
Ni0_6 Ta2_6 2.755862 1_555
Ni0_6 Ta1_6 2.755862 1_555
Ni0_6 Ta2_2 2.755864 1_555
Ni0_6 Ta1_2 2.755864 1_555
Ni0_7 S8_7 2.209138 1_555
Ni0_7 S7_7 2.209138 1_555
Ni0_7 S0_3 2.247670 1_555
Ni0_7 S0_7 2.247670 1_555
Ni0_7 Ta2_7 2.755862 1_555
Ni0_7 Ta1_7 2.755862 1_555
Ni0_7 Ta2_3 2.755864 1_555
Ni0_7 Ta1_3 2.755864 1_555
Ni1_0 S6_0 2.209138 1_555
Ni1_0 S9_0 2.209138 1_555
Ni1_0 S1_4 2.247670 1_555
Ni1_0 S1_0 2.247670 1_555
Ni1_0 Ta3_0 2.755862 1_555
Ni1_0 Ta0_0 2.755862 1_555
Ni1_0 Ta0_4 2.755864 1_555
Ni1_0 Ta3_4 2.755864 1_555
Ni1_1 S9_1 2.209138 1_555
Ni1_1 S6_1 2.209138 1_555
Ni1_1 S1_5 2.247670 1_555
Ni1_1 S1_1 2.247670 1_555
Ni1_1 Ta0_1 2.755862 1_555
Ni1_1 Ta3_1 2.755862 1_555
Ni1_1 Ta0_5 2.755864 1_555
Ni1_1 Ta3_5 2.755864 1_555
Ni1_2 S9_2 2.209138 1_555
Ni1_2 S6_2 2.209138 1_555
Ni1_2 S1_6 2.247670 1_555
Ni1_2 S1_2 2.247670 1_555
Ni1_2 Ta3_2 2.755862 1_555
Ni1_2 Ta0_2 2.755862 1_555
Ni1_2 Ta0_6 2.755864 1_555
Ni1_2 Ta3_6 2.755864 1_555
Ni1_3 S9_3 2.209138 1_555
Ni1_3 S6_3 2.209138 1_555
Ni1_3 S1_7 2.247670 1_555
Ni1_3 S1_3 2.247670 1_555
Ni1_3 Ta0_3 2.755862 1_555
Ni1_3 Ta3_3 2.755862 1_555
Ni1_3 Ta0_7 2.755864 1_555
Ni1_3 Ta3_7 2.755864 1_555
Ni1_4 S9_4 2.209138 1_555
Ni1_4 S6_4 2.209138 1_555
Ni1_4 S1_0 2.247670 1_655
Ni1_4 S1_4 2.247670 1_555
Ni1_4 Ta3_4 2.755862 1_555
Ni1_4 Ta0_4 2.755862 1_555
Ni1_4 Ta3_0 2.755864 1_655
Ni1_4 Ta0_0 2.755864 1_655
Ni1_5 S9_5 2.209138 1_555
Ni1_5 S6_5 2.209138 1_555
Ni1_5 S1_1 2.247670 1_655
Ni1_5 S1_5 2.247670 1_555
Ni1_5 Ta0_5 2.755862 1_555
Ni1_5 Ta3_5 2.755862 1_555
Ni1_5 Ta0_1 2.755864 1_655
Ni1_5 Ta3_1 2.755864 1_655
Ni1_6 S6_6 2.209138 1_555
Ni1_6 S9_6 2.209138 1_555
Ni1_6 S1_2 2.247670 1_655
Ni1_6 S1_6 2.247670 1_555
Ni1_6 Ta0_6 2.755862 1_555
Ni1_6 Ta3_6 2.755862 1_555
Ni1_6 Ta0_2 2.755864 1_655
Ni1_6 Ta3_2 2.755864 1_655
Ni1_7 S9_7 2.209138 1_555
Ni1_7 S6_7 2.209138 1_555
Ni1_7 S1_3 2.247670 1_655
Ni1_7 S1_7 2.247670 1_555
Ni1_7 Ta0_7 2.755862 1_555
Ni1_7 Ta3_7 2.755862 1_555
Ni1_7 Ta0_3 2.755864 1_655
Ni1_7 Ta3_3 2.755864 1_655
S0_0 Ta2_0 2.435882 1_555
S0_0 Ta1_0 2.435882 1_555
S0_1 Ta2_1 2.435882 1_555
S0_1 Ta1_1 2.435882 1_555
S0_2 Ta2_2 2.435882 1_555
S0_2 Ta1_2 2.435882 1_555
S0_3 Ta2_3 2.435882 1_555
S0_3 Ta1_3 2.435882 1_555
S0_4 Ta2_4 2.435882 1_555
S0_4 Ta1_4 2.435882 1_555
S0_5 Ta2_5 2.435882 1_555
S0_5 Ta1_5 2.435882 1_555
S0_6 Ta2_6 2.435882 1_555
S0_6 Ta1_6 2.435882 1_555
S0_7 Ta2_7 2.435882 1_555
S0_7 Ta1_7 2.435882 1_555
S1_0 Ta0_0 2.435882 1_555
S1_0 Ta3_0 2.435882 1_555
S1_1 Ta0_1 2.435882 1_555
S1_1 Ta3_1 2.435882 1_555
S1_2 Ta3_2 2.435882 1_555
S1_2 Ta0_2 2.435882 1_555
S1_3 Ta0_3 2.435882 1_555
S1_3 Ta3_3 2.435882 1_555
S1_4 Ta3_4 2.435882 1_555
S1_4 Ta0_4 2.435882 1_555
S1_5 Ta0_5 2.435882 1_555
S1_5 Ta3_5 2.435882 1_555
S1_6 Ta0_6 2.435882 1_555
S1_6 Ta3_6 2.435882 1_555
S1_7 Ta0_7 2.435882 1_555
S1_7 Ta3_7 2.435882 1_555
S2_0 Ta1_0 2.498754 1_555
S2_0 Ta1_4 2.498755 1_455
S2_0 Ta0_0 2.562818 1_555
S2_0 S9_4 3.398173 1_455
S2_0 S9_0 3.398176 1_555
S2_0 S2_4 3.429600 1_555
S2_0 S2_4 3.429600 1_455
S2_1 Ta1_1 2.498754 1_555
S2_1 Ta1_5 2.498755 1_455
S2_1 Ta0_1 2.562818 1_555
S2_1 S9_5 3.398173 1_455
S2_1 S9_1 3.398176 1_555
S2_1 S2_5 3.429600 1_455
S2_1 S2_5 3.429600 1_555
S2_2 Ta1_2 2.498754 1_555
S2_2 Ta1_6 2.498755 1_455
S2_2 Ta0_2 2.562818 1_555
S2_2 S9_6 3.398173 1_455
S2_2 S9_2 3.398176 1_555
S2_2 S2_6 3.429600 1_555
S2_2 S2_6 3.429600 1_455
S2_3 Ta1_3 2.498754 1_555
S2_3 Ta1_7 2.498755 1_455
S2_3 Ta0_3 2.562818 1_555
S2_3 S9_7 3.398173 1_455
S2_3 S9_3 3.398176 1_555
S2_3 S2_7 3.429600 1_555
S2_3 S2_7 3.429600 1_455
S2_4 Ta1_4 2.498754 1_555
S2_4 Ta1_0 2.498755 1_555
S2_4 Ta0_4 2.562818 1_555
S2_4 S9_0 3.398173 1_555
S2_4 S9_4 3.398176 1_555
S2_5 Ta1_5 2.498754 1_555
S2_5 Ta1_1 2.498755 1_555
S2_5 Ta0_5 2.562818 1_555
S2_5 S9_1 3.398173 1_555
S2_5 S9_5 3.398176 1_555
S2_6 Ta1_6 2.498754 1_555
S2_6 Ta1_2 2.498755 1_555
S2_6 Ta0_6 2.562818 1_555
S2_6 S9_2 3.398173 1_555
S2_6 S9_6 3.398176 1_555
S2_7 Ta1_7 2.498754 1_555
S2_7 Ta1_3 2.498755 1_555
S2_7 Ta0_7 2.562818 1_555
S2_7 S9_3 3.398173 1_555
S2_7 S9_7 3.398176 1_555
S3_0 Ta0_0 2.498754 1_555
S3_0 Ta0_4 2.498755 1_555
S3_0 Ta1_0 2.562818 1_555
S3_0 S8_4 3.398173 1_555
S3_0 S8_0 3.398176 1_555
S3_0 S3_4 3.429600 1_555
S3_0 S3_4 3.429600 1_455
S3_1 Ta0_1 2.498754 1_555
S3_1 Ta0_5 2.498755 1_555
S3_1 Ta1_1 2.562818 1_555
S3_1 S8_5 3.398173 1_555
S3_1 S8_1 3.398176 1_555
S3_1 S3_5 3.429600 1_555
S3_1 S3_5 3.429600 1_455
S3_2 Ta0_2 2.498754 1_555
S3_2 Ta0_6 2.498755 1_555
S3_2 Ta1_2 2.562818 1_555
S3_2 S8_6 3.398173 1_555
S3_2 S8_2 3.398176 1_555
S3_2 S3_6 3.429600 1_555
S3_2 S3_6 3.429600 1_455
S3_3 Ta0_3 2.498754 1_555
S3_3 Ta0_7 2.498755 1_555
S3_3 Ta1_3 2.562818 1_555
S3_3 S8_7 3.398173 1_555
S3_3 S8_3 3.398176 1_555
S3_3 S3_7 3.429600 1_555
S3_3 S3_7 3.429600 1_455
S3_4 Ta0_4 2.498754 1_555
S3_4 Ta0_0 2.498755 1_655
S3_4 Ta1_4 2.562818 1_555
S3_4 S8_0 3.398173 1_655
S3_4 S8_4 3.398176 1_555
S3_5 Ta0_5 2.498754 1_555
S3_5 Ta0_1 2.498755 1_655
S3_5 Ta1_5 2.562818 1_555
S3_5 S8_1 3.398173 1_655
S3_5 S8_5 3.398176 1_555
S3_6 Ta0_6 2.498754 1_555
S3_6 Ta0_2 2.498755 1_655
S3_6 Ta1_6 2.562818 1_555
S3_6 S8_2 3.398173 1_655
S3_6 S8_6 3.398176 1_555
S3_7 Ta0_7 2.498754 1_555
S3_7 Ta0_3 2.498755 1_655
S3_7 Ta1_7 2.562818 1_555
S3_7 S8_3 3.398173 1_655
S3_7 S8_7 3.398176 1_555
S4_0 Ta3_0 2.498754 1_555
S4_0 Ta3_4 2.498755 1_555
S4_0 Ta2_1 2.562818 1_555
S4_0 S7_5 3.398173 1_555
S4_0 S7_1 3.398176 1_555
S4_0 S4_4 3.429600 1_555
S4_0 S4_4 3.429600 1_455
S4_1 Ta3_1 2.498754 1_555
S4_1 Ta3_5 2.498755 1_555
S4_1 Ta2_0 2.562818 1_556
S4_1 S7_4 3.398173 1_556
S4_1 S7_0 3.398176 1_556
S4_1 S4_5 3.429600 1_555
S4_1 S4_5 3.429600 1_455
S4_2 Ta3_2 2.498754 1_555
S4_2 Ta3_6 2.498755 1_555
S4_2 Ta2_3 2.562818 1_555
S4_2 S7_7 3.398173 1_555
S4_2 S7_3 3.398176 1_555
S4_2 S4_6 3.429600 1_555
S4_2 S4_6 3.429600 1_455
S4_3 Ta3_3 2.498754 1_555
S4_3 Ta3_7 2.498755 1_555
S4_3 Ta2_2 2.562818 1_556
S4_3 S7_6 3.398173 1_556
S4_3 S7_2 3.398176 1_556
S4_3 S4_7 3.429600 1_555
S4_3 S4_7 3.429600 1_455
S4_4 Ta3_4 2.498754 1_555
S4_4 Ta3_0 2.498755 1_655
S4_4 Ta2_5 2.562818 1_555
S4_4 S7_1 3.398173 1_655
S4_4 S7_5 3.398176 1_555
S4_5 Ta3_5 2.498754 1_555
S4_5 Ta3_1 2.498755 1_655
S4_5 Ta2_4 2.562818 1_556
S4_5 S7_0 3.398173 1_656
S4_5 S7_4 3.398176 1_556
S4_6 Ta3_6 2.498754 1_555
S4_6 Ta3_2 2.498755 1_655
S4_6 Ta2_7 2.562818 1_555
S4_6 S7_3 3.398173 1_655
S4_6 S7_7 3.398176 1_555
S4_7 Ta3_7 2.498754 1_555
S4_7 Ta3_3 2.498755 1_655
S4_7 Ta2_6 2.562818 1_556
S4_7 S7_2 3.398173 1_656
S4_7 S7_6 3.398176 1_556
S5_0 Ta2_0 2.498754 1_555
S5_0 Ta2_4 2.498755 1_455
S5_0 Ta3_1 2.562818 1_554
S5_0 S6_5 3.398173 1_454
S5_0 S6_1 3.398176 1_554
S5_0 S5_4 3.429600 1_455
S5_0 S5_4 3.429600 1_555
S5_1 Ta2_1 2.498754 1_555
S5_1 Ta2_5 2.498755 1_455
S5_1 Ta3_0 2.562818 1_555
S5_1 S6_4 3.398173 1_455
S5_1 S6_0 3.398176 1_555
S5_1 S5_5 3.429600 1_555
S5_1 S5_5 3.429600 1_455
S5_2 Ta2_2 2.498754 1_555
S5_2 Ta2_6 2.498755 1_455
S5_2 Ta3_3 2.562818 1_554
S5_2 S6_7 3.398173 1_454
S5_2 S6_3 3.398176 1_554
S5_2 S5_6 3.429600 1_555
S5_2 S5_6 3.429600 1_455
S5_3 Ta2_3 2.498754 1_555
S5_3 Ta2_7 2.498755 1_455
S5_3 Ta3_2 2.562818 1_555
S5_3 S6_6 3.398173 1_455
S5_3 S6_2 3.398176 1_555
S5_3 S5_7 3.429600 1_555
S5_3 S5_7 3.429600 1_455
S5_4 Ta2_4 2.498754 1_555
S5_4 Ta2_0 2.498755 1_555
S5_4 Ta3_5 2.562818 1_554
S5_4 S6_1 3.398173 1_554
S5_4 S6_5 3.398176 1_554
S5_5 Ta2_5 2.498754 1_555
S5_5 Ta2_1 2.498755 1_555
S5_5 Ta3_4 2.562818 1_555
S5_5 S6_0 3.398173 1_555
S5_5 S6_4 3.398176 1_555
S5_6 Ta2_6 2.498754 1_555
S5_6 Ta2_2 2.498755 1_555
S5_6 Ta3_7 2.562818 1_554
S5_6 S6_3 3.398173 1_554
S5_6 S6_7 3.398176 1_554
S5_7 Ta2_7 2.498754 1_555
S5_7 Ta2_3 2.498755 1_555
S5_7 Ta3_6 2.562818 1_555
S5_7 S6_2 3.398173 1_555
S5_7 S6_6 3.398176 1_555
S6_0 Ta3_4 2.425077 1_555
S6_0 Ta3_0 2.425082 1_555
S6_1 Ta3_5 2.425077 1_555
S6_1 Ta3_1 2.425082 1_555
S6_2 Ta3_6 2.425077 1_555
S6_2 Ta3_2 2.425082 1_555
S6_3 Ta3_7 2.425077 1_555
S6_3 Ta3_3 2.425082 1_555
S6_4 Ta3_0 2.425077 1_655
S6_4 Ta3_4 2.425082 1_555
S6_5 Ta3_1 2.425077 1_655
S6_5 Ta3_5 2.425082 1_555
S6_6 Ta3_2 2.425077 1_655
S6_6 Ta3_6 2.425082 1_555
S6_7 Ta3_3 2.425077 1_655
S6_7 Ta3_7 2.425082 1_555
S7_0 Ta2_4 2.425077 1_455
S7_0 Ta2_0 2.425082 1_555
S7_1 Ta2_5 2.425077 1_455
S7_1 Ta2_1 2.425082 1_555
S7_2 Ta2_6 2.425077 1_455
S7_2 Ta2_2 2.425082 1_555
S7_3 Ta2_7 2.425077 1_455
S7_3 Ta2_3 2.425082 1_555
S7_4 Ta2_0 2.425077 1_555
S7_4 Ta2_4 2.425082 1_555
S7_5 Ta2_1 2.425077 1_555
S7_5 Ta2_5 2.425082 1_555
S7_6 Ta2_2 2.425077 1_555
S7_6 Ta2_6 2.425082 1_555
S7_7 Ta2_3 2.425077 1_555
S7_7 Ta2_7 2.425082 1_555
S8_0 Ta1_4 2.425077 1_455
S8_0 Ta1_0 2.425082 1_555
S8_1 Ta1_5 2.425077 1_455
S8_1 Ta1_1 2.425082 1_555
S8_2 Ta1_6 2.425077 1_455
S8_2 Ta1_2 2.425082 1_555
S8_3 Ta1_7 2.425077 1_455
S8_3 Ta1_3 2.425082 1_555
S8_4 Ta1_0 2.425077 1_555
S8_4 Ta1_4 2.425082 1_555
S8_5 Ta1_1 2.425077 1_555
S8_5 Ta1_5 2.425082 1_555
S8_6 Ta1_2 2.425077 1_555
S8_6 Ta1_6 2.425082 1_555
S8_7 Ta1_3 2.425077 1_555
S8_7 Ta1_7 2.425082 1_555
S9_0 Ta0_4 2.425077 1_555
S9_0 Ta0_0 2.425082 1_555
S9_1 Ta0_5 2.425077 1_555
S9_1 Ta0_1 2.425082 1_555
S9_2 Ta0_6 2.425077 1_555
S9_2 Ta0_2 2.425082 1_555
S9_3 Ta0_7 2.425077 1_555
S9_3 Ta0_3 2.425082 1_555
S9_4 Ta0_0 2.425077 1_655
S9_4 Ta0_4 2.425082 1_555
S9_5 Ta0_1 2.425077 1_655
S9_5 Ta0_5 2.425082 1_555
S9_6 Ta0_2 2.425077 1_655
S9_6 Ta0_6 2.425082 1_555
S9_7 Ta0_3 2.425077 1_655
S9_7 Ta0_7 2.425082 1_555
