# generated using pymatgen
data_Mn4(PO4)3
_symmetry_space_group_name_H-M   'P 1'
_cell_length_a   8.96051220
_cell_length_b   8.96051220
_cell_length_c   6.46573912
_cell_angle_alpha   73.00697139
_cell_angle_beta   73.00697139
_cell_angle_gamma   95.23672199
_symmetry_Int_Tables_number   1
_chemical_formula_structural   Mn4(PO4)3
_chemical_formula_sum   'Mn8 P6 O24'
_cell_volume   465.85386081
_cell_formula_units_Z   2
loop_
 _symmetry_equiv_pos_site_id
 _symmetry_equiv_pos_as_xyz
  1  'x, y, z'
loop_
 _atom_site_type_symbol
 _atom_site_label
 _atom_site_symmetry_multiplicity
 _atom_site_fract_x
 _atom_site_fract_y
 _atom_site_fract_z
 _atom_site_occupancy
  Mn  Mn0  1  0.05867900  0.35049300  0.38733400  1
  Mn  Mn1  1  0.64577300  0.94343700  0.11003000  1
  Mn  Mn2  1  0.52468100  0.51575500  0.04388700  1
  Mn  Mn3  1  0.94343700  0.64577300  0.61003000  1
  Mn  Mn4  1  0.73223800  0.25921800  0.25832800  1
  Mn  Mn5  1  0.51575500  0.52468100  0.54388700  1
  Mn  Mn6  1  0.25921800  0.73223800  0.75832800  1
  Mn  Mn7  1  0.35049300  0.05867900  0.88733400  1
  P  P0  1  0.30074800  0.69597800  0.25017400  1
  P  P1  1  0.66177000  0.87116700  0.62920100  1
  P  P2  1  0.69597800  0.30074800  0.75017400  1
  P  P3  1  0.12810400  0.34303500  0.86611600  1
  P  P4  1  0.34303500  0.12810400  0.36611600  1
  P  P5  1  0.87116700  0.66177000  0.12920100  1
  O  O0  1  0.17318600  0.18183300  0.87991000  1
  O  O1  1  0.72048400  0.19365500  0.96701600  1
  O  O2  1  0.18183300  0.17318600  0.37991000  1
  O  O3  1  0.27461200  0.52609600  0.23306400  1
  O  O4  1  0.04041500  0.39347800  0.68694100  1
  O  O5  1  0.28102600  0.81029300  0.03236700  1
  O  O6  1  0.33772300  0.00684600  0.60096100  1
  O  O7  1  0.47598500  0.27921300  0.29563400  1
  O  O8  1  0.53048900  0.71428200  0.70362300  1
  O  O9  1  0.47574000  0.71469900  0.25674200  1
  O  O10  1  0.66252200  0.99025600  0.39760200  1
  O  O11  1  0.39347800  0.04041500  0.18694100  1
  O  O12  1  0.60962500  0.95572000  0.80908200  1
  O  O13  1  0.95572000  0.60962500  0.30908200  1
  O  O14  1  0.27921300  0.47598500  0.79563400  1
  O  O15  1  0.99025600  0.66252200  0.89760200  1
  O  O16  1  0.19365500  0.72048400  0.46701600  1
  O  O17  1  0.71469900  0.47574000  0.75674200  1
  O  O18  1  0.82576100  0.82285300  0.11282900  1
  O  O19  1  0.00684600  0.33772300  0.10096100  1
  O  O20  1  0.71428200  0.53048900  0.20362300  1
  O  O21  1  0.82285300  0.82576100  0.61282900  1
  O  O22  1  0.81029300  0.28102600  0.53236700  1
  O  O23  1  0.52609600  0.27461100  0.73306400  1
loop_
_geom_bond_atom_site_label_1
_geom_bond_atom_site_label_2
_geom_bond_distance
_geom_bond_site_symmetry_2
Mn0 O2 2.019377 1_555
Mn0 O4 2.046981 1_555
Mn0 O19 2.067387 1_555
Mn0 O22 2.099142 1_455
Mn0 O3 2.147862 1_555
Mn0 O13 2.544755 1_455
Mn1 O18 2.023017 1_555
Mn1 O12 2.037913 1_554
Mn1 O10 2.064782 1_555
Mn1 O1 2.117191 1_564
Mn1 O9 2.206988 1_555
Mn1 O11 2.463170 1_565
Mn2 O7 2.175267 1_555
Mn2 O3 2.242273 1_555
Mn2 O20 2.243846 1_555
Mn2 O17 2.264377 1_554
Mn2 O8 2.374035 1_554
Mn2 O9 2.547191 1_555
Mn3 O21 2.023017 1_555
Mn3 O13 2.037913 1_555
Mn3 O15 2.064782 1_555
Mn3 O16 2.117191 1_655
Mn3 O17 2.206988 1_555
Mn3 O4 2.463170 1_655
Mn4 O22 2.137444 1_555
Mn4 O1 2.157642 1_554
Mn4 O10 2.266553 1_545
Mn4 O7 2.266990 1_555
Mn4 O19 2.321006 1_655
Mn4 O20 2.379400 1_555
Mn5 O14 2.175267 1_555
Mn5 O23 2.242281 1_555
Mn5 O8 2.243846 1_555
Mn5 O9 2.264377 1_555
Mn5 O20 2.374035 1_555
Mn5 O17 2.547191 1_555
Mn6 O5 2.137444 1_556
Mn6 O16 2.157642 1_555
Mn6 O15 2.266553 1_455
Mn6 O14 2.266990 1_555
Mn6 O6 2.321006 1_565
Mn6 O8 2.379400 1_555
Mn7 O0 2.019377 1_555
Mn7 O11 2.046981 1_556
Mn7 O6 2.067387 1_555
Mn7 O5 2.099142 1_546
Mn7 O23 2.147856 1_555
Mn7 O12 2.544755 1_545
O0 P3 1.519819 1_555
O1 P2 1.538442 1_555
O2 P4 1.519819 1_555
O3 P0 1.559734 1_555
O4 P3 1.566726 1_555
O5 P0 1.548890 1_555
O6 P4 1.572407 1_555
O7 P4 1.577270 1_555
O8 P1 1.601064 1_555
O9 P0 1.575974 1_555
O10 P1 1.562020 1_555
O11 P4 1.566726 1_555
O12 P1 1.551479 1_555
O13 P5 1.551479 1_555
O14 P3 1.577270 1_555
O15 P5 1.562020 1_556
O16 P0 1.538442 1_555
O17 P2 1.575974 1_555
O18 P5 1.517620 1_555
O19 P3 1.572407 1_554
O20 P5 1.601064 1_555
O21 P1 1.517620 1_555
O22 P2 1.548890 1_555
O23 P2 1.559735 1_555
