# generated using pymatgen
data_Sr4MgMn2Cu2(SO3)2
_symmetry_space_group_name_H-M   'P 1'
_cell_length_a   4.07782600
_cell_length_b   4.07828800
_cell_length_c   16.11412300
_cell_angle_alpha   90.00000000
_cell_angle_beta   90.00000000
_cell_angle_gamma   90.00000000
_symmetry_Int_Tables_number   1
_chemical_formula_structural   Sr4MgMn2Cu2(SO3)2
_chemical_formula_sum   'Sr4 Mg1 Mn2 Cu2 S2 O6'
_cell_volume   267.98670960
_cell_formula_units_Z   1
loop_
 _symmetry_equiv_pos_site_id
 _symmetry_equiv_pos_as_xyz
  1  'x, y, z'
loop_
 _atom_site_type_symbol
 _atom_site_label
 _atom_site_symmetry_multiplicity
 _atom_site_fract_x
 _atom_site_fract_y
 _atom_site_fract_z
 _atom_site_occupancy
  Sr  Sr0  1  0.75000000  0.75000000  0.17307100  1
  Sr  Sr1  1  0.25000000  0.25000000  0.82702600  1
  Sr  Sr2  1  0.75000000  0.75000000  0.37442800  1
  Sr  Sr3  1  0.25000000  0.25000000  0.62550100  1
  Mg  Mg0  1  0.25000000  0.75000000  0.49997400  1
  Mn  Mn0  1  0.25000000  0.25000000  0.29239300  1
  Mn  Mn1  1  0.75000000  0.75000000  0.70790200  1
  Cu  Cu0  1  0.75000000  0.25000000  0.99998700  1
  Cu  Cu1  1  0.25000000  0.75000000  0.99998300  1
  S  S0  1  0.25000000  0.25000000  0.08378600  1
  S  S1  1  0.75000000  0.75000000  0.91595600  1
  O  O0  1  0.75000000  0.25000000  0.27214800  1
  O  O1  1  0.25000000  0.75000000  0.28706900  1
  O  O2  1  0.25000000  0.75000000  0.71315800  1
  O  O3  1  0.75000000  0.25000000  0.72757700  1
  O  O4  1  0.25000000  0.25000000  0.45143800  1
  O  O5  1  0.75000000  0.75000000  0.54860200  1
loop_
_geom_bond_atom_site_label_1
_geom_bond_atom_site_label_2
_geom_bond_distance
_geom_bond_site_symmetry_2
Mg0 O4 2.183990 1_565
Mg0 O4 2.183990 1_555
Mg0 O5 2.184306 1_455
Mg0 O5 2.184306 1_555
Mg0 Sr3 2.872221 1_555
Mg0 Sr3 2.872221 1_565
Mg0 Sr2 2.872273 1_455
Mg0 Sr2 2.872273 1_555
Mn0 O1 2.040948 1_555
Mn0 O1 2.040948 1_545
Mn0 O0 2.064847 1_555
Mn0 O0 2.064847 1_455
Mn0 O4 2.562871 1_555
Mn0 S0 3.361519 1_555
Mn1 O2 2.040671 1_555
Mn1 O2 2.040671 1_655
Mn1 O3 2.063644 1_555
Mn1 O3 2.063644 1_565
Mn1 O5 2.566980 1_555
Mn1 S1 3.352608 1_555
Cu0 S0 2.445527 1_556
Cu0 S0 2.445527 1_656
Cu0 S1 2.447786 1_545
Cu0 S1 2.447786 1_555
Cu0 Cu1 2.883622 1_655
Cu0 Cu1 2.883622 1_555
Cu0 Cu1 2.883622 1_545
Cu0 Cu1 2.883622 1_645
Cu0 Sr1 3.453285 1_555
Cu0 Sr1 3.453285 1_655
Cu0 Sr0 3.455021 1_556
Cu0 Sr0 3.455021 1_546
Cu1 S0 2.445756 1_556
Cu1 S0 2.445756 1_566
Cu1 S1 2.447558 1_455
Cu1 S1 2.447558 1_555
Cu1 Sr1 3.453369 1_565
Cu1 Sr1 3.453369 1_555
Cu1 Sr0 3.454937 1_556
Cu1 Sr0 3.454937 1_456
S0 Sr0 3.222619 1_455
S0 Sr0 3.222619 1_555
S0 Sr0 3.222619 1_445
S0 Sr0 3.222619 1_545
S1 Sr1 3.220069 1_655
S1 Sr1 3.220069 1_555
S1 Sr1 3.220069 1_565
S1 Sr1 3.220069 1_665
O0 Sr0 2.589796 1_545
O0 Sr0 2.589796 1_555
O0 Sr2 2.621930 1_555
O0 Sr2 2.621930 1_545
O1 Sr2 2.477665 1_455
O1 Sr2 2.477665 1_555
O1 Sr0 2.744386 1_455
O1 Sr0 2.744386 1_555
O2 Sr3 2.480586 1_555
O2 Sr3 2.480586 1_565
O2 Sr1 2.743156 1_555
O2 Sr1 2.743156 1_565
O3 Sr1 2.593314 1_555
O3 Sr1 2.593314 1_655
O3 Sr3 2.619685 1_655
O3 Sr3 2.619685 1_555
O4 Sr3 2.804873 1_555
O4 Sr2 3.139304 1_455
O4 Sr2 3.139304 1_545
O4 Sr2 3.139304 1_555
O4 Sr2 3.139304 1_445
O5 Sr2 2.806661 1_555
O5 Sr3 3.138597 1_665
O5 Sr3 3.138597 1_555
O5 Sr3 3.138597 1_655
O5 Sr3 3.138597 1_565
