# generated using pymatgen
data_Na6Ti4Ga4Si5S7O48
_symmetry_space_group_name_H-M   'P 1'
_cell_length_a   17.44352617
_cell_length_b   8.73068384
_cell_length_c   22.31310457
_cell_angle_alpha   90.10625097
_cell_angle_beta   89.85875740
_cell_angle_gamma   120.18342688
_symmetry_Int_Tables_number   1
_chemical_formula_structural   Na6Ti4Ga4Si5S7O48
_chemical_formula_sum   'Na18 Ti12 Ga12 Si15 S21 O144'
_cell_volume   2937.42004804
_cell_formula_units_Z   3
loop_
 _symmetry_equiv_pos_site_id
 _symmetry_equiv_pos_as_xyz
  1  'x, y, z'
loop_
 _atom_site_type_symbol
 _atom_site_label
 _atom_site_symmetry_multiplicity
 _atom_site_fract_x
 _atom_site_fract_y
 _atom_site_fract_z
 _atom_site_occupancy
  Na  Na0  1  0.00003931  0.62860256  0.25465494  1
  Na  Na1  1  0.49894402  0.64076240  0.25031902  1
  Na  Na2  1  0.00080374  0.36580243  0.74794651  1
  Na  Na3  1  0.49812576  0.36352143  0.75254414  1
  Na  Na4  1  0.66555278  0.29897098  0.91619266  1
  Na  Na5  1  0.16667827  0.02647639  0.42609465  1
  Na  Na6  1  0.99896327  0.99746658  0.50395463  1
  Na  Na7  1  0.50092999  0.98886511  0.50106759  1
  Na  Na8  1  0.00291775  0.01001189  0.99545431  1
  Na  Na9  1  0.49999732  0.00170550  0.99985668  1
  Na  Na10  1  0.32993418  0.32615276  0.83497307  1
  Na  Na11  1  0.82790992  0.32596617  0.82573418  1
  Na  Na12  1  0.33642403  0.34226416  0.33025354  1
  Na  Na13  1  0.82696267  0.33145922  0.33789894  1
  Na  Na14  1  0.18205032  0.66427747  0.16710199  1
  Na  Na15  1  0.67526104  0.66453052  0.16429793  1
  Na  Na16  1  0.17675635  0.68762399  0.66597540  1
  Na  Na17  1  0.68042516  0.68748748  0.67253323  1
  Ti  Ti0  1  0.49812820  0.01514203  0.35105345  1
  Ti  Ti1  1  0.99851587  0.98104064  0.85081330  1
  Ti  Ti2  1  0.99911311  0.98464987  0.64885031  1
  Ti  Ti3  1  0.50893837  0.00102623  0.64172972  1
  Ti  Ti4  1  0.00173811  0.01483715  0.13878078  1
  Ti  Ti5  1  0.49781632  0.01296811  0.14817579  1
  Ti  Ti6  1  0.32652450  0.32030257  0.97478611  1
  Ti  Ti7  1  0.82809399  0.33565440  0.47540710  1
  Ti  Ti8  1  0.16484278  0.66481797  0.01886278  1
  Ti  Ti9  1  0.66459772  0.65021236  0.02430016  1
  Ti  Ti10  1  0.16340332  0.67776525  0.52636893  1
  Ti  Ti11  1  0.66400646  0.66099131  0.52070041  1
  Ga  Ga0  1  0.99636012  0.98589008  0.35431561  1
  Ga  Ga1  1  0.50189615  0.01750103  0.85230805  1
  Ga  Ga2  1  0.31973042  0.33315118  0.67819106  1
  Ga  Ga3  1  0.82236806  0.30470225  0.69668581  1
  Ga  Ga4  1  0.33247231  0.35290003  0.19061871  1
  Ga  Ga5  1  0.81681540  0.30856020  0.17650330  1
  Ga  Ga6  1  0.82647698  0.30659578  0.98677993  1
  Ga  Ga7  1  0.33020848  0.34990002  0.49214876  1
  Ga  Ga8  1  0.17108104  0.66639428  0.31772915  1
  Ga  Ga9  1  0.66424514  0.64138876  0.31518353  1
  Ga  Ga10  1  0.16824683  0.69265768  0.81344199  1
  Ga  Ga11  1  0.66665452  0.65289121  0.81013261  1
  Si  Si0  1  0.35091520  0.71538454  0.25249770  1
  Si  Si1  1  0.49913855  0.29976736  0.24795894  1
  Si  Si2  1  0.64338626  0.28681759  0.75165475  1
  Si  Si3  1  0.00188450  0.70121838  0.74753171  1
  Si  Si4  1  0.85303208  0.98860140  0.75256532  1
  Si  Si5  1  0.18588409  0.04945316  0.58281415  1
  Si  Si6  1  0.69665846  0.04952702  0.58345117  1
  Si  Si7  1  0.33324342  0.63051295  0.58312338  1
  Si  Si8  1  0.83033037  0.04038680  0.08259951  1
  Si  Si9  1  0.19556738  0.34286830  0.08435511  1
  Si  Si10  1  0.68524170  0.32391623  0.08214350  1
  Si  Si11  1  0.52117570  0.38084571  0.91389443  1
  Si  Si12  1  0.16163433  0.95176103  0.91677178  1
  Si  Si13  1  0.66258135  0.37192026  0.41614892  1
  Si  Si14  1  0.02335318  0.66245502  0.41240906  1
  S  S0  1  0.14369319  0.00275773  0.25021022  1
  S  S1  1  0.64914358  0.00581727  0.25226742  1
  S  S2  1  0.85558681  0.71025358  0.24862100  1
  S  S3  1  0.99687750  0.28277810  0.25085233  1
  S  S4  1  0.14897246  0.29260312  0.75263514  1
  S  S5  1  0.49464402  0.70839146  0.75074042  1
  S  S6  1  0.35371674  0.99971197  0.74908768  1
  S  S7  1  0.47817422  0.33410232  0.58404949  1
  S  S8  1  0.97579349  0.33049782  0.58306899  1
  S  S9  1  0.83223811  0.62145571  0.58242161  1
  S  S10  1  0.47729706  0.62325101  0.08332422  1
  S  S11  1  0.97866401  0.62227249  0.08563396  1
  S  S12  1  0.33150346  0.04447723  0.08352316  1
  S  S13  1  0.31046648  0.66902568  0.91335930  1
  S  S14  1  0.81389734  0.66413256  0.91903680  1
  S  S15  1  0.01819256  0.37793176  0.91638058  1
  S  S16  1  0.66713622  0.95266546  0.91587129  1
  S  S17  1  0.31409476  0.96313150  0.41852527  1
  S  S18  1  0.80978679  0.95135127  0.41344918  1
  S  S19  1  0.16716383  0.37395117  0.41505165  1
  S  S20  1  0.51825436  0.65934841  0.41649806  1
  O  O0  1  0.10460578  0.02737190  0.30712087  1
  O  O1  1  0.60609700  0.02906232  0.30640192  1
  O  O2  1  0.41850621  0.81361320  0.30962657  1
  O  O3  1  0.91067423  0.79013044  0.30407228  1
  O  O4  1  0.48925604  0.17771848  0.30699785  1
  O  O5  1  0.98661655  0.17672393  0.30569930  1
  O  O6  1  0.10611601  0.18343718  0.80679370  1
  O  O7  1  0.60464055  0.17565300  0.81427488  1
  O  O8  1  0.47908988  0.78551473  0.80557163  1
  O  O9  1  0.99182719  0.80353532  0.80700992  1
  O  O10  1  0.40663513  0.02654809  0.80497927  1
  O  O11  1  0.92049764  0.02238653  0.80993791  1
  O  O12  1  0.39515744  0.97971676  0.69492067  1
  O  O13  1  0.90601992  0.96852170  0.69358061  1
  O  O14  1  0.09468951  0.21377947  0.69783145  1
  O  O15  1  0.57478555  0.17810063  0.69579733  1
  O  O16  1  0.02190690  0.83676014  0.69081823  1
  O  O17  1  0.50047354  0.81086768  0.69628684  1
  O  O18  1  0.40390941  0.83760804  0.19332517  1
  O  O19  1  0.90122430  0.81564452  0.19535954  1
  O  O20  1  0.00375842  0.19062282  0.19662400  1
  O  O21  1  0.51889634  0.20564543  0.19083750  1
  O  O22  1  0.08458075  0.97826317  0.19897072  1
  O  O23  1  0.59456391  0.97597707  0.19762424  1
  O  O24  1  0.44007534  0.36050099  0.63990429  1
  O  O25  1  0.94309487  0.36528205  0.63946290  1
  O  O26  1  0.24940661  0.12456530  0.64071596  1
  O  O27  1  0.75593737  0.12675341  0.64226747  1
  O  O28  1  0.31287798  0.51122069  0.64280929  1
  O  O29  1  0.81971369  0.51906494  0.63661300  1
  O  O30  1  0.44444824  0.52269706  0.14085987  1
  O  O31  1  0.94044666  0.51924366  0.14188758  1
  O  O32  1  0.31938330  0.12254659  0.13795174  1
  O  O33  1  0.81544830  0.11787584  0.14475097  1
  O  O34  1  0.25133232  0.37388779  0.14457811  1
  O  O35  1  0.74715824  0.37886126  0.14145794  1
  O  O36  1  0.23931903  0.30884201  0.02542598  1
  O  O37  1  0.72686943  0.29978266  0.01960672  1
  O  O38  1  0.42102438  0.53125583  0.03167023  1
  O  O39  1  0.92385843  0.54143779  0.03228695  1
  O  O40  1  0.34438645  0.14985471  0.02868671  1
  O  O41  1  0.86196308  0.16965006  0.02510862  1
  O  O42  1  0.22741214  0.15326163  0.51916531  1
  O  O43  1  0.74104716  0.17139055  0.52388669  1
  O  O44  1  0.36304475  0.56345359  0.52400802  1
  O  O45  1  0.84490338  0.54183506  0.52706782  1
  O  O46  1  0.42411362  0.31096697  0.53001715  1
  O  O47  1  0.92157751  0.31239660  0.53008833  1
  O  O48  1  0.26753532  0.69272824  0.96810343  1
  O  O49  1  0.77324432  0.68880833  0.97372983  1
  O  O50  1  0.07570125  0.47045519  0.97009177  1
  O  O51  1  0.59055431  0.48092311  0.96987613  1
  O  O52  1  0.15219809  0.82800740  0.97545820  1
  O  O53  1  0.66323181  0.85647920  0.97061657  1
  O  O54  1  0.27247169  0.85549276  0.47231347  1
  O  O55  1  0.76811532  0.84201359  0.46728443  1
  O  O56  1  0.15815426  0.45883069  0.46833383  1
  O  O57  1  0.65153314  0.47458096  0.47431174  1
  O  O58  1  0.09291241  0.70304197  0.46752493  1
  O  O59  1  0.57537246  0.68096719  0.46911155  1
  O  O60  1  0.06564228  0.63764204  0.34926390  1
  O  O61  1  0.55935398  0.64332909  0.35932025  1
  O  O62  1  0.25732403  0.88464123  0.36391656  1
  O  O63  1  0.75641083  0.87257333  0.35847185  1
  O  O64  1  0.18134195  0.47837016  0.35890296  1
  O  O65  1  0.68822462  0.49458396  0.35718341  1
  O  O66  1  0.06047169  0.47721921  0.86033618  1
  O  O67  1  0.56211071  0.49269212  0.85224501  1
  O  O68  1  0.18713937  0.87853928  0.85888247  1
  O  O69  1  0.67911355  0.87341048  0.86076690  1
  O  O70  1  0.25542716  0.63727659  0.85930801  1
  O  O71  1  0.75762753  0.62936672  0.86502716  1
  O  O72  1  0.01592552  0.84570570  0.40920080  1
  O  O73  1  0.50941610  0.81867825  0.41442683  1
  O  O74  1  0.40125451  0.97288010  0.41193159  1
  O  O75  1  0.90037957  0.97040923  0.40900625  1
  O  O76  1  0.08433765  0.19378727  0.40944357  1
  O  O77  1  0.57556030  0.17286415  0.41149317  1
  O  O78  1  0.00906194  0.20096640  0.91533416  1
  O  O79  1  0.51164218  0.18218490  0.91292430  1
  O  O80  1  0.07575076  0.97759276  0.91323558  1
  O  O81  1  0.58451949  0.96650726  0.91424162  1
  O  O82  1  0.39959222  0.82992740  0.90893888  1
  O  O83  1  0.90145203  0.82872182  0.91308540  1
  O  O84  1  0.48914797  0.17723221  0.58684199  1
  O  O85  1  0.98483485  0.17071321  0.58690833  1
  O  O86  1  0.08886751  0.03497616  0.58931461  1
  O  O87  1  0.59631761  0.02549879  0.58968915  1
  O  O88  1  0.41698259  0.83090812  0.59413369  1
  O  O89  1  0.91256046  0.80331366  0.58571416  1
  O  O90  1  0.48540085  0.80044443  0.08834654  1
  O  O91  1  0.99145657  0.80408237  0.09155767  1
  O  O92  1  0.41185386  0.02331832  0.08712211  1
  O  O93  1  0.91707853  0.00961198  0.09267822  1
  O  O94  1  0.09413399  0.16467569  0.09205439  1
  O  O95  1  0.58792972  0.14331138  0.09064290  1
  O  O96  1  0.34595895  0.16338004  0.74611161  1
  O  O97  1  0.85436539  0.17442189  0.74952168  1
  O  O98  1  0.23786694  0.30740161  0.74845938  1
  O  O99  1  0.74120228  0.31492681  0.74708114  1
  O  O100  1  0.41757896  0.52052187  0.74543390  1
  O  O101  1  0.91505672  0.51136761  0.73992101  1
  O  O102  1  0.34759517  0.52537867  0.24951941  1
  O  O103  1  0.84778591  0.53114390  0.24563022  1
  O  O104  1  0.40980632  0.31106950  0.24100457  1
  O  O105  1  0.91893544  0.30888643  0.24719014  1
  O  O106  1  0.23270032  0.15769402  0.24538927  1
  O  O107  1  0.73831476  0.17035132  0.24804743  1
  O  O108  1  0.32032826  0.51053508  0.92064114  1
  O  O109  1  0.82637965  0.50761700  0.92444322  1
  O  O110  1  0.42499927  0.36410452  0.92693006  1
  O  O111  1  0.93159502  0.37153960  0.92242115  1
  O  O112  1  0.25012231  0.14998995  0.92427922  1
  O  O113  1  0.74627943  0.14171855  0.91814126  1
  O  O114  1  0.32660019  0.14377173  0.42329390  1
  O  O115  1  0.82121306  0.13037873  0.41970523  1
  O  O116  1  0.24507129  0.34482339  0.41791816  1
  O  O117  1  0.75067060  0.35062040  0.42424501  1
  O  O118  1  0.43090673  0.49257465  0.42169466  1
  O  O119  1  0.92697296  0.48832088  0.42373157  1
  O  O120  1  0.17875657  0.51004053  0.07235050  1
  O  O121  1  0.67057375  0.49652076  0.07675210  1
  O  O122  1  0.06898094  0.64176441  0.07958379  1
  O  O123  1  0.56759837  0.64764591  0.07562504  1
  O  O124  1  0.25235598  0.86189236  0.07670067  1
  O  O125  1  0.74314042  0.84755992  0.07261521  1
  O  O126  1  0.17119411  0.84634707  0.57760382  1
  O  O127  1  0.67915616  0.84797778  0.56972427  1
  O  O128  1  0.24337134  0.64181326  0.57054965  1
  O  O129  1  0.75291248  0.64498777  0.57524333  1
  O  O130  1  0.06739890  0.48858703  0.57461084  1
  O  O131  1  0.56845847  0.49752722  0.57821106  1
  O  O132  1  0.14853476  0.83738350  0.25270158  1
  O  O133  1  0.65862559  0.84718913  0.25851900  1
  O  O134  1  0.25388444  0.69881095  0.25909203  1
  O  O135  1  0.76861354  0.69984882  0.25329820  1
  O  O136  1  0.07907837  0.45948299  0.25174708  1
  O  O137  1  0.58416241  0.50202835  0.25416490  1
  O  O138  1  0.15822212  0.47040942  0.75900868  1
  O  O139  1  0.64393007  0.47556030  0.75059947  1
  O  O140  1  0.08800592  0.67325036  0.75345781  1
  O  O141  1  0.57731018  0.70054882  0.75277292  1
  O  O142  1  0.26516537  0.83596808  0.75386992  1
  O  O143  1  0.75528482  0.81830627  0.75914343  1
loop_
_geom_bond_atom_site_label_1
_geom_bond_atom_site_label_2
_geom_bond_distance
_geom_bond_site_symmetry_2
Na0 O132 2.299148 1_555
Na0 O103 2.355355 1_455
Na0 O60 2.385926 1_555
Na0 O105 2.418544 1_455
Na0 O136 2.476170 1_555
Na0 O31 2.707282 1_455
Na0 O3 2.798380 1_455
Na0 O22 2.918240 1_555
Na1 O102 2.304545 1_555
Na1 O137 2.344290 1_555
Na1 O133 2.448175 1_555
Na1 O104 2.499046 1_555
Na1 O30 2.635938 1_555
Na1 O61 2.648583 1_555
Na1 O23 2.797206 1_555
Na1 O2 2.847803 1_555
Na2 O97 2.241891 1_455
Na2 O140 2.329820 1_555
Na2 O101 2.407907 1_455
Na2 O138 2.432272 1_555
Na2 O25 2.622988 1_455
Na2 O66 2.702623 1_555
Na2 O14 2.804510 1_555
Na2 O11 2.940693 1_455
Na3 O139 2.219300 1_555
Na3 O96 2.335918 1_555
Na3 O100 2.411762 1_555
Na3 O67 2.490745 1_555
Na3 O141 2.545432 1_555
Na3 O24 2.707105 1_555
Na3 O10 2.802425 1_555
Na3 O15 2.858825 1_555
Na4 O79 2.345399 1_555
Na4 O113 2.411272 1_555
Na4 O109 2.466786 1_555
Na4 O81 2.509861 1_545
Na4 O7 2.512409 1_555
Na4 O37 2.544217 1_556
Na4 O71 2.747424 1_555
Na4 O51 2.782951 1_555
Na5 O72 2.318945 1_545
Na5 O42 2.341673 1_555
Na5 O116 2.409797 1_555
Na5 O114 2.441579 1_555
Na5 O76 2.539513 1_555
Na5 O58 2.614257 1_545
Na5 O62 2.812485 1_545
Na5 O0 2.870974 1_555
Na6 O86 2.385438 1_665
Na6 O89 2.429395 1_555
Na6 O85 2.477260 1_565
Na6 O72 2.587258 1_655
Na6 O76 2.652179 1_665
Na6 O75 2.666281 1_555
Na7 O77 2.483206 1_565
Na7 O73 2.485179 1_555
Na7 O87 2.501959 1_565
Na7 O88 2.514634 1_555
Na7 O84 2.595400 1_565
Na7 O74 2.601976 1_555
Na7 O44 3.295459 1_555
Na8 O80 2.325501 1_545
Na8 O78 2.411915 1_555
Na8 O83 2.490794 1_445
Na8 O94 2.616619 1_556
Na8 O93 2.631909 1_456
Na8 O91 2.742532 1_446
Na9 O79 2.444223 1_555
Na9 O95 2.466562 1_556
Na9 O81 2.521330 1_545
Na9 O92 2.542964 1_556
Na9 O90 2.571283 1_546
Na9 O82 2.607135 1_545
Na10 O98 2.466193 1_555
Na10 O112 2.473695 1_555
Na10 O96 2.532858 1_555
Na10 O110 2.555675 1_555
Na10 O108 2.555706 1_555
Na10 O100 2.568540 1_555
Na11 O99 2.289713 1_555
Na11 O97 2.336040 1_555
Na11 O101 2.473895 1_555
Na11 O113 2.561477 1_555
Na11 O111 2.715920 1_555
Na11 O109 2.719606 1_555
Na12 O102 2.352594 1_555
Na12 O104 2.452433 1_555
Na12 O116 2.527107 1_555
Na12 O118 2.536382 1_555
Na12 O106 2.555349 1_555
Na12 O114 2.656200 1_555
Na13 O117 2.391866 1_555
Na13 O119 2.488226 1_555
Na13 O107 2.491353 1_555
Na13 O115 2.501586 1_555
Na13 O103 2.604391 1_555
Na13 O105 2.647585 1_555
Na14 O134 2.346191 1_555
Na14 O120 2.489719 1_555
Na14 O124 2.534293 1_555
Na14 O136 2.599390 1_555
Na14 O132 2.673247 1_555
Na14 O122 2.714756 1_555
Na15 O121 2.417378 1_555
Na15 O135 2.489823 1_555
Na15 O125 2.497621 1_555
Na15 O137 2.507339 1_555
Na15 O123 2.683704 1_555
Na15 O133 2.738102 1_555
Na15 O35 3.345216 1_555
Na16 O142 2.428801 1_555
Na16 O126 2.442170 1_555
Na16 O140 2.452224 1_555
Na16 O128 2.548699 1_555
Na16 O138 2.721204 1_555
Na16 O130 2.736307 1_555
Na17 O143 2.291054 1_555
Na17 O139 2.384334 1_555
Na17 O141 2.577483 1_555
Na17 O129 2.627597 1_555
Na17 O127 2.696212 1_555
Na17 O131 2.782943 1_555
Ga0 O72 1.881981 1_655
Ga0 O3 1.960708 1_555
Ga0 O75 2.018296 1_555
Ga0 O0 2.027150 1_665
Ga0 O5 2.067345 1_565
Ga0 O76 2.088739 1_665
Ga1 O7 1.829556 1_555
Ga1 O79 1.916681 1_555
Ga1 O10 2.005899 1_555
Ga1 O82 2.126288 1_545
Ga1 O8 2.128851 1_545
Ga1 O81 2.200553 1_545
Ga2 O28 1.801786 1_555
Ga2 O26 1.809278 1_555
Ga2 O98 2.053162 1_555
Ga2 O24 2.163683 1_555
Ga2 O100 2.244199 1_555
Ga2 O96 2.323088 1_555
Ga3 O99 1.842775 1_555
Ga3 O27 1.849472 1_555
Ga3 O97 1.908340 1_555
Ga3 O101 1.966767 1_555
Ga3 O25 2.283438 1_555
Ga3 O29 2.323408 1_555
Ga4 O34 1.833264 1_555
Ga4 O102 1.912954 1_555
Ga4 O104 1.929114 1_555
Ga4 O30 2.080705 1_555
Ga4 O106 2.107542 1_555
Ga4 O32 2.238005 1_555
Ga5 O35 1.794704 1_555
Ga5 O33 1.797191 1_555
Ga5 O107 2.052897 1_555
Ga5 O31 2.153846 1_555
Ga5 O103 2.320505 1_555
Ga5 O105 2.381089 1_555
Ga6 O41 1.815136 1_556
Ga6 O37 1.857132 1_556
Ga6 O113 2.086202 1_555
Ga6 O39 2.149195 1_556
Ga6 O111 2.165760 1_555
Ga6 O109 2.242086 1_555
Ga7 O44 1.798031 1_555
Ga7 O42 1.851784 1_555
Ga7 O46 2.020007 1_555
Ga7 O116 2.212806 1_555
Ga7 O118 2.214021 1_555
Ga7 O114 2.340814 1_555
Ga8 O134 1.859891 1_555
Ga8 O60 1.863032 1_555
Ga8 O64 1.967920 1_555
Ga8 O62 2.018404 1_555
Ga8 O132 2.256060 1_555
Ga8 O136 2.256783 1_555
Ga9 O65 1.800405 1_555
Ga9 O137 1.892002 1_555
Ga9 O63 2.080638 1_555
Ga9 O61 2.083289 1_555
Ga9 O135 2.130151 1_555
Ga9 O133 2.241154 1_555
Ga10 O68 1.796695 1_555
Ga10 O140 1.883919 1_555
Ga10 O142 2.014596 1_555
Ga10 O70 2.083907 1_555
Ga10 O66 2.146851 1_555
Ga10 O138 2.218550 1_555
Ga11 O143 1.876858 1_555
Ga11 O67 1.896428 1_555
Ga11 O139 1.922639 1_555
Ga11 O71 2.097367 1_555
Ga11 O69 2.145419 1_555
Ga11 O141 2.214480 1_555
O0 S0 1.505206 1_555
O1 S1 1.487249 1_555
O1 Ti0 2.077374 1_555
O2 Si0 1.654424 1_555
O2 Ti0 1.849939 1_565
O3 S2 1.506458 1_555
O4 Si1 1.649219 1_555
O4 Ti0 1.797719 1_555
O5 S3 1.491158 1_555
O6 S4 1.486928 1_555
O6 Ti1 2.066986 1_445
O7 Si2 1.640681 1_555
O8 S5 1.484200 1_555
O9 Si3 1.655930 1_655
O9 Ti1 1.784302 1_555
O10 S6 1.499797 1_545
O11 Si4 1.663652 1_545
O11 Ti1 1.820868 1_545
O12 S6 1.461375 1_555
O12 Ti3 2.236144 1_565
O13 Si4 1.665335 1_555
O13 Ti2 1.848120 1_555
O14 S4 1.487574 1_555
O14 Ti2 2.150136 1_445
O15 Si2 1.657445 1_555
O15 Ti3 1.838246 1_555
O16 Si3 1.646665 1_555
O16 Ti2 1.795740 1_455
O17 S5 1.482916 1_555
O17 Ti3 2.005028 1_565
O18 Si0 1.656437 1_555
O18 Ti5 1.875621 1_565
O19 S2 1.468191 1_555
O19 Ti4 2.150229 1_665
O20 S3 1.489510 1_455
O20 Ti4 1.990210 1_555
O21 Si1 1.642339 1_555
O21 Ti5 1.801378 1_555
O22 S0 1.483003 1_565
O22 Ti4 2.114012 1_565
O23 S1 1.488631 1_565
O23 Ti5 2.174463 1_565
O24 S7 1.482196 1_555
O25 S8 1.473146 1_555
O26 Si5 1.612535 1_555
O27 Si6 1.596405 1_555
O28 Si7 1.617199 1_555
O29 S9 1.454406 1_555
O30 S10 1.497302 1_555
O31 S11 1.492023 1_555
O32 S12 1.457662 1_555
O33 Si8 1.618524 1_555
O34 Si9 1.601704 1_555
O35 Si10 1.622330 1_555
O36 Si9 1.619019 1_555
O36 Ti6 1.854620 1_554
O37 Si10 1.632954 1_555
O38 S10 1.465060 1_555
O38 Ti6 2.160839 1_554
O39 S11 1.467304 1_555
O40 S12 1.479521 1_555
O40 Ti6 2.057372 1_554
O41 Si8 1.612263 1_555
O42 Si5 1.643980 1_555
O43 Si6 1.633935 1_555
O43 Ti7 1.827684 1_555
O44 Si7 1.628709 1_555
O45 S9 1.485745 1_555
O45 Ti7 2.029360 1_555
O46 S7 1.482152 1_555
O47 S8 1.473567 1_555
O47 Ti7 2.129015 1_555
O48 S13 1.498701 1_555
O48 Ti8 2.025608 1_556
O49 S14 1.478839 1_555
O49 Ti9 2.080195 1_556
O50 S15 1.510850 1_555
O50 Ti8 1.957012 1_556
O51 Si11 1.651812 1_555
O51 Ti9 1.846325 1_556
O52 Si12 1.653650 1_555
O52 Ti8 1.827216 1_556
O53 S16 1.465569 1_555
O53 Ti9 2.174800 1_556
O54 S17 1.471234 1_555
O54 Ti10 2.123509 1_555
O55 S18 1.478106 1_555
O55 Ti11 2.080052 1_555
O56 S19 1.449222 1_555
O56 Ti10 2.270312 1_555
O57 Si13 1.641006 1_555
O57 Ti11 1.845600 1_555
O58 Si14 1.638179 1_555
O58 Ti10 1.888513 1_555
O59 S20 1.490763 1_555
O59 Ti11 2.006617 1_555
O60 Si14 1.652484 1_555
O61 S20 1.502296 1_555
O62 S17 1.501817 1_555
O63 S18 1.484366 1_555
O64 S19 1.495961 1_555
O65 Si13 1.612048 1_555
O66 S15 1.488547 1_555
O67 Si11 1.629316 1_555
O68 Si12 1.598488 1_555
O69 S16 1.474851 1_555
O70 S13 1.479871 1_555
O71 S14 1.487540 1_555
O72 Si14 1.670483 1_555
O73 S20 1.475422 1_555
O73 Ti0 2.308773 1_565
O74 S17 1.486355 1_555
O74 Ti0 2.049491 1_565
O75 S18 1.506526 1_555
O76 S19 1.514012 1_555
O77 Si13 1.637897 1_555
O77 Ti0 1.916019 1_555
O78 S15 1.471554 1_555
O78 Ti1 2.330049 1_445
O79 Si11 1.657187 1_555
O80 Si12 1.625367 1_555
O80 Ti1 1.950939 1_455
O81 S16 1.506045 1_555
O82 S13 1.484527 1_555
O83 S14 1.485926 1_555
O83 Ti1 2.072929 1_555
O84 S7 1.476576 1_555
O84 Ti3 2.128113 1_555
O85 S8 1.483260 1_555
O85 Ti2 2.242323 1_545
O86 Si5 1.638507 1_555
O86 Ti2 1.925920 1_445
O87 Si6 1.660306 1_555
O87 Ti3 1.839001 1_555
O88 Si7 1.638737 1_555
O88 Ti3 1.874493 1_565
O89 S9 1.500859 1_555
O89 Ti2 2.090275 1_555
O90 S10 1.485042 1_555
O90 Ti5 2.204548 1_565
O91 S11 1.493339 1_555
O91 Ti4 2.046966 1_665
O92 S12 1.505325 1_555
O92 Ti5 2.063798 1_555
O93 Si8 1.680253 1_555
O93 Ti4 1.783448 1_655
O94 Si9 1.676917 1_555
O94 Ti4 1.809055 1_555
O95 Si10 1.646751 1_555
O95 Ti5 1.900161 1_555
O96 S6 1.503134 1_545
O97 Si4 1.612328 1_545
O98 S4 1.492554 1_555
O99 Si2 1.600041 1_555
O100 S5 1.514725 1_555
O101 Si3 1.595635 1_655
O102 Si0 1.631767 1_555
O103 S2 1.501324 1_555
O104 Si1 1.617987 1_555
O105 S3 1.489747 1_555
O106 S0 1.462809 1_555
O107 S1 1.498276 1_555
O108 S13 1.486953 1_555
O108 Ti6 2.101985 1_555
O109 S14 1.493041 1_555
O110 Si11 1.634527 1_555
O110 Ti6 1.889197 1_555
O111 S15 1.489076 1_655
O112 Si12 1.649196 1_545
O112 Ti6 1.807134 1_555
O113 S16 1.530213 1_545
O114 S17 1.483155 1_545
O115 S18 1.479307 1_545
O115 Ti7 2.132440 1_555
O116 S19 1.504523 1_555
O117 Si13 1.648375 1_555
O117 Ti7 1.824784 1_555
O118 S20 1.491305 1_555
O119 Si14 1.621989 1_655
O119 Ti7 1.940416 1_555
O120 Si9 1.649291 1_555
O120 Ti8 1.909591 1_555
O121 Si10 1.655108 1_555
O121 Ti9 1.824340 1_555
O122 S11 1.502884 1_455
O122 Ti8 2.079364 1_555
O123 S10 1.489128 1_555
O123 Ti9 2.031587 1_555
O124 S12 1.502502 1_565
O124 Ti8 2.077652 1_555
O125 Si8 1.619450 1_565
O125 Ti9 1.906480 1_555
O126 Si5 1.663156 1_565
O126 Ti10 1.812482 1_555
O127 Si6 1.655806 1_565
O127 Ti11 1.868827 1_555
O128 Si7 1.644348 1_555
O128 Ti10 1.861278 1_555
O129 S9 1.506525 1_555
O129 Ti11 2.033119 1_555
O130 S8 1.508564 1_455
O130 Ti10 1.976755 1_555
O131 S7 1.507705 1_555
O131 Ti11 2.016379 1_555
O132 S0 1.489229 1_565
O133 S1 1.481897 1_565
O134 Si0 1.630928 1_555
O135 S2 1.476981 1_555
O136 S3 1.487326 1_455
O137 Si1 1.644301 1_555
O138 S4 1.484436 1_555
O139 Si2 1.643316 1_555
O140 Si3 1.644339 1_555
O141 S5 1.478409 1_555
O142 S6 1.490089 1_555
O143 Si4 1.609280 1_555
