# generated using pymatgen
data_SrLiN
_symmetry_space_group_name_H-M   'P 1'
_cell_length_a   3.92118596
_cell_length_b   3.92118596
_cell_length_c   7.06029978
_cell_angle_alpha   90.00000000
_cell_angle_beta   90.00000000
_cell_angle_gamma   90.00000000
_symmetry_Int_Tables_number   1
_chemical_formula_structural   SrLiN
_chemical_formula_sum   'Sr2 Li2 N2'
_cell_volume   108.55704662
_cell_formula_units_Z   2
loop_
 _symmetry_equiv_pos_site_id
 _symmetry_equiv_pos_as_xyz
  1  'x, y, z'
loop_
 _atom_site_type_symbol
 _atom_site_label
 _atom_site_symmetry_multiplicity
 _atom_site_fract_x
 _atom_site_fract_y
 _atom_site_fract_z
 _atom_site_occupancy
  Sr  Sr0  1  -0.00000000  0.00000000  0.75000000  1
  Sr  Sr1  1  0.00000000  0.00000000  0.25000000  1
  Li  Li0  1  0.50000000  0.50000000  0.50000000  1
  Li  Li1  1  0.50000000  0.50000000  0.00000000  1
  N  N0  1  -0.00000000  0.50000000  0.00000000  1
  N  N1  1  0.50000000  0.00000000  0.50000000  1
loop_
_geom_bond_atom_site_label_1
_geom_bond_atom_site_label_2
_geom_bond_distance
_geom_bond_site_symmetry_2
Li0 N1 1.960593 1_565
Li0 N1 1.960593 1_555
Li0 Sr1 3.286843 1_655
Li0 Sr1 3.286843 1_555
Li0 Sr0 3.286843 1_565
Li0 Sr0 3.286843 1_665
Li0 Sr0 3.286843 1_655
Li0 Sr1 3.286843 1_565
Li0 Sr1 3.286843 1_665
Li0 Sr0 3.286843 1_555
Li1 N0 1.960593 1_555
Li1 N0 1.960593 1_655
Li1 Sr1 3.286843 1_655
Li1 Sr1 3.286843 1_555
Li1 Sr0 3.286843 1_654
Li1 Sr0 3.286843 1_564
Li1 Sr1 3.286843 1_565
Li1 Sr1 3.286843 1_665
Li1 Sr0 3.286843 1_554
Li1 Sr0 3.286843 1_664
N0 Sr1 2.638070 1_565
N0 Sr1 2.638070 1_555
N0 Sr0 2.638070 1_564
N0 Sr0 2.638070 1_554
N1 Sr1 2.638070 1_655
N1 Sr1 2.638070 1_555
N1 Sr0 2.638070 1_655
N1 Sr0 2.638070 1_555
