# generated using pymatgen
data_Tl5Se2I
_symmetry_space_group_name_H-M   'P 1'
_cell_length_a   8.77755598
_cell_length_b   8.77755593
_cell_length_c   9.28922561
_cell_angle_alpha   118.19403028
_cell_angle_beta   118.19403297
_cell_angle_gamma   90.00000302
_symmetry_Int_Tables_number   1
_chemical_formula_structural   Tl5Se2I
_chemical_formula_sum   'Tl10 Se4 I2'
_cell_volume   532.48950397
_cell_formula_units_Z   2
loop_
 _symmetry_equiv_pos_site_id
 _symmetry_equiv_pos_as_xyz
  1  'x, y, z'
loop_
 _atom_site_type_symbol
 _atom_site_label
 _atom_site_symmetry_multiplicity
 _atom_site_fract_x
 _atom_site_fract_y
 _atom_site_fract_z
 _atom_site_occupancy
  Tl  Tl0  1  0.99317030  0.78114493  0.27431624  1
  Tl  Tl1  1  0.78114493  0.28114493  0.27431624  1
  Tl  Tl2  1  0.49317030  0.99317030  0.27431624  1
  Tl  Tl3  1  0.21885507  0.71885507  0.72568376  1
  Tl  Tl4  1  0.28114493  0.49317030  0.27431624  1
  Tl  Tl5  1  0.00682970  0.21885507  0.72568376  1
  Tl  Tl6  1  0.71885507  0.50682970  0.72568376  1
  Tl  Tl7  1  0.50682970  0.00682970  0.72568376  1
  Tl  Tl8  1  0.50000000  0.50000000  -0.00000000  1
  Tl  Tl9  1  -0.00000000  0.00000000  -0.00000000  1
  Se  Se0  1  0.83749667  0.33749667  -0.00000000  1
  Se  Se1  1  0.66250333  0.83749667  0.00000000  1
  Se  Se2  1  0.33749667  0.16250333  -0.00000000  1
  Se  Se3  1  0.16250333  0.66250333  0.00000000  1
  I  I0  1  0.75000000  0.75000000  0.50000000  1
  I  I1  1  0.25000000  0.25000000  0.50000000  1
loop_
_geom_bond_atom_site_label_1
_geom_bond_atom_site_label_2
_geom_bond_distance
_geom_bond_site_symmetry_2
Tl0 Tl4 3.574727 1_655
Tl0 Tl8 3.867410 1_555
Tl0 Tl9 3.867420 1_665
Tl0 Tl3 4.015094 1_655
Tl0 Tl7 4.015105 1_665
Tl0 Tl5 4.081521 1_665
Tl1 Tl2 3.574727 1_545
Tl1 Tl8 3.867418 1_555
Tl1 Tl9 3.867418 1_655
Tl1 Tl5 4.015094 1_655
Tl1 Tl6 4.015094 1_555
Tl1 Tl3 4.081529 1_655
Tl2 Tl9 3.867413 1_565
Tl2 Tl8 3.867413 1_555
Tl2 Tl5 4.015105 1_665
Tl2 Tl6 4.015105 1_565
Tl2 Tl7 4.081513 1_565
Tl3 Tl7 3.574727 1_565
Tl3 Tl8 3.867418 1_556
Tl3 Tl9 3.867418 1_566
Tl3 Tl4 4.015094 1_555
Tl4 Tl9 3.867410 1_555
Tl4 Tl8 3.867421 1_555
Tl4 Tl7 4.015105 1_565
Tl4 Tl6 4.081521 1_555
Tl5 Tl6 3.574727 1_455
Tl5 Tl8 3.867410 1_556
Tl5 Tl9 3.867420 1_556
Tl6 Tl9 3.867410 1_666
Tl6 Tl8 3.867421 1_556
Tl7 Tl9 3.867413 1_656
Tl7 Tl8 3.867413 1_556
Se0 Tl7 3.060143 1_554
Se0 Tl1 3.060153 1_555
Se0 Tl9 3.287911 1_655
Se0 Tl8 3.287911 1_555
Se0 Tl4 3.295180 1_655
Se0 Tl0 3.295180 1_555
Se0 Tl6 3.295187 1_554
Se0 Tl5 3.295187 1_654
Se1 Tl0 3.060148 1_555
Se1 Tl6 3.060148 1_554
Se1 Tl8 3.287910 1_555
Se1 Tl9 3.287910 1_665
Se1 Tl3 3.295180 1_554
Se1 Tl1 3.295180 1_565
Se1 Tl7 3.295187 1_564
Se1 Tl2 3.295187 1_555
Se2 Tl5 3.060148 1_554
Se2 Tl4 3.060148 1_555
Se2 Tl8 3.287910 1_555
Se2 Tl9 3.287910 1_555
Se2 Tl1 3.295180 1_555
Se2 Tl3 3.295180 1_544
Se2 Tl2 3.295187 1_545
Se2 Tl7 3.295187 1_554
Se3 Tl2 3.060143 1_555
Se3 Tl3 3.060153 1_554
Se3 Tl9 3.287911 1_565
Se3 Tl8 3.287911 1_555
Se3 Tl6 3.295180 1_454
Se3 Tl5 3.295180 1_554
Se3 Tl4 3.295187 1_555
Se3 Tl0 3.295187 1_455
I0 Tl8 3.455683 1_555
I0 Tl9 3.455683 1_666
I0 Tl6 3.714209 1_555
I0 Tl0 3.714209 1_555
I0 Tl2 3.714212 1_555
I0 Tl7 3.714212 1_565
I0 Tl3 3.714217 1_655
I0 Tl1 3.714217 1_555
I0 Tl4 3.714220 1_555
I0 Tl5 3.714220 1_665
I1 Tl9 3.455683 1_555
I1 Tl8 3.455683 1_556
I1 Tl4 3.714209 1_555
I1 Tl5 3.714209 1_555
I1 Tl7 3.714212 1_555
I1 Tl2 3.714212 1_545
I1 Tl1 3.714217 1_455
I1 Tl3 3.714217 1_555
I1 Tl6 3.714220 1_555
I1 Tl0 3.714220 1_445
