# generated using pymatgen
data_MgMn6O7F5
_symmetry_space_group_name_H-M   'P 1'
_cell_length_a   8.05533094
_cell_length_b   5.81552331
_cell_length_c   5.79501306
_cell_angle_alpha   67.37153593
_cell_angle_beta   67.86262757
_cell_angle_gamma   68.05177271
_symmetry_Int_Tables_number   1
_chemical_formula_structural   MgMn6O7F5
_chemical_formula_sum   'Mg1 Mn6 O7 F5'
_cell_volume   223.63908979
_cell_formula_units_Z   1
loop_
 _symmetry_equiv_pos_site_id
 _symmetry_equiv_pos_as_xyz
  1  'x, y, z'
loop_
 _atom_site_type_symbol
 _atom_site_label
 _atom_site_symmetry_multiplicity
 _atom_site_fract_x
 _atom_site_fract_y
 _atom_site_fract_z
 _atom_site_occupancy
  Mg  Mg0  1  0.49936389  0.97566267  0.50588581  1
  Mn  Mn0  1  0.85478066  0.68604042  0.70245331  1
  Mn  Mn1  1  0.68308642  0.36081640  0.33467184  1
  Mn  Mn2  1  0.24790092  0.63347782  0.56884742  1
  Mn  Mn3  1  0.13512865  0.32865144  0.29429699  1
  Mn  Mn4  1  0.50635489  0.99858111  0.98792170  1
  Mn  Mn5  1  0.00678764  0.97618123  0.03812933  1
  O  O0  1  0.66979873  0.04797233  0.63799652  1
  O  O1  1  0.95042096  0.22835290  0.21606831  1
  O  O2  1  0.03447531  0.75500393  0.82481047  1
  O  O3  1  0.41854302  0.39278550  0.40013862  1
  O  O4  1  0.33661860  0.95047586  0.33730475  1
  O  O5  1  0.67147524  0.65229741  0.02680703  1
  O  O6  1  0.04484622  0.69275371  0.36312880  1
  F  F0  1  0.34139142  0.36373115  0.91187681  1
  F  F1  1  0.31646708  0.92473034  0.85310831  1
  F  F2  1  0.66871951  0.61267570  0.54958308  1
  F  F3  1  0.69151760  0.06775661  0.14386438  1
  F  F4  1  0.99375025  0.28062145  0.71977550  1
loop_
_geom_bond_atom_site_label_1
_geom_bond_atom_site_label_2
_geom_bond_distance
_geom_bond_site_symmetry_2
Mg0 O4 1.978222 1_555
Mg0 O0 2.029606 1_565
Mg0 O3 2.158711 1_565
Mn0 O5 1.895489 1_556
Mn0 O6 1.982153 1_655
Mn0 O2 2.045776 1_655
Mn0 O0 2.064001 1_565
Mn1 O5 1.935248 1_555
Mn1 O1 1.937806 1_555
Mn1 O3 1.966826 1_555
Mn1 O0 1.988503 1_555
Mn2 O3 1.845680 1_555
Mn2 O2 1.905744 1_555
Mn2 O4 2.017018 1_555
Mn2 O6 2.224258 1_555
Mn3 O1 2.029808 1_455
Mn3 O6 2.109914 1_555
Mn3 O4 2.178993 1_545
Mn3 O3 2.755954 1_555
Mn4 O5 1.936432 1_556
Mn4 O0 1.936581 1_565
Mn4 O4 1.952120 1_556
Mn5 O1 1.932131 1_465
Mn5 O6 2.006620 1_555
Mn5 O2 2.008404 1_554
F0 Mn4 2.020203 1_545
F0 Mn2 2.196615 1_555
F0 Mn3 2.200887 1_556
F0 O2 2.719536 1_555
F0 O3 2.740997 1_555
F0 F1 2.788901 1_545
F1 Mg0 1.985066 1_555
F1 Mn4 2.187327 1_555
F1 Mn5 2.266084 1_556
F1 F4 2.810644 1_465
F2 Mg0 2.019309 1_555
F2 Mn1 2.208649 1_555
F2 Mn0 2.232200 1_555
F2 F3 2.795619 1_565
F3 Mg0 2.095645 1_545
F3 Mn4 2.224266 1_544
F3 Mn5 2.275072 1_645
F3 Mn1 2.332143 1_555
F3 O3 2.684318 1_555
F3 O5 2.821198 1_545
F4 Mn5 2.010656 1_646
F4 Mn0 2.179829 1_555
F4 Mn3 2.246330 1_655
F4 O6 2.543611 1_655
F4 O1 2.671288 1_556
F4 O2 2.791223 1_645
