# generated using pymatgen
data_MgNbTlBr4O
_symmetry_space_group_name_H-M   'P 1'
_cell_length_a   7.87993564
_cell_length_b   14.30961243
_cell_length_c   17.78591191
_cell_angle_alpha   101.43119314
_cell_angle_beta   90.09196069
_cell_angle_gamma   105.94583068
_symmetry_Int_Tables_number   1
_chemical_formula_structural   MgNbTlBr4O
_chemical_formula_sum   'Mg8 Nb8 Tl8 Br32 O8'
_cell_volume   1886.75199332
_cell_formula_units_Z   8
loop_
 _symmetry_equiv_pos_site_id
 _symmetry_equiv_pos_as_xyz
  1  'x, y, z'
loop_
 _atom_site_type_symbol
 _atom_site_label
 _atom_site_symmetry_multiplicity
 _atom_site_fract_x
 _atom_site_fract_y
 _atom_site_fract_z
 _atom_site_occupancy
  Mg  Mg0_0  1  0.13463850  0.27289650  0.20258250  1
  Mg  Mg0_1  1  0.13463850  0.27289650  0.70258250  1
  Mg  Mg0_2  1  0.13463850  0.77289650  0.20258250  1
  Mg  Mg0_3  1  0.13463850  0.77289650  0.70258250  1
  Mg  Mg0_4  1  0.63463850  0.27289650  0.20258250  1
  Mg  Mg0_5  1  0.63463850  0.27289650  0.70258250  1
  Mg  Mg0_6  1  0.63463850  0.77289650  0.20258250  1
  Mg  Mg0_7  1  0.63463850  0.77289650  0.70258250  1
  Nb  Nb0_0  1  0.24673450  0.49251900  0.25448650  1
  Nb  Nb0_1  1  0.24673450  0.49251900  0.75448650  1
  Nb  Nb0_2  1  0.24673450  0.99251900  0.25448650  1
  Nb  Nb0_3  1  0.24673450  0.99251900  0.75448650  1
  Nb  Nb0_4  1  0.74673450  0.49251900  0.25448650  1
  Nb  Nb0_5  1  0.74673450  0.49251900  0.75448650  1
  Nb  Nb0_6  1  0.74673450  0.99251900  0.25448650  1
  Nb  Nb0_7  1  0.74673450  0.99251900  0.75448650  1
  Tl  Tl0_0  1  0.49735750  0.49308750  0.47928550  1
  Tl  Tl0_1  1  0.49735750  0.49308750  0.97928550  1
  Tl  Tl0_2  1  0.49735750  0.99308750  0.47928550  1
  Tl  Tl0_3  1  0.49735750  0.99308750  0.97928550  1
  Tl  Tl0_4  1  0.99735750  0.49308750  0.47928550  1
  Tl  Tl0_5  1  0.99735750  0.49308750  0.97928550  1
  Tl  Tl0_6  1  0.99735750  0.99308750  0.47928550  1
  Tl  Tl0_7  1  0.99735750  0.99308750  0.97928550  1
  Br  Br0_0  1  0.30727150  0.11601850  0.38886850  1
  Br  Br0_1  1  0.30727150  0.11601850  0.88886850  1
  Br  Br0_2  1  0.30727150  0.61601850  0.38886850  1
  Br  Br0_3  1  0.30727150  0.61601850  0.88886850  1
  Br  Br0_4  1  0.80727150  0.11601850  0.38886850  1
  Br  Br0_5  1  0.80727150  0.11601850  0.88886850  1
  Br  Br0_6  1  0.80727150  0.61601850  0.38886850  1
  Br  Br0_7  1  0.80727150  0.61601850  0.88886850  1
  Br  Br1_0  1  0.17695550  0.35463250  0.34506650  1
  Br  Br1_1  1  0.17695550  0.35463250  0.84506650  1
  Br  Br1_2  1  0.17695550  0.85463250  0.34506650  1
  Br  Br1_3  1  0.17695550  0.85463250  0.84506650  1
  Br  Br1_4  1  0.67695550  0.35463250  0.34506650  1
  Br  Br1_5  1  0.67695550  0.35463250  0.84506650  1
  Br  Br1_6  1  0.67695550  0.85463250  0.34506650  1
  Br  Br1_7  1  0.67695550  0.85463250  0.84506650  1
  Br  Br2_0  1  0.18694700  0.37592750  0.10067300  1
  Br  Br2_1  1  0.18694700  0.37592750  0.60067300  1
  Br  Br2_2  1  0.18694700  0.87592750  0.10067300  1
  Br  Br2_3  1  0.18694700  0.87592750  0.60067300  1
  Br  Br2_4  1  0.68694700  0.37592750  0.10067300  1
  Br  Br2_5  1  0.68694700  0.37592750  0.60067300  1
  Br  Br2_6  1  0.68694700  0.87592750  0.10067300  1
  Br  Br2_7  1  0.68694700  0.87592750  0.60067300  1
  Br  Br3_0  1  0.32254100  0.14833450  0.16857050  1
  Br  Br3_1  1  0.32254100  0.14833450  0.66857050  1
  Br  Br3_2  1  0.32254100  0.64833450  0.16857050  1
  Br  Br3_3  1  0.32254100  0.64833450  0.66857050  1
  Br  Br3_4  1  0.82254100  0.14833450  0.16857050  1
  Br  Br3_5  1  0.82254100  0.14833450  0.66857050  1
  Br  Br3_6  1  0.82254100  0.64833450  0.16857050  1
  Br  Br3_7  1  0.82254100  0.64833450  0.66857050  1
  O  O0_0  1  0.49387200  0.48825000  0.24380000  1
  O  O0_1  1  0.49387200  0.48825000  0.74380000  1
  O  O0_2  1  0.49387200  0.98825000  0.24380000  1
  O  O0_3  1  0.49387200  0.98825000  0.74380000  1
  O  O0_4  1  0.99387200  0.48825000  0.24380000  1
  O  O0_5  1  0.99387200  0.48825000  0.74380000  1
  O  O0_6  1  0.99387200  0.98825000  0.24380000  1
  O  O0_7  1  0.99387200  0.98825000  0.74380000  1
loop_
_geom_bond_atom_site_label_1
_geom_bond_atom_site_label_2
_geom_bond_distance
_geom_bond_site_symmetry_2
Mg0_0 Nb0_0 2.971735 1_555
Mg0_1 Nb0_1 2.971735 1_555
Mg0_2 Nb0_2 2.971735 1_555
Mg0_3 Nb0_3 2.971735 1_555
Mg0_4 Nb0_4 2.971735 1_555
Mg0_5 Nb0_5 2.971735 1_555
Mg0_6 Nb0_6 2.971735 1_555
Mg0_7 Nb0_7 2.971735 1_555
Nb0_0 O0_0 1.973394 1_555
Nb0_0 O0_4 1.984282 1_455
Nb0_1 O0_1 1.973394 1_555
Nb0_1 O0_5 1.984282 1_455
Nb0_2 O0_2 1.973394 1_555
Nb0_2 O0_6 1.984282 1_455
Nb0_3 O0_3 1.973394 1_555
Nb0_3 O0_7 1.984282 1_455
Nb0_4 O0_4 1.973394 1_555
Nb0_4 O0_0 1.984282 1_555
Nb0_5 O0_5 1.973394 1_555
Nb0_5 O0_1 1.984282 1_555
Nb0_6 O0_6 1.973394 1_555
Nb0_6 O0_2 1.984282 1_555
Nb0_7 O0_7 1.973394 1_555
Nb0_7 O0_3 1.984282 1_555
Tl0_0 Tl0_4 3.939968 1_455
Tl0_0 Tl0_4 3.939968 1_555
Tl0_1 Tl0_5 3.939968 1_455
Tl0_1 Tl0_5 3.939968 1_555
Tl0_2 Tl0_6 3.939968 1_455
Tl0_2 Tl0_6 3.939968 1_555
Tl0_3 Tl0_7 3.939968 1_555
Tl0_3 Tl0_7 3.939968 1_455
Br0_0 Nb0_2 2.630996 1_545
Br0_0 Tl0_6 3.227684 1_445
Br0_0 Tl0_2 3.238133 1_545
Br0_0 O0_6 3.424558 1_445
Br0_0 O0_2 3.432427 1_545
Br0_1 Nb0_3 2.630996 1_545
Br0_1 Tl0_7 3.227684 1_445
Br0_1 Tl0_3 3.238133 1_545
Br0_1 O0_7 3.424558 1_445
Br0_1 O0_3 3.432427 1_545
Br0_2 Nb0_0 2.630996 1_555
Br0_2 Tl0_4 3.227684 1_455
Br0_2 Tl0_0 3.238133 1_555
Br0_2 O0_4 3.424558 1_455
Br0_2 O0_0 3.432427 1_555
Br0_3 Nb0_1 2.630996 1_555
Br0_3 Tl0_5 3.227684 1_455
Br0_3 Tl0_1 3.238133 1_555
Br0_3 O0_5 3.424558 1_455
Br0_3 O0_1 3.432427 1_555
Br0_4 Nb0_6 2.630996 1_545
Br0_4 Tl0_2 3.227684 1_545
Br0_4 Tl0_6 3.238133 1_545
Br0_4 O0_2 3.424558 1_545
Br0_4 O0_6 3.432427 1_545
Br0_5 Nb0_7 2.630996 1_545
Br0_5 Tl0_3 3.227684 1_545
Br0_5 Tl0_7 3.238133 1_545
Br0_5 O0_3 3.424558 1_545
Br0_5 O0_7 3.432427 1_545
Br0_6 Nb0_4 2.630996 1_555
Br0_6 Tl0_0 3.227684 1_555
Br0_6 Tl0_4 3.238133 1_555
Br0_6 O0_0 3.424558 1_555
Br0_6 O0_4 3.432427 1_555
Br0_7 Nb0_5 2.630996 1_555
Br0_7 Tl0_1 3.227684 1_555
Br0_7 Tl0_5 3.238133 1_555
Br0_7 O0_1 3.424558 1_555
Br0_7 O0_5 3.432427 1_555
Br1_0 Mg0_0 2.551371 1_555
Br1_0 Nb0_0 2.730875 1_555
Br1_0 Tl0_4 3.362088 1_455
Br1_0 Tl0_0 3.369848 1_555
Br1_1 Mg0_1 2.551371 1_555
Br1_1 Nb0_1 2.730875 1_555
Br1_1 Tl0_5 3.362088 1_455
Br1_1 Tl0_1 3.369848 1_555
Br1_2 Mg0_2 2.551371 1_555
Br1_2 Nb0_2 2.730875 1_555
Br1_2 Tl0_6 3.362088 1_455
Br1_2 Tl0_2 3.369848 1_555
Br1_3 Mg0_3 2.551371 1_555
Br1_3 Nb0_3 2.730875 1_555
Br1_3 Tl0_7 3.362088 1_455
Br1_3 Tl0_3 3.369848 1_555
Br1_4 Mg0_4 2.551371 1_555
Br1_4 Nb0_4 2.730875 1_555
Br1_4 Tl0_0 3.362088 1_555
Br1_4 Tl0_4 3.369848 1_555
Br1_5 Mg0_5 2.551371 1_555
Br1_5 Nb0_5 2.730875 1_555
Br1_5 Tl0_1 3.362088 1_555
Br1_5 Tl0_5 3.369848 1_555
Br1_6 Mg0_6 2.551371 1_555
Br1_6 Nb0_6 2.730875 1_555
Br1_6 Tl0_2 3.362088 1_555
Br1_6 Tl0_6 3.369848 1_555
Br1_7 Mg0_7 2.551371 1_555
Br1_7 Nb0_7 2.730875 1_555
Br1_7 Tl0_3 3.362088 1_555
Br1_7 Tl0_7 3.369848 1_555
Br2_0 Mg0_0 2.521241 1_555
Br2_0 Nb0_0 2.871304 1_555
Br2_0 O0_4 3.333560 1_455
Br2_0 O0_0 3.336999 1_555
Br2_0 Tl0_5 3.536155 1_454
Br2_0 Tl0_1 3.557162 1_554
Br2_1 Mg0_1 2.521241 1_555
Br2_1 Nb0_1 2.871304 1_555
Br2_1 O0_5 3.333560 1_455
Br2_1 O0_1 3.336999 1_555
Br2_1 Tl0_4 3.536155 1_455
Br2_1 Tl0_0 3.557162 1_555
Br2_2 Mg0_2 2.521241 1_555
Br2_2 Nb0_2 2.871304 1_555
Br2_2 O0_6 3.333560 1_455
Br2_2 O0_2 3.336999 1_555
Br2_2 Tl0_7 3.536155 1_454
Br2_2 Tl0_3 3.557162 1_554
Br2_3 Mg0_3 2.521241 1_555
Br2_3 Nb0_3 2.871304 1_555
Br2_3 O0_7 3.333560 1_455
Br2_3 O0_3 3.336999 1_555
Br2_3 Tl0_6 3.536155 1_455
Br2_3 Tl0_2 3.557162 1_555
Br2_4 Mg0_4 2.521241 1_555
Br2_4 Nb0_4 2.871304 1_555
Br2_4 O0_0 3.333560 1_555
Br2_4 O0_4 3.336999 1_555
Br2_4 Tl0_1 3.536155 1_554
Br2_4 Tl0_5 3.557162 1_554
Br2_5 Mg0_5 2.521241 1_555
Br2_5 Nb0_5 2.871304 1_555
Br2_5 O0_1 3.333560 1_555
Br2_5 O0_5 3.336999 1_555
Br2_5 Tl0_0 3.536155 1_555
Br2_5 Tl0_4 3.557162 1_555
Br2_6 Mg0_6 2.521241 1_555
Br2_6 Nb0_6 2.871304 1_555
Br2_6 O0_2 3.333560 1_555
Br2_6 O0_6 3.336999 1_555
Br2_6 Tl0_3 3.536155 1_554
Br2_6 Tl0_7 3.557162 1_554
Br2_7 Mg0_7 2.521241 1_555
Br2_7 Nb0_7 2.871304 1_555
Br2_7 O0_3 3.333560 1_555
Br2_7 O0_7 3.336999 1_555
Br2_7 Tl0_2 3.536155 1_555
Br2_7 Tl0_6 3.557162 1_555
Br3_0 Mg0_4 2.598165 1_555
Br3_0 Mg0_0 2.600184 1_555
Br3_0 Nb0_2 2.878354 1_545
Br3_0 Tl0_7 4.088425 1_444
Br3_0 Tl0_3 4.110797 1_544
Br3_1 Mg0_5 2.598165 1_555
Br3_1 Mg0_1 2.600184 1_555
Br3_1 Nb0_3 2.878354 1_545
Br3_1 Tl0_6 4.088425 1_445
Br3_1 Tl0_2 4.110797 1_545
Br3_2 Mg0_6 2.598165 1_555
Br3_2 Mg0_2 2.600184 1_555
Br3_2 Nb0_0 2.878354 1_555
Br3_2 Tl0_5 4.088425 1_454
Br3_2 Tl0_1 4.110797 1_554
Br3_3 Mg0_7 2.598165 1_555
Br3_3 Mg0_3 2.600184 1_555
Br3_3 Nb0_1 2.878354 1_555
Br3_3 Tl0_4 4.088425 1_455
Br3_3 Tl0_0 4.110797 1_555
Br3_4 Mg0_0 2.598165 1_655
Br3_4 Mg0_4 2.600184 1_555
Br3_4 Nb0_6 2.878354 1_545
Br3_4 Tl0_3 4.088425 1_544
Br3_4 Tl0_7 4.110797 1_544
Br3_5 Mg0_1 2.598165 1_655
Br3_5 Mg0_5 2.600184 1_555
Br3_5 Nb0_7 2.878354 1_545
Br3_5 Tl0_2 4.088425 1_545
Br3_5 Tl0_6 4.110797 1_545
Br3_6 Mg0_2 2.598165 1_655
Br3_6 Mg0_6 2.600184 1_555
Br3_6 Nb0_4 2.878354 1_555
Br3_6 Tl0_1 4.088425 1_554
Br3_6 Tl0_5 4.110797 1_554
Br3_7 Mg0_3 2.598165 1_655
Br3_7 Mg0_7 2.600184 1_555
Br3_7 Nb0_5 2.878354 1_555
Br3_7 Tl0_0 4.088425 1_555
Br3_7 Tl0_4 4.110797 1_555
