# generated using pymatgen
data_NaAlZn(SO4)3
_symmetry_space_group_name_H-M   'P 1'
_cell_length_a   8.47326316
_cell_length_b   8.47326290
_cell_length_c   22.14983246
_cell_angle_alpha   90.00000000
_cell_angle_beta   90.00000000
_cell_angle_gamma   120.00000101
_symmetry_Int_Tables_number   1
_chemical_formula_structural   NaAlZn(SO4)3
_chemical_formula_sum   'Na6 Al6 Zn6 S18 O72'
_cell_volume   1377.21723557
_cell_formula_units_Z   6
loop_
 _symmetry_equiv_pos_site_id
 _symmetry_equiv_pos_as_xyz
  1  'x, y, z'
loop_
 _atom_site_type_symbol
 _atom_site_label
 _atom_site_symmetry_multiplicity
 _atom_site_fract_x
 _atom_site_fract_y
 _atom_site_fract_z
 _atom_site_occupancy
  Na  Na0  1  0.00000000  -0.00000000  0.49822586  1
  Na  Na1  1  0.00000000  -0.00000000  0.99822586  1
  Na  Na2  1  0.66666700  0.33333300  0.83155886  1
  Na  Na3  1  0.66666700  0.33333300  0.33155886  1
  Na  Na4  1  0.33333300  0.66666700  0.16489286  1
  Na  Na5  1  0.33333300  0.66666700  0.66489286  1
  Al  Al0  1  0.00000000  -0.00000000  0.64860747  1
  Al  Al1  1  0.00000000  -0.00000000  0.14860747  1
  Al  Al2  1  0.66666700  0.33333300  0.98194047  1
  Al  Al3  1  0.66666700  0.33333300  0.48194047  1
  Al  Al4  1  0.33333300  0.66666700  0.31527447  1
  Al  Al5  1  0.33333300  0.66666700  0.81527447  1
  Zn  Zn0  1  0.00000000  -0.00000000  0.35104797  1
  Zn  Zn1  1  0.00000000  -0.00000000  0.85104797  1
  Zn  Zn2  1  0.66666700  0.33333300  0.68438097  1
  Zn  Zn3  1  0.66666700  0.33333300  0.18438097  1
  Zn  Zn4  1  0.33333300  0.66666700  0.01771497  1
  Zn  Zn5  1  0.33333300  0.66666700  0.51771497  1
  S  S0  1  0.28899009  0.99477728  0.25032350  1
  S  S1  1  0.70578719  0.71100991  0.25032350  1
  S  S2  1  0.00522272  0.29421281  0.25032350  1
  S  S3  1  0.28899009  0.29421281  0.75032350  1
  S  S4  1  0.00522272  0.71100991  0.75032350  1
  S  S5  1  0.70578719  0.99477728  0.75032350  1
  S  S6  1  0.95565709  0.32811028  0.58365650  1
  S  S7  1  0.37245419  0.04434291  0.58365650  1
  S  S8  1  0.67188972  0.62754581  0.58365650  1
  S  S9  1  0.95565709  0.62754581  0.08365650  1
  S  S10  1  0.67188972  0.04434291  0.08365650  1
  S  S11  1  0.37245419  0.32811028  0.08365650  1
  S  S12  1  0.62232309  0.66144428  0.91699050  1
  S  S13  1  0.03912019  0.37767691  0.91699050  1
  S  S14  1  0.33855572  0.96087981  0.91699050  1
  S  S15  1  0.62232309  0.96087981  0.41699050  1
  S  S16  1  0.33855572  0.37767691  0.41699050  1
  S  S17  1  0.03912019  0.66144428  0.41699050  1
  O  O0  1  0.21332452  0.02675043  0.30494610  1
  O  O1  1  0.81342591  0.78667548  0.30494610  1
  O  O2  1  0.97324957  0.18657409  0.30494610  1
  O  O3  1  0.21332452  0.18657409  0.80494610  1
  O  O4  1  0.97324957  0.78667548  0.80494610  1
  O  O5  1  0.81342591  0.02675043  0.80494610  1
  O  O6  1  0.79108556  0.96418922  0.69533567  1
  O  O7  1  0.17310366  0.20891444  0.69533567  1
  O  O8  1  0.03581078  0.82689634  0.69533567  1
  O  O9  1  0.79108556  0.82689634  0.19533567  1
  O  O10  1  0.03581078  0.20891444  0.19533567  1
  O  O11  1  0.17310366  0.96418922  0.19533567  1
  O  O12  1  0.87999152  0.36008343  0.63827910  1
  O  O13  1  0.48009291  0.12000848  0.63827910  1
  O  O14  1  0.63991657  0.51990709  0.63827910  1
  O  O15  1  0.87999152  0.51990709  0.13827910  1
  O  O16  1  0.63991657  0.12000848  0.13827910  1
  O  O17  1  0.48009291  0.36008343  0.13827910  1
  O  O18  1  0.45775256  0.29752222  0.02866867  1
  O  O19  1  0.83977066  0.54224744  0.02866867  1
  O  O20  1  0.70247778  0.16022934  0.02866867  1
  O  O21  1  0.45775256  0.16022934  0.52866867  1
  O  O22  1  0.70247778  0.54224744  0.52866867  1
  O  O23  1  0.83977066  0.29752222  0.52866867  1
  O  O24  1  0.54665752  0.69341743  0.97161310  1
  O  O25  1  0.14675891  0.45334248  0.97161310  1
  O  O26  1  0.30658257  0.85324109  0.97161310  1
  O  O27  1  0.54665752  0.85324109  0.47161310  1
  O  O28  1  0.30658257  0.45334248  0.47161310  1
  O  O29  1  0.14675891  0.69341743  0.47161310  1
  O  O30  1  0.12441856  0.63085622  0.36200267  1
  O  O31  1  0.50643666  0.87558144  0.36200267  1
  O  O32  1  0.36914378  0.49356334  0.36200267  1
  O  O33  1  0.12441856  0.49356334  0.86200267  1
  O  O34  1  0.36914378  0.87558144  0.86200267  1
  O  O35  1  0.50643666  0.63085622  0.86200267  1
  O  O36  1  0.01505634  0.82040020  0.41002723  1
  O  O37  1  0.80534386  0.98494366  0.41002723  1
  O  O38  1  0.17959980  0.19465614  0.41002723  1
  O  O39  1  0.01505634  0.19465614  0.91002723  1
  O  O40  1  0.17959980  0.98494366  0.91002723  1
  O  O41  1  0.80534386  0.82040020  0.91002723  1
  O  O42  1  0.96843280  0.15780349  0.59007374  1
  O  O43  1  0.18937069  0.03156720  0.59007374  1
  O  O44  1  0.84219651  0.81062931  0.59007374  1
  O  O45  1  0.96843280  0.81062931  0.09007374  1
  O  O46  1  0.84219651  0.03156720  0.09007374  1
  O  O47  1  0.18937069  0.15780349  0.09007374  1
  O  O48  1  0.68172334  0.15373320  0.74336023  1
  O  O49  1  0.47201086  0.31827666  0.74336023  1
  O  O50  1  0.84626680  0.52798914  0.74336023  1
  O  O51  1  0.68172334  0.52798914  0.24336023  1
  O  O52  1  0.84626680  0.31827666  0.24336023  1
  O  O53  1  0.47201086  0.15373320  0.24336023  1
  O  O54  1  0.63509980  0.49113649  0.92340674  1
  O  O55  1  0.85603769  0.36490020  0.92340674  1
  O  O56  1  0.50886351  0.14396231  0.92340674  1
  O  O57  1  0.63509980  0.14396231  0.42340674  1
  O  O58  1  0.50886351  0.36490020  0.42340674  1
  O  O59  1  0.85603769  0.49113649  0.42340674  1
  O  O60  1  0.34838934  0.48706720  0.07669423  1
  O  O61  1  0.13867686  0.65161066  0.07669423  1
  O  O62  1  0.51293280  0.86132314  0.07669423  1
  O  O63  1  0.34838934  0.86132314  0.57669423  1
  O  O64  1  0.51293280  0.65161066  0.57669423  1
  O  O65  1  0.13867686  0.48706720  0.57669423  1
  O  O66  1  0.30176580  0.82447049  0.25674074  1
  O  O67  1  0.52270369  0.69823420  0.25674074  1
  O  O68  1  0.17552951  0.47729631  0.25674074  1
  O  O69  1  0.30176580  0.47729631  0.75674074  1
  O  O70  1  0.17552951  0.69823420  0.75674074  1
  O  O71  1  0.52270369  0.82447049  0.75674074  1
loop_
_geom_bond_atom_site_label_1
_geom_bond_atom_site_label_2
_geom_bond_distance
_geom_bond_site_symmetry_2
Na0 O38 2.518487 1_555
Na0 O36 2.518487 1_545
Na0 O37 2.518487 1_445
Na0 O44 2.521091 1_445
Na0 O42 2.521091 1_455
Na0 O43 2.521091 1_555
Na1 O39 2.518487 1_555
Na1 O41 2.518487 1_445
Na1 O40 2.518487 1_545
Na1 O45 2.521091 1_446
Na1 O47 2.521091 1_556
Na1 O46 2.521091 1_456
Na2 O50 2.518487 1_555
Na2 O48 2.518487 1_555
Na2 O49 2.518487 1_555
Na2 O56 2.521091 1_555
Na2 O54 2.521091 1_555
Na2 O55 2.521091 1_555
Na3 O51 2.518487 1_555
Na3 O53 2.518487 1_555
Na3 O52 2.518487 1_555
Na3 O57 2.521091 1_555
Na3 O59 2.521091 1_555
Na3 O58 2.521091 1_555
Na4 O62 2.518487 1_555
Na4 O60 2.518487 1_555
Na4 O61 2.518487 1_555
Na4 O68 2.521091 1_555
Na4 O66 2.521091 1_555
Na4 O67 2.521091 1_555
Na5 O63 2.518487 1_555
Na5 O65 2.518487 1_555
Na5 O64 2.518487 1_555
Na5 O69 2.521091 1_555
Na5 O71 2.521091 1_555
Na5 O70 2.521091 1_555
Al0 O7 1.939012 1_555
Al0 O8 1.939012 1_545
Al0 O6 1.939012 1_445
Al0 O44 1.974335 1_445
Al0 O42 1.974335 1_455
Al0 O43 1.974335 1_555
Al1 O10 1.939012 1_555
Al1 O9 1.939012 1_445
Al1 O11 1.939012 1_545
Al1 O45 1.974335 1_445
Al1 O47 1.974335 1_555
Al1 O46 1.974335 1_455
Al2 O19 1.939012 1_556
Al2 O20 1.939012 1_556
Al2 O18 1.939012 1_556
Al2 O56 1.974335 1_555
Al2 O54 1.974335 1_555
Al2 O55 1.974335 1_555
Al3 O22 1.939012 1_555
Al3 O21 1.939012 1_555
Al3 O23 1.939012 1_555
Al3 O57 1.974335 1_555
Al3 O59 1.974335 1_555
Al3 O58 1.974335 1_555
Al4 O31 1.939012 1_555
Al4 O32 1.939012 1_555
Al4 O30 1.939012 1_555
Al4 O68 1.974335 1_555
Al4 O66 1.974335 1_555
Al4 O67 1.974335 1_555
Al5 O34 1.939012 1_555
Al5 O33 1.939012 1_555
Al5 O35 1.939012 1_555
Al5 O69 1.974335 1_555
Al5 O71 1.974335 1_555
Al5 O70 1.974335 1_555
O0 S0 1.456694 1_545
O0 Zn0 1.987880 1_555
O1 S1 1.456694 1_555
O1 Zn0 1.987880 1_665
O2 S2 1.456694 1_655
O2 Zn0 1.987880 1_655
O3 S3 1.456694 1_555
O3 Zn1 1.987880 1_555
O4 S4 1.456694 1_655
O4 Zn1 1.987880 1_665
O5 S5 1.456694 1_545
O5 Zn1 1.987880 1_655
O6 S5 1.503439 1_555
O7 S3 1.503439 1_555
O8 S4 1.503439 1_555
O9 S1 1.503439 1_555
O10 S2 1.503439 1_555
O11 S0 1.503439 1_555
O12 S6 1.456694 1_555
O12 Zn2 1.987880 1_555
O13 S7 1.456694 1_555
O13 Zn2 1.987880 1_555
O14 S8 1.456694 1_555
O14 Zn2 1.987880 1_555
O15 S9 1.456694 1_555
O15 Zn3 1.987880 1_555
O16 S10 1.456694 1_555
O16 Zn3 1.987880 1_555
O17 S11 1.456694 1_555
O17 Zn3 1.987880 1_555
O18 S11 1.503439 1_555
O19 S9 1.503439 1_555
O20 S10 1.503439 1_555
O21 S7 1.503439 1_555
O22 S8 1.503439 1_555
O23 S6 1.503439 1_555
O24 S12 1.456694 1_555
O24 Zn4 1.987880 1_556
O25 S13 1.456694 1_555
O25 Zn4 1.987880 1_556
O26 S14 1.456694 1_555
O26 Zn4 1.987880 1_556
O27 S15 1.456694 1_555
O27 Zn5 1.987880 1_555
O28 S16 1.456694 1_555
O28 Zn5 1.987880 1_555
O29 S17 1.456694 1_555
O29 Zn5 1.987880 1_555
O30 S17 1.503439 1_555
O31 S15 1.503439 1_555
O32 S16 1.503439 1_555
O33 S13 1.503439 1_555
O34 S14 1.503439 1_555
O35 S12 1.503439 1_555
O36 S17 1.467673 1_555
O36 Zn0 2.057405 1_565
O37 S15 1.467681 1_555
O37 Zn0 2.057405 1_665
O38 S16 1.467678 1_555
O38 Zn0 2.057405 1_555
O39 S13 1.467681 1_555
O39 Zn1 2.057405 1_555
O40 S14 1.467673 1_555
O40 Zn1 2.057405 1_565
O41 S12 1.467678 1_555
O41 Zn1 2.057405 1_665
O42 S6 1.506832 1_555
O43 S7 1.506840 1_555
O44 S8 1.506836 1_555
O45 S9 1.506840 1_555
O46 S10 1.506832 1_555
O47 S11 1.506836 1_555
O48 S5 1.467673 1_545
O48 Zn2 2.057405 1_555
O49 S3 1.467681 1_555
O49 Zn2 2.057405 1_555
O50 S4 1.467678 1_655
O50 Zn2 2.057405 1_555
O51 S1 1.467681 1_555
O51 Zn3 2.057405 1_555
O52 S2 1.467673 1_655
O52 Zn3 2.057405 1_555
O53 S0 1.467678 1_545
O53 Zn3 2.057405 1_555
O54 S12 1.506843 1_555
O55 S13 1.506826 1_655
O56 S14 1.506833 1_545
O57 S15 1.506826 1_545
O58 S16 1.506843 1_555
O59 S17 1.506833 1_655
O60 S11 1.467684 1_555
O60 Zn4 2.057405 1_555
O61 S9 1.467667 1_455
O61 Zn4 2.057405 1_555
O62 S10 1.467674 1_565
O62 Zn4 2.057405 1_555
O63 S7 1.467667 1_565
O63 Zn5 2.057405 1_555
O64 S8 1.467684 1_555
O64 Zn5 2.057405 1_555
O65 S6 1.467674 1_455
O65 Zn5 2.057405 1_555
O66 S0 1.506832 1_555
O67 S1 1.506840 1_555
O68 S2 1.506836 1_555
O69 S3 1.506840 1_555
O70 S4 1.506832 1_555
O71 S5 1.506836 1_555
