# generated using pymatgen
data_Na7La2In2SiP5O24
_symmetry_space_group_name_H-M   'P 1'
_cell_length_a   9.45769604
_cell_length_b   9.42881211
_cell_length_c   22.92327801
_cell_angle_alpha   89.90722521
_cell_angle_beta   90.03290401
_cell_angle_gamma   119.92706868
_symmetry_Int_Tables_number   1
_chemical_formula_structural   Na7La2In2SiP5O24
_chemical_formula_sum   'Na21 La6 In6 Si3 P15 O72'
_cell_volume   1771.60867380
_cell_formula_units_Z   3
loop_
 _symmetry_equiv_pos_site_id
 _symmetry_equiv_pos_as_xyz
  1  'x, y, z'
loop_
 _atom_site_type_symbol
 _atom_site_label
 _atom_site_symmetry_multiplicity
 _atom_site_fract_x
 _atom_site_fract_y
 _atom_site_fract_z
 _atom_site_occupancy
  Na  Na0  1  0.36930809  0.37115498  0.25348625  1
  Na  Na1  1  0.00367093  0.63424710  0.24998337  1
  Na  Na2  1  0.63334932  0.65155817  0.75056086  1
  Na  Na3  1  0.99884647  0.36203240  0.75855150  1
  Na  Na4  1  0.35994327  0.98276392  0.75116004  1
  Na  Na5  1  0.30296844  0.33267480  0.57594127  1
  Na  Na6  1  0.04441280  0.69159734  0.57682208  1
  Na  Na7  1  0.64571615  0.96191205  0.58323221  1
  Na  Na8  1  0.30194939  0.96902683  0.08366456  1
  Na  Na9  1  0.68030573  0.69795981  0.08344094  1
  Na  Na10  1  0.03123895  0.34563298  0.08560758  1
  Na  Na11  1  0.96227371  0.66556564  0.92195285  1
  Na  Na12  1  0.70305820  0.03574644  0.91392284  1
  Na  Na13  1  0.96404943  0.29524560  0.41092731  1
  Na  Na14  1  0.32986084  0.03111521  0.41659217  1
  Na  Na15  1  0.98967620  0.98183898  0.49913169  1
  Na  Na16  1  0.01422039  0.00932586  0.00772328  1
  Na  Na17  1  0.65063566  0.32731169  0.83063922  1
  Na  Na18  1  0.66644952  0.33242490  0.33109270  1
  Na  Na19  1  0.34378704  0.68379960  0.16591746  1
  Na  Na20  1  0.34335359  0.68249635  0.66579407  1
  La  La0  1  0.01038304  0.01215016  0.85219536  1
  La  La1  1  0.00128270  0.00149423  0.65512552  1
  La  La2  1  0.66351687  0.32588208  0.67533041  1
  La  La3  1  0.66989459  0.32315720  0.18357114  1
  La  La4  1  0.65799034  0.33655493  0.98767231  1
  La  La5  1  0.66251518  0.34217661  0.47916803  1
  In  In0  1  0.98954188  0.99285200  0.35047205  1
  In  In1  1  0.99249682  0.99593522  0.15595378  1
  In  In2  1  0.33292178  0.66134468  0.01757479  1
  In  In3  1  0.34229824  0.67043094  0.50856722  1
  In  In4  1  0.34510832  0.67444843  0.31397511  1
  In  In5  1  0.33466624  0.66321364  0.82041722  1
  Si  Si0  1  0.67836406  0.99680462  0.75268185  1
  Si  Si1  1  0.34729789  0.00909605  0.57873610  1
  Si  Si2  1  0.98665809  0.65453768  0.08496202  1
  P  P0  1  0.28696948  0.99293312  0.25421717  1
  P  P1  1  0.69917976  0.70395954  0.25003574  1
  P  P2  1  0.01311718  0.30518463  0.25447619  1
  P  P3  1  0.31865319  0.32453845  0.74599352  1
  P  P4  1  0.00328452  0.68117432  0.75355244  1
  P  P5  1  0.98887332  0.34051970  0.57780287  1
  P  P6  1  0.65955836  0.64895706  0.58555459  1
  P  P7  1  0.66938195  0.01474087  0.07855082  1
  P  P8  1  0.34600783  0.33143409  0.09117654  1
  P  P9  1  0.62964712  0.66734260  0.91763847  1
  P  P10  1  0.03343874  0.37390642  0.91991799  1
  P  P11  1  0.33616072  0.95659000  0.91906666  1
  P  P12  1  0.63688564  0.96117260  0.41474575  1
  P  P13  1  0.31709137  0.35935993  0.41042018  1
  P  P14  1  0.04799528  0.67607181  0.41057739  1
  O  O0  1  0.20281155  0.01054866  0.30968828  1
  O  O1  1  0.81032976  0.79574381  0.30156133  1
  O  O2  1  0.99894819  0.20800296  0.31049877  1
  O  O3  1  0.22441079  0.19547027  0.79417276  1
  O  O4  1  0.98536364  0.77149463  0.80705090  1
  O  O5  1  0.79789029  0.02060714  0.80860264  1
  O  O6  1  0.76565448  0.98180261  0.69280684  1
  O  O7  1  0.23478182  0.25598506  0.68667145  1
  O  O8  1  0.02626932  0.78248983  0.69746567  1
  O  O9  1  0.77173498  0.79202710  0.19124080  1
  O  O10  1  0.01653648  0.21277195  0.19898495  1
  O  O11  1  0.18332995  0.97307073  0.19902819  1
  O  O12  1  0.91633587  0.36611443  0.63464741  1
  O  O13  1  0.44961265  0.08999462  0.63936015  1
  O  O14  1  0.64500649  0.56764831  0.64528459  1
  O  O15  1  0.89703261  0.52938687  0.14035598  1
  O  O16  1  0.62412462  0.09872730  0.12733814  1
  O  O17  1  0.44967589  0.36054168  0.14671003  1
  O  O18  1  0.42486500  0.28778673  0.04040581  1
  O  O19  1  0.86764534  0.57244964  0.02769284  1
  O  O20  1  0.69845071  0.11281440  0.02164932  1
  O  O21  1  0.44254757  0.13365335  0.52395546  1
  O  O22  1  0.69241067  0.55212388  0.53817174  1
  O  O23  1  0.87632726  0.32149077  0.52552296  1
  O  O24  1  0.53269361  0.65795443  0.97349151  1
  O  O25  1  0.12397526  0.46383007  0.97616389  1
  O  O26  1  0.33955522  0.86508115  0.97481484  1
  O  O27  1  0.56374682  0.87429571  0.47354076  1
  O  O28  1  0.31448010  0.45031229  0.46667563  1
  O  O29  1  0.14970147  0.69473327  0.46631570  1
  O  O30  1  0.13584805  0.66227855  0.35538070  1
  O  O31  1  0.52491475  0.86785393  0.36335277  1
  O  O32  1  0.32948018  0.45835618  0.35488976  1
  O  O33  1  0.12664038  0.46024015  0.86313699  1
  O  O34  1  0.33593732  0.86645926  0.86262875  1
  O  O35  1  0.54128112  0.66613274  0.86082330  1
  O  O36  1  0.03207984  0.83336980  0.41072017  1
  O  O37  1  0.81336366  0.98638733  0.41190170  1
  O  O38  1  0.15414398  0.18957257  0.41325067  1
  O  O39  1  -0.00032312  0.19545889  0.92338026  1
  O  O40  1  0.17800996  0.96746623  0.92283818  1
  O  O41  1  0.79852710  0.82893991  0.92190073  1
  O  O42  1  0.00647904  0.18645484  0.57960816  1
  O  O43  1  0.16031663  0.97881450  0.57999401  1
  O  O44  1  0.80109480  0.82742569  0.58235503  1
  O  O45  1  0.00691164  0.83873118  0.09107011  1
  O  O46  1  0.82923400  0.01073717  0.09035240  1
  O  O47  1  0.16767151  0.18592958  0.09537836  1
  O  O48  1  0.65166575  0.15629971  0.75224047  1
  O  O49  1  0.49676751  0.36153489  0.74838674  1
  O  O50  1  0.85085383  0.50900282  0.75129731  1
  O  O51  1  0.68221795  0.53017553  0.25087912  1
  O  O52  1  0.86917096  0.34075761  0.25441681  1
  O  O53  1  0.45627297  0.15047640  0.25206095  1
  O  O54  1  0.66322168  0.52220436  0.91485878  1
  O  O55  1  0.86576099  0.36864610  0.91646868  1
  O  O56  1  0.49259206  0.12762695  0.91641694  1
  O  O57  1  0.65598714  0.13583963  0.41293556  1
  O  O58  1  0.45996416  0.32308286  0.40909147  1
  O  O59  1  0.87937555  0.51815424  0.41137796  1
  O  O60  1  0.33646007  0.48967651  0.08166668  1
  O  O61  1  0.17223788  0.67703560  0.08116659  1
  O  O62  1  0.52617573  0.83438623  0.07697584  1
  O  O63  1  0.33973299  0.83086012  0.57396721  1
  O  O64  1  0.49463599  0.64480877  0.57552529  1
  O  O65  1  0.16156455  0.49405302  0.57138953  1
  O  O66  1  0.30300149  0.83547257  0.25414290  1
  O  O67  1  0.52160518  0.67715246  0.25315709  1
  O  O68  1  0.17588914  0.47619366  0.25170304  1
  O  O69  1  0.31550418  0.48591104  0.75512898  1
  O  O70  1  0.15689669  0.66127075  0.75716462  1
  O  O71  1  0.49766567  0.82838778  0.75514256  1
loop_
_geom_bond_atom_site_label_1
_geom_bond_atom_site_label_2
_geom_bond_distance
_geom_bond_site_symmetry_2
Na0 O68 2.477171 1_555
Na0 O67 2.500484 1_555
Na0 O32 2.556840 1_555
Na0 O51 2.565584 1_555
Na0 O17 2.580238 1_555
Na0 O53 2.591308 1_555
Na0 O10 3.154741 1_555
Na0 O0 3.216509 1_555
Na1 O52 2.402720 1_455
Na1 O66 2.502838 1_555
Na1 O30 2.671856 1_555
Na1 O51 2.688769 1_455
Na1 O68 2.701307 1_555
Na1 O15 2.705579 1_455
Na1 O11 3.005245 1_555
Na1 O1 3.137962 1_455
Na2 O49 2.371660 1_555
Na2 O14 2.560378 1_555
Na2 O71 2.563826 1_555
Na2 O69 2.608067 1_555
Na2 O35 2.699775 1_555
Na2 O50 2.966036 1_555
Na2 O6 3.019131 1_555
Na2 O4 3.206674 1_555
Na3 O50 2.416890 1_555
Na3 O70 2.446963 1_655
Na3 O69 2.617098 1_655
Na3 O33 2.636878 1_655
Na3 O48 2.865371 1_555
Na3 O12 2.950381 1_555
Na3 O5 3.029469 1_555
Na3 O7 3.306023 1_655
Na3 O3 3.319793 1_655
Na4 O71 2.390578 1_555
Na4 O48 2.405345 1_565
Na4 O70 2.661973 1_555
Na4 O13 2.729112 1_565
Na4 O34 2.743441 1_555
Na4 O8 3.016095 1_555
Na4 O3 3.034886 1_565
Na4 O49 3.133889 1_565
Na5 O42 2.431727 1_555
Na5 O65 2.478800 1_555
Na5 O64 2.573787 1_555
Na5 O7 2.629136 1_555
Na5 O28 2.717833 1_555
Na5 O43 2.910086 1_545
Na5 O21 3.027367 1_555
Na5 O14 3.279352 1_555
Na5 O22 3.315218 1_555
Na6 O43 2.362055 1_555
Na6 O63 2.422830 1_555
Na6 O65 2.602413 1_555
Na6 O29 2.717110 1_555
Na6 O8 2.926963 1_555
Na6 O12 2.986981 1_455
Na6 O22 3.038009 1_455
Na6 O44 3.145389 1_455
Na7 O44 2.372189 1_555
Na7 O63 2.525619 1_555
Na7 O64 2.598284 1_555
Na7 O27 2.640375 1_555
Na7 O6 2.723430 1_555
Na7 O13 2.965878 1_565
Na7 O42 2.987121 1_665
Na7 O23 3.257650 1_565
Na8 O61 2.391316 1_555
Na8 O45 2.429748 1_555
Na8 O26 2.769440 1_554
Na8 O18 2.805956 1_565
Na8 O16 2.839831 1_565
Na8 O11 2.880955 1_555
Na8 O47 2.908807 1_565
Na8 O62 2.969783 1_555
Na9 O62 2.381529 1_555
Na9 O46 2.561808 1_565
Na9 O9 2.623022 1_555
Na9 O45 2.691297 1_655
Na9 O24 2.813772 1_554
Na9 O60 2.839291 1_555
Na9 O19 2.876194 1_555
Na9 O17 3.169761 1_555
Na10 O47 2.433086 1_555
Na10 O60 2.504734 1_555
Na10 O25 2.706207 1_554
Na10 O61 2.719194 1_555
Na10 O46 2.759062 1_455
Na10 O10 2.856468 1_555
Na10 O15 2.896744 1_455
Na10 O20 3.160033 1_455
Na11 O54 2.457357 1_555
Na11 O55 2.477487 1_555
Na11 O40 2.543885 1_655
Na11 O19 2.580446 1_556
Na11 O41 2.674250 1_555
Na11 O4 2.785203 1_555
Na11 O25 3.223961 1_655
Na11 O33 3.316037 1_655
Na11 O26 3.323273 1_655
Na12 O39 2.443305 1_655
Na12 O41 2.531081 1_545
Na12 O56 2.537105 1_555
Na12 O20 2.581786 1_556
Na12 O5 2.604786 1_555
Na12 O55 2.721170 1_555
Na12 O34 3.233799 1_545
Na12 O35 3.264832 1_545
Na12 O26 3.291693 1_545
Na12 O24 3.377789 1_545
Na13 O38 2.452546 1_655
Na13 O2 2.522581 1_555
Na13 O37 2.524078 1_545
Na13 O57 2.525958 1_555
Na13 O59 2.595830 1_555
Na13 O23 2.803509 1_555
Na13 O28 3.149810 1_655
Na13 O30 3.258100 1_655
Na14 O58 2.396024 1_555
Na14 O36 2.487384 1_545
Na14 O21 2.665379 1_555
Na14 O0 2.693041 1_555
Na14 O57 2.730697 1_555
Na14 O38 2.734390 1_555
Na14 O29 2.976619 1_545
Na14 O31 3.178735 1_545
Na15 O43 2.466502 1_655
Na15 O44 2.518772 1_555
Na15 O36 2.607346 1_655
Na15 O37 2.616881 1_555
Na15 O42 2.618376 1_665
Na15 O38 2.661333 1_665
Na16 O45 2.474197 1_545
Na16 O47 2.551990 1_555
Na16 O46 2.583783 1_455
Na16 O40 2.637748 1_544
Na16 O39 2.658321 1_554
Na16 O41 2.732931 1_444
Na17 O48 2.419691 1_555
Na17 O49 2.498072 1_555
Na17 O50 2.566228 1_555
Na17 O56 2.613198 1_555
Na17 O54 2.628898 1_555
Na17 O55 2.714620 1_555
Na18 O51 2.567409 1_555
Na18 O52 2.573835 1_555
Na18 O57 2.602156 1_555
Na18 O53 2.603816 1_555
Na18 O58 2.617297 1_555
Na18 O59 2.645099 1_555
Na19 O61 2.510841 1_555
Na19 O62 2.588286 1_555
Na19 O66 2.616261 1_555
Na19 O67 2.632942 1_555
Na19 O60 2.640011 1_555
Na19 O68 2.666448 1_555
Na20 O71 2.493930 1_555
Na20 O63 2.535185 1_555
Na20 O64 2.639758 1_555
Na20 O70 2.680959 1_555
Na20 O69 2.683274 1_555
Na20 O65 2.785003 1_555
La0 O5 2.280598 1_455
La0 O3 2.314891 1_555
La0 O4 2.397353 1_445
La0 O39 2.417489 1_555
La0 O40 2.444287 1_545
La0 O41 2.468425 1_445
La1 O6 2.309901 1_445
La1 O43 2.366286 1_545
La1 O8 2.396255 1_545
La1 O7 2.423638 1_555
La1 O42 2.438306 1_555
La1 O44 2.442485 1_445
La2 O13 2.287751 1_555
La2 O48 2.343030 1_555
La2 O12 2.413977 1_555
La2 O49 2.436918 1_555
La2 O14 2.468689 1_555
La2 O50 2.471165 1_555
La3 O15 2.281545 1_555
La3 O16 2.328331 1_555
La3 O52 2.429469 1_555
La3 O17 2.430161 1_555
La3 O53 2.431231 1_555
La3 O51 2.446792 1_555
La4 O19 2.307466 1_556
La4 O18 2.350239 1_556
La4 O54 2.399319 1_555
La4 O56 2.434833 1_555
La4 O20 2.450169 1_556
La4 O55 2.454763 1_555
La5 O21 2.272082 1_555
La5 O22 2.297336 1_555
La5 O23 2.376288 1_555
La5 O58 2.436379 1_555
La5 O59 2.444226 1_555
La5 O57 2.446133 1_555
In0 O1 2.108404 1_555
In0 O0 2.153176 1_665
In0 O37 2.159650 1_555
In0 O2 2.185600 1_565
In0 O36 2.219620 1_655
In0 O38 2.249403 1_665
In1 O45 2.153334 1_655
In1 O11 2.159723 1_655
In1 O9 2.168318 1_555
In1 O10 2.178807 1_665
In1 O46 2.208344 1_565
In1 O47 2.217065 1_665
In2 O26 2.128065 1_554
In2 O25 2.146161 1_554
In2 O24 2.157434 1_554
In2 O61 2.164241 1_555
In2 O60 2.196793 1_555
In2 O62 2.210344 1_555
In3 O63 2.140156 1_555
In3 O27 2.169330 1_555
In3 O29 2.173073 1_555
In3 O28 2.181795 1_555
In3 O64 2.198554 1_555
In3 O65 2.218111 1_555
In4 O31 2.099702 1_555
In4 O30 2.146201 1_555
In4 O67 2.165826 1_555
In4 O32 2.178614 1_555
In4 O66 2.222790 1_555
In4 O68 2.261481 1_555
In5 O34 2.142873 1_555
In5 O35 2.149773 1_555
In5 O71 2.154175 1_555
In5 O33 2.175225 1_555
In5 O69 2.184711 1_555
In5 O70 2.212691 1_555
O0 P0 1.552990 1_545
O1 P1 1.530765 1_555
O2 P2 1.542941 1_655
O3 P3 1.552310 1_555
O4 P4 1.550991 1_655
O5 Si0 1.648523 1_545
O6 Si0 1.644342 1_555
O7 P3 1.544746 1_555
O8 P4 1.549829 1_555
O9 P1 1.551056 1_555
O10 P2 1.552457 1_555
O11 P0 1.553234 1_555
O12 P5 1.547288 1_555
O13 Si1 1.647688 1_555
O14 P6 1.540439 1_555
O15 Si2 1.649766 1_555
O16 P7 1.550054 1_555
O17 P8 1.545440 1_555
O18 P8 1.545607 1_555
O19 Si2 1.649777 1_555
O20 P7 1.541072 1_555
O21 Si1 1.645780 1_555
O22 P6 1.548086 1_555
O23 P5 1.552448 1_555
O24 P9 1.551739 1_555
O25 P10 1.546722 1_555
O26 P11 1.550038 1_555
O27 P12 1.548580 1_555
O28 P13 1.556841 1_555
O29 P14 1.555375 1_555
O30 P14 1.554928 1_555
O31 P12 1.534846 1_555
O32 P13 1.546792 1_555
O33 P10 1.554265 1_555
O34 P11 1.548464 1_555
O35 P9 1.544051 1_555
O36 P14 1.563689 1_555
O37 P12 1.565478 1_555
O38 P13 1.574850 1_555
O39 P10 1.550082 1_555
O40 P11 1.551922 1_555
O41 P9 1.566606 1_555
O42 P5 1.542974 1_455
O43 Si1 1.644951 1_565
O44 P6 1.543059 1_555
O45 Si2 1.655697 1_455
O46 P7 1.554571 1_555
O47 P8 1.557935 1_555
O48 Si0 1.644464 1_545
O49 P3 1.541438 1_555
O50 P4 1.543169 1_655
O51 P1 1.564820 1_555
O52 P2 1.556126 1_655
O53 P0 1.549023 1_545
O54 P9 1.552908 1_555
O55 P10 1.563651 1_655
O56 P11 1.553190 1_545
O57 P12 1.565109 1_545
O58 P13 1.550823 1_555
O59 P14 1.546369 1_655
O60 P8 1.554095 1_555
O61 Si2 1.661855 1_455
O62 P7 1.558695 1_565
O63 Si1 1.649831 1_565
O64 P6 1.557582 1_555
O65 P5 1.557318 1_455
O66 P0 1.565839 1_555
O67 P1 1.570372 1_555
O68 P2 1.580140 1_555
O69 P3 1.551166 1_555
O70 P4 1.557116 1_555
O71 Si0 1.654527 1_555
