# generated using pymatgen
data_Sr2Mg(Cu2O3)2
_symmetry_space_group_name_H-M   'P 1'
_cell_length_a   3.31189952
_cell_length_b   3.94477093
_cell_length_c   13.18215694
_cell_angle_alpha   98.50540005
_cell_angle_beta   90.07022218
_cell_angle_gamma   89.98145129
_symmetry_Int_Tables_number   1
_chemical_formula_structural   Sr2Mg(Cu2O3)2
_chemical_formula_sum   'Sr2 Mg1 Cu4 O6'
_cell_volume   170.32650141
_cell_formula_units_Z   1
loop_
 _symmetry_equiv_pos_site_id
 _symmetry_equiv_pos_as_xyz
  1  'x, y, z'
loop_
 _atom_site_type_symbol
 _atom_site_label
 _atom_site_symmetry_multiplicity
 _atom_site_fract_x
 _atom_site_fract_y
 _atom_site_fract_z
 _atom_site_occupancy
  Sr  Sr0  1  0.49259271  0.85599034  0.72250300  1
  Sr  Sr1  1  0.50740729  0.14400966  0.27749700  1
  Mg  Mg0  1  0.50000000  0.00000000  -0.00000000  1
  Cu  Cu0  1  0.00504735  0.56159427  0.11243743  1
  Cu  Cu1  1  0.99495265  0.43840573  0.88756257  1
  Cu  Cu2  1  0.00579574  0.71364578  0.42358128  1
  Cu  Cu3  1  0.99420426  0.28635422  0.57641872  1
  O  O0  1  0.99102437  0.35645569  0.72388918  1
  O  O1  1  0.00897563  0.64354431  0.27611082  1
  O  O2  1  0.99378550  0.78363995  0.57061594  1
  O  O3  1  0.99834933  0.94191123  0.89530921  1
  O  O4  1  0.00165067  0.05808877  0.10469079  1
  O  O5  1  0.00621450  0.21636005  0.42938406  1
loop_
_geom_bond_atom_site_label_1
_geom_bond_atom_site_label_2
_geom_bond_distance
_geom_bond_site_symmetry_2
Mg0 O4 2.143114 1_555
Mg0 O3 2.143114 1_544
Mg0 O4 2.149054 1_655
Mg0 O3 2.149054 1_444
Cu0 O4 1.973731 1_555
Cu0 O4 1.976271 1_565
Cu0 O1 2.133867 1_555
Cu1 O3 1.973731 1_555
Cu1 O3 1.976271 1_545
Cu1 O0 2.133867 1_555
Cu2 O2 1.917406 1_455
Cu2 O1 1.922672 1_555
Cu2 O5 1.973231 1_565
Cu2 O5 1.974442 1_555
Cu3 O5 1.917406 1_655
Cu3 O0 1.922672 1_555
Cu3 O2 1.973231 1_545
Cu3 O2 1.974442 1_555
O0 Sr0 2.571817 1_545
O0 Sr0 2.572327 1_555
O0 Sr0 2.577705 1_645
O0 Sr0 2.579854 1_655
O1 Sr1 2.571817 1_565
O1 Sr1 2.572327 1_555
O1 Sr1 2.577705 1_465
O1 Sr1 2.579854 1_455
O2 Sr0 2.577309 1_655
O2 Sr0 2.585407 1_555
O3 Sr0 2.786352 1_655
O3 Sr0 2.805758 1_555
O4 Sr1 2.786352 1_455
O4 Sr1 2.805758 1_555
O5 Sr1 2.577309 1_455
O5 Sr1 2.585407 1_555
