# generated using pymatgen
data_Th2Se5
_symmetry_space_group_name_H-M   'P 1'
_cell_length_a   8.01172825
_cell_length_b   8.02083495
_cell_length_c   10.74219315
_cell_angle_alpha   90.00000000
_cell_angle_beta   90.00000000
_cell_angle_gamma   90.00000000
_symmetry_Int_Tables_number   1
_chemical_formula_structural   Th2Se5
_chemical_formula_sum   'Th8 Se20'
_cell_volume   690.30138801
_cell_formula_units_Z   4
loop_
 _symmetry_equiv_pos_site_id
 _symmetry_equiv_pos_as_xyz
  1  'x, y, z'
loop_
 _atom_site_type_symbol
 _atom_site_label
 _atom_site_symmetry_multiplicity
 _atom_site_fract_x
 _atom_site_fract_y
 _atom_site_fract_z
 _atom_site_occupancy
  Th  Th0  1  0.25888775  0.50985657  0.14696584  1
  Th  Th1  1  0.75888775  0.49014343  0.35303416  1
  Th  Th2  1  0.24111225  0.00985657  0.35303416  1
  Th  Th3  1  0.74111225  0.99014343  0.14696584  1
  Th  Th4  1  0.74111225  0.49014343  0.85303416  1
  Th  Th5  1  0.24111225  0.50985657  0.64696584  1
  Th  Th6  1  0.75888775  0.99014343  0.64696584  1
  Th  Th7  1  0.25888775  0.00985657  0.85303416  1
  Se  Se0  1  0.50000000  0.75000000  0.75014568  1
  Se  Se1  1  -0.00000000  0.25000000  0.74985432  1
  Se  Se2  1  0.50000000  0.25000000  0.24985432  1
  Se  Se3  1  -0.00000000  0.75000000  0.25014568  1
  Se  Se4  1  0.11270348  0.63762582  0.89693446  1
  Se  Se5  1  0.61270348  0.36237418  0.60306554  1
  Se  Se6  1  0.38729652  0.13762582  0.60306554  1
  Se  Se7  1  0.88729652  0.86237418  0.89693446  1
  Se  Se8  1  0.63035274  0.61902325  0.10651935  1
  Se  Se9  1  0.13035274  0.38097675  0.39348065  1
  Se  Se10  1  0.86964726  0.11902325  0.39348065  1
  Se  Se11  1  0.36964726  0.88097675  0.10651935  1
  Se  Se12  1  0.36964726  0.38097675  0.89348065  1
  Se  Se13  1  0.86964726  0.61902325  0.60651935  1
  Se  Se14  1  0.13035274  0.88097675  0.60651935  1
  Se  Se15  1  0.63035274  0.11902325  0.89348065  1
  Se  Se16  1  0.11270348  0.13762582  0.10306554  1
  Se  Se17  1  0.61270348  0.86237418  0.39693446  1
  Se  Se18  1  0.38729652  0.63762582  0.39693446  1
  Se  Se19  1  0.88729652  0.36237418  0.10306554  1
loop_
_geom_bond_atom_site_label_1
_geom_bond_atom_site_label_2
_geom_bond_distance
_geom_bond_site_symmetry_2
Se0 Th5 3.039837 1_555
Se0 Th6 3.039837 1_555
Se0 Th7 3.049148 1_565
Se0 Th4 3.049148 1_555
Se0 Se15 3.496041 1_565
Se0 Se12 3.496041 1_555
Se0 Se13 3.500661 1_555
Se0 Se14 3.500661 1_555
Se0 Se4 3.595398 1_555
Se0 Se7 3.595398 1_555
Se0 Se5 3.602499 1_555
Se0 Se6 3.602499 1_565
Se1 Th4 3.039837 1_455
Se1 Th7 3.039837 1_555
Se1 Th6 3.049148 1_445
Se1 Th5 3.049148 1_555
Se1 Se14 3.496041 1_545
Se1 Se13 3.496041 1_455
Se1 Se15 3.500661 1_455
Se1 Se12 3.500661 1_555
Se1 Se5 3.595398 1_455
Se1 Se6 3.595398 1_555
Se1 Se4 3.602499 1_555
Se1 Se7 3.602499 1_445
Se2 Th1 3.039837 1_555
Se2 Th2 3.039837 1_555
Se2 Th3 3.049148 1_545
Se2 Th0 3.049148 1_555
Se2 Se8 3.496041 1_555
Se2 Se9 3.500661 1_555
Se3 Th0 3.039837 1_555
Se3 Th3 3.039837 1_455
Se3 Th2 3.049148 1_565
Se3 Th1 3.049148 1_455
Se3 Se9 3.496041 1_555
Se3 Se8 3.500661 1_455
Se4 Se7 2.551644 1_455
Se4 Th5 3.052702 1_555
Se4 Th0 3.104176 1_556
Se4 Th4 3.238020 1_455
Se4 Th7 3.241588 1_565
Se5 Se6 2.551644 1_555
Se5 Th4 3.052702 1_555
Se5 Th1 3.104176 1_555
Se5 Th5 3.238020 1_555
Se5 Th6 3.241588 1_545
Se6 Th7 3.052702 1_555
Se6 Th2 3.104176 1_555
Se6 Th6 3.238020 1_545
Se6 Th5 3.241588 1_555
Se6 Se9 3.621646 1_555
Se7 Th6 3.052702 1_555
Se7 Th3 3.104176 1_556
Se7 Th7 3.238020 1_665
Se7 Th4 3.241588 1_555
Se7 Se8 3.621646 1_556
Se8 Th1 3.023497 1_555
Se8 Th4 3.044779 1_554
Se8 Th0 3.132491 1_555
Se8 Th3 3.136386 1_555
Se9 Th0 3.023497 1_555
Se9 Th5 3.044779 1_555
Se9 Th1 3.132491 1_455
Se9 Th2 3.136386 1_555
Se10 Se17 2.911468 1_545
Se10 Se9 2.962640 1_655
Se10 Th3 3.023497 1_545
Se10 Th6 3.044779 1_545
Se10 Th2 3.132491 1_655
Se10 Th1 3.136386 1_555
Se10 Se3 3.496041 1_645
Se10 Se2 3.500661 1_555
Se10 Se5 3.621646 1_555
Se10 Se14 3.639432 1_645
Se11 Se16 2.911468 1_565
Se11 Se8 2.962640 1_555
Se11 Th2 3.023497 1_565
Se11 Th7 3.044779 1_564
Se11 Th3 3.132491 1_555
Se11 Th0 3.136386 1_555
Se11 Se2 3.496041 1_565
Se11 Se3 3.500661 1_555
Se11 Se4 3.621646 1_554
Se11 Se15 3.639432 1_564
Se12 Se4 2.911468 1_555
Se12 Se15 2.962640 1_555
Se12 Th5 3.023497 1_555
Se12 Th0 3.044779 1_556
Se12 Th4 3.132491 1_555
Se12 Th7 3.136386 1_555
Se12 Se16 3.621646 1_556
Se12 Se8 3.639432 1_556
Se13 Se5 2.911468 1_555
Se13 Se14 2.962640 1_655
Se13 Th4 3.023497 1_555
Se13 Th1 3.044779 1_555
Se13 Th5 3.132491 1_655
Se13 Th6 3.136386 1_555
Se13 Se17 3.621646 1_555
Se13 Se9 3.639432 1_655
Se14 Se6 2.911468 1_565
Se14 Th7 3.023497 1_565
Se14 Th2 3.044779 1_565
Se14 Th6 3.132491 1_455
Se14 Th5 3.136386 1_555
Se14 Se18 3.621646 1_555
Se15 Se7 2.911468 1_545
Se15 Th6 3.023497 1_545
Se15 Th3 3.044779 1_546
Se15 Th7 3.132491 1_555
Se15 Th4 3.136386 1_555
Se15 Se19 3.621646 1_556
Se16 Se19 2.551644 1_455
Se16 Th2 3.052702 1_555
Se16 Th7 3.104176 1_554
Se16 Th3 3.238020 1_445
Se16 Th0 3.241588 1_555
Se16 Se2 3.595398 1_555
Se16 Se3 3.602499 1_545
Se17 Se18 2.551644 1_555
Se17 Th3 3.052702 1_555
Se17 Th6 3.104176 1_555
Se17 Th2 3.238020 1_565
Se17 Th1 3.241588 1_555
Se17 Se3 3.595398 1_655
Se17 Se2 3.602499 1_565
Se18 Se9 2.911468 1_555
Se18 Th0 3.052702 1_555
Se18 Th5 3.104176 1_555
Se18 Th1 3.238020 1_555
Se18 Th2 3.241588 1_565
Se18 Se3 3.595398 1_555
Se18 Se2 3.602499 1_555
Se19 Se8 2.911468 1_555
Se19 Th1 3.052702 1_555
Se19 Th4 3.104176 1_554
Se19 Th0 3.238020 1_655
Se19 Th3 3.241588 1_545
Se19 Se2 3.595398 1_555
Se19 Se3 3.602499 1_655
