# generated using pymatgen
data_MgCo2(MoO4)2
_symmetry_space_group_name_H-M   'P 1'
_cell_length_a   4.99779595
_cell_length_b   5.15526750
_cell_length_c   5.69182340
_cell_angle_alpha   93.31218379
_cell_angle_beta   87.10850592
_cell_angle_gamma   91.76003642
_symmetry_Int_Tables_number   1
_chemical_formula_structural   MgCo2(MoO4)2
_chemical_formula_sum   'Mg1 Co2 Mo2 O8'
_cell_volume   146.16148024
_cell_formula_units_Z   1
loop_
 _symmetry_equiv_pos_site_id
 _symmetry_equiv_pos_as_xyz
  1  'x, y, z'
loop_
 _atom_site_type_symbol
 _atom_site_label
 _atom_site_symmetry_multiplicity
 _atom_site_fract_x
 _atom_site_fract_y
 _atom_site_fract_z
 _atom_site_occupancy
  Mg  Mg0  1  0.53153800  0.05845700  0.99147500  1
  Co  Co0  1  0.47363300  0.26565100  0.60561200  1
  Co  Co1  1  0.52335800  0.74223300  0.36546900  1
  Mo  Mo0  1  0.02100600  0.27569200  0.16625200  1
  Mo  Mo1  1  0.99033900  0.72565600  0.82541300  1
  O  O0  1  0.76554800  0.40744200  0.37880500  1
  O  O1  1  0.31815000  0.10387900  0.31130200  1
  O  O2  1  0.24217300  0.59305200  0.60758700  1
  O  O3  1  0.69928700  0.89425100  0.67306200  1
  O  O4  1  0.82064000  0.90303900  0.13920300  1
  O  O5  1  0.23860100  0.58596700  0.09287200  1
  O  O6  1  0.19215700  0.09285400  0.84934500  1
  O  O7  1  0.76690300  0.40182500  0.89836500  1
loop_
_geom_bond_atom_site_label_1
_geom_bond_atom_site_label_2
_geom_bond_distance
_geom_bond_site_symmetry_2
Mg0 O4 1.925658 1_546
Mg0 O6 1.932958 1_555
Mg0 O1 2.067912 1_556
Mg0 O3 2.101693 1_545
Mg0 O7 2.171545 1_555
Co0 O1 2.008883 1_555
Co0 O0 2.045203 1_555
Co0 O2 2.074493 1_555
Co0 O6 2.136823 1_555
Co0 O3 2.312243 1_545
Co0 O7 2.337881 1_555
Co1 O2 2.079947 1_555
Co1 O3 2.099257 1_555
Co1 O4 2.099516 1_555
Co1 O0 2.145335 1_555
Co1 O1 2.199677 1_565
Co1 O5 2.256027 1_555
Mo0 O0 1.832344 1_455
Mo0 O5 1.959636 1_555
Mo0 O1 1.990118 1_555
Mo0 O6 2.138023 1_554
Mo0 O4 2.140189 1_445
Mo0 O7 2.172826 1_454
Mo1 O2 1.840132 1_655
Mo1 O3 1.978714 1_555
Mo1 O7 2.031066 1_555
Mo1 O4 2.109872 1_556
Mo1 O6 2.118056 1_665
Mo1 O5 2.178922 1_656
O0 O1 2.720045 1_555
O0 O7 2.732728 1_554
O2 O3 2.751418 1_555
O4 O5 2.684999 1_655
O6 O7 2.688635 1_455
