# generated using pymatgen
data_Li8Zn2Ge3
_symmetry_space_group_name_H-M   'P 1'
_cell_length_a   9.14862888
_cell_length_b   9.14862888
_cell_length_c   9.14862899
_cell_angle_alpha   48.21177504
_cell_angle_beta   48.21177504
_cell_angle_gamma   48.21177448
_symmetry_Int_Tables_number   1
_chemical_formula_structural   Li8Zn2Ge3
_chemical_formula_sum   'Li16 Zn4 Ge6'
_cell_volume   390.17188974
_cell_formula_units_Z   2
loop_
 _symmetry_equiv_pos_site_id
 _symmetry_equiv_pos_as_xyz
  1  'x, y, z'
loop_
 _atom_site_type_symbol
 _atom_site_label
 _atom_site_symmetry_multiplicity
 _atom_site_fract_x
 _atom_site_fract_y
 _atom_site_fract_z
 _atom_site_occupancy
  Li  Li0  1  0.05711807  0.05711807  0.05711807  1
  Li  Li1  1  0.29937174  0.59333510  0.95629236  1
  Li  Li2  1  0.55711807  0.55711807  0.55711807  1
  Li  Li3  1  0.20644263  0.90941859  0.55729922  1
  Li  Li4  1  0.59333510  0.95629236  0.29937174  1
  Li  Li5  1  0.05729922  0.40941859  0.70644263  1
  Li  Li6  1  0.90941859  0.55729922  0.20644263  1
  Li  Li7  1  0.79937174  0.45629236  0.09333510  1
  Li  Li8  1  0.95629236  0.29937174  0.59333510  1
  Li  Li9  1  0.55729922  0.20644263  0.90941859  1
  Li  Li10  1  0.45629236  0.09333510  0.79937174  1
  Li  Li11  1  0.70644263  0.05729922  0.40941859  1
  Li  Li12  1  0.09333510  0.79937174  0.45629236  1
  Li  Li13  1  0.45669229  0.45669229  0.45669229  1
  Li  Li14  1  0.95669229  0.95669229  0.95669229  1
  Li  Li15  1  0.40941859  0.70644263  0.05729922  1
  Zn  Zn0  1  0.67350753  0.67350753  0.67350753  1
  Zn  Zn1  1  0.33683925  0.33683925  0.33683925  1
  Zn  Zn2  1  0.83683925  0.83683925  0.83683925  1
  Zn  Zn3  1  0.17350753  0.17350753  0.17350753  1
  Ge  Ge0  1  0.17888406  0.50331475  0.82985542  1
  Ge  Ge1  1  0.67888406  0.32985542  0.00331475  1
  Ge  Ge2  1  0.82985542  0.17888406  0.50331475  1
  Ge  Ge3  1  0.32985542  0.00331475  0.67888406  1
  Ge  Ge4  1  0.00331475  0.67888406  0.32985542  1
  Ge  Ge5  1  0.50331475  0.82985542  0.17888406  1
loop_
_geom_bond_atom_site_label_1
_geom_bond_atom_site_label_2
_geom_bond_distance
_geom_bond_site_symmetry_2
Li0 Li14 2.430506 1_444
Li0 Li15 2.626727 1_545
Li0 Li5 2.626727 1_554
Li0 Li11 2.626727 1_455
Li0 Zn3 2.816859 1_555
Li0 Li7 2.846234 1_455
Li0 Li10 2.846234 1_554
Li0 Li12 2.846234 1_545
Li1 Li15 2.615541 1_556
Li1 Li14 2.643943 1_455
Li1 Zn1 2.715703 1_556
Li1 Li6 2.784628 1_456
Li1 Li9 2.796996 1_555
Li1 Zn0 2.821690 1_555
Li1 Li2 2.846234 1_555
Li1 Li3 3.033259 1_555
Li2 Li3 2.626727 1_555
Li2 Li6 2.626727 1_555
Li2 Li9 2.626727 1_555
Li2 Zn0 2.816859 1_555
Li2 Li8 2.846234 1_555
Li2 Li4 2.846234 1_555
Li3 Zn3 2.718484 1_565
Li3 Zn2 2.760245 1_455
Li3 Li8 2.784628 1_465
Li3 Li4 2.796996 1_555
Li4 Zn1 2.715703 1_565
Li4 Li9 2.784628 1_564
Li4 Zn0 2.821690 1_555
Li4 Li6 3.033258 1_555
Li5 Li8 2.615541 1_455
Li5 Zn0 2.718484 1_455
Li5 Zn1 2.760245 1_555
Li5 Li7 2.796996 1_456
Li6 Li7 2.615541 1_555
Li6 Zn3 2.718484 1_655
Li6 Zn2 2.760245 1_554
Li6 Li8 2.796996 1_555
Li7 Zn2 2.715703 1_554
Li7 Zn3 2.821690 1_655
Li8 Zn1 2.715703 1_655
Li8 Zn0 2.821690 1_555
Li8 Li9 3.033258 1_555
Li9 Zn3 2.718484 1_556
Li9 Zn2 2.760245 1_545
Li10 Li9 2.615541 1_555
Li10 Li13 2.643944 1_555
Li10 Zn2 2.715703 1_545
Li10 Li11 2.784628 1_555
Li10 Li15 2.796996 1_546
Li10 Zn3 2.821690 1_556
Li10 Li5 3.033258 1_555
Li11 Li4 2.615541 1_545
Li11 Zn0 2.718484 1_545
Li11 Zn1 2.760245 1_555
Li11 Li12 2.796996 1_645
Li11 Li13 2.901894 1_555
Li11 Li7 3.033258 1_555
Li12 Li3 2.615541 1_555
Li12 Li13 2.643943 1_555
Li12 Zn2 2.715703 1_455
Li12 Li5 2.784628 1_555
Li12 Zn3 2.821690 1_565
Li12 Li15 3.033259 1_555
Li13 Li2 2.430506 1_555
Li13 Li7 2.643944 1_555
Li13 Zn1 2.900685 1_555
Li13 Li5 2.901894 1_555
Li13 Li15 2.901894 1_555
Li14 Li4 2.643944 1_556
Li14 Li8 2.643944 1_565
Li14 Zn2 2.900685 1_555
Li14 Li9 2.901894 1_565
Li14 Li6 2.901894 1_556
Li14 Li3 2.901894 1_655
Li15 Zn0 2.718484 1_554
Li15 Zn1 2.760245 1_555
Li15 Li7 2.784628 1_555
Ge0 Zn3 2.517882 1_556
Ge0 Zn2 2.524776 1_455
Ge0 Li13 2.688556 1_555
Ge0 Li1 2.722167 1_555
Ge0 Li5 2.736763 1_555
Ge0 Li7 2.739497 1_456
Ge0 Li6 2.741636 1_456
Ge0 Li2 2.750998 1_555
Ge0 Li12 2.833964 1_555
Ge0 Li9 2.843219 1_555
Ge0 Li3 2.854517 1_555
Ge0 Li10 2.889823 1_555
Ge1 Zn0 2.517882 1_554
Ge1 Zn1 2.524776 1_555
Ge1 Li14 2.688556 1_544
Ge1 Li7 2.722167 1_555
Ge1 Li9 2.736763 1_554
Ge1 Li1 2.739497 1_554
Ge1 Li15 2.741636 1_555
Ge1 Li0 2.750998 1_655
Ge1 Li4 2.833964 1_545
Ge1 Li5 2.843219 1_654
Ge1 Li11 2.854517 1_555
Ge1 Li8 2.889823 1_554
Ge2 Zn3 2.517882 1_655
Ge2 Zn2 2.524776 1_545
Ge2 Li13 2.688556 1_555
Ge2 Li8 2.722167 1_555
Ge2 Li11 2.736763 1_555
Ge2 Li12 2.739497 1_645
Ge2 Li3 2.741636 1_645
Ge2 Li2 2.750998 1_555
Ge2 Li10 2.833964 1_555
Ge2 Li6 2.843219 1_555
Ge2 Li9 2.854517 1_555
Ge2 Li7 2.889823 1_555
Ge3 Zn0 2.517882 1_545
Ge3 Zn1 2.524776 1_555
Ge3 Li14 2.688556 1_445
Ge3 Li10 2.722167 1_555
Ge3 Li3 2.736763 1_545
Ge3 Li4 2.739497 1_545
Ge3 Li11 2.741636 1_555
Ge3 Li0 2.750998 1_556
Ge3 Li8 2.833964 1_455
Ge3 Li15 2.843219 1_546
Ge3 Li5 2.854517 1_555
Ge3 Li1 2.889823 1_545
Ge4 Zn0 2.517882 1_455
Ge4 Zn1 2.524776 1_555
Ge4 Li14 2.688556 1_454
Ge4 Li12 2.722167 1_555
Ge4 Li6 2.736763 1_455
Ge4 Li8 2.739497 1_455
Ge4 Li5 2.741636 1_555
Ge4 Li0 2.750998 1_565
Ge4 Li1 2.833964 1_554
Ge4 Li11 2.843219 1_465
Ge4 Li15 2.854517 1_555
Ge4 Li4 2.889823 1_455
Ge5 Zn3 2.517882 1_565
Ge5 Zn2 2.524776 1_554
Ge5 Li13 2.688556 1_555
Ge5 Li4 2.722167 1_555
Ge5 Li15 2.736763 1_555
Ge5 Li10 2.739497 1_564
Ge5 Li9 2.741636 1_564
Ge5 Li2 2.750998 1_555
Ge5 Li7 2.833964 1_555
Ge5 Li3 2.843219 1_555
Ge5 Li6 2.854517 1_555
Ge5 Li12 2.889823 1_555
