# generated using pymatgen
data_Na10Ca8SiS11O48
_symmetry_space_group_name_H-M   'P 1'
_cell_length_a   18.72247026
_cell_length_b   9.32435593
_cell_length_c   23.75345526
_cell_angle_alpha   89.93733906
_cell_angle_beta   89.97070177
_cell_angle_gamma   120.03408042
_symmetry_Int_Tables_number   1
_chemical_formula_structural   Na10Ca8SiS11O48
_chemical_formula_sum   'Na30 Ca24 Si3 S33 O144'
_cell_volume   3589.95979997
_cell_formula_units_Z   3
loop_
 _symmetry_equiv_pos_site_id
 _symmetry_equiv_pos_as_xyz
  1  'x, y, z'
loop_
 _atom_site_type_symbol
 _atom_site_label
 _atom_site_symmetry_multiplicity
 _atom_site_fract_x
 _atom_site_fract_y
 _atom_site_fract_z
 _atom_site_occupancy
  Na  Na0  1  0.82106092  0.97250595  0.24571778  1
  Na  Na1  1  0.69011189  0.38496159  0.25002190  1
  Na  Na2  1  0.98957001  0.64652200  0.25492956  1
  Na  Na3  1  0.49831788  0.63363298  0.24994080  1
  Na  Na4  1  0.32182505  0.67133037  0.74521473  1
  Na  Na5  1  0.82085805  0.67037179  0.74538868  1
  Na  Na6  1  0.98605796  0.32954935  0.75462720  1
  Na  Na7  1  0.48573753  0.32923051  0.75472081  1
  Na  Na8  1  0.19287450  0.00077975  0.74994379  1
  Na  Na9  1  0.69237701  0.99947154  0.75012945  1
  Na  Na10  1  0.33634704  0.97034475  0.59258486  1
  Na  Na11  1  0.83467511  0.96862350  0.59482540  1
  Na  Na12  1  0.15519329  0.97599944  0.08277052  1
  Na  Na13  1  0.83463693  0.70351654  0.09516387  1
  Na  Na14  1  0.35160412  0.03145479  0.90760024  1
  Na  Na15  1  0.85007256  0.02892088  0.90504528  1
  Na  Na16  1  0.16835445  0.03329966  0.41665910  1
  Na  Na17  1  0.84983326  0.67288172  0.40473627  1
  Na  Na18  1  0.00851841  0.02317256  0.50301600  1
  Na  Na19  1  0.50964347  0.99570966  0.49815306  1
  Na  Na20  1  0.00983565  0.02448498  0.99715652  1
  Na  Na21  1  0.50866076  0.99504915  0.00187987  1
  Na  Na22  1  0.33561949  0.32699427  0.83327385  1
  Na  Na23  1  0.83399331  0.32392713  0.83254364  1
  Na  Na24  1  0.33505421  0.33954689  0.33509861  1
  Na  Na25  1  0.83362052  0.34189564  0.33090397  1
  Na  Na26  1  0.18061811  0.65215169  0.16723580  1
  Na  Na27  1  0.66766431  0.66362409  0.16676239  1
  Na  Na28  1  0.17278174  0.67466662  0.66714808  1
  Na  Na29  1  0.67057845  0.67364552  0.66695057  1
  Ca  Ca0  1  0.99806604  0.00298322  0.34461500  1
  Ca  Ca1  1  0.49692945  0.00257869  0.35160185  1
  Ca  Ca2  1  0.00003534  0.00113323  0.84837971  1
  Ca  Ca3  1  0.50020981  0.00241257  0.84780786  1
  Ca  Ca4  1  0.99885800  0.99684876  0.65164307  1
  Ca  Ca5  1  0.49891777  0.99783945  0.65215331  1
  Ca  Ca6  1  0.99795211  0.00591634  0.15535936  1
  Ca  Ca7  1  0.49643921  0.00189451  0.14828957  1
  Ca  Ca8  1  0.33376535  0.33413966  0.67772643  1
  Ca  Ca9  1  0.83382790  0.33474085  0.67781940  1
  Ca  Ca10  1  0.33148262  0.32935261  0.18116018  1
  Ca  Ca11  1  0.83405213  0.33429513  0.17821056  1
  Ca  Ca12  1  0.33746349  0.34765290  0.98595127  1
  Ca  Ca13  1  0.83313506  0.33750688  0.98576105  1
  Ca  Ca14  1  0.33926578  0.34911884  0.48503980  1
  Ca  Ca15  1  0.83272289  0.33010576  0.48529287  1
  Ca  Ca16  1  0.16558375  0.65360156  0.01444552  1
  Ca  Ca17  1  0.65832630  0.66117780  0.01556965  1
  Ca  Ca18  1  0.16377126  0.65275911  0.51421177  1
  Ca  Ca19  1  0.65959998  0.65850711  0.51386065  1
  Ca  Ca20  1  0.17190369  0.66186468  0.31904536  1
  Ca  Ca21  1  0.66707710  0.66752992  0.32164661  1
  Ca  Ca22  1  0.16667024  0.66563969  0.82220499  1
  Ca  Ca23  1  0.66652738  0.66462301  0.82230679  1
  Si  Si0  1  0.84318226  0.68638569  0.25017380  1
  Si  Si1  1  0.34377885  -0.00002280  0.75005380  1
  Si  Si2  1  0.84393827  0.99974786  0.75009798  1
  S  S0  1  0.15276901  0.99513943  0.25047648  1
  S  S1  1  0.64778982  0.99840014  0.24971501  1
  S  S2  1  0.35195299  0.69716229  0.24958460  1
  S  S3  1  -0.00027824  0.31241565  0.24974182  1
  S  S4  1  0.49975048  0.30409096  0.25035603  1
  S  S5  1  0.15174912  0.30309210  0.74947787  1
  S  S6  1  0.65212030  0.30372669  0.74950029  1
  S  S7  1  0.00014896  0.69643828  0.75044579  1
  S  S8  1  0.50024320  0.69628398  0.75042866  1
  S  S9  1  0.48537326  0.33058670  0.58521235  1
  S  S10  1  0.98520185  0.33112369  0.58455417  1
  S  S11  1  0.18174585  0.02571950  0.58071253  1
  S  S12  1  0.68156939  0.02445307  0.58451122  1
  S  S13  1  0.33300134  0.64534584  0.58512430  1
  S  S14  1  0.83329880  0.64546119  0.58117907  1
  S  S15  1  0.48696382  0.64081490  0.08742074  1
  S  S16  1  0.98860790  0.64556174  0.08441863  1
  S  S17  1  0.32944400  0.02773306  0.07981863  1
  S  S18  1  0.83373994  0.02217760  0.08151994  1
  S  S19  1  0.18070844  0.32598100  0.08360567  1
  S  S20  1  0.68204595  0.33792986  0.08449215  1
  S  S21  1  0.32031720  0.66902679  0.91461152  1
  S  S22  1  0.81942589  0.66950946  0.91867557  1
  S  S23  1  0.01020848  0.35494106  0.91566910  1
  S  S24  1  0.51044210  0.35436233  0.91503448  1
  S  S25  1  0.16894681  0.97470733  0.91926658  1
  S  S26  1  0.66948028  0.97546647  0.91544303  1
  S  S27  1  0.31522553  0.97131846  0.42017029  1
  S  S28  1  0.82016716  0.97055099  0.41814039  1
  S  S29  1  0.16648023  0.35280806  0.41675209  1
  S  S30  1  0.66966659  0.36313190  0.41568484  1
  S  S31  1  0.01587305  0.67185972  0.41484307  1
  S  S32  1  0.51276191  0.66807839  0.41300097  1
  O  O0  1  0.11227815  0.01235181  0.30201631  1
  O  O1  1  0.60955683  0.02462914  0.30019673  1
  O  O2  1  0.40067015  0.78422943  0.30014958  1
  O  O3  1  0.89800379  0.77549477  0.30696169  1
  O  O4  1  0.49311302  0.20922790  0.30159537  1
  O  O5  1  0.99370988  0.21474444  0.30028051  1
  O  O6  1  0.11482696  0.19784222  0.79980357  1
  O  O7  1  0.61538562  0.19848712  0.79974694  1
  O  O8  1  0.49314857  0.78005645  0.80098372  1
  O  O9  1  0.99282115  0.77992511  0.80102216  1
  O  O10  1  0.39922253  0.02226758  0.80653409  1
  O  O11  1  0.89934509  0.02134259  0.80668708  1
  O  O12  1  0.38792455  0.97726142  0.69349080  1
  O  O13  1  0.88826853  0.97740965  0.69341445  1
  O  O14  1  0.10274454  0.21928993  0.69893787  1
  O  O15  1  0.60322062  0.22029165  0.69896156  1
  O  O16  1  0.01587307  0.80177790  0.70018599  1
  O  O17  1  0.51563265  0.80143493  0.70016496  1
  O  O18  1  0.39234435  0.79325210  0.19836461  1
  O  O19  1  0.88807047  0.79725923  0.19344848  1
  O  O20  1  0.01204282  0.23760180  0.19869425  1
  O  O21  1  0.50721631  0.22055790  0.19988481  1
  O  O22  1  0.10365382  0.98520578  0.19961281  1
  O  O23  1  0.59881956  0.98390299  0.19915603  1
  O  O24  1  0.44875162  0.34362118  0.63939049  1
  O  O25  1  0.94847996  0.34261518  0.63881221  1
  O  O26  1  0.22935726  0.11192119  0.63246502  1
  O  O27  1  0.72643452  0.10397228  0.63788614  1
  O  O28  1  0.32971371  0.56297143  0.63942374  1
  O  O29  1  0.83030856  0.55742316  0.63411718  1
  O  O30  1  0.44682551  0.55308652  0.14080426  1
  O  O31  1  0.95219968  0.55774370  0.13819471  1
  O  O32  1  0.32289157  0.12036447  0.12844479  1
  O  O33  1  0.83064191  0.10395209  0.13445494  1
  O  O34  1  0.22786051  0.34005144  0.13518632  1
  O  O35  1  0.72714738  0.34882777  0.13773461  1
  O  O36  1  0.22440387  0.31544190  0.03319194  1
  O  O37  1  0.72702397  0.32338645  0.03590023  1
  O  O38  1  0.43686906  0.54721782  0.03839597  1
  O  O39  1  0.93549532  0.55093442  0.03678838  1
  O  O40  1  0.33570940  0.11788125  0.02690773  1
  O  O41  1  0.83491672  0.11759521  0.03162104  1
  O  O42  1  0.22474828  0.12424793  0.52981389  1
  O  O43  1  0.72729985  0.12929511  0.53588973  1
  O  O44  1  0.33304149  0.54584063  0.53714182  1
  O  O45  1  0.83422651  0.55215664  0.53131632  1
  O  O46  1  0.43146015  0.32056082  0.53784823  1
  O  O47  1  0.93174926  0.32197906  0.53720682  1
  O  O48  1  0.27175128  0.67956426  0.96218043  1
  O  O49  1  0.77283515  0.67731681  0.96809278  1
  O  O50  1  0.06010769  0.45412850  0.96361420  1
  O  O51  1  0.56048545  0.45311513  0.96292407  1
  O  O52  1  0.16242799  0.87592364  0.97018097  1
  O  O53  1  0.66356189  0.87094332  0.96398933  1
  O  O54  1  0.27675321  0.87938613  0.47293810  1
  O  O55  1  0.77401586  0.86999217  0.46775393  1
  O  O56  1  0.16181174  0.43707848  0.46778136  1
  O  O57  1  0.66316751  0.45402742  0.46417618  1
  O  O58  1  0.06643311  0.67663770  0.46316646  1
  O  O59  1  0.56370551  0.67461721  0.46139912  1
  O  O60  1  0.05256687  0.65724695  0.36131150  1
  O  O61  1  0.55146454  0.66026868  0.35903581  1
  O  O62  1  0.26252667  0.87850453  0.37143901  1
  O  O63  1  0.77437617  0.89030921  0.36538786  1
  O  O64  1  0.17037250  0.44545018  0.36550523  1
  O  O65  1  0.67549784  0.45329360  0.36223802  1
  O  O66  1  0.04789802  0.43635738  0.86130535  1
  O  O67  1  0.54804879  0.43682094  0.86064902  1
  O  O68  1  0.17295153  0.88733148  0.86761746  1
  O  O69  1  0.67435473  0.89597719  0.86196277  1
  O  O70  1  0.27690072  0.65606312  0.86061711  1
  O  O71  1  0.77404785  0.65803969  0.86573767  1
  O  O72  1  0.01374500  0.83134560  0.41562542  1
  O  O73  1  0.50481876  0.81928287  0.41458896  1
  O  O74  1  0.39958512  0.99667468  0.41536705  1
  O  O75  1  0.90137792  0.97430158  0.41735621  1
  O  O76  1  0.09264217  0.18090012  0.41572056  1
  O  O77  1  0.59779712  0.19279435  0.41502009  1
  O  O78  1  0.00181264  0.18647627  0.91882755  1
  O  O79  1  0.50165833  0.18596889  0.91788036  1
  O  O80  1  0.09716590  0.00054957  0.91732370  1
  O  O81  1  0.59790469  0.00147941  0.91523612  1
  O  O82  1  0.40179445  0.82654990  0.91538859  1
  O  O83  1  0.90082360  0.82838695  0.91802211  1
  O  O84  1  0.48808328  0.17276716  0.58431291  1
  O  O85  1  0.98784041  0.17273474  0.58335225  1
  O  O86  1  0.09737629  0.00129282  0.58268188  1
  O  O87  1  0.59693347  0.99818064  0.58505368  1
  O  O88  1  0.40847811  0.81327897  0.58201818  1
  O  O89  1  0.90876807  0.81444410  0.57998353  1
  O  O90  1  0.49572967  0.80885864  0.08599542  1
  O  O91  1  0.99493420  0.81312617  0.08467443  1
  O  O92  1  0.40130256  0.00318892  0.08446171  1
  O  O93  1  0.90921962  0.00461464  0.08052952  1
  O  O94  1  0.09951660  0.16623510  0.08509501  1
  O  O95  1  0.59717868  0.19442942  0.08539672  1
  O  O96  1  0.33412873  0.16833254  0.74803795  1
  O  O97  1  0.83470773  0.16855267  0.74824099  1
  O  O98  1  0.23828691  0.33639301  0.74431047  1
  O  O99  1  0.73890912  0.33790740  0.74436858  1
  O  O100  1  0.42149033  0.53411055  0.74518159  1
  O  O101  1  0.92131991  0.53455737  0.74496831  1
  O  O102  1  0.34973636  0.53337191  0.24796094  1
  O  O103  1  0.83318827  0.49910290  0.24830872  1
  O  O104  1  0.42740657  0.33061245  0.24712131  1
  O  O105  1  0.91957742  0.31309880  0.24615785  1
  O  O106  1  0.23773063  0.13852751  0.24737800  1
  O  O107  1  0.73434305  0.14039897  0.24507104  1
  O  O108  1  0.33124285  0.52304837  0.91929659  1
  O  O109  1  0.83165065  0.52462574  0.92131983  1
  O  O110  1  0.42512709  0.33138697  0.91724615  1
  O  O111  1  0.92473797  0.33037713  0.91800139  1
  O  O112  1  0.24865133  0.13633720  0.92038336  1
  O  O113  1  0.74952911  0.13723841  0.91837007  1
  O  O114  1  0.31725412  0.13459770  0.42066852  1
  O  O115  1  0.83280024  0.14048744  0.42062372  1
  O  O116  1  0.24110329  0.33193536  0.41809067  1
  O  O117  1  0.74931626  0.36072411  0.41884108  1
  O  O118  1  0.42947568  0.51620863  0.41564668  1
  O  O119  1  0.92892992  0.53147749  0.41896923  1
  O  O120  1  0.16759555  0.47049760  0.08089733  1
  O  O121  1  0.68164739  0.49836181  0.08120968  1
  O  O122  1  0.07394558  0.67305863  0.07898663  1
  O  O123  1  0.57013986  0.65567238  0.08514572  1
  O  O124  1  0.25017138  0.86317967  0.07982028  1
  O  O125  1  0.76017181  0.85038813  0.08080588  1
  O  O126  1  0.18017059  0.86315425  0.57954150  1
  O  O127  1  0.68093582  0.86280736  0.58140521  1
  O  O128  1  0.25944877  0.66942969  0.58314483  1
  O  O129  1  0.75984362  0.66957957  0.58054683  1
  O  O130  1  0.06911613  0.47641914  0.57995970  1
  O  O131  1  0.56911850  0.47640505  0.58043911  1
  O  O132  1  0.15324007  0.83512307  0.25305460  1
  O  O133  1  0.65166028  0.84149696  0.25425410  1
  O  O134  1  0.26656983  0.66982336  0.25228456  1
  O  O135  1  0.75111791  0.67221193  0.25193482  1
  O  O136  1  0.06803597  0.48765858  0.25401630  1
  O  O137  1  0.57612646  0.47304458  0.25280381  1
  O  O138  1  0.15391683  0.46532368  0.75481328  1
  O  O139  1  0.65443846  0.46605244  0.75488995  1
  O  O140  1  0.06986217  0.66251057  0.75563234  1
  O  O141  1  0.57014957  0.66271577  0.75535740  1
  O  O142  1  0.25005490  0.83165421  0.75209331  1
  O  O143  1  0.75066123  0.83083716  0.75209451  1
loop_
_geom_bond_atom_site_label_1
_geom_bond_atom_site_label_2
_geom_bond_distance
_geom_bond_site_symmetry_2
Na0 O135 2.430088 1_555
Na0 O105 2.761217 1_565
Na0 O107 2.762477 1_565
Na0 O133 2.777204 1_555
Na0 O19 2.800122 1_555
Na0 O33 2.879504 1_565
Na0 O63 2.958672 1_555
Na0 O5 3.151527 1_565
Na0 O3 3.195534 1_555
Na1 O135 2.327772 1_555
Na1 O103 2.335793 1_555
Na1 O137 2.643446 1_555
Na1 O65 2.786271 1_555
Na1 O107 2.791172 1_555
Na1 O35 2.818203 1_555
Na1 O1 3.146532 1_555
Na1 O21 3.201144 1_555
Na2 O103 2.541408 1_555
Na2 O136 2.555646 1_655
Na2 O132 2.662683 1_655
Na2 O105 2.711029 1_555
Na2 O60 2.769850 1_655
Na2 O3 2.824467 1_555
Na2 O31 2.879365 1_555
Na2 O22 3.081807 1_655
Na2 O0 3.214186 1_665
Na2 O19 3.223588 1_555
Na3 O104 2.448639 1_555
Na3 O102 2.451855 1_555
Na3 O133 2.537714 1_555
Na3 O137 2.559770 1_555
Na3 O30 2.737861 1_555
Na3 O61 2.742938 1_555
Na3 O2 3.050869 1_555
Na3 O23 3.082208 1_555
Na4 O142 2.465393 1_555
Na4 O98 2.703852 1_555
Na4 O100 2.740242 1_555
Na4 O28 2.740786 1_555
Na4 O138 2.752788 1_555
Na4 O12 2.763209 1_555
Na4 O70 2.849358 1_555
Na4 O8 3.134230 1_555
Na4 O10 3.192961 1_565
Na5 O143 2.441340 1_555
Na5 O99 2.683973 1_555
Na5 O139 2.728523 1_555
Na5 O101 2.743352 1_555
Na5 O13 2.772558 1_555
Na5 O29 2.884183 1_555
Na5 O71 2.974783 1_555
Na5 O9 3.141744 1_555
Na5 O11 3.191846 1_565
Na6 O97 2.459444 1_555
Na6 O140 2.687967 1_655
Na6 O101 2.737599 1_555
Na6 O138 2.738023 1_655
Na6 O66 2.758194 1_655
Na6 O11 2.782720 1_555
Na6 O25 2.857431 1_555
Na6 O14 3.134955 1_655
Na6 O13 3.200439 1_545
Na7 O96 2.463967 1_555
Na7 O141 2.692185 1_555
Na7 O100 2.728990 1_555
Na7 O67 2.745078 1_555
Na7 O139 2.751376 1_555
Na7 O10 2.771296 1_555
Na7 O24 2.845433 1_555
Na7 O15 3.140181 1_555
Na7 O12 3.199474 1_545
Na8 O96 2.302317 1_555
Na8 O142 2.307697 1_545
Na8 O98 2.805233 1_555
Na8 O140 2.828090 1_545
Na8 O26 2.934399 1_555
Na8 O68 2.944235 1_545
Na8 O6 3.099192 1_555
Na8 O16 3.110518 1_545
Na9 O97 2.320093 1_565
Na9 O143 2.320112 1_555
Na9 O69 2.787336 1_555
Na9 O27 2.799126 1_565
Na9 O141 2.813858 1_555
Na9 O99 2.825420 1_565
Na9 O7 3.096969 1_565
Na9 O17 3.108137 1_555
Na10 O128 2.440027 1_555
Na10 O88 2.451928 1_555
Na10 O84 2.510527 1_565
Na10 O12 2.573321 1_555
Na10 O126 2.592467 1_555
Na10 O54 3.017044 1_555
Na10 O26 3.049649 1_565
Na10 O46 3.113285 1_565
Na11 O129 2.438228 1_555
Na11 O89 2.472311 1_555
Na11 O13 2.533423 1_555
Na11 O85 2.540577 1_565
Na11 O127 2.553213 1_555
Na11 O27 3.050685 1_565
Na11 O47 3.166286 1_565
Na11 O55 3.195354 1_555
Na11 O25 3.219427 1_565
Na12 O122 2.449592 1_555
Na12 O94 2.467229 1_565
Na12 O124 2.479161 1_555
Na12 O91 2.597963 1_455
Na12 O52 2.858860 1_554
Na12 O32 2.936470 1_565
Na12 O22 2.953317 1_555
Na12 O36 2.994743 1_565
Na12 O34 3.211234 1_565
Na12 O40 3.232515 1_565
Na13 O125 2.417899 1_555
Na13 O93 2.454783 1_565
Na13 O19 2.519267 1_555
Na13 O121 2.547755 1_555
Na13 O91 2.653644 1_555
Na13 O35 3.055887 1_555
Na13 O39 3.194306 1_555
Na13 O49 3.198647 1_554
Na14 O110 2.432442 1_555
Na14 O79 2.444937 1_555
Na14 O82 2.522752 1_545
Na14 O10 2.576840 1_555
Na14 O112 2.578958 1_555
Na14 O40 3.002256 1_556
Na14 O68 3.066300 1_545
Na14 O48 3.124123 1_545
Na15 O111 2.453337 1_555
Na15 O78 2.482033 1_655
Na15 O83 2.504351 1_545
Na15 O11 2.525457 1_555
Na15 O113 2.562626 1_555
Na15 O69 3.054670 1_545
Na15 O71 3.152478 1_545
Na15 O41 3.169117 1_556
Na15 O49 3.213036 1_545
Na16 O116 2.411194 1_555
Na16 O76 2.420100 1_555
Na16 O114 2.457129 1_555
Na16 O72 2.543499 1_545
Na16 O42 2.858302 1_555
Na16 O0 2.890473 1_555
Na16 O62 2.982388 1_545
Na16 O58 3.091731 1_545
Na17 O119 2.449463 1_555
Na17 O75 2.491462 1_555
Na17 O3 2.500394 1_555
Na17 O117 2.576782 1_555
Na17 O72 2.670283 1_655
Na17 O65 3.030336 1_555
Na17 O63 3.137512 1_555
Na17 O45 3.171010 1_555
Na17 O55 3.201414 1_555
Na18 O85 2.506332 1_455
Na18 O76 2.571875 1_555
Na18 O86 2.594687 1_555
Na18 O89 2.639779 1_445
Na18 O75 2.731789 1_445
Na18 O72 2.775081 1_545
Na19 O73 2.552048 1_555
Na19 O87 2.626434 1_555
Na19 O77 2.636874 1_565
Na19 O88 2.685698 1_555
Na19 O84 2.784020 1_565
Na19 O74 2.852299 1_555
Na20 O78 2.446855 1_555
Na20 O80 2.584990 1_555
Na20 O94 2.591820 1_556
Na20 O93 2.674122 1_456
Na20 O83 2.705176 1_445
Na20 O91 2.779119 1_446
Na21 O90 2.576042 1_555
Na21 O81 2.631928 1_564
Na21 O95 2.658106 1_565
Na21 O79 2.719113 1_564
Na21 O82 2.749003 1_554
Na21 O92 2.835983 1_565
Na22 O96 2.500786 1_555
Na22 O110 2.592960 1_555
Na22 O112 2.680282 1_555
Na22 O100 2.751832 1_555
Na22 O108 2.771599 1_555
Na22 O98 2.820894 1_555
Na23 O97 2.476841 1_555
Na23 O111 2.629100 1_555
Na23 O113 2.630682 1_555
Na23 O101 2.762409 1_555
Na23 O99 2.794358 1_555
Na23 O109 2.835753 1_555
Na24 O118 2.567997 1_555
Na24 O116 2.618489 1_555
Na24 O102 2.668324 1_555
Na24 O114 2.692161 1_555
Na24 O104 2.739452 1_555
Na24 O106 2.787235 1_555
Na25 O103 2.450213 1_555
Na25 O105 2.672955 1_555
Na25 O117 2.675830 1_555
Na25 O119 2.745755 1_555
Na25 O107 2.767326 1_555
Na25 O115 2.833952 1_555
Na26 O134 2.537045 1_555
Na26 O120 2.594045 1_555
Na26 O124 2.702298 1_555
Na26 O136 2.792288 1_555
Na26 O132 2.865466 1_555
Na26 O122 2.968835 1_555
Na27 O135 2.533599 1_555
Na27 O123 2.639373 1_555
Na27 O121 2.642532 1_555
Na27 O125 2.677785 1_555
Na27 O137 2.685494 1_555
Na27 O133 2.768390 1_555
Na28 O142 2.489297 1_555
Na28 O128 2.587082 1_555
Na28 O126 2.680811 1_555
Na28 O138 2.751618 1_555
Na28 O130 2.809667 1_555
Na28 O140 2.814271 1_555
Na29 O143 2.509266 1_555
Na29 O127 2.631925 1_555
Na29 O129 2.658373 1_555
Na29 O139 2.757984 1_555
Na29 O131 2.780056 1_555
Na29 O141 2.785563 1_555
Ca0 O3 2.199308 1_545
Ca0 O5 2.274029 1_555
Ca0 O0 2.326924 1_655
Ca0 O76 2.410165 1_655
Ca0 O75 2.417673 1_545
Ca0 O72 2.440793 1_645
Ca1 O2 2.285059 1_545
Ca1 O4 2.293855 1_555
Ca1 O73 2.329964 1_545
Ca1 O74 2.348476 1_545
Ca1 O1 2.354254 1_555
Ca1 O77 2.374288 1_555
Ca2 O11 2.219744 1_455
Ca2 O9 2.294432 1_445
Ca2 O6 2.315463 1_555
Ca2 O78 2.395165 1_555
Ca2 O83 2.403604 1_445
Ca2 O80 2.449881 1_555
Ca3 O10 2.218606 1_555
Ca3 O8 2.298704 1_545
Ca3 O7 2.311325 1_555
Ca3 O82 2.372257 1_545
Ca3 O79 2.379154 1_555
Ca3 O81 2.435126 1_555
Ca4 O13 2.219498 1_555
Ca4 O16 2.305492 1_655
Ca4 O14 2.305666 1_665
Ca4 O85 2.386785 1_565
Ca4 O89 2.402629 1_555
Ca4 O86 2.451006 1_665
Ca5 O12 2.217585 1_555
Ca5 O15 2.303176 1_565
Ca5 O17 2.306917 1_555
Ca5 O84 2.371526 1_565
Ca5 O88 2.386681 1_555
Ca5 O87 2.428805 1_555
Ca6 O19 2.196302 1_545
Ca6 O20 2.287088 1_655
Ca6 O22 2.333009 1_645
Ca6 O94 2.404565 1_655
Ca6 O93 2.429467 1_555
Ca6 O91 2.441069 1_545
Ca7 O18 2.279255 1_545
Ca7 O21 2.300808 1_555
Ca7 O90 2.326235 1_545
Ca7 O23 2.342224 1_545
Ca7 O92 2.344290 1_555
Ca7 O95 2.369357 1_555
Ca8 O96 2.276964 1_555
Ca8 O26 2.285357 1_555
Ca8 O24 2.297604 1_555
Ca8 O28 2.354589 1_555
Ca8 O100 2.384375 1_555
Ca8 O98 2.394195 1_555
Ca9 O97 2.284633 1_555
Ca9 O27 2.290876 1_555
Ca9 O25 2.304714 1_555
Ca9 O29 2.350653 1_555
Ca9 O101 2.377554 1_555
Ca9 O99 2.389059 1_555
Ca10 O32 2.254539 1_555
Ca10 O34 2.272005 1_555
Ca10 O30 2.327713 1_555
Ca10 O106 2.363392 1_555
Ca10 O102 2.368512 1_555
Ca10 O104 2.379536 1_555
Ca11 O103 2.272599 1_555
Ca11 O35 2.285171 1_555
Ca11 O31 2.348941 1_555
Ca11 O105 2.350900 1_555
Ca11 O33 2.359034 1_555
Ca11 O107 2.426529 1_555
Ca12 O38 2.240300 1_556
Ca12 O36 2.278257 1_556
Ca12 O108 2.319532 1_555
Ca12 O40 2.337241 1_556
Ca12 O110 2.372164 1_555
Ca12 O112 2.408862 1_555
Ca13 O37 2.262297 1_556
Ca13 O39 2.300462 1_556
Ca13 O109 2.330399 1_555
Ca13 O41 2.335824 1_556
Ca13 O113 2.362798 1_555
Ca13 O111 2.376526 1_555
Ca14 O46 2.255088 1_555
Ca14 O44 2.264665 1_555
Ca14 O118 2.313946 1_555
Ca14 O42 2.370043 1_555
Ca14 O116 2.375097 1_555
Ca14 O114 2.385589 1_555
Ca15 O47 2.259761 1_555
Ca15 O43 2.267008 1_555
Ca15 O45 2.330116 1_555
Ca15 O117 2.336533 1_555
Ca15 O115 2.343976 1_555
Ca15 O119 2.420129 1_555
Ca16 O48 2.250782 1_554
Ca16 O50 2.268833 1_554
Ca16 O120 2.338046 1_555
Ca16 O52 2.350379 1_554
Ca16 O122 2.374098 1_555
Ca16 O124 2.376861 1_555
Ca17 O51 2.265682 1_554
Ca17 O53 2.266962 1_554
Ca17 O123 2.317793 1_555
Ca17 O49 2.359004 1_554
Ca17 O121 2.363375 1_555
Ca17 O125 2.406484 1_555
Ca18 O56 2.278856 1_555
Ca18 O58 2.291019 1_555
Ca18 O130 2.314706 1_555
Ca18 O54 2.328061 1_555
Ca18 O128 2.374633 1_555
Ca18 O126 2.399003 1_555
Ca19 O59 2.251818 1_555
Ca19 O57 2.272638 1_555
Ca19 O131 2.316448 1_555
Ca19 O55 2.332632 1_555
Ca19 O127 2.368169 1_555
Ca19 O129 2.419017 1_555
Ca20 O62 2.254969 1_555
Ca20 O64 2.286466 1_555
Ca20 O134 2.350918 1_555
Ca20 O136 2.377544 1_555
Ca20 O132 2.397751 1_555
Ca20 O60 2.429634 1_555
Ca21 O135 2.268934 1_555
Ca21 O65 2.292637 1_555
Ca21 O63 2.293427 1_555
Ca21 O61 2.308643 1_555
Ca21 O133 2.395973 1_555
Ca21 O137 2.404252 1_555
Ca22 O142 2.275869 1_555
Ca22 O68 2.283009 1_555
Ca22 O70 2.299114 1_555
Ca22 O66 2.369116 1_555
Ca22 O138 2.380915 1_555
Ca22 O140 2.395132 1_555
Ca23 O143 2.283110 1_555
Ca23 O71 2.290433 1_555
Ca23 O69 2.291405 1_555
Ca23 O67 2.353489 1_555
Ca23 O139 2.373019 1_555
Ca23 O141 2.399197 1_555
O0 S0 1.490140 1_545
O1 S1 1.478206 1_545
O2 S2 1.481774 1_555
O3 Si0 1.647296 1_555
O4 S4 1.471960 1_555
O5 S3 1.475826 1_655
O6 S5 1.479009 1_555
O7 S6 1.476982 1_555
O8 S8 1.474994 1_555
O9 S7 1.475427 1_655
O10 Si1 1.645202 1_555
O11 Si2 1.648153 1_545
O12 Si1 1.645569 1_565
O13 Si2 1.648525 1_555
O14 S5 1.476172 1_555
O15 S6 1.474698 1_555
O16 S7 1.477942 1_555
O17 S8 1.477874 1_555
O18 S2 1.474214 1_555
O19 Si0 1.648241 1_555
O20 S3 1.474039 1_555
O21 S4 1.474566 1_555
O22 S0 1.493319 1_555
O23 S1 1.476000 1_555
O24 S9 1.491275 1_555
O25 S10 1.489415 1_555
O26 S11 1.495958 1_555
O27 S12 1.497480 1_555
O28 S13 1.485852 1_555
O29 S14 1.486569 1_555
O30 S15 1.491042 1_555
O31 S16 1.484893 1_555
O32 S17 1.484351 1_555
O33 S18 1.487308 1_555
O34 S19 1.477576 1_555
O35 S20 1.496088 1_555
O36 S19 1.480764 1_555
O37 S20 1.474252 1_555
O38 S15 1.476941 1_555
O39 S16 1.473910 1_555
O40 S17 1.482817 1_555
O41 S18 1.474781 1_555
O42 S11 1.486645 1_555
O43 S12 1.476905 1_555
O44 S13 1.470678 1_555
O45 S14 1.475603 1_555
O46 S9 1.483339 1_555
O47 S10 1.479732 1_555
O48 S21 1.483843 1_555
O49 S22 1.485523 1_555
O50 S23 1.470929 1_555
O51 S24 1.469521 1_555
O52 S25 1.486883 1_555
O53 S26 1.476885 1_555
O54 S27 1.484364 1_555
O55 S28 1.483292 1_555
O56 S29 1.471406 1_555
O57 S30 1.471424 1_555
O58 S31 1.474657 1_555
O59 S32 1.475848 1_555
O60 S31 1.483437 1_555
O61 S32 1.491844 1_555
O62 S27 1.486924 1_555
O63 S28 1.491976 1_555
O64 S29 1.472379 1_555
O65 S30 1.495356 1_555
O66 S23 1.484066 1_555
O67 S24 1.486859 1_555
O68 S25 1.495923 1_555
O69 S26 1.497032 1_555
O70 S21 1.491090 1_555
O71 S22 1.491600 1_555
O72 S31 1.507574 1_555
O73 S32 1.490406 1_555
O74 S27 1.479673 1_555
O75 S28 1.503372 1_555
O76 S29 1.504327 1_555
O77 S30 1.481281 1_555
O78 S23 1.500129 1_555
O79 S24 1.496092 1_555
O80 S25 1.480037 1_545
O81 S26 1.476492 1_545
O82 S21 1.497305 1_555
O83 S22 1.502431 1_555
O84 S9 1.497780 1_555
O85 S10 1.502511 1_555
O86 S11 1.479519 1_555
O87 S12 1.477330 1_565
O88 S13 1.496291 1_555
O89 S14 1.500399 1_555
O90 S15 1.491882 1_555
O91 S16 1.506660 1_555
O92 S17 1.477455 1_555
O93 S18 1.502015 1_555
O94 S19 1.504637 1_555
O95 S20 1.478909 1_555
O96 Si1 1.668228 1_555
O97 Si2 1.667761 1_545
O98 S5 1.494203 1_555
O99 S6 1.496009 1_555
O100 S8 1.498288 1_555
O101 S7 1.498040 1_655
O102 S2 1.507433 1_555
O103 Si0 1.661203 1_555
O104 S4 1.495651 1_555
O105 S3 1.506149 1_655
O106 S0 1.481218 1_545
O107 S1 1.497645 1_545
O108 S21 1.478303 1_555
O109 S22 1.480114 1_555
O110 S24 1.502462 1_555
O111 S23 1.499739 1_655
O112 S25 1.499240 1_545
O113 S26 1.504534 1_545
O114 S27 1.503883 1_545
O115 S28 1.481643 1_545
O116 S29 1.504355 1_555
O117 S30 1.504507 1_555
O118 S32 1.493331 1_555
O119 S31 1.496444 1_655
O120 S19 1.487019 1_555
O121 S20 1.501614 1_555
O122 S16 1.491571 1_455
O123 S15 1.493691 1_555
O124 S17 1.509115 1_565
O125 S18 1.501597 1_565
O126 S11 1.501560 1_565
O127 S12 1.503233 1_565
O128 S13 1.502869 1_555
O129 S14 1.500587 1_555
O130 S10 1.478000 1_455
O131 S9 1.478293 1_555
O132 S0 1.497669 1_555
O133 S1 1.504359 1_555
O134 S2 1.488791 1_555
O135 Si0 1.661968 1_555
O136 S3 1.491519 1_555
O137 S4 1.508381 1_555
O138 S5 1.498317 1_555
O139 S6 1.497958 1_555
O140 S7 1.494063 1_555
O141 S8 1.494941 1_555
O142 Si1 1.669625 1_565
O143 Si2 1.667051 1_555
