# generated using pymatgen
data_K6Mg(FeO3)2
_symmetry_space_group_name_H-M   'P 1'
_cell_length_a   6.27357904
_cell_length_b   7.02780682
_cell_length_c   7.12950962
_cell_angle_alpha   115.95609207
_cell_angle_beta   91.64920386
_cell_angle_gamma   93.40468592
_symmetry_Int_Tables_number   1
_chemical_formula_structural   K6Mg(FeO3)2
_chemical_formula_sum   'K6 Mg1 Fe2 O6'
_cell_volume   281.60462937
_cell_formula_units_Z   1
loop_
 _symmetry_equiv_pos_site_id
 _symmetry_equiv_pos_as_xyz
  1  'x, y, z'
loop_
 _atom_site_type_symbol
 _atom_site_label
 _atom_site_symmetry_multiplicity
 _atom_site_fract_x
 _atom_site_fract_y
 _atom_site_fract_z
 _atom_site_occupancy
  K  K0  1  0.31528500  0.56079900  0.53838200  1
  K  K1  1  0.95517100  0.79203700  0.27972700  1
  K  K2  1  0.45727000  0.83264800  0.26718000  1
  K  K3  1  0.94386500  0.24486100  0.78499800  1
  K  K4  1  0.74653200  0.38930500  0.38788400  1
  K  K5  1  0.44130000  0.28294800  0.81772800  1
  Mg  Mg0  1  0.58311200  0.87380100  0.86403100  1
  Fe  Fe0  1  0.96028400  0.79446700  0.83535600  1
  Fe  Fe1  1  0.15271900  0.17394500  0.17204200  1
  O  O0  1  0.71082800  0.84466400  0.60004600  1
  O  O1  1  0.26734700  0.89318000  0.89906800  1
  O  O2  1  0.82004700  0.05663200  0.06492300  1
  O  O3  1  0.21448300  0.16266100  0.43811500  1
  O  O4  1  0.20777000  0.44153900  0.15218300  1
  O  O5  1  0.72399000  0.59651400  0.83833700  1
loop_
_geom_bond_atom_site_label_1
_geom_bond_atom_site_label_2
_geom_bond_distance
_geom_bond_site_symmetry_2
K0 O4 2.558229 1_555
K0 O3 2.598627 1_555
K0 O1 2.651302 1_555
K0 Mg0 2.813926 1_555
K0 O0 2.985343 1_555
K0 K4 3.057083 1_555
K0 O5 3.216941 1_555
K0 K2 3.363429 1_555
K0 K5 3.449844 1_555
K1 O0 2.689132 1_555
K1 O3 2.742679 1_665
K1 O4 2.826930 1_655
K1 O2 3.021109 1_565
K1 O5 3.099990 1_554
K1 K2 3.153328 1_655
K1 K2 3.155729 1_555
K1 K4 3.441965 1_555
K2 O3 2.690058 1_565
K2 O0 2.785817 1_555
K2 O4 2.849508 1_555
K2 O1 3.057113 1_554
K2 Mg0 3.130404 1_554
K2 O5 3.329359 1_554
K2 O2 3.389291 1_565
K3 O5 2.786998 1_555
K3 O4 2.795716 1_656
K3 O0 2.817903 1_545
K3 O3 2.905144 1_655
K3 O2 2.935027 1_556
K3 K5 3.109509 1_655
K3 K5 3.186639 1_555
K3 K4 3.611412 1_555
K4 O2 2.541139 1_555
K4 O5 2.900204 1_555
K4 O0 2.906307 1_555
K5 O4 2.672660 1_556
K5 O5 2.694511 1_555
K5 O3 2.774349 1_555
K5 O1 3.178434 1_545
K5 Mg0 3.207227 1_545
K5 O0 3.367548 1_545
Mg0 O2 1.987832 1_566
Mg0 O0 1.998769 1_555
Mg0 O1 2.008971 1_555
Mg0 O5 2.124520 1_555
Fe0 O1 1.978285 1_655
Fe0 O5 1.978914 1_555
Fe0 O2 2.117344 1_566
Fe0 O0 2.412598 1_555
Fe0 K0 3.130804 1_655
Fe0 K1 3.176732 1_556
Fe1 O4 1.958245 1_555
Fe1 O3 1.961619 1_555
Fe1 O2 2.184363 1_455
Fe1 O1 2.255148 1_544
