# generated using pymatgen
data_Na6Mg4Ga4SiS11O48
_symmetry_space_group_name_H-M   'P 1'
_cell_length_a   17.22449597
_cell_length_b   8.63345627
_cell_length_c   22.28378848
_cell_angle_alpha   89.87619680
_cell_angle_beta   89.85658773
_cell_angle_gamma   120.01652845
_symmetry_Int_Tables_number   1
_chemical_formula_structural   Na6Mg4Ga4SiS11O48
_chemical_formula_sum   'Na18 Mg12 Ga12 Si3 S33 O144'
_cell_volume   2869.28563647
_cell_formula_units_Z   3
loop_
 _symmetry_equiv_pos_site_id
 _symmetry_equiv_pos_as_xyz
  1  'x, y, z'
loop_
 _atom_site_type_symbol
 _atom_site_label
 _atom_site_symmetry_multiplicity
 _atom_site_fract_x
 _atom_site_fract_y
 _atom_site_fract_z
 _atom_site_occupancy
  Na  Na0  1  0.81781102  0.99624037  0.24807619  1
  Na  Na1  1  0.99681247  0.63627457  0.25305374  1
  Na  Na2  1  0.31760007  0.64604592  0.74863810  1
  Na  Na3  1  0.81695876  0.64308840  0.74667962  1
  Na  Na4  1  0.99590179  0.35826199  0.75092985  1
  Na  Na5  1  0.68899101  0.00040588  0.74907151  1
  Na  Na6  1  0.99839109  0.99820668  0.49863898  1
  Na  Na7  1  0.50208710  0.00242769  0.49679107  1
  Na  Na8  1  0.00104085  0.00132991  0.00125283  1
  Na  Na9  1  0.50000674  -0.00001678  0.00147536  1
  Na  Na10  1  0.33503737  0.31329863  0.83497630  1
  Na  Na11  1  0.83417650  0.32401510  0.83699847  1
  Na  Na12  1  0.33475888  0.33517038  0.33173685  1
  Na  Na13  1  0.82759979  0.34560067  0.33524044  1
  Na  Na14  1  0.17472980  0.66975246  0.16623975  1
  Na  Na15  1  0.66482781  0.65522667  0.16795405  1
  Na  Na16  1  0.17276808  0.68797874  0.66491814  1
  Na  Na17  1  0.66882421  0.66962715  0.66348807  1
  Mg  Mg0  1  0.49843516  0.99940322  0.35283114  1
  Mg  Mg1  1  0.83383489  0.32778927  0.68138347  1
  Mg  Mg2  1  0.33437674  0.33630259  0.18357184  1
  Mg  Mg3  1  0.82900608  0.33957529  0.18371429  1
  Mg  Mg4  1  0.33307876  0.33274142  0.98381924  1
  Mg  Mg5  1  0.83266350  0.33248664  0.98317621  1
  Mg  Mg6  1  0.83271819  0.33331877  0.48143374  1
  Mg  Mg7  1  0.16529766  0.66326563  0.51686233  1
  Mg  Mg8  1  0.66889823  0.66908398  0.51781871  1
  Mg  Mg9  1  0.17377617  0.67270647  0.31767799  1
  Mg  Mg10  1  0.17204520  0.68338485  0.81505711  1
  Mg  Mg11  1  0.66644940  0.66632823  0.81623099  1
  Ga  Ga0  1  0.99765111  0.98679796  0.35190192  1
  Ga  Ga1  1  0.99762694  0.00473399  0.85297349  1
  Ga  Ga2  1  0.49360995  0.00839372  0.85269633  1
  Ga  Ga3  1  0.99217591  0.99504552  0.64641500  1
  Ga  Ga4  1  0.49577118  0.99821445  0.64723077  1
  Ga  Ga5  1  0.99408889  0.99170938  0.15007630  1
  Ga  Ga6  1  0.49901544  0.00082087  0.15106407  1
  Ga  Ga7  1  0.33424097  0.31475108  0.68373521  1
  Ga  Ga8  1  0.33286014  0.33133666  0.48017425  1
  Ga  Ga9  1  0.16704911  0.66805351  0.01700746  1
  Ga  Ga10  1  0.66546195  0.66687376  0.01743658  1
  Ga  Ga11  1  0.66619156  0.65329068  0.31551995  1
  Si  Si0  1  0.85165737  0.70433050  0.25137315  1
  Si  Si1  1  0.35497541  0.00416013  0.74842513  1
  Si  Si2  1  0.85411877  0.00033354  0.75105723  1
  S  S0  1  0.14725521  0.00525014  0.25014567  1
  S  S1  1  0.64273557  0.99620830  0.25051856  1
  S  S2  1  0.35459154  0.70877106  0.24960158  1
  S  S3  1  0.00413544  0.29207145  0.24979212  1
  S  S4  1  0.49884672  0.29037247  0.25033297  1
  S  S5  1  0.14555694  0.28495096  0.74946475  1
  S  S6  1  0.64259351  0.28809317  0.75012519  1
  S  S7  1  0.00221653  0.71562005  0.74959945  1
  S  S8  1  0.49946360  0.70913957  0.74963760  1
  S  S9  1  0.47936733  0.33392658  0.58220205  1
  S  S10  1  0.98283500  0.33414769  0.58354346  1
  S  S11  1  0.18558726  0.04244704  0.58329989  1
  S  S12  1  0.68181512  0.03623554  0.58481434  1
  S  S13  1  0.33447901  0.61944764  0.58417773  1
  S  S14  1  0.83449134  0.62872180  0.58411081  1
  S  S15  1  0.48230182  0.63217614  0.08297700  1
  S  S16  1  0.98342031  0.63108266  0.08263509  1
  S  S17  1  0.33329960  0.03596735  0.08332611  1
  S  S18  1  0.83320180  0.03649948  0.08270708  1
  S  S19  1  0.18351949  0.33152932  0.08358284  1
  S  S20  1  0.68285686  0.33239487  0.08239009  1
  S  S21  1  0.31387726  0.66615866  0.91676355  1
  S  S22  1  0.81393201  0.66678072  0.91690064  1
  S  S23  1  0.02195287  0.37481163  0.91618184  1
  S  S24  1  0.52155008  0.37489404  0.91728010  1
  S  S25  1  0.16437236  0.96026316  0.91682265  1
  S  S26  1  0.66395745  0.95984585  0.91558853  1
  S  S27  1  0.31389835  0.96376098  0.41889519  1
  S  S28  1  0.81405749  0.96163294  0.41546334  1
  S  S29  1  0.16599519  0.36732336  0.41666733  1
  S  S30  1  0.66581739  0.37247030  0.41767424  1
  S  S31  1  0.02020105  0.66873105  0.41586283  1
  S  S32  1  0.52061224  0.66397224  0.41704323  1
  O  O0  1  0.10790653  0.03719354  0.30479613  1
  O  O1  1  0.60329158  0.02781170  0.30325604  1
  O  O2  1  0.40922396  0.79252532  0.30272142  1
  O  O3  1  0.91890865  0.79556020  0.30817513  1
  O  O4  1  0.48659961  0.18210837  0.30349327  1
  O  O5  1  0.98812444  0.18034398  0.30408369  1
  O  O6  1  0.10990463  0.17469153  0.80452361  1
  O  O7  1  0.60598435  0.16951885  0.80411278  1
  O  O8  1  0.48330233  0.78903221  0.80406213  1
  O  O9  1  0.98639933  0.79463537  0.80436095  1
  O  O10  1  0.41563756  0.04199442  0.80879652  1
  O  O11  1  0.92162013  0.04779797  0.80875633  1
  O  O12  1  0.39862500  0.95628803  0.69057796  1
  O  O13  1  0.89744011  0.95358636  0.69327644  1
  O  O14  1  0.09011142  0.20395636  0.69554398  1
  O  O15  1  0.59047578  0.20729845  0.69516292  1
  O  O16  1  0.02055566  0.82669731  0.69514111  1
  O  O17  1  0.52125477  0.82589895  0.69559678  1
  O  O18  1  0.39483845  0.82002372  0.19350031  1
  O  O19  1  0.89301540  0.84018631  0.19266874  1
  O  O20  1  0.02153804  0.21666472  0.19488600  1
  O  O21  1  0.51674306  0.21442952  0.19447514  1
  O  O22  1  0.08901423  0.96923491  0.19585300  1
  O  O23  1  0.58974160  0.96943148  0.19436541  1
  O  O24  1  0.43965385  0.36531304  0.63729296  1
  O  O25  1  0.94428593  0.35727745  0.64039400  1
  O  O26  1  0.24029246  0.12326024  0.63828194  1
  O  O27  1  0.73285244  0.11382547  0.64103523  1
  O  O28  1  0.32183447  0.51286880  0.64067356  1
  O  O29  1  0.82318132  0.52901649  0.64109069  1
  O  O30  1  0.44325649  0.52277521  0.13694994  1
  O  O31  1  0.94560164  0.52573150  0.13830959  1
  O  O32  1  0.31806596  0.11409600  0.13725342  1
  O  O33  1  0.81968840  0.11230391  0.13871012  1
  O  O34  1  0.23823306  0.36213158  0.13732524  1
  O  O35  1  0.73677023  0.36218914  0.13642248  1
  O  O36  1  0.22326412  0.30310410  0.02919724  1
  O  O37  1  0.72266867  0.30358796  0.02829923  1
  O  O38  1  0.42849663  0.55314437  0.02881053  1
  O  O39  1  0.92769140  0.54780390  0.02979821  1
  O  O40  1  0.34780197  0.14340743  0.02883617  1
  O  O41  1  0.84473285  0.14642357  0.02973203  1
  O  O42  1  0.22667332  0.15632279  0.52945317  1
  O  O43  1  0.72368939  0.14864636  0.53211566  1
  O  O44  1  0.34756586  0.53291762  0.53052520  1
  O  O45  1  0.84598454  0.54081456  0.53192735  1
  O  O46  1  0.42151052  0.30113004  0.52898014  1
  O  O47  1  0.92542276  0.30509280  0.53169074  1
  O  O48  1  0.27173168  0.69861291  0.97052870  1
  O  O49  1  0.77103793  0.69757244  0.97045679  1
  O  O50  1  0.07824904  0.46121717  0.97012058  1
  O  O51  1  0.57716107  0.45746662  0.97202339  1
  O  O52  1  0.14821772  0.84805211  0.97192119  1
  O  O53  1  0.64914907  0.84615119  0.96996050  1
  O  O54  1  0.27206988  0.85543139  0.47279071  1
  O  O55  1  0.77269225  0.84924779  0.46827682  1
  O  O56  1  0.15219328  0.44626839  0.47103941  1
  O  O57  1  0.65245941  0.45640510  0.47066300  1
  O  O58  1  0.07535811  0.69264979  0.46877868  1
  O  O59  1  0.57370724  0.68835813  0.47070744  1
  O  O60  1  0.06017929  0.64644428  0.35960247  1
  O  O61  1  0.56051059  0.63291639  0.36167210  1
  O  O62  1  0.26025025  0.88835887  0.36433257  1
  O  O63  1  0.76025117  0.88174418  0.35938633  1
  O  O64  1  0.18147304  0.47633036  0.36240004  1
  O  O65  1  0.68109812  0.48249548  0.36174227  1
  O  O66  1  0.06183332  0.47749777  0.86052817  1
  O  O67  1  0.56257272  0.48037614  0.86311758  1
  O  O68  1  0.17739994  0.87881726  0.86319874  1
  O  O69  1  0.67709722  0.88058207  0.86068526  1
  O  O70  1  0.26190666  0.64132775  0.86162260  1
  O  O71  1  0.76264538  0.64224584  0.86140833  1
  O  O72  1  0.01440292  0.83750095  0.41314764  1
  O  O73  1  0.50938281  0.82155116  0.41014967  1
  O  O74  1  0.40400367  0.98539783  0.41299454  1
  O  O75  1  0.90570032  0.98211955  0.41025850  1
  O  O76  1  0.08508929  0.18563515  0.41004032  1
  O  O77  1  0.58530012  0.19428437  0.41094909  1
  O  O78  1  0.01634908  0.19558722  0.91415424  1
  O  O79  1  0.51636527  0.19553528  0.91451169  1
  O  O80  1  0.08107144  0.97502569  0.91121663  1
  O  O81  1  0.58110741  0.97484400  0.91050297  1
  O  O82  1  0.40513497  0.83060461  0.91326212  1
  O  O83  1  0.90500475  0.83067491  0.91344452  1
  O  O84  1  0.48728271  0.17003871  0.58743746  1
  O  O85  1  0.99293650  0.17028640  0.58773117  1
  O  O86  1  0.09605913  0.02756238  0.59013046  1
  O  O87  1  0.59012222  0.02071317  0.59051384  1
  O  O88  1  0.41798153  0.79711366  0.58724688  1
  O  O89  1  0.91967743  0.80918785  0.58645566  1
  O  O90  1  0.49292433  0.81478296  0.08960787  1
  O  O91  1  0.99457465  0.81407809  0.08805877  1
  O  O92  1  0.41463043  0.01552594  0.08976406  1
  O  O93  1  0.91600278  0.02146668  0.08624766  1
  O  O94  1  0.09201518  0.16947709  0.09049411  1
  O  O95  1  0.59151522  0.16988446  0.08941327  1
  O  O96  1  0.34654169  0.18457181  0.74343165  1
  O  O97  1  0.84400069  0.17810131  0.74646030  1
  O  O98  1  0.23886214  0.31998982  0.74238896  1
  O  O99  1  0.73507693  0.31535523  0.74424177  1
  O  O100  1  0.41514759  0.53554403  0.74192021  1
  O  O101  1  0.91822054  0.53844528  0.74366059  1
  O  O102  1  0.34587584  0.53092883  0.24268190  1
  O  O103  1  0.84662718  0.51392541  0.24554880  1
  O  O104  1  0.41874315  0.30798868  0.24284834  1
  O  O105  1  0.92055277  0.30237544  0.24294612  1
  O  O106  1  0.23629308  0.16223605  0.24283374  1
  O  O107  1  0.73529961  0.14986137  0.24288014  1
  O  O108  1  0.32318507  0.50714966  0.92409275  1
  O  O109  1  0.82314730  0.50707949  0.92402626  1
  O  O110  1  0.43145762  0.35253782  0.92373896  1
  O  O111  1  0.93193383  0.35348618  0.92296547  1
  O  O112  1  0.24392153  0.13886908  0.92382343  1
  O  O113  1  0.74411461  0.13798997  0.92273980  1
  O  O114  1  0.32244510  0.14700326  0.42438631  1
  O  O115  1  0.82308762  0.14029004  0.42094106  1
  O  O116  1  0.24866308  0.34953625  0.42286917  1
  O  O117  1  0.74704416  0.35636529  0.42221099  1
  O  O118  1  0.42882572  0.49814565  0.42204939  1
  O  O119  1  0.92981591  0.51064433  0.42150311  1
  O  O120  1  0.17392239  0.49551550  0.07648756  1
  O  O121  1  0.67345706  0.49607849  0.07584812  1
  O  O122  1  0.07470200  0.64918534  0.07598320  1
  O  O123  1  0.57431476  0.65207661  0.07636102  1
  O  O124  1  0.25166991  0.85233071  0.07658462  1
  O  O125  1  0.75156682  0.85321620  0.07642381  1
  O  O126  1  0.17717639  0.86514642  0.57742601  1
  O  O127  1  0.67135805  0.85678992  0.57874560  1
  O  O128  1  0.25482407  0.63919309  0.57894298  1
  O  O129  1  0.75547165  0.65246489  0.57930471  1
  O  O130  1  0.07254285  0.49426370  0.57782262  1
  O  O131  1  0.56828796  0.49299080  0.57662494  1
  O  O132  1  0.15235411  0.83850016  0.25618062  1
  O  O133  1  0.65022953  0.83137616  0.25603004  1
  O  O134  1  0.26499768  0.69271712  0.25409438  1
  O  O135  1  0.75418457  0.69577527  0.25782330  1
  O  O136  1  0.08083633  0.47561053  0.25611271  1
  O  O137  1  0.58021821  0.47228809  0.25523364  1
  O  O138  1  0.15033267  0.46125332  0.75627337  1
  O  O139  1  0.65005052  0.46408624  0.75728469  1
  O  O140  1  0.07743195  0.68145241  0.75620055  1
  O  O141  1  0.57715371  0.68375193  0.75670968  1
  O  O142  1  0.25812267  0.82284829  0.75242298  1
  O  O143  1  0.75506623  0.82266232  0.75495116  1
loop_
_geom_bond_atom_site_label_1
_geom_bond_atom_site_label_2
_geom_bond_distance
_geom_bond_site_symmetry_2
Na0 O135 2.264818 1_555
Na0 O105 2.334175 1_565
Na0 O107 2.382922 1_565
Na0 O133 2.505005 1_555
Na0 O19 2.600549 1_555
Na0 O33 2.627004 1_565
Na0 O63 2.666288 1_555
Na0 O5 2.837537 1_565
Na1 O103 2.259352 1_555
Na1 O132 2.356349 1_655
Na1 O136 2.455975 1_655
Na1 O105 2.510368 1_555
Na1 O60 2.598911 1_655
Na1 O3 2.654379 1_555
Na1 O31 2.721467 1_555
Na1 O22 2.795839 1_655
Na2 O142 2.225143 1_555
Na2 O100 2.314896 1_555
Na2 O98 2.442516 1_555
Na2 O138 2.504504 1_555
Na2 O12 2.651760 1_555
Na2 O70 2.684995 1_555
Na2 O28 2.685227 1_555
Na2 O8 2.773899 1_555
Na3 O143 2.286457 1_555
Na3 O101 2.332188 1_555
Na3 O99 2.450806 1_555
Na3 O139 2.501826 1_555
Na3 O29 2.575264 1_555
Na3 O13 2.604585 1_555
Na3 O71 2.718923 1_555
Na3 O9 2.843837 1_555
Na4 O97 2.281492 1_555
Na4 O138 2.348626 1_655
Na4 O140 2.419357 1_655
Na4 O101 2.513744 1_555
Na4 O25 2.619376 1_555
Na4 O11 2.650959 1_555
Na4 O66 2.677528 1_655
Na4 O14 2.844490 1_655
Na5 O97 2.320854 1_555
Na5 O143 2.326911 1_545
Na5 O99 2.423636 1_555
Na5 O141 2.437411 1_545
Na5 O27 2.562424 1_555
Na5 O69 2.659415 1_545
Na5 O17 2.776168 1_545
Na5 O7 2.787062 1_555
Na6 O72 2.453976 1_655
Na6 O89 2.467785 1_555
Na6 O75 2.498415 1_555
Na6 O76 2.510013 1_665
Na6 O85 2.511749 1_565
Na6 O86 2.577547 1_665
Na7 O77 2.460567 1_555
Na7 O74 2.476107 1_545
Na7 O73 2.527865 1_545
Na7 O87 2.542415 1_555
Na7 O84 2.572630 1_555
Na7 O88 2.589302 1_545
Na8 O93 2.450561 1_455
Na8 O91 2.484538 1_445
Na8 O78 2.488012 1_554
Na8 O94 2.503932 1_555
Na8 O80 2.505705 1_544
Na8 O83 2.515152 1_444
Na9 O95 2.488109 1_555
Na9 O79 2.488429 1_554
Na9 O90 2.493693 1_545
Na9 O92 2.497066 1_555
Na9 O82 2.512072 1_544
Na9 O81 2.529649 1_544
Na10 O96 2.379901 1_555
Na10 O110 2.498356 1_555
Na10 O112 2.501532 1_555
Na10 O98 2.667711 1_555
Na10 O108 2.672154 1_555
Na10 O100 2.684241 1_555
Na10 O10 3.318030 1_555
Na11 O97 2.430755 1_555
Na11 O113 2.472976 1_555
Na11 O111 2.481813 1_555
Na11 O109 2.570354 1_555
Na11 O99 2.661250 1_555
Na11 O101 2.671310 1_555
Na12 O104 2.529516 1_555
Na12 O118 2.530380 1_555
Na12 O102 2.547744 1_555
Na12 O116 2.551199 1_555
Na12 O106 2.554701 1_555
Na12 O114 2.566158 1_555
Na13 O103 2.391988 1_555
Na13 O117 2.409602 1_555
Na13 O119 2.518734 1_555
Na13 O115 2.577174 1_555
Na13 O107 2.638687 1_555
Na13 O105 2.741749 1_555
Na13 O65 3.330561 1_555
Na14 O134 2.449079 1_555
Na14 O124 2.472956 1_555
Na14 O120 2.501060 1_555
Na14 O136 2.587076 1_555
Na14 O122 2.599611 1_555
Na14 O132 2.618867 1_555
Na15 O135 2.445681 1_555
Na15 O137 2.463885 1_555
Na15 O121 2.517455 1_555
Na15 O123 2.563385 1_555
Na15 O133 2.573144 1_555
Na15 O125 2.593973 1_555
Na15 O35 3.401424 1_555
Na16 O142 2.372964 1_555
Na16 O126 2.452892 1_555
Na16 O128 2.535949 1_555
Na16 O130 2.585769 1_555
Na16 O140 2.593756 1_555
Na16 O138 2.710558 1_555
Na17 O129 2.444772 1_555
Na17 O127 2.468754 1_555
Na17 O143 2.483841 1_555
Na17 O131 2.541345 1_555
Na17 O141 2.645877 1_555
Na17 O139 2.651169 1_555
Mg0 O4 2.013402 1_565
Mg0 O2 2.017287 1_555
Mg0 O1 2.021931 1_565
Mg0 O77 2.060869 1_565
Mg0 O74 2.061369 1_555
Mg0 O73 2.075354 1_555
Mg1 O97 2.005815 1_555
Mg1 O25 2.006040 1_555
Mg1 O27 2.011589 1_555
Mg1 O29 2.042317 1_555
Mg1 O99 2.161449 1_555
Mg1 O101 2.173113 1_555
Mg2 O30 2.037289 1_555
Mg2 O34 2.056988 1_555
Mg2 O102 2.067735 1_555
Mg2 O104 2.068782 1_555
Mg2 O32 2.072519 1_555
Mg2 O106 2.072834 1_555
Mg3 O103 1.952044 1_555
Mg3 O35 1.997633 1_555
Mg3 O107 2.088342 1_555
Mg3 O31 2.096065 1_555
Mg3 O33 2.139093 1_555
Mg3 O105 2.201594 1_555
Mg4 O40 2.037520 1_556
Mg4 O36 2.042265 1_556
Mg4 O38 2.052973 1_556
Mg4 O108 2.077714 1_555
Mg4 O110 2.095460 1_555
Mg4 O112 2.096556 1_555
Mg5 O41 2.006964 1_556
Mg5 O37 2.044329 1_556
Mg5 O39 2.046152 1_556
Mg5 O109 2.067844 1_555
Mg5 O113 2.101743 1_555
Mg5 O111 2.105729 1_555
Mg6 O45 2.031710 1_555
Mg6 O47 2.064078 1_555
Mg6 O117 2.064283 1_555
Mg6 O43 2.080914 1_555
Mg6 O119 2.083907 1_555
Mg6 O115 2.087133 1_555
Mg7 O58 2.003167 1_555
Mg7 O54 2.007600 1_555
Mg7 O130 2.043288 1_555
Mg7 O56 2.046880 1_555
Mg7 O126 2.134434 1_555
Mg7 O128 2.159851 1_555
Mg8 O55 2.008702 1_555
Mg8 O57 2.011341 1_555
Mg8 O59 2.024595 1_555
Mg8 O129 2.084452 1_555
Mg8 O131 2.091831 1_555
Mg8 O127 2.100567 1_555
Mg9 O62 2.001841 1_555
Mg9 O64 2.025680 1_555
Mg9 O134 2.054855 1_555
Mg9 O60 2.073344 1_555
Mg9 O132 2.141362 1_555
Mg9 O136 2.153145 1_555
Mg10 O142 1.947389 1_555
Mg10 O68 1.964387 1_555
Mg10 O70 2.042796 1_555
Mg10 O140 2.088022 1_555
Mg10 O66 2.096795 1_555
Mg10 O138 2.197570 1_555
Mg11 O143 1.984103 1_555
Mg11 O67 1.994946 1_555
Mg11 O69 2.026310 1_555
Mg11 O71 2.038196 1_555
Mg11 O139 2.090981 1_555
Mg11 O141 2.094842 1_555
Ga0 O3 1.813307 1_555
Ga0 O72 1.993429 1_655
Ga0 O0 2.014716 1_665
Ga0 O75 2.031400 1_555
Ga0 O5 2.054756 1_565
Ga0 O76 2.079970 1_665
Ga1 O11 1.820688 1_555
Ga1 O78 2.039109 1_655
Ga1 O9 2.039511 1_545
Ga1 O80 2.047633 1_645
Ga1 O83 2.049660 1_545
Ga1 O6 2.049959 1_655
Ga2 O10 1.800006 1_555
Ga2 O79 2.010033 1_555
Ga2 O82 2.034788 1_545
Ga2 O7 2.035382 1_555
Ga2 O81 2.111737 1_545
Ga2 O8 2.113322 1_545
Ga3 O13 1.812943 1_555
Ga3 O89 1.982977 1_555
Ga3 O85 1.992674 1_565
Ga3 O16 2.058406 1_655
Ga3 O14 2.066625 1_665
Ga3 O86 2.082859 1_665
Ga4 O12 1.802328 1_555
Ga4 O87 1.987216 1_565
Ga4 O15 2.032549 1_565
Ga4 O84 2.051035 1_565
Ga4 O17 2.053347 1_555
Ga4 O88 2.070720 1_555
Ga5 O19 1.830516 1_555
Ga5 O22 2.019027 1_655
Ga5 O20 2.021030 1_665
Ga5 O93 2.061985 1_565
Ga5 O91 2.069719 1_555
Ga5 O94 2.086464 1_665
Ga6 O18 1.932191 1_545
Ga6 O21 1.968710 1_555
Ga6 O23 1.968934 1_545
Ga6 O92 2.046584 1_555
Ga6 O95 2.051822 1_555
Ga6 O90 2.075529 1_545
Ga7 O96 1.819568 1_555
Ga7 O26 1.927827 1_555
Ga7 O24 1.937512 1_555
Ga7 O28 2.061963 1_555
Ga7 O98 2.114989 1_555
Ga7 O100 2.149129 1_555
Ga8 O114 1.958147 1_555
Ga8 O44 1.980067 1_555
Ga8 O46 1.996983 1_555
Ga8 O116 1.998742 1_555
Ga8 O42 2.012960 1_555
Ga8 O118 2.020759 1_555
Ga9 O50 1.975672 1_554
Ga9 O48 1.976621 1_554
Ga9 O122 2.003284 1_555
Ga9 O52 2.007178 1_554
Ga9 O124 2.029008 1_555
Ga9 O120 2.039218 1_555
Ga10 O51 1.967334 1_554
Ga10 O49 1.995044 1_554
Ga10 O123 1.998381 1_555
Ga10 O53 2.005832 1_554
Ga10 O121 2.020713 1_555
Ga10 O125 2.036492 1_555
Ga11 O135 1.875292 1_555
Ga11 O65 1.916951 1_555
Ga11 O61 2.017828 1_555
Ga11 O137 2.035535 1_555
Ga11 O63 2.071158 1_555
Ga11 O133 2.147742 1_555
O0 S0 1.484192 1_555
O1 S1 1.449124 1_545
O2 S2 1.462203 1_555
O3 Si0 1.631920 1_555
O4 S4 1.455387 1_555
O5 S3 1.482330 1_655
O6 S5 1.481525 1_555
O7 S6 1.495981 1_555
O8 S8 1.489335 1_555
O9 S7 1.488820 1_655
O10 Si1 1.635777 1_555
O11 Si2 1.644987 1_555
O12 Si1 1.645019 1_565
O13 Si2 1.635931 1_565
O14 S5 1.478516 1_555
O15 S6 1.474851 1_555
O16 S7 1.477185 1_555
O17 S8 1.490350 1_555
O18 S2 1.513370 1_555
O19 Si0 1.657467 1_555
O20 S3 1.485772 1_555
O21 S4 1.509321 1_555
O22 S0 1.504123 1_565
O23 S1 1.499415 1_555
O24 S9 1.493691 1_555
O25 S10 1.488353 1_555
O26 S11 1.492486 1_555
O27 S12 1.486957 1_555
O28 S13 1.507365 1_555
O29 S14 1.489094 1_555
O30 S15 1.465076 1_555
O31 S16 1.479556 1_555
O32 S17 1.465238 1_555
O33 S18 1.481342 1_555
O34 S19 1.466308 1_555
O35 S20 1.464990 1_555
O36 S19 1.470659 1_555
O37 S20 1.467224 1_555
O38 S15 1.468972 1_555
O39 S16 1.464053 1_555
O40 S17 1.469346 1_555
O41 S18 1.462546 1_555
O42 S11 1.483818 1_555
O43 S12 1.460008 1_555
O44 S13 1.486374 1_555
O45 S14 1.456151 1_555
O46 S9 1.484894 1_555
O47 S10 1.461079 1_555
O48 S21 1.497169 1_555
O49 S22 1.494753 1_555
O50 S23 1.492464 1_555
O51 S24 1.496751 1_555
O52 S25 1.498964 1_555
O53 S26 1.496456 1_555
O54 S27 1.467253 1_555
O55 S28 1.460597 1_555
O56 S29 1.467414 1_555
O57 S30 1.463376 1_555
O58 S31 1.464940 1_555
O59 S32 1.457622 1_555
O60 S31 1.487357 1_555
O61 S32 1.499388 1_555
O62 S27 1.470777 1_555
O63 S28 1.505372 1_555
O64 S29 1.470225 1_555
O65 S30 1.506033 1_555
O66 S23 1.475649 1_555
O67 S24 1.460310 1_555
O68 S25 1.460421 1_555
O69 S26 1.474294 1_555
O70 S21 1.473687 1_555
O71 S22 1.474366 1_555
O72 S31 1.510602 1_555
O73 S32 1.474569 1_555
O74 S27 1.473009 1_555
O75 S28 1.502021 1_555
O76 S29 1.496437 1_555
O77 S30 1.476443 1_555
O78 S23 1.502156 1_555
O79 S24 1.507207 1_555
O80 S25 1.508091 1_555
O81 S26 1.500567 1_555
O82 S21 1.502885 1_555
O83 S22 1.499005 1_555
O84 S9 1.492168 1_555
O85 S10 1.511988 1_555
O86 S11 1.489348 1_555
O87 S12 1.521724 1_555
O88 S13 1.489902 1_555
O89 S14 1.515474 1_555
O90 S15 1.501098 1_555
O91 S16 1.498266 1_555
O92 S17 1.504143 1_555
O93 S18 1.497612 1_555
O94 S19 1.502303 1_555
O95 S20 1.502534 1_555
O96 Si1 1.638669 1_555
O97 Si2 1.631975 1_555
O98 S5 1.487067 1_555
O99 S6 1.494615 1_555
O100 S8 1.486477 1_555
O101 S7 1.496047 1_655
O102 S2 1.474541 1_555
O103 Si0 1.607821 1_555
O104 S4 1.471609 1_555
O105 S3 1.494326 1_655
O106 S0 1.460711 1_555
O107 S1 1.487389 1_545
O108 S21 1.468439 1_555
O109 S22 1.472944 1_555
O110 S24 1.471442 1_555
O111 S23 1.474446 1_655
O112 S25 1.472320 1_545
O113 S26 1.474691 1_545
O114 S27 1.518990 1_545
O115 S28 1.476163 1_545
O116 S29 1.513233 1_555
O117 S30 1.477255 1_555
O118 S32 1.515075 1_555
O119 S31 1.474689 1_655
O120 S19 1.513287 1_555
O121 S20 1.507520 1_555
O122 S16 1.507099 1_455
O123 S15 1.513068 1_555
O124 S17 1.511578 1_565
O125 S18 1.508808 1_565
O126 S11 1.469798 1_565
O127 S12 1.474010 1_565
O128 S13 1.469632 1_555
O129 S14 1.478440 1_555
O130 S10 1.475101 1_455
O131 S9 1.463250 1_555
O132 S0 1.491326 1_565
O133 S1 1.496657 1_555
O134 S2 1.481856 1_555
O135 Si0 1.649110 1_555
O136 S3 1.477677 1_555
O137 S4 1.497384 1_555
O138 S5 1.490759 1_555
O139 S6 1.468505 1_555
O140 S7 1.473167 1_555
O141 S8 1.468993 1_555
O142 Si1 1.620879 1_565
O143 Si2 1.628381 1_565
