# generated using pymatgen
data_Na30Mg8Nb16Si27(SO16)9
_symmetry_space_group_name_H-M   'P 1'
_cell_length_a   18.07925994
_cell_length_b   9.04393194
_cell_length_c   22.56123259
_cell_angle_alpha   89.94311595
_cell_angle_beta   90.07573230
_cell_angle_gamma   120.09088554
_symmetry_Int_Tables_number   1
_chemical_formula_structural   Na30Mg8Nb16Si27(SO16)9
_chemical_formula_sum   'Na30 Mg8 Nb16 Si27 S9 O144'
_cell_volume   3191.77678948
_cell_formula_units_Z   1
loop_
 _symmetry_equiv_pos_site_id
 _symmetry_equiv_pos_as_xyz
  1  'x, y, z'
loop_
 _atom_site_type_symbol
 _atom_site_label
 _atom_site_symmetry_multiplicity
 _atom_site_fract_x
 _atom_site_fract_y
 _atom_site_fract_z
 _atom_site_occupancy
  Na  Na0  1  0.18273120  0.00574651  0.74114563  1
  Na  Na1  1  0.65695893  0.33825681  0.58916748  1
  Na  Na2  1  0.01183633  0.67700414  0.58895768  1
  Na  Na3  1  0.50993473  0.67195420  0.58881660  1
  Na  Na4  1  0.65668419  0.97512779  0.08789381  1
  Na  Na5  1  0.50838619  0.34796647  0.08828960  1
  Na  Na6  1  0.48132023  0.68227691  0.90835390  1
  Na  Na7  1  0.98366643  0.68497431  0.90940415  1
  Na  Na8  1  0.35609789  0.03383818  0.91626626  1
  Na  Na9  1  0.85621884  0.03445017  0.91319863  1
  Na  Na10  1  0.15991638  0.28809252  0.91593556  1
  Na  Na11  1  0.66038122  0.28721903  0.91320575  1
  Na  Na12  1  0.48244480  0.28235758  0.40649135  1
  Na  Na13  1  0.98314561  0.28626472  0.41525182  1
  Na  Na14  1  0.16008538  0.03512640  0.41494445  1
  Na  Na15  1  0.65979245  0.03272117  0.41271421  1
  Na  Na16  1  0.35769077  0.67831332  0.41412669  1
  Na  Na17  1  0.85623659  0.67934025  0.41352367  1
  Na  Na18  1  0.99955441  0.01191822  0.49436136  1
  Na  Na19  1  0.49511012  0.00252678  0.49240088  1
  Na  Na20  1  0.00077575  0.99942259  0.99089168  1
  Na  Na21  1  0.49394484  0.98608694  0.99159766  1
  Na  Na22  1  0.34558218  0.36244547  0.82615897  1
  Na  Na23  1  0.83826971  0.34599368  0.82185406  1
  Na  Na24  1  0.33967953  0.33140249  0.32125275  1
  Na  Na25  1  0.83227521  0.33284878  0.32531094  1
  Na  Na26  1  0.16663631  0.66658436  0.16076578  1
  Na  Na27  1  0.67168792  0.66438222  0.16753934  1
  Na  Na28  1  0.16947432  0.65079343  0.66576077  1
  Na  Na29  1  0.67233671  0.67952031  0.66936937  1
  Mg  Mg0  1  0.99942667  0.99983420  0.35355291  1
  Mg  Mg1  1  0.50000257  0.00604873  0.35299852  1
  Mg  Mg2  1  0.99794610  0.99127807  0.85394110  1
  Mg  Mg3  1  0.49948813  0.99290566  0.85395754  1
  Mg  Mg4  1  0.34086444  0.34863627  0.68320923  1
  Mg  Mg5  1  0.83803889  0.34298554  0.68405483  1
  Mg  Mg6  1  0.33915661  0.33333342  0.18315657  1
  Mg  Mg7  1  0.83303021  0.33322046  0.18056578  1
  Nb  Nb0  1  0.00115170  0.99384947  0.64322784  1
  Nb  Nb1  1  0.49949588  0.98641852  0.64424719  1
  Nb  Nb2  1  0.00164900  0.99806138  0.13940532  1
  Nb  Nb3  1  0.49750620  0.01156059  0.14331620  1
  Nb  Nb4  1  0.33327108  0.33720760  0.98171715  1
  Nb  Nb5  1  0.83478992  0.33643860  0.98153160  1
  Nb  Nb6  1  0.33438607  0.33187454  0.48164751  1
  Nb  Nb7  1  0.83444584  0.33160927  0.48113429  1
  Nb  Nb8  1  0.16590948  0.66197080  0.02264926  1
  Nb  Nb9  1  0.66895879  0.66761429  0.02100223  1
  Nb  Nb10  1  0.16730513  0.66688284  0.52234373  1
  Nb  Nb11  1  0.66889932  0.67240969  0.52041389  1
  Nb  Nb12  1  0.16683969  0.66744552  0.31423268  1
  Nb  Nb13  1  0.66202363  0.65486472  0.31261156  1
  Nb  Nb14  1  0.16135063  0.66598827  0.81490032  1
  Nb  Nb15  1  0.66239470  0.66908463  0.81345981  1
  Si  Si0  1  0.49462117  0.29168571  0.25483666  1
  Si  Si1  1  0.99587558  0.69902420  0.75429225  1
  Si  Si2  1  0.49579133  0.69782051  0.75533087  1
  Si  Si3  1  0.47888559  0.32985852  0.58481251  1
  Si  Si4  1  0.97745059  0.33051305  0.58590374  1
  Si  Si5  1  0.19219749  0.04651712  0.58879401  1
  Si  Si6  1  0.69308755  0.04504402  0.58760320  1
  Si  Si7  1  0.32915187  0.61601389  0.58569448  1
  Si  Si8  1  0.83123921  0.61918759  0.58524599  1
  Si  Si9  1  0.47836799  0.62670197  0.08546666  1
  Si  Si10  1  0.97803981  0.61482374  0.08730592  1
  Si  Si11  1  0.32760628  0.04164822  0.08559396  1
  Si  Si12  1  0.83341967  0.04718927  0.08626630  1
  Si  Si13  1  0.19435141  0.33989007  0.08848800  1
  Si  Si14  1  0.69128856  0.34029911  0.08669515  1
  Si  Si15  1  0.30998495  0.66539362  0.91576013  1
  Si  Si16  1  0.81058057  0.66403542  0.91449809  1
  Si  Si17  1  0.01954568  0.37326326  0.91729699  1
  Si  Si18  1  0.51984701  0.37527070  0.91706931  1
  Si  Si19  1  0.16810422  0.96068127  0.91792119  1
  Si  Si20  1  0.66827344  0.96163515  0.91773821  1
  Si  Si21  1  0.31157083  0.95817541  0.41678349  1
  Si  Si22  1  0.81071408  0.95770603  0.41328422  1
  Si  Si23  1  0.16771350  0.37727194  0.41649017  1
  Si  Si24  1  0.66814715  0.37554184  0.41781450  1
  Si  Si25  1  0.02037632  0.66580775  0.41685552  1
  Si  Si26  1  0.52004243  0.66481712  0.41635478  1
  S  S0  1  0.14374538  -0.00199250  0.25205079  1
  S  S1  1  0.64751231  0.00157683  0.25137102  1
  S  S2  1  0.35359676  0.70970679  0.25186779  1
  S  S3  1  0.85620676  0.71072085  0.25182807  1
  S  S4  1  0.99995104  0.29012987  0.25171062  1
  S  S5  1  0.14426824  0.29134800  0.75162374  1
  S  S6  1  0.64523662  0.29111604  0.75123537  1
  S  S7  1  0.35519402  0.99905459  0.75165095  1
  S  S8  1  0.85553018  -0.00104145  0.75151869  1
  O  O0  1  0.10126551  0.00691466  0.30700299  1
  O  O1  1  0.60368826  0.00970481  0.30537893  1
  O  O2  1  0.40062222  0.78990679  0.30712448  1
  O  O3  1  0.90377224  0.79363612  0.30684460  1
  O  O4  1  0.49316007  0.19140918  0.31356706  1
  O  O5  1  0.99460974  0.19716941  0.30708678  1
  O  O6  1  0.10202265  0.19543064  0.80587267  1
  O  O7  1  0.60089137  0.19561575  0.80498441  1
  O  O8  1  0.49315850  0.79513302  0.81344357  1
  O  O9  1  0.99730336  0.79970006  0.81285141  1
  O  O10  1  0.40258002  0.01489065  0.80633700  1
  O  O11  1  0.90279918  0.01505006  0.80672077  1
  O  O12  1  0.40196642  0.98664074  0.69833409  1
  O  O13  1  0.90279436  0.98254490  0.69892737  1
  O  O14  1  0.09011845  0.20393432  0.69790324  1
  O  O15  1  0.59179494  0.20509506  0.69624263  1
  O  O16  1  0.01153776  0.83174101  0.69452546  1
  O  O17  1  0.50733025  0.82542620  0.69437783  1
  O  O18  1  0.39967054  0.82017549  0.19921014  1
  O  O19  1  0.90206699  0.81946439  0.19912123  1
  O  O20  1  0.01000375  0.20115077  0.19935129  1
  O  O21  1  0.50679388  0.18850915  0.19448445  1
  O  O22  1  0.08816165  0.97668136  0.19945335  1
  O  O23  1  0.59540356  0.98221246  0.19669225  1
  O  O24  1  0.44163476  0.38673688  0.63737650  1
  O  O25  1  0.94162529  0.39121018  0.63823493  1
  O  O26  1  0.24219817  0.11902334  0.64887861  1
  O  O27  1  0.74833476  0.12931343  0.64387462  1
  O  O28  1  0.31259022  0.50582283  0.64266335  1
  O  O29  1  0.80477597  0.49322425  0.63929302  1
  O  O30  1  0.44283844  0.49625609  0.13839023  1
  O  O31  1  0.93944003  0.50669277  0.14487514  1
  O  O32  1  0.31459394  0.12046262  0.14334023  1
  O  O33  1  0.80615902  0.11678636  0.14104486  1
  O  O34  1  0.24959552  0.36951749  0.14516499  1
  O  O35  1  0.74478371  0.36768028  0.14424514  1
  O  O36  1  0.23388932  0.30248074  0.02589859  1
  O  O37  1  0.73220377  0.29983783  0.02594429  1
  O  O38  1  0.41947602  0.53895387  0.02376359  1
  O  O39  1  0.91806474  0.53326624  0.02585019  1
  O  O40  1  0.35120070  0.16651699  0.02483045  1
  O  O41  1  0.84979609  0.16396028  0.02486634  1
  O  O42  1  0.23701196  0.16631803  0.52819774  1
  O  O43  1  0.73368896  0.16619037  0.52586423  1
  O  O44  1  0.35137393  0.53683664  0.52475266  1
  O  O45  1  0.85208069  0.53775717  0.52423008  1
  O  O46  1  0.41970722  0.30104201  0.52318297  1
  O  O47  1  0.91895014  0.30031786  0.52339249  1
  O  O48  1  0.25978492  0.68670616  0.97171720  1
  O  O49  1  0.75912523  0.68384029  0.97143469  1
  O  O50  1  0.08253246  0.46878373  0.97244010  1
  O  O51  1  0.57940467  0.46917587  0.97503027  1
  O  O52  1  0.15386876  0.82862388  0.97098626  1
  O  O53  1  0.65584315  0.83949818  0.97469356  1
  O  O54  1  0.25906740  0.83347520  0.47176678  1
  O  O55  1  0.76148177  0.83507408  0.47084707  1
  O  O56  1  0.15284625  0.47606653  0.47138531  1
  O  O57  1  0.65595571  0.47335873  0.47466585  1
  O  O58  1  0.07951964  0.69330818  0.47470445  1
  O  O59  1  0.57960614  0.69101274  0.47455961  1
  O  O60  1  0.07043900  0.63315763  0.35964200  1
  O  O61  1  0.56846092  0.62938346  0.35978423  1
  O  O62  1  0.24735880  0.86168620  0.35811082  1
  O  O63  1  0.74660320  0.86449833  0.35689327  1
  O  O64  1  0.18440818  0.50754022  0.35823244  1
  O  O65  1  0.68460640  0.50645157  0.36072762  1
  O  O66  1  0.06612117  0.50503655  0.85872171  1
  O  O67  1  0.56865882  0.50727583  0.85986112  1
  O  O68  1  0.18386424  0.86837261  0.85721019  1
  O  O69  1  0.68446201  0.86278490  0.86053068  1
  O  O70  1  0.24594287  0.63249880  0.85766968  1
  O  O71  1  0.74684129  0.62993650  0.85733702  1
  O  O72  1  0.01006563  0.83116122  0.41008694  1
  O  O73  1  0.51032196  0.83061400  0.40990159  1
  O  O74  1  0.40337102  0.97308250  0.41399442  1
  O  O75  1  0.90465823  0.97981246  0.41062922  1
  O  O76  1  0.08473677  0.19101783  0.41011349  1
  O  O77  1  0.58653160  0.18710657  0.41503125  1
  O  O78  1  0.00897530  0.18781792  0.90961181  1
  O  O79  1  0.51057867  0.19038051  0.91035230  1
  O  O80  1  0.08722602  0.98816662  0.91408214  1
  O  O81  1  0.58641308  0.98562457  0.91487363  1
  O  O82  1  0.40304051  0.83328684  0.91335533  1
  O  O83  1  0.90315872  0.83294831  0.91405484  1
  O  O84  1  0.49419476  0.16606570  0.59185290  1
  O  O85  1  0.98830962  0.16136012  0.59293180  1
  O  O86  1  0.09337053  0.02392599  0.59153775  1
  O  O87  1  0.59480979  0.02650458  0.59187976  1
  O  O88  1  0.41943569  0.81021726  0.59073010  1
  O  O89  1  0.91971114  0.80912459  0.59134689  1
  O  O90  1  0.49358158  0.82141336  0.09325206  1
  O  O91  1  0.98878004  0.81267172  0.09333322  1
  O  O92  1  0.41869261  0.02768952  0.09059558  1
  O  O93  1  0.91890952  0.02434610  0.09441562  1
  O  O94  1  0.09519596  0.16278544  0.09513893  1
  O  O95  1  0.59310109  0.16148442  0.09131997  1
  O  O96  1  0.33973070  0.14338788  0.74664039  1
  O  O97  1  0.84267030  0.14464408  0.74507633  1
  O  O98  1  0.22797333  0.30220430  0.74684947  1
  O  O99  1  0.72931115  0.30726715  0.74680075  1
  O  O100  1  0.41633280  0.50976808  0.74831528  1
  O  O101  1  0.91614151  0.51202851  0.74781534  1
  O  O102  1  0.34014406  0.53846892  0.24613289  1
  O  O103  1  0.84469320  0.53883245  0.24783022  1
  O  O104  1  0.41611706  0.32304413  0.24844615  1
  O  O105  1  0.92507290  0.31156456  0.24736102  1
  O  O106  1  0.22828388  0.14593676  0.24752248  1
  O  O107  1  0.73319984  0.15330451  0.24825037  1
  O  O108  1  0.31517291  0.48846921  0.92061612  1
  O  O109  1  0.81606110  0.48850192  0.92200900  1
  O  O110  1  0.42762979  0.36853391  0.92082399  1
  O  O111  1  0.92760760  0.36780500  0.92165346  1
  O  O112  1  0.25781546  0.14475886  0.92167454  1
  O  O113  1  0.75765052  0.14556597  0.92126125  1
  O  O114  1  0.31442461  0.14219378  0.42083604  1
  O  O115  1  0.81574808  0.14397113  0.42120011  1
  O  O116  1  0.25588261  0.36892445  0.42204022  1
  O  O117  1  0.75773827  0.37026304  0.42124381  1
  O  O118  1  0.42735494  0.48748264  0.42113639  1
  O  O119  1  0.92812253  0.48652326  0.41969305  1
  O  O120  1  0.17387789  0.49358838  0.07469409  1
  O  O121  1  0.66758095  0.49161380  0.07627358  1
  O  O122  1  0.07428979  0.65170213  0.07368206  1
  O  O123  1  0.57611353  0.65852411  0.07306358  1
  O  O124  1  0.25117459  0.84753999  0.07354155  1
  O  O125  1  0.75163346  0.85404010  0.07331519  1
  O  O126  1  0.16937138  0.84818602  0.57601078  1
  O  O127  1  0.66878157  0.84614760  0.57602263  1
  O  O128  1  0.25170332  0.65565434  0.57362246  1
  O  O129  1  0.75073107  0.65055154  0.57295688  1
  O  O130  1  0.07312540  0.49663083  0.57204155  1
  O  O131  1  0.57616868  0.49555576  0.57265547  1
  O  O132  1  0.14893446  0.83362431  0.25366725  1
  O  O133  1  0.65393522  0.84011898  0.25282333  1
  O  O134  1  0.26672218  0.70254686  0.25337276  1
  O  O135  1  0.77002259  0.70146565  0.25294254  1
  O  O136  1  0.08168187  0.46600686  0.25371605  1
  O  O137  1  0.59000292  0.48535265  0.25477234  1
  O  O138  1  0.15348859  0.46625203  0.75257504  1
  O  O139  1  0.65192649  0.46530264  0.75192078  1
  O  O140  1  0.09262569  0.70067719  0.75290429  1
  O  O141  1  0.59030312  0.69503541  0.75440673  1
  O  O142  1  0.26865017  0.83553457  0.75151462  1
  O  O143  1  0.77004163  0.83346246  0.75229686  1
loop_
_geom_bond_atom_site_label_1
_geom_bond_atom_site_label_2
_geom_bond_distance
_geom_bond_site_symmetry_2
Na0 O26 2.331512 1_555
Na0 O98 2.382328 1_555
Na0 O140 2.414365 1_545
Na0 O96 2.465358 1_555
Na0 O142 2.689504 1_545
Na0 O16 2.876247 1_545
Na0 O68 2.901681 1_545
Na0 O6 3.118527 1_555
Na1 O87 2.457395 1_555
Na1 O129 2.486600 1_555
Na1 O131 2.525295 1_555
Na1 O84 2.548171 1_555
Na1 O29 2.573799 1_555
Na1 O15 2.693174 1_555
Na1 O57 2.860509 1_555
Na1 O43 2.925761 1_555
Na2 O130 2.418558 1_555
Na2 O126 2.484702 1_555
Na2 O89 2.490125 1_455
Na2 O25 2.497209 1_455
Na2 O86 2.717149 1_565
Na2 O16 2.765021 1_555
Na2 O58 2.826704 1_555
Na2 O45 2.899274 1_455
Na3 O131 2.455577 1_555
Na3 O24 2.486528 1_555
Na3 O127 2.505435 1_555
Na3 O88 2.508845 1_555
Na3 O17 2.770038 1_555
Na3 O87 2.776244 1_565
Na3 O59 2.837474 1_555
Na3 O44 2.877495 1_555
Na4 O95 2.472085 1_565
Na4 O125 2.478195 1_555
Na4 O123 2.500156 1_555
Na4 O90 2.555877 1_555
Na4 O33 2.627747 1_565
Na4 O23 2.708402 1_555
Na4 O53 2.831051 1_554
Na4 O37 2.901361 1_565
Na5 O123 2.461005 1_555
Na5 O30 2.465934 1_555
Na5 O121 2.509355 1_555
Na5 O92 2.512434 1_555
Na5 O21 2.787922 1_555
Na5 O95 2.790064 1_555
Na5 O51 2.823366 1_554
Na5 O40 2.852407 1_555
Na6 O8 2.334636 1_555
Na6 O82 2.412405 1_555
Na6 O81 2.435440 1_555
Na6 O110 2.511952 1_555
Na6 O108 2.625538 1_555
Na6 O38 2.873624 1_556
Na6 O67 2.951129 1_555
Na6 O53 3.116163 1_555
Na7 O9 2.371279 1_555
Na7 O83 2.423718 1_555
Na7 O80 2.426413 1_655
Na7 O111 2.532904 1_555
Na7 O109 2.649979 1_555
Na7 O39 2.925831 1_556
Na7 O66 2.935775 1_655
Na7 O52 3.011731 1_655
Na8 O82 2.357603 1_545
Na8 O79 2.420359 1_555
Na8 O112 2.442682 1_555
Na8 O110 2.630681 1_555
Na8 O10 2.652814 1_555
Na8 O40 2.749528 1_556
Na8 O48 2.994918 1_545
Na8 O68 3.005189 1_545
Na9 O83 2.364795 1_545
Na9 O78 2.390978 1_655
Na9 O113 2.452670 1_555
Na9 O11 2.581712 1_555
Na9 O111 2.624903 1_555
Na9 O41 2.806346 1_556
Na9 O69 2.936748 1_545
Na9 O49 3.046081 1_545
Na10 O80 2.347784 1_545
Na10 O78 2.409843 1_555
Na10 O108 2.464336 1_555
Na10 O6 2.661125 1_555
Na10 O112 2.670130 1_555
Na10 O36 2.788861 1_556
Na10 O50 2.924780 1_555
Na10 O70 2.998073 1_555
Na11 O81 2.360483 1_545
Na11 O79 2.393189 1_555
Na11 O109 2.477226 1_555
Na11 O7 2.628336 1_555
Na11 O113 2.650385 1_555
Na11 O37 2.830524 1_556
Na11 O71 2.962826 1_555
Na11 O51 3.036874 1_555
Na12 O4 2.296437 1_555
Na12 O74 2.426110 1_545
Na12 O77 2.438168 1_555
Na12 O118 2.529335 1_555
Na12 O114 2.660767 1_555
Na12 O46 2.906405 1_555
Na12 O61 2.912478 1_555
Na12 O57 3.122337 1_555
Na13 O76 2.390846 1_655
Na13 O75 2.400502 1_545
Na13 O119 2.467190 1_555
Na13 O5 2.611547 1_555
Na13 O115 2.632241 1_555
Na13 O47 2.733447 1_555
Na13 O56 2.945594 1_655
Na13 O60 2.989962 1_655
Na14 O72 2.398698 1_545
Na14 O76 2.404268 1_555
Na14 O114 2.455855 1_555
Na14 O0 2.617045 1_555
Na14 O116 2.626041 1_555
Na14 O42 2.865776 1_555
Na14 O58 2.996293 1_545
Na14 O62 3.014177 1_545
Na15 O77 2.358241 1_555
Na15 O73 2.386284 1_545
Na15 O115 2.480564 1_555
Na15 O1 2.592141 1_555
Na15 O117 2.659222 1_555
Na15 O43 2.852851 1_555
Na15 O63 2.960968 1_545
Na15 O59 3.017177 1_545
Na16 O74 2.362463 1_555
Na16 O73 2.389571 1_555
Na16 O116 2.466695 1_555
Na16 O2 2.581379 1_555
Na16 O118 2.601627 1_555
Na16 O44 2.779815 1_555
Na16 O64 2.988607 1_555
Na16 O54 3.059123 1_555
Na17 O75 2.401980 1_555
Na17 O72 2.407725 1_655
Na17 O117 2.454278 1_555
Na17 O3 2.590282 1_555
Na17 O119 2.649714 1_555
Na17 O45 2.789496 1_555
Na17 O65 2.936117 1_555
Na17 O55 3.003318 1_555
Na18 O75 2.467684 1_545
Na18 O76 2.471522 1_655
Na18 O72 2.577256 1_645
Na18 O85 2.663884 1_555
Na18 O86 2.738846 1_655
Na18 O89 2.753351 1_545
Na19 O74 2.345475 1_545
Na19 O77 2.408446 1_555
Na19 O73 2.528475 1_545
Na19 O84 2.693234 1_555
Na19 O88 2.726257 1_545
Na19 O87 2.816295 1_555
Na20 O80 2.371340 1_555
Na20 O83 2.391500 1_455
Na20 O78 2.455402 1_565
Na20 O91 2.804921 1_456
Na20 O93 2.835723 1_466
Na20 O94 2.845311 1_566
Na21 O82 2.333793 1_555
Na21 O81 2.409520 1_555
Na21 O79 2.510294 1_565
Na21 O90 2.731557 1_556
Na21 O92 2.739366 1_566
Na21 O95 2.817225 1_566
Na22 O100 2.188179 1_555
Na22 O110 2.583566 1_555
Na22 O108 2.603650 1_555
Na22 O98 2.617217 1_555
Na22 O96 2.636490 1_555
Na22 O112 2.811703 1_555
Na23 O101 2.215520 1_555
Na23 O99 2.484133 1_555
Na23 O97 2.544555 1_555
Na23 O111 2.718297 1_555
Na23 O109 2.730435 1_555
Na23 O113 2.791300 1_555
Na24 O104 2.173617 1_555
Na24 O106 2.499169 1_555
Na24 O102 2.521380 1_555
Na24 O118 2.708615 1_555
Na24 O114 2.719564 1_555
Na24 O116 2.847291 1_555
Na25 O107 2.438980 1_555
Na25 O103 2.480264 1_555
Na25 O105 2.505378 1_555
Na25 O119 2.655141 1_555
Na25 O117 2.661074 1_555
Na25 O115 2.677682 1_555
Na26 O124 2.525915 1_555
Na26 O122 2.536172 1_555
Na26 O120 2.539294 1_555
Na26 O134 2.673295 1_555
Na26 O136 2.693422 1_555
Na26 O132 2.696404 1_555
Na27 O137 2.505901 1_555
Na27 O135 2.525871 1_555
Na27 O121 2.564439 1_555
Na27 O133 2.617341 1_555
Na27 O125 2.658035 1_555
Na27 O123 2.725882 1_555
Na28 O138 2.493313 1_555
Na28 O128 2.544740 1_555
Na28 O140 2.576197 1_555
Na28 O142 2.596698 1_555
Na28 O130 2.647593 1_555
Na28 O126 2.698741 1_555
Na28 O28 3.477350 1_555
Na29 O143 2.467680 1_555
Na29 O141 2.473227 1_555
Na29 O139 2.576068 1_555
Na29 O127 2.607844 1_555
Na29 O129 2.681504 1_555
Na29 O131 2.765610 1_555
Mg0 O72 2.068960 1_655
Mg0 O75 2.078656 1_555
Mg0 O76 2.078913 1_665
Mg0 O3 2.084240 1_555
Mg0 O0 2.093737 1_665
Mg0 O5 2.107981 1_565
Mg1 O4 1.954918 1_555
Mg1 O73 2.119544 1_545
Mg1 O77 2.125418 1_555
Mg1 O74 2.125560 1_545
Mg1 O2 2.144247 1_545
Mg1 O1 2.147653 1_555
Mg2 O9 1.960731 1_555
Mg2 O83 2.090022 1_555
Mg2 O78 2.103602 1_665
Mg2 O80 2.118230 1_655
Mg2 O11 2.122680 1_565
Mg2 O6 2.154844 1_665
Mg3 O8 1.961005 1_555
Mg3 O82 2.097261 1_555
Mg3 O81 2.112053 1_555
Mg3 O79 2.119767 1_565
Mg3 O7 2.138660 1_565
Mg3 O10 2.146470 1_565
Mg4 O28 1.960576 1_555
Mg4 O24 1.970255 1_555
Mg4 O100 2.036667 1_555
Mg4 O26 2.092673 1_555
Mg4 O96 2.334684 1_555
Mg4 O98 2.355977 1_555
Mg5 O25 1.987789 1_555
Mg5 O29 2.010653 1_555
Mg5 O27 2.010784 1_555
Mg5 O101 2.057857 1_555
Mg5 O97 2.294655 1_555
Mg5 O99 2.311298 1_555
Mg6 O32 1.963571 1_555
Mg6 O30 1.984275 1_555
Mg6 O34 1.997669 1_555
Mg6 O104 2.058769 1_555
Mg6 O102 2.330858 1_555
Mg6 O106 2.365465 1_555
Mg7 O31 1.945734 1_555
Mg7 O35 1.951571 1_555
Mg7 O33 1.977697 1_555
Mg7 O107 2.300981 1_555
Mg7 O105 2.323372 1_555
Mg7 O103 2.327434 1_555
Nb0 O86 1.939966 1_565
Nb0 O16 1.948393 1_555
Nb0 O89 1.965138 1_455
Nb0 O85 1.996302 1_465
Nb0 O13 2.138941 1_455
Nb0 O14 2.157242 1_565
Nb1 O17 1.903232 1_555
Nb1 O88 1.943866 1_555
Nb1 O87 1.968461 1_565
Nb1 O84 2.048958 1_565
Nb1 O12 2.146483 1_555
Nb1 O15 2.182234 1_565
Nb2 O94 1.884719 1_565
Nb2 O91 1.886105 1_455
Nb2 O93 1.917415 1_465
Nb2 O22 2.148547 1_555
Nb2 O19 2.179793 1_455
Nb2 O20 2.225244 1_565
Nb3 O21 1.911956 1_555
Nb3 O92 1.915714 1_555
Nb3 O95 1.963156 1_555
Nb3 O90 2.029633 1_545
Nb3 O18 2.155544 1_545
Nb3 O23 2.262300 1_545
Nb4 O36 1.938761 1_556
Nb4 O38 1.950905 1_556
Nb4 O40 1.982981 1_556
Nb4 O108 2.079108 1_555
Nb4 O112 2.084292 1_555
Nb4 O110 2.097298 1_555
Nb5 O39 1.935808 1_556
Nb5 O41 1.970618 1_556
Nb5 O37 1.985465 1_556
Nb5 O111 2.061383 1_555
Nb5 O109 2.066743 1_555
Nb5 O113 2.087928 1_555
Nb6 O46 1.939668 1_555
Nb6 O42 1.950041 1_555
Nb6 O44 1.976886 1_555
Nb6 O118 2.073586 1_555
Nb6 O114 2.082775 1_555
Nb6 O116 2.099072 1_555
Nb7 O47 1.937088 1_555
Nb7 O43 1.960607 1_555
Nb7 O45 1.982342 1_555
Nb7 O115 2.061691 1_555
Nb7 O117 2.086016 1_555
Nb7 O119 2.091829 1_555
Nb8 O48 1.968468 1_554
Nb8 O124 1.978939 1_555
Nb8 O122 1.982058 1_555
Nb8 O120 1.983562 1_555
Nb8 O50 1.991618 1_554
Nb8 O52 2.000614 1_554
Nb9 O49 1.922010 1_554
Nb9 O53 1.982428 1_554
Nb9 O125 1.985458 1_555
Nb9 O51 2.000887 1_554
Nb9 O121 2.011370 1_555
Nb9 O123 2.017578 1_555
Nb10 O54 1.954359 1_555
Nb10 O128 1.956392 1_555
Nb10 O130 1.974814 1_555
Nb10 O56 1.979657 1_555
Nb10 O126 2.024455 1_555
Nb10 O58 2.026452 1_555
Nb11 O55 1.936228 1_555
Nb11 O129 1.980226 1_555
Nb11 O57 1.985300 1_555
Nb11 O59 1.993060 1_555
Nb11 O127 2.012513 1_555
Nb11 O131 2.017603 1_555
Nb12 O62 1.902753 1_555
Nb12 O64 1.906476 1_555
Nb12 O60 1.909301 1_555
Nb12 O134 2.162842 1_555
Nb12 O132 2.171005 1_555
Nb12 O136 2.177216 1_555
Nb13 O61 1.913241 1_555
Nb13 O65 1.921505 1_555
Nb13 O137 1.935546 1_555
Nb13 O63 2.005865 1_555
Nb13 O133 2.211024 1_555
Nb13 O135 2.232256 1_555
Nb14 O66 1.883914 1_555
Nb14 O68 1.918967 1_555
Nb14 O70 1.954937 1_555
Nb14 O140 1.995998 1_555
Nb14 O138 2.237756 1_555
Nb14 O142 2.275899 1_555
Nb15 O67 1.903743 1_555
Nb15 O69 1.912475 1_555
Nb15 O141 1.957144 1_555
Nb15 O71 1.993377 1_555
Nb15 O143 2.236885 1_555
Nb15 O139 2.239354 1_555
O0 S0 1.482616 1_555
O1 S1 1.476140 1_555
O2 S2 1.477738 1_555
O3 S3 1.481522 1_555
O4 Si0 1.597668 1_555
O5 S4 1.481168 1_555
O6 S5 1.473035 1_555
O7 S6 1.471526 1_555
O8 Si2 1.593816 1_555
O9 Si1 1.598092 1_555
O10 S7 1.466697 1_545
O11 S8 1.474932 1_555
O12 S7 1.507571 1_555
O13 S8 1.513365 1_565
O14 S5 1.508324 1_555
O15 S6 1.524178 1_555
O16 Si1 1.730914 1_455
O17 Si2 1.738582 1_555
O18 S2 1.506374 1_555
O19 S3 1.500438 1_555
O20 S4 1.491699 1_455
O21 Si0 1.726961 1_555
O22 S0 1.502720 1_565
O23 S1 1.507294 1_565
O24 Si3 1.573295 1_555
O25 Si4 1.573094 1_555
O26 Si5 1.577624 1_555
O27 Si6 1.557403 1_555
O28 Si7 1.560133 1_555
O29 Si8 1.570285 1_555
O30 Si9 1.571444 1_555
O31 Si10 1.563925 1_555
O32 Si11 1.559351 1_555
O33 Si12 1.575021 1_555
O34 Si13 1.559927 1_555
O35 Si14 1.561956 1_555
O36 Si13 1.692797 1_555
O37 Si14 1.683678 1_555
O38 Si9 1.688892 1_555
O39 Si10 1.684719 1_555
O40 Si11 1.688810 1_555
O41 Si12 1.675270 1_555
O42 Si5 1.679025 1_555
O43 Si6 1.694890 1_555
O44 Si7 1.690112 1_555
O45 Si8 1.691446 1_555
O46 Si3 1.692075 1_555
O47 Si4 1.699830 1_555
O48 Si15 1.622833 1_555
O49 Si16 1.648722 1_555
O50 Si17 1.613309 1_555
O51 Si18 1.634682 1_555
O52 Si19 1.617315 1_555
O53 Si20 1.634273 1_555
O54 Si21 1.624380 1_555
O55 Si22 1.649001 1_555
O56 Si23 1.627378 1_555
O57 Si24 1.635502 1_555
O58 Si25 1.624461 1_555
O59 Si26 1.637452 1_555
O60 Si25 1.686540 1_555
O61 Si26 1.668224 1_555
O62 Si21 1.686374 1_555
O63 Si22 1.640474 1_555
O64 Si23 1.687622 1_555
O65 Si24 1.671463 1_555
O66 Si17 1.693902 1_555
O67 Si18 1.677327 1_555
O68 Si19 1.701786 1_555
O69 Si20 1.678208 1_555
O70 Si15 1.672752 1_555
O71 Si16 1.651265 1_555
O72 Si25 1.604191 1_555
O73 Si26 1.601307 1_555
O74 Si21 1.597673 1_555
O75 Si22 1.608728 1_555
O76 Si23 1.604559 1_555
O77 Si24 1.601221 1_555
O78 Si17 1.599541 1_555
O79 Si18 1.602046 1_555
O80 Si19 1.603579 1_555
O81 Si20 1.601021 1_555
O82 Si15 1.605439 1_555
O83 Si16 1.603531 1_555
O84 Si3 1.645212 1_555
O85 Si4 1.644565 1_555
O86 Si5 1.694743 1_555
O87 Si6 1.701791 1_555
O88 Si7 1.699173 1_555
O89 Si8 1.665194 1_555
O90 Si9 1.649933 1_555
O91 Si10 1.705840 1_555
O92 Si11 1.717113 1_555
O93 Si12 1.668742 1_555
O94 Si13 1.709579 1_555
O95 Si14 1.702608 1_555
O96 S7 1.469831 1_545
O97 S8 1.455292 1_555
O98 S5 1.470652 1_555
O99 S6 1.455850 1_555
O100 Si2 1.590993 1_555
O101 Si1 1.585812 1_555
O102 S2 1.448059 1_555
O103 S3 1.464183 1_555
O104 Si0 1.587016 1_555
O105 S4 1.463757 1_555
O106 S0 1.444315 1_555
O107 S1 1.468441 1_555
O108 Si15 1.652638 1_555
O109 Si16 1.647993 1_555
O110 Si18 1.639821 1_555
O111 Si17 1.641054 1_655
O112 Si19 1.643669 1_545
O113 Si20 1.639835 1_545
O114 Si21 1.641626 1_545
O115 Si22 1.650688 1_545
O116 Si23 1.637816 1_555
O117 Si24 1.645913 1_555
O118 Si26 1.642281 1_555
O119 Si25 1.644161 1_655
O120 Si13 1.637323 1_555
O121 Si14 1.642860 1_555
O122 Si10 1.628804 1_455
O123 Si9 1.665886 1_555
O124 Si11 1.622549 1_565
O125 Si12 1.653179 1_565
O126 Si5 1.652052 1_565
O127 Si6 1.644710 1_565
O128 Si7 1.632624 1_555
O129 Si8 1.639716 1_555
O130 Si4 1.655761 1_455
O131 Si3 1.664887 1_555
O132 S0 1.536248 1_565
O133 S1 1.522073 1_565
O134 S2 1.539601 1_555
O135 S3 1.518149 1_555
O136 S4 1.535798 1_455
O137 Si0 1.735743 1_555
O138 S5 1.505341 1_555
O139 S6 1.518395 1_555
O140 Si1 1.742046 1_455
O141 Si2 1.721624 1_555
O142 S7 1.521484 1_555
O143 S8 1.519759 1_565
