# generated using pymatgen
data_MgCr2Cd2O8
_symmetry_space_group_name_H-M   'P 1'
_cell_length_a   5.40032150
_cell_length_b   5.40032120
_cell_length_c   6.89505097
_cell_angle_alpha   86.71392211
_cell_angle_beta   93.28608080
_cell_angle_gamma   111.50816034
_symmetry_Int_Tables_number   1
_chemical_formula_structural   MgCr2Cd2O8
_chemical_formula_sum   'Mg1 Cr2 Cd2 O8'
_cell_volume   186.63089670
_cell_formula_units_Z   1
loop_
 _symmetry_equiv_pos_site_id
 _symmetry_equiv_pos_as_xyz
  1  'x, y, z'
loop_
 _atom_site_type_symbol
 _atom_site_label
 _atom_site_symmetry_multiplicity
 _atom_site_fract_x
 _atom_site_fract_y
 _atom_site_fract_z
 _atom_site_occupancy
  Mg  Mg0  1  0.50000000  0.50000000  0.50000000  1
  Cr  Cr0  1  0.64808100  0.35191900  0.20902300  1
  Cr  Cr1  1  0.35191900  0.64808100  0.79097700  1
  Cd  Cd0  1  0.00000000  0.00000000  0.50000000  1
  Cd  Cd1  1  0.00000000  0.00000000  0.00000000  1
  O  O0  1  0.69708400  0.75012700  0.74405300  1
  O  O1  1  0.30291600  0.24987300  0.25594700  1
  O  O2  1  0.75012700  0.69708400  0.25594700  1
  O  O3  1  0.24987300  0.30291600  0.74405300  1
  O  O4  1  0.24318400  0.75681600  0.97507700  1
  O  O5  1  0.74748100  0.25251900  0.43489100  1
  O  O6  1  0.75681600  0.24318400  0.02492300  1
  O  O7  1  0.25251900  0.74748100  0.56510900  1
loop_
_geom_bond_atom_site_label_1
_geom_bond_atom_site_label_2
_geom_bond_distance
_geom_bond_site_symmetry_2
Mg0 O0 2.188629 1_555
Mg0 O1 2.188629 1_555
Mg0 O2 2.188629 1_555
Mg0 O3 2.188629 1_555
Mg0 O7 2.284992 1_555
Mg0 O5 2.284992 1_555
Cr0 O6 1.650661 1_555
Cr0 O5 1.738190 1_555
Cr0 O2 1.782792 1_555
Cr0 O1 1.782792 1_555
Cr1 O4 1.650661 1_555
Cr1 O7 1.738190 1_555
Cr1 O3 1.782792 1_555
Cr1 O0 1.782792 1_555
Cd0 O7 2.268049 1_545
Cd0 O5 2.268049 1_455
Cd0 O3 2.401077 1_555
Cd0 O2 2.401077 1_445
Cd0 O1 2.401077 1_555
Cd0 O0 2.401077 1_445
Cd1 O6 2.189816 1_455
Cd1 O4 2.189816 1_544
Cd1 O1 2.436121 1_555
Cd1 O0 2.436121 1_444
Cd1 O3 2.436121 1_554
Cd1 O2 2.436121 1_445
