# generated using pymatgen
data_Na6Mg(CoO3)2
_symmetry_space_group_name_H-M   'P 1'
_cell_length_a   5.80108074
_cell_length_b   6.19879257
_cell_length_c   6.17296119
_cell_angle_alpha   68.97179223
_cell_angle_beta   95.74026272
_cell_angle_gamma   88.08137358
_symmetry_Int_Tables_number   1
_chemical_formula_structural   Na6Mg(CoO3)2
_chemical_formula_sum   'Na6 Mg1 Co2 O6'
_cell_volume   205.58008617
_cell_formula_units_Z   1
loop_
 _symmetry_equiv_pos_site_id
 _symmetry_equiv_pos_as_xyz
  1  'x, y, z'
loop_
 _atom_site_type_symbol
 _atom_site_label
 _atom_site_symmetry_multiplicity
 _atom_site_fract_x
 _atom_site_fract_y
 _atom_site_fract_z
 _atom_site_occupancy
  Na  Na0  1  0.39196015  0.35971738  0.69718375  1
  Na  Na1  1  0.60806872  0.64027326  0.30282376  1
  Na  Na2  1  0.96105232  0.22205960  0.56034120  1
  Na  Na3  1  0.03893115  0.77787862  0.43969058  1
  Na  Na4  1  0.22450097  0.87710819  0.98719017  1
  Na  Na5  1  0.77552840  0.12288869  0.01281613  1
  Mg  Mg0  1  0.00001231  0.50001844  0.99998523  1
  Co  Co0  1  0.62835032  0.81382907  0.69038426  1
  Co  Co1  1  0.37161442  0.18617550  0.30961457  1
  O  O0  1  0.77045185  0.50036493  0.70599149  1
  O  O1  1  0.22954827  0.49965303  0.29400519  1
  O  O2  1  0.81403588  0.77855623  0.98848834  1
  O  O3  1  0.18598041  0.22148952  0.01148309  1
  O  O4  1  0.69775191  0.04587142  0.37794330  1
  O  O5  1  0.30221292  0.95411510  0.62205892  1
loop_
_geom_bond_atom_site_label_1
_geom_bond_atom_site_label_2
_geom_bond_distance
_geom_bond_site_symmetry_2
Na0 O3 2.294659 1_556
Na0 O0 2.392136 1_555
Na0 O1 2.400241 1_555
Na0 O5 2.771940 1_545
Na0 Na5 2.786360 1_556
Na0 Na2 2.815685 1_455
Na0 Na1 2.870630 1_555
Na0 Na3 3.078328 1_555
Na1 O2 2.294814 1_554
Na1 O1 2.392227 1_555
Na1 O0 2.400141 1_555
Na1 O4 2.771825 1_565
Na1 Na4 2.786370 1_554
Na1 Na3 2.815361 1_655
Na1 Na2 3.078402 1_555
Na2 O4 2.333182 1_555
Na2 O5 2.448596 1_645
Na2 O0 2.488244 1_555
Na2 O1 2.598349 1_655
Na2 Na5 2.958217 1_556
Na3 O5 2.333207 1_555
Na3 O4 2.448827 1_465
Na3 O1 2.488031 1_555
Na3 O0 2.597959 1_455
Na3 Na4 2.958440 1_554
Na4 O3 2.198653 1_566
Na4 O5 2.226404 1_555
Na4 O1 2.422092 1_556
Na4 O2 2.478065 1_455
Na5 O2 2.198438 1_544
Na5 O4 2.226488 1_555
Na5 O0 2.422190 1_554
Na5 O3 2.478078 1_655
Mg0 O3 1.980366 1_556
Mg0 O2 1.980439 1_455
Mg0 O0 2.140218 1_455
Mg0 O1 2.140230 1_556
Mg0 Na4 2.694065 1_555
Mg0 Na5 2.694216 1_456
Co0 O2 1.973160 1_555
Co0 O5 1.995136 1_555
Co0 O4 2.038151 1_565
Co0 O0 2.051089 1_555
Co1 O3 1.973106 1_555
Co1 O4 1.995172 1_555
Co1 O5 2.038207 1_545
Co1 O1 2.051086 1_555
