# generated using pymatgen
data_Na6Hf4Al4Si5S7O48
_symmetry_space_group_name_H-M   'P 1'
_cell_length_a   17.48620466
_cell_length_b   8.76951876
_cell_length_c   22.53078420
_cell_angle_alpha   90.02465906
_cell_angle_beta   89.78853483
_cell_angle_gamma   120.28792116
_symmetry_Int_Tables_number   1
_chemical_formula_structural   Na6Hf4Al4Si5S7O48
_chemical_formula_sum   'Na18 Hf12 Al12 Si15 S21 O144'
_cell_volume   2983.37170625
_cell_formula_units_Z   3
loop_
 _symmetry_equiv_pos_site_id
 _symmetry_equiv_pos_as_xyz
  1  'x, y, z'
loop_
 _atom_site_type_symbol
 _atom_site_label
 _atom_site_symmetry_multiplicity
 _atom_site_fract_x
 _atom_site_fract_y
 _atom_site_fract_z
 _atom_site_occupancy
  Na  Na0  1  0.00131066  0.63049716  0.25553307  1
  Na  Na1  1  0.49524084  0.64111637  0.25134789  1
  Na  Na2  1  0.99494960  0.35326732  0.74961306  1
  Na  Na3  1  0.50280070  0.36325684  0.75269237  1
  Na  Na4  1  0.66440218  0.29984851  0.91684549  1
  Na  Na5  1  0.16511155  0.02793264  0.42682226  1
  Na  Na6  1  0.00168702  0.99461952  0.50233873  1
  Na  Na7  1  0.50658089  0.99588477  0.50269888  1
  Na  Na8  1  0.00721062  0.01468242  0.99767917  1
  Na  Na9  1  0.50327096  0.01263517  0.99710385  1
  Na  Na10  1  0.33114070  0.32310129  0.83373121  1
  Na  Na11  1  0.82955708  0.32812131  0.82517267  1
  Na  Na12  1  0.33725150  0.34291922  0.32904213  1
  Na  Na13  1  0.82801132  0.33593596  0.33564630  1
  Na  Na14  1  0.18281986  0.66167515  0.17010200  1
  Na  Na15  1  0.67476121  0.65821748  0.16497812  1
  Na  Na16  1  0.17540816  0.69181424  0.66698354  1
  Na  Na17  1  0.68139021  0.68990939  0.67497942  1
  Hf  Hf0  1  0.49878197  0.01265827  0.34962938  1
  Hf  Hf1  1  0.99884822  0.98345889  0.84926180  1
  Hf  Hf2  1  0.00107154  0.98944019  0.64981829  1
  Hf  Hf3  1  0.50384854  0.99929079  0.64472248  1
  Hf  Hf4  1  0.99796164  0.00728967  0.14125041  1
  Hf  Hf5  1  0.50088769  0.01340946  0.14900401  1
  Hf  Hf6  1  0.32912923  0.32536942  0.97329101  1
  Hf  Hf7  1  0.83054467  0.33617119  0.47465169  1
  Hf  Hf8  1  0.16646977  0.66404795  0.02050567  1
  Hf  Hf9  1  0.66536759  0.65523681  0.02326116  1
  Hf  Hf10  1  0.16491832  0.67533640  0.52482610  1
  Hf  Hf11  1  0.66642639  0.66713523  0.52208400  1
  Al  Al0  1  0.99904677  0.99272042  0.35217860  1
  Al  Al1  1  0.50385483  0.01648643  0.85035139  1
  Al  Al2  1  0.32222197  0.33515258  0.67793590  1
  Al  Al3  1  0.82066946  0.30813287  0.69828906  1
  Al  Al4  1  0.33202770  0.35032485  0.19126049  1
  Al  Al5  1  0.82023494  0.31050559  0.17568852  1
  Al  Al6  1  0.82678937  0.31238946  0.98519059  1
  Al  Al7  1  0.33326611  0.34413771  0.49191168  1
  Al  Al8  1  0.17140906  0.66423448  0.31809512  1
  Al  Al9  1  0.66305232  0.64265963  0.31495328  1
  Al  Al10  1  0.16633379  0.68928684  0.81322917  1
  Al  Al11  1  0.66759112  0.65516625  0.81028026  1
  Si  Si0  1  0.34543954  0.70177783  0.25190969  1
  Si  Si1  1  0.49938434  0.30959676  0.24808000  1
  Si  Si2  1  0.64566069  0.29439702  0.75290498  1
  Si  Si3  1  0.00113165  0.69026936  0.74757114  1
  Si  Si4  1  0.84678008  0.99028515  0.75236947  1
  Si  Si5  1  0.19121346  0.05666696  0.58230713  1
  Si  Si6  1  0.69698178  0.05430386  0.58690854  1
  Si  Si7  1  0.33347429  0.61836425  0.58271414  1
  Si  Si8  1  0.83103073  0.05131179  0.08201508  1
  Si  Si9  1  0.19669904  0.34049737  0.08699550  1
  Si  Si10  1  0.69091752  0.32781338  0.08144350  1
  Si  Si11  1  0.52394828  0.37662309  0.90979759  1
  Si  Si12  1  0.16266621  0.95036661  0.91550677  1
  Si  Si13  1  0.66389311  0.37548752  0.41512640  1
  Si  Si14  1  0.02524438  0.67230483  0.40825528  1
  S  S0  1  0.14514982  0.00069260  0.25215885  1
  S  S1  1  0.65480009  0.00700935  0.25095859  1
  S  S2  1  0.85322735  0.70899645  0.25306281  1
  S  S3  1  0.99841067  0.28629455  0.25436361  1
  S  S4  1  0.15486493  0.30326962  0.75127042  1
  S  S5  1  0.49629009  0.70617225  0.75397190  1
  S  S6  1  0.35233230  0.99682813  0.75237647  1
  S  S7  1  0.47138385  0.33278955  0.58481817  1
  S  S8  1  0.97408889  0.32840704  0.58502847  1
  S  S9  1  0.83362539  0.61868515  0.58516589  1
  S  S10  1  0.47424263  0.61859708  0.08565059  1
  S  S11  1  0.97164622  0.60769832  0.08541720  1
  S  S12  1  0.33268812  0.05003304  0.08573263  1
  S  S13  1  0.31289535  0.67715807  0.90985585  1
  S  S14  1  0.81202656  0.66064872  0.91698672  1
  S  S15  1  0.01636278  0.37724528  0.91539914  1
  S  S16  1  0.66676105  0.95672154  0.91431650  1
  S  S17  1  0.31136361  0.95973464  0.41623274  1
  S  S18  1  0.81254738  0.94853237  0.40988786  1
  S  S19  1  0.16555286  0.37323032  0.41278552  1
  S  S20  1  0.51768667  0.65647524  0.41523933  1
  O  O0  1  0.10218878  0.02864089  0.30545429  1
  O  O1  1  0.61270750  0.03666488  0.30368401  1
  O  O2  1  0.41509384  0.79068486  0.30753843  1
  O  O3  1  0.91363343  0.80135330  0.30393162  1
  O  O4  1  0.48221013  0.18207184  0.30563550  1
  O  O5  1  0.98670451  0.17173917  0.30614375  1
  O  O6  1  0.11299171  0.18909048  0.80401786  1
  O  O7  1  0.59903346  0.16702501  0.81074932  1
  O  O8  1  0.48079714  0.79075652  0.80591320  1
  O  O9  1  0.98461068  0.78390195  0.80548841  1
  O  O10  1  0.41089801  0.02460668  0.80390094  1
  O  O11  1  0.91718993  0.03845877  0.80768477  1
  O  O12  1  0.38819214  0.96673946  0.69730014  1
  O  O13  1  0.89676912  0.96088228  0.69461027  1
  O  O14  1  0.09610654  0.22530904  0.69867667  1
  O  O15  1  0.57540867  0.20280464  0.69742071  1
  O  O16  1  0.02610834  0.82998447  0.69255007  1
  O  O17  1  0.50654296  0.80895002  0.69899801  1
  O  O18  1  0.39536817  0.82781393  0.19400690  1
  O  O19  1  0.89342397  0.81235297  0.19825658  1
  O  O20  1  0.00911674  0.20367952  0.19955759  1
  O  O21  1  0.52380410  0.22161902  0.19256941  1
  O  O22  1  0.08529610  0.96481202  0.20056154  1
  O  O23  1  0.59558833  0.96687344  0.19860307  1
  O  O24  1  0.43238643  0.35487671  0.64029720  1
  O  O25  1  0.93730660  0.35604901  0.63909564  1
  O  O26  1  0.25021939  0.14225157  0.64100596  1
  O  O27  1  0.75634377  0.15479731  0.64265226  1
  O  O28  1  0.32416578  0.51013989  0.64283954  1
  O  O29  1  0.82448610  0.51799021  0.63788249  1
  O  O30  1  0.43581850  0.51587631  0.14063125  1
  O  O31  1  0.93260690  0.50844816  0.14192617  1
  O  O32  1  0.32392276  0.13380585  0.13900702  1
  O  O33  1  0.82465075  0.13824452  0.14381292  1
  O  O34  1  0.25400201  0.35419558  0.14379520  1
  O  O35  1  0.74851495  0.36132102  0.14147066  1
  O  O36  1  0.23672097  0.31663838  0.02517599  1
  O  O37  1  0.73652258  0.31442477  0.01994012  1
  O  O38  1  0.42332282  0.53562092  0.03177952  1
  O  O39  1  0.91992937  0.52851630  0.03186814  1
  O  O40  1  0.34464655  0.14963593  0.03025880  1
  O  O41  1  0.85146158  0.17154099  0.02360079  1
  O  O42  1  0.23672187  0.15842206  0.51924904  1
  O  O43  1  0.73741963  0.15766819  0.52409563  1
  O  O44  1  0.35267700  0.53805795  0.52309567  1
  O  O45  1  0.84555142  0.54331605  0.52899348  1
  O  O46  1  0.42014527  0.31384608  0.53042088  1
  O  O47  1  0.92432871  0.31126369  0.53005381  1
  O  O48  1  0.27429582  0.70149206  0.96633213  1
  O  O49  1  0.77362959  0.68951944  0.97164641  1
  O  O50  1  0.07338583  0.46243098  0.96922707  1
  O  O51  1  0.58655935  0.46003257  0.96886589  1
  O  O52  1  0.15394951  0.84038635  0.97646813  1
  O  O53  1  0.65579509  0.85601755  0.96948047  1
  O  O54  1  0.27255571  0.85484778  0.47044925  1
  O  O55  1  0.77519555  0.84668691  0.46571561  1
  O  O56  1  0.15122699  0.44738575  0.46698427  1
  O  O57  1  0.65408720  0.46854759  0.47504149  1
  O  O58  1  0.08905141  0.71599453  0.46613758  1
  O  O59  1  0.57424755  0.68526892  0.46830159  1
  O  O60  1  0.07471246  0.64864764  0.35013688  1
  O  O61  1  0.56229184  0.64366866  0.36049552  1
  O  O62  1  0.25473277  0.87269614  0.36374593  1
  O  O63  1  0.75410796  0.86194212  0.35872844  1
  O  O64  1  0.18035120  0.48779013  0.36062300  1
  O  O65  1  0.67686334  0.49628897  0.35801073  1
  O  O66  1  0.06122981  0.48004111  0.86141114  1
  O  O67  1  0.57347627  0.50313822  0.85356205  1
  O  O68  1  0.17583795  0.85415875  0.85941552  1
  O  O69  1  0.68141440  0.87581898  0.86232813  1
  O  O70  1  0.25386012  0.64559200  0.85924147  1
  O  O71  1  0.75614443  0.63234744  0.86487301  1
  O  O72  1  0.01488416  0.84986425  0.40137790  1
  O  O73  1  0.50735606  0.81308862  0.41145190  1
  O  O74  1  0.39901106  0.97383451  0.41088006  1
  O  O75  1  0.90220346  0.96972619  0.40228801  1
  O  O76  1  0.08438770  0.19345606  0.40376793  1
  O  O77  1  0.57854329  0.17548925  0.41244897  1
  O  O78  1  0.00622481  0.19981140  0.91285018  1
  O  O79  1  0.51076763  0.17620856  0.90506088  1
  O  O80  1  0.07832383  0.98079664  0.91368210  1
  O  O81  1  0.58535698  0.97348774  0.90940667  1
  O  O82  1  0.40207475  0.83406938  0.90289073  1
  O  O83  1  0.90027550  0.82239102  0.91215311  1
  O  O84  1  0.48040923  0.17468010  0.58748382  1
  O  O85  1  0.98445731  0.17085216  0.58795209  1
  O  O86  1  0.09391081  0.04074994  0.58540322  1
  O  O87  1  0.59747449  0.03023865  0.59067369  1
  O  O88  1  0.41568080  0.82058594  0.58868364  1
  O  O89  1  0.91254514  0.80118524  0.58642027  1
  O  O90  1  0.48413298  0.79579051  0.09009781  1
  O  O91  1  0.98355820  0.78790418  0.09135607  1
  O  O92  1  0.41135842  0.02571197  0.08779028  1
  O  O93  1  0.91568496  0.01681622  0.08811976  1
  O  O94  1  0.09713326  0.16282903  0.09252123  1
  O  O95  1  0.59319814  0.14758946  0.08618115  1
  O  O96  1  0.34654390  0.16092817  0.74748663  1
  O  O97  1  0.84422222  0.17022509  0.74475966  1
  O  O98  1  0.24217958  0.31614763  0.74312836  1
  O  O99  1  0.74178220  0.31720103  0.74537622  1
  O  O100  1  0.41888601  0.52109186  0.74732461  1
  O  O101  1  0.91514915  0.50169711  0.73547034  1
  O  O102  1  0.33947731  0.51134378  0.24468511  1
  O  O103  1  0.84785608  0.53406115  0.24862146  1
  O  O104  1  0.41135917  0.32318532  0.23693576  1
  O  O105  1  0.92053312  0.31113864  0.24950022  1
  O  O106  1  0.23321389  0.15706542  0.24547038  1
  O  O107  1  0.74239458  0.16962590  0.24270423  1
  O  O108  1  0.32218899  0.51866895  0.91673371  1
  O  O109  1  0.82261942  0.50308888  0.92320979  1
  O  O110  1  0.42890277  0.36536367  0.91889752  1
  O  O111  1  0.93006488  0.36981920  0.92296500  1
  O  O112  1  0.25078314  0.14740689  0.91740566  1
  O  O113  1  0.74592726  0.14341539  0.92059240  1
  O  O114  1  0.32146839  0.13764997  0.42077357  1
  O  O115  1  0.82358662  0.12678171  0.41603770  1
  O  O116  1  0.24350693  0.34718997  0.41711689  1
  O  O117  1  0.75162105  0.35465479  0.41760022  1
  O  O118  1  0.43088408  0.49022929  0.42189773  1
  O  O119  1  0.93013880  0.49427412  0.41646089  1
  O  O120  1  0.18251937  0.51206225  0.08149100  1
  O  O121  1  0.67641076  0.49890977  0.07954404  1
  O  O122  1  0.06183238  0.62906835  0.08094744  1
  O  O123  1  0.56367523  0.63919798  0.07992500  1
  O  O124  1  0.25234555  0.87000854  0.08069944  1
  O  O125  1  0.74226668  0.85900734  0.07676381  1
  O  O126  1  0.17667128  0.85575181  0.57967293  1
  O  O127  1  0.68284858  0.85370410  0.57985703  1
  O  O128  1  0.24268139  0.62688002  0.57499085  1
  O  O129  1  0.75360105  0.63815270  0.57906295  1
  O  O130  1  0.06458578  0.48689831  0.57758386  1
  O  O131  1  0.56118305  0.49348246  0.57932442  1
  O  O132  1  0.15264079  0.83995604  0.25763384  1
  O  O133  1  0.66418624  0.85083302  0.26034028  1
  O  O134  1  0.25000760  0.68743192  0.26332504  1
  O  O135  1  0.76553737  0.69270904  0.26004802  1
  O  O136  1  0.07936993  0.46316813  0.25855578  1
  O  O137  1  0.58393673  0.51073179  0.25852369  1
  O  O138  1  0.16441816  0.47846511  0.76056680  1
  O  O139  1  0.65174946  0.48663130  0.75756903  1
  O  O140  1  0.08642548  0.66144185  0.75812831  1
  O  O141  1  0.57726336  0.69440146  0.75876044  1
  O  O142  1  0.26321094  0.83834892  0.76042921  1
  O  O143  1  0.75099639  0.82141645  0.76450753  1
loop_
_geom_bond_atom_site_label_1
_geom_bond_atom_site_label_2
_geom_bond_distance
_geom_bond_site_symmetry_2
Na0 O132 2.340199 1_555
Na0 O103 2.377754 1_455
Na0 O105 2.422383 1_455
Na0 O60 2.455579 1_555
Na0 O136 2.458072 1_555
Na0 O31 2.804282 1_455
Na0 O22 2.816522 1_555
Na0 O3 2.843935 1_455
Na1 O137 2.351550 1_555
Na1 O102 2.369075 1_555
Na1 O104 2.430650 1_555
Na1 O133 2.583507 1_555
Na1 O2 2.669643 1_555
Na1 O30 2.715560 1_555
Na1 O61 2.723513 1_555
Na1 O23 2.753797 1_555
Na2 O97 2.295590 1_555
Na2 O140 2.353828 1_655
Na2 O101 2.361944 1_555
Na2 O138 2.602153 1_655
Na2 O25 2.694489 1_555
Na2 O11 2.717696 1_555
Na2 O66 2.764692 1_655
Na2 O14 2.773288 1_655
Na3 O139 2.264044 1_555
Na3 O96 2.395757 1_555
Na3 O100 2.476630 1_555
Na3 O141 2.516763 1_555
Na3 O67 2.585786 1_555
Na3 O15 2.632779 1_555
Na3 O24 2.804609 1_555
Na3 O10 2.812234 1_555
Na4 O79 2.351632 1_555
Na4 O109 2.424924 1_555
Na4 O113 2.427952 1_555
Na4 O81 2.478061 1_545
Na4 O37 2.619336 1_556
Na4 O7 2.655608 1_555
Na4 O51 2.667458 1_555
Na4 O71 2.778071 1_555
Na5 O72 2.353803 1_545
Na5 O114 2.400713 1_555
Na5 O42 2.405387 1_555
Na5 O116 2.427446 1_555
Na5 O58 2.521955 1_545
Na5 O76 2.538139 1_555
Na5 O62 2.909078 1_545
Na5 O0 2.952515 1_555
Na5 Na6 3.204529 1_545
Na6 O86 2.372845 1_565
Na6 O89 2.491968 1_455
Na6 O85 2.581255 1_465
Na6 O72 2.669874 1_555
Na6 O76 2.738643 1_565
Na6 O75 2.792993 1_455
Na7 O87 2.466888 1_565
Na7 O88 2.481528 1_555
Na7 O77 2.486688 1_565
Na7 O73 2.610625 1_555
Na7 O84 2.651755 1_565
Na7 O74 2.741665 1_555
Na8 O80 2.360319 1_545
Na8 O78 2.513980 1_555
Na8 O94 2.586182 1_556
Na8 O93 2.592308 1_456
Na8 O83 2.626121 1_445
Na8 O91 2.783580 1_446
Na9 O95 2.458736 1_556
Na9 O79 2.487245 1_555
Na9 O81 2.560823 1_545
Na9 O92 2.632970 1_556
Na9 O82 2.705375 1_545
Na9 O90 2.733950 1_546
Na10 O112 2.387819 1_555
Na10 O110 2.475130 1_555
Na10 O96 2.500230 1_555
Na10 O100 2.540194 1_555
Na10 O98 2.553107 1_555
Na10 O108 2.594037 1_555
Na11 O99 2.338643 1_555
Na11 O97 2.370267 1_555
Na11 O101 2.514772 1_555
Na11 O113 2.640964 1_555
Na11 O109 2.725975 1_555
Na11 O111 2.730725 1_555
Na12 O102 2.395690 1_555
Na12 O104 2.494359 1_555
Na12 O106 2.557977 1_555
Na12 O118 2.572144 1_555
Na12 O116 2.581505 1_555
Na12 O114 2.661959 1_555
Na13 O117 2.328834 1_555
Na13 O119 2.439913 1_555
Na13 O103 2.524567 1_555
Na13 O115 2.551397 1_555
Na13 O107 2.563510 1_555
Na13 O105 2.600639 1_555
Na14 O134 2.364968 1_555
Na14 O120 2.387099 1_555
Na14 O124 2.572545 1_555
Na14 O136 2.659787 1_555
Na14 O132 2.726560 1_555
Na14 O122 2.830761 1_555
Na14 O18 3.283050 1_555
Na15 O121 2.386574 1_555
Na15 O125 2.516610 1_555
Na15 O137 2.557931 1_555
Na15 O135 2.596057 1_555
Na15 O123 2.678371 1_555
Na15 O133 2.795144 1_555
Na16 O126 2.430474 1_555
Na16 O140 2.503588 1_555
Na16 O142 2.544156 1_555
Na16 O128 2.580832 1_555
Na16 O130 2.748603 1_555
Na16 O138 2.760611 1_555
Na16 O12 3.330502 1_555
Na17 O143 2.341053 1_555
Na17 O139 2.443940 1_555
Na17 O127 2.573407 1_555
Na17 O141 2.631910 1_555
Na17 O129 2.650990 1_555
Na17 O131 2.899709 1_555
Hf0 O4 1.926489 1_555
Hf0 O2 1.991325 1_545
Hf0 O77 1.997875 1_555
Hf0 O74 2.108923 1_545
Hf0 O1 2.155555 1_555
Hf0 O73 2.300857 1_545
Hf1 O9 1.912613 1_555
Hf1 O11 1.963159 1_565
Hf1 O80 2.021437 1_655
Hf1 O83 2.121763 1_555
Hf1 O6 2.151926 1_665
Hf1 O78 2.328347 1_665
Hf2 O16 1.922442 1_555
Hf2 O13 1.983315 1_455
Hf2 O86 2.047096 1_565
Hf2 O89 2.144436 1_455
Hf2 O14 2.190023 1_565
Hf2 O85 2.242631 1_465
Hf3 O87 1.942752 1_565
Hf3 O15 1.979206 1_565
Hf3 O88 2.000646 1_555
Hf3 O17 2.089344 1_555
Hf3 O84 2.199618 1_565
Hf3 O12 2.230504 1_555
Hf4 O93 1.908896 1_555
Hf4 O94 1.916883 1_655
Hf4 O20 2.095491 1_655
Hf4 O91 2.130736 1_545
Hf4 O19 2.178535 1_545
Hf4 O22 2.201369 1_645
Hf5 O21 1.929060 1_555
Hf5 O18 2.009987 1_545
Hf5 O95 2.015515 1_555
Hf5 O92 2.133336 1_555
Hf5 O23 2.203013 1_545
Hf5 O90 2.219472 1_545
Hf6 O112 1.937085 1_555
Hf6 O36 1.960820 1_556
Hf6 O110 2.009013 1_555
Hf6 O40 2.126528 1_556
Hf6 O108 2.173141 1_555
Hf6 O38 2.190826 1_556
Hf7 O43 1.939079 1_555
Hf7 O117 1.955016 1_555
Hf7 O119 2.055071 1_555
Hf7 O45 2.094623 1_555
Hf7 O47 2.161451 1_555
Hf7 O115 2.214582 1_555
Hf8 O52 1.941180 1_554
Hf8 O120 2.031001 1_555
Hf8 O50 2.054150 1_554
Hf8 O48 2.124021 1_554
Hf8 O124 2.152588 1_555
Hf8 O122 2.170774 1_555
Hf9 O121 1.948100 1_555
Hf9 O51 1.990632 1_554
Hf9 O125 2.010191 1_555
Hf9 O49 2.106306 1_554
Hf9 O123 2.131397 1_555
Hf9 O53 2.212951 1_554
Hf10 O126 1.935129 1_555
Hf10 O128 1.975259 1_555
Hf10 O58 2.031258 1_555
Hf10 O130 2.069700 1_555
Hf10 O54 2.125483 1_555
Hf10 O56 2.295450 1_555
Hf11 O57 1.955482 1_555
Hf11 O127 1.995171 1_555
Hf11 O59 2.089228 1_555
Hf11 O129 2.107575 1_555
Hf11 O131 2.127524 1_555
Hf11 O55 2.161664 1_555
Al0 O72 1.796757 1_655
Al0 O3 1.926360 1_555
Al0 O75 1.955666 1_555
Al0 O0 1.968126 1_665
Al0 O5 1.982875 1_565
Al0 O76 2.009498 1_665
Al1 O7 1.755758 1_555
Al1 O79 1.823399 1_555
Al1 O10 1.967708 1_555
Al1 O82 2.059635 1_545
Al1 O8 2.068770 1_545
Al1 O81 2.121360 1_545
Al2 O28 1.711587 1_555
Al2 O26 1.731285 1_555
Al2 O98 1.973318 1_555
Al2 O24 2.027781 1_555
Al2 O100 2.279751 1_555
Al2 O96 2.373450 1_555
Al3 O27 1.768623 1_555
Al3 O99 1.770447 1_555
Al3 O97 1.798656 1_555
Al3 O101 1.868910 1_555
Al3 O29 2.263023 1_555
Al3 O25 2.287121 1_555
Al4 O34 1.750390 1_555
Al4 O102 1.809398 1_555
Al4 O104 1.839512 1_555
Al4 O30 2.007788 1_555
Al4 O106 2.093332 1_555
Al4 O32 2.177001 1_555
Al5 O33 1.708835 1_555
Al5 O35 1.713740 1_555
Al5 O107 1.987227 1_555
Al5 O31 2.000623 1_555
Al6 O41 1.732601 1_556
Al6 O37 1.767487 1_556
Al6 O113 2.052635 1_555
Al6 O39 2.061092 1_556
Al6 O111 2.131899 1_555
Al6 O109 2.208609 1_555
Al7 O44 1.708610 1_555
Al7 O42 1.761154 1_555
Al7 O46 1.883692 1_555
Al7 O118 2.195329 1_555
Al7 O116 2.316460 1_555
Al7 O114 2.348114 1_555
Al8 O60 1.776739 1_555
Al8 O134 1.777300 1_555
Al8 O64 1.892945 1_555
Al8 O62 1.960994 1_555
Al8 O136 2.156444 1_555
Al8 O132 2.203021 1_555
Al9 O65 1.721212 1_555
Al9 O137 1.807241 1_555
Al9 O135 2.031058 1_555
Al9 O63 2.031593 1_555
Al9 O61 2.039533 1_555
Al9 O133 2.193728 1_555
Al10 O68 1.720052 1_555
Al10 O140 1.794901 1_555
Al10 O142 1.935579 1_555
Al10 O70 2.041474 1_555
Al10 O66 2.123353 1_555
Al10 O138 2.182425 1_555
Al11 O143 1.778087 1_555
Al11 O67 1.792458 1_555
Al11 O139 1.805417 1_555
Al11 O71 2.068223 1_555
Al11 O141 2.126653 1_555
Al11 O69 2.169389 1_555
O0 S0 1.498369 1_555
O1 S1 1.485585 1_555
O2 Si0 1.647676 1_555
O3 S2 1.493475 1_555
O4 Si1 1.637704 1_555
O5 S3 1.484588 1_555
O6 S4 1.485323 1_555
O7 Si2 1.638825 1_555
O8 S5 1.480800 1_555
O9 Si3 1.641971 1_655
O10 S6 1.487500 1_545
O11 Si4 1.653422 1_545
O12 S6 1.470902 1_555
O13 Si4 1.656131 1_555
O14 S4 1.492313 1_555
O15 Si2 1.652930 1_555
O16 Si3 1.638983 1_555
O17 S5 1.488279 1_555
O18 Si0 1.644784 1_555
O19 S2 1.480648 1_555
O20 S3 1.489651 1_455
O21 Si1 1.633819 1_555
O22 S0 1.490759 1_565
O23 S1 1.492802 1_565
O24 S7 1.480447 1_555
O25 S8 1.451767 1_555
O26 Si5 1.614024 1_555
O27 Si6 1.586656 1_555
O28 Si7 1.614321 1_555
O29 S9 1.439863 1_555
O30 S10 1.477068 1_555
O31 S11 1.496594 1_555
O32 S12 1.454447 1_555
O33 Si8 1.617410 1_555
O34 Si9 1.595028 1_555
O35 Si10 1.625132 1_555
O36 Si9 1.616727 1_555
O37 Si10 1.629752 1_555
O38 S10 1.466008 1_555
O39 S11 1.459300 1_555
O40 S12 1.477708 1_555
O41 Si8 1.609111 1_555
O42 Si5 1.650614 1_555
O43 Si6 1.634535 1_555
O44 Si7 1.627090 1_555
O45 S9 1.489455 1_555
O46 S7 1.479959 1_555
O47 S8 1.479776 1_555
O48 S13 1.502985 1_555
O49 S14 1.482111 1_555
O50 S15 1.509948 1_555
O51 Si11 1.645295 1_555
O52 Si12 1.640511 1_555
O53 S16 1.479804 1_555
O54 S17 1.471036 1_555
O55 S18 1.487596 1_555
O56 S19 1.462264 1_555
O57 Si13 1.629792 1_555
O58 Si14 1.634489 1_555
O59 S20 1.492586 1_555
O60 Si14 1.636573 1_555
O61 S20 1.491120 1_555
O62 S17 1.485643 1_555
O63 S18 1.474693 1_555
O64 S19 1.481229 1_555
O65 Si13 1.608223 1_555
O66 S15 1.479285 1_555
O67 Si11 1.615627 1_555
O68 Si12 1.598424 1_555
O69 S16 1.456532 1_555
O70 S13 1.470687 1_555
O71 S14 1.469251 1_555
O72 Si14 1.663243 1_555
O73 S20 1.475357 1_555
O74 S17 1.478599 1_555
O75 S18 1.491918 1_555
O76 S19 1.511934 1_555
O77 Si13 1.633217 1_555
O78 S15 1.475686 1_555
O79 Si11 1.656767 1_555
O80 Si12 1.626489 1_555
O81 S16 1.507431 1_555
O82 S13 1.477764 1_555
O83 S14 1.481918 1_555
O84 S7 1.473732 1_555
O85 S8 1.482936 1_555
O86 Si5 1.636725 1_555
O87 Si6 1.645562 1_555
O88 Si7 1.630705 1_555
O89 S9 1.496348 1_555
O90 S10 1.477660 1_555
O91 S11 1.492209 1_555
O92 S12 1.495484 1_555
O93 Si8 1.659787 1_555
O94 Si9 1.654268 1_555
O95 Si10 1.644323 1_555
O96 S6 1.496821 1_545
O97 Si4 1.610255 1_545
O98 S4 1.483764 1_555
O99 Si2 1.597727 1_555
O100 S5 1.508017 1_555
O101 Si3 1.601327 1_655
O102 Si0 1.628061 1_555
O103 S2 1.492277 1_555
O104 Si1 1.623070 1_555
O105 S3 1.488059 1_555
O106 S0 1.463878 1_555
O107 S1 1.486334 1_555
O108 S13 1.486733 1_555
O109 S14 1.490519 1_555
O110 Si11 1.626639 1_555
O111 S15 1.486416 1_655
O112 Si12 1.636032 1_545
O113 S16 1.527064 1_545
O114 S17 1.482541 1_545
O115 S18 1.481748 1_545
O116 S19 1.494912 1_555
O117 Si13 1.634949 1_555
O118 S20 1.489376 1_555
O119 Si14 1.617516 1_655
O120 Si9 1.648388 1_555
O121 Si10 1.643634 1_555
O122 S11 1.494313 1_455
O123 S10 1.486075 1_555
O124 S12 1.497585 1_565
O125 Si8 1.621119 1_565
O126 Si5 1.649445 1_565
O127 Si6 1.656047 1_565
O128 Si7 1.636474 1_555
O129 S9 1.499522 1_555
O130 S8 1.497921 1_455
O131 S7 1.494501 1_555
O132 S0 1.485197 1_565
O133 S1 1.474668 1_565
O134 Si0 1.628427 1_555
O135 S2 1.474347 1_555
O136 S3 1.484883 1_455
O137 Si1 1.650517 1_555
O138 S4 1.474225 1_555
O139 Si2 1.638045 1_555
O140 Si3 1.651651 1_555
O141 S5 1.475017 1_555
O142 S6 1.485425 1_555
O143 Si4 1.602554 1_555
