# generated using pymatgen
data_Na7La3MgSi3(SO8)3
_symmetry_space_group_name_H-M   'P 1'
_cell_length_a   9.66214447
_cell_length_b   9.59931768
_cell_length_c   23.83539477
_cell_angle_alpha   89.66812306
_cell_angle_beta   89.91497193
_cell_angle_gamma   119.66474211
_symmetry_Int_Tables_number   1
_chemical_formula_structural   Na7La3MgSi3(SO8)3
_chemical_formula_sum   'Na21 La9 Mg3 Si9 S9 O72'
_cell_volume   1920.92947447
_cell_formula_units_Z   3
loop_
 _symmetry_equiv_pos_site_id
 _symmetry_equiv_pos_as_xyz
  1  'x, y, z'
loop_
 _atom_site_type_symbol
 _atom_site_label
 _atom_site_symmetry_multiplicity
 _atom_site_fract_x
 _atom_site_fract_y
 _atom_site_fract_z
 _atom_site_occupancy
  Na  Na0  1  0.64177140  0.99897309  0.24034732  1
  Na  Na1  1  0.40192391  0.38003383  0.23662367  1
  Na  Na2  1  0.97270187  0.62860737  0.25523798  1
  Na  Na3  1  0.62377022  0.62103186  0.73460104  1
  Na  Na4  1  0.98710809  0.34012056  0.74685696  1
  Na  Na5  1  0.39567904  0.03296607  0.75391049  1
  Na  Na6  1  0.00996950  0.69541694  0.57623571  1
  Na  Na7  1  0.66964788  0.94858386  0.58740885  1
  Na  Na8  1  0.32397702  0.99394262  0.08154173  1
  Na  Na9  1  0.65495952  0.69655453  0.09654751  1
  Na  Na10  1  0.68402314  0.03478788  0.91633950  1
  Na  Na11  1  0.33837347  0.28600063  0.91948386  1
  Na  Na12  1  0.95544410  0.29228736  0.40736242  1
  Na  Na13  1  0.32269304  0.00990150  0.41205502  1
  Na  Na14  1  0.72591628  0.69222004  0.41425877  1
  Na  Na15  1  0.97721531  0.97292987  0.49013924  1
  Na  Na16  1  0.01971030  0.01767250  0.00526772  1
  Na  Na17  1  0.64525154  0.30867570  0.82585920  1
  Na  Na18  1  0.68272408  0.34994826  0.32866964  1
  Na  Na19  1  0.35522960  0.66030952  0.16111297  1
  Na  Na20  1  0.36086360  0.64984314  0.66796329  1
  La  La0  1  0.01178708  0.00391208  0.84419656  1
  La  La1  1  0.00032482  0.00750260  0.65338137  1
  La  La2  1  0.98901206  0.01118903  0.14956282  1
  La  La3  1  0.66107209  0.32246623  0.98984778  1
  La  La4  1  0.67037979  0.34605480  0.48469915  1
  La  La5  1  0.32936859  0.67107083  0.02106822  1
  La  La6  1  0.34837600  0.66883640  0.51456421  1
  La  La7  1  0.34434593  0.67791604  0.32012660  1
  La  La8  1  0.34079948  0.67923952  0.81734206  1
  Mg  Mg0  1  0.96698157  0.96115799  0.35137555  1
  Mg  Mg1  1  0.64765759  0.33484592  0.68463563  1
  Mg  Mg2  1  0.65859605  0.33531437  0.17468184  1
  Si  Si0  1  0.70092245  0.68737779  0.25052601  1
  Si  Si1  1  0.31541757  0.31015895  0.75031877  1
  Si  Si2  1  0.69475079  0.01379360  0.74775964  1
  Si  Si3  1  0.66899392  0.63402225  0.58804527  1
  Si  Si4  1  0.66126790  0.03302058  0.08807539  1
  Si  Si5  1  0.37076185  0.33413768  0.08631069  1
  Si  Si6  1  0.33249148  0.97810475  0.91714417  1
  Si  Si7  1  0.65166241  0.97874371  0.41502501  1
  Si  Si8  1  0.03314447  0.67642942  0.41609960  1
  S  S0  1  0.29993782  0.00878520  0.25149005  1
  S  S1  1  0.99527808  0.30015572  0.25538173  1
  S  S2  1  0.98956427  0.68112673  0.74608718  1
  S  S3  1  0.96035476  0.33877400  0.58679721  1
  S  S4  1  0.37309994  0.03423798  0.58644987  1
  S  S5  1  0.96005299  0.62722403  0.08952766  1
  S  S6  1  0.63836221  0.66859517  0.91709411  1
  S  S7  1  0.02808453  0.35997034  0.91449862  1
  S  S8  1  0.31932782  0.34745403  0.41305965  1
  O  O0  1  0.21728708  0.02245259  0.30198476  1
  O  O1  1  0.81057317  0.77855869  0.30582106  1
  O  O2  1  0.98435572  0.20349573  0.30587674  1
  O  O3  1  0.23793685  0.20504725  0.80862694  1
  O  O4  1  0.96637397  0.76180722  0.79532698  1
  O  O5  1  0.80432202  0.03585595  0.80427644  1
  O  O6  1  0.77620498  0.97399851  0.69375229  1
  O  O7  1  0.18710975  0.21338681  0.70058513  1
  O  O8  1  0.02151081  0.78399238  0.69557101  1
  O  O9  1  0.77965430  0.80091444  0.19451709  1
  O  O10  1  0.02297670  0.22821010  0.20490492  1
  O  O11  1  0.20587156  0.99022427  0.20031942  1
  O  O12  1  0.87036904  0.34528404  0.63560509  1
  O  O13  1  0.47146056  0.12526678  0.63465537  1
  O  O14  1  0.66418538  0.52622788  0.64185999  1
  O  O15  1  0.87336053  0.53000283  0.13912965  1
  O  O16  1  0.65740678  0.13803531  0.14171054  1
  O  O17  1  0.48399563  0.35313674  0.14020089  1
  O  O18  1  0.44821971  0.31978566  0.02610389  1
  O  O19  1  0.87367858  0.55411073  0.03702802  1
  O  O20  1  0.67768355  0.12178147  0.02727715  1
  O  O21  1  0.44307093  0.11858949  0.53257152  1
  O  O22  1  0.68159066  0.55594908  0.52788269  1
  O  O23  1  0.87346029  0.32419032  0.53343484  1
  O  O24  1  0.55227075  0.68068496  0.96700939  1
  O  O25  1  0.12960662  0.44776879  0.96285082  1
  O  O26  1  0.32390721  0.87299095  0.97301741  1
  O  O27  1  0.56544830  0.86206485  0.47059009  1
  O  O28  1  0.29810015  0.42819732  0.46275800  1
  O  O29  1  0.14086589  0.69463603  0.47294777  1
  O  O30  1  0.11563324  0.64102121  0.36164360  1
  O  O31  1  0.53444524  0.89555820  0.36095877  1
  O  O32  1  0.35229965  0.45139232  0.36284339  1
  O  O33  1  0.10423891  0.44440948  0.86138514  1
  O  O34  1  0.34521428  0.88934361  0.85982582  1
  O  O35  1  0.54223259  0.64957441  0.86584076  1
  O  O36  1  0.02604575  0.84438672  0.41023387  1
  O  O37  1  0.82899079  0.99524633  0.40851355  1
  O  O38  1  0.17484251  0.18988411  0.40657559  1
  O  O39  1  0.01157387  0.19589643  0.91544887  1
  O  O40  1  0.17805706  0.00814298  0.91742182  1
  O  O41  1  0.79333617  0.81981780  0.91361135  1
  O  O42  1  0.97926291  0.19378087  0.58806592  1
  O  O43  1  0.20647570  0.00376203  0.58962227  1
  O  O44  1  0.83582370  0.81483085  0.58592761  1
  O  O45  1  0.97821667  0.79116315  0.09164847  1
  O  O46  1  0.80472201  0.98609093  0.08637946  1
  O  O47  1  0.19945988  0.16269925  0.08824499  1
  O  O48  1  0.68431784  0.17886513  0.73944925  1
  O  O49  1  0.49120604  0.32481755  0.74327750  1
  O  O50  1  0.84611026  0.52174136  0.74050782  1
  O  O51  1  0.68833083  0.50780799  0.24487800  1
  O  O52  1  0.84501046  0.30783858  0.25016794  1
  O  O53  1  0.46281277  0.15276881  0.24768638  1
  O  O54  1  0.65759740  0.52567009  0.92029904  1
  O  O55  1  0.86662494  0.34109670  0.91784214  1
  O  O56  1  0.50084260  0.15534887  0.91559098  1
  O  O57  1  0.66689422  0.15704100  0.42041491  1
  O  O58  1  0.46082937  0.32488452  0.41997269  1
  O  O59  1  0.84923802  0.52106663  0.41882189  1
  O  O60  1  0.35920502  0.50080008  0.08496513  1
  O  O61  1  0.12345791  0.64746471  0.08840901  1
  O  O62  1  0.48924004  0.85782625  0.08877327  1
  O  O63  1  0.36512225  0.87326796  0.58592853  1
  O  O64  1  0.51439523  0.66638192  0.58776789  1
  O  O65  1  0.11858865  0.48883563  0.58459024  1
  O  O66  1  0.31792572  0.86135325  0.25430455  1
  O  O67  1  0.51584557  0.66275458  0.25295062  1
  O  O68  1  0.13379109  0.46705256  0.25780183  1
  O  O69  1  0.33303528  0.49077174  0.75183200  1
  O  O70  1  0.13106105  0.65949849  0.75347505  1
  O  O71  1  0.51229284  0.85563988  0.75157789  1
loop_
_geom_bond_atom_site_label_1
_geom_bond_atom_site_label_2
_geom_bond_distance
_geom_bond_site_symmetry_2
Na0 O52 2.635886 1_565
Na0 O16 2.663677 1_565
Na0 O66 2.747166 1_555
Na0 O53 2.780104 1_565
Na0 O67 2.843911 1_555
Na0 O9 3.018239 1_555
Na0 O31 3.043772 1_555
Na0 O2 3.296818 1_565
Na0 O10 3.326977 1_665
Na1 O67 2.405199 1_555
Na1 O51 2.417797 1_555
Na1 O17 2.486301 1_555
Na1 O53 2.537560 1_555
Na1 O68 3.131713 1_555
Na1 O32 3.177241 1_555
Na1 O10 3.292525 1_555
Na1 O0 3.355645 1_555
Na2 O51 2.409702 1_555
Na2 O68 2.686974 1_655
Na2 O52 2.694878 1_555
Na2 O30 2.864409 1_655
Na2 O1 2.868108 1_555
Na2 O15 2.935158 1_555
Na2 O66 2.956493 1_655
Na2 O11 3.322106 1_655
Na3 O69 2.477319 1_555
Na3 O49 2.481112 1_555
Na3 O14 2.497917 1_555
Na3 O50 2.751273 1_555
Na3 O71 2.967513 1_555
Na3 O6 3.100848 1_555
Na3 O4 3.238538 1_555
Na3 O35 3.270680 1_555
Na4 O48 2.551169 1_555
Na4 O70 2.672824 1_655
Na4 O50 2.695745 1_555
Na4 O5 2.891968 1_555
Na4 O12 2.892941 1_555
Na4 O69 2.914732 1_655
Na4 O33 2.941822 1_655
Na4 O7 2.960919 1_655
Na4 O6 3.328162 1_545
Na5 O48 2.446099 1_555
Na5 O71 2.463644 1_545
Na5 O49 2.489270 1_555
Na5 O34 2.793275 1_545
Na5 O13 2.953543 1_555
Na5 O3 3.043627 1_555
Na5 O70 3.212027 1_545
Na6 O44 2.471776 1_455
Na6 O43 2.630151 1_565
Na6 O65 2.670139 1_555
Na6 O29 2.767847 1_555
Na6 O8 2.959919 1_555
Na6 O63 2.991894 1_555
Na6 O22 3.001943 1_455
Na6 O12 3.251182 1_455
Na6 O14 3.291011 1_455
Na6 O23 3.297389 1_455
Na7 O64 2.359240 1_555
Na7 O44 2.503733 1_555
Na7 O63 2.660153 1_555
Na7 O6 2.703833 1_555
Na7 O42 2.742331 1_565
Na7 O27 2.943439 1_555
Na8 O47 2.455366 1_565
Na8 O62 2.519954 1_555
Na8 O26 2.841336 1_554
Na8 O61 2.908051 1_555
Na8 O45 2.926282 1_455
Na8 O18 3.033379 1_565
Na8 O11 3.044278 1_555
Na8 O16 3.158288 1_565
Na8 O20 3.267378 1_565
Na9 O46 2.426440 1_555
Na9 O60 2.542903 1_555
Na9 O9 2.597843 1_555
Na9 O62 2.728740 1_555
Na9 O45 2.789929 1_555
Na9 O17 3.040337 1_555
Na9 O24 3.225804 1_554
Na9 O19 3.349956 1_555
Na10 O56 2.549444 1_555
Na10 O55 2.574130 1_555
Na10 O41 2.745332 1_545
Na10 O39 2.750094 1_655
Na10 O20 2.787268 1_556
Na10 O5 2.909368 1_555
Na10 O34 3.160871 1_545
Na10 O24 3.209056 1_545
Na10 O26 3.310078 1_545
Na11 O40 2.329836 1_555
Na11 O56 2.448579 1_555
Na11 O18 2.714193 1_556
Na11 O54 2.789888 1_555
Na11 O3 2.795067 1_555
Na11 O39 2.833052 1_555
Na12 O57 2.442376 1_555
Na12 O37 2.484856 1_545
Na12 O2 2.629335 1_555
Na12 O38 2.742847 1_655
Na12 O59 2.861375 1_555
Na12 O30 3.100577 1_655
Na12 O23 3.161477 1_555
Na12 O28 3.188136 1_655
Na13 O36 2.497011 1_545
Na13 O58 2.640460 1_555
Na13 O38 2.735656 1_555
Na13 O0 2.839118 1_555
Na13 O57 2.907000 1_555
Na13 O29 3.005077 1_545
Na13 O31 3.017462 1_545
Na13 O21 3.088106 1_555
Na13 O30 3.321009 1_545
Na14 O59 2.463136 1_555
Na14 O36 2.521292 1_655
Na14 O37 2.568931 1_555
Na14 O1 2.708187 1_555
Na14 O22 2.937732 1_555
Na14 O27 3.063707 1_555
Na14 Na15 3.165583 1_555
Na14 O58 3.172728 1_555
Na14 O32 3.415133 1_555
Na15 O36 2.444056 1_655
Na15 O37 2.487852 1_555
Na15 O44 2.698280 1_555
Na15 O38 2.820445 1_665
Na15 O42 3.155778 1_565
Na15 O43 3.160998 1_665
Na16 O47 2.552435 1_555
Na16 O40 2.620037 1_554
Na16 O46 2.739083 1_445
Na16 O39 2.758193 1_554
Na16 O45 2.865384 1_445
Na16 O41 3.018994 1_444
Na17 O49 2.519384 1_555
Na17 O48 2.535793 1_555
Na17 O56 2.570887 1_555
Na17 O50 2.845938 1_555
Na17 O55 2.973494 1_555
Na17 O54 3.037980 1_555
Na17 Na5 3.083509 1_555
Na18 O51 2.484231 1_555
Na18 O52 2.598206 1_555
Na18 O59 2.709115 1_555
Na18 O53 2.810146 1_555
Na18 O57 2.811804 1_555
Na18 O58 2.976586 1_555
Na18 Na2 3.252922 1_555
Na19 O60 2.393841 1_555
Na19 O62 2.402064 1_555
Na19 O67 2.678659 1_555
Na19 O61 2.788168 1_555
Na19 O68 3.055730 1_555
Na19 O66 3.086125 1_555
Na19 Na9 3.140000 1_555
Na20 O64 2.373721 1_555
Na20 O69 2.440649 1_555
Na20 O71 2.684877 1_555
Na20 O65 2.878499 1_555
Na20 O63 2.879008 1_555
Na20 O70 3.047204 1_555
Na20 Na3 3.123210 1_555
La0 O3 2.240699 1_555
La0 O40 2.360802 1_555
La0 O5 2.372419 1_455
La0 O4 2.444175 1_445
La0 O39 2.514095 1_555
La0 O41 2.564975 1_445
La1 O7 2.220392 1_555
La1 O6 2.240428 1_445
La1 O44 2.379955 1_445
La1 O42 2.447744 1_455
La1 O8 2.463102 1_545
La1 O43 2.518094 1_555
La2 O46 2.254832 1_545
La2 O9 2.289366 1_545
La2 O47 2.329209 1_655
La2 O10 2.354584 1_655
La2 O45 2.488676 1_545
La2 O11 2.513290 1_645
La3 O20 2.195316 1_556
La3 O18 2.217927 1_556
La3 O56 2.384460 1_555
La3 O19 2.437905 1_556
La3 O55 2.560639 1_555
La3 O54 2.565465 1_555
La4 O22 2.222407 1_555
La4 O59 2.315606 1_555
La4 O57 2.369141 1_555
La4 O23 2.378075 1_555
La4 O21 2.471879 1_555
La4 O58 2.475182 1_555
La5 O26 2.268747 1_554
La5 O62 2.346069 1_555
La5 O60 2.347993 1_555
La5 O24 2.470001 1_554
La5 O61 2.475074 1_555
La5 O25 2.488536 1_554
La6 O27 2.249049 1_555
La6 O29 2.357934 1_555
La6 O64 2.379790 1_555
La6 O28 2.453736 1_555
La6 O63 2.548682 1_555
La6 O65 2.618999 1_555
La7 O31 2.217244 1_555
La7 O30 2.280984 1_555
La7 O67 2.358874 1_555
La7 O32 2.431236 1_555
La7 O66 2.457925 1_555
La7 O68 2.531892 1_555
La8 O34 2.243557 1_555
La8 O71 2.292220 1_555
La8 O69 2.369721 1_555
La8 O35 2.399344 1_555
La8 O70 2.468291 1_555
La8 O33 2.504638 1_555
Mg0 O1 1.984969 1_555
Mg0 O36 2.041489 1_655
Mg0 O37 2.042339 1_555
Mg0 O0 2.481162 1_665
Mg0 O2 2.489885 1_565
Mg0 O38 2.502373 1_665
Mg1 O49 2.023910 1_555
Mg1 O14 2.031630 1_555
Mg1 O48 2.139639 1_555
Mg1 O13 2.237959 1_555
Mg1 O50 2.301960 1_555
Mg1 O12 2.405018 1_555
Mg2 O17 1.959318 1_555
Mg2 O16 2.049327 1_555
Mg2 O15 2.157427 1_555
Mg2 O51 2.277358 1_555
Mg2 O53 2.520065 1_555
Mg2 O52 2.650542 1_555
O0 S0 1.485326 1_555
O1 Si0 1.650829 1_555
O2 S1 1.486747 1_555
O3 Si1 1.656211 1_555
O4 S2 1.486271 1_555
O5 Si2 1.663118 1_555
O6 Si2 1.650068 1_565
O7 Si1 1.637761 1_555
O8 S2 1.484429 1_455
O9 Si0 1.645658 1_555
O10 S1 1.479105 1_455
O11 S0 1.480178 1_565
O12 S3 1.471351 1_555
O13 S4 1.476418 1_555
O14 Si3 1.629429 1_555
O15 S5 1.476780 1_555
O16 Si4 1.644371 1_555
O17 Si5 1.639992 1_555
O18 Si5 1.655185 1_555
O19 S5 1.479337 1_555
O20 Si4 1.643902 1_555
O21 S4 1.485066 1_555
O22 Si3 1.653803 1_555
O23 S3 1.493706 1_555
O24 S6 1.488332 1_555
O25 S7 1.482243 1_555
O26 Si6 1.643123 1_555
O27 Si7 1.660867 1_555
O28 S8 1.487723 1_555
O29 Si8 1.666356 1_555
O30 Si8 1.644905 1_555
O31 Si7 1.643815 1_555
O32 S8 1.483240 1_555
O33 S7 1.481930 1_555
O34 Si6 1.650539 1_555
O35 S6 1.492159 1_555
O36 Si8 1.652441 1_555
O37 Si7 1.647752 1_555
O38 S8 1.474397 1_555
O39 S7 1.502481 1_555
O40 Si6 1.653976 1_545
O41 S6 1.484229 1_555
O42 S3 1.490880 1_555
O43 S4 1.488761 1_555
O44 Si3 1.686040 1_555
O45 S5 1.495816 1_555
O46 Si4 1.656473 1_565
O47 Si5 1.659102 1_555
O48 Si2 1.647667 1_555
O49 Si1 1.641693 1_555
O50 S2 1.477671 1_555
O51 Si0 1.673135 1_555
O52 S1 1.495105 1_555
O53 S0 1.496742 1_555
O54 S6 1.474429 1_555
O55 S7 1.480747 1_655
O56 Si6 1.673840 1_545
O57 Si7 1.649478 1_545
O58 S8 1.495595 1_555
O59 Si8 1.661705 1_655
O60 Si5 1.658086 1_555
O61 S5 1.492437 1_455
O62 Si4 1.680464 1_565
O63 S4 1.508666 1_565
O64 Si3 1.669473 1_555
O65 S3 1.494709 1_455
O66 S0 1.509980 1_565
O67 Si0 1.684683 1_555
O68 S1 1.496697 1_455
O69 Si1 1.656747 1_555
O70 S2 1.491476 1_455
O71 Si2 1.664247 1_565
