# generated using pymatgen
data_Ba2As2S5
_symmetry_space_group_name_H-M   'P 1'
_cell_length_a   9.36991973
_cell_length_b   12.05603551
_cell_length_c   17.55208457
_cell_angle_alpha   90.00000000
_cell_angle_beta   90.00000000
_cell_angle_gamma   90.00000000
_symmetry_Int_Tables_number   1
_chemical_formula_structural   Ba2As2S5
_chemical_formula_sum   'Ba16 As16 S40'
_cell_volume   1982.75517313
_cell_formula_units_Z   8
loop_
 _symmetry_equiv_pos_site_id
 _symmetry_equiv_pos_as_xyz
  1  'x, y, z'
loop_
 _atom_site_type_symbol
 _atom_site_label
 _atom_site_symmetry_multiplicity
 _atom_site_fract_x
 _atom_site_fract_y
 _atom_site_fract_z
 _atom_site_occupancy
  Ba  Ba0  1  0.00351652  0.97898852  0.42745032  1
  Ba  Ba1  1  0.99648348  0.47898852  0.57254968  1
  Ba  Ba2  1  0.99648348  0.97898852  0.92745032  1
  Ba  Ba3  1  0.00351652  0.47898852  0.07254968  1
  Ba  Ba4  1  0.49988903  0.82403032  0.17611183  1
  Ba  Ba5  1  0.50011097  0.32403032  0.82388817  1
  Ba  Ba6  1  0.50011097  0.82403032  0.67611183  1
  Ba  Ba7  1  0.49988903  0.32403032  0.32388817  1
  Ba  Ba8  1  0.98591579  0.83200822  0.17850982  1
  Ba  Ba9  1  0.01408421  0.33200822  0.82149018  1
  Ba  Ba10  1  0.01408421  0.83200822  0.67850982  1
  Ba  Ba11  1  0.98591579  0.33200822  0.32149018  1
  Ba  Ba12  1  0.50410692  0.98993170  0.42419838  1
  Ba  Ba13  1  0.49589308  0.48993170  0.57580162  1
  Ba  Ba14  1  0.49589308  0.98993170  0.92419838  1
  Ba  Ba15  1  0.50410692  0.48993170  0.07580162  1
  As  As0  1  0.27878006  0.75148346  0.50723627  1
  As  As1  1  0.72121994  0.25148346  0.49276373  1
  As  As2  1  0.72121994  0.75148346  0.00723627  1
  As  As3  1  0.27878006  0.25148346  0.99276373  1
  As  As4  1  0.27086955  0.56244361  0.24012855  1
  As  As5  1  0.72913045  0.06244361  0.75987145  1
  As  As6  1  0.72913045  0.56244361  0.74012855  1
  As  As7  1  0.27086955  0.06244361  0.25987145  1
  As  As8  1  0.77615575  0.68046429  0.37004596  1
  As  As9  1  0.22384425  0.18046429  0.62995404  1
  As  As10  1  0.22384425  0.68046429  0.87004596  1
  As  As11  1  0.77615575  0.18046429  0.12995404  1
  As  As12  1  0.13999965  0.13858625  0.12671537  1
  As  As13  1  0.86000035  0.63858625  0.87328463  1
  As  As14  1  0.86000035  0.13858625  0.62671537  1
  As  As15  1  0.13999965  0.63858625  0.37328463  1
  S  S0  1  0.20397644  0.47709372  0.42533423  1
  S  S1  1  0.79602356  0.97709372  0.57466577  1
  S  S2  1  0.79602356  0.47709372  0.92533423  1
  S  S3  1  0.20397644  0.97709372  0.07466577  1
  S  S4  1  0.95230802  0.20749126  0.04004863  1
  S  S5  1  0.04769198  0.70749126  0.95995137  1
  S  S6  1  0.04769198  0.20749126  0.54004863  1
  S  S7  1  0.95230802  0.70749126  0.45995137  1
  S  S8  1  0.94719018  0.59924904  0.28895808  1
  S  S9  1  0.05280982  0.09924904  0.71104192  1
  S  S10  1  0.05280982  0.59924904  0.78895808  1
  S  S11  1  0.94719018  0.09924904  0.21104192  1
  S  S12  1  0.23863937  0.15711598  0.88398511  1
  S  S13  1  0.76136063  0.65711598  0.11601489  1
  S  S14  1  0.76136063  0.15711598  0.38398511  1
  S  S15  1  0.23863937  0.65711598  0.61601489  1
  S  S16  1  0.24321044  0.38588819  0.19790940  1
  S  S17  1  0.23393482  0.65698762  0.13312404  1
  S  S18  1  0.75678956  0.88588819  0.80209060  1
  S  S19  1  0.24321044  0.88588819  0.30209060  1
  S  S20  1  0.51432546  0.24160714  0.00193480  1
  S  S21  1  0.48567454  0.74160714  0.99806520  1
  S  S22  1  0.48567454  0.24160714  0.50193480  1
  S  S23  1  0.51432546  0.74160714  0.49806520  1
  S  S24  1  0.75643453  0.35059678  0.18003227  1
  S  S25  1  0.24356547  0.85059678  0.81996773  1
  S  S26  1  0.24356547  0.35059678  0.68003227  1
  S  S27  1  0.75643453  0.85059678  0.31996773  1
  S  S28  1  0.25104001  0.42631655  0.94857996  1
  S  S29  1  0.74895999  0.92631655  0.05142004  1
  S  S30  1  0.74895999  0.42631655  0.44857996  1
  S  S31  1  0.25104001  0.92631655  0.55142004  1
  S  S32  1  0.50347061  0.07431835  0.24462450  1
  S  S33  1  0.49652939  0.57431835  0.75537550  1
  S  S34  1  0.49652939  0.07431835  0.74462450  1
  S  S35  1  0.50347061  0.57431835  0.25537550  1
  S  S36  1  0.23393482  0.15698762  0.36687596  1
  S  S37  1  0.76606518  0.65698762  0.63312404  1
  S  S38  1  0.76606518  0.15698762  0.86687596  1
  S  S39  1  0.75678956  0.38588819  0.69790940  1
loop_
_geom_bond_atom_site_label_1
_geom_bond_atom_site_label_2
_geom_bond_distance
_geom_bond_site_symmetry_2
Ba0 S14 3.215914 1_465
Ba0 S36 3.224415 1_565
Ba0 S1 3.233750 1_455
Ba0 S31 3.242983 1_555
Ba0 S19 3.338470 1_555
Ba0 S7 3.356987 1_455
Ba0 S27 3.363762 1_455
Ba0 S6 3.415605 1_565
Ba0 S11 4.099834 1_465
Ba1 S15 3.215914 1_655
Ba1 S37 3.224415 1_555
Ba1 S0 3.233750 1_655
Ba1 S30 3.242983 1_555
Ba1 S39 3.338470 1_555
Ba1 S6 3.356987 1_655
Ba1 S26 3.363762 1_655
Ba1 S7 3.415605 1_555
Ba1 S10 4.099834 1_655
Ba2 S12 3.215914 1_665
Ba2 S38 3.224415 1_565
Ba2 S3 3.233750 1_656
Ba2 S29 3.242983 1_556
Ba2 S18 3.338470 1_555
Ba2 S5 3.356987 1_655
Ba2 S25 3.363762 1_655
Ba2 S4 3.415605 1_566
Ba2 S9 4.099834 1_665
Ba3 S13 3.215914 1_455
Ba3 S17 3.224415 1_555
Ba3 S2 3.233750 1_454
Ba3 S28 3.242983 1_554
Ba3 S16 3.338470 1_555
Ba3 S4 3.356987 1_455
Ba3 S24 3.363762 1_455
Ba3 S5 3.415605 1_554
Ba3 S8 4.099834 1_455
Ba4 S32 3.248449 1_565
Ba4 S21 3.281975 1_554
Ba4 S17 3.291642 1_555
Ba4 S35 3.316627 1_555
Ba4 S13 3.341325 1_555
Ba4 S19 3.351093 1_555
Ba4 S29 3.428874 1_555
Ba4 S27 3.500910 1_555
Ba4 S3 3.776706 1_555
Ba5 S33 3.248449 1_555
Ba5 S20 3.281975 1_556
Ba5 S38 3.291642 1_555
Ba5 S34 3.316627 1_555
Ba5 S12 3.341325 1_555
Ba5 S39 3.351093 1_555
Ba5 S28 3.428874 1_555
Ba5 S26 3.500910 1_555
Ba5 S2 3.776706 1_555
Ba6 S34 3.248449 1_565
Ba6 S23 3.281975 1_555
Ba6 S37 3.291642 1_555
Ba6 S33 3.316627 1_555
Ba6 S15 3.341325 1_555
Ba6 S18 3.351093 1_555
Ba6 S31 3.428874 1_555
Ba6 S25 3.500910 1_555
Ba6 S1 3.776706 1_555
Ba7 S35 3.248449 1_555
Ba7 S22 3.281975 1_555
Ba7 S36 3.291642 1_555
Ba7 S32 3.316627 1_555
Ba7 S14 3.341325 1_555
Ba7 S16 3.351093 1_555
Ba7 S30 3.428874 1_555
Ba7 S24 3.500910 1_555
Ba7 S0 3.776706 1_555
Ba8 S13 3.174289 1_555
Ba8 S17 3.238444 1_655
Ba8 S3 3.249064 1_655
Ba8 S11 3.292131 1_565
Ba8 S27 3.292168 1_555
Ba8 S19 3.307424 1_655
Ba8 S29 3.346379 1_555
Ba8 S8 3.429915 1_555
Ba9 S12 3.174289 1_555
Ba9 S38 3.238444 1_455
Ba9 S2 3.249064 1_455
Ba9 S10 3.292131 1_555
Ba9 S26 3.292168 1_555
Ba9 S39 3.307424 1_455
Ba9 S28 3.346379 1_555
Ba9 S9 3.429915 1_555
Ba10 S15 3.174289 1_555
Ba10 S37 3.238444 1_455
Ba10 S1 3.249064 1_455
Ba10 S9 3.292131 1_565
Ba10 S25 3.292168 1_555
Ba10 S18 3.307424 1_455
Ba10 S31 3.346379 1_555
Ba10 S10 3.429915 1_555
Ba11 S14 3.174289 1_555
Ba11 S36 3.238444 1_655
Ba11 S0 3.249064 1_655
Ba11 S8 3.292131 1_555
Ba11 S24 3.292168 1_555
Ba11 S16 3.307424 1_655
Ba11 S30 3.346379 1_555
Ba11 S11 3.429915 1_555
Ba12 S14 3.220405 1_565
Ba12 S23 3.263896 1_555
Ba12 S32 3.312027 1_565
Ba12 S22 3.331356 1_565
Ba12 S31 3.346220 1_555
Ba12 S36 3.387782 1_565
Ba12 S27 3.429085 1_555
Ba12 S19 3.484662 1_555
Ba12 S1 3.805317 1_555
Ba13 S15 3.220405 1_555
Ba13 S22 3.263896 1_555
Ba13 S33 3.312027 1_555
Ba13 S23 3.331356 1_555
Ba13 S30 3.346220 1_555
Ba13 S37 3.387782 1_555
Ba13 S26 3.429085 1_555
Ba13 S39 3.484662 1_555
Ba13 S0 3.805317 1_555
Ba14 S12 3.220405 1_565
Ba14 S21 3.263896 1_555
Ba14 S34 3.312027 1_565
Ba14 S20 3.331356 1_566
Ba14 S29 3.346220 1_556
Ba14 S38 3.387782 1_565
Ba14 S25 3.429085 1_555
Ba14 S18 3.484662 1_555
Ba14 S3 3.805317 1_556
Ba15 S13 3.220405 1_555
Ba15 S20 3.263896 1_555
Ba15 S35 3.312027 1_555
Ba15 S21 3.331356 1_554
Ba15 S28 3.346220 1_554
Ba15 S17 3.387782 1_555
Ba15 S24 3.429085 1_555
Ba15 S16 3.484662 1_555
Ba15 S2 3.805317 1_554
As0 S23 2.216105 1_555
As0 S15 2.254155 1_555
As0 S31 2.260925 1_555
As0 As15 3.011864 1_555
As0 S7 3.213673 1_455
As1 S22 2.216105 1_555
As1 S14 2.254155 1_555
As1 S30 2.260925 1_555
As1 As14 3.011864 1_555
As1 S6 3.213673 1_655
As2 S21 2.216105 1_554
As2 S13 2.254155 1_555
As2 S29 2.260925 1_555
As2 S5 3.213673 1_654
As3 S20 2.216105 1_556
As3 S12 2.254155 1_555
As3 S28 2.260925 1_555
As3 S4 3.213673 1_456
As4 S35 2.200484 1_555
As4 S17 2.224056 1_555
As4 S16 2.268713 1_555
As4 S8 3.182707 1_455
As5 S34 2.200484 1_555
As5 S38 2.224056 1_555
As5 S18 2.268713 1_545
As5 S9 3.182707 1_655
As6 S33 2.200484 1_555
As6 S37 2.224056 1_555
As6 S39 2.268713 1_555
As6 S10 3.182707 1_655
As7 S32 2.200484 1_555
As7 S36 2.224056 1_555
As7 S19 2.268713 1_545
As7 S11 3.182707 1_455
As8 S27 2.239164 1_555
As8 S7 2.306642 1_555
As8 S8 2.356403 1_555
As9 S26 2.239164 1_555
As9 S6 2.306642 1_555
As9 S9 2.356403 1_555
As10 S25 2.239164 1_555
As10 S5 2.306642 1_555
As10 S10 2.356403 1_555
As11 S24 2.239164 1_555
As11 S4 2.306642 1_555
As11 S11 2.356403 1_555
As12 S3 2.232628 1_545
As12 S11 2.383163 1_455
As12 S4 2.469203 1_455
As12 As7 2.794405 1_555
As12 As3 3.011864 1_554
As13 S2 2.232628 1_555
As13 S10 2.383163 1_655
As13 S5 2.469203 1_655
As13 As6 2.794405 1_555
As13 As2 3.011864 1_556
As14 S1 2.232628 1_545
As14 S9 2.383163 1_655
As14 S6 2.469203 1_655
As14 As5 2.794405 1_555
As15 S0 2.232628 1_555
As15 S8 2.383163 1_455
As15 S7 2.469203 1_455
As15 As4 2.794405 1_555
