# generated using pymatgen
data_KTlO
_symmetry_space_group_name_H-M   'P 1'
_cell_length_a   7.25190183
_cell_length_b   12.51322527
_cell_length_c   13.45519804
_cell_angle_alpha   106.28549947
_cell_angle_beta   105.62421982
_cell_angle_gamma   89.99633078
_symmetry_Int_Tables_number   1
_chemical_formula_structural   KTlO
_chemical_formula_sum   'K16 Tl16 O16'
_cell_volume   1124.92341219
_cell_formula_units_Z   16
loop_
 _symmetry_equiv_pos_site_id
 _symmetry_equiv_pos_as_xyz
  1  'x, y, z'
loop_
 _atom_site_type_symbol
 _atom_site_label
 _atom_site_symmetry_multiplicity
 _atom_site_fract_x
 _atom_site_fract_y
 _atom_site_fract_z
 _atom_site_occupancy
  K  K0_0  1  0.06484872  0.17367926  0.12959693  1
  K  K0_1  1  0.06484872  0.17367926  0.62959693  1
  K  K0_2  1  0.06484872  0.67367926  0.12959694  1
  K  K0_3  1  0.06484872  0.67367926  0.62959693  1
  K  K0_4  1  0.56484872  0.17367926  0.12959693  1
  K  K0_5  1  0.56484872  0.17367926  0.62959693  1
  K  K0_6  1  0.56484872  0.67367926  0.12959693  1
  K  K0_7  1  0.56484872  0.67367926  0.62959694  1
  K  K1_0  1  0.43515128  0.32632074  0.37040307  1
  K  K1_1  1  0.43515128  0.32632074  0.87040306  1
  K  K1_2  1  0.43515128  0.82632074  0.37040307  1
  K  K1_3  1  0.43515128  0.82632074  0.87040306  1
  K  K1_4  1  0.93515128  0.32632074  0.37040306  1
  K  K1_5  1  0.93515128  0.32632074  0.87040306  1
  K  K1_6  1  0.93515128  0.82632074  0.37040307  1
  K  K1_7  1  0.93515128  0.82632074  0.87040306  1
  Tl  Tl0_0  1  0.31861375  0.42394588  0.13728152  1
  Tl  Tl0_1  1  0.31861374  0.42394588  0.63728152  1
  Tl  Tl0_2  1  0.31861374  0.92394588  0.13728153  1
  Tl  Tl0_3  1  0.31861375  0.92394588  0.63728153  1
  Tl  Tl0_4  1  0.81861375  0.42394588  0.13728152  1
  Tl  Tl0_5  1  0.81861375  0.42394588  0.63728152  1
  Tl  Tl0_6  1  0.81861375  0.92394588  0.13728153  1
  Tl  Tl0_7  1  0.81861374  0.92394588  0.63728152  1
  Tl  Tl1_0  1  0.18138625  0.07605412  0.36271847  1
  Tl  Tl1_1  1  0.18138625  0.07605412  0.86271847  1
  Tl  Tl1_2  1  0.18138625  0.57605412  0.36271847  1
  Tl  Tl1_3  1  0.18138625  0.57605412  0.86271847  1
  Tl  Tl1_4  1  0.68138626  0.07605412  0.36271847  1
  Tl  Tl1_5  1  0.68138625  0.07605412  0.86271847  1
  Tl  Tl1_6  1  0.68138625  0.57605412  0.36271847  1
  Tl  Tl1_7  1  0.68138625  0.57605412  0.86271848  1
  O  O0_0  1  0.37490267  0.10840688  0.24984259  1
  O  O0_1  1  0.37490267  0.10840688  0.74984259  1
  O  O0_2  1  0.37490267  0.60840687  0.24984259  1
  O  O0_3  1  0.37490267  0.60840687  0.74984259  1
  O  O0_4  1  0.87490267  0.10840687  0.24984260  1
  O  O0_5  1  0.87490267  0.10840687  0.74984259  1
  O  O0_6  1  0.87490267  0.60840687  0.24984259  1
  O  O0_7  1  0.87490267  0.60840687  0.74984259  1
  O  O1_0  1  0.12509733  0.39159312  0.25015740  1
  O  O1_1  1  0.12509733  0.39159312  0.75015740  1
  O  O1_2  1  0.12509733  0.89159312  0.25015740  1
  O  O1_3  1  0.12509733  0.89159312  0.75015740  1
  O  O1_4  1  0.62509733  0.39159312  0.25015740  1
  O  O1_5  1  0.62509733  0.39159312  0.75015740  1
  O  O1_6  1  0.62509733  0.89159312  0.25015740  1
  O  O1_7  1  0.62509733  0.89159312  0.75015741  1
loop_
_geom_bond_atom_site_label_1
_geom_bond_atom_site_label_2
_geom_bond_distance
_geom_bond_site_symmetry_2
K0_0 O0_0 2.668674 1_555
K0_0 O0_4 2.669080 1_455
K0_0 O1_0 2.719439 1_555
K0_0 Tl0_0 3.594599 1_555
K0_0 Tl0_4 3.594946 1_455
K0_0 K0_4 3.625951 1_555
K0_0 K0_4 3.625951 1_455
K0_1 O0_1 2.668674 1_555
K0_1 O0_5 2.669080 1_455
K0_1 O1_1 2.719439 1_555
K0_1 Tl0_1 3.594599 1_555
K0_1 Tl0_5 3.594946 1_455
K0_1 K0_5 3.625951 1_455
K0_1 K0_5 3.625951 1_555
K0_2 O0_2 2.668674 1_555
K0_2 O0_6 2.669080 1_455
K0_2 O1_2 2.719439 1_555
K0_2 Tl0_2 3.594599 1_555
K0_2 Tl0_6 3.594946 1_455
K0_2 K0_6 3.625951 1_455
K0_2 K0_6 3.625951 1_555
K0_3 O0_3 2.668674 1_555
K0_3 O0_7 2.669080 1_455
K0_3 O1_3 2.719439 1_555
K0_3 Tl0_3 3.594599 1_555
K0_3 Tl0_7 3.594946 1_455
K0_3 K0_7 3.625951 1_455
K0_3 K0_7 3.625951 1_555
K0_4 O0_4 2.668674 1_555
K0_4 O0_0 2.669080 1_555
K0_4 O1_4 2.719439 1_555
K0_4 Tl0_4 3.594599 1_555
K0_4 Tl0_0 3.594946 1_555
K0_5 O0_5 2.668674 1_555
K0_5 O0_1 2.669080 1_555
K0_5 O1_5 2.719439 1_555
K0_5 Tl0_5 3.594599 1_555
K0_5 Tl0_1 3.594946 1_555
K0_6 O0_6 2.668674 1_555
K0_6 O0_2 2.669080 1_555
K0_6 O1_6 2.719439 1_555
K0_6 Tl0_6 3.594599 1_555
K0_6 Tl0_2 3.594946 1_555
K0_7 O0_7 2.668674 1_555
K0_7 O0_3 2.669080 1_555
K0_7 O1_7 2.719439 1_555
K0_7 Tl0_7 3.594599 1_555
K0_7 Tl0_3 3.594946 1_555
K1_0 O1_0 2.668674 1_555
K1_0 O1_4 2.669080 1_555
K1_0 O0_0 2.719439 1_555
K1_0 Tl1_0 3.594599 1_555
K1_0 Tl1_4 3.594946 1_555
K1_0 K1_4 3.625951 1_555
K1_0 K1_4 3.625951 1_455
K1_1 O1_1 2.668674 1_555
K1_1 O1_5 2.669080 1_555
K1_1 O0_1 2.719439 1_555
K1_1 Tl1_1 3.594599 1_555
K1_1 Tl1_5 3.594946 1_555
K1_1 K1_5 3.625951 1_555
K1_1 K1_5 3.625951 1_455
K1_2 O1_2 2.668674 1_555
K1_2 O1_6 2.669080 1_555
K1_2 O0_2 2.719439 1_555
K1_2 Tl1_2 3.594599 1_555
K1_2 Tl1_6 3.594946 1_555
K1_2 K1_6 3.625951 1_455
K1_2 K1_6 3.625951 1_555
K1_3 O1_3 2.668674 1_555
K1_3 O1_7 2.669080 1_555
K1_3 O0_3 2.719439 1_555
K1_3 Tl1_3 3.594599 1_555
K1_3 Tl1_7 3.594946 1_555
K1_3 K1_7 3.625951 1_555
K1_3 K1_7 3.625951 1_455
K1_4 O1_4 2.668674 1_555
K1_4 O1_0 2.669080 1_655
K1_4 O0_4 2.719439 1_555
K1_4 Tl1_4 3.594599 1_555
K1_4 Tl1_0 3.594946 1_655
K1_5 O1_5 2.668674 1_555
K1_5 O1_1 2.669080 1_655
K1_5 O0_5 2.719439 1_555
K1_5 Tl1_5 3.594599 1_555
K1_5 Tl1_1 3.594946 1_655
K1_6 O1_6 2.668674 1_555
K1_6 O1_2 2.669080 1_655
K1_6 O0_6 2.719439 1_555
K1_6 Tl1_6 3.594599 1_555
K1_6 Tl1_2 3.594946 1_655
K1_7 O1_7 2.668674 1_555
K1_7 O1_3 2.669080 1_655
K1_7 O0_7 2.719439 1_555
K1_7 Tl1_7 3.594599 1_555
K1_7 Tl1_3 3.594946 1_655
O0_0 Tl0_2 2.344078 1_545
O0_0 Tl1_0 2.435767 1_555
O0_0 Tl1_4 2.436574 1_555
O0_1 Tl0_3 2.344078 1_545
O0_1 Tl1_1 2.435767 1_555
O0_1 Tl1_5 2.436574 1_555
O0_2 Tl0_0 2.344078 1_555
O0_2 Tl1_2 2.435767 1_555
O0_2 Tl1_6 2.436574 1_555
O0_3 Tl0_1 2.344078 1_555
O0_3 Tl1_3 2.435767 1_555
O0_3 Tl1_7 2.436574 1_555
O0_4 Tl0_6 2.344078 1_545
O0_4 Tl1_4 2.435767 1_555
O0_4 Tl1_0 2.436574 1_655
O0_5 Tl0_7 2.344078 1_545
O0_5 Tl1_5 2.435767 1_555
O0_5 Tl1_1 2.436574 1_655
O0_6 Tl0_4 2.344078 1_555
O0_6 Tl1_6 2.435767 1_555
O0_6 Tl1_2 2.436574 1_655
O0_7 Tl0_5 2.344078 1_555
O0_7 Tl1_7 2.435767 1_555
O0_7 Tl1_3 2.436574 1_655
O1_0 Tl1_2 2.344078 1_555
O1_0 Tl0_0 2.435767 1_555
O1_0 Tl0_4 2.436574 1_455
O1_1 Tl1_3 2.344078 1_555
O1_1 Tl0_1 2.435767 1_555
O1_1 Tl0_5 2.436574 1_455
O1_2 Tl1_0 2.344078 1_565
O1_2 Tl0_2 2.435767 1_555
O1_2 Tl0_6 2.436574 1_455
O1_3 Tl1_1 2.344078 1_565
O1_3 Tl0_3 2.435767 1_555
O1_3 Tl0_7 2.436574 1_455
O1_4 Tl1_6 2.344078 1_555
O1_4 Tl0_4 2.435767 1_555
O1_4 Tl0_0 2.436574 1_555
O1_5 Tl1_7 2.344078 1_555
O1_5 Tl0_5 2.435767 1_555
O1_5 Tl0_1 2.436574 1_555
O1_6 Tl1_4 2.344078 1_565
O1_6 Tl0_6 2.435767 1_555
O1_6 Tl0_2 2.436574 1_555
O1_7 Tl1_5 2.344078 1_565
O1_7 Tl0_7 2.435767 1_555
O1_7 Tl0_3 2.436574 1_555
