# generated using pymatgen
data_Na14Ta2In6Si9(SO16)3
_symmetry_space_group_name_H-M   'P 1'
_cell_length_a   18.45889324
_cell_length_b   9.23840804
_cell_length_c   22.68275502
_cell_angle_alpha   89.95658471
_cell_angle_beta   89.85752629
_cell_angle_gamma   119.98834593
_symmetry_Int_Tables_number   1
_chemical_formula_structural   Na14Ta2In6Si9(SO16)3
_chemical_formula_sum   'Na42 Ta6 In18 Si27 S9 O144'
_cell_volume   3350.25388916
_cell_formula_units_Z   3
loop_
 _symmetry_equiv_pos_site_id
 _symmetry_equiv_pos_as_xyz
  1  'x, y, z'
loop_
 _atom_site_type_symbol
 _atom_site_label
 _atom_site_symmetry_multiplicity
 _atom_site_fract_x
 _atom_site_fract_y
 _atom_site_fract_z
 _atom_site_occupancy
  Na  Na0  1  0.81436571  0.00611550  0.24358647  1
  Na  Na1  1  0.68933110  0.37122370  0.24357020  1
  Na  Na2  1  0.50150709  0.62149071  0.24539300  1
  Na  Na3  1  0.31323465  0.62098044  0.74356935  1
  Na  Na4  1  0.99486930  0.36789443  0.74710305  1
  Na  Na5  1  0.18736211  0.00714016  0.74299734  1
  Na  Na6  1  0.15315408  0.33907228  0.58465603  1
  Na  Na7  1  0.65831662  0.34535781  0.58807916  1
  Na  Na8  1  0.01758939  0.69283455  0.58551212  1
  Na  Na9  1  0.51441321  0.68320002  0.58418747  1
  Na  Na10  1  0.32499967  0.97177319  0.58762775  1
  Na  Na11  1  0.83043410  0.97236357  0.58923056  1
  Na  Na12  1  0.15604308  0.96908917  0.08443372  1
  Na  Na13  1  0.65725901  0.96567982  0.07987022  1
  Na  Na14  1  0.32940209  0.68594548  0.08407336  1
  Na  Na15  1  0.82738779  0.68468570  0.08395049  1
  Na  Na16  1  0.01396626  0.34468522  0.08071528  1
  Na  Na17  1  0.51814595  0.34815969  0.07878721  1
  Na  Na18  1  0.48777713  0.67031127  0.91604081  1
  Na  Na19  1  0.98083409  0.65395819  0.91017775  1
  Na  Na20  1  0.35819142  0.05063500  0.91267608  1
  Na  Na21  1  0.85438153  0.05120087  0.91318716  1
  Na  Na22  1  0.16094524  0.29748744  0.91616070  1
  Na  Na23  1  0.66416424  0.29110049  0.92203477  1
  Na  Na24  1  0.48115345  0.30994188  0.41521457  1
  Na  Na25  1  0.98592453  0.30147225  0.42096657  1
  Na  Na26  1  0.16242327  0.03675969  0.42643157  1
  Na  Na27  1  0.66287952  0.02380182  0.42081611  1
  Na  Na28  1  0.35233986  0.65417036  0.42287241  1
  Na  Na29  1  0.85752639  0.66611851  0.41610816  1
  Na  Na30  1  0.00464419  0.00148284  0.50313146  1
  Na  Na31  1  0.50226754  0.99142487  0.50300792  1
  Na  Na32  1  0.00100250  0.01243587  0.99777538  1
  Na  Na33  1  0.50470142  0.00810704  0.99505212  1
  Na  Na34  1  0.34352119  0.33538362  0.82241412  1
  Na  Na35  1  0.83568484  0.32570731  0.82770832  1
  Na  Na36  1  0.33474139  0.33240483  0.33338974  1
  Na  Na37  1  0.84402028  0.35218977  0.32386189  1
  Na  Na38  1  0.16443793  0.66390201  0.16032255  1
  Na  Na39  1  0.66734258  0.66669616  0.16430804  1
  Na  Na40  1  0.16493781  0.66583507  0.66559751  1
  Na  Na41  1  0.66891865  0.67067627  0.66380052  1
  Ta  Ta0  1  0.99737168  0.99598431  0.65032174  1
  Ta  Ta1  1  0.49666765  0.99198192  0.64783746  1
  Ta  Ta2  1  0.99640112  0.00201180  0.14702173  1
  Ta  Ta3  1  0.50581191  0.01338711  0.14557880  1
  Ta  Ta4  1  0.15755709  0.64575835  0.31317847  1
  Ta  Ta5  1  0.66153318  0.68017226  0.81055273  1
  In  In0  1  0.00150503  0.99924970  0.34816441  1
  In  In1  1  0.50221804  0.99992051  0.34538930  1
  In  In2  1  0.99874155  0.00842638  0.84166127  1
  In  In3  1  0.50197652  0.00534155  0.84749762  1
  In  In4  1  0.33647028  0.33290938  0.68393064  1
  In  In5  1  0.83482594  0.33809297  0.68335187  1
  In  In6  1  0.33463141  0.31979298  0.17980988  1
  In  In7  1  0.83739054  0.34035906  0.18424243  1
  In  In8  1  0.34003506  0.33616667  0.99018109  1
  In  In9  1  0.83602965  0.32789236  0.98589606  1
  In  In10  1  0.33534329  0.34368785  0.48846553  1
  In  In11  1  0.83908054  0.34194311  0.49333446  1
  In  In12  1  0.16210042  0.65282643  0.01934776  1
  In  In13  1  0.66187311  0.66499612  0.01801537  1
  In  In14  1  0.16158007  0.65883105  0.51976359  1
  In  In15  1  0.66261977  0.67196039  0.52033673  1
  In  In16  1  0.66154773  0.66301804  0.30757289  1
  In  In17  1  0.16047402  0.65867204  0.80712155  1
  Si  Si0  1  0.64872390  0.00399619  0.25027119  1
  Si  Si1  1  0.85373390  0.70620314  0.25346684  1
  Si  Si2  1  0.00012440  0.29112670  0.25158373  1
  Si  Si3  1  0.49389336  0.28736076  0.25252836  1
  Si  Si4  1  0.14876072  0.29254698  0.75047183  1
  Si  Si5  1  0.99585698  0.70347069  0.75299306  1
  Si  Si6  1  0.49865851  0.70784892  0.75195381  1
  Si  Si7  1  0.35319770  0.00063783  0.75361206  1
  Si  Si8  1  0.84834265  0.99777338  0.75111739  1
  Si  Si9  1  0.48053333  0.32799231  0.58152463  1
  Si  Si10  1  0.98234318  0.32789743  0.58459526  1
  Si  Si11  1  0.18381003  0.03796050  0.58309129  1
  Si  Si12  1  0.68574462  0.04334502  0.58311345  1
  Si  Si13  1  0.33314952  0.63247675  0.58421941  1
  Si  Si14  1  0.83365441  0.63376456  0.58187901  1
  Si  Si15  1  0.48148891  0.63500500  0.08630505  1
  Si  Si16  1  0.98059102  0.63252061  0.08222185  1
  Si  Si17  1  0.33287768  0.02909516  0.08176373  1
  Si  Si18  1  0.83240742  0.03451811  0.08460600  1
  Si  Si19  1  0.18760013  0.32950108  0.08488750  1
  Si  Si20  1  0.68801274  0.33711428  0.08284981  1
  Si  Si21  1  0.01830682  0.36700985  0.91617817  1
  Si  Si22  1  0.51987797  0.37314745  0.91615677  1
  Si  Si23  1  0.66662855  0.96585774  0.91730116  1
  Si  Si24  1  0.16686841  0.36818568  0.41681674  1
  Si  Si25  1  0.01740101  0.66561481  0.41740942  1
  Si  Si26  1  0.51748764  0.66742491  0.41473110  1
  S  S0  1  0.14967841  0.99525820  0.25079107  1
  S  S1  1  0.34831155  0.70442013  0.25032919  1
  S  S2  1  0.64814311  0.30225144  0.75004933  1
  S  S3  1  0.31326461  0.66361597  0.91711287  1
  S  S4  1  0.81143041  0.66784203  0.91519411  1
  S  S5  1  0.16844612  0.96456409  0.91708164  1
  S  S6  1  0.31087089  0.95218628  0.41299791  1
  S  S7  1  0.81300468  0.96230136  0.41617401  1
  S  S8  1  0.66781886  0.37199521  0.41618574  1
  O  O0  1  0.11214372  0.01480151  0.30557806  1
  O  O1  1  0.61133062  0.03468938  0.31118703  1
  O  O2  1  0.39810038  0.77875631  0.30521762  1
  O  O3  1  0.90363097  0.78473198  0.31426951  1
  O  O4  1  0.48203147  0.18515437  0.31394676  1
  O  O5  1  0.98983408  0.19100313  0.31205381  1
  O  O6  1  0.11395293  0.18900017  0.81220666  1
  O  O7  1  0.61144025  0.20612168  0.80551820  1
  O  O8  1  0.48745903  0.78714475  0.81235536  1
  O  O9  1  0.98794594  0.78430580  0.81511266  1
  O  O10  1  0.40314749  0.02242873  0.81463533  1
  O  O11  1  0.90035897  0.03032692  0.81213659  1
  O  O12  1  0.40916540  0.98197159  0.69744166  1
  O  O13  1  0.89983185  0.97499253  0.69424573  1
  O  O14  1  0.08279092  0.18328638  0.69573805  1
  O  O15  1  0.59324459  0.21424673  0.69805264  1
  O  O16  1  0.00505128  0.82816821  0.69622724  1
  O  O17  1  0.51449525  0.83516941  0.69482299  1
  O  O18  1  0.39135266  0.80988220  0.19779973  1
  O  O19  1  0.90949720  0.83768436  0.19744484  1
  O  O20  1  0.01579091  0.19588066  0.19458121  1
  O  O21  1  0.50203993  0.17757945  0.19615712  1
  O  O22  1  0.09590155  0.97072832  0.19821187  1
  O  O23  1  0.58225429  0.98320271  0.19551573  1
  O  O24  1  0.44042710  0.38064531  0.63412008  1
  O  O25  1  0.94193405  0.37012490  0.64013936  1
  O  O26  1  0.24379694  0.11748805  0.63970190  1
  O  O27  1  0.74903751  0.12956254  0.63636928  1
  O  O28  1  0.31382094  0.51502982  0.64098332  1
  O  O29  1  0.80845035  0.50023689  0.63449545  1
  O  O30  1  0.44205899  0.51969597  0.14433623  1
  O  O31  1  0.94189511  0.50242392  0.13581594  1
  O  O32  1  0.30603540  0.10318509  0.13642467  1
  O  O33  1  0.81302571  0.11036336  0.14237338  1
  O  O34  1  0.24991908  0.37146820  0.13999915  1
  O  O35  1  0.74234204  0.36783171  0.14152777  1
  O  O36  1  0.22162587  0.28562840  0.02369552  1
  O  O37  1  0.72089752  0.28693498  0.02348930  1
  O  O38  1  0.42375403  0.56884258  0.02661376  1
  O  O39  1  0.92274677  0.57136782  0.02235307  1
  O  O40  1  0.36100929  0.14732298  0.02243262  1
  O  O41  1  0.86018792  0.15062647  0.02562981  1
  O  O42  1  0.21983219  0.15285163  0.52237534  1
  O  O43  1  0.71815622  0.15069853  0.52042805  1
  O  O44  1  0.36085057  0.57386259  0.52426196  1
  O  O45  1  0.85774044  0.57309493  0.51971754  1
  O  O46  1  0.42414714  0.27537929  0.52048979  1
  O  O47  1  0.92650057  0.28091209  0.52334595  1
  O  O48  1  0.27492771  0.68880706  0.97113475  1
  O  O49  1  0.77582773  0.69044399  0.97082658  1
  O  O50  1  0.07598623  0.44247875  0.97552658  1
  O  O51  1  0.57354022  0.44569993  0.97641784  1
  O  O52  1  0.16039427  0.86646273  0.97141137  1
  O  O53  1  0.65081284  0.85415625  0.97603564  1
  O  O54  1  0.27539686  0.85854117  0.46836315  1
  O  O55  1  0.77395872  0.85884394  0.46971746  1
  O  O56  1  0.15199555  0.45309457  0.47409453  1
  O  O57  1  0.65902454  0.45419314  0.46972720  1
  O  O58  1  0.07658514  0.70344730  0.47406467  1
  O  O59  1  0.57770228  0.71154434  0.47258921  1
  O  O60  1  0.07415056  0.64767403  0.35981637  1
  O  O61  1  0.55978868  0.63443418  0.35640024  1
  O  O62  1  0.25733961  0.86002684  0.36147880  1
  O  O63  1  0.76332325  0.88057760  0.36279192  1
  O  O64  1  0.17669688  0.50114004  0.35978821  1
  O  O65  1  0.67855038  0.47204053  0.36256632  1
  O  O66  1  0.06236251  0.48844344  0.85909555  1
  O  O67  1  0.57679940  0.50300525  0.86082405  1
  O  O68  1  0.18029090  0.88546077  0.86423856  1
  O  O69  1  0.67629183  0.85485206  0.86075973  1
  O  O70  1  0.26352792  0.64702822  0.86411347  1
  O  O71  1  0.75767749  0.65304280  0.86408299  1
  O  O72  1  0.00900269  0.83262993  0.41098673  1
  O  O73  1  0.50345840  0.83374223  0.41112494  1
  O  O74  1  0.39624703  0.97139345  0.40869501  1
  O  O75  1  0.89864133  0.98424885  0.41423822  1
  O  O76  1  0.08300994  0.18463196  0.41064762  1
  O  O77  1  0.58901100  0.20338610  0.41468333  1
  O  O78  1  0.00757629  0.17652341  0.91362370  1
  O  O79  1  0.50909062  0.18570494  0.91140958  1
  O  O80  1  0.09039133  0.97631543  0.91522767  1
  O  O81  1  0.58224499  0.98135913  0.91137173  1
  O  O82  1  0.39915760  0.81290153  0.91522248  1
  O  O83  1  0.89728784  0.81642350  0.91151633  1
  O  O84  1  0.49080994  0.16052935  0.59559535  1
  O  O85  1  0.98989851  0.15678469  0.59294938  1
  O  O86  1  0.08914474  0.01800948  0.59260930  1
  O  O87  1  0.59185604  0.02866219  0.59410189  1
  O  O88  1  0.42091361  0.82231842  0.59425055  1
  O  O89  1  0.91895598  0.81896090  0.59280502  1
  O  O90  1  0.48840088  0.82131621  0.09614821  1
  O  O91  1  0.99151757  0.82176999  0.09642698  1
  O  O92  1  0.41750387  0.01233499  0.09515594  1
  O  O93  1  0.92049769  0.01954023  0.09426307  1
  O  O94  1  0.09365545  0.15648049  0.09570282  1
  O  O95  1  0.59069561  0.16458562  0.09209432  1
  O  O96  1  0.33705215  0.15577200  0.74691446  1
  O  O97  1  0.83958200  0.16215859  0.74446497  1
  O  O98  1  0.24114543  0.31458031  0.74512515  1
  O  O99  1  0.73083021  0.32162164  0.74429119  1
  O  O100  1  0.41593019  0.52926395  0.74517128  1
  O  O101  1  0.91735046  0.51452276  0.74843328  1
  O  O102  1  0.33906059  0.53689537  0.24581793  1
  O  O103  1  0.83723033  0.51829963  0.24703049  1
  O  O104  1  0.41584647  0.32396232  0.24814930  1
  O  O105  1  0.91747625  0.30548035  0.24560290  1
  O  O106  1  0.23303363  0.14518334  0.24538979  1
  O  O107  1  0.74056987  0.16712746  0.24555977  1
  O  O108  1  0.31873129  0.50779307  0.92087395  1
  O  O109  1  0.81651238  0.51149014  0.91627475  1
  O  O110  1  0.42809713  0.36604760  0.91658742  1
  O  O111  1  0.92673295  0.35820543  0.91963543  1
  O  O112  1  0.24356793  0.13609431  0.92014011  1
  O  O113  1  0.75195355  0.14778298  0.91573354  1
  O  O114  1  0.31723620  0.11936748  0.41380107  1
  O  O115  1  0.81858854  0.12909979  0.42003167  1
  O  O116  1  0.25268111  0.35832432  0.41454306  1
  O  O117  1  0.74226119  0.34945671  0.41909514  1
  O  O118  1  0.42580381  0.49376624  0.41941975  1
  O  O119  1  0.92730964  0.48973375  0.41661854  1
  O  O120  1  0.17225497  0.48920812  0.08159285  1
  O  O121  1  0.67244352  0.49485322  0.07836790  1
  O  O122  1  0.07707533  0.66932667  0.07739399  1
  O  O123  1  0.57522376  0.66153571  0.08220146  1
  O  O124  1  0.25411514  0.83981302  0.07434516  1
  O  O125  1  0.75587794  0.84353847  0.07771060  1
  O  O126  1  0.17223658  0.85106388  0.57781665  1
  O  O127  1  0.67004709  0.85245651  0.58079593  1
  O  O128  1  0.25697045  0.67095574  0.57721678  1
  O  O129  1  0.75387795  0.66503976  0.57526444  1
  O  O130  1  0.07651475  0.48884341  0.58172541  1
  O  O131  1  0.57665106  0.48433939  0.57666635  1
  O  O132  1  0.15826644  0.84093361  0.25588308  1
  O  O133  1  0.65017616  0.82882559  0.24724724  1
  O  O134  1  0.26515349  0.69560745  0.25584076  1
  O  O135  1  0.76356573  0.70469714  0.25164259  1
  O  O136  1  0.08800123  0.48425493  0.25669698  1
  O  O137  1  0.58419657  0.46294674  0.24842712  1
  O  O138  1  0.15108142  0.47176915  0.74778145  1
  O  O139  1  0.65302802  0.46927647  0.75467159  1
  O  O140  1  0.08607321  0.70664323  0.74810048  1
  O  O141  1  0.58567164  0.69173488  0.75680997  1
  O  O142  1  0.26392737  0.82167074  0.75196392  1
  O  O143  1  0.75671104  0.81770156  0.75830448  1
loop_
_geom_bond_atom_site_label_1
_geom_bond_atom_site_label_2
_geom_bond_distance
_geom_bond_site_symmetry_2
Na0 O105 2.451959 1_555
Na0 O135 2.460682 1_545
Na0 O107 2.468914 1_555
Na0 O33 2.493902 1_555
Na0 O133 2.628937 1_545
Na0 O63 2.904160 1_545
Na0 O19 3.053698 1_545
Na0 O5 3.212295 1_555
Na1 O103 2.366144 1_555
Na1 O137 2.477769 1_555
Na1 O107 2.496918 1_555
Na1 O35 2.517018 1_555
Na1 O135 2.680369 1_555
Na1 O65 2.894644 1_555
Na1 O1 3.098141 1_555
Na1 O21 3.185585 1_555
Na2 O104 2.390386 1_555
Na2 O133 2.438802 1_555
Na2 O30 2.515378 1_555
Na2 O137 2.591342 1_555
Na2 O102 2.694360 1_555
Na2 O61 2.719757 1_555
Na2 O23 3.110474 1_555
Na2 O2 3.218393 1_555
Na3 O100 2.432832 1_555
Na3 O142 2.447191 1_555
Na3 O98 2.453321 1_555
Na3 O28 2.527199 1_555
Na3 O138 2.596576 1_555
Na3 O70 2.930061 1_555
Na3 O12 3.071577 1_555
Na3 O8 3.197965 1_555
Na4 O101 2.412652 1_555
Na4 O97 2.527323 1_555
Na4 O138 2.543586 1_655
Na4 O25 2.621763 1_555
Na4 O140 2.713319 1_655
Na4 O66 2.806881 1_655
Na4 O11 3.080047 1_555
Na4 O14 3.108147 1_655
Na5 O96 2.395162 1_555
Na5 O140 2.454736 1_545
Na5 O98 2.497337 1_555
Na5 O26 2.556727 1_555
Na5 O142 2.719627 1_545
Na5 O68 2.947967 1_545
Na5 O6 3.064732 1_555
Na5 O16 3.105220 1_545
Na6 O130 2.424306 1_555
Na6 O86 2.592522 1_555
Na6 O85 2.622265 1_455
Na6 O128 2.688063 1_555
Na6 O56 2.723622 1_555
Na6 O14 2.866444 1_555
Na6 O28 2.876307 1_555
Na6 O42 2.929514 1_555
Na7 O131 2.433987 1_555
Na7 O87 2.548391 1_555
Na7 O129 2.589734 1_555
Na7 O29 2.624655 1_555
Na7 O84 2.687796 1_555
Na7 O15 2.767415 1_555
Na7 O57 2.863657 1_555
Na7 O43 2.964844 1_555
Na8 O126 2.478283 1_555
Na8 O130 2.605933 1_555
Na8 O89 2.611395 1_455
Na8 O86 2.613503 1_565
Na8 O58 2.732249 1_555
Na8 O25 2.863163 1_455
Na8 O16 2.866114 1_555
Na8 O45 2.986427 1_455
Na9 O127 2.492443 1_555
Na9 O131 2.614085 1_555
Na9 O88 2.626507 1_555
Na9 O24 2.670620 1_555
Na9 O59 2.742192 1_555
Na9 O87 2.778823 1_565
Na9 O44 2.839347 1_555
Na9 O17 2.876110 1_555
Na10 O128 2.422768 1_555
Na10 O126 2.470754 1_555
Na10 O84 2.666296 1_565
Na10 O26 2.732180 1_565
Na10 O88 2.740107 1_555
Na10 O54 2.882733 1_555
Na10 O46 2.895498 1_565
Na10 O12 2.915534 1_555
Na11 O129 2.480145 1_555
Na11 O85 2.561730 1_565
Na11 O127 2.598729 1_555
Na11 O89 2.645830 1_555
Na11 O13 2.701816 1_555
Na11 O27 2.772263 1_565
Na11 O47 2.903556 1_565
Na11 O55 2.908776 1_555
Na12 O122 2.405402 1_555
Na12 O94 2.526013 1_565
Na12 O124 2.629747 1_555
Na12 O91 2.648194 1_455
Na12 O32 2.679705 1_565
Na12 O52 2.748905 1_554
Na12 O22 2.809948 1_555
Na12 O36 2.891704 1_565
Na13 O123 2.436575 1_555
Na13 O53 2.550572 1_554
Na13 O125 2.577314 1_555
Na13 O95 2.686878 1_565
Na13 O90 2.732821 1_555
Na13 O33 2.871433 1_565
Na13 O37 2.885380 1_565
Na13 O23 3.005104 1_555
Na14 O124 2.444678 1_555
Na14 O120 2.540002 1_555
Na14 O90 2.566762 1_555
Na14 O92 2.627029 1_565
Na14 O48 2.759292 1_554
Na14 O38 2.788679 1_555
Na14 O34 2.815410 1_555
Na14 O18 2.825494 1_555
Na15 O125 2.419337 1_555
Na15 O121 2.501969 1_555
Na15 O91 2.651801 1_555
Na15 O93 2.695675 1_565
Na15 O49 2.748700 1_554
Na15 O39 2.824636 1_555
Na15 O35 2.851153 1_555
Na15 O19 2.967454 1_555
Na16 O120 2.533920 1_555
Na16 O50 2.601714 1_554
Na16 O122 2.619999 1_555
Na16 O93 2.628564 1_455
Na16 O31 2.718086 1_455
Na16 O41 2.786880 1_455
Na16 O94 2.803703 1_555
Na16 O20 2.933111 1_555
Na17 O121 2.467805 1_555
Na17 O51 2.512621 1_554
Na17 O123 2.539528 1_555
Na17 O95 2.651852 1_555
Na17 O92 2.729050 1_555
Na17 O40 2.851671 1_555
Na17 O30 2.985414 1_555
Na17 O21 3.029995 1_555
Na18 O110 2.453438 1_555
Na18 O81 2.509774 1_555
Na18 O82 2.562377 1_555
Na18 O8 2.588223 1_555
Na18 O108 2.705151 1_555
Na18 O38 2.727673 1_556
Na18 O53 2.950887 1_555
Na18 O67 3.031443 1_555
Na19 O111 2.403979 1_555
Na19 O9 2.440034 1_555
Na19 O83 2.635465 1_555
Na19 O80 2.636846 1_655
Na19 O109 2.637907 1_555
Na19 O39 2.715090 1_556
Na19 O66 2.870513 1_655
Na19 O52 3.208029 1_655
Na20 O79 2.416933 1_555
Na20 O10 2.431016 1_555
Na20 O110 2.531019 1_555
Na20 O112 2.607103 1_555
Na20 O40 2.637455 1_556
Na20 O82 2.656886 1_545
Na20 O68 3.054598 1_545
Na20 O48 3.184589 1_545
Na21 O113 2.461747 1_555
Na21 O111 2.462583 1_555
Na21 O78 2.462594 1_655
Na21 O11 2.483106 1_555
Na21 O83 2.655246 1_545
Na21 O41 2.695698 1_556
Na21 O69 3.094018 1_545
Na21 O49 3.173737 1_545
Na22 O78 2.470859 1_555
Na22 O6 2.541970 1_555
Na22 O108 2.571831 1_555
Na22 O80 2.576378 1_545
Na22 O112 2.613606 1_555
Na22 O36 2.711477 1_556
Na22 O50 2.856407 1_555
Na22 O70 3.045921 1_555
Na23 O81 2.492133 1_545
Na23 O109 2.518922 1_555
Na23 O79 2.533296 1_555
Na23 O37 2.538927 1_556
Na23 O113 2.558012 1_555
Na23 O7 2.792968 1_555
Na23 O51 2.956462 1_555
Na23 O71 3.178138 1_555
Na24 O118 2.381433 1_555
Na24 O46 2.561625 1_555
Na24 O4 2.574522 1_555
Na24 O77 2.625281 1_555
Na24 O114 2.632705 1_555
Na24 O74 2.713319 1_545
Na24 O61 2.916831 1_555
Na24 O57 3.119887 1_555
Na25 O119 2.467129 1_555
Na25 O76 2.522606 1_655
Na25 O47 2.531894 1_555
Na25 O75 2.547471 1_545
Na25 O115 2.675921 1_555
Na25 O5 2.688194 1_555
Na25 O56 2.922330 1_655
Na25 O60 3.095280 1_655
Na26 O42 2.426573 1_555
Na26 O76 2.479303 1_555
Na26 O72 2.523165 1_545
Na26 O114 2.578041 1_555
Na26 O116 2.592809 1_555
Na26 O0 2.870974 1_555
Na26 O58 2.875587 1_545
Na27 O43 2.518014 1_555
Na27 O115 2.532283 1_555
Na27 O73 2.574811 1_545
Na27 O117 2.606259 1_555
Na27 O77 2.625469 1_555
Na27 O1 2.684441 1_555
Na27 O59 2.761278 1_545
Na27 O63 3.059986 1_545
Na28 O116 2.422043 1_555
Na28 O73 2.444173 1_555
Na28 O44 2.445383 1_555
Na28 O118 2.459566 1_555
Na28 O74 2.640420 1_555
Na28 O2 2.858785 1_555
Na28 O54 3.053359 1_555
Na28 O64 3.162603 1_555
Na29 O72 2.428243 1_655
Na29 O45 2.502425 1_555
Na29 O3 2.513007 1_555
Na29 O119 2.532396 1_555
Na29 O117 2.620422 1_555
Na29 O75 2.643013 1_555
Na29 O65 3.115450 1_555
Na29 O55 3.125343 1_555
Na30 O86 2.520652 1_555
Na30 O85 2.583658 1_455
Na30 O89 2.606740 1_445
Na30 O76 2.624676 1_555
Na30 O72 2.633994 1_545
Na30 O75 2.761943 1_445
Na31 O73 2.550033 1_555
Na31 O87 2.563571 1_565
Na31 O88 2.571692 1_555
Na31 O84 2.688682 1_565
Na31 O77 2.693671 1_565
Na31 O74 2.846062 1_555
Na32 O78 2.401409 1_555
Na32 O80 2.622179 1_545
Na32 O93 2.661603 1_456
Na32 O83 2.707581 1_445
Na32 O94 2.716277 1_556
Na32 O91 2.797214 1_446
Na33 O81 2.460375 1_545
Na33 O79 2.481874 1_555
Na33 O82 2.614756 1_545
Na33 O95 2.680115 1_556
Na33 O92 2.791560 1_556
Na33 O90 2.792563 1_546
Na34 O96 2.346842 1_555
Na34 O100 2.377998 1_555
Na34 O98 2.517031 1_555
Na34 O110 2.579901 1_555
Na34 O112 2.878425 1_555
Na34 O108 2.909137 1_555
Na35 O101 2.429360 1_555
Na35 O97 2.442466 1_555
Na35 O113 2.552915 1_555
Na35 O111 2.603186 1_555
Na35 O99 2.696857 1_555
Na35 O109 2.777725 1_555
Na36 O104 2.467460 1_555
Na36 O116 2.467720 1_555
Na36 O118 2.524183 1_555
Na36 O114 2.580819 1_555
Na36 O106 2.697855 1_555
Na36 O102 2.713657 1_555
Na37 O103 2.365830 1_555
Na37 O105 2.397893 1_555
Na37 O119 2.544069 1_555
Na37 O107 2.545960 1_555
Na37 O117 2.850870 1_555
Na37 O115 2.871843 1_555
Na38 O120 2.459768 1_555
Na38 O122 2.497422 1_555
Na38 O124 2.544495 1_555
Na38 O136 2.676242 1_555
Na38 O132 2.752559 1_555
Na38 O134 2.777212 1_555
Na39 O123 2.509395 1_555
Na39 O133 2.521681 1_555
Na39 O121 2.546056 1_555
Na39 O125 2.551162 1_555
Na39 O135 2.568573 1_555
Na39 O137 2.575153 1_555
Na40 O138 2.507790 1_555
Na40 O140 2.509904 1_555
Na40 O130 2.511823 1_555
Na40 O142 2.577135 1_555
Na40 O126 2.583406 1_555
Na40 O128 2.609542 1_555
Na41 O127 2.515067 1_555
Na41 O129 2.561504 1_555
Na41 O131 2.619447 1_555
Na41 O143 2.624400 1_555
Na41 O141 2.670835 1_555
Na41 O139 2.691116 1_555
In0 O3 2.052480 1_455
In0 O5 2.058081 1_465
In0 O72 2.151697 1_555
In0 O76 2.154966 1_565
In0 O0 2.195739 1_565
In0 O75 2.364985 1_455
In1 O1 2.026516 1_565
In1 O4 2.052520 1_565
In1 O73 2.147684 1_555
In1 O2 2.187408 1_555
In1 O74 2.329780 1_555
In1 O77 2.361584 1_565
In2 O11 2.039745 1_555
In2 O6 2.048610 1_655
In2 O9 2.068676 1_545
In2 O78 2.203331 1_655
In2 O83 2.413386 1_545
In2 O80 2.499907 1_645
In3 O10 2.050119 1_555
In3 O8 2.057701 1_545
In3 O7 2.161291 1_555
In3 O79 2.163609 1_555
In3 O81 2.163774 1_545
In3 O82 2.393959 1_545
In4 O24 2.072635 1_555
In4 O26 2.121744 1_555
In4 O28 2.158083 1_555
In4 O100 2.173884 1_555
In4 O96 2.175609 1_555
In4 O98 2.177428 1_555
In5 O27 2.077642 1_555
In5 O25 2.088610 1_555
In5 O29 2.106706 1_555
In5 O101 2.165457 1_555
In5 O97 2.170461 1_555
In5 O99 2.305070 1_555
In6 O32 2.049676 1_555
In6 O34 2.059394 1_555
In6 O30 2.078284 1_555
In6 O104 2.146094 1_555
In6 O106 2.300066 1_555
In6 O102 2.472330 1_555
In7 O31 2.066213 1_555
In7 O35 2.129463 1_555
In7 O33 2.160755 1_555
In7 O105 2.170733 1_555
In7 O103 2.176953 1_555
In7 O107 2.194274 1_555
In8 O38 2.092851 1_556
In8 O40 2.098435 1_556
In8 O36 2.131726 1_556
In8 O110 2.245522 1_555
In8 O108 2.400549 1_555
In8 O112 2.416529 1_555
In9 O41 2.103058 1_556
In9 O37 2.138567 1_556
In9 O111 2.158406 1_555
In9 O39 2.171571 1_556
In9 O113 2.268233 1_555
In9 O109 2.471887 1_555
In10 O44 2.099146 1_555
In10 O42 2.116166 1_555
In10 O46 2.156908 1_555
In10 O118 2.198355 1_555
In10 O116 2.318767 1_555
In10 O114 2.567175 1_555
In11 O47 2.073564 1_555
In11 O45 2.074777 1_555
In11 O43 2.128580 1_555
In11 O119 2.303056 1_555
In11 O115 2.457379 1_555
In11 O117 2.484617 1_555
In12 O50 2.052795 1_554
In12 O122 2.109317 1_555
In12 O124 2.122730 1_555
In12 O120 2.143533 1_555
In12 O48 2.222621 1_554
In12 O52 2.266641 1_554
In13 O53 2.087435 1_554
In13 O51 2.088471 1_554
In13 O123 2.148533 1_555
In13 O121 2.165062 1_555
In13 O125 2.172339 1_555
In13 O49 2.262665 1_554
In14 O58 2.088005 1_555
In14 O56 2.093970 1_555
In14 O130 2.104225 1_555
In14 O126 2.140606 1_555
In14 O128 2.150758 1_555
In14 O54 2.299344 1_555
In15 O59 2.084365 1_555
In15 O131 2.095734 1_555
In15 O127 2.110899 1_555
In15 O129 2.124144 1_555
In15 O55 2.227370 1_555
In15 O57 2.289120 1_555
In16 O61 2.077974 1_555
In16 O135 2.136935 1_555
In16 O133 2.140683 1_555
In16 O137 2.151745 1_555
In16 O65 2.306408 1_555
In16 O63 2.319226 1_555
In17 O66 2.069382 1_555
In17 O140 2.119308 1_555
In17 O138 2.128058 1_555
In17 O142 2.142489 1_555
In17 O68 2.332889 1_555
In17 O70 2.349022 1_555
O0 S0 1.475838 1_545
O1 Si0 1.630196 1_555
O2 S1 1.497465 1_555
O3 Si1 1.617600 1_555
O4 Si3 1.634061 1_555
O5 Si2 1.610646 1_655
O6 Si4 1.633366 1_555
O7 S2 1.491085 1_555
O8 Si6 1.614929 1_555
O9 Si5 1.635239 1_555
O10 Si7 1.621051 1_555
O11 Si8 1.626846 1_545
O12 Si7 1.700660 1_565
O12 Ta1 1.929994 1_555
O13 Si8 1.675113 1_555
O13 Ta0 1.978312 1_555
O14 Si4 1.680410 1_555
O14 Ta0 1.955746 1_445
O15 S2 1.504249 1_555
O15 Ta1 2.246356 1_545
O16 Si5 1.677817 1_455
O16 Ta0 1.930260 1_455
O17 Si6 1.673436 1_555
O17 Ta1 1.954184 1_555
O18 S1 1.489938 1_555
O18 Ta3 2.327014 1_565
O19 Si1 1.700299 1_555
O19 Ta2 1.933890 1_565
O20 Si2 1.668505 1_555
O20 Ta2 1.965637 1_455
O21 Si3 1.685126 1_555
O21 Ta3 1.931262 1_555
O22 S0 1.496846 1_555
O22 Ta2 2.312105 1_465
O23 Si0 1.690333 1_565
O23 Ta3 1.937172 1_565
O24 Si9 1.601383 1_555
O25 Si10 1.607127 1_555
O26 Si11 1.615554 1_555
O27 Si12 1.592752 1_555
O28 Si13 1.603434 1_555
O29 Si14 1.607446 1_555
O30 Si15 1.617174 1_555
O31 Si16 1.602450 1_555
O32 Si17 1.608885 1_555
O33 Si18 1.607968 1_555
O34 Si19 1.611941 1_555
O35 Si20 1.606387 1_555
O36 Si19 1.654179 1_555
O37 Si20 1.635392 1_555
O38 Si15 1.643119 1_555
O39 Si16 1.645825 1_555
O40 Si17 1.643506 1_555
O41 Si18 1.627163 1_555
O42 Si11 1.659257 1_555
O43 Si12 1.662461 1_555
O44 Si13 1.636683 1_555
O45 Si14 1.657434 1_555
O46 Si9 1.654903 1_555
O47 Si10 1.655860 1_555
O48 S3 1.489030 1_555
O49 S4 1.483688 1_555
O50 Si21 1.642679 1_555
O51 Si22 1.625806 1_555
O52 S5 1.491608 1_555
O53 Si23 1.618603 1_555
O54 S6 1.477268 1_555
O55 S7 1.487713 1_555
O56 Si24 1.610498 1_555
O57 S8 1.483774 1_555
O58 Si25 1.610309 1_555
O59 Si26 1.636791 1_555
O60 Si25 1.731613 1_555
O60 Ta4 1.873213 1_555
O61 Si26 1.639075 1_555
O62 S6 1.494374 1_555
O62 Ta4 2.209037 1_555
O63 S7 1.480528 1_555
O64 Si24 1.728750 1_555
O64 Ta4 1.870603 1_555
O65 S8 1.478784 1_555
O66 Si21 1.636134 1_555
O67 Si22 1.688070 1_555
O67 Ta5 1.963354 1_555
O68 S5 1.475910 1_555
O69 Si23 1.706476 1_555
O69 Ta5 1.881552 1_555
O70 S3 1.475367 1_555
O71 S4 1.489166 1_555
O71 Ta5 2.267522 1_555
O72 Si25 1.632435 1_555
O73 Si26 1.682939 1_555
O74 S6 1.498096 1_555
O75 S7 1.490327 1_555
O76 Si24 1.633613 1_555
O77 S8 1.509588 1_555
O78 Si21 1.670695 1_555
O79 Si22 1.644878 1_555
O80 S5 1.498710 1_555
O81 Si23 1.639756 1_555
O82 S3 1.493786 1_555
O83 S4 1.492429 1_555
O84 Si9 1.680555 1_555
O84 Ta1 2.001660 1_545
O85 Si10 1.665647 1_555
O85 Ta0 2.030325 1_545
O86 Si11 1.676350 1_555
O86 Ta0 2.066111 1_445
O87 Si12 1.687272 1_555
O87 Ta1 2.020222 1_545
O88 Si13 1.707154 1_555
O88 Ta1 1.926115 1_555
O89 Si14 1.666586 1_555
O89 Ta0 2.029303 1_555
O90 Si15 1.676281 1_555
O90 Ta3 1.985889 1_565
O91 Si16 1.688178 1_555
O91 Ta2 1.987776 1_565
O92 Si17 1.673470 1_555
O92 Ta3 1.989670 1_555
O93 Si18 1.714004 1_555
O93 Ta2 1.912134 1_555
O94 Si19 1.687817 1_555
O94 Ta2 2.010075 1_455
O95 Si20 1.716627 1_555
O95 Ta3 1.917836 1_555
O96 Si7 1.610224 1_555
O97 Si8 1.612611 1_545
O98 Si4 1.617464 1_555
O99 S2 1.450740 1_555
O100 Si6 1.600190 1_555
O101 Si5 1.621750 1_555
O102 S1 1.473440 1_555
O103 Si1 1.612306 1_555
O104 Si3 1.639310 1_555
O105 Si2 1.602078 1_655
O106 S0 1.472848 1_545
O107 Si0 1.612975 1_555
O108 S3 1.494942 1_555
O109 S4 1.493728 1_555
O110 Si22 1.662363 1_555
O111 Si21 1.652860 1_655
O112 S5 1.497611 1_545
O113 Si23 1.630984 1_545
O114 S6 1.489371 1_545
O115 S7 1.494754 1_545
O116 Si24 1.632145 1_555
O117 S8 1.490763 1_555
O118 Si26 1.653483 1_555
O119 Si25 1.644701 1_655
O120 Si19 1.637209 1_555
O121 Si20 1.623299 1_555
O122 Si16 1.641081 1_455
O123 Si15 1.624101 1_555
O124 Si17 1.630985 1_565
O125 Si18 1.625717 1_565
O126 Si11 1.634901 1_565
O127 Si12 1.638927 1_565
O128 Si13 1.621626 1_555
O129 Si14 1.643430 1_555
O130 Si10 1.628590 1_455
O131 Si9 1.638081 1_555
O132 S0 1.515554 1_555
O132 Ta4 2.216560 1_555
O133 Si0 1.633351 1_565
O134 S1 1.500867 1_555
O134 Ta4 2.218137 1_555
O135 Si1 1.658114 1_555
O136 Si2 1.713522 1_555
O136 Ta4 1.900548 1_555
O137 Si3 1.647587 1_555
O138 Si4 1.635825 1_555
O139 S2 1.503768 1_555
O139 Ta5 2.264132 1_555
O140 Si5 1.654284 1_455
O141 Si6 1.689361 1_555
O141 Ta5 1.901624 1_555
O142 Si7 1.651443 1_565
O143 Si8 1.685338 1_555
O143 Ta5 1.965047 1_555
