# generated using pymatgen
data_Na2Mg(CoO2)2
_symmetry_space_group_name_H-M   'P 1'
_cell_length_a   6.32032884
_cell_length_b   11.64882060
_cell_length_c   12.53701599
_cell_angle_alpha   85.73650952
_cell_angle_beta   77.35132086
_cell_angle_gamma   90.35033844
_symmetry_Int_Tables_number   1
_chemical_formula_structural   Na2Mg(CoO2)2
_chemical_formula_sum   'Na16 Mg8 Co16 O32'
_cell_volume   897.89885363
_cell_formula_units_Z   8
loop_
 _symmetry_equiv_pos_site_id
 _symmetry_equiv_pos_as_xyz
  1  'x, y, z'
loop_
 _atom_site_type_symbol
 _atom_site_label
 _atom_site_symmetry_multiplicity
 _atom_site_fract_x
 _atom_site_fract_y
 _atom_site_fract_z
 _atom_site_occupancy
  Na  Na0_0  1  0.13436557  0.02455646  0.22732953  1
  Na  Na0_1  1  0.13436557  0.02455646  0.72732953  1
  Na  Na0_2  1  0.13436557  0.52455646  0.22732953  1
  Na  Na0_3  1  0.13436557  0.52455646  0.72732953  1
  Na  Na0_4  1  0.63436557  0.02455646  0.22732953  1
  Na  Na0_5  1  0.63436557  0.02455646  0.72732953  1
  Na  Na0_6  1  0.63436557  0.52455646  0.22732953  1
  Na  Na0_7  1  0.63436557  0.52455646  0.72732953  1
  Na  Na1_0  1  0.25793061  0.40019110  0.42060062  1
  Na  Na1_1  1  0.25793061  0.40019110  0.92060062  1
  Na  Na1_2  1  0.25793062  0.90019110  0.42060062  1
  Na  Na1_3  1  0.25793062  0.90019110  0.92060062  1
  Na  Na1_4  1  0.75793062  0.40019111  0.42060062  1
  Na  Na1_5  1  0.75793062  0.40019110  0.92060062  1
  Na  Na1_6  1  0.75793062  0.90019110  0.42060061  1
  Na  Na1_7  1  0.75793061  0.90019110  0.92060062  1
  Mg  Mg0_0  1  0.44897868  0.08597330  0.01433035  1
  Mg  Mg0_1  1  0.44897868  0.08597330  0.51433035  1
  Mg  Mg0_2  1  0.44897868  0.58597330  0.01433035  1
  Mg  Mg0_3  1  0.44897868  0.58597330  0.51433035  1
  Mg  Mg0_4  1  0.94897868  0.08597330  0.01433035  1
  Mg  Mg0_5  1  0.94897868  0.08597330  0.51433035  1
  Mg  Mg0_6  1  0.94897868  0.58597330  0.01433035  1
  Mg  Mg0_7  1  0.94897868  0.58597330  0.51433035  1
  Co  Co0_0  1  0.11284106  0.31696889  0.13299653  1
  Co  Co0_1  1  0.11284106  0.31696889  0.63299653  1
  Co  Co0_2  1  0.11284106  0.81696888  0.13299653  1
  Co  Co0_3  1  0.11284106  0.81696888  0.63299653  1
  Co  Co0_4  1  0.61284107  0.31696889  0.13299653  1
  Co  Co0_5  1  0.61284106  0.31696888  0.63299653  1
  Co  Co0_6  1  0.61284106  0.81696888  0.13299653  1
  Co  Co0_7  1  0.61284106  0.81696888  0.63299653  1
  Co  Co1_0  1  0.30423298  0.21909940  0.30083762  1
  Co  Co1_1  1  0.30423298  0.21909940  0.80083762  1
  Co  Co1_2  1  0.30423298  0.71909940  0.30083762  1
  Co  Co1_3  1  0.30423298  0.71909940  0.80083762  1
  Co  Co1_4  1  0.80423298  0.21909940  0.30083762  1
  Co  Co1_5  1  0.80423298  0.21909940  0.80083762  1
  Co  Co1_6  1  0.80423298  0.71909940  0.30083762  1
  Co  Co1_7  1  0.80423298  0.71909940  0.80083762  1
  O  O0_0  1  0.06131167  0.32709274  0.30256663  1
  O  O0_1  1  0.06131167  0.32709274  0.80256663  1
  O  O0_2  1  0.06131167  0.82709274  0.30256662  1
  O  O0_3  1  0.06131167  0.82709274  0.80256662  1
  O  O0_4  1  0.56131167  0.32709274  0.30256663  1
  O  O0_5  1  0.56131167  0.32709274  0.80256663  1
  O  O0_6  1  0.56131167  0.82709274  0.30256662  1
  O  O0_7  1  0.56131167  0.82709274  0.80256662  1
  O  O1_0  1  0.24063133  0.09581802  0.41577939  1
  O  O1_1  1  0.24063133  0.09581802  0.91577939  1
  O  O1_2  1  0.24063134  0.59581802  0.41577939  1
  O  O1_3  1  0.24063133  0.59581802  0.91577939  1
  O  O1_4  1  0.74063134  0.09581802  0.41577939  1
  O  O1_5  1  0.74063133  0.09581802  0.91577939  1
  O  O1_6  1  0.74063133  0.59581802  0.41577939  1
  O  O1_7  1  0.74063134  0.59581802  0.91577938  1
  O  O2_0  1  0.43327357  0.16959040  0.14894592  1
  O  O2_1  1  0.43327357  0.16959040  0.64894592  1
  O  O2_2  1  0.43327357  0.66959040  0.14894592  1
  O  O2_3  1  0.43327357  0.66959040  0.64894592  1
  O  O2_4  1  0.93327357  0.16959040  0.14894592  1
  O  O2_5  1  0.93327357  0.16959040  0.64894592  1
  O  O2_6  1  0.93327357  0.66959040  0.14894592  1
  O  O2_7  1  0.93327357  0.66959040  0.64894592  1
  O  O3_0  1  0.39185151  0.41800017  0.07828043  1
  O  O3_1  1  0.39185151  0.41800017  0.57828043  1
  O  O3_2  1  0.39185151  0.91800017  0.07828043  1
  O  O3_3  1  0.39185151  0.91800017  0.57828042  1
  O  O3_4  1  0.89185151  0.41800017  0.07828043  1
  O  O3_5  1  0.89185152  0.41800017  0.57828042  1
  O  O3_6  1  0.89185151  0.91800017  0.07828042  1
  O  O3_7  1  0.89185152  0.91800017  0.57828042  1
loop_
_geom_bond_atom_site_label_1
_geom_bond_atom_site_label_2
_geom_bond_distance
_geom_bond_site_symmetry_2
Na0_0 O2_4 2.400367 1_455
Na0_0 O0_2 2.422312 1_545
Na0_0 O2_0 2.508016 1_555
Na0_0 O3_2 2.592045 1_545
Na0_0 O1_0 2.775207 1_555
Na0_0 Na1_2 2.983362 1_545
Na0_0 O3_6 2.992964 1_445
Na0_0 Na0_4 3.160164 1_455
Na0_0 Na0_4 3.160164 1_555
Na0_0 O1_4 3.194646 1_455
Na0_1 O2_5 2.400367 1_455
Na0_1 O0_3 2.422312 1_545
Na0_1 O2_1 2.508016 1_555
Na0_1 O3_3 2.592045 1_545
Na0_1 O1_1 2.775207 1_555
Na0_1 Na1_3 2.983362 1_545
Na0_1 O3_7 2.992964 1_445
Na0_1 Na0_5 3.160164 1_455
Na0_1 Na0_5 3.160164 1_555
Na0_1 O1_5 3.194646 1_455
Na0_2 O2_6 2.400367 1_455
Na0_2 O0_0 2.422312 1_555
Na0_2 O2_2 2.508016 1_555
Na0_2 O3_0 2.592045 1_555
Na0_2 O1_2 2.775207 1_555
Na0_2 Na1_0 2.983362 1_555
Na0_2 O3_4 2.992964 1_455
Na0_2 Na0_6 3.160164 1_555
Na0_2 Na0_6 3.160164 1_455
Na0_2 O1_6 3.194646 1_455
Na0_3 O2_7 2.400367 1_455
Na0_3 O0_1 2.422312 1_555
Na0_3 O2_3 2.508016 1_555
Na0_3 O3_1 2.592045 1_555
Na0_3 O1_3 2.775207 1_555
Na0_3 Na1_1 2.983362 1_555
Na0_3 O3_5 2.992964 1_455
Na0_3 Na0_7 3.160164 1_555
Na0_3 Na0_7 3.160164 1_455
Na0_3 O1_7 3.194646 1_455
Na0_4 O2_0 2.400367 1_555
Na0_4 O0_6 2.422312 1_545
Na0_4 O2_4 2.508016 1_555
Na0_4 O3_6 2.592045 1_545
Na0_4 O1_4 2.775207 1_555
Na0_4 Na1_6 2.983362 1_545
Na0_4 O3_2 2.992964 1_545
Na0_4 O1_0 3.194646 1_555
Na0_5 O2_1 2.400367 1_555
Na0_5 O0_7 2.422312 1_545
Na0_5 O2_5 2.508016 1_555
Na0_5 O3_7 2.592045 1_545
Na0_5 O1_5 2.775207 1_555
Na0_5 Na1_7 2.983362 1_545
Na0_5 O3_3 2.992964 1_545
Na0_5 O1_1 3.194646 1_555
Na0_6 O2_2 2.400367 1_555
Na0_6 O0_4 2.422312 1_555
Na0_6 O2_6 2.508016 1_555
Na0_6 O3_4 2.592045 1_555
Na0_6 O1_6 2.775207 1_555
Na0_6 Na1_4 2.983362 1_555
Na0_6 O3_0 2.992964 1_555
Na0_6 O1_2 3.194646 1_555
Na0_7 O2_3 2.400367 1_555
Na0_7 O0_5 2.422312 1_555
Na0_7 O2_7 2.508016 1_555
Na0_7 O3_5 2.592045 1_555
Na0_7 O1_7 2.775207 1_555
Na0_7 Na1_5 2.983362 1_555
Na0_7 O3_1 2.992964 1_555
Na0_7 O1_3 3.194646 1_555
Na1_0 O1_2 2.279057 1_555
Na1_0 O0_0 2.332149 1_555
Na1_0 O3_1 2.336442 1_555
Na1_0 O0_4 2.357162 1_555
Na1_0 O3_5 2.714414 1_455
Na1_1 O1_3 2.279057 1_555
Na1_1 O0_1 2.332149 1_555
Na1_1 O3_0 2.336442 1_556
Na1_1 O0_5 2.357162 1_555
Na1_1 O3_4 2.714414 1_456
Na1_2 O1_0 2.279057 1_565
Na1_2 O0_2 2.332149 1_555
Na1_2 O3_3 2.336442 1_555
Na1_2 O0_6 2.357162 1_555
Na1_2 O3_7 2.714414 1_455
Na1_3 O1_1 2.279057 1_565
Na1_3 O0_3 2.332149 1_555
Na1_3 O3_2 2.336442 1_556
Na1_3 O0_7 2.357162 1_555
Na1_3 O3_6 2.714414 1_456
Na1_4 O1_6 2.279057 1_555
Na1_4 O0_4 2.332149 1_555
Na1_4 O3_5 2.336442 1_555
Na1_4 O0_0 2.357162 1_655
Na1_4 O3_1 2.714414 1_555
Na1_5 O1_7 2.279057 1_555
Na1_5 O0_5 2.332149 1_555
Na1_5 O3_4 2.336442 1_556
Na1_5 O0_1 2.357162 1_655
Na1_5 O3_0 2.714414 1_556
Na1_6 O1_4 2.279057 1_565
Na1_6 O0_6 2.332149 1_555
Na1_6 O3_7 2.336442 1_555
Na1_6 O0_2 2.357162 1_655
Na1_6 O3_3 2.714414 1_555
Na1_7 O1_5 2.279057 1_565
Na1_7 O0_7 2.332149 1_555
Na1_7 O3_6 2.336442 1_556
Na1_7 O0_3 2.357162 1_655
Na1_7 O3_2 2.714414 1_556
Mg0_0 O1_5 1.979022 1_554
Mg0_0 O1_1 1.991740 1_554
Mg0_0 O2_0 1.994769 1_555
Mg0_0 O3_2 2.057455 1_545
Mg0_1 O1_4 1.979022 1_555
Mg0_1 O1_0 1.991740 1_555
Mg0_1 O2_1 1.994769 1_555
Mg0_1 O3_3 2.057455 1_545
Mg0_2 O1_7 1.979022 1_554
Mg0_2 O1_3 1.991740 1_554
Mg0_2 O2_2 1.994769 1_555
Mg0_2 O3_0 2.057455 1_555
Mg0_3 O1_6 1.979022 1_555
Mg0_3 O1_2 1.991740 1_555
Mg0_3 O2_3 1.994769 1_555
Mg0_3 O3_1 2.057455 1_555
Mg0_4 O1_1 1.979022 1_654
Mg0_4 O1_5 1.991740 1_554
Mg0_4 O2_4 1.994769 1_555
Mg0_4 O3_6 2.057455 1_545
Mg0_5 O1_0 1.979022 1_655
Mg0_5 O1_4 1.991740 1_555
Mg0_5 O2_5 1.994769 1_555
Mg0_5 O3_7 2.057455 1_545
Mg0_6 O1_3 1.979022 1_654
Mg0_6 O1_7 1.991740 1_554
Mg0_6 O2_6 1.994769 1_555
Mg0_6 O3_4 2.057455 1_555
Mg0_7 O1_2 1.979022 1_655
Mg0_7 O1_6 1.991740 1_555
Mg0_7 O2_7 1.994769 1_555
Mg0_7 O3_5 2.057455 1_555
Co0_0 O2_4 2.025126 1_455
Co0_0 O3_4 2.031295 1_455
Co0_0 O3_0 2.071273 1_555
Co0_0 O0_0 2.091403 1_555
Co0_0 O2_0 2.694022 1_555
Co0_0 Na1_1 2.721619 1_554
Co0_0 Na0_2 2.785011 1_555
Co0_1 O2_5 2.025126 1_455
Co0_1 O3_5 2.031295 1_455
Co0_1 O3_1 2.071273 1_555
Co0_1 O0_1 2.091403 1_555
Co0_1 O2_1 2.694022 1_555
Co0_1 Na1_0 2.721619 1_555
Co0_1 Na0_3 2.785011 1_555
Co0_2 O2_6 2.025126 1_455
Co0_2 O3_6 2.031295 1_455
Co0_2 O3_2 2.071273 1_555
Co0_2 O0_2 2.091403 1_555
Co0_2 O2_2 2.694022 1_555
Co0_2 Na1_3 2.721619 1_554
Co0_2 Na0_0 2.785011 1_565
Co0_3 O2_7 2.025126 1_455
Co0_3 O3_7 2.031295 1_455
Co0_3 O3_3 2.071273 1_555
Co0_3 O0_3 2.091403 1_555
Co0_3 O2_3 2.694022 1_555
Co0_3 Na1_2 2.721619 1_555
Co0_3 Na0_1 2.785011 1_565
Co0_4 O2_0 2.025126 1_555
Co0_4 O3_0 2.031295 1_555
Co0_4 O3_4 2.071273 1_555
Co0_4 O0_4 2.091403 1_555
Co0_4 O2_4 2.694022 1_555
Co0_4 Na1_5 2.721619 1_554
Co0_4 Na0_6 2.785011 1_555
Co0_5 O2_1 2.025126 1_555
Co0_5 O3_1 2.031295 1_555
Co0_5 O3_5 2.071273 1_555
Co0_5 O0_5 2.091403 1_555
Co0_5 O2_5 2.694022 1_555
Co0_5 Na1_4 2.721619 1_555
Co0_5 Na0_7 2.785011 1_555
Co0_6 O2_2 2.025126 1_555
Co0_6 O3_2 2.031295 1_555
Co0_6 O3_6 2.071273 1_555
Co0_6 O0_6 2.091403 1_555
Co0_6 O2_6 2.694022 1_555
Co0_6 Na1_7 2.721619 1_554
Co0_6 Na0_4 2.785011 1_565
Co0_7 O2_3 2.025126 1_555
Co0_7 O3_3 2.031295 1_555
Co0_7 O3_7 2.071273 1_555
Co0_7 O0_7 2.091403 1_555
Co0_7 O2_7 2.694022 1_555
Co0_7 Na1_6 2.721619 1_555
Co0_7 Na0_5 2.785011 1_565
Co1_0 O1_0 1.931848 1_555
Co1_0 O0_0 1.988315 1_555
Co1_0 O2_0 2.028028 1_555
Co1_0 O0_4 2.053668 1_555
Co1_0 Na1_0 2.660099 1_555
Co1_0 Na0_0 2.802084 1_555
Co1_1 O1_1 1.931848 1_555
Co1_1 O0_1 1.988315 1_555
Co1_1 O2_1 2.028028 1_555
Co1_1 O0_5 2.053668 1_555
Co1_1 Na1_1 2.660099 1_555
Co1_1 Na0_1 2.802084 1_555
Co1_2 O1_2 1.931848 1_555
Co1_2 O0_2 1.988315 1_555
Co1_2 O2_2 2.028028 1_555
Co1_2 O0_6 2.053668 1_555
Co1_2 Na1_2 2.660099 1_555
Co1_2 Na0_2 2.802084 1_555
Co1_3 O1_3 1.931848 1_555
Co1_3 O0_3 1.988315 1_555
Co1_3 O2_3 2.028028 1_555
Co1_3 O0_7 2.053668 1_555
Co1_3 Na1_3 2.660099 1_555
Co1_3 Na0_3 2.802084 1_555
Co1_4 O1_4 1.931848 1_555
Co1_4 O0_4 1.988315 1_555
Co1_4 O2_4 2.028028 1_555
Co1_4 O0_0 2.053668 1_655
Co1_4 Na1_4 2.660099 1_555
Co1_4 Na0_4 2.802084 1_555
Co1_5 O1_5 1.931848 1_555
Co1_5 O0_5 1.988315 1_555
Co1_5 O2_5 2.028028 1_555
Co1_5 O0_1 2.053668 1_655
Co1_5 Na1_5 2.660099 1_555
Co1_5 Na0_5 2.802084 1_555
Co1_6 O1_6 1.931848 1_555
Co1_6 O0_6 1.988315 1_555
Co1_6 O2_6 2.028028 1_555
Co1_6 O0_2 2.053668 1_655
Co1_6 Na1_6 2.660099 1_555
Co1_6 Na0_6 2.802084 1_555
Co1_7 O1_7 1.931848 1_555
Co1_7 O0_7 1.988315 1_555
Co1_7 O2_7 2.028028 1_555
Co1_7 O0_3 2.053668 1_655
Co1_7 Na1_7 2.660099 1_555
Co1_7 Na0_7 2.802084 1_555
