# generated using pymatgen
data_MgMnHO2
_symmetry_space_group_name_H-M   'P 1'
_cell_length_a   3.18455222
_cell_length_b   3.25951060
_cell_length_c   7.18019148
_cell_angle_alpha   101.45416020
_cell_angle_beta   89.99943543
_cell_angle_gamma   119.25589173
_symmetry_Int_Tables_number   1
_chemical_formula_structural   MgMnHO2
_chemical_formula_sum   'Mg1 Mn1 H1 O2'
_cell_volume   63.31747143
_cell_formula_units_Z   1
loop_
 _symmetry_equiv_pos_site_id
 _symmetry_equiv_pos_as_xyz
  1  'x, y, z'
loop_
 _atom_site_type_symbol
 _atom_site_label
 _atom_site_symmetry_multiplicity
 _atom_site_fract_x
 _atom_site_fract_y
 _atom_site_fract_z
 _atom_site_occupancy
  Mg  Mg0  1  0.84203015  0.58925746  0.34427675  1
  Mn  Mn0  1  0.04384488  0.99351631  0.98729131  1
  H  H0  1  0.63833926  0.18263301  0.70595457  1
  O  O0  1  0.67558190  0.25693253  0.84752750  1
  O  O1  1  0.47043181  0.84613070  0.19973687  1
loop_
_geom_bond_atom_site_label_1
_geom_bond_atom_site_label_2
_geom_bond_distance
_geom_bond_site_symmetry_2
Mg0 O1 2.119007 1_655
Mg0 O1 2.119453 1_555
Mg0 O1 2.131799 1_545
Mn0 O0 2.106599 1_455
Mn0 O0 2.108423 1_565
Mn0 O0 2.108571 1_465
Mn0 O1 2.307746 1_456
Mn0 O1 2.309135 1_556
Mn0 O1 2.553815 1_566
H0 O0 0.990043 1_555
