# generated using pymatgen
data_Na5TiIn3Si3(SO8)3
_symmetry_space_group_name_H-M   'P 1'
_cell_length_a   9.09048159
_cell_length_b   9.08369259
_cell_length_c   22.82999273
_cell_angle_alpha   90.74308867
_cell_angle_beta   90.09996354
_cell_angle_gamma   119.96935176
_symmetry_Int_Tables_number   1
_chemical_formula_structural   Na5TiIn3Si3(SO8)3
_chemical_formula_sum   'Na15 Ti3 In9 Si9 S9 O72'
_cell_volume   1632.91534379
_cell_formula_units_Z   3
loop_
 _symmetry_equiv_pos_site_id
 _symmetry_equiv_pos_as_xyz
  1  'x, y, z'
loop_
 _atom_site_type_symbol
 _atom_site_label
 _atom_site_symmetry_multiplicity
 _atom_site_fract_x
 _atom_site_fract_y
 _atom_site_fract_z
 _atom_site_occupancy
  Na  Na0  1  0.64601234  0.00713931  0.25568921  1
  Na  Na1  1  0.00022932  0.62133356  0.24704803  1
  Na  Na2  1  0.63191656  0.63640609  0.74469640  1
  Na  Na3  1  0.36546851  0.01196567  0.75779476  1
  Na  Na4  1  0.66544262  0.95310130  0.58441677  1
  Na  Na5  1  0.98106959  0.68399561  0.92099394  1
  Na  Na6  1  0.69414585  0.02173124  0.91330522  1
  Na  Na7  1  0.96249160  0.30203312  0.41064270  1
  Na  Na8  1  0.70328738  0.68625650  0.42413917  1
  Na  Na9  1  0.00438020  0.98147611  0.50135924  1
  Na  Na10  1  0.01249148  0.99121009  0.99810595  1
  Na  Na11  1  0.64865346  0.31891467  0.83168138  1
  Na  Na12  1  0.66331968  0.31800239  0.33398932  1
  Na  Na13  1  0.30591298  0.63634056  0.16028681  1
  Na  Na14  1  0.32617980  0.63577373  0.66788852  1
  Ti  Ti0  1  0.66090417  0.35046188  0.97825702  1
  Ti  Ti1  1  0.68001108  0.34843647  0.48046631  1
  Ti  Ti2  1  0.36329999  0.67822929  0.81483088  1
  In  In0  1  0.99677612  0.00074920  0.35096130  1
  In  In1  1  0.00772578  0.01175643  0.84974566  1
  In  In2  1  0.99447758  0.99865840  0.65127281  1
  In  In3  1  0.00170228  0.00166037  0.14223320  1
  In  In4  1  0.65939800  0.33487459  0.68507852  1
  In  In5  1  0.68282763  0.33872764  0.17849890  1
  In  In6  1  0.33052449  0.67718910  0.01670990  1
  In  In7  1  0.33875917  0.67375563  0.51633300  1
  In  In8  1  0.32089099  0.66228730  0.32042628  1
  Si  Si0  1  0.00470670  0.29591121  0.24947362  1
  Si  Si1  1  0.29027045  0.29861188  0.74999558  1
  Si  Si2  1  0.70355762  0.00348181  0.75080312  1
  Si  Si3  1  0.66724789  0.62976744  0.58425556  1
  Si  Si4  1  0.96637827  0.63134001  0.08296390  1
  Si  Si5  1  0.62679571  0.66888058  0.91861933  1
  Si  Si6  1  0.33558604  0.96470072  0.91637379  1
  Si  Si7  1  0.62874936  0.96928227  0.41728978  1
  Si  Si8  1  0.03628900  0.66956752  0.41780582  1
  S  S0  1  0.29773212  0.00368644  0.24886571  1
  S  S1  1  0.69842480  0.69884111  0.24970450  1
  S  S2  1  0.00704477  0.70161251  0.75138017  1
  S  S3  1  0.95800600  0.33677002  0.58096572  1
  S  S4  1  0.37446530  0.04424209  0.58138192  1
  S  S5  1  0.66545787  0.03973037  0.08176035  1
  S  S6  1  0.38045834  0.33497758  0.08156931  1
  S  S7  1  0.03808939  0.37756081  0.91759188  1
  S  S8  1  0.34083269  0.36964905  0.41813644  1
  O  O0  1  0.22181561  0.02455468  0.30318117  1
  O  O1  1  0.80303390  0.76940980  0.30434972  1
  O  O2  1  0.97085863  0.18799303  0.31014148  1
  O  O3  1  0.21905676  0.16768244  0.80309052  1
  O  O4  1  0.97025131  0.77359536  0.80434785  1
  O  O5  1  0.80752112  0.02664215  0.81071160  1
  O  O6  1  0.76802629  0.94910911  0.69189647  1
  O  O7  1  0.18125342  0.21904785  0.68968983  1
  O  O8  1  0.03819106  0.81023487  0.69956479  1
  O  O9  1  0.78400888  0.80686889  0.19932038  1
  O  O10  1  0.02282559  0.19715530  0.19300250  1
  O  O11  1  0.18832731  0.97183591  0.19730596  1
  O  O12  1  0.87755651  0.35404014  0.63413208  1
  O  O13  1  0.47000851  0.11335128  0.63730764  1
  O  O14  1  0.65160124  0.53059306  0.64389283  1
  O  O15  1  0.89112675  0.54000410  0.14589423  1
  O  O16  1  0.64280354  0.10927994  0.13900700  1
  O  O17  1  0.47452324  0.34981124  0.13646508  1
  O  O18  1  0.47168558  0.31868623  0.02952201  1
  O  O19  1  0.83036517  0.51346145  0.02674412  1
  O  O20  1  0.67401078  0.14382284  0.03189710  1
  O  O21  1  0.47030870  0.14927150  0.53135221  1
  O  O22  1  0.67871169  0.51626837  0.52650869  1
  O  O23  1  0.85207981  0.31998162  0.52747757  1
  O  O24  1  0.54067550  0.70219993  0.97393914  1
  O  O25  1  0.13599527  0.44671689  0.97203470  1
  O  O26  1  0.28411209  0.84037367  0.97116687  1
  O  O27  1  0.55538795  0.84286849  0.47253291  1
  O  O28  1  0.30553228  0.44439853  0.46977253  1
  O  O29  1  0.14984109  0.68961495  0.47392724  1
  O  O30  1  0.09166847  0.61026257  0.35794987  1
  O  O31  1  0.52171850  0.88783840  0.35584483  1
  O  O32  1  0.37649676  0.47715559  0.36574976  1
  O  O33  1  0.12114839  0.48293032  0.86653534  1
  O  O34  1  0.36982881  0.86738446  0.85865781  1
  O  O35  1  0.51109449  0.64143139  0.85828770  1
  O  O36  1  0.00190590  0.82791024  0.41112683  1
  O  O37  1  0.82365978  0.00069227  0.41370349  1
  O  O38  1  0.19043473  0.19973426  0.41077140  1
  O  O39  1  0.00359693  0.20015822  0.91303214  1
  O  O40  1  0.16924621  0.98403577  0.90907768  1
  O  O41  1  0.81737705  0.82932104  0.91180155  1
  O  O42  1  0.96293461  0.17585386  0.58065460  1
  O  O43  1  0.20574054  0.02982565  0.58312903  1
  O  O44  1  0.83932097  0.82072265  0.58259223  1
  O  O45  1  0.97396154  0.81698562  0.08196536  1
  O  O46  1  0.82504645  0.03297775  0.08276727  1
  O  O47  1  0.21218999  0.17845262  0.08122207  1
  O  O48  1  0.66658247  0.16046133  0.74411060  1
  O  O49  1  0.48924859  0.33715323  0.74736555  1
  O  O50  1  0.85523796  0.53185680  0.74407543  1
  O  O51  1  0.67565247  0.52598018  0.24429304  1
  O  O52  1  0.82656243  0.31001149  0.24729289  1
  O  O53  1  0.46939019  0.15602848  0.24367652  1
  O  O54  1  0.64602720  0.49453838  0.92561979  1
  O  O55  1  0.86597471  0.36610392  0.92208886  1
  O  O56  1  0.51941202  0.14927017  0.92713987  1
  O  O57  1  0.65033610  0.16073773  0.42878618  1
  O  O58  1  0.49530808  0.35506708  0.42556856  1
  O  O59  1  0.83956940  0.49609106  0.42841017  1
  O  O60  1  0.36400671  0.48751575  0.07815123  1
  O  O61  1  0.14758731  0.64069733  0.07889262  1
  O  O62  1  0.51755834  0.86588376  0.08007503  1
  O  O63  1  0.35876187  0.87287610  0.57803002  1
  O  O64  1  0.49916541  0.65321514  0.57921914  1
  O  O65  1  0.12910012  0.48555204  0.57713804  1
  O  O66  1  0.31919545  0.85070827  0.25237249  1
  O  O67  1  0.53311220  0.69255020  0.25530379  1
  O  O68  1  0.16881890  0.49117038  0.25259880  1
  O  O69  1  0.31014280  0.49110466  0.76149202  1
  O  O70  1  0.16137045  0.68934266  0.75876970  1
  O  O71  1  0.50932118  0.82655890  0.75869777  1
loop_
_geom_bond_atom_site_label_1
_geom_bond_atom_site_label_2
_geom_bond_distance
_geom_bond_site_symmetry_2
Na0 O52 2.408965 1_555
Na0 O67 2.507719 1_545
Na0 O31 2.555256 1_545
Na0 O66 2.574882 1_545
Na0 O53 2.580663 1_555
Na0 O16 2.837020 1_555
Na0 O2 2.837601 1_555
Na0 O9 2.960428 1_545
Na1 O68 2.361430 1_555
Na1 O52 2.455553 1_455
Na1 O15 2.465404 1_455
Na1 O66 2.592264 1_555
Na1 O51 2.627669 1_455
Na1 O30 2.682216 1_555
Na1 O11 3.001972 1_555
Na1 O1 3.017538 1_455
Na2 O49 2.357409 1_555
Na2 O71 2.497564 1_555
Na2 O14 2.523482 1_555
Na2 O69 2.570032 1_555
Na2 O50 2.636163 1_555
Na2 O6 2.763170 1_555
Na2 O35 2.826751 1_555
Na2 O4 2.996529 1_555
Na3 O48 2.394747 1_555
Na3 O70 2.569213 1_545
Na3 O3 2.586367 1_555
Na3 O49 2.597465 1_555
Na3 O71 2.597707 1_545
Na3 O34 2.675627 1_545
Na3 O8 2.907363 1_545
Na3 O13 2.918590 1_555
Na4 O64 2.365728 1_555
Na4 O44 2.417435 1_555
Na4 O42 2.439969 1_565
Na4 O63 2.508116 1_555
Na4 O6 2.630587 1_555
Na4 O27 2.729822 1_555
Na4 O13 3.046127 1_565
Na4 O23 3.185251 1_565
Na5 O40 2.406524 1_655
Na5 O41 2.443274 1_555
Na5 O55 2.533227 1_555
Na5 O26 2.637427 1_655
Na5 O54 2.649208 1_555
Na5 O4 2.810533 1_555
Na5 O19 2.844911 1_556
Na5 O33 2.961970 1_655
Na6 O56 2.407440 1_555
Na6 O39 2.446521 1_655
Na6 O41 2.503114 1_545
Na6 O5 2.552519 1_555
Na6 O55 2.714128 1_555
Na6 O34 2.833060 1_545
Na6 O24 2.890078 1_545
Na6 O20 2.953037 1_556
Na7 O37 2.375768 1_555
Na7 O57 2.500065 1_555
Na7 O2 2.522108 1_555
Na7 O59 2.543907 1_555
Na7 O38 2.661005 1_655
Na7 O30 2.733648 1_655
Na7 O23 2.882748 1_555
Na7 O28 3.021619 1_655
Na8 O36 2.374011 1_655
Na8 O37 2.511625 1_565
Na8 O59 2.582677 1_555
Na8 O27 2.631998 1_555
Na8 O58 2.635598 1_555
Na8 O22 2.765323 1_555
Na8 O1 2.872243 1_555
Na8 O32 2.914254 1_555
Na9 O44 2.390395 1_455
Na9 O36 2.466568 1_555
Na9 O43 2.488387 1_565
Na9 O37 2.649186 1_465
Na9 O42 2.668492 1_465
Na9 O38 2.799433 1_565
Na10 O45 2.412422 1_456
Na10 O40 2.503072 1_555
Na10 O41 2.549009 1_455
Na10 O47 2.570711 1_566
Na10 O46 2.724260 1_466
Na10 O39 2.762189 1_565
Na10 Na5 3.169062 1_455
Na11 O49 2.463937 1_555
Na11 O48 2.501219 1_555
Na11 O56 2.606082 1_555
Na11 O54 2.663540 1_555
Na11 O55 2.731931 1_555
Na11 O50 2.784365 1_555
Na11 Na3 3.152520 1_555
Na12 O52 2.497814 1_555
Na12 O57 2.578975 1_555
Na12 O53 2.615541 1_555
Na12 O59 2.671843 1_555
Na12 O58 2.706270 1_555
Na12 O51 2.768493 1_555
Na13 O61 2.361254 1_555
Na13 O68 2.484533 1_555
Na13 O60 2.504724 1_555
Na13 O62 2.739723 1_555
Na13 O66 2.807868 1_555
Na13 O67 2.852022 1_555
Na14 O69 2.489446 1_555
Na14 O64 2.523157 1_555
Na14 O65 2.614475 1_555
Na14 O71 2.661836 1_555
Na14 O70 2.738476 1_555
Na14 O63 2.900751 1_555
Na14 O7 3.373636 1_555
In0 O2 2.063401 1_555
In0 O36 2.117239 1_645
In0 O37 2.129652 1_555
In0 O1 2.210896 1_545
In0 O38 2.231434 1_655
In0 O0 2.234626 1_655
In1 O3 2.039378 1_555
In1 O5 2.089976 1_455
In1 O40 2.103664 1_545
In1 O41 2.225339 1_445
In1 O39 2.240090 1_555
In1 O4 2.252726 1_445
In2 O7 2.052603 1_665
In2 O6 2.095750 1_555
In2 O44 2.170097 1_555
In2 O8 2.242736 1_655
In2 O43 2.380612 1_665
In2 O42 2.408118 1_565
In3 O10 2.034448 1_555
In3 O45 2.070535 1_445
In3 O46 2.227492 1_455
In3 O11 2.234492 1_545
In3 O47 2.275453 1_555
In3 O9 2.305673 1_445
In4 O14 2.053992 1_555
In4 O49 2.110415 1_555
In4 O48 2.118744 1_555
In4 O13 2.162866 1_555
In4 O50 2.220764 1_555
In4 O12 2.232585 1_555
In5 O15 2.015881 1_555
In5 O16 2.117021 1_555
In5 O52 2.141484 1_555
In5 O17 2.168718 1_555
In5 O51 2.280049 1_555
In5 O53 2.364328 1_555
In6 O26 2.029686 1_554
In6 O24 2.057488 1_554
In6 O61 2.088173 1_555
In6 O25 2.188583 1_554
In6 O62 2.221933 1_555
In6 O60 2.369355 1_555
In7 O29 2.037724 1_555
In7 O27 2.064489 1_555
In7 O64 2.119845 1_555
In7 O28 2.207821 1_555
In7 O63 2.212027 1_555
In7 O65 2.301670 1_555
In8 O30 2.081370 1_555
In8 O31 2.097476 1_555
In8 O68 2.123275 1_555
In8 O32 2.246512 1_555
In8 O66 2.332123 1_555
In8 O67 2.344896 1_555
O0 S0 1.475614 1_555
O1 S1 1.495893 1_555
O2 Si0 1.646014 1_655
O3 Si1 1.604311 1_555
O4 S2 1.483612 1_655
O5 Si2 1.611660 1_555
O6 Si2 1.634226 1_565
O7 Si1 1.629059 1_555
O8 S2 1.485066 1_555
O9 S1 1.470034 1_555
O10 Si0 1.616277 1_555
O11 S0 1.469018 1_565
O12 S3 1.464755 1_555
O13 S4 1.486347 1_555
O14 Si3 1.609348 1_555
O15 Si4 1.639429 1_555
O16 S5 1.503044 1_555
O17 S6 1.482160 1_555
O18 S6 1.497678 1_555
O18 Ti0 1.982817 1_554
O19 Si4 1.720110 1_555
O19 Ti0 1.861045 1_554
O20 S5 1.466555 1_555
O20 Ti0 2.306446 1_554
O21 S4 1.474844 1_555
O21 Ti1 2.207546 1_555
O22 Si3 1.698365 1_555
O22 Ti1 1.845459 1_555
O23 S3 1.511951 1_555
O23 Ti1 2.017588 1_555
O24 Si5 1.590536 1_555
O25 S7 1.465922 1_555
O26 Si6 1.603098 1_555
O27 Si7 1.621538 1_555
O28 S8 1.466954 1_555
O29 Si8 1.594310 1_555
O30 Si8 1.632560 1_555
O31 Si7 1.646501 1_555
O32 S8 1.484754 1_555
O33 S7 1.467951 1_555
O33 Ti2 2.355430 1_555
O34 Si6 1.691357 1_555
O34 Ti2 1.951995 1_555
O35 Si5 1.670207 1_555
O35 Ti2 1.831313 1_555
O36 Si8 1.626169 1_555
O37 Si7 1.650314 1_545
O38 S8 1.471040 1_555
O39 S7 1.482131 1_555
O40 Si6 1.615635 1_555
O41 Si5 1.622948 1_555
O42 S3 1.484528 1_555
O43 S4 1.473407 1_555
O44 Si3 1.657759 1_555
O45 Si4 1.653451 1_555
O46 S5 1.482482 1_555
O47 S6 1.479273 1_555
O48 Si2 1.629107 1_555
O49 Si1 1.663192 1_555
O50 S2 1.475305 1_655
O51 S1 1.481155 1_555
O52 Si0 1.687752 1_655
O53 S0 1.487122 1_555
O54 Si5 1.687363 1_555
O54 Ti0 1.841810 1_555
O55 S7 1.519052 1_655
O55 Ti0 2.210920 1_555
O56 Si6 1.688959 1_545
O56 Ti0 1.986764 1_555
O57 Si7 1.667022 1_545
O57 Ti1 1.964446 1_555
O58 S8 1.484538 1_555
O58 Ti1 2.118785 1_555
O59 Si8 1.713403 1_655
O59 Ti1 1.849030 1_555
O60 S6 1.469069 1_555
O61 Si4 1.609422 1_455
O62 S5 1.476458 1_565
O63 S4 1.491380 1_565
O64 Si3 1.648751 1_555
O65 S3 1.468565 1_455
O66 S0 1.499731 1_565
O67 S1 1.480875 1_555
O68 Si0 1.652084 1_555
O69 Si1 1.682641 1_555
O69 Ti2 1.931131 1_555
O70 S2 1.471351 1_555
O70 Ti2 2.279940 1_555
O71 Si2 1.704867 1_565
O71 Ti2 1.866437 1_555
