# generated using pymatgen
data_Sr2CoO4
_symmetry_space_group_name_H-M   'P 1'
_cell_length_a   3.78426192
_cell_length_b   3.91990194
_cell_length_c   6.83028019
_cell_angle_alpha   106.67545668
_cell_angle_beta   106.08248838
_cell_angle_gamma   89.99998720
_symmetry_Int_Tables_number   1
_chemical_formula_structural   Sr2CoO4
_chemical_formula_sum   'Sr2 Co1 O4'
_cell_volume   92.91203864
_cell_formula_units_Z   1
loop_
 _symmetry_equiv_pos_site_id
 _symmetry_equiv_pos_as_xyz
  1  'x, y, z'
loop_
 _atom_site_type_symbol
 _atom_site_label
 _atom_site_symmetry_multiplicity
 _atom_site_fract_x
 _atom_site_fract_y
 _atom_site_fract_z
 _atom_site_occupancy
  Sr  Sr0  1  0.64263000  0.64263000  0.28525900  1
  Sr  Sr1  1  0.35737000  0.35737000  0.71474100  1
  Co  Co0  1  0.00000000  0.00000000  0.00000000  1
  O  O0  1  0.84301200  0.84301200  0.68602400  1
  O  O1  1  0.15698800  0.15698800  0.31397600  1
  O  O2  1  0.00000000  0.50000000  0.00000000  1
  O  O3  1  0.50000000  0.00000000  0.00000000  1
loop_
_geom_bond_atom_site_label_1
_geom_bond_atom_site_label_2
_geom_bond_distance
_geom_bond_site_symmetry_2
Co0 O3 1.892131 1_455
Co0 O3 1.892131 1_555
Co0 O2 1.959951 1_545
Co0 O2 1.959951 1_555
Co0 O1 1.966582 1_555
Co0 O0 1.966582 1_444
O0 Sr0 2.510183 1_555
O0 Sr1 2.730184 1_665
O0 Sr1 2.730186 1_565
O0 Sr1 2.730187 1_655
O0 Sr1 2.730190 1_555
O1 Sr1 2.510183 1_555
O1 Sr0 2.730184 1_445
O1 Sr0 2.730186 1_545
O1 Sr0 2.730187 1_455
O1 Sr0 2.730190 1_555
O2 Sr0 2.602402 1_455
O2 Sr1 2.602402 1_554
O2 Sr1 2.602405 1_454
O2 Sr0 2.602405 1_555
O3 Sr0 2.652121 1_545
O3 Sr1 2.652121 1_554
O3 Sr1 2.652124 1_544
O3 Sr0 2.652124 1_555
