# generated using pymatgen
data_Co3B7ClO13
_symmetry_space_group_name_H-M   'P 1'
_cell_length_a   8.65226301
_cell_length_b   8.65226301
_cell_length_c   8.65226296
_cell_angle_alpha   59.78750328
_cell_angle_beta   59.78750328
_cell_angle_gamma   59.78750285
_symmetry_Int_Tables_number   1
_chemical_formula_structural   Co3B7ClO13
_chemical_formula_sum   'Co6 B14 Cl2 O26'
_cell_volume   455.79958808
_cell_formula_units_Z   2
loop_
 _symmetry_equiv_pos_site_id
 _symmetry_equiv_pos_as_xyz
  1  'x, y, z'
loop_
 _atom_site_type_symbol
 _atom_site_label
 _atom_site_symmetry_multiplicity
 _atom_site_fract_x
 _atom_site_fract_y
 _atom_site_fract_z
 _atom_site_occupancy
  Co  Co0  1  0.97050900  0.97268700  0.53005900  1
  Co  Co1  1  0.97268700  0.53005900  0.97050900  1
  Co  Co2  1  0.53005900  0.97050900  0.97268700  1
  Co  Co3  1  0.03005900  0.47268700  0.47050900  1
  Co  Co4  1  0.47050900  0.03005900  0.47268700  1
  Co  Co5  1  0.47268700  0.47050900  0.03005900  1
  B  B0  1  0.57148700  0.57107500  0.26439500  1
  B  B1  1  0.60044600  0.60044600  0.60044600  1
  B  B2  1  0.10044600  0.10044600  0.10044600  1
  B  B3  1  0.26439500  0.57148700  0.57107500  1
  B  B4  1  0.57107500  0.26439500  0.57148700  1
  B  B5  1  0.07148700  0.76439500  0.07107500  1
  B  B6  1  0.07107500  0.07148700  0.76439500  1
  B  B7  1  0.76439500  0.07107500  0.07148700  1
  B  B8  1  0.75152800  0.24491900  0.24558700  1
  B  B9  1  0.24491900  0.24558700  0.75152800  1
  B  B10  1  0.24558700  0.75152800  0.24491900  1
  B  B11  1  0.74491900  0.25152800  0.74558700  1
  B  B12  1  0.25152800  0.74558700  0.74491900  1
  B  B13  1  0.74558700  0.74491900  0.25152800  1
  Cl  Cl0  1  0.76792000  0.76792000  0.76792000  1
  Cl  Cl1  1  0.26792000  0.26792000  0.26792000  1
  O  O0  1  0.74687100  0.21216600  0.59829300  1
  O  O1  1  0.43315400  0.61022200  0.18670800  1
  O  O2  1  0.09829300  0.71216600  0.24687100  1
  O  O3  1  0.71216600  0.24687100  0.09829300  1
  O  O4  1  0.24687100  0.09829300  0.71216600  1
  O  O5  1  0.18670800  0.43315400  0.61022200  1
  O  O6  1  0.21216600  0.59829300  0.74687100  1
  O  O7  1  0.59829300  0.74687100  0.21216600  1
  O  O8  1  0.98568200  0.98568200  0.98568200  1
  O  O9  1  0.48568200  0.48568200  0.48568200  1
  O  O10  1  0.61022200  0.18670800  0.43315400  1
  O  O11  1  0.94319200  0.10420600  0.26260900  1
  O  O12  1  0.10420600  0.26260900  0.94319200  1
  O  O13  1  0.44319200  0.76260900  0.60420600  1
  O  O14  1  0.76260900  0.60420600  0.44319200  1
  O  O15  1  0.60420600  0.44319200  0.76260900  1
  O  O16  1  0.93322400  0.25124800  0.69811300  1
  O  O17  1  0.25124800  0.69811300  0.93322400  1
  O  O18  1  0.69811300  0.93322400  0.25124800  1
  O  O19  1  0.75124800  0.43322400  0.19811300  1
  O  O20  1  0.43322400  0.19811300  0.75124800  1
  O  O21  1  0.19811300  0.75124800  0.43322400  1
  O  O22  1  0.68670800  0.11022200  0.93315400  1
  O  O23  1  0.11022200  0.93315400  0.68670800  1
  O  O24  1  0.93315400  0.68670800  0.11022200  1
  O  O25  1  0.26260900  0.94319200  0.10420600  1
loop_
_geom_bond_atom_site_label_1
_geom_bond_atom_site_label_2
_geom_bond_distance
_geom_bond_site_symmetry_2
Co0 O23 2.044875 1_655
Co0 O11 2.082116 1_565
Co0 O21 2.099689 1_655
Co0 O0 2.105321 1_565
Co1 O24 2.044875 1_556
Co1 O12 2.082116 1_655
Co1 O19 2.099689 1_556
Co1 O6 2.105321 1_655
Co2 O22 2.044875 1_565
Co2 O25 2.082116 1_556
Co2 O20 2.099689 1_565
Co2 O7 2.105321 1_556
Co3 O5 2.044875 1_555
Co3 O14 2.082116 1_455
Co3 O16 2.099689 1_455
Co3 O2 2.105321 1_555
Co4 O10 2.044875 1_555
Co4 O13 2.082116 1_545
Co4 O18 2.099689 1_545
Co4 O4 2.105321 1_555
Co5 O1 2.044875 1_555
Co5 O15 2.082116 1_554
Co5 O17 2.099689 1_554
Co5 O3 2.105321 1_555
B0 O19 1.447161 1_555
B0 O7 1.459226 1_555
B0 O1 1.473646 1_555
B0 O9 1.568653 1_555
B1 O13 1.378780 1_555
B1 O15 1.378780 1_555
B1 O14 1.378780 1_555
B2 O25 1.378780 1_545
B2 O11 1.378780 1_455
B2 O12 1.378780 1_554
B3 O21 1.447161 1_555
B3 O6 1.459226 1_555
B3 O5 1.473646 1_555
B3 O9 1.568653 1_555
B4 O20 1.447161 1_555
B4 O0 1.459226 1_555
B4 O10 1.473646 1_555
B4 O9 1.568653 1_555
B5 O17 1.447161 1_554
B5 O2 1.459226 1_555
B5 O24 1.473646 1_455
B5 O8 1.568653 1_454
B6 O16 1.447161 1_455
B6 O4 1.459226 1_555
B6 O23 1.473646 1_545
B6 O8 1.568653 1_445
B7 O18 1.447161 1_545
B7 O3 1.459226 1_555
B7 O22 1.473646 1_554
B7 O8 1.568653 1_544
B8 O19 1.465173 1_555
B8 O3 1.466220 1_555
B8 O10 1.477301 1_555
B8 O11 1.512419 1_555
B9 O20 1.465173 1_555
B9 O4 1.466220 1_555
B9 O5 1.477301 1_555
B9 O12 1.512419 1_555
B10 O21 1.465173 1_555
B10 O2 1.466220 1_555
B10 O1 1.477301 1_555
B10 O25 1.512419 1_555
B11 O16 1.465173 1_555
B11 O0 1.466220 1_555
B11 O22 1.477301 1_555
B11 O15 1.512419 1_555
B12 O17 1.465173 1_555
B12 O6 1.466220 1_555
B12 O23 1.477301 1_555
B12 O13 1.512419 1_555
B13 O18 1.465173 1_555
B13 O7 1.466220 1_555
B13 O24 1.477301 1_555
B13 O14 1.512419 1_555
Cl0 Co2 2.504431 1_555
Cl0 Co1 2.504431 1_555
Cl0 Co0 2.504431 1_555
Cl1 Co4 2.504431 1_555
Cl1 Co3 2.504431 1_555
Cl1 Co5 2.504431 1_555
