# generated using pymatgen
data_LiCr2(PO3)5
_symmetry_space_group_name_H-M   'P 1'
_cell_length_a   8.78739900
_cell_length_b   5.43152200
_cell_length_c   12.93612362
_cell_angle_alpha   84.06106391
_cell_angle_beta   90.00000000
_cell_angle_gamma   90.00000000
_symmetry_Int_Tables_number   1
_chemical_formula_structural   LiCr2(PO3)5
_chemical_formula_sum   'Li2 Cr4 P10 O30'
_cell_volume   614.11371189
_cell_formula_units_Z   2
loop_
 _symmetry_equiv_pos_site_id
 _symmetry_equiv_pos_as_xyz
  1  'x, y, z'
loop_
 _atom_site_type_symbol
 _atom_site_label
 _atom_site_symmetry_multiplicity
 _atom_site_fract_x
 _atom_site_fract_y
 _atom_site_fract_z
 _atom_site_occupancy
  Li  Li0  1  0.00218900  0.39006100  0.43818000  1
  Li  Li1  1  0.99781100  0.89006100  0.93818000  1
  Cr  Cr0  1  0.29084200  0.15576400  0.95312900  1
  Cr  Cr1  1  0.29403300  0.35360400  0.55412000  1
  Cr  Cr2  1  0.70915800  0.65576400  0.45312900  1
  Cr  Cr3  1  0.70596700  0.85360400  0.05412000  1
  P  P0  1  0.82320500  0.11056100  0.59348700  1
  P  P1  1  0.51808400  0.90315200  0.64247800  1
  P  P2  1  0.05088900  0.25266300  0.75006900  1
  P  P3  1  0.51987200  0.60160500  0.86271900  1
  P  P4  1  0.17679500  0.61056100  0.09348700  1
  P  P5  1  0.48191600  0.40315200  0.14247800  1
  P  P6  1  0.94911100  0.75266300  0.25006900  1
  P  P7  1  0.82813400  0.39259000  0.90746100  1
  P  P8  1  0.17186600  0.89259000  0.40746100  1
  P  P9  1  0.48012800  0.10160500  0.36271900  1
  O  O0  1  0.83573400  0.12976300  0.95886600  1
  O  O1  1  0.54249900  0.77726500  0.94462800  1
  O  O2  1  0.54084200  0.72409100  0.56181100  1
  O  O3  1  0.86008600  0.60986200  0.96636100  1
  O  O4  1  0.14567900  0.39746300  0.03361800  1
  O  O5  1  0.16645700  0.87036900  0.03823700  1
  O  O6  1  0.45915800  0.22409100  0.06181100  1
  O  O7  1  0.34214700  0.59346700  0.14689600  1
  O  O8  1  0.62527300  0.55350300  0.14153000  1
  O  O9  1  0.85683500  0.90820100  0.17120100  1
  O  O10  1  0.06761100  0.58033500  0.19545700  1
  O  O11  1  0.46617200  0.25531700  0.25323700  1
  O  O12  1  0.06324000  0.93259900  0.30567500  1
  O  O13  1  0.87076000  0.58562700  0.33545900  1
  O  O14  1  0.62193700  0.94754800  0.36306100  1
  O  O15  1  0.33847800  0.91559100  0.35671800  1
  O  O16  1  0.45750100  0.27726500  0.44462800  1
  O  O17  1  0.13991400  0.10986200  0.46636100  1
  O  O18  1  0.37806300  0.44754800  0.86306100  1
  O  O19  1  0.83354300  0.37036900  0.53823700  1
  O  O20  1  0.85432100  0.89746300  0.53361800  1
  O  O21  1  0.16426600  0.62976300  0.45886600  1
  O  O22  1  0.65785300  0.09346700  0.64689600  1
  O  O23  1  0.37472700  0.05350300  0.64153000  1
  O  O24  1  0.14316500  0.40820100  0.67120100  1
  O  O25  1  0.93238900  0.08033500  0.69545700  1
  O  O26  1  0.53382800  0.75531700  0.75323700  1
  O  O27  1  0.93676000  0.43259900  0.80567500  1
  O  O28  1  0.12924000  0.08562700  0.83545900  1
  O  O29  1  0.66152200  0.41559100  0.85671800  1
loop_
_geom_bond_atom_site_label_1
_geom_bond_atom_site_label_2
_geom_bond_distance
_geom_bond_site_symmetry_2
Li0 O17 1.949097 1_555
Li0 O19 1.963247 1_455
Li0 O21 1.966524 1_555
Li0 O13 1.983886 1_455
Li1 O3 1.949097 1_555
Li1 O5 1.963247 1_656
Li1 O0 1.966524 1_565
Li1 O28 1.983886 1_665
Cr0 O18 2.018550 1_555
Cr0 O6 2.099986 1_556
Cr0 O5 2.111056 1_546
Cr0 O28 2.144474 1_555
Cr0 O4 2.172001 1_556
Cr1 O23 2.014176 1_555
Cr1 O24 2.057279 1_555
Cr1 O16 2.088795 1_555
Cr1 O21 2.164738 1_555
Cr1 O17 2.277425 1_555
Cr2 O14 2.018550 1_555
Cr2 O2 2.099986 1_555
Cr2 O19 2.111056 1_555
Cr2 O13 2.144474 1_555
Cr2 O20 2.172001 1_555
Cr3 O8 2.014176 1_555
Cr3 O9 2.057279 1_555
Cr3 O1 2.088795 1_554
Cr3 O0 2.164738 1_564
Cr3 O3 2.277425 1_554
O0 P7 1.512652 1_555
O1 P3 1.510552 1_555
O2 P1 1.511570 1_555
O3 P7 1.496039 1_555
O4 P4 1.483157 1_555
O5 P4 1.517142 1_555
O6 P5 1.511570 1_555
O7 P4 1.607466 1_555
O7 P5 1.610130 1_555
O8 P5 1.500634 1_555
O9 P6 1.494572 1_555
O10 P6 1.611321 1_455
O10 P4 1.625634 1_555
O11 P9 1.572648 1_555
O11 P5 1.574393 1_555
O12 P6 1.619839 1_455
O12 P8 1.622621 1_555
O13 P6 1.519850 1_555
O14 P9 1.500758 1_565
O15 P8 1.604079 1_555
O15 P9 1.610095 1_565
O16 P9 1.510552 1_555
O17 P8 1.496039 1_545
O18 P3 1.500758 1_555
O19 P0 1.517142 1_555
O20 P0 1.483157 1_565
O21 P8 1.512652 1_555
O22 P0 1.607466 1_555
O22 P1 1.610130 1_545
O23 P1 1.500634 1_545
O24 P2 1.494572 1_555
O25 P2 1.611321 1_655
O25 P0 1.625634 1_555
O26 P3 1.572648 1_555
O26 P1 1.574393 1_555
O27 P2 1.619839 1_655
O27 P7 1.622621 1_555
O28 P2 1.519850 1_555
O29 P7 1.604079 1_555
O29 P3 1.610095 1_555
