# generated using pymatgen
data_TaGa3P2(SO6)4
_symmetry_space_group_name_H-M   'P 1'
_cell_length_a   8.54132642
_cell_length_b   8.54673900
_cell_length_c   22.11123058
_cell_angle_alpha   89.60398940
_cell_angle_beta   90.26616291
_cell_angle_gamma   119.83441230
_symmetry_Int_Tables_number   1
_chemical_formula_structural   TaGa3P2(SO6)4
_chemical_formula_sum   'Ta3 Ga9 P6 S12 O72'
_cell_volume   1400.16993606
_cell_formula_units_Z   3
loop_
 _symmetry_equiv_pos_site_id
 _symmetry_equiv_pos_as_xyz
  1  'x, y, z'
loop_
 _atom_site_type_symbol
 _atom_site_label
 _atom_site_symmetry_multiplicity
 _atom_site_fract_x
 _atom_site_fract_y
 _atom_site_fract_z
 _atom_site_occupancy
  Ta  Ta0  1  0.66685699  0.33253725  0.97370098  1
  Ta  Ta1  1  0.32109734  0.65916673  0.31164888  1
  Ta  Ta2  1  0.33866072  0.67172614  0.80942697  1
  Ga  Ga0  1  0.99696132  0.99966587  0.35506311  1
  Ga  Ga1  1  0.99319664  0.00273290  0.85610186  1
  Ga  Ga2  1  0.99230107  0.99782933  0.64602929  1
  Ga  Ga3  1  0.00126387  0.00743631  0.14621284  1
  Ga  Ga4  1  0.66675073  0.32665915  0.68670964  1
  Ga  Ga5  1  0.67376109  0.33358267  0.18747902  1
  Ga  Ga6  1  0.67411208  0.33970061  0.48069733  1
  Ga  Ga7  1  0.33219550  0.66533272  0.01624429  1
  Ga  Ga8  1  0.32809137  0.67040931  0.52209327  1
  P  P0  1  0.99023352  0.27639515  0.24918281  1
  P  P1  1  0.72272755  0.01044689  0.74852590  1
  P  P2  1  0.62582303  0.67778541  0.91779137  1
  P  P3  1  0.05357181  0.37585990  0.91715330  1
  P  P4  1  0.32048036  0.94837139  0.91714064  1
  P  P5  1  0.03694054  0.66858186  0.41985438  1
  S  S0  1  0.28984351  0.00720208  0.24894774  1
  S  S1  1  0.71461439  0.71001653  0.24915231  1
  S  S2  1  0.28927566  0.28258127  0.74901799  1
  S  S3  1  0.99240475  0.71090131  0.74900216  1
  S  S4  1  0.95789975  0.33309251  0.58343992  1
  S  S5  1  0.37547351  0.04442162  0.58303122  1
  S  S6  1  0.66566116  0.62310246  0.58350171  1
  S  S7  1  0.96091057  0.62791744  0.08462372  1
  S  S8  1  0.66428812  0.03807219  0.08471847  1
  S  S9  1  0.37546359  0.33438876  0.08500427  1
  S  S10  1  0.62457325  0.95856483  0.41831405  1
  S  S11  1  0.33351438  0.37301195  0.41914619  1
  O  O0  1  0.21180328  0.03436587  0.30395634  1
  O  O1  1  0.82370118  0.78692944  0.30393551  1
  O  O2  1  0.96591736  0.16786373  0.30688355  1
  O  O3  1  0.21270715  0.17590816  0.80397727  1
  O  O4  1  0.96682207  0.78902840  0.80392111  1
  O  O5  1  0.83034260  0.03532177  0.80592013  1
  O  O6  1  0.79382288  0.96241186  0.69254240  1
  O  O7  1  0.17621598  0.21054525  0.69457304  1
  O  O8  1  0.03696766  0.82568809  0.69448903  1
  O  O9  1  0.78874574  0.82369451  0.19468084  1
  O  O10  1  0.03808393  0.20593919  0.19305282  1
  O  O11  1  0.17485667  0.96239676  0.19479353  1
  O  O12  1  0.87921886  0.36988354  0.63734551  1
  O  O13  1  0.48999256  0.12285681  0.63741064  1
  O  O14  1  0.63170565  0.50816750  0.63809042  1
  O  O15  1  0.87721808  0.51097204  0.13834221  1
  O  O16  1  0.63151500  0.12166349  0.13813088  1
  O  O17  1  0.49155201  0.36549165  0.13895397  1
  O  O18  1  0.46139720  0.30252856  0.03062353  1
  O  O19  1  0.84179939  0.54145769  0.03038809  1
  O  O20  1  0.69827300  0.15822628  0.03043867  1
  O  O21  1  0.45601418  0.15827633  0.52809047  1
  O  O22  1  0.70003537  0.54422270  0.52883214  1
  O  O23  1  0.84308730  0.29677617  0.52883906  1
  O  O24  1  0.54117065  0.70245743  0.97444130  1
  O  O25  1  0.16077768  0.45896354  0.97452872  1
  O  O26  1  0.29731096  0.83981632  0.97427753  1
  O  O27  1  0.54387979  0.84072295  0.47145596  1
  O  O28  1  0.30012030  0.45718176  0.47130049  1
  O  O29  1  0.16488185  0.70334461  0.47259274  1
  O  O30  1  0.13254680  0.63652224  0.36198666  1
  O  O31  1  0.50857006  0.87181410  0.36281036  1
  O  O32  1  0.36654547  0.49207240  0.36303722  1
  O  O33  1  0.13087419  0.49952615  0.86088389  1
  O  O34  1  0.36759603  0.86946128  0.86113952  1
  O  O35  1  0.50091725  0.63072821  0.86136478  1
  O  O36  1  0.02544112  0.83646558  0.40530932  1
  O  O37  1  0.80154787  0.97372796  0.40873896  1
  O  O38  1  0.17229844  0.19843309  0.40832456  1
  O  O39  1  0.02501610  0.19083285  0.90815194  1
  O  O40  1  0.16510276  0.97771327  0.90531647  1
  O  O41  1  0.81127705  0.83134630  0.90765326  1
  O  O42  1  0.97687088  0.17184822  0.59111129  1
  O  O43  1  0.19551960  0.02558852  0.59166446  1
  O  O44  1  0.82856035  0.80170356  0.59072520  1
  O  O45  1  0.97292967  0.80497062  0.09190158  1
  O  O46  1  0.82944379  0.02553338  0.09087101  1
  O  O47  1  0.19878368  0.16871711  0.09080734  1
  O  O48  1  0.68942772  0.16874350  0.74042890  1
  O  O49  1  0.47273487  0.31165967  0.74127690  1
  O  O50  1  0.83663371  0.52925717  0.74107383  1
  O  O51  1  0.68849484  0.52776778  0.24129026  1
  O  O52  1  0.83258272  0.31020890  0.24087476  1
  O  O53  1  0.47111257  0.16328772  0.24103385  1
  O  O54  1  0.63849844  0.50195412  0.92643945  1
  O  O55  1  0.86342222  0.36098429  0.92660202  1
  O  O56  1  0.49661514  0.13646375  0.92641798  1
  O  O57  1  0.63719278  0.13513484  0.42423688  1
  O  O58  1  0.49678040  0.35894809  0.42434700  1
  O  O59  1  0.85526320  0.49684860  0.42534182  1
  O  O60  1  0.35876915  0.49507790  0.07625765  1
  O  O61  1  0.13722860  0.64247634  0.07600979  1
  O  O62  1  0.50388924  0.86211156  0.07590476  1
  O  O63  1  0.36056494  0.86524501  0.57582545  1
  O  O64  1  0.50316018  0.64084532  0.57457745  1
  O  O65  1  0.13764783  0.49473789  0.57545063  1
  O  O66  1  0.31128585  0.84293275  0.25785984  1
  O  O67  1  0.53281071  0.69334096  0.25855856  1
  O  O68  1  0.16359036  0.46953878  0.25941718  1
  O  O69  1  0.30613157  0.46585958  0.75731282  1
  O  O70  1  0.15752706  0.69094633  0.75722450  1
  O  O71  1  0.52991030  0.83802940  0.75867638  1
loop_
_geom_bond_atom_site_label_1
_geom_bond_atom_site_label_2
_geom_bond_distance
_geom_bond_site_symmetry_2
Ga0 O36 1.884868 1_655
Ga0 O2 1.904519 1_565
Ga0 O37 1.972360 1_555
Ga0 O38 1.998894 1_665
Ga0 O1 2.027200 1_555
Ga0 O0 2.050713 1_665
Ga1 O39 1.889672 1_655
Ga1 O41 1.894215 1_545
Ga1 O5 1.900125 1_555
Ga1 O40 1.918375 1_645
Ga1 O3 2.066315 1_655
Ga1 O4 2.082137 1_545
Ga2 O6 1.877391 1_555
Ga2 O42 1.967875 1_565
Ga2 O44 1.985184 1_555
Ga2 O8 1.997783 1_655
Ga2 O7 2.023538 1_665
Ga2 O43 2.029732 1_665
Ga3 O10 1.881550 1_555
Ga3 O46 1.970184 1_455
Ga3 O47 1.982202 1_555
Ga3 O11 2.011930 1_545
Ga3 O9 2.016949 1_445
Ga3 O45 2.025933 1_445
Ga4 O48 1.872374 1_555
Ga4 O13 1.973825 1_555
Ga4 O12 1.991726 1_555
Ga4 O49 2.005844 1_555
Ga4 O50 2.015272 1_555
Ga4 O14 2.021836 1_555
Ga5 O52 1.877645 1_555
Ga5 O15 1.967795 1_555
Ga5 O16 1.993664 1_555
Ga5 O51 2.001017 1_555
Ga5 O53 2.001296 1_555
Ga5 O17 2.012569 1_555
Ga6 O59 1.903479 1_555
Ga6 O23 1.964151 1_555
Ga6 O22 1.968686 1_555
Ga6 O21 2.023436 1_555
Ga6 O58 2.025147 1_555
Ga6 O57 2.047611 1_555
Ga7 O25 1.883050 1_554
Ga7 O24 1.894401 1_554
Ga7 O26 1.895820 1_554
Ga7 O60 2.056424 1_555
Ga7 O61 2.061756 1_555
Ga7 O62 2.068330 1_555
Ga8 O29 1.895393 1_555
Ga8 O63 1.956049 1_555
Ga8 O65 1.963529 1_555
Ga8 O64 2.000581 1_555
Ga8 O27 2.024043 1_555
Ga8 O28 2.057218 1_555
O0 S0 1.463908 1_555
O1 S1 1.469242 1_555
O2 P0 1.525033 1_555
O3 S2 1.460985 1_555
O4 S3 1.458440 1_555
O5 P1 1.516259 1_555
O6 P1 1.526979 1_565
O7 S2 1.472655 1_555
O8 S3 1.475326 1_455
O9 S1 1.474564 1_555
O10 P0 1.526403 1_455
O11 S0 1.471816 1_565
O12 S4 1.481237 1_555
O13 S5 1.483138 1_555
O14 S6 1.486393 1_555
O15 S7 1.483712 1_555
O16 S8 1.482325 1_555
O17 S9 1.485922 1_555
O18 S9 1.506752 1_555
O18 Ta0 2.073118 1_554
O19 S7 1.507349 1_555
O19 Ta0 2.085894 1_554
O20 S8 1.506287 1_555
O20 Ta0 2.057704 1_554
O21 S5 1.490390 1_555
O22 S6 1.487761 1_555
O23 S4 1.485562 1_555
O24 P2 1.516585 1_555
O25 P3 1.518862 1_555
O26 P4 1.516407 1_555
O27 S10 1.473294 1_555
O28 S11 1.465402 1_555
O29 P5 1.520583 1_555
O30 P5 1.617497 1_555
O30 Ta1 1.890361 1_555
O31 S10 1.519190 1_555
O31 Ta1 2.064660 1_555
O32 S11 1.534404 1_555
O32 Ta1 2.001586 1_555
O33 P3 1.547955 1_555
O33 Ta2 2.001768 1_555
O34 P4 1.560863 1_555
O34 Ta2 1.957826 1_555
O35 P2 1.557000 1_555
O35 Ta2 1.955795 1_555
O36 P5 1.518371 1_555
O37 S10 1.467729 1_555
O38 S11 1.461936 1_555
O39 P3 1.489962 1_555
O40 P4 1.489811 1_555
O41 P2 1.487480 1_555
O42 S4 1.474085 1_555
O43 S5 1.476818 1_555
O44 S6 1.476339 1_555
O45 S7 1.474767 1_555
O46 S8 1.472533 1_555
O47 S9 1.473742 1_555
O48 P1 1.523941 1_555
O49 S2 1.470008 1_555
O50 S3 1.468839 1_555
O51 S1 1.470997 1_555
O52 P0 1.521388 1_555
O53 S0 1.466834 1_555
O54 P2 1.569830 1_555
O54 Ta0 1.890241 1_555
O55 P3 1.579538 1_655
O55 Ta0 1.889193 1_555
O56 P4 1.576390 1_545
O56 Ta0 1.897694 1_555
O57 S10 1.465230 1_545
O58 S11 1.461994 1_555
O59 P5 1.519900 1_655
O60 S9 1.461095 1_555
O61 S7 1.461386 1_455
O62 S8 1.458818 1_565
O63 S5 1.481847 1_565
O64 S6 1.481509 1_555
O65 S4 1.478404 1_455
O66 S0 1.514985 1_565
O66 Ta1 1.998138 1_555
O67 S1 1.502425 1_555
O67 Ta1 2.054942 1_555
O68 P0 1.593324 1_455
O68 Ta1 1.900623 1_555
O69 S2 1.512418 1_555
O69 Ta2 2.009838 1_555
O70 S3 1.512543 1_455
O70 Ta2 1.996634 1_555
O71 P1 1.586926 1_565
O71 Ta2 1.905960 1_555
