# generated using pymatgen
data_NaY2Ga2PS5O24
_symmetry_space_group_name_H-M   'P 1'
_cell_length_a   8.78013473
_cell_length_b   8.78249868
_cell_length_c   23.30143546
_cell_angle_alpha   90.00623406
_cell_angle_beta   90.06493281
_cell_angle_gamma   119.86196245
_symmetry_Int_Tables_number   1
_chemical_formula_structural   NaY2Ga2PS5O24
_chemical_formula_sum   'Na3 Y6 Ga6 P3 S15 O72'
_cell_volume   1558.24082166
_cell_formula_units_Z   3
loop_
 _symmetry_equiv_pos_site_id
 _symmetry_equiv_pos_as_xyz
  1  'x, y, z'
loop_
 _atom_site_type_symbol
 _atom_site_label
 _atom_site_symmetry_multiplicity
 _atom_site_fract_x
 _atom_site_fract_y
 _atom_site_fract_z
 _atom_site_occupancy
  Na  Na0  1  0.99879059  0.98823593  0.99574843  1
  Na  Na1  1  0.65477459  0.33148820  0.83598989  1
  Na  Na2  1  0.67502774  0.33190776  0.33746857  1
  Y  Y0  1  0.99931553  0.99288382  0.84871694  1
  Y  Y1  1  0.00154560  0.00624141  0.15566075  1
  Y  Y2  1  0.67270662  0.33406819  0.19225030  1
  Y  Y3  1  0.66058356  0.33370880  0.97892568  1
  Y  Y4  1  0.33821557  0.67219018  0.01824719  1
  Y  Y5  1  0.34006635  0.67255276  0.80763035  1
  Ga  Ga0  1  0.99732647  0.00600725  0.35379969  1
  Ga  Ga1  1  0.00057042  0.00023712  0.64500581  1
  Ga  Ga2  1  0.66586610  0.33321350  0.67689603  1
  Ga  Ga3  1  0.66627523  0.33378487  0.48675128  1
  Ga  Ga4  1  0.33315256  0.66723489  0.51613028  1
  Ga  Ga5  1  0.32723909  0.65972582  0.31875426  1
  P  P0  1  0.01275737  0.30134906  0.26096868  1
  P  P1  1  0.63294059  0.66822101  0.91449528  1
  P  P2  1  0.33229030  0.96483408  0.91446195  1
  S  S0  1  0.28685667  0.98618415  0.26050388  1
  S  S1  1  0.69919594  0.71338273  0.26047609  1
  S  S2  1  0.30068112  0.28345930  0.74011980  1
  S  S3  1  0.98142739  0.69633439  0.73958190  1
  S  S4  1  0.71807808  0.01971167  0.73995119  1
  S  S5  1  0.95785730  0.33484680  0.58169611  1
  S  S6  1  0.37687777  0.04201956  0.58171860  1
  S  S7  1  0.66514886  0.62338283  0.58179395  1
  S  S8  1  0.96360489  0.63430741  0.08468350  1
  S  S9  1  0.67182844  0.03793354  0.08451880  1
  S  S10  1  0.36541668  0.32889150  0.08557121  1
  S  S11  1  0.03764561  0.36951134  0.91450291  1
  S  S12  1  0.61979168  0.95504034  0.41785670  1
  S  S13  1  0.33698035  0.37846118  0.41863682  1
  S  S14  1  0.04231366  0.66608101  0.41812908  1
  O  O0  1  0.19693116  0.01600009  0.30963055  1
  O  O1  1  0.82204736  0.79891505  0.30944366  1
  O  O2  1  0.97685888  0.17410641  0.31203240  1
  O  O3  1  0.23100718  0.18124265  0.79338090  1
  O  O4  1  0.94760305  0.76532725  0.79294577  1
  O  O5  1  0.81969046  0.05202337  0.79341715  1
  O  O6  1  0.80783078  0.99181694  0.69022905  1
  O  O7  1  0.18416741  0.19350177  0.69010366  1
  O  O8  1  0.01028163  0.81501250  0.69010108  1
  O  O9  1  0.77100660  0.80863891  0.20617563  1
  O  O10  1  0.03813462  0.22622133  0.20468633  1
  O  O11  1  0.18925929  0.95787514  0.20627511  1
  O  O12  1  0.87976006  0.37365786  0.63267830  1
  O  O13  1  0.49368416  0.11980526  0.63280078  1
  O  O14  1  0.62617742  0.50651764  0.63277885  1
  O  O15  1  0.87232012  0.53234632  0.13666901  1
  O  O16  1  0.66060241  0.12867698  0.13651365  1
  O  O17  1  0.46833602  0.34109344  0.13736282  1
  O  O18  1  0.44880678  0.30847262  0.03351198  1
  O  O19  1  0.85969357  0.55118747  0.03263250  1
  O  O20  1  0.69245182  0.14117216  0.03251755  1
  O  O21  1  0.45503797  0.16051269  0.53052971  1
  O  O22  1  0.70574148  0.54502752  0.53060106  1
  O  O23  1  0.83896530  0.29424011  0.53034416  1
  O  O24  1  0.54555045  0.67697364  0.97016768  1
  O  O25  1  0.13414313  0.45022249  0.96776160  1
  O  O26  1  0.31392385  0.86335068  0.96980459  1
  O  O27  1  0.54055558  0.84402060  0.47014791  1
  O  O28  1  0.30306669  0.45808003  0.47050458  1
  O  O29  1  0.15477142  0.69886106  0.47028233  1
  O  O30  1  0.12003309  0.62766863  0.36727964  1
  O  O31  1  0.50430363  0.87676103  0.36681709  1
  O  O32  1  0.37610861  0.49411809  0.36768622  1
  O  O33  1  0.12522947  0.47158780  0.86270017  1
  O  O34  1  0.33885492  0.86945845  0.86001579  1
  O  O35  1  0.52566226  0.65211609  0.86035905  1
  O  O36  1  0.02276999  0.82229780  0.40837016  1
  O  O37  1  0.79504979  0.97230153  0.40914523  1
  O  O38  1  0.18180076  0.20265279  0.40940739  1
  O  O39  1  0.01975561  0.19395517  0.91157524  1
  O  O40  1  0.17208523  0.99138842  0.91299748  1
  O  O41  1  0.81260436  0.83698220  0.91281120  1
  O  O42  1  0.97665913  0.17792450  0.59201336  1
  O  O43  1  0.20132872  0.02343204  0.59205751  1
  O  O44  1  0.82188416  0.79851321  0.59222040  1
  O  O45  1  0.98194927  0.81086277  0.08822813  1
  O  O46  1  0.82939547  0.01790904  0.08755224  1
  O  O47  1  0.19031919  0.16833338  0.08790508  1
  O  O48  1  0.70059426  0.17948140  0.73158361  1
  O  O49  1  0.47804583  0.30033693  0.73193180  1
  O  O50  1  0.82061732  0.52062816  0.73119913  1
  O  O51  1  0.67658066  0.53450872  0.25590494  1
  O  O52  1  0.84731325  0.32094893  0.25678068  1
  O  O53  1  0.46241066  0.14645188  0.25567439  1
  O  O54  1  0.65877425  0.50776503  0.91417931  1
  O  O55  1  0.86227696  0.35231889  0.91622472  1
  O  O56  1  0.50124231  0.14414433  0.91467570  1
  O  O57  1  0.63858643  0.13483906  0.42639237  1
  O  O58  1  0.49892704  0.36084999  0.42754121  1
  O  O59  1  0.86356259  0.50432570  0.42687533  1
  O  O60  1  0.34767950  0.48475268  0.08247977  1
  O  O61  1  0.13495020  0.64634747  0.08227650  1
  O  O62  1  0.51340891  0.86602126  0.08285601  1
  O  O63  1  0.36031533  0.86702782  0.57088053  1
  O  O64  1  0.50691998  0.64038530  0.57089222  1
  O  O65  1  0.13265243  0.49274115  0.57083996  1
  O  O66  1  0.30697469  0.83114147  0.26930045  1
  O  O67  1  0.52842904  0.70285680  0.26954449  1
  O  O68  1  0.17806297  0.48095174  0.26997788  1
  O  O69  1  0.31738427  0.45696130  0.74551797  1
  O  O70  1  0.13640717  0.67674487  0.74549555  1
  O  O71  1  0.54386892  0.86353972  0.74482782  1
loop_
_geom_bond_atom_site_label_1
_geom_bond_atom_site_label_2
_geom_bond_distance
_geom_bond_site_symmetry_2
Na0 O40 2.449206 1_655
Na0 O41 2.449804 1_555
Na0 O39 2.610646 1_665
Na0 O45 2.619971 1_556
Na0 O46 2.692413 1_566
Na0 O47 2.698757 1_666
Na1 O54 2.379605 1_555
Na1 O56 2.384029 1_555
Na1 O55 2.551162 1_555
Na1 O49 2.816095 1_555
Na1 O48 2.898104 1_555
Na1 O50 2.905534 1_555
Na2 O52 2.446186 1_555
Na2 O53 2.594947 1_555
Na2 O51 2.599033 1_555
Na2 O57 2.615743 1_555
Na2 O59 2.620818 1_555
Na2 O58 2.694249 1_555
Ga0 O2 1.850177 1_555
Ga0 O1 1.988286 1_545
Ga0 O0 1.997338 1_655
Ga0 O37 2.094455 1_545
Ga0 O38 2.119952 1_655
Ga0 O36 2.151437 1_645
Ga1 O7 1.963387 1_555
Ga1 O6 1.964470 1_445
Ga1 O8 1.973824 1_545
Ga1 O43 2.078017 1_555
Ga1 O42 2.080909 1_455
Ga1 O44 2.083318 1_445
Ga2 O50 1.981165 1_555
Ga2 O48 1.987255 1_555
Ga2 O49 1.994529 1_555
Ga2 O14 2.005623 1_555
Ga2 O13 2.007105 1_555
Ga2 O12 2.013675 1_555
Ga3 O22 1.991125 1_555
Ga3 O23 1.993086 1_555
Ga3 O21 1.997563 1_555
Ga3 O58 2.112405 1_555
Ga3 O59 2.147733 1_555
Ga3 O57 2.160033 1_555
Ga4 O27 2.015939 1_555
Ga4 O28 2.022374 1_555
Ga4 O29 2.025083 1_555
Ga4 O63 2.084572 1_555
Ga4 O64 2.089389 1_555
Ga4 O65 2.095639 1_555
Ga5 O68 1.849546 1_555
Ga5 O66 1.972970 1_555
Ga5 O67 1.979164 1_555
Ga5 O30 2.040166 1_555
Ga5 O32 2.054332 1_555
Ga5 O31 2.085444 1_555
O0 S0 1.486685 1_545
O1 S1 1.489908 1_555
O2 P0 1.553806 1_655
O3 S2 1.474938 1_555
O3 Y0 2.278748 1_445
O4 S3 1.476957 1_555
O4 Y0 2.232380 1_555
O5 S4 1.474409 1_555
O5 Y0 2.286653 1_545
O6 S4 1.489172 1_565
O7 S2 1.490381 1_555
O8 S3 1.489251 1_455
O9 S1 1.474827 1_555
O9 Y1 2.236557 1_665
O10 P0 1.533557 1_555
O10 Y1 2.126346 1_555
O11 S0 1.475854 1_555
O11 Y1 2.231741 1_565
O12 S5 1.494031 1_555
O13 S6 1.494873 1_555
O14 S7 1.494445 1_555
O15 S8 1.483010 1_555
O15 Y2 2.178956 1_555
O16 S9 1.480203 1_555
O16 Y2 2.181781 1_555
O17 S10 1.478356 1_555
O17 Y2 2.228111 1_555
O18 S10 1.473927 1_555
O18 Y3 2.172430 1_554
O19 S8 1.473224 1_555
O19 Y3 2.222579 1_554
O20 S9 1.469812 1_555
O20 Y3 2.228871 1_554
O21 S6 1.505851 1_555
O22 S7 1.506169 1_555
O23 S5 1.508319 1_555
O24 P1 1.529207 1_555
O24 Y4 2.121160 1_556
O25 S11 1.469612 1_555
O25 Y4 2.216079 1_556
O26 P2 1.530016 1_555
O26 Y4 2.120066 1_556
O27 S12 1.498671 1_555
O28 S13 1.498764 1_555
O29 S14 1.499593 1_555
O30 S14 1.488072 1_555
O31 S12 1.489345 1_555
O32 S13 1.487604 1_555
O33 S11 1.472381 1_555
O33 Y5 2.238411 1_555
O34 P2 1.537043 1_555
O34 Y5 2.120982 1_555
O35 P1 1.537229 1_555
O35 Y5 2.117553 1_555
O36 S14 1.482528 1_555
O37 S12 1.483400 1_555
O38 S13 1.480203 1_555
O39 S11 1.471503 1_555
O39 Y0 2.231412 1_445
O40 P2 1.536459 1_555
O40 Y0 2.135291 1_455
O41 P1 1.535769 1_555
O41 Y0 2.136225 1_555
O42 S5 1.486924 1_555
O43 S6 1.486847 1_555
O44 S7 1.486569 1_555
O45 S8 1.479308 1_555
O45 Y1 2.268847 1_665
O46 S9 1.480525 1_555
O46 Y1 2.227695 1_655
O47 S10 1.481984 1_555
O47 Y1 2.218808 1_555
O48 S4 1.498327 1_555
O49 S2 1.501440 1_555
O50 S3 1.497527 1_555
O51 S1 1.485924 1_555
O51 Y2 2.289052 1_555
O52 P0 1.548532 1_655
O52 Y2 2.189808 1_555
O53 S0 1.486488 1_545
O53 Y2 2.299007 1_555
O54 P1 1.534818 1_555
O54 Y3 2.153549 1_555
O55 S11 1.471017 1_655
O55 Y3 2.239432 1_555
O56 P2 1.534337 1_545
O56 Y3 2.155374 1_555
O57 S12 1.516791 1_545
O58 S13 1.518934 1_555
O59 S14 1.517690 1_655
O60 S10 1.454468 1_555
O60 Y4 2.256855 1_555
O61 S8 1.455825 1_455
O61 Y4 2.250641 1_555
O62 S9 1.457512 1_565
O62 Y4 2.217446 1_555
O63 S6 1.491359 1_565
O64 S7 1.490870 1_555
O65 S5 1.491294 1_455
O66 S0 1.472018 1_555
O67 S1 1.471041 1_555
O68 P0 1.535617 1_555
O69 S2 1.461717 1_555
O69 Y5 2.311426 1_555
O70 S3 1.460452 1_455
O70 Y5 2.314037 1_555
O71 S4 1.464584 1_565
O71 Y5 2.274760 1_555
