# generated using pymatgen
data_NaMgCu2O3
_symmetry_space_group_name_H-M   'P 1'
_cell_length_a   3.98216169
_cell_length_b   6.29571770
_cell_length_c   5.21395120
_cell_angle_alpha   90.00000000
_cell_angle_beta   90.00000000
_cell_angle_gamma   108.43687354
_symmetry_Int_Tables_number   1
_chemical_formula_structural   NaMgCu2O3
_chemical_formula_sum   'Na1 Mg1 Cu2 O3'
_cell_volume   124.00736790
_cell_formula_units_Z   1
loop_
 _symmetry_equiv_pos_site_id
 _symmetry_equiv_pos_as_xyz
  1  'x, y, z'
loop_
 _atom_site_type_symbol
 _atom_site_label
 _atom_site_symmetry_multiplicity
 _atom_site_fract_x
 _atom_site_fract_y
 _atom_site_fract_z
 _atom_site_occupancy
  Na  Na0  1  0.00000000  0.00000000  0.50000000  1
  Mg  Mg0  1  0.00000000  0.00000000  0.00000000  1
  Cu  Cu0  1  0.33016907  0.66033914  -0.00000000  1
  Cu  Cu1  1  0.66983093  0.33966086  0.00000000  1
  O  O0  1  0.16186043  0.32372087  -0.00000000  1
  O  O1  1  0.50000000  0.00000000  0.00000000  1
  O  O2  1  0.83813957  0.67627913  0.00000000  1
loop_
_geom_bond_atom_site_label_1
_geom_bond_atom_site_label_2
_geom_bond_distance
_geom_bond_site_symmetry_2
Na0 O2 3.245696 1_446
Na0 O0 3.245696 1_555
Na0 O0 3.245696 1_556
Na0 O2 3.245696 1_445
Na0 O1 3.280354 1_456
Na0 O1 3.280354 1_455
Na0 O1 3.280354 1_555
Na0 O1 3.280354 1_556
Mg0 O2 1.933447 1_445
Mg0 O0 1.933447 1_555
Mg0 O1 1.991081 1_555
Mg0 O1 1.991081 1_455
Mg0 Na0 2.606976 1_554
Mg0 Na0 2.606976 1_555
Cu0 O2 1.993354 1_455
Cu0 O2 1.993358 1_555
Cu0 O0 2.010478 1_555
Cu0 O1 2.028650 1_565
Cu1 O0 1.993354 1_655
Cu1 O0 1.993358 1_555
Cu1 O2 2.010478 1_555
Cu1 O1 2.028650 1_555
