# generated using pymatgen
data_Mg6Ni16Ge7
_symmetry_space_group_name_H-M   'P 1'
_cell_length_a   8.08403185
_cell_length_b   8.08404608
_cell_length_c   8.08402498
_cell_angle_alpha   60.00557660
_cell_angle_beta   60.00551500
_cell_angle_gamma   60.00559781
_symmetry_Int_Tables_number   1
_chemical_formula_structural   Mg6Ni16Ge7
_chemical_formula_sum   'Mg6 Ni16 Ge7'
_cell_volume   373.61492587
_cell_formula_units_Z   1
loop_
 _symmetry_equiv_pos_site_id
 _symmetry_equiv_pos_as_xyz
  1  'x, y, z'
loop_
 _atom_site_type_symbol
 _atom_site_label
 _atom_site_symmetry_multiplicity
 _atom_site_fract_x
 _atom_site_fract_y
 _atom_site_fract_z
 _atom_site_occupancy
  Mg  Mg0  1  0.20604655  0.20604498  0.79405540  1
  Mg  Mg1  1  0.20594566  0.79396028  0.79394310  1
  Mg  Mg2  1  0.79405789  0.20604226  0.20604838  1
  Mg  Mg3  1  0.20604449  0.79406134  0.20605080  1
  Mg  Mg4  1  0.79395689  0.20594143  0.79395365  1
  Mg  Mg5  1  0.79394579  0.79395835  0.20594826  1
  Ni  Ni0  1  0.83060033  0.50818394  0.83060109  1
  Ni  Ni1  1  0.16937897  0.16937974  0.49187770  1
  Ni  Ni2  1  0.49187964  0.16937944  0.16937660  1
  Ni  Ni3  1  0.16939527  0.16939704  0.16939365  1
  Ni  Ni4  1  0.50818741  0.83059555  0.83060180  1
  Ni  Ni5  1  0.83058371  0.83057853  0.83058460  1
  Ni  Ni6  1  0.83060048  0.83059562  0.50818864  1
  Ni  Ni7  1  0.16937792  0.49188216  0.16937657  1
  Ni  Ni8  1  0.61865372  0.14388145  0.61865742  1
  Ni  Ni9  1  0.38135881  0.38136443  0.85607119  1
  Ni  Ni10  1  0.85607155  0.38136616  0.38135536  1
  Ni  Ni11  1  0.38131394  0.38131954  0.38130938  1
  Ni  Ni12  1  0.14388227  0.61864725  0.61866005  1
  Ni  Ni13  1  0.61870241  0.61869274  0.61870799  1
  Ni  Ni14  1  0.61865775  0.61864841  0.14388198  1
  Ni  Ni15  1  0.38136159  0.85607111  0.38135826  1
  Ge  Ge0  1  0.49999979  0.50000110  0.50000019  1
  Ge  Ge1  1  0.50002118  0.50002356  -0.00002240  1
  Ge  Ge2  1  -0.00002249  0.50002346  0.50002131  1
  Ge  Ge3  1  0.50002084  -0.00002097  -0.00002086  1
  Ge  Ge4  1  -0.00002074  -0.00002091  0.50002088  1
  Ge  Ge5  1  -0.00002198  0.50002308  -0.00002228  1
  Ge  Ge6  1  0.50002035  -0.00002108  0.50002131  1
loop_
_geom_bond_atom_site_label_1
_geom_bond_atom_site_label_2
_geom_bond_distance
_geom_bond_site_symmetry_2
Mg0 Ni3 2.769893 1_556
Mg0 Ni0 2.770915 1_455
Mg0 Ni4 2.770939 1_545
Mg0 Ni1 2.771068 1_555
Mg0 Ni12 2.774241 1_555
Mg0 Ni8 2.774269 1_555
Mg0 Ni9 2.774471 1_555
Mg0 Ni11 2.775228 1_555
Mg0 Mg3 3.330819 1_546
Mg0 Mg2 3.330823 1_456
Mg0 Mg1 3.332173 1_545
Mg0 Mg4 3.332176 1_455
Mg1 Ni5 2.770209 1_455
Mg1 Ni1 2.770555 1_565
Mg1 Ni7 2.770660 1_556
Mg1 Ni4 2.771392 1_555
Mg1 Ni15 2.774182 1_555
Mg1 Ni9 2.774245 1_555
Mg1 Ni12 2.774490 1_555
Mg1 Ni13 2.775238 1_555
Mg1 Mg4 3.330784 1_465
Mg1 Mg5 3.330918 1_456
Mg1 Mg3 3.332297 1_556
Mg2 Ni3 2.769887 1_655
Mg2 Ni6 2.770922 1_545
Mg2 Ni0 2.770926 1_554
Mg2 Ni2 2.771082 1_555
Mg2 Ni14 2.774266 1_555
Mg2 Ni8 2.774283 1_555
Mg2 Ni10 2.774453 1_555
Mg2 Ni11 2.775214 1_555
Mg2 Mg3 3.330775 1_645
Mg2 Mg5 3.332163 1_545
Mg2 Mg4 3.332200 1_554
Mg3 Ni3 2.769859 1_565
Mg3 Ni6 2.770896 1_455
Mg3 Ni4 2.770935 1_554
Mg3 Ni7 2.771124 1_555
Mg3 Ni12 2.774284 1_555
Mg3 Ni14 2.774306 1_555
Mg3 Ni15 2.774386 1_555
Mg3 Ni11 2.775194 1_555
Mg3 Mg5 3.332250 1_455
Mg4 Ni5 2.770229 1_545
Mg4 Ni1 2.770595 1_655
Mg4 Ni2 2.770603 1_556
Mg4 Ni0 2.771387 1_555
Mg4 Ni9 2.774269 1_555
Mg4 Ni10 2.774271 1_555
Mg4 Ni8 2.774493 1_555
Mg4 Ni13 2.775210 1_555
Mg4 Mg5 3.330813 1_546
Mg5 Ni5 2.770225 1_554
Mg5 Ni2 2.770567 1_565
Mg5 Ni7 2.770650 1_655
Mg5 Ni6 2.771370 1_555
Mg5 Ni15 2.774178 1_555
Mg5 Ni10 2.774223 1_555
Mg5 Ni14 2.774520 1_555
Mg5 Ni13 2.775260 1_555
Ni0 Ni14 2.557326 1_556
Ni0 Ni12 2.557329 1_655
Ni0 Ni13 2.557405 1_555
Ni0 Ni5 2.606119 1_555
Ni0 Ni6 2.606610 1_555
Ni0 Ni4 2.606614 1_555
Ni1 Ni15 2.557744 1_545
Ni1 Ni10 2.557746 1_455
Ni1 Ni11 2.557815 1_555
Ni1 Ni3 2.606833 1_555
Ni1 Ni2 2.607324 1_555
Ni1 Ni7 2.607336 1_555
Ni2 Ni9 2.557724 1_554
Ni2 Ni3 2.606834 1_555
Ni2 Ni7 2.607341 1_555
Ni3 Ni9 2.558270 1_554
Ni3 Ni7 2.606845 1_555
Ni4 Ni8 2.557372 1_565
Ni4 Ni5 2.606124 1_555
Ni4 Ni6 2.606614 1_555
Ni5 Ni8 2.557919 1_565
Ni5 Ni6 2.606120 1_555
Ni6 Ni8 2.557382 1_565
Ni7 Ni9 2.557710 1_554
Ni8 Ni9 2.714755 1_555
Ni10 Ni7 2.557710 1_655
Ni10 Ni3 2.558273 1_655
Ni10 Ni13 2.713511 1_555
Ni10 Ni14 2.714700 1_555
Ni10 Ni8 2.714788 1_555
Ni11 Ni7 2.557787 1_555
Ni11 Ni2 2.557808 1_555
Ni11 Ni14 2.713474 1_555
Ni11 Ni12 2.713507 1_555
Ni11 Ni8 2.713561 1_555
Ni12 Ni6 2.557364 1_455
Ni12 Ni5 2.557899 1_455
Ni12 Ni9 2.714703 1_555
Ni12 Ni15 2.714792 1_555
Ni13 Ni4 2.557427 1_555
Ni13 Ni6 2.557446 1_555
Ni13 Ni9 2.713470 1_555
Ni13 Ni15 2.713576 1_555
Ni14 Ni4 2.557347 1_554
Ni14 Ni5 2.557896 1_554
Ni14 Ni15 2.714768 1_555
Ni15 Ni2 2.557736 1_565
Ni15 Ni3 2.558282 1_565
Ge0 Ni11 2.350094 1_555
Ge0 Ni13 2.350384 1_555
Ge0 Ni9 2.350439 1_555
Ge0 Ni15 2.350440 1_555
Ge0 Ni10 2.350446 1_555
Ge0 Ni12 2.350748 1_555
Ge0 Ni14 2.350750 1_555
Ge0 Ni8 2.350768 1_555
Ge1 Ni4 2.334140 1_554
Ge1 Ni0 2.334170 1_554
Ge1 Ni7 2.334571 1_555
Ge1 Ni2 2.334583 1_555
Ge1 Ni14 2.518576 1_555
Ge1 Ni9 2.518980 1_554
Ge1 Ni13 2.519522 1_554
Ge1 Ni11 2.519926 1_555
Ge1 Mg4 2.902742 1_554
Ge1 Mg2 2.902748 1_555
Ge1 Mg1 2.902754 1_554
Ge1 Mg3 2.902761 1_555
Ge2 Ni6 2.334144 1_455
Ge2 Ni0 2.334172 1_455
Ge2 Ni7 2.334579 1_555
Ge2 Ni1 2.334586 1_555
Ge2 Ni12 2.518586 1_555
Ge2 Ni10 2.518988 1_455
Ge2 Ni13 2.519561 1_455
Ge2 Ni11 2.519959 1_555
Ge2 Mg4 2.902722 1_455
Ge2 Mg0 2.902722 1_555
Ge2 Mg5 2.902725 1_455
Ge2 Mg3 2.902726 1_555
Ge3 Ni4 2.334103 1_544
Ge3 Ni5 2.334303 1_544
Ge3 Ni2 2.334477 1_555
Ge3 Ni3 2.334679 1_555
Ge3 Ni8 2.519870 1_554
Ge3 Ni14 2.519936 1_545
Ge3 Ni15 2.520244 1_545
Ge3 Ni9 2.520293 1_554
Ge3 Mg5 2.901456 1_545
Ge3 Mg3 2.901456 1_545
Ge3 Mg0 2.901482 1_554
Ge3 Mg4 2.901487 1_554
Ge4 Ni6 2.334108 1_445
Ge4 Ni5 2.334308 1_445
Ge4 Ni1 2.334486 1_555
Ge4 Ni3 2.334688 1_555
Ge4 Ni8 2.519897 1_455
Ge4 Ni12 2.519944 1_545
Ge4 Ni15 2.520267 1_545
Ge4 Ni10 2.520304 1_455
Ge4 Mg3 2.901421 1_545
Ge4 Mg1 2.901424 1_545
Ge4 Mg2 2.901459 1_455
Ge4 Mg4 2.901467 1_455
Ge5 Ni0 2.334082 1_454
Ge5 Ni5 2.334254 1_454
Ge5 Ni7 2.334483 1_555
Ge5 Ni3 2.334687 1_555
Ge5 Ni12 2.519844 1_554
Ge5 Ni14 2.519863 1_455
Ge5 Ni10 2.520233 1_455
Ge5 Ni9 2.520256 1_554
Ge5 Mg0 2.901499 1_554
Ge5 Mg2 2.901503 1_455
Ge5 Mg1 2.901517 1_554
Ge5 Mg5 2.901522 1_455
Ge6 Ni4 2.334195 1_545
Ge6 Ni6 2.334196 1_545
Ge6 Ni1 2.334566 1_555
Ge6 Ni2 2.334579 1_555
Ge6 Ni8 2.518616 1_555
Ge6 Ni15 2.518992 1_545
Ge6 Ni13 2.519638 1_545
Ge6 Ni11 2.519993 1_555
Ge6 Mg1 2.902659 1_545
Ge6 Mg5 2.902662 1_545
Ge6 Mg0 2.902702 1_555
Ge6 Mg2 2.902708 1_555
