# generated using pymatgen
data_MgCuBi(WO4)2
_symmetry_space_group_name_H-M   'P 1'
_cell_length_a   5.37498967
_cell_length_b   6.27513476
_cell_length_c   6.23351168
_cell_angle_alpha   107.39791861
_cell_angle_beta   112.82552946
_cell_angle_gamma   91.77679446
_symmetry_Int_Tables_number   1
_chemical_formula_structural   MgCuBi(WO4)2
_chemical_formula_sum   'Mg1 Cu1 Bi1 W2 O8'
_cell_volume   182.31784366
_cell_formula_units_Z   1
loop_
 _symmetry_equiv_pos_site_id
 _symmetry_equiv_pos_as_xyz
  1  'x, y, z'
loop_
 _atom_site_type_symbol
 _atom_site_label
 _atom_site_symmetry_multiplicity
 _atom_site_fract_x
 _atom_site_fract_y
 _atom_site_fract_z
 _atom_site_occupancy
  Mg  Mg0  1  0.90066300  0.83841400  0.63807800  1
  Cu  Cu0  1  0.15320800  0.23650900  0.11776900  1
  Bi  Bi0  1  0.58335700  0.70128700  0.01891000  1
  W  W0  1  0.87619700  0.34929000  0.58172400  1
  W  W1  1  0.37395400  0.06176600  0.59594400  1
  O  O0  1  0.65967000  0.36870300  0.79433200  1
  O  O1  1  0.15466500  0.17624500  0.80515500  1
  O  O2  1  0.68335400  0.50861000  0.38956000  1
  O  O3  1  0.11312600  0.80877500  0.40702700  1
  O  O4  1  0.13491200  0.64223700  0.82565900  1
  O  O5  1  0.63881500  0.02721000  0.42371300  1
  O  O6  1  0.13372900  0.25384400  0.41196900  1
  O  O7  1  0.64305200  0.90675900  0.80977700  1
loop_
_geom_bond_atom_site_label_1
_geom_bond_atom_site_label_2
_geom_bond_distance
_geom_bond_site_symmetry_2
Mg0 O7 2.039325 1_555
Mg0 O4 2.069460 1_655
Mg0 O3 2.131230 1_655
Mg0 O2 2.139208 1_555
Mg0 O5 2.181960 1_565
Mg0 O1 2.199943 1_665
Cu0 O6 1.848340 1_555
Cu0 O1 1.873972 1_554
Bi0 O7 2.183785 1_554
Bi0 O4 2.196201 1_554
Bi0 O0 2.288019 1_554
Bi0 O5 2.632760 1_565
Bi0 O2 2.799340 1_555
Bi0 O3 2.824276 1_655
O0 W0 2.057834 1_555
O0 W1 2.125139 1_555
O0 O6 2.794751 1_555
O1 W1 2.071452 1_555
O1 W0 2.178773 1_455
O2 W0 1.823697 1_555
O3 W1 1.826375 1_565
O4 W0 2.038263 1_455
O5 W1 2.071738 1_555
O5 W0 2.087472 1_555
O6 W0 2.050216 1_455
O6 W1 2.051692 1_555
O7 W1 2.044915 1_565
