# generated using pymatgen
data_NaTa3ZnSi3(SO8)3
_symmetry_space_group_name_H-M   'P 1'
_cell_length_a   8.86527606
_cell_length_b   8.84053321
_cell_length_c   22.84562982
_cell_angle_alpha   90.29243001
_cell_angle_beta   89.75723715
_cell_angle_gamma   120.11692834
_symmetry_Int_Tables_number   1
_chemical_formula_structural   NaTa3ZnSi3(SO8)3
_chemical_formula_sum   'Na3 Ta9 Zn3 Si9 S9 O72'
_cell_volume   1548.76350243
_cell_formula_units_Z   3
loop_
 _symmetry_equiv_pos_site_id
 _symmetry_equiv_pos_as_xyz
  1  'x, y, z'
loop_
 _atom_site_type_symbol
 _atom_site_label
 _atom_site_symmetry_multiplicity
 _atom_site_fract_x
 _atom_site_fract_y
 _atom_site_fract_z
 _atom_site_occupancy
  Na  Na0  1  0.99678088  0.99820187  0.99065236  1
  Na  Na1  1  0.68418049  0.33813840  0.84179394  1
  Na  Na2  1  0.65705579  0.33314063  0.33880623  1
  Ta  Ta0  1  0.00872939  0.00907959  0.35495146  1
  Ta  Ta1  1  0.99806535  0.98853280  0.64832075  1
  Ta  Ta2  1  0.00112860  0.99304828  0.14837544  1
  Ta  Ta3  1  0.66487070  0.32055923  0.68862043  1
  Ta  Ta4  1  0.67759326  0.34022853  0.18977274  1
  Ta  Ta5  1  0.31815684  0.65277459  0.02100345  1
  Ta  Ta6  1  0.33038328  0.66373752  0.52297319  1
  Ta  Ta7  1  0.33515205  0.65760128  0.30643253  1
  Ta  Ta8  1  0.32292870  0.66658913  0.80952367  1
  Zn  Zn0  1  0.98047832  0.99904106  0.85317897  1
  Zn  Zn1  1  0.69917191  0.35290845  0.97696092  1
  Zn  Zn2  1  0.63853985  0.32781060  0.47844140  1
  Si  Si0  1  0.28958348  0.00189458  0.25083049  1
  Si  Si1  1  0.71934693  0.71568715  0.25205353  1
  Si  Si2  1  0.99640006  0.28081925  0.24962463  1
  Si  Si3  1  0.99140728  0.71248179  0.75492388  1
  Si  Si4  1  0.71507693  0.99640909  0.75328993  1
  Si  Si5  1  0.37625086  0.04903593  0.58012935  1
  Si  Si6  1  0.95101044  0.62363249  0.08040700  1
  Si  Si7  1  0.03561096  0.35959748  0.91390064  1
  Si  Si8  1  0.34046093  0.38000014  0.41635298  1
  S  S0  1  0.29033813  0.28881870  0.75011887  1
  S  S1  1  0.95304932  0.33095037  0.58170303  1
  S  S2  1  0.66781470  0.62369491  0.58199303  1
  S  S3  1  0.66815732  0.04436931  0.08218427  1
  S  S4  1  0.38018918  0.33135328  0.08128628  1
  S  S5  1  0.61517406  0.66243082  0.91710906  1
  S  S6  1  0.33476043  0.95341092  0.91784250  1
  S  S7  1  0.61999064  0.95085308  0.41610266  1
  S  S8  1  0.04691991  0.66540547  0.41687274  1
  O  O0  1  0.19842723  0.03748353  0.30814177  1
  O  O1  1  0.83952581  0.80136658  0.30933538  1
  O  O2  1  0.96301434  0.15957269  0.30769089  1
  O  O3  1  0.22831677  0.18336448  0.80216342  1
  O  O4  1  0.95971457  0.79497196  0.81109446  1
  O  O5  1  0.83552134  0.05977678  0.80854031  1
  O  O6  1  0.80863963  0.97714359  0.69303050  1
  O  O7  1  0.18018139  0.20787841  0.69687705  1
  O  O8  1  0.02609470  0.83260189  0.69437250  1
  O  O9  1  0.80687132  0.83393067  0.19377526  1
  O  O10  1  0.03016161  0.19683217  0.19196425  1
  O  O11  1  0.16593561  0.96894546  0.19384733  1
  O  O12  1  0.87487317  0.36725551  0.63489324  1
  O  O13  1  0.50195043  0.14256717  0.63794882  1
  O  O14  1  0.63507213  0.51508094  0.63445455  1
  O  O15  1  0.85967537  0.50084469  0.13957569  1
  O  O16  1  0.63908340  0.12542749  0.13617050  1
  O  O17  1  0.48582301  0.35702306  0.13518248  1
  O  O18  1  0.44982512  0.29572463  0.02922912  1
  O  O19  1  0.83057662  0.54861106  0.02548115  1
  O  O20  1  0.69775786  0.14943186  0.03043393  1
  O  O21  1  0.45611336  0.16147841  0.52376377  1
  O  O22  1  0.70657683  0.55684863  0.52940576  1
  O  O23  1  0.85068209  0.30329736  0.52938156  1
  O  O24  1  0.52410629  0.68106382  0.97122400  1
  O  O25  1  0.16237318  0.47789201  0.97312022  1
  O  O26  1  0.32312373  0.84231448  0.97084812  1
  O  O27  1  0.53098229  0.84190804  0.46967230  1
  O  O28  1  0.31252408  0.47889653  0.47422209  1
  O  O29  1  0.15948363  0.69417371  0.47058101  1
  O  O30  1  0.13547101  0.64672978  0.36467450  1
  O  O31  1  0.50861019  0.86597708  0.36414916  1
  O  O32  1  0.35039329  0.50300584  0.36081466  1
  O  O33  1  0.15257592  0.49542219  0.85954459  1
  O  O34  1  0.35701995  0.86547724  0.86363712  1
  O  O35  1  0.51165075  0.65459080  0.86424049  1
  O  O36  1  0.03403772  0.82593883  0.41136546  1
  O  O37  1  0.78839190  0.95334075  0.41055245  1
  O  O38  1  0.15815749  0.19060206  0.40799425  1
  O  O39  1  0.04209373  0.18266737  0.91501958  1
  O  O40  1  0.17284265  0.95516661  0.91550614  1
  O  O41  1  0.78744805  0.81852363  0.91705354  1
  O  O42  1  0.98277148  0.18466097  0.59413358  1
  O  O43  1  0.18430498  0.02276466  0.59727474  1
  O  O44  1  0.81877342  0.80430686  0.59280950  1
  O  O45  1  0.98679266  0.82391249  0.09222641  1
  O  O46  1  0.82548042  0.02484422  0.09194007  1
  O  O47  1  0.19774417  0.18295147  0.09145491  1
  O  O48  1  0.68006732  0.16337353  0.73750225  1
  O  O49  1  0.47178828  0.31980200  0.73711132  1
  O  O50  1  0.82756157  0.51928310  0.73544776  1
  O  O51  1  0.69011020  0.51999499  0.24051343  1
  O  O52  1  0.82392141  0.30070275  0.24138788  1
  O  O53  1  0.47813733  0.17208251  0.23785847  1
  O  O54  1  0.61515037  0.49695995  0.91932596  1
  O  O55  1  0.85452016  0.35749480  0.91637008  1
  O  O56  1  0.49233141  0.12373883  0.92255528  1
  O  O57  1  0.64774483  0.12711176  0.42118955  1
  O  O58  1  0.51350947  0.36770434  0.41572862  1
  O  O59  1  0.87710029  0.50850925  0.42388270  1
  O  O60  1  0.36589155  0.49444799  0.07563730  1
  O  O61  1  0.14893421  0.64787714  0.07304297  1
  O  O62  1  0.51361100  0.86583047  0.07615566  1
  O  O63  1  0.35254940  0.85090048  0.57069757  1
  O  O64  1  0.51039264  0.64603457  0.57408892  1
  O  O65  1  0.13199265  0.49455727  0.57535677  1
  O  O66  1  0.30744689  0.83376818  0.26560716  1
  O  O67  1  0.52874011  0.69695414  0.26077328  1
  O  O68  1  0.16221174  0.47426515  0.26106459  1
  O  O69  1  0.31136644  0.46575407  0.75580580  1
  O  O70  1  0.16429429  0.68783794  0.76056534  1
  O  O71  1  0.52163684  0.82485362  0.76165241  1
loop_
_geom_bond_atom_site_label_1
_geom_bond_atom_site_label_2
_geom_bond_distance
_geom_bond_site_symmetry_2
Na0 O39 2.274165 1_665
Na0 O41 2.415620 1_555
Na0 O40 2.468761 1_655
Na0 O45 2.768502 1_556
Na0 O46 2.835457 1_566
Na0 O47 2.867277 1_666
Na1 O55 2.229784 1_555
Na1 O54 2.512173 1_555
Na1 O56 2.581371 1_555
Na1 O48 2.823447 1_555
Na1 O50 2.837909 1_555
Na1 O49 3.003167 1_555
Na2 O58 2.273073 1_555
Na2 O57 2.597965 1_555
Na2 O59 2.636863 1_555
Na2 O51 2.720970 1_555
Na2 O53 2.755525 1_555
Na2 O52 2.759551 1_555
O0 Si0 1.645703 1_555
O0 Ta0 1.896992 1_555
O1 Si1 1.616549 1_555
O1 Ta0 1.984336 1_665
O2 Si2 1.639852 1_555
O2 Ta0 1.912991 1_655
O3 S0 1.441012 1_555
O3 Zn0 2.290394 1_445
O4 Si3 1.565409 1_555
O4 Zn0 1.965579 1_555
O5 Si4 1.565602 1_545
O5 Zn0 1.920643 1_545
O6 Si4 1.655873 1_555
O6 Ta1 1.921031 1_555
O7 S0 1.498373 1_555
O7 Ta1 2.109225 1_445
O8 Si3 1.679150 1_455
O8 Ta1 1.851942 1_455
O9 Si1 1.630616 1_555
O9 Ta2 1.894462 1_655
O10 Si2 1.608047 1_455
O10 Ta2 1.955001 1_545
O11 Si0 1.633695 1_565
O11 Ta2 1.893891 1_555
O12 S1 1.507338 1_555
O12 Ta3 2.087482 1_555
O13 Si5 1.657403 1_555
O13 Ta3 1.901857 1_555
O14 S2 1.473699 1_555
O14 Ta3 2.244716 1_555
O15 Si6 1.668781 1_555
O15 Ta4 1.907291 1_555
O16 S3 1.508223 1_555
O16 Ta4 2.133398 1_555
O17 S4 1.496066 1_555
O17 Ta4 2.177365 1_555
O18 S4 1.442149 1_555
O18 Zn1 2.330284 1_554
O19 Si6 1.564166 1_555
O19 Zn1 1.883578 1_554
O20 S3 1.446822 1_555
O20 Zn1 2.174403 1_554
O21 Si5 1.564180 1_555
O21 Zn2 1.861375 1_555
O22 S2 1.450413 1_555
O22 Zn2 2.139064 1_555
O23 S1 1.447652 1_555
O23 Zn2 2.316994 1_555
O24 S5 1.526522 1_555
O24 Ta5 2.053408 1_556
O25 Si7 1.733774 1_555
O25 Ta5 1.829505 1_556
O26 S6 1.533316 1_555
O26 Ta5 2.016864 1_556
O27 S7 1.513015 1_555
O27 Ta6 2.077633 1_555
O28 Si8 1.666221 1_555
O28 Ta6 1.912864 1_555
O29 S8 1.522672 1_555
O29 Ta6 2.056271 1_555
O30 S8 1.478417 1_555
O30 Ta7 2.173472 1_555
O31 S7 1.484618 1_555
O31 Ta7 2.155563 1_555
O32 Si8 1.648390 1_555
O32 Ta7 1.906242 1_555
O33 Si7 1.677474 1_555
O33 Ta8 1.893712 1_555
O34 S6 1.522773 1_555
O34 Ta8 2.039340 1_555
O35 S5 1.500205 1_555
O35 Ta8 2.137801 1_555
O36 S8 1.485799 1_555
O36 Ta0 2.172795 1_565
O37 S7 1.486895 1_555
O37 Ta0 2.165949 1_665
O38 Si8 1.654004 1_555
O38 Ta0 1.912842 1_555
O39 Si7 1.594106 1_555
O39 Zn0 2.005713 1_445
O40 S6 1.444511 1_555
O40 Zn0 2.403378 1_455
O41 S5 1.456635 1_555
O41 Zn0 2.206052 1_555
O42 S1 1.472752 1_555
O42 Ta1 2.194643 1_545
O43 Si5 1.643674 1_555
O43 Ta1 1.914010 1_445
O44 S2 1.501973 1_555
O44 Ta1 2.045824 1_555
O45 Si6 1.655506 1_555
O45 Ta2 1.920546 1_655
O46 S3 1.506424 1_555
O46 Ta2 2.150827 1_645
O47 S4 1.503894 1_555
O47 Ta2 2.148064 1_545
O48 Si4 1.694485 1_545
O48 Ta3 1.844245 1_555
O49 S0 1.518406 1_555
O49 Ta3 2.032191 1_555
O50 Si3 1.653205 1_555
O50 Ta3 1.939640 1_555
O51 Si1 1.635726 1_555
O51 Ta4 1.920165 1_555
O52 Si2 1.636115 1_555
O52 Ta4 1.915061 1_555
O53 Si0 1.619313 1_555
O53 Ta4 1.976255 1_555
O54 S5 1.463880 1_555
O54 Zn1 2.210816 1_555
O55 Si7 1.596933 1_655
O55 Zn1 1.934639 1_555
O56 S6 1.455709 1_545
O56 Zn1 2.297254 1_555
O57 S7 1.454558 1_545
O57 Zn2 2.232980 1_555
O58 Si8 1.591447 1_555
O58 Zn2 1.953608 1_555
O59 S8 1.456269 1_655
O59 Zn2 2.277251 1_555
O60 S4 1.515611 1_555
O60 Ta5 2.076730 1_555
O61 Si6 1.665380 1_455
O61 Ta5 1.893712 1_555
O62 S3 1.488832 1_565
O62 Ta5 2.203801 1_555
O63 Si5 1.669114 1_565
O63 Ta6 1.903215 1_555
O64 S2 1.516040 1_555
O64 Ta6 2.050160 1_555
O65 S1 1.525519 1_455
O65 Ta6 2.030538 1_555
O66 Si0 1.609346 1_565
O66 Ta7 1.938140 1_555
O67 Si1 1.624538 1_555
O67 Ta7 1.882514 1_555
O68 Si2 1.621634 1_455
O68 Ta7 1.885312 1_555
O69 S0 1.484541 1_555
O69 Ta8 2.113084 1_555
O70 Si3 1.658396 1_455
O70 Ta8 1.882729 1_555
O71 Si4 1.633306 1_555
O71 Ta8 1.944933 1_555
