# generated using pymatgen
data_MgV4O5F7
_symmetry_space_group_name_H-M   'P 1'
_cell_length_a   5.20443039
_cell_length_b   5.50015582
_cell_length_c   9.02077000
_cell_angle_alpha   72.37033531
_cell_angle_beta   89.49124287
_cell_angle_gamma   62.74402422
_symmetry_Int_Tables_number   1
_chemical_formula_structural   MgV4O5F7
_chemical_formula_sum   'Mg1 V4 O5 F7'
_cell_volume   216.18595616
_cell_formula_units_Z   1
loop_
 _symmetry_equiv_pos_site_id
 _symmetry_equiv_pos_as_xyz
  1  'x, y, z'
loop_
 _atom_site_type_symbol
 _atom_site_label
 _atom_site_symmetry_multiplicity
 _atom_site_fract_x
 _atom_site_fract_y
 _atom_site_fract_z
 _atom_site_occupancy
  Mg  Mg0  1  0.03370500  0.89775700  0.34925100  1
  V  V0  1  0.71290500  0.50666300  0.24208900  1
  V  V1  1  0.44501600  0.04545500  0.49472000  1
  V  V2  1  0.28733900  0.51639400  0.75487300  1
  V  V3  1  0.04089500  0.95713100  0.98119700  1
  O  O0  1  0.41677800  0.75046100  0.07712200  1
  O  O1  1  0.43833800  0.73274000  0.67525300  1
  O  O2  1  0.61275200  0.19790800  0.34146600  1
  O  O3  1  0.02881900  0.75764300  0.86868100  1
  O  O4  1  0.07815400  0.22828300  0.42485200  1
  F  F0  1  0.96329200  0.71983400  0.56410300  1
  F  F1  1  0.94460200  0.73758100  0.19487600  1
  F  F2  1  0.97830200  0.20802400  0.13788900  1
  F  F3  1  0.46698900  0.75375800  0.37715500  1
  F  F4  1  0.59615900  0.24074200  0.93016200  1
  F  F5  1  0.48288300  0.24319800  0.63013700  1
  F  F6  1  0.09807400  0.25642700  0.82760600  1
loop_
_geom_bond_atom_site_label_1
_geom_bond_atom_site_label_2
_geom_bond_distance
_geom_bond_site_symmetry_2
Mg0 O2 2.037107 1_465
Mg0 O4 2.227669 1_565
O0 V3 1.807021 1_554
O0 V0 1.824000 1_555
O1 V2 1.696525 1_555
O1 V1 1.992178 1_565
O2 V1 1.822982 1_555
O2 V0 1.959472 1_555
O3 V3 1.725364 1_555
O3 V2 1.946873 1_555
O4 V1 1.712540 1_555
O4 V0 2.129945 1_455
F0 Mg0 2.003823 1_655
F0 V2 2.052912 1_655
F0 V1 2.408562 1_565
F0 F5 2.670114 1_655
F0 F6 2.713084 1_655
F1 Mg0 2.014766 1_655
F1 V0 2.077159 1_555
F1 V3 2.133548 1_654
F1 F2 2.568773 1_565
F1 O0 2.690673 1_655
F1 O4 2.712185 1_655
F2 Mg0 2.053983 1_645
F2 V0 2.079297 1_555
F2 V3 2.184007 1_644
F2 O2 2.639694 1_555
F2 F4 2.652039 1_554
F2 O4 2.689817 1_655
F2 O0 2.719346 1_645
F2 F6 2.821957 1_654
F2 F3 2.894879 1_645
F3 Mg0 2.007269 1_555
F3 V0 2.086076 1_555
F3 V1 2.138285 1_565
F3 O1 2.662158 1_555
F3 O0 2.727736 1_555
F3 O2 2.804205 1_565
F4 V2 1.934743 1_555
F4 V3 2.068698 1_645
F4 F6 2.715231 1_555
F5 V1 1.928559 1_555
F5 V2 2.040303 1_555
F5 F6 2.659124 1_555
F6 V3 1.943687 1_545
F6 V2 2.038512 1_555
