# generated using pymatgen
data_Na3Ti4SiP5O24
_symmetry_space_group_name_H-M   'P 1'
_cell_length_a   8.68134572
_cell_length_b   8.64333764
_cell_length_c   22.30584154
_cell_angle_alpha   90.01714623
_cell_angle_beta   90.03799411
_cell_angle_gamma   119.87254365
_symmetry_Int_Tables_number   1
_chemical_formula_structural   Na3Ti4SiP5O24
_chemical_formula_sum   'Na9 Ti12 Si3 P15 O72'
_cell_volume   1451.35586495
_cell_formula_units_Z   3
loop_
 _symmetry_equiv_pos_site_id
 _symmetry_equiv_pos_as_xyz
  1  'x, y, z'
loop_
 _atom_site_type_symbol
 _atom_site_label
 _atom_site_symmetry_multiplicity
 _atom_site_fract_x
 _atom_site_fract_y
 _atom_site_fract_z
 _atom_site_occupancy
  Na  Na0  1  0.36511351  0.00045638  0.75028501  1
  Na  Na1  1  0.66671369  0.96803847  0.58367921  1
  Na  Na2  1  0.66675516  0.69850665  0.08298913  1
  Na  Na3  1  0.00681336  0.00036724  0.49915393  1
  Na  Na4  1  0.00686547  0.00579248  0.99892764  1
  Na  Na5  1  0.67278570  0.33951106  0.83434924  1
  Na  Na6  1  0.66667811  0.33330191  0.33332468  1
  Na  Na7  1  0.32724360  0.66615265  0.16775206  1
  Na  Na8  1  0.32729225  0.65524175  0.66661096  1
  Ti  Ti0  1  0.99964423  0.00008122  0.35336697  1
  Ti  Ti1  1  0.99344939  0.00024144  0.85385585  1
  Ti  Ti2  1  0.00401842  0.99928279  0.64740809  1
  Ti  Ti3  1  0.00749992  0.00206703  0.14714449  1
  Ti  Ti4  1  0.67029398  0.33040338  0.68605987  1
  Ti  Ti5  1  0.67428585  0.33703614  0.18701907  1
  Ti  Ti6  1  0.66929192  0.33728449  0.98020459  1
  Ti  Ti7  1  0.65834381  0.32998955  0.47944867  1
  Ti  Ti8  1  0.32242848  0.66593451  0.01929979  1
  Ti  Ti9  1  0.32680968  0.66604878  0.51935647  1
  Ti  Ti10  1  0.33365040  0.66655378  0.31334350  1
  Ti  Ti11  1  0.33909592  0.66547717  0.81384259  1
  Si  Si0  1  0.71304985  0.99943173  0.74933126  1
  Si  Si1  1  0.37196710  0.04422952  0.58318001  1
  Si  Si2  1  0.95941510  0.62210672  0.08345811  1
  P  P0  1  0.28972374  0.00076219  0.25081387  1
  P  P1  1  0.71116066  0.71226955  0.25005861  1
  P  P2  1  0.00054394  0.28794531  0.25039142  1
  P  P3  1  0.28673044  0.29006754  0.75063496  1
  P  P4  1  0.99659334  0.70903164  0.75103183  1
  P  P5  1  0.95676682  0.33644070  0.58242687  1
  P  P6  1  0.66602705  0.61885087  0.58308063  1
  P  P7  1  0.66684468  0.04709474  0.08337546  1
  P  P8  1  0.37807889  0.33092259  0.08328383  1
  P  P9  1  0.62190904  0.66634573  0.91792674  1
  P  P10  1  0.04474466  0.37839278  0.91610134  1
  P  P11  1  0.33326020  0.95734643  0.91596980  1
  P  P12  1  0.62231658  0.95466136  0.41654396  1
  P  P13  1  0.33258521  0.37877228  0.41631035  1
  P  P14  1  0.04364744  0.66593331  0.41584519  1
  O  O0  1  0.19868940  0.02913588  0.30589698  1
  O  O1  1  0.83042749  0.80104529  0.30546403  1
  O  O2  1  0.97089462  0.17001195  0.30615753  1
  O  O3  1  0.20478388  0.16742536  0.80576147  1
  O  O4  1  0.97021886  0.79945242  0.80647094  1
  O  O5  1  0.83823970  0.03179812  0.80801860  1
  O  O6  1  0.79902254  0.96675419  0.68928507  1
  O  O7  1  0.17116277  0.20297654  0.69425245  1
  O  O8  1  0.03713305  0.83145607  0.69495989  1
  O  O9  1  0.79425559  0.82570333  0.19286546  1
  O  O10  1  0.03017134  0.20100253  0.19429993  1
  O  O11  1  0.17045607  0.96921005  0.19456840  1
  O  O12  1  0.87196069  0.36764488  0.63925963  1
  O  O13  1  0.50139722  0.13019945  0.64226208  1
  O  O14  1  0.63648649  0.50371121  0.63930888  1
  O  O15  1  0.86163298  0.49624955  0.14171667  1
  O  O16  1  0.63344490  0.13091323  0.13955986  1
  O  O17  1  0.49831822  0.36755272  0.13890520  1
  O  O18  1  0.46254978  0.29912249  0.02688464  1
  O  O19  1  0.82638793  0.53100783  0.02591036  1
  O  O20  1  0.69682118  0.16357891  0.02729243  1
  O  O21  1  0.47306642  0.17040949  0.52525544  1
  O  O22  1  0.69873646  0.53451474  0.52689648  1
  O  O23  1  0.83506445  0.29948936  0.52755415  1
  O  O24  1  0.53985296  0.69723314  0.97449184  1
  O  O25  1  0.16243980  0.46586202  0.97223902  1
  O  O26  1  0.30423614  0.83692368  0.97158036  1
  O  O27  1  0.53921796  0.84107285  0.47373381  1
  O  O28  1  0.30309031  0.46559687  0.47238801  1
  O  O29  1  0.16289387  0.69746540  0.47208271  1
  O  O30  1  0.13472760  0.63757364  0.36076392  1
  O  O31  1  0.50285840  0.86556694  0.36120791  1
  O  O32  1  0.36246613  0.49666983  0.36050219  1
  O  O33  1  0.13242455  0.49600870  0.86069611  1
  O  O34  1  0.36291863  0.87077035  0.85935171  1
  O  O35  1  0.50405938  0.63756607  0.86171366  1
  O  O36  1  0.02770273  0.83542788  0.40904604  1
  O  O37  1  0.80796137  0.97317005  0.40885275  1
  O  O38  1  0.16645169  0.19231629  0.40899975  1
  O  O39  1  0.02938602  0.19277951  0.91038484  1
  O  O40  1  0.16540191  0.97328808  0.90999288  1
  O  O41  1  0.80818353  0.83222209  0.90983167  1
  O  O42  1  0.96976988  0.16550201  0.58964950  1
  O  O43  1  0.17802275  0.02342234  0.59030467  1
  O  O44  1  0.83006909  0.80855365  0.58908789  1
  O  O45  1  0.97053533  0.81545111  0.09144851  1
  O  O46  1  0.83183120  0.02369924  0.09050260  1
  O  O47  1  0.19135880  0.16692806  0.09066609  1
  O  O48  1  0.68579093  0.17366567  0.74390248  1
  O  O49  1  0.47178942  0.30681251  0.74319696  1
  O  O50  1  0.83038671  0.52558990  0.74323406  1
  O  O51  1  0.69080841  0.52457671  0.24356510  1
  O  O52  1  0.83182844  0.30473294  0.24392801  1
  O  O53  1  0.47348442  0.16711934  0.24293605  1
  O  O54  1  0.63823684  0.49640974  0.92245308  1
  O  O55  1  0.85873437  0.35842969  0.92373280  1
  O  O56  1  0.50157902  0.14094614  0.92373992  1
  O  O57  1  0.64263184  0.14213278  0.42304241  1
  O  O58  1  0.50132237  0.36187336  0.42263402  1
  O  O59  1  0.86001252  0.49961639  0.42369641  1
  O  O60  1  0.36525500  0.50226349  0.07596806  1
  O  O61  1  0.15392027  0.64269437  0.07601046  1
  O  O62  1  0.50477668  0.85686941  0.07620112  1
  O  O63  1  0.36322742  0.85136879  0.57504747  1
  O  O64  1  0.50151226  0.64319790  0.57605365  1
  O  O65  1  0.14279034  0.50105872  0.57615100  1
  O  O66  1  0.30566260  0.83124932  0.25758728  1
  O  O67  1  0.52536526  0.69341972  0.25779868  1
  O  O68  1  0.16686076  0.47429170  0.25762707  1
  O  O69  1  0.30451261  0.47523198  0.75725182  1
  O  O70  1  0.16669284  0.69485884  0.75732183  1
  O  O71  1  0.51183301  0.82844735  0.75807519  1
loop_
_geom_bond_atom_site_label_1
_geom_bond_atom_site_label_2
_geom_bond_distance
_geom_bond_site_symmetry_2
Na0 O70 2.331729 1_545
Na0 O49 2.334929 1_555
Na0 O71 2.397745 1_545
Na0 O48 2.420882 1_555
Na0 O13 2.673385 1_555
Na0 O34 2.675047 1_545
Na0 O3 2.748368 1_555
Na0 O8 2.759528 1_545
Na1 O63 2.312589 1_555
Na1 O42 2.319248 1_565
Na1 O44 2.423452 1_555
Na1 O64 2.440733 1_555
Na1 O6 2.622510 1_555
Na1 O27 2.688605 1_555
Na1 O13 2.781543 1_565
Na1 O23 2.782867 1_565
Na2 O60 2.308523 1_555
Na2 O45 2.314317 1_555
Na2 O62 2.406461 1_555
Na2 O46 2.443158 1_565
Na2 O24 2.656161 1_554
Na2 O9 2.687615 1_555
Na2 O19 2.763573 1_555
Na2 O17 2.777480 1_555
Na3 O43 2.466468 1_555
Na3 O36 2.522188 1_545
Na3 O38 2.536229 1_555
Na3 O44 2.568900 1_445
Na3 O42 2.582961 1_455
Na3 O37 2.585231 1_445
Na4 O39 2.497733 1_555
Na4 O40 2.509372 1_545
Na4 O47 2.542487 1_556
Na4 O45 2.559533 1_446
Na4 O41 2.567358 1_445
Na4 O46 2.596842 1_456
Na5 O54 2.489083 1_555
Na5 O48 2.509503 1_555
Na5 O55 2.518011 1_555
Na5 O50 2.530409 1_555
Na5 O56 2.568143 1_555
Na5 O49 2.600448 1_555
Na6 O57 2.537253 1_555
Na6 O51 2.538371 1_555
Na6 O58 2.539065 1_555
Na6 O52 2.539492 1_555
Na6 O53 2.556395 1_555
Na6 O59 2.556825 1_555
Na7 O61 2.486881 1_555
Na7 O66 2.520300 1_555
Na7 O68 2.532440 1_555
Na7 O67 2.576721 1_555
Na7 O62 2.595831 1_555
Na7 O60 2.602273 1_555
Na8 O69 2.498711 1_555
Na8 O65 2.506140 1_555
Na8 O64 2.557220 1_555
Na8 O71 2.564152 1_555
Na8 O63 2.572647 1_555
Na8 O70 2.575670 1_555
O0 P0 1.545490 1_555
O0 Ti0 1.934030 1_455
O1 P1 1.547419 1_555
O1 Ti0 1.933562 1_565
O2 P2 1.546750 1_655
O2 Ti0 1.922037 1_555
O3 P3 1.546781 1_555
O3 Ti1 1.991882 1_455
O4 P4 1.539642 1_555
O4 Ti1 1.954411 1_565
O5 Si0 1.633439 1_545
O5 Ti1 1.816530 1_555
O6 Si0 1.625379 1_555
O6 Ti2 1.903325 1_655
O7 P3 1.549313 1_555
O7 Ti2 1.936252 1_545
O8 P4 1.561502 1_455
O8 Ti2 1.930753 1_555
O9 P1 1.551322 1_555
O9 Ti3 1.995804 1_665
O10 P2 1.545540 1_555
O10 Ti3 1.939897 1_555
O11 P0 1.561170 1_565
O11 Ti3 1.897203 1_565
O12 P5 1.555855 1_555
O12 Ti4 1.923465 1_555
O13 Si1 1.648400 1_555
O13 Ti4 1.889003 1_555
O14 P6 1.541485 1_555
O14 Ti4 1.963662 1_555
O15 Si2 1.635578 1_555
O15 Ti5 1.825813 1_555
O16 P7 1.545554 1_555
O16 Ti5 1.946685 1_555
O17 P8 1.548537 1_555
O17 Ti5 1.988573 1_555
O18 P8 1.548467 1_555
O18 Ti6 1.956333 1_554
O19 Si2 1.641051 1_555
O19 Ti6 1.850780 1_554
O20 P7 1.544839 1_555
O20 Ti6 1.942307 1_554
O21 Si1 1.636460 1_555
O21 Ti7 1.823905 1_555
O22 P6 1.545546 1_555
O22 Ti7 1.936241 1_555
O23 P5 1.542182 1_555
O23 Ti7 1.993854 1_555
O24 P9 1.536597 1_555
O24 Ti8 2.031981 1_556
O25 P10 1.552996 1_555
O25 Ti8 1.904173 1_556
O26 P11 1.557400 1_555
O26 Ti8 1.890875 1_556
O27 P12 1.551803 1_555
O27 Ti9 1.987221 1_555
O28 P13 1.544239 1_555
O28 Ti9 1.945524 1_555
O29 P14 1.560949 1_555
O29 Ti9 1.895712 1_555
O30 P14 1.545642 1_555
O30 Ti10 1.932746 1_555
O31 P12 1.547334 1_555
O31 Ti10 1.932963 1_555
O32 P13 1.547004 1_555
O32 Ti10 1.921375 1_555
O33 P10 1.539929 1_555
O33 Ti11 1.960197 1_555
O34 P11 1.553384 1_555
O34 Ti11 1.963386 1_555
O35 P9 1.557373 1_555
O35 Ti11 1.895155 1_555
O36 P14 1.546122 1_555
O36 Ti0 1.993281 1_465
O37 P12 1.547896 1_555
O37 Ti0 1.993074 1_565
O38 P13 1.545352 1_555
O38 Ti0 1.999313 1_455
O39 P10 1.547464 1_555
O39 Ti1 1.984382 1_455
O40 P11 1.536251 1_555
O40 Ti1 2.048109 1_465
O41 P9 1.547324 1_555
O41 Ti1 1.982884 1_565
O42 P5 1.545285 1_555
O42 Ti2 2.058749 1_645
O43 Si1 1.609713 1_555
O43 Ti2 1.906982 1_545
O44 P6 1.551804 1_555
O44 Ti2 2.051009 1_655
O45 Si2 1.634897 1_555
O45 Ti3 1.931522 1_665
O46 P7 1.551095 1_555
O46 Ti3 2.058794 1_655
O47 P8 1.541287 1_555
O47 Ti3 1.975685 1_555
O48 Si0 1.641238 1_545
O48 Ti4 1.923661 1_555
O49 P3 1.548630 1_555
O49 Ti4 2.070908 1_555
O50 P4 1.531897 1_555
O50 Ti4 2.016161 1_555
O51 P1 1.548653 1_555
O51 Ti5 2.001489 1_555
O52 P2 1.548728 1_655
O52 Ti5 1.984489 1_555
O53 P0 1.535858 1_555
O53 Ti5 2.050641 1_555
O54 P9 1.547633 1_555
O54 Ti6 1.998438 1_555
O55 P10 1.545709 1_655
O55 Ti6 2.007075 1_555
O56 P11 1.540496 1_545
O56 Ti6 2.030037 1_555
O57 P12 1.546898 1_545
O57 Ti7 2.003997 1_555
O58 P13 1.549173 1_555
O58 Ti7 1.977959 1_555
O59 P14 1.535019 1_655
O59 Ti7 2.051409 1_555
O60 P8 1.548101 1_555
O60 Ti8 2.064380 1_555
O61 Si2 1.616043 1_455
O61 Ti8 1.868267 1_555
O62 P7 1.550372 1_565
O62 Ti8 2.057699 1_555
O63 Si1 1.640498 1_565
O63 Ti9 1.924224 1_555
O64 P6 1.551693 1_555
O64 Ti9 2.057829 1_555
O65 P5 1.537394 1_455
O65 Ti9 1.981174 1_555
O66 P0 1.546194 1_565
O66 Ti10 1.994343 1_555
O67 P1 1.548090 1_555
O67 Ti10 1.994225 1_555
O68 P2 1.545291 1_555
O68 Ti10 2.000533 1_555
O69 P3 1.536469 1_555
O69 Ti11 1.973303 1_555
O70 P4 1.547658 1_455
O70 Ti11 2.066487 1_555
O71 Si0 1.643946 1_555
O71 Ti11 1.918244 1_555
