# generated using pymatgen
data_Ba2Mg(BiO3)2
_symmetry_space_group_name_H-M   'P 1'
_cell_length_a   7.69705202
_cell_length_b   7.12708427
_cell_length_c   7.23455736
_cell_angle_alpha   49.46079432
_cell_angle_beta   50.30920940
_cell_angle_gamma   49.34986791
_symmetry_Int_Tables_number   1
_chemical_formula_structural   Ba2Mg(BiO3)2
_chemical_formula_sum   'Ba2 Mg1 Bi2 O6'
_cell_volume   212.28839723
_cell_formula_units_Z   1
loop_
 _symmetry_equiv_pos_site_id
 _symmetry_equiv_pos_as_xyz
  1  'x, y, z'
loop_
 _atom_site_type_symbol
 _atom_site_label
 _atom_site_symmetry_multiplicity
 _atom_site_fract_x
 _atom_site_fract_y
 _atom_site_fract_z
 _atom_site_occupancy
  Ba  Ba0  1  0.16760744  0.19277262  0.18529551  1
  Ba  Ba1  1  0.74341215  0.72712461  0.70653898  1
  Mg  Mg0  1  0.40181393  0.34526355  0.33067567  1
  Bi  Bi0  1  0.03891368  0.98486179  0.98786793  1
  Bi  Bi1  1  0.53193471  0.55321740  0.56551186  1
  O  O0  1  0.37202132  0.53305215  0.95031766  1
  O  O1  1  0.50504634  0.95005574  0.37396970  1
  O  O2  1  0.88842090  0.37715688  0.54665757  1
  O  O3  1  0.76029479  0.28744675  0.17846723  1
  O  O4  1  0.17833335  0.74214681  0.29848945  1
  O  O5  1  0.28720241  0.18190268  0.74079244  1
loop_
_geom_bond_atom_site_label_1
_geom_bond_atom_site_label_2
_geom_bond_distance
_geom_bond_site_symmetry_2
Ba0 O2 2.605822 1_455
Ba0 O1 2.684503 1_545
Ba0 O4 2.704463 1_545
Ba0 O0 2.728154 1_554
Ba0 O5 2.764872 1_554
Ba0 O3 2.772181 1_455
Ba1 O2 2.697996 1_555
Ba1 O4 2.714059 1_655
Ba1 O3 2.760722 1_556
Ba1 O5 2.828677 1_565
Ba1 O1 2.924110 1_555
Ba1 O0 2.955702 1_555
Ba1 O3 3.281672 1_565
Ba1 O5 3.400396 1_655
Mg0 O3 2.055092 1_555
Mg0 O4 2.080934 1_555
Mg0 O5 2.107458 1_555
Mg0 O1 2.217712 1_545
Mg0 O0 2.243760 1_554
Bi0 O5 2.165588 1_565
Bi0 O4 2.191407 1_556
Bi0 O3 2.283434 1_466
Bi0 O0 2.550949 1_555
Bi0 O2 2.872179 1_465
Bi1 O2 2.093004 1_555
Bi1 O1 2.114535 1_555
Bi1 O0 2.149278 1_555
