# generated using pymatgen
data_MgMn6O7F5
_symmetry_space_group_name_H-M   'P 1'
_cell_length_a   5.19615421
_cell_length_b   7.72804416
_cell_length_c   5.82142829
_cell_angle_alpha   97.38370578
_cell_angle_beta   99.04630939
_cell_angle_gamma   83.89879160
_symmetry_Int_Tables_number   1
_chemical_formula_structural   MgMn6O7F5
_chemical_formula_sum   'Mg1 Mn6 O7 F5'
_cell_volume   228.05789698
_cell_formula_units_Z   1
loop_
 _symmetry_equiv_pos_site_id
 _symmetry_equiv_pos_as_xyz
  1  'x, y, z'
loop_
 _atom_site_type_symbol
 _atom_site_label
 _atom_site_symmetry_multiplicity
 _atom_site_fract_x
 _atom_site_fract_y
 _atom_site_fract_z
 _atom_site_occupancy
  Mg  Mg0  1  0.48793800  0.51190100  0.49585900  1
  Mn  Mn0  1  0.53662200  0.01569300  0.49875700  1
  Mn  Mn1  1  0.59894100  0.68667400  0.10820800  1
  Mn  Mn2  1  0.45109900  0.32083800  0.87501300  1
  Mn  Mn3  1  0.99781600  0.68139500  0.68126100  1
  Mn  Mn4  1  0.97482100  0.31093600  0.35039700  1
  Mn  Mn5  1  0.98065800  0.00646200  0.00437800  1
  O  O0  1  0.88376700  0.77518800  0.97218500  1
  O  O1  1  0.85754900  0.08386600  0.29531000  1
  O  O2  1  0.65744100  0.09949400  0.81800300  1
  O  O3  1  0.66334000  0.75283700  0.48781100  1
  O  O4  1  0.64145100  0.41983300  0.18642900  1
  O  O5  1  0.34596300  0.57214800  0.81837800  1
  O  O6  1  0.33722900  0.25832000  0.52756100  1
  F  F0  1  0.82957600  0.43024700  0.66472200  1
  F  F1  1  0.35598700  0.92622700  0.18368000  1
  F  F2  1  0.11448600  0.56249000  0.37060100  1
  F  F3  1  0.13859400  0.23693900  0.02612000  1
  F  F4  1  0.14671800  0.93184300  0.71866400  1
loop_
_geom_bond_atom_site_label_1
_geom_bond_atom_site_label_2
_geom_bond_distance
_geom_bond_site_symmetry_2
Mg0 O4 2.095014 1_555
Mg0 O5 2.103323 1_555
Mg0 O3 2.167111 1_555
Mg0 O6 2.225378 1_555
Mn0 O2 1.917710 1_555
Mn0 O6 2.044061 1_555
Mn0 O3 2.063892 1_545
Mn0 O1 2.330086 1_555
Mn1 O0 2.002071 1_554
Mn1 O5 2.126981 1_554
Mn1 O4 2.149777 1_555
Mn1 O3 2.184075 1_555
Mn2 O2 1.939549 1_555
Mn2 O5 2.015301 1_555
Mn2 O4 2.022536 1_556
Mn2 O6 2.026806 1_555
Mn3 O0 1.911445 1_555
Mn3 O3 1.983432 1_555
Mn3 O5 2.004239 1_655
Mn4 O1 1.890694 1_555
Mn4 O4 1.999159 1_555
Mn4 O6 2.027182 1_655
Mn5 O0 1.886408 1_544
Mn5 O1 1.906411 1_555
Mn5 O2 1.971175 1_554
F0 Mg0 1.971910 1_555
F0 Mn4 2.149582 1_555
F0 Mn3 2.196975 1_555
F0 Mn2 2.730889 1_555
F1 Mn0 1.998477 1_565
F1 Mn5 2.132291 1_465
F1 Mn1 2.163918 1_555
F1 O3 2.597379 1_555
F1 F3 2.747134 1_565
F1 F4 2.758072 1_554
F2 Mg0 1.979188 1_555
F2 Mn3 2.069237 1_455
F2 Mn4 2.129321 1_455
F2 O3 2.763481 1_455
F3 Mn5 2.020410 1_455
F3 Mn2 2.156520 1_554
F3 Mn4 2.176944 1_455
F3 F4 2.771717 1_544
F4 Mn5 1.985586 1_466
F4 Mn3 2.132870 1_455
F4 Mn0 2.733371 1_565
