# generated using pymatgen
data_Na2Zr4Nb4Si7S5O48
_symmetry_space_group_name_H-M   'P 1'
_cell_length_a   17.96935515
_cell_length_b   8.97792526
_cell_length_c   23.31132958
_cell_angle_alpha   90.00798415
_cell_angle_beta   89.07530645
_cell_angle_gamma   119.98072504
_symmetry_Int_Tables_number   1
_chemical_formula_structural   Na2Zr4Nb4Si7S5O48
_chemical_formula_sum   'Na6 Zr12 Nb12 Si21 S15 O144'
_cell_volume   3256.98477439
_cell_formula_units_Z   3
loop_
 _symmetry_equiv_pos_site_id
 _symmetry_equiv_pos_as_xyz
  1  'x, y, z'
loop_
 _atom_site_type_symbol
 _atom_site_label
 _atom_site_symmetry_multiplicity
 _atom_site_fract_x
 _atom_site_fract_y
 _atom_site_fract_z
 _atom_site_occupancy
  Na  Na0  1  0.99095136  0.00507984  0.49776370  1
  Na  Na1  1  0.49023149  0.97375287  0.00492497  1
  Na  Na2  1  0.32303696  0.33071622  0.84087538  1
  Na  Na3  1  0.82141897  0.32717967  0.83927481  1
  Na  Na4  1  0.32601208  0.31971148  0.33546822  1
  Na  Na5  1  0.82025043  0.31187513  0.33864987  1
  Zr  Zr0  1  0.00383856  0.01351905  0.35854577  1
  Zr  Zr1  1  0.50544998  0.99564936  0.85988372  1
  Zr  Zr2  1  0.00101595  0.01441817  0.64350771  1
  Zr  Zr3  1  0.50127461  0.99697461  0.14676470  1
  Zr  Zr4  1  0.33219424  0.33606214  0.98015585  1
  Zr  Zr5  1  0.83538159  0.33492471  0.97872588  1
  Zr  Zr6  1  0.33712681  0.33808693  0.47683288  1
  Zr  Zr7  1  0.83299864  0.32931515  0.47781850  1
  Zr  Zr8  1  0.17207222  0.68060026  0.30995985  1
  Zr  Zr9  1  0.67059792  0.67403790  0.30787668  1
  Zr  Zr10  1  0.17497640  0.66755228  0.81041894  1
  Zr  Zr11  1  0.67118650  0.66321618  0.81065475  1
  Nb  Nb0  1  0.50494503  0.02313725  0.35864152  1
  Nb  Nb1  1  0.00624555  0.00073384  0.86138998  1
  Nb  Nb2  1  0.50300483  0.01783891  0.64188661  1
  Nb  Nb3  1  0.00301753  0.98820146  0.14162933  1
  Nb  Nb4  1  0.33159567  0.34315718  0.68542937  1
  Nb  Nb5  1  0.83548665  0.35004754  0.68516529  1
  Nb  Nb6  1  0.34082915  0.32170837  0.18879869  1
  Nb  Nb7  1  0.83134322  0.32105393  0.18608267  1
  Nb  Nb8  1  0.17298025  0.69200613  0.02497722  1
  Nb  Nb9  1  0.67364664  0.69166869  0.02452077  1
  Nb  Nb10  1  0.17403752  0.65535467  0.52325000  1
  Nb  Nb11  1  0.67076739  0.65145094  0.52212652  1
  Si  Si0  1  0.14374517  0.00579649  0.24922891  1
  Si  Si1  1  0.64357170  0.00694245  0.25082808  1
  Si  Si2  1  0.50150649  0.28738611  0.25041108  1
  Si  Si3  1  0.14400462  0.28101799  0.75080260  1
  Si  Si4  1  0.64379686  0.28298504  0.74958670  1
  Si  Si5  1  0.47629528  0.34321801  0.58231369  1
  Si  Si6  1  0.97872906  0.34239090  0.58106179  1
  Si  Si7  1  0.33821064  0.62806975  0.58322810  1
  Si  Si8  1  0.83653394  0.62702546  0.58070840  1
  Si  Si9  1  0.47795453  0.62005592  0.08173368  1
  Si  Si10  1  0.97638109  0.61028232  0.08241278  1
  Si  Si11  1  0.33920680  0.05023797  0.08176180  1
  Si  Si12  1  0.83803412  0.04928587  0.08373569  1
  Si  Si13  1  0.30972221  0.66620685  0.91790618  1
  Si  Si14  1  0.80930904  0.66408931  0.91586239  1
  Si  Si15  1  0.17076581  0.95417455  0.91484335  1
  Si  Si16  1  0.66967683  0.95532106  0.91558382  1
  Si  Si17  1  0.31054199  0.95269730  0.41590451  1
  Si  Si18  1  0.80877392  0.94995790  0.41641433  1
  Si  Si19  1  0.16876224  0.38144561  0.41492602  1
  Si  Si20  1  0.67065533  0.38472458  0.41410625  1
  S  S0  1  0.35759566  0.70440297  0.25113312  1
  S  S1  1  0.86066588  0.71139904  0.24800995  1
  S  S2  1  0.99680827  0.28487511  0.24826190  1
  S  S3  1  0.99711821  0.71055049  0.75128551  1
  S  S4  1  0.49679419  0.70893519  0.74839499  1
  S  S5  1  0.35994841  0.00954707  0.74829169  1
  S  S6  1  0.85859165  0.01070494  0.75117776  1
  S  S7  1  0.19123667  0.04500803  0.58378484  1
  S  S8  1  0.68935508  0.04383435  0.58603722  1
  S  S9  1  0.18799516  0.33705204  0.08564848  1
  S  S10  1  0.69093001  0.33800755  0.08340664  1
  S  S11  1  0.02461974  0.37785649  0.91548665  1
  S  S12  1  0.52414143  0.38071803  0.91719878  1
  S  S13  1  0.02495973  0.66864053  0.41723421  1
  S  S14  1  0.52614438  0.67463509  0.41625344  1
  O  O0  1  0.09763872  0.03515050  0.30535095  1
  O  O1  1  0.59386614  0.03052351  0.30728053  1
  O  O2  1  0.40966520  0.78364735  0.30185872  1
  O  O3  1  0.91212569  0.78862277  0.29925045  1
  O  O4  1  0.48317820  0.16239347  0.30806535  1
  O  O5  1  0.97841103  0.17731774  0.30102766  1
  O  O6  1  0.09339624  0.15659862  0.80738700  1
  O  O7  1  0.59898661  0.16094843  0.80547323  1
  O  O8  1  0.47854078  0.77995833  0.80102040  1
  O  O9  1  0.98067276  0.78811051  0.80320940  1
  O  O10  1  0.41055789  0.03311569  0.79961779  1
  O  O11  1  0.91108553  0.03325581  0.80171216  1
  O  O12  1  0.40250949  0.98671824  0.69615470  1
  O  O13  1  0.89790279  0.98457513  0.69832360  1
  O  O14  1  0.08893630  0.18666163  0.69503237  1
  O  O15  1  0.58499481  0.17796086  0.69380554  1
  O  O16  1  0.00711335  0.81060350  0.69922211  1
  O  O17  1  0.50739521  0.81435701  0.69747180  1
  O  O18  1  0.39651165  0.80662091  0.19802406  1
  O  O19  1  0.90427993  0.81908198  0.19580562  1
  O  O20  1  0.00728587  0.20055601  0.19737670  1
  O  O21  1  0.50726745  0.19254838  0.19364371  1
  O  O22  1  0.08370020  0.99021081  0.19343744  1
  O  O23  1  0.59061850  0.98527039  0.19346217  1
  O  O24  1  0.42528363  0.35740216  0.64040967  1
  O  O25  1  0.92690605  0.35631283  0.63981334  1
  O  O26  1  0.24385987  0.13156565  0.63597585  1
  O  O27  1  0.74423851  0.13042237  0.63679131  1
  O  O28  1  0.31801613  0.49864197  0.64100632  1
  O  O29  1  0.82136846  0.50314050  0.63973925  1
  O  O30  1  0.42669622  0.49937270  0.13935501  1
  O  O31  1  0.92577107  0.49419901  0.13985110  1
  O  O32  1  0.32361205  0.13965611  0.13999260  1
  O  O33  1  0.81807261  0.13920905  0.14079775  1
  O  O34  1  0.24159248  0.36491509  0.13564456  1
  O  O35  1  0.74356311  0.35807118  0.13528213  1
  O  O36  1  0.22228953  0.29659989  0.03335284  1
  O  O37  1  0.73075162  0.30868692  0.03154877  1
  O  O38  1  0.41686889  0.53242113  0.02688297  1
  O  O39  1  0.91694987  0.53710620  0.02739387  1
  O  O40  1  0.34499861  0.16025416  0.02597017  1
  O  O41  1  0.85385597  0.16769285  0.02855787  1
  O  O42  1  0.22850823  0.15454527  0.53245076  1
  O  O43  1  0.72350843  0.15231044  0.53431488  1
  O  O44  1  0.35380630  0.53919121  0.52906981  1
  O  O45  1  0.84742511  0.53176428  0.52644586  1
  O  O46  1  0.41516434  0.29369695  0.52851191  1
  O  O47  1  0.91624589  0.30012307  0.52775604  1
  O  O48  1  0.25609324  0.67755553  0.97474985  1
  O  O49  1  0.76094385  0.68632063  0.97294078  1
  O  O50  1  0.07398712  0.44920986  0.96718879  1
  O  O51  1  0.57513383  0.46000260  0.96826759  1
  O  O52  1  0.15502873  0.83579782  0.97340976  1
  O  O53  1  0.65898958  0.83958201  0.97456078  1
  O  O54  1  0.25863495  0.83357509  0.47337770  1
  O  O55  1  0.75557185  0.83294277  0.47463916  1
  O  O56  1  0.15781862  0.47566242  0.47484118  1
  O  O57  1  0.65531529  0.47146702  0.47412156  1
  O  O58  1  0.07538493  0.68943869  0.46869525  1
  O  O59  1  0.57544085  0.69512211  0.46864013  1
  O  O60  1  0.06481842  0.64875067  0.36409112  1
  O  O61  1  0.56520005  0.64554318  0.36461199  1
  O  O62  1  0.25115602  0.86756940  0.35972577  1
  O  O63  1  0.75397689  0.86496591  0.36014863  1
  O  O64  1  0.17292778  0.49123162  0.35912172  1
  O  O65  1  0.68286676  0.50004319  0.35919170  1
  O  O66  1  0.06442891  0.48184949  0.86316714  1
  O  O67  1  0.56426904  0.48106617  0.86378418  1
  O  O68  1  0.17644029  0.85781666  0.85828606  1
  O  O69  1  0.67421822  0.85578435  0.85899636  1
  O  O70  1  0.25388102  0.64279121  0.86038805  1
  O  O71  1  0.75124679  0.63383548  0.85914543  1
  O  O72  1  0.01479520  0.82356106  0.41194828  1
  O  O73  1  0.51543951  0.82634943  0.40852984  1
  O  O74  1  0.40130301  0.95315115  0.40536842  1
  O  O75  1  0.90192576  0.95717325  0.41301246  1
  O  O76  1  0.08072029  0.19112878  0.41448157  1
  O  O77  1  0.58107374  0.19548735  0.40837725  1
  O  O78  1  0.01356578  0.20016178  0.90684481  1
  O  O79  1  0.51389774  0.20535275  0.91102049  1
  O  O80  1  0.08043841  0.96645852  0.90659421  1
  O  O81  1  0.58186063  0.97049201  0.91454772  1
  O  O82  1  0.40192274  0.84473199  0.91197633  1
  O  O83  1  0.90279751  0.84293511  0.90160867  1
  O  O84  1  0.49288864  0.17958492  0.59842845  1
  O  O85  1  0.99543620  0.18037013  0.59009171  1
  O  O86  1  0.10370179  0.02140431  0.59204361  1
  O  O87  1  0.60127719  0.02210946  0.59648411  1
  O  O88  1  0.41856216  0.81310127  0.60247717  1
  O  O89  1  0.91883108  0.81252658  0.59262932  1
  O  O90  1  0.49579681  0.81424760  0.08881961  1
  O  O91  1  0.99308178  0.80696242  0.09714312  1
  O  O92  1  0.41950141  0.02053087  0.08753533  1
  O  O93  1  0.91824454  0.02482426  0.10206724  1
  O  O94  1  0.09926632  0.18169433  0.09509092  1
  O  O95  1  0.60480183  0.18488897  0.08921131  1
  O  O96  1  0.34924887  0.16247311  0.74037966  1
  O  O97  1  0.84945336  0.16647470  0.74418058  1
  O  O98  1  0.24058428  0.29649390  0.74318080  1
  O  O99  1  0.73997779  0.30062822  0.73772446  1
  O  O100  1  0.41719418  0.53140625  0.74171737  1
  O  O101  1  0.91627214  0.53344371  0.74558235  1
  O  O102  1  0.34626128  0.52896388  0.24432599  1
  O  O103  1  0.85106304  0.53766889  0.23996576  1
  O  O104  1  0.41162947  0.30183005  0.24412706  1
  O  O105  1  0.91704791  0.30277661  0.24181889  1
  O  O106  1  0.23744162  0.18013877  0.23698916  1
  O  O107  1  0.74055087  0.19027752  0.24224492  1
  O  O108  1  0.32260459  0.50057382  0.92181572  1
  O  O109  1  0.82822793  0.50629488  0.92209229  1
  O  O110  1  0.43706799  0.36131648  0.92087444  1
  O  O111  1  0.93674531  0.35344375  0.91965942  1
  O  O112  1  0.25073008  0.14510676  0.92067093  1
  O  O113  1  0.75348707  0.14447304  0.92170907  1
  O  O114  1  0.32674504  0.14657543  0.42345632  1
  O  O115  1  0.82393261  0.14408113  0.42314646  1
  O  O116  1  0.25277511  0.36113644  0.42222417  1
  O  O117  1  0.75105436  0.35413722  0.42218111  1
  O  O118  1  0.43813038  0.51834911  0.42160985  1
  O  O119  1  0.93769503  0.51321635  0.42093272  1
  O  O120  1  0.17536810  0.48484148  0.07591352  1
  O  O121  1  0.68450584  0.49370648  0.07672976  1
  O  O122  1  0.06953512  0.62483234  0.07167265  1
  O  O123  1  0.57092806  0.62504242  0.07020101  1
  O  O124  1  0.24877386  0.86031455  0.07471339  1
  O  O125  1  0.75221526  0.85923608  0.07516476  1
  O  O126  1  0.18476595  0.87680400  0.57781366  1
  O  O127  1  0.67925058  0.87349858  0.57930801  1
  O  O128  1  0.25261404  0.64691476  0.57509516  1
  O  O129  1  0.74886413  0.64032499  0.57388060  1
  O  O130  1  0.07073594  0.52017588  0.57158682  1
  O  O131  1  0.56902808  0.51479200  0.57238240  1
  O  O132  1  0.15206053  0.83547918  0.25532792  1
  O  O133  1  0.66262455  0.85299342  0.26024051  1
  O  O134  1  0.27066240  0.68599312  0.25663070  1
  O  O135  1  0.77546787  0.69541098  0.25115169  1
  O  O136  1  0.07126299  0.45640555  0.25515160  1
  O  O137  1  0.58034398  0.47514578  0.26105223  1
  O  O138  1  0.15567684  0.46880058  0.75990940  1
  O  O139  1  0.65355191  0.47076740  0.75502207  1
  O  O140  1  0.07054430  0.68483781  0.75881334  1
  O  O141  1  0.57136669  0.68634586  0.75520233  1
  O  O142  1  0.27356280  0.85420462  0.75192587  1
  O  O143  1  0.77180920  0.85741419  0.75651697  1
loop_
_geom_bond_atom_site_label_1
_geom_bond_atom_site_label_2
_geom_bond_distance
_geom_bond_site_symmetry_2
Na0 O75 2.462013 1_545
Na0 O76 2.523523 1_655
Na0 O85 2.644506 1_555
Na0 O89 2.688494 1_545
Na0 O72 2.740533 1_645
Na0 O86 2.967072 1_655
Na1 O92 2.440189 1_565
Na1 O90 2.456759 1_555
Na1 O82 2.613028 1_554
Na1 O81 2.662092 1_554
Na1 O95 2.814512 1_565
Na1 O79 2.895455 1_564
Na2 O112 2.384143 1_555
Na2 O108 2.428224 1_555
Na2 O98 2.670181 1_555
Na2 O110 2.704168 1_555
Na2 O100 2.877558 1_555
Na2 O96 2.943809 1_555
Na3 O113 2.407801 1_555
Na3 O109 2.477535 1_555
Na3 O111 2.738328 1_555
Na3 O99 2.750544 1_555
Na3 O101 2.798418 1_555
Na3 O97 2.817620 1_555
Na4 O116 2.522570 1_555
Na4 O114 2.577917 1_555
Na4 O104 2.658493 1_555
Na4 O102 2.732917 1_555
Na4 O106 2.738125 1_555
Na4 O118 2.794722 1_555
Na5 O117 2.423812 1_555
Na5 O115 2.501644 1_555
Na5 O107 2.614186 1_555
Na5 O119 2.778057 1_555
Na5 O105 2.853522 1_555
Na5 O103 2.923437 1_555
Nb0 O77 1.882834 1_555
Nb0 O4 1.900033 1_555
Nb0 O74 1.953194 1_545
Nb0 O1 1.955358 1_555
Nb0 O73 2.202287 1_545
Nb0 O2 2.387414 1_545
Nb1 O80 1.854182 1_545
Nb1 O83 1.911463 1_445
Nb1 O6 1.934460 1_555
Nb1 O78 2.028394 1_555
Nb1 O9 2.199385 1_445
Nb1 O11 2.349566 1_455
Nb2 O84 1.854250 1_555
Nb2 O15 1.908501 1_555
Nb2 O88 1.944770 1_545
Nb2 O87 2.027821 1_555
Nb2 O12 2.088444 1_545
Nb2 O17 2.273894 1_545
Nb3 O91 1.862820 1_455
Nb3 O22 1.895056 1_555
Nb3 O93 1.955795 1_465
Nb3 O94 2.030566 1_565
Nb3 O19 2.069821 1_455
Nb3 O20 2.277244 1_565
Nb4 O28 1.851902 1_555
Nb4 O24 1.918277 1_555
Nb4 O98 1.976581 1_555
Nb4 O100 2.100110 1_555
Nb4 O26 2.118516 1_555
Nb4 O96 2.213797 1_555
Nb5 O29 1.852678 1_555
Nb5 O25 1.916011 1_555
Nb5 O99 1.953137 1_555
Nb5 O101 2.116244 1_555
Nb5 O27 2.162389 1_555
Nb5 O97 2.257657 1_555
Nb6 O32 1.888666 1_555
Nb6 O104 1.895760 1_555
Nb6 O30 1.933100 1_555
Nb6 O106 1.975353 1_555
Nb6 O102 2.229174 1_555
Nb6 O34 2.372439 1_555
Nb7 O33 1.858809 1_555
Nb7 O31 1.939684 1_555
Nb7 O107 1.942001 1_555
Nb7 O105 2.098584 1_555
Nb7 O35 2.141306 1_555
Nb7 O103 2.193249 1_555
Nb8 O124 1.864447 1_555
Nb8 O52 1.909138 1_554
Nb8 O48 1.937892 1_554
Nb8 O122 1.954073 1_555
Nb8 O120 2.225539 1_555
Nb8 O50 2.435536 1_554
Nb9 O53 1.883902 1_554
Nb9 O125 1.892311 1_555
Nb9 O123 1.931830 1_555
Nb9 O49 1.980704 1_554
Nb9 O121 2.243423 1_555
Nb9 O51 2.360855 1_554
Nb10 O56 1.871155 1_555
Nb10 O128 1.903180 1_555
Nb10 O54 1.932673 1_555
Nb10 O130 1.967141 1_555
Nb10 O126 2.287343 1_555
Nb10 O58 2.338490 1_555
Nb11 O57 1.871251 1_555
Nb11 O129 1.905171 1_555
Nb11 O55 1.914972 1_555
Nb11 O131 1.977278 1_555
Nb11 O59 2.320095 1_555
Nb11 O127 2.340154 1_555
O0 Si0 1.628066 1_555
O0 Zr0 2.005463 1_555
O1 Si1 1.650867 1_555
O2 S0 1.466311 1_555
O3 S1 1.468751 1_555
O3 Zr0 2.334638 1_665
O4 Si2 1.670580 1_555
O5 S2 1.490944 1_555
O5 Zr0 2.204773 1_655
O6 Si3 1.661666 1_555
O7 Si4 1.621998 1_555
O7 Zr1 2.018672 1_545
O8 S4 1.488271 1_555
O8 Zr1 2.225181 1_555
O9 S3 1.493714 1_555
O10 S5 1.464961 1_555
O10 Zr1 2.375930 1_545
O11 S6 1.470865 1_555
O12 S5 1.493539 1_565
O13 S6 1.486454 1_565
O13 Zr2 2.136660 1_665
O14 Si3 1.609489 1_555
O14 Zr2 1.987217 1_555
O15 Si4 1.656710 1_555
O16 S3 1.464295 1_455
O16 Zr2 2.291886 1_565
O17 S4 1.467682 1_555
O18 S0 1.481535 1_555
O18 Zr3 2.145925 1_555
O19 S1 1.497378 1_555
O20 S2 1.466483 1_455
O21 Si2 1.603189 1_555
O21 Zr3 2.025617 1_545
O22 Si0 1.664211 1_565
O23 Si1 1.608586 1_565
O23 Zr3 1.999642 1_555
O24 Si5 1.663465 1_555
O25 Si6 1.683347 1_555
O26 S7 1.510213 1_555
O27 S8 1.499322 1_555
O28 Si7 1.690933 1_555
O29 Si8 1.700099 1_555
O30 Si9 1.670231 1_555
O31 Si10 1.649207 1_555
O32 Si11 1.666699 1_555
O33 Si12 1.680345 1_555
O34 S9 1.464190 1_555
O35 S10 1.501971 1_555
O36 S9 1.482269 1_555
O36 Zr4 2.187564 1_554
O37 S10 1.484237 1_555
O37 Zr5 2.142287 1_554
O38 Si9 1.625032 1_555
O38 Zr4 1.995399 1_554
O39 Si10 1.599955 1_555
O39 Zr5 2.030870 1_554
O40 Si11 1.603487 1_555
O40 Zr4 2.014006 1_554
O41 Si12 1.597470 1_555
O41 Zr5 2.055453 1_554
O42 S7 1.471014 1_555
O42 Zr6 2.215944 1_555
O43 S8 1.469000 1_555
O43 Zr7 2.218780 1_555
O44 Si7 1.587751 1_555
O44 Zr6 2.074324 1_555
O45 Si8 1.590218 1_555
O45 Zr7 2.047867 1_555
O46 Si5 1.591710 1_555
O46 Zr6 2.046883 1_555
O47 Si6 1.602450 1_555
O47 Zr7 2.027232 1_555
O48 Si13 1.658863 1_555
O49 Si14 1.643638 1_555
O50 S11 1.454745 1_555
O51 S12 1.465144 1_555
O52 Si15 1.661620 1_555
O53 Si16 1.673082 1_555
O54 Si17 1.664895 1_555
O55 Si18 1.677687 1_555
O56 Si19 1.691743 1_555
O57 Si20 1.685692 1_555
O58 S13 1.470009 1_555
O59 S14 1.477116 1_555
O60 S13 1.476048 1_555
O60 Zr8 2.181589 1_555
O61 S14 1.471664 1_555
O61 Zr9 2.199237 1_555
O62 Si17 1.633296 1_555
O62 Zr8 1.962562 1_555
O63 Si18 1.600837 1_555
O63 Zr9 2.039482 1_555
O64 Si19 1.610236 1_555
O64 Zr8 2.057017 1_555
O65 Si20 1.588405 1_555
O65 Zr9 2.067114 1_555
O66 S11 1.474988 1_555
O66 Zr10 2.202148 1_555
O67 S12 1.484627 1_555
O67 Zr11 2.164052 1_555
O68 Si15 1.606404 1_555
O68 Zr10 2.029579 1_555
O69 Si16 1.616917 1_555
O69 Zr11 2.041853 1_555
O70 Si13 1.637498 1_555
O70 Zr10 1.945513 1_555
O71 Si14 1.634506 1_555
O71 Zr11 1.961844 1_555
O72 S13 1.495900 1_555
O72 Zr0 2.200242 1_565
O73 S14 1.479096 1_555
O74 Si17 1.643369 1_555
O75 Si18 1.643077 1_555
O75 Zr0 2.054501 1_665
O76 Si19 1.649671 1_555
O76 Zr0 2.001852 1_555
O77 Si20 1.664067 1_555
O78 S11 1.519743 1_555
O79 S12 1.498188 1_555
O79 Zr1 2.169842 1_545
O80 Si15 1.694892 1_555
O81 Si16 1.650835 1_555
O81 Zr1 1.981562 1_555
O82 Si13 1.634537 1_555
O82 Zr1 2.044423 1_555
O83 Si14 1.672431 1_555
O84 Si5 1.682198 1_555
O85 Si6 1.639787 1_555
O85 Zr2 1.983489 1_655
O86 S7 1.487694 1_555
O86 Zr2 2.158904 1_555
O87 S8 1.510415 1_555
O88 Si7 1.633779 1_555
O89 Si8 1.609183 1_555
O89 Zr2 2.062460 1_665
O90 Si9 1.616366 1_555
O90 Zr3 2.089940 1_555
O91 Si10 1.673172 1_555
O92 Si11 1.600598 1_555
O92 Zr3 2.118116 1_545
O93 Si12 1.626202 1_555
O94 S9 1.517301 1_555
O95 S10 1.473202 1_555
O95 Zr3 2.211432 1_545
O96 S5 1.490312 1_555
O97 S6 1.496590 1_555
O98 Si3 1.676845 1_555
O99 Si4 1.673198 1_555
O100 S4 1.529435 1_555
O101 S3 1.534274 1_555
O102 S0 1.492615 1_555
O103 S1 1.493216 1_555
O104 Si2 1.692204 1_555
O105 S2 1.529621 1_555
O106 Si0 1.648307 1_555
O107 Si1 1.705357 1_555
O108 Si13 1.618003 1_555
O108 Zr4 2.079229 1_555
O109 Si14 1.620675 1_555
O109 Zr5 2.080937 1_555
O110 S12 1.486310 1_555
O110 Zr4 2.236409 1_555
O111 S11 1.483257 1_655
O111 Zr5 2.204007 1_555
O112 Si15 1.601909 1_545
O112 Zr4 2.135780 1_555
O113 Si16 1.619626 1_545
O113 Zr5 2.098466 1_555
O114 Si17 1.624993 1_545
O114 Zr6 2.055629 1_555
O115 Si18 1.631904 1_545
O115 Zr7 2.037598 1_555
O116 Si19 1.620079 1_555
O116 Zr6 2.082468 1_555
O117 Si20 1.613491 1_555
O117 Zr7 2.071162 1_555
O118 S14 1.503833 1_555
O118 Zr6 2.135424 1_555
O119 S13 1.490737 1_655
O119 Zr7 2.199906 1_555
O120 S9 1.471776 1_555
O121 S10 1.467467 1_555
O122 Si10 1.627789 1_455
O123 Si9 1.666190 1_555
O124 Si11 1.677624 1_565
O125 Si12 1.646048 1_565
O126 S7 1.462308 1_565
O127 S8 1.455871 1_565
O128 Si7 1.643128 1_555
O129 Si8 1.648476 1_555
O130 Si6 1.637317 1_455
O131 Si5 1.620314 1_555
O132 Si0 1.615478 1_565
O132 Zr8 2.049314 1_555
O133 Si1 1.597220 1_565
O133 Zr9 2.017590 1_555
O134 S0 1.489801 1_555
O134 Zr8 2.128286 1_555
O135 S1 1.465109 1_555
O135 Zr9 2.212415 1_555
O136 S2 1.461183 1_455
O136 Zr8 2.322754 1_555
O137 Si2 1.592037 1_555
O137 Zr9 2.042680 1_555
O138 Si3 1.606005 1_555
O138 Zr10 2.021084 1_555
O139 Si4 1.610693 1_555
O139 Zr11 2.057427 1_555
O140 S3 1.461794 1_455
O140 Zr10 2.314475 1_555
O141 S4 1.463025 1_555
O141 Zr11 2.319189 1_555
O142 S5 1.481212 1_565
O142 Zr10 2.182085 1_555
O143 S6 1.479938 1_565
O143 Zr11 2.162900 1_555
