# generated using pymatgen
data_Na3Sc2Ge2P5SO24
_symmetry_space_group_name_H-M   'P 1'
_cell_length_a   8.63976624
_cell_length_b   8.61908676
_cell_length_c   22.21032331
_cell_angle_alpha   90.30237793
_cell_angle_beta   90.02699244
_cell_angle_gamma   119.63862114
_symmetry_Int_Tables_number   1
_chemical_formula_structural   Na3Sc2Ge2P5SO24
_chemical_formula_sum   'Na9 Sc6 Ge6 P15 S3 O72'
_cell_volume   1437.50700706
_cell_formula_units_Z   3
loop_
 _symmetry_equiv_pos_site_id
 _symmetry_equiv_pos_as_xyz
  1  'x, y, z'
loop_
 _atom_site_type_symbol
 _atom_site_label
 _atom_site_symmetry_multiplicity
 _atom_site_fract_x
 _atom_site_fract_y
 _atom_site_fract_z
 _atom_site_occupancy
  Na  Na0  1  0.00323679  0.36451117  0.75031097  1
  Na  Na1  1  0.66828257  0.96247730  0.58340577  1
  Na  Na2  1  0.03892126  0.33261867  0.08339074  1
  Na  Na3  1  0.00662431  0.99707408  0.49928749  1
  Na  Na4  1  0.00327009  0.99400764  0.99884172  1
  Na  Na5  1  0.65902714  0.32924084  0.83447334  1
  Na  Na6  1  0.67249596  0.33498989  0.33345015  1
  Na  Na7  1  0.34272507  0.67085865  0.16763639  1
  Na  Na8  1  0.33413942  0.66685299  0.66700845  1
  Sc  Sc0  1  0.00660714  0.99820132  0.64472207  1
  Sc  Sc1  1  0.99576767  0.99418711  0.14493182  1
  Sc  Sc2  1  0.33261388  0.67228173  0.01891166  1
  Sc  Sc3  1  0.32649448  0.66828235  0.51881985  1
  Sc  Sc4  1  0.33034492  0.66649880  0.31569922  1
  Sc  Sc5  1  0.33443440  0.67508605  0.81633989  1
  Ge  Ge0  1  0.97689049  0.98587535  0.35031169  1
  Ge  Ge1  1  0.01204339  0.00926393  0.84903109  1
  Ge  Ge2  1  0.66253353  0.33535161  0.68646363  1
  Ge  Ge3  1  0.67589257  0.34215261  0.18539604  1
  Ge  Ge4  1  0.66521492  0.32500222  0.98189597  1
  Ge  Ge5  1  0.67459563  0.33489461  0.48166545  1
  P  P0  1  0.70816990  0.70250627  0.24873673  1
  P  P1  1  0.99325230  0.28687069  0.24933215  1
  P  P2  1  0.29736116  0.28913124  0.74953384  1
  P  P3  1  0.99244326  0.70820791  0.75045914  1
  P  P4  1  0.71030740  0.00160337  0.74879976  1
  P  P5  1  0.95109979  0.33798920  0.58475848  1
  P  P6  1  0.38836886  0.05846849  0.58211872  1
  P  P7  1  0.66432205  0.61083127  0.58273534  1
  P  P8  1  0.94491167  0.61418280  0.08165544  1
  P  P9  1  0.66180763  0.05050844  0.08474851  1
  P  P10  1  0.39007678  0.33438656  0.08356416  1
  P  P11  1  0.02917299  0.36270887  0.91664702  1
  P  P12  1  0.33270863  0.97086684  0.91710172  1
  P  P13  1  0.63276448  0.96917246  0.41774356  1
  P  P14  1  0.02994422  0.66786911  0.41602033  1
  S  S0  1  0.29387817  0.00749489  0.25062106  1
  S  S1  1  0.63574676  0.66755224  0.91680955  1
  S  S2  1  0.33219387  0.36372655  0.41638478  1
  O  O0  1  0.21082286  0.03684736  0.30545972  1
  O  O1  1  0.82777456  0.78408730  0.30655812  1
  O  O2  1  0.96227388  0.16563834  0.30599605  1
  O  O3  1  0.21426252  0.17159300  0.80674886  1
  O  O4  1  0.96099577  0.79490188  0.80767597  1
  O  O5  1  0.83799337  0.04341116  0.80471595  1
  O  O6  1  0.78975294  0.97456736  0.69125123  1
  O  O7  1  0.17667860  0.20950294  0.69504020  1
  O  O8  1  0.02624969  0.81915231  0.69461140  1
  O  O9  1  0.79428828  0.81735315  0.19432197  1
  O  O10  1  0.02494616  0.20927324  0.19200583  1
  O  O11  1  0.18648460  0.97762265  0.19627299  1
  O  O12  1  0.86724335  0.36570845  0.64336552  1
  O  O13  1  0.50749784  0.13764397  0.63973446  1
  O  O14  1  0.63436557  0.49888672  0.64052490  1
  O  O15  1  0.86811565  0.49631669  0.13916187  1
  O  O16  1  0.63345458  0.13773729  0.14190260  1
  O  O17  1  0.50370411  0.36532177  0.14136298  1
  O  O18  1  0.47299141  0.30380813  0.02612722  1
  O  O19  1  0.82927673  0.52680822  0.02514832  1
  O  O20  1  0.70224373  0.16919094  0.02773122  1
  O  O21  1  0.47454548  0.17105804  0.52530810  1
  O  O22  1  0.69524314  0.52678414  0.52559474  1
  O  O23  1  0.83054370  0.29880072  0.52822738  1
  O  O24  1  0.55579556  0.69889783  0.97067937  1
  O  O25  1  0.14375269  0.44119954  0.97335797  1
  O  O26  1  0.29845962  0.85472946  0.97250954  1
  O  O27  1  0.55928773  0.85745152  0.47478303  1
  O  O28  1  0.30053085  0.44333356  0.47047244  1
  O  O29  1  0.14547958  0.70374407  0.47213993  1
  O  O30  1  0.11041202  0.62998269  0.36084878  1
  O  O31  1  0.51712188  0.88501336  0.36246378  1
  O  O32  1  0.36443469  0.47528660  0.36295069  1
  O  O33  1  0.10962814  0.47603787  0.86040222  1
  O  O34  1  0.37127290  0.89207153  0.86137829  1
  O  O35  1  0.52439307  0.63492063  0.86297299  1
  O  O36  1  0.01703710  0.84234073  0.40690648  1
  O  O37  1  0.82284993  0.98883897  0.40896313  1
  O  O38  1  0.17057368  0.18460720  0.40846005  1
  O  O39  1  0.01072788  0.17322982  0.90765599  1
  O  O40  1  0.15990409  0.98416096  0.90792472  1
  O  O41  1  0.81352520  0.82963870  0.90965766  1
  O  O42  1  0.96280723  0.16648246  0.58760603  1
  O  O43  1  0.20423957  0.03845782  0.58569272  1
  O  O44  1  0.82854949  0.79820480  0.58622008  1
  O  O45  1  0.96529811  0.79864411  0.08597291  1
  O  O46  1  0.83304502  0.03812228  0.08791481  1
  O  O47  1  0.20285288  0.17006794  0.08743020  1
  O  O48  1  0.69873438  0.17831178  0.74408262  1
  O  O49  1  0.48319050  0.30459922  0.74290670  1
  O  O50  1  0.82404187  0.51690582  0.74447342  1
  O  O51  1  0.69261443  0.51373041  0.24289652  1
  O  O52  1  0.81986590  0.30218025  0.24370923  1
  O  O53  1  0.47293337  0.16943790  0.24551978  1
  O  O54  1  0.65219404  0.50390018  0.92345659  1
  O  O55  1  0.84193492  0.34728333  0.92489595  1
  O  O56  1  0.50172558  0.15910370  0.92534690  1
  O  O57  1  0.65142761  0.15824135  0.42521120  1
  O  O58  1  0.49533476  0.34718926  0.42326296  1
  O  O59  1  0.84199341  0.49926944  0.42480138  1
  O  O60  1  0.36583943  0.49924996  0.07883341  1
  O  O61  1  0.12852854  0.62637771  0.07784448  1
  O  O62  1  0.49824288  0.86681854  0.07936975  1
  O  O63  1  0.37490150  0.87336455  0.57848840  1
  O  O64  1  0.49955946  0.63434480  0.57827666  1
  O  O65  1  0.13385310  0.50255991  0.57941663  1
  O  O66  1  0.31354979  0.84740416  0.25625979  1
  O  O67  1  0.52458595  0.68297980  0.25731091  1
  O  O68  1  0.15564331  0.47184858  0.25770526  1
  O  O69  1  0.31403212  0.47315165  0.75842956  1
  O  O70  1  0.15236046  0.67724878  0.75727203  1
  O  O71  1  0.52713371  0.83989860  0.75692079  1
loop_
_geom_bond_atom_site_label_1
_geom_bond_atom_site_label_2
_geom_bond_distance
_geom_bond_site_symmetry_2
Na0 O48 2.310279 1_455
Na0 O70 2.347379 1_555
Na0 O69 2.372873 1_555
Na0 O50 2.480312 1_455
Na0 O33 2.616661 1_555
Na0 O12 2.651840 1_455
Na0 O5 2.699420 1_455
Na0 O7 2.738973 1_555
Na1 O63 2.258337 1_555
Na1 O42 2.268980 1_565
Na1 O44 2.421951 1_555
Na1 O64 2.460791 1_555
Na1 O27 2.580366 1_555
Na1 O6 2.595471 1_555
Na1 O13 2.798282 1_565
Na1 O23 2.808924 1_565
Na2 O61 2.256076 1_555
Na2 O46 2.270292 1_455
Na2 O47 2.437371 1_555
Na2 O60 2.457713 1_555
Na2 O25 2.618495 1_554
Na2 O10 2.620068 1_555
Na2 O15 2.783066 1_455
Na2 O20 2.810571 1_455
Na3 O36 2.467111 1_555
Na3 O43 2.472353 1_565
Na3 O37 2.536660 1_455
Na3 O38 2.541889 1_565
Na3 O44 2.542153 1_455
Na3 O42 2.576885 1_465
Na3 O29 3.343535 1_555
Na4 O40 2.455706 1_555
Na4 O45 2.485289 1_456
Na4 O41 2.507666 1_455
Na4 O39 2.535102 1_565
Na4 O47 2.554359 1_566
Na4 O46 2.601782 1_466
Na4 O26 3.362973 1_555
Na5 O56 2.476645 1_555
Na5 O49 2.482434 1_555
Na5 O54 2.496454 1_555
Na5 O48 2.500984 1_555
Na5 O55 2.511066 1_555
Na5 O50 2.529942 1_555
Na5 O34 3.390532 1_545
Na6 O52 2.454877 1_555
Na6 O59 2.486372 1_555
Na6 O51 2.493353 1_555
Na6 O57 2.503275 1_555
Na6 O53 2.521310 1_555
Na6 O58 2.548106 1_555
Na6 O30 3.408339 1_655
Na7 O67 2.505806 1_555
Na7 O62 2.508830 1_555
Na7 O60 2.525770 1_555
Na7 O66 2.569363 1_555
Na7 O61 2.614521 1_555
Na7 O68 2.617961 1_555
Na8 O65 2.515656 1_555
Na8 O64 2.529404 1_555
Na8 O71 2.549213 1_555
Na8 O63 2.564216 1_555
Na8 O70 2.575654 1_555
Na8 O69 2.586437 1_555
Ge0 O1 1.842246 1_555
Ge0 O37 1.871825 1_555
Ge0 O2 1.896007 1_565
Ge0 O36 1.916052 1_655
Ge0 O0 2.097284 1_665
Ge0 O38 2.131152 1_665
Ge1 O3 1.868057 1_555
Ge1 O4 1.904621 1_445
Ge1 O40 1.914301 1_545
Ge1 O39 1.920742 1_555
Ge1 O5 1.938052 1_455
Ge1 O41 2.132997 1_445
Ge2 O14 1.855059 1_555
Ge2 O13 1.870198 1_555
Ge2 O49 1.908361 1_555
Ge2 O12 1.912951 1_555
Ge2 O50 1.968046 1_555
Ge2 O48 2.001058 1_555
Ge3 O15 1.847054 1_555
Ge3 O17 1.871902 1_555
Ge3 O16 1.874718 1_555
Ge3 O51 1.899322 1_555
Ge3 O52 1.941766 1_555
Ge3 O53 2.124968 1_555
Ge4 O20 1.838826 1_556
Ge4 O18 1.860102 1_556
Ge4 O19 1.870841 1_556
Ge4 O56 1.897100 1_555
Ge4 O55 1.919679 1_555
Ge4 O54 2.065786 1_555
Ge5 O23 1.843441 1_555
Ge5 O22 1.846673 1_555
Ge5 O21 1.876973 1_555
Ge5 O57 1.899659 1_555
Ge5 O59 1.920423 1_555
Ge5 O58 2.062614 1_555
O0 S0 1.496508 1_555
O1 P0 1.575457 1_555
O2 P1 1.576372 1_555
O3 P2 1.565785 1_555
O4 P3 1.561476 1_555
O5 P4 1.577979 1_555
O6 P4 1.521524 1_565
O6 Sc0 2.060656 1_655
O7 P2 1.518336 1_555
O7 Sc0 2.013732 1_545
O8 P3 1.508279 1_455
O8 Sc0 1.978657 1_555
O9 P0 1.509675 1_555
O9 Sc1 1.987932 1_555
O10 P1 1.521811 1_455
O10 Sc1 2.027434 1_445
O11 S0 1.464121 1_565
O11 Sc1 2.066006 1_455
O12 P5 1.563701 1_555
O13 P6 1.567621 1_555
O14 P7 1.552988 1_555
O15 P8 1.565706 1_555
O16 P9 1.552108 1_555
O17 P10 1.555354 1_555
O18 P10 1.547282 1_555
O19 P8 1.544373 1_555
O20 P9 1.559736 1_555
O21 P6 1.545106 1_555
O22 P7 1.545576 1_555
O23 P5 1.556202 1_555
O24 S1 1.470925 1_555
O24 Sc2 2.117863 1_556
O25 P11 1.533500 1_555
O25 Sc2 2.101410 1_556
O26 P12 1.524593 1_555
O26 Sc2 2.024316 1_556
O27 P13 1.531084 1_555
O27 Sc3 2.106072 1_555
O28 S2 1.471738 1_555
O28 Sc3 2.123718 1_555
O29 P14 1.528102 1_555
O29 Sc3 2.022075 1_555
O30 P14 1.520735 1_555
O30 Sc4 2.031970 1_555
O31 P13 1.518059 1_555
O31 Sc4 2.049836 1_555
O32 S2 1.469039 1_555
O32 Sc4 2.098175 1_555
O33 P11 1.529703 1_555
O33 Sc5 2.096969 1_555
O34 P12 1.522929 1_555
O34 Sc5 1.997716 1_555
O35 S1 1.470438 1_555
O35 Sc5 2.109564 1_555
O36 P14 1.576018 1_555
O37 P13 1.577723 1_555
O38 S2 1.492980 1_555
O39 P11 1.572109 1_555
O40 P12 1.566159 1_555
O41 S1 1.488754 1_555
O42 P5 1.532405 1_555
O42 Sc0 2.101914 1_645
O43 P6 1.515154 1_555
O43 Sc0 2.043467 1_545
O44 P7 1.536095 1_555
O44 Sc0 2.092371 1_655
O45 P8 1.513066 1_555
O45 Sc1 2.040151 1_555
O46 P9 1.536656 1_555
O46 Sc1 2.062410 1_545
O47 P10 1.537955 1_555
O47 Sc1 2.114296 1_445
O48 P4 1.578923 1_555
O49 P2 1.551085 1_555
O50 P3 1.574173 1_555
O51 P0 1.569630 1_555
O52 P1 1.572441 1_555
O53 S0 1.490121 1_555
O54 S1 1.493991 1_555
O55 P11 1.567158 1_655
O56 P12 1.565744 1_545
O57 P13 1.564079 1_545
O58 S2 1.493009 1_555
O59 P14 1.567170 1_655
O60 P10 1.539451 1_555
O60 Sc2 2.126469 1_555
O61 P8 1.539545 1_455
O61 Sc2 2.072799 1_555
O62 P9 1.517531 1_565
O62 Sc2 2.064838 1_555
O63 P6 1.542873 1_565
O63 Sc3 2.073472 1_555
O64 P7 1.537101 1_555
O64 Sc3 2.121315 1_555
O65 P5 1.518537 1_455
O65 Sc3 2.071919 1_555
O66 S0 1.477251 1_565
O66 Sc4 2.107238 1_555
O67 P0 1.522161 1_555
O67 Sc4 2.070384 1_555
O68 P1 1.526167 1_455
O68 Sc4 2.054949 1_555
O69 P2 1.531722 1_555
O69 Sc5 2.094618 1_555
O70 P3 1.538805 1_455
O70 Sc5 2.055081 1_555
O71 P4 1.516894 1_565
O71 Sc5 2.052830 1_555
