# generated using pymatgen
data_La5MgCu4P4(ClO2)2
_symmetry_space_group_name_H-M   'P 1'
_cell_length_a   8.06414690
_cell_length_b   8.06414690
_cell_length_c   49.01786061
_cell_angle_alpha   94.71831994
_cell_angle_beta   94.71831994
_cell_angle_gamma   90.00000000
_symmetry_Int_Tables_number   1
_chemical_formula_structural   La5MgCu4P4(ClO2)2
_chemical_formula_sum   'La40 Mg8 Cu32 P32 Cl16 O32'
_cell_volume   3166.01237182
_cell_formula_units_Z   8
loop_
 _symmetry_equiv_pos_site_id
 _symmetry_equiv_pos_as_xyz
  1  'x, y, z'
loop_
 _atom_site_type_symbol
 _atom_site_label
 _atom_site_symmetry_multiplicity
 _atom_site_fract_x
 _atom_site_fract_y
 _atom_site_fract_z
 _atom_site_occupancy
  La  La0_0  1  0.30614733  0.30614733  0.11229466  1
  La  La0_1  1  0.30614733  0.30614733  0.61229466  1
  La  La0_2  1  0.30614733  0.80614733  0.11229466  1
  La  La0_3  1  0.30614733  0.80614733  0.61229466  1
  La  La0_4  1  0.80614733  0.30614733  0.11229466  1
  La  La0_5  1  0.80614733  0.30614733  0.61229466  1
  La  La0_6  1  0.80614733  0.80614733  0.11229466  1
  La  La0_7  1  0.80614733  0.80614733  0.61229466  1
  La  La1_0  1  0.19385267  0.19385267  0.38770534  1
  La  La1_1  1  0.19385267  0.19385267  0.88770534  1
  La  La1_2  1  0.19385267  0.69385267  0.38770534  1
  La  La1_3  1  0.19385267  0.69385267  0.88770534  1
  La  La1_4  1  0.69385267  0.19385267  0.38770534  1
  La  La1_5  1  0.69385267  0.19385267  0.88770534  1
  La  La1_6  1  0.69385267  0.69385267  0.38770534  1
  La  La1_7  1  0.69385267  0.69385267  0.88770534  1
  La  La2_0  1  0.08171825  0.08171825  0.16343650  1
  La  La2_1  1  0.08171825  0.08171825  0.66343650  1
  La  La2_2  1  0.08171825  0.58171825  0.16343650  1
  La  La2_3  1  0.08171825  0.58171825  0.66343650  1
  La  La2_4  1  0.58171825  0.08171825  0.16343650  1
  La  La2_5  1  0.58171825  0.08171825  0.66343650  1
  La  La2_6  1  0.58171825  0.58171825  0.16343650  1
  La  La2_7  1  0.58171825  0.58171825  0.66343650  1
  La  La3_0  1  0.41828176  0.41828176  0.33656351  1
  La  La3_1  1  0.41828176  0.41828176  0.83656351  1
  La  La3_2  1  0.41828176  0.91828176  0.33656351  1
  La  La3_3  1  0.41828176  0.91828176  0.83656351  1
  La  La3_4  1  0.91828176  0.41828176  0.33656351  1
  La  La3_5  1  0.91828176  0.41828176  0.83656351  1
  La  La3_6  1  0.91828176  0.91828176  0.33656351  1
  La  La3_7  1  0.91828175  0.91828176  0.83656351  1
  La  La4_0  1  0.00000000  0.00000000  0.00000000  1
  La  La4_1  1  0.00000000  0.00000000  0.50000000  1
  La  La4_2  1  0.00000000  0.50000000  0.00000000  1
  La  La4_3  1  0.00000000  0.50000000  0.50000000  1
  La  La4_4  1  0.50000000  0.00000000  0.00000000  1
  La  La4_5  1  0.50000000  0.00000000  0.50000000  1
  La  La4_6  1  0.50000000  0.50000000  0.00000000  1
  La  La4_7  1  0.50000000  0.50000000  0.50000000  1
  Mg  Mg0_0  1  0.12500000  0.37500000  0.25000000  1
  Mg  Mg0_1  1  0.12500000  0.37500000  0.75000000  1
  Mg  Mg0_2  1  0.12500000  0.87500000  0.25000000  1
  Mg  Mg0_3  1  0.12500000  0.87500000  0.75000000  1
  Mg  Mg0_4  1  0.62500000  0.37500000  0.25000000  1
  Mg  Mg0_5  1  0.62500000  0.37500000  0.75000000  1
  Mg  Mg0_6  1  0.62500000  0.87500000  0.25000000  1
  Mg  Mg0_7  1  0.62500000  0.87500000  0.75000000  1
  Cu  Cu0_0  1  0.02622030  0.27622030  0.05244110  1
  Cu  Cu0_1  1  0.02622030  0.27622030  0.55244110  1
  Cu  Cu0_2  1  0.02622030  0.77622030  0.05244110  1
  Cu  Cu0_3  1  0.02622030  0.77622030  0.55244110  1
  Cu  Cu0_4  1  0.52622030  0.27622030  0.05244110  1
  Cu  Cu0_5  1  0.52622030  0.27622030  0.55244110  1
  Cu  Cu0_6  1  0.52622030  0.77622030  0.05244110  1
  Cu  Cu0_7  1  0.52622030  0.77622030  0.55244110  1
  Cu  Cu1_0  1  0.27620939  0.02620939  0.05241928  1
  Cu  Cu1_1  1  0.27620939  0.02620939  0.55241928  1
  Cu  Cu1_2  1  0.27620939  0.52620939  0.05241928  1
  Cu  Cu1_3  1  0.27620939  0.52620939  0.55241928  1
  Cu  Cu1_4  1  0.77620939  0.02620939  0.05241928  1
  Cu  Cu1_5  1  0.77620939  0.02620939  0.55241928  1
  Cu  Cu1_6  1  0.77620939  0.52620939  0.05241928  1
  Cu  Cu1_7  1  0.77620939  0.52620939  0.55241928  1
  Cu  Cu2_0  1  0.47379061  0.22379061  0.44758072  1
  Cu  Cu2_1  1  0.47379061  0.22379061  0.94758072  1
  Cu  Cu2_2  1  0.47379061  0.72379061  0.44758072  1
  Cu  Cu2_3  1  0.47379061  0.72379061  0.94758072  1
  Cu  Cu2_4  1  0.97379061  0.22379061  0.44758072  1
  Cu  Cu2_5  1  0.97379061  0.22379061  0.94758072  1
  Cu  Cu2_6  1  0.97379061  0.72379061  0.44758072  1
  Cu  Cu2_7  1  0.97379061  0.72379061  0.94758072  1
  Cu  Cu3_0  1  0.22377970  0.47377970  0.44755890  1
  Cu  Cu3_1  1  0.22377970  0.47377970  0.94755890  1
  Cu  Cu3_2  1  0.22377970  0.97377970  0.44755890  1
  Cu  Cu3_3  1  0.22377970  0.97377970  0.94755890  1
  Cu  Cu3_4  1  0.72377970  0.47377970  0.44755890  1
  Cu  Cu3_5  1  0.72377970  0.47377970  0.94755890  1
  Cu  Cu3_6  1  0.72377970  0.97377970  0.44755890  1
  Cu  Cu3_7  1  0.72377970  0.97377970  0.94755890  1
  P  P0_0  1  0.26164582  0.26164582  0.02329164  1
  P  P0_1  1  0.26164582  0.26164582  0.52329164  1
  P  P0_2  1  0.26164582  0.76164582  0.02329164  1
  P  P0_3  1  0.26164582  0.76164582  0.52329164  1
  P  P0_4  1  0.76164582  0.26164582  0.02329164  1
  P  P0_5  1  0.76164582  0.26164582  0.52329164  1
  P  P0_6  1  0.76164582  0.76164582  0.02329164  1
  P  P0_7  1  0.76164582  0.76164582  0.52329164  1
  P  P1_0  1  0.23835418  0.23835418  0.47670836  1
  P  P1_1  1  0.23835418  0.23835418  0.97670836  1
  P  P1_2  1  0.23835418  0.73835418  0.47670836  1
  P  P1_3  1  0.23835418  0.73835418  0.97670836  1
  P  P1_4  1  0.73835418  0.23835418  0.47670836  1
  P  P1_5  1  0.73835418  0.23835418  0.97670836  1
  P  P1_6  1  0.73835418  0.73835418  0.47670836  1
  P  P1_7  1  0.73835418  0.73835418  0.97670836  1
  P  P2_0  1  0.03869695  0.03869695  0.07739289  1
  P  P2_1  1  0.03869695  0.03869695  0.57739289  1
  P  P2_2  1  0.03869695  0.53869695  0.07739289  1
  P  P2_3  1  0.03869695  0.53869695  0.57739289  1
  P  P2_4  1  0.53869695  0.03869695  0.07739289  1
  P  P2_5  1  0.53869695  0.03869695  0.57739289  1
  P  P2_6  1  0.53869694  0.53869694  0.07739289  1
  P  P2_7  1  0.53869695  0.53869695  0.57739289  1
  P  P3_0  1  0.46130306  0.46130306  0.42260711  1
  P  P3_1  1  0.46130306  0.46130306  0.92260711  1
  P  P3_2  1  0.46130306  0.96130306  0.42260711  1
  P  P3_3  1  0.46130306  0.96130306  0.92260711  1
  P  P3_4  1  0.96130306  0.46130306  0.42260711  1
  P  P3_5  1  0.96130306  0.46130306  0.92260711  1
  P  P3_6  1  0.96130305  0.96130305  0.42260711  1
  P  P3_7  1  0.96130306  0.96130306  0.92260711  1
  Cl  Cl0_0  1  0.34819471  0.34819471  0.19638991  1
  Cl  Cl0_1  1  0.34819471  0.34819471  0.69638991  1
  Cl  Cl0_2  1  0.34819471  0.84819471  0.19638991  1
  Cl  Cl0_3  1  0.34819470  0.84819471  0.69638990  1
  Cl  Cl0_4  1  0.84819471  0.34819471  0.19638991  1
  Cl  Cl0_5  1  0.84819471  0.34819470  0.69638990  1
  Cl  Cl0_6  1  0.84819471  0.84819470  0.19638991  1
  Cl  Cl0_7  1  0.84819471  0.84819471  0.69638991  1
  Cl  Cl1_0  1  0.15180530  0.15180530  0.30361010  1
  Cl  Cl1_1  1  0.15180530  0.15180530  0.80361010  1
  Cl  Cl1_2  1  0.15180530  0.65180530  0.30361010  1
  Cl  Cl1_3  1  0.15180530  0.65180530  0.80361010  1
  Cl  Cl1_4  1  0.65180530  0.15180530  0.30361010  1
  Cl  Cl1_5  1  0.65180530  0.15180530  0.80361010  1
  Cl  Cl1_6  1  0.65180529  0.65180529  0.30361010  1
  Cl  Cl1_7  1  0.65180530  0.65180530  0.80361010  1
  O  O0_0  1  0.31962465  0.06962465  0.13924980  1
  O  O0_1  1  0.31962465  0.06962465  0.63924980  1
  O  O0_2  1  0.31962465  0.56962465  0.13924980  1
  O  O0_3  1  0.31962465  0.56962465  0.63924980  1
  O  O0_4  1  0.81962465  0.06962465  0.13924980  1
  O  O0_5  1  0.81962465  0.06962465  0.63924980  1
  O  O0_6  1  0.81962465  0.56962465  0.13924980  1
  O  O0_7  1  0.81962465  0.56962465  0.63924980  1
  O  O1_0  1  0.06961809  0.31961808  0.13923668  1
  O  O1_1  1  0.06961809  0.31961808  0.63923668  1
  O  O1_2  1  0.06961809  0.81961808  0.13923668  1
  O  O1_3  1  0.06961808  0.81961808  0.63923668  1
  O  O1_4  1  0.56961808  0.31961808  0.13923668  1
  O  O1_5  1  0.56961808  0.31961808  0.63923668  1
  O  O1_6  1  0.56961808  0.81961808  0.13923668  1
  O  O1_7  1  0.56961808  0.81961808  0.63923668  1
  O  O2_0  1  0.18038192  0.43038192  0.36076333  1
  O  O2_1  1  0.18038192  0.43038192  0.86076333  1
  O  O2_2  1  0.18038192  0.93038192  0.36076333  1
  O  O2_3  1  0.18038192  0.93038192  0.86076333  1
  O  O2_4  1  0.68038192  0.43038192  0.36076333  1
  O  O2_5  1  0.68038192  0.43038192  0.86076333  1
  O  O2_6  1  0.68038192  0.93038192  0.36076333  1
  O  O2_7  1  0.68038192  0.93038192  0.86076333  1
  O  O3_0  1  0.43037535  0.18037535  0.36075020  1
  O  O3_1  1  0.43037535  0.18037535  0.86075020  1
  O  O3_2  1  0.43037535  0.68037535  0.36075020  1
  O  O3_3  1  0.43037535  0.68037535  0.86075020  1
  O  O3_4  1  0.93037535  0.18037535  0.36075020  1
  O  O3_5  1  0.93037535  0.18037535  0.86075020  1
  O  O3_6  1  0.93037535  0.68037535  0.36075020  1
  O  O3_7  1  0.93037535  0.68037535  0.86075020  1
loop_
_geom_bond_atom_site_label_1
_geom_bond_atom_site_label_2
_geom_bond_distance
_geom_bond_site_symmetry_2
La0_0 O1_4 2.405179 1_555
La0_0 O1_0 2.405182 1_555
La0_0 O0_2 2.405527 1_555
La0_0 O0_0 2.405530 1_555
La0_0 P2_0 3.319042 1_555
La0_0 P2_2 3.319047 1_555
La0_0 P2_4 3.319047 1_555
La0_0 P2_6 3.319052 1_555
La0_1 O1_5 2.405179 1_555
La0_1 O1_1 2.405182 1_555
La0_1 O0_3 2.405527 1_555
La0_1 O0_1 2.405530 1_555
La0_1 P2_1 3.319042 1_555
La0_1 P2_3 3.319047 1_555
La0_1 P2_5 3.319047 1_555
La0_1 P2_7 3.319052 1_555
La0_2 O1_6 2.405179 1_555
La0_2 O1_2 2.405182 1_555
La0_2 O0_0 2.405527 1_565
La0_2 O0_2 2.405530 1_555
La0_2 P2_2 3.319042 1_555
La0_2 P2_6 3.319047 1_555
La0_2 P2_0 3.319047 1_565
La0_2 P2_4 3.319052 1_565
La0_3 O1_7 2.405179 1_555
La0_3 O1_3 2.405182 1_555
La0_3 O0_1 2.405527 1_565
La0_3 O0_3 2.405530 1_555
La0_3 P2_3 3.319042 1_555
La0_3 P2_7 3.319047 1_555
La0_3 P2_1 3.319047 1_565
La0_3 P2_5 3.319052 1_565
La0_4 O1_0 2.405179 1_655
La0_4 O1_4 2.405182 1_555
La0_4 O0_6 2.405527 1_555
La0_4 O0_4 2.405530 1_555
La0_4 P2_4 3.319042 1_555
La0_4 P2_6 3.319047 1_555
La0_4 P2_0 3.319047 1_655
La0_4 P2_2 3.319052 1_655
La0_5 O1_1 2.405179 1_655
La0_5 O1_5 2.405182 1_555
La0_5 O0_7 2.405527 1_555
La0_5 O0_5 2.405530 1_555
La0_5 P2_5 3.319042 1_555
La0_5 P2_1 3.319047 1_655
La0_5 P2_7 3.319047 1_555
La0_5 P2_3 3.319052 1_655
La0_6 O1_2 2.405179 1_655
La0_6 O1_6 2.405182 1_555
La0_6 O0_4 2.405527 1_565
La0_6 O0_6 2.405530 1_555
La0_6 P2_6 3.319042 1_555
La0_6 P2_4 3.319047 1_565
La0_6 P2_2 3.319047 1_655
La0_6 P2_0 3.319052 1_665
La0_7 O1_3 2.405179 1_655
La0_7 O1_7 2.405182 1_555
La0_7 O0_5 2.405527 1_565
La0_7 O0_7 2.405530 1_555
La0_7 P2_7 3.319042 1_555
La0_7 P2_5 3.319047 1_565
La0_7 P2_3 3.319047 1_655
La0_7 P2_1 3.319052 1_665
La1_0 O2_2 2.405179 1_545
La1_0 O2_0 2.405182 1_555
La1_0 O3_4 2.405527 1_455
La1_0 O3_0 2.405530 1_555
La1_0 P3_0 3.319042 1_555
La1_0 P3_2 3.319047 1_545
La1_0 P3_4 3.319047 1_455
La1_0 P3_6 3.319052 1_445
La1_1 O2_3 2.405179 1_545
La1_1 O2_1 2.405182 1_555
La1_1 O3_5 2.405527 1_455
La1_1 O3_1 2.405530 1_555
La1_1 P3_1 3.319042 1_555
La1_1 P3_3 3.319047 1_545
La1_1 P3_5 3.319047 1_455
La1_1 P3_7 3.319052 1_445
La1_2 O2_0 2.405179 1_555
La1_2 O2_2 2.405182 1_555
La1_2 O3_6 2.405527 1_455
La1_2 O3_2 2.405530 1_555
La1_2 P3_2 3.319042 1_555
La1_2 P3_6 3.319047 1_455
La1_2 P3_0 3.319047 1_555
La1_2 P3_4 3.319052 1_455
La1_3 O2_1 2.405179 1_555
La1_3 O2_3 2.405182 1_555
La1_3 O3_7 2.405527 1_455
La1_3 O3_3 2.405530 1_555
La1_3 P3_3 3.319042 1_555
La1_3 P3_7 3.319047 1_455
La1_3 P3_1 3.319047 1_555
La1_3 P3_5 3.319052 1_455
La1_4 O2_6 2.405179 1_545
La1_4 O2_4 2.405182 1_555
La1_4 O3_0 2.405527 1_555
La1_4 O3_4 2.405530 1_555
La1_4 P3_4 3.319042 1_555
La1_4 P3_6 3.319047 1_545
La1_4 P3_0 3.319047 1_555
La1_4 P3_2 3.319052 1_545
La1_5 O2_7 2.405179 1_545
La1_5 O2_5 2.405182 1_555
La1_5 O3_1 2.405527 1_555
La1_5 O3_5 2.405530 1_555
La1_5 P3_5 3.319042 1_555
La1_5 P3_7 3.319047 1_545
La1_5 P3_1 3.319047 1_555
La1_5 P3_3 3.319052 1_545
La1_6 O2_4 2.405179 1_555
La1_6 O2_6 2.405182 1_555
La1_6 O3_2 2.405527 1_555
La1_6 O3_6 2.405530 1_555
La1_6 P3_6 3.319042 1_555
La1_6 P3_4 3.319047 1_555
La1_6 P3_2 3.319047 1_555
La1_6 P3_0 3.319052 1_555
La1_7 O2_5 2.405179 1_555
La1_7 O2_7 2.405182 1_555
La1_7 O3_3 2.405527 1_555
La1_7 O3_7 2.405530 1_555
La1_7 P3_7 3.319042 1_555
La1_7 P3_5 3.319047 1_555
La1_7 P3_3 3.319047 1_555
La1_7 P3_1 3.319052 1_555
La2_0 O0_0 2.334732 1_555
La2_0 O0_4 2.334736 1_455
La2_0 O1_0 2.335055 1_555
La2_0 O1_2 2.335058 1_545
La2_1 O0_1 2.334732 1_555
La2_1 O0_5 2.334736 1_455
La2_1 O1_1 2.335055 1_555
La2_1 O1_3 2.335058 1_545
La2_2 O0_2 2.334732 1_555
La2_2 O0_6 2.334736 1_455
La2_2 O1_2 2.335055 1_555
La2_2 O1_0 2.335058 1_555
La2_3 O0_3 2.334732 1_555
La2_3 O0_7 2.334736 1_455
La2_3 O1_3 2.335055 1_555
La2_3 O1_1 2.335058 1_555
La2_4 O0_4 2.334732 1_555
La2_4 O0_0 2.334736 1_555
La2_4 O1_4 2.335055 1_555
La2_4 O1_6 2.335058 1_545
La2_5 O0_5 2.334732 1_555
La2_5 O0_1 2.334736 1_555
La2_5 O1_5 2.335055 1_555
La2_5 O1_7 2.335058 1_545
La2_6 O0_6 2.334732 1_555
La2_6 O0_2 2.334736 1_555
La2_6 O1_6 2.335055 1_555
La2_6 O1_4 2.335058 1_555
La2_7 O0_7 2.334732 1_555
La2_7 O0_3 2.334736 1_555
La2_7 O1_7 2.335055 1_555
La2_7 O1_5 2.335058 1_555
La3_0 O3_0 2.334732 1_555
La3_0 O3_2 2.334736 1_555
La3_0 O2_0 2.335055 1_555
La3_0 O2_4 2.335058 1_555
La3_1 O3_1 2.334732 1_555
La3_1 O3_3 2.334736 1_555
La3_1 O2_1 2.335055 1_555
La3_1 O2_5 2.335058 1_555
La3_2 O3_2 2.334732 1_555
La3_2 O3_0 2.334736 1_565
La3_2 O2_2 2.335055 1_555
La3_2 O2_6 2.335058 1_555
La3_3 O3_3 2.334732 1_555
La3_3 O3_1 2.334736 1_565
La3_3 O2_3 2.335055 1_555
La3_3 O2_7 2.335058 1_555
La3_4 O3_4 2.334732 1_555
La3_4 O3_6 2.334736 1_555
La3_4 O2_4 2.335055 1_555
La3_4 O2_0 2.335058 1_655
La3_5 O3_5 2.334732 1_555
La3_5 O3_7 2.334736 1_555
La3_5 O2_5 2.335055 1_555
La3_5 O2_1 2.335058 1_655
La3_6 O3_6 2.334732 1_555
La3_6 O3_4 2.334736 1_565
La3_6 O2_6 2.335055 1_555
La3_6 O2_2 2.335058 1_655
La3_7 O3_7 2.334732 1_555
La3_7 O3_5 2.334736 1_565
La3_7 O2_7 2.335055 1_555
La3_7 O2_3 2.335058 1_655
La4_0 P1_1 3.068332 1_554
La4_0 P0_6 3.068332 1_445
La4_0 P1_3 3.068332 1_544
La4_0 P1_5 3.068332 1_454
La4_0 P0_4 3.068332 1_455
La4_0 P0_2 3.068332 1_545
La4_0 P1_7 3.068332 1_444
La4_0 P0_0 3.068332 1_555
La4_1 P0_7 3.068332 1_445
La4_1 P1_0 3.068332 1_555
La4_1 P0_5 3.068332 1_455
La4_1 P0_3 3.068332 1_545
La4_1 P1_4 3.068332 1_455
La4_1 P1_2 3.068332 1_545
La4_1 P0_1 3.068332 1_555
La4_1 P1_6 3.068332 1_445
La4_2 P1_3 3.068332 1_554
La4_2 P0_4 3.068332 1_455
La4_2 P1_7 3.068332 1_454
La4_2 P1_1 3.068332 1_554
La4_2 P0_6 3.068332 1_455
La4_2 P0_0 3.068332 1_555
La4_2 P1_5 3.068332 1_454
La4_2 P0_2 3.068332 1_555
La4_3 P0_5 3.068332 1_455
La4_3 P1_2 3.068332 1_555
La4_3 P0_1 3.068332 1_555
La4_3 P0_7 3.068332 1_455
La4_3 P1_6 3.068332 1_455
La4_3 P1_0 3.068332 1_555
La4_3 P0_3 3.068332 1_555
La4_3 P1_4 3.068332 1_455
La4_4 P1_5 3.068332 1_554
La4_4 P0_2 3.068332 1_545
La4_4 P1_1 3.068332 1_554
La4_4 P1_7 3.068332 1_544
La4_4 P0_6 3.068332 1_545
La4_4 P0_0 3.068332 1_555
La4_4 P1_3 3.068332 1_544
La4_4 P0_4 3.068332 1_555
La4_5 P0_3 3.068332 1_545
La4_5 P1_4 3.068332 1_555
La4_5 P0_1 3.068332 1_555
La4_5 P0_7 3.068332 1_545
La4_5 P1_6 3.068332 1_545
La4_5 P1_0 3.068332 1_555
La4_5 P0_5 3.068332 1_555
La4_5 P1_2 3.068332 1_545
La4_6 P1_7 3.068332 1_554
La4_6 P0_0 3.068332 1_555
La4_6 P1_3 3.068332 1_554
La4_6 P0_2 3.068332 1_555
La4_6 P1_5 3.068332 1_554
La4_6 P0_4 3.068332 1_555
La4_6 P1_1 3.068332 1_554
La4_6 P0_6 3.068332 1_555
La4_7 P0_1 3.068332 1_555
La4_7 P1_6 3.068332 1_555
La4_7 P0_3 3.068332 1_555
La4_7 P0_5 3.068332 1_555
La4_7 P1_4 3.068332 1_555
La4_7 P1_2 3.068332 1_555
La4_7 P0_7 3.068332 1_555
La4_7 P1_0 3.068332 1_555
Mg0_0 Mg0_4 4.032073 1_455
Mg0_0 Mg0_2 4.032073 1_555
Mg0_0 Mg0_2 4.032073 1_545
Mg0_0 Mg0_4 4.032073 1_555
Mg0_1 Mg0_5 4.032073 1_455
Mg0_1 Mg0_5 4.032073 1_555
Mg0_1 Mg0_3 4.032073 1_555
Mg0_1 Mg0_3 4.032073 1_545
Mg0_2 Mg0_6 4.032073 1_455
Mg0_2 Mg0_6 4.032073 1_555
Mg0_3 Mg0_7 4.032073 1_455
Mg0_3 Mg0_7 4.032073 1_555
Mg0_4 Mg0_6 4.032073 1_555
Mg0_4 Mg0_6 4.032073 1_545
Mg0_5 Mg0_7 4.032073 1_555
Mg0_5 Mg0_7 4.032073 1_545
Cu0_0 P2_0 2.353735 1_555
Cu0_0 P2_2 2.353746 1_555
Cu0_0 P0_4 2.465434 1_455
Cu0_0 P0_0 2.465437 1_555
Cu0_0 Cu1_2 2.851107 1_555
Cu0_0 Cu1_0 2.851107 1_555
Cu0_0 Cu1_6 2.851107 1_455
Cu0_0 Cu1_4 2.851107 1_455
Cu0_0 La4_0 3.253107 1_555
Cu0_0 La4_2 3.253110 1_555
Cu0_1 P2_1 2.353735 1_555
Cu0_1 P2_3 2.353746 1_555
Cu0_1 P0_5 2.465434 1_455
Cu0_1 P0_1 2.465437 1_555
Cu0_1 Cu1_3 2.851107 1_555
Cu0_1 Cu1_7 2.851107 1_455
Cu0_1 Cu1_1 2.851107 1_555
Cu0_1 Cu1_5 2.851107 1_455
Cu0_1 La4_1 3.253107 1_555
Cu0_1 La4_3 3.253110 1_555
Cu0_2 P2_2 2.353735 1_555
Cu0_2 P2_0 2.353746 1_565
Cu0_2 P0_6 2.465434 1_455
Cu0_2 P0_2 2.465437 1_555
Cu0_2 Cu1_0 2.851107 1_565
Cu0_2 Cu1_4 2.851107 1_465
Cu0_2 Cu1_2 2.851107 1_555
Cu0_2 Cu1_6 2.851107 1_455
Cu0_2 La4_2 3.253107 1_555
Cu0_2 La4_0 3.253110 1_565
Cu0_3 P2_3 2.353735 1_555
Cu0_3 P2_1 2.353746 1_565
Cu0_3 P0_7 2.465434 1_455
Cu0_3 P0_3 2.465437 1_555
Cu0_3 Cu1_1 2.851107 1_565
Cu0_3 Cu1_5 2.851107 1_465
Cu0_3 Cu1_3 2.851107 1_555
Cu0_3 Cu1_7 2.851107 1_455
Cu0_3 La4_3 3.253107 1_555
Cu0_3 La4_1 3.253110 1_565
Cu0_4 P2_4 2.353735 1_555
Cu0_4 P2_6 2.353746 1_555
Cu0_4 P0_0 2.465434 1_555
Cu0_4 P0_4 2.465437 1_555
Cu0_4 Cu1_6 2.851107 1_555
Cu0_4 Cu1_4 2.851107 1_555
Cu0_4 Cu1_2 2.851107 1_555
Cu0_4 Cu1_0 2.851107 1_555
Cu0_4 La4_4 3.253107 1_555
Cu0_4 La4_6 3.253110 1_555
Cu0_5 P2_5 2.353735 1_555
Cu0_5 P2_7 2.353746 1_555
Cu0_5 P0_1 2.465434 1_555
Cu0_5 P0_5 2.465437 1_555
Cu0_5 Cu1_7 2.851107 1_555
Cu0_5 Cu1_5 2.851107 1_555
Cu0_5 Cu1_3 2.851107 1_555
Cu0_5 Cu1_1 2.851107 1_555
Cu0_5 La4_5 3.253107 1_555
Cu0_5 La4_7 3.253110 1_555
Cu0_6 P2_6 2.353735 1_555
Cu0_6 P2_4 2.353746 1_565
Cu0_6 P0_2 2.465434 1_555
Cu0_6 P0_6 2.465437 1_555
Cu0_6 Cu1_4 2.851107 1_565
Cu0_6 Cu1_0 2.851107 1_565
Cu0_6 Cu1_6 2.851107 1_555
Cu0_6 Cu1_2 2.851107 1_555
Cu0_6 La4_6 3.253107 1_555
Cu0_6 La4_4 3.253110 1_565
Cu0_7 P2_7 2.353735 1_555
Cu0_7 P2_5 2.353746 1_565
Cu0_7 P0_3 2.465434 1_555
Cu0_7 P0_7 2.465437 1_555
Cu0_7 Cu1_5 2.851107 1_565
Cu0_7 Cu1_1 2.851107 1_565
Cu0_7 Cu1_7 2.851107 1_555
Cu0_7 Cu1_3 2.851107 1_555
Cu0_7 La4_7 3.253107 1_555
Cu0_7 La4_5 3.253110 1_565
Cu1_0 P2_0 2.354283 1_555
Cu1_0 P2_4 2.354294 1_555
Cu1_0 P0_2 2.464823 1_545
Cu1_0 P0_0 2.464826 1_555
Cu1_0 La4_0 3.252274 1_555
Cu1_0 La4_4 3.252276 1_555
Cu1_1 P2_1 2.354283 1_555
Cu1_1 P2_5 2.354294 1_555
Cu1_1 P0_3 2.464823 1_545
Cu1_1 P0_1 2.464826 1_555
Cu1_1 La4_1 3.252274 1_555
Cu1_1 La4_5 3.252276 1_555
Cu1_2 P2_2 2.354283 1_555
Cu1_2 P2_6 2.354294 1_555
Cu1_2 P0_0 2.464823 1_555
Cu1_2 P0_2 2.464826 1_555
Cu1_2 La4_2 3.252274 1_555
Cu1_2 La4_6 3.252276 1_555
Cu1_3 P2_3 2.354283 1_555
Cu1_3 P2_7 2.354294 1_555
Cu1_3 P0_1 2.464823 1_555
Cu1_3 P0_3 2.464826 1_555
Cu1_3 La4_3 3.252274 1_555
Cu1_3 La4_7 3.252276 1_555
Cu1_4 P2_4 2.354283 1_555
Cu1_4 P2_0 2.354294 1_655
Cu1_4 P0_6 2.464823 1_545
Cu1_4 P0_4 2.464826 1_555
Cu1_4 La4_4 3.252274 1_555
Cu1_4 La4_0 3.252276 1_655
Cu1_5 P2_5 2.354283 1_555
Cu1_5 P2_1 2.354294 1_655
Cu1_5 P0_7 2.464823 1_545
Cu1_5 P0_5 2.464826 1_555
Cu1_5 La4_5 3.252274 1_555
Cu1_5 La4_1 3.252276 1_655
Cu1_6 P2_6 2.354283 1_555
Cu1_6 P2_2 2.354294 1_655
Cu1_6 P0_4 2.464823 1_555
Cu1_6 P0_6 2.464826 1_555
Cu1_6 La4_6 3.252274 1_555
Cu1_6 La4_2 3.252276 1_655
Cu1_7 P2_7 2.354283 1_555
Cu1_7 P2_3 2.354294 1_655
Cu1_7 P0_5 2.464823 1_555
Cu1_7 P0_7 2.464826 1_555
Cu1_7 La4_7 3.252274 1_555
Cu1_7 La4_3 3.252276 1_655
Cu2_0 P3_0 2.354283 1_555
Cu2_0 P3_2 2.354294 1_545
Cu2_0 P1_4 2.464823 1_555
Cu2_0 P1_0 2.464826 1_555
Cu2_0 Cu3_4 2.851107 1_555
Cu2_0 Cu3_0 2.851107 1_555
Cu2_0 Cu3_6 2.851107 1_545
Cu2_0 Cu3_2 2.851107 1_545
Cu2_0 La4_7 3.252274 1_555
Cu2_0 La4_5 3.252276 1_555
Cu2_1 P3_1 2.354283 1_555
Cu2_1 P3_3 2.354294 1_545
Cu2_1 P1_5 2.464823 1_555
Cu2_1 P1_1 2.464826 1_555
Cu2_1 Cu3_5 2.851107 1_555
Cu2_1 Cu3_1 2.851107 1_555
Cu2_1 Cu3_7 2.851107 1_545
Cu2_1 Cu3_3 2.851107 1_545
Cu2_1 La4_6 3.252274 1_556
Cu2_1 La4_4 3.252276 1_556
Cu2_2 P3_2 2.354283 1_555
Cu2_2 P3_0 2.354294 1_555
Cu2_2 P1_6 2.464823 1_555
Cu2_2 P1_2 2.464826 1_555
Cu2_2 Cu3_6 2.851107 1_555
Cu2_2 Cu3_2 2.851107 1_555
Cu2_2 Cu3_4 2.851107 1_555
Cu2_2 Cu3_0 2.851107 1_555
Cu2_2 La4_5 3.252274 1_565
Cu2_2 La4_7 3.252276 1_555
Cu2_3 P3_3 2.354283 1_555
Cu2_3 P3_1 2.354294 1_555
Cu2_3 P1_7 2.464823 1_555
Cu2_3 P1_3 2.464826 1_555
Cu2_3 Cu3_7 2.851107 1_555
Cu2_3 Cu3_3 2.851107 1_555
Cu2_3 Cu3_5 2.851107 1_555
Cu2_3 Cu3_1 2.851107 1_555
Cu2_3 La4_4 3.252274 1_566
Cu2_3 La4_6 3.252276 1_556
Cu2_4 P3_4 2.354283 1_555
Cu2_4 P3_6 2.354294 1_545
Cu2_4 P1_0 2.464823 1_655
Cu2_4 P1_4 2.464826 1_555
Cu2_4 Cu3_0 2.851107 1_655
Cu2_4 Cu3_4 2.851107 1_555
Cu2_4 Cu3_2 2.851107 1_645
Cu2_4 Cu3_6 2.851107 1_545
Cu2_4 La4_3 3.252274 1_655
Cu2_4 La4_1 3.252276 1_655
Cu2_5 P3_5 2.354283 1_555
Cu2_5 P3_7 2.354294 1_545
Cu2_5 P1_1 2.464823 1_655
Cu2_5 P1_5 2.464826 1_555
Cu2_5 Cu3_1 2.851107 1_655
Cu2_5 Cu3_5 2.851107 1_555
Cu2_5 Cu3_3 2.851107 1_645
Cu2_5 Cu3_7 2.851107 1_545
Cu2_5 La4_2 3.252274 1_656
Cu2_5 La4_0 3.252276 1_656
Cu2_6 P3_6 2.354283 1_555
Cu2_6 P3_4 2.354294 1_555
Cu2_6 P1_2 2.464823 1_655
Cu2_6 P1_6 2.464826 1_555
Cu2_6 Cu3_2 2.851107 1_655
Cu2_6 Cu3_6 2.851107 1_555
Cu2_6 Cu3_0 2.851107 1_655
Cu2_6 Cu3_4 2.851107 1_555
Cu2_6 La4_1 3.252274 1_665
Cu2_6 La4_3 3.252276 1_655
Cu2_7 P3_7 2.354283 1_555
Cu2_7 P3_5 2.354294 1_555
Cu2_7 P1_3 2.464823 1_655
Cu2_7 P1_7 2.464826 1_555
Cu2_7 Cu3_3 2.851107 1_655
Cu2_7 Cu3_7 2.851107 1_555
Cu2_7 Cu3_1 2.851107 1_655
Cu2_7 Cu3_5 2.851107 1_555
Cu2_7 La4_0 3.252274 1_666
Cu2_7 La4_2 3.252276 1_656
Cu3_0 P3_0 2.353735 1_555
Cu3_0 P3_4 2.353746 1_455
Cu3_0 P1_2 2.465434 1_555
Cu3_0 P1_0 2.465437 1_555
Cu3_0 La4_7 3.253107 1_555
Cu3_0 La4_3 3.253110 1_555
Cu3_1 P3_1 2.353735 1_555
Cu3_1 P3_5 2.353746 1_455
Cu3_1 P1_3 2.465434 1_555
Cu3_1 P1_1 2.465437 1_555
Cu3_1 La4_6 3.253107 1_556
Cu3_1 La4_2 3.253110 1_556
Cu3_2 P3_2 2.353735 1_555
Cu3_2 P3_6 2.353746 1_455
Cu3_2 P1_0 2.465434 1_565
Cu3_2 P1_2 2.465437 1_555
Cu3_2 La4_5 3.253107 1_565
Cu3_2 La4_1 3.253110 1_565
Cu3_3 P3_3 2.353735 1_555
Cu3_3 P3_7 2.353746 1_455
Cu3_3 P1_1 2.465434 1_565
Cu3_3 P1_3 2.465437 1_555
Cu3_3 La4_4 3.253107 1_566
Cu3_3 La4_0 3.253110 1_566
Cu3_4 P3_4 2.353735 1_555
Cu3_4 P3_0 2.353746 1_555
Cu3_4 P1_6 2.465434 1_555
Cu3_4 P1_4 2.465437 1_555
Cu3_4 La4_3 3.253107 1_655
Cu3_4 La4_7 3.253110 1_555
Cu3_5 P3_5 2.353735 1_555
Cu3_5 P3_1 2.353746 1_555
Cu3_5 P1_7 2.465434 1_555
Cu3_5 P1_5 2.465437 1_555
Cu3_5 La4_2 3.253107 1_656
Cu3_5 La4_6 3.253110 1_556
Cu3_6 P3_6 2.353735 1_555
Cu3_6 P3_2 2.353746 1_555
Cu3_6 P1_4 2.465434 1_565
Cu3_6 P1_6 2.465437 1_555
Cu3_6 La4_1 3.253107 1_665
Cu3_6 La4_5 3.253110 1_565
Cu3_7 P3_7 2.353735 1_555
Cu3_7 P3_3 2.353746 1_555
Cu3_7 P1_5 2.465434 1_565
Cu3_7 P1_7 2.465437 1_555
Cu3_7 La4_0 3.253107 1_666
Cu3_7 La4_4 3.253110 1_566
P0_0 P1_1 2.267910 1_554
P0_1 P1_0 2.267910 1_555
P0_2 P1_3 2.267910 1_554
P0_3 P1_2 2.267910 1_555
P0_4 P1_5 2.267910 1_554
P0_5 P1_4 2.267910 1_555
P0_6 P1_7 2.267910 1_554
P0_7 P1_6 2.267910 1_555
Cl0_0 La2_0 3.271498 1_555
Cl0_0 La2_2 3.271500 1_555
Cl0_0 La2_4 3.271500 1_555
Cl0_0 La2_6 3.271502 1_555
Cl0_0 Mg0_0 3.297962 1_555
Cl0_0 Mg0_4 3.297964 1_555
Cl0_0 Cl0_2 4.032073 1_545
Cl0_0 Cl0_2 4.032073 1_555
Cl0_1 La2_1 3.271498 1_555
Cl0_1 La2_3 3.271500 1_555
Cl0_1 La2_5 3.271500 1_555
Cl0_1 La2_7 3.271502 1_555
Cl0_1 Mg0_1 3.297962 1_555
Cl0_1 Mg0_5 3.297964 1_555
Cl0_1 Cl0_3 4.032073 1_545
Cl0_1 Cl0_3 4.032073 1_555
Cl0_2 La2_2 3.271498 1_555
Cl0_2 La2_0 3.271500 1_565
Cl0_2 La2_6 3.271500 1_555
Cl0_2 La2_4 3.271502 1_565
Cl0_2 Mg0_2 3.297962 1_555
Cl0_2 Mg0_6 3.297964 1_555
Cl0_3 La2_3 3.271498 1_555
Cl0_3 La2_1 3.271500 1_565
Cl0_3 La2_7 3.271500 1_555
Cl0_3 La2_5 3.271502 1_565
Cl0_3 Mg0_3 3.297962 1_555
Cl0_3 Mg0_7 3.297964 1_555
Cl0_4 La2_4 3.271498 1_555
Cl0_4 La2_0 3.271500 1_655
Cl0_4 La2_6 3.271500 1_555
Cl0_4 La2_2 3.271502 1_655
Cl0_4 Mg0_4 3.297962 1_555
Cl0_4 Mg0_0 3.297964 1_655
Cl0_4 Cl0_6 4.032073 1_555
Cl0_4 Cl0_6 4.032073 1_545
Cl0_5 La2_5 3.271498 1_555
Cl0_5 La2_1 3.271500 1_655
Cl0_5 La2_7 3.271500 1_555
Cl0_5 La2_3 3.271502 1_655
Cl0_5 Mg0_5 3.297962 1_555
Cl0_5 Mg0_1 3.297964 1_655
Cl0_5 Cl0_7 4.032073 1_555
Cl0_5 Cl0_7 4.032073 1_545
Cl0_6 La2_6 3.271498 1_555
Cl0_6 La2_2 3.271500 1_655
Cl0_6 La2_4 3.271500 1_565
Cl0_6 La2_0 3.271502 1_665
Cl0_6 Mg0_6 3.297962 1_555
Cl0_6 Mg0_2 3.297964 1_655
Cl0_7 La2_7 3.271498 1_555
Cl0_7 La2_3 3.271500 1_655
Cl0_7 La2_5 3.271500 1_565
Cl0_7 La2_1 3.271502 1_665
Cl0_7 Mg0_7 3.297962 1_555
Cl0_7 Mg0_3 3.297964 1_655
Cl1_0 La3_0 3.271498 1_555
Cl1_0 La3_2 3.271500 1_545
Cl1_0 La3_4 3.271500 1_455
Cl1_0 La3_6 3.271502 1_445
Cl1_0 Mg0_0 3.297962 1_555
Cl1_0 Mg0_2 3.297964 1_545
Cl1_0 Cl1_4 4.032073 1_455
Cl1_0 Cl1_4 4.032073 1_555
Cl1_1 La3_1 3.271498 1_555
Cl1_1 La3_3 3.271500 1_545
Cl1_1 La3_5 3.271500 1_455
Cl1_1 La3_7 3.271502 1_445
Cl1_1 Mg0_1 3.297962 1_555
Cl1_1 Mg0_3 3.297964 1_545
Cl1_1 Cl1_5 4.032073 1_555
Cl1_1 Cl1_5 4.032073 1_455
Cl1_2 La3_2 3.271498 1_555
Cl1_2 La3_6 3.271500 1_455
Cl1_2 La3_0 3.271500 1_555
Cl1_2 La3_4 3.271502 1_455
Cl1_2 Mg0_2 3.297962 1_555
Cl1_2 Mg0_0 3.297964 1_555
Cl1_2 Cl1_6 4.032073 1_555
Cl1_2 Cl1_6 4.032073 1_455
Cl1_3 La3_3 3.271498 1_555
Cl1_3 La3_7 3.271500 1_455
Cl1_3 La3_1 3.271500 1_555
Cl1_3 La3_5 3.271502 1_455
Cl1_3 Mg0_3 3.297962 1_555
Cl1_3 Mg0_1 3.297964 1_555
Cl1_3 Cl1_7 4.032073 1_455
Cl1_3 Cl1_7 4.032073 1_555
Cl1_4 La3_4 3.271498 1_555
Cl1_4 La3_0 3.271500 1_555
Cl1_4 La3_6 3.271500 1_545
Cl1_4 La3_2 3.271502 1_545
Cl1_4 Mg0_4 3.297962 1_555
Cl1_4 Mg0_6 3.297964 1_545
Cl1_5 La3_5 3.271498 1_555
Cl1_5 La3_7 3.271500 1_545
Cl1_5 La3_1 3.271500 1_555
Cl1_5 La3_3 3.271502 1_545
Cl1_5 Mg0_5 3.297962 1_555
Cl1_5 Mg0_7 3.297964 1_545
Cl1_6 La3_6 3.271498 1_555
Cl1_6 La3_4 3.271500 1_555
Cl1_6 La3_2 3.271500 1_555
Cl1_6 La3_0 3.271502 1_555
Cl1_6 Mg0_6 3.297962 1_555
Cl1_6 Mg0_4 3.297964 1_555
Cl1_7 La3_7 3.271498 1_555
Cl1_7 La3_5 3.271500 1_555
Cl1_7 La3_3 3.271500 1_555
Cl1_7 La3_1 3.271502 1_555
Cl1_7 Mg0_7 3.297962 1_555
Cl1_7 Mg0_5 3.297964 1_555
O0_0 O1_4 2.851107 1_555
O0_0 O1_0 2.851107 1_555
O0_0 O1_6 2.851107 1_545
O0_0 O1_2 2.851107 1_545
O0_1 O1_5 2.851107 1_555
O0_1 O1_1 2.851107 1_555
O0_1 O1_7 2.851107 1_545
O0_1 O1_3 2.851107 1_545
O0_2 O1_6 2.851107 1_555
O0_2 O1_2 2.851107 1_555
O0_2 O1_4 2.851107 1_555
O0_2 O1_0 2.851107 1_555
O0_3 O1_7 2.851107 1_555
O0_3 O1_5 2.851107 1_555
O0_3 O1_3 2.851107 1_555
O0_3 O1_1 2.851107 1_555
O0_4 O1_0 2.851107 1_655
O0_4 O1_4 2.851107 1_555
O0_4 O1_2 2.851107 1_645
O0_4 O1_6 2.851107 1_545
O0_5 O1_1 2.851107 1_655
O0_5 O1_5 2.851107 1_555
O0_5 O1_3 2.851107 1_645
O0_5 O1_7 2.851107 1_545
O0_6 O1_2 2.851107 1_655
O0_6 O1_6 2.851107 1_555
O0_6 O1_0 2.851107 1_655
O0_6 O1_4 2.851107 1_555
O0_7 O1_3 2.851107 1_655
O0_7 O1_7 2.851107 1_555
O0_7 O1_1 2.851107 1_655
O0_7 O1_5 2.851107 1_555
O2_0 O3_2 2.851107 1_555
O2_0 O3_6 2.851107 1_455
O2_0 O3_0 2.851107 1_555
O2_0 O3_4 2.851107 1_455
O2_1 O3_3 2.851107 1_555
O2_1 O3_7 2.851107 1_455
O2_1 O3_1 2.851107 1_555
O2_1 O3_5 2.851107 1_455
O2_2 O3_0 2.851107 1_565
O2_2 O3_2 2.851107 1_555
O2_2 O3_4 2.851107 1_465
O2_2 O3_6 2.851107 1_455
O2_3 O3_1 2.851107 1_565
O2_3 O3_5 2.851107 1_465
O2_3 O3_3 2.851107 1_555
O2_3 O3_7 2.851107 1_455
O2_4 O3_6 2.851107 1_555
O2_4 O3_2 2.851107 1_555
O2_4 O3_4 2.851107 1_555
O2_4 O3_0 2.851107 1_555
O2_5 O3_7 2.851107 1_555
O2_5 O3_3 2.851107 1_555
O2_5 O3_5 2.851107 1_555
O2_5 O3_1 2.851107 1_555
O2_6 O3_4 2.851107 1_565
O2_6 O3_0 2.851107 1_565
O2_6 O3_6 2.851107 1_555
O2_6 O3_2 2.851107 1_555
O2_7 O3_5 2.851107 1_565
O2_7 O3_1 2.851107 1_565
O2_7 O3_7 2.851107 1_555
O2_7 O3_3 2.851107 1_555
