# generated using pymatgen
data_MgTi2(SnO3)2
_symmetry_space_group_name_H-M   'P 1'
_cell_length_a   7.45339686
_cell_length_b   7.45339763
_cell_length_c   7.45339805
_cell_angle_alpha   40.47702573
_cell_angle_beta   40.47702885
_cell_angle_gamma   40.47702205
_symmetry_Int_Tables_number   1
_chemical_formula_structural   MgTi2(SnO3)2
_chemical_formula_sum   'Mg1 Ti2 Sn2 O6'
_cell_volume   157.35543355
_cell_formula_units_Z   1
loop_
 _symmetry_equiv_pos_site_id
 _symmetry_equiv_pos_as_xyz
  1  'x, y, z'
loop_
 _atom_site_type_symbol
 _atom_site_label
 _atom_site_symmetry_multiplicity
 _atom_site_fract_x
 _atom_site_fract_y
 _atom_site_fract_z
 _atom_site_occupancy
  Mg  Mg0  1  -0.00000000  0.00000000  -0.00000000  1
  Ti  Ti0  1  0.34849668  0.34849668  0.34849668  1
  Ti  Ti1  1  0.65150332  0.65150332  0.65150332  1
  Sn  Sn0  1  0.18693863  0.18693863  0.18693863  1
  Sn  Sn1  1  0.81306137  0.81306137  0.81306137  1
  O  O0  1  0.03600656  0.70660479  0.41216132  1
  O  O1  1  0.41216132  0.03600655  0.70660479  1
  O  O2  1  0.29339521  0.58783868  0.96399344  1
  O  O3  1  0.70660479  0.41216132  0.03600656  1
  O  O4  1  0.58783868  0.96399345  0.29339521  1
  O  O5  1  0.96399344  0.29339521  0.58783868  1
loop_
_geom_bond_atom_site_label_1
_geom_bond_atom_site_label_2
_geom_bond_distance
_geom_bond_site_symmetry_2
Mg0 O4 2.105384 1_445
Mg0 O1 2.105384 1_554
Mg0 O2 2.105384 1_544
Mg0 O3 2.105384 1_455
Mg0 O0 2.105384 1_545
Mg0 O5 2.105384 1_454
Sn0 Sn1 3.091045 1_454
Sn0 Sn1 3.091045 1_544
Sn0 Sn1 3.091045 1_445
O0 Ti0 1.887313 1_555
O0 Ti1 2.112445 1_455
O0 Sn1 2.523220 1_455
O0 Sn0 3.318424 1_565
O1 Ti0 1.887313 1_555
O1 Ti1 2.112446 1_545
O1 Sn1 2.523219 1_545
O1 Sn0 3.318424 1_556
O2 Ti1 1.887313 1_555
O2 Ti0 2.112446 1_556
O2 Sn0 2.523219 1_556
O2 Sn1 3.318423 1_455
O3 Ti0 1.887313 1_555
O3 Ti1 2.112446 1_554
O3 Sn1 2.523219 1_554
O3 Sn0 3.318423 1_655
O4 Ti1 1.887313 1_555
O4 Ti0 2.112446 1_565
O4 Sn0 2.523219 1_565
O4 Sn1 3.318424 1_554
O5 Ti1 1.887313 1_555
O5 Ti0 2.112445 1_655
O5 Sn0 2.523220 1_655
O5 Sn1 3.318424 1_545
