# generated using pymatgen
data_MgMn4(OF2)4
_symmetry_space_group_name_H-M   'P 1'
_cell_length_a   8.07651031
_cell_length_b   5.15309626
_cell_length_c   7.49410572
_cell_angle_alpha   88.56716972
_cell_angle_beta   111.52546189
_cell_angle_gamma   89.95353277
_symmetry_Int_Tables_number   1
_chemical_formula_structural   MgMn4(OF2)4
_chemical_formula_sum   'Mg1 Mn4 O4 F8'
_cell_volume   290.03659540
_cell_formula_units_Z   1
loop_
 _symmetry_equiv_pos_site_id
 _symmetry_equiv_pos_as_xyz
  1  'x, y, z'
loop_
 _atom_site_type_symbol
 _atom_site_label
 _atom_site_symmetry_multiplicity
 _atom_site_fract_x
 _atom_site_fract_y
 _atom_site_fract_z
 _atom_site_occupancy
  Mg  Mg0  1  0.50000000  0.50000000  0.50000000  1
  Mn  Mn0  1  0.31575500  0.07336200  0.65729100  1
  Mn  Mn1  1  0.27014100  0.40279400  0.11573900  1
  Mn  Mn2  1  0.72985900  0.59720600  0.88426100  1
  Mn  Mn3  1  0.68424500  0.92663800  0.34270900  1
  O  O0  1  0.03458900  0.62378200  0.99300600  1
  O  O1  1  0.06356700  0.90914500  0.52743400  1
  O  O2  1  0.93643300  0.09085500  0.47256600  1
  O  O3  1  0.96541100  0.37621800  0.00699400  1
  F  F0  1  0.30120100  0.20792200  0.90127000  1
  F  F1  1  0.27309400  0.31318600  0.40393600  1
  F  F2  1  0.44548100  0.71739700  0.69359700  1
  F  F3  1  0.42053700  0.74648600  0.27804900  1
  F  F4  1  0.57946300  0.25351400  0.72195100  1
  F  F5  1  0.55451900  0.28260300  0.30640300  1
  F  F6  1  0.72690600  0.68681400  0.59606400  1
  F  F7  1  0.69879900  0.79207800  0.09873100  1
loop_
_geom_bond_atom_site_label_1
_geom_bond_atom_site_label_2
_geom_bond_distance
_geom_bond_site_symmetry_2
Mn0 O1 2.097885 1_545
Mn1 O0 2.102879 1_554
Mn1 O3 2.296618 1_455
Mn2 O3 2.102879 1_556
Mn2 O0 2.296618 1_655
Mn3 O2 2.097885 1_565
O0 O3 1.409988 1_456
O1 O2 1.330239 1_465
F0 Mn1 2.007680 1_556
F0 Mn0 2.014614 1_555
F1 Mg0 1.967951 1_555
F1 Mn0 2.157047 1_555
F1 Mn1 2.188776 1_555
F1 F5 2.636214 1_555
F2 Mg0 2.025609 1_555
F2 Mn0 2.073461 1_565
F2 Mn2 2.290331 1_555
F2 F4 2.594600 1_555
F2 F6 2.636214 1_555
F3 Mg0 1.975226 1_555
F3 Mn3 2.213864 1_555
F3 Mn1 2.262455 1_555
F3 F5 2.594600 1_555
F4 Mg0 1.975226 1_555
F4 Mn0 2.213864 1_555
F4 Mn2 2.262455 1_555
F5 Mg0 2.025609 1_555
F5 Mn3 2.073461 1_545
F5 Mn1 2.290331 1_555
F6 Mg0 1.967951 1_555
F6 Mn3 2.157047 1_555
F6 Mn2 2.188776 1_555
F7 Mn2 2.007686 1_554
F7 Mn3 2.014607 1_555
