# generated using pymatgen
data_Ba2SmMgSbO6
_symmetry_space_group_name_H-M   'P 1'
_cell_length_a   6.25628007
_cell_length_b   7.15533770
_cell_length_c   7.36286317
_cell_angle_alpha   65.92334346
_cell_angle_beta   64.85859094
_cell_angle_gamma   64.07618293
_symmetry_Int_Tables_number   1
_chemical_formula_structural   Ba2SmMgSbO6
_chemical_formula_sum   'Ba2 Sm1 Mg1 Sb1 O6'
_cell_volume   258.16497228
_cell_formula_units_Z   1
loop_
 _symmetry_equiv_pos_site_id
 _symmetry_equiv_pos_as_xyz
  1  'x, y, z'
loop_
 _atom_site_type_symbol
 _atom_site_label
 _atom_site_symmetry_multiplicity
 _atom_site_fract_x
 _atom_site_fract_y
 _atom_site_fract_z
 _atom_site_occupancy
  Ba  Ba0  1  0.61232007  0.04263189  0.73272798  1
  Ba  Ba1  1  0.25294757  0.23384708  0.26025777  1
  Sm  Sm0  1  0.08671981  0.87401222  0.95254816  1
  Mg  Mg0  1  0.81603628  0.32208105  0.04584640  1
  Sb  Sb0  1  0.54759974  0.63119489  0.27360564  1
  O  O0  1  0.20394876  0.96844723  0.62365525  1
  O  O1  1  0.44341951  0.61017209  0.06422029  1
  O  O2  1  0.69943855  0.13057502  1.00054450  1
  O  O3  1  0.16944193  0.13057502  1.00054450  1
  O  O4  1  0.66093968  0.31087443  0.36724621  1
  O  O5  1  0.88218811  0.61017209  0.06422029  1
loop_
_geom_bond_atom_site_label_1
_geom_bond_atom_site_label_2
_geom_bond_distance
_geom_bond_site_symmetry_2
Ba0 O4 2.572678 1_555
Ba0 O3 2.609012 1_555
Ba0 O2 2.609012 1_555
Ba0 O0 3.275847 1_645
Ba0 O0 3.275847 1_545
Ba0 O1 3.339799 1_546
Ba0 O5 3.339799 1_546
Ba1 O0 2.554532 1_545
Ba1 O2 2.610547 1_554
Ba1 O3 2.610547 1_554
Ba1 O1 2.987826 1_555
Ba1 O5 2.987826 1_455
Ba1 O4 3.276045 1_455
Ba1 O4 3.276045 1_555
Mg0 O2 1.993674 1_554
Mg0 O3 1.993674 1_654
Mg0 O4 2.123682 1_555
Mg0 O5 2.336656 1_555
Mg0 O1 2.336656 1_555
O0 Sm0 2.108961 1_555
O1 Sb0 1.988207 1_555
O1 Sm0 2.414368 1_554
O2 Sm0 2.297455 1_645
O3 Sm0 2.297455 1_545
O4 Sb0 1.984054 1_555
O5 Sb0 1.988207 1_555
O5 Sm0 2.414368 1_654
