# generated using pymatgen
data_SrI2
_symmetry_space_group_name_H-M   'P 1'
_cell_length_a   7.99379177
_cell_length_b   8.29030421
_cell_length_c   15.49349358
_cell_angle_alpha   90.00000000
_cell_angle_beta   90.00000000
_cell_angle_gamma   90.00000000
_symmetry_Int_Tables_number   1
_chemical_formula_structural   SrI2
_chemical_formula_sum   'Sr8 I16'
_cell_volume   1026.76877952
_cell_formula_units_Z   8
loop_
 _symmetry_equiv_pos_site_id
 _symmetry_equiv_pos_as_xyz
  1  'x, y, z'
loop_
 _atom_site_type_symbol
 _atom_site_label
 _atom_site_symmetry_multiplicity
 _atom_site_fract_x
 _atom_site_fract_y
 _atom_site_fract_z
 _atom_site_occupancy
  Sr  Sr0  1  0.72427041  0.55003433  0.88949287  1
  Sr  Sr1  1  0.22427041  0.44996567  0.61050713  1
  Sr  Sr2  1  0.77572959  0.05003433  0.11050713  1
  Sr  Sr3  1  0.27572959  0.94996567  0.38949287  1
  Sr  Sr4  1  0.27572959  0.44996567  0.11050713  1
  Sr  Sr5  1  0.77572959  0.55003433  0.38949287  1
  Sr  Sr6  1  0.22427041  0.94996567  0.88949287  1
  Sr  Sr7  1  0.72427041  0.05003433  0.61050713  1
  I  I0  1  0.84054279  0.89089234  0.79670885  1
  I  I1  1  0.34054279  0.10910766  0.70329115  1
  I  I2  1  0.65945721  0.39089234  0.20329115  1
  I  I3  1  0.15945721  0.60910766  0.29670885  1
  I  I4  1  0.15945721  0.10910766  0.20329115  1
  I  I5  1  0.65945721  0.89089234  0.29670885  1
  I  I6  1  0.34054279  0.60910766  0.79670885  1
  I  I7  1  0.84054279  0.39089234  0.70329115  1
  I  I8  1  0.99531187  0.73323679  0.03306443  1
  I  I9  1  0.49531187  0.26676321  0.46693557  1
  I  I10  1  0.50468813  0.23323679  0.96693557  1
  I  I11  1  0.00468813  0.76676321  0.53306443  1
  I  I12  1  0.00468813  0.26676321  0.96693557  1
  I  I13  1  0.50468813  0.73323679  0.53306443  1
  I  I14  1  0.49531187  0.76676321  0.03306443  1
  I  I15  1  0.99531187  0.23323679  0.46693557  1
loop_
_geom_bond_atom_site_label_1
_geom_bond_atom_site_label_2
_geom_bond_distance
_geom_bond_site_symmetry_2
I0 Sr0 3.303888 1_555
I0 Sr7 3.305642 1_565
I0 Sr6 3.422801 1_655
I0 I8 4.080316 1_556
I0 I12 4.288078 1_665
I0 I7 4.390576 1_565
I0 I7 4.390576 1_555
I0 I11 4.412037 1_655
I0 I10 4.713687 1_565
I1 Sr1 3.303888 1_555
I1 Sr6 3.305642 1_545
I1 Sr7 3.422801 1_555
I1 I9 4.080316 1_555
I1 I13 4.288078 1_545
I1 I6 4.390576 1_545
I1 I6 4.390576 1_555
I1 I10 4.412037 1_555
I1 I11 4.713687 1_545
I2 Sr2 3.303888 1_555
I2 Sr5 3.305642 1_555
I2 Sr4 3.422801 1_555
I2 I5 4.390576 1_545
I2 I5 4.390576 1_555
I2 I9 4.412037 1_555
I2 I8 4.713687 1_555
I3 Sr3 3.303888 1_555
I3 Sr4 3.305642 1_555
I3 Sr5 3.422801 1_455
I3 I4 4.390576 1_565
I3 I4 4.390576 1_555
I3 I8 4.412037 1_455
I3 I9 4.713687 1_555
I4 Sr4 3.303888 1_555
I4 Sr3 3.305642 1_545
I4 Sr2 3.422801 1_455
I4 I8 4.288078 1_445
I5 Sr5 3.303888 1_555
I5 Sr2 3.305642 1_565
I5 Sr3 3.422801 1_555
I5 I9 4.288078 1_565
I6 Sr6 3.303888 1_555
I6 Sr1 3.305642 1_555
I6 Sr0 3.422801 1_555
I7 Sr7 3.303888 1_555
I7 Sr0 3.305642 1_555
I7 Sr1 3.422801 1_655
I8 Sr2 3.379116 1_565
I8 Sr6 3.395022 1_654
I8 Sr0 3.456762 1_554
I8 Sr4 3.461132 1_655
I9 Sr3 3.379116 1_545
I9 Sr7 3.395022 1_555
I9 Sr1 3.456762 1_555
I9 Sr5 3.461132 1_555
I10 Sr0 3.379116 1_555
I10 Sr4 3.395022 1_556
I10 Sr2 3.456762 1_556
I10 Sr6 3.461132 1_545
I10 I14 4.001331 1_546
I10 I12 4.006548 1_655
I10 I12 4.006548 1_555
I10 I2 4.080316 1_556
I10 I6 4.288078 1_555
I11 Sr1 3.379116 1_555
I11 Sr5 3.395022 1_455
I11 Sr3 3.456762 1_555
I11 Sr7 3.461132 1_465
I11 I15 4.001331 1_465
I11 I13 4.006548 1_455
I11 I13 4.006548 1_555
I11 I3 4.080316 1_555
I11 I7 4.288078 1_455
I12 Sr6 3.379116 1_545
I12 Sr2 3.395022 1_456
I12 Sr4 3.456762 1_556
I12 Sr0 3.461132 1_455
I12 I8 4.001331 1_456
I12 I4 4.080316 1_556
I12 I7 4.412037 1_455
I12 I6 4.713687 1_555
I13 Sr7 3.379116 1_565
I13 Sr3 3.395022 1_555
I13 Sr5 3.456762 1_555
I13 Sr1 3.461132 1_555
I13 I9 4.001331 1_555
I13 I5 4.080316 1_555
I13 I6 4.412037 1_555
I13 I7 4.713687 1_555
I14 Sr4 3.379116 1_555
I14 Sr0 3.395022 1_554
I14 Sr6 3.456762 1_554
I14 Sr2 3.461132 1_565
I14 I8 4.006548 1_455
I14 I8 4.006548 1_555
I14 I6 4.080316 1_554
I14 I2 4.288078 1_555
I14 I5 4.412037 1_555
I14 I4 4.713687 1_565
I15 Sr5 3.379116 1_555
I15 Sr1 3.395022 1_655
I15 Sr7 3.456762 1_555
I15 Sr3 3.461132 1_645
I15 I9 4.006548 1_555
I15 I9 4.006548 1_655
I15 I7 4.080316 1_555
I15 I3 4.288078 1_655
I15 I4 4.412037 1_655
I15 I5 4.713687 1_545
