# generated using pymatgen
data_MgTi2Mn2O6
_symmetry_space_group_name_H-M   'P 1'
_cell_length_a   5.91614518
_cell_length_b   5.92081853
_cell_length_c   5.92318729
_cell_angle_alpha   52.74860266
_cell_angle_beta   52.77826954
_cell_angle_gamma   52.79587595
_symmetry_Int_Tables_number   1
_chemical_formula_structural   MgTi2Mn2O6
_chemical_formula_sum   'Mg1 Ti2 Mn2 O6'
_cell_volume   121.84504374
_cell_formula_units_Z   1
loop_
 _symmetry_equiv_pos_site_id
 _symmetry_equiv_pos_as_xyz
  1  'x, y, z'
loop_
 _atom_site_type_symbol
 _atom_site_label
 _atom_site_symmetry_multiplicity
 _atom_site_fract_x
 _atom_site_fract_y
 _atom_site_fract_z
 _atom_site_occupancy
  Mg  Mg0  1  0.99995100  0.99987900  0.99991200  1
  Ti  Ti0  1  0.82413600  0.82465000  0.82351700  1
  Ti  Ti1  1  0.17580900  0.17543100  0.17652400  1
  Mn  Mn0  1  0.63394500  0.63360200  0.63383100  1
  Mn  Mn1  1  0.36683200  0.36694300  0.36674600  1
  O  O0  1  0.04841200  0.79177700  0.41192400  1
  O  O1  1  0.79207800  0.41191900  0.04834300  1
  O  O2  1  0.41203200  0.04898100  0.79174300  1
  O  O3  1  0.95079100  0.20843300  0.58800600  1
  O  O4  1  0.58777700  0.95041700  0.20858600  1
  O  O5  1  0.20823500  0.58796800  0.95086900  1
loop_
_geom_bond_atom_site_label_1
_geom_bond_atom_site_label_2
_geom_bond_distance
_geom_bond_site_symmetry_2
Mg0 O2 2.082024 1_665
Mg0 O0 2.082072 1_656
Mg0 O1 2.082938 1_566
Mg0 O4 2.082961 1_556
Mg0 O3 2.082995 1_565
Mg0 O5 2.083540 1_655
Mn0 O5 2.104622 1_555
Mn0 O3 2.104676 1_555
Mn0 O4 2.104851 1_555
Mn0 O0 2.450497 1_655
Mn0 O1 2.453307 1_556
Mn0 O2 2.457974 1_565
Mn1 O1 2.102162 1_555
Mn1 O2 2.102603 1_555
Mn1 O0 2.102887 1_555
Mn1 O3 2.461423 1_455
Mn1 O5 2.463652 1_554
Mn1 O4 2.466853 1_545
O0 Ti0 2.022542 1_455
O0 Ti1 2.153318 1_565
O1 Ti0 2.023932 1_554
O1 Ti1 2.155227 1_655
O2 Ti0 2.019937 1_545
O2 Ti1 2.157566 1_556
O3 Ti1 2.021728 1_655
O3 Ti0 2.151239 1_545
O4 Ti1 2.019449 1_565
O4 Ti0 2.156494 1_554
O5 Ti1 2.023233 1_556
O5 Ti0 2.153976 1_455
