# generated using pymatgen
data_CeScS3
_symmetry_space_group_name_H-M   'P 1'
_cell_length_a   6.52666540
_cell_length_b   7.18960587
_cell_length_c   9.59404885
_cell_angle_alpha   90.00000000
_cell_angle_beta   90.00000000
_cell_angle_gamma   90.00000000
_symmetry_Int_Tables_number   1
_chemical_formula_structural   CeScS3
_chemical_formula_sum   'Ce4 Sc4 S12'
_cell_volume   450.19260530
_cell_formula_units_Z   4
loop_
 _symmetry_equiv_pos_site_id
 _symmetry_equiv_pos_as_xyz
  1  'x, y, z'
loop_
 _atom_site_type_symbol
 _atom_site_label
 _atom_site_symmetry_multiplicity
 _atom_site_fract_x
 _atom_site_fract_y
 _atom_site_fract_z
 _atom_site_occupancy
  Ce  Ce0  1  0.96542175  0.90286997  0.75000000  1
  Ce  Ce1  1  0.46542175  0.59713003  0.25000000  1
  Ce  Ce2  1  0.53457825  0.40286997  0.75000000  1
  Ce  Ce3  1  0.03457825  0.09713003  0.25000000  1
  Sc  Sc0  1  0.50000000  0.00000000  0.50000000  1
  Sc  Sc1  1  0.00000000  0.50000000  0.50000000  1
  Sc  Sc2  1  0.00000000  0.50000000  0.00000000  1
  Sc  Sc3  1  0.50000000  0.00000000  0.00000000  1
  S  S0  1  0.82133544  0.18775329  0.56068065  1
  S  S1  1  0.32133544  0.31224671  0.43931935  1
  S  S2  1  0.67866456  0.68775329  0.93931935  1
  S  S3  1  0.17866456  0.81224671  0.06068065  1
  S  S4  1  0.17866456  0.81224671  0.43931935  1
  S  S5  1  0.67866456  0.68775329  0.56068065  1
  S  S6  1  0.32133544  0.31224671  0.06068065  1
  S  S7  1  0.82133544  0.18775329  0.93931935  1
  S  S8  1  0.62494507  0.96368052  0.25000000  1
  S  S9  1  0.12494507  0.53631948  0.75000000  1
  S  S10  1  0.87505493  0.46368052  0.25000000  1
  S  S11  1  0.37505493  0.03631948  0.75000000  1
loop_
_geom_bond_atom_site_label_1
_geom_bond_atom_site_label_2
_geom_bond_distance
_geom_bond_site_symmetry_2
Ce0 S9 2.833565 1_655
Ce0 S11 2.840485 1_665
Ce0 S7 2.894575 1_565
Ce0 S0 2.894575 1_565
Ce0 S5 3.032135 1_555
Ce0 S2 3.032135 1_555
Ce0 S4 3.353506 1_655
Ce0 S3 3.353506 1_656
Ce1 S8 2.833565 1_555
Ce1 S10 2.840485 1_555
Ce1 S1 2.894575 1_555
Ce1 S6 2.894575 1_555
Ce1 S4 3.032135 1_555
Ce1 S3 3.032135 1_555
Ce1 S5 3.353506 1_555
Ce1 S2 3.353506 1_554
Ce2 S11 2.833565 1_555
Ce2 S9 2.840485 1_555
Ce2 S2 2.894575 1_555
Ce2 S5 2.894575 1_555
Ce2 S7 3.032135 1_555
Ce2 S0 3.032135 1_555
Ce2 S1 3.353506 1_555
Ce2 S6 3.353506 1_556
Ce3 S10 2.833565 1_455
Ce3 S8 2.840485 1_445
Ce3 S3 2.894575 1_545
Ce3 S4 2.894575 1_545
Ce3 S1 3.032135 1_555
Ce3 S6 3.032135 1_555
Ce3 S7 3.353506 1_454
Ce3 S0 3.353506 1_455
S0 Sc0 2.561159 1_555
S0 Sc1 2.595841 1_655
S1 Sc1 2.561159 1_555
S1 Sc0 2.595841 1_555
S2 Sc2 2.561159 1_656
S2 Sc3 2.595841 1_566
S3 Sc3 2.561159 1_565
S3 Sc2 2.595841 1_555
S4 Sc0 2.561159 1_565
S4 Sc1 2.595841 1_555
S5 Sc1 2.561159 1_655
S5 Sc0 2.595841 1_565
S6 Sc2 2.561159 1_555
S6 Sc3 2.595841 1_555
S7 Sc3 2.561159 1_556
S7 Sc2 2.595841 1_656
S8 Sc0 2.546771 1_565
S8 Sc3 2.546771 1_565
S9 Sc2 2.546771 1_556
S9 Sc1 2.546771 1_555
S10 Sc2 2.546771 1_655
S10 Sc1 2.546771 1_655
S11 Sc0 2.546771 1_555
S11 Sc3 2.546771 1_556
