# generated using pymatgen
data_MgTi4Pb2O9F2
_symmetry_space_group_name_H-M   'P 1'
_cell_length_a   3.88810802
_cell_length_b   8.04522275
_cell_length_c   8.09306156
_cell_angle_alpha   87.04150374
_cell_angle_beta   76.11250479
_cell_angle_gamma   76.01598612
_symmetry_Int_Tables_number   1
_chemical_formula_structural   MgTi4Pb2O9F2
_chemical_formula_sum   'Mg1 Ti4 Pb2 O9 F2'
_cell_volume   238.46761916
_cell_formula_units_Z   1
loop_
 _symmetry_equiv_pos_site_id
 _symmetry_equiv_pos_as_xyz
  1  'x, y, z'
loop_
 _atom_site_type_symbol
 _atom_site_label
 _atom_site_symmetry_multiplicity
 _atom_site_fract_x
 _atom_site_fract_y
 _atom_site_fract_z
 _atom_site_occupancy
  Mg  Mg0  1  0.21160000  0.03063700  0.54577300  1
  Ti  Ti0  1  0.34549200  0.11859500  0.18982200  1
  Ti  Ti1  1  0.66839500  0.88491300  0.77801000  1
  Ti  Ti2  1  0.38932500  0.63690200  0.58352700  1
  Ti  Ti3  1  0.62381100  0.30250700  0.44944600  1
  Pb  Pb0  1  0.88058700  0.35093300  0.88841900  1
  Pb  Pb1  1  0.02681600  0.70827100  0.23518700  1
  O  O0  1  0.80530600  0.17506200  0.21384200  1
  O  O1  1  0.20610300  0.85447600  0.73294600  1
  O  O2  1  0.14915200  0.26303900  0.43823200  1
  O  O3  1  0.86805400  0.69712200  0.56609300  1
  O  O4  1  0.49931400  0.02834600  0.97239400  1
  O  O5  1  0.55122500  0.53905700  0.35800000  1
  O  O6  1  0.44133600  0.42859600  0.68807500  1
  O  O7  1  0.38250300  0.91645200  0.31798500  1
  O  O8  1  0.66090000  0.07054000  0.60735700  1
  F  F0  1  0.26826400  0.38428100  0.07913700  1
  F  F1  1  0.70515100  0.66027100  0.93075300  1
loop_
_geom_bond_atom_site_label_1
_geom_bond_atom_site_label_2
_geom_bond_distance
_geom_bond_site_symmetry_2
Mg0 O7 1.993919 1_545
Mg0 O2 2.006581 1_555
Mg0 O1 2.020194 1_545
Mg0 O8 2.026857 1_455
Mg0 O8 2.027000 1_555
O0 Ti0 2.001854 1_655
O0 Ti0 2.002223 1_555
O0 Ti3 2.095519 1_555
O0 Pb0 2.910213 1_554
O1 Ti1 1.989884 1_455
O1 Ti1 1.990072 1_555
O1 Ti2 2.058181 1_555
O2 Ti3 1.970183 1_555
O2 Ti3 1.970211 1_455
O2 Ti0 2.247354 1_555
O3 Ti2 2.004501 1_655
O3 Ti2 2.005485 1_555
O3 Ti1 2.210918 1_555
O3 Pb1 2.601810 1_655
O4 Ti0 1.843392 1_556
O4 Ti1 1.887570 1_545
O4 Pb0 3.251147 1_455
O4 Pb0 3.254030 1_555
O5 Ti2 1.924728 1_555
O5 Ti3 1.986062 1_555
O5 Pb1 2.540724 1_655
O5 Pb1 2.547585 1_555
O6 Ti2 1.826831 1_555
O6 Ti3 2.111574 1_555
O6 Pb0 2.574818 1_455
O6 Pb0 2.577799 1_555
O7 Ti0 1.877706 1_565
O7 Pb1 2.610018 1_655
O7 Pb1 2.616654 1_555
O8 Ti1 1.980898 1_545
O8 Ti3 2.202055 1_555
F0 Ti0 2.254501 1_555
F0 Pb0 2.466052 1_454
F0 Pb0 2.468301 1_554
F0 O0 2.754345 1_555
F0 O0 2.755852 1_455
F0 Pb1 2.803308 1_555
F0 O4 2.897053 1_554
F0 O2 2.981849 1_555
F0 O6 3.094123 1_554
F0 F1 3.131022 1_454
F0 F1 3.134673 1_554
F0 O5 3.162029 1_555
F0 O5 3.163607 1_455
F1 Ti1 2.131709 1_555
F1 Pb0 2.435497 1_555
F1 O3 2.881299 1_555
F1 O4 2.889845 1_565
F1 O1 2.917790 1_655
F1 O1 2.921746 1_555
F1 Pb1 3.097488 1_656
F1 Pb1 3.108408 1_556
