# generated using pymatgen
data_Mg(Ag2O3)2
_symmetry_space_group_name_H-M   'P 1'
_cell_length_a   5.88352266
_cell_length_b   5.88352266
_cell_length_c   5.88352266
_cell_angle_alpha   72.01585491
_cell_angle_beta   72.01585491
_cell_angle_gamma   72.01585491
_symmetry_Int_Tables_number   1
_chemical_formula_structural   Mg(Ag2O3)2
_chemical_formula_sum   'Mg1 Ag4 O6'
_cell_volume   179.04747879
_cell_formula_units_Z   1
loop_
 _symmetry_equiv_pos_site_id
 _symmetry_equiv_pos_as_xyz
  1  'x, y, z'
loop_
 _atom_site_type_symbol
 _atom_site_label
 _atom_site_symmetry_multiplicity
 _atom_site_fract_x
 _atom_site_fract_y
 _atom_site_fract_z
 _atom_site_occupancy
  Mg  Mg0  1  0.50000000  0.50000000  0.50000000  1
  Ag  Ag0  1  0.00000000  0.50000000  0.50000000  1
  Ag  Ag1  1  0.50000000  0.50000000  -0.00000000  1
  Ag  Ag2  1  0.50000000  0.00000000  0.50000000  1
  Ag  Ag3  1  0.00000000  0.00000000  -0.00000000  1
  O  O0  1  0.73771094  0.73771094  0.32554560  1
  O  O1  1  0.73771094  0.32554560  0.73771094  1
  O  O2  1  0.26228906  0.67445440  0.26228906  1
  O  O3  1  0.26228906  0.26228906  0.67445440  1
  O  O4  1  0.32554560  0.73771094  0.73771094  1
  O  O5  1  0.67445440  0.26228906  0.26228906  1
loop_
_geom_bond_atom_site_label_1
_geom_bond_atom_site_label_2
_geom_bond_distance
_geom_bond_site_symmetry_2
Mg0 O2 2.097744 1_555
Mg0 O5 2.097744 1_555
Mg0 O3 2.097744 1_555
Mg0 O0 2.097744 1_555
Mg0 O4 2.097744 1_555
Mg0 O1 2.097744 1_555
Ag0 O0 2.037119 1_455
Ag0 O3 2.037119 1_555
Ag0 O2 2.037119 1_555
Ag0 O1 2.037119 1_455
Ag1 O1 2.037119 1_554
Ag1 O2 2.037119 1_555
Ag1 O4 2.037119 1_554
Ag1 O5 2.037119 1_555
Ag2 O0 2.037119 1_545
Ag2 O5 2.037119 1_555
Ag2 O4 2.037119 1_545
Ag2 O3 2.037119 1_555
Ag3 O0 2.500314 1_445
Ag3 O4 2.500314 1_544
Ag3 O5 2.500314 1_455
Ag3 O3 2.500314 1_554
Ag3 O2 2.500314 1_545
Ag3 O1 2.500314 1_454
