# generated using pymatgen
data_NaTaSiSn(PO6)2
_symmetry_space_group_name_H-M   'P 1'
_cell_length_a   8.80538842
_cell_length_b   8.79033357
_cell_length_c   22.89775265
_cell_angle_alpha   90.22340503
_cell_angle_beta   90.00000000
_cell_angle_gamma   120.05667052
_symmetry_Int_Tables_number   1
_chemical_formula_structural   NaTaSiSn(PO6)2
_chemical_formula_sum   'Na6 Ta6 Si6 Sn6 P12 O72'
_cell_volume   1533.99756810
_cell_formula_units_Z   6
loop_
 _symmetry_equiv_pos_site_id
 _symmetry_equiv_pos_as_xyz
  1  'x, y, z'
loop_
 _atom_site_type_symbol
 _atom_site_label
 _atom_site_symmetry_multiplicity
 _atom_site_fract_x
 _atom_site_fract_y
 _atom_site_fract_z
 _atom_site_occupancy
  Na  Na0  1  0.00172350  0.00319282  0.49860611  1
  Na  Na1  1  0.00146932  0.00319282  0.99860611  1
  Na  Na2  1  0.66979776  0.33590871  0.83193739  1
  Na  Na3  1  0.66611195  0.33590871  0.33193739  1
  Na  Na4  1  0.33454799  0.66497650  0.16519945  1
  Na  Na5  1  0.33042751  0.66497650  0.66519945  1
  Ta  Ta0  1  0.00043123  0.99985334  0.64540769  1
  Ta  Ta1  1  0.99942210  0.99985334  0.14540769  1
  Ta  Ta2  1  0.66487736  0.33290949  0.97871160  1
  Ta  Ta3  1  0.66803313  0.33290949  0.47871160  1
  Ta  Ta4  1  0.33803669  0.66356846  0.31192807  1
  Ta  Ta5  1  0.32553078  0.66356846  0.81192807  1
  Si  Si0  1  0.71358199  0.71000601  0.24989609  1
  Si  Si1  1  0.99642401  0.71000601  0.74989609  1
  Si  Si2  1  0.95863044  0.33600782  0.58319626  1
  Si  Si3  1  0.37737838  0.33600782  0.08319626  1
  Si  Si4  1  0.04287274  0.37366340  0.91667106  1
  Si  Si5  1  0.33078965  0.37366340  0.41667106  1
  Sn  Sn0  1  0.00019502  0.99918490  0.35248871  1
  Sn  Sn1  1  0.99898988  0.99918490  0.85248871  1
  Sn  Sn2  1  0.67179017  0.33620789  0.68587072  1
  Sn  Sn3  1  0.66441873  0.33620789  0.18587072  1
  Sn  Sn4  1  0.33234672  0.66197426  0.01923522  1
  Sn  Sn5  1  0.32962654  0.66197426  0.51923522  1
  P  P0  1  0.29017705  0.00083225  0.24978403  1
  P  P1  1  0.99703964  0.28786799  0.24963462  1
  P  P2  1  0.29082835  0.28786799  0.74963462  1
  P  P3  1  0.71065520  0.00083225  0.74978403  1
  P  P4  1  0.37982520  0.04475387  0.58331913  1
  P  P5  1  0.66450882  0.62108267  0.58342712  1
  P  P6  1  0.95657485  0.62108267  0.08342712  1
  P  P7  1  0.66492967  0.04475387  0.08331913  1
  P  P8  1  0.62208676  0.66859233  0.91655220  1
  P  P9  1  0.33167859  0.95325408  0.91715739  1
  P  P10  1  0.62157449  0.95325408  0.41715739  1
  P  P11  1  0.04650457  0.66859233  0.41655220  1
  O  O0  1  0.21272737  0.03550901  0.30472953  1
  O  O1  1  0.82833383  0.79433761  0.30796312  1
  O  O2  1  0.96651324  0.17873131  0.30482498  1
  O  O3  1  0.21221807  0.17873131  0.80482498  1
  O  O4  1  0.96600379  0.79433761  0.80796312  1
  O  O5  1  0.82278164  0.03550901  0.80472953  1
  O  O6  1  0.79889920  0.96995140  0.69519460  1
  O  O7  1  0.17148941  0.20361706  0.69509948  1
  O  O8  1  0.03213349  0.83604279  0.69265900  1
  O  O9  1  0.80390930  0.83604279  0.19265900  1
  O  O10  1  0.03212765  0.20361706  0.19509948  1
  O  O11  1  0.17105220  0.96995140  0.19519460  1
  O  O12  1  0.87386290  0.36768525  0.64044459  1
  O  O13  1  0.48781073  0.12306103  0.63860875  1
  O  O14  1  0.63008593  0.51022647  0.63801880  1
  O  O15  1  0.88014155  0.51022647  0.13801880  1
  O  O16  1  0.63525130  0.12306103  0.13860875  1
  O  O17  1  0.49382334  0.36768525  0.14044459  1
  O  O18  1  0.47030817  0.30107865  0.02572119  1
  O  O19  1  0.83804949  0.53528309  0.02864397  1
  O  O20  1  0.69843620  0.16264471  0.02849057  1
  O  O21  1  0.46420951  0.16264471  0.52849057  1
  O  O22  1  0.69723460  0.53528309  0.52864397  1
  O  O23  1  0.83077147  0.30107865  0.52572119  1
  O  O24  1  0.54654498  0.70268976  0.97145690  1
  O  O25  1  0.16006518  0.45825363  0.97367966  1
  O  O26  1  0.30228509  0.84496569  0.97194078  1
  O  O27  1  0.54267960  0.84496569  0.47194078  1
  O  O28  1  0.29818745  0.45825363  0.47367966  1
  O  O29  1  0.15614378  0.70268976  0.47145690  1
  O  O30  1  0.13048739  0.63596755  0.36174243  1
  O  O31  1  0.50342309  0.86945819  0.36204420  1
  O  O32  1  0.36447914  0.50185731  0.35921629  1
  O  O33  1  0.13737717  0.50185731  0.85921629  1
  O  O34  1  0.36603410  0.86945819  0.86204420  1
  O  O35  1  0.50547916  0.63596755  0.86174243  1
  O  O36  1  0.02163676  0.82807805  0.41038382  1
  O  O37  1  0.80441377  0.97666266  0.41014654  1
  O  O38  1  0.16043237  0.18130604  0.40925171  1
  O  O39  1  0.02087367  0.18130604  0.90925171  1
  O  O40  1  0.17224890  0.97666266  0.91014654  1
  O  O41  1  0.80644129  0.82807805  0.91038382  1
  O  O42  1  0.97531302  0.15790228  0.59186515  1
  O  O43  1  0.19479698  0.02708486  0.59084617  1
  O  O44  1  0.83349541  0.80550254  0.59100726  1
  O  O45  1  0.97200713  0.80550254  0.09100726  1
  O  O46  1  0.83228787  0.02708486  0.09084617  1
  O  O47  1  0.18258927  0.15790228  0.09186515  1
  O  O48  1  0.68554227  0.15889088  0.74316324  1
  O  O49  1  0.47216657  0.30841191  0.74201693  1
  O  O50  1  0.82702338  0.51679443  0.74470005  1
  O  O51  1  0.68977205  0.51679443  0.24470005  1
  O  O52  1  0.83624634  0.30841191  0.24201693  1
  O  O53  1  0.47334961  0.15889088  0.24316324  1
  O  O54  1  0.63949888  0.50025706  0.92459705  1
  O  O55  1  0.84942075  0.35755411  0.92501824  1
  O  O56  1  0.50015386  0.13860246  0.92419528  1
  O  O57  1  0.63844960  0.13860246  0.42419528  1
  O  O58  1  0.50813436  0.35755411  0.42501824  1
  O  O59  1  0.86075918  0.50025706  0.42459705  1
  O  O60  1  0.35633557  0.50701751  0.07774579  1
  O  O61  1  0.14066757  0.64848799  0.07644412  1
  O  O62  1  0.50353076  0.86228917  0.07567051  1
  O  O63  1  0.35875742  0.86228917  0.57567051  1
  O  O64  1  0.50781942  0.64848799  0.57644412  1
  O  O65  1  0.15068094  0.50701751  0.57774579  1
  O  O66  1  0.30394556  0.83197177  0.25761061  1
  O  O67  1  0.51800074  0.69444868  0.25818486  1
  O  O68  1  0.16361478  0.47354028  0.25765095  1
  O  O69  1  0.30992450  0.47354028  0.75765095  1
  O  O70  1  0.17644694  0.69444868  0.75818486  1
  O  O71  1  0.52802522  0.83197177  0.75761061  1
loop_
_geom_bond_atom_site_label_1
_geom_bond_atom_site_label_2
_geom_bond_distance
_geom_bond_site_symmetry_2
Na0 O38 2.534505 1_555
Na0 O36 2.593673 1_545
Na0 O42 2.599563 1_455
Na0 O37 2.601174 1_445
Na0 O43 2.652208 1_555
Na0 O44 2.672213 1_445
Na1 O39 2.534505 1_555
Na1 O41 2.593673 1_445
Na1 O47 2.599563 1_556
Na1 O40 2.601174 1_545
Na1 O46 2.652208 1_456
Na1 O45 2.672213 1_446
Na2 O50 2.500950 1_555
Na2 O48 2.600752 1_555
Na2 O55 2.603041 1_555
Na2 O49 2.626965 1_555
Na2 O54 2.649917 1_555
Na2 O56 2.671230 1_555
Na3 O51 2.500950 1_555
Na3 O53 2.600752 1_555
Na3 O58 2.603041 1_555
Na3 O52 2.626965 1_555
Na3 O59 2.649917 1_555
Na3 O57 2.671230 1_555
Na4 O60 2.493973 1_555
Na4 O67 2.605061 1_555
Na4 O61 2.610668 1_555
Na4 O62 2.620571 1_555
Na4 O68 2.658801 1_555
Na4 O66 2.660259 1_555
Na5 O65 2.493973 1_555
Na5 O70 2.605061 1_555
Na5 O64 2.610668 1_555
Na5 O63 2.620571 1_555
Na5 O69 2.658801 1_555
Na5 O71 2.660259 1_555
O0 P0 1.531710 1_555
O0 Sn0 2.050431 1_545
O1 Si0 1.606346 1_555
O1 Sn0 1.956534 1_655
O2 P1 1.529957 1_555
O2 Sn0 2.062126 1_645
O3 P2 1.529957 1_555
O3 Sn1 2.062126 1_445
O4 Si1 1.606346 1_555
O4 Sn1 1.956534 1_555
O5 P3 1.531710 1_555
O5 Sn1 2.050431 1_545
O6 P3 1.564778 1_565
O6 Ta0 2.013180 1_655
O7 P2 1.557327 1_555
O7 Ta0 2.013260 1_545
O8 Si1 1.645102 1_455
O8 Ta0 1.933079 1_555
O9 Si0 1.645102 1_555
O9 Ta1 1.933079 1_555
O10 P1 1.557327 1_455
O10 Ta1 2.013260 1_445
O11 P0 1.564778 1_565
O11 Ta1 2.013180 1_455
O12 Si2 1.599490 1_555
O12 Sn2 1.957949 1_555
O13 P4 1.522592 1_555
O13 Sn2 2.061494 1_555
O14 P5 1.522382 1_555
O14 Sn2 2.061821 1_555
O15 P6 1.522382 1_555
O15 Sn3 2.061821 1_555
O16 P7 1.522592 1_555
O16 Sn3 2.061494 1_555
O17 Si3 1.599490 1_555
O17 Sn3 1.957949 1_555
O18 Si3 1.656614 1_555
O18 Ta2 1.922072 1_554
O19 P6 1.560686 1_555
O19 Ta2 2.015906 1_554
O20 P7 1.562369 1_555
O20 Ta2 2.020623 1_554
O21 P4 1.562369 1_555
O21 Ta3 2.020623 1_555
O22 P5 1.560686 1_555
O22 Ta3 2.015906 1_555
O23 Si2 1.656614 1_555
O23 Ta3 1.922072 1_555
O24 P8 1.519739 1_555
O24 Sn4 2.051632 1_556
O25 Si4 1.595482 1_555
O25 Sn4 1.964800 1_556
O26 P9 1.519594 1_555
O26 Sn4 2.066489 1_556
O27 P10 1.519594 1_555
O27 Sn5 2.066489 1_555
O28 Si5 1.595482 1_555
O28 Sn5 1.964800 1_555
O29 P11 1.519739 1_555
O29 Sn5 2.051632 1_555
O30 P11 1.553646 1_555
O30 Ta4 2.063458 1_555
O31 P10 1.562885 1_555
O31 Ta4 2.014151 1_555
O32 Si5 1.662919 1_555
O32 Ta4 1.894953 1_555
O33 Si4 1.662919 1_555
O33 Ta5 1.894953 1_555
O34 P9 1.562885 1_555
O34 Ta5 2.014151 1_555
O35 P8 1.553646 1_555
O35 Ta5 2.063458 1_555
O36 P11 1.530479 1_555
O36 Sn0 2.086942 1_555
O37 P10 1.525951 1_555
O37 Sn0 2.101024 1_655
O38 Si5 1.610939 1_555
O38 Sn0 1.991011 1_545
O39 Si4 1.610942 1_555
O39 Sn1 1.991011 1_445
O40 P9 1.525942 1_555
O40 Sn1 2.101024 1_455
O41 P8 1.530484 1_555
O41 Sn1 2.086942 1_555
O42 Si2 1.656776 1_555
O42 Ta0 1.950194 1_645
O43 P4 1.566843 1_555
O43 Ta0 2.034504 1_545
O44 P5 1.566437 1_555
O44 Ta0 2.024564 1_655
O45 P6 1.566441 1_555
O45 Ta1 2.024564 1_555
O46 P7 1.566834 1_555
O46 Ta1 2.034504 1_545
O47 Si3 1.656781 1_555
O47 Ta1 1.950194 1_445
O48 P3 1.520422 1_555
O48 Sn2 2.090490 1_555
O49 P2 1.524486 1_555
O49 Sn2 2.091527 1_555
O50 Si1 1.607600 1_555
O50 Sn2 2.003155 1_555
O51 Si0 1.607604 1_555
O51 Sn3 2.003155 1_555
O52 P1 1.524477 1_555
O52 Sn3 2.091527 1_555
O53 P0 1.520427 1_555
O53 Sn3 2.090490 1_555
O54 P8 1.573660 1_555
O54 Ta2 2.023062 1_555
O55 Si4 1.648274 1_655
O55 Ta2 1.961757 1_555
O56 P9 1.567816 1_545
O56 Ta2 2.020183 1_555
O57 P10 1.567809 1_545
O57 Ta3 2.020183 1_555
O58 Si5 1.648291 1_555
O58 Ta3 1.961757 1_555
O59 P11 1.573650 1_655
O59 Ta3 2.023062 1_555
O60 Si3 1.609376 1_555
O60 Sn4 1.999350 1_555
O61 P6 1.523284 1_455
O61 Sn4 2.092730 1_555
O62 P7 1.528869 1_565
O62 Sn4 2.089506 1_555
O63 P4 1.528862 1_565
O63 Sn5 2.089506 1_555
O64 P5 1.523301 1_555
O64 Sn5 2.092730 1_555
O65 Si2 1.609365 1_455
O65 Sn5 1.999350 1_555
O66 P0 1.559622 1_565
O66 Ta4 2.070715 1_555
O67 Si0 1.668794 1_555
O67 Ta4 1.915960 1_555
O68 P1 1.564778 1_455
O68 Ta4 2.026731 1_555
O69 P2 1.564781 1_555
O69 Ta5 2.026731 1_555
O70 Si1 1.668786 1_455
O70 Ta5 1.915960 1_555
O71 P3 1.559627 1_565
O71 Ta5 2.070715 1_555
