# generated using pymatgen
data_Na18Ca20Ta4Si3(S11O48)3
_symmetry_space_group_name_H-M   'P 1'
_cell_length_a   18.41268734
_cell_length_b   9.21188393
_cell_length_c   23.75170871
_cell_angle_alpha   90.01310627
_cell_angle_beta   90.45921652
_cell_angle_gamma   119.85720682
_symmetry_Int_Tables_number   1
_chemical_formula_structural   Na18Ca20Ta4Si3(S11O48)3
_chemical_formula_sum   'Na18 Ca20 Ta4 Si3 S33 O144'
_cell_volume   3493.77665217
_cell_formula_units_Z   1
loop_
 _symmetry_equiv_pos_site_id
 _symmetry_equiv_pos_as_xyz
  1  'x, y, z'
loop_
 _atom_site_type_symbol
 _atom_site_label
 _atom_site_symmetry_multiplicity
 _atom_site_fract_x
 _atom_site_fract_y
 _atom_site_fract_z
 _atom_site_occupancy
  Na  Na0  1  0.31919789  0.99953479  0.25708319  1
  Na  Na1  1  0.81879584  -0.00003733  0.24933735  1
  Na  Na2  1  0.17936137  0.36094439  0.26557539  1
  Na  Na3  1  0.68162538  0.36401151  0.26175347  1
  Na  Na4  1  0.68009500  0.99686045  0.75132996  1
  Na  Na5  1  0.99025098  0.68693245  0.92638199  1
  Na  Na6  1  0.01300845  0.03183044  0.49290099  1
  Na  Na7  1  0.51357293  0.03264310  0.49312228  1
  Na  Na8  1  0.99797308  0.99698968  0.00172827  1
  Na  Na9  1  0.51384745  0.01317056  0.00095107  1
  Na  Na10  1  0.33685518  0.34714445  0.82568325  1
  Na  Na11  1  0.82660951  0.32558155  0.83629752  1
  Na  Na12  1  0.33588539  0.35746453  0.33921974  1
  Na  Na13  1  0.83578688  0.35776453  0.33589223  1
  Na  Na14  1  0.14802387  0.66256917  0.16853670  1
  Na  Na15  1  0.66554931  0.66630263  0.16179155  1
  Na  Na16  1  0.16502761  0.65585510  0.65491416  1
  Na  Na17  1  0.66449031  0.64513111  0.66531562  1
  Ca  Ca0  1  0.00297105  0.99964462  0.35418899  1
  Ca  Ca1  1  0.50459325  0.00044691  0.35430135  1
  Ca  Ca2  1  0.99911240  0.00556897  0.84834373  1
  Ca  Ca3  1  0.50152742  0.00123260  0.85163614  1
  Ca  Ca4  1  0.00185388  0.00873732  0.64596756  1
  Ca  Ca5  1  0.49649489  0.99789486  0.64379410  1
  Ca  Ca6  1  0.00075124  0.99306414  0.14759711  1
  Ca  Ca7  1  0.50049858  0.99325924  0.14616454  1
  Ca  Ca8  1  0.33349457  0.33355507  0.68535662  1
  Ca  Ca9  1  0.83825134  0.34116471  0.68428712  1
  Ca  Ca10  1  0.33944987  0.34769444  0.18325146  1
  Ca  Ca11  1  0.83514996  0.34168904  0.17820683  1
  Ca  Ca12  1  0.82813683  0.32545194  0.98616508  1
  Ca  Ca13  1  0.16520184  0.66819310  0.01963652  1
  Ca  Ca14  1  0.67284107  0.67298733  0.01610178  1
  Ca  Ca15  1  0.16567327  0.65823799  0.51411213  1
  Ca  Ca16  1  0.66536135  0.65751197  0.51550759  1
  Ca  Ca17  1  0.16323873  0.65204131  0.33060104  1
  Ca  Ca18  1  0.66443448  0.65297844  0.32980787  1
  Ca  Ca19  1  0.66330641  0.65388405  0.81946317  1
  Ta  Ta0  1  0.32812559  0.32238503  0.98010434  1
  Ta  Ta1  1  0.32985858  0.33262441  0.48252525  1
  Ta  Ta2  1  0.82978878  0.33292526  0.48277005  1
  Ta  Ta3  1  0.17104934  0.67855952  0.81881844  1
  Si  Si0  1  0.16648141  0.96159877  0.91905391  1
  Si  Si1  1  0.16503039  0.35582101  0.41557541  1
  Si  Si2  1  0.66481888  0.35647701  0.41569436  1
  S  S0  1  0.15302447  0.99981573  0.24903620  1
  S  S1  1  0.65211726  0.99792695  0.24877321  1
  S  S2  1  0.34682563  0.70320564  0.24966418  1
  S  S3  1  0.84746404  0.70080285  0.25055610  1
  S  S4  1  0.00055767  0.29841001  0.24892800  1
  S  S5  1  0.49974347  0.29460836  0.24948759  1
  S  S6  1  0.15231904  0.31736875  0.75391817  1
  S  S7  1  0.64853958  0.29553299  0.74903891  1
  S  S8  1  0.00733982  0.69982671  0.75587052  1
  S  S9  1  0.50100117  0.70297283  0.74992457  1
  S  S10  1  0.34480351  0.98987160  0.75448945  1
  S  S11  1  0.84616496  0.99583650  0.74881979  1
  S  S12  1  0.47686030  0.33149809  0.58217800  1
  S  S13  1  0.97891908  0.33347791  0.58144421  1
  S  S14  1  0.18950442  0.04577008  0.58129824  1
  S  S15  1  0.68913876  0.04555287  0.58211497  1
  S  S16  1  0.33488510  0.62258048  0.58132837  1
  S  S17  1  0.83667498  0.62630200  0.58142196  1
  S  S18  1  0.47639175  0.62371453  0.07615546  1
  S  S19  1  0.98681677  0.63825361  0.08044583  1
  S  S20  1  0.33589669  0.04911252  0.08067847  1
  S  S21  1  0.83406280  0.02846481  0.08606777  1
  S  S22  1  0.18932283  0.33019104  0.07981021  1
  S  S23  1  0.67874621  0.33357618  0.08533809  1
  S  S24  1  0.31068990  0.65375075  0.91763911  1
  S  S25  1  0.81962896  0.66399489  0.91652468  1
  S  S26  1  0.02352290  0.38533758  0.91276943  1
  S  S27  1  0.50969072  0.36288532  0.92177070  1
  S  S28  1  0.66701776  0.97046905  0.91422031  1
  S  S29  1  0.31844010  0.98176983  0.41918160  1
  S  S30  1  0.81808008  0.98128075  0.41975456  1
  S  S31  1  0.00804088  0.65443289  0.42196689  1
  S  S32  1  0.50837807  0.65438528  0.42180014  1
  O  O0  1  0.11024074  0.01545705  0.29870762  1
  O  O1  1  0.60945942  0.01440544  0.29847884  1
  O  O2  1  0.39593658  0.78527492  0.30049822  1
  O  O3  1  0.89551723  0.78161756  0.30196182  1
  O  O4  1  0.48985553  0.19217467  0.29973898  1
  O  O5  1  0.99155863  0.19628201  0.29912997  1
  O  O6  1  0.11046334  0.21191628  0.80239869  1
  O  O7  1  0.60695891  0.19995807  0.80043636  1
  O  O8  1  0.49376673  0.78537422  0.80110584  1
  O  O9  1  0.99733052  0.77693785  0.80678479  1
  O  O10  1  0.39660438  0.01151238  0.80377781  1
  O  O11  1  0.89305819  0.00840438  0.80065085  1
  O  O12  1  0.37653153  0.96013663  0.70201685  1
  O  O13  1  0.89063133  0.98618525  0.69861149  1
  O  O14  1  0.10394559  0.25330691  0.70123212  1
  O  O15  1  0.59884463  0.20880936  0.69814206  1
  O  O16  1  0.02451508  0.80232490  0.70519766  1
  O  O17  1  0.50629092  0.80156047  0.69919465  1
  O  O18  1  0.38928317  0.79663418  0.19822855  1
  O  O19  1  0.89067998  0.79815971  0.19990652  1
  O  O20  1  0.01132482  0.21809863  0.19788886  1
  O  O21  1  0.50677958  0.21106929  0.19822121  1
  O  O22  1  0.10637361  0.98612831  0.19677646  1
  O  O23  1  0.60394139  0.98077061  0.19677242  1
  O  O24  1  0.43543697  0.33550455  0.63411450  1
  O  O25  1  0.93811284  0.33928493  0.63337950  1
  O  O26  1  0.23435332  0.12553678  0.63342348  1
  O  O27  1  0.73187915  0.12162166  0.63573708  1
  O  O28  1  0.32956633  0.53191123  0.63293823  1
  O  O29  1  0.83061598  0.53548242  0.63331808  1
  O  O30  1  0.43908399  0.53598583  0.12871885  1
  O  O31  1  0.93793134  0.54165381  0.12929832  1
  O  O32  1  0.33086245  0.12757229  0.13295721  1
  O  O33  1  0.83096238  0.10848462  0.13981782  1
  O  O34  1  0.23348129  0.33777993  0.13191792  1
  O  O35  1  0.72196499  0.34086318  0.13926869  1
  O  O36  1  0.24333012  0.32793594  0.02937596  1
  O  O37  1  0.72679748  0.32799122  0.03664308  1
  O  O38  1  0.41934170  0.51620115  0.02702860  1
  O  O39  1  0.94478250  0.55538337  0.02644142  1
  O  O40  1  0.33551873  0.16084210  0.03070104  1
  O  O41  1  0.83708238  0.12978994  0.03701345  1
  O  O42  1  0.24236025  0.15485332  0.53152552  1
  O  O43  1  0.74474269  0.15958189  0.53392216  1
  O  O44  1  0.33586302  0.51607440  0.53138634  1
  O  O45  1  0.83834104  0.51939213  0.53176129  1
  O  O46  1  0.42391003  0.32902201  0.53208808  1
  O  O47  1  0.92616757  0.33004133  0.53148716  1
  O  O48  1  0.27246676  0.67362583  0.96774592  1
  O  O49  1  0.77717383  0.67141629  0.96758247  1
  O  O50  1  0.06923252  0.45485610  0.96520367  1
  O  O51  1  0.56344965  0.44734312  0.96991646  1
  O  O52  1  0.15126597  0.84278886  0.97054155  1
  O  O53  1  0.66366749  0.86808835  0.96272303  1
  O  O54  1  0.27179065  0.87516662  0.46581424  1
  O  O55  1  0.77192459  0.87462235  0.46651309  1
  O  O56  1  0.15912534  0.46764678  0.46425433  1
  O  O57  1  0.65902132  0.46804617  0.46457875  1
  O  O58  1  0.06249071  0.68431350  0.47024605  1
  O  O59  1  0.56258179  0.68409645  0.47020344  1
  O  O60  1  0.03913653  0.61891559  0.36960446  1
  O  O61  1  0.53919090  0.61846489  0.36947286  1
  O  O62  1  0.27169400  0.92640187  0.36467667  1
  O  O63  1  0.77138486  0.92644542  0.36544806  1
  O  O64  1  0.18810540  0.44711149  0.35402481  1
  O  O65  1  0.68755069  0.44562486  0.35377968  1
  O  O66  1  0.07919875  0.50122548  0.86414541  1
  O  O67  1  0.53881171  0.45677116  0.86891439  1
  O  O68  1  0.18482203  0.85885499  0.86315017  1
  O  O69  1  0.66854202  0.88975586  0.86008778  1
  O  O70  1  0.25579064  0.62971738  0.86578320  1
  O  O71  1  0.77063890  0.65027003  0.86541371  1
  O  O72  1  0.98822672  0.78891141  0.41533851  1
  O  O73  1  0.48803078  0.78808866  0.41516057  1
  O  O74  1  0.40248377  0.00380542  0.41522112  1
  O  O75  1  0.90249832  0.00439848  0.41563734  1
  O  O76  1  0.09162129  0.16362614  0.41640243  1
  O  O77  1  0.59148788  0.16409263  0.41701580  1
  O  O78  1  0.00904531  0.21710389  0.90378994  1
  O  O79  1  0.49232034  0.18952959  0.91708859  1
  O  O80  1  0.08762652  0.98318709  0.90603403  1
  O  O81  1  0.59163070  0.99164064  0.91609484  1
  O  O82  1  0.39461548  0.79378399  0.90847700  1
  O  O83  1  0.90504619  0.81720246  0.91527382  1
  O  O84  1  0.48188173  0.17586860  0.57865400  1
  O  O85  1  0.98476906  0.17853158  0.57862632  1
  O  O86  1  0.10803494  0.04047544  0.57800576  1
  O  O87  1  0.60794313  0.04033525  0.57731841  1
  O  O88  1  0.41330473  0.78409428  0.57800799  1
  O  O89  1  0.91567550  0.78773579  0.57932119  1
  O  O90  1  0.47846538  0.78600095  0.07333024  1
  O  O91  1  0.99626034  0.80820912  0.08064608  1
  O  O92  1  0.41390920  0.04520184  0.07569325  1
  O  O93  1  0.91034323  0.01126195  0.08479044  1
  O  O94  1  0.10830400  0.17608535  0.07456079  1
  O  O95  1  0.59474333  0.17893429  0.08318639  1
  O  O96  1  0.32577181  0.12729532  0.75060706  1
  O  O97  1  0.83387719  0.14551566  0.74682978  1
  O  O98  1  0.23827833  0.34391639  0.74982346  1
  O  O99  1  0.73208477  0.30325848  0.74742855  1
  O  O100  1  0.42843196  0.52987860  0.74748031  1
  O  O101  1  0.93720739  0.52875658  0.74935077  1
  O  O102  1  0.33060454  0.52655549  0.24715262  1
  O  O103  1  0.83219833  0.52525412  0.24729320  1
  O  O104  1  0.42218641  0.30928685  0.24603722  1
  O  O105  1  0.92298416  0.31127289  0.24440003  1
  O  O106  1  0.23857001  0.15704770  0.24729913  1
  O  O107  1  0.73718292  0.15596853  0.24653911  1
  O  O108  1  0.31612306  0.49254320  0.92259087  1
  O  O109  1  0.83358046  0.51662777  0.91797683  1
  O  O110  1  0.42252581  0.35016888  0.93207865  1
  O  O111  1  0.94549961  0.39378521  0.90908830  1
  O  O112  1  0.25404891  0.15141778  0.92962185  1
  O  O113  1  0.74395721  0.13911469  0.91654360  1
  O  O114  1  0.32934414  0.15703450  0.43071024  1
  O  O115  1  0.82911238  0.15675917  0.43171425  1
  O  O116  1  0.25502262  0.34333992  0.43372857  1
  O  O117  1  0.75466768  0.34314930  0.43449744  1
  O  O118  1  0.42298005  0.49278597  0.43243170  1
  O  O119  1  0.92296084  0.49320249  0.43243082  1
  O  O120  1  0.18300633  0.48152227  0.07425031  1
  O  O121  1  0.66882410  0.48413388  0.08284945  1
  O  O122  1  0.07066998  0.65105127  0.08535166  1
  O  O123  1  0.55972870  0.64286250  0.07021084  1
  O  O124  1  0.26184336  0.88349037  0.07464074  1
  O  O125  1  0.75763650  0.85987340  0.08363936  1
  O  O126  1  0.18095928  0.87964574  0.57564187  1
  O  O127  1  0.68137013  0.88084237  0.57539197  1
  O  O128  1  0.26125040  0.64388958  0.57641405  1
  O  O129  1  0.76307239  0.64656411  0.57578586  1
  O  O130  1  0.06262450  0.48439458  0.57911496  1
  O  O131  1  0.56039312  0.48181573  0.57975912  1
  O  O132  1  0.16739663  0.85402947  0.25316153  1
  O  O133  1  0.66724379  0.85336174  0.25353486  1
  O  O134  1  0.26285110  0.69467884  0.25172034  1
  O  O135  1  0.76315478  0.69161385  0.25207127  1
  O  O136  1  0.07670642  0.46849217  0.25400212  1
  O  O137  1  0.57593597  0.46325152  0.25396157  1
  O  O138  1  0.16152895  0.49106056  0.76468509  1
  O  O139  1  0.66037554  0.46695642  0.75131927  1
  O  O140  1  0.08728412  0.68220407  0.76586068  1
  O  O141  1  0.58082507  0.69593326  0.75235690  1
  O  O142  1  0.25939492  0.82581929  0.76449388  1
  O  O143  1  0.75962343  0.84557960  0.74991055  1
loop_
_geom_bond_atom_site_label_1
_geom_bond_atom_site_label_2
_geom_bond_distance
_geom_bond_site_symmetry_2
Na0 O132 2.425532 1_555
Na0 O134 2.464927 1_555
Na0 O104 2.535244 1_565
Na0 O106 2.550053 1_565
Na0 O62 2.683197 1_555
Na0 O4 2.906109 1_565
Na0 O18 3.089048 1_555
Na0 O2 3.116054 1_555
Na0 O32 3.144629 1_565
Na1 O133 2.423392 1_545
Na1 O135 2.495148 1_545
Na1 O105 2.538510 1_555
Na1 O107 2.544900 1_555
Na1 O33 2.757490 1_555
Na1 O63 2.876999 1_545
Na1 O5 2.999826 1_555
Na1 O19 3.009970 1_545
Na1 O3 3.225742 1_545
Na2 O64 2.221714 1_555
Na2 O102 2.462459 1_555
Na2 O136 2.546778 1_555
Na2 O106 2.636456 1_555
Na2 O134 2.688099 1_555
Na2 O0 2.890008 1_555
Na2 O20 3.123229 1_555
Na3 O65 2.295325 1_555
Na3 O103 2.434326 1_555
Na3 O137 2.534297 1_555
Na3 O107 2.609120 1_555
Na3 O135 2.628471 1_555
Na3 O1 2.942336 1_555
Na3 O35 3.041841 1_555
Na3 O21 3.167248 1_555
Na4 O141 2.445776 1_555
Na4 O97 2.459364 1_565
Na4 O143 2.473883 1_555
Na4 O99 2.490540 1_565
Na4 O69 2.737251 1_555
Na4 O27 2.953004 1_565
Na4 O7 3.034279 1_565
Na4 O17 3.035503 1_555
Na4 O8 3.220976 1_555
Na4 O15 3.244268 1_565
Na5 O83 2.416407 1_555
Na5 O111 2.432815 1_555
Na5 O80 2.457354 1_655
Na5 O109 2.511425 1_555
Na5 O39 2.615455 1_556
Na5 O52 2.768088 1_655
Na5 O9 2.945005 1_555
Na5 O66 3.259027 1_655
Na6 O76 2.272437 1_555
Na6 O85 2.637760 1_455
Na6 O86 2.637850 1_555
Na6 O75 2.645739 1_455
Na6 O72 2.752730 1_445
Na6 O89 2.920596 1_445
Na7 O77 2.259412 1_555
Na7 O87 2.616325 1_555
Na7 O84 2.644367 1_555
Na7 O74 2.660089 1_555
Na7 O73 2.766662 1_545
Na7 O88 2.927235 1_545
Na8 O94 2.539022 1_665
Na8 O91 2.546867 1_555
Na8 O93 2.602884 1_565
Na8 O83 2.647220 1_554
Na8 O80 2.859415 1_654
Na8 O78 3.026942 1_664
Na9 O95 2.460246 1_555
Na9 O90 2.534012 1_545
Na9 O81 2.545899 1_544
Na9 O92 2.686526 1_555
Na9 O79 2.719190 1_554
Na9 O82 3.038305 1_544
Na10 O100 2.520400 1_555
Na10 O98 2.536856 1_555
Na10 O96 2.627536 1_555
Na10 O108 2.785567 1_555
Na10 O110 2.960989 1_555
Na10 O112 2.999219 1_555
Na10 O67 3.478674 1_555
Na11 O113 2.518832 1_555
Na11 O109 2.578164 1_555
Na11 O111 2.597184 1_555
Na11 O99 2.666732 1_555
Na11 O97 2.740251 1_555
Na11 O101 2.861636 1_555
Na12 O118 2.641697 1_555
Na12 O116 2.670853 1_555
Na12 O102 2.714139 1_555
Na12 O114 2.816071 1_555
Na12 O106 2.833283 1_555
Na12 O104 2.894572 1_555
Na12 O64 3.234530 1_555
Na12 O61 3.362255 1_555
Na12 O62 3.587491 1_545
Na12 O2 3.643996 1_555
Na13 O103 2.629460 1_555
Na13 O119 2.708574 1_555
Na13 O117 2.755030 1_555
Na13 O107 2.798570 1_555
Na13 O105 2.867692 1_555
Na13 O115 2.898860 1_555
Na13 O65 3.240881 1_555
Na13 O60 3.380857 1_655
Na13 O3 3.583866 1_555
Na13 O63 3.606826 1_545
Na14 O122 2.397484 1_555
Na14 O132 2.576515 1_555
Na14 O136 2.597729 1_555
Na14 O134 2.787715 1_555
Na14 O120 3.050019 1_555
Na14 O124 3.055789 1_555
Na15 O121 2.537025 1_555
Na15 O125 2.557697 1_555
Na15 O135 2.720846 1_555
Na15 O133 2.768076 1_555
Na15 O137 2.828538 1_555
Na15 O123 2.843850 1_555
Na16 O130 2.504044 1_555
Na16 O128 2.621993 1_555
Na16 O126 2.699927 1_555
Na16 O138 3.002258 1_555
Na16 O140 3.075427 1_555
Na16 O142 3.075953 1_555
Na16 O14 3.477827 1_555
Na17 O139 2.598585 1_555
Na17 O131 2.670515 1_555
Na17 O143 2.690072 1_555
Na17 O141 2.763084 1_555
Na17 O129 2.802668 1_555
Na17 O127 2.951943 1_555
Ca0 O76 2.152907 1_565
Ca0 O5 2.326198 1_465
Ca0 O0 2.326847 1_565
Ca0 O72 2.331203 1_455
Ca0 O3 2.343098 1_455
Ca0 O75 2.382936 1_465
Ca1 O77 2.147207 1_555
Ca1 O1 2.301445 1_555
Ca1 O4 2.311948 1_555
Ca1 O73 2.328876 1_545
Ca1 O2 2.360930 1_545
Ca1 O74 2.393937 1_555
Ca2 O80 2.207980 1_645
Ca2 O11 2.261069 1_555
Ca2 O6 2.272466 1_655
Ca2 O78 2.281465 1_655
Ca2 O9 2.311043 1_545
Ca2 O83 2.364520 1_545
Ca3 O7 2.258114 1_555
Ca3 O8 2.264527 1_545
Ca3 O10 2.276047 1_555
Ca3 O81 2.282436 1_545
Ca3 O82 2.376527 1_545
Ca3 O79 2.397927 1_555
Ca4 O13 2.327680 1_445
Ca4 O85 2.363629 1_455
Ca4 O89 2.431065 1_445
Ca4 O86 2.448500 1_555
Ca4 O14 2.464687 1_555
Ca4 O16 2.559396 1_545
Ca5 O15 2.303670 1_565
Ca5 O17 2.314558 1_555
Ca5 O84 2.363847 1_565
Ca5 O88 2.371327 1_555
Ca5 O87 2.471878 1_565
Ca5 O12 2.489294 1_555
Ca6 O22 2.288685 1_555
Ca6 O93 2.294058 1_465
Ca6 O91 2.300385 1_455
Ca6 O19 2.300667 1_455
Ca6 O20 2.314165 1_565
Ca6 O94 2.550604 1_565
Ca7 O95 2.293870 1_565
Ca7 O23 2.295074 1_555
Ca7 O21 2.309433 1_565
Ca7 O18 2.313412 1_555
Ca7 O90 2.453262 1_555
Ca7 O92 2.507928 1_565
Ca8 O26 2.237346 1_555
Ca8 O24 2.237844 1_555
Ca8 O28 2.241717 1_555
Ca8 O100 2.305069 1_555
Ca8 O98 2.374220 1_555
Ca8 O96 2.401698 1_555
Ca9 O25 2.215975 1_555
Ca9 O29 2.222244 1_555
Ca9 O27 2.296680 1_555
Ca9 O97 2.306527 1_555
Ca9 O101 2.347953 1_555
Ca9 O99 2.357956 1_555
Ca10 O30 2.218682 1_555
Ca10 O34 2.255298 1_555
Ca10 O104 2.273830 1_555
Ca10 O32 2.289184 1_555
Ca10 O102 2.305401 1_555
Ca10 O106 2.376374 1_555
Ca11 O31 2.211182 1_555
Ca11 O35 2.269788 1_555
Ca11 O33 2.298994 1_555
Ca11 O105 2.361460 1_555
Ca11 O103 2.376268 1_555
Ca11 O107 2.406326 1_555
Ca12 O37 2.235845 1_556
Ca12 O41 2.242289 1_556
Ca12 O113 2.322045 1_555
Ca12 O39 2.334735 1_556
Ca12 O109 2.358537 1_555
Ca12 O111 2.669649 1_555
Ca13 O52 2.102235 1_554
Ca13 O50 2.271715 1_554
Ca13 O124 2.292223 1_555
Ca13 O122 2.293646 1_555
Ca13 O120 2.302740 1_555
Ca13 O48 2.315801 1_554
Ca14 O49 2.254297 1_554
Ca14 O53 2.272864 1_554
Ca14 O125 2.292823 1_555
Ca14 O51 2.318588 1_554
Ca14 O121 2.328184 1_555
Ca14 O123 2.352436 1_555
Ca15 O56 2.070116 1_555
Ca15 O58 2.274975 1_555
Ca15 O54 2.297024 1_555
Ca15 O128 2.343964 1_555
Ca15 O130 2.360315 1_555
Ca15 O126 2.407360 1_555
Ca16 O57 2.077734 1_555
Ca16 O59 2.286513 1_555
Ca16 O55 2.309649 1_555
Ca16 O129 2.331576 1_555
Ca16 O131 2.370179 1_555
Ca16 O127 2.393864 1_555
Ca17 O64 2.222595 1_555
Ca17 O60 2.347892 1_555
Ca17 O136 2.444857 1_555
Ca17 O62 2.445080 1_555
Ca17 O134 2.523220 1_555
Ca17 O132 2.590969 1_555
Ca18 O65 2.227106 1_555
Ca18 O61 2.368875 1_555
Ca18 O63 2.444080 1_555
Ca18 O137 2.463951 1_555
Ca18 O135 2.499959 1_555
Ca18 O133 2.569038 1_555
Ca19 O71 2.264708 1_555
Ca19 O69 2.334628 1_555
Ca19 O139 2.343608 1_555
Ca19 O141 2.354611 1_555
Ca19 O67 2.414750 1_555
Ca19 O143 2.433653 1_555
O0 S0 1.470051 1_545
O1 S1 1.472163 1_545
O2 S2 1.465760 1_555
O3 S3 1.467743 1_555
O4 S5 1.476842 1_555
O5 S4 1.477426 1_655
O6 S6 1.460430 1_555
O7 S7 1.481867 1_555
O8 S9 1.474642 1_555
O9 S8 1.460987 1_655
O10 S10 1.453491 1_545
O11 S11 1.468955 1_545
O12 S10 1.463031 1_555
O13 S11 1.479345 1_555
O14 S6 1.471727 1_555
O15 S7 1.480161 1_555
O16 S8 1.466088 1_555
O17 S9 1.483381 1_555
O18 S2 1.479951 1_555
O19 S3 1.479873 1_555
O20 S4 1.485162 1_555
O21 S5 1.480901 1_555
O22 S0 1.472904 1_555
O23 S1 1.476511 1_555
O24 S12 1.465574 1_555
O25 S13 1.464202 1_555
O26 S14 1.460715 1_555
O27 S15 1.472039 1_555
O28 S16 1.459725 1_555
O29 S17 1.463379 1_555
O30 S18 1.464624 1_555
O31 S19 1.472455 1_555
O32 S20 1.463202 1_555
O33 S21 1.489668 1_555
O34 S22 1.457733 1_555
O35 S23 1.486275 1_555
O36 S22 1.569687 1_555
O36 Ta0 1.979553 1_554
O37 S23 1.478118 1_555
O38 S18 1.545903 1_555
O38 Ta0 2.057690 1_554
O39 S19 1.490789 1_555
O40 S20 1.573540 1_555
O40 Ta0 1.969044 1_554
O41 S21 1.477057 1_555
O42 S14 1.549106 1_555
O42 Ta1 2.008947 1_555
O43 S15 1.552540 1_555
O43 Ta2 2.004930 1_555
O44 S16 1.545126 1_555
O44 Ta1 2.006468 1_555
O45 S17 1.546695 1_555
O45 Ta2 2.013996 1_555
O46 S12 1.525041 1_555
O46 Ta1 2.100092 1_555
O47 S13 1.517646 1_555
O47 Ta2 2.121989 1_555
O48 S24 1.444596 1_555
O49 S25 1.467918 1_555
O50 S26 1.454534 1_555
O51 S27 1.451708 1_555
O52 Si0 1.572475 1_555
O53 S28 1.471103 1_555
O54 S29 1.450800 1_555
O55 S30 1.450950 1_555
O56 Si1 1.588328 1_555
O57 Si2 1.589495 1_555
O58 S31 1.450005 1_555
O59 S32 1.449894 1_555
O60 S31 1.476278 1_555
O61 S32 1.474488 1_555
O62 S29 1.490525 1_555
O63 S30 1.485818 1_555
O64 Si1 1.636989 1_555
O65 Si2 1.637184 1_555
O66 S26 1.566607 1_555
O66 Ta3 1.991742 1_555
O67 S27 1.470085 1_555
O68 Si0 1.760047 1_555
O68 Ta3 1.872709 1_555
O69 S28 1.492534 1_555
O70 S24 1.531311 1_555
O70 Ta3 2.133699 1_555
O71 S25 1.473843 1_555
O72 S31 1.463450 1_655
O73 S32 1.463149 1_555
O74 S29 1.460923 1_545
O75 S30 1.464183 1_545
O76 Si1 1.606130 1_555
O77 Si2 1.607173 1_555
O78 S26 1.451163 1_555
O79 S27 1.468215 1_555
O80 Si0 1.588588 1_555
O81 S28 1.495766 1_555
O82 S24 1.456043 1_555
O83 S25 1.502326 1_555
O84 S12 1.484227 1_555
O85 S13 1.485448 1_555
O86 S14 1.477830 1_555
O87 S15 1.475169 1_555
O88 S16 1.472289 1_555
O89 S17 1.475552 1_555
O90 S18 1.477881 1_555
O91 S19 1.486715 1_555
O92 S20 1.460434 1_555
O93 S21 1.490311 1_555
O94 S22 1.464435 1_555
O95 S23 1.493025 1_555
O96 S10 1.474827 1_545
O97 S11 1.505011 1_545
O98 S6 1.480345 1_555
O99 S7 1.504929 1_555
O100 S9 1.486141 1_555
O101 S8 1.464717 1_655
O102 S2 1.502182 1_555
O103 S3 1.499048 1_555
O104 S5 1.501556 1_555
O105 S4 1.493925 1_655
O106 S0 1.519900 1_545
O107 S1 1.518724 1_545
O108 S24 1.541736 1_555
O108 Ta0 2.170934 1_555
O109 S25 1.502386 1_555
O110 S27 1.571183 1_555
O110 Ta0 1.994207 1_555
O111 S26 1.478809 1_655
O112 Si0 1.704817 1_545
O112 Ta0 1.900671 1_555
O113 S28 1.493601 1_545
O114 S29 1.548587 1_545
O114 Ta1 2.028472 1_555
O115 S30 1.551420 1_545
O115 Ta2 2.020641 1_555
O116 Si1 1.767210 1_555
O116 Ta1 1.833469 1_555
O117 Si2 1.772525 1_555
O117 Ta2 1.827838 1_555
O118 S32 1.558259 1_555
O118 Ta1 2.011723 1_555
O119 S31 1.552914 1_655
O119 Ta2 2.016007 1_555
O120 S22 1.461369 1_555
O121 S23 1.487470 1_555
O122 S19 1.492372 1_455
O123 S18 1.462737 1_555
O124 S20 1.460455 1_565
O125 S21 1.489348 1_565
O126 S14 1.464414 1_565
O127 S15 1.459988 1_565
O128 S16 1.467260 1_555
O129 S17 1.462310 1_555
O130 S13 1.476211 1_455
O131 S12 1.472155 1_555
O132 S0 1.495556 1_555
O133 S1 1.494225 1_555
O134 S2 1.509823 1_555
O135 S3 1.512727 1_555
O136 S4 1.498372 1_555
O137 S5 1.490092 1_555
O138 S6 1.543764 1_555
O138 Ta3 2.088324 1_555
O139 S7 1.483645 1_555
O140 S8 1.575359 1_555
O140 Ta3 1.995641 1_555
O141 S9 1.503767 1_555
O142 S10 1.566274 1_555
O142 Ta3 1.997119 1_555
O143 S11 1.503422 1_555
