# generated using pymatgen
data_Na15Nb5Zn7Si9(SO8)9
_symmetry_space_group_name_H-M   'P 1'
_cell_length_a   9.10182249
_cell_length_b   9.02189225
_cell_length_c   22.45294225
_cell_angle_alpha   90.08472697
_cell_angle_beta   90.86903869
_cell_angle_gamma   120.27652425
_symmetry_Int_Tables_number   1
_chemical_formula_structural   Na15Nb5Zn7Si9(SO8)9
_chemical_formula_sum   'Na15 Nb5 Zn7 Si9 S9 O72'
_cell_volume   1591.98431367
_cell_formula_units_Z   1
loop_
 _symmetry_equiv_pos_site_id
 _symmetry_equiv_pos_as_xyz
  1  'x, y, z'
loop_
 _atom_site_type_symbol
 _atom_site_label
 _atom_site_symmetry_multiplicity
 _atom_site_fract_x
 _atom_site_fract_y
 _atom_site_fract_z
 _atom_site_occupancy
  Na  Na0  1  0.63357524  0.00692772  0.23829522  1
  Na  Na1  1  0.99148969  0.64166347  0.24839375  1
  Na  Na2  1  0.65030914  0.63879834  0.75370395  1
  Na  Na3  1  0.34927573  0.00037827  0.74284800  1
  Na  Na4  1  0.97676885  0.69064897  0.91329321  1
  Na  Na5  1  0.70618202  0.01188168  0.91783096  1
  Na  Na6  1  0.31346120  0.29878542  0.91828456  1
  Na  Na7  1  0.30343534  0.01854708  0.41231046  1
  Na  Na8  1  0.70817510  0.68265119  0.40741976  1
  Na  Na9  1  0.01636216  0.01597496  0.49836302  1
  Na  Na10  1  0.99951770  0.00225108  0.99204005  1
  Na  Na11  1  0.69177206  0.35114818  0.82615083  1
  Na  Na12  1  0.64848298  0.33526995  0.32116123  1
  Na  Na13  1  0.34799179  0.67136467  0.15217918  1
  Na  Na14  1  0.31010583  0.65736967  0.65955688  1
  Nb  Nb0  1  0.98912549  0.98594167  0.14580647  1
  Nb  Nb1  1  0.66821403  0.32446262  0.97894302  1
  Nb  Nb2  1  0.66885059  0.34038936  0.47976043  1
  Nb  Nb3  1  0.32911581  0.65727341  0.31259701  1
  Nb  Nb4  1  0.32007316  0.66297416  0.81912427  1
  Zn  Zn0  1  0.01603712  0.99054259  0.34973630  1
  Zn  Zn1  1  0.99418654  0.98565323  0.85201124  1
  Zn  Zn2  1  0.00624417  0.99021742  0.65292900  1
  Zn  Zn3  1  0.69032127  0.34547316  0.68130047  1
  Zn  Zn4  1  0.63610683  0.31691340  0.18476216  1
  Zn  Zn5  1  0.35091551  0.68354538  0.01378286  1
  Zn  Zn6  1  0.31114612  0.64800515  0.51390606  1
  Si  Si0  1  0.29777544  0.00414739  0.25378531  1
  Si  Si1  1  0.70385969  0.70085200  0.25331822  1
  Si  Si2  1  0.99878638  0.70189968  0.74936483  1
  Si  Si3  1  0.66178861  0.03574220  0.08911801  1
  Si  Si4  1  0.62612271  0.66650873  0.91802524  1
  Si  Si5  1  0.04354471  0.37266144  0.92293868  1
  Si  Si6  1  0.32693993  0.95776127  0.91980613  1
  Si  Si7  1  0.32133875  0.36819015  0.42075899  1
  Si  Si8  1  0.04441117  0.66719856  0.41985599  1
  S  S0  1  0.00554810  0.28801223  0.25103811  1
  S  S1  1  0.29241283  0.29883361  0.74875140  1
  S  S2  1  0.70115671  0.99865872  0.74891355  1
  S  S3  1  0.95920528  0.32693593  0.58502859  1
  S  S4  1  0.37909752  0.04335277  0.58476625  1
  S  S5  1  0.66504132  0.63183266  0.58444968  1
  S  S6  1  0.95872185  0.62358160  0.08623650  1
  S  S7  1  0.36949618  0.32988479  0.08356555  1
  S  S8  1  0.62255437  0.95970628  0.41887957  1
  O  O0  1  0.22480117  0.02623240  0.31502695  1
  O  O1  1  0.81002725  0.79044289  0.31311243  1
  O  O2  1  0.98119554  0.18696076  0.30390108  1
  O  O3  1  0.21705043  0.20390269  0.80402697  1
  O  O4  1  0.96895967  0.77883841  0.81048293  1
  O  O5  1  0.79707426  0.02401674  0.80525729  1
  O  O6  1  0.78480165  0.97663603  0.69696822  1
  O  O7  1  0.18653031  0.22119145  0.69508566  1
  O  O8  1  0.05640836  0.83363114  0.69363817  1
  O  O9  1  0.80574003  0.83641411  0.19486315  1
  O  O10  1  0.02673397  0.20635316  0.19629982  1
  O  O11  1  0.16334981  0.97453885  0.19652034  1
  O  O12  1  0.87938585  0.34569199  0.63888145  1
  O  O13  1  0.47797731  0.13256138  0.63970783  1
  O  O14  1  0.64603002  0.52797022  0.63766305  1
  O  O15  1  0.87373758  0.53077139  0.14015338  1
  O  O16  1  0.66193466  0.13497112  0.14812420  1
  O  O17  1  0.47329588  0.35505699  0.13710243  1
  O  O18  1  0.45543290  0.30872745  0.02879222  1
  O  O19  1  0.84900385  0.54051783  0.03118045  1
  O  O20  1  0.68571353  0.16330128  0.02916781  1
  O  O21  1  0.48081037  0.15346388  0.53070870  1
  O  O22  1  0.67865834  0.52902460  0.52947179  1
  O  O23  1  0.84761065  0.31735024  0.53094429  1
  O  O24  1  0.54562965  0.71020959  0.97208911  1
  O  O25  1  0.16739651  0.45595676  0.97827585  1
  O  O26  1  0.27776498  0.82946436  0.97337927  1
  O  O27  1  0.54655950  0.85484682  0.47088568  1
  O  O28  1  0.32690976  0.46702650  0.47920815  1
  O  O29  1  0.17671404  0.72262949  0.47387937  1
  O  O30  1  0.13603152  0.63532893  0.35901419  1
  O  O31  1  0.51026170  0.87958419  0.36292950  1
  O  O32  1  0.36746400  0.50184524  0.36160988  1
  O  O33  1  0.13275369  0.50671526  0.86333522  1
  O  O34  1  0.37122909  0.87189476  0.85909006  1
  O  O35  1  0.50101099  0.62741096  0.85578410  1
  O  O36  1  0.99498762  0.81457088  0.41378688  1
  O  O37  1  0.79326059  0.99041227  0.40981599  1
  O  O38  1  0.16570129  0.17719410  0.41290961  1
  O  O39  1  0.00235679  0.18223797  0.90691466  1
  O  O40  1  0.18297291  0.00744002  0.90874799  1
  O  O41  1  0.81698185  0.82486016  0.91068807  1
  O  O42  1  0.96465513  0.16681516  0.58446417  1
  O  O43  1  0.21489254  0.03777463  0.58111196  1
  O  O44  1  0.82570695  0.79672705  0.58344755  1
  O  O45  1  0.96911108  0.80107927  0.08717472  1
  O  O46  1  0.84771656  0.02920862  0.09149360  1
  O  O47  1  0.20033256  0.16312243  0.08686573  1
  O  O48  1  0.66109861  0.13957681  0.74326886  1
  O  O49  1  0.46436608  0.31458511  0.74404697  1
  O  O50  1  0.82514927  0.51373851  0.74293240  1
  O  O51  1  0.69805560  0.52211453  0.24173569  1
  O  O52  1  0.86603329  0.32529248  0.24453470  1
  O  O53  1  0.49296504  0.15206328  0.24811420  1
  O  O54  1  0.63374055  0.48561065  0.92518064  1
  O  O55  1  0.85650955  0.36971115  0.92673299  1
  O  O56  1  0.51265655  0.14455583  0.92442348  1
  O  O57  1  0.62600334  0.13036191  0.42314363  1
  O  O58  1  0.50598366  0.35283344  0.42616520  1
  O  O59  1  0.85205277  0.48494922  0.42794143  1
  O  O60  1  0.34188440  0.47435019  0.07788104  1
  O  O61  1  0.12655875  0.64730598  0.08118838  1
  O  O62  1  0.50247942  0.84696373  0.08151111  1
  O  O63  1  0.36640323  0.87502970  0.58034460  1
  O  O64  1  0.51556806  0.64968660  0.57706430  1
  O  O65  1  0.12796271  0.48270389  0.58036806  1
  O  O66  1  0.29946737  0.81500262  0.25617423  1
  O  O67  1  0.51804096  0.69688904  0.25659999  1
  O  O68  1  0.16889953  0.46375526  0.25380258  1
  O  O69  1  0.32335465  0.48088065  0.75247873  1
  O  O70  1  0.17789842  0.68461062  0.75667207  1
  O  O71  1  0.52782549  0.83172920  0.75195683  1
loop_
_geom_bond_atom_site_label_1
_geom_bond_atom_site_label_2
_geom_bond_distance
_geom_bond_site_symmetry_2
Na0 O53 2.257988 1_555
Na0 O16 2.285218 1_555
Na0 O67 2.479769 1_545
Na0 O52 2.570610 1_555
Na0 O66 2.671429 1_545
Na0 O9 2.871533 1_545
Na0 O31 3.035667 1_545
Na0 O2 3.080318 1_555
Na1 O51 2.324112 1_555
Na1 O66 2.428552 1_655
Na1 O52 2.483557 1_555
Na1 O15 2.624616 1_555
Na1 O68 2.794007 1_655
Na1 O30 2.807170 1_655
Na1 O11 2.855018 1_655
Na1 O1 2.990596 1_555
Na2 O50 2.384385 1_555
Na2 O71 2.495918 1_555
Na2 O49 2.542112 1_555
Na2 O69 2.570733 1_555
Na2 O35 2.657967 1_555
Na2 O14 2.782022 1_555
Na2 O4 2.796680 1_555
Na2 O6 2.950891 1_555
Na3 O48 2.457130 1_555
Na3 O49 2.477590 1_555
Na3 O70 2.486309 1_545
Na3 O8 2.540018 1_545
Na3 O13 2.615175 1_555
Na3 O71 2.735343 1_545
Na3 O34 2.902110 1_545
Na3 O3 2.996297 1_555
Na4 O41 2.314738 1_555
Na4 O4 2.454434 1_555
Na4 O40 2.509820 1_665
Na4 O55 2.547493 1_555
Na4 O26 2.705040 1_655
Na4 O54 2.728398 1_555
Na4 O33 2.906208 1_655
Na4 O19 2.951066 1_556
Na5 O39 2.352151 1_655
Na5 O41 2.368460 1_545
Na5 O56 2.586634 1_555
Na5 O5 2.656712 1_555
Na5 O24 2.660902 1_545
Na5 O55 2.805312 1_555
Na5 O20 2.900132 1_556
Na5 O34 2.935924 1_545
Na6 O40 2.282134 1_555
Na6 O39 2.482715 1_555
Na6 O54 2.528621 1_555
Na6 O3 2.692945 1_555
Na6 O25 2.746277 1_555
Na6 O18 2.760345 1_556
Na6 O56 2.789089 1_555
Na6 O35 2.941959 1_555
Na7 O0 2.300280 1_555
Na7 O38 2.330264 1_555
Na7 O36 2.462278 1_445
Na7 O57 2.586077 1_555
Na7 O58 2.639042 1_555
Na7 O29 2.706135 1_545
Na7 O31 2.963765 1_545
Na7 O21 3.005622 1_555
Na8 O36 2.259872 1_555
Na8 O1 2.333542 1_555
Na8 O37 2.478334 1_555
Na8 O58 2.631248 1_555
Na8 O59 2.729106 1_555
Na8 O32 2.851857 1_555
Na8 O27 2.994871 1_555
Na8 O22 3.026751 1_555
Na9 O38 2.395477 1_555
Na9 O43 2.508907 1_555
Na9 O42 2.544882 1_455
Na9 O36 2.562768 1_445
Na9 O44 2.687771 1_445
Na9 O37 2.744688 1_445
Na10 O41 2.424084 1_545
Na10 O39 2.501791 1_655
Na10 O40 2.510772 1_655
Na10 O47 2.679229 1_656
Na10 O46 2.717605 1_556
Na10 O45 2.730617 1_546
Na11 O50 2.323368 1_555
Na11 O48 2.573104 1_555
Na11 O49 2.642974 1_555
Na11 O55 2.649425 1_555
Na11 O54 2.714473 1_555
Na11 O56 2.838619 1_555
Na12 O53 2.233384 1_555
Na12 O51 2.343458 1_555
Na12 O52 2.677987 1_555
Na12 O58 2.750403 1_555
Na12 O59 2.887470 1_555
Na12 O57 2.889279 1_555
Na13 O62 2.198523 1_555
Na13 O60 2.415391 1_555
Na13 O61 2.471887 1_555
Na13 O67 2.733945 1_555
Na13 O66 2.815322 1_555
Na13 O68 2.901470 1_555
Na14 O65 2.379290 1_555
Na14 O63 2.511034 1_555
Na14 O70 2.576681 1_555
Na14 O69 2.664318 1_555
Na14 O64 2.677322 1_555
Na14 O71 2.725431 1_555
Nb0 O9 1.899679 1_555
Nb0 O46 1.938166 1_565
Nb0 O11 1.982893 1_655
Nb0 O45 2.056137 1_555
Nb0 O10 2.156837 1_665
Nb0 O47 2.233148 1_665
Nb1 O20 1.908938 1_556
Nb1 O56 1.939554 1_555
Nb1 O55 1.958308 1_555
Nb1 O54 2.030517 1_555
Nb1 O19 2.140865 1_556
Nb1 O18 2.193783 1_556
Nb2 O59 1.924989 1_555
Nb2 O58 1.942235 1_555
Nb2 O22 1.997060 1_555
Nb2 O21 2.058288 1_555
Nb2 O23 2.072727 1_555
Nb2 O57 2.142712 1_555
Nb3 O32 1.945675 1_555
Nb3 O30 1.979705 1_555
Nb3 O66 2.021113 1_555
Nb3 O67 2.027962 1_555
Nb3 O68 2.070008 1_555
Nb3 O31 2.149549 1_555
Nb4 O33 1.873898 1_555
Nb4 O34 1.916275 1_555
Nb4 O70 1.969621 1_555
Nb4 O35 1.996271 1_555
Nb4 O69 2.232155 1_555
Nb4 O71 2.314802 1_555
O0 Si0 1.591218 1_555
O0 Zn0 1.936560 1_545
O1 Si1 1.599814 1_555
O1 Zn0 1.996663 1_655
O2 S0 1.447930 1_655
O2 Zn0 2.205004 1_645
O3 S1 1.476801 1_555
O3 Zn1 2.279830 1_445
O4 Si2 1.623938 1_555
O4 Zn1 1.989963 1_555
O5 S2 1.476208 1_545
O5 Zn1 2.238438 1_545
O6 S2 1.469074 1_555
O6 Zn2 2.206108 1_655
O7 S1 1.467284 1_555
O7 Zn2 2.104759 1_545
O8 Si2 1.627538 1_455
O8 Zn2 1.918656 1_555
O9 Si1 1.725222 1_555
O10 S0 1.496070 1_555
O11 Si0 1.686195 1_565
O12 S3 1.472582 1_555
O12 Zn3 1.978558 1_555
O13 S4 1.487447 1_555
O13 Zn3 2.119838 1_555
O14 S5 1.477025 1_555
O14 Zn3 2.120244 1_555
O15 S6 1.463995 1_555
O15 Zn4 2.295072 1_555
O16 Si3 1.597480 1_555
O16 Zn4 1.953805 1_555
O17 S7 1.462020 1_555
O17 Zn4 1.981589 1_555
O18 S7 1.529620 1_555
O19 S6 1.513992 1_555
O20 Si3 1.715945 1_555
O21 S4 1.558016 1_555
O22 S5 1.586384 1_555
O23 S3 1.545156 1_555
O24 Si4 1.575613 1_555
O24 Zn5 1.922556 1_556
O25 Si5 1.574736 1_555
O25 Zn5 2.034223 1_556
O26 Si6 1.576406 1_555
O26 Zn5 1.966821 1_556
O27 S8 1.450812 1_555
O27 Zn6 2.245606 1_555
O28 Si7 1.571270 1_555
O28 Zn6 1.878650 1_555
O29 Si8 1.586876 1_555
O29 Zn6 1.886051 1_555
O30 Si8 1.708629 1_555
O31 S8 1.535800 1_555
O32 Si7 1.704471 1_555
O33 Si5 1.720611 1_555
O34 Si6 1.717418 1_555
O35 Si4 1.708625 1_555
O36 Si8 1.609496 1_655
O36 Zn0 2.081773 1_655
O37 S8 1.451894 1_555
O37 Zn0 2.451885 1_655
O38 Si7 1.592851 1_555
O38 Zn0 2.079550 1_545
O39 Si5 1.601905 1_555
O39 Zn1 2.128024 1_445
O40 Si6 1.600699 1_545
O40 Zn1 2.050932 1_445
O41 Si4 1.610205 1_555
O41 Zn1 2.037735 1_555
O42 S3 1.470268 1_555
O42 Zn2 2.375405 1_645
O43 S4 1.470855 1_555
O43 Zn2 2.379934 1_545
O44 S5 1.469545 1_555
O44 Zn2 2.281011 1_655
O45 S6 1.555925 1_555
O46 Si3 1.722788 1_555
O47 S7 1.519103 1_555
O48 S2 1.493922 1_545
O48 Zn3 2.231124 1_555
O49 S1 1.503876 1_555
O49 Zn3 2.408998 1_555
O50 Si2 1.639330 1_555
O50 Zn3 1.946597 1_555
O51 Si1 1.607229 1_555
O51 Zn4 2.073694 1_555
O52 S0 1.473811 1_655
O52 Zn4 2.437509 1_555
O53 Si0 1.603139 1_555
O53 Zn4 2.010303 1_555
O54 Si4 1.675925 1_555
O55 Si5 1.692547 1_655
O56 Si6 1.682208 1_545
O57 S8 1.526883 1_545
O58 Si7 1.756989 1_555
O59 Si8 1.705742 1_655
O60 S7 1.451890 1_555
O60 Zn5 2.344197 1_555
O61 S6 1.438024 1_455
O61 Zn5 2.447328 1_555
O62 Si3 1.591798 1_565
O62 Zn5 2.065948 1_555
O63 S4 1.466837 1_565
O63 Zn6 2.367026 1_555
O64 S5 1.455525 1_555
O64 Zn6 2.316144 1_555
O65 S3 1.474413 1_455
O65 Zn6 2.192174 1_555
O66 Si0 1.715170 1_565
O67 Si1 1.676300 1_555
O68 S0 1.532384 1_555
O69 S1 1.521938 1_555
O70 Si2 1.719686 1_455
O71 S2 1.539312 1_555
