# generated using pymatgen
data_Na2HfZnP2SO12
_symmetry_space_group_name_H-M   'P 1'
_cell_length_a   8.93699903
_cell_length_b   8.92856650
_cell_length_c   22.51944186
_cell_angle_alpha   89.69286950
_cell_angle_beta   90.00000000
_cell_angle_gamma   120.03124690
_symmetry_Int_Tables_number   1
_chemical_formula_structural   Na2HfZnP2SO12
_chemical_formula_sum   'Na12 Hf6 Zn6 P12 S6 O72'
_cell_volume   1555.66667277
_cell_formula_units_Z   6
loop_
 _symmetry_equiv_pos_site_id
 _symmetry_equiv_pos_as_xyz
  1  'x, y, z'
loop_
 _atom_site_type_symbol
 _atom_site_label
 _atom_site_symmetry_multiplicity
 _atom_site_fract_x
 _atom_site_fract_y
 _atom_site_fract_z
 _atom_site_occupancy
  Na  Na0  1  0.99309249  0.62948892  0.24121779  1
  Na  Na1  1  0.63639643  0.62948892  0.74121779  1
  Na  Na2  1  0.65975949  0.96282192  0.57455079  1
  Na  Na3  1  0.30306343  0.96282192  0.07455079  1
  Na  Na4  1  0.32642549  0.29615592  0.90788479  1
  Na  Na5  1  0.96972943  0.29615592  0.40788479  1
  Na  Na6  1  0.99657632  0.96818978  0.49050281  1
  Na  Na7  1  0.97161346  0.96818978  0.99050281  1
  Na  Na8  1  0.66324332  0.30152278  0.82383581  1
  Na  Na9  1  0.63828046  0.30152278  0.32383581  1
  Na  Na10  1  0.32990932  0.63485678  0.15716981  1
  Na  Na11  1  0.30494646  0.63485678  0.65716981  1
  Hf  Hf0  1  0.00250736  0.01099567  0.64747525  1
  Hf  Hf1  1  0.00848831  0.01099567  0.14747525  1
  Hf  Hf2  1  0.66917436  0.34432867  0.98080825  1
  Hf  Hf3  1  0.67515531  0.34432867  0.48080825  1
  Hf  Hf4  1  0.33584036  0.67766267  0.31414225  1
  Hf  Hf5  1  0.34182131  0.67766267  0.81414225  1
  Zn  Zn0  1  0.00020735  0.99652752  0.34900687  1
  Zn  Zn1  1  0.99632017  0.99652752  0.84900687  1
  Zn  Zn2  1  0.66687435  0.32986052  0.68233987  1
  Zn  Zn3  1  0.66298717  0.32986052  0.18233987  1
  Zn  Zn4  1  0.33354035  0.66319452  0.01567387  1
  Zn  Zn5  1  0.32965317  0.66319452  0.51567387  1
  P  P0  1  0.29740520  0.00852112  0.25098199  1
  P  P1  1  0.99734095  0.29469959  0.25482383  1
  P  P2  1  0.29735864  0.29469959  0.75482383  1
  P  P3  1  0.71111592  0.00852112  0.75098199  1
  P  P4  1  0.96407220  0.34185412  0.58431499  1
  P  P5  1  0.66400795  0.62803259  0.58815683  1
  P  P6  1  0.96402564  0.62803259  0.08815683  1
  P  P7  1  0.37778292  0.34185412  0.08431499  1
  P  P8  1  0.63073820  0.67518812  0.91764899  1
  P  P9  1  0.33067395  0.96136659  0.92149083  1
  P  P10  1  0.63069164  0.96136659  0.42149083  1
  P  P11  1  0.04444892  0.67518812  0.41764899  1
  S  S0  1  0.70453293  0.70750352  0.25096090  1
  S  S1  1  0.00297059  0.70750352  0.75096090  1
  S  S2  1  0.37119993  0.04083652  0.58429390  1
  S  S3  1  0.66963759  0.04083652  0.08429390  1
  S  S4  1  0.03786593  0.37417052  0.91762790  1
  S  S5  1  0.33630359  0.37417052  0.41762790  1
  O  O0  1  0.20664004  0.02322614  0.30504263  1
  O  O1  1  0.80647756  0.78750400  0.30424385  1
  O  O2  1  0.97882425  0.19666536  0.31257964  1
  O  O3  1  0.21784111  0.19666536  0.81257964  1
  O  O4  1  0.98102644  0.78750400  0.80424385  1
  O  O5  1  0.81658609  0.02322614  0.80504263  1
  O  O6  1  0.79256181  0.97237321  0.69413704  1
  O  O7  1  0.18053840  0.19647931  0.70025603  1
  O  O8  1  0.02440862  0.81456001  0.69681093  1
  O  O9  1  0.79015139  0.81456001  0.19681093  1
  O  O10  1  0.01594091  0.19647931  0.20025603  1
  O  O11  1  0.17981140  0.97237321  0.19413704  1
  O  O12  1  0.87330704  0.35655914  0.63837563  1
  O  O13  1  0.47314456  0.12083700  0.63757685  1
  O  O14  1  0.64549125  0.52999836  0.64591264  1
  O  O15  1  0.88450811  0.52999836  0.14591264  1
  O  O16  1  0.64769344  0.12083700  0.13757685  1
  O  O17  1  0.48325309  0.35655914  0.13837563  1
  O  O18  1  0.45922881  0.30570621  0.02747004  1
  O  O19  1  0.84720540  0.52981231  0.03358903  1
  O  O20  1  0.69107562  0.14789301  0.03014393  1
  O  O21  1  0.45681839  0.14789301  0.53014393  1
  O  O22  1  0.68260791  0.52981231  0.53358903  1
  O  O23  1  0.84647840  0.30570621  0.52747004  1
  O  O24  1  0.53997304  0.68989314  0.97170963  1
  O  O25  1  0.13981056  0.45417100  0.97091085  1
  O  O26  1  0.31215725  0.86333236  0.97924664  1
  O  O27  1  0.55117411  0.86333236  0.47924664  1
  O  O28  1  0.31435944  0.45417100  0.47091085  1
  O  O29  1  0.14991909  0.68989314  0.47170963  1
  O  O30  1  0.12589481  0.63904021  0.36080404  1
  O  O31  1  0.51387140  0.86314631  0.36692303  1
  O  O32  1  0.35774162  0.48122701  0.36347793  1
  O  O33  1  0.12348439  0.48122701  0.86347793  1
  O  O34  1  0.34927391  0.86314631  0.86692303  1
  O  O35  1  0.51314440  0.63904021  0.86080404  1
  O  O36  1  0.01528566  0.82693530  0.40948935  1
  O  O37  1  0.81573097  0.99509495  0.41425749  1
  O  O38  1  0.18301112  0.20130239  0.41233413  1
  O  O39  1  0.01829127  0.20130239  0.91233413  1
  O  O40  1  0.17936398  0.99509495  0.91425749  1
  O  O41  1  0.81164964  0.82693530  0.90948935  1
  O  O42  1  0.97156815  0.16768945  0.58880978  1
  O  O43  1  0.19713296  0.02587405  0.58766360  1
  O  O44  1  0.83500593  0.81106970  0.58940610  1
  O  O45  1  0.97606377  0.81106970  0.08940610  1
  O  O46  1  0.82874109  0.02587405  0.08766360  1
  O  O47  1  0.19612130  0.16768945  0.08880978  1
  O  O48  1  0.68195266  0.16026830  0.74282235  1
  O  O49  1  0.48239797  0.32842795  0.74759049  1
  O  O50  1  0.84967812  0.53463539  0.74566713  1
  O  O51  1  0.68495827  0.53463539  0.24566713  1
  O  O52  1  0.84603098  0.32842795  0.24759049  1
  O  O53  1  0.47831664  0.16026830  0.24282235  1
  O  O54  1  0.63823515  0.50102245  0.92214278  1
  O  O55  1  0.86379996  0.35920705  0.92099660  1
  O  O56  1  0.50167293  0.14440270  0.92273910  1
  O  O57  1  0.64273077  0.14440270  0.42273910  1
  O  O58  1  0.49540809  0.35920705  0.42099660  1
  O  O59  1  0.86278830  0.50102245  0.42214278  1
  O  O60  1  0.34861866  0.49360230  0.07615635  1
  O  O61  1  0.14906397  0.66176195  0.08092449  1
  O  O62  1  0.51634412  0.86796939  0.07900113  1
  O  O63  1  0.35162427  0.86796939  0.57900113  1
  O  O64  1  0.51269698  0.66176195  0.58092449  1
  O  O65  1  0.14498264  0.49360230  0.57615635  1
  O  O66  1  0.30490115  0.83435645  0.25547678  1
  O  O67  1  0.53046596  0.69254105  0.25433060  1
  O  O68  1  0.16833893  0.47773670  0.25607310  1
  O  O69  1  0.30939677  0.47773670  0.75607310  1
  O  O70  1  0.16207409  0.69254105  0.75433060  1
  O  O71  1  0.52945430  0.83435645  0.75547678  1
loop_
_geom_bond_atom_site_label_1
_geom_bond_atom_site_label_2
_geom_bond_distance
_geom_bond_site_symmetry_2
Na0 O52 2.330920 1_555
Na0 O15 2.344068 1_555
Na0 O51 2.444455 1_555
Na0 O66 2.473572 1_655
Na0 O68 2.553402 1_655
Na0 O11 2.851830 1_655
Na0 O30 2.927350 1_655
Na0 O1 3.027060 1_555
Na1 O49 2.330920 1_555
Na1 O14 2.344070 1_555
Na1 O50 2.444463 1_555
Na1 O71 2.473579 1_555
Na1 O69 2.553410 1_555
Na1 O6 2.851830 1_555
Na1 O35 2.927354 1_555
Na1 O4 3.027060 1_555
Na2 O64 2.330913 1_555
Na2 O27 2.344047 1_555
Na2 O63 2.444466 1_555
Na2 O42 2.473572 1_565
Na2 O44 2.553402 1_555
Na2 O23 2.851830 1_565
Na2 O6 2.927350 1_555
Na2 O13 3.027060 1_565
Na3 O61 2.330914 1_555
Na3 O26 2.344043 1_554
Na3 O62 2.444449 1_555
Na3 O47 2.473579 1_565
Na3 O45 2.553410 1_455
Na3 O18 2.851830 1_565
Na3 O11 2.927354 1_555
Na3 O16 3.027060 1_565
Na4 O40 2.330920 1_545
Na4 O3 2.344068 1_555
Na4 O39 2.444455 1_555
Na4 O54 2.473574 1_555
Na4 O56 2.553415 1_555
Na4 O35 2.851830 1_555
Na4 O18 2.927335 1_556
Na4 O25 3.027060 1_555
Na5 O37 2.330920 1_545
Na5 O2 2.344070 1_555
Na5 O38 2.444463 1_655
Na5 O59 2.473560 1_555
Na5 O57 2.553399 1_555
Na5 O30 2.851830 1_655
Na5 O23 2.927328 1_555
Na5 O28 3.027060 1_655
Na6 O36 2.276551 1_655
Na6 O37 2.449929 1_555
Na6 O38 2.587748 1_665
Na6 O44 2.636772 1_555
Na6 O43 2.711699 1_665
Na6 O42 2.926523 1_565
Na7 O41 2.276551 1_555
Na7 O40 2.449929 1_655
Na7 O39 2.587748 1_665
Na7 O45 2.636772 1_556
Na7 O46 2.711699 1_566
Na7 O47 2.926523 1_666
Na8 O48 2.276551 1_555
Na8 O49 2.449929 1_555
Na8 O50 2.587748 1_555
Na8 O56 2.636772 1_555
Na8 O55 2.711699 1_555
Na8 O54 2.926523 1_555
Na9 O53 2.276551 1_555
Na9 O52 2.449929 1_555
Na9 O51 2.587748 1_555
Na9 O57 2.636772 1_555
Na9 O58 2.711699 1_555
Na9 O59 2.926523 1_555
Na10 O60 2.276551 1_555
Na10 O61 2.449929 1_555
Na10 O62 2.587748 1_555
Na10 O68 2.636772 1_555
Na10 O67 2.711699 1_555
Na10 O66 2.926523 1_555
Na11 O65 2.276551 1_555
Na11 O64 2.449929 1_555
Na11 O63 2.587748 1_555
Na11 O69 2.636772 1_555
Na11 O70 2.711699 1_555
Na11 O71 2.926523 1_555
Hf0 O7 2.017564 1_555
Hf0 O6 2.022872 1_445
Hf0 O42 2.036303 1_455
Hf0 O44 2.118417 1_445
Hf0 O43 2.150363 1_555
Hf0 O8 2.161368 1_545
Hf1 O10 2.017564 1_555
Hf1 O11 2.022872 1_545
Hf1 O47 2.036303 1_555
Hf1 O45 2.118417 1_445
Hf1 O46 2.150363 1_455
Hf1 O9 2.161368 1_445
Hf2 O19 2.017564 1_556
Hf2 O18 2.022872 1_556
Hf2 O54 2.036303 1_555
Hf2 O56 2.118417 1_555
Hf2 O55 2.150363 1_555
Hf2 O20 2.161368 1_556
Hf3 O22 2.017564 1_555
Hf3 O23 2.022872 1_555
Hf3 O59 2.036303 1_555
Hf3 O57 2.118417 1_555
Hf3 O58 2.150363 1_555
Hf3 O21 2.161368 1_555
Hf4 O31 2.017564 1_555
Hf4 O30 2.022872 1_555
Hf4 O66 2.036303 1_555
Hf4 O68 2.118417 1_555
Hf4 O67 2.150363 1_555
Hf4 O32 2.161368 1_555
Hf5 O34 2.017564 1_555
Hf5 O35 2.022872 1_555
Hf5 O71 2.036303 1_555
Hf5 O69 2.118417 1_555
Hf5 O70 2.150363 1_555
Hf5 O33 2.161368 1_555
O0 P0 1.505207 1_555
O0 Zn0 1.999477 1_545
O1 S0 1.462135 1_555
O1 Zn0 2.069461 1_655
O2 P1 1.525775 1_555
O2 Zn0 2.056382 1_645
O3 P2 1.525775 1_555
O3 Zn1 2.056382 1_445
O4 S1 1.462135 1_655
O4 Zn1 2.069461 1_555
O5 P3 1.505207 1_555
O5 Zn1 1.999477 1_545
O6 P3 1.585008 1_565
O7 P2 1.569779 1_555
O8 S1 1.497189 1_555
O9 S0 1.497189 1_555
O10 P1 1.569779 1_455
O11 P0 1.585008 1_565
O12 P4 1.505207 1_555
O12 Zn2 1.999477 1_555
O13 S2 1.462135 1_555
O13 Zn2 2.069461 1_555
O14 P5 1.525775 1_555
O14 Zn2 2.056382 1_555
O15 P6 1.525775 1_555
O15 Zn3 2.056382 1_555
O16 S3 1.462135 1_555
O16 Zn3 2.069461 1_555
O17 P7 1.505207 1_555
O17 Zn3 1.999477 1_555
O18 P7 1.585008 1_555
O19 P6 1.569779 1_555
O20 S3 1.497189 1_555
O21 S2 1.497189 1_555
O22 P5 1.569779 1_555
O23 P4 1.585008 1_555
O24 P8 1.505207 1_555
O24 Zn4 1.999477 1_556
O25 S4 1.462135 1_555
O25 Zn4 2.069461 1_556
O26 P9 1.525775 1_555
O26 Zn4 2.056382 1_556
O27 P10 1.525775 1_555
O27 Zn5 2.056382 1_555
O28 S5 1.462135 1_555
O28 Zn5 2.069461 1_555
O29 P11 1.505207 1_555
O29 Zn5 1.999477 1_555
O30 P11 1.585008 1_555
O31 P10 1.569779 1_555
O32 S5 1.497189 1_555
O33 S4 1.497189 1_555
O34 P9 1.569779 1_555
O35 P8 1.585008 1_555
O36 P11 1.512679 1_555
O36 Zn0 2.085250 1_555
O37 P10 1.533928 1_555
O37 Zn0 2.203658 1_655
O38 S5 1.469283 1_555
O38 Zn0 2.254719 1_545
O39 S4 1.469287 1_555
O39 Zn1 2.254719 1_445
O40 P9 1.533919 1_555
O40 Zn1 2.203658 1_455
O41 P8 1.512684 1_555
O41 Zn1 2.085250 1_555
O42 P4 1.592316 1_555
O43 S2 1.495153 1_555
O44 P5 1.583560 1_555
O45 P6 1.583564 1_555
O46 S3 1.495144 1_555
O47 P7 1.592321 1_555
O48 P3 1.512679 1_555
O48 Zn2 2.085250 1_555
O49 P2 1.533928 1_555
O49 Zn2 2.203658 1_555
O50 S1 1.469283 1_655
O50 Zn2 2.254719 1_555
O51 S0 1.469287 1_555
O51 Zn3 2.254719 1_555
O52 P1 1.533919 1_555
O52 Zn3 2.203658 1_555
O53 P0 1.512684 1_555
O53 Zn3 2.085250 1_555
O54 P8 1.592328 1_555
O55 S4 1.495139 1_655
O56 P9 1.583558 1_545
O57 P10 1.583550 1_545
O58 S5 1.495157 1_555
O59 P11 1.592319 1_655
O60 P7 1.512690 1_555
O60 Zn4 2.085250 1_555
O61 P6 1.533913 1_455
O61 Zn4 2.203658 1_555
O62 S3 1.469280 1_565
O62 Zn4 2.254719 1_555
O63 S2 1.469272 1_565
O63 Zn5 2.254719 1_555
O64 P5 1.533931 1_555
O64 Zn5 2.203658 1_555
O65 P4 1.512679 1_455
O65 Zn5 2.085250 1_555
O66 P0 1.592316 1_565
O67 S0 1.495153 1_555
O68 P1 1.583560 1_455
O69 P2 1.583564 1_555
O70 S1 1.495144 1_555
O71 P3 1.592321 1_565
