# generated using pymatgen
data_CaIn2Au
_symmetry_space_group_name_H-M   'P 1'
_cell_length_a   5.90268943
_cell_length_b   5.90268943
_cell_length_c   7.58169005
_cell_angle_alpha   90.00000000
_cell_angle_beta   90.00000000
_cell_angle_gamma   134.14278507
_symmetry_Int_Tables_number   1
_chemical_formula_structural   CaIn2Au
_chemical_formula_sum   'Ca2 In4 Au2'
_cell_volume   189.56240717
_cell_formula_units_Z   2
loop_
 _symmetry_equiv_pos_site_id
 _symmetry_equiv_pos_as_xyz
  1  'x, y, z'
loop_
 _atom_site_type_symbol
 _atom_site_label
 _atom_site_symmetry_multiplicity
 _atom_site_fract_x
 _atom_site_fract_y
 _atom_site_fract_z
 _atom_site_occupancy
  Ca  Ca0  1  0.92504373  0.07495627  0.75000000  1
  Ca  Ca1  1  0.07495627  0.92504373  0.25000000  1
  In  In0  1  0.63548795  0.36451205  0.94903917  1
  In  In1  1  0.63548795  0.36451205  0.55096083  1
  In  In2  1  0.36451205  0.63548795  0.05096083  1
  In  In3  1  0.36451205  0.63548795  0.44903917  1
  Au  Au0  1  0.21119828  0.78880172  0.75000000  1
  Au  Au1  1  0.78880172  0.21119828  0.25000000  1
loop_
_geom_bond_atom_site_label_1
_geom_bond_atom_site_label_2
_geom_bond_distance
_geom_bond_site_symmetry_2
Ca0 In2 3.305729 1_546
Ca0 In2 3.305729 1_656
Ca0 In3 3.305729 1_545
Ca0 In3 3.305729 1_655
Ca0 In0 3.491224 1_555
Ca0 In1 3.491224 1_555
Ca0 In0 3.577807 1_655
Ca0 In1 3.577807 1_655
Ca0 In0 3.577807 1_545
Ca0 In1 3.577807 1_545
Ca1 In0 3.305729 1_454
Ca1 In1 3.305729 1_455
Ca1 In0 3.305729 1_564
Ca1 In1 3.305729 1_565
Ca1 In3 3.491224 1_555
Ca1 In2 3.491224 1_555
Ca1 In3 3.577807 1_565
Ca1 In2 3.577807 1_565
Ca1 In2 3.577807 1_455
Ca1 In3 3.577807 1_455
In0 In1 3.018107 1_555
In0 In2 3.045877 1_556
In0 In2 3.476469 1_546
In0 In2 3.476469 1_656
In1 In3 3.045877 1_555
In1 In3 3.476469 1_545
In1 In3 3.476469 1_655
In2 In3 3.018107 1_555
Au0 In2 2.825813 1_556
Au0 In3 2.825813 1_555
Au0 In0 2.871059 1_455
Au0 In1 2.871059 1_455
Au0 In0 2.871059 1_565
Au0 In1 2.871059 1_565
Au0 Ca0 3.111258 1_465
Au0 Ca0 3.270177 1_455
Au0 Ca0 3.270177 1_565
Au1 In1 2.825813 1_555
Au1 In0 2.825813 1_554
Au1 In2 2.871059 1_545
Au1 In2 2.871059 1_655
Au1 In3 2.871059 1_545
Au1 In3 2.871059 1_655
Au1 Ca1 3.111258 1_645
Au1 Ca1 3.270177 1_545
Au1 Ca1 3.270177 1_655
