# generated using pymatgen
data_TcOF4
_symmetry_space_group_name_H-M   'P 1'
_cell_length_a   8.90390064
_cell_length_b   8.90420719
_cell_length_c   7.94708220
_cell_angle_alpha   90.00030813
_cell_angle_beta   89.99967844
_cell_angle_gamma   120.00116376
_symmetry_Int_Tables_number   1
_chemical_formula_structural   TcOF4
_chemical_formula_sum   'Tc6 O6 F24'
_cell_volume   545.64327311
_cell_formula_units_Z   6
loop_
 _symmetry_equiv_pos_site_id
 _symmetry_equiv_pos_as_xyz
  1  'x, y, z'
loop_
 _atom_site_type_symbol
 _atom_site_label
 _atom_site_symmetry_multiplicity
 _atom_site_fract_x
 _atom_site_fract_y
 _atom_site_fract_z
 _atom_site_occupancy
  Tc  Tc0  1  0.94044815  0.60284170  0.74999988  1
  Tc  Tc1  1  0.33765092  0.94050127  0.24999923  1
  Tc  Tc2  1  0.60288382  0.66240637  0.24999844  1
  Tc  Tc3  1  0.39710029  0.33756936  0.75000313  1
  Tc  Tc4  1  0.66239914  0.05952156  0.75000032  1
  Tc  Tc5  1  0.05949835  0.39716584  0.24999752  1
  O  O0  1  0.85340085  0.32413324  0.24999629  1
  O  O1  1  0.14655824  0.67591027  0.74999344  1
  O  O2  1  0.47073598  0.14660320  0.24999840  1
  O  O3  1  0.67589672  0.52932355  0.24999818  1
  O  O4  1  0.32405419  0.47061907  0.75000242  1
  O  O5  1  0.52933838  0.85341392  0.75000033  1
  F  F0  1  0.11409995  0.42061710  0.47710068  1
  F  F1  1  0.88587532  0.57939530  0.97711307  1
  F  F2  1  0.30649804  0.88592151  0.47710788  1
  F  F3  1  0.57945958  0.69355336  0.47711084  1
  F  F4  1  0.42053040  0.30641839  0.97711020  1
  F  F5  1  0.69354450  0.11408605  0.97711491  1
  F  F6  1  0.07938143  0.20270106  0.25000622  1
  F  F7  1  0.87675983  0.07942095  0.74999449  1
  F  F8  1  0.20263429  0.12321257  0.75000205  1
  F  F9  1  0.79738060  0.87674098  0.24999930  1
  F  F10  1  0.12330499  0.92063741  0.25000476  1
  F  F11  1  0.92055408  0.79730040  0.75000811  1
  F  F12  1  0.35785692  0.50744055  0.24999915  1
  F  F13  1  0.85042540  0.35782908  0.74999905  1
  F  F14  1  0.50740622  0.14954379  0.75000699  1
  F  F15  1  0.49261958  0.85045052  0.24999726  1
  F  F16  1  0.14957231  0.64218228  0.24999171  1
  F  F17  1  0.64212694  0.49255252  0.75000432  1
  F  F18  1  0.11410466  0.42060565  0.02289482  1
  F  F19  1  0.69353968  0.11408879  0.52288600  1
  F  F20  1  0.42053250  0.30641921  0.52289536  1
  F  F21  1  0.57946211  0.69355350  0.02288654  1
  F  F22  1  0.30649721  0.88592258  0.02289021  1
  F  F23  1  0.88586844  0.57939709  0.52288850  1
loop_
_geom_bond_atom_site_label_1
_geom_bond_atom_site_label_2
_geom_bond_distance
_geom_bond_site_symmetry_2
O0 Tc5 1.611518 1_655
O1 Tc0 1.611570 1_455
O2 Tc1 1.611620 1_545
O3 Tc2 1.611596 1_555
O4 Tc3 1.611547 1_555
O5 Tc4 1.611623 1_565
F0 Tc5 1.853585 1_555
F0 F6 2.552998 1_555
F0 F16 2.574167 1_555
F0 F12 2.624412 1_555
F1 Tc0 1.853607 1_555
F1 F11 2.553092 1_555
F1 F13 2.574241 1_555
F1 F17 2.624390 1_555
F2 Tc1 1.853593 1_555
F3 Tc2 1.853604 1_555
F3 F9 2.553045 1_555
F4 Tc3 1.853585 1_555
F4 F8 2.552973 1_555
F5 Tc4 1.853611 1_555
F5 F7 2.553009 1_555
F6 Tc5 1.826522 1_555
F7 Tc4 1.826506 1_555
F8 Tc3 1.826516 1_555
F9 Tc2 1.826520 1_555
F10 Tc1 1.826510 1_555
F10 F2 2.552987 1_555
F10 F22 2.553027 1_555
F10 F16 2.604255 1_555
F11 Tc0 1.826524 1_555
F11 F23 2.553135 1_555
F11 F17 2.604195 1_555
F12 Tc2 1.911350 1_555
F12 Tc5 2.326552 1_555
F12 F3 2.574321 1_555
F12 F21 2.574333 1_555
F12 F6 2.604338 1_555
F12 F18 2.624398 1_555
F12 F15 2.665179 1_555
F12 F16 2.665312 1_555
F13 Tc0 1.911358 1_555
F13 Tc4 2.326183 1_555
F13 F23 2.574261 1_555
F13 F7 2.604176 1_555
F13 F19 2.624380 1_555
F13 F5 2.624409 1_555
F13 F14 2.665184 1_555
F13 F17 2.665295 1_555
F14 Tc4 1.911358 1_555
F14 Tc3 2.326377 1_555
F14 F5 2.574355 1_555
F14 F19 2.574371 1_555
F14 F8 2.604353 1_555
F14 F4 2.624378 1_555
F14 F20 2.624435 1_555
F14 F17 2.665215 1_555
F15 Tc1 1.911354 1_555
F15 Tc2 2.326241 1_555
F15 F2 2.574302 1_555
F15 F22 2.574307 1_555
F15 F9 2.604412 1_555
F15 F21 2.624388 1_555
F15 F3 2.624409 1_555
F15 F16 2.665365 1_555
F16 Tc5 1.911321 1_555
F16 Tc1 2.326332 1_555
F16 F18 2.574170 1_555
F16 F22 2.624364 1_555
F16 F2 2.624434 1_555
F17 Tc3 1.911372 1_555
F17 Tc0 2.326223 1_555
F17 F4 2.574311 1_555
F17 F20 2.574321 1_555
F17 F23 2.624374 1_555
F18 Tc5 1.853588 1_555
F18 F6 2.553023 1_555
F19 Tc4 1.853614 1_555
F19 F7 2.552998 1_555
F20 Tc3 1.853587 1_555
F20 F8 2.552972 1_555
F21 Tc2 1.853602 1_555
F21 F9 2.553045 1_555
F22 Tc1 1.853593 1_555
F23 Tc0 1.853609 1_555
