# generated using pymatgen
data_Na6La4Zn4SiS11O48
_symmetry_space_group_name_H-M   'P 1'
_cell_length_a   18.38000807
_cell_length_b   9.18835595
_cell_length_c   24.06766101
_cell_angle_alpha   89.72831655
_cell_angle_beta   89.95441606
_cell_angle_gamma   119.91177977
_symmetry_Int_Tables_number   1
_chemical_formula_structural   Na6La4Zn4SiS11O48
_chemical_formula_sum   'Na18 La12 Zn12 Si3 S33 O144'
_cell_volume   3523.10546662
_cell_formula_units_Z   3
loop_
 _symmetry_equiv_pos_site_id
 _symmetry_equiv_pos_as_xyz
  1  'x, y, z'
loop_
 _atom_site_type_symbol
 _atom_site_label
 _atom_site_symmetry_multiplicity
 _atom_site_fract_x
 _atom_site_fract_y
 _atom_site_fract_z
 _atom_site_occupancy
  Na  Na0  1  0.81968926  0.00167673  0.24383497  1
  Na  Na1  1  0.99518154  0.63516990  0.25454402  1
  Na  Na2  1  0.31567429  0.65220822  0.75133377  1
  Na  Na3  1  0.81757687  0.64636087  0.74506828  1
  Na  Na4  1  0.99102375  0.35402683  0.75213033  1
  Na  Na5  1  0.68803587  0.00470297  0.74854659  1
  Na  Na6  1  0.99619051  0.99630319  0.49894910  1
  Na  Na7  1  0.50497220  0.00344563  0.49008345  1
  Na  Na8  1  0.00198759  0.00227488  0.00027429  1
  Na  Na9  1  0.50064649  0.00079893  -0.00000358  1
  Na  Na10  1  0.33490697  0.30559046  0.84065428  1
  Na  Na11  1  0.83456719  0.32169154  0.83846510  1
  Na  Na12  1  0.33447452  0.33633373  0.32270961  1
  Na  Na13  1  0.82622777  0.34854670  0.33603096  1
  Na  Na14  1  0.17735950  0.67041785  0.17553314  1
  Na  Na15  1  0.66694166  0.65249230  0.17222042  1
  Na  Na16  1  0.17201001  0.68896274  0.66412036  1
  Na  Na17  1  0.67194361  0.67344385  0.66053065  1
  La  La0  1  0.99623406  0.98508585  0.35242747  1
  La  La1  1  0.99432153  0.99981534  0.84957140  1
  La  La2  1  0.49851061  0.01238819  0.85166224  1
  La  La3  1  0.98931113  0.99290960  0.64691186  1
  La  La4  1  0.49602659  0.00198757  0.64909553  1
  La  La5  1  0.00160409  0.00262868  0.14831548  1
  La  La6  1  0.49540227  0.99121611  0.14951035  1
  La  La7  1  0.33365776  0.31144843  0.68023420  1
  La  La8  1  0.33103946  0.32821444  0.47697175  1
  La  La9  1  0.16725179  0.66651677  0.02059885  1
  La  La10  1  0.66730391  0.67021366  0.02155178  1
  La  La11  1  0.66844276  0.65263925  0.32079480  1
  Zn  Zn0  1  0.49473629  0.99422190  0.34870876  1
  Zn  Zn1  1  0.83379981  0.30663003  0.67153805  1
  Zn  Zn2  1  0.33356035  0.33338203  0.18188081  1
  Zn  Zn3  1  0.82843515  0.35416452  0.18178632  1
  Zn  Zn4  1  0.33319029  0.33424888  0.98493503  1
  Zn  Zn5  1  0.83346486  0.33328351  0.98515646  1
  Zn  Zn6  1  0.83101968  0.33096475  0.48720595  1
  Zn  Zn7  1  0.16509920  0.66469846  0.51114676  1
  Zn  Zn8  1  0.67075065  0.66744567  0.51315127  1
  Zn  Zn9  1  0.17449347  0.67260436  0.32379460  1
  Zn  Zn10  1  0.17776089  0.70266540  0.82158317  1
  Zn  Zn11  1  0.67420517  0.68140827  0.82161453  1
  Si  Si0  1  0.84770622  0.68714452  0.24613625  1
  Si  Si1  1  0.33853221  0.98470754  0.75308726  1
  Si  Si2  1  0.84094882  0.00018777  0.75032237  1
  S  S0  1  0.15907894  0.99878244  0.25033129  1
  S  S1  1  0.65137879  0.01024875  0.25275424  1
  S  S2  1  0.34676250  0.69332033  0.25522497  1
  S  S3  1  0.00191239  0.31547792  0.25033311  1
  S  S4  1  0.49096430  0.28873222  0.25146041  1
  S  S5  1  0.15173273  0.31590351  0.75164663  1
  S  S6  1  0.65907728  0.31728393  0.74969995  1
  S  S7  1  0.99909976  0.68504638  0.74932579  1
  S  S8  1  0.50534800  0.69601683  0.75297260  1
  S  S9  1  0.49668939  0.35557516  0.57772029  1
  S  S10  1  0.98137933  0.35004395  0.57999530  1
  S  S11  1  0.17796337  0.00733882  0.57864820  1
  S  S12  1  0.69113117  0.03489336  0.58111531  1
  S  S13  1  0.32451774  0.63419638  0.58130062  1
  S  S14  1  0.82569945  0.60779898  0.58097125  1
  S  S15  1  0.46968108  0.60720549  0.08344677  1
  S  S16  1  0.97166038  0.61054305  0.08259056  1
  S  S17  1  0.33396231  0.06030806  0.08306576  1
  S  S18  1  0.83418806  0.06133039  0.08461637  1
  S  S19  1  0.19712700  0.33349128  0.08308722  1
  S  S20  1  0.69268968  0.32832063  0.08193123  1
  S  S21  1  0.31299271  0.64679469  0.91563204  1
  S  S22  1  0.81179996  0.64582600  0.91597365  1
  S  S23  1  0.01354886  0.37774768  0.91493386  1
  S  S24  1  0.51544928  0.38411951  0.91635966  1
  S  S25  1  0.17411492  0.97589734  0.91666933  1
  S  S26  1  0.67519096  0.97693431  0.91543811  1
  S  S27  1  0.31400446  0.94550957  0.41359677  1
  S  S28  1  0.81294385  0.97410259  0.42364915  1
  S  S29  1  0.16474612  0.38815104  0.41666374  1
  S  S30  1  0.66669963  0.35572798  0.42322695  1
  S  S31  1  0.02079437  0.65252200  0.41893772  1
  S  S32  1  0.52174348  0.68647354  0.41796122  1
  O  O0  1  0.11961010  0.02898971  0.29974164  1
  O  O1  1  0.60654437  0.02496889  0.30135724  1
  O  O2  1  0.40300193  0.78284213  0.30236763  1
  O  O3  1  0.90656181  0.77382427  0.30162212  1
  O  O4  1  0.48578831  0.18906028  0.30137189  1
  O  O5  1  0.98868679  0.20429655  0.29909725  1
  O  O6  1  0.11516515  0.20564239  0.80089064  1
  O  O7  1  0.62124222  0.20264452  0.79844915  1
  O  O8  1  0.49282816  0.78082408  0.80114882  1
  O  O9  1  0.98443942  0.76553709  0.79871111  1
  O  O10  1  0.39873623  0.01082097  0.80601834  1
  O  O11  1  0.90719175  0.05156667  0.80226963  1
  O  O12  1  0.38426254  0.95703700  0.69785007  1
  O  O13  1  0.88173482  0.94697915  0.69859106  1
  O  O14  1  0.10181008  0.22912451  0.70129174  1
  O  O15  1  0.60504596  0.23683523  0.70036217  1
  O  O16  1  0.01620783  0.79680655  0.70015968  1
  O  O17  1  0.52062427  0.80248244  0.70215498  1
  O  O18  1  0.38263272  0.79288517  0.20250392  1
  O  O19  1  0.89527088  0.81774160  0.19443130  1
  O  O20  1  0.01889925  0.24230666  0.20038533  1
  O  O21  1  0.50218539  0.21078225  0.20029640  1
  O  O22  1  0.10356571  0.96786698  0.20111461  1
  O  O23  1  0.60306570  0.98997917  0.20078024  1
  O  O24  1  0.45931288  0.37128269  0.63096413  1
  O  O25  1  0.94478618  0.36181924  0.63477188  1
  O  O26  1  0.22466428  0.08354603  0.63116993  1
  O  O27  1  0.73453950  0.10865254  0.63545231  1
  O  O28  1  0.31878111  0.54751098  0.63541544  1
  O  O29  1  0.82092716  0.52112954  0.63483700  1
  O  O30  1  0.42825935  0.51820974  0.13517726  1
  O  O31  1  0.93210376  0.52328290  0.13497239  1
  O  O32  1  0.33082548  0.14386361  0.13404105  1
  O  O33  1  0.83107235  0.14117909  0.13713245  1
  O  O34  1  0.24112029  0.33804628  0.13469843  1
  O  O35  1  0.73712271  0.33433404  0.13320458  1
  O  O36  1  0.23906960  0.32865139  0.03164990  1
  O  O37  1  0.73481363  0.32308531  0.03069485  1
  O  O38  1  0.42528985  0.52487711  0.03216001  1
  O  O39  1  0.92500501  0.52319070  0.03227824  1
  O  O40  1  0.33746768  0.14954372  0.03125348  1
  O  O41  1  0.83549741  0.15228814  0.03369821  1
  O  O42  1  0.22351394  0.12048093  0.53155399  1
  O  O43  1  0.73589946  0.14373922  0.53375294  1
  O  O44  1  0.33281706  0.53649288  0.53546287  1
  O  O45  1  0.83460704  0.52087648  0.53267020  1
  O  O46  1  0.43935163  0.33266502  0.53143187  1
  O  O47  1  0.92678451  0.33059596  0.53294625  1
  O  O48  1  0.27066667  0.66900863  0.96494776  1
  O  O49  1  0.76905454  0.66701086  0.96494269  1
  O  O50  1  0.06497278  0.46284135  0.96471352  1
  O  O51  1  0.56447471  0.46579928  0.96714314  1
  O  O52  1  0.16330101  0.87398816  0.96721493  1
  O  O53  1  0.66530266  0.87128027  0.96487605  1
  O  O54  1  0.27452833  0.85250557  0.46545992  1
  O  O55  1  0.76372553  0.85568747  0.46879347  1
  O  O56  1  0.16236810  0.47205075  0.46802006  1
  O  O57  1  0.65467659  0.44832574  0.46934553  1
  O  O58  1  0.07411892  0.67055978  0.46712890  1
  O  O59  1  0.57163497  0.69685520  0.46729504  1
  O  O60  1  0.05932965  0.64403836  0.36514088  1
  O  O61  1  0.55869919  0.66263066  0.36636838  1
  O  O62  1  0.26270913  0.86684171  0.36383744  1
  O  O63  1  0.77230577  0.90669386  0.36837761  1
  O  O64  1  0.16835749  0.47890179  0.36523869  1
  O  O65  1  0.68228920  0.45342284  0.36990442  1
  O  O66  1  0.05571964  0.47103089  0.86347984  1
  O  O67  1  0.56028529  0.47964213  0.86584471  1
  O  O68  1  0.17974265  0.88913761  0.86635208  1
  O  O69  1  0.67998071  0.89363088  0.86372789  1
  O  O70  1  0.26602129  0.63632623  0.86413922  1
  O  O71  1  0.76620858  0.63752723  0.86384866  1
  O  O72  1  0.01333324  0.80988099  0.41837295  1
  O  O73  1  0.51339495  0.83877410  0.41296850  1
  O  O74  1  0.39928699  0.96427284  0.40814563  1
  O  O75  1  0.89790990  0.98764954  0.42251743  1
  O  O76  1  0.08943722  0.21683357  0.41586895  1
  O  O77  1  0.58896137  0.19031602  0.41631505  1
  O  O78  1  0.00497277  0.20621558  0.91497174  1
  O  O79  1  0.50673832  0.21280078  0.91644488  1
  O  O80  1  0.09833798  0.99509221  0.91312825  1
  O  O81  1  0.59933625  0.99602011  0.91439100  1
  O  O82  1  0.39907786  0.79808224  0.91432539  1
  O  O83  1  0.89776324  0.79777550  0.91475714  1
  O  O84  1  0.50461257  0.20222444  0.58059146  1
  O  O85  1  0.99013222  0.19451471  0.58248124  1
  O  O86  1  0.09403832  0.99314095  0.58180152  1
  O  O87  1  0.60541285  0.01705348  0.58447892  1
  O  O88  1  0.40237616  0.80287171  0.58112024  1
  O  O89  1  0.90297304  0.78122038  0.58186143  1
  O  O90  1  0.47968722  0.78000314  0.08360989  1
  O  O91  1  0.98236661  0.78333303  0.08169938  1
  O  O92  1  0.41007399  0.03912291  0.08341758  1
  O  O93  1  0.91065916  0.04255625  0.08286397  1
  O  O94  1  0.11117940  0.18226893  0.08253065  1
  O  O95  1  0.60657979  0.17656146  0.08317867  1
  O  O96  1  0.32779996  0.15111007  0.74878675  1
  O  O97  1  0.83294545  0.16831505  0.73810630  1
  O  O98  1  0.24056179  0.35362816  0.74559696  1
  O  O99  1  0.74391369  0.33890463  0.74141492  1
  O  O100  1  0.42567072  0.53333864  0.74624396  1
  O  O101  1  0.92077948  0.52120889  0.74136368  1
  O  O102  1  0.33981072  0.52535668  0.24859215  1
  O  O103  1  0.84581769  0.50884787  0.24115405  1
  O  O104  1  0.41424170  0.30291967  0.24642982  1
  O  O105  1  0.92264715  0.32037280  0.24311385  1
  O  O106  1  0.24295768  0.14728393  0.24146801  1
  O  O107  1  0.73746310  0.15801427  0.24805400  1
  O  O108  1  0.31906045  0.49270684  0.92155975  1
  O  O109  1  0.81828149  0.49237938  0.92136083  1
  O  O110  1  0.43091715  0.36668867  0.91984760  1
  O  O111  1  0.92922671  0.36139926  0.92002524  1
  O  O112  1  0.25144324  0.14173334  0.92077532  1
  O  O113  1  0.75229508  0.14295990  0.92022485  1
  O  O114  1  0.32343357  0.11828313  0.41625316  1
  O  O115  1  0.82162494  0.14107402  0.43041858  1
  O  O116  1  0.24140147  0.36970506  0.41668633  1
  O  O117  1  0.74201317  0.33732725  0.43063689  1
  O  O118  1  0.43575480  0.53442491  0.42181592  1
  O  O119  1  0.93583086  0.50343901  0.42396682  1
  O  O120  1  0.18746337  0.48645034  0.08325820  1
  O  O121  1  0.68353500  0.48192793  0.08199186  1
  O  O122  1  0.05748725  0.62903306  0.08174347  1
  O  O123  1  0.55593599  0.62789866  0.08338530  1
  O  O124  1  0.25792326  0.88789542  0.08312838  1
  O  O125  1  0.75820901  0.88837271  0.08372752  1
  O  O126  1  0.17224481  0.84254470  0.57244127  1
  O  O127  1  0.68321462  0.86594990  0.57646686  1
  O  O128  1  0.24902130  0.65059061  0.57496106  1
  O  O129  1  0.75028299  0.62805751  0.57631466  1
  O  O130  1  0.06585928  0.49994218  0.57518100  1
  O  O131  1  0.57933964  0.50832600  0.57107426  1
  O  O132  1  0.16222714  0.84043686  0.25831712  1
  O  O133  1  0.66231581  0.85871217  0.25649704  1
  O  O134  1  0.26171973  0.67459231  0.26183824  1
  O  O135  1  0.75755586  0.68415533  0.25019502  1
  O  O136  1  0.07313894  0.48898636  0.25807226  1
  O  O137  1  0.56634177  0.46057592  0.25421672  1
  O  O138  1  0.15122448  0.47428410  0.75816862  1
  O  O139  1  0.66635273  0.48355541  0.75879232  1
  O  O140  1  0.07042219  0.65613652  0.75807475  1
  O  O141  1  0.57867626  0.67462994  0.76021934  1
  O  O142  1  0.24941534  0.80816796  0.75814157  1
  O  O143  1  0.74876225  0.83231384  0.76155898  1
loop_
_geom_bond_atom_site_label_1
_geom_bond_atom_site_label_2
_geom_bond_distance
_geom_bond_site_symmetry_2
Na0 O133 2.527931 1_545
Na0 O135 2.551859 1_545
Na0 O107 2.554254 1_555
Na0 O105 2.574704 1_555
Na0 O33 2.825292 1_555
Na0 O19 2.925395 1_545
Na0 O5 3.024234 1_555
Na0 O63 3.117347 1_545
Na1 O136 2.404790 1_655
Na1 O103 2.411385 1_555
Na1 O105 2.526194 1_555
Na1 O132 2.686812 1_655
Na1 O3 2.764121 1_555
Na1 O60 2.897108 1_655
Na1 O22 2.975248 1_655
Na1 O31 3.086661 1_555
Na2 O142 2.303463 1_555
Na2 O98 2.382871 1_555
Na2 O138 2.627584 1_555
Na2 O100 2.738341 1_555
Na2 O12 2.744598 1_555
Na2 O70 2.843357 1_555
Na2 O28 2.965152 1_555
Na2 O8 3.101307 1_555
Na2 O10 3.153985 1_565
Na3 O139 2.433010 1_555
Na3 O99 2.451419 1_555
Na3 O143 2.614866 1_555
Na3 O13 2.644157 1_555
Na3 O101 2.665441 1_555
Na3 O29 2.909579 1_555
Na3 O9 2.990366 1_555
Na3 O71 2.997937 1_555
Na4 O140 2.412396 1_655
Na4 O101 2.463432 1_555
Na4 O97 2.555362 1_555
Na4 O138 2.582522 1_655
Na4 O11 2.692277 1_555
Na4 O66 2.917049 1_655
Na4 O25 2.961081 1_555
Na4 O14 3.049681 1_655
Na5 O97 2.327886 1_555
Na5 O143 2.368952 1_545
Na5 O141 2.688569 1_545
Na5 O99 2.713523 1_555
Na5 O27 2.865153 1_555
Na5 O17 2.913802 1_545
Na5 O7 2.915953 1_555
Na5 O69 2.927471 1_545
Na6 O75 2.552783 1_555
Na6 O86 2.696073 1_655
Na6 O72 2.713477 1_655
Na6 O89 2.720912 1_555
Na6 O76 2.744819 1_665
Na6 O85 2.758212 1_565
Na7 O77 2.409692 1_555
Na7 O73 2.453111 1_545
Na7 O74 2.665961 1_545
Na7 O84 2.851451 1_555
Na7 O88 2.870918 1_545
Na7 O87 2.892111 1_555
Na8 O91 2.693595 1_445
Na8 O94 2.722017 1_555
Na8 O93 2.743566 1_455
Na8 O78 2.755027 1_554
Na8 O80 2.766148 1_544
Na8 O83 2.808842 1_444
Na9 O95 2.703328 1_555
Na9 O90 2.737609 1_545
Na9 O92 2.740876 1_555
Na9 O79 2.756027 1_554
Na9 O81 2.758895 1_544
Na9 O82 2.789355 1_544
Na10 O112 2.450067 1_555
Na10 O110 2.467694 1_555
Na10 O96 2.601116 1_555
Na10 O108 2.713425 1_555
Na10 O100 2.965192 1_555
Na10 O98 3.032483 1_555
Na11 O113 2.518654 1_555
Na11 O111 2.528345 1_555
Na11 O109 2.650786 1_555
Na11 O97 2.794927 1_555
Na11 O101 2.896474 1_555
Na11 O99 2.919352 1_555
Na11 O11 3.467552 1_555
Na12 O102 2.451253 1_555
Na12 O104 2.462561 1_555
Na12 O106 2.606398 1_555
Na12 O116 2.942747 1_555
Na12 O114 2.945333 1_555
Na12 O118 3.022694 1_555
Na13 O103 2.636509 1_555
Na13 O107 2.720677 1_555
Na13 O117 2.724704 1_555
Na13 O119 2.781885 1_555
Na13 O115 2.932510 1_555
Na13 O105 2.943709 1_555
Na13 O65 3.337516 1_555
Na13 O3 3.514024 1_555
Na14 O134 2.582018 1_555
Na14 O132 2.636193 1_555
Na14 O136 2.678146 1_555
Na14 O124 2.851893 1_555
Na14 O120 2.858665 1_555
Na14 O122 3.045455 1_555
Na14 O18 3.420400 1_555
Na14 O20 3.586459 1_555
Na15 O135 2.430488 1_555
Na15 O137 2.670642 1_555
Na15 O121 2.787988 1_555
Na15 O133 2.812222 1_555
Na15 O123 2.887352 1_555
Na15 O125 2.893449 1_555
Na16 O142 2.611295 1_555
Na16 O126 2.612362 1_555
Na16 O128 2.689355 1_555
Na16 O130 2.840321 1_555
Na16 O140 2.848824 1_555
Na16 O138 2.892251 1_555
Na16 O26 3.344008 1_565
Na16 O12 3.519362 1_555
Na16 O16 3.573367 1_555
Na17 O127 2.620110 1_555
Na17 O129 2.637735 1_555
Na17 O131 2.701041 1_555
Na17 O143 2.832004 1_555
Na17 O139 2.903328 1_555
Na17 O141 2.950871 1_555
Na17 O13 3.519432 1_555
Na17 O24 3.562287 1_555
La0 O3 2.194218 1_555
La0 O72 2.385496 1_655
La0 O5 2.445010 1_565
La0 O0 2.447673 1_665
La0 O75 2.479948 1_555
La0 O76 2.489420 1_665
La1 O11 2.200916 1_565
La1 O6 2.380796 1_665
La1 O83 2.395707 1_555
La1 O78 2.402302 1_665
La1 O9 2.408444 1_555
La1 O80 2.466495 1_655
La2 O10 2.132379 1_555
La2 O79 2.365317 1_555
La2 O8 2.412284 1_545
La2 O7 2.413736 1_555
La2 O82 2.422877 1_545
La2 O81 2.452844 1_545
La3 O13 2.189418 1_555
La3 O89 2.388961 1_555
La3 O85 2.404408 1_565
La3 O16 2.449691 1_655
La3 O86 2.480310 1_655
La3 O14 2.500915 1_665
La4 O12 2.216462 1_545
La4 O84 2.410292 1_555
La4 O88 2.424602 1_545
La4 O15 2.431208 1_555
La4 O17 2.449651 1_545
La4 O87 2.489040 1_555
La5 O19 2.145901 1_445
La5 O22 2.413676 1_545
La5 O20 2.418690 1_555
La5 O94 2.437655 1_555
La5 O93 2.453673 1_455
La5 O91 2.465084 1_445
La6 O21 2.313537 1_565
La6 O18 2.334610 1_555
La6 O23 2.337692 1_555
La6 O90 2.415828 1_555
La6 O92 2.422726 1_565
La6 O95 2.474443 1_565
La7 O96 2.173174 1_555
La7 O26 2.374045 1_555
La7 O24 2.401148 1_555
La7 O100 2.477301 1_555
La7 O98 2.493132 1_555
La7 O28 2.552015 1_555
La8 O118 2.321988 1_555
La8 O42 2.341944 1_555
La8 O116 2.364301 1_555
La8 O46 2.367772 1_555
La8 O44 2.368219 1_555
La8 O114 2.373598 1_555
La9 O48 2.315094 1_554
La9 O50 2.316152 1_554
La9 O52 2.324885 1_554
La9 O122 2.377378 1_555
La9 O120 2.395809 1_555
La9 O124 2.414940 1_555
La10 O51 2.302498 1_554
La10 O53 2.306317 1_554
La10 O49 2.325061 1_554
La10 O121 2.385288 1_555
La10 O125 2.396085 1_555
La10 O123 2.398286 1_555
La11 O135 2.274120 1_555
La11 O65 2.292810 1_555
La11 O61 2.337150 1_555
La11 O137 2.435636 1_555
La11 O63 2.447326 1_555
La11 O133 2.485520 1_555
O0 S0 1.489981 1_545
O1 S1 1.475408 1_555
O1 Zn0 2.239632 1_545
O2 S2 1.481610 1_555
O2 Zn0 2.148625 1_555
O3 Si0 1.655594 1_555
O4 S4 1.480972 1_555
O4 Zn0 2.191940 1_545
O5 S3 1.490181 1_655
O6 S5 1.480219 1_555
O7 S6 1.492028 1_555
O8 S8 1.480392 1_555
O9 S7 1.496297 1_555
O10 Si1 1.626426 1_545
O11 Si2 1.644132 1_555
O12 Si1 1.659236 1_555
O13 Si2 1.649533 1_565
O14 S5 1.492561 1_555
O15 S6 1.490215 1_555
O16 S7 1.489784 1_455
O17 S8 1.498615 1_555
O18 S2 1.505907 1_555
O19 Si0 1.640319 1_555
O20 S3 1.486952 1_555
O21 S4 1.492364 1_555
O22 S0 1.496975 1_555
O23 S1 1.492310 1_565
O24 S9 1.494703 1_555
O25 S10 1.508185 1_555
O25 Zn1 2.040259 1_555
O26 S11 1.495213 1_555
O27 S12 1.508942 1_555
O27 Zn1 2.024705 1_555
O28 S13 1.499333 1_555
O29 S14 1.497645 1_555
O29 Zn1 2.273663 1_555
O30 S15 1.471850 1_555
O30 Zn2 2.051312 1_555
O31 S16 1.472553 1_555
O31 Zn3 2.083694 1_555
O32 S17 1.466590 1_555
O32 Zn2 2.071806 1_555
O33 S18 1.479759 1_555
O33 Zn3 2.258677 1_555
O34 S19 1.472034 1_555
O34 Zn2 2.062366 1_555
O35 S20 1.466320 1_555
O35 Zn3 1.979208 1_555
O36 S19 1.470392 1_555
O36 Zn4 2.041334 1_554
O37 S20 1.469211 1_555
O37 Zn5 2.079458 1_554
O38 S15 1.468493 1_555
O38 Zn4 2.071275 1_554
O39 S16 1.473184 1_555
O39 Zn5 2.062913 1_554
O40 S17 1.472730 1_555
O40 Zn4 2.060206 1_554
O41 S18 1.473447 1_555
O41 Zn5 2.043436 1_554
O42 S11 1.478398 1_555
O43 S12 1.464114 1_555
O43 Zn6 2.061564 1_555
O44 S13 1.480528 1_555
O45 S14 1.467989 1_555
O45 Zn6 2.037174 1_555
O46 S9 1.476112 1_555
O47 S10 1.464918 1_555
O47 Zn6 2.078235 1_555
O48 S21 1.488230 1_555
O49 S22 1.482366 1_555
O50 S23 1.487858 1_555
O51 S24 1.484948 1_555
O52 S25 1.483041 1_555
O53 S26 1.484571 1_555
O54 S27 1.478120 1_555
O54 Zn7 2.179268 1_555
O55 S28 1.479286 1_555
O55 Zn8 2.020738 1_555
O56 S29 1.471908 1_555
O56 Zn7 2.035209 1_555
O57 S30 1.483522 1_555
O57 Zn8 2.163287 1_555
O58 S31 1.474771 1_555
O58 Zn7 2.003411 1_555
O59 S32 1.474912 1_555
O59 Zn8 2.258577 1_555
O60 S31 1.496232 1_555
O60 Zn9 2.231518 1_555
O61 S32 1.483538 1_555
O62 S27 1.475103 1_555
O62 Zn9 1.968689 1_555
O63 S28 1.503034 1_555
O64 S29 1.471885 1_555
O64 Zn9 1.989513 1_555
O65 S30 1.505602 1_555
O66 S23 1.481499 1_555
O66 Zn10 2.406836 1_555
O67 S24 1.481384 1_555
O67 Zn11 2.249589 1_555
O68 S25 1.484572 1_555
O68 Zn10 2.013274 1_555
O69 S26 1.489488 1_555
O69 Zn11 2.157191 1_555
O70 S21 1.486777 1_555
O70 Zn10 2.243906 1_555
O71 S22 1.490201 1_555
O71 Zn11 2.175820 1_555
O72 S31 1.518914 1_555
O73 S32 1.486228 1_555
O73 Zn0 2.240093 1_555
O74 S27 1.494627 1_555
O74 Zn0 2.170401 1_555
O75 S28 1.503695 1_555
O76 S29 1.490456 1_555
O77 S30 1.488676 1_555
O77 Zn0 2.411114 1_545
O78 S23 1.503710 1_555
O79 S24 1.500719 1_555
O80 S25 1.491054 1_555
O81 S26 1.489655 1_555
O82 S21 1.497579 1_555
O83 S22 1.498676 1_555
O84 S9 1.488328 1_555
O85 S10 1.516629 1_555
O86 S11 1.483658 1_565
O87 S12 1.502577 1_555
O88 S13 1.495952 1_555
O89 S14 1.516584 1_555
O90 S15 1.504510 1_555
O91 S16 1.499306 1_555
O92 S17 1.505512 1_555
O93 S18 1.499622 1_555
O94 S19 1.495803 1_555
O95 S20 1.499571 1_555
O96 Si1 1.639112 1_545
O97 Si2 1.648311 1_555
O97 Zn1 2.035438 1_555
O98 S5 1.497235 1_555
O99 S6 1.483514 1_555
O99 Zn1 2.476832 1_555
O100 S8 1.491531 1_555
O101 S7 1.488985 1_555
O101 Zn1 2.481818 1_555
O102 S2 1.493089 1_555
O102 Zn2 2.351086 1_555
O103 Si0 1.626226 1_555
O103 Zn3 1.931535 1_555
O104 S4 1.484476 1_555
O104 Zn2 2.259294 1_555
O105 S3 1.490113 1_655
O105 Zn3 2.410279 1_555
O106 S0 1.477447 1_545
O106 Zn2 2.210603 1_555
O107 S1 1.488429 1_555
O107 Zn3 2.356012 1_555
O108 S21 1.480847 1_555
O108 Zn4 2.206921 1_555
O109 S22 1.478070 1_555
O109 Zn5 2.226786 1_555
O110 S24 1.482624 1_555
O110 Zn4 2.286112 1_555
O111 S23 1.485572 1_655
O111 Zn5 2.271611 1_555
O112 S25 1.481016 1_545
O112 Zn4 2.269343 1_555
O113 S26 1.481420 1_545
O113 Zn5 2.270184 1_555
O114 S27 1.510259 1_545
O115 S28 1.471062 1_545
O115 Zn6 2.159763 1_555
O116 S29 1.500653 1_555
O117 S30 1.486640 1_555
O117 Zn6 2.152100 1_555
O118 S32 1.501570 1_555
O119 S31 1.481363 1_655
O119 Zn6 2.338120 1_555
O120 S19 1.501949 1_555
O121 S20 1.502409 1_555
O122 S16 1.500135 1_455
O123 S15 1.499634 1_555
O124 S17 1.501586 1_565
O125 S18 1.504390 1_565
O126 S11 1.472946 1_565
O126 Zn7 2.161704 1_555
O127 S12 1.489888 1_565
O127 Zn8 2.304675 1_555
O128 S13 1.476503 1_555
O128 Zn7 2.226262 1_555
O129 S14 1.491985 1_555
O129 Zn8 2.259380 1_555
O130 S10 1.478758 1_455
O130 Zn7 2.283294 1_555
O131 S9 1.474529 1_555
O131 Zn8 2.104978 1_555
O132 S0 1.496147 1_555
O132 Zn9 2.288365 1_555
O133 S1 1.505063 1_565
O134 S2 1.493075 1_555
O134 Zn9 2.181946 1_555
O135 Si0 1.646255 1_555
O136 S3 1.487235 1_555
O136 Zn9 2.390458 1_555
O137 S4 1.495454 1_555
O138 S5 1.469089 1_555
O138 Zn10 2.445726 1_555
O139 S6 1.483000 1_555
O139 Zn11 2.318744 1_555
O140 S7 1.476678 1_455
O140 Zn10 2.362447 1_555
O141 S8 1.466194 1_555
O141 Zn11 2.272915 1_555
O142 Si1 1.636127 1_555
O142 Zn10 1.927460 1_555
O143 Si2 1.646837 1_565
O143 Zn11 1.993101 1_555
