# generated using pymatgen
data_Na10Al4Zn4Si3(S3O16)3
_symmetry_space_group_name_H-M   'P 1'
_cell_length_a   17.59884090
_cell_length_b   8.76432454
_cell_length_c   21.91400991
_cell_angle_alpha   89.76456892
_cell_angle_beta   88.60688265
_cell_angle_gamma   119.87647881
_symmetry_Int_Tables_number   1
_chemical_formula_structural   Na10Al4Zn4Si3(S3O16)3
_chemical_formula_sum   'Na30 Al12 Zn12 Si9 S27 O144'
_cell_volume   2929.47494727
_cell_formula_units_Z   3
loop_
 _symmetry_equiv_pos_site_id
 _symmetry_equiv_pos_as_xyz
  1  'x, y, z'
loop_
 _atom_site_type_symbol
 _atom_site_label
 _atom_site_symmetry_multiplicity
 _atom_site_fract_x
 _atom_site_fract_y
 _atom_site_fract_z
 _atom_site_occupancy
  Na  Na0  1  0.18743501  0.36836613  0.24632154  1
  Na  Na1  1  0.68766812  0.37105086  0.24618715  1
  Na  Na2  1  0.98974028  0.63810737  0.25367058  1
  Na  Na3  1  0.49208823  0.63228301  0.25952530  1
  Na  Na4  1  0.32513074  0.64920425  0.74394901  1
  Na  Na5  1  0.82189333  0.64329397  0.74427149  1
  Na  Na6  1  0.99130494  0.34789924  0.75185739  1
  Na  Na7  1  0.18689468  0.00400793  0.74301361  1
  Na  Na8  1  0.68701302  0.00655495  0.74294614  1
  Na  Na9  1  0.51936877  0.70127264  0.57516658  1
  Na  Na10  1  0.32361529  0.96904164  0.58841990  1
  Na  Na11  1  0.82338874  0.96391918  0.58674091  1
  Na  Na12  1  0.15396858  0.97686802  0.07939796  1
  Na  Na13  1  0.65382785  0.97688905  0.07900242  1
  Na  Na14  1  0.32610732  0.68513463  0.09099169  1
  Na  Na15  1  0.82570924  0.68495132  0.09147924  1
  Na  Na16  1  0.65891023  0.01149795  0.42412192  1
  Na  Na17  1  0.35474819  0.67227224  0.41030050  1
  Na  Na18  1  0.01557563  0.00319716  0.49827364  1
  Na  Na19  1  0.50890006  0.01474592  0.49772332  1
  Na  Na20  1  0.00729804  0.02585411  0.99722347  1
  Na  Na21  1  0.50759129  0.02756615  0.99682858  1
  Na  Na22  1  0.34607434  0.32097582  0.83165956  1
  Na  Na23  1  0.83334638  0.31818559  0.83378501  1
  Na  Na24  1  0.33613292  0.32668065  0.33287015  1
  Na  Na25  1  0.83877267  0.34764992  0.33160423  1
  Na  Na26  1  0.16957355  0.65441183  0.16534494  1
  Na  Na27  1  0.67006247  0.65514213  0.16644562  1
  Na  Na28  1  0.16303778  0.67550841  0.66018578  1
  Na  Na29  1  0.66178700  0.65671475  0.66250674  1
  Al  Al0  1  0.99820197  0.99481287  0.64477153  1
  Al  Al1  1  0.50284042  0.01218999  0.64937243  1
  Al  Al2  1  0.99445687  0.01421619  0.14905043  1
  Al  Al3  1  0.49589433  0.01167249  0.14881299  1
  Al  Al4  1  0.32619174  0.32564963  0.98236349  1
  Al  Al5  1  0.82571274  0.32550551  0.98254482  1
  Al  Al6  1  0.32996811  0.32611002  0.48022684  1
  Al  Al7  1  0.82977267  0.33327903  0.48423954  1
  Al  Al8  1  0.17407085  0.67871720  0.31547046  1
  Al  Al9  1  0.67265407  0.67550698  0.31939222  1
  Al  Al10  1  0.17585066  0.67594720  0.81882752  1
  Al  Al11  1  0.66773563  0.66922797  0.81626639  1
  Zn  Zn0  1  0.99424703  0.98747865  0.34941405  1
  Zn  Zn1  1  0.49639846  0.98479559  0.34928383  1
  Zn  Zn2  1  0.99516284  0.00284500  0.85058737  1
  Zn  Zn3  1  0.49568784  0.00441410  0.85040758  1
  Zn  Zn4  1  0.33143773  0.30549297  0.67978003  1
  Zn  Zn5  1  0.83026464  0.31462130  0.67801738  1
  Zn  Zn6  1  0.33003678  0.34659342  0.18158368  1
  Zn  Zn7  1  0.82929795  0.34810887  0.18083104  1
  Zn  Zn8  1  0.16254769  0.64631077  0.01571835  1
  Zn  Zn9  1  0.66192004  0.64523245  0.01526768  1
  Zn  Zn10  1  0.16064053  0.67495693  0.51800834  1
  Zn  Zn11  1  0.66481508  0.67590385  0.51390407  1
  Si  Si0  1  0.35117904  0.71126870  0.24971707  1
  Si  Si1  1  0.85178293  0.71499884  0.25042285  1
  Si  Si2  1  0.35430407  -0.00083836  0.75171893  1
  Si  Si3  1  0.85304899  0.99592599  0.75005141  1
  Si  Si4  1  0.18125565  0.04234652  0.58352683  1
  Si  Si5  1  0.68122816  0.03978180  0.58448184  1
  Si  Si6  1  0.18012356  0.32456403  0.08528852  1
  Si  Si7  1  0.67958216  0.32510555  0.08478363  1
  Si  Si8  1  0.51634484  0.65405612  0.41737671  1
  S  S0  1  0.14628280  0.99236455  0.25137110  1
  S  S1  1  0.64776074  0.99427276  0.24924659  1
  S  S2  1  0.00065730  0.29425954  0.25166018  1
  S  S3  1  0.50071537  0.28994980  0.25076827  1
  S  S4  1  0.14432870  0.29651194  0.75188853  1
  S  S5  1  0.64300835  0.29788334  0.75195396  1
  S  S6  1  0.00294083  0.71223925  0.75152394  1
  S  S7  1  0.50390031  0.70937231  0.75188750  1
  S  S8  1  0.48100730  0.32852154  0.58216541  1
  S  S9  1  0.97896098  0.32968813  0.58260831  1
  S  S10  1  0.33462676  0.62317592  0.58371246  1
  S  S11  1  0.83736020  0.62570761  0.58320368  1
  S  S12  1  0.47806627  0.62423527  0.08061096  1
  S  S13  1  0.97803151  0.62407251  0.08039791  1
  S  S14  1  0.33888362  0.05472429  0.08164362  1
  S  S15  1  0.83905060  0.05563912  0.08156817  1
  S  S16  1  0.31448578  0.65659668  0.91807681  1
  S  S17  1  0.81344395  0.65641682  0.91706576  1
  S  S18  1  0.01619214  0.37903194  0.91630553  1
  S  S19  1  0.51643416  0.37936934  0.91706763  1
  S  S20  1  0.17055413  0.96359135  0.91774919  1
  S  S21  1  0.67030537  0.96254782  0.91739279  1
  S  S22  1  0.30970872  0.96387434  0.41680565  1
  S  S23  1  0.81741854  0.97162644  0.41847459  1
  S  S24  1  0.16477690  0.37650430  0.41614902  1
  S  S25  1  0.67415689  0.38303760  0.41733808  1
  S  S26  1  0.01587492  0.65471704  0.41647009  1
  O  O0  1  0.11025088  0.03744477  0.30484173  1
  O  O1  1  0.61202966  0.03256359  0.30529478  1
  O  O2  1  0.40751604  0.78393147  0.31001726  1
  O  O3  1  0.91790912  0.78959407  0.30553712  1
  O  O4  1  0.49276050  0.19239378  0.30689294  1
  O  O5  1  0.99134118  0.19749462  0.30763668  1
  O  O6  1  0.11140049  0.18201714  0.80666058  1
  O  O7  1  0.60936512  0.18360329  0.80649483  1
  O  O8  1  0.49131371  0.78787822  0.80721406  1
  O  O9  1  0.98976296  0.78649510  0.80768467  1
  O  O10  1  0.40627867  0.01683505  0.81181004  1
  O  O11  1  0.91701146  0.04459961  0.80626458  1
  O  O12  1  0.40151241  0.96130021  0.69053842  1
  O  O13  1  0.89950975  0.95679534  0.68887507  1
  O  O14  1  0.08779596  0.21461209  0.69869001  1
  O  O15  1  0.59007431  0.21380250  0.69733885  1
  O  O16  1  0.01952853  0.82900092  0.69708740  1
  O  O17  1  0.52182208  0.82638734  0.69629509  1
  O  O18  1  0.40220378  0.83334439  0.18766906  1
  O  O19  1  0.89996738  0.83531282  0.18666490  1
  O  O20  1  0.01860730  0.21107153  0.19699319  1
  O  O21  1  0.51518648  0.20450430  0.19566466  1
  O  O22  1  0.09188389  0.96255334  0.19609846  1
  O  O23  1  0.59183360  0.97151350  0.19550725  1
  O  O24  1  0.44691370  0.37434400  0.63732264  1
  O  O25  1  0.94739157  0.36455407  0.64156753  1
  O  O26  1  0.23576723  0.10554489  0.64595613  1
  O  O27  1  0.73766978  0.11134196  0.64510857  1
  O  O28  1  0.32816107  0.52841506  0.64106962  1
  O  O29  1  0.82911367  0.53238939  0.64160093  1
  O  O30  1  0.44578320  0.52691782  0.13911673  1
  O  O31  1  0.94593806  0.52725860  0.13909035  1
  O  O32  1  0.32689416  0.13459757  0.13673515  1
  O  O33  1  0.82729287  0.13570933  0.13665573  1
  O  O34  1  0.23598225  0.36582548  0.14658897  1
  O  O35  1  0.73546468  0.36650664  0.14595583  1
  O  O36  1  0.23249131  0.28524500  0.02846281  1
  O  O37  1  0.73226099  0.28557088  0.02809990  1
  O  O38  1  0.42083780  0.52637251  0.02904781  1
  O  O39  1  0.92083698  0.52535810  0.02894249  1
  O  O40  1  0.35155786  0.16159425  0.02505167  1
  O  O41  1  0.85173338  0.16235990  0.02488656  1
  O  O42  1  0.23907502  0.17475218  0.52609467  1
  O  O43  1  0.73351395  0.16367590  0.52338565  1
  O  O44  1  0.34842596  0.53742710  0.52887800  1
  O  O45  1  0.84911563  0.53447554  0.52967817  1
  O  O46  1  0.42472837  0.30164274  0.52895594  1
  O  O47  1  0.91998226  0.31093467  0.53173585  1
  O  O48  1  0.27430718  0.68422983  0.97342268  1
  O  O49  1  0.77402165  0.68348012  0.97287387  1
  O  O50  1  0.06473953  0.46084255  0.97085156  1
  O  O51  1  0.56306686  0.45610282  0.97292037  1
  O  O52  1  0.15961475  0.86150402  0.97414844  1
  O  O53  1  0.65958208  0.86058365  0.97374800  1
  O  O54  1  0.27403244  0.85342584  0.47294038  1
  O  O55  1  0.78103660  0.87358408  0.47673616  1
  O  O56  1  0.15540449  0.46110423  0.47117229  1
  O  O57  1  0.66419549  0.46502197  0.47221695  1
  O  O58  1  0.06626754  0.67084327  0.47038179  1
  O  O59  1  0.57309355  0.69647990  0.47792455  1
  O  O60  1  0.05999894  0.63343959  0.35929289  1
  O  O61  1  0.57155401  0.63886155  0.35711404  1
  O  O62  1  0.25350226  0.87034939  0.36358402  1
  O  O63  1  0.75787068  0.87794866  0.36681230  1
  O  O64  1  0.17684875  0.49015165  0.35956401  1
  O  O65  1  0.68463579  0.48826534  0.36026500  1
  O  O66  1  0.06364285  0.49131914  0.85976434  1
  O  O67  1  0.56509816  0.49553266  0.86224846  1
  O  O68  1  0.17903250  0.86902953  0.86241498  1
  O  O69  1  0.67956588  0.87023313  0.86188161  1
  O  O70  1  0.25915768  0.63545920  0.86304973  1
  O  O71  1  0.75893823  0.63536959  0.86210645  1
  O  O72  1  0.00664602  0.81180546  0.41242784  1
  O  O73  1  0.50600586  0.83195366  0.41353021  1
  O  O74  1  0.39940175  0.99376392  0.40921223  1
  O  O75  1  0.90620324  0.00134030  0.41072024  1
  O  O76  1  0.08944348  0.19964104  0.41052999  1
  O  O77  1  0.59825291  0.20272056  0.41252525  1
  O  O78  1  0.00714152  0.20305831  0.91227414  1
  O  O79  1  0.50730800  0.20371721  0.91192141  1
  O  O80  1  0.09455143  0.98959218  0.91217130  1
  O  O81  1  0.59466757  0.98967894  0.91195873  1
  O  O82  1  0.40407205  0.80508712  0.91203277  1
  O  O83  1  0.90317117  0.80699537  0.91083334  1
  O  O84  1  0.47947324  0.15586865  0.59021685  1
  O  O85  1  0.97624186  0.15540109  0.58660021  1
  O  O86  1  0.08503791  0.03060719  0.59234011  1
  O  O87  1  0.58268188  0.01990945  0.59300028  1
  O  O88  1  0.41574513  0.80372959  0.58436671  1
  O  O89  1  0.91734791  0.80603376  0.58395079  1
  O  O90  1  0.47922517  0.79747814  0.08255747  1
  O  O91  1  0.97913901  0.79689356  0.08218765  1
  O  O92  1  0.41739677  0.03042564  0.08487504  1
  O  O93  1  0.91822641  0.03308581  0.08478796  1
  O  O94  1  0.08416251  0.13941309  0.09400357  1
  O  O95  1  0.58401682  0.13966638  0.09277624  1
  O  O96  1  0.33655882  0.16360961  0.74771005  1
  O  O97  1  0.83865208  0.16682450  0.74584632  1
  O  O98  1  0.23636923  0.34055750  0.74237851  1
  O  O99  1  0.73525432  0.33735277  0.74345058  1
  O  O100  1  0.42530553  0.53641785  0.74420844  1
  O  O101  1  0.92429831  0.53571049  0.74474353  1
  O  O102  1  0.34014187  0.51283168  0.24700585  1
  O  O103  1  0.83875235  0.51484183  0.24590530  1
  O  O104  1  0.42382983  0.31279031  0.24481936  1
  O  O105  1  0.92383797  0.31633139  0.24375609  1
  O  O106  1  0.23760767  0.13401393  0.24289374  1
  O  O107  1  0.73806762  0.14107877  0.24187069  1
  O  O108  1  0.31735940  0.48787530  0.92272007  1
  O  O109  1  0.81791595  0.48884947  0.92218704  1
  O  O110  1  0.42766178  0.36603707  0.92064686  1
  O  O111  1  0.92750366  0.36555952  0.91972972  1
  O  O112  1  0.25437582  0.13780428  0.91937717  1
  O  O113  1  0.75436134  0.13731594  0.91945773  1
  O  O114  1  0.31167632  0.13491537  0.42116249  1
  O  O115  1  0.81930174  0.14699720  0.42108818  1
  O  O116  1  0.24893638  0.37062912  0.41775735  1
  O  O117  1  0.75626939  0.36656065  0.42000114  1
  O  O118  1  0.41624257  0.47908880  0.42516652  1
  O  O119  1  0.92678638  0.48987961  0.42237843  1
  O  O120  1  0.17307970  0.50174927  0.07763180  1
  O  O121  1  0.67322507  0.50301916  0.07747617  1
  O  O122  1  0.07033106  0.66580037  0.07312709  1
  O  O123  1  0.57041758  0.66677640  0.07317146  1
  O  O124  1  0.25937657  0.87661715  0.07726746  1
  O  O125  1  0.75997618  0.87757905  0.07710659  1
  O  O126  1  0.17168991  0.84650763  0.57726906  1
  O  O127  1  0.67052525  0.84197889  0.58083084  1
  O  O128  1  0.25705753  0.64544226  0.57935744  1
  O  O129  1  0.75916207  0.64573572  0.57823478  1
  O  O130  1  0.06971050  0.47120878  0.57394067  1
  O  O131  1  0.57213027  0.47036850  0.57449255  1
  O  O132  1  0.14459585  0.81852623  0.26055835  1
  O  O133  1  0.64796917  0.82361745  0.25507960  1
  O  O134  1  0.25161056  0.68820087  0.25705649  1
  O  O135  1  0.75281639  0.69249470  0.26076907  1
  O  O136  1  0.08167888  0.47612153  0.25355152  1
  O  O137  1  0.58229346  0.46919368  0.25136851  1
  O  O138  1  0.14521279  0.47012483  0.76078066  1
  O  O139  1  0.64657565  0.47224231  0.75948559  1
  O  O140  1  0.08251300  0.68981303  0.75533526  1
  O  O141  1  0.58549503  0.69335461  0.75673243  1
  O  O142  1  0.25369395  0.81276075  0.75844396  1
  O  O143  1  0.75464377  0.81339158  0.75991202  1
loop_
_geom_bond_atom_site_label_1
_geom_bond_atom_site_label_2
_geom_bond_distance
_geom_bond_site_symmetry_2
Na0 O34 2.331437 1_555
Na0 O102 2.331935 1_555
Na0 O134 2.460234 1_555
Na0 O136 2.473670 1_555
Na0 O106 2.609371 1_555
Na0 O64 2.744031 1_555
Na0 O0 2.803796 1_555
Na0 O20 2.825702 1_555
Na1 O103 2.306259 1_555
Na1 O35 2.340487 1_555
Na1 O137 2.402408 1_555
Na1 O135 2.482077 1_555
Na1 O107 2.576171 1_555
Na1 O65 2.716055 1_555
Na1 O1 2.863712 1_555
Na1 O21 2.886692 1_555
Na2 O103 2.328175 1_555
Na2 O132 2.383064 1_655
Na2 O105 2.470684 1_555
Na2 O3 2.503459 1_555
Na2 O136 2.630939 1_655
Na2 O60 2.660211 1_655
Na2 O31 2.685295 1_555
Na2 O22 2.770677 1_655
Na2 Na25 3.075946 1_555
Na3 O102 2.360289 1_555
Na3 O133 2.397893 1_555
Na3 O104 2.462268 1_555
Na3 O61 2.568792 1_555
Na3 O137 2.616138 1_555
Na3 O2 2.666244 1_555
Na3 O30 2.802517 1_555
Na3 O23 2.921553 1_555
Na4 O142 2.348621 1_555
Na4 O98 2.356345 1_555
Na4 O100 2.412840 1_555
Na4 O28 2.505262 1_555
Na4 O12 2.625423 1_555
Na4 O138 2.759090 1_555
Na4 O70 2.808067 1_555
Na4 O8 2.936396 1_555
Na5 O99 2.333133 1_555
Na5 O143 2.341558 1_555
Na5 O101 2.414724 1_555
Na5 O29 2.479963 1_555
Na5 O13 2.653645 1_555
Na5 O139 2.686247 1_555
Na5 O71 2.771831 1_555
Na5 O9 2.958748 1_555
Na6 O97 2.350454 1_555
Na6 O138 2.378880 1_655
Na6 O101 2.462722 1_555
Na6 O11 2.575408 1_555
Na6 O25 2.580745 1_555
Na6 O140 2.603445 1_655
Na6 O66 2.714579 1_655
Na6 O14 2.738071 1_655
Na7 O26 2.277813 1_555
Na7 O96 2.290972 1_555
Na7 O140 2.441411 1_545
Na7 O142 2.506714 1_545
Na7 O98 2.626606 1_555
Na7 O16 2.774364 1_545
Na7 O68 2.838821 1_545
Na7 O6 2.852614 1_555
Na8 O27 2.304386 1_555
Na8 O97 2.318044 1_555
Na8 O141 2.428836 1_545
Na8 O143 2.538646 1_545
Na8 O99 2.583580 1_555
Na8 O17 2.752184 1_545
Na8 O69 2.835405 1_545
Na8 O7 2.872672 1_555
Na9 O127 2.315552 1_555
Na9 O59 2.319280 1_555
Na9 O88 2.405781 1_555
Na9 O87 2.474507 1_565
Na9 O131 2.613333 1_555
Na9 O24 2.816864 1_555
Na9 O44 2.828060 1_555
Na9 O17 2.869234 1_555
Na10 O126 2.352667 1_555
Na10 O84 2.395318 1_565
Na10 O128 2.482215 1_555
Na10 O88 2.659009 1_555
Na10 O12 2.670660 1_555
Na10 O26 2.677967 1_565
Na10 O54 2.727596 1_555
Na10 O46 2.837279 1_565
Na10 Na28 3.096044 1_555
Na11 O127 2.355833 1_555
Na11 O85 2.356836 1_565
Na11 O129 2.441972 1_555
Na11 O55 2.551221 1_555
Na11 O89 2.632148 1_555
Na11 O13 2.652529 1_555
Na11 O27 2.728149 1_565
Na11 O47 2.883057 1_565
Na12 O94 2.317189 1_565
Na12 O122 2.373426 1_555
Na12 O124 2.415649 1_555
Na12 O52 2.541642 1_554
Na12 O36 2.576720 1_565
Na12 O91 2.667108 1_455
Na12 O22 2.733982 1_555
Na12 O32 2.959778 1_565
Na13 O95 2.316796 1_565
Na13 O123 2.365466 1_555
Na13 O125 2.421869 1_555
Na13 O53 2.545637 1_554
Na13 O37 2.578504 1_565
Na13 O90 2.663526 1_555
Na13 O23 2.742841 1_555
Na13 O33 2.970147 1_565
Na14 O90 2.365582 1_555
Na14 O120 2.377326 1_555
Na14 O124 2.502512 1_555
Na14 O18 2.529168 1_555
Na14 O92 2.626723 1_565
Na14 O34 2.699580 1_555
Na14 O48 2.752484 1_554
Na14 O38 2.962210 1_555
Na14 Na26 3.058677 1_555
Na15 O121 2.370475 1_555
Na15 O91 2.372213 1_555
Na15 O19 2.496972 1_555
Na15 O125 2.499341 1_555
Na15 O93 2.649058 1_565
Na15 O35 2.683534 1_555
Na15 O49 2.772469 1_554
Na15 O39 2.978987 1_555
Na15 Na27 3.055327 1_555
Na16 O73 2.363466 1_545
Na16 O77 2.409350 1_555
Na16 O115 2.456217 1_555
Na16 O43 2.579261 1_555
Na16 O59 2.650702 1_545
Na16 O117 2.702945 1_555
Na16 O1 2.783480 1_555
Na16 O63 2.813710 1_545
Na16 Na19 3.072473 1_555
Na17 O73 2.312600 1_555
Na17 O116 2.358081 1_555
Na17 O2 2.372185 1_555
Na17 O118 2.445838 1_555
Na17 O74 2.519896 1_555
Na17 O44 2.826843 1_555
Na17 O54 2.931357 1_555
Na17 O64 2.964995 1_555
Na18 O86 2.373899 1_555
Na18 O76 2.443943 1_555
Na18 O72 2.480953 1_545
Na18 O89 2.517735 1_445
Na18 O85 2.623200 1_455
Na18 O75 2.745004 1_455
Na19 O73 2.433266 1_545
Na19 O77 2.433871 1_555
Na19 O87 2.474160 1_555
Na19 O88 2.551913 1_545
Na19 O84 2.552259 1_555
Na19 O74 2.709450 1_545
Na20 O78 2.420389 1_555
Na20 O93 2.469233 1_456
Na20 O94 2.476679 1_556
Na20 O80 2.506934 1_545
Na20 O91 2.583169 1_446
Na20 O83 2.705192 1_445
Na21 O79 2.414547 1_555
Na21 O95 2.456257 1_556
Na21 O92 2.476712 1_556
Na21 O81 2.508204 1_545
Na21 O90 2.601050 1_546
Na21 O82 2.688745 1_545
Na22 O96 2.262825 1_555
Na22 O110 2.365993 1_555
Na22 O112 2.473724 1_555
Na22 O100 2.529725 1_555
Na22 O108 2.662418 1_555
Na22 O98 2.845334 1_555
Na23 O97 2.370204 1_555
Na23 O113 2.371333 1_555
Na23 O111 2.436830 1_555
Na23 O109 2.542997 1_555
Na23 O101 2.604122 1_555
Na23 O99 2.716519 1_555
Na24 O114 2.442475 1_555
Na24 O102 2.461891 1_555
Na24 O118 2.479399 1_555
Na24 O104 2.482792 1_555
Na24 O116 2.533693 1_555
Na24 O106 2.649957 1_555
Na24 Na3 3.117137 1_555
Na25 O103 2.377399 1_555
Na25 O117 2.448217 1_555
Na25 O119 2.481270 1_555
Na25 O105 2.509208 1_555
Na25 O115 2.528638 1_555
Na25 O107 2.699562 1_555
Na26 O120 2.363530 1_555
Na26 O134 2.435431 1_555
Na26 O136 2.447957 1_555
Na26 O124 2.601974 1_555
Na26 O132 2.688042 1_555
Na26 O122 2.736409 1_555
Na27 O121 2.381580 1_555
Na27 O137 2.415073 1_555
Na27 O135 2.485487 1_555
Na27 O133 2.581258 1_555
Na27 O125 2.623368 1_555
Na27 O123 2.759408 1_555
Na28 O126 2.303847 1_555
Na28 O128 2.498076 1_555
Na28 O140 2.531236 1_555
Na28 O130 2.593178 1_555
Na28 O142 2.627769 1_555
Na28 O138 2.751241 1_555
Na29 O127 2.361698 1_555
Na29 O129 2.523546 1_555
Na29 O141 2.543556 1_555
Na29 O131 2.546283 1_555
Na29 O139 2.591329 1_555
Na29 O143 2.659033 1_555
Al0 O86 1.785508 1_665
Al0 O13 1.844180 1_555
Al0 O16 2.029215 1_655
Al0 O89 2.074482 1_555
Al0 O85 2.075191 1_565
Al0 O14 2.162508 1_665
Al1 O12 1.821763 1_545
Al1 O87 1.823513 1_555
Al1 O84 1.990910 1_555
Al1 O15 1.993790 1_555
Al1 O17 2.089405 1_545
Al1 O88 2.248178 1_545
Al2 O19 1.796750 1_545
Al2 O94 1.822694 1_655
Al2 O20 1.888697 1_655
Al2 O93 2.030100 1_555
Al2 O22 2.250209 1_645
Al2 O91 2.319053 1_545
Al3 O18 1.799963 1_545
Al3 O95 1.826022 1_555
Al3 O21 1.866867 1_555
Al3 O92 2.053553 1_555
Al3 O23 2.166747 1_545
Al3 O90 2.283142 1_545
Al4 O36 1.788715 1_556
Al4 O40 1.946916 1_556
Al4 O108 1.992178 1_555
Al4 O38 2.023410 1_556
Al4 O112 2.059976 1_555
Al4 O110 2.095770 1_555
Al5 O37 1.779821 1_556
Al5 O41 1.943516 1_556
Al5 O109 2.001688 1_555
Al5 O39 2.020007 1_556
Al5 O113 2.061124 1_555
Al5 O111 2.115846 1_555
Al6 O42 1.767949 1_555
Al6 O118 1.851578 1_555
Al6 O114 2.021769 1_555
Al6 O44 2.026320 1_555
Al6 O46 2.099619 1_555
Al6 O116 2.169060 1_555
Al7 O43 1.795935 1_555
Al7 O45 1.910413 1_555
Al7 O47 2.007616 1_555
Al7 O119 2.043052 1_555
Al7 O117 2.049677 1_555
Al7 O115 2.084674 1_555
Al8 O134 1.819030 1_555
Al8 O62 1.906251 1_555
Al8 O64 1.933126 1_555
Al8 O132 1.967237 1_555
Al8 O60 2.054104 1_555
Al8 O136 2.211005 1_555
Al9 O61 1.819116 1_555
Al9 O135 1.834077 1_555
Al9 O65 1.970178 1_555
Al9 O63 1.979142 1_555
Al9 O133 2.106317 1_555
Al9 O137 2.300704 1_555
Al10 O142 1.824229 1_555
Al10 O68 1.923704 1_555
Al10 O70 1.949122 1_555
Al10 O66 2.010269 1_555
Al10 O138 2.060593 1_555
Al10 O140 2.226554 1_555
Al11 O143 1.852269 1_555
Al11 O67 1.937767 1_555
Al11 O69 1.950706 1_555
Al11 O139 2.016739 1_555
Al11 O71 2.055198 1_555
Al11 O141 2.058156 1_555
O0 S0 1.465777 1_545
O0 Zn0 2.079069 1_445
O1 S1 1.480774 1_545
O1 Zn1 2.073204 1_545
O2 Si0 1.605083 1_555
O2 Zn1 1.902853 1_555
O3 Si1 1.599153 1_555
O3 Zn0 1.868826 1_555
O4 S3 1.458449 1_555
O4 Zn1 2.069429 1_545
O5 S2 1.447060 1_655
O5 Zn0 2.076286 1_545
O6 S4 1.469821 1_555
O6 Zn2 2.066087 1_455
O7 S5 1.465336 1_555
O7 Zn3 2.039266 1_555
O8 S7 1.462223 1_555
O8 Zn3 2.091946 1_565
O9 S6 1.461177 1_655
O9 Zn2 2.080348 1_565
O10 Si2 1.585499 1_555
O10 Zn3 1.854125 1_555
O11 Si3 1.599972 1_545
O11 Zn2 1.879482 1_555
O12 Si2 1.679886 1_565
O13 Si3 1.677285 1_555
O14 S4 1.488607 1_555
O15 S5 1.490244 1_555
O16 S6 1.493626 1_555
O17 S7 1.511351 1_555
O18 Si0 1.664759 1_555
O19 Si1 1.680055 1_555
O20 S2 1.511533 1_555
O21 S3 1.505426 1_555
O22 S0 1.503895 1_555
O23 S1 1.502692 1_555
O24 S8 1.480229 1_555
O24 Zn4 2.010352 1_555
O25 S9 1.486230 1_555
O25 Zn5 2.024067 1_555
O26 Si4 1.624630 1_555
O26 Zn4 1.893943 1_555
O27 Si5 1.611051 1_555
O27 Zn5 1.877493 1_555
O28 S10 1.474070 1_555
O28 Zn4 2.154327 1_555
O29 S11 1.480462 1_555
O29 Zn5 2.075274 1_555
O30 S12 1.472025 1_555
O30 Zn6 2.049783 1_555
O31 S13 1.473603 1_555
O31 Zn7 2.049776 1_555
O32 S14 1.460754 1_555
O32 Zn6 2.082406 1_555
O33 S15 1.460163 1_555
O33 Zn7 2.086800 1_555
O34 Si6 1.617328 1_555
O34 Zn6 1.922234 1_555
O35 Si7 1.615075 1_555
O35 Zn7 1.913817 1_555
O36 Si6 1.668223 1_555
O37 Si7 1.670359 1_555
O38 S12 1.493152 1_555
O39 S13 1.492903 1_555
O40 S14 1.494625 1_555
O41 S15 1.495500 1_555
O42 Si4 1.647838 1_555
O43 Si5 1.658628 1_555
O44 S10 1.497591 1_555
O45 S11 1.489524 1_555
O46 S8 1.490660 1_555
O47 S9 1.494992 1_555
O48 S16 1.470023 1_555
O48 Zn8 2.023759 1_556
O49 S17 1.469133 1_555
O49 Zn9 2.029058 1_556
O50 S18 1.455766 1_555
O50 Zn8 1.969711 1_556
O51 S19 1.459320 1_555
O51 Zn9 1.963048 1_556
O52 S20 1.474064 1_555
O52 Zn8 2.115362 1_556
O53 S21 1.473414 1_555
O53 Zn9 2.111143 1_556
O54 S22 1.480419 1_555
O54 Zn10 2.045978 1_555
O55 S23 1.476991 1_555
O55 Zn11 2.055619 1_555
O56 S24 1.466423 1_555
O56 Zn10 2.103132 1_555
O57 S25 1.454531 1_555
O57 Zn11 2.060321 1_555
O58 S26 1.459343 1_555
O58 Zn10 1.968239 1_555
O59 Si8 1.610817 1_555
O59 Zn11 1.900138 1_555
O60 S26 1.518756 1_555
O61 Si8 1.665447 1_555
O62 S22 1.505578 1_555
O63 S23 1.504052 1_555
O64 S24 1.530055 1_555
O65 S25 1.502887 1_555
O66 S18 1.523811 1_555
O67 S19 1.511417 1_555
O68 S20 1.517290 1_555
O69 S21 1.513534 1_555
O70 S16 1.521761 1_555
O71 S17 1.512087 1_555
O72 S26 1.467040 1_555
O72 Zn0 2.157983 1_455
O73 Si8 1.659357 1_555
O73 Zn1 2.006711 1_555
O74 S22 1.470668 1_555
O74 Zn1 2.161094 1_555
O75 S23 1.455837 1_545
O75 Zn0 2.075613 1_545
O76 S24 1.462100 1_555
O76 Zn0 2.254786 1_445
O77 S25 1.482601 1_555
O77 Zn1 2.348069 1_545
O78 S18 1.472718 1_555
O78 Zn2 2.148424 1_455
O79 S19 1.471212 1_555
O79 Zn3 2.141728 1_555
O80 S20 1.472182 1_555
O80 Zn2 2.282566 1_465
O81 S21 1.471553 1_555
O81 Zn3 2.281945 1_565
O82 S16 1.463286 1_555
O82 Zn3 2.131621 1_565
O83 S17 1.471635 1_555
O83 Zn2 2.102204 1_565
O84 S8 1.509459 1_555
O85 S9 1.506353 1_555
O86 Si4 1.650935 1_555
O87 Si5 1.660132 1_555
O88 S10 1.514221 1_555
O89 S11 1.504833 1_555
O90 S12 1.509094 1_555
O91 S13 1.505731 1_555
O92 S14 1.502453 1_555
O93 S15 1.504886 1_555
O94 Si6 1.665326 1_555
O95 Si7 1.661577 1_555
O96 Si2 1.622109 1_555
O96 Zn4 1.968094 1_555
O97 Si3 1.641403 1_545
O97 Zn5 2.023468 1_555
O98 S4 1.475192 1_555
O98 Zn4 2.275873 1_555
O99 S5 1.488343 1_555
O99 Zn5 2.260362 1_555
O100 S7 1.470994 1_555
O100 Zn4 2.371614 1_555
O101 S6 1.486563 1_655
O101 Zn5 2.361719 1_555
O102 Si0 1.652517 1_555
O102 Zn6 1.995292 1_555
O103 Si1 1.655747 1_555
O103 Zn7 1.995771 1_555
O104 S3 1.471786 1_555
O104 Zn6 2.308193 1_555
O105 S2 1.472005 1_655
O105 Zn7 2.305928 1_555
O106 S0 1.467862 1_545
O106 Zn6 2.185442 1_555
O107 S1 1.468344 1_545
O107 Zn7 2.152356 1_555
O108 S16 1.507670 1_555
O109 S17 1.513223 1_555
O110 S19 1.507533 1_555
O111 S18 1.505437 1_655
O112 S20 1.505900 1_545
O113 S21 1.510943 1_545
O114 S22 1.485636 1_545
O115 S23 1.522115 1_545
O116 S24 1.508669 1_555
O117 S25 1.524620 1_555
O118 Si8 1.666143 1_555
O119 S26 1.514613 1_655
O120 Si6 1.626561 1_555
O120 Zn8 1.926783 1_555
O121 Si7 1.625475 1_555
O121 Zn9 1.922966 1_555
O122 S13 1.480809 1_455
O122 Zn8 2.103419 1_555
O123 S12 1.479871 1_555
O123 Zn9 2.108197 1_555
O124 S14 1.495146 1_565
O124 Zn8 2.346211 1_555
O125 S15 1.491917 1_565
O125 Zn9 2.365701 1_555
O126 Si4 1.645706 1_565
O126 Zn10 1.929227 1_555
O127 Si5 1.650404 1_565
O127 Zn11 2.039285 1_555
O128 S10 1.477281 1_555
O128 Zn10 2.301937 1_555
O129 S11 1.477965 1_555
O129 Zn11 2.315672 1_555
O130 S9 1.461159 1_455
O130 Zn10 2.071634 1_555
O131 S8 1.464406 1_555
O131 Zn11 2.148532 1_555
O132 S0 1.521454 1_555
O133 S1 1.502439 1_555
O134 Si0 1.664436 1_555
O135 Si1 1.661929 1_555
O136 S2 1.521371 1_555
O137 S3 1.511082 1_555
O138 S4 1.527245 1_555
O139 S5 1.507776 1_555
O140 S6 1.512096 1_555
O141 S7 1.516945 1_555
O142 Si2 1.711502 1_565
O143 Si3 1.680472 1_555
