# generated using pymatgen
data_BaMgAgO2
_symmetry_space_group_name_H-M   'P 1'
_cell_length_a   12.85358470
_cell_length_b   8.57249046
_cell_length_c   8.57249046
_cell_angle_alpha   90.00000000
_cell_angle_beta   90.00000000
_cell_angle_gamma   90.00000000
_symmetry_Int_Tables_number   1
_chemical_formula_structural   BaMgAgO2
_chemical_formula_sum   'Ba8 Mg8 Ag8 O16'
_cell_volume   944.57899700
_cell_formula_units_Z   8
loop_
 _symmetry_equiv_pos_site_id
 _symmetry_equiv_pos_as_xyz
  1  'x, y, z'
loop_
 _atom_site_type_symbol
 _atom_site_label
 _atom_site_symmetry_multiplicity
 _atom_site_fract_x
 _atom_site_fract_y
 _atom_site_fract_z
 _atom_site_occupancy
  Ba  Ba0_0  1  0.25000000  0.25000000  0.25000000  1
  Ba  Ba0_1  1  0.25000000  0.25000000  0.75000000  1
  Ba  Ba0_2  1  0.25000000  0.75000000  0.25000000  1
  Ba  Ba0_3  1  0.25000000  0.75000000  0.75000000  1
  Ba  Ba0_4  1  0.75000000  0.25000000  0.25000000  1
  Ba  Ba0_5  1  0.75000000  0.25000000  0.75000000  1
  Ba  Ba0_6  1  0.75000000  0.75000000  0.25000000  1
  Ba  Ba0_7  1  0.75000000  0.75000000  0.75000000  1
  Mg  Mg0_0  1  0.00000000  0.25000000  0.25000000  1
  Mg  Mg0_1  1  0.00000000  0.25000000  0.75000000  1
  Mg  Mg0_2  1  0.00000000  0.75000000  0.25000000  1
  Mg  Mg0_3  1  0.00000000  0.75000000  0.75000000  1
  Mg  Mg0_4  1  0.50000000  0.25000000  0.25000000  1
  Mg  Mg0_5  1  0.50000000  0.25000000  0.75000000  1
  Mg  Mg0_6  1  0.50000000  0.75000000  0.25000000  1
  Mg  Mg0_7  1  0.50000000  0.75000000  0.75000000  1
  Ag  Ag0_0  1  0.00000000  0.00000000  0.00000000  1
  Ag  Ag0_1  1  0.00000000  0.00000000  0.50000000  1
  Ag  Ag0_2  1  0.00000000  0.50000000  0.00000000  1
  Ag  Ag0_3  1  0.00000000  0.50000000  0.50000000  1
  Ag  Ag0_4  1  0.50000000  0.00000000  0.00000000  1
  Ag  Ag0_5  1  0.50000000  0.00000000  0.50000000  1
  Ag  Ag0_6  1  0.50000000  0.50000000  0.00000000  1
  Ag  Ag0_7  1  0.50000000  0.50000000  0.50000000  1
  O  O0_0  1  0.00000000  0.00000000  0.25000000  1
  O  O0_1  1  0.00000000  0.00000000  0.75000000  1
  O  O0_2  1  0.00000000  0.50000000  0.25000000  1
  O  O0_3  1  0.00000000  0.50000000  0.75000000  1
  O  O0_4  1  0.50000000  0.00000000  0.25000000  1
  O  O0_5  1  0.50000000  0.00000000  0.75000000  1
  O  O0_6  1  0.50000000  0.50000000  0.25000000  1
  O  O0_7  1  0.50000000  0.50000000  0.75000000  1
  O  O1_0  1  0.00000000  0.25000000  0.00000000  1
  O  O1_1  1  0.00000000  0.25000000  0.50000000  1
  O  O1_2  1  0.00000000  0.75000000  0.00000000  1
  O  O1_3  1  0.00000000  0.75000000  0.50000000  1
  O  O1_4  1  0.50000000  0.25000000  0.00000000  1
  O  O1_5  1  0.50000000  0.25000000  0.50000000  1
  O  O1_6  1  0.50000000  0.75000000  0.00000000  1
  O  O1_7  1  0.50000000  0.75000000  0.50000000  1
loop_
_geom_bond_atom_site_label_1
_geom_bond_atom_site_label_2
_geom_bond_distance
_geom_bond_site_symmetry_2
Ba0_0 Mg0_0 3.213396 1_555
Ba0_0 Mg0_4 3.213396 1_555
Ba0_0 O0_0 3.862498 1_555
Ba0_0 O1_0 3.862498 1_555
Ba0_0 O0_4 3.862498 1_555
Ba0_0 O0_2 3.862498 1_555
Ba0_0 O1_1 3.862498 1_555
Ba0_0 O1_4 3.862498 1_555
Ba0_0 O1_5 3.862498 1_555
Ba0_0 O0_6 3.862498 1_555
Ba0_0 Ba0_2 4.286245 1_555
Ba0_0 Ba0_2 4.286245 1_545
Ba0_0 Ba0_1 4.286245 1_555
Ba0_0 Ba0_1 4.286245 1_554
Ba0_1 Mg0_1 3.213396 1_555
Ba0_1 Mg0_5 3.213396 1_555
Ba0_1 O0_1 3.862498 1_555
Ba0_1 O0_5 3.862498 1_555
Ba0_1 O1_0 3.862498 1_556
Ba0_1 O1_1 3.862498 1_555
Ba0_1 O0_3 3.862498 1_555
Ba0_1 O1_4 3.862498 1_556
Ba0_1 O1_5 3.862498 1_555
Ba0_1 O0_7 3.862498 1_555
Ba0_1 Ba0_3 4.286245 1_545
Ba0_1 Ba0_3 4.286245 1_555
Ba0_2 Mg0_6 3.213396 1_555
Ba0_2 Mg0_2 3.213396 1_555
Ba0_2 O0_0 3.862498 1_565
Ba0_2 O1_3 3.862498 1_555
Ba0_2 O1_6 3.862498 1_555
Ba0_2 O0_4 3.862498 1_565
Ba0_2 O0_2 3.862498 1_555
Ba0_2 O1_7 3.862498 1_555
Ba0_2 O0_6 3.862498 1_555
Ba0_2 O1_2 3.862498 1_555
Ba0_2 Ba0_3 4.286245 1_555
Ba0_2 Ba0_3 4.286245 1_554
Ba0_3 Mg0_3 3.213396 1_555
Ba0_3 Mg0_7 3.213396 1_555
Ba0_3 O1_3 3.862498 1_555
Ba0_3 O0_1 3.862498 1_565
Ba0_3 O1_6 3.862498 1_556
Ba0_3 O0_3 3.862498 1_555
Ba0_3 O1_7 3.862498 1_555
Ba0_3 O0_5 3.862498 1_565
Ba0_3 O0_7 3.862498 1_555
Ba0_3 O1_2 3.862498 1_556
Ba0_4 Mg0_0 3.213396 1_655
Ba0_4 Mg0_4 3.213396 1_555
Ba0_4 O1_1 3.862498 1_655
Ba0_4 O0_0 3.862498 1_655
Ba0_4 O1_0 3.862498 1_655
Ba0_4 O0_2 3.862498 1_655
Ba0_4 O0_6 3.862498 1_555
Ba0_4 O0_4 3.862498 1_555
Ba0_4 O1_4 3.862498 1_555
Ba0_4 O1_5 3.862498 1_555
Ba0_4 Ba0_5 4.286245 1_554
Ba0_4 Ba0_6 4.286245 1_555
Ba0_4 Ba0_5 4.286245 1_555
Ba0_4 Ba0_6 4.286245 1_545
Ba0_5 Mg0_1 3.213396 1_655
Ba0_5 Mg0_5 3.213396 1_555
Ba0_5 O1_1 3.862498 1_655
Ba0_5 O0_3 3.862498 1_655
Ba0_5 O0_1 3.862498 1_655
Ba0_5 O1_0 3.862498 1_656
Ba0_5 O0_7 3.862498 1_555
Ba0_5 O0_5 3.862498 1_555
Ba0_5 O1_4 3.862498 1_556
Ba0_5 O1_5 3.862498 1_555
Ba0_5 Ba0_7 4.286245 1_545
Ba0_5 Ba0_7 4.286245 1_555
Ba0_6 Mg0_2 3.213396 1_655
Ba0_6 Mg0_6 3.213396 1_555
Ba0_6 O0_0 3.862498 1_665
Ba0_6 O1_3 3.862498 1_655
Ba0_6 O1_2 3.862498 1_655
Ba0_6 O0_2 3.862498 1_655
Ba0_6 O0_6 3.862498 1_555
Ba0_6 O1_6 3.862498 1_555
Ba0_6 O0_4 3.862498 1_565
Ba0_6 O1_7 3.862498 1_555
Ba0_6 Ba0_7 4.286245 1_555
Ba0_6 Ba0_7 4.286245 1_554
Ba0_7 Mg0_3 3.213396 1_655
Ba0_7 Mg0_7 3.213396 1_555
Ba0_7 O1_2 3.862498 1_656
Ba0_7 O0_3 3.862498 1_655
Ba0_7 O1_3 3.862498 1_655
Ba0_7 O0_1 3.862498 1_665
Ba0_7 O0_7 3.862498 1_555
Ba0_7 O1_6 3.862498 1_556
Ba0_7 O1_7 3.862498 1_555
Ba0_7 O0_5 3.862498 1_565
Mg0_0 O0_0 2.143123 1_555
Mg0_0 O0_2 2.143123 1_555
Mg0_0 O1_0 2.143123 1_555
Mg0_0 O1_1 2.143123 1_555
Mg0_1 O0_3 2.143123 1_555
Mg0_1 O0_1 2.143123 1_555
Mg0_1 O1_0 2.143123 1_556
Mg0_1 O1_1 2.143123 1_555
Mg0_2 O1_2 2.143123 1_555
Mg0_2 O0_0 2.143123 1_565
Mg0_2 O0_2 2.143123 1_555
Mg0_2 O1_3 2.143123 1_555
Mg0_3 O0_3 2.143123 1_555
Mg0_3 O1_2 2.143123 1_556
Mg0_3 O1_3 2.143123 1_555
Mg0_3 O0_1 2.143123 1_565
Mg0_4 O1_5 2.143123 1_555
Mg0_4 O0_6 2.143123 1_555
Mg0_4 O0_4 2.143123 1_555
Mg0_4 O1_4 2.143123 1_555
Mg0_5 O1_5 2.143123 1_555
Mg0_5 O0_7 2.143123 1_555
Mg0_5 O0_5 2.143123 1_555
Mg0_5 O1_4 2.143123 1_556
Mg0_6 O0_6 2.143123 1_555
Mg0_6 O1_6 2.143123 1_555
Mg0_6 O0_4 2.143123 1_565
Mg0_6 O1_7 2.143123 1_555
Mg0_7 O0_5 2.143123 1_565
Mg0_7 O0_7 2.143123 1_555
Mg0_7 O1_6 2.143123 1_556
Mg0_7 O1_7 2.143123 1_555
Ag0_0 O0_1 2.143123 1_554
Ag0_0 O1_2 2.143123 1_545
Ag0_0 O1_0 2.143123 1_555
Ag0_0 O0_0 2.143123 1_555
Ag0_1 O1_3 2.143123 1_545
Ag0_1 O1_1 2.143123 1_555
Ag0_1 O0_1 2.143123 1_555
Ag0_1 O0_0 2.143123 1_555
Ag0_2 O0_3 2.143123 1_554
Ag0_2 O0_2 2.143123 1_555
Ag0_2 O1_0 2.143123 1_555
Ag0_2 O1_2 2.143123 1_555
Ag0_3 O0_2 2.143123 1_555
Ag0_3 O0_3 2.143123 1_555
Ag0_3 O1_1 2.143123 1_555
Ag0_3 O1_3 2.143123 1_555
Ag0_4 O0_5 2.143123 1_554
Ag0_4 O1_4 2.143123 1_555
Ag0_4 O0_4 2.143123 1_555
Ag0_4 O1_6 2.143123 1_545
Ag0_5 O1_5 2.143123 1_555
Ag0_5 O0_4 2.143123 1_555
Ag0_5 O1_7 2.143123 1_545
Ag0_5 O0_5 2.143123 1_555
Ag0_6 O0_7 2.143123 1_554
Ag0_6 O1_4 2.143123 1_555
Ag0_6 O1_6 2.143123 1_555
Ag0_6 O0_6 2.143123 1_555
Ag0_7 O0_7 2.143123 1_555
Ag0_7 O1_7 2.143123 1_555
Ag0_7 O0_6 2.143123 1_555
Ag0_7 O1_5 2.143123 1_555
