# generated using pymatgen
data_PuTe
_symmetry_space_group_name_H-M   'P 1'
_cell_length_a   7.60872800
_cell_length_b   7.60872800
_cell_length_c   7.60872800
_cell_angle_alpha   90.00000000
_cell_angle_beta   90.00000000
_cell_angle_gamma   90.00000000
_symmetry_Int_Tables_number   1
_chemical_formula_structural   PuTe
_chemical_formula_sum   'Pu8 Te8'
_cell_volume   440.49012536
_cell_formula_units_Z   8
loop_
 _symmetry_equiv_pos_site_id
 _symmetry_equiv_pos_as_xyz
  1  'x, y, z'
loop_
 _atom_site_type_symbol
 _atom_site_label
 _atom_site_symmetry_multiplicity
 _atom_site_fract_x
 _atom_site_fract_y
 _atom_site_fract_z
 _atom_site_occupancy
  Pu  Pu0_0  1  0.00000000  0.00000000  0.00000000  1
  Pu  Pu0_1  1  0.00000000  0.00000000  0.50000000  1
  Pu  Pu0_2  1  0.00000000  0.50000000  0.00000000  1
  Pu  Pu0_3  1  0.00000000  0.50000000  0.50000000  1
  Pu  Pu0_4  1  0.50000000  0.00000000  0.00000000  1
  Pu  Pu0_5  1  0.50000000  0.00000000  0.50000000  1
  Pu  Pu0_6  1  0.50000000  0.50000000  0.00000000  1
  Pu  Pu0_7  1  0.50000000  0.50000000  0.50000000  1
  Te  Te0_0  1  0.25000000  0.25000000  0.25000000  1
  Te  Te0_1  1  0.25000000  0.25000000  0.75000000  1
  Te  Te0_2  1  0.25000000  0.75000000  0.25000000  1
  Te  Te0_3  1  0.25000000  0.75000000  0.75000000  1
  Te  Te0_4  1  0.75000000  0.25000000  0.25000000  1
  Te  Te0_5  1  0.75000000  0.25000000  0.75000000  1
  Te  Te0_6  1  0.75000000  0.75000000  0.25000000  1
  Te  Te0_7  1  0.75000000  0.75000000  0.75000000  1
loop_
_geom_bond_atom_site_label_1
_geom_bond_atom_site_label_2
_geom_bond_distance
_geom_bond_site_symmetry_2
Pu0_0 Te0_0 3.294676 1_555
Pu0_0 Te0_5 3.294676 1_454
Pu0_0 Te0_6 3.294676 1_445
Pu0_0 Te0_4 3.294676 1_455
Pu0_0 Te0_2 3.294676 1_545
Pu0_0 Te0_7 3.294676 1_444
Pu0_0 Te0_3 3.294676 1_544
Pu0_0 Te0_1 3.294676 1_554
Pu0_0 Pu0_2 3.804364 1_555
Pu0_0 Pu0_1 3.804364 1_554
Pu0_0 Pu0_4 3.804364 1_455
Pu0_0 Pu0_2 3.804364 1_545
Pu0_0 Pu0_1 3.804364 1_555
Pu0_0 Pu0_4 3.804364 1_555
Pu0_1 Te0_0 3.294676 1_555
Pu0_1 Te0_7 3.294676 1_445
Pu0_1 Te0_1 3.294676 1_555
Pu0_1 Te0_5 3.294676 1_455
Pu0_1 Te0_6 3.294676 1_445
Pu0_1 Te0_4 3.294676 1_455
Pu0_1 Te0_2 3.294676 1_545
Pu0_1 Te0_3 3.294676 1_545
Pu0_1 Pu0_5 3.804364 1_555
Pu0_1 Pu0_3 3.804364 1_555
Pu0_1 Pu0_3 3.804364 1_545
Pu0_1 Pu0_5 3.804364 1_455
Pu0_2 Te0_0 3.294676 1_555
Pu0_2 Te0_7 3.294676 1_454
Pu0_2 Te0_5 3.294676 1_454
Pu0_2 Te0_2 3.294676 1_555
Pu0_2 Te0_3 3.294676 1_554
Pu0_2 Te0_4 3.294676 1_455
Pu0_2 Te0_6 3.294676 1_455
Pu0_2 Te0_1 3.294676 1_554
Pu0_2 Pu0_3 3.804364 1_554
Pu0_2 Pu0_6 3.804364 1_555
Pu0_2 Pu0_3 3.804364 1_555
Pu0_2 Pu0_6 3.804364 1_455
Pu0_3 Te0_0 3.294676 1_555
Pu0_3 Te0_7 3.294676 1_455
Pu0_3 Te0_1 3.294676 1_555
Pu0_3 Te0_5 3.294676 1_455
Pu0_3 Te0_2 3.294676 1_555
Pu0_3 Te0_6 3.294676 1_455
Pu0_3 Te0_4 3.294676 1_455
Pu0_3 Te0_3 3.294676 1_555
Pu0_3 Pu0_7 3.804364 1_455
Pu0_3 Pu0_7 3.804364 1_555
Pu0_4 Te0_7 3.294676 1_544
Pu0_4 Te0_0 3.294676 1_555
Pu0_4 Te0_3 3.294676 1_544
Pu0_4 Te0_5 3.294676 1_554
Pu0_4 Te0_4 3.294676 1_555
Pu0_4 Te0_2 3.294676 1_545
Pu0_4 Te0_6 3.294676 1_545
Pu0_4 Te0_1 3.294676 1_554
Pu0_4 Pu0_6 3.804364 1_545
Pu0_4 Pu0_5 3.804364 1_554
Pu0_4 Pu0_5 3.804364 1_555
Pu0_4 Pu0_6 3.804364 1_555
Pu0_5 Te0_0 3.294676 1_555
Pu0_5 Te0_1 3.294676 1_555
Pu0_5 Te0_4 3.294676 1_555
Pu0_5 Te0_5 3.294676 1_555
Pu0_5 Te0_7 3.294676 1_545
Pu0_5 Te0_2 3.294676 1_545
Pu0_5 Te0_6 3.294676 1_545
Pu0_5 Te0_3 3.294676 1_545
Pu0_5 Pu0_7 3.804364 1_545
Pu0_5 Pu0_7 3.804364 1_555
Pu0_6 Te0_6 3.294676 1_555
Pu0_6 Te0_0 3.294676 1_555
Pu0_6 Te0_5 3.294676 1_554
Pu0_6 Te0_4 3.294676 1_555
Pu0_6 Te0_2 3.294676 1_555
Pu0_6 Te0_3 3.294676 1_554
Pu0_6 Te0_7 3.294676 1_554
Pu0_6 Te0_1 3.294676 1_554
Pu0_6 Pu0_7 3.804364 1_555
Pu0_6 Pu0_7 3.804364 1_554
Pu0_7 Te0_0 3.294676 1_555
Pu0_7 Te0_7 3.294676 1_555
Pu0_7 Te0_1 3.294676 1_555
Pu0_7 Te0_4 3.294676 1_555
Pu0_7 Te0_5 3.294676 1_555
Pu0_7 Te0_2 3.294676 1_555
Pu0_7 Te0_6 3.294676 1_555
Pu0_7 Te0_3 3.294676 1_555
Te0_0 Te0_1 3.804364 1_555
Te0_0 Te0_4 3.804364 1_555
Te0_0 Te0_2 3.804364 1_555
Te0_0 Te0_4 3.804364 1_455
Te0_0 Te0_2 3.804364 1_545
Te0_0 Te0_1 3.804364 1_554
Te0_1 Te0_5 3.804364 1_455
Te0_1 Te0_5 3.804364 1_555
Te0_1 Te0_3 3.804364 1_555
Te0_1 Te0_3 3.804364 1_545
Te0_2 Te0_3 3.804364 1_554
Te0_2 Te0_6 3.804364 1_455
Te0_2 Te0_3 3.804364 1_555
Te0_2 Te0_6 3.804364 1_555
Te0_3 Te0_7 3.804364 1_555
Te0_3 Te0_7 3.804364 1_455
Te0_4 Te0_5 3.804364 1_555
Te0_4 Te0_6 3.804364 1_545
Te0_4 Te0_6 3.804364 1_555
Te0_4 Te0_5 3.804364 1_554
Te0_5 Te0_7 3.804364 1_555
Te0_5 Te0_7 3.804364 1_545
Te0_6 Te0_7 3.804364 1_555
Te0_6 Te0_7 3.804364 1_554
