# generated using pymatgen
data_Sb2IF15
_symmetry_space_group_name_H-M   'P 1'
_cell_length_a   14.38807465
_cell_length_b   8.36579525
_cell_length_c   9.87875948
_cell_angle_alpha   66.78003932
_cell_angle_beta   90.00000000
_cell_angle_gamma   90.00000000
_symmetry_Int_Tables_number   1
_chemical_formula_structural   Sb2IF15
_chemical_formula_sum   'Sb8 I4 F60'
_cell_volume   1092.76533983
_cell_formula_units_Z   4
loop_
 _symmetry_equiv_pos_site_id
 _symmetry_equiv_pos_as_xyz
  1  'x, y, z'
loop_
 _atom_site_type_symbol
 _atom_site_label
 _atom_site_symmetry_multiplicity
 _atom_site_fract_x
 _atom_site_fract_y
 _atom_site_fract_z
 _atom_site_occupancy
  Sb  Sb0  1  0.54570948  0.79680584  0.35480843  1
  Sb  Sb1  1  0.04570948  0.20319416  0.14519157  1
  Sb  Sb2  1  0.45429052  0.20319416  0.64519157  1
  Sb  Sb3  1  0.95429052  0.79680584  0.85480843  1
  Sb  Sb4  1  0.74611743  0.10426287  0.38931389  1
  Sb  Sb5  1  0.24611743  0.89573713  0.11068611  1
  Sb  Sb6  1  0.25388257  0.89573713  0.61068611  1
  Sb  Sb7  1  0.75388257  0.10426287  0.88931389  1
  I  I0  1  0.88887958  0.68909985  0.30657669  1
  I  I1  1  0.38887958  0.31090015  0.19342331  1
  I  I2  1  0.11112042  0.31090015  0.69342331  1
  I  I3  1  0.61112042  0.68909985  0.80657669  1
  F  F0  1  0.65230263  0.65897543  0.39039412  1
  F  F1  1  0.15230263  0.34102457  0.10960588  1
  F  F2  1  0.34769737  0.34102457  0.60960588  1
  F  F3  1  0.84769737  0.65897543  0.89039412  1
  F  F4  1  0.55473814  0.86208306  0.15198757  1
  F  F5  1  0.05473814  0.13791694  0.34801243  1
  F  F6  1  0.44526186  0.13791694  0.84801243  1
  F  F7  1  0.94526186  0.86208306  0.65198757  1
  F  F8  1  0.54883351  0.76245784  0.56011481  1
  F  F9  1  0.04883351  0.23754216  0.93988519  1
  F  F10  1  0.45116649  0.23754216  0.43988519  1
  F  F11  1  0.95116649  0.76245784  0.06011481  1
  F  F12  1  0.51161775  0.73793908  0.90777893  1
  F  F13  1  0.01161775  0.26206092  0.59222107  1
  F  F14  1  0.48838225  0.26206092  0.09222107  1
  F  F15  1  0.98838225  0.73793908  0.40777893  1
  F  F16  1  0.53558479  0.50959499  0.81981372  1
  F  F17  1  0.03558479  0.49040501  0.68018628  1
  F  F18  1  0.46441521  0.49040501  0.18018628  1
  F  F19  1  0.96441521  0.50959499  0.31981372  1
  F  F20  1  0.65756320  0.56625067  0.98955862  1
  F  F21  1  0.15756320  0.43374933  0.51044138  1
  F  F22  1  0.34243680  0.43374933  0.01044138  1
  F  F23  1  0.84243680  0.56625067  0.48955862  1
  F  F24  1  0.69966150  0.56579779  0.74593108  1
  F  F25  1  0.19966150  0.43420221  0.75406892  1
  F  F26  1  0.30033850  0.43420221  0.25406892  1
  F  F27  1  0.80033850  0.56579779  0.24593108  1
  F  F28  1  0.84155383  0.26385411  0.89840236  1
  F  F29  1  0.34155383  0.73614589  0.60159764  1
  F  F30  1  0.15844617  0.73614589  0.10159764  1
  F  F31  1  0.65844617  0.26385411  0.39840236  1
  F  F32  1  0.64963654  0.19412013  0.94552225  1
  F  F33  1  0.14963654  0.80587987  0.55447775  1
  F  F34  1  0.35036346  0.80587987  0.05447775  1
  F  F35  1  0.85036346  0.19412013  0.44552225  1
  F  F36  1  0.68667606  0.91087862  0.87763143  1
  F  F37  1  0.18667606  0.08912138  0.62236857  1
  F  F38  1  0.31332394  0.08912138  0.12236857  1
  F  F39  1  0.81332394  0.91087862  0.37763143  1
  F  F40  1  0.78262306  0.94570324  0.08233861  1
  F  F41  1  0.28262306  0.05429676  0.41766139  1
  F  F42  1  0.21737694  0.05429676  0.91766139  1
  F  F43  1  0.71737694  0.94570324  0.58233861  1
  F  F44  1  0.73605886  0.22482564  0.68756298  1
  F  F45  1  0.23605886  0.77517436  0.81243702  1
  F  F46  1  0.26394114  0.77517436  0.31243702  1
  F  F47  1  0.76394114  0.22482564  0.18756298  1
  F  F48  1  0.86448139  0.99500696  0.82720486  1
  F  F49  1  0.36448139  0.00499304  0.67279514  1
  F  F50  1  0.13551861  0.00499304  0.17279514  1
  F  F51  1  0.63551861  0.99500696  0.32720486  1
  F  F52  1  0.04458165  0.96768906  0.83484548  1
  F  F53  1  0.54458165  0.03231094  0.66515452  1
  F  F54  1  0.95541835  0.03231094  0.16515452  1
  F  F55  1  0.45541835  0.96768906  0.33484548  1
  F  F56  1  0.04318939  0.62477303  0.88626290  1
  F  F57  1  0.54318939  0.37522697  0.61373710  1
  F  F58  1  0.95681061  0.37522697  0.11373710  1
  F  F59  1  0.45681061  0.62477303  0.38626290  1
loop_
_geom_bond_atom_site_label_1
_geom_bond_atom_site_label_2
_geom_bond_distance
_geom_bond_site_symmetry_2
F0 Sb0 1.866989 1_555
F0 F8 2.630849 1_555
F0 F51 2.639497 1_555
F1 Sb1 1.866989 1_555
F1 F9 2.630849 1_554
F1 F50 2.639497 1_555
F2 Sb2 1.866989 1_555
F2 F49 2.639497 1_555
F3 Sb3 1.866989 1_555
F3 F48 2.639497 1_555
F4 Sb0 1.861936 1_555
F4 F51 2.664834 1_555
F5 Sb1 1.861936 1_555
F5 F50 2.664834 1_555
F6 Sb2 1.861936 1_555
F7 Sb3 1.861936 1_555
F8 Sb0 1.933527 1_555
F8 I3 2.435060 1_555
F9 Sb1 1.933527 1_556
F9 I2 2.435060 1_555
F10 Sb2 1.933527 1_555
F10 I1 2.435060 1_555
F10 F53 2.587249 1_555
F10 F18 2.610304 1_555
F10 F2 2.630849 1_555
F10 F49 2.665472 1_555
F11 Sb3 1.933527 1_554
F11 I0 2.435060 1_555
F11 F52 2.587249 1_654
F11 F19 2.610304 1_555
F11 F3 2.630849 1_554
F11 F48 2.665472 1_554
F12 I3 1.881001 1_555
F12 F16 2.414991 1_555
F12 F20 2.492018 1_555
F13 I2 1.881001 1_555
F13 F17 2.414991 1_555
F13 F21 2.492018 1_555
F14 I1 1.881001 1_555
F14 F18 2.414991 1_555
F14 F22 2.492018 1_555
F15 I0 1.881001 1_555
F15 F19 2.414991 1_555
F15 F23 2.492018 1_555
F16 I3 1.816184 1_555
F16 F24 2.460957 1_555
F16 F8 2.610304 1_555
F17 I2 1.816184 1_555
F17 F25 2.460957 1_555
F17 F9 2.610304 1_555
F18 I1 1.816184 1_555
F18 F26 2.460957 1_555
F19 I0 1.816184 1_555
F19 F27 2.460957 1_555
F20 I3 1.818077 1_555
F20 F24 2.483240 1_555
F20 F36 2.682637 1_555
F21 I2 1.818077 1_555
F21 F25 2.483240 1_555
F21 F37 2.682637 1_555
F22 I1 1.818077 1_555
F22 F26 2.483240 1_555
F22 F38 2.682637 1_555
F23 I0 1.818077 1_555
F23 F27 2.483240 1_555
F23 F39 2.682637 1_555
F24 I3 1.879672 1_555
F25 I2 1.879672 1_555
F26 I1 1.879672 1_555
F27 I0 1.879672 1_555
F28 Sb7 1.864477 1_555
F28 F48 2.628578 1_545
F29 Sb6 1.864477 1_555
F29 F49 2.628578 1_565
F30 Sb5 1.864477 1_555
F30 F50 2.628578 1_565
F31 Sb4 1.864477 1_555
F31 F51 2.628578 1_545
F32 Sb7 1.858025 1_555
F33 Sb6 1.858025 1_555
F34 Sb5 1.858025 1_555
F35 Sb4 1.858025 1_555
F36 Sb7 1.926888 1_565
F36 I3 2.478662 1_555
F36 F40 2.558262 1_556
F36 F48 2.647983 1_555
F36 F44 2.653274 1_565
F37 Sb6 1.926888 1_545
F37 I2 2.478662 1_555
F37 F41 2.558262 1_555
F37 F49 2.647983 1_555
F37 F45 2.653274 1_545
F38 Sb5 1.926888 1_545
F38 I1 2.478662 1_555
F38 F42 2.558262 1_554
F38 F50 2.647983 1_555
F38 F46 2.653274 1_545
F39 Sb4 1.926888 1_565
F39 I0 2.478662 1_555
F39 F43 2.558262 1_555
F39 F51 2.647983 1_555
F39 F47 2.653274 1_565
F40 Sb7 1.890004 1_564
F40 F48 2.662707 1_554
F41 Sb6 1.890004 1_545
F41 F49 2.662707 1_555
F42 Sb5 1.890004 1_546
F42 F50 2.662707 1_556
F43 Sb4 1.890004 1_565
F43 F51 2.662707 1_555
F44 Sb7 1.862848 1_555
F44 F48 2.631024 1_545
F45 Sb6 1.862848 1_555
F45 F49 2.631024 1_565
F46 Sb5 1.862848 1_555
F46 F50 2.631024 1_565
F47 Sb4 1.862848 1_555
F47 F51 2.631024 1_545
F48 Sb3 2.033934 1_555
F48 Sb7 2.046052 1_565
F48 F52 2.599834 1_655
F48 F7 2.664834 1_555
F49 Sb2 2.033934 1_555
F49 Sb6 2.046052 1_545
F49 F53 2.599834 1_555
F49 F6 2.664834 1_555
F50 Sb1 2.033934 1_555
F50 Sb5 2.046052 1_545
F50 F54 2.599834 1_455
F50 F9 2.665472 1_554
F51 Sb0 2.033934 1_555
F51 Sb4 2.046052 1_565
F51 F55 2.599834 1_555
F51 F8 2.665472 1_555
F52 Sb3 1.883606 1_455
F53 Sb2 1.883606 1_555
F54 Sb1 1.883606 1_655
F54 F9 2.587249 1_654
F55 Sb0 1.883606 1_555
F55 F8 2.587249 1_555
F56 Sb3 1.857754 1_455
F57 Sb2 1.857754 1_555
F58 Sb1 1.857754 1_655
F59 Sb0 1.857754 1_555
