# generated using pymatgen
data_Na6CaTi3Si2(PO6)4
_symmetry_space_group_name_H-M   'P 1'
_cell_length_a   15.63548761
_cell_length_b   8.97121128
_cell_length_c   8.98887560
_cell_angle_alpha   89.76692424
_cell_angle_beta   125.09892255
_cell_angle_gamma   90.34479396
_symmetry_Int_Tables_number   1
_chemical_formula_structural   Na6CaTi3Si2(PO6)4
_chemical_formula_sum   'Na12 Ca2 Ti6 Si4 P8 O48'
_cell_volume   1031.56933888
_cell_formula_units_Z   2
loop_
 _symmetry_equiv_pos_site_id
 _symmetry_equiv_pos_as_xyz
  1  'x, y, z'
loop_
 _atom_site_type_symbol
 _atom_site_label
 _atom_site_symmetry_multiplicity
 _atom_site_fract_x
 _atom_site_fract_y
 _atom_site_fract_z
 _atom_site_occupancy
  Na  Na0  1  0.25087344  0.74339048  0.99687497  1
  Na  Na1  1  0.75132277  0.74732397  0.49605053  1
  Na  Na2  1  0.75087344  0.24339048  0.99687497  1
  Na  Na3  1  0.25132277  0.24732397  0.49605053  1
  Na  Na4  1  0.51253439  0.10458182  0.77542885  1
  Na  Na5  1  0.49947298  0.88325733  0.24427570  1
  Na  Na6  1  0.01253439  0.60458182  0.77542885  1
  Na  Na7  1  0.99947298  0.38325733  0.24427570  1
  Na  Na8  1  0.80135890  0.93755850  0.24280376  1
  Na  Na9  1  0.17787684  0.06758995  0.76916254  1
  Na  Na10  1  0.30135890  0.43755850  0.24280376  1
  Na  Na11  1  0.67787684  0.56758995  0.76916254  1
  Ca  Ca0  1  0.10292346  0.24004097  0.06109730  1
  Ca  Ca1  1  0.60292346  0.74004097  0.06109730  1
  Ti  Ti0  1  0.10411339  0.74280859  0.55364385  1
  Ti  Ti1  1  0.89279423  0.75669720  0.93889689  1
  Ti  Ti2  1  0.89780554  0.25763695  0.44732656  1
  Ti  Ti3  1  0.60411339  0.24280859  0.55364385  1
  Ti  Ti4  1  0.39279423  0.25669720  0.93889689  1
  Ti  Ti5  1  0.39780554  0.75763695  0.44732656  1
  Si  Si0  1  0.65183389  0.90208067  0.75055869  1
  Si  Si1  1  0.36030212  0.09709807  0.25412775  1
  Si  Si2  1  0.15183389  0.40208067  0.75055869  1
  Si  Si3  1  0.86030212  0.59709807  0.25412775  1
  P  P0  1  0.99444041  0.94727300  0.73437636  1
  P  P1  1  0.99571881  0.03662152  0.26047968  1
  P  P2  1  0.49444041  0.44727300  0.73437636  1
  P  P3  1  0.49571881  0.53662152  0.26047968  1
  P  P4  1  0.35137476  0.90003374  0.75537333  1
  P  P5  1  0.64530023  0.12439724  0.24611425  1
  P  P6  1  0.85137476  0.40003374  0.75537333  1
  P  P7  1  0.14530023  0.62439724  0.24611425  1
  O  O0  1  0.16346640  0.57820133  0.71411863  1
  O  O1  1  0.85364966  0.57394132  0.74751255  1
  O  O2  1  0.85485112  0.41278693  0.26613711  1
  O  O3  1  0.15224828  0.45369592  0.26949894  1
  O  O4  1  0.66346640  0.07820133  0.71411863  1
  O  O5  1  0.35364966  0.07394132  0.74751255  1
  O  O6  1  0.35485112  0.91278693  0.26613711  1
  O  O7  1  0.65224828  0.95369592  0.26949894  1
  O  O8  1  0.42885964  0.54861866  0.56178227  1
  O  O9  1  0.57423999  0.54024139  0.89791397  1
  O  O10  1  0.54867598  0.43873325  0.43087551  1
  O  O11  1  0.43837087  0.42951777  0.08812037  1
  O  O12  1  0.92885964  0.04861866  0.56178227  1
  O  O13  1  0.07423999  0.04024139  0.89791397  1
  O  O14  1  0.04867598  0.93873325  0.43087551  1
  O  O15  1  0.93837087  0.92951777  0.08812037  1
  O  O16  1  0.24596967  0.85383206  0.72093511  1
  O  O17  1  0.74646128  0.80565288  0.76475075  1
  O  O18  1  0.74126020  0.18351018  0.25359231  1
  O  O19  1  0.27780498  0.18720119  0.26805223  1
  O  O20  1  0.74596967  0.35383206  0.72093511  1
  O  O21  1  0.24646128  0.30565288  0.76475075  1
  O  O22  1  0.24126020  0.68351018  0.25359231  1
  O  O23  1  0.77780498  0.68720119  0.26805223  1
  O  O24  1  0.36356252  0.84292313  0.60071304  1
  O  O25  1  0.65255440  0.90044772  0.92946671  1
  O  O26  1  0.64753688  0.19482163  0.40469444  1
  O  O27  1  0.35732495  0.13442952  0.06748023  1
  O  O28  1  0.86356252  0.34292313  0.60071304  1
  O  O29  1  0.15255440  0.40044772  0.92946671  1
  O  O30  1  0.14753688  0.69482163  0.40469444  1
  O  O31  1  0.85732495  0.63442952  0.06748023  1
  O  O32  1  0.44083682  0.84008664  0.93881331  1
  O  O33  1  0.53832218  0.82218378  0.57846675  1
  O  O34  1  0.54173102  0.17148995  0.06364950  1
  O  O35  1  0.47962532  0.14320452  0.42032519  1
  O  O36  1  0.94083682  0.34008664  0.93881331  1
  O  O37  1  0.03832218  0.32218378  0.57846675  1
  O  O38  1  0.04173102  0.67148995  0.06364950  1
  O  O39  1  0.97962532  0.64320452  0.42032519  1
  O  O40  1  0.06262277  0.83075491  0.71510265  1
  O  O41  1  0.91817146  0.85408309  0.75643307  1
  O  O42  1  0.90703980  0.12913090  0.24688980  1
  O  O43  1  0.07476761  0.14212132  0.26808452  1
  O  O44  1  0.56262277  0.33075491  0.71510265  1
  O  O45  1  0.41817146  0.35408309  0.75643307  1
  O  O46  1  0.40703980  0.62913090  0.24688980  1
  O  O47  1  0.57476761  0.64212132  0.26808452  1
loop_
_geom_bond_atom_site_label_1
_geom_bond_atom_site_label_2
_geom_bond_distance
_geom_bond_site_symmetry_2
Na0 O46 2.400901 1_556
Na0 O22 2.454385 1_556
Na0 O6 2.507152 1_556
Na0 O0 2.556499 1_555
Na0 O16 2.627185 1_555
Na0 O40 2.670474 1_555
Na1 O23 2.377007 1_555
Na1 O1 2.435360 1_555
Na1 O41 2.483459 1_555
Na1 O47 2.487876 1_555
Na1 O17 2.516987 1_555
Na1 O7 2.520031 1_555
Na2 O42 2.400901 1_556
Na2 O18 2.454385 1_556
Na2 O2 2.507152 1_556
Na2 O4 2.556499 1_555
Na2 O20 2.627185 1_555
Na2 O44 2.670474 1_555
Na3 O19 2.377007 1_555
Na3 O5 2.435360 1_555
Na3 O45 2.483459 1_555
Na3 O43 2.487876 1_555
Na3 O21 2.516987 1_555
Na3 O3 2.520031 1_555
Na4 O44 2.341946 1_555
Na4 O5 2.363354 1_555
Na4 O34 2.435180 1_556
Na4 O25 2.570129 1_545
Na4 O45 2.638756 1_555
Na4 O4 2.726214 1_555
Na4 O35 2.945837 1_555
Na4 O24 3.026482 1_545
Na5 O7 2.348803 1_555
Na5 O32 2.374709 1_554
Na5 O6 2.395956 1_555
Na5 O47 2.418408 1_555
Na5 O46 2.699225 1_555
Na5 O33 2.754166 1_555
Na5 O27 2.917544 1_565
Na5 O35 2.939807 1_565
Na6 O40 2.341946 1_555
Na6 O1 2.363354 1_455
Na6 O38 2.435180 1_556
Na6 O29 2.570129 1_555
Na6 O41 2.638756 1_455
Na6 O0 2.726214 1_555
Na6 O39 2.945837 1_455
Na6 O28 3.026482 1_455
Na7 O3 2.348803 1_655
Na7 O36 2.374709 1_554
Na7 O2 2.395956 1_555
Na7 O43 2.418408 1_655
Na7 O42 2.699225 1_555
Na7 O37 2.754166 1_655
Na7 O31 2.917544 1_555
Na7 O39 2.939807 1_555
Na8 O23 2.305148 1_555
Na8 O42 2.362612 1_565
Na8 O18 2.427437 1_565
Na8 O25 2.432983 1_554
Na8 O7 2.482286 1_555
Na8 O12 2.571795 1_565
Na8 O15 3.155279 1_555
Na9 O16 2.358175 1_545
Na9 O21 2.394458 1_555
Na9 O13 2.484929 1_555
Na9 O27 2.600609 1_556
Na9 O40 2.636886 1_545
Na9 O14 2.756843 1_545
Na9 O5 2.864842 1_555
Na9 O37 2.939907 1_555
Na10 O19 2.305148 1_555
Na10 O46 2.362612 1_555
Na10 O22 2.427437 1_555
Na10 O29 2.432983 1_554
Na10 O3 2.482286 1_555
Na10 O8 2.571795 1_555
Na10 O11 3.155279 1_555
Na11 O20 2.358175 1_555
Na11 O17 2.394458 1_555
Na11 O9 2.484929 1_555
Na11 O31 2.600609 1_556
Na11 O44 2.636886 1_555
Na11 O10 2.756843 1_555
Na11 O1 2.864842 1_555
Na11 O33 2.939907 1_555
Ca0 O13 2.195632 1_554
Ca0 O29 2.258674 1_554
Ca0 O36 2.291799 1_454
Ca0 O19 2.306714 1_555
Ca0 O43 2.313274 1_555
Ca0 O3 2.475469 1_555
Ca1 O9 2.195632 1_554
Ca1 O25 2.258674 1_554
Ca1 O32 2.291799 1_554
Ca1 O23 2.306714 1_555
Ca1 O47 2.313274 1_555
Ca1 O7 2.475469 1_555
O0 Si2 1.642457 1_555
O0 Ti0 1.892735 1_555
O1 P6 1.562590 1_555
O1 Ti1 2.195966 1_555
O2 Si3 1.661443 1_555
O2 Ti2 1.943177 1_555
O3 P7 1.540873 1_555
O4 Si0 1.642457 1_545
O4 Ti3 1.892735 1_555
O5 P4 1.562590 1_545
O5 Ti4 2.195966 1_555
O6 Si1 1.661443 1_565
O6 Ti5 1.943177 1_555
O7 P5 1.540873 1_565
O8 P2 1.566945 1_555
O8 Ti5 2.056992 1_555
O9 P2 1.517089 1_555
O10 P3 1.530412 1_555
O10 Ti3 1.990261 1_555
O11 P3 1.591161 1_555
O11 Ti4 1.901370 1_554
O12 P0 1.566945 1_545
O12 Ti2 2.056992 1_555
O13 P0 1.517089 1_445
O14 P1 1.530412 1_465
O14 Ti0 1.990261 1_555
O15 P1 1.591161 1_565
O15 Ti1 1.901370 1_554
O16 P4 1.545917 1_555
O16 Ti0 2.079151 1_555
O17 Si0 1.658654 1_555
O17 Ti1 1.940607 1_555
O18 P5 1.552942 1_555
O18 Ti2 2.134010 1_555
O19 Si1 1.591196 1_555
O20 P6 1.545917 1_555
O20 Ti3 2.079151 1_555
O21 Si2 1.658654 1_555
O21 Ti4 1.940607 1_555
O22 P7 1.552942 1_555
O22 Ti5 2.134010 1_555
O23 Si3 1.591196 1_555
O24 P4 1.594729 1_555
O24 Ti5 1.906702 1_555
O25 Si0 1.601739 1_555
O26 P5 1.543389 1_555
O26 Ti3 1.868823 1_555
O27 Si1 1.683741 1_555
O27 Ti4 1.888422 1_554
O28 P6 1.594729 1_555
O28 Ti2 1.906702 1_555
O29 Si2 1.601739 1_555
O30 P7 1.543389 1_555
O30 Ti0 1.868823 1_555
O31 Si3 1.683741 1_555
O31 Ti1 1.888422 1_554
O32 P4 1.521246 1_555
O33 Si0 1.700918 1_555
O33 Ti5 1.887811 1_555
O34 P5 1.561782 1_555
O34 Ti4 2.067873 1_554
O35 Si1 1.635296 1_555
O35 Ti3 1.824433 1_555
O36 P6 1.521246 1_555
O37 Si2 1.700918 1_555
O37 Ti2 1.887811 1_455
O38 P7 1.561782 1_555
O38 Ti1 2.067873 1_454
O39 Si3 1.635296 1_555
O39 Ti0 1.824433 1_655
O40 P0 1.576851 1_455
O40 Ti0 2.061047 1_555
O41 P0 1.555267 1_555
O41 Ti1 2.084075 1_555
O42 P1 1.563467 1_555
O42 Ti2 2.216777 1_555
O43 P1 1.522288 1_455
O44 P2 1.576851 1_555
O44 Ti3 2.061047 1_555
O45 P2 1.555267 1_555
O45 Ti4 2.084075 1_555
O46 P3 1.563467 1_555
O46 Ti5 2.216777 1_555
O47 P3 1.522288 1_555
