# generated using pymatgen
data_Ag(TeMo)6
_symmetry_space_group_name_H-M   'P 1'
_cell_length_a   4.58640283
_cell_length_b   9.38039665
_cell_length_c   9.54432697
_cell_angle_alpha   119.61601162
_cell_angle_beta   90.00000000
_cell_angle_gamma   104.15036237
_symmetry_Int_Tables_number   1
_chemical_formula_structural   Ag(TeMo)6
_chemical_formula_sum   'Ag1 Te6 Mo6'
_cell_volume   342.56945885
_cell_formula_units_Z   1
loop_
 _symmetry_equiv_pos_site_id
 _symmetry_equiv_pos_as_xyz
  1  'x, y, z'
loop_
 _atom_site_type_symbol
 _atom_site_label
 _atom_site_symmetry_multiplicity
 _atom_site_fract_x
 _atom_site_fract_y
 _atom_site_fract_z
 _atom_site_occupancy
  Ag  Ag0  1  -0.00000000  -0.00000000  0.00000000  1
  Te  Te0  1  0.11944913  0.23889826  0.63549223  1
  Te  Te1  1  0.54262589  0.08525078  0.25174168  1
  Te  Te2  1  0.45737411  0.91474922  0.74825832  1
  Te  Te3  1  0.82077277  0.64154553  0.89363065  1
  Te  Te4  1  0.17922723  0.35845447  0.10636935  1
  Te  Te5  1  0.88055087  0.76110174  0.36450777  1
  Mo  Mo0  1  0.71503065  0.43006230  0.31690128  1
  Mo  Mo1  1  0.28496935  0.56993770  0.68309872  1
  Mo  Mo2  1  0.84577760  0.69155519  0.62036983  1
  Mo  Mo3  1  0.15422240  0.30844481  0.37963017  1
  Mo  Mo4  1  0.68804309  0.37608719  0.56415747  1
  Mo  Mo5  1  0.31195691  0.62391281  0.43584253  1
loop_
_geom_bond_atom_site_label_1
_geom_bond_atom_site_label_2
_geom_bond_distance
_geom_bond_site_symmetry_2
Ag0 Te3 2.878730 1_444
Ag0 Te4 2.878730 1_555
Ag0 Te1 3.119931 1_455
Ag0 Te2 3.119931 1_544
Ag0 Te2 3.119934 1_444
Ag0 Te1 3.119934 1_555
Ag0 Mo2 3.261587 1_444
Ag0 Mo3 3.261587 1_555
Te0 Te5 3.757567 1_445
Mo0 Mo4 2.644062 1_555
Mo0 Mo2 2.650347 1_555
Mo0 Mo3 2.741527 1_555
Mo0 Mo3 2.741531 1_655
Mo0 Mo5 2.759737 1_555
Mo0 Mo5 2.759745 1_655
Mo0 Te5 2.806847 1_555
Mo0 Te1 2.869700 1_555
Mo0 Te4 2.895962 1_555
Mo0 Te4 2.895965 1_655
Mo1 Mo5 2.644062 1_555
Mo1 Mo3 2.650347 1_555
Mo1 Mo2 2.741527 1_555
Mo1 Mo2 2.741531 1_455
Mo1 Mo4 2.759737 1_555
Mo1 Mo4 2.759745 1_455
Mo1 Te0 2.806847 1_555
Mo1 Te2 2.869700 1_555
Mo1 Te3 2.895962 1_555
Mo1 Te3 2.895965 1_455
Mo2 Mo4 2.636714 1_555
Mo2 Mo5 2.763077 1_555
Mo2 Mo5 2.763081 1_655
Mo2 Te5 2.817492 1_555
Mo2 Te3 2.866758 1_555
Mo2 Te2 2.888640 1_655
Mo2 Te2 2.888643 1_555
Mo3 Mo5 2.636714 1_555
Mo3 Mo4 2.763077 1_555
Mo3 Mo4 2.763081 1_455
Mo3 Te0 2.817492 1_555
Mo3 Te4 2.866758 1_555
Mo3 Te1 2.888640 1_455
Mo3 Te1 2.888643 1_555
Mo4 Te1 2.801598 1_555
Mo4 Te3 2.824755 1_555
Mo4 Te0 2.854013 1_555
Mo4 Te0 2.854016 1_655
Mo5 Te2 2.801598 1_555
Mo5 Te4 2.824755 1_555
Mo5 Te5 2.854013 1_555
Mo5 Te5 2.854016 1_455
