# generated using pymatgen
data_Mo3(PO4)4
_symmetry_space_group_name_H-M   'P 1'
_cell_length_a   13.56649921
_cell_length_b   8.02763640
_cell_length_c   9.07920573
_cell_angle_alpha   89.45780450
_cell_angle_beta   85.60432729
_cell_angle_gamma   90.98471447
_symmetry_Int_Tables_number   1
_chemical_formula_structural   Mo3(PO4)4
_chemical_formula_sum   'Mo9 P12 O48'
_cell_volume   985.67664785
_cell_formula_units_Z   3
loop_
 _symmetry_equiv_pos_site_id
 _symmetry_equiv_pos_as_xyz
  1  'x, y, z'
loop_
 _atom_site_type_symbol
 _atom_site_label
 _atom_site_symmetry_multiplicity
 _atom_site_fract_x
 _atom_site_fract_y
 _atom_site_fract_z
 _atom_site_occupancy
  Mo  Mo0  1  0.83657400  0.50744300  0.67709600  1
  Mo  Mo1  1  0.83627600  0.36367500  0.27180100  1
  Mo  Mo2  1  0.83202500  0.97538800  0.15628600  1
  Mo  Mo3  1  0.50067500  0.85839000  0.89557500  1
  Mo  Mo4  1  0.49682300  0.99913700  0.49309300  1
  Mo  Mo5  1  0.49506900  0.47339700  0.00814200  1
  Mo  Mo6  1  0.16406800  0.99806500  0.83926500  1
  Mo  Mo7  1  0.16590200  0.14176900  0.43311000  1
  Mo  Mo8  1  0.16982100  0.53440500  0.32580600  1
  P  P0  1  0.27737900  0.80852100  0.53024500  1
  P  P1  1  0.39085900  0.31386400  0.33108600  1
  P  P2  1  0.38746600  0.18980500  0.80925900  1
  P  P3  1  0.27372400  0.69078000  0.00865500  1
  P  P4  1  0.60852400  0.78778500  0.18904700  1
  P  P5  1  0.61713500  0.66320400  0.68311700  1
  P  P6  1  0.71603300  0.16831100  0.48612300  1
  P  P7  1  0.71879000  0.29488100  0.98538200  1
  P  P8  1  0.94825900  0.69923800  0.35452600  1
  P  P9  1  0.05906900  0.21678900  0.14117100  1
  P  P10  1  0.05347800  0.33848900  0.64656500  1
  P  P11  1  0.94718000  0.81905300  0.83373200  1
  O  O0  1  0.91155000  0.87334600  0.31580700  1
  O  O1  1  0.93912000  0.32383500  0.64725700  1
  O  O2  1  0.93957700  0.20882400  0.17054400  1
  O  O3  1  0.91154000  0.63275700  0.82650400  1
  O  O4  1  0.90679900  0.63812200  0.50720700  1
  O  O5  1  0.92177800  0.93428300  0.71553100  1
  O  O6  1  0.91588900  0.57482800  0.23690100  1
  O  O7  1  0.90407500  0.87478900  0.99410100  1
  O  O8  1  0.76028500  0.36485200  0.83567800  1
  O  O9  1  0.06334700  0.70571500  0.35142500  1
  O  O10  1  0.06170600  0.82027600  0.86061600  1
  O  O11  1  0.09740700  0.39188300  0.16573400  1
  O  O12  1  0.08548200  0.36805200  0.47042500  1
  O  O13  1  0.09518600  0.08941000  0.25819300  1
  O  O14  1  0.08288300  0.14654300  0.98832700  1
  O  O15  1  0.09757400  0.44841100  0.75115100  1
  O  O16  1  0.10205200  0.14771700  0.64315800  1
  O  O17  1  0.23777900  0.92932100  0.41388300  1
  O  O18  1  0.23836600  0.63370400  0.49971000  1
  O  O19  1  0.26123500  0.64830300  0.18067000  1
  O  O20  1  0.24170500  0.55854200  0.91239500  1
  O  O21  1  0.26423900  0.31017100  0.34558700  1
  O  O22  1  0.24141300  0.87353400  0.99504000  1
  O  O23  1  0.24148000  0.86668700  0.68605600  1
  O  O24  1  0.27395500  0.18119000  0.81660600  1
  O  O25  1  0.40731000  0.36581300  0.16380600  1
  O  O26  1  0.39145600  0.81835000  0.52242500  1
  O  O27  1  0.41770200  0.12788500  0.34325600  1
  O  O28  1  0.39918800  0.69887100  0.98781200  1
  O  O29  1  0.76786800  0.35941000  0.47836200  1
  O  O30  1  0.42826600  0.13519700  0.65388400  1
  O  O31  1  0.42621800  0.36669500  0.84292900  1
  O  O32  1  0.42752200  0.07037600  0.92553000  1
  O  O33  1  0.57246800  0.91139400  0.06682800  1
  O  O34  1  0.56829400  0.61136400  0.16012300  1
  O  O35  1  0.56850400  0.85432800  0.33956800  1
  O  O36  1  0.56528000  0.85106900  0.68397100  1
  O  O37  1  0.58241500  0.55040400  0.57191200  1
  O  O38  1  0.60566400  0.29724200  0.99976500  1
  O  O39  1  0.57698600  0.62830000  0.85410400  1
  O  O40  1  0.60446700  0.18027700  0.46376000  1
  O  O41  1  0.72207900  0.79172100  0.17863200  1
  O  O42  1  0.75550500  0.11878100  0.01555900  1
  O  O43  1  0.73044700  0.68520200  0.69039600  1
  O  O44  1  0.75904700  0.41529000  0.10831500  1
  O  O45  1  0.76492600  0.12727500  0.32149600  1
  O  O46  1  0.74582300  0.06793000  0.60979200  1
  O  O47  1  0.42298300  0.43747000  0.43566500  1
loop_
_geom_bond_atom_site_label_1
_geom_bond_atom_site_label_2
_geom_bond_distance
_geom_bond_site_symmetry_2
Mo0 O3 2.022022 1_555
Mo0 O4 2.024126 1_555
Mo0 O8 2.038167 1_555
Mo0 O43 2.042312 1_555
Mo0 O1 2.049771 1_555
Mo0 O29 2.407692 1_555
Mo1 O44 1.927252 1_555
Mo1 O6 2.003654 1_555
Mo1 O29 2.027442 1_555
Mo1 O2 2.058754 1_555
Mo1 O45 2.143744 1_555
Mo2 O7 1.898660 1_554
Mo2 O0 2.044523 1_555
Mo2 O42 2.061980 1_565
Mo2 O41 2.076591 1_555
Mo2 O45 2.104450 1_565
Mo2 O2 2.365788 1_565
Mo3 O33 1.943612 1_556
Mo3 O28 1.994779 1_555
Mo3 O32 1.995059 1_565
Mo3 O36 2.051446 1_555
Mo3 O39 2.155086 1_555
Mo4 O30 2.011510 1_565
Mo4 O26 2.020781 1_555
Mo4 O35 2.025261 1_555
Mo4 O40 2.044041 1_565
Mo4 O27 2.075195 1_565
Mo4 O36 2.350407 1_555
Mo5 O25 1.960722 1_555
Mo5 O31 2.016874 1_554
Mo5 O38 2.077045 1_554
Mo5 O34 2.078168 1_555
Mo5 O39 2.102050 1_554
Mo5 O28 2.261341 1_554
Mo6 O10 1.971902 1_555
Mo6 O23 1.998016 1_555
Mo6 O24 2.073107 1_565
Mo6 O14 2.076662 1_565
Mo6 O22 2.082660 1_555
Mo6 O16 2.354814 1_565
Mo7 O13 1.962514 1_555
Mo7 O17 1.981568 1_545
Mo7 O21 1.998493 1_555
Mo7 O16 2.034565 1_555
Mo7 O12 2.151265 1_555
Mo8 O19 1.948878 1_555
Mo8 O9 2.013620 1_555
Mo8 O18 2.053420 1_555
Mo8 O12 2.121450 1_555
Mo8 O11 2.144288 1_555
Mo8 O21 2.240906 1_555
O0 P8 1.538361 1_555
O1 P10 1.553401 1_655
O2 P9 1.622646 1_655
O3 P11 1.567331 1_555
O4 P8 1.528663 1_555
O5 P11 1.474784 1_555
O6 P8 1.551705 1_555
O7 P11 1.597802 1_555
O8 P7 1.528795 1_555
O9 P8 1.559399 1_455
O10 P11 1.591026 1_455
O11 P9 1.514768 1_555
O12 P10 1.638644 1_555
O13 P9 1.578287 1_555
O14 P9 1.516719 1_556
O15 P10 1.457045 1_555
O16 P10 1.677201 1_555
O17 P0 1.559061 1_555
O18 P0 1.526680 1_555
O19 P3 1.591052 1_555
O20 P3 1.462639 1_556
O21 P1 1.712461 1_555
O22 P3 1.544907 1_556
O23 P0 1.539849 1_555
O24 P2 1.536612 1_555
O25 P1 1.569471 1_555
O26 P0 1.544430 1_555
O27 P1 1.547748 1_555
O28 P3 1.698173 1_556
O29 P6 1.675155 1_555
O30 P2 1.545614 1_555
O31 P2 1.547080 1_555
O32 P2 1.554205 1_555
O33 P4 1.591942 1_555
O34 P4 1.541112 1_555
O35 P4 1.535513 1_555
O36 P5 1.674877 1_555
O37 P5 1.461770 1_555
O38 P7 1.530724 1_555
O39 P5 1.625460 1_555
O40 P6 1.546949 1_555
O41 P4 1.535954 1_555
O42 P7 1.536037 1_554
O43 P5 1.550853 1_555
O44 P7 1.604388 1_554
O45 P6 1.627091 1_555
O46 P6 1.461858 1_555
O47 P1 1.463713 1_555
