# generated using pymatgen
data_MgFe4O5F3
_symmetry_space_group_name_H-M   'P 1'
_cell_length_a   5.32648598
_cell_length_b   5.41771746
_cell_length_c   5.90209054
_cell_angle_alpha   90.46007933
_cell_angle_beta   92.80632727
_cell_angle_gamma   106.39787450
_symmetry_Int_Tables_number   1
_chemical_formula_structural   MgFe4O5F3
_chemical_formula_sum   'Mg1 Fe4 O5 F3'
_cell_volume   163.15275419
_cell_formula_units_Z   1
loop_
 _symmetry_equiv_pos_site_id
 _symmetry_equiv_pos_as_xyz
  1  'x, y, z'
loop_
 _atom_site_type_symbol
 _atom_site_label
 _atom_site_symmetry_multiplicity
 _atom_site_fract_x
 _atom_site_fract_y
 _atom_site_fract_z
 _atom_site_occupancy
  Mg  Mg0  1  0.51540949  0.02548705  0.04141440  1
  Fe  Fe0  1  0.00280985  0.98668838  0.99253150  1
  Fe  Fe1  1  0.04886528  0.95006355  0.46342227  1
  Fe  Fe2  1  0.42258109  0.54809398  0.26552050  1
  Fe  Fe3  1  0.53931890  0.47254670  0.74920438  1
  O  O0  1  0.22902278  0.81187192  0.23887909  1
  O  O1  1  0.32348267  0.28972505  0.01311002  1
  O  O2  1  0.28176730  0.30397479  0.50863076  1
  O  O3  1  0.65563715  0.72556777  -0.00250072  1
  O  O4  1  0.71250616  0.69085670  0.50196668  1
  F  F0  1  0.20831963  0.84457759  0.74702253  1
  F  F1  1  0.82640325  0.14321925  0.26165993  1
  F  F2  1  0.74776245  0.22121928  0.80247066  1
loop_
_geom_bond_atom_site_label_1
_geom_bond_atom_site_label_2
_geom_bond_distance
_geom_bond_site_symmetry_2
Mg0 O1 1.983884 1_555
Mg0 O3 1.990662 1_545
Mg0 O0 2.055134 1_545
Fe0 O3 1.987632 1_456
Fe0 O1 2.005192 1_566
Fe0 O0 2.226601 1_556
Fe1 O0 1.936997 1_555
Fe1 O4 1.964231 1_455
Fe1 O2 1.975581 1_565
Fe2 O1 1.982340 1_555
Fe2 O2 1.986541 1_555
Fe2 O0 1.987339 1_555
Fe2 O4 2.006932 1_555
Fe2 O3 2.123829 1_555
Fe3 O3 1.951877 1_556
Fe3 O2 1.952732 1_555
Fe3 O4 1.980574 1_555
Fe3 O1 2.070274 1_556
F0 Fe1 1.999975 1_555
F0 Fe0 2.122242 1_555
F0 Mg0 2.333313 1_566
F1 Mg0 2.004964 1_555
F1 Fe1 2.121127 1_645
F1 Fe0 2.167850 1_644
F1 O2 2.684578 1_655
F1 O4 2.772463 1_545
F2 Fe3 2.002950 1_555
F2 Mg0 2.024596 1_556
F2 Fe0 2.359371 1_645
