# generated using pymatgen
data_MgCd2(CoO2)4
_symmetry_space_group_name_H-M   'P 1'
_cell_length_a   6.88463067
_cell_length_b   5.92225825
_cell_length_c   6.01900212
_cell_angle_alpha   61.90174829
_cell_angle_beta   76.95428407
_cell_angle_gamma   112.35354985
_symmetry_Int_Tables_number   1
_chemical_formula_structural   MgCd2(CoO2)4
_chemical_formula_sum   'Mg1 Cd2 Co4 O8'
_cell_volume   173.82741527
_cell_formula_units_Z   1
loop_
 _symmetry_equiv_pos_site_id
 _symmetry_equiv_pos_as_xyz
  1  'x, y, z'
loop_
 _atom_site_type_symbol
 _atom_site_label
 _atom_site_symmetry_multiplicity
 _atom_site_fract_x
 _atom_site_fract_y
 _atom_site_fract_z
 _atom_site_occupancy
  Mg  Mg0  1  0.37861217  0.27120024  0.85908746  1
  Cd  Cd0  1  0.88119524  0.91774891  0.09232678  1
  Cd  Cd1  1  0.87025178  0.61511365  0.65894849  1
  Co  Co0  1  0.37775534  0.25195985  0.37134012  1
  Co  Co1  1  0.87245123  0.25399661  0.37506628  1
  Co  Co2  1  0.36973113  0.75294970  0.35924059  1
  Co  Co3  1  0.37128225  0.75671435  0.87902796  1
  O  O0  1  0.15089827  0.26759502  0.15707865  1
  O  O1  1  0.55568842  0.22801270  0.09971693  1
  O  O2  1  0.55728606  0.72255742  0.07159511  1
  O  O3  1  0.12348244  0.72994673  0.17994864  1
  O  O4  1  0.59531438  0.24377824  0.58466029  1
  O  O5  1  0.18924705  0.27592472  0.63454477  1
  O  O6  1  0.20434857  0.78422189  0.65749936  1
  O  O7  1  0.62745565  0.78244697  0.55116856  1
loop_
_geom_bond_atom_site_label_1
_geom_bond_atom_site_label_2
_geom_bond_distance
_geom_bond_site_symmetry_2
Mg0 O4 2.074849 1_555
Mg0 O5 2.077172 1_555
Mg0 O1 2.081997 1_556
Mg0 O0 2.084293 1_556
Mg0 O7 2.207337 1_555
Mg0 O3 2.333338 1_546
Cd0 O2 2.150682 1_555
Cd0 O5 2.241412 1_664
Cd0 O3 2.356559 1_655
Cd0 O7 2.448212 1_555
Cd0 O0 2.460368 1_665
Cd0 O4 2.972625 1_555
Cd1 O6 2.127018 1_655
Cd1 O1 2.210134 1_556
Cd1 O7 2.311063 1_555
Cd1 O4 2.600214 1_555
Cd1 O3 2.606958 1_655
Cd1 O0 2.912146 1_665
Co0 O5 1.907336 1_555
Co0 O1 1.907890 1_555
Co0 O6 2.031530 1_545
Co0 O2 2.046149 1_555
Co0 O4 2.181560 1_555
Co0 O0 2.240065 1_555
Co1 O4 1.997290 1_555
Co1 O0 2.012568 1_655
Co1 O3 2.138044 1_655
Co1 O7 2.142191 1_545
Co2 O6 2.025909 1_555
Co2 O2 2.039192 1_555
Co2 O1 2.052366 1_565
Co2 O5 2.064342 1_555
Co2 O3 2.201375 1_555
Co2 O7 2.322285 1_555
Co3 O2 1.915844 1_556
Co3 O6 1.937757 1_555
Co3 O3 2.084472 1_556
Co3 O4 2.099190 1_565
Co3 O0 2.106617 1_556
Co3 O7 2.229127 1_555
