# generated using pymatgen
data_MgMnPb2WO6
_symmetry_space_group_name_H-M   'P 1'
_cell_length_a   6.06881612
_cell_length_b   6.06881612
_cell_length_c   6.33562980
_cell_angle_alpha   63.12633207
_cell_angle_beta   63.12633207
_cell_angle_gamma   59.78029650
_symmetry_Int_Tables_number   1
_chemical_formula_structural   MgMnPb2WO6
_chemical_formula_sum   'Mg1 Mn1 Pb2 W1 O6'
_cell_volume   172.05916621
_cell_formula_units_Z   1
loop_
 _symmetry_equiv_pos_site_id
 _symmetry_equiv_pos_as_xyz
  1  'x, y, z'
loop_
 _atom_site_type_symbol
 _atom_site_label
 _atom_site_symmetry_multiplicity
 _atom_site_fract_x
 _atom_site_fract_y
 _atom_site_fract_z
 _atom_site_occupancy
  Mg  Mg0  1  0.59645694  0.59645694  0.22267236  1
  Mn  Mn0  1  0.39671487  0.39671487  0.80244276  1
  Pb  Pb0  1  0.18735468  0.18735468  0.37307606  1
  Pb  Pb1  1  0.81960606  0.81960606  0.54468644  1
  W  W0  1  0.01621652  0.01621652  0.95974234  1
  O  O0  1  0.79923372  0.23518301  0.21490614  1
  O  O1  1  0.79488046  0.23941717  0.70181768  1
  O  O2  1  0.78549476  0.78549476  0.20109835  1
  O  O3  1  0.23941717  0.79488046  0.70181768  1
  O  O4  1  0.23518301  0.79923372  0.21490614  1
  O  O5  1  0.24402181  0.24402181  0.70866406  1
loop_
_geom_bond_atom_site_label_1
_geom_bond_atom_site_label_2
_geom_bond_distance
_geom_bond_site_symmetry_2
Mg0 O4 1.910673 1_555
Mg0 O0 1.910673 1_555
Mg0 O2 1.921545 1_555
Mn0 O5 1.982507 1_555
Mn0 O1 1.998038 1_555
Mn0 O3 1.998038 1_555
Mn0 Pb0 3.101413 1_556
O0 W0 2.090333 1_654
O0 Pb1 2.428431 1_545
O0 Pb0 2.796295 1_655
O1 W0 2.112152 1_655
O1 Pb0 2.337420 1_655
O1 Pb1 3.045940 1_545
O1 Pb1 3.261792 1_555
O2 W0 2.088463 1_664
O2 Pb1 2.383761 1_555
O2 Pb0 3.197957 1_655
O2 Pb0 3.197957 1_565
O3 W0 2.112152 1_565
O3 Pb0 2.337420 1_565
O3 Pb1 3.045940 1_455
O3 Pb1 3.261792 1_555
O4 W0 2.090333 1_564
O4 Pb1 2.428431 1_455
O4 Pb0 2.796295 1_565
O5 W0 2.073820 1_555
O5 Pb0 2.489623 1_555
O5 Pb1 3.161778 1_455
O5 Pb1 3.161778 1_545
