# generated using pymatgen
data_TiGeP2SO12
_symmetry_space_group_name_H-M   'P 1'
_cell_length_a   8.44734117
_cell_length_b   8.46862898
_cell_length_c   21.85287238
_cell_angle_alpha   90.04452097
_cell_angle_beta   89.97511373
_cell_angle_gamma   119.89903924
_symmetry_Int_Tables_number   1
_chemical_formula_structural   TiGeP2SO12
_chemical_formula_sum   'Ti6 Ge6 P12 S6 O72'
_cell_volume   1355.23029153
_cell_formula_units_Z   6
loop_
 _symmetry_equiv_pos_site_id
 _symmetry_equiv_pos_as_xyz
  1  'x, y, z'
loop_
 _atom_site_type_symbol
 _atom_site_label
 _atom_site_symmetry_multiplicity
 _atom_site_fract_x
 _atom_site_fract_y
 _atom_site_fract_z
 _atom_site_occupancy
  Ti  Ti0  1  0.99884772  0.00518478  0.35681154  1
  Ti  Ti1  1  0.99018407  0.00729460  0.64321925  1
  Ti  Ti2  1  0.01586317  0.00442262  0.13943425  1
  Ti  Ti3  1  0.66360692  0.33611174  0.69159926  1
  Ti  Ti4  1  0.68141592  0.33882701  0.47550266  1
  Ti  Ti5  1  0.32372645  0.67180149  0.30663854  1
  Ge  Ge0  1  0.00254964  0.99980670  0.85659502  1
  Ge  Ge1  1  0.67141809  0.34013363  0.18632323  1
  Ge  Ge2  1  0.65564758  0.33694906  0.97593497  1
  Ge  Ge3  1  0.33424805  0.67094242  0.02022699  1
  Ge  Ge4  1  0.33712978  0.67034223  0.52246080  1
  Ge  Ge5  1  0.34878847  0.67271034  0.81334206  1
  P  P0  1  0.29607535  0.01514677  0.24821602  1
  P  P1  1  0.99093600  0.28164839  0.24724063  1
  P  P2  1  0.27845579  0.28804618  0.75379989  1
  P  P3  1  0.71380622  0.99801211  0.75354008  1
  P  P4  1  0.96157174  0.34656250  0.58325595  1
  P  P5  1  0.66006953  0.61749397  0.58266979  1
  P  P6  1  0.95100736  0.60912976  0.08032812  1
  P  P7  1  0.39124545  0.34750645  0.08132063  1
  P  P8  1  0.62266770  0.67076347  0.91718988  1
  P  P9  1  0.33410380  0.95223404  0.91681268  1
  P  P10  1  0.61193109  0.94491087  0.41758233  1
  P  P11  1  0.05645617  0.67424044  0.41780810  1
  S  S0  1  0.71408574  0.70855657  0.24833412  1
  S  S1  1  0.00841015  0.71557322  0.75273068  1
  S  S2  1  0.37848758  0.04121689  0.58315194  1
  S  S3  1  0.66148246  0.04666092  0.08110739  1
  S  S4  1  0.04298840  0.37794915  0.91702570  1
  S  S5  1  0.33350151  0.38340064  0.41723827  1
  O  O0  1  0.20730660  0.04392724  0.30501221  1
  O  O1  1  0.82709918  0.78840645  0.30375997  1
  O  O2  1  0.95716582  0.16308598  0.30517207  1
  O  O3  1  0.20271516  0.16514664  0.81117466  1
  O  O4  1  0.96591792  0.79002901  0.80849214  1
  O  O5  1  0.83612483  0.03671779  0.81022231  1
  O  O6  1  0.79823973  0.96026349  0.69629230  1
  O  O7  1  0.15904699  0.19994923  0.69696936  1
  O  O8  1  0.04263727  0.82776428  0.69845107  1
  O  O9  1  0.79256780  0.81966619  0.19361006  1
  O  O10  1  0.02228525  0.19180494  0.19101027  1
  O  O11  1  0.17304901  0.97297697  0.19114734  1
  O  O12  1  0.87160654  0.37518490  0.63957951  1
  O  O13  1  0.49352132  0.12270322  0.63811858  1
  O  O14  1  0.62629682  0.49637306  0.63980566  1
  O  O15  1  0.87349264  0.48886602  0.13840597  1
  O  O16  1  0.62086198  0.12298199  0.13646594  1
  O  O17  1  0.51059682  0.38489908  0.13887428  1
  O  O18  1  0.46326099  0.29349068  0.02495752  1
  O  O19  1  0.82769776  0.52560984  0.02384933  1
  O  O20  1  0.70052694  0.16265340  0.02636176  1
  O  O21  1  0.45695227  0.15231093  0.52817118  1
  O  O22  1  0.69165413  0.52914226  0.52587556  1
  O  O23  1  0.84033889  0.30491175  0.52577507  1
  O  O24  1  0.53932478  0.71082337  0.97399200  1
  O  O25  1  0.16118327  0.45545263  0.97197327  1
  O  O26  1  0.28999427  0.82843791  0.97388476  1
  O  O27  1  0.53737020  0.82643365  0.47573679  1
  O  O28  1  0.29402636  0.45847674  0.47323725  1
  O  O29  1  0.17417509  0.70946869  0.47522915  1
  O  O30  1  0.13666731  0.63343571  0.36071425  1
  O  O31  1  0.49438196  0.85694810  0.36086097  1
  O  O32  1  0.36564763  0.49439336  0.36284005  1
  O  O33  1  0.11981700  0.49474033  0.86242952  1
  O  O34  1  0.37317183  0.86840946  0.85981357  1
  O  O35  1  0.49642753  0.62218203  0.86066750  1
  O  O36  1  0.03613148  0.84153404  0.40807405  1
  O  O37  1  0.80298312  0.96714325  0.40833026  1
  O  O38  1  0.16769562  0.20151842  0.41118644  1
  O  O39  1  0.02735137  0.19641502  0.91060034  1
  O  O40  1  0.16366133  0.97226072  0.90850051  1
  O  O41  1  0.81099607  0.84146066  0.90795054  1
  O  O42  1  0.98197853  0.17586354  0.59103790  1
  O  O43  1  0.19547227  0.01723823  0.59193898  1
  O  O44  1  0.83175636  0.80409605  0.59306325  1
  O  O45  1  0.96588946  0.79631934  0.09071814  1
  O  O46  1  0.82141600  0.02420424  0.08903490  1
  O  O47  1  0.20042735  0.17701438  0.09042060  1
  O  O48  1  0.69472690  0.16648421  0.74239479  1
  O  O49  1  0.46947729  0.31000417  0.74300610  1
  O  O50  1  0.84451273  0.53274738  0.74583298  1
  O  O51  1  0.70084224  0.52689446  0.24265761  1
  O  O52  1  0.82201096  0.30307779  0.23935863  1
  O  O53  1  0.48282470  0.18390849  0.23812228  1
  O  O54  1  0.64211316  0.49974024  0.92429205  1
  O  O55  1  0.85968376  0.35765883  0.92475558  1
  O  O56  1  0.50893361  0.13937216  0.92583091  1
  O  O57  1  0.62664154  0.13159499  0.42658183  1
  O  O58  1  0.49326297  0.36052750  0.42527316  1
  O  O59  1  0.86655129  0.50300853  0.42491800  1
  O  O60  1  0.37163433  0.51607404  0.07176381  1
  O  O61  1  0.14167267  0.63085681  0.07174221  1
  O  O62  1  0.49400846  0.86598145  0.07458795  1
  O  O63  1  0.36531530  0.85980043  0.57763669  1
  O  O64  1  0.49011503  0.63728089  0.57516750  1
  O  O65  1  0.14923830  0.51489977  0.57395027  1
  O  O66  1  0.31631016  0.84428954  0.25599870  1
  O  O67  1  0.52979096  0.68303640  0.25667320  1
  O  O68  1  0.16291775  0.46879506  0.25746891  1
  O  O69  1  0.29062077  0.47424447  0.76300786  1
  O  O70  1  0.17199982  0.69720166  0.76180188  1
  O  O71  1  0.52517860  0.82580655  0.75994726  1
loop_
_geom_bond_atom_site_label_1
_geom_bond_atom_site_label_2
_geom_bond_distance
_geom_bond_site_symmetry_2
Ge0 O3 1.856114 1_565
Ge0 O40 1.873902 1_555
Ge0 O41 1.874441 1_455
Ge0 O5 1.881724 1_465
Ge0 O4 1.950931 1_455
Ge0 O39 1.964262 1_565
Ge1 O15 1.858440 1_555
Ge1 O52 1.860053 1_555
Ge1 O53 1.862576 1_555
Ge1 O17 1.892010 1_555
Ge1 O51 1.919405 1_555
Ge1 O16 1.991384 1_555
Ge2 O18 1.824018 1_556
Ge2 O54 1.829465 1_555
Ge2 O19 1.856080 1_556
Ge2 O56 1.861564 1_555
Ge2 O55 1.987349 1_555
Ge2 O20 2.024238 1_556
Ge3 O26 1.855742 1_554
Ge3 O61 1.864762 1_555
Ge3 O60 1.871833 1_555
Ge3 O24 1.884588 1_554
Ge3 O62 1.933063 1_555
Ge3 O25 1.979411 1_554
Ge4 O27 1.850014 1_555
Ge4 O65 1.853609 1_555
Ge4 O64 1.854083 1_555
Ge4 O29 1.877884 1_555
Ge4 O63 1.923848 1_555
Ge4 O28 1.963388 1_555
Ge5 O71 1.826889 1_555
Ge5 O35 1.828090 1_555
Ge5 O69 1.857540 1_555
Ge5 O34 1.864843 1_555
Ge5 O70 1.962758 1_555
Ge5 O33 2.063448 1_555
O0 P0 1.530719 1_555
O0 Ti0 1.978054 1_455
O1 S0 1.480485 1_555
O1 Ti0 2.040095 1_565
O2 P1 1.551871 1_555
O2 Ti0 1.912493 1_555
O3 P2 1.549865 1_555
O4 S1 1.495107 1_655
O5 P3 1.540199 1_545
O6 P3 1.549803 1_555
O6 Ti1 1.867627 1_565
O7 P2 1.538116 1_555
O7 Ti1 1.937675 1_455
O8 S1 1.456321 1_555
O8 Ti1 2.153968 1_465
O9 S0 1.460882 1_555
O9 Ti2 2.113361 1_665
O10 P1 1.535609 1_455
O10 Ti2 1.924285 1_555
O11 P0 1.547027 1_565
O11 Ti2 1.861543 1_565
O12 P4 1.527620 1_555
O12 Ti3 1.976915 1_555
O13 S2 1.481385 1_555
O13 Ti3 2.026302 1_555
O14 P5 1.549972 1_555
O14 Ti3 1.910891 1_555
O15 P6 1.553466 1_555
O16 S3 1.489462 1_555
O17 P7 1.542979 1_555
O18 P7 1.540229 1_555
O19 P6 1.540731 1_555
O20 S3 1.477644 1_555
O21 S2 1.465405 1_555
O21 Ti4 2.104756 1_555
O22 P5 1.539050 1_555
O22 Ti4 1.917079 1_555
O23 P4 1.546395 1_555
O23 Ti4 1.864893 1_555
O24 P8 1.545394 1_555
O25 S4 1.488620 1_555
O26 P9 1.551003 1_555
O27 P10 1.545866 1_555
O28 S5 1.490893 1_555
O29 P11 1.535304 1_555
O30 P11 1.538572 1_555
O30 Ti5 1.867090 1_555
O31 P10 1.529555 1_555
O31 Ti5 1.919845 1_555
O32 S5 1.455126 1_555
O32 Ti5 2.103488 1_555
O33 S4 1.477874 1_555
O34 P9 1.547959 1_555
O35 P8 1.547605 1_555
O36 P11 1.524761 1_555
O36 Ti0 1.926837 1_465
O37 P10 1.542007 1_555
O37 Ti0 1.891116 1_565
O38 S5 1.483508 1_555
O38 Ti0 1.960853 1_455
O39 S4 1.482506 1_555
O40 P9 1.542224 1_555
O41 P8 1.539090 1_555
O42 P4 1.548288 1_555
O42 Ti1 1.855871 1_555
O43 S2 1.468000 1_555
O43 Ti1 2.030516 1_455
O44 P5 1.538524 1_555
O44 Ti1 1.912062 1_565
O45 P6 1.543090 1_555
O45 Ti2 1.916561 1_665
O46 S3 1.465543 1_555
O46 Ti2 2.053113 1_655
O47 P7 1.549965 1_555
O47 Ti2 1.855651 1_555
O48 P3 1.533188 1_545
O48 Ti3 1.934954 1_555
O49 P2 1.547447 1_555
O49 Ti3 1.907199 1_555
O50 S1 1.483073 1_655
O50 Ti3 1.993600 1_555
O51 S0 1.490906 1_555
O52 P1 1.535341 1_555
O53 P0 1.527193 1_555
O54 P8 1.544761 1_555
O55 S4 1.479959 1_655
O56 P9 1.548522 1_545
O57 P10 1.535327 1_545
O57 Ti4 1.903911 1_555
O58 S5 1.466471 1_555
O58 Ti4 2.014403 1_555
O59 P11 1.543165 1_655
O59 Ti4 1.853112 1_555
O60 P7 1.531398 1_555
O61 P6 1.538663 1_455
O62 S3 1.484829 1_565
O63 S2 1.488815 1_565
O64 P5 1.534983 1_555
O65 P4 1.527706 1_455
O66 P0 1.548778 1_565
O66 Ti5 1.859060 1_555
O67 S0 1.472390 1_555
O67 Ti5 2.016108 1_555
O68 P1 1.541642 1_455
O68 Ti5 1.904098 1_555
O69 P2 1.541255 1_555
O70 S1 1.479111 1_555
O71 P3 1.539089 1_555
