# generated using pymatgen
data_Sr4Mn3(ClO4)2
_symmetry_space_group_name_H-M   'P 1'
_cell_length_a   3.86768601
_cell_length_b   3.86768579
_cell_length_c   16.33108172
_cell_angle_alpha   96.80063277
_cell_angle_beta   96.80063132
_cell_angle_gamma   89.99999492
_symmetry_Int_Tables_number   1
_chemical_formula_structural   Sr4Mn3(ClO4)2
_chemical_formula_sum   'Sr4 Mn3 Cl2 O8'
_cell_volume   240.84664827
_cell_formula_units_Z   1
loop_
 _symmetry_equiv_pos_site_id
 _symmetry_equiv_pos_as_xyz
  1  'x, y, z'
loop_
 _atom_site_type_symbol
 _atom_site_label
 _atom_site_symmetry_multiplicity
 _atom_site_fract_x
 _atom_site_fract_y
 _atom_site_fract_z
 _atom_site_occupancy
  Sr  Sr0  1  0.67822442  0.67822342  0.35644685  1
  Sr  Sr1  1  0.32177758  0.32177658  0.64355315  1
  Sr  Sr2  1  0.55777335  0.55777135  0.11554571  1
  Sr  Sr3  1  0.44222665  0.44222765  0.88445329  1
  Mn  Mn0  1  -0.00000000  0.00000000  -0.00000000  1
  Mn  Mn1  1  0.88088217  0.88088217  0.76176333  1
  Mn  Mn2  1  0.11911983  0.11911783  0.23823667  1
  Cl  Cl0  1  0.21519756  0.21519956  0.43039611  1
  Cl  Cl1  1  0.78480144  0.78480244  0.56960389  1
  O  O0  1  0.12790431  0.62790431  0.25580962  1
  O  O1  1  0.37209669  0.87209469  0.74419038  1
  O  O2  1  0.99999900  0.49999900  -0.00000000  1
  O  O3  1  0.50000100  0.00000000  -0.00000000  1
  O  O4  1  0.62790531  0.12790431  0.25580962  1
  O  O5  1  0.06044890  0.06045090  0.12089980  1
  O  O6  1  0.87209569  0.37209569  0.74419038  1
  O  O7  1  0.93955110  0.93955110  0.87910020  1
loop_
_geom_bond_atom_site_label_1
_geom_bond_atom_site_label_2
_geom_bond_distance
_geom_bond_site_symmetry_2
Mn0 O2 1.933839 1_455
Mn0 O3 1.933839 1_455
Mn0 O2 1.933847 1_445
Mn0 O3 1.933847 1_555
Mn0 O5 1.946542 1_555
Mn0 O7 1.946542 1_444
Mn1 O7 1.889177 1_555
Mn1 O1 1.954427 1_555
Mn1 O6 1.954431 1_565
Mn1 O6 1.954431 1_555
Mn1 O1 1.954435 1_655
Mn2 O5 1.889177 1_555
Mn2 O4 1.954427 1_555
Mn2 O0 1.954431 1_545
Mn2 O0 1.954431 1_555
Mn2 O4 1.954435 1_455
Cl0 Sr0 2.982787 1_455
Cl0 Sr0 2.982795 1_445
Cl0 Sr0 2.982795 1_555
Cl0 Sr0 2.982802 1_545
Cl0 Mn2 3.093855 1_555
Cl0 Sr1 3.431926 1_555
Cl0 Cl1 3.535951 1_455
Cl0 Cl1 3.535951 1_555
Cl0 Cl1 3.535955 1_545
Cl0 Cl1 3.535955 1_445
Cl1 Sr1 2.982790 1_565
Cl1 Sr1 2.982793 1_555
Cl1 Sr1 2.982798 1_665
Cl1 Sr1 2.982800 1_655
Cl1 Mn1 3.093855 1_555
Cl1 Sr0 3.431926 1_555
O0 Sr0 2.522918 1_455
O0 Sr0 2.522927 1_555
O0 Sr2 2.973165 1_455
O0 Sr2 2.973170 1_555
O1 Sr1 2.522921 1_555
O1 Sr1 2.522924 1_565
O1 Sr3 2.973152 1_555
O1 Sr3 2.973159 1_565
O2 Sr2 2.683391 1_555
O2 Sr2 2.683399 1_655
O2 Sr3 2.683403 1_554
O2 Sr3 2.683409 1_654
O3 Sr2 2.683391 1_555
O3 Sr2 2.683399 1_545
O3 Sr3 2.683403 1_544
O3 Sr3 2.683409 1_554
O4 Sr0 2.522921 1_545
O4 Sr0 2.522924 1_555
O4 Sr2 2.973165 1_555
O4 Sr2 2.973170 1_545
O5 Sr2 2.736214 1_455
O5 Sr2 2.736223 1_555
O5 Sr2 2.736228 1_445
O5 Sr2 2.736236 1_545
O6 Sr1 2.522921 1_555
O6 Sr1 2.522924 1_655
O6 Sr3 2.973154 1_655
O6 Sr3 2.973157 1_555
O7 Sr3 2.736222 1_655
O7 Sr3 2.736222 1_665
O7 Sr3 2.736227 1_565
O7 Sr3 2.736227 1_555
