# generated using pymatgen
data_NaScZn(SO4)3
_symmetry_space_group_name_H-M   'P 1'
_cell_length_a   8.73507155
_cell_length_b   8.73507128
_cell_length_c   22.95685673
_cell_angle_alpha   90.00000000
_cell_angle_beta   90.00000000
_cell_angle_gamma   120.00000107
_symmetry_Int_Tables_number   1
_chemical_formula_structural   NaScZn(SO4)3
_chemical_formula_sum   'Na6 Sc6 Zn6 S18 O72'
_cell_volume   1516.96643247
_cell_formula_units_Z   6
loop_
 _symmetry_equiv_pos_site_id
 _symmetry_equiv_pos_as_xyz
  1  'x, y, z'
loop_
 _atom_site_type_symbol
 _atom_site_label
 _atom_site_symmetry_multiplicity
 _atom_site_fract_x
 _atom_site_fract_y
 _atom_site_fract_z
 _atom_site_occupancy
  Na  Na0  1  -0.00000000  0.00000000  0.49748500  1
  Na  Na1  1  -0.00000000  0.00000000  0.99748500  1
  Na  Na2  1  0.66666700  0.33333300  0.83081800  1
  Na  Na3  1  0.66666700  0.33333300  0.33081800  1
  Na  Na4  1  0.33333300  0.66666700  0.16415200  1
  Na  Na5  1  0.33333300  0.66666700  0.66415200  1
  Sc  Sc0  1  -0.00000000  0.00000000  0.64803429  1
  Sc  Sc1  1  -0.00000000  0.00000000  0.14803429  1
  Sc  Sc2  1  0.66666700  0.33333300  0.98136729  1
  Sc  Sc3  1  0.66666700  0.33333300  0.48136729  1
  Sc  Sc4  1  0.33333300  0.66666700  0.31470129  1
  Sc  Sc5  1  0.33333300  0.66666700  0.81470129  1
  Zn  Zn0  1  -0.00000000  0.00000000  0.34982248  1
  Zn  Zn1  1  -0.00000000  0.00000000  0.84982248  1
  Zn  Zn2  1  0.66666700  0.33333300  0.68315548  1
  Zn  Zn3  1  0.66666700  0.33333300  0.18315548  1
  Zn  Zn4  1  0.33333300  0.66666700  0.01648948  1
  Zn  Zn5  1  0.33333300  0.66666700  0.51648948  1
  S  S0  1  0.29438189  0.00313990  0.25058416  1
  S  S1  1  0.70875801  0.70561811  0.25058416  1
  S  S2  1  0.99686010  0.29124199  0.25058416  1
  S  S3  1  0.29438189  0.29124199  0.75058416  1
  S  S4  1  0.99686010  0.70561811  0.75058416  1
  S  S5  1  0.70875801  0.00313990  0.75058416  1
  S  S6  1  0.96104889  0.33647290  0.58391716  1
  S  S7  1  0.37542501  0.03895111  0.58391716  1
  S  S8  1  0.66352710  0.62457499  0.58391716  1
  S  S9  1  0.96104889  0.62457499  0.08391716  1
  S  S10  1  0.66352710  0.03895111  0.08391716  1
  S  S11  1  0.37542501  0.33647290  0.08391716  1
  S  S12  1  0.62771489  0.66980690  0.91725116  1
  S  S13  1  0.04209101  0.37228511  0.91725116  1
  S  S14  1  0.33019310  0.95790899  0.91725116  1
  S  S15  1  0.62771489  0.95790899  0.41725116  1
  S  S16  1  0.33019310  0.37228511  0.41725116  1
  S  S17  1  0.04209101  0.66980690  0.41725116  1
  O  O0  1  0.21404361  0.02860213  0.30324109  1
  O  O1  1  0.81455852  0.78595639  0.30324109  1
  O  O2  1  0.97139787  0.18544148  0.30324109  1
  O  O3  1  0.21404361  0.18544148  0.80324109  1
  O  O4  1  0.97139787  0.78595639  0.80324109  1
  O  O5  1  0.81455852  0.02860213  0.80324109  1
  O  O6  1  0.79040326  0.97385631  0.69784207  1
  O  O7  1  0.18345305  0.20959674  0.69784207  1
  O  O8  1  0.02614369  0.81654695  0.69784207  1
  O  O9  1  0.79040326  0.81654695  0.19784207  1
  O  O10  1  0.02614369  0.20959674  0.19784207  1
  O  O11  1  0.18345305  0.97385631  0.19784207  1
  O  O12  1  0.88071061  0.36193513  0.63657409  1
  O  O13  1  0.48122552  0.11928939  0.63657409  1
  O  O14  1  0.63806487  0.51877448  0.63657409  1
  O  O15  1  0.88071061  0.51877448  0.13657409  1
  O  O16  1  0.63806487  0.11928939  0.13657409  1
  O  O17  1  0.48122552  0.36193513  0.13657409  1
  O  O18  1  0.45707026  0.30718931  0.03117507  1
  O  O19  1  0.85012005  0.54292974  0.03117507  1
  O  O20  1  0.69281069  0.14987995  0.03117507  1
  O  O21  1  0.45707026  0.14987995  0.53117507  1
  O  O22  1  0.69281069  0.54292974  0.53117507  1
  O  O23  1  0.85012005  0.30718931  0.53117507  1
  O  O24  1  0.54737661  0.69526913  0.96990809  1
  O  O25  1  0.14789152  0.45262339  0.96990809  1
  O  O26  1  0.30473087  0.85210848  0.96990809  1
  O  O27  1  0.54737661  0.85210848  0.46990809  1
  O  O28  1  0.30473087  0.45262339  0.46990809  1
  O  O29  1  0.14789152  0.69526913  0.46990809  1
  O  O30  1  0.12373626  0.64052331  0.36450907  1
  O  O31  1  0.51678605  0.87626374  0.36450907  1
  O  O32  1  0.35947669  0.48321395  0.36450907  1
  O  O33  1  0.12373626  0.48321395  0.86450907  1
  O  O34  1  0.35947669  0.87626374  0.86450907  1
  O  O35  1  0.51678605  0.64052331  0.86450907  1
  O  O36  1  0.02182511  0.82664139  0.41038608  1
  O  O37  1  0.80481628  0.97817489  0.41038608  1
  O  O38  1  0.17335861  0.19518372  0.41038608  1
  O  O39  1  0.02182511  0.19518372  0.91038608  1
  O  O40  1  0.17335861  0.97817489  0.91038608  1
  O  O41  1  0.80481628  0.82664139  0.91038608  1
  O  O42  1  0.97601547  0.17325830  0.58949935  1
  O  O43  1  0.19724284  0.02398453  0.58949935  1
  O  O44  1  0.82674170  0.80275716  0.58949935  1
  O  O45  1  0.97601547  0.80275716  0.08949935  1
  O  O46  1  0.82674170  0.02398453  0.08949935  1
  O  O47  1  0.19724284  0.17325830  0.08949935  1
  O  O48  1  0.68849211  0.15997439  0.74371908  1
  O  O49  1  0.47148328  0.31150789  0.74371908  1
  O  O50  1  0.84002561  0.52851672  0.74371908  1
  O  O51  1  0.68849211  0.52851672  0.24371908  1
  O  O52  1  0.84002561  0.31150789  0.24371908  1
  O  O53  1  0.47148328  0.15997439  0.24371908  1
  O  O54  1  0.64268247  0.50659130  0.92283235  1
  O  O55  1  0.86390984  0.35731753  0.92283235  1
  O  O56  1  0.49340870  0.13609016  0.92283235  1
  O  O57  1  0.64268247  0.13609016  0.42283235  1
  O  O58  1  0.49340870  0.35731753  0.42283235  1
  O  O59  1  0.86390984  0.50659130  0.42283235  1
  O  O60  1  0.35515811  0.49330839  0.07705308  1
  O  O61  1  0.13814928  0.64484189  0.07705308  1
  O  O62  1  0.50669161  0.86185072  0.07705308  1
  O  O63  1  0.35515811  0.86185072  0.57705308  1
  O  O64  1  0.50669161  0.64484189  0.57705308  1
  O  O65  1  0.13814928  0.49330839  0.57705308  1
  O  O66  1  0.30934847  0.83992530  0.25616635  1
  O  O67  1  0.53057584  0.69065153  0.25616635  1
  O  O68  1  0.16007470  0.46942416  0.25616635  1
  O  O69  1  0.30934847  0.46942416  0.75616635  1
  O  O70  1  0.16007470  0.69065153  0.75616635  1
  O  O71  1  0.53057584  0.83992530  0.75616635  1
loop_
_geom_bond_atom_site_label_1
_geom_bond_atom_site_label_2
_geom_bond_distance
_geom_bond_site_symmetry_2
Na0 O38 2.572200 1_555
Na0 O36 2.572200 1_545
Na0 O37 2.572200 1_445
Na0 O42 2.667111 1_455
Na0 O44 2.667111 1_445
Na0 O43 2.667111 1_555
Na1 O39 2.572200 1_555
Na1 O41 2.572200 1_445
Na1 O40 2.572200 1_545
Na1 O46 2.667111 1_456
Na1 O47 2.667111 1_556
Na1 O45 2.667111 1_446
Na2 O50 2.572200 1_555
Na2 O48 2.572200 1_555
Na2 O49 2.572200 1_555
Na2 O54 2.667111 1_555
Na2 O56 2.667111 1_555
Na2 O55 2.667111 1_555
Na3 O51 2.572200 1_555
Na3 O53 2.572200 1_555
Na3 O52 2.572200 1_555
Na3 O58 2.667111 1_555
Na3 O59 2.667111 1_555
Na3 O57 2.667111 1_555
Na4 O62 2.572200 1_555
Na4 O60 2.572200 1_555
Na4 O61 2.572200 1_555
Na4 O66 2.667111 1_555
Na4 O68 2.667111 1_555
Na4 O67 2.667111 1_555
Na5 O63 2.572200 1_555
Na5 O65 2.572200 1_555
Na5 O64 2.572200 1_555
Na5 O70 2.667111 1_555
Na5 O71 2.667111 1_555
Na5 O69 2.667111 1_555
O0 S0 1.469458 1_555
O0 Zn0 2.057804 1_555
O1 S1 1.469458 1_555
O1 Zn0 2.057804 1_665
O2 S2 1.469458 1_555
O2 Zn0 2.057804 1_655
O3 S3 1.469458 1_555
O3 Zn1 2.057804 1_555
O4 S4 1.469458 1_555
O4 Zn1 2.057804 1_665
O5 S5 1.469458 1_555
O5 Zn1 2.057804 1_655
O6 S5 1.490804 1_565
O6 Sc0 2.072068 1_665
O7 S3 1.490804 1_555
O7 Sc0 2.072068 1_555
O8 S4 1.490804 1_455
O8 Sc0 2.072068 1_565
O9 S1 1.490804 1_555
O9 Sc1 2.072068 1_665
O10 S2 1.490804 1_455
O10 Sc1 2.072068 1_555
O11 S0 1.490804 1_565
O11 Sc1 2.072068 1_565
O12 S6 1.469458 1_555
O12 Zn2 2.057804 1_555
O13 S7 1.469458 1_555
O13 Zn2 2.057804 1_555
O14 S8 1.469458 1_555
O14 Zn2 2.057804 1_555
O15 S9 1.469458 1_555
O15 Zn3 2.057804 1_555
O16 S10 1.469458 1_555
O16 Zn3 2.057804 1_555
O17 S11 1.469458 1_555
O17 Zn3 2.057804 1_555
O18 S11 1.490804 1_555
O18 Sc2 2.072068 1_554
O19 S9 1.490804 1_555
O19 Sc2 2.072068 1_554
O20 S10 1.490804 1_555
O20 Sc2 2.072068 1_554
O21 S7 1.490804 1_555
O21 Sc3 2.072068 1_555
O22 S8 1.490804 1_555
O22 Sc3 2.072068 1_555
O23 S6 1.490804 1_555
O23 Sc3 2.072068 1_555
O24 S12 1.469458 1_555
O24 Zn4 2.057804 1_556
O25 S13 1.469458 1_555
O25 Zn4 2.057804 1_556
O26 S14 1.469458 1_555
O26 Zn4 2.057804 1_556
O27 S15 1.469458 1_555
O27 Zn5 2.057804 1_555
O28 S16 1.469458 1_555
O28 Zn5 2.057804 1_555
O29 S17 1.469458 1_555
O29 Zn5 2.057804 1_555
O30 S17 1.490804 1_555
O30 Sc4 2.072068 1_555
O31 S15 1.490804 1_555
O31 Sc4 2.072068 1_555
O32 S16 1.490804 1_555
O32 Sc4 2.072068 1_555
O33 S13 1.490804 1_555
O33 Sc5 2.072068 1_555
O34 S14 1.490804 1_555
O34 Sc5 2.072068 1_555
O35 S12 1.490804 1_555
O35 Sc5 2.072068 1_555
O36 S17 1.474952 1_555
O36 Zn0 2.133357 1_565
O37 S15 1.474961 1_555
O37 Zn0 2.133357 1_665
O38 S16 1.474957 1_555
O38 Zn0 2.133357 1_555
O39 S13 1.474961 1_555
O39 Zn1 2.133357 1_555
O40 S14 1.474952 1_555
O40 Zn1 2.133357 1_565
O41 S12 1.474957 1_555
O41 Zn1 2.133357 1_665
O42 S6 1.500832 1_555
O42 Sc0 2.111198 1_655
O43 S7 1.500840 1_555
O43 Sc0 2.111198 1_555
O44 S8 1.500836 1_555
O44 Sc0 2.111198 1_665
O45 S9 1.500840 1_555
O45 Sc1 2.111198 1_665
O46 S10 1.500832 1_555
O46 Sc1 2.111198 1_655
O47 S11 1.500836 1_555
O47 Sc1 2.111198 1_555
O48 S5 1.474952 1_555
O48 Zn2 2.133357 1_555
O49 S3 1.474961 1_555
O49 Zn2 2.133357 1_555
O50 S4 1.474957 1_555
O50 Zn2 2.133357 1_555
O51 S1 1.474961 1_555
O51 Zn3 2.133357 1_555
O52 S2 1.474952 1_555
O52 Zn3 2.133357 1_555
O53 S0 1.474957 1_555
O53 Zn3 2.133357 1_555
O54 S12 1.500843 1_555
O54 Sc2 2.111198 1_555
O55 S13 1.500826 1_655
O55 Sc2 2.111198 1_555
O56 S14 1.500833 1_545
O56 Sc2 2.111198 1_555
O57 S15 1.500826 1_545
O57 Sc3 2.111198 1_555
O58 S16 1.500843 1_555
O58 Sc3 2.111198 1_555
O59 S17 1.500833 1_655
O59 Sc3 2.111198 1_555
O60 S11 1.474963 1_555
O60 Zn4 2.133357 1_555
O61 S9 1.474946 1_455
O61 Zn4 2.133357 1_555
O62 S10 1.474953 1_565
O62 Zn4 2.133357 1_555
O63 S7 1.474946 1_565
O63 Zn5 2.133357 1_555
O64 S8 1.474963 1_555
O64 Zn5 2.133357 1_555
O65 S6 1.474953 1_455
O65 Zn5 2.133357 1_555
O66 S0 1.500832 1_565
O66 Sc4 2.111198 1_555
O67 S1 1.500840 1_555
O67 Sc4 2.111198 1_555
O68 S2 1.500836 1_455
O68 Sc4 2.111198 1_555
O69 S3 1.500840 1_555
O69 Sc5 2.111198 1_555
O70 S4 1.500832 1_455
O70 Sc5 2.111198 1_555
O71 S5 1.500836 1_565
O71 Sc5 2.111198 1_555
