# generated using pymatgen
data_Na10Ta4In4Si9(SO16)3
_symmetry_space_group_name_H-M   'P 1'
_cell_length_a   18.22587186
_cell_length_b   9.07302343
_cell_length_c   22.76336624
_cell_angle_alpha   90.03910225
_cell_angle_beta   89.80110675
_cell_angle_gamma   119.79426473
_symmetry_Int_Tables_number   1
_chemical_formula_structural   Na10Ta4In4Si9(SO16)3
_chemical_formula_sum   'Na30 Ta12 In12 Si27 S9 O144'
_cell_volume   3266.63906389
_cell_formula_units_Z   3
loop_
 _symmetry_equiv_pos_site_id
 _symmetry_equiv_pos_as_xyz
  1  'x, y, z'
loop_
 _atom_site_type_symbol
 _atom_site_label
 _atom_site_symmetry_multiplicity
 _atom_site_fract_x
 _atom_site_fract_y
 _atom_site_fract_z
 _atom_site_occupancy
  Na  Na0  1  0.18497750  0.36217653  0.24417938  1
  Na  Na1  1  0.68495800  0.36286946  0.24370518  1
  Na  Na2  1  0.18542157  0.00801070  0.74353732  1
  Na  Na3  1  0.68424305  0.00590983  0.74343393  1
  Na  Na4  1  0.65248240  0.34467457  0.58063677  1
  Na  Na5  1  0.02136520  0.70190426  0.57646875  1
  Na  Na6  1  0.51904673  0.68707945  0.58080176  1
  Na  Na7  1  0.32598878  0.97126761  0.58560286  1
  Na  Na8  1  0.15324727  0.96212251  0.08058233  1
  Na  Na9  1  0.65323198  0.96195691  0.08036659  1
  Na  Na10  1  0.32637405  0.68467079  0.08431568  1
  Na  Na11  1  0.82650551  0.68513991  0.08423048  1
  Na  Na12  1  0.02063084  0.35210976  0.08069298  1
  Na  Na13  1  0.52058761  0.35222377  0.08058678  1
  Na  Na14  1  0.48960713  0.67635556  0.91391724  1
  Na  Na15  1  0.98955663  0.67630835  0.91484810  1
  Na  Na16  1  0.35181957  0.66631290  0.41058456  1
  Na  Na17  1  0.85209551  0.67391353  0.40995224  1
  Na  Na18  1  0.01378862  0.02127501  0.49355590  1
  Na  Na19  1  0.51162660  0.01057909  0.49276329  1
  Na  Na20  1  0.00817099  0.02241848  0.99192532  1
  Na  Na21  1  0.50838384  0.02259141  0.99169905  1
  Na  Na22  1  0.34198558  0.33171576  0.82770950  1
  Na  Na23  1  0.84097933  0.32971534  0.82919284  1
  Na  Na24  1  0.34485514  0.33999288  0.32928586  1
  Na  Na25  1  0.84616166  0.33884727  0.32670388  1
  Na  Na26  1  0.16656203  0.67311409  0.16237396  1
  Na  Na27  1  0.66669445  0.67307436  0.16189883  1
  Na  Na28  1  0.17430081  0.66016508  0.66331776  1
  Na  Na29  1  0.67183323  0.67126724  0.65948790  1
  Ta  Ta0  1  0.99535502  0.98559459  0.64687010  1
  Ta  Ta1  1  0.49339772  0.98494342  0.64388438  1
  Ta  Ta2  1  0.99486363  0.00094207  0.14553536  1
  Ta  Ta3  1  0.49457406  0.00081003  0.14537981  1
  Ta  Ta4  1  0.33386204  0.32330624  0.98022728  1
  Ta  Ta5  1  0.83374338  0.32321935  0.98031681  1
  Ta  Ta6  1  0.33378514  0.33858536  0.48148167  1
  Ta  Ta7  1  0.82959981  0.34088268  0.47785377  1
  Ta  Ta8  1  0.16114885  0.64644740  0.31290547  1
  Ta  Ta9  1  0.66071033  0.64901503  0.31236680  1
  Ta  Ta10  1  0.16316681  0.67701771  0.81286008  1
  Ta  Ta11  1  0.66223537  0.67693562  0.81224047  1
  In  In0  1  0.00188744  0.99942807  0.35224275  1
  In  In1  1  0.50097314  0.99818255  0.35187054  1
  In  In2  1  0.99871020  0.00673222  0.85138059  1
  In  In3  1  0.49892276  0.00705505  0.85123001  1
  In  In4  1  0.33856636  0.33714580  0.68433321  1
  In  In5  1  0.83571781  0.33352944  0.68599112  1
  In  In6  1  0.33932594  0.34192454  0.18487471  1
  In  In7  1  0.83938184  0.34219480  0.18459527  1
  In  In8  1  0.16388296  0.66398855  0.01607261  1
  In  In9  1  0.66391591  0.66385975  0.01591139  1
  In  In10  1  0.16542501  0.66433067  0.51622664  1
  In  In11  1  0.66461867  0.66824407  0.51837460  1
  Si  Si0  1  0.35183648  0.70768078  0.25303631  1
  Si  Si1  1  0.85223929  0.70819451  0.25333913  1
  Si  Si2  1  0.99586294  0.28675617  0.25149320  1
  Si  Si3  1  0.49573937  0.28657472  0.25159931  1
  Si  Si4  1  0.99637231  0.70283712  0.75305254  1
  Si  Si5  1  0.49504184  0.70378381  0.75269296  1
  Si  Si6  1  0.35264969  0.99776069  0.75121955  1
  Si  Si7  1  0.85272300  0.99746157  0.75148823  1
  Si  Si8  1  0.47947483  0.33072657  0.58273163  1
  Si  Si9  1  0.18604008  0.04564131  0.58486793  1
  Si  Si10  1  0.68866916  0.04297119  0.58605587  1
  Si  Si11  1  0.32825349  0.61834415  0.58478404  1
  Si  Si12  1  0.83286370  0.62592336  0.58417806  1
  Si  Si13  1  0.47952036  0.62803890  0.08166438  1
  Si  Si14  1  0.97956900  0.62827684  0.08162950  1
  Si  Si15  1  0.33184186  0.04133598  0.08477194  1
  Si  Si16  1  0.83190967  0.04118558  0.08481423  1
  Si  Si17  1  0.18811009  0.33026499  0.08522245  1
  Si  Si18  1  0.68808256  0.33031897  0.08528542  1
  Si  Si19  1  0.01938252  0.37011645  0.91813226  1
  Si  Si20  1  0.51956517  0.37025100  0.91811167  1
  Si  Si21  1  0.16776113  0.96816060  0.91793035  1
  Si  Si22  1  0.66774586  0.96793836  0.91791649  1
  Si  Si23  1  0.16580197  0.36553868  0.41847776  1
  Si  Si24  1  0.66323738  0.36838903  0.41834221  1
  Si  Si25  1  0.02004542  0.66531025  0.41915003  1
  Si  Si26  1  0.51911218  0.66534826  0.41861238  1
  S  S0  1  0.14493550  0.99278302  0.24892414  1
  S  S1  1  0.64494179  0.99301069  0.24908453  1
  S  S2  1  0.14398318  0.29462757  0.74916760  1
  S  S3  1  0.64481739  0.29711386  0.74943762  1
  S  S4  1  0.97755399  0.32572025  0.58271169  1
  S  S5  1  0.31038155  0.65961215  0.91654918  1
  S  S6  1  0.81066820  0.65987533  0.91651521  1
  S  S7  1  0.31052090  0.96237500  0.41589756  1
  S  S8  1  0.80983256  0.96088309  0.41660967  1
  O  O0  1  0.10727841  0.02160332  0.30121843  1
  O  O1  1  0.60751348  0.02181238  0.30138842  1
  O  O2  1  0.40489727  0.78413098  0.31170634  1
  O  O3  1  0.90510667  0.78454724  0.31224151  1
  O  O4  1  0.49323896  0.18431038  0.30818566  1
  O  O5  1  0.99209180  0.18278947  0.30797483  1
  O  O6  1  0.10848535  0.19110288  0.80215211  1
  O  O7  1  0.60801599  0.19107264  0.80153495  1
  O  O8  1  0.49273803  0.79390534  0.81240394  1
  O  O9  1  0.99019417  0.78993465  0.81211148  1
  O  O10  1  0.40955580  0.03047738  0.80711314  1
  O  O11  1  0.90928979  0.03136505  0.80773465  1
  O  O12  1  0.40214106  0.97468862  0.69111315  1
  O  O13  1  0.90577233  0.97813551  0.69289325  1
  O  O14  1  0.08899421  0.20981461  0.69654557  1
  O  O15  1  0.59277729  0.21717232  0.69549230  1
  O  O16  1  0.01549249  0.83509074  0.69445766  1
  O  O17  1  0.51518485  0.83527433  0.69430824  1
  O  O18  1  0.40443482  0.83263886  0.19400780  1
  O  O19  1  0.90462702  0.83254716  0.19428900  1
  O  O20  1  0.01603014  0.19928262  0.19194230  1
  O  O21  1  0.51622286  0.19926845  0.19212106  1
  O  O22  1  0.09176478  0.96921506  0.19502739  1
  O  O23  1  0.59203500  0.96887020  0.19519880  1
  O  O24  1  0.44267110  0.37586267  0.63894459  1
  O  O25  1  0.94197961  0.35671507  0.63588863  1
  O  O26  1  0.24073658  0.11289652  0.64401956  1
  O  O27  1  0.73848488  0.12070558  0.64598899  1
  O  O28  1  0.31351679  0.50969206  0.64195454  1
  O  O29  1  0.81866854  0.50723831  0.63906854  1
  O  O30  1  0.44201376  0.50643861  0.13715887  1
  O  O31  1  0.94208629  0.50666401  0.13713726  1
  O  O32  1  0.30807488  0.11610543  0.13992431  1
  O  O33  1  0.80799661  0.11607943  0.13991600  1
  O  O34  1  0.24076599  0.36585656  0.14504846  1
  O  O35  1  0.74068665  0.36590562  0.14519456  1
  O  O36  1  0.23888825  0.30001857  0.02894204  1
  O  O37  1  0.73892887  0.30010068  0.02905885  1
  O  O38  1  0.41650950  0.53934602  0.02320954  1
  O  O39  1  0.91663121  0.53934846  0.02317034  1
  O  O40  1  0.35262384  0.17104867  0.02659505  1
  O  O41  1  0.85264600  0.17108423  0.02665511  1
  O  O42  1  0.23801061  0.16970860  0.52753046  1
  O  O43  1  0.74166443  0.17596365  0.52919300  1
  O  O44  1  0.34868316  0.53316484  0.52549606  1
  O  O45  1  0.85229151  0.53546503  0.52450256  1
  O  O46  1  0.41428597  0.29651840  0.52584501  1
  O  O47  1  0.92442151  0.30231718  0.53006854  1
  O  O48  1  0.27533508  0.68371993  0.97185668  1
  O  O49  1  0.77564405  0.68376948  0.97194046  1
  O  O50  1  0.06902290  0.44585477  0.97888422  1
  O  O51  1  0.56900441  0.44524532  0.97901168  1
  O  O52  1  0.15274046  0.85649989  0.97611680  1
  O  O53  1  0.65318064  0.85695531  0.97625651  1
  O  O54  1  0.27552332  0.86605862  0.47128975  1
  O  O55  1  0.77350118  0.85791838  0.46948477  1
  O  O56  1  0.15624726  0.45981307  0.47442138  1
  O  O57  1  0.65934965  0.45765817  0.47730253  1
  O  O58  1  0.06991219  0.69478263  0.47989900  1
  O  O59  1  0.57166946  0.69880410  0.47799802  1
  O  O60  1  0.07467341  0.64691126  0.36243514  1
  O  O61  1  0.57447796  0.64784079  0.36136420  1
  O  O62  1  0.25578037  0.87063836  0.36472575  1
  O  O63  1  0.75684547  0.87942278  0.36369123  1
  O  O64  1  0.18180670  0.49618302  0.35856373  1
  O  O65  1  0.68227616  0.49981156  0.35983023  1
  O  O66  1  0.07401825  0.50575842  0.86214043  1
  O  O67  1  0.57419123  0.50609715  0.86231054  1
  O  O68  1  0.18075601  0.86557123  0.85910843  1
  O  O69  1  0.68084298  0.86606015  0.85910251  1
  O  O70  1  0.25658123  0.64359957  0.86519186  1
  O  O71  1  0.75706818  0.64365576  0.86515853  1
  O  O72  1  0.99692674  0.81540401  0.41298928  1
  O  O73  1  0.49756476  0.81812687  0.41247996  1
  O  O74  1  0.39480842  0.97844377  0.41117047  1
  O  O75  1  0.89501808  0.97988406  0.41133670  1
  O  O76  1  0.08594020  0.17975584  0.41197645  1
  O  O77  1  0.58603449  0.18074060  0.41194772  1
  O  O78  1  0.00384411  0.18128403  0.91285660  1
  O  O79  1  0.50384444  0.18131614  0.91265597  1
  O  O80  1  0.08167235  0.97559181  0.91053673  1
  O  O81  1  0.58186082  0.97650436  0.91115458  1
  O  O82  1  0.39734438  0.80496352  0.91215883  1
  O  O83  1  0.89765375  0.80497305  0.91229803  1
  O  O84  1  0.48438136  0.15216056  0.59008317  1
  O  O85  1  0.98629877  0.17072961  0.58855256  1
  O  O86  1  0.09070997  0.03043388  0.59197083  1
  O  O87  1  0.59464402  0.03835977  0.59102978  1
  O  O88  1  0.42177862  0.80706342  0.59042198  1
  O  O89  1  0.92392498  0.81223501  0.59114951  1
  O  O90  1  0.48481842  0.81665106  0.09092224  1
  O  O91  1  0.98470091  0.81662153  0.09083955  1
  O  O92  1  0.42247604  0.03597423  0.09146535  1
  O  O93  1  0.92245167  0.03571693  0.09155911  1
  O  O94  1  0.09393991  0.15224099  0.09138608  1
  O  O95  1  0.59401083  0.15229174  0.09147002  1
  O  O96  1  0.32824693  0.14618969  0.74620883  1
  O  O97  1  0.82966473  0.14790028  0.74565807  1
  O  O98  1  0.22812406  0.31206752  0.74251021  1
  O  O99  1  0.72986476  0.31563802  0.74431312  1
  O  O100  1  0.41560642  0.51767314  0.74839162  1
  O  O101  1  0.91870133  0.51578019  0.74535984  1
  O  O102  1  0.32927307  0.51172768  0.24697825  1
  O  O103  1  0.82946851  0.51179894  0.24743975  1
  O  O104  1  0.41626340  0.31400558  0.24739876  1
  O  O105  1  0.91638075  0.31428057  0.24703102  1
  O  O106  1  0.22894589  0.14492367  0.24322047  1
  O  O107  1  0.72928246  0.14502796  0.24344911  1
  O  O108  1  0.31661383  0.50075341  0.91934535  1
  O  O109  1  0.81705700  0.50091561  0.91945405  1
  O  O110  1  0.42802811  0.37539858  0.92243242  1
  O  O111  1  0.92795367  0.37557287  0.92222660  1
  O  O112  1  0.25543391  0.15467312  0.92318825  1
  O  O113  1  0.75555906  0.15488573  0.92316921  1
  O  O114  1  0.31690065  0.13223145  0.41935883  1
  O  O115  1  0.81825513  0.13350464  0.42303093  1
  O  O116  1  0.25726701  0.36440008  0.42268726  1
  O  O117  1  0.75662985  0.36525362  0.42283753  1
  O  O118  1  0.42492478  0.48598146  0.42315396  1
  O  O119  1  0.92562762  0.48261247  0.42462844  1
  O  O120  1  0.17473171  0.49292898  0.07733540  1
  O  O121  1  0.67480391  0.49306064  0.07741419  1
  O  O122  1  0.07591987  0.66367787  0.07857410  1
  O  O123  1  0.57590929  0.66352940  0.07856816  1
  O  O124  1  0.25757804  0.84833915  0.07537422  1
  O  O125  1  0.75756057  0.84823273  0.07543398  1
  O  O126  1  0.16987610  0.85145452  0.57781806  1
  O  O127  1  0.66851189  0.85037462  0.57954304  1
  O  O128  1  0.25731397  0.67414190  0.57701890  1
  O  O129  1  0.75289069  0.65029383  0.57647264  1
  O  O130  1  0.06281243  0.47845983  0.57771113  1
  O  O131  1  0.57493380  0.48720573  0.57815760  1
  O  O132  1  0.15232891  0.83659612  0.25448563  1
  O  O133  1  0.65262075  0.83679377  0.25468615  1
  O  O134  1  0.25731588  0.70083263  0.25833382  1
  O  O135  1  0.75764006  0.70098381  0.25868088  1
  O  O136  1  0.08808521  0.47890622  0.25700149  1
  O  O137  1  0.58847032  0.47919454  0.25714065  1
  O  O138  1  0.15096397  0.46566057  0.75518389  1
  O  O139  1  0.65268485  0.46850932  0.75623097  1
  O  O140  1  0.08930120  0.69936185  0.75676411  1
  O  O141  1  0.58842212  0.69820510  0.75718301  1
  O  O142  1  0.25784371  0.81469240  0.75828482  1
  O  O143  1  0.75807193  0.81666708  0.75808108  1
loop_
_geom_bond_atom_site_label_1
_geom_bond_atom_site_label_2
_geom_bond_distance
_geom_bond_site_symmetry_2
Na0 O102 2.283946 1_555
Na0 O34 2.465249 1_555
Na0 O106 2.469339 1_555
Na0 O136 2.485978 1_555
Na0 O134 2.694239 1_555
Na0 O64 2.885431 1_555
Na0 O20 2.929208 1_555
Na0 O0 2.980540 1_555
Na1 O103 2.287959 1_555
Na1 O35 2.453036 1_555
Na1 O137 2.477968 1_555
Na1 O107 2.479083 1_555
Na1 O135 2.691681 1_555
Na1 O21 2.919945 1_555
Na1 O65 2.930642 1_555
Na1 O1 2.990652 1_555
Na2 O96 2.260412 1_555
Na2 O98 2.466381 1_555
Na2 O26 2.467288 1_555
Na2 O140 2.474663 1_545
Na2 O142 2.689996 1_545
Na2 O68 2.914161 1_545
Na2 O16 2.914536 1_545
Na2 O6 2.967318 1_555
Na3 O97 2.301008 1_555
Na3 O27 2.438671 1_555
Na3 O141 2.468649 1_545
Na3 O99 2.503355 1_555
Na3 O143 2.677649 1_545
Na3 O17 2.902125 1_545
Na3 O69 2.910645 1_545
Na3 O7 2.967393 1_555
Na4 O131 2.343128 1_555
Na4 O87 2.445173 1_555
Na4 O129 2.450141 1_555
Na4 O57 2.544259 1_555
Na4 O84 2.676140 1_555
Na4 O15 2.844533 1_555
Na4 O29 2.950332 1_555
Na4 O43 2.968723 1_555
Na5 O126 2.349292 1_555
Na5 O58 2.379601 1_555
Na5 O89 2.455567 1_455
Na5 O130 2.490705 1_555
Na5 O86 2.620044 1_565
Na5 O45 2.928121 1_455
Na5 O16 2.967737 1_555
Na5 O25 3.036569 1_455
Na6 O127 2.367577 1_555
Na6 O131 2.482918 1_555
Na6 O88 2.508129 1_555
Na6 O59 2.508165 1_555
Na6 O87 2.783501 1_565
Na6 O24 2.783660 1_555
Na6 O17 2.928626 1_555
Na6 O44 2.981930 1_555
Na7 O128 2.349479 1_555
Na7 O126 2.497652 1_555
Na7 O84 2.516197 1_565
Na7 O54 2.769310 1_555
Na7 O12 2.770572 1_555
Na7 O26 2.793081 1_565
Na7 O88 2.804640 1_555
Na7 O46 2.901633 1_565
Na8 O122 2.351238 1_555
Na8 O94 2.460661 1_565
Na8 O52 2.561547 1_554
Na8 O124 2.577730 1_555
Na8 O91 2.683138 1_455
Na8 O32 2.800991 1_565
Na8 O22 2.845667 1_555
Na8 O36 2.907514 1_565
Na9 O123 2.351009 1_555
Na9 O95 2.461906 1_565
Na9 O53 2.553440 1_554
Na9 O125 2.577018 1_555
Na9 O90 2.681671 1_555
Na9 O33 2.802411 1_565
Na9 O23 2.851292 1_555
Na9 O37 2.906255 1_565
Na10 O124 2.381445 1_555
Na10 O120 2.432047 1_555
Na10 O90 2.522326 1_555
Na10 O48 2.725298 1_554
Na10 O92 2.776148 1_565
Na10 O18 2.860641 1_555
Na10 O34 2.866744 1_555
Na10 O38 2.916570 1_555
Na11 O125 2.378809 1_555
Na11 O121 2.433100 1_555
Na11 O91 2.518631 1_555
Na11 O49 2.719939 1_554
Na11 O93 2.770723 1_565
Na11 O19 2.867112 1_555
Na11 O35 2.872253 1_555
Na11 O39 2.919033 1_555
Na12 O120 2.441135 1_555
Na12 O50 2.472890 1_554
Na12 O122 2.485540 1_555
Na12 O93 2.529202 1_455
Na12 O94 2.746572 1_555
Na12 O31 2.765185 1_455
Na12 O20 2.868897 1_555
Na12 O41 2.934387 1_455
Na13 O121 2.442887 1_555
Na13 O51 2.466902 1_554
Na13 O123 2.483175 1_555
Na13 O92 2.528034 1_555
Na13 O95 2.749181 1_555
Na13 O30 2.764591 1_555
Na13 O21 2.876093 1_555
Na13 O40 2.933705 1_555
Na14 O81 2.386695 1_555
Na14 O110 2.388930 1_555
Na14 O82 2.478169 1_555
Na14 O8 2.534253 1_555
Na14 O108 2.738654 1_555
Na14 O38 2.800902 1_556
Na14 O67 2.914522 1_555
Na14 O53 2.959423 1_555
Na15 O80 2.381274 1_655
Na15 O111 2.385119 1_555
Na15 O83 2.473007 1_555
Na15 O9 2.554086 1_555
Na15 O109 2.730165 1_555
Na15 O39 2.780447 1_556
Na15 O66 2.924990 1_655
Na15 O52 2.942311 1_655
Na16 O73 2.306482 1_555
Na16 O116 2.419871 1_555
Na16 O2 2.470857 1_555
Na16 O74 2.535564 1_555
Na16 O118 2.589188 1_555
Na16 O44 2.870467 1_555
Na16 O64 2.942141 1_555
Na16 O54 3.100853 1_555
Na17 O72 2.292213 1_555
Na17 O3 2.431581 1_555
Na17 O117 2.472116 1_555
Na17 O75 2.482225 1_555
Na17 O119 2.689952 1_555
Na17 O45 2.895899 1_555
Na17 O65 2.922335 1_555
Na17 O55 3.005916 1_555
Na18 O76 2.313649 1_555
Na18 O72 2.524996 1_445
Na18 O86 2.626197 1_555
Na18 O85 2.725726 1_455
Na18 O75 2.747558 1_445
Na18 O89 2.847542 1_445
Na19 O77 2.347939 1_555
Na19 O73 2.451250 1_545
Na19 O87 2.645796 1_555
Na19 O84 2.725210 1_555
Na19 O74 2.734521 1_545
Na19 O88 2.829925 1_545
Na20 O78 2.332563 1_555
Na20 O80 2.440251 1_545
Na20 O94 2.673599 1_556
Na20 O83 2.703020 1_445
Na20 O93 2.785956 1_456
Na20 O91 2.818603 1_446
Na21 O79 2.332633 1_555
Na21 O81 2.422446 1_545
Na21 O95 2.678477 1_556
Na21 O82 2.705958 1_545
Na21 O92 2.790643 1_556
Na21 O90 2.824674 1_546
Na22 O100 2.375836 1_555
Na22 O96 2.432717 1_555
Na22 O110 2.582679 1_555
Na22 O112 2.693555 1_555
Na22 O108 2.758785 1_555
Na22 O98 2.785593 1_555
Na23 O97 2.457631 1_555
Na23 O101 2.471308 1_555
Na23 O111 2.556853 1_555
Na23 O113 2.653968 1_555
Na23 O109 2.736219 1_555
Na23 O99 2.760536 1_555
Na24 O104 2.347668 1_555
Na24 O102 2.542893 1_555
Na24 O118 2.558649 1_555
Na24 O114 2.657158 1_555
Na24 O116 2.728547 1_555
Na24 O106 2.782420 1_555
Na25 O105 2.289896 1_555
Na25 O103 2.508511 1_555
Na25 O119 2.628492 1_555
Na25 O107 2.742744 1_555
Na25 O115 2.755711 1_555
Na25 O117 2.805698 1_555
Na26 O122 2.501290 1_555
Na26 O124 2.561631 1_555
Na26 O120 2.584103 1_555
Na26 O132 2.652964 1_555
Na26 O134 2.679851 1_555
Na26 O136 2.696239 1_555
Na27 O123 2.494528 1_555
Na27 O125 2.551148 1_555
Na27 O121 2.573242 1_555
Na27 O133 2.665349 1_555
Na27 O135 2.696793 1_555
Na27 O137 2.705318 1_555
Na28 O128 2.439943 1_555
Na28 O142 2.618128 1_555
Na28 O138 2.630818 1_555
Na28 O126 2.636559 1_555
Na28 O130 2.708926 1_555
Na28 O140 2.752246 1_555
Na29 O129 2.459522 1_555
Na29 O127 2.461447 1_555
Na29 O131 2.534347 1_555
Na29 O143 2.684697 1_555
Na29 O141 2.767940 1_555
Na29 O139 2.778106 1_555
In0 O5 2.028230 1_465
In0 O3 2.081516 1_455
In0 O76 2.095997 1_565
In0 O72 2.135488 1_455
In0 O0 2.163315 1_565
In0 O75 2.296458 1_455
In1 O4 2.024948 1_565
In1 O2 2.074364 1_555
In1 O77 2.115880 1_565
In1 O73 2.116081 1_555
In1 O1 2.169833 1_565
In1 O74 2.288241 1_555
In2 O11 2.016607 1_555
In2 O78 2.079866 1_655
In2 O9 2.094619 1_545
In2 O80 2.149108 1_645
In2 O6 2.172093 1_655
In2 O83 2.302469 1_545
In3 O10 2.015506 1_555
In3 O8 2.077395 1_545
In3 O79 2.078435 1_555
In3 O81 2.157261 1_545
In3 O7 2.169926 1_555
In3 O82 2.307665 1_545
In4 O24 2.028679 1_555
In4 O28 2.074921 1_555
In4 O100 2.122756 1_555
In4 O26 2.136495 1_555
In4 O96 2.167632 1_555
In4 O98 2.320366 1_555
In5 O29 2.052488 1_555
In5 O27 2.075196 1_555
In5 O101 2.091393 1_555
In5 O97 2.123901 1_555
In5 O25 2.162399 1_555
In5 O99 2.276452 1_555
In6 O30 2.030380 1_555
In6 O32 2.100167 1_555
In6 O104 2.103207 1_555
In6 O34 2.120158 1_555
In6 O102 2.163645 1_555
In6 O106 2.327493 1_555
In7 O31 2.027318 1_555
In7 O33 2.098910 1_555
In7 O105 2.102640 1_555
In7 O35 2.117175 1_555
In7 O103 2.172234 1_555
In7 O107 2.332147 1_555
In8 O50 2.056732 1_554
In8 O52 2.067671 1_554
In8 O122 2.138726 1_555
In8 O120 2.168521 1_555
In8 O124 2.170360 1_555
In8 O48 2.189975 1_554
In9 O51 2.056741 1_554
In9 O53 2.065555 1_554
In9 O123 2.141596 1_555
In9 O121 2.170568 1_555
In9 O125 2.173208 1_555
In9 O49 2.191282 1_554
In10 O56 2.016690 1_555
In10 O58 2.068537 1_555
In10 O128 2.143713 1_555
In10 O126 2.171493 1_555
In10 O54 2.182050 1_555
In10 O130 2.269639 1_555
In11 O59 2.066277 1_555
In11 O57 2.085608 1_555
In11 O131 2.131020 1_555
In11 O127 2.134363 1_555
In11 O129 2.153915 1_555
In11 O55 2.175241 1_555
O0 S0 1.459013 1_545
O1 S1 1.456805 1_545
O2 Si0 1.594078 1_555
O3 Si1 1.597023 1_555
O4 Si3 1.575237 1_555
O5 Si2 1.576132 1_555
O6 S2 1.465517 1_555
O7 S3 1.461733 1_555
O8 Si5 1.596887 1_555
O9 Si4 1.590736 1_555
O10 Si6 1.576492 1_545
O11 Si7 1.578075 1_545
O12 Si6 1.705342 1_555
O12 Ta1 1.940295 1_555
O13 Si7 1.704073 1_555
O13 Ta0 1.909536 1_555
O14 S2 1.507351 1_555
O14 Ta0 2.211304 1_445
O15 S3 1.502273 1_555
O15 Ta1 2.306317 1_545
O16 Si4 1.709903 1_455
O16 Ta0 1.917196 1_455
O17 Si5 1.699387 1_555
O17 Ta1 1.964779 1_555
O18 Si0 1.709657 1_555
O18 Ta3 1.936754 1_565
O19 Si1 1.707056 1_555
O19 Ta2 1.939933 1_565
O20 Si2 1.699280 1_455
O20 Ta2 1.952809 1_455
O21 Si3 1.699669 1_555
O21 Ta3 1.955565 1_555
O22 S0 1.513943 1_555
O22 Ta2 2.233993 1_465
O23 S1 1.510083 1_555
O23 Ta3 2.247512 1_565
O24 Si8 1.587871 1_555
O25 S4 1.462885 1_555
O26 Si9 1.607127 1_555
O27 Si10 1.598109 1_555
O28 Si11 1.572822 1_555
O29 Si12 1.584444 1_555
O30 Si13 1.589565 1_555
O31 Si14 1.589823 1_555
O32 Si15 1.584645 1_555
O33 Si16 1.585661 1_555
O34 Si17 1.606365 1_555
O35 Si18 1.607506 1_555
O36 Si17 1.678332 1_555
O36 Ta4 1.973361 1_554
O37 Si18 1.678070 1_555
O37 Ta5 1.971826 1_554
O38 Si13 1.681597 1_555
O38 Ta4 2.035152 1_554
O39 Si14 1.681378 1_555
O39 Ta5 2.035379 1_554
O40 Si15 1.684623 1_555
O40 Ta4 1.900865 1_554
O41 Si16 1.685402 1_555
O41 Ta5 1.900979 1_554
O42 Si9 1.673821 1_555
O42 Ta6 1.955772 1_555
O43 Si10 1.702821 1_555
O43 Ta7 1.944100 1_555
O44 Si11 1.684749 1_555
O44 Ta6 1.928051 1_555
O45 Si12 1.711201 1_555
O45 Ta7 1.921027 1_555
O46 Si8 1.681810 1_555
O46 Ta6 1.971162 1_555
O47 S4 1.490715 1_555
O47 Ta7 2.266637 1_555
O48 S5 1.474373 1_555
O49 S6 1.475752 1_555
O50 Si19 1.610209 1_555
O51 Si20 1.610838 1_555
O52 Si21 1.606039 1_555
O53 Si22 1.606792 1_555
O54 S7 1.484052 1_555
O55 S8 1.463265 1_555
O56 Si23 1.590179 1_555
O57 Si24 1.586582 1_555
O58 Si25 1.605154 1_555
O59 Si26 1.598937 1_555
O60 Si25 1.685783 1_555
O60 Ta8 1.936362 1_555
O61 Si26 1.700471 1_555
O61 Ta9 1.919748 1_555
O62 S7 1.492156 1_555
O62 Ta8 2.242350 1_555
O63 S8 1.492483 1_555
O63 Ta9 2.275078 1_555
O64 Si23 1.733789 1_555
O64 Ta8 1.896173 1_555
O65 Si24 1.704123 1_555
O65 Ta9 1.920446 1_555
O66 Si19 1.704741 1_555
O66 Ta10 1.947711 1_555
O67 Si20 1.702268 1_555
O67 Ta11 1.947957 1_555
O68 Si21 1.711880 1_555
O68 Ta10 1.895423 1_555
O69 Si22 1.708553 1_555
O69 Ta11 1.902383 1_555
O70 S5 1.488446 1_555
O70 Ta10 2.222002 1_555
O71 S6 1.485769 1_555
O71 Ta11 2.250159 1_555
O72 Si25 1.619452 1_655
O73 Si26 1.623822 1_555
O74 S7 1.472782 1_555
O75 S8 1.478978 1_555
O76 Si23 1.595228 1_555
O77 Si24 1.587483 1_555
O78 Si19 1.596161 1_555
O79 Si20 1.596211 1_555
O80 Si21 1.612994 1_555
O81 Si22 1.613251 1_555
O82 S5 1.477555 1_555
O83 S6 1.476740 1_555
O84 Si8 1.674899 1_555
O84 Ta1 2.019994 1_545
O85 S4 1.497901 1_555
O85 Ta0 2.211585 1_545
O86 Si9 1.680428 1_555
O86 Ta0 2.007638 1_445
O87 Si10 1.696676 1_555
O87 Ta1 2.045536 1_545
O88 Si11 1.718892 1_555
O88 Ta1 1.924684 1_555
O89 Si12 1.688367 1_555
O89 Ta0 1.936870 1_555
O90 Si13 1.678588 1_555
O90 Ta3 2.015841 1_565
O91 Si14 1.677408 1_555
O91 Ta2 2.017957 1_565
O92 Si15 1.684022 1_555
O92 Ta3 1.939866 1_555
O93 Si16 1.682961 1_555
O93 Ta2 1.943348 1_555
O94 Si17 1.678707 1_555
O94 Ta2 2.046452 1_455
O95 Si18 1.677783 1_555
O95 Ta3 2.047178 1_555
O96 Si6 1.618708 1_545
O97 Si7 1.621098 1_545
O98 S2 1.468681 1_555
O99 S3 1.477979 1_555
O100 Si5 1.590049 1_555
O101 Si4 1.590208 1_555
O102 Si0 1.619411 1_555
O103 Si1 1.621910 1_555
O104 Si3 1.590141 1_555
O105 Si2 1.591159 1_555
O106 S0 1.471461 1_545
O107 S1 1.474326 1_545
O108 S5 1.502417 1_555
O108 Ta4 2.262866 1_555
O109 S6 1.505052 1_555
O109 Ta5 2.259316 1_555
O110 Si20 1.694553 1_555
O110 Ta4 2.019605 1_555
O111 Si19 1.693761 1_655
O111 Ta5 2.024118 1_555
O112 Si21 1.656849 1_545
O112 Ta4 1.976559 1_555
O113 Si22 1.660149 1_545
O113 Ta5 1.975552 1_555
O114 S7 1.488815 1_545
O114 Ta6 2.242013 1_555
O115 S8 1.502939 1_545
O115 Ta7 2.179982 1_555
O116 Si23 1.675262 1_555
O116 Ta6 2.031992 1_555
O117 Si24 1.719872 1_555
O117 Ta7 1.920993 1_555
O118 Si26 1.681878 1_555
O118 Ta6 2.022396 1_555
O119 Si25 1.699592 1_655
O119 Ta7 1.983812 1_555
O120 Si17 1.621148 1_555
O121 Si18 1.620706 1_555
O122 Si14 1.621871 1_455
O123 Si13 1.622315 1_555
O124 Si15 1.609399 1_565
O125 Si16 1.609546 1_565
O126 Si9 1.643418 1_565
O127 Si10 1.603906 1_565
O128 Si11 1.615984 1_555
O129 Si12 1.589435 1_555
O130 S4 1.485608 1_455
O131 Si8 1.611742 1_555
O132 S0 1.494139 1_555
O132 Ta8 2.247424 1_555
O133 S1 1.497417 1_555
O133 Ta9 2.214140 1_555
O134 Si0 1.696574 1_555
O134 Ta8 1.996228 1_555
O135 Si1 1.696535 1_555
O135 Ta9 1.998689 1_555
O136 Si2 1.723187 1_455
O136 Ta8 1.923774 1_555
O137 Si3 1.729881 1_555
O137 Ta9 1.918530 1_555
O138 S2 1.498869 1_555
O138 Ta10 2.241719 1_555
O139 S3 1.496984 1_555
O139 Ta11 2.214285 1_555
O140 Si4 1.711974 1_455
O140 Ta10 1.941031 1_555
O141 Si5 1.731017 1_555
O141 Ta11 1.920386 1_555
O142 Si6 1.707835 1_555
O142 Ta10 1.981529 1_555
O143 Si7 1.695768 1_555
O143 Ta11 1.991156 1_555
