# generated using pymatgen
data_Na14La3Ta5(SiO4)12
_symmetry_space_group_name_H-M   'P 1'
_cell_length_a   18.72736087
_cell_length_b   9.34917773
_cell_length_c   22.45180881
_cell_angle_alpha   90.02614115
_cell_angle_beta   89.94409803
_cell_angle_gamma   119.92045067
_symmetry_Int_Tables_number   1
_chemical_formula_structural   Na14La3Ta5(SiO4)12
_chemical_formula_sum   'Na42 La9 Ta15 Si36 O144'
_cell_volume   3407.05641198
_cell_formula_units_Z   3
loop_
 _symmetry_equiv_pos_site_id
 _symmetry_equiv_pos_as_xyz
  1  'x, y, z'
loop_
 _atom_site_type_symbol
 _atom_site_label
 _atom_site_symmetry_multiplicity
 _atom_site_fract_x
 _atom_site_fract_y
 _atom_site_fract_z
 _atom_site_occupancy
  Na  Na0  1  0.31779472  0.01104918  0.24685536  1
  Na  Na1  1  0.82027533  0.00921122  0.24436043  1
  Na  Na2  1  0.18348656  0.35873945  0.24479926  1
  Na  Na3  1  0.68809120  0.36326860  0.24706394  1
  Na  Na4  1  0.99610128  0.62310022  0.24782139  1
  Na  Na5  1  0.49269989  0.63198506  0.24454521  1
  Na  Na6  1  0.31632733  0.62459296  0.74747996  1
  Na  Na7  1  0.81603646  0.62420300  0.74800466  1
  Na  Na8  1  0.99552217  0.36731745  0.74843557  1
  Na  Na9  1  0.49499573  0.36679686  0.74794433  1
  Na  Na10  1  0.18893542  0.00843772  0.74789753  1
  Na  Na11  1  0.68826809  0.00831094  0.74780861  1
  Na  Na12  1  0.15609979  0.34732086  0.57863174  1
  Na  Na13  1  0.65401250  0.34619705  0.57831717  1
  Na  Na14  1  0.01816243  0.69292502  0.57892874  1
  Na  Na15  1  0.51806232  0.68945200  0.57789378  1
  Na  Na16  1  0.32478890  0.95924725  0.57652273  1
  Na  Na17  1  0.82940556  0.96602411  0.58001294  1
  Na  Na18  1  0.15564464  0.96265000  0.07777549  1
  Na  Na19  1  0.65588805  0.96320906  0.07779864  1
  Na  Na20  1  0.32622480  0.68977725  0.07726236  1
  Na  Na21  1  0.82670391  0.69262360  0.07741988  1
  Na  Na22  1  0.01788528  0.34515723  0.07741843  1
  Na  Na23  1  0.51806009  0.34517574  0.07735611  1
  Na  Na24  1  0.34736591  0.02497123  0.91788080  1
  Na  Na25  1  0.84732686  0.02525593  0.91813176  1
  Na  Na26  1  0.48597861  0.29681697  0.41328811  1
  Na  Na27  1  0.66206435  0.02532176  0.41200695  1
  Na  Na28  1  0.34964190  0.67574038  0.41321518  1
  Na  Na29  1  0.84830196  0.67378653  0.41569920  1
  Na  Na30  1  0.00810576  0.01505345  0.49746935  1
  Na  Na31  1  0.49925461  0.99936157  0.49393767  1
  Na  Na32  1  0.00706891  0.99987424  0.99803760  1
  Na  Na33  1  0.50725627  0.00029954  0.99858869  1
  Na  Na34  1  0.33281585  0.34107707  0.83643789  1
  Na  Na35  1  0.83271338  0.34121782  0.83694939  1
  Na  Na36  1  0.32884519  0.32792801  0.33176401  1
  Na  Na37  1  0.83749087  0.33004182  0.33251806  1
  Na  Na38  1  0.16743054  0.66733508  0.15778999  1
  Na  Na39  1  0.66632448  0.66672164  0.15817989  1
  Na  Na40  1  0.16760193  0.66797403  0.65826402  1
  Na  Na41  1  0.66617268  0.66586330  0.66041767  1
  La  La0  1  0.49875534  0.99899380  0.34165992  1
  La  La1  1  0.33273171  0.33255939  0.68422660  1
  La  La2  1  0.83351767  0.33309247  0.68606149  1
  La  La3  1  0.33003918  0.32854008  0.17590123  1
  La  La4  1  0.83657606  0.33899491  0.17933944  1
  La  La5  1  0.16412141  0.66354589  0.00014960  1
  La  La6  1  0.66418188  0.66355844  0.00162402  1
  La  La7  1  0.15908441  0.65626046  0.50317641  1
  La  La8  1  0.67192787  0.67578826  0.50728718  1
  Ta  Ta0  1  0.00292392  0.00430950  0.35236202  1
  Ta  Ta1  1  0.00167621  0.00048494  0.85319458  1
  Ta  Ta2  1  0.50160684  0.00007797  0.85304310  1
  Ta  Ta3  1  0.00054904  0.00006779  0.64551940  1
  Ta  Ta4  1  0.49958498  -0.00003981  0.64454025  1
  Ta  Ta5  1  0.00007527  -0.00007087  0.14456816  1
  Ta  Ta6  1  0.49960750  0.99978111  0.14791726  1
  Ta  Ta7  1  0.33368462  0.33690989  0.98026413  1
  Ta  Ta8  1  0.83356617  0.33649933  0.98041638  1
  Ta  Ta9  1  0.33027456  0.32790831  0.48083438  1
  Ta  Ta10  1  0.83666344  0.33642159  0.48082910  1
  Ta  Ta11  1  0.16629653  0.66799233  0.31654313  1
  Ta  Ta12  1  0.66674361  0.66616594  0.31504499  1
  Ta  Ta13  1  0.16648080  0.66511633  0.81689430  1
  Ta  Ta14  1  0.66622513  0.66490681  0.81699585  1
  Si  Si0  1  0.13942638  0.98211917  0.25038203  1
  Si  Si1  1  0.64888797  0.98711293  0.25136061  1
  Si  Si2  1  0.34281055  0.70157217  0.25090954  1
  Si  Si3  1  0.85387283  0.72064419  0.25211309  1
  Si  Si4  1  0.00782691  0.29498370  0.25090002  1
  Si  Si5  1  0.50669421  0.31206117  0.25116353  1
  Si  Si6  1  0.13895595  0.29585675  0.75119799  1
  Si  Si7  1  0.63847220  0.29529229  0.75095928  1
  Si  Si8  1  0.00870914  0.72186289  0.75140934  1
  Si  Si9  1  0.50835059  0.72176132  0.75075164  1
  Si  Si10  1  0.35242704  0.98317234  0.75194331  1
  Si  Si11  1  0.85224267  0.98221324  0.75201631  1
  Si  Si12  1  0.48151022  0.32541646  0.58425665  1
  Si  Si13  1  0.98181319  0.32403589  0.58573645  1
  Si  Si14  1  0.18014316  0.03401553  0.58540176  1
  Si  Si15  1  0.68110349  0.04003170  0.58422303  1
  Si  Si16  1  0.33636023  0.63786751  0.58357707  1
  Si  Si17  1  0.83876433  0.64019714  0.58540439  1
  Si  Si18  1  0.48244497  0.64035739  0.08382169  1
  Si  Si19  1  0.98392095  0.64030653  0.08403368  1
  Si  Si20  1  0.33649441  0.03094561  0.08352998  1
  Si  Si21  1  0.83713075  0.03405670  0.08224769  1
  Si  Si22  1  0.17878959  0.32466396  0.08245481  1
  Si  Si23  1  0.68091954  0.32572799  0.08480095  1
  Si  Si24  1  0.32089414  0.66402117  0.91557321  1
  Si  Si25  1  0.82074848  0.66440077  0.91576368  1
  Si  Si26  1  0.01061998  0.35868277  0.91624495  1
  Si  Si27  1  0.51090771  0.35850947  0.91643877  1
  Si  Si28  1  0.16853177  0.97937335  0.91672068  1
  Si  Si29  1  0.66847752  0.97908382  0.91677288  1
  Si  Si30  1  0.31442447  0.97473571  0.41898645  1
  Si  Si31  1  0.82215037  0.97932331  0.41518289  1
  Si  Si32  1  0.16826426  0.35924482  0.41671610  1
  Si  Si33  1  0.67243734  0.36608598  0.41853878  1
  Si  Si34  1  0.01192776  0.66561840  0.41647978  1
  Si  Si35  1  0.51062409  0.65373974  0.41830139  1
  O  O0  1  0.08310933  0.98725012  0.30391042  1
  O  O1  1  0.61928165  0.01771093  0.31446293  1
  O  O2  1  0.38822139  0.75913613  0.31388138  1
  O  O3  1  0.91025733  0.82671891  0.30731767  1
  O  O4  1  0.49120324  0.22301352  0.31443416  1
  O  O5  1  0.00427563  0.17460991  0.30358418  1
  O  O6  1  0.08130052  0.17919722  0.80482566  1
  O  O7  1  0.58110710  0.17905326  0.80482733  1
  O  O8  1  0.50531114  0.83547608  0.80418354  1
  O  O9  1  0.00544068  0.83584350  0.80445906  1
  O  O10  1  0.40892542  0.98931651  0.80758807  1
  O  O11  1  0.90896920  0.98848305  0.80738222  1
  O  O12  1  0.40173769  0.96661145  0.69174260  1
  O  O13  1  0.90159395  0.96659918  0.69158465  1
  O  O14  1  0.08276350  0.19927083  0.69034692  1
  O  O15  1  0.58254066  0.19904243  0.69010654  1
  O  O16  1  0.01737775  0.83462344  0.69039047  1
  O  O17  1  0.51740270  0.83485913  0.68981106  1
  O  O18  1  0.40301595  0.83683025  0.19638257  1
  O  O19  1  0.90225635  0.83559698  0.19148255  1
  O  O20  1  0.01670213  0.19880232  0.18982293  1
  O  O21  1  0.51483390  0.19369280  0.19631332  1
  O  O22  1  0.08320245  0.96796031  0.18952136  1
  O  O23  1  0.58132778  0.96885664  0.19671657  1
  O  O24  1  0.45044910  0.35936037  0.64707345  1
  O  O25  1  0.95001146  0.35475162  0.64860962  1
  O  O26  1  0.22735067  0.09508755  0.64849521  1
  O  O27  1  0.72919558  0.10343040  0.64672800  1
  O  O28  1  0.32015938  0.54210077  0.64643087  1
  O  O29  1  0.82294681  0.54329338  0.64772474  1
  O  O30  1  0.45116414  0.54727144  0.14652446  1
  O  O31  1  0.95806080  0.55171607  0.14835552  1
  O  O32  1  0.31730813  0.08428243  0.14734698  1
  O  O33  1  0.82286879  0.10061645  0.14457721  1
  O  O34  1  0.22263684  0.35766376  0.14640534  1
  O  O35  1  0.72801313  0.36317832  0.14805256  1
  O  O36  1  0.23976251  0.30686529  0.03040478  1
  O  O37  1  0.73971148  0.30611216  0.03136971  1
  O  O38  1  0.41479488  0.52168049  0.03017329  1
  O  O39  1  0.91452191  0.51823939  0.03184680  1
  O  O40  1  0.34669416  0.16612297  0.02919481  1
  O  O41  1  0.84663551  0.16439167  0.02654318  1
  O  O42  1  0.23908072  0.17188334  0.53216437  1
  O  O43  1  0.73812237  0.16846549  0.52811666  1
  O  O44  1  0.34674625  0.52639647  0.52811634  1
  O  O45  1  0.84643403  0.52627677  0.52932890  1
  O  O46  1  0.41508405  0.30566749  0.52922164  1
  O  O47  1  0.91566173  0.31026635  0.53110031  1
  O  O48  1  0.29738563  0.72376691  0.97574985  1
  O  O49  1  0.79690792  0.72412399  0.97589019  1
  O  O50  1  0.05552514  0.40480356  0.97945840  1
  O  O51  1  0.55607696  0.40552881  0.97960749  1
  O  O52  1  0.14759359  0.88891530  0.97989367  1
  O  O53  1  0.64768966  0.88803871  0.97988457  1
  O  O54  1  0.28259519  0.87379514  0.47998403  1
  O  O55  1  0.80171554  0.88004860  0.47710606  1
  O  O56  1  0.14528950  0.40124526  0.48047929  1
  O  O57  1  0.65866499  0.43214450  0.48078103  1
  O  O58  1  0.05462731  0.70850824  0.48057483  1
  O  O59  1  0.55948684  0.68752207  0.47990214  1
  O  O60  1  0.07075657  0.64447447  0.36396074  1
  O  O61  1  0.57120172  0.63937491  0.36287708  1
  O  O62  1  0.24974715  0.85729571  0.36255699  1
  O  O63  1  0.74959598  0.86150170  0.36350514  1
  O  O64  1  0.17997117  0.50349088  0.36493407  1
  O  O65  1  0.68162241  0.50220785  0.36332038  1
  O  O66  1  0.07132182  0.49815605  0.86359360  1
  O  O67  1  0.57127322  0.49804496  0.86369522  1
  O  O68  1  0.18075831  0.85801856  0.86475878  1
  O  O69  1  0.68073895  0.85812239  0.86463944  1
  O  O70  1  0.25111319  0.64182291  0.86215827  1
  O  O71  1  0.75108692  0.64200230  0.86215811  1
  O  O72  1  0.99136395  0.81431313  0.40260526  1
  O  O73  1  0.49301706  0.80493993  0.41231755  1
  O  O74  1  0.40782925  0.01070354  0.41267971  1
  O  O75  1  0.91381663  0.00873239  0.39987881  1
  O  O76  1  0.09338079  0.17346603  0.40066445  1
  O  O77  1  0.59625698  0.18103232  0.41281482  1
  O  O78  1  0.99142664  0.16896613  0.90240737  1
  O  O79  1  0.49175800  0.16878769  0.90272410  1
  O  O80  1  0.09190220  0.01116767  0.90125134  1
  O  O81  1  0.59168277  0.01054893  0.90140150  1
  O  O82  1  0.41314159  0.82019749  0.90074654  1
  O  O83  1  0.91300981  0.82062651  0.90099387  1
  O  O84  1  0.47825539  0.14269720  0.58724029  1
  O  O85  1  0.97837493  0.14179481  0.58706250  1
  O  O86  1  0.09279728  0.04254821  0.58746078  1
  O  O87  1  0.59273946  0.04417351  0.58654831  1
  O  O88  1  0.42740294  0.81496035  0.58718539  1
  O  O89  1  0.92967645  0.81559966  0.58736547  1
  O  O90  1  0.48016019  0.81755706  0.08801441  1
  O  O91  1  0.97915534  0.81435913  0.08623884  1
  O  O92  1  0.42849478  0.03959244  0.08875952  1
  O  O93  1  0.92768904  0.03753481  0.08619575  1
  O  O94  1  0.09119776  0.14216091  0.08513604  1
  O  O95  1  0.59276476  0.14381463  0.08938433  1
  O  O96  1  0.34212247  0.14468487  0.75552981  1
  O  O97  1  0.84152712  0.14314348  0.75611884  1
  O  O98  1  0.22929000  0.31496116  0.75555945  1
  O  O99  1  0.72885644  0.31453737  0.75588935  1
  O  O100  1  0.42759224  0.54083319  0.75499604  1
  O  O101  1  0.92804097  0.54107616  0.75599290  1
  O  O102  1  0.32530265  0.51573926  0.24376171  1
  O  O103  1  0.84290149  0.53741802  0.25508811  1
  O  O104  1  0.43088432  0.34632596  0.24424949  1
  O  O105  1  0.92738790  0.31581058  0.25421805  1
  O  O106  1  0.23084966  0.14153054  0.25358733  1
  O  O107  1  0.74146415  0.13981457  0.24487335  1
  O  O108  1  0.32207730  0.49038901  0.92318455  1
  O  O109  1  0.82213933  0.49112759  0.92359586  1
  O  O110  1  0.42033377  0.34874373  0.92080450  1
  O  O111  1  0.92024539  0.34987798  0.92050859  1
  O  O112  1  0.25836417  0.15243939  0.92035404  1
  O  O113  1  0.75796310  0.15269999  0.92037002  1
  O  O114  1  0.31510202  0.15260983  0.42290777  1
  O  O115  1  0.81775949  0.15113530  0.42206128  1
  O  O116  1  0.25961850  0.37062735  0.42104877  1
  O  O117  1  0.76218269  0.36929366  0.42063853  1
  O  O118  1  0.42359138  0.47339939  0.42069253  1
  O  O119  1  0.92198080  0.49049773  0.42162135  1
  O  O120  1  0.16342752  0.47822581  0.07341318  1
  O  O121  1  0.66458365  0.47830009  0.07534393  1
  O  O122  1  0.07635076  0.67366734  0.07466398  1
  O  O123  1  0.57492380  0.67192860  0.07591957  1
  O  O124  1  0.26094722  0.84558333  0.07418368  1
  O  O125  1  0.76009986  0.84866347  0.07587938  1
  O  O126  1  0.16263738  0.84778246  0.57797186  1
  O  O127  1  0.66374513  0.85332779  0.57884466  1
  O  O128  1  0.25973339  0.66953214  0.57623707  1
  O  O129  1  0.76377957  0.67812430  0.58109493  1
  O  O130  1  0.07461927  0.47607148  0.57970467  1
  O  O131  1  0.57482207  0.47597614  0.57756170  1
  O  O132  1  0.14314767  0.80839148  0.25719982  1
  O  O133  1  0.64758970  0.80674139  0.25405681  1
  O  O134  1  0.25506815  0.70849490  0.25378555  1
  O  O135  1  0.76242885  0.70963174  0.25837021  1
  O  O136  1  0.09311184  0.47719551  0.25854253  1
  O  O137  1  0.59864102  0.48633942  0.25416214  1
  O  O138  1  0.14542136  0.48032645  0.75690531  1
  O  O139  1  0.64522436  0.48016874  0.75682001  1
  O  O140  1  0.09433961  0.70974508  0.75820987  1
  O  O141  1  0.59411430  0.70944668  0.75804432  1
  O  O142  1  0.25999939  0.81187379  0.75722110  1
  O  O143  1  0.75979741  0.81106929  0.75704249  1
loop_
_geom_bond_atom_site_label_1
_geom_bond_atom_site_label_2
_geom_bond_distance
_geom_bond_site_symmetry_2
Na0 O32 2.338357 1_555
Na0 O134 2.467902 1_545
Na0 O106 2.478519 1_555
Na0 O104 2.773369 1_555
Na0 O132 2.856227 1_545
Na0 O62 2.933923 1_545
Na0 O18 3.012030 1_545
Na0 O4 3.219036 1_555
Na1 O107 2.338201 1_555
Na1 O33 2.389932 1_555
Na1 O135 2.467870 1_545
Na1 O105 2.559982 1_555
Na1 O133 2.825080 1_545
Na1 O19 2.980247 1_545
Na1 O63 2.997956 1_545
Na1 O5 3.274824 1_655
Na2 O102 2.306409 1_555
Na2 O34 2.328529 1_555
Na2 O136 2.460631 1_555
Na2 O106 2.597521 1_555
Na2 O134 2.856077 1_555
Na2 O20 2.976895 1_555
Na2 O64 3.032507 1_555
Na3 O35 2.344781 1_555
Na3 O137 2.465284 1_555
Na3 O103 2.525949 1_555
Na3 O107 2.729249 1_555
Na3 O135 2.826878 1_555
Na3 O65 2.944187 1_555
Na3 O21 3.035368 1_555
Na3 O1 3.199258 1_555
Na4 O31 2.338266 1_555
Na4 O132 2.422904 1_655
Na4 O105 2.498422 1_555
Na4 O103 2.570235 1_555
Na4 O136 2.773566 1_655
Na4 O60 2.919211 1_655
Na4 O22 3.085843 1_655
Na5 O104 2.321303 1_555
Na5 O30 2.337256 1_555
Na5 O133 2.530220 1_555
Na5 O102 2.758688 1_555
Na5 O137 2.921156 1_555
Na5 O23 2.934608 1_555
Na5 O61 3.021686 1_555
Na5 O2 3.158725 1_555
Na6 O28 2.408404 1_555
Na6 O142 2.463347 1_555
Na6 O98 2.522381 1_555
Na6 O100 2.571399 1_555
Na6 O138 2.792909 1_555
Na6 O70 2.887300 1_555
Na6 O12 3.040807 1_555
Na7 O29 2.398662 1_555
Na7 O143 2.457119 1_555
Na7 O99 2.522530 1_555
Na7 O101 2.581270 1_555
Na7 O139 2.790518 1_555
Na7 O71 2.875992 1_555
Na7 O13 3.049931 1_555
Na8 O25 2.380570 1_555
Na8 O138 2.464743 1_655
Na8 O101 2.512407 1_555
Na8 O97 2.590168 1_555
Na8 O140 2.794961 1_655
Na8 O66 2.910024 1_655
Na8 O14 3.064838 1_655
Na9 O24 2.403225 1_555
Na9 O139 2.470705 1_555
Na9 O100 2.512804 1_555
Na9 O96 2.570223 1_555
Na9 O141 2.797754 1_555
Na9 O67 2.925029 1_555
Na9 O15 3.064811 1_555
Na10 O26 2.360446 1_555
Na10 O140 2.460649 1_545
Na10 O96 2.497433 1_555
Na10 O98 2.579240 1_555
Na10 O142 2.762761 1_545
Na10 O68 2.944980 1_545
Na10 O16 3.070471 1_545
Na11 O27 2.418088 1_555
Na11 O141 2.460477 1_545
Na11 O97 2.500612 1_555
Na11 O99 2.576065 1_555
Na11 O143 2.775437 1_545
Na11 O69 2.945689 1_545
Na11 O17 3.064975 1_545
Na12 O56 2.292411 1_555
Na12 O130 2.368579 1_555
Na12 O86 2.488753 1_555
Na12 O128 2.647965 1_555
Na12 O14 2.862380 1_555
Na12 O85 2.902553 1_455
Na12 O42 2.954938 1_555
Na12 O28 3.081893 1_555
Na13 O57 2.319516 1_555
Na13 O131 2.338153 1_555
Na13 O87 2.468144 1_555
Na13 O129 2.737874 1_555
Na13 O15 2.853652 1_555
Na13 O84 2.871504 1_555
Na13 O43 3.019668 1_555
Na13 O29 3.166095 1_555
Na14 O58 2.293886 1_555
Na14 O126 2.347161 1_555
Na14 O89 2.447949 1_455
Na14 O130 2.714218 1_555
Na14 O16 2.834454 1_555
Na14 O86 2.849014 1_565
Na14 O45 3.002859 1_455
Na14 O25 3.169795 1_455
Na15 O59 2.335196 1_555
Na15 O127 2.370937 1_555
Na15 O88 2.507878 1_555
Na15 O131 2.688792 1_555
Na15 O17 2.859316 1_555
Na15 O87 2.892221 1_565
Na15 O44 2.998743 1_555
Na15 O24 3.105152 1_555
Na16 O54 2.309232 1_555
Na16 O128 2.351350 1_555
Na16 O84 2.518546 1_565
Na16 O126 2.674197 1_555
Na16 O88 2.856073 1_555
Na16 O12 2.946441 1_555
Na16 O46 3.002144 1_565
Na16 O26 3.139753 1_565
Na17 O129 2.335773 1_555
Na17 O55 2.416192 1_555
Na17 O85 2.436322 1_565
Na17 O127 2.734017 1_555
Na17 O13 2.846394 1_555
Na17 O89 2.857715 1_555
Na17 O47 2.997797 1_565
Na17 O27 3.132666 1_565
Na18 O52 2.285405 1_554
Na18 O122 2.346728 1_555
Na18 O94 2.514085 1_565
Na18 O124 2.691857 1_555
Na18 O22 2.863209 1_555
Na18 O91 2.882735 1_455
Na18 O36 2.985233 1_565
Na18 O32 3.077667 1_565
Na19 O53 2.289501 1_554
Na19 O123 2.365934 1_555
Na19 O95 2.511259 1_565
Na19 O125 2.653724 1_555
Na19 O90 2.874946 1_555
Na19 O37 2.967802 1_565
Na19 O23 3.024421 1_555
Na19 O33 3.110764 1_565
Na20 O124 2.323314 1_555
Na20 O48 2.400296 1_554
Na20 O90 2.522195 1_555
Na20 O120 2.683127 1_555
Na20 O92 2.860481 1_565
Na20 O38 2.989034 1_555
Na20 O18 3.023706 1_555
Na20 O34 3.131091 1_555
Na21 O125 2.345340 1_555
Na21 O49 2.400284 1_554
Na21 O91 2.498997 1_555
Na21 O121 2.676988 1_555
Na21 O93 2.816046 1_565
Na21 O19 2.909323 1_555
Na21 O39 3.013253 1_555
Na21 O35 3.120461 1_555
Na22 O50 2.291522 1_554
Na22 O120 2.366797 1_555
Na22 O93 2.513376 1_455
Na22 O122 2.698309 1_555
Na22 O94 2.849033 1_555
Na22 O20 2.866097 1_555
Na22 O41 3.007412 1_455
Na22 O31 3.110181 1_455
Na23 O51 2.288887 1_554
Na23 O121 2.381900 1_555
Na23 O92 2.502092 1_555
Na23 O123 2.687377 1_555
Na23 O95 2.864059 1_555
Na23 O40 2.986044 1_555
Na23 O21 3.010043 1_555
Na23 O30 3.147373 1_555
Na24 O79 2.367968 1_555
Na24 O112 2.486505 1_555
Na24 O110 2.628296 1_555
Na24 O82 2.771551 1_545
Na24 O48 2.804574 1_545
Na24 O10 2.819421 1_545
Na24 O40 2.828628 1_556
Na24 O68 2.956542 1_545
Na25 O78 2.365129 1_555
Na25 O113 2.492381 1_555
Na25 O111 2.635161 1_555
Na25 O41 2.762359 1_556
Na25 O83 2.768961 1_545
Na25 O49 2.801492 1_545
Na25 O11 2.832524 1_545
Na25 O69 2.959624 1_545
Na26 O74 2.322051 1_555
Na26 O4 2.340334 1_555
Na26 O118 2.457988 1_555
Na26 O77 2.768971 1_555
Na26 O114 2.792790 1_555
Na26 O46 2.940643 1_555
Na26 O61 2.997628 1_555
Na26 O57 3.206482 1_555
Na27 O1 2.321568 1_555
Na27 O77 2.329826 1_555
Na27 O115 2.552607 1_555
Na27 O73 2.785761 1_545
Na27 O117 2.807097 1_555
Na27 O43 2.952633 1_555
Na27 O63 2.952667 1_545
Na27 O59 3.151876 1_545
Na28 O73 2.330948 1_555
Na28 O2 2.353780 1_555
Na28 O116 2.492507 1_555
Na28 O74 2.755065 1_565
Na28 O118 2.852881 1_555
Na28 O44 2.921467 1_555
Na28 O64 2.960619 1_555
Na28 O54 3.092822 1_555
Na29 O72 2.340481 1_555
Na29 O117 2.477333 1_555
Na29 O119 2.686503 1_555
Na29 O75 2.757706 1_565
Na29 O3 2.766674 1_555
Na29 O55 2.837989 1_555
Na29 O45 2.892511 1_555
Na29 O65 2.951274 1_555
Na30 O86 2.502596 1_555
Na30 O85 2.532607 1_455
Na30 O89 2.640747 1_445
Na30 O76 2.665394 1_555
Na30 O72 2.750912 1_445
Na30 O75 2.797441 1_455
Na30 O56 3.244650 1_555
Na30 O58 3.406729 1_545
Na30 O55 3.446390 1_445
Na31 O77 2.533874 1_565
Na31 O74 2.541358 1_565
Na31 O73 2.541909 1_555
Na31 O87 2.615062 1_565
Na31 O88 2.617145 1_555
Na31 O84 2.619206 1_565
Na32 O94 2.447186 1_566
Na32 O91 2.509898 1_456
Na32 O93 2.601408 1_466
Na32 O80 2.661448 1_565
Na32 O78 2.767885 1_465
Na32 O83 2.778078 1_455
Na32 O52 3.299799 1_555
Na33 O90 2.518700 1_546
Na33 O95 2.525991 1_556
Na33 O92 2.634994 1_556
Na33 O81 2.666942 1_555
Na33 O79 2.767404 1_555
Na33 O82 2.794798 1_545
Na33 O53 3.308409 1_545
Na33 O51 3.451948 1_555
Na34 O108 2.461531 1_555
Na34 O112 2.479699 1_555
Na34 O110 2.483558 1_555
Na34 O98 2.578766 1_555
Na34 O100 2.582936 1_555
Na34 O96 2.648968 1_555
Na35 O109 2.462032 1_555
Na35 O111 2.467127 1_555
Na35 O113 2.471942 1_555
Na35 O101 2.578992 1_555
Na35 O99 2.584535 1_555
Na35 O97 2.655423 1_555
Na36 O106 2.509709 1_555
Na36 O116 2.523695 1_555
Na36 O114 2.553730 1_555
Na36 O118 2.565445 1_555
Na36 O102 2.666642 1_555
Na36 O104 2.684580 1_555
Na37 O105 2.481923 1_555
Na37 O115 2.522104 1_555
Na37 O119 2.528168 1_555
Na37 O117 2.558945 1_555
Na37 O103 2.568684 1_555
Na37 O107 2.661247 1_555
Na38 O124 2.540225 1_555
Na38 O122 2.550117 1_555
Na38 O120 2.566183 1_555
Na38 O134 2.619732 1_555
Na38 O132 2.742453 1_555
Na38 O136 2.782710 1_555
Na39 O125 2.531474 1_555
Na39 O123 2.536268 1_555
Na39 O121 2.550099 1_555
Na39 O133 2.631470 1_555
Na39 O137 2.638203 1_555
Na39 O135 2.783340 1_555
Na40 O126 2.498672 1_555
Na40 O130 2.499711 1_555
Na40 O128 2.517456 1_555
Na40 O142 2.724479 1_555
Na40 O138 2.725775 1_555
Na40 O140 2.756448 1_555
Na41 O129 2.512166 1_555
Na41 O127 2.551595 1_555
Na41 O131 2.551930 1_555
Na41 O139 2.678601 1_555
Na41 O143 2.693265 1_555
Na41 O141 2.708032 1_555
La0 O2 2.252347 1_555
La0 O4 2.253220 1_565
La0 O1 2.258659 1_565
La0 O73 2.372228 1_555
La0 O74 2.373720 1_565
La0 O77 2.384504 1_565
La1 O24 2.250361 1_555
La1 O28 2.252867 1_555
La1 O26 2.257862 1_555
La1 O96 2.447495 1_555
La1 O98 2.453767 1_555
La1 O100 2.454366 1_555
La2 O27 2.241402 1_555
La2 O29 2.243225 1_555
La2 O25 2.250199 1_555
La2 O97 2.432900 1_555
La2 O101 2.438961 1_555
La2 O99 2.446372 1_555
La3 O34 2.259951 1_555
La3 O30 2.265630 1_555
La3 O32 2.266832 1_555
La3 O102 2.354660 1_555
La3 O104 2.375138 1_555
La3 O106 2.511201 1_555
La4 O33 2.251659 1_555
La4 O31 2.258226 1_555
La4 O35 2.267054 1_555
La4 O107 2.343864 1_555
La4 O103 2.475087 1_555
La4 O105 2.477741 1_555
La5 O50 2.301425 1_554
La5 O52 2.322479 1_554
La5 O48 2.332687 1_554
La5 O122 2.378922 1_555
La5 O120 2.384918 1_555
La5 O124 2.423238 1_555
La6 O51 2.300274 1_554
La6 O53 2.320788 1_554
La6 O49 2.329406 1_554
La6 O123 2.389069 1_555
La6 O121 2.398973 1_555
La6 O125 2.429625 1_555
La7 O54 2.250163 1_555
La7 O58 2.297448 1_555
La7 O56 2.322810 1_555
La7 O130 2.373029 1_555
La7 O126 2.430890 1_555
La7 O128 2.455905 1_555
La8 O57 2.244810 1_555
La8 O59 2.248816 1_555
La8 O55 2.319753 1_555
La8 O127 2.368662 1_555
La8 O129 2.381900 1_555
La8 O131 2.427819 1_555
O0 Si0 1.614596 1_555
O0 Ta0 1.923374 1_565
O1 Si1 1.597743 1_545
O2 Si2 1.599016 1_555
O3 Si3 1.609806 1_555
O3 Ta0 1.979539 1_665
O4 Si5 1.598288 1_555
O5 Si4 1.611360 1_555
O5 Ta0 1.922583 1_555
O6 Si6 1.621406 1_555
O6 Ta1 1.925496 1_555
O7 Si7 1.622295 1_555
O7 Ta2 1.923957 1_555
O8 Si9 1.622258 1_555
O8 Ta2 1.918643 1_565
O9 Si8 1.619167 1_555
O9 Ta1 1.917848 1_565
O10 Si10 1.620339 1_555
O10 Ta2 1.973164 1_565
O11 Si11 1.617899 1_555
O11 Ta1 1.973279 1_665
O12 Si10 1.686304 1_555
O12 Ta4 2.001168 1_565
O13 Si11 1.687709 1_555
O13 Ta3 2.004968 1_665
O14 Si6 1.686142 1_555
O14 Ta3 1.998190 1_555
O15 Si7 1.683724 1_555
O15 Ta4 2.010265 1_555
O16 Si8 1.686636 1_555
O16 Ta3 1.998772 1_565
O17 Si9 1.685487 1_555
O17 Ta4 2.010700 1_565
O18 Si2 1.716228 1_555
O18 Ta6 2.006391 1_555
O19 Si3 1.690130 1_555
O19 Ta5 2.003932 1_665
O20 Si4 1.692390 1_555
O20 Ta5 2.001914 1_555
O21 Si5 1.712057 1_555
O21 Ta6 2.007915 1_545
O22 Si0 1.690240 1_555
O22 Ta5 1.999741 1_565
O23 Si1 1.709535 1_555
O23 Ta6 2.017698 1_555
O24 Si12 1.615646 1_555
O25 Si13 1.611963 1_555
O26 Si14 1.616286 1_555
O27 Si15 1.612769 1_555
O28 Si16 1.616924 1_555
O29 Si17 1.612119 1_555
O30 Si18 1.604166 1_555
O31 Si19 1.614205 1_555
O32 Si20 1.614862 1_555
O33 Si21 1.606610 1_555
O34 Si22 1.606289 1_555
O35 Si23 1.615880 1_555
O36 Si22 1.698227 1_555
O36 Ta7 1.985833 1_554
O37 Si23 1.698127 1_555
O37 Ta8 1.994243 1_554
O38 Si18 1.698944 1_555
O38 Ta7 1.982658 1_554
O39 Si19 1.698966 1_555
O39 Ta8 1.987633 1_554
O40 Si20 1.697649 1_555
O40 Ta7 2.050841 1_554
O41 Si21 1.692701 1_555
O41 Ta8 2.028896 1_554
O42 Si14 1.699386 1_555
O42 Ta9 1.971064 1_555
O43 Si15 1.699561 1_555
O43 Ta10 2.026163 1_555
O44 Si16 1.695583 1_555
O44 Ta9 2.023238 1_555
O45 Si17 1.700321 1_555
O45 Ta10 2.011073 1_555
O46 Si12 1.697659 1_555
O46 Ta9 2.019667 1_555
O47 Si13 1.702871 1_555
O47 Ta10 1.971504 1_555
O48 Si24 1.604587 1_555
O49 Si25 1.606330 1_555
O50 Si26 1.596073 1_555
O51 Si27 1.597199 1_555
O52 Si28 1.596834 1_555
O53 Si29 1.597920 1_555
O54 Si30 1.599957 1_555
O55 Si31 1.608289 1_555
O56 Si32 1.598628 1_555
O57 Si33 1.599446 1_555
O58 Si34 1.597791 1_555
O59 Si35 1.601150 1_555
O60 Si34 1.690485 1_555
O60 Ta11 1.996763 1_555
O61 Si35 1.732798 1_555
O61 Ta12 1.991697 1_555
O62 Si30 1.718370 1_555
O62 Ta11 1.970834 1_555
O63 Si31 1.707216 1_555
O63 Ta12 2.025114 1_555
O64 Si32 1.710076 1_555
O64 Ta11 2.001565 1_555
O65 Si33 1.723020 1_555
O65 Ta12 2.007564 1_555
O66 Si26 1.705879 1_555
O66 Ta13 1.983551 1_555
O67 Si27 1.705787 1_555
O67 Ta14 1.981282 1_555
O68 Si28 1.719926 1_555
O68 Ta13 1.999155 1_555
O69 Si29 1.720177 1_555
O69 Ta14 1.997549 1_555
O70 Si24 1.709191 1_555
O70 Ta13 1.984923 1_555
O71 Si25 1.710143 1_555
O71 Ta14 1.985577 1_555
O72 Si34 1.647007 1_655
O72 Ta0 2.022961 1_665
O73 Si35 1.609435 1_555
O74 Si30 1.614212 1_545
O75 Si31 1.633609 1_545
O75 Ta0 1.997469 1_655
O76 Si32 1.638230 1_555
O76 Ta0 1.968824 1_555
O77 Si33 1.607154 1_555
O78 Si26 1.653911 1_655
O78 Ta1 2.009585 1_655
O79 Si27 1.653702 1_555
O79 Ta2 2.013524 1_555
O80 Si28 1.641654 1_545
O80 Ta1 1.965784 1_555
O81 Si29 1.642275 1_545
O81 Ta2 1.967922 1_555
O82 Si24 1.646255 1_555
O82 Ta2 1.984635 1_565
O83 Si25 1.646324 1_555
O83 Ta1 1.987260 1_665
O84 Si12 1.680067 1_555
O84 Ta4 2.032183 1_555
O85 Si13 1.672896 1_555
O85 Ta3 2.049944 1_655
O86 Si14 1.677567 1_555
O86 Ta3 2.037891 1_555
O87 Si15 1.675239 1_555
O87 Ta4 2.046025 1_555
O88 Si16 1.684885 1_555
O88 Ta4 2.036171 1_565
O89 Si17 1.674698 1_555
O89 Ta3 2.039242 1_665
O90 Si18 1.681016 1_555
O90 Ta6 2.055181 1_555
O91 Si19 1.674261 1_555
O91 Ta5 2.049236 1_665
O92 Si20 1.688262 1_555
O92 Ta6 2.043185 1_545
O93 Si21 1.682358 1_555
O93 Ta5 2.039166 1_655
O94 Si22 1.677342 1_555
O94 Ta5 2.047992 1_555
O95 Si23 1.681493 1_555
O95 Ta6 2.058517 1_545
O96 Si10 1.616913 1_545
O97 Si11 1.616635 1_545
O98 Si6 1.613157 1_555
O99 Si7 1.614387 1_555
O100 Si9 1.614139 1_555
O101 Si8 1.613137 1_655
O102 Si2 1.607275 1_555
O103 Si3 1.621745 1_555
O104 Si5 1.611368 1_555
O105 Si4 1.614038 1_655
O106 Si0 1.616265 1_545
O107 Si1 1.611101 1_545
O108 Si24 1.643471 1_555
O108 Ta7 2.015422 1_555
O109 Si25 1.642632 1_555
O109 Ta8 2.018413 1_555
O110 Si27 1.655374 1_555
O110 Ta7 2.060194 1_555
O111 Si26 1.655635 1_655
O111 Ta8 2.062312 1_555
O112 Si28 1.655152 1_545
O112 Ta7 2.085202 1_555
O113 Si29 1.654127 1_545
O113 Ta8 2.085532 1_555
O114 Si30 1.658982 1_545
O114 Ta9 1.998095 1_555
O115 Si31 1.655998 1_545
O115 Ta10 2.062541 1_555
O116 Si32 1.663249 1_555
O116 Ta9 2.059923 1_555
O117 Si33 1.666651 1_555
O117 Ta10 2.073146 1_555
O118 Si35 1.661509 1_555
O118 Ta9 2.086437 1_555
O119 Si34 1.667290 1_655
O119 Ta10 2.023990 1_555
O120 Si22 1.611695 1_555
O121 Si23 1.615270 1_555
O122 Si19 1.612000 1_455
O123 Si18 1.614778 1_555
O124 Si20 1.613458 1_565
O125 Si21 1.616023 1_565
O126 Si14 1.611593 1_565
O127 Si15 1.612744 1_565
O128 Si16 1.611949 1_555
O129 Si17 1.613720 1_555
O130 Si13 1.610796 1_455
O131 Si12 1.613531 1_555
O132 Si0 1.667188 1_555
O132 Ta11 2.063126 1_555
O133 Si1 1.675452 1_555
O133 Ta12 2.050323 1_555
O134 Si2 1.677586 1_555
O134 Ta11 2.064076 1_555
O135 Si3 1.669329 1_555
O135 Ta12 2.065158 1_555
O136 Si4 1.663846 1_555
O136 Ta11 2.078117 1_555
O137 Si5 1.680953 1_555
O137 Ta12 2.045455 1_555
O138 Si6 1.672416 1_555
O138 Ta13 2.067242 1_555
O139 Si7 1.674099 1_555
O139 Ta14 2.069866 1_555
O140 Si8 1.670186 1_555
O140 Ta13 2.074041 1_555
O141 Si9 1.674728 1_555
O141 Ta14 2.076996 1_555
O142 Si10 1.676101 1_555
O142 Ta13 2.084394 1_555
O143 Si11 1.675261 1_555
O143 Ta14 2.087632 1_555
