# generated using pymatgen
data_SiSnGe(SO6)2
_symmetry_space_group_name_H-M   'P 1'
_cell_length_a   8.61096178
_cell_length_b   8.60570925
_cell_length_c   22.42096183
_cell_angle_alpha   89.85348154
_cell_angle_beta   89.88260931
_cell_angle_gamma   119.89674234
_symmetry_Int_Tables_number   1
_chemical_formula_structural   SiSnGe(SO6)2
_chemical_formula_sum   'Si6 Sn6 Ge6 S12 O72'
_cell_volume   1440.35495591
_cell_formula_units_Z   6
loop_
 _symmetry_equiv_pos_site_id
 _symmetry_equiv_pos_as_xyz
  1  'x, y, z'
loop_
 _atom_site_type_symbol
 _atom_site_label
 _atom_site_symmetry_multiplicity
 _atom_site_fract_x
 _atom_site_fract_y
 _atom_site_fract_z
 _atom_site_occupancy
  Si  Si0  1  0.99067491  0.29660822  0.24747603  1
  Si  Si1  1  0.29364502  0.30068919  0.75374706  1
  Si  Si2  1  0.96848459  0.34368777  0.58292482  1
  Si  Si3  1  0.38892335  0.34533987  0.08217169  1
  Si  Si4  1  0.33342541  0.94468857  0.91727194  1
  Si  Si5  1  0.61287455  0.94595434  0.41856951  1
  Sn  Sn0  1  0.98491157  0.00621190  0.35479348  1
  Sn  Sn1  1  0.00561472  0.01799241  0.64756014  1
  Sn  Sn2  1  0.01122747  0.01624875  0.14276784  1
  Sn  Sn3  1  0.67030692  0.33521021  0.68861149  1
  Sn  Sn4  1  0.67119790  0.32333614  0.47869440  1
  Sn  Sn5  1  0.33167677  0.66503108  0.31153776  1
  Ge  Ge0  1  0.02871574  0.00870328  0.85683657  1
  Ge  Ge1  1  0.66642296  0.33803622  0.18502144  1
  Ge  Ge2  1  0.64193451  0.31397201  0.97647262  1
  Ge  Ge3  1  0.32935993  0.66443155  0.02054616  1
  Ge  Ge4  1  0.33489388  0.66600347  0.52131577  1
  Ge  Ge5  1  0.33786070  0.66968725  0.81505524  1
  S  S0  1  0.29460796  0.00569300  0.24910030  1
  S  S1  1  0.71208190  0.70424234  0.24746771  1
  S  S2  1  0.00552992  0.71518513  0.75302985  1
  S  S3  1  0.70930818  0.99294255  0.75463874  1
  S  S4  1  0.37196646  0.03405896  0.58266579  1
  S  S5  1  0.66385775  0.62678760  0.58234505  1
  S  S6  1  0.95324150  0.61589721  0.08087381  1
  S  S7  1  0.66012316  0.04388455  0.08137038  1
  S  S8  1  0.62851363  0.66960008  0.91649760  1
  S  S9  1  0.03920983  0.37484942  0.91772416  1
  S  S10  1  0.33405023  0.37657223  0.41890047  1
  S  S11  1  0.04437214  0.67076874  0.41751800  1
  O  O0  1  0.21401259  0.03448625  0.30415717  1
  O  O1  1  0.82317875  0.77742482  0.30173460  1
  O  O2  1  0.95132984  0.17539877  0.30744755  1
  O  O3  1  0.19809223  0.16569329  0.81079832  1
  O  O4  1  0.96620651  0.79642639  0.80540681  1
  O  O5  1  0.82494212  0.02451925  0.80677602  1
  O  O6  1  0.77707708  0.95315765  0.69869896  1
  O  O7  1  0.17422890  0.22173466  0.69452013  1
  O  O8  1  0.03513645  0.82120300  0.69673489  1
  O  O9  1  0.79242197  0.81743153  0.19380013  1
  O  O10  1  0.03538739  0.21190372  0.19060036  1
  O  O11  1  0.17716899  0.96354839  0.19627632  1
  O  O12  1  0.88303541  0.38274165  0.64291514  1
  O  O13  1  0.48373759  0.11250550  0.63683057  1
  O  O14  1  0.62615021  0.51288617  0.63626302  1
  O  O15  1  0.87911944  0.50655181  0.13630003  1
  O  O16  1  0.62910222  0.12188118  0.13583681  1
  O  O17  1  0.51302810  0.37509410  0.14207671  1
  O  O18  1  0.47943500  0.30738337  0.02379518  1
  O  O19  1  0.84297875  0.53759255  0.02763522  1
  O  O20  1  0.70358886  0.16227326  0.02783389  1
  O  O21  1  0.44460786  0.15327520  0.53024177  1
  O  O22  1  0.69552301  0.54742065  0.52831237  1
  O  O23  1  0.84347332  0.30365826  0.52542190  1
  O  O24  1  0.54984557  0.70433868  0.96992661  1
  O  O25  1  0.15635687  0.44943182  0.97094723  1
  O  O26  1  0.29959931  0.81770141  0.97650049  1
  O  O27  1  0.51582960  0.81764966  0.47756695  1
  O  O28  1  0.29681759  0.45530539  0.47175984  1
  O  O29  1  0.15451887  0.69875664  0.47097552  1
  O  O30  1  0.11456650  0.62918440  0.36325855  1
  O  O31  1  0.49732726  0.86528052  0.35792949  1
  O  O32  1  0.36726211  0.48185637  0.36358246  1
  O  O33  1  0.11677638  0.48835980  0.86393180  1
  O  O34  1  0.36697142  0.85361135  0.85762953  1
  O  O35  1  0.51095932  0.62741160  0.86308669  1
  O  O36  1  0.03782765  0.83791247  0.40953765  1
  O  O37  1  0.80544137  0.95639206  0.41612969  1
  O  O38  1  0.18018639  0.19601555  0.41282833  1
  O  O39  1  0.01470820  0.19226750  0.90934260  1
  O  O40  1  0.15425201  0.96367232  0.90940317  1
  O  O41  1  0.80566061  0.83403414  0.90648740  1
  O  O42  1  0.97823597  0.16254356  0.58727149  1
  O  O43  1  0.19113353  0.00812949  0.59000343  1
  O  O44  1  0.82738665  0.80119590  0.59077912  1
  O  O45  1  0.96887261  0.79522244  0.08930666  1
  O  O46  1  0.81614836  0.01789276  0.08711987  1
  O  O47  1  0.19796041  0.16602476  0.08626656  1
  O  O48  1  0.69361726  0.15466704  0.74714530  1
  O  O49  1  0.48730973  0.31638988  0.74439218  1
  O  O50  1  0.84467004  0.53794134  0.74773557  1
  O  O51  1  0.69294499  0.52502009  0.24095447  1
  O  O52  1  0.81018937  0.31178821  0.23463601  1
  O  O53  1  0.46966628  0.16813007  0.24084202  1
  O  O54  1  0.65234798  0.51051195  0.92424920  1
  O  O55  1  0.86139213  0.36226002  0.92725521  1
  O  O56  1  0.51169078  0.14312002  0.92472358  1
  O  O57  1  0.62641866  0.13857617  0.42134900  1
  O  O58  1  0.50002554  0.36772691  0.42634039  1
  O  O59  1  0.86207106  0.51842047  0.42305008  1
  O  O60  1  0.36505006  0.52150761  0.06961155  1
  O  O61  1  0.13473783  0.63662164  0.07500514  1
  O  O62  1  0.49752090  0.86648788  0.07397337  1
  O  O63  1  0.36124375  0.86015103  0.57459906  1
  O  O64  1  0.50357152  0.64495526  0.57574476  1
  O  O65  1  0.16620469  0.52212424  0.57029775  1
  O  O66  1  0.31471974  0.84730163  0.25450417  1
  O  O67  1  0.53555696  0.68948596  0.25397911  1
  O  O68  1  0.16764959  0.48934411  0.25636788  1
  O  O69  1  0.30998550  0.49664256  0.76674487  1
  O  O70  1  0.16627727  0.69910514  0.76014786  1
  O  O71  1  0.52851767  0.83302469  0.76086066  1
loop_
_geom_bond_atom_site_label_1
_geom_bond_atom_site_label_2
_geom_bond_distance
_geom_bond_site_symmetry_2
Ge0 O3 1.743654 1_555
Ge0 O40 1.768694 1_545
Ge0 O4 1.997409 1_445
Ge0 O39 2.023552 1_555
Ge0 O41 2.071823 1_445
Ge0 O5 2.145371 1_455
Ge1 O52 1.761861 1_555
Ge1 O17 1.788041 1_555
Ge1 O51 1.964510 1_555
Ge1 O15 1.996688 1_555
Ge1 O53 2.021690 1_555
Ge1 O16 2.048318 1_555
Ge2 O18 1.732474 1_556
Ge2 O56 1.770888 1_555
Ge2 O20 1.999492 1_556
Ge2 O54 2.019409 1_555
Ge2 O55 2.041518 1_555
Ge2 O19 2.171303 1_556
Ge3 O26 1.764088 1_554
Ge3 O60 1.785706 1_555
Ge3 O61 1.986719 1_555
Ge3 O62 2.015693 1_555
Ge3 O25 2.036878 1_554
Ge3 O24 2.085634 1_554
Ge4 O65 1.744345 1_555
Ge4 O27 1.747274 1_555
Ge4 O64 1.974882 1_555
Ge4 O63 1.975755 1_555
Ge4 O28 2.012186 1_555
Ge4 O29 2.051287 1_555
Ge5 O34 1.758535 1_555
Ge5 O69 1.761101 1_555
Ge5 O71 1.957086 1_555
Ge5 O35 2.014691 1_555
Ge5 O70 2.035038 1_555
Ge5 O33 2.069167 1_555
O0 S0 1.495437 1_555
O0 Sn0 2.179655 1_455
O1 S1 1.483339 1_555
O1 Sn0 2.125221 1_565
O2 Si0 1.627727 1_555
O2 Sn0 1.934790 1_555
O3 Si1 1.642570 1_555
O4 S2 1.490335 1_655
O5 S3 1.472565 1_545
O6 S3 1.493052 1_555
O6 Sn1 2.095616 1_665
O7 Si1 1.611253 1_555
O7 Sn1 1.941345 1_555
O8 S2 1.500477 1_555
O8 Sn1 2.137516 1_565
O9 S1 1.481257 1_555
O9 Sn2 2.134023 1_665
O10 Si0 1.608810 1_455
O10 Sn2 1.920781 1_555
O11 S0 1.482698 1_565
O11 Sn2 2.082561 1_565
O12 Si2 1.645681 1_555
O12 Sn3 1.953391 1_555
O13 S4 1.489351 1_555
O13 Sn3 2.133446 1_555
O14 S5 1.484151 1_555
O14 Sn3 2.105303 1_555
O15 S6 1.493057 1_555
O16 S7 1.481479 1_555
O17 Si3 1.657243 1_555
O18 Si3 1.636780 1_555
O19 S6 1.466749 1_555
O20 S7 1.493541 1_555
O21 S4 1.475284 1_555
O21 Sn4 2.102401 1_555
O22 S5 1.482237 1_555
O22 Sn4 2.146975 1_555
O23 Si2 1.605603 1_555
O23 Sn4 1.892838 1_555
O24 S8 1.477726 1_555
O25 S9 1.488940 1_555
O26 Si4 1.648103 1_555
O27 Si5 1.653906 1_555
O28 S10 1.478368 1_555
O29 S11 1.473966 1_555
O30 S11 1.479274 1_555
O30 Sn5 2.085523 1_555
O31 Si5 1.625502 1_555
O31 Sn5 1.910781 1_555
O32 S10 1.474957 1_555
O32 Sn5 2.100949 1_555
O33 S9 1.481625 1_555
O34 Si4 1.647862 1_555
O35 S8 1.493776 1_555
O36 S11 1.477731 1_555
O36 Sn0 2.112567 1_465
O37 Si5 1.616095 1_555
O37 Sn0 1.947076 1_565
O38 S10 1.462142 1_555
O38 Sn0 2.114333 1_455
O39 S9 1.489915 1_555
O40 Si4 1.640260 1_555
O41 S8 1.491583 1_555
O42 Si2 1.605111 1_555
O42 Sn1 1.927503 1_655
O43 S4 1.467632 1_555
O43 Sn1 2.086098 1_555
O44 S5 1.472072 1_555
O44 Sn1 2.150043 1_665
O45 S6 1.493293 1_555
O45 Sn2 2.123586 1_665
O46 S7 1.473721 1_555
O46 Sn2 2.100212 1_655
O47 Si3 1.600859 1_555
O47 Sn2 1.941365 1_555
O48 S3 1.473030 1_545
O48 Sn3 2.116170 1_555
O49 Si1 1.617737 1_555
O49 Sn3 1.951904 1_555
O50 S2 1.467898 1_655
O50 Sn3 2.112830 1_555
O51 S1 1.474844 1_555
O52 Si0 1.649052 1_555
O53 S0 1.468876 1_555
O54 S8 1.491880 1_555
O55 S9 1.495022 1_655
O56 Si4 1.640030 1_545
O57 Si5 1.604093 1_545
O57 Sn4 1.931629 1_555
O58 S10 1.478383 1_555
O58 Sn4 2.064575 1_555
O59 S11 1.464655 1_655
O59 Sn4 2.075233 1_555
O60 Si3 1.651879 1_555
O61 S6 1.487555 1_455
O62 S7 1.479845 1_565
O63 S4 1.464497 1_565
O64 S5 1.472135 1_555
O65 Si2 1.651184 1_455
O66 S0 1.461915 1_565
O66 Sn5 2.082246 1_555
O67 S1 1.467842 1_555
O67 Sn5 2.100688 1_555
O68 Si0 1.611317 1_455
O68 Sn5 1.923236 1_555
O69 Si1 1.647586 1_555
O70 S2 1.467084 1_555
O71 S3 1.483016 1_555
