# generated using pymatgen
data_NaCa2Ta2P3(SO8)3
_symmetry_space_group_name_H-M   'P 1'
_cell_length_a   9.00382993
_cell_length_b   8.98476071
_cell_length_c   23.10963416
_cell_angle_alpha   90.11444911
_cell_angle_beta   89.98638885
_cell_angle_gamma   120.03612703
_symmetry_Int_Tables_number   1
_chemical_formula_structural   NaCa2Ta2P3(SO8)3
_chemical_formula_sum   'Na3 Ca6 Ta6 P9 S9 O72'
_cell_volume   1618.44613479
_cell_formula_units_Z   3
loop_
 _symmetry_equiv_pos_site_id
 _symmetry_equiv_pos_as_xyz
  1  'x, y, z'
loop_
 _atom_site_type_symbol
 _atom_site_label
 _atom_site_symmetry_multiplicity
 _atom_site_fract_x
 _atom_site_fract_y
 _atom_site_fract_z
 _atom_site_occupancy
  Na  Na0  1  0.97382856  0.00126213  0.00081464  1
  Na  Na1  1  0.69200209  0.36236580  0.83421698  1
  Na  Na2  1  0.64838551  0.31878306  0.34479494  1
  Ca  Ca0  1  0.99394572  0.99902292  0.86164676  1
  Ca  Ca1  1  0.99456192  0.99705449  0.14505779  1
  Ca  Ca2  1  0.68156149  0.34007393  0.67820104  1
  Ca  Ca3  1  0.67184972  0.33887089  0.97177483  1
  Ca  Ca4  1  0.66895639  0.32456022  0.48806473  1
  Ca  Ca5  1  0.34193821  0.66940546  0.30643679  1
  Ta  Ta0  1  0.99803167  0.99434362  0.35449813  1
  Ta  Ta1  1  0.00067667  0.99743491  0.64930229  1
  Ta  Ta2  1  0.66044674  0.32353566  0.18996898  1
  Ta  Ta3  1  0.33797016  0.66551109  0.02583628  1
  Ta  Ta4  1  0.33422492  0.65829980  0.51180051  1
  Ta  Ta5  1  0.32743465  0.66009497  0.80924174  1
  P  P0  1  0.29021977  0.01463131  0.24942346  1
  P  P1  1  0.72265819  0.69936314  0.24920074  1
  P  P2  1  0.00489558  0.71291284  0.75376168  1
  P  P3  1  0.98320331  0.33624303  0.58383813  1
  P  P4  1  0.65824020  0.04448300  0.08015452  1
  P  P5  1  0.60688296  0.66608701  0.91627891  1
  P  P6  1  0.05823817  0.39156022  0.91767484  1
  P  P7  1  0.63139857  0.95748902  0.41341380  1
  P  P8  1  0.32681259  0.36339821  0.41185452  1
  S  S0  1  0.97973829  0.27833197  0.25095290  1
  S  S1  1  0.28812892  0.29287557  0.75173162  1
  S  S2  1  0.70302565  0.99054006  0.75112036  1
  S  S3  1  0.35218880  0.01539316  0.58380813  1
  S  S4  1  0.66401107  0.64685799  0.58349632  1
  S  S5  1  0.96277938  0.61605407  0.08220672  1
  S  S6  1  0.38634029  0.34495484  0.08261778  1
  S  S7  1  0.33352258  0.93915566  0.91687246  1
  S  S8  1  0.04528323  0.67550426  0.41491564  1
  O  O0  1  0.19795771  0.04514198  0.30373463  1
  O  O1  1  0.84628319  0.79680882  0.30392080  1
  O  O2  1  0.95024205  0.16209654  0.30250297  1
  O  O3  1  0.21228308  0.19801405  0.80371085  1
  O  O4  1  0.98725302  0.79829144  0.80662475  1
  O  O5  1  0.80430249  0.02029226  0.80262549  1
  O  O6  1  0.79622588  0.97053463  0.69916533  1
  O  O7  1  0.17478084  0.20265700  0.69986628  1
  O  O8  1  0.02474670  0.83196434  0.69897813  1
  O  O9  1  0.79720949  0.80168766  0.19574558  1
  O  O10  1  0.00587091  0.20981330  0.19803537  1
  O  O11  1  0.20169986  0.00642699  0.19436377  1
  O  O12  1  0.92200072  0.38903154  0.63661672  1
  O  O13  1  0.45978939  0.08209684  0.63506640  1
  O  O14  1  0.61985313  0.53793520  0.63421987  1
  O  O15  1  0.87675731  0.50810563  0.13459018  1
  O  O16  1  0.63747673  0.13969585  0.13641843  1
  O  O17  1  0.49515124  0.36784397  0.13563859  1
  O  O18  1  0.46430472  0.32647153  0.03098853  1
  O  O19  1  0.86272202  0.54145753  0.03038988  1
  O  O20  1  0.67409030  0.14718214  0.02761943  1
  O  O21  1  0.41312961  0.12948191  0.53443474  1
  O  O22  1  0.71388077  0.58549215  0.53350009  1
  O  O23  1  0.86440951  0.27677395  0.53268219  1
  O  O24  1  0.50158747  0.66267953  0.97249580  1
  O  O25  1  0.15848899  0.50036985  0.97233773  1
  O  O26  1  0.33476846  0.84434084  0.97007402  1
  O  O27  1  0.52969141  0.83527661  0.46839334  1
  O  O28  1  0.30776893  0.46862010  0.46729270  1
  O  O29  1  0.15944826  0.69669039  0.46761984  1
  O  O30  1  0.11667481  0.64603159  0.36360252  1
  O  O31  1  0.52301813  0.87980766  0.36140109  1
  O  O32  1  0.34606769  0.46804188  0.36008816  1
  O  O33  1  0.16348063  0.49328328  0.86048977  1
  O  O34  1  0.33142290  0.84276659  0.86256641  1
  O  O35  1  0.50781419  0.67522761  0.86068860  1
  O  O36  1  0.04719886  0.84530892  0.41052745  1
  O  O37  1  0.80640639  0.95458683  0.40526958  1
  O  O38  1  0.15076693  0.18697554  0.40596249  1
  O  O39  1  0.05767358  0.22379175  0.92201509  1
  O  O40  1  0.17698843  0.94841809  0.91972835  1
  O  O41  1  0.77765903  0.82974947  0.92248349  1
  O  O42  1  0.01266245  0.18076679  0.60341685  1
  O  O43  1  0.17431544  0.99037708  0.59930588  1
  O  O44  1  0.81436434  0.82569214  0.59900034  1
  O  O45  1  0.00338008  0.79406549  0.08772613  1
  O  O46  1  0.80226807  0.00583074  0.08609331  1
  O  O47  1  0.21033844  0.20615837  0.08869793  1
  O  O48  1  0.66626315  0.12904889  0.74109034  1
  O  O49  1  0.46118658  0.32511647  0.74141054  1
  O  O50  1  0.85874570  0.53169595  0.74440678  1
  O  O51  1  0.72525418  0.52173947  0.23959277  1
  O  O52  1  0.80835050  0.27850516  0.24485045  1
  O  O53  1  0.47758188  0.19293253  0.24249539  1
  O  O54  1  0.60732799  0.49893034  0.91051340  1
  O  O55  1  0.88808894  0.38442750  0.91035727  1
  O  O56  1  0.49047872  0.10454676  0.91302143  1
  O  O57  1  0.67300476  0.13974180  0.42514339  1
  O  O58  1  0.47171625  0.33043766  0.42554736  1
  O  O59  1  0.87114552  0.53883486  0.42666419  1
  O  O60  1  0.37854271  0.51198438  0.07871322  1
  O  O61  1  0.13482559  0.62071606  0.07662792  1
  O  O62  1  0.48354158  0.86230278  0.07426293  1
  O  O63  1  0.32036515  0.83977169  0.56910765  1
  O  O64  1  0.51835979  0.67788507  0.56971169  1
  O  O65  1  0.16612951  0.48875234  0.56549934  1
  O  O66  1  0.33036296  0.87660371  0.26099972  1
  O  O67  1  0.54145861  0.64731919  0.26155402  1
  O  O68  1  0.11054030  0.45222865  0.26163764  1
  O  O69  1  0.29607003  0.46720981  0.75508605  1
  O  O70  1  0.17947260  0.70640896  0.75926014  1
  O  O71  1  0.53446451  0.82291728  0.75541754  1
loop_
_geom_bond_atom_site_label_1
_geom_bond_atom_site_label_2
_geom_bond_distance
_geom_bond_site_symmetry_2
Na0 O41 2.456995 1_544
Na0 O46 2.516622 1_555
Na0 O39 2.527138 1_654
Na0 O40 2.819065 1_644
Na0 O45 2.842799 1_645
Na0 O47 2.848006 1_655
Na1 O55 2.429452 1_555
Na1 O54 2.474424 1_555
Na1 O50 2.569197 1_555
Na1 O56 2.789688 1_555
Na1 O49 2.886835 1_555
Na1 O48 2.928424 1_555
Na2 O58 2.487649 1_555
Na2 O57 2.540426 1_555
Na2 O53 2.735481 1_555
Na2 O59 2.743788 1_555
Na2 O52 2.838471 1_555
Na2 O51 2.910041 1_555
Ca0 O4 2.180646 1_555
Ca0 O41 2.263693 1_555
Ca0 O5 2.267449 1_565
Ca0 O39 2.276611 1_665
Ca0 O3 2.311602 1_665
Ca0 O40 2.340551 1_655
Ca1 O9 2.120258 1_555
Ca1 O11 2.151088 1_665
Ca1 O10 2.226943 1_665
Ca1 O46 2.235829 1_565
Ca1 O45 2.285440 1_655
Ca1 O47 2.314118 1_665
Ca2 O12 2.202516 1_555
Ca2 O50 2.256352 1_555
Ca2 O48 2.339981 1_555
Ca2 O14 2.344865 1_555
Ca2 O13 2.389918 1_555
Ca2 O49 2.412763 1_555
Ca3 O20 2.162368 1_556
Ca3 O19 2.227371 1_556
Ca3 O18 2.273317 1_556
Ca3 O55 2.275083 1_555
Ca3 O54 2.292333 1_555
Ca3 O56 2.343202 1_555
Ca4 O57 2.219020 1_555
Ca4 O23 2.259097 1_555
Ca4 O58 2.310712 1_555
Ca4 O21 2.343240 1_555
Ca4 O59 2.352663 1_555
Ca4 O22 2.409025 1_555
Ca5 O67 2.167396 1_555
Ca5 O31 2.179725 1_555
Ca5 O66 2.186592 1_555
Ca5 O32 2.210924 1_555
Ca5 O68 2.267873 1_555
Ca5 O30 2.340194 1_555
O0 P0 1.602073 1_555
O0 Ta0 2.000887 1_445
O1 P1 1.620272 1_555
O1 Ta0 1.986901 1_555
O2 S0 1.519065 1_555
O2 Ta0 2.134808 1_545
O3 S1 1.434133 1_555
O4 P2 1.491394 1_655
O5 S2 1.440462 1_545
O6 S2 1.525694 1_555
O6 Ta1 2.080779 1_655
O7 S1 1.517816 1_555
O7 Ta1 2.078778 1_545
O8 P2 1.610227 1_555
O8 Ta1 1.976021 1_555
O9 P1 1.485997 1_555
O10 S0 1.439346 1_455
O11 P0 1.483573 1_555
O12 P3 1.508406 1_555
O13 S3 1.455134 1_555
O14 S4 1.450765 1_555
O15 S5 1.502751 1_555
O15 Ta2 2.226003 1_555
O16 P4 1.616458 1_555
O16 Ta2 1.988098 1_555
O17 S6 1.517016 1_555
O17 Ta2 2.132120 1_555
O18 S6 1.435072 1_555
O19 S5 1.444852 1_555
O20 P4 1.489401 1_555
O21 S3 1.447416 1_555
O22 S4 1.444160 1_555
O23 P3 1.501023 1_555
O24 P5 1.599397 1_555
O24 Ta3 1.930529 1_556
O25 P6 1.574322 1_555
O25 Ta3 1.983630 1_556
O26 S7 1.500397 1_555
O26 Ta3 2.073094 1_556
O27 P7 1.630035 1_555
O27 Ta4 1.958588 1_555
O28 P8 1.649808 1_555
O28 Ta4 1.898889 1_555
O29 S8 1.542760 1_555
O29 Ta4 2.045333 1_555
O30 S8 1.434671 1_555
O31 P7 1.483092 1_555
O32 P8 1.478642 1_555
O33 P6 1.617683 1_555
O33 Ta5 1.902490 1_555
O34 S7 1.518109 1_555
O34 Ta5 2.036311 1_555
O35 P5 1.589682 1_555
O35 Ta5 1.961873 1_555
O36 S8 1.520683 1_555
O36 Ta0 2.065476 1_455
O37 P7 1.600011 1_555
O37 Ta0 1.965923 1_555
O38 P8 1.589837 1_555
O38 Ta0 1.977623 1_445
O39 P6 1.508361 1_555
O40 S7 1.454326 1_555
O41 P5 1.510931 1_555
O42 P3 1.612439 1_455
O42 Ta1 1.917889 1_545
O43 S3 1.543830 1_565
O43 Ta1 1.970109 1_555
O44 S4 1.537251 1_555
O44 Ta1 1.987174 1_655
O45 S5 1.456656 1_455
O46 P4 1.507401 1_555
O47 S6 1.452023 1_555
O48 S2 1.457928 1_545
O49 S1 1.454981 1_555
O50 P2 1.511025 1_655
O51 P1 1.622556 1_555
O51 Ta2 1.943914 1_555
O52 S0 1.550387 1_555
O52 Ta2 2.021858 1_555
O53 P0 1.653278 1_555
O53 Ta2 1.905760 1_555
O54 P5 1.509498 1_555
O55 P6 1.510465 1_655
O56 S7 1.453072 1_545
O57 P7 1.509764 1_545
O58 P8 1.509109 1_555
O59 S8 1.453828 1_655
O60 S6 1.539888 1_555
O60 Ta3 2.010175 1_555
O61 S5 1.533942 1_455
O61 Ta3 2.036952 1_555
O62 P4 1.610499 1_565
O62 Ta3 1.941499 1_555
O63 S3 1.494195 1_565
O63 Ta4 2.150099 1_555
O64 S4 1.505175 1_555
O64 Ta4 2.068520 1_555
O65 P3 1.585120 1_455
O65 Ta4 1.962092 1_555
O66 P0 1.479956 1_565
O67 P1 1.482734 1_555
O68 S0 1.430260 1_455
O69 S1 1.533616 1_555
O69 Ta5 2.037398 1_555
O70 P2 1.606981 1_555
O70 Ta5 1.959530 1_555
O71 S2 1.514514 1_555
O71 Ta5 2.106718 1_555
