# generated using pymatgen
data_Li2Sn(PO3)4
_symmetry_space_group_name_H-M   'P 1'
_cell_length_a   10.45630500
_cell_length_b   9.60680800
_cell_length_c   9.80413560
_cell_angle_alpha   89.14147811
_cell_angle_beta   90.00000000
_cell_angle_gamma   90.00000000
_symmetry_Int_Tables_number   1
_chemical_formula_structural   Li2Sn(PO3)4
_chemical_formula_sum   'Li8 Sn4 P16 O48'
_cell_volume   984.73167329
_cell_formula_units_Z   4
loop_
 _symmetry_equiv_pos_site_id
 _symmetry_equiv_pos_as_xyz
  1  'x, y, z'
loop_
 _atom_site_type_symbol
 _atom_site_label
 _atom_site_symmetry_multiplicity
 _atom_site_fract_x
 _atom_site_fract_y
 _atom_site_fract_z
 _atom_site_occupancy
  Li  Li0  1  0.17535800  0.11390900  0.00781800  1
  Li  Li1  1  0.18296500  0.38741800  0.00409900  1
  Li  Li2  1  0.32464200  0.11390900  0.50781800  1
  Li  Li3  1  0.68296500  0.61258200  0.49590100  1
  Li  Li4  1  0.31703500  0.38741800  0.50409900  1
  Li  Li5  1  0.67535800  0.88609100  0.49218200  1
  Li  Li6  1  0.81703500  0.61258200  0.99590100  1
  Li  Li7  1  0.82464200  0.88609100  0.99218200  1
  Sn  Sn0  1  0.20207900  0.74709000  0.02587200  1
  Sn  Sn1  1  0.70207900  0.25291000  0.47412800  1
  Sn  Sn2  1  0.29792100  0.74709000  0.52587200  1
  Sn  Sn3  1  0.79792100  0.25291000  0.97412800  1
  P  P0  1  0.61011400  0.03718300  0.19904500  1
  P  P1  1  0.40769700  0.26824500  0.19654300  1
  P  P2  1  0.60222600  0.49652200  0.19825100  1
  P  P3  1  0.47825500  0.76698500  0.24576400  1
  P  P4  1  0.97825500  0.23301500  0.25423600  1
  P  P5  1  0.10222600  0.50347800  0.30174900  1
  P  P6  1  0.90769700  0.73175500  0.30345700  1
  P  P7  1  0.11011400  0.96281700  0.30095500  1
  P  P8  1  0.88988600  0.03718300  0.69904500  1
  P  P9  1  0.09230300  0.26824500  0.69654300  1
  P  P10  1  0.89777400  0.49652200  0.69825100  1
  P  P11  1  0.02174500  0.76698500  0.74576400  1
  P  P12  1  0.52174500  0.23301500  0.75423600  1
  P  P13  1  0.39777400  0.50347800  0.80174900  1
  P  P14  1  0.59230300  0.73175500  0.80345700  1
  P  P15  1  0.38988600  0.96281700  0.80095500  1
  O  O0  1  0.29845700  0.24866500  0.10006000  1
  O  O1  1  0.72180800  0.03063300  0.10265100  1
  O  O2  1  0.70580500  0.46577200  0.09678700  1
  O  O3  1  0.01582700  0.22931500  0.10624700  1
  O  O4  1  0.52535100  0.16767400  0.14844200  1
  O  O5  1  0.12625300  0.52562700  0.15088600  1
  O  O6  1  0.47135400  0.41783200  0.15688600  1
  O  O7  1  0.13254000  0.95575000  0.14904600  1
  O  O8  1  0.88594500  0.74415000  0.15250700  1
  O  O9  1  0.56509600  0.65650200  0.16588800  1
  O  O10  1  0.51683100  0.90821400  0.16610700  1
  O  O11  1  0.34006100  0.73977900  0.21334800  1
  O  O12  1  0.84006100  0.26022100  0.28665200  1
  O  O13  1  0.01683100  0.09178600  0.33389300  1
  O  O14  1  0.06509600  0.34349800  0.33411200  1
  O  O15  1  0.38594500  0.25585000  0.34749300  1
  O  O16  1  0.63254000  0.04425000  0.35095400  1
  O  O17  1  0.97135400  0.58216800  0.34311400  1
  O  O18  1  0.62625300  0.47437300  0.34911400  1
  O  O19  1  0.02535100  0.83232600  0.35155800  1
  O  O20  1  0.51582700  0.77068500  0.39375300  1
  O  O21  1  0.20580500  0.53422800  0.40321300  1
  O  O22  1  0.22180800  0.96936700  0.39734900  1
  O  O23  1  0.79845700  0.75133500  0.39994000  1
  O  O24  1  0.20154300  0.24866500  0.60006000  1
  O  O25  1  0.77819200  0.03063300  0.60265100  1
  O  O26  1  0.79419500  0.46577200  0.59678700  1
  O  O27  1  0.48417300  0.22931500  0.60624700  1
  O  O28  1  0.97464900  0.16767400  0.64844200  1
  O  O29  1  0.37374700  0.52562700  0.65088600  1
  O  O30  1  0.02864600  0.41783200  0.65688600  1
  O  O31  1  0.36746000  0.95575000  0.64904600  1
  O  O32  1  0.61405500  0.74415000  0.65250700  1
  O  O33  1  0.93490400  0.65650200  0.66588800  1
  O  O34  1  0.98316900  0.90821400  0.66610700  1
  O  O35  1  0.15993900  0.73977900  0.71334800  1
  O  O36  1  0.65993900  0.26022100  0.78665200  1
  O  O37  1  0.48316900  0.09178600  0.83389300  1
  O  O38  1  0.43490400  0.34349800  0.83411200  1
  O  O39  1  0.11405500  0.25585000  0.84749300  1
  O  O40  1  0.86746000  0.04425000  0.85095400  1
  O  O41  1  0.52864600  0.58216800  0.84311400  1
  O  O42  1  0.87374700  0.47437300  0.84911400  1
  O  O43  1  0.47464900  0.83232600  0.85155800  1
  O  O44  1  0.98417300  0.77068500  0.89375300  1
  O  O45  1  0.29419500  0.53422800  0.90321300  1
  O  O46  1  0.27819200  0.96936700  0.89734900  1
  O  O47  1  0.70154300  0.75133500  0.89994000  1
loop_
_geom_bond_atom_site_label_1
_geom_bond_atom_site_label_2
_geom_bond_distance
_geom_bond_site_symmetry_2
Li0 O0 2.045885 1_555
Li0 O46 2.074232 1_544
Li0 O7 2.088818 1_545
Li0 O39 2.162583 1_554
Li0 O3 2.230484 1_555
Li1 O0 2.020573 1_555
Li1 O5 2.059827 1_555
Li1 O45 2.068422 1_554
Li1 O39 2.128924 1_554
Li1 O3 2.513679 1_555
Li2 O24 2.045885 1_555
Li2 O22 2.074232 1_545
Li2 O31 2.088818 1_545
Li2 O15 2.162583 1_555
Li2 O27 2.230484 1_555
Li3 O23 2.020573 1_555
Li3 O18 2.059827 1_555
Li3 O26 2.068422 1_555
Li3 O32 2.128924 1_555
Li3 O20 2.513679 1_555
Li4 O24 2.020573 1_555
Li4 O29 2.059827 1_555
Li4 O21 2.068422 1_555
Li4 O15 2.128924 1_555
Li4 O27 2.513679 1_555
Li5 O23 2.045885 1_555
Li5 O25 2.074232 1_565
Li5 O16 2.088818 1_565
Li5 O32 2.162583 1_555
Li5 O20 2.230484 1_555
Li6 O47 2.020573 1_555
Li6 O42 2.059827 1_555
Li6 O2 2.068422 1_556
Li6 O8 2.128924 1_556
Li6 O44 2.513679 1_555
Li7 O47 2.045885 1_555
Li7 O1 2.074232 1_566
Li7 O40 2.088818 1_565
Li7 O8 2.162583 1_556
Li7 O44 2.230484 1_555
O0 P1 1.496740 1_555
O1 P0 1.504289 1_555
O1 Sn3 2.588498 1_554
O2 P2 1.502877 1_555
O2 Sn3 2.574745 1_554
O3 P4 1.504086 1_455
O3 Sn3 2.629057 1_454
O4 P0 1.607655 1_555
O4 P1 1.637982 1_555
O5 P5 1.512165 1_555
O5 Sn0 2.564993 1_555
O6 P2 1.617947 1_555
O6 P1 1.625605 1_555
O7 P7 1.510215 1_555
O7 Sn0 2.465325 1_555
O8 P6 1.500278 1_555
O9 P3 1.609116 1_555
O9 P2 1.612094 1_555
O10 P3 1.606754 1_555
O10 P0 1.613301 1_565
O11 P3 1.503271 1_555
O11 Sn0 2.336894 1_555
O11 Sn2 3.097386 1_555
O12 P4 1.503271 1_555
O12 Sn1 2.336894 1_555
O12 Sn3 3.097386 1_554
O13 P4 1.606754 1_455
O13 P7 1.613301 1_545
O14 P4 1.609116 1_455
O14 P5 1.612094 1_555
O15 P1 1.500278 1_555
O16 P0 1.510215 1_555
O16 Sn1 2.465325 1_555
O17 P5 1.617947 1_655
O17 P6 1.625605 1_555
O18 P2 1.512165 1_555
O18 Sn1 2.564993 1_555
O19 P7 1.607655 1_555
O19 P6 1.637982 1_455
O20 P3 1.504086 1_555
O20 Sn2 2.629057 1_555
O21 P5 1.502877 1_555
O21 Sn2 2.574745 1_555
O22 P7 1.504289 1_555
O22 Sn2 2.588498 1_555
O23 P6 1.496740 1_555
O24 P9 1.496740 1_555
O25 P8 1.504289 1_555
O25 Sn1 2.588498 1_555
O26 P10 1.502877 1_555
O26 Sn1 2.574745 1_555
O27 P12 1.504086 1_555
O27 Sn1 2.629057 1_555
O28 P8 1.607655 1_555
O28 P9 1.637982 1_655
O29 P13 1.512165 1_555
O29 Sn2 2.564993 1_555
O30 P10 1.617947 1_455
O30 P9 1.625605 1_555
O31 P15 1.510215 1_555
O31 Sn2 2.465325 1_555
O32 P14 1.500278 1_555
O33 P11 1.609116 1_655
O33 P10 1.612094 1_555
O34 P11 1.606754 1_655
O34 P8 1.613301 1_565
O35 P11 1.503271 1_555
O35 Sn2 2.336894 1_555
O35 Sn0 3.097386 1_556
O36 P12 1.503271 1_555
O36 Sn3 2.336894 1_555
O36 Sn1 3.097386 1_555
O37 P12 1.606754 1_555
O37 P15 1.613301 1_545
O38 P12 1.609116 1_555
O38 P13 1.612094 1_555
O39 P9 1.500278 1_555
O40 P8 1.510215 1_555
O40 Sn3 2.465325 1_555
O41 P13 1.617947 1_555
O41 P14 1.625605 1_555
O42 P10 1.512165 1_555
O42 Sn3 2.564993 1_555
O43 P15 1.607655 1_555
O43 P14 1.637982 1_555
O44 P11 1.504086 1_655
O44 Sn0 2.629057 1_656
O45 P13 1.502877 1_555
O45 Sn0 2.574745 1_556
O46 P15 1.504289 1_555
O46 Sn0 2.588498 1_556
O47 P14 1.496740 1_555
