# generated using pymatgen
data_Na4LaYSi(PO6)2
_symmetry_space_group_name_H-M   'P 1'
_cell_length_a   9.62729263
_cell_length_b   9.62411944
_cell_length_c   23.36233904
_cell_angle_alpha   90.02514484
_cell_angle_beta   90.01469341
_cell_angle_gamma   119.96867162
_symmetry_Int_Tables_number   1
_chemical_formula_structural   Na4LaYSi(PO6)2
_chemical_formula_sum   'Na24 La6 Y6 Si6 P12 O72'
_cell_volume   1875.20623151
_cell_formula_units_Z   6
loop_
 _symmetry_equiv_pos_site_id
 _symmetry_equiv_pos_as_xyz
  1  'x, y, z'
loop_
 _atom_site_type_symbol
 _atom_site_label
 _atom_site_symmetry_multiplicity
 _atom_site_fract_x
 _atom_site_fract_y
 _atom_site_fract_z
 _atom_site_occupancy
  Na  Na0  1  0.64080679  0.00323415  0.25494075  1
  Na  Na1  1  0.35671062  0.36654564  0.24901547  1
  Na  Na2  1  0.00525496  0.62688289  0.25207584  1
  Na  Na3  1  0.63651045  0.63799139  0.74263123  1
  Na  Na4  1  0.98731394  0.35731081  0.74848611  1
  Na  Na5  1  0.37972530  0.00786882  0.74512157  1
  Na  Na6  1  0.30138290  0.32398740  0.58123495  1
  Na  Na7  1  0.04103386  0.71098435  0.58002446  1
  Na  Na8  1  0.66132395  0.96870549  0.59086364  1
  Na  Na9  1  0.28864136  0.96300679  0.08175618  1
  Na  Na10  1  0.68168837  0.70430271  0.08252906  1
  Na  Na11  1  0.03295569  0.33522837  0.09280992  1
  Na  Na12  1  0.97177066  0.67588365  0.92348527  1
  Na  Na13  1  0.69550895  0.03552726  0.90871505  1
  Na  Na14  1  0.33278594  0.29317729  0.91628250  1
  Na  Na15  1  0.96672354  0.30753198  0.40773795  1
  Na  Na16  1  0.32443855  0.02539039  0.42164878  1
  Na  Na17  1  0.70752685  0.66638161  0.41507326  1
  Na  Na18  1  0.00966324  0.99004465  0.50014884  1
  Na  Na19  1  0.00792243  0.99178243  0.00053903  1
  Na  Na20  1  0.65952804  0.31630882  0.83402884  1
  Na  Na21  1  0.68289470  0.34030591  0.33643303  1
  Na  Na22  1  0.31700359  0.65750277  0.16729069  1
  Na  Na23  1  0.34111751  0.68244654  0.66628178  1
  La  La0  1  0.00027226  0.99948519  0.84294831  1
  La  La1  1  0.67233374  0.33540366  0.18326337  1
  La  La2  1  0.66848869  0.33344016  0.98921964  1
  La  La3  1  0.33023522  0.67044532  0.01343205  1
  La  La4  1  0.33008457  0.66987435  0.51291648  1
  La  La5  1  0.33617395  0.67447252  0.81734535  1
  Y  Y0  1  0.00043860  0.00090180  0.34893690  1
  Y  Y1  1  0.99958984  0.99932924  0.64937439  1
  Y  Y2  1  0.00109839  0.00068413  0.15490646  1
  Y  Y3  1  0.66363995  0.32682324  0.67969040  1
  Y  Y4  1  0.66543797  0.33088197  0.48434266  1
  Y  Y5  1  0.32673059  0.66378254  0.31905069  1
  Si  Si0  1  0.00608349  0.30742527  0.25173186  1
  Si  Si1  1  0.69331897  0.00356672  0.74804203  1
  Si  Si2  1  0.36030734  0.03056296  0.58238380  1
  Si  Si3  1  0.98023326  0.65139940  0.08460338  1
  Si  Si4  1  0.33387738  0.98356556  0.91658964  1
  Si  Si5  1  0.02122393  0.66542313  0.41679353  1
  P  P0  1  0.29902846  0.99429326  0.25201382  1
  P  P1  1  0.69400227  0.70266057  0.25177376  1
  P  P2  1  0.30912850  0.30734028  0.74650656  1
  P  P3  1  0.99471942  0.68955799  0.74661734  1
  P  P4  1  0.96470589  0.32761887  0.58326302  1
  P  P5  1  0.67089603  0.63480867  0.58357194  1
  P  P6  1  0.67305021  0.02074031  0.08543396  1
  P  P7  1  0.35029307  0.32824416  0.08577792  1
  P  P8  1  0.64477941  0.66523736  0.91671812  1
  P  P9  1  0.02155220  0.35464090  0.91538054  1
  P  P10  1  0.64025671  0.97477415  0.41509514  1
  P  P11  1  0.33641093  0.36065351  0.41599124  1
  O  O0  1  0.20910550  0.00718666  0.30513684  1
  O  O1  1  0.79958249  0.78801184  0.30504667  1
  O  O2  1  0.99099465  0.19941797  0.30818590  1
  O  O3  1  0.23833954  0.21500245  0.80317150  1
  O  O4  1  0.97919717  0.76363357  0.80337682  1
  O  O5  1  0.78751608  0.01963188  0.80851145  1
  O  O6  1  0.79522497  0.98850911  0.69412277  1
  O  O7  1  0.19985720  0.20831217  0.69571133  1
  O  O8  1  0.01302533  0.80251190  0.69603336  1
  O  O9  1  0.78058812  0.79992564  0.19732741  1
  O  O10  1  0.01948812  0.21822737  0.19366643  1
  O  O11  1  0.19996768  0.97805900  0.19746396  1
  O  O12  1  0.88263424  0.34737170  0.63742796  1
  O  O13  1  0.46744817  0.12218166  0.63921832  1
  O  O14  1  0.65734319  0.53651327  0.63795972  1
  O  O15  1  0.88586605  0.53709247  0.13982948  1
  O  O16  1  0.64761757  0.10419479  0.13796409  1
  O  O17  1  0.45428948  0.34559280  0.13886701  1
  O  O18  1  0.43174628  0.31127394  0.03091921  1
  O  O19  1  0.87717344  0.56771847  0.02584649  1
  O  O20  1  0.68908243  0.11859792  0.03068520  1
  O  O21  1  0.45072657  0.13584708  0.52485488  1
  O  O22  1  0.68441921  0.54719376  0.52986099  1
  O  O23  1  0.86358892  0.31535572  0.52984533  1
  O  O24  1  0.55943350  0.67504041  0.97153665  1
  O  O25  1  0.12019952  0.44061088  0.96948239  1
  O  O26  1  0.31888417  0.87986125  0.97447387  1
  O  O27  1  0.56687922  0.87417733  0.46996145  1
  O  O28  1  0.31046686  0.43273517  0.47155425  1
  O  O29  1  0.12704918  0.69468053  0.47545183  1
  O  O30  1  0.11837390  0.64304951  0.36271564  1
  O  O31  1  0.53258333  0.88592660  0.36293332  1
  O  O32  1  0.35595456  0.47085079  0.36444111  1
  O  O33  1  0.10905614  0.45204445  0.86111637  1
  O  O34  1  0.34874579  0.89087716  0.85970267  1
  O  O35  1  0.54354663  0.65239969  0.86314365  1
  O  O36  1  0.99862455  0.82490550  0.41282472  1
  O  O37  1  0.81286411  0.99907578  0.40998582  1
  O  O38  1  0.18719412  0.18829568  0.41040196  1
  O  O39  1  0.00182962  0.18415354  0.91498084  1
  O  O40  1  0.17207725  0.00120573  0.91604201  1
  O  O41  1  0.81369737  0.81871315  0.91558117  1
  O  O42  1  0.97614595  0.17122753  0.58557377  1
  O  O43  1  0.17965434  0.01265730  0.58349689  1
  O  O44  1  0.82454592  0.80478483  0.58511922  1
  O  O45  1  0.99610553  0.82979630  0.08790131  1
  O  O46  1  0.82944403  0.01156343  0.08984407  1
  O  O47  1  0.18222490  0.17436534  0.08887084  1
  O  O48  1  0.67567653  0.16603070  0.74564560  1
  O  O49  1  0.48191427  0.33276837  0.74198182  1
  O  O50  1  0.84066699  0.52212760  0.74175448  1
  O  O51  1  0.66712211  0.52899362  0.25064777  1
  O  O52  1  0.84479899  0.32806936  0.25309242  1
  O  O53  1  0.46797218  0.14746688  0.25117854  1
  O  O54  1  0.66394145  0.51411764  0.91672672  1
  O  O55  1  0.85278966  0.33973766  0.91609829  1
  O  O56  1  0.49617072  0.16260774  0.91654346  1
  O  O57  1  0.65328516  0.14304563  0.41840254  1
  O  O58  1  0.49094179  0.34707069  0.41874873  1
  O  O59  1  0.84311594  0.50080106  0.41841898  1
  O  O60  1  0.32996109  0.47870395  0.08433542  1
  O  O61  1  0.16042209  0.67018055  0.08561791  1
  O  O62  1  0.52797193  0.84679535  0.08334530  1
  O  O63  1  0.34324188  0.85022940  0.58348128  1
  O  O64  1  0.51895157  0.65310422  0.58194616  1
  O  O65  1  0.13770220  0.47473194  0.58108857  1
  O  O66  1  0.31859005  0.84319883  0.25487866  1
  O  O67  1  0.52848981  0.69420808  0.25505160  1
  O  O68  1  0.17027475  0.48699407  0.25279646  1
  O  O69  1  0.31935533  0.47377184  0.74597751  1
  O  O70  1  0.14422616  0.66740240  0.74595009  1
  O  O71  1  0.51339101  0.84111208  0.74525419  1
loop_
_geom_bond_atom_site_label_1
_geom_bond_atom_site_label_2
_geom_bond_distance
_geom_bond_site_symmetry_2
Na0 O67 2.607999 1_545
Na0 O53 2.647793 1_555
Na0 O66 2.687339 1_545
Na0 O52 2.738348 1_555
Na0 O31 2.748482 1_545
Na0 O16 2.890614 1_555
Na0 O9 3.174964 1_545
Na0 O2 3.180363 1_555
Na0 O1 3.340902 1_545
Na1 O68 2.579107 1_555
Na1 O51 2.590089 1_555
Na1 O67 2.736511 1_555
Na1 O17 2.781226 1_555
Na1 O53 2.802108 1_555
Na1 O32 2.878266 1_555
Na1 O10 3.100975 1_555
Na1 O0 3.285518 1_555
Na1 O2 3.352781 1_455
Na2 O52 2.493794 1_455
Na2 O68 2.544331 1_555
Na2 O66 2.676520 1_555
Na2 O30 2.778548 1_555
Na2 O15 2.819339 1_455
Na2 O51 2.902012 1_455
Na2 O11 3.200004 1_555
Na2 O1 3.305161 1_455
Na3 O49 2.544877 1_555
Na3 O69 2.646884 1_555
Na3 O14 2.677262 1_555
Na3 O50 2.701209 1_555
Na3 O71 2.746820 1_555
Na3 O35 2.978581 1_555
Na3 O6 3.139047 1_555
Na3 O4 3.220417 1_555
Na3 O8 3.331823 1_655
Na4 O70 2.586140 1_655
Na4 O50 2.602202 1_555
Na4 O48 2.622322 1_555
Na4 O12 2.767443 1_555
Na4 O69 2.810509 1_655
Na4 O33 2.838565 1_655
Na4 O5 3.160411 1_555
Na4 O7 3.270267 1_655
Na4 O6 3.326905 1_545
Na5 O48 2.470271 1_555
Na5 O71 2.508964 1_545
Na5 O13 2.668373 1_555
Na5 O49 2.770831 1_555
Na5 O34 2.861810 1_545
Na5 O70 2.907833 1_545
Na5 O3 3.221087 1_555
Na5 O8 3.272576 1_545
Na5 O7 3.375017 1_555
Na6 O43 2.616481 1_555
Na6 O65 2.621435 1_555
Na6 O42 2.716084 1_455
Na6 O28 2.753167 1_555
Na6 O64 2.791430 1_555
Na6 O7 2.874749 1_555
Na6 O21 3.111348 1_555
Na6 O14 3.267448 1_555
Na6 O13 3.356571 1_555
Na6 O22 3.426952 1_555
Na7 O43 2.519073 1_565
Na7 O63 2.524240 1_555
Na7 O29 2.609487 1_555
Na7 O44 2.655697 1_455
Na7 O65 2.854930 1_555
Na7 O8 2.903381 1_555
Na7 O22 3.199199 1_455
Na7 O12 3.323230 1_455
Na8 O64 2.643451 1_555
Na8 O42 2.664399 1_565
Na8 O63 2.686733 1_555
Na8 O6 2.696332 1_555
Na8 O44 2.729952 1_555
Na8 O27 2.966905 1_555
Na8 O13 3.113791 1_565
Na8 O23 3.235662 1_565
Na8 O12 3.352924 1_565
Na9 O45 2.447261 1_455
Na9 O61 2.449265 1_555
Na9 O26 2.690417 1_554
Na9 O47 2.701251 1_565
Na9 O11 2.860328 1_555
Na9 O62 3.022534 1_555
Na9 O18 3.151812 1_565
Na9 O16 3.289224 1_565
Na10 O62 2.469524 1_555
Na10 O46 2.567909 1_565
Na10 O45 2.642790 1_555
Na10 O24 2.802697 1_554
Na10 O9 2.840335 1_555
Na10 O60 2.972734 1_555
Na10 O19 3.081348 1_555
Na10 O17 3.301219 1_555
Na10 O15 3.377342 1_555
Na11 O60 2.485518 1_555
Na11 O47 2.587095 1_555
Na11 O10 2.587136 1_555
Na11 O46 2.729307 1_455
Na11 O61 2.823882 1_555
Na11 O25 3.031217 1_554
Na11 O15 3.119887 1_455
Na11 O20 3.242278 1_455
Na12 O41 2.515865 1_555
Na12 O54 2.573229 1_555
Na12 O19 2.586118 1_556
Na12 O40 2.742338 1_665
Na12 O55 2.846931 1_555
Na12 O4 2.921283 1_555
Na12 O26 3.143571 1_655
Na12 O33 3.369503 1_655
Na13 O5 2.534634 1_555
Na13 O55 2.542583 1_555
Na13 O39 2.559216 1_655
Na13 O56 2.749008 1_555
Na13 O41 2.836669 1_545
Na13 O20 2.968199 1_556
Na13 O34 3.122110 1_545
Na13 O24 3.372165 1_545
Na14 O40 2.438503 1_555
Na14 O56 2.455205 1_555
Na14 O3 2.772975 1_555
Na14 O54 2.812998 1_555
Na14 O39 2.813139 1_555
Na14 O18 2.818364 1_556
Na14 O35 3.256891 1_555
Na14 O25 3.263093 1_555
Na15 O37 2.572282 1_545
Na15 O2 2.605283 1_555
Na15 O57 2.627187 1_555
Na15 O59 2.673811 1_555
Na15 O38 2.873896 1_655
Na15 O30 2.993089 1_655
Na15 O23 3.034051 1_555
Na15 O28 3.261649 1_655
Na16 O38 2.518468 1_555
Na16 O21 2.669616 1_555
Na16 O58 2.683460 1_555
Na16 O36 2.749030 1_445
Na16 O57 2.780218 1_555
Na16 O0 2.911440 1_555
Na16 O29 3.046881 1_545
Na16 O31 3.222664 1_545
Na17 O36 2.431638 1_555
Na17 O59 2.515507 1_555
Na17 O58 2.719854 1_555
Na17 O1 2.780364 1_555
Na17 O37 2.837435 1_555
Na17 O22 2.881824 1_555
Na17 O32 3.166896 1_555
Na17 O27 3.190798 1_555
Na18 O43 2.481824 1_565
Na18 O36 2.554901 1_455
Na18 O44 2.669483 1_455
Na18 O42 2.772550 1_465
Na18 O38 2.775814 1_565
Na18 O37 2.863016 1_455
Na19 O40 2.502242 1_564
Na19 O45 2.536670 1_455
Na19 O41 2.663429 1_454
Na19 O47 2.685402 1_565
Na19 O39 2.745574 1_564
Na19 O46 2.769463 1_465
Na20 O56 2.461206 1_555
Na20 O48 2.569373 1_555
Na20 O55 2.601433 1_555
Na20 O54 2.697150 1_555
Na20 O49 2.800425 1_555
Na20 O50 2.857734 1_555
Na21 O59 2.459557 1_555
Na21 O52 2.533592 1_555
Na21 O57 2.610638 1_555
Na21 O58 2.690626 1_555
Na21 O51 2.759685 1_555
Na21 O53 2.801942 1_555
Na22 O61 2.471945 1_555
Na22 O68 2.523336 1_555
Na22 O60 2.635196 1_555
Na22 O66 2.711247 1_555
Na22 O62 2.756584 1_555
Na22 O67 2.784356 1_555
Na23 O71 2.439713 1_555
Na23 O63 2.513881 1_555
Na23 O70 2.608844 1_555
Na23 O69 2.669628 1_555
Na23 O64 2.716091 1_555
Na23 O65 2.806435 1_555
La0 O5 2.297022 1_465
La0 O4 2.363487 1_455
La0 O40 2.371338 1_565
La0 O3 2.381626 1_565
La0 O39 2.441646 1_565
La0 O41 2.452484 1_455
La1 O15 2.244933 1_555
La1 O52 2.353506 1_555
La1 O16 2.365771 1_555
La1 O17 2.386749 1_555
La1 O51 2.458236 1_555
La1 O53 2.471587 1_555
La2 O19 2.307414 1_556
La2 O56 2.368382 1_555
La2 O20 2.379960 1_556
La2 O18 2.388480 1_556
La2 O55 2.442198 1_555
La2 O54 2.443860 1_555
La3 O26 2.263611 1_554
La3 O61 2.348194 1_555
La3 O25 2.358860 1_554
La3 O24 2.394267 1_554
La3 O62 2.437289 1_555
La3 O60 2.479315 1_555
La4 O29 2.260393 1_555
La4 O63 2.350398 1_555
La4 O27 2.365352 1_555
La4 O28 2.396972 1_555
La4 O65 2.454199 1_555
La4 O64 2.494971 1_555
La5 O34 2.253406 1_555
La5 O71 2.364257 1_555
La5 O35 2.366116 1_555
La5 O33 2.394984 1_555
La5 O70 2.464608 1_555
La5 O69 2.494334 1_555
O0 P0 1.553342 1_545
O0 Y0 2.228481 1_555
O1 P1 1.556021 1_555
O1 Y0 2.242203 1_665
O2 Si0 1.640594 1_655
O2 Y0 2.177134 1_655
O3 P2 1.550205 1_555
O4 P3 1.547465 1_555
O5 Si1 1.643508 1_555
O6 Si1 1.647065 1_565
O6 Y1 2.184308 1_555
O7 P2 1.555620 1_555
O7 Y1 2.248848 1_445
O8 P3 1.555376 1_455
O8 Y1 2.244873 1_455
O9 P1 1.552777 1_555
O9 Y2 2.264281 1_665
O10 Si0 1.644248 1_555
O10 Y2 2.205147 1_555
O11 P0 1.551901 1_555
O11 Y2 2.262130 1_565
O12 P4 1.553092 1_555
O12 Y3 2.245814 1_555
O13 Si2 1.641363 1_555
O13 Y3 2.149761 1_555
O14 P5 1.550570 1_555
O14 Y3 2.269522 1_555
O15 Si3 1.644261 1_555
O16 P6 1.551414 1_555
O17 P7 1.549441 1_555
O18 P7 1.553209 1_555
O19 Si3 1.648441 1_555
O20 P6 1.550072 1_555
O21 Si2 1.646639 1_555
O21 Y4 2.195029 1_555
O22 P5 1.552853 1_555
O22 Y4 2.261873 1_555
O23 P4 1.550313 1_555
O23 Y4 2.252874 1_555
O24 P8 1.549856 1_555
O25 P9 1.548388 1_555
O26 Si4 1.644100 1_555
O27 P10 1.548438 1_555
O28 P11 1.549560 1_555
O29 Si5 1.645475 1_555
O30 Si5 1.648893 1_555
O30 Y5 2.169212 1_555
O31 P10 1.550370 1_555
O31 Y5 2.305091 1_555
O32 P11 1.553212 1_555
O32 Y5 2.274829 1_555
O33 P9 1.551848 1_555
O34 Si4 1.645944 1_555
O35 P8 1.552614 1_555
O36 Si5 1.656963 1_655
O36 Y0 2.251607 1_665
O37 P10 1.562747 1_555
O37 Y0 2.294594 1_665
O38 P11 1.565681 1_555
O38 Y0 2.303066 1_555
O39 P9 1.554693 1_555
O40 Si4 1.649121 1_545
O41 P8 1.557988 1_555
O42 P4 1.564014 1_555
O42 Y1 2.320473 1_545
O43 Si2 1.660057 1_555
O43 Y1 2.273690 1_445
O44 P5 1.564573 1_555
O44 Y1 2.333007 1_555
O45 Si3 1.647679 1_555
O45 Y2 2.253077 1_665
O46 P6 1.555048 1_555
O46 Y2 2.285626 1_655
O47 P7 1.556494 1_555
O47 Y2 2.303569 1_555
O48 Si1 1.655939 1_555
O48 Y3 2.227907 1_555
O49 P2 1.559350 1_555
O49 Y3 2.298516 1_555
O50 P3 1.556024 1_555
O50 Y3 2.309968 1_555
O51 P1 1.558541 1_555
O52 Si0 1.661232 1_655
O53 P0 1.556782 1_545
O54 P8 1.554782 1_555
O55 P9 1.558137 1_655
O56 Si4 1.649442 1_545
O57 P10 1.562472 1_545
O57 Y4 2.332601 1_555
O58 P11 1.558455 1_555
O58 Y4 2.335623 1_555
O59 Si5 1.654619 1_655
O59 Y4 2.276222 1_555
O60 P7 1.555472 1_555
O61 Si3 1.652041 1_455
O62 P6 1.555507 1_565
O63 Si2 1.659807 1_565
O64 P5 1.558709 1_555
O65 P4 1.557337 1_455
O66 P0 1.558260 1_555
O66 Y5 2.317920 1_555
O67 P1 1.556307 1_555
O67 Y5 2.351130 1_555
O68 Si0 1.660325 1_555
O68 Y5 2.235094 1_555
O69 P2 1.554971 1_555
O70 P3 1.556936 1_455
O71 Si1 1.656329 1_565
