# generated using pymatgen
data_Sr4Mg(Fe2O5)2
_symmetry_space_group_name_H-M   'P 1'
_cell_length_a   5.66249742
_cell_length_b   5.89699639
_cell_length_c   8.99173335
_cell_angle_alpha   108.84053580
_cell_angle_beta   106.94755907
_cell_angle_gamma   83.57272223
_symmetry_Int_Tables_number   1
_chemical_formula_structural   Sr4Mg(Fe2O5)2
_chemical_formula_sum   'Sr4 Mg1 Fe4 O10'
_cell_volume   271.76923417
_cell_formula_units_Z   1
loop_
 _symmetry_equiv_pos_site_id
 _symmetry_equiv_pos_as_xyz
  1  'x, y, z'
loop_
 _atom_site_type_symbol
 _atom_site_label
 _atom_site_symmetry_multiplicity
 _atom_site_fract_x
 _atom_site_fract_y
 _atom_site_fract_z
 _atom_site_occupancy
  Sr  Sr0  1  0.37252263  0.90057023  0.76537260  1
  Sr  Sr1  1  0.51722843  0.02342372  0.17796637  1
  Sr  Sr2  1  0.92632963  0.40102721  0.77373495  1
  Sr  Sr3  1  0.12228148  0.64846844  0.20270157  1
  Mg  Mg0  1  0.88262715  0.36418505  0.33038302  1
  Fe  Fe0  1  0.96040129  0.99423633  0.96759902  1
  Fe  Fe1  1  0.50916856  0.47495052  0.98859028  1
  Fe  Fe2  1  0.76220123  0.77465052  0.50935343  1
  Fe  Fe3  1  0.35796019  0.32764473  0.51327603  1
  O  O0  1  0.77531528  0.25997698  0.08506522  1
  O  O1  1  0.74296397  0.74593901  0.97337253  1
  O  O2  1  0.21585513  0.23039976  0.99185598  1
  O  O3  1  0.22486317  0.73844993  0.97084664  1
  O  O4  1  0.82932283  0.94871152  0.73378761  1
  O  O5  1  0.15773607  0.10219751  0.32820195  1
  O  O6  1  0.38146747  0.31050576  0.72167332  1
  O  O7  1  0.62933372  0.67471338  0.28063203  1
  O  O8  1  0.14045500  0.60769163  0.48810889  1
  O  O9  1  0.67421578  0.34725477  0.47605258  1
loop_
_geom_bond_atom_site_label_1
_geom_bond_atom_site_label_2
_geom_bond_distance
_geom_bond_site_symmetry_2
Mg0 O0 2.009788 1_555
Mg0 O9 2.032316 1_555
Mg0 O8 2.037577 1_655
Mg0 O5 2.067218 1_655
Mg0 O7 2.275413 1_555
Mg0 Sr1 2.774211 1_555
Fe0 O4 1.952765 1_555
Fe0 O0 1.969355 1_566
Fe0 O3 2.003954 1_655
Fe0 O2 2.037236 1_665
Fe0 O1 2.037774 1_555
Fe1 O0 2.037439 1_556
Fe1 O3 2.117063 1_555
Fe1 O6 2.205787 1_555
Fe1 O1 2.246216 1_555
Fe1 O2 2.330479 1_555
Fe1 O7 2.426147 1_556
Fe2 O7 1.886097 1_555
Fe2 O4 1.890208 1_555
Fe2 O8 2.288743 1_655
Fe2 O9 2.529186 1_555
Fe3 O6 1.874340 1_555
Fe3 O5 1.905472 1_555
Fe3 O9 1.937305 1_555
Fe3 O8 1.979611 1_555
O0 Sr1 2.588467 1_555
O0 Sr3 2.908313 1_655
O1 Sr1 2.579561 1_566
O1 Sr2 2.587085 1_555
O1 Sr3 2.665125 1_656
O1 Sr0 2.667499 1_555
O2 Sr1 2.527916 1_556
O2 Sr2 2.564668 1_455
O2 Sr0 2.612653 1_545
O2 Sr3 2.688385 1_556
O3 Sr1 2.416032 1_566
O3 Sr3 2.540619 1_556
O3 Sr2 2.585875 1_455
O3 Sr0 2.692018 1_555
O4 Sr2 2.671977 1_565
O4 Sr0 2.738002 1_555
O4 Sr0 2.994914 1_655
O5 Sr3 2.551636 1_545
O5 Sr1 2.677794 1_555
O6 Sr0 2.579387 1_545
O6 Sr2 2.716632 1_455
O6 Sr2 3.064043 1_555
O7 Sr1 2.464929 1_565
O7 Sr3 2.759559 1_555
O7 Sr3 3.046303 1_655
O8 Sr0 2.596599 1_555
O8 Sr3 2.625529 1_555
O9 Sr2 2.574609 1_555
O9 Sr1 2.702987 1_555
