# generated using pymatgen
data_Rb2PtI6
_symmetry_space_group_name_H-M   'P 1'
_cell_length_a   8.03195183
_cell_length_b   8.03195270
_cell_length_c   8.03195124
_cell_angle_alpha   60.00000603
_cell_angle_beta   60.00000244
_cell_angle_gamma   60.00000524
_symmetry_Int_Tables_number   1
_chemical_formula_structural   Rb2PtI6
_chemical_formula_sum   'Rb2 Pt1 I6'
_cell_volume   366.39399598
_cell_formula_units_Z   1
loop_
 _symmetry_equiv_pos_site_id
 _symmetry_equiv_pos_as_xyz
  1  'x, y, z'
loop_
 _atom_site_type_symbol
 _atom_site_label
 _atom_site_symmetry_multiplicity
 _atom_site_fract_x
 _atom_site_fract_y
 _atom_site_fract_z
 _atom_site_occupancy
  Rb  Rb0  1  0.75000000  0.75000000  0.75000000  1
  Rb  Rb1  1  0.25000000  0.25000000  0.25000000  1
  Pt  Pt0  1  -0.00000000  -0.00000000  0.00000000  1
  I  I0  1  0.76266880  0.23733120  0.23733120  1
  I  I1  1  0.23733120  0.76266880  0.76266880  1
  I  I2  1  0.76266880  0.23733120  0.76266880  1
  I  I3  1  0.23733120  0.76266880  0.23733120  1
  I  I4  1  0.76266880  0.76266880  0.23733120  1
  I  I5  1  0.23733120  0.23733120  0.76266880  1
loop_
_geom_bond_atom_site_label_1
_geom_bond_atom_site_label_2
_geom_bond_distance
_geom_bond_site_symmetry_2
I0 Pt0 2.695820 1_655
I0 Rb1 4.018553 1_655
I0 Rb1 4.018553 1_555
I0 Rb0 4.018554 1_545
I0 Rb0 4.018554 1_554
I1 Pt0 2.695820 1_566
I1 Rb0 4.018553 1_455
I1 Rb0 4.018553 1_555
I1 Rb1 4.018554 1_565
I1 Rb1 4.018554 1_556
I2 Pt0 2.695820 1_656
I2 Rb1 4.018553 1_655
I2 Rb1 4.018553 1_556
I2 Rb0 4.018554 1_545
I2 Rb0 4.018554 1_555
I3 Pt0 2.695820 1_565
I3 Rb0 4.018553 1_455
I3 Rb0 4.018553 1_554
I3 Rb1 4.018554 1_565
I3 Rb1 4.018554 1_555
I4 Pt0 2.695820 1_665
I4 Rb0 4.018553 1_554
I4 Rb0 4.018553 1_555
I4 Rb1 4.018554 1_565
I4 Rb1 4.018554 1_655
I5 Pt0 2.695820 1_556
I5 Rb1 4.018553 1_555
I5 Rb1 4.018553 1_556
I5 Rb0 4.018554 1_545
I5 Rb0 4.018554 1_455
