# generated using pymatgen
data_V(PO3)4
_symmetry_space_group_name_H-M   'P 1'
_cell_length_a   6.97309205
_cell_length_b   6.97309205
_cell_length_c   9.44092087
_cell_angle_alpha   88.18646607
_cell_angle_beta   88.18646607
_cell_angle_gamma   108.49029440
_symmetry_Int_Tables_number   1
_chemical_formula_structural   V(PO3)4
_chemical_formula_sum   'V2 P8 O24'
_cell_volume   434.71882159
_cell_formula_units_Z   2
loop_
 _symmetry_equiv_pos_site_id
 _symmetry_equiv_pos_as_xyz
  1  'x, y, z'
loop_
 _atom_site_type_symbol
 _atom_site_label
 _atom_site_symmetry_multiplicity
 _atom_site_fract_x
 _atom_site_fract_y
 _atom_site_fract_z
 _atom_site_occupancy
  V  V0  1  0.61119200  0.38880800  0.25000000  1
  V  V1  1  0.38880800  0.61119200  0.75000000  1
  P  P0  1  0.70926800  0.77422600  0.47137100  1
  P  P1  1  0.77422600  0.70926800  0.97137100  1
  P  P2  1  0.77971800  0.13430700  0.03333900  1
  P  P3  1  0.86569300  0.22028200  0.46666100  1
  P  P4  1  0.13430700  0.77971800  0.53333900  1
  P  P5  1  0.22028200  0.86569300  0.96666100  1
  P  P6  1  0.22577400  0.29073200  0.02862900  1
  P  P7  1  0.29073200  0.22577400  0.52862900  1
  O  O0  1  0.55744500  0.77108500  0.58997300  1
  O  O1  1  0.63223800  0.63257300  0.35205200  1
  O  O2  1  0.72360900  0.89011200  0.04405100  1
  O  O3  1  0.63257300  0.63223800  0.85205200  1
  O  O4  1  0.63515900  0.16182000  0.15187800  1
  O  O5  1  0.77108500  0.55744500  0.08997300  1
  O  O6  1  0.89011200  0.72360900  0.54405100  1
  O  O7  1  0.77630600  0.21689900  0.60902100  1
  O  O8  1  0.78310100  0.22369400  0.89097900  1
  O  O9  1  0.83818000  0.36484100  0.34812200  1
  O  O10  1  0.99449600  0.80040300  0.89854300  1
  O  O11  1  0.80040300  0.99449600  0.39854300  1
  O  O12  1  0.19959700  0.00550400  0.60145700  1
  O  O13  1  0.00550400  0.19959700  0.10145700  1
  O  O14  1  0.16182000  0.63515900  0.65187800  1
  O  O15  1  0.21689900  0.77630600  0.10902100  1
  O  O16  1  0.22369400  0.78310100  0.39097900  1
  O  O17  1  0.10988800  0.27639100  0.45594900  1
  O  O18  1  0.22891500  0.44255500  0.91002700  1
  O  O19  1  0.36484100  0.83818000  0.84812200  1
  O  O20  1  0.36742700  0.36776200  0.14794800  1
  O  O21  1  0.27639100  0.10988800  0.95594900  1
  O  O22  1  0.36776200  0.36742700  0.64794800  1
  O  O23  1  0.44255500  0.22891500  0.41002700  1
loop_
_geom_bond_atom_site_label_1
_geom_bond_atom_site_label_2
_geom_bond_distance
_geom_bond_site_symmetry_2
O0 P0 1.511205 1_555
O0 V1 1.964116 1_555
O1 P0 1.518334 1_555
O1 V0 1.947687 1_555
O2 P1 1.583472 1_554
O2 P2 1.620751 1_565
O3 P1 1.518334 1_555
O3 V1 1.947687 1_555
O4 P2 1.539543 1_555
O4 V0 1.908442 1_555
O5 P1 1.511205 1_554
O5 V0 1.964116 1_555
O6 P0 1.583472 1_555
O6 P4 1.620751 1_655
O7 P3 1.459818 1_555
O8 P2 1.459818 1_556
O9 P3 1.539543 1_555
O9 V0 1.908442 1_555
O10 P1 1.588129 1_555
O10 P5 1.651553 1_655
O11 P0 1.588129 1_555
O11 P3 1.651553 1_565
O12 P7 1.588129 1_555
O12 P4 1.651553 1_545
O13 P6 1.588129 1_555
O13 P2 1.651553 1_455
O14 P4 1.539543 1_555
O14 V1 1.908442 1_555
O15 P5 1.459818 1_554
O16 P4 1.459818 1_555
O17 P7 1.583472 1_555
O17 P3 1.620751 1_455
O18 P6 1.511205 1_556
O18 V1 1.964116 1_555
O19 P5 1.539543 1_555
O19 V1 1.908442 1_555
O20 P6 1.518334 1_555
O20 V0 1.947687 1_555
O21 P6 1.583472 1_556
O21 P5 1.620751 1_545
O22 P7 1.518334 1_555
O22 V1 1.947687 1_555
O23 P7 1.511205 1_555
O23 V0 1.964116 1_555
