# generated using pymatgen
data_Re3Te4Cl5
_symmetry_space_group_name_H-M   'P 1'
_cell_length_a   9.43250600
_cell_length_b   16.00341100
_cell_length_c   20.33187700
_cell_angle_alpha   90.00000000
_cell_angle_beta   90.00000000
_cell_angle_gamma   90.00000000
_symmetry_Int_Tables_number   1
_chemical_formula_structural   Re3Te4Cl5
_chemical_formula_sum   'Re24 Te32 Cl40'
_cell_volume   3069.14299216
_cell_formula_units_Z   8
loop_
 _symmetry_equiv_pos_site_id
 _symmetry_equiv_pos_as_xyz
  1  'x, y, z'
loop_
 _atom_site_type_symbol
 _atom_site_label
 _atom_site_symmetry_multiplicity
 _atom_site_fract_x
 _atom_site_fract_y
 _atom_site_fract_z
 _atom_site_occupancy
  Re  Re0  1  0.45117700  0.76717800  0.34130300  1
  Re  Re1  1  0.95117700  0.23282200  0.65869700  1
  Re  Re2  1  0.45117700  0.73282200  0.84130300  1
  Re  Re3  1  0.95117700  0.26717800  0.15869700  1
  Re  Re4  1  0.80075600  0.69063700  0.27150900  1
  Re  Re5  1  0.30075600  0.30936300  0.72849100  1
  Re  Re6  1  0.80075600  0.80936300  0.77150900  1
  Re  Re7  1  0.30075600  0.19063700  0.22849100  1
  Re  Re8  1  0.52752200  0.66300300  0.24464400  1
  Re  Re9  1  0.02752200  0.33699700  0.75535600  1
  Re  Re10  1  0.52752200  0.83699700  0.74464400  1
  Re  Re11  1  0.02752200  0.16300300  0.25535600  1
  Re  Re12  1  0.62641200  0.81901200  0.24712000  1
  Re  Re13  1  0.12641200  0.18098800  0.75288000  1
  Re  Re14  1  0.62641200  0.68098800  0.74712000  1
  Re  Re15  1  0.12641200  0.31901200  0.25288000  1
  Re  Re16  1  0.62318400  0.63708400  0.36689700  1
  Re  Re17  1  0.12318400  0.36291600  0.63310300  1
  Re  Re18  1  0.62318400  0.86291600  0.86689700  1
  Re  Re19  1  0.12318400  0.13708400  0.13310300  1
  Re  Re20  1  0.72635100  0.79495300  0.36920500  1
  Re  Re21  1  0.22635100  0.20504700  0.63079500  1
  Re  Re22  1  0.72635100  0.70504700  0.86920500  1
  Re  Re23  1  0.22635100  0.29495300  0.13079500  1
  Te  Te0  1  0.55456600  0.92730800  0.34258600  1
  Te  Te1  1  0.05456600  0.07269200  0.65741400  1
  Te  Te2  1  0.55456600  0.57269200  0.84258600  1
  Te  Te3  1  0.05456600  0.42730800  0.15741400  1
  Te  Te4  1  0.54623000  0.74564800  0.46515200  1
  Te  Te5  1  0.04623000  0.25435200  0.53484800  1
  Te  Te6  1  0.54623000  0.75435200  0.96515200  1
  Te  Te7  1  0.04623000  0.24564800  0.03484800  1
  Te  Te8  1  0.34712800  0.60874900  0.33722900  1
  Te  Te9  1  0.84712800  0.39125100  0.66277100  1
  Te  Te10  1  0.34712800  0.89125100  0.83722900  1
  Te  Te11  1  0.84712800  0.10874900  0.16277100  1
  Te  Te12  1  0.61185100  0.52302600  0.46175500  1
  Te  Te13  1  0.11185100  0.47697400  0.53824500  1
  Te  Te14  1  0.61185100  0.97697400  0.96175500  1
  Te  Te15  1  0.11185100  0.02302600  0.03824500  1
  Te  Te16  1  0.90117500  0.85053600  0.27115500  1
  Te  Te17  1  0.40117500  0.14946400  0.72884500  1
  Te  Te18  1  0.90117500  0.64946400  0.77115500  1
  Te  Te19  1  0.40117500  0.35053600  0.22884500  1
  Te  Te20  1  0.88933200  0.89786300  0.44146100  1
  Te  Te21  1  0.38933200  0.10213700  0.55853900  1
  Te  Te22  1  0.88933200  0.60213700  0.94146100  1
  Te  Te23  1  0.38933200  0.39786300  0.05853900  1
  Te  Te24  1  0.90226200  0.66508700  0.39306300  1
  Te  Te25  1  0.40226200  0.33491300  0.60693700  1
  Te  Te26  1  0.90226200  0.83491300  0.89306300  1
  Te  Te27  1  0.40226200  0.16508700  0.10693700  1
  Te  Te28  1  0.69760300  0.53133900  0.26901800  1
  Te  Te29  1  0.19760300  0.46866100  0.73098200  1
  Te  Te30  1  0.69760300  0.96866100  0.76901800  1
  Te  Te31  1  0.19760300  0.03133900  0.23098200  1
  Cl  Cl0  1  0.98470400  0.81879200  0.53065500  1
  Cl  Cl1  1  0.48470400  0.18120800  0.46934500  1
  Cl  Cl2  1  0.98470400  0.68120800  0.03065500  1
  Cl  Cl3  1  0.48470400  0.31879200  0.96934500  1
  Cl  Cl4  1  0.80793500  0.42619000  0.44822200  1
  Cl  Cl5  1  0.30793500  0.57381000  0.55177800  1
  Cl  Cl6  1  0.80793500  0.07381000  0.94822200  1
  Cl  Cl7  1  0.30793500  0.92619000  0.05177800  1
  Cl  Cl8  1  0.22312500  0.81788300  0.37667300  1
  Cl  Cl9  1  0.72312500  0.18211700  0.62332700  1
  Cl  Cl10  1  0.22312500  0.68211700  0.87667300  1
  Cl  Cl11  1  0.72312500  0.31788300  0.12332700  1
  Cl  Cl12  1  0.44573100  0.41654600  0.42811000  1
  Cl  Cl13  1  0.94573100  0.58345400  0.57189000  1
  Cl  Cl14  1  0.44573100  0.08345400  0.92811000  1
  Cl  Cl15  1  0.94573100  0.91654600  0.07189000  1
  Cl  Cl16  1  0.40582900  0.59224600  0.15867000  1
  Cl  Cl17  1  0.90582900  0.40775400  0.84133000  1
  Cl  Cl18  1  0.40582900  0.90775400  0.65867000  1
  Cl  Cl19  1  0.90582900  0.09224600  0.34133000  1
  Cl  Cl20  1  0.60940500  0.92229400  0.16405600  1
  Cl  Cl21  1  0.10940500  0.07770600  0.83594400  1
  Cl  Cl22  1  0.60940500  0.57770600  0.66405600  1
  Cl  Cl23  1  0.10940500  0.42229400  0.33594400  1
  Cl  Cl24  1  0.01500100  0.64638700  0.22020100  1
  Cl  Cl25  1  0.51500100  0.35361300  0.77979900  1
  Cl  Cl26  1  0.01500100  0.85361300  0.72020100  1
  Cl  Cl27  1  0.51500100  0.14638700  0.27979900  1
  Cl  Cl28  1  0.73587000  0.97736900  0.51167900  1
  Cl  Cl29  1  0.23587000  0.02263100  0.48832100  1
  Cl  Cl30  1  0.73587000  0.52263100  0.01167900  1
  Cl  Cl31  1  0.23587000  0.47736900  0.98832100  1
  Cl  Cl32  1  0.69642000  0.71647400  0.15814900  1
  Cl  Cl33  1  0.19642000  0.28352600  0.84185100  1
  Cl  Cl34  1  0.69642000  0.78352600  0.65814900  1
  Cl  Cl35  1  0.19642000  0.21647400  0.34185100  1
  Cl  Cl36  1  0.36823000  0.78672700  0.22415500  1
  Cl  Cl37  1  0.86823000  0.21327300  0.77584500  1
  Cl  Cl38  1  0.36823000  0.71327300  0.72415500  1
  Cl  Cl39  1  0.86823000  0.28672700  0.27584500  1
loop_
_geom_bond_atom_site_label_1
_geom_bond_atom_site_label_2
_geom_bond_distance
_geom_bond_site_symmetry_2
Re0 Re12 2.662162 1_555
Re0 Re8 2.675860 1_555
Re0 Re16 2.690290 1_555
Re0 Re20 2.693778 1_555
Re0 Te4 2.695056 1_555
Re0 Te8 2.719994 1_555
Re0 Te0 2.742040 1_555
Re1 Re13 2.662162 1_655
Re1 Re9 2.675860 1_655
Re1 Re17 2.690290 1_655
Re1 Re21 2.693778 1_655
Re1 Te5 2.695056 1_655
Re1 Te9 2.719994 1_555
Re1 Te1 2.742040 1_655
Re2 Re22 2.693778 1_555
Re2 Te6 2.695056 1_555
Re2 Te10 2.719994 1_555
Re2 Te2 2.742040 1_555
Re3 Te7 2.695056 1_655
Re3 Te11 2.719994 1_555
Re3 Te3 2.742040 1_655
Re4 Re8 2.671386 1_555
Re4 Te24 2.681759 1_555
Re4 Te16 2.728620 1_555
Re4 Te28 2.729151 1_555
Re5 Re9 2.671386 1_555
Re5 Te25 2.681759 1_555
Re5 Te17 2.728620 1_555
Re5 Te29 2.729151 1_555
Re6 Te26 2.681759 1_555
Re6 Te18 2.728620 1_555
Re6 Te30 2.729151 1_555
Re7 Te27 2.681759 1_555
Re7 Te19 2.728620 1_555
Re7 Te31 2.729151 1_555
Re8 Te8 2.681925 1_555
Re8 Te28 2.694270 1_555
Re9 Te9 2.681925 1_455
Re9 Te29 2.694270 1_555
Re10 Re14 2.665709 1_555
Re10 Re6 2.671386 1_555
Re10 Re2 2.675860 1_555
Re10 Re18 2.676682 1_555
Re10 Te10 2.681925 1_555
Re10 Te30 2.694270 1_555
Re11 Re15 2.665709 1_555
Re11 Re7 2.671386 1_555
Re11 Re3 2.675860 1_455
Re11 Re19 2.676682 1_555
Re11 Te11 2.681925 1_455
Re11 Te31 2.694270 1_555
Re12 Re8 2.665709 1_555
Re12 Re4 2.677870 1_555
Re12 Re20 2.682962 1_555
Re12 Te16 2.685190 1_555
Re12 Te0 2.688942 1_555
Re13 Re9 2.665709 1_555
Re13 Re5 2.677870 1_555
Re13 Re21 2.682962 1_555
Re13 Te17 2.685190 1_555
Re13 Te1 2.688942 1_555
Re14 Re2 2.662162 1_555
Re14 Re6 2.677870 1_555
Re14 Re22 2.682962 1_555
Re14 Te18 2.685190 1_555
Re14 Te2 2.688942 1_555
Re15 Re3 2.662162 1_455
Re15 Re7 2.677870 1_555
Re15 Re23 2.682962 1_555
Re15 Te19 2.685190 1_555
Re15 Te3 2.688942 1_555
Re16 Te12 2.657605 1_555
Re16 Re8 2.676682 1_555
Re16 Re4 2.702091 1_555
Re16 Te28 2.704979 1_555
Re16 Re20 2.707782 1_555
Re16 Te8 2.711047 1_555
Re16 Te24 2.722759 1_555
Re16 Te4 2.745226 1_555
Re17 Te13 2.657605 1_555
Re17 Re9 2.676682 1_555
Re17 Re5 2.702091 1_555
Re17 Te29 2.704979 1_555
Re17 Re21 2.707782 1_555
Re17 Te9 2.711047 1_455
Re17 Te25 2.722759 1_555
Re17 Te5 2.745226 1_555
Re18 Te14 2.657605 1_555
Re18 Re2 2.690290 1_555
Re18 Re6 2.702091 1_555
Re18 Te30 2.704979 1_555
Re18 Re22 2.707782 1_555
Re18 Te10 2.711047 1_555
Re18 Te26 2.722759 1_555
Re18 Te6 2.745226 1_555
Re19 Te15 2.657605 1_555
Re19 Re3 2.690290 1_455
Re19 Re7 2.702091 1_555
Re19 Te31 2.704979 1_555
Re19 Re23 2.707782 1_555
Re19 Te11 2.711047 1_455
Re19 Te27 2.722759 1_555
Re19 Te7 2.745226 1_555
Re20 Re4 2.687946 1_555
Re20 Te20 2.689595 1_555
Re20 Te24 2.703302 1_555
Re20 Te4 2.704575 1_555
Re20 Te0 2.721207 1_555
Re20 Te16 2.735825 1_555
Re21 Re5 2.687946 1_555
Re21 Te21 2.689595 1_555
Re21 Te25 2.703302 1_555
Re21 Te5 2.704575 1_555
Re21 Te1 2.721207 1_555
Re21 Te17 2.735825 1_555
Re22 Re6 2.687946 1_555
Re22 Te22 2.689595 1_555
Re22 Te26 2.703302 1_555
Re22 Te6 2.704575 1_555
Re22 Te2 2.721207 1_555
Re22 Te18 2.735825 1_555
Re23 Re7 2.687946 1_555
Re23 Te23 2.689595 1_555
Re23 Re3 2.693778 1_455
Re23 Te27 2.703302 1_555
Re23 Te7 2.704575 1_555
Re23 Te3 2.721207 1_555
Re23 Te19 2.735825 1_555
Te12 Te4 3.616740 1_555
Te13 Te5 3.616740 1_555
Te14 Te6 3.616740 1_555
Te15 Te7 3.616740 1_555
Te16 Te20 3.546266 1_555
Te17 Te21 3.546266 1_555
Te18 Te22 3.546266 1_555
Te19 Te23 3.546266 1_555
Cl0 Te20 2.387308 1_555
Cl1 Te21 2.387308 1_555
Cl2 Te22 2.387308 1_554
Cl3 Te23 2.387308 1_556
Cl4 Te12 2.428618 1_555
Cl5 Te13 2.428618 1_555
Cl6 Te14 2.428618 1_545
Cl7 Te15 2.428618 1_565
Cl8 Re0 2.408912 1_555
Cl8 Te8 3.634930 1_555
Cl8 Te0 3.649767 1_555
Cl8 Te4 3.723032 1_555
Cl8 Te16 3.754710 1_455
Cl9 Re1 2.408912 1_555
Cl9 Te9 3.634930 1_555
Cl9 Te1 3.649767 1_655
Cl9 Te5 3.723032 1_655
Cl9 Te17 3.754710 1_555
Cl10 Re2 2.408912 1_555
Cl10 Cl38 3.426079 1_555
Cl10 Te10 3.634930 1_555
Cl10 Te2 3.649767 1_555
Cl10 Te6 3.723032 1_555
Cl10 Te18 3.754710 1_455
Cl11 Re3 2.408912 1_555
Cl11 Cl39 3.426079 1_555
Cl11 Te11 3.634930 1_555
Cl11 Te3 3.649767 1_655
Cl11 Te7 3.723032 1_655
Cl11 Te19 3.754710 1_555
Cl12 Te12 2.413912 1_555
Cl12 Te8 3.706820 1_555
Cl13 Te13 2.413912 1_655
Cl13 Te9 3.706820 1_555
Cl14 Te14 2.413912 1_545
Cl14 Te10 3.706820 1_545
Cl15 Te15 2.413912 1_665
Cl15 Te11 3.706820 1_565
Cl16 Re8 2.378104 1_555
Cl16 Cl32 3.386094 1_555
Cl16 Cl36 3.403715 1_555
Cl16 Te8 3.681905 1_555
Cl16 Te28 3.682136 1_555
Cl17 Re9 2.378104 1_655
Cl17 Cl33 3.386094 1_655
Cl17 Cl37 3.403715 1_555
Cl17 Te9 3.681905 1_555
Cl17 Te29 3.682136 1_655
Cl18 Re10 2.378104 1_555
Cl18 Cl34 3.386094 1_555
Cl18 Cl38 3.403715 1_555
Cl18 Te10 3.681905 1_555
Cl18 Te30 3.682136 1_555
Cl19 Re11 2.378104 1_655
Cl19 Cl35 3.386094 1_655
Cl19 Cl39 3.403715 1_555
Cl19 Te11 3.681905 1_555
Cl19 Te31 3.682136 1_655
Cl20 Re12 2.368522 1_555
Cl20 Cl36 3.372696 1_555
Cl20 Cl32 3.396668 1_555
Cl20 Te0 3.667399 1_555
Cl20 Te16 3.692499 1_555
Cl20 Te11 3.732620 1_565
Cl21 Re13 2.368522 1_555
Cl21 Cl37 3.372696 1_455
Cl21 Cl33 3.396668 1_555
Cl21 Te1 3.667399 1_555
Cl21 Te17 3.692499 1_555
Cl21 Te10 3.732620 1_545
Cl22 Re14 2.368522 1_555
Cl22 Cl38 3.372696 1_555
Cl22 Cl34 3.396668 1_555
Cl22 Te2 3.667399 1_555
Cl22 Te18 3.692499 1_555
Cl22 Te9 3.732620 1_555
Cl23 Re15 2.368522 1_555
Cl23 Cl39 3.372696 1_455
Cl23 Cl35 3.396668 1_555
Cl23 Te3 3.667399 1_555
Cl23 Te19 3.692499 1_555
Cl23 Te8 3.732620 1_555
Cl24 Re4 2.381937 1_455
Cl24 Cl32 3.446724 1_455
Cl24 Te16 3.591636 1_455
Cl24 Te28 3.652150 1_455
Cl24 Te24 3.684139 1_455
Cl24 Te3 3.749806 1_555
Cl25 Re5 2.381937 1_555
Cl25 Cl33 3.446724 1_555
Cl25 Te17 3.591636 1_555
Cl25 Te29 3.652150 1_555
Cl25 Te25 3.684139 1_555
Cl25 Te2 3.749806 1_555
Cl26 Re6 2.381937 1_455
Cl26 Cl34 3.446724 1_455
Cl26 Te18 3.591636 1_455
Cl26 Te30 3.652150 1_455
Cl26 Te26 3.684139 1_455
Cl26 Te1 3.749806 1_565
Cl27 Re7 2.381937 1_555
Cl27 Cl35 3.446724 1_555
Cl27 Te19 3.591636 1_555
Cl27 Te31 3.652150 1_555
Cl27 Te27 3.684139 1_555
Cl27 Te0 3.749806 1_545
Cl28 Te20 2.398435 1_555
Cl29 Te21 2.398435 1_555
Cl30 Te22 2.398435 1_554
Cl31 Te23 2.398435 1_556
Cl32 Re8 2.522502 1_555
Cl32 Re12 2.530039 1_555
Cl32 Re4 2.540024 1_555
Cl33 Re9 2.522502 1_555
Cl33 Re13 2.530039 1_555
Cl33 Re5 2.540024 1_555
Cl34 Re10 2.522502 1_555
Cl34 Re14 2.530039 1_555
Cl34 Re6 2.540024 1_555
Cl35 Re11 2.522502 1_555
Cl35 Re15 2.530039 1_555
Cl35 Re7 2.540024 1_555
Cl36 Re8 2.520226 1_555
Cl36 Re0 2.526495 1_555
Cl36 Re12 2.532916 1_555
Cl36 Cl8 3.426079 1_555
Cl37 Re9 2.520226 1_655
Cl37 Re1 2.526495 1_555
Cl37 Re13 2.532916 1_655
Cl37 Cl9 3.426079 1_555
Cl38 Re10 2.520226 1_555
Cl38 Re2 2.526495 1_555
Cl38 Re14 2.532916 1_555
Cl39 Re11 2.520226 1_655
Cl39 Re3 2.526495 1_555
Cl39 Re15 2.532916 1_655
