# generated using pymatgen
data_Os(SCl6)2
_symmetry_space_group_name_H-M   'P 1'
_cell_length_a   8.25055171
_cell_length_b   8.25055212
_cell_length_c   8.25057945
_cell_angle_alpha   77.98382122
_cell_angle_beta   77.98382214
_cell_angle_gamma   77.98396141
_symmetry_Int_Tables_number   1
_chemical_formula_structural   Os(SCl6)2
_chemical_formula_sum   'Os1 S2 Cl12'
_cell_volume   529.25142283
_cell_formula_units_Z   1
loop_
 _symmetry_equiv_pos_site_id
 _symmetry_equiv_pos_as_xyz
  1  'x, y, z'
loop_
 _atom_site_type_symbol
 _atom_site_label
 _atom_site_symmetry_multiplicity
 _atom_site_fract_x
 _atom_site_fract_y
 _atom_site_fract_z
 _atom_site_occupancy
  Os  Os0  1  0.00000000  0.00000000  -0.00000000  1
  S  S0  1  0.21186121  0.21186121  0.21186221  1
  S  S1  1  0.78813879  0.78813879  0.78813779  1
  Cl  Cl0  1  0.83445264  0.83445264  0.53433367  1
  Cl  Cl1  1  0.18570224  0.86616683  0.18570224  1
  Cl  Cl2  1  0.18570224  0.18570224  0.86616583  1
  Cl  Cl3  1  0.86616683  0.18570224  0.18570224  1
  Cl  Cl4  1  0.13383317  0.81429776  0.81429776  1
  Cl  Cl5  1  0.81429776  0.13383317  0.81429776  1
  Cl  Cl6  1  0.81429776  0.81429676  0.13383417  1
  Cl  Cl7  1  0.16554736  0.46566633  0.16554636  1
  Cl  Cl8  1  0.16554736  0.16554736  0.46566633  1
  Cl  Cl9  1  0.46566633  0.16554736  0.16554736  1
  Cl  Cl10  1  0.53433367  0.83445264  0.83445264  1
  Cl  Cl11  1  0.83445264  0.53433367  0.83445364  1
loop_
_geom_bond_atom_site_label_1
_geom_bond_atom_site_label_2
_geom_bond_distance
_geom_bond_site_symmetry_2
Cl0 S1 2.017783 1_555
Cl1 Os0 2.341539 1_565
Cl1 S0 2.959740 1_565
Cl2 Os0 2.341534 1_556
Cl2 S0 2.959763 1_556
Cl3 Os0 2.341540 1_655
Cl3 S0 2.959739 1_655
Cl4 Os0 2.341540 1_566
Cl4 S1 2.959739 1_455
Cl5 Os0 2.341539 1_656
Cl5 S1 2.959740 1_545
Cl6 Os0 2.341540 1_665
Cl6 S1 2.959761 1_554
Cl7 S0 2.017786 1_555
Cl8 S0 2.017783 1_555
Cl9 S0 2.017786 1_555
Cl10 S1 2.017786 1_555
Cl11 S1 2.017786 1_555
