# generated using pymatgen
data_H4I3N
_symmetry_space_group_name_H-M   'P 1'
_cell_length_a   6.64729181
_cell_length_b   9.73736877
_cell_length_c   10.81842220
_cell_angle_alpha   90.00000000
_cell_angle_beta   90.00000000
_cell_angle_gamma   90.00000000
_symmetry_Int_Tables_number   1
_chemical_formula_structural   H4I3N
_chemical_formula_sum   'H16 I12 N4'
_cell_volume   700.24543826
_cell_formula_units_Z   4
loop_
 _symmetry_equiv_pos_site_id
 _symmetry_equiv_pos_as_xyz
  1  'x, y, z'
loop_
 _atom_site_type_symbol
 _atom_site_label
 _atom_site_symmetry_multiplicity
 _atom_site_fract_x
 _atom_site_fract_y
 _atom_site_fract_z
 _atom_site_occupancy
  H  H0  1  0.62333603  0.46724361  0.17396823  1
  H  H1  1  0.12333603  0.53275639  0.82603177  1
  H  H2  1  0.37666397  0.96724361  0.32603177  1
  H  H3  1  0.87666397  0.03275639  0.67396823  1
  H  H4  1  0.37666397  0.53275639  0.82603177  1
  H  H5  1  0.87666397  0.46724361  0.17396823  1
  H  H6  1  0.62333603  0.03275639  0.67396823  1
  H  H7  1  0.12333603  0.96724361  0.32603177  1
  H  H8  1  0.25000000  0.39279435  0.77665489  1
  H  H9  1  0.25000000  0.06491501  0.42757464  1
  H  H10  1  0.75000000  0.89279435  0.72334511  1
  H  H11  1  0.25000000  0.10720565  0.27665489  1
  H  H12  1  0.25000000  0.43508499  0.92757464  1
  H  H13  1  0.75000000  0.56491501  0.07242536  1
  H  H14  1  0.75000000  0.93508499  0.57242536  1
  H  H15  1  0.75000000  0.60720565  0.22334511  1
  I  I0  1  0.25000000  0.94720783  0.87811493  1
  I  I1  1  0.75000000  0.23688954  0.91993736  1
  I  I2  1  0.75000000  0.26311046  0.41993736  1
  I  I3  1  0.25000000  0.73688954  0.58006264  1
  I  I4  1  0.25000000  0.76311046  0.08006264  1
  I  I5  1  0.75000000  0.05279217  0.12188507  1
  I  I6  1  0.75000000  0.44720783  0.62188507  1
  I  I7  1  0.25000000  0.55279217  0.37811493  1
  I  I8  1  0.25000000  0.15432276  0.65806257  1
  I  I9  1  0.75000000  0.84567724  0.34193743  1
  I  I10  1  0.75000000  0.65432276  0.84193743  1
  I  I11  1  0.25000000  0.34567724  0.15806257  1
  N  N0  1  0.25000000  0.02655420  0.33859891  1
  N  N1  1  0.75000000  0.52655420  0.16140109  1
  N  N2  1  0.75000000  0.97344580  0.66140109  1
  N  N3  1  0.25000000  0.47344580  0.83859891  1
loop_
_geom_bond_atom_site_label_1
_geom_bond_atom_site_label_2
_geom_bond_distance
_geom_bond_site_symmetry_2
H0 N1 1.030020 1_555
H0 I11 2.754913 1_555
H0 I7 3.424952 1_555
H0 I2 3.426493 1_555
H1 N3 1.030020 1_555
H1 I10 2.754913 1_455
H1 I6 3.424952 1_455
H1 I3 3.426493 1_555
H2 N0 1.030020 1_565
H2 I9 2.754913 1_555
H2 I5 3.424952 1_565
H2 I4 3.426493 1_555
H3 N2 1.030020 1_545
H3 I8 2.754913 1_655
H3 I0 3.424952 1_645
H3 I1 3.426493 1_555
H4 N3 1.030020 1_555
H4 I10 2.754913 1_555
H4 I6 3.424952 1_555
H4 I3 3.426493 1_555
H5 N1 1.030020 1_555
H5 I11 2.754913 1_655
H5 I7 3.424952 1_655
H5 I2 3.426493 1_555
H6 N2 1.030020 1_545
H6 I8 2.754913 1_555
H6 I0 3.424952 1_545
H6 I1 3.426493 1_555
H7 N0 1.030020 1_565
H7 I9 2.754913 1_455
H7 I5 3.424952 1_465
H7 I4 3.426493 1_555
H8 N3 1.032391 1_555
H8 I8 2.652946 1_555
H9 N0 1.032512 1_555
H9 I8 2.641128 1_555
H10 N2 1.032391 1_555
H10 I10 2.652946 1_555
H11 N0 1.032391 1_555
H11 I11 2.652946 1_555
H12 N3 1.032512 1_555
H12 I11 2.641128 1_556
H13 N1 1.032512 1_555
H13 I10 2.641128 1_554
H14 N2 1.032512 1_555
H14 I9 2.641128 1_555
H15 N1 1.032391 1_555
H15 I9 2.652946 1_555
I0 I4 2.826068 1_556
I0 I8 3.120040 1_565
I0 I3 3.819843 1_555
I1 I5 2.826068 1_556
I1 I6 3.819843 1_555
I2 I6 2.826068 1_555
I2 I5 3.819843 1_555
I3 I7 2.826068 1_555
I4 I7 3.819843 1_555
I5 I9 3.120040 1_545
I10 I6 3.120040 1_555
I11 I7 3.120040 1_555
