# generated using pymatgen
data_Na3ScSi3Sn3(SO8)3
_symmetry_space_group_name_H-M   'P 1'
_cell_length_a   8.89387452
_cell_length_b   8.90837979
_cell_length_c   23.02328788
_cell_angle_alpha   89.71516806
_cell_angle_beta   90.25178190
_cell_angle_gamma   120.16335448
_symmetry_Int_Tables_number   1
_chemical_formula_structural   Na3ScSi3Sn3(SO8)3
_chemical_formula_sum   'Na9 Sc3 Si9 Sn9 S9 O72'
_cell_volume   1577.11750484
_cell_formula_units_Z   3
loop_
 _symmetry_equiv_pos_site_id
 _symmetry_equiv_pos_as_xyz
  1  'x, y, z'
loop_
 _atom_site_type_symbol
 _atom_site_label
 _atom_site_symmetry_multiplicity
 _atom_site_fract_x
 _atom_site_fract_y
 _atom_site_fract_z
 _atom_site_occupancy
  Na  Na0  1  0.35762185  0.35934959  0.24402789  1
  Na  Na1  1  0.63444656  0.62236642  0.75477857  1
  Na  Na2  1  0.96831978  0.28894314  0.41741022  1
  Na  Na3  1  0.99626020  0.00741499  0.49739434  1
  Na  Na4  1  0.00007838  0.99046133  0.00437624  1
  Na  Na5  1  0.66151842  0.34128909  0.83158685  1
  Na  Na6  1  0.66668610  0.31968052  0.33133026  1
  Na  Na7  1  0.31376861  0.65483690  0.16237218  1
  Na  Na8  1  0.30029729  0.64589920  0.66746564  1
  Sc  Sc0  1  0.99346737  0.00963205  0.35525471  1
  Sc  Sc1  1  0.68120729  0.34094658  0.68753252  1
  Sc  Sc2  1  0.68919653  0.34776893  0.18181522  1
  Si  Si0  1  0.99618128  0.29613461  0.25207631  1
  Si  Si1  1  0.29306133  0.28995024  0.75201768  1
  Si  Si2  1  0.00587460  0.71463813  0.74883491  1
  Si  Si3  1  0.96162852  0.33273063  0.58263933  1
  Si  Si4  1  0.96886472  0.63624495  0.08260578  1
  Si  Si5  1  0.37430816  0.33129829  0.08646833  1
  Si  Si6  1  0.62724887  0.67330843  0.91505520  1
  Si  Si7  1  0.61755839  0.95087662  0.41760228  1
  Si  Si8  1  0.34018067  0.37149328  0.41678317  1
  Sn  Sn0  1  0.00115286  0.99052725  0.85205239  1
  Sn  Sn1  1  0.01306690  0.01578788  0.64837125  1
  Sn  Sn2  1  0.01116393  0.01099299  0.14624611  1
  Sn  Sn3  1  0.66245787  0.35852654  0.98434598  1
  Sn  Sn4  1  0.66121380  0.31815407  0.48102412  1
  Sn  Sn5  1  0.33925032  0.65930631  0.02192575  1
  Sn  Sn6  1  0.33100420  0.65347230  0.51810968  1
  Sn  Sn7  1  0.33745968  0.66209490  0.31634756  1
  Sn  Sn8  1  0.32224235  0.65426135  0.81412476  1
  S  S0  1  0.29016833  0.99327065  0.25169079  1
  S  S1  1  0.71090191  0.71207736  0.25018509  1
  S  S2  1  0.70803607  0.00019394  0.75060600  1
  S  S3  1  0.37145463  0.03566046  0.58397278  1
  S  S4  1  0.66989905  0.62834824  0.58420981  1
  S  S5  1  0.66693695  0.04619997  0.08167237  1
  S  S6  1  0.03159703  0.36729384  0.91759277  1
  S  S7  1  0.33917947  0.95932293  0.91775602  1
  S  S8  1  0.04138899  0.66849669  0.41732834  1
  O  O0  1  0.20280555  0.01316488  0.30231222  1
  O  O1  1  0.81335861  0.79237594  0.30171619  1
  O  O2  1  0.98120566  0.18949294  0.31108122  1
  O  O3  1  0.20252026  0.17767660  0.81114878  1
  O  O4  1  0.94998041  0.78534369  0.80574384  1
  O  O5  1  0.81538127  0.03108956  0.80351049  1
  O  O6  1  0.78327614  0.96297582  0.69862780  1
  O  O7  1  0.17206584  0.21879918  0.69402424  1
  O  O8  1  0.03185101  0.82949504  0.69001750  1
  O  O9  1  0.79140570  0.81470391  0.19647227  1
  O  O10  1  0.04352180  0.20809296  0.19642966  1
  O  O11  1  0.18471259  0.96152964  0.19737512  1
  O  O12  1  0.86589990  0.35534929  0.63783601  1
  O  O13  1  0.47419730  0.12075507  0.63526196  1
  O  O14  1  0.64376705  0.52476600  0.63695706  1
  O  O15  1  0.88813718  0.51242193  0.13856117  1
  O  O16  1  0.64381692  0.12536639  0.13340633  1
  O  O17  1  0.48105856  0.35280301  0.14567073  1
  O  O18  1  0.44785440  0.28776997  0.02682973  1
  O  O19  1  0.85872786  0.55700258  0.02208330  1
  O  O20  1  0.69500522  0.15055081  0.02764512  1
  O  O21  1  0.44519666  0.14228051  0.52989836  1
  O  O22  1  0.69042812  0.54531129  0.53135279  1
  O  O23  1  0.85494495  0.30911854  0.52097038  1
  O  O24  1  0.53522757  0.70284729  0.97110989  1
  O  O25  1  0.14114786  0.45028583  0.96899268  1
  O  O26  1  0.30866374  0.84979809  0.96946382  1
  O  O27  1  0.52888689  0.84148068  0.47695300  1
  O  O28  1  0.28216042  0.45008745  0.47095610  1
  O  O29  1  0.14789549  0.69912538  0.47039880  1
  O  O30  1  0.11634742  0.62959722  0.36536986  1
  O  O31  1  0.49570070  0.87324661  0.35952587  1
  O  O32  1  0.37521618  0.48300692  0.35605489  1
  O  O33  1  0.10408920  0.47653089  0.86414977  1
  O  O34  1  0.35757802  0.87797559  0.86385834  1
  O  O35  1  0.51549881  0.64600218  0.85502340  1
  O  O36  1  0.02097116  0.81850493  0.40905359  1
  O  O37  1  0.80944745  0.97135156  0.41388402  1
  O  O38  1  0.16925434  0.17985901  0.41181054  1
  O  O39  1  0.02170508  0.19723109  0.91092902  1
  O  O40  1  0.18372795  0.98210298  0.91359653  1
  O  O41  1  0.82160667  0.85111035  0.91219665  1
  O  O42  1  0.97650940  0.15371205  0.58607680  1
  O  O43  1  0.19265549  0.01247689  0.58613477  1
  O  O44  1  0.82790734  0.80391538  0.58824235  1
  O  O45  1  0.97142740  0.82046233  0.09141006  1
  O  O46  1  0.82036350  0.02138188  0.08717774  1
  O  O47  1  0.17623156  0.16357139  0.08588051  1
  O  O48  1  0.68635051  0.15070748  0.74360217  1
  O  O49  1  0.48501594  0.31359020  0.74529384  1
  O  O50  1  0.83438505  0.52284524  0.74363648  1
  O  O51  1  0.68098818  0.53275684  0.24589136  1
  O  O52  1  0.82478289  0.31307315  0.24675981  1
  O  O53  1  0.46107042  0.15387992  0.24601340  1
  O  O54  1  0.64319080  0.49594566  0.91775405  1
  O  O55  1  0.85387314  0.34161075  0.92380970  1
  O  O56  1  0.50094547  0.13148878  0.92240060  1
  O  O57  1  0.65421407  0.15295413  0.42005318  1
  O  O58  1  0.52137964  0.36991745  0.42643946  1
  O  O59  1  0.86860055  0.50678556  0.42342375  1
  O  O60  1  0.36567105  0.51110180  0.08069751  1
  O  O61  1  0.16546406  0.66489602  0.07426552  1
  O  O62  1  0.50772242  0.87228863  0.07676845  1
  O  O63  1  0.35763177  0.86320334  0.57820392  1
  O  O64  1  0.51274188  0.64809662  0.57983341  1
  O  O65  1  0.15540296  0.51289452  0.57884731  1
  O  O66  1  0.31152594  0.83755903  0.25591375  1
  O  O67  1  0.53316001  0.69593359  0.25249497  1
  O  O68  1  0.18254785  0.49066321  0.25500225  1
  O  O69  1  0.32413364  0.49048079  0.75530055  1
  O  O70  1  0.18442041  0.70575241  0.75744194  1
  O  O71  1  0.53512648  0.83979073  0.75664916  1
loop_
_geom_bond_atom_site_label_1
_geom_bond_atom_site_label_2
_geom_bond_distance
_geom_bond_site_symmetry_2
Na0 O68 2.386131 1_555
Na0 O53 2.426964 1_555
Na0 O51 2.488843 1_555
Na0 O17 2.534585 1_555
Na0 O67 2.600917 1_555
Na0 O10 2.650580 1_555
Na0 O32 2.782423 1_555
Na0 O0 2.985818 1_555
Na1 O50 2.367380 1_555
Na1 O49 2.389553 1_555
Na1 O69 2.395634 1_555
Na1 O71 2.500853 1_555
Na1 O35 2.596217 1_555
Na1 O4 2.693264 1_555
Na1 O14 2.866897 1_555
Na1 O6 2.927465 1_555
Na2 O57 2.423912 1_555
Na2 O38 2.429627 1_655
Na2 O37 2.447761 1_545
Na2 O59 2.511000 1_555
Na2 O2 2.630020 1_555
Na2 O23 2.634660 1_555
Na2 O28 2.707826 1_655
Na2 O30 2.888045 1_655
Na3 O37 2.449922 1_545
Na3 O42 2.481498 1_555
Na3 O38 2.496202 1_655
Na3 O43 2.667899 1_655
Na3 O44 2.676803 1_545
Na3 O36 2.725209 1_645
Na4 O47 2.434930 1_565
Na4 O45 2.441338 1_455
Na4 O41 2.565355 1_454
Na4 O46 2.596016 1_465
Na4 O40 2.682436 1_554
Na4 O39 2.768913 1_564
Na5 O49 2.461809 1_555
Na5 O54 2.473077 1_555
Na5 O50 2.564332 1_555
Na5 O56 2.685010 1_555
Na5 O55 2.719976 1_555
Na5 O48 2.729394 1_555
Na6 O52 2.424891 1_555
Na6 O57 2.489411 1_555
Na6 O53 2.582066 1_555
Na6 O51 2.685343 1_555
Na6 O58 2.698360 1_555
Na6 O59 2.737233 1_555
Na7 O61 2.440509 1_555
Na7 O60 2.452380 1_555
Na7 O68 2.514912 1_555
Na7 O62 2.691909 1_555
Na7 O66 2.712194 1_555
Na7 O67 2.738752 1_555
Na7 O15 3.376767 1_455
Na8 O65 2.386174 1_555
Na8 O70 2.493934 1_555
Na8 O69 2.512907 1_555
Na8 O63 2.684872 1_555
Na8 O64 2.763513 1_555
Na8 O71 2.816697 1_555
O0 S0 1.463505 1_545
O0 Sc0 2.216712 1_455
O1 S1 1.446899 1_555
O1 Sc0 2.173004 1_565
O2 Si0 1.620906 1_555
O2 Sc0 1.942140 1_555
O3 Si1 1.639789 1_555
O3 Sn0 1.967867 1_545
O4 Si2 1.639866 1_655
O4 Sn0 1.965712 1_655
O5 S2 1.483203 1_555
O5 Sn0 2.165450 1_645
O6 S2 1.491235 1_565
O6 Sn1 2.187716 1_665
O7 Si1 1.628765 1_555
O7 Sn1 1.952169 1_555
O8 Si2 1.638745 1_555
O8 Sn1 1.990685 1_565
O9 S1 1.488788 1_555
O9 Sn2 2.186357 1_665
O10 Si0 1.667452 1_455
O10 Sn2 2.002542 1_555
O11 S0 1.500046 1_555
O11 Sn2 2.150507 1_565
O12 Si3 1.601527 1_555
O12 Sc1 1.956299 1_555
O13 S3 1.451668 1_555
O13 Sc1 2.249533 1_555
O14 S4 1.468369 1_555
O14 Sc1 2.161911 1_555
O15 Si4 1.609353 1_555
O15 Sc2 1.914861 1_555
O16 S5 1.454158 1_555
O16 Sc2 2.131862 1_555
O17 Si5 1.613819 1_555
O17 Sc2 2.047143 1_555
O18 Si5 1.652769 1_555
O18 Sn3 1.948911 1_554
O19 Si4 1.643885 1_555
O19 Sn3 1.956654 1_554
O20 S5 1.493903 1_555
O20 Sn3 2.242373 1_554
O21 S3 1.500549 1_555
O21 Sn4 2.094884 1_555
O22 S4 1.485971 1_555
O22 Sn4 2.235491 1_555
O23 Si3 1.658608 1_555
O23 Sn4 1.986410 1_555
O24 Si6 1.622869 1_555
O24 Sn5 1.972630 1_556
O25 S6 1.473435 1_555
O25 Sn5 2.182535 1_556
O26 S7 1.472433 1_555
O26 Sn5 2.203011 1_556
O27 Si7 1.631790 1_555
O27 Sn6 1.958849 1_555
O28 Si8 1.639972 1_555
O28 Sn6 1.968371 1_555
O29 S8 1.482593 1_555
O29 Sn6 2.160927 1_555
O30 S8 1.496280 1_555
O30 Sn7 2.160810 1_555
O31 Si7 1.638282 1_555
O31 Sn7 1.962937 1_555
O32 Si8 1.648563 1_555
O32 Sn7 2.003731 1_555
O33 S6 1.497059 1_555
O33 Sn8 2.124195 1_555
O34 S7 1.490522 1_555
O34 Sn8 2.184434 1_555
O35 Si6 1.644865 1_555
O35 Sn8 1.989599 1_555
O36 S8 1.447785 1_555
O36 Sc0 2.210861 1_465
O37 Si7 1.625273 1_555
O37 Sc0 2.017658 1_565
O38 Si8 1.621997 1_555
O38 Sc0 2.014589 1_455
O39 S6 1.481453 1_555
O39 Sn0 2.223964 1_545
O40 S7 1.497477 1_555
O40 Sn0 2.179744 1_555
O41 Si6 1.658216 1_555
O41 Sn0 2.004795 1_655
O42 Si3 1.666678 1_555
O42 Sn1 2.013010 1_655
O43 S3 1.498156 1_555
O43 Sn1 2.161733 1_555
O44 S4 1.490365 1_555
O44 Sn1 2.252376 1_665
O45 Si4 1.643297 1_555
O45 Sn2 2.003569 1_665
O46 S5 1.492762 1_555
O46 Sn2 2.207707 1_655
O47 Si5 1.640421 1_555
O47 Sn2 1.981971 1_555
O48 S2 1.455502 1_555
O48 Sc1 2.143887 1_555
O49 Si1 1.619756 1_555
O49 Sc1 2.112445 1_555
O50 Si2 1.625247 1_655
O50 Sc1 1.984216 1_555
O51 S1 1.485483 1_555
O51 Sc2 2.245753 1_555
O52 Si0 1.609618 1_555
O52 Sc2 2.034589 1_555
O53 S0 1.479508 1_545
O53 Sc2 2.400786 1_555
O54 Si6 1.656649 1_555
O54 Sn3 2.017032 1_555
O55 S6 1.486450 1_655
O55 Sn3 2.268089 1_555
O56 S7 1.488775 1_545
O56 Sn3 2.297638 1_555
O57 Si7 1.661686 1_545
O57 Sn4 2.016901 1_555
O58 Si8 1.632883 1_555
O58 Sn4 1.973705 1_555
O59 S8 1.493900 1_655
O59 Sn4 2.206602 1_555
O60 Si5 1.646398 1_555
O60 Sn5 1.980013 1_555
O61 Si4 1.647225 1_455
O61 Sn5 1.984409 1_555
O62 S5 1.487893 1_565
O62 Sn5 2.142321 1_555
O63 S3 1.484956 1_565
O63 Sn6 2.244837 1_555
O64 S4 1.496819 1_555
O64 Sn6 2.165938 1_555
O65 Si3 1.665516 1_455
O65 Sn6 1.999801 1_555
O66 S0 1.494314 1_555
O66 Sn7 2.184102 1_555
O67 S1 1.514820 1_555
O67 Sn7 2.184566 1_555
O68 Si0 1.693696 1_455
O68 Sn7 2.028589 1_555
O69 Si1 1.666842 1_555
O69 Sn8 2.001932 1_555
O70 Si2 1.640293 1_555
O70 Sn8 1.990236 1_555
O71 S2 1.489209 1_565
O71 Sn8 2.218800 1_555
