# generated using pymatgen
data_MoPO5
_symmetry_space_group_name_H-M   'P 1'
_cell_length_a   6.40654358
_cell_length_b   7.32119762
_cell_length_c   7.29814461
_cell_angle_alpha   90.00000000
_cell_angle_beta   90.00000000
_cell_angle_gamma   90.00000000
_symmetry_Int_Tables_number   1
_chemical_formula_structural   MoPO5
_chemical_formula_sum   'Mo4 P4 O20'
_cell_volume   342.30904834
_cell_formula_units_Z   4
loop_
 _symmetry_equiv_pos_site_id
 _symmetry_equiv_pos_as_xyz
  1  'x, y, z'
loop_
 _atom_site_type_symbol
 _atom_site_label
 _atom_site_symmetry_multiplicity
 _atom_site_fract_x
 _atom_site_fract_y
 _atom_site_fract_z
 _atom_site_occupancy
  Mo  Mo0  1  0.25000000  0.24622109  0.87480303  1
  Mo  Mo1  1  0.75000000  0.74622109  0.62519697  1
  Mo  Mo2  1  0.25000000  0.25377891  0.37480303  1
  Mo  Mo3  1  0.75000000  0.75377891  0.12519697  1
  P  P0  1  0.25000000  0.62883600  0.12278298  1
  P  P1  1  0.75000000  0.12883600  0.37721702  1
  P  P2  1  0.25000000  0.87116400  0.62278298  1
  P  P3  1  0.75000000  0.37116400  0.87721702  1
  O  O0  1  0.75000000  0.00861143  0.54907166  1
  O  O1  1  0.75000000  0.81088171  0.87284562  1
  O  O2  1  0.94162426  0.24828466  0.87870691  1
  O  O3  1  0.55837574  0.24828466  0.87870691  1
  O  O4  1  0.75000000  0.49138857  0.04907166  1
  O  O5  1  0.25000000  0.18911829  0.12715438  1
  O  O6  1  0.05837574  0.75171534  0.12129309  1
  O  O7  1  0.44162426  0.75171534  0.12129309  1
  O  O8  1  0.75000000  0.01170531  0.20285597  1
  O  O9  1  0.25000000  0.51170531  0.29714403  1
  O  O10  1  0.55837574  0.25171534  0.37870691  1
  O  O11  1  0.25000000  0.98829469  0.79714403  1
  O  O12  1  0.75000000  0.68911829  0.37284562  1
  O  O13  1  0.25000000  0.99138857  0.45092834  1
  O  O14  1  0.25000000  0.50861143  0.95092834  1
  O  O15  1  0.25000000  0.31088171  0.62715438  1
  O  O16  1  0.05837574  0.74828466  0.62129309  1
  O  O17  1  0.44162426  0.74828466  0.62129309  1
  O  O18  1  0.75000000  0.48829469  0.70285597  1
  O  O19  1  0.94162426  0.25171534  0.37870691  1
loop_
_geom_bond_atom_site_label_1
_geom_bond_atom_site_label_2
_geom_bond_distance
_geom_bond_site_symmetry_2
Mo0 O15 1.868344 1_555
Mo0 O5 1.888550 1_556
Mo0 O11 1.971551 1_545
Mo0 O2 1.975886 1_455
Mo0 O3 1.975886 1_555
Mo0 O14 1.999737 1_555
Mo1 O1 1.868344 1_555
Mo1 O12 1.888550 1_555
Mo1 O18 1.971551 1_555
Mo1 O16 1.975886 1_655
Mo1 O17 1.975886 1_555
Mo1 O0 1.999737 1_565
Mo2 O5 1.868344 1_555
Mo2 O15 1.888550 1_555
Mo2 O9 1.971551 1_555
Mo2 O19 1.975886 1_455
Mo2 O10 1.975886 1_555
Mo2 O13 1.999737 1_545
Mo3 O12 1.868344 1_555
Mo3 O1 1.888550 1_554
Mo3 O8 1.971551 1_565
Mo3 O6 1.975886 1_655
Mo3 O7 1.975886 1_555
Mo3 O4 1.999737 1_555
O0 P1 1.532253 1_555
O2 P3 1.522026 1_555
O3 P3 1.522026 1_555
O4 P3 1.532253 1_554
O6 P0 1.522026 1_555
O7 P0 1.522026 1_555
O8 P1 1.534489 1_555
O9 P0 1.534489 1_555
O10 P1 1.522026 1_555
O11 P2 1.534489 1_555
O13 P2 1.532253 1_555
O14 P0 1.532253 1_556
O16 P2 1.522026 1_555
O17 P2 1.522026 1_555
O18 P3 1.534489 1_555
O19 P1 1.522026 1_555
