# generated using pymatgen
data_BeCo
_symmetry_space_group_name_H-M   'P 1'
_cell_length_a   5.14350662
_cell_length_b   5.14350662
_cell_length_c   5.14350662
_cell_angle_alpha   90.00000000
_cell_angle_beta   90.00000000
_cell_angle_gamma   90.00000000
_symmetry_Int_Tables_number   1
_chemical_formula_structural   BeCo
_chemical_formula_sum   'Be8 Co8'
_cell_volume   136.07486415
_cell_formula_units_Z   8
loop_
 _symmetry_equiv_pos_site_id
 _symmetry_equiv_pos_as_xyz
  1  'x, y, z'
loop_
 _atom_site_type_symbol
 _atom_site_label
 _atom_site_symmetry_multiplicity
 _atom_site_fract_x
 _atom_site_fract_y
 _atom_site_fract_z
 _atom_site_occupancy
  Be  Be0_0  1  0.00000000  0.00000000  0.00000000  1
  Be  Be0_1  1  0.00000000  0.00000000  0.50000000  1
  Be  Be0_2  1  0.00000000  0.50000000  0.00000000  1
  Be  Be0_3  1  0.00000000  0.50000000  0.50000000  1
  Be  Be0_4  1  0.50000000  0.00000000  0.00000000  1
  Be  Be0_5  1  0.50000000  0.00000000  0.50000000  1
  Be  Be0_6  1  0.50000000  0.50000000  0.00000000  1
  Be  Be0_7  1  0.50000000  0.50000000  0.50000000  1
  Co  Co0_0  1  0.25000000  0.25000000  0.25000000  1
  Co  Co0_1  1  0.25000000  0.25000000  0.75000000  1
  Co  Co0_2  1  0.25000000  0.75000000  0.25000000  1
  Co  Co0_3  1  0.25000000  0.75000000  0.75000000  1
  Co  Co0_4  1  0.75000000  0.25000000  0.25000000  1
  Co  Co0_5  1  0.75000000  0.25000000  0.75000000  1
  Co  Co0_6  1  0.75000000  0.75000000  0.25000000  1
  Co  Co0_7  1  0.75000000  0.75000000  0.75000000  1
loop_
_geom_bond_atom_site_label_1
_geom_bond_atom_site_label_2
_geom_bond_distance
_geom_bond_site_symmetry_2
Be0_0 Co0_7 2.227204 1_444
Be0_0 Co0_0 2.227204 1_555
Be0_0 Co0_3 2.227204 1_544
Be0_0 Co0_5 2.227204 1_454
Be0_0 Co0_6 2.227204 1_445
Be0_0 Co0_2 2.227204 1_545
Be0_0 Co0_4 2.227204 1_455
Be0_0 Co0_1 2.227204 1_554
Be0_0 Be0_1 2.571753 1_554
Be0_0 Be0_4 2.571753 1_555
Be0_0 Be0_1 2.571753 1_555
Be0_0 Be0_2 2.571753 1_555
Be0_0 Be0_4 2.571753 1_455
Be0_0 Be0_2 2.571753 1_545
Be0_1 Co0_0 2.227204 1_555
Be0_1 Co0_5 2.227204 1_455
Be0_1 Co0_1 2.227204 1_555
Be0_1 Co0_7 2.227204 1_445
Be0_1 Co0_6 2.227204 1_445
Be0_1 Co0_2 2.227204 1_545
Be0_1 Co0_3 2.227204 1_545
Be0_1 Co0_4 2.227204 1_455
Be0_1 Be0_3 2.571753 1_555
Be0_1 Be0_5 2.571753 1_455
Be0_1 Be0_5 2.571753 1_555
Be0_1 Be0_3 2.571753 1_545
Be0_2 Co0_0 2.227204 1_555
Be0_2 Co0_5 2.227204 1_454
Be0_2 Co0_2 2.227204 1_555
Be0_2 Co0_4 2.227204 1_455
Be0_2 Co0_6 2.227204 1_455
Be0_2 Co0_3 2.227204 1_554
Be0_2 Co0_7 2.227204 1_454
Be0_2 Co0_1 2.227204 1_554
Be0_2 Be0_3 2.571753 1_555
Be0_2 Be0_3 2.571753 1_554
Be0_2 Be0_6 2.571753 1_455
Be0_2 Be0_6 2.571753 1_555
Be0_3 Co0_0 2.227204 1_555
Be0_3 Co0_5 2.227204 1_455
Be0_3 Co0_1 2.227204 1_555
Be0_3 Co0_2 2.227204 1_555
Be0_3 Co0_6 2.227204 1_455
Be0_3 Co0_3 2.227204 1_555
Be0_3 Co0_7 2.227204 1_455
Be0_3 Co0_4 2.227204 1_455
Be0_3 Be0_7 2.571753 1_555
Be0_3 Be0_7 2.571753 1_455
Be0_4 Co0_4 2.227204 1_555
Be0_4 Co0_0 2.227204 1_555
Be0_4 Co0_3 2.227204 1_544
Be0_4 Co0_6 2.227204 1_545
Be0_4 Co0_7 2.227204 1_544
Be0_4 Co0_2 2.227204 1_545
Be0_4 Co0_5 2.227204 1_554
Be0_4 Co0_1 2.227204 1_554
Be0_4 Be0_5 2.571753 1_554
Be0_4 Be0_5 2.571753 1_555
Be0_4 Be0_6 2.571753 1_545
Be0_4 Be0_6 2.571753 1_555
Be0_5 Co0_0 2.227204 1_555
Be0_5 Co0_7 2.227204 1_545
Be0_5 Co0_4 2.227204 1_555
Be0_5 Co0_1 2.227204 1_555
Be0_5 Co0_6 2.227204 1_545
Be0_5 Co0_5 2.227204 1_555
Be0_5 Co0_2 2.227204 1_545
Be0_5 Co0_3 2.227204 1_545
Be0_5 Be0_7 2.571753 1_545
Be0_5 Be0_7 2.571753 1_555
Be0_6 Co0_0 2.227204 1_555
Be0_6 Co0_4 2.227204 1_555
Be0_6 Co0_7 2.227204 1_554
Be0_6 Co0_2 2.227204 1_555
Be0_6 Co0_3 2.227204 1_554
Be0_6 Co0_6 2.227204 1_555
Be0_6 Co0_5 2.227204 1_554
Be0_6 Co0_1 2.227204 1_554
Be0_6 Be0_7 2.571753 1_555
Be0_6 Be0_7 2.571753 1_554
Be0_7 Co0_0 2.227204 1_555
Be0_7 Co0_4 2.227204 1_555
Be0_7 Co0_1 2.227204 1_555
Be0_7 Co0_5 2.227204 1_555
Be0_7 Co0_2 2.227204 1_555
Be0_7 Co0_6 2.227204 1_555
Be0_7 Co0_3 2.227204 1_555
Be0_7 Co0_7 2.227204 1_555
Co0_0 Co0_1 2.571753 1_554
Co0_0 Co0_4 2.571753 1_455
Co0_0 Co0_4 2.571753 1_555
Co0_0 Co0_1 2.571753 1_555
Co0_0 Co0_2 2.571753 1_555
Co0_0 Co0_2 2.571753 1_545
Co0_1 Co0_3 2.571753 1_545
Co0_1 Co0_3 2.571753 1_555
Co0_1 Co0_5 2.571753 1_455
Co0_1 Co0_5 2.571753 1_555
Co0_2 Co0_6 2.571753 1_455
Co0_2 Co0_3 2.571753 1_554
Co0_2 Co0_6 2.571753 1_555
Co0_2 Co0_3 2.571753 1_555
Co0_3 Co0_7 2.571753 1_455
Co0_3 Co0_7 2.571753 1_555
Co0_4 Co0_6 2.571753 1_555
Co0_4 Co0_5 2.571753 1_554
Co0_4 Co0_6 2.571753 1_545
Co0_4 Co0_5 2.571753 1_555
Co0_5 Co0_7 2.571753 1_555
Co0_5 Co0_7 2.571753 1_545
Co0_6 Co0_7 2.571753 1_555
Co0_6 Co0_7 2.571753 1_554
