# generated using pymatgen
data_AlTl2F5
_symmetry_space_group_name_H-M   'P 1'
_cell_length_a   6.23450983
_cell_length_b   6.23450912
_cell_length_c   7.42825155
_cell_angle_alpha   90.00000000
_cell_angle_beta   90.00000000
_cell_angle_gamma   90.16510488
_symmetry_Int_Tables_number   1
_chemical_formula_structural   AlTl2F5
_chemical_formula_sum   'Al2 Tl4 F10'
_cell_volume   288.72831588
_cell_formula_units_Z   2
loop_
 _symmetry_equiv_pos_site_id
 _symmetry_equiv_pos_as_xyz
  1  'x, y, z'
loop_
 _atom_site_type_symbol
 _atom_site_label
 _atom_site_symmetry_multiplicity
 _atom_site_fract_x
 _atom_site_fract_y
 _atom_site_fract_z
 _atom_site_occupancy
  Al  Al0  1  0.00000000  -0.00000000  0.25000000  1
  Al  Al1  1  0.00000000  -0.00000000  0.75000000  1
  Tl  Tl0  1  0.50654470  0.98759071  -0.00000000  1
  Tl  Tl1  1  0.49345530  0.01240929  0.50000000  1
  Tl  Tl2  1  0.98759071  0.50654470  0.50000000  1
  Tl  Tl3  1  0.01240929  0.49345530  -0.00000000  1
  F  F0  1  0.20380277  0.20380277  0.25000000  1
  F  F1  1  0.79619723  0.79619723  0.75000000  1
  F  F2  1  0.79619723  0.79619723  0.25000000  1
  F  F3  1  0.20380277  0.20380277  0.75000000  1
  F  F4  1  0.01631453  0.98368547  -0.00000000  1
  F  F5  1  0.98368547  0.01631453  0.50000000  1
  F  F6  1  0.20255597  0.79744403  0.26900903  1
  F  F7  1  0.79744403  0.20255597  0.76900903  1
  F  F8  1  0.79744403  0.20255597  0.23099097  1
  F  F9  1  0.20255597  0.79744403  0.73099097  1
loop_
_geom_bond_atom_site_label_1
_geom_bond_atom_site_label_2
_geom_bond_distance
_geom_bond_site_symmetry_2
Al0 F8 1.794058 1_455
Al0 F6 1.794058 1_545
Al0 F0 1.794323 1_555
Al0 F2 1.794323 1_445
Al0 F5 1.862641 1_455
Al0 F4 1.862641 1_545
Al1 F7 1.794058 1_455
Al1 F9 1.794058 1_545
Al1 F3 1.794323 1_555
Al1 F1 1.794323 1_445
Al1 F5 1.862641 1_455
Al1 F4 1.862641 1_546
F0 F4 2.586316 1_545
F0 F5 2.586316 1_455
F0 Tl3 2.854119 1_555
F0 Tl1 2.854119 1_555
F0 Tl2 2.973692 1_455
F0 Tl0 2.973692 1_545
F1 F5 2.586316 1_565
F1 F4 2.586316 1_656
F1 Tl2 2.854119 1_555
F1 Tl0 2.854119 1_556
F1 Tl3 2.973692 1_656
F1 Tl1 2.973692 1_565
F2 F5 2.586316 1_565
F2 F4 2.586316 1_655
F2 Tl2 2.854119 1_555
F2 Tl0 2.854119 1_555
F2 Tl3 2.973692 1_655
F2 Tl1 2.973692 1_565
F3 F4 2.586316 1_546
F3 F5 2.586316 1_455
F3 Tl3 2.854119 1_556
F3 Tl1 2.854119 1_555
F3 Tl2 2.973692 1_455
F3 Tl0 2.973692 1_546
F4 F8 2.584356 1_465
F4 F7 2.584356 1_464
F4 F9 2.587906 1_554
F4 F6 2.587906 1_555
F4 Tl3 3.056371 1_555
F4 Tl0 3.056372 1_555
F5 F9 2.584356 1_645
F5 F6 2.584356 1_645
F5 F7 2.587906 1_555
F5 F8 2.587906 1_555
F5 Tl2 3.056371 1_555
F5 Tl1 3.056372 1_555
F6 Tl2 2.831167 1_455
F6 Tl1 2.831167 1_565
F6 Tl3 2.996218 1_555
F6 Tl0 2.996218 1_555
F7 Tl3 2.831167 1_656
F7 Tl0 2.831167 1_546
F7 Tl2 2.996218 1_555
F7 Tl1 2.996218 1_555
F8 Tl3 2.831167 1_655
F8 Tl0 2.831167 1_545
F8 Tl2 2.996218 1_555
F8 Tl1 2.996218 1_555
F9 Tl2 2.831167 1_455
F9 Tl1 2.831167 1_565
F9 Tl3 2.996218 1_556
F9 Tl0 2.996218 1_556
