# generated using pymatgen
data_Na2La4Si3Ge4(S3O16)3
_symmetry_space_group_name_H-M   'P 1'
_cell_length_a   18.13483791
_cell_length_b   9.14414996
_cell_length_c   23.87348005
_cell_angle_alpha   89.56038792
_cell_angle_beta   88.29621630
_cell_angle_gamma   120.53471810
_symmetry_Int_Tables_number   1
_chemical_formula_structural   Na2La4Si3Ge4(S3O16)3
_chemical_formula_sum   'Na6 La12 Si9 Ge12 S27 O144'
_cell_volume   3407.17088816
_cell_formula_units_Z   3
loop_
 _symmetry_equiv_pos_site_id
 _symmetry_equiv_pos_as_xyz
  1  'x, y, z'
loop_
 _atom_site_type_symbol
 _atom_site_label
 _atom_site_symmetry_multiplicity
 _atom_site_fract_x
 _atom_site_fract_y
 _atom_site_fract_z
 _atom_site_occupancy
  Na  Na0  1  0.99537199  0.01602786  0.50044710  1
  Na  Na1  1  0.49448583  0.97467125  0.00148060  1
  Na  Na2  1  0.31903758  0.31065160  0.83245470  1
  Na  Na3  1  0.82885700  0.33099598  0.82467858  1
  Na  Na4  1  0.32952703  0.32406921  0.32468373  1
  Na  Na5  1  0.82047967  0.33166697  0.33112275  1
  La  La0  1  0.01112476  0.00794072  0.34811059  1
  La  La1  1  0.51036079  0.01448081  0.84913257  1
  La  La2  1  0.00188572  0.00668601  0.64590631  1
  La  La3  1  0.50249458  -0.00084747  0.14653598  1
  La  La4  1  0.31887408  0.32784294  0.98364519  1
  La  La5  1  0.84684172  0.34749115  0.98488311  1
  La  La6  1  0.34858605  0.34349252  0.48183751  1
  La  La7  1  0.82023067  0.31171214  0.48435359  1
  La  La8  1  0.16434779  0.67884567  0.30131996  1
  La  La9  1  0.67170907  0.66936284  0.30184468  1
  La  La10  1  0.17365246  0.68418126  0.80411188  1
  La  La11  1  0.66170835  0.64518493  0.80050809  1
  Si  Si0  1  0.15725844  0.03542594  0.23899766  1
  Si  Si1  1  0.65757948  0.04289470  0.24909526  1
  Si  Si2  1  0.65759686  0.28033164  0.73894220  1
  Si  Si3  1  0.48801456  0.33258543  0.58395240  1
  Si  Si4  1  0.98154489  0.35139988  0.58245340  1
  Si  Si5  1  0.48199552  0.61149807  0.08331927  1
  Si  Si6  1  0.97830768  0.63046051  0.08865637  1
  Si  Si7  1  0.16129490  0.95660164  0.91413333  1
  Si  Si8  1  0.65928187  0.36510570  0.41401112  1
  Ge  Ge0  1  0.52585254  0.03226922  0.35707646  1
  Ge  Ge1  1  0.00906138  0.00485764  0.86709730  1
  Ge  Ge2  1  0.51381512  0.03839068  0.64551240  1
  Ge  Ge3  1  0.01112296  0.98503996  0.14672129  1
  Ge  Ge4  1  0.35373168  0.35961782  0.67593227  1
  Ge  Ge5  1  0.83681093  0.31976958  0.68303731  1
  Ge  Ge6  1  0.33691278  0.35922071  0.18425268  1
  Ge  Ge7  1  0.84178864  0.33542872  0.18556788  1
  Ge  Ge8  1  0.15674053  0.72366511  0.02707775  1
  Ge  Ge9  1  0.66496521  0.67904289  0.03306201  1
  Ge  Ge10  1  0.16238194  0.65543552  0.52760204  1
  Ge  Ge11  1  0.66542174  0.60706684  0.51994521  1
  S  S0  1  0.36045120  0.68380840  0.25256056  1
  S  S1  1  0.86611715  0.70045938  0.23858176  1
  S  S2  1  0.98722788  0.27496940  0.23922890  1
  S  S3  1  0.48462886  0.27480419  0.25280087  1
  S  S4  1  0.15491750  0.27390035  0.75418996  1
  S  S5  1  0.98408977  0.68738895  0.75168049  1
  S  S6  1  0.48585827  0.69875208  0.73918391  1
  S  S7  1  0.36524440  0.03261273  0.73679665  1
  S  S8  1  0.85965398  0.03708773  0.75200172  1
  S  S9  1  0.19048681  0.01849561  0.58064439  1
  S  S10  1  0.67657087  0.02311763  0.59268640  1
  S  S11  1  0.33510315  0.64143940  0.58850279  1
  S  S12  1  0.82329652  0.62579322  0.58097426  1
  S  S13  1  0.32227554  0.02009169  0.08204843  1
  S  S14  1  0.83391137  0.02679860  0.09045795  1
  S  S15  1  0.17526914  0.33055355  0.09243368  1
  S  S16  1  0.68998639  0.36398685  0.07959741  1
  S  S17  1  0.31075035  0.68343058  0.92293277  1
  S  S18  1  0.81805780  0.68575557  0.91462405  1
  S  S19  1  0.02468290  0.35766516  0.91538197  1
  S  S20  1  0.52738867  0.37709128  0.92608586  1
  S  S21  1  0.66424614  0.94013646  0.92494117  1
  S  S22  1  0.32180016  0.95159306  0.41311952  1
  S  S23  1  0.80880041  0.93338210  0.42402806  1
  S  S24  1  0.16351694  0.38438750  0.42477762  1
  S  S25  1  0.02696526  0.67715193  0.42475192  1
  S  S26  1  0.52573243  0.69846364  0.41352060  1
  O  O0  1  0.12767518  0.07877892  0.29882881  1
  O  O1  1  0.60999378  0.07045975  0.30621649  1
  O  O2  1  0.41277949  0.75919904  0.30104738  1
  O  O3  1  0.91028608  0.77126438  0.29115027  1
  O  O4  1  0.47286670  0.16746546  0.30458396  1
  O  O5  1  0.97246732  0.18122452  0.29378270  1
  O  O6  1  0.11232927  0.16606178  0.80780352  1
  O  O7  1  0.62716838  0.17472195  0.79911728  1
  O  O8  1  0.46904312  0.75685361  0.79330028  1
  O  O9  1  0.97089435  0.76328390  0.80403158  1
  O  O10  1  0.40844338  0.05335022  0.79007865  1
  O  O11  1  0.90979950  0.06427153  0.80230151  1
  O  O12  1  0.41248001  0.01099791  0.68876586  1
  O  O13  1  0.89418278  0.00668733  0.70170464  1
  O  O14  1  0.10645934  0.19947758  0.70552976  1
  O  O15  1  0.58699384  0.17290847  0.69288745  1
  O  O16  1  0.99774606  0.79066192  0.70205571  1
  O  O17  1  0.49320961  0.80700973  0.69136362  1
  O  O18  1  0.39020007  0.78039068  0.20074527  1
  O  O19  1  0.91129011  0.82139076  0.18948937  1
  O  O20  1  0.99461071  0.18355424  0.19174414  1
  O  O21  1  0.49779135  0.20342088  0.20215710  1
  O  O22  1  0.08746233  0.00236322  0.19298080  1
  O  O23  1  0.60124519  0.99322723  0.19456100  1
  O  O24  1  0.44378546  0.38356202  0.63821581  1
  O  O25  1  0.92686177  0.37304285  0.63946336  1
  O  O26  1  0.24033279  0.10011620  0.63163289  1
  O  O27  1  0.73545069  0.11371501  0.63920397  1
  O  O28  1  0.31385627  0.51377942  0.63988541  1
  O  O29  1  0.80795939  0.51892444  0.63162470  1
  O  O30  1  0.42672455  0.47986392  0.13941412  1
  O  O31  1  0.92664106  0.48114377  0.13946458  1
  O  O32  1  0.30755195  0.09532653  0.13148276  1
  O  O33  1  0.81296186  0.10620818  0.13840958  1
  O  O34  1  0.23472084  0.35576186  0.13907398  1
  O  O35  1  0.73749069  0.37804109  0.12994344  1
  O  O36  1  0.20210446  0.27902919  0.04179954  1
  O  O37  1  0.72641528  0.33287636  0.02870702  1
  O  O38  1  0.42612417  0.53783057  0.02748196  1
  O  O39  1  0.92656535  0.56676580  0.03260360  1
  O  O40  1  0.33620589  0.11600290  0.02971014  1
  O  O41  1  0.85356637  0.13042822  0.03855493  1
  O  O42  1  0.22589965  0.12541455  0.52998504  1
  O  O43  1  0.70208680  0.12696564  0.54208166  1
  O  O44  1  0.35526816  0.57487741  0.53900291  1
  O  O45  1  0.83781178  0.55905065  0.52985155  1
  O  O46  1  0.42769356  0.28644887  0.53206122  1
  O  O47  1  0.92629833  0.31867367  0.52784620  1
  O  O48  1  0.26190252  0.67935605  0.97481597  1
  O  O49  1  0.78195716  0.70568442  0.96774195  1
  O  O50  1  0.06602495  0.42878723  0.96677416  1
  O  O51  1  0.57849417  0.47065229  0.97458176  1
  O  O52  1  0.14626245  0.84433747  0.97473452  1
  O  O53  1  0.65837422  0.84232844  0.97970846  1
  O  O54  1  0.28413812  0.85762502  0.46799831  1
  O  O55  1  0.75844094  0.83405903  0.47803983  1
  O  O56  1  0.15673271  0.46903671  0.47890330  1
  O  O57  1  0.64676103  0.45087972  0.47193215  1
  O  O58  1  0.07755252  0.68381119  0.47466628  1
  O  O59  1  0.56729257  0.71084830  0.46601751  1
  O  O60  1  0.06964887  0.67574322  0.37092361  1
  O  O61  1  0.56903977  0.67501485  0.36442210  1
  O  O62  1  0.26596375  0.86883633  0.36606773  1
  O  O63  1  0.76682181  0.85264501  0.37251859  1
  O  O64  1  0.16503194  0.47676925  0.37337693  1
  O  O65  1  0.68333403  0.48703656  0.35797011  1
  O  O66  1  0.06986079  0.46168121  0.86409261  1
  O  O67  1  0.56936017  0.46461471  0.87136857  1
  O  O68  1  0.17404231  0.86659884  0.86060045  1
  O  O69  1  0.66603198  0.85207170  0.87420096  1
  O  O70  1  0.26879469  0.68227312  0.87041874  1
  O  O71  1  0.76693494  0.66743861  0.86569436  1
  O  O72  1  0.01982349  0.83298357  0.42532415  1
  O  O73  1  0.52393898  0.86488866  0.40590051  1
  O  O74  1  0.40627880  0.95883870  0.40401876  1
  O  O75  1  0.89527302  0.95243439  0.42551724  1
  O  O76  1  0.08496739  0.21161237  0.42648872  1
  O  O77  1  0.56911847  0.18823300  0.40790903  1
  O  O78  1  0.02178600  0.18468082  0.91041978  1
  O  O79  1  0.51968827  0.20588102  0.92568784  1
  O  O80  1  0.06952206  0.95377698  0.90933102  1
  O  O81  1  0.58576147  0.95486986  0.92660569  1
  O  O82  1  0.39757793  0.83916415  0.92274053  1
  O  O83  1  0.90526079  0.85660240  0.90698471  1
  O  O84  1  0.50207511  0.17263668  0.59797401  1
  O  O85  1  0.99937510  0.19778287  0.58970473  1
  O  O86  1  0.10115379  0.97477081  0.58739969  1
  O  O87  1  0.58319648  0.98393210  0.60421565  1
  O  O88  1  0.40619627  0.81173380  0.60237858  1
  O  O89  1  0.89281557  0.80199047  0.58667360  1
  O  O90  1  0.49968804  0.80458266  0.08679719  1
  O  O91  1  0.99791660  0.82299409  0.10096846  1
  O  O92  1  0.39026682  0.97970970  0.08679719  1
  O  O93  1  0.90387672  0.99505697  0.10223851  1
  O  O94  1  0.08257182  0.17867448  0.10350672  1
  O  O95  1  0.59937329  0.22981788  0.08412365  1
  O  O96  1  0.35737661  0.19171219  0.73092399  1
  O  O97  1  0.85539884  0.19948851  0.74324146  1
  O  O98  1  0.24169005  0.28683628  0.74889980  1
  O  O99  1  0.75279891  0.30361838  0.72527045  1
  O  O100  1  0.40413502  0.51676499  0.73410319  1
  O  O101  1  0.90401182  0.51634179  0.74573095  1
  O  O102  1  0.35708152  0.51206836  0.24375444  1
  O  O103  1  0.86246892  0.53555291  0.23278208  1
  O  O104  1  0.40439822  0.28458820  0.24842601  1
  O  O105  1  0.90702746  0.29048754  0.23602102  1
  O  O106  1  0.25384646  0.20192363  0.22565209  1
  O  O107  1  0.75223768  0.22130456  0.23467488  1
  O  O108  1  0.32170822  0.53359432  0.92035661  1
  O  O109  1  0.83389553  0.54187273  0.91653813  1
  O  O110  1  0.44139392  0.35642696  0.92649286  1
  O  O111  1  0.93516760  0.32071309  0.91435673  1
  O  O112  1  0.24194538  0.14756079  0.91513016  1
  O  O113  1  0.74072020  0.11144047  0.92512848  1
  O  O114  1  0.33469430  0.12716002  0.41584776  1
  O  O115  1  0.81886394  0.10464283  0.42343860  1
  O  O116  1  0.23984225  0.36738802  0.42526973  1
  O  O117  1  0.74223758  0.33841140  0.41468578  1
  O  O118  1  0.43539013  0.55669716  0.41459201  1
  O  O119  1  0.94104701  0.52538619  0.42544307  1
  O  O120  1  0.16922926  0.48267726  0.08501432  1
  O  O121  1  0.69529842  0.53813715  0.07310379  1
  O  O122  1  0.07305830  0.64034115  0.07762029  1
  O  O123  1  0.57526235  0.62187755  0.07760687  1
  O  O124  1  0.23717087  0.84314848  0.07726365  1
  O  O125  1  0.75100978  0.85430854  0.08136860  1
  O  O126  1  0.19311637  0.85347370  0.57412365  1
  O  O127  1  0.66975592  0.85500786  0.58523765  1
  O  O128  1  0.25413487  0.64825143  0.58148733  1
  O  O129  1  0.73982941  0.63391223  0.57523899  1
  O  O130  1  0.07760751  0.53035190  0.57640815  1
  O  O131  1  0.58011617  0.51235597  0.57081747  1
  O  O132  1  0.16713428  0.86910711  0.24409323  1
  O  O133  1  0.67993355  0.89285696  0.26039358  1
  O  O134  1  0.26983939  0.63661118  0.26316755  1
  O  O135  1  0.77884088  0.67417083  0.23905724  1
  O  O136  1  0.06219738  0.44785973  0.24225525  1
  O  O137  1  0.55741745  0.44876661  0.25761587  1
  O  O138  1  0.16782109  0.44585888  0.76051556  1
  O  O139  1  0.66776712  0.46517671  0.74468641  1
  O  O140  1  0.05703833  0.65931483  0.75638549  1
  O  O141  1  0.56001402  0.67551540  0.74200853  1
  O  O142  1  0.27877731  0.88219147  0.73765001  1
  O  O143  1  0.76940397  0.89774428  0.76041362  1
loop_
_geom_bond_atom_site_label_1
_geom_bond_atom_site_label_2
_geom_bond_distance
_geom_bond_site_symmetry_2
Na0 O76 2.405050 1_655
Na0 O75 2.443310 1_545
Na0 O72 2.639614 1_645
Na0 O85 2.692422 1_555
Na0 O89 2.745707 1_545
Na0 O86 3.015244 1_645
Na1 O81 2.470124 1_554
Na1 O82 2.485353 1_554
Na1 O90 2.586192 1_555
Na1 O79 2.619755 1_564
Na1 O92 2.753867 1_555
Na1 O95 2.956090 1_565
Na2 O112 2.397182 1_555
Na2 O98 2.420046 1_555
Na2 O100 2.864961 1_555
Na2 O96 2.872305 1_555
Na2 O108 2.921215 1_555
Na2 O110 3.083143 1_555
Na3 O101 2.394447 1_555
Na3 O97 2.454788 1_555
Na3 O99 2.729507 1_555
Na3 O109 2.904083 1_555
Na3 O111 2.955651 1_555
Na3 O113 2.962050 1_555
Na3 O7 3.259993 1_555
Na4 O104 2.376854 1_555
Na4 O102 2.440614 1_555
Na4 O106 2.719662 1_555
Na4 O114 2.847980 1_555
Na4 O118 2.997198 1_555
Na4 O116 3.000925 1_555
Na4 O0 3.259490 1_555
Na5 O117 2.432976 1_555
Na5 O107 2.605332 1_555
Na5 O103 2.819845 1_555
Na5 O105 2.856874 1_555
Na5 O115 3.005282 1_555
Na5 O119 3.067136 1_555
Na5 O1 3.394338 1_555
La0 O0 2.172661 1_555
La0 O5 2.415715 1_455
La0 O3 2.459397 1_445
La0 O72 2.492147 1_545
La0 O76 2.536005 1_555
La0 O75 2.599574 1_445
La1 O7 2.174565 1_555
La1 O79 2.489719 1_555
La1 O8 2.490331 1_545
La1 O82 2.500520 1_545
La1 O10 2.518878 1_555
La1 O81 2.545580 1_545
La2 O85 2.214559 1_455
La2 O13 2.331243 1_455
La2 O16 2.346755 1_445
La2 O14 2.352087 1_555
La2 O86 2.380636 1_545
La2 O89 2.420844 1_445
La3 O23 2.178129 1_545
La3 O90 2.270081 1_545
La3 O21 2.335085 1_555
La3 O18 2.342590 1_545
La3 O95 2.405474 1_555
La3 O92 2.452869 1_545
La4 O38 2.218594 1_556
La4 O112 2.275865 1_555
La4 O36 2.337987 1_556
La4 O40 2.380561 1_556
La4 O108 2.383016 1_555
La4 O110 2.467967 1_555
La5 O39 2.143801 1_556
La5 O37 2.333958 1_556
La5 O111 2.388517 1_555
La5 O41 2.410925 1_556
La5 O109 2.505793 1_555
La5 O113 2.527317 1_555
La6 O46 2.149620 1_555
La6 O118 2.353589 1_555
La6 O42 2.356367 1_555
La6 O114 2.454300 1_555
La6 O44 2.479414 1_555
La6 O116 2.520354 1_555
La7 O47 2.185737 1_555
La7 O117 2.304544 1_555
La7 O43 2.335492 1_555
La7 O115 2.386926 1_555
La7 O45 2.392139 1_555
La7 O119 2.453704 1_555
La8 O132 2.183112 1_555
La8 O134 2.300245 1_555
La8 O60 2.343365 1_555
La8 O62 2.400198 1_555
La8 O136 2.471129 1_555
La8 O64 2.519847 1_555
La9 O133 2.197395 1_555
La9 O65 2.226899 1_555
La9 O137 2.322567 1_555
La9 O61 2.373758 1_555
La9 O135 2.400492 1_555
La9 O63 2.431003 1_555
La10 O68 2.150400 1_555
La10 O140 2.341123 1_555
La10 O66 2.374138 1_555
La10 O138 2.377135 1_555
La10 O70 2.382365 1_555
La10 O142 2.387247 1_555
La11 O139 2.169369 1_555
La11 O143 2.309952 1_555
La11 O67 2.317688 1_555
La11 O71 2.427261 1_555
La11 O141 2.468893 1_555
La11 O69 2.566861 1_555
Ge0 O77 1.751686 1_555
Ge0 O1 1.807330 1_555
Ge0 O73 1.902280 1_545
Ge0 O74 2.184811 1_545
Ge0 O4 2.297167 1_555
Ge1 O80 1.736626 1_545
Ge1 O78 1.865875 1_555
Ge1 O83 1.889078 1_445
Ge1 O6 2.165439 1_555
Ge2 O15 1.733569 1_555
Ge2 O84 1.760345 1_555
Ge2 O87 1.836716 1_545
Ge2 O12 1.980305 1_555
Ge2 O17 2.225118 1_545
Ge2 O88 2.281892 1_545
Ge3 O22 1.741285 1_565
Ge3 O91 1.768014 1_455
Ge3 O94 1.854622 1_565
Ge3 O19 1.916579 1_455
Ge3 O20 2.259031 1_465
Ge3 O93 2.284973 1_455
Ge4 O24 1.752698 1_555
Ge4 O100 1.897488 1_555
Ge4 O96 2.040243 1_555
Ge4 O28 2.074823 1_555
Ge4 O98 2.450220 1_555
Ge5 O99 1.742786 1_555
Ge5 O25 1.751908 1_555
Ge5 O97 1.941752 1_555
Ge5 O27 2.156253 1_555
Ge5 O101 2.209110 1_555
Ge6 O106 1.732889 1_555
Ge6 O30 1.751592 1_555
Ge6 O102 1.909716 1_555
Ge6 O34 2.158384 1_555
Ge6 O104 2.292333 1_555
Ge7 O31 1.774280 1_555
Ge7 O107 1.801873 1_555
Ge7 O105 1.894879 1_555
Ge7 O103 2.029620 1_555
Ge7 O33 2.211769 1_555
Ge8 O52 1.738175 1_554
Ge8 O122 1.744010 1_555
Ge8 O124 1.805928 1_555
Ge9 O123 1.753568 1_555
Ge9 O121 1.899766 1_555
Ge9 O125 1.981819 1_555
Ge9 O53 2.006806 1_554
Ge9 O51 2.274650 1_554
Ge10 O130 1.765117 1_555
Ge10 O126 1.966103 1_555
Ge10 O56 2.031598 1_555
Ge10 O58 2.132408 1_555
Ge10 O128 2.159842 1_555
Ge10 O54 2.437846 1_555
Ge11 O57 1.739315 1_555
Ge11 O131 1.768904 1_555
Ge11 O129 1.843345 1_555
Ge11 O55 2.112988 1_555
O0 Si0 1.632318 1_555
O1 Si1 1.680530 1_555
O2 S0 1.458946 1_555
O3 S1 1.476846 1_555
O4 S3 1.513321 1_555
O5 S2 1.493877 1_555
O6 S4 1.534636 1_555
O7 Si2 1.640418 1_555
O8 S6 1.481928 1_555
O9 S5 1.505049 1_555
O10 S7 1.476396 1_555
O11 S8 1.473290 1_555
O12 S7 1.484853 1_555
O13 S8 1.431256 1_555
O14 S4 1.431802 1_555
O15 Si2 1.623403 1_555
O16 S5 1.443750 1_555
O17 S6 1.463067 1_555
O18 S0 1.435492 1_555
O19 S1 1.506668 1_555
O20 S2 1.456374 1_555
O21 S3 1.448482 1_555
O22 Si0 1.612244 1_555
O23 Si1 1.600520 1_565
O24 Si3 1.692993 1_555
O25 Si4 1.731550 1_555
O26 S9 1.499917 1_555
O27 S10 1.498509 1_555
O28 S11 1.583913 1_555
O29 S12 1.476544 1_555
O30 Si5 1.707755 1_555
O31 Si6 1.679440 1_555
O32 S13 1.455251 1_555
O33 S14 1.499773 1_555
O34 S15 1.509350 1_555
O35 S16 1.467910 1_555
O36 S15 1.458348 1_555
O37 S16 1.463544 1_555
O38 Si5 1.630312 1_555
O39 Si6 1.594276 1_555
O40 S13 1.460658 1_555
O41 S14 1.474075 1_555
O42 S9 1.458990 1_555
O43 S10 1.441546 1_555
O44 S11 1.453337 1_555
O45 S12 1.444608 1_555
O46 Si3 1.590274 1_555
O47 Si4 1.603706 1_555
O48 S17 1.490246 1_555
O49 S18 1.464691 1_555
O50 S19 1.435917 1_555
O51 S20 1.484798 1_555
O52 Si7 1.700193 1_555
O53 S21 1.548471 1_555
O54 S22 1.501492 1_555
O55 S23 1.546216 1_555
O56 S24 1.544876 1_555
O57 Si8 1.660644 1_555
O58 S25 1.508195 1_555
O59 S26 1.457123 1_555
O60 S25 1.483905 1_555
O61 S26 1.468657 1_555
O62 S22 1.470315 1_555
O63 S23 1.461261 1_555
O64 S24 1.476033 1_555
O65 Si8 1.634498 1_555
O66 S19 1.485210 1_555
O67 S20 1.494026 1_555
O68 Si7 1.598745 1_555
O69 S21 1.468337 1_555
O70 S17 1.483073 1_555
O71 S18 1.470272 1_555
O72 S25 1.495044 1_555
O73 S26 1.548054 1_555
O74 S22 1.508471 1_555
O75 S23 1.488814 1_555
O76 S24 1.495193 1_555
O77 Si8 1.625181 1_555
O78 S19 1.561306 1_555
O79 S20 1.499588 1_555
O80 Si7 1.658725 1_555
O81 S21 1.495693 1_555
O82 S17 1.492758 1_555
O83 S18 1.562958 1_555
O84 Si3 1.640967 1_555
O85 Si4 1.602754 1_555
O86 S9 1.461402 1_565
O87 S10 1.557483 1_565
O88 S11 1.479901 1_555
O89 S12 1.467442 1_555
O90 Si5 1.629531 1_555
O91 Si6 1.640247 1_555
O92 S13 1.462816 1_565
O93 S14 1.472209 1_565
O94 S15 1.555714 1_555
O95 S16 1.468336 1_555
O96 S7 1.538026 1_555
O97 S8 1.538702 1_555
O98 S4 1.518220 1_555
O99 Si2 1.650592 1_555
O100 S6 1.577396 1_555
O101 S5 1.510996 1_555
O102 S0 1.556425 1_555
O103 S1 1.483164 1_555
O104 S3 1.508977 1_555
O105 S2 1.535418 1_555
O106 Si0 1.654442 1_555
O107 Si1 1.684447 1_555
O108 S17 1.482478 1_555
O109 S18 1.483053 1_555
O110 S20 1.472237 1_555
O111 S19 1.481604 1_655
O112 Si7 1.611341 1_545
O113 S21 1.473133 1_545
O114 S22 1.502439 1_545
O115 S23 1.481576 1_545
O116 S24 1.469603 1_555
O117 Si8 1.642420 1_555
O118 S26 1.484663 1_555
O119 S25 1.467942 1_655
O120 S15 1.459644 1_555
O121 S16 1.551991 1_555
O122 Si6 1.686729 1_455
O123 Si5 1.646613 1_555
O124 S13 1.577603 1_565
O125 S14 1.552499 1_565
O126 S9 1.542668 1_565
O127 S10 1.490772 1_565
O128 S11 1.515049 1_555
O129 S12 1.562623 1_555
O130 Si4 1.678735 1_455
O131 Si3 1.661730 1_555
O132 Si0 1.623289 1_565
O133 Si1 1.638706 1_565
O134 S0 1.484437 1_555
O135 S1 1.474880 1_555
O136 S2 1.475313 1_455
O137 S3 1.471148 1_555
O138 S4 1.477130 1_555
O139 Si2 1.611851 1_555
O140 S5 1.477189 1_455
O141 S6 1.467553 1_555
O142 S7 1.468756 1_565
O143 S8 1.483256 1_565
