# generated using pymatgen
data_Na5Ti2In2SiP5O24
_symmetry_space_group_name_H-M   'P 1'
_cell_length_a   8.95493569
_cell_length_b   8.95678853
_cell_length_c   22.38264766
_cell_angle_alpha   90.08308741
_cell_angle_beta   89.90201119
_cell_angle_gamma   120.22516395
_symmetry_Int_Tables_number   1
_chemical_formula_structural   Na5Ti2In2SiP5O24
_chemical_formula_sum   'Na15 Ti6 In6 Si3 P15 O72'
_cell_volume   1551.19464170
_cell_formula_units_Z   3
loop_
 _symmetry_equiv_pos_site_id
 _symmetry_equiv_pos_as_xyz
  1  'x, y, z'
loop_
 _atom_site_type_symbol
 _atom_site_label
 _atom_site_symmetry_multiplicity
 _atom_site_fract_x
 _atom_site_fract_y
 _atom_site_fract_z
 _atom_site_occupancy
  Na  Na0  1  0.00215941  0.64413021  0.25118423  1
  Na  Na1  1  0.62660272  0.63230336  0.75007559  1
  Na  Na2  1  0.37008551  0.99940942  0.75329285  1
  Na  Na3  1  0.66864957  0.97004542  0.58493637  1
  Na  Na4  1  0.30065846  0.97322597  0.08371648  1
  Na  Na5  1  0.67756658  0.70034988  0.08059331  1
  Na  Na6  1  0.02902111  0.33045180  0.08400518  1
  Na  Na7  1  0.96385582  0.29914605  0.41695453  1
  Na  Na8  1  0.34113458  0.03955652  0.41917699  1
  Na  Na9  1  0.00447827  0.98721919  0.50375924  1
  Na  Na10  1  0.00121851  0.99224752  0.99497533  1
  Na  Na11  1  0.68234665  0.33795187  0.83832523  1
  Na  Na12  1  0.65007908  0.33361451  0.33205365  1
  Na  Na13  1  0.34713102  0.66835826  0.17007080  1
  Na  Na14  1  0.31113898  0.64522315  0.66604199  1
  Ti  Ti0  1  0.99137036  0.00223453  0.85458676  1
  Ti  Ti1  1  0.00471590  0.00039194  0.64834101  1
  Ti  Ti2  1  0.66989415  0.32455106  0.68391397  1
  Ti  Ti3  1  0.66980825  0.33299156  0.18403680  1
  Ti  Ti4  1  0.32597392  0.66637972  0.01337721  1
  Ti  Ti5  1  0.33307475  0.66774926  0.52225518  1
  In  In0  1  0.99472819  0.99555214  0.35073279  1
  In  In1  1  0.00049419  0.00112898  0.15415555  1
  In  In2  1  0.66652545  0.33649468  0.97942063  1
  In  In3  1  0.66314912  0.34101417  0.48826482  1
  In  In4  1  0.34108079  0.66671390  0.31555325  1
  In  In5  1  0.32853522  0.66376636  0.81354919  1
  Si  Si0  1  0.71708280  0.00901596  0.74873064  1
  Si  Si1  1  0.36453345  0.03390192  0.58265544  1
  Si  Si2  1  0.96414182  0.62883714  0.08292344  1
  P  P0  1  0.30906887  0.00741294  0.25056909  1
  P  P1  1  0.69790761  0.69122019  0.24650287  1
  P  P2  1  0.99194666  0.30028748  0.24968038  1
  P  P3  1  0.28644355  0.28187923  0.74984867  1
  P  P4  1  0.99213023  0.71198613  0.75020070  1
  P  P5  1  0.96435286  0.33371540  0.58355344  1
  P  P6  1  0.66696006  0.62965676  0.58693018  1
  P  P7  1  0.66273590  0.03918872  0.08272779  1
  P  P8  1  0.37758643  0.33824470  0.08336773  1
  P  P9  1  0.62888019  0.67222490  0.91433569  1
  P  P10  1  0.04125461  0.36770284  0.91512941  1
  P  P11  1  0.32608946  0.95984267  0.91402955  1
  P  P12  1  0.62721216  0.95909679  0.42062941  1
  P  P13  1  0.33470648  0.37683063  0.41879920  1
  P  P14  1  0.04322065  0.66615549  0.41810260  1
  O  O0  1  0.22806407  0.03411011  0.30793216  1
  O  O1  1  0.82166256  0.77515463  0.29996108  1
  O  O2  1  0.96958879  0.19523224  0.30680864  1
  O  O3  1  0.20130848  0.16937115  0.80603685  1
  O  O4  1  0.96863781  0.80096525  0.80628361  1
  O  O5  1  0.83767876  0.02880415  0.80802488  1
  O  O6  1  0.81072030  0.98254487  0.69077211  1
  O  O7  1  0.17575532  0.18935875  0.69433523  1
  O  O8  1  0.01781086  0.82800699  0.69511212  1
  O  O9  1  0.77353108  0.79225436  0.18787854  1
  O  O10  1  0.01840493  0.22141240  0.19225418  1
  O  O11  1  0.19378696  0.97202123  0.19465203  1
  O  O12  1  0.86315977  0.35999198  0.63612960  1
  O  O13  1  0.50499410  0.13933899  0.63849531  1
  O  O14  1  0.64196212  0.51220833  0.64162691  1
  O  O15  1  0.87084539  0.50041231  0.14210658  1
  O  O16  1  0.63379699  0.13063120  0.13741109  1
  O  O17  1  0.49844141  0.36297391  0.13732346  1
  O  O18  1  0.44059718  0.28669062  0.02797771  1
  O  O19  1  0.83465010  0.55120146  0.02761491  1
  O  O20  1  0.70159845  0.15049883  0.02726522  1
  O  O21  1  0.43378579  0.13743454  0.52074458  1
  O  O22  1  0.71009907  0.56656292  0.52969277  1
  O  O23  1  0.85553733  0.29085696  0.52604225  1
  O  O24  1  0.52853908  0.68818359  0.97018404  1
  O  O25  1  0.15577810  0.46639074  0.97230622  1
  O  O26  1  0.31017872  0.83758827  0.96943795  1
  O  O27  1  0.53190212  0.85072560  0.47753600  1
  O  O28  1  0.32254939  0.47994321  0.47325216  1
  O  O29  1  0.16613425  0.68200657  0.47107614  1
  O  O30  1  0.11401435  0.64073657  0.35837735  1
  O  O31  1  0.51733470  0.88245490  0.36447052  1
  O  O32  1  0.35053162  0.46941915  0.35989352  1
  O  O33  1  0.12023915  0.47463092  0.85939583  1
  O  O34  1  0.35230924  0.88605849  0.85565062  1
  O  O35  1  0.53245702  0.65182720  0.85557845  1
  O  O36  1  0.04012155  0.83764011  0.41784525  1
  O  O37  1  0.80736957  0.97438118  0.41803555  1
  O  O38  1  0.16265033  0.19707694  0.41910890  1
  O  O39  1  0.03816089  0.19213394  0.91218621  1
  O  O40  1  0.15652972  0.96497775  0.91311165  1
  O  O41  1  0.80890739  0.84274909  0.91238180  1
  O  O42  1  0.98142025  0.17240280  0.59404063  1
  O  O43  1  0.17320205  0.00642988  0.59471744  1
  O  O44  1  0.82084990  0.81773890  0.59459388  1
  O  O45  1  0.00172813  0.82647203  0.08921332  1
  O  O46  1  0.82046281  0.01383023  0.09040271  1
  O  O47  1  0.18966213  0.18800349  0.09200623  1
  O  O48  1  0.69660364  0.18265660  0.74225212  1
  O  O49  1  0.46915459  0.29849058  0.74334991  1
  O  O50  1  0.82527589  0.53357436  0.74319672  1
  O  O51  1  0.68549217  0.51143781  0.24057634  1
  O  O52  1  0.82559056  0.31483500  0.24361432  1
  O  O53  1  0.48800548  0.16922483  0.24137499  1
  O  O54  1  0.65155393  0.51430938  0.91882686  1
  O  O55  1  0.85809357  0.33727967  0.92105009  1
  O  O56  1  0.48525271  0.13896299  0.92152517  1
  O  O57  1  0.65214277  0.14369552  0.42415568  1
  O  O58  1  0.48990794  0.34730142  0.42141183  1
  O  O59  1  0.86512424  0.50291679  0.42505239  1
  O  O60  1  0.37237483  0.50945991  0.07725203  1
  O  O61  1  0.15438512  0.63820254  0.07442142  1
  O  O62  1  0.49556247  0.85785539  0.07726986  1
  O  O63  1  0.35842220  0.84515648  0.57828141  1
  O  O64  1  0.50169613  0.64664619  0.58039093  1
  O  O65  1  0.14367651  0.49815661  0.57845142  1
  O  O66  1  0.32248719  0.84198222  0.25390876  1
  O  O67  1  0.51740118  0.66748733  0.25237299  1
  O  O68  1  0.14561142  0.48809366  0.25205113  1
  O  O69  1  0.31250867  0.46570459  0.75073436  1
  O  O70  1  0.15730833  0.69870125  0.75166194  1
  O  O71  1  0.52322203  0.83739386  0.75013396  1
loop_
_geom_bond_atom_site_label_1
_geom_bond_atom_site_label_2
_geom_bond_distance
_geom_bond_site_symmetry_2
Na0 O68 2.326273 1_555
Na0 O51 2.473580 1_455
Na0 O66 2.500975 1_555
Na0 O52 2.555805 1_455
Na0 O30 2.607642 1_555
Na0 O1 2.661151 1_455
Na0 O15 2.734440 1_455
Na0 O11 2.846101 1_555
Na1 O50 2.356590 1_555
Na1 O69 2.431543 1_555
Na1 O71 2.437946 1_555
Na1 O35 2.541286 1_555
Na1 O49 2.589446 1_555
Na1 O14 2.684834 1_555
Na1 O4 2.931799 1_555
Na1 O6 3.019691 1_555
Na2 O49 2.370855 1_565
Na2 O70 2.391501 1_555
Na2 O71 2.448312 1_555
Na2 O34 2.479462 1_555
Na2 O48 2.543897 1_565
Na2 O13 2.847244 1_565
Na2 O3 2.881068 1_565
Na2 O8 3.022670 1_555
Na3 O44 2.374684 1_555
Na3 O63 2.421438 1_555
Na3 O42 2.461953 1_565
Na3 O64 2.505106 1_555
Na3 O27 2.665611 1_555
Na3 O6 2.666245 1_555
Na3 O23 2.820817 1_565
Na3 O13 2.847832 1_565
Na4 O45 2.316352 1_555
Na4 O62 2.439143 1_555
Na4 O47 2.578085 1_565
Na4 O61 2.608692 1_555
Na4 O11 2.657633 1_555
Na4 O18 2.733527 1_565
Na4 O16 2.846857 1_565
Na4 O26 2.849622 1_554
Na5 O60 2.386178 1_555
Na5 O46 2.439488 1_565
Na5 O45 2.537644 1_655
Na5 O9 2.543933 1_555
Na5 O62 2.639645 1_555
Na5 O19 2.655388 1_555
Na5 O24 2.786399 1_554
Na5 O17 2.905285 1_555
Na6 O47 2.361932 1_555
Na6 O61 2.406189 1_555
Na6 O46 2.493744 1_455
Na6 O10 2.597288 1_555
Na6 O60 2.661424 1_555
Na6 O25 2.762099 1_554
Na6 O20 2.838394 1_455
Na6 O15 2.858991 1_455
Na7 O38 2.376163 1_655
Na7 O59 2.401828 1_555
Na7 O57 2.417124 1_555
Na7 O37 2.514326 1_545
Na7 O23 2.613057 1_555
Na7 O2 2.643464 1_555
Na7 O30 2.958305 1_655
Na7 O28 3.049369 1_655
Na8 O36 2.372689 1_545
Na8 O58 2.382814 1_555
Na8 O21 2.427638 1_555
Na8 O57 2.454450 1_555
Na8 O38 2.610663 1_555
Na8 O0 2.680677 1_555
Na8 O31 2.862294 1_545
Na8 O29 3.002168 1_545
Na9 O36 2.452677 1_555
Na9 O43 2.490993 1_565
Na9 O38 2.539664 1_565
Na9 O37 2.572331 1_455
Na9 O44 2.574152 1_455
Na9 O42 2.685293 1_465
Na9 O22 3.388699 1_455
Na10 O40 2.383989 1_555
Na10 O41 2.420400 1_455
Na10 O39 2.481882 1_565
Na10 O45 2.582589 1_556
Na10 O46 2.742548 1_466
Na10 O47 2.767893 1_566
Na11 O55 2.434103 1_555
Na11 O54 2.499273 1_555
Na11 O56 2.567277 1_555
Na11 O48 2.596980 1_555
Na11 O50 2.643005 1_555
Na11 O49 2.760622 1_555
Na12 O58 2.497820 1_555
Na12 O53 2.498740 1_555
Na12 O51 2.515617 1_555
Na12 O52 2.582928 1_555
Na12 O57 2.680605 1_555
Na12 O59 2.721265 1_555
Na13 O67 2.395841 1_555
Na13 O68 2.508831 1_555
Na13 O66 2.514762 1_555
Na13 O62 2.586780 1_555
Na13 O60 2.589694 1_555
Na13 O61 2.679013 1_555
Na14 O65 2.416888 1_555
Na14 O69 2.491535 1_555
Na14 O70 2.540134 1_555
Na14 O63 2.547273 1_555
Na14 O64 2.560137 1_555
Na14 O71 2.612260 1_555
In0 O1 2.123559 1_555
In0 O2 2.151086 1_565
In0 O0 2.161167 1_665
In0 O37 2.189080 1_555
In0 O36 2.238144 1_655
In0 O38 2.264658 1_665
In1 O10 2.079121 1_555
In1 O11 2.084720 1_545
In1 O9 2.090748 1_445
In1 O45 2.137991 1_545
In1 O47 2.179513 1_555
In1 O46 2.200280 1_455
In2 O19 2.052586 1_556
In2 O56 2.133907 1_555
In2 O20 2.133978 1_556
In2 O18 2.135106 1_556
In2 O54 2.148436 1_555
In2 O55 2.151755 1_555
In3 O22 2.063622 1_555
In3 O21 2.073668 1_555
In3 O23 2.161073 1_555
In3 O59 2.175445 1_555
In3 O58 2.178324 1_555
In3 O57 2.238302 1_555
In4 O32 2.066594 1_555
In4 O31 2.086400 1_555
In4 O67 2.115246 1_555
In4 O30 2.150609 1_555
In4 O66 2.160119 1_555
In4 O68 2.196859 1_555
In5 O33 2.054074 1_555
In5 O35 2.105668 1_555
In5 O34 2.113289 1_555
In5 O71 2.177360 1_555
In5 O70 2.204392 1_555
In5 O69 2.209416 1_555
O0 P0 1.549977 1_555
O1 P1 1.545363 1_555
O2 P2 1.540602 1_555
O3 P3 1.550896 1_555
O3 Ti0 2.029896 1_455
O4 P4 1.555682 1_555
O4 Ti0 2.021331 1_565
O5 Si0 1.664492 1_555
O5 Ti0 1.836395 1_555
O6 Si0 1.624122 1_565
O6 Ti1 1.913285 1_665
O7 P3 1.545106 1_555
O7 Ti1 1.913317 1_555
O8 P4 1.554114 1_455
O8 Ti1 1.918606 1_565
O9 P1 1.543605 1_555
O10 P2 1.540197 1_455
O11 P0 1.551272 1_565
O12 P5 1.572153 1_555
O12 Ti2 1.918718 1_555
O13 Si1 1.685848 1_555
O13 Ti2 1.870804 1_555
O14 P6 1.556036 1_555
O14 Ti2 2.052372 1_555
O15 Si2 1.676002 1_555
O15 Ti3 1.910703 1_555
O16 P7 1.563886 1_555
O16 Ti3 1.971157 1_555
O17 P8 1.562417 1_555
O17 Ti3 1.985314 1_555
O18 P8 1.525424 1_555
O19 Si2 1.597278 1_555
O20 P7 1.519522 1_555
O21 Si1 1.608276 1_555
O22 P6 1.525081 1_555
O23 P5 1.542776 1_555
O24 P9 1.585987 1_555
O24 Ti4 1.975128 1_556
O25 P10 1.599819 1_555
O25 Ti4 1.904717 1_556
O26 P11 1.613586 1_555
O26 Ti4 1.887331 1_556
O27 P12 1.568049 1_555
O27 Ti5 1.979583 1_555
O28 P13 1.564543 1_555
O28 Ti5 1.968974 1_555
O29 P14 1.576122 1_555
O29 Ti5 1.939552 1_555
O30 P14 1.543478 1_555
O31 P12 1.530060 1_555
O32 P13 1.526557 1_555
O33 P10 1.513979 1_555
O34 P11 1.533606 1_555
O35 P9 1.533920 1_555
O36 P14 1.550127 1_555
O37 P12 1.549898 1_555
O38 P13 1.571181 1_555
O39 P10 1.560068 1_555
O39 Ti0 2.002163 1_455
O40 P11 1.542234 1_555
O40 Ti0 2.125914 1_465
O41 P9 1.566717 1_555
O41 Ti0 2.007971 1_565
O42 P5 1.545789 1_555
O42 Ti1 2.055289 1_655
O43 Si1 1.625789 1_555
O43 Ti1 1.905719 1_555
O44 P6 1.558556 1_555
O44 Ti1 2.030700 1_665
O45 Si2 1.632851 1_455
O46 P7 1.549194 1_555
O47 P8 1.549158 1_555
O48 Si0 1.661747 1_555
O48 Ti2 1.920777 1_555
O49 P3 1.573051 1_555
O49 Ti2 2.150801 1_555
O50 P4 1.551411 1_555
O50 Ti2 2.139673 1_555
O51 P1 1.562728 1_555
O51 Ti3 1.986087 1_555
O52 P2 1.565507 1_555
O52 Ti3 1.996536 1_555
O53 P0 1.540147 1_555
O53 Ti3 2.010763 1_555
O54 P9 1.530204 1_555
O55 P10 1.526904 1_655
O56 P11 1.526879 1_545
O57 P12 1.554955 1_545
O58 P13 1.541227 1_555
O59 P14 1.535443 1_655
O60 P8 1.563759 1_555
O60 Ti4 2.188132 1_555
O61 Si2 1.673505 1_455
O61 Ti4 1.973570 1_555
O62 P7 1.563977 1_565
O62 Ti4 2.161206 1_555
O63 Si1 1.666416 1_565
O63 Ti5 1.944494 1_555
O64 P6 1.569173 1_555
O64 Ti5 2.074560 1_555
O65 P5 1.542619 1_455
O65 Ti5 2.042179 1_555
O66 P0 1.547628 1_565
O67 P1 1.526004 1_555
O68 P2 1.547733 1_455
O69 P3 1.542331 1_555
O70 P4 1.542893 1_455
O71 Si0 1.640395 1_565
