# generated using pymatgen
data_Na6Y3NbSi4(SO12)2
_symmetry_space_group_name_H-M   'P 1'
_cell_length_a   9.35646715
_cell_length_b   9.38080497
_cell_length_c   23.18370141
_cell_angle_alpha   89.81435986
_cell_angle_beta   90.54798050
_cell_angle_gamma   120.07890023
_symmetry_Int_Tables_number   1
_chemical_formula_structural   Na6Y3NbSi4(SO12)2
_chemical_formula_sum   'Na18 Y9 Nb3 Si12 S6 O72'
_cell_volume   1760.75533234
_cell_formula_units_Z   3
loop_
 _symmetry_equiv_pos_site_id
 _symmetry_equiv_pos_as_xyz
  1  'x, y, z'
loop_
 _atom_site_type_symbol
 _atom_site_label
 _atom_site_symmetry_multiplicity
 _atom_site_fract_x
 _atom_site_fract_y
 _atom_site_fract_z
 _atom_site_occupancy
  Na  Na0  1  0.62070577  0.99915217  0.25297129  1
  Na  Na1  1  0.64129150  0.62986713  0.75406036  1
  Na  Na2  1  0.00792714  0.36799155  0.74312213  1
  Na  Na3  1  0.29787761  0.34883758  0.58313509  1
  Na  Na4  1  0.01722509  0.68322685  0.59019297  1
  Na  Na5  1  0.67808211  0.95905928  0.57237243  1
  Na  Na6  1  0.30023562  0.95056642  0.08709069  1
  Na  Na7  1  0.67041375  0.71337405  0.07276148  1
  Na  Na8  1  0.02396558  0.34003965  0.07971310  1
  Na  Na9  1  0.97708341  0.68360105  0.91417890  1
  Na  Na10  1  0.32589961  0.29270652  0.91136928  1
  Na  Na11  1  0.67725892  0.67419769  0.41625326  1
  Na  Na12  1  0.99636699  0.02919649  0.49450844  1
  Na  Na13  1  0.97402911  0.99092430  0.99319107  1
  Na  Na14  1  0.64939231  0.32635904  0.83001541  1
  Na  Na15  1  0.62274604  0.30247782  0.33295452  1
  Na  Na16  1  0.31354034  0.68391442  0.16916013  1
  Na  Na17  1  0.32357524  0.65308509  0.66796676  1
  Y  Y0  1  0.02354622  0.01578782  0.35240179  1
  Y  Y1  1  0.00183553  0.99782522  0.85017134  1
  Y  Y2  1  0.00820362  0.00267653  0.65128218  1
  Y  Y3  1  0.00557141  0.99073672  0.14802232  1
  Y  Y4  1  0.66636900  0.34127690  0.68579148  1
  Y  Y5  1  0.66253828  0.32993075  0.18552647  1
  Y  Y6  1  0.33598884  0.67451601  0.01494023  1
  Y  Y7  1  0.33528562  0.65968334  0.51357465  1
  Y  Y8  1  0.33735366  0.67354238  0.32008828  1
  Nb  Nb0  1  0.68342601  0.33201234  0.97446767  1
  Nb  Nb1  1  0.67374555  0.33439010  0.47992128  1
  Nb  Nb2  1  0.32325906  0.66111214  0.82165570  1
  Si  Si0  1  0.30528067  0.99533545  0.24744324  1
  Si  Si1  1  0.30351655  0.31168692  0.75312349  1
  Si  Si2  1  0.00825272  0.69873694  0.75085885  1
  Si  Si3  1  0.96156504  0.33350618  0.58515510  1
  Si  Si4  1  0.66929466  0.63119392  0.58203055  1
  Si  Si5  1  0.95679956  0.62429544  0.08108433  1
  Si  Si6  1  0.67038157  0.04310398  0.08285951  1
  Si  Si7  1  0.62825401  0.65986939  0.91986376  1
  Si  Si8  1  0.03713054  0.36721832  0.92005313  1
  Si  Si9  1  0.34159258  0.96731205  0.91835686  1
  Si  Si10  1  0.63980706  0.97281739  0.41876843  1
  Si  Si11  1  0.34147888  0.36623268  0.42115619  1
  S  S0  1  0.70067497  0.70421172  0.25126279  1
  S  S1  1  0.00216435  0.29819465  0.24826736  1
  S  S2  1  0.69259598  0.98988709  0.74954391  1
  S  S3  1  0.37798993  0.04618467  0.58017250  1
  S  S4  1  0.37420734  0.33214056  0.07984402  1
  S  S5  1  0.02304210  0.65828399  0.41910235  1
  O  O0  1  0.19876327  0.00437178  0.30043224  1
  O  O1  1  0.79824549  0.78647885  0.30331258  1
  O  O2  1  0.97939013  0.19014140  0.29814827  1
  O  O3  1  0.21011488  0.20456509  0.80898931  1
  O  O4  1  0.96627815  0.78017397  0.80464407  1
  O  O5  1  0.80175787  0.01947133  0.79964140  1
  O  O6  1  0.76885651  0.96556647  0.69656069  1
  O  O7  1  0.18950260  0.23582690  0.69406527  1
  O  O8  1  0.03274023  0.80207083  0.69085850  1
  O  O9  1  0.78242749  0.80557902  0.19857490  1
  O  O10  1  0.01676477  0.22049398  0.19413697  1
  O  O11  1  0.21206746  0.98665378  0.18513266  1
  O  O12  1  0.87731533  0.34659900  0.64400217  1
  O  O13  1  0.47661816  0.11614248  0.63312088  1
  O  O14  1  0.63798660  0.52041176  0.63946650  1
  O  O15  1  0.86135247  0.51143597  0.13538287  1
  O  O16  1  0.64004306  0.12287761  0.13976248  1
  O  O17  1  0.47374705  0.35355215  0.13220094  1
  O  O18  1  0.45448587  0.31235060  0.02774783  1
  O  O19  1  0.83773526  0.52081161  0.02181004  1
  O  O20  1  0.68156244  0.16949014  0.02646968  1
  O  O21  1  0.46542034  0.15065322  0.52927355  1
  O  O22  1  0.68274931  0.51919752  0.52716622  1
  O  O23  1  0.83307668  0.32004416  0.53071621  1
  O  O24  1  0.55227051  0.67964823  0.97909221  1
  O  O25  1  0.13866797  0.44563215  0.97832871  1
  O  O26  1  0.30367491  0.86179304  0.97665474  1
  O  O27  1  0.55075317  0.86439799  0.47620417  1
  O  O28  1  0.31980443  0.44426648  0.48075147  1
  O  O29  1  0.11811773  0.68311162  0.47298251  1
  O  O30  1  0.10466782  0.63424212  0.36921593  1
  O  O31  1  0.52629320  0.89654914  0.36075740  1
  O  O32  1  0.38412193  0.49601904  0.36812476  1
  O  O33  1  0.13722457  0.49951730  0.86463773  1
  O  O34  1  0.36068646  0.85630376  0.86457691  1
  O  O35  1  0.49895821  0.63717354  0.86411943  1
  O  O36  1  0.99031103  0.79535182  0.41206826  1
  O  O37  1  0.81513925  0.97653152  0.41330399  1
  O  O38  1  0.18786875  0.18089700  0.41606435  1
  O  O39  1  0.01446976  0.18920747  0.91039683  1
  O  O40  1  0.18495867  0.99388627  0.90894003  1
  O  O41  1  0.81583758  0.80717035  0.91162285  1
  O  O42  1  0.97671332  0.16648565  0.58237780  1
  O  O43  1  0.21598766  0.04035734  0.58340479  1
  O  O44  1  0.84302994  0.80881878  0.58292904  1
  O  O45  1  0.96593739  0.80464188  0.08037209  1
  O  O46  1  0.84583971  0.04324155  0.08184761  1
  O  O47  1  0.20691154  0.18193827  0.08378202  1
  O  O48  1  0.67109493  0.13500612  0.74407787  1
  O  O49  1  0.49172923  0.34371487  0.75055956  1
  O  O50  1  0.85429160  0.50645465  0.74840589  1
  O  O51  1  0.68116781  0.53813435  0.24690655  1
  O  O52  1  0.84984247  0.31117441  0.24632945  1
  O  O53  1  0.49343915  0.15867908  0.25135690  1
  O  O54  1  0.62914406  0.47952900  0.92312620  1
  O  O55  1  0.85734177  0.36747415  0.92095426  1
  O  O56  1  0.51011231  0.15250233  0.92284618  1
  O  O57  1  0.66112503  0.16119000  0.43068356  1
  O  O58  1  0.51705909  0.35497094  0.42851709  1
  O  O59  1  0.85485345  0.50341764  0.42334108  1
  O  O60  1  0.35368454  0.47926280  0.07746327  1
  O  O61  1  0.14009082  0.64275922  0.07977304  1
  O  O62  1  0.51254054  0.85648596  0.07901014  1
  O  O63  1  0.34912898  0.87642372  0.57423739  1
  O  O64  1  0.51050328  0.66097241  0.57891795  1
  O  O65  1  0.13951172  0.50517168  0.57958785  1
  O  O66  1  0.32937368  0.83192018  0.25032908  1
  O  O67  1  0.53584153  0.69278353  0.25314079  1
  O  O68  1  0.15039387  0.46276472  0.25435655  1
  O  O69  1  0.32192291  0.50138632  0.76131378  1
  O  O70  1  0.17846996  0.68308123  0.76233478  1
  O  O71  1  0.53072386  0.83501909  0.75645089  1
loop_
_geom_bond_atom_site_label_1
_geom_bond_atom_site_label_2
_geom_bond_distance
_geom_bond_site_symmetry_2
Na0 O53 2.333198 1_565
Na0 O66 2.367701 1_555
Na0 O67 2.569592 1_555
Na0 O52 2.626913 1_565
Na0 O31 2.669367 1_555
Na0 O16 2.836759 1_565
Na0 O2 3.080199 1_565
Na0 O9 3.159582 1_555
Na1 O49 2.324736 1_555
Na1 O71 2.602775 1_555
Na1 O69 2.609261 1_555
Na1 O50 2.765493 1_555
Na1 O14 2.845632 1_555
Na1 O4 2.873020 1_555
Na1 O35 2.906267 1_555
Na1 O6 3.058470 1_555
Na2 O50 2.375815 1_455
Na2 O12 2.553001 1_455
Na2 O69 2.582553 1_555
Na2 O70 2.597789 1_555
Na2 O48 2.793959 1_455
Na2 O7 2.806126 1_555
Na2 O33 3.063249 1_555
Na2 O5 3.134623 1_455
Na3 O28 2.507798 1_555
Na3 O65 2.555030 1_555
Na3 O64 2.589168 1_555
Na3 O43 2.595882 1_555
Na3 O42 2.608238 1_455
Na3 O7 2.778628 1_555
Na3 O14 3.036890 1_555
Na3 O21 3.232159 1_555
Na4 O44 2.447668 1_455
Na4 O65 2.466412 1_555
Na4 O8 2.561004 1_555
Na4 O63 2.727874 1_555
Na4 O29 2.885369 1_555
Na4 O43 2.909282 1_565
Na4 O12 3.017265 1_455
Na4 O22 3.065415 1_455
Na5 O64 2.430567 1_555
Na5 O27 2.465820 1_555
Na5 O42 2.487548 1_565
Na5 O44 2.568845 1_555
Na5 O63 2.772475 1_555
Na5 O6 2.986126 1_555
Na5 O23 3.096127 1_565
Na5 O13 3.249095 1_565
Na6 O61 2.504579 1_555
Na6 O11 2.506459 1_555
Na6 O62 2.554478 1_555
Na6 O26 2.700370 1_554
Na6 O47 2.715984 1_565
Na6 O45 2.716936 1_455
Na6 O16 2.999927 1_565
Na6 O18 3.254494 1_565
Na7 O24 2.376097 1_554
Na7 O62 2.449159 1_555
Na7 O45 2.455270 1_555
Na7 O60 2.664205 1_555
Na7 O46 2.687067 1_565
Na7 O9 3.066529 1_555
Na7 O19 3.161204 1_555
Na7 O17 3.235865 1_555
Na8 O46 2.425136 1_455
Na8 O61 2.480306 1_555
Na8 O25 2.573948 1_554
Na8 O60 2.681345 1_555
Na8 O47 2.771156 1_555
Na8 O10 2.864916 1_555
Na8 O15 3.011464 1_455
Na8 O20 3.024289 1_455
Na9 O41 2.318236 1_555
Na9 O40 2.568549 1_655
Na9 O55 2.596958 1_555
Na9 O4 2.711382 1_555
Na9 O54 2.840650 1_555
Na9 O19 2.880998 1_556
Na9 O26 3.006759 1_655
Na9 O33 3.030781 1_655
Na10 O40 2.427791 1_545
Na10 O54 2.489963 1_555
Na10 O3 2.560597 1_555
Na10 O39 2.568446 1_555
Na10 O56 2.651908 1_555
Na10 O18 2.912044 1_556
Na10 O35 3.004969 1_555
Na10 O25 3.181552 1_555
Na11 O37 2.458762 1_555
Na11 O36 2.558972 1_555
Na11 O58 2.607396 1_555
Na11 O32 2.630511 1_555
Na11 O59 2.831284 1_555
Na11 O1 2.844369 1_555
Na11 O27 2.946312 1_555
Na11 O22 2.962585 1_555
Na12 O37 2.401836 1_545
Na12 O38 2.456146 1_655
Na12 O42 2.470616 1_555
Na12 O44 2.755008 1_545
Na12 O43 2.861067 1_655
Na12 O36 2.892882 1_545
Na13 O41 2.479578 1_555
Na13 O46 2.558861 1_566
Na13 O39 2.563716 1_665
Na13 O45 2.644239 1_556
Na13 O40 2.780162 1_655
Na13 O47 2.897026 1_666
Na14 O49 2.404729 1_555
Na14 O56 2.624959 1_555
Na14 O50 2.628950 1_555
Na14 O54 2.657258 1_555
Na14 O55 2.748438 1_555
Na14 O48 2.762094 1_555
Na15 O53 2.280111 1_555
Na15 O58 2.581823 1_555
Na15 O57 2.731512 1_555
Na15 O51 2.818943 1_555
Na15 O52 2.908874 1_555
Na15 O59 2.914741 1_555
Na16 O66 2.301352 1_555
Na16 O61 2.527868 1_555
Na16 O68 2.718828 1_555
Na16 O62 2.736197 1_555
Na16 O67 2.806064 1_555
Na16 O60 3.018371 1_555
Na17 O65 2.577794 1_555
Na17 O69 2.582134 1_555
Na17 O70 2.674448 1_555
Na17 O64 2.695342 1_555
Na17 O71 2.740147 1_555
Na17 O63 2.940547 1_555
Nb0 O20 1.933905 1_556
Nb0 O55 1.947070 1_555
Nb0 O19 1.960882 1_556
Nb0 O56 2.033786 1_555
Nb0 O54 2.066874 1_555
Nb0 O18 2.408607 1_556
Nb1 O57 1.942667 1_555
Nb1 O23 1.947767 1_555
Nb1 O58 1.963561 1_555
Nb1 O22 2.019026 1_555
Nb1 O59 2.107611 1_555
Nb1 O21 2.177499 1_555
Nb2 O33 1.923325 1_555
Nb2 O34 1.956518 1_555
Nb2 O70 2.002872 1_555
Nb2 O35 2.014880 1_555
Nb2 O69 2.048599 1_555
Nb2 O71 2.362307 1_555
O0 Si0 1.618145 1_545
O0 Y0 2.089354 1_555
O1 S0 1.471014 1_555
O1 Y0 2.406405 1_665
O2 S1 1.480126 1_655
O2 Y0 2.254313 1_655
O3 Si1 1.607465 1_555
O3 Y1 2.169243 1_545
O4 Si2 1.615238 1_655
O4 Y1 2.172515 1_655
O5 S2 1.471203 1_545
O5 Y1 2.292506 1_645
O6 S2 1.500590 1_555
O6 Y2 2.345070 1_665
O7 Si1 1.654239 1_555
O7 Y2 2.215360 1_555
O8 Si2 1.643728 1_555
O8 Y2 2.203118 1_565
O9 S0 1.504204 1_555
O9 Y3 2.268944 1_655
O10 S1 1.494606 1_555
O10 Y3 2.363438 1_545
O11 Si0 1.661198 1_555
O11 Y3 2.125266 1_555
O12 Si3 1.617551 1_555
O12 Y4 2.184984 1_555
O13 S3 1.471603 1_555
O13 Y4 2.306553 1_555
O14 Si4 1.622419 1_555
O14 Y4 2.116122 1_555
O15 Si5 1.602567 1_555
O15 Y5 2.136478 1_555
O16 Si6 1.614753 1_555
O16 Y5 2.131173 1_555
O17 S4 1.474299 1_555
O17 Y5 2.246450 1_555
O18 S4 1.488614 1_555
O19 Si5 1.722549 1_555
O20 Si6 1.730302 1_555
O21 S3 1.493128 1_555
O22 Si4 1.697592 1_555
O23 Si3 1.695270 1_555
O24 Si7 1.605585 1_555
O24 Y6 2.173101 1_556
O25 Si8 1.596984 1_555
O25 Y6 2.178858 1_556
O26 Si9 1.606512 1_555
O26 Y6 2.117266 1_556
O27 Si10 1.632407 1_555
O27 Y7 2.155156 1_555
O28 Si11 1.626845 1_555
O28 Y7 2.097156 1_555
O29 S5 1.476106 1_555
O29 Y7 2.339307 1_555
O30 S5 1.470714 1_555
O30 Y8 2.326618 1_555
O31 Si10 1.632764 1_555
O31 Y8 2.159718 1_555
O32 Si11 1.632740 1_555
O32 Y8 2.216778 1_555
O33 Si8 1.707482 1_555
O34 Si9 1.694117 1_555
O35 Si7 1.700801 1_555
O36 S5 1.471761 1_655
O36 Y0 2.373055 1_665
O37 Si10 1.629455 1_555
O37 Y0 2.293687 1_665
O38 Si11 1.611108 1_555
O38 Y0 2.127340 1_555
O39 Si8 1.590661 1_555
O39 Y1 2.233162 1_545
O40 Si9 1.617824 1_555
O40 Y1 2.193599 1_555
O41 Si7 1.612457 1_555
O41 Y1 2.273324 1_655
O42 Si3 1.643923 1_555
O42 Y2 2.330009 1_655
O43 S3 1.491727 1_555
O43 Y2 2.397293 1_555
O44 Si4 1.644325 1_555
O44 Y2 2.315463 1_665
O45 Si5 1.650639 1_555
O45 Y3 2.236645 1_655
O46 Si6 1.641414 1_555
O46 Y3 2.349255 1_645
O47 S4 1.494969 1_555
O47 Y3 2.373483 1_545
O48 S2 1.477386 1_545
O48 Y4 2.374826 1_555
O49 Si1 1.632935 1_555
O49 Y4 2.238263 1_555
O50 Si2 1.651197 1_655
O50 Y4 2.198765 1_555
O51 S0 1.478623 1_555
O51 Y5 2.354154 1_555
O52 S1 1.490205 1_655
O52 Y5 2.312907 1_555
O53 Si0 1.658109 1_545
O53 Y5 2.212650 1_555
O54 Si7 1.697365 1_555
O55 Si8 1.683721 1_655
O56 Si9 1.663512 1_545
O57 Si10 1.699262 1_545
O58 Si11 1.705168 1_555
O59 S5 1.518883 1_655
O60 S4 1.486476 1_555
O60 Y6 2.401161 1_555
O61 Si5 1.635611 1_455
O61 Y6 2.282539 1_555
O62 Si6 1.631147 1_565
O62 Y6 2.234277 1_555
O63 S3 1.482411 1_565
O63 Y7 2.424802 1_555
O64 Si4 1.644526 1_555
O64 Y7 2.217093 1_555
O65 Si3 1.642311 1_455
O65 Y7 2.275152 1_555
O66 Si0 1.658530 1_555
O66 Y8 2.218515 1_555
O67 S0 1.492472 1_555
O67 Y8 2.368093 1_555
O68 S1 1.475876 1_555
O68 Y8 2.406937 1_555
O69 Si1 1.710794 1_555
O70 Si2 1.689654 1_555
O71 S2 1.492535 1_555
