# generated using pymatgen
data_Na6La3TaSi2(PO6)4
_symmetry_space_group_name_H-M   'P 1'
_cell_length_a   9.51786566
_cell_length_b   9.55153044
_cell_length_c   23.38792914
_cell_angle_alpha   90.37452855
_cell_angle_beta   89.88433374
_cell_angle_gamma   120.46038006
_symmetry_Int_Tables_number   1
_chemical_formula_structural   Na6La3TaSi2(PO6)4
_chemical_formula_sum   'Na18 La9 Ta3 Si6 P12 O72'
_cell_volume   1832.70127620
_cell_formula_units_Z   3
loop_
 _symmetry_equiv_pos_site_id
 _symmetry_equiv_pos_as_xyz
  1  'x, y, z'
loop_
 _atom_site_type_symbol
 _atom_site_label
 _atom_site_symmetry_multiplicity
 _atom_site_fract_x
 _atom_site_fract_y
 _atom_site_fract_z
 _atom_site_occupancy
  Na  Na0  1  0.98985025  0.98808980  0.50643586  1
  Na  Na1  1  0.97253105  0.98726807  0.99651876  1
  Na  Na2  1  0.66043505  0.33387251  0.83102069  1
  Na  Na3  1  0.65769507  0.32942944  0.32855620  1
  Na  Na4  1  0.32883979  0.65050298  0.16780694  1
  Na  Na5  1  0.33469950  0.66426297  0.66983360  1
  Na  Na6  1  0.65283967  0.00646646  0.24746395  1
  Na  Na7  1  0.01294242  0.35273628  0.74835145  1
  Na  Na8  1  0.35671169  0.00412974  0.75433289  1
  Na  Na9  1  0.30223073  0.33290701  0.58979103  1
  Na  Na10  1  0.66588325  0.96769744  0.58481832  1
  Na  Na11  1  0.29652836  0.95747047  0.07631899  1
  Na  Na12  1  0.04061907  0.34376125  0.07537924  1
  Na  Na13  1  0.99207763  0.68223557  0.91694960  1
  Na  Na14  1  0.31452518  0.29003648  0.91392219  1
  Na  Na15  1  0.96193434  0.28564266  0.41054320  1
  Na  Na16  1  0.33497209  0.03533442  0.40664943  1
  Na  Na17  1  0.70092335  0.68140589  0.41496166  1
  La  La0  1  0.00603965  0.00113258  0.33978474  1
  La  La1  1  0.98825875  0.99622455  0.84938316  1
  La  La2  1  0.99627495  0.99099605  0.65948693  1
  La  La3  1  0.00115898  0.99034376  0.15000686  1
  La  La4  1  0.67279773  0.35234910  0.68417655  1
  La  La5  1  0.66235760  0.34495038  0.18666662  1
  La  La6  1  0.67160776  0.33599814  0.48242450  1
  La  La7  1  0.35065216  0.67346382  0.01352052  1
  La  La8  1  0.32411070  0.66911823  0.51655343  1
  Ta  Ta0  1  0.66562990  0.33148062  0.97517807  1
  Ta  Ta1  1  0.33119857  0.67119441  0.31457903  1
  Ta  Ta2  1  0.34144631  0.66505943  0.82420459  1
  Si  Si0  1  0.31202434  0.98987517  0.25336355  1
  Si  Si1  1  0.30856061  0.32076580  0.75460393  1
  Si  Si2  1  0.63169846  0.64998897  0.91836717  1
  Si  Si3  1  0.02979681  0.37533871  0.92038600  1
  Si  Si4  1  0.34360205  0.96823354  0.91944797  1
  Si  Si5  1  0.62984365  0.96398010  0.41533915  1
  P  P0  1  0.67471627  0.69453750  0.25831676  1
  P  P1  1  0.01185632  0.31886142  0.25240247  1
  P  P2  1  0.02349626  0.69067649  0.75896137  1
  P  P3  1  0.67273385  0.98703526  0.74946467  1
  P  P4  1  0.97283743  0.32086163  0.58469579  1
  P  P5  1  0.35922558  0.03406470  0.58424378  1
  P  P6  1  0.66800856  0.64715872  0.57824364  1
  P  P7  1  0.95291089  0.62546848  0.07639664  1
  P  P8  1  0.67825292  0.06184026  0.08078137  1
  P  P9  1  0.36865387  0.31942567  0.07625763  1
  P  P10  1  0.33631229  0.37904080  0.41332546  1
  P  P11  1  0.03581494  0.66231111  0.41032692  1
  O  O0  1  0.23855802  0.01403682  0.31263341  1
  O  O1  1  0.76143161  0.76542513  0.31511114  1
  O  O2  1  0.98021415  0.21447382  0.30636949  1
  O  O3  1  0.21743076  0.20092244  0.80760631  1
  O  O4  1  0.99397878  0.76033211  0.81299195  1
  O  O5  1  0.80071058  0.02705598  0.79559426  1
  O  O6  1  0.73259907  0.95638869  0.69165026  1
  O  O7  1  0.19282438  0.24608886  0.69658692  1
  O  O8  1  0.04736742  0.79986670  0.70671064  1
  O  O9  1  0.76466020  0.81665385  0.20901376  1
  O  O10  1  0.03618169  0.23567896  0.19933209  1
  O  O11  1  0.19689331  0.96606964  0.19756773  1
  O  O12  1  0.88241423  0.32651313  0.63823408  1
  O  O13  1  0.46053443  0.12918585  0.63680497  1
  O  O14  1  0.66191683  0.53977085  0.62765573  1
  O  O15  1  0.86596514  0.53388312  0.13015766  1
  O  O16  1  0.67753630  0.13847400  0.13795498  1
  O  O17  1  0.45872735  0.32633366  0.13044421  1
  O  O18  1  0.47571513  0.32287464  0.02269587  1
  O  O19  1  0.84460734  0.52562613  0.02224308  1
  O  O20  1  0.67939905  0.17641890  0.03008690  1
  O  O21  1  0.44555702  0.12945087  0.52862173  1
  O  O22  1  0.67649555  0.57070580  0.52036302  1
  O  O23  1  0.88100719  0.32000274  0.52919383  1
  O  O24  1  0.56531587  0.68133493  0.97598368  1
  O  O25  1  0.12447111  0.44493036  0.97943546  1
  O  O26  1  0.29914723  0.86657635  0.97767021  1
  O  O27  1  0.55366846  0.87107175  0.47516490  1
  O  O28  1  0.32058416  0.44568051  0.47131327  1
  O  O29  1  0.12256642  0.67854209  0.46646486  1
  O  O30  1  0.14828860  0.66029004  0.36065660  1
  O  O31  1  0.50120639  0.84024959  0.36206349  1
  O  O32  1  0.33240064  0.49192947  0.36483251  1
  O  O33  1  0.14434628  0.51225054  0.86782112  1
  O  O34  1  0.36634267  0.85913206  0.86646175  1
  O  O35  1  0.50000467  0.63638246  0.86573452  1
  O  O36  1  0.00891345  0.80735789  0.40647852  1
  O  O37  1  0.81367120  0.99206040  0.41030584  1
  O  O38  1  0.19023390  0.20360144  0.40866550  1
  O  O39  1  0.00896854  0.19942086  0.90965272  1
  O  O40  1  0.19955080  0.00701118  0.90759277  1
  O  O41  1  0.81996766  0.78685858  0.91028889  1
  O  O42  1  0.97729995  0.15975186  0.58326160  1
  O  O43  1  0.19068702  0.02254819  0.58546700  1
  O  O44  1  0.81702905  0.82168142  0.58228889  1
  O  O45  1  0.97501067  0.79839348  0.07519854  1
  O  O46  1  0.83761030  0.05586633  0.07473083  1
  O  O47  1  0.20416046  0.15282024  0.07325413  1
  O  O48  1  0.64135649  0.13125873  0.74737972  1
  O  O49  1  0.48834734  0.34053411  0.75030065  1
  O  O50  1  0.88625095  0.51128462  0.75138140  1
  O  O51  1  0.64929400  0.52525037  0.25143939  1
  O  O52  1  0.86463217  0.34218468  0.24755728  1
  O  O53  1  0.50226726  0.13249840  0.24986037  1
  O  O54  1  0.62140029  0.46788837  0.92054205  1
  O  O55  1  0.84996753  0.37131392  0.92327736  1
  O  O56  1  0.51800462  0.14925621  0.92627172  1
  O  O57  1  0.63119773  0.13690557  0.41054872  1
  O  O58  1  0.49973297  0.37926835  0.40867894  1
  O  O59  1  0.87169193  0.49852705  0.40654973  1
  O  O60  1  0.33092182  0.45832944  0.07738242  1
  O  O61  1  0.12265606  0.64025827  0.07707850  1
  O  O62  1  0.52037233  0.89552341  0.07843329  1
  O  O63  1  0.34933560  0.86723210  0.58556577  1
  O  O64  1  0.50976366  0.65637413  0.58372735  1
  O  O65  1  0.15033028  0.46641985  0.58661507  1
  O  O66  1  0.32240797  0.81748135  0.26029973  1
  O  O67  1  0.50077288  0.67919863  0.26033274  1
  O  O68  1  0.17139047  0.48869093  0.26162513  1
  O  O69  1  0.31475148  0.49823554  0.76693487  1
  O  O70  1  0.18830117  0.68889798  0.76357450  1
  O  O71  1  0.50529834  0.83025545  0.76435544  1
loop_
_geom_bond_atom_site_label_1
_geom_bond_atom_site_label_2
_geom_bond_distance
_geom_bond_site_symmetry_2
Na0 O44 2.398659 1_555
Na0 O42 2.467862 1_565
Na0 O43 2.558754 1_665
Na0 O37 2.819370 1_555
Na0 O36 2.956568 1_655
Na0 O38 3.027705 1_665
Na1 O46 2.500469 1_566
Na1 O45 2.593847 1_556
Na1 O41 2.642567 1_555
Na1 O47 2.650663 1_666
Na1 O39 2.773523 1_665
Na1 O40 2.933220 1_665
Na1 O24 3.506814 1_555
Na2 O49 2.524001 1_555
Na2 O54 2.569871 1_555
Na2 O48 2.683387 1_555
Na2 O50 2.700494 1_555
Na2 O55 2.718324 1_555
Na2 O56 2.743256 1_555
Na3 O53 2.501721 1_555
Na3 O57 2.587743 1_555
Na3 O58 2.588655 1_555
Na3 O59 2.593390 1_555
Na3 O51 2.637053 1_555
Na3 O52 2.688413 1_555
Na4 O67 2.643421 1_555
Na4 O68 2.670546 1_555
Na4 O66 2.698203 1_555
Na4 O60 2.797885 1_555
Na4 O61 2.860556 1_555
Na4 O62 2.982036 1_555
Na5 O64 2.636165 1_555
Na5 O65 2.653684 1_555
Na5 O70 2.667755 1_555
Na5 O71 2.719533 1_555
Na5 O63 2.727106 1_555
Na5 O69 2.729169 1_555
Na5 O6 3.415222 1_555
Na6 O53 2.292176 1_555
Na6 O9 2.675735 1_545
Na6 O67 2.716643 1_545
Na6 O66 2.736231 1_545
Na6 O52 2.791444 1_555
Na6 O16 2.818516 1_555
Na6 O2 3.042884 1_555
Na6 O31 3.082867 1_545
Na7 O50 2.366874 1_455
Na7 O69 2.514271 1_555
Na7 O7 2.679244 1_555
Na7 O70 2.788559 1_555
Na7 O12 2.815659 1_455
Na7 O5 2.939886 1_455
Na7 O48 3.065619 1_455
Na7 O33 3.117578 1_555
Na8 O48 2.346515 1_555
Na8 O70 2.606848 1_545
Na8 O71 2.683443 1_545
Na8 O49 2.797313 1_555
Na8 O8 2.806524 1_545
Na8 O13 2.965471 1_555
Na8 O34 2.996826 1_545
Na8 O3 3.054840 1_555
Na9 O65 2.364957 1_555
Na9 O43 2.594351 1_555
Na9 O42 2.671297 1_455
Na9 O7 2.674275 1_555
Na9 O64 2.698986 1_555
Na9 O28 2.952158 1_555
Na9 O14 3.088598 1_555
Na9 O13 3.205113 1_555
Na9 O21 3.213671 1_555
Na10 O44 2.459867 1_555
Na10 O64 2.563249 1_555
Na10 O42 2.576728 1_565
Na10 O6 2.595621 1_555
Na10 O63 2.658417 1_555
Na10 O27 2.747765 1_555
Na10 O23 3.204555 1_565
Na10 O12 3.216698 1_565
Na10 O13 3.271080 1_565
Na11 O47 2.434080 1_565
Na11 O26 2.464347 1_554
Na11 O62 2.484061 1_555
Na11 O61 2.614559 1_555
Na11 O45 2.638084 1_455
Na11 O11 3.002104 1_555
Na12 O60 2.401760 1_555
Na12 O25 2.417670 1_554
Na12 O46 2.430598 1_455
Na12 O61 2.527480 1_555
Na12 O47 2.937394 1_555
Na12 O10 3.076713 1_555
Na12 O20 3.149291 1_455
Na12 O15 3.274755 1_455
Na13 O41 2.317133 1_555
Na13 O4 2.545209 1_555
Na13 O55 2.569680 1_555
Na13 O40 2.714172 1_665
Na13 O19 2.859639 1_556
Na13 O33 2.900238 1_655
Na13 O26 2.902659 1_655
Na13 O54 3.053437 1_555
Na14 O40 2.350205 1_555
Na14 O54 2.531515 1_555
Na14 O39 2.581656 1_555
Na14 O3 2.635400 1_555
Na14 O56 2.879239 1_555
Na14 O18 2.905414 1_556
Na14 O35 3.074081 1_555
Na14 O25 3.237477 1_555
Na15 O37 2.417123 1_545
Na15 O2 2.554406 1_555
Na15 O59 2.579653 1_555
Na15 O38 2.657657 1_655
Na15 O57 2.719079 1_555
Na15 O23 2.938937 1_555
Na15 O32 3.229014 1_655
Na15 O28 3.272604 1_655
Na15 O30 3.305093 1_655
Na16 O0 2.351894 1_555
Na16 O57 2.474943 1_555
Na16 O38 2.593587 1_555
Na16 O36 2.742449 1_545
Na16 O58 2.833444 1_555
Na16 O21 3.012143 1_555
Na16 O31 3.165422 1_545
Na16 O29 3.274701 1_545
Na17 O1 2.445361 1_555
Na17 O58 2.531682 1_555
Na17 O36 2.550496 1_655
Na17 O37 2.596772 1_555
Na17 O22 2.651676 1_555
Na17 O59 2.933334 1_555
Na17 O27 3.124384 1_555
Na17 O32 3.241235 1_555
La0 O0 2.243867 1_555
La0 O2 2.313651 1_455
La0 O1 2.344370 1_445
La0 O37 2.430841 1_445
La0 O38 2.437599 1_555
La0 O36 2.438993 1_545
La1 O3 2.286398 1_665
La1 O39 2.317346 1_665
La1 O41 2.318233 1_555
La1 O5 2.324357 1_565
La1 O40 2.389037 1_665
La1 O4 2.429626 1_555
La2 O7 2.355149 1_665
La2 O8 2.391166 1_655
La2 O43 2.437255 1_665
La2 O44 2.441867 1_555
La2 O6 2.475463 1_555
La2 O42 2.478505 1_565
La3 O11 2.282854 1_555
La3 O9 2.440256 1_455
La3 O45 2.445751 1_455
La3 O10 2.471308 1_565
La3 O47 2.519165 1_565
La3 O46 2.632020 1_465
La4 O14 2.276468 1_555
La4 O49 2.297152 1_555
La4 O13 2.337648 1_555
La4 O12 2.383889 1_555
La4 O50 2.399428 1_555
La4 O48 2.476368 1_555
La5 O17 2.274817 1_555
La5 O15 2.287771 1_555
La5 O51 2.336319 1_555
La5 O16 2.338176 1_555
La5 O53 2.349283 1_555
La5 O52 2.407983 1_555
La6 O21 2.324537 1_555
La6 O23 2.347707 1_555
La6 O22 2.384038 1_555
La6 O57 2.410242 1_555
La6 O59 2.492107 1_555
La6 O58 2.554977 1_555
La7 O24 2.188306 1_554
La7 O25 2.292264 1_554
La7 O26 2.298747 1_554
La7 O62 2.430427 1_555
La7 O60 2.477157 1_555
La7 O61 2.512892 1_555
La8 O27 2.274744 1_555
La8 O29 2.290354 1_555
La8 O28 2.360790 1_555
La8 O63 2.396788 1_555
La8 O64 2.416028 1_555
La8 O65 2.439864 1_555
O0 Si0 1.618414 1_545
O1 P0 1.526469 1_555
O2 P1 1.545442 1_655
O3 Si1 1.614571 1_555
O4 P2 1.515094 1_655
O5 P3 1.523683 1_545
O6 P3 1.549032 1_555
O7 Si1 1.661363 1_555
O8 P2 1.551773 1_555
O9 P0 1.556980 1_555
O10 P1 1.548519 1_555
O11 Si0 1.644581 1_555
O12 P4 1.534065 1_555
O13 P5 1.538948 1_555
O14 P6 1.531636 1_555
O15 P7 1.518955 1_555
O16 P8 1.521869 1_555
O17 P9 1.513721 1_555
O18 P9 1.603134 1_555
O18 Ta0 2.086057 1_554
O19 P7 1.602793 1_555
O19 Ta0 2.080954 1_554
O20 P8 1.615048 1_555
O20 Ta0 2.020466 1_554
O21 P5 1.565154 1_555
O22 P6 1.555232 1_555
O23 P4 1.564022 1_555
O24 Si2 1.577264 1_555
O25 Si3 1.595881 1_555
O26 Si4 1.604516 1_555
O27 Si5 1.621954 1_555
O28 P10 1.533420 1_555
O29 P11 1.517091 1_555
O30 P11 1.584776 1_555
O30 Ta1 2.003254 1_555
O31 Si5 1.722823 1_555
O31 Ta1 1.947747 1_555
O32 P10 1.583409 1_555
O32 Ta1 2.087956 1_555
O33 Si3 1.726337 1_555
O33 Ta2 1.981367 1_555
O34 Si4 1.696826 1_555
O34 Ta2 2.000179 1_555
O35 Si2 1.715305 1_555
O35 Ta2 1.929882 1_555
O36 P11 1.534413 1_555
O37 Si5 1.634273 1_555
O38 P10 1.545646 1_555
O39 Si3 1.607057 1_555
O40 Si4 1.616051 1_545
O41 Si2 1.607009 1_555
O42 P4 1.560948 1_555
O43 P5 1.551481 1_555
O44 P6 1.549435 1_555
O45 P7 1.556108 1_555
O46 P8 1.552599 1_555
O47 P9 1.568892 1_555
O48 P3 1.551539 1_545
O49 Si1 1.626623 1_555
O50 P2 1.549640 1_655
O51 P0 1.516255 1_555
O52 P1 1.530838 1_655
O53 Si0 1.625143 1_545
O54 Si2 1.692862 1_555
O54 Ta0 2.021792 1_555
O55 Si3 1.693650 1_655
O55 Ta0 2.004270 1_555
O56 Si4 1.690552 1_545
O56 Ta0 1.952669 1_555
O57 Si5 1.649749 1_545
O58 P10 1.557892 1_555
O59 P11 1.554465 1_655
O60 P9 1.540294 1_555
O61 P7 1.548899 1_455
O62 P8 1.537394 1_565
O63 P5 1.548428 1_565
O64 P6 1.557621 1_555
O65 P4 1.551463 1_455
O66 Si0 1.707633 1_555
O66 Ta1 1.926934 1_555
O67 P0 1.586962 1_555
O67 Ta1 2.021957 1_555
O68 P1 1.575727 1_555
O68 Ta1 2.043820 1_555
O69 Si1 1.688917 1_555
O69 Ta2 1.990125 1_555
O70 P2 1.581180 1_555
O70 Ta2 2.129862 1_555
O71 P3 1.577470 1_555
O71 Ta2 2.099108 1_555
