# generated using pymatgen
data_MgZnCu2SnS4
_symmetry_space_group_name_H-M   'P 1'
_cell_length_a   6.47714722
_cell_length_b   5.73582043
_cell_length_c   6.92521892
_cell_angle_alpha   120.81345666
_cell_angle_beta   123.67892075
_cell_angle_gamma   77.88859071
_symmetry_Int_Tables_number   1
_chemical_formula_structural   MgZnCu2SnS4
_chemical_formula_sum   'Mg1 Zn1 Cu2 Sn1 S4'
_cell_volume   182.88351060
_cell_formula_units_Z   1
loop_
 _symmetry_equiv_pos_site_id
 _symmetry_equiv_pos_as_xyz
  1  'x, y, z'
loop_
 _atom_site_type_symbol
 _atom_site_label
 _atom_site_symmetry_multiplicity
 _atom_site_fract_x
 _atom_site_fract_y
 _atom_site_fract_z
 _atom_site_occupancy
  Mg  Mg0  1  0.05342244  0.55342244  0.10684488  1
  Zn  Zn0  1  0.71032044  0.21032044  0.42064088  1
  Cu  Cu0  1  0.00269000  0.00269000  0.00538001  1
  Cu  Cu1  1  0.34917977  0.84917977  0.69835955  1
  Sn  Sn0  1  0.41881798  0.41881798  0.83763597  1
  S  S0  1  0.38309600  0.86658085  0.22727390  1
  S  S1  1  0.84417790  0.36069405  0.22727390  1
  S  S2  1  0.05124363  0.09349948  0.73829546  1
  S  S3  1  0.68705083  0.64479598  0.73829546  1
loop_
_geom_bond_atom_site_label_1
_geom_bond_atom_site_label_2
_geom_bond_distance
_geom_bond_site_symmetry_2
Mg0 S2 2.559562 1_554
Mg0 S3 2.559565 1_454
Mg0 S1 2.565400 1_455
Mg0 S0 2.565405 1_555
Cu0 S0 2.294441 1_545
Cu0 S1 2.294444 1_455
Cu0 S2 2.343537 1_554
Cu0 S3 2.343541 1_444
Cu0 Mg0 2.913051 1_545
Cu0 Mg0 2.913052 1_555
Cu1 S3 2.196452 1_555
Cu1 S2 2.196457 1_565
Cu1 Sn0 2.952390 1_555
Cu1 Sn0 2.952390 1_565
Cu1 Mg0 2.978082 1_555
S0 Zn0 2.464467 1_565
S0 Sn0 2.697014 1_554
S0 Sn0 3.668729 1_565
S1 Zn0 2.464471 1_555
S1 Sn0 2.697012 1_554
S1 Sn0 3.668730 1_655
S2 Zn0 2.380358 1_455
S2 Sn0 2.890675 1_555
S3 Zn0 2.380360 1_555
S3 Sn0 2.890670 1_555
