# generated using pymatgen
data_Na7MgGa3(PO4)6
_symmetry_space_group_name_H-M   'P 1'
_cell_length_a   8.81336866
_cell_length_b   8.81068842
_cell_length_c   21.84781595
_cell_angle_alpha   90.03339403
_cell_angle_beta   90.00593817
_cell_angle_gamma   119.99426644
_symmetry_Int_Tables_number   1
_chemical_formula_structural   Na7MgGa3(PO4)6
_chemical_formula_sum   'Na21 Mg3 Ga9 P18 O72'
_cell_volume   1469.31668309
_cell_formula_units_Z   3
loop_
 _symmetry_equiv_pos_site_id
 _symmetry_equiv_pos_as_xyz
  1  'x, y, z'
loop_
 _atom_site_type_symbol
 _atom_site_label
 _atom_site_symmetry_multiplicity
 _atom_site_fract_x
 _atom_site_fract_y
 _atom_site_fract_z
 _atom_site_occupancy
  Na  Na0  1  0.63629213  0.00356017  0.24792325  1
  Na  Na1  1  0.36661925  0.36336046  0.24792142  1
  Na  Na2  1  0.99630018  0.63231046  0.24746098  1
  Na  Na3  1  0.63377054  0.63045731  0.74887922  1
  Na  Na4  1  0.99738412  0.36650471  0.74920072  1
  Na  Na5  1  0.36940663  0.00294564  0.74899294  1
  Na  Na6  1  0.02988360  0.69760652  0.58395885  1
  Na  Na7  1  0.66546192  0.96896705  0.58372564  1
  Na  Na8  1  0.30337971  0.96897523  0.08388580  1
  Na  Na9  1  0.66822435  0.69721131  0.08402600  1
  Na  Na10  1  0.69872395  0.03366396  0.91847140  1
  Na  Na11  1  0.33255536  0.30045911  0.91815011  1
  Na  Na12  1  0.96737689  0.29741860  0.41532944  1
  Na  Na13  1  0.33035752  0.03333847  0.41551915  1
  Na  Na14  1  0.70281972  0.66969007  0.41530200  1
  Na  Na15  1  0.00636186  0.00699334  0.50059053  1
  Na  Na16  1  0.99993733  0.99976354  0.00123135  1
  Na  Na17  1  0.67310600  0.34056617  0.83463486  1
  Na  Na18  1  0.66678258  0.33335027  0.33091401  1
  Na  Na19  1  0.32621624  0.65913417  0.16459424  1
  Na  Na20  1  0.33255114  0.65929562  0.66504973  1
  Mg  Mg0  1  0.00020754  0.00051155  0.35057832  1
  Mg  Mg1  1  0.66580905  0.33368252  0.68343917  1
  Mg  Mg2  1  0.66835086  0.33391107  0.18257208  1
  Ga  Ga0  1  0.99981829  0.99468107  0.85205911  1
  Ga  Ga1  1  0.00599112  0.00602704  0.64841028  1
  Ga  Ga2  1  0.00061048  0.00633563  0.14887741  1
  Ga  Ga3  1  0.67415947  0.33949990  0.98512002  1
  Ga  Ga4  1  0.66485738  0.33296979  0.48574554  1
  Ga  Ga5  1  0.32628634  0.66096078  0.01790483  1
  Ga  Ga6  1  0.33278166  0.66109912  0.51818724  1
  Ga  Ga7  1  0.33306828  0.66579790  0.31564030  1
  Ga  Ga8  1  0.33109316  0.66540995  0.81865348  1
  P  P0  1  0.29248177  0.99920392  0.25072662  1
  P  P1  1  0.70669073  0.70747465  0.25080019  1
  P  P2  1  0.00064548  0.29280260  0.25124739  1
  P  P3  1  0.28913691  0.29099668  0.75129601  1
  P  P4  1  0.00161800  0.71068960  0.75041786  1
  P  P5  1  0.70904855  0.99817254  0.75082976  1
  P  P6  1  0.96293994  0.33372623  0.58352543  1
  P  P7  1  0.37178114  0.04067700  0.58332490  1
  P  P8  1  0.66345493  0.62561743  0.58378782  1
  P  P9  1  0.96169271  0.62565304  0.08385976  1
  P  P10  1  0.66888506  0.04068515  0.08277981  1
  P  P11  1  0.37108472  0.33369757  0.08288899  1
  P  P12  1  0.62704609  0.66612369  0.91681628  1
  P  P13  1  0.03988489  0.37682748  0.91618156  1
  P  P14  1  0.33080072  0.95695018  0.91685536  1
  P  P15  1  0.62289002  0.95844415  0.41771453  1
  P  P16  1  0.33536013  0.37706409  0.41732981  1
  P  P17  1  0.04162580  0.66461117  0.41779476  1
  O  O0  1  0.21256678  0.03164719  0.30796910  1
  O  O1  1  0.81931286  0.78775851  0.30800848  1
  O  O2  1  0.96750146  0.18199834  0.30898982  1
  O  O3  1  0.20824429  0.17516357  0.80895216  1
  O  O4  1  0.96548988  0.79582168  0.80589052  1
  O  O5  1  0.82650079  0.03296936  0.80794340  1
  O  O6  1  0.78916781  0.96109904  0.69304356  1
  O  O7  1  0.16799316  0.20874308  0.69514301  1
  O  O8  1  0.03921610  0.82649857  0.69211135  1
  O  O9  1  0.78742556  0.82559686  0.19308712  1
  O  O10  1  0.04037377  0.21024780  0.19510193  1
  O  O11  1  0.17416367  0.96157893  0.19300477  1
  O  O12  1  0.88351237  0.36933341  0.64005316  1
  O  O13  1  0.48685756  0.11729638  0.63990981  1
  O  O14  1  0.63559685  0.51739337  0.64091714  1
  O  O15  1  0.88453956  0.51934068  0.14173875  1
  O  O16  1  0.63022228  0.11675035  0.13950167  1
  O  O17  1  0.48560423  0.36974326  0.13966997  1
  O  O18  1  0.45297049  0.29657705  0.02495093  1
  O  O19  1  0.83974772  0.54515277  0.02740781  1
  O  O20  1  0.69774071  0.15213886  0.02416362  1
  O  O21  1  0.45369896  0.15214696  0.52465327  1
  O  O22  1  0.70315046  0.54696015  0.52561801  1
  O  O23  1  0.84416658  0.29643717  0.52545126  1
  O  O24  1  0.54399996  0.70336427  0.97323339  1
  O  O25  1  0.16420086  0.45926973  0.97106964  1
  O  O26  1  0.30227785  0.84408851  0.97402083  1
  O  O27  1  0.53967543  0.84126844  0.47464748  1
  O  O28  1  0.29899227  0.46217996  0.47259724  1
  O  O29  1  0.15932185  0.69943208  0.47469119  1
  O  O30  1  0.12171458  0.62767967  0.36019217  1
  O  O31  1  0.50571054  0.87798618  0.36013173  1
  O  O32  1  0.37348150  0.49301512  0.35919439  1
  O  O33  1  0.11909712  0.48580508  0.85705219  1
  O  O34  1  0.36954135  0.87832104  0.85886467  1
  O  O35  1  0.50955672  0.62961793  0.85876646  1
  O  O36  1  0.02161290  0.82771690  0.41258772  1
  O  O37  1  0.80580823  0.97811497  0.41263907  1
  O  O38  1  0.17279873  0.19374394  0.41223937  1
  O  O39  1  0.02214863  0.19078101  0.91043222  1
  O  O40  1  0.16930101  0.98193809  0.91058066  1
  O  O41  1  0.80761810  0.83578887  0.91005843  1
  O  O42  1  0.97386071  0.16337656  0.58880728  1
  O  O43  1  0.18463982  0.01551483  0.58843150  1
  O  O44  1  0.83257812  0.81224114  0.58814641  1
  O  O45  1  0.98028185  0.81281030  0.08846776  1
  O  O46  1  0.83058731  0.01512953  0.08831882  1
  O  O47  1  0.18972327  0.16379987  0.08853379  1
  O  O48  1  0.68894972  0.16103993  0.74536183  1
  O  O49  1  0.47178249  0.31075493  0.74550258  1
  O  O50  1  0.83943011  0.52744912  0.74519799  1
  O  O51  1  0.68411736  0.52367111  0.24450506  1
  O  O52  1  0.83907836  0.31461173  0.24441505  1
  O  O53  1  0.47601740  0.16082026  0.24421796  1
  O  O54  1  0.63906061  0.49751230  0.92295192  1
  O  O55  1  0.85383044  0.35136233  0.92263927  1
  O  O56  1  0.49815896  0.14243017  0.92196898  1
  O  O57  1  0.64053595  0.14358835  0.42313337  1
  O  O58  1  0.50317817  0.36003013  0.42328951  1
  O  O59  1  0.85668522  0.49694910  0.42339133  1
  O  O60  1  0.35855175  0.50268170  0.07503752  1
  O  O61  1  0.14900893  0.65225915  0.07588491  1
  O  O62  1  0.50131068  0.85374534  0.07570808  1
  O  O63  1  0.35259909  0.85414697  0.57635509  1
  O  O64  1  0.50337383  0.65271495  0.57637223  1
  O  O65  1  0.14408373  0.50219045  0.57589886  1
  O  O66  1  0.30894305  0.82987241  0.25577023  1
  O  O67  1  0.52109293  0.69140946  0.25569813  1
  O  O68  1  0.16979389  0.47904041  0.25600902  1
  O  O69  1  0.30756767  0.47675920  0.75652821  1
  O  O70  1  0.16970553  0.69386953  0.75627168  1
  O  O71  1  0.52387231  0.83050493  0.75644687  1
loop_
_geom_bond_atom_site_label_1
_geom_bond_atom_site_label_2
_geom_bond_distance
_geom_bond_site_symmetry_2
Na0 O52 2.411206 1_555
Na0 O67 2.415028 1_545
Na0 O53 2.424593 1_555
Na0 O66 2.506172 1_545
Na0 O16 2.581588 1_555
Na0 O31 2.699844 1_545
Na0 O9 2.784674 1_545
Na0 O2 2.860239 1_555
Na1 O53 2.416773 1_555
Na1 O68 2.418011 1_555
Na1 O51 2.424698 1_555
Na1 O67 2.510275 1_555
Na1 O17 2.576442 1_555
Na1 O32 2.673271 1_555
Na1 O10 2.745601 1_555
Na1 O0 2.853709 1_555
Na2 O51 2.420174 1_555
Na2 O66 2.420612 1_655
Na2 O52 2.425173 1_555
Na2 O68 2.502255 1_655
Na2 O15 2.512509 1_555
Na2 O30 2.708149 1_655
Na2 O11 2.783273 1_655
Na2 O1 2.862372 1_555
Na3 O50 2.400040 1_555
Na3 O71 2.403881 1_555
Na3 O49 2.440699 1_555
Na3 O69 2.496976 1_555
Na3 O14 2.563113 1_555
Na3 O35 2.637197 1_555
Na3 O6 2.804612 1_555
Na3 O4 2.821306 1_555
Na4 O48 2.398587 1_555
Na4 O69 2.405681 1_655
Na4 O50 2.435210 1_555
Na4 O70 2.503867 1_655
Na4 O33 2.583994 1_655
Na4 O12 2.592082 1_555
Na4 O7 2.770560 1_655
Na4 O5 2.851471 1_555
Na5 O49 2.393454 1_555
Na5 O70 2.397332 1_545
Na5 O48 2.440457 1_555
Na5 O71 2.501280 1_545
Na5 O13 2.593635 1_555
Na5 O34 2.640500 1_545
Na5 O8 2.811329 1_545
Na5 O3 2.861614 1_555
Na6 O65 2.395987 1_555
Na6 O44 2.410043 1_455
Na6 O43 2.428037 1_565
Na6 O63 2.469338 1_555
Na6 O8 2.604445 1_555
Na6 O29 2.642523 1_555
Na6 O12 2.793838 1_455
Na6 O22 2.802570 1_455
Na7 O42 2.383033 1_565
Na7 O64 2.418717 1_555
Na7 O63 2.421403 1_555
Na7 O44 2.473662 1_555
Na7 O27 2.631231 1_555
Na7 O6 2.640636 1_555
Na7 O13 2.783498 1_565
Na7 O23 2.808453 1_565
Na8 O47 2.383104 1_565
Na8 O61 2.423203 1_555
Na8 O62 2.424113 1_555
Na8 O45 2.468754 1_455
Na8 O11 2.628922 1_555
Na8 O26 2.637908 1_554
Na8 O16 2.777942 1_565
Na8 O18 2.815545 1_565
Na9 O60 2.397401 1_555
Na9 O45 2.410382 1_555
Na9 O46 2.427882 1_565
Na9 O62 2.475468 1_555
Na9 O9 2.620856 1_555
Na9 O24 2.668284 1_554
Na9 O19 2.762907 1_555
Na9 O17 2.784680 1_555
Na10 O41 2.380530 1_545
Na10 O56 2.396328 1_555
Na10 O55 2.426126 1_555
Na10 O39 2.475367 1_655
Na10 O20 2.535365 1_556
Na10 O5 2.665879 1_555
Na10 O24 2.792257 1_545
Na10 O34 2.830763 1_545
Na11 O54 2.373416 1_555
Na11 O39 2.408939 1_555
Na11 O40 2.436308 1_545
Na11 O56 2.471379 1_555
Na11 O18 2.570586 1_556
Na11 O3 2.626382 1_555
Na11 O25 2.751438 1_555
Na11 O35 2.830005 1_555
Na12 O38 2.402108 1_655
Na12 O59 2.405773 1_555
Na12 O37 2.437246 1_545
Na12 O57 2.502118 1_555
Na12 O2 2.535781 1_555
Na12 O23 2.637970 1_555
Na12 O30 2.795627 1_655
Na12 O28 2.823084 1_655
Na13 O36 2.400314 1_545
Na13 O57 2.406068 1_555
Na13 O38 2.427561 1_555
Na13 O58 2.499960 1_555
Na13 O0 2.565770 1_555
Na13 O21 2.611775 1_555
Na13 O31 2.799945 1_545
Na13 O29 2.858233 1_545
Na14 O37 2.397038 1_555
Na14 O58 2.402290 1_555
Na14 O36 2.434142 1_655
Na14 O59 2.500072 1_555
Na14 O1 2.562555 1_555
Na14 O22 2.642796 1_555
Na14 O32 2.798267 1_555
Na14 O27 2.864467 1_555
Na15 O43 2.457383 1_555
Na15 O42 2.467141 1_455
Na15 O38 2.485186 1_555
Na15 O44 2.515186 1_445
Na15 O36 2.533473 1_545
Na15 O37 2.535823 1_445
Na16 O46 2.463432 1_565
Na16 O45 2.468647 1_555
Na16 O47 2.470575 1_665
Na16 O40 2.531760 1_654
Na16 O41 2.544713 1_554
Na16 O39 2.545718 1_664
Na17 O55 2.467892 1_555
Na17 O54 2.477325 1_555
Na17 O50 2.503836 1_555
Na17 O56 2.525643 1_555
Na17 O49 2.557762 1_555
Na17 O48 2.557902 1_555
Na18 O51 2.479267 1_555
Na18 O52 2.481009 1_555
Na18 O53 2.483108 1_555
Na18 O57 2.554524 1_555
Na18 O59 2.558295 1_555
Na18 O58 2.558599 1_555
Na19 O61 2.470580 1_555
Na19 O60 2.489870 1_555
Na19 O68 2.494862 1_555
Na19 O62 2.540005 1_555
Na19 O66 2.545535 1_555
Na19 O67 2.550064 1_555
Na20 O64 2.472098 1_555
Na20 O65 2.483176 1_555
Na20 O69 2.505837 1_555
Na20 O63 2.536574 1_555
Na20 O71 2.560995 1_555
Na20 O70 2.561582 1_555
Mg0 O2 1.981926 1_455
Mg0 O1 1.982474 1_445
Mg0 O0 1.982945 1_555
Mg0 O38 2.105896 1_555
Mg0 O37 2.115558 1_445
Mg0 O36 2.116206 1_545
Mg1 O14 1.996625 1_555
Mg1 O13 2.004468 1_555
Mg1 O12 2.019088 1_555
Mg1 O49 2.111640 1_555
Mg1 O50 2.112259 1_555
Mg1 O48 2.120878 1_555
Mg2 O15 1.996276 1_555
Mg2 O16 2.003555 1_555
Mg2 O17 2.020083 1_555
Mg2 O52 2.091461 1_555
Mg2 O51 2.100128 1_555
Mg2 O53 2.105065 1_555
Ga0 O4 1.909625 1_555
Ga0 O3 1.967619 1_665
Ga0 O5 1.972650 1_565
Ga0 O40 2.011460 1_655
Ga0 O41 2.016546 1_555
Ga0 O39 2.075523 1_665
Ga1 O7 1.928460 1_555
Ga1 O8 1.991013 1_545
Ga1 O6 2.000956 1_445
Ga1 O43 2.017957 1_555
Ga1 O42 2.022977 1_455
Ga1 O44 2.091048 1_445
Ga2 O10 1.933603 1_555
Ga2 O9 2.002413 1_445
Ga2 O11 2.006941 1_545
Ga2 O46 2.029224 1_455
Ga2 O47 2.032609 1_555
Ga2 O45 2.091231 1_445
Ga3 O19 1.902745 1_556
Ga3 O20 1.959728 1_556
Ga3 O18 1.991022 1_556
Ga3 O55 2.053526 1_555
Ga3 O54 2.076395 1_555
Ga3 O56 2.151378 1_555
Ga4 O21 1.939502 1_555
Ga4 O22 1.946621 1_555
Ga4 O23 1.965238 1_555
Ga4 O58 2.070962 1_555
Ga4 O57 2.083517 1_555
Ga4 O59 2.088569 1_555
Ga5 O25 1.924850 1_554
Ga5 O26 1.977484 1_554
Ga5 O61 1.983026 1_555
Ga5 O60 1.995531 1_555
Ga5 O24 2.014431 1_554
Ga5 O62 2.058366 1_555
Ga6 O28 1.904865 1_555
Ga6 O27 1.964114 1_555
Ga6 O29 1.967373 1_555
Ga6 O65 1.997573 1_555
Ga6 O64 1.998171 1_555
Ga6 O63 2.058874 1_555
Ga7 O32 1.973216 1_555
Ga7 O30 1.976180 1_555
Ga7 O31 1.977019 1_555
Ga7 O68 2.026151 1_555
Ga7 O67 2.034450 1_555
Ga7 O66 2.038481 1_555
Ga8 O33 1.935094 1_555
Ga8 O34 1.941153 1_555
Ga8 O35 1.958916 1_555
Ga8 O70 2.073671 1_555
Ga8 O69 2.073818 1_555
Ga8 O71 2.093196 1_555
O0 P0 1.530651 1_545
O1 P1 1.531171 1_555
O2 P2 1.531763 1_655
O3 P3 1.552674 1_555
O4 P4 1.539689 1_655
O5 P5 1.550656 1_545
O6 P5 1.558694 1_555
O7 P3 1.547678 1_555
O8 P4 1.561162 1_555
O9 P1 1.562250 1_555
O10 P2 1.552426 1_555
O11 P0 1.562455 1_555
O12 P6 1.527417 1_555
O13 P7 1.525417 1_555
O14 P8 1.514845 1_555
O15 P9 1.517738 1_555
O16 P10 1.525924 1_555
O17 P11 1.528820 1_555
O18 P11 1.570287 1_555
O19 P9 1.554300 1_555
O20 P10 1.555905 1_555
O21 P7 1.556169 1_555
O22 P8 1.568216 1_555
O23 P6 1.571285 1_555
O24 P12 1.549989 1_555
O25 P13 1.539188 1_555
O26 P14 1.537348 1_555
O27 P15 1.547762 1_555
O28 P16 1.537034 1_555
O29 P17 1.548038 1_555
O30 P17 1.554751 1_555
O31 P15 1.555158 1_555
O32 P16 1.558276 1_555
O33 P13 1.552290 1_555
O34 P14 1.561184 1_555
O35 P12 1.565379 1_555
O36 P17 1.537156 1_555
O37 P15 1.536876 1_555
O38 P16 1.536199 1_555
O39 P13 1.571861 1_555
O40 P14 1.551295 1_555
O41 P12 1.552690 1_555
O42 P6 1.555606 1_555
O43 P7 1.554482 1_555
O44 P8 1.576006 1_555
O45 P9 1.576648 1_555
O46 P10 1.554735 1_555
O47 P11 1.555268 1_555
O48 P5 1.535949 1_545
O49 P3 1.535390 1_555
O50 P4 1.534655 1_655
O51 P1 1.535798 1_555
O52 P2 1.536359 1_655
O53 P0 1.536791 1_545
O54 P12 1.547141 1_555
O55 P13 1.546390 1_655
O56 P14 1.564749 1_545
O57 P15 1.563744 1_545
O58 P16 1.564917 1_555
O59 P17 1.564205 1_655
O60 P11 1.556622 1_555
O61 P9 1.556892 1_455
O62 P10 1.576532 1_565
O63 P7 1.573097 1_565
O64 P8 1.552590 1_555
O65 P6 1.552659 1_455
O66 P0 1.573415 1_555
O67 P1 1.573436 1_555
O68 P2 1.574714 1_555
O69 P3 1.565947 1_555
O70 P4 1.566015 1_555
O71 P5 1.565446 1_555
