# generated using pymatgen
data_Cu4(BiS2)5
_symmetry_space_group_name_H-M   'P 1'
_cell_length_a   8.96814800
_cell_length_b   8.96814800
_cell_length_c   12.87135861
_cell_angle_alpha   72.94719311
_cell_angle_beta   72.94719311
_cell_angle_gamma   24.97352813
_symmetry_Int_Tables_number   1
_chemical_formula_structural   Cu4(BiS2)5
_chemical_formula_sum   'Cu4 Bi5 S10'
_cell_volume   416.88577640
_cell_formula_units_Z   1
loop_
 _symmetry_equiv_pos_site_id
 _symmetry_equiv_pos_as_xyz
  1  'x, y, z'
loop_
 _atom_site_type_symbol
 _atom_site_label
 _atom_site_symmetry_multiplicity
 _atom_site_fract_x
 _atom_site_fract_y
 _atom_site_fract_z
 _atom_site_occupancy
  Cu  Cu0  1  0.90376151  0.90376151  0.51328963  1
  Cu  Cu1  1  0.09623849  0.09623849  0.48671037  1
  Cu  Cu2  1  0.71490903  0.71490903  0.94648240  1
  Cu  Cu3  1  0.28509097  0.28509097  0.05351760  1
  Bi  Bi0  1  0.41176945  0.41176945  0.77410716  1
  Bi  Bi1  1  0.58823055  0.58823055  0.22589284  1
  Bi  Bi2  1  0.19902264  0.19902264  0.66287221  1
  Bi  Bi3  1  0.80097736  0.80097736  0.33712779  1
  Bi  Bi4  1  -0.00000000  -0.00000000  0.00000000  1
  S  S0  1  0.97779570  0.97779570  0.63347285  1
  S  S1  1  0.02220430  0.02220430  0.36652715  1
  S  S2  1  0.84622834  0.84622834  0.97337861  1
  S  S3  1  0.15377166  0.15377166  0.02662139  1
  S  S4  1  0.33619615  0.33619615  0.50448939  1
  S  S5  1  0.66380385  0.66380385  0.49551061  1
  S  S6  1  0.75845837  0.75845837  0.76116716  1
  S  S7  1  0.24154163  0.24154163  0.23883284  1
  S  S8  1  0.54181452  0.54181452  0.83422419  1
  S  S9  1  0.45818548  0.45818548  0.16577581  1
loop_
_geom_bond_atom_site_label_1
_geom_bond_atom_site_label_2
_geom_bond_distance
_geom_bond_site_symmetry_2
Cu0 S4 2.291985 1_565
Cu0 S4 2.291985 1_655
Cu0 S0 2.297526 1_555
Cu0 S1 2.348814 1_665
Cu1 S5 2.291985 1_455
Cu1 S5 2.291985 1_545
Cu1 S1 2.297526 1_555
Cu1 S0 2.348814 1_445
Cu2 S6 2.275593 1_555
Cu2 S3 2.303633 1_656
Cu2 S3 2.303633 1_566
Cu2 S2 2.426224 1_555
Cu3 S7 2.275593 1_555
Cu3 S2 2.303633 1_454
Cu3 S2 2.303633 1_544
Cu3 S3 2.426224 1_555
Bi0 S8 2.616039 1_555
Bi0 S0 2.667614 1_455
Bi0 S0 2.667614 1_545
Bi0 S2 3.144435 1_455
Bi0 S2 3.144435 1_545
Bi0 S6 3.356237 1_545
Bi0 S6 3.356237 1_455
Bi1 S9 2.616039 1_555
Bi1 S1 2.667614 1_565
Bi1 S1 2.667614 1_655
Bi1 S3 3.144435 1_565
Bi1 S3 3.144435 1_655
Bi1 S7 3.356237 1_655
Bi1 S7 3.356237 1_565
Bi2 S4 2.642846 1_555
Bi2 S6 2.689793 1_545
Bi2 S6 2.689793 1_455
Bi2 S5 3.094966 1_545
Bi2 S5 3.094966 1_455
Bi2 Cu1 3.291329 1_555
Bi2 S8 3.543439 1_545
Bi2 S8 3.543439 1_455
Bi3 S5 2.642846 1_555
Bi3 S7 2.689793 1_565
Bi3 S7 2.689793 1_655
Bi3 S4 3.094966 1_565
Bi3 S4 3.094966 1_655
Bi3 Cu0 3.291329 1_555
Bi3 S9 3.543439 1_655
Bi3 S9 3.543439 1_565
Bi4 S8 2.812546 1_454
Bi4 S8 2.812546 1_544
Bi4 S9 2.812546 1_545
Bi4 S9 2.812546 1_455
Bi4 S2 2.814811 1_444
Bi4 S3 2.814811 1_555
S0 S8 3.665199 1_565
S0 S8 3.665199 1_655
S1 S9 3.665199 1_545
S1 S9 3.665199 1_455
S6 S8 3.624175 1_555
S7 S9 3.624175 1_555
