# generated using pymatgen
data_Ca2AsI
_symmetry_space_group_name_H-M   'P 1'
_cell_length_a   7.87135038
_cell_length_b   7.87135055
_cell_length_c   7.87135099
_cell_angle_alpha   32.43355129
_cell_angle_beta   32.43355304
_cell_angle_gamma   32.43354684
_symmetry_Int_Tables_number   1
_chemical_formula_structural   Ca2AsI
_chemical_formula_sum   'Ca2 As1 I1'
_cell_volume   124.72406057
_cell_formula_units_Z   1
loop_
 _symmetry_equiv_pos_site_id
 _symmetry_equiv_pos_as_xyz
  1  'x, y, z'
loop_
 _atom_site_type_symbol
 _atom_site_label
 _atom_site_symmetry_multiplicity
 _atom_site_fract_x
 _atom_site_fract_y
 _atom_site_fract_z
 _atom_site_occupancy
  Ca  Ca0  1  0.23128652  0.23128652  0.23128652  1
  Ca  Ca1  1  0.76871348  0.76871348  0.76871348  1
  As  As0  1  0.50000000  0.50000000  0.50000000  1
  I  I0  1  0.00000000  0.00000000  -0.00000000  1
loop_
_geom_bond_atom_site_label_1
_geom_bond_atom_site_label_2
_geom_bond_distance
_geom_bond_site_symmetry_2
Ca0 I0 3.412631 1_655
Ca0 I0 3.412631 1_565
Ca0 I0 3.412632 1_556
Ca1 I0 3.412631 1_566
Ca1 I0 3.412631 1_656
Ca1 I0 3.412632 1_665
As0 Ca1 2.920515 1_455
As0 Ca0 2.920515 1_655
As0 Ca1 2.920515 1_545
As0 Ca0 2.920515 1_565
As0 Ca1 2.920516 1_554
As0 Ca0 2.920516 1_556
