# generated using pymatgen
data_Na6Ta16Zn8Si15(S7O48)3
_symmetry_space_group_name_H-M   'P 1'
_cell_length_a   17.67960212
_cell_length_b   8.84385356
_cell_length_c   22.80356525
_cell_angle_alpha   89.99925443
_cell_angle_beta   89.51724032
_cell_angle_gamma   120.03275568
_symmetry_Int_Tables_number   1
_chemical_formula_structural   Na6Ta16Zn8Si15(S7O48)3
_chemical_formula_sum   'Na6 Ta16 Zn8 Si15 S21 O144'
_cell_volume   3086.62146271
_cell_formula_units_Z   1
loop_
 _symmetry_equiv_pos_site_id
 _symmetry_equiv_pos_as_xyz
  1  'x, y, z'
loop_
 _atom_site_type_symbol
 _atom_site_label
 _atom_site_symmetry_multiplicity
 _atom_site_fract_x
 _atom_site_fract_y
 _atom_site_fract_z
 _atom_site_occupancy
  Na  Na0  1  0.99763825  0.99585784  0.49682746  1
  Na  Na1  1  0.49885480  0.00149434  0.00135003  1
  Na  Na2  1  0.33408808  0.33590196  0.84497287  1
  Na  Na3  1  0.83509359  0.32840926  0.84251187  1
  Na  Na4  1  0.33583419  0.34177820  0.34102607  1
  Na  Na5  1  0.83590490  0.34747432  0.34150157  1
  Ta  Ta0  1  0.49643702  0.99660105  0.35792673  1
  Ta  Ta1  1  0.99553404  0.99385446  0.85902029  1
  Ta  Ta2  1  0.50377647  0.99591284  0.64732760  1
  Ta  Ta3  1  0.99646462  0.00173393  0.15063004  1
  Ta  Ta4  1  0.33009521  0.33779710  0.68463095  1
  Ta  Ta5  1  0.83757601  0.34265615  0.69218997  1
  Ta  Ta6  1  0.33580791  0.33349296  0.19177880  1
  Ta  Ta7  1  0.83113492  0.32613565  0.18822649  1
  Ta  Ta8  1  0.16176357  0.66454161  0.02022362  1
  Ta  Ta9  1  0.66725900  0.66816551  0.02683941  1
  Ta  Ta10  1  0.16628383  0.66437039  0.52478231  1
  Ta  Ta11  1  0.66284426  0.65917893  0.51730369  1
  Ta  Ta12  1  0.16341598  0.66311871  0.30426102  1
  Ta  Ta13  1  0.66495774  0.65160507  0.30987438  1
  Ta  Ta14  1  0.16380060  0.67141768  0.81338647  1
  Ta  Ta15  1  0.66351754  0.66573531  0.80483137  1
  Zn  Zn0  1  0.99654120  0.99254280  0.33741873  1
  Zn  Zn1  1  0.50480833  0.98940925  0.84802135  1
  Zn  Zn2  1  0.99131948  0.97584496  0.65428950  1
  Zn  Zn3  1  0.49245949  0.00453657  0.15578412  1
  Zn  Zn4  1  0.32739038  0.31977393  0.97956328  1
  Zn  Zn5  1  0.84353894  0.32722434  0.98016657  1
  Zn  Zn6  1  0.34370214  0.36398130  0.47773617  1
  Zn  Zn7  1  0.82912543  0.33694257  0.47757955  1
  Si  Si0  1  0.14085326  0.00392645  0.25208756  1
  Si  Si1  1  0.36024758  0.71687681  0.24845014  1
  Si  Si2  1  0.85576450  0.70906729  0.25377353  1
  Si  Si3  1  0.99425863  0.27875436  0.25442098  1
  Si  Si4  1  0.50183589  0.28036555  0.24715224  1
  Si  Si5  1  0.64117239  0.28054532  0.75273547  1
  Si  Si6  1  0.00486106  0.72568919  0.74766829  1
  Si  Si7  1  0.49235462  0.70632902  0.75410908  1
  Si  Si8  1  0.86080494  0.00447963  0.74851047  1
  Si  Si9  1  0.33495180  0.62751839  0.58055769  1
  Si  Si10  1  0.83715247  0.04967373  0.08068177  1
  Si  Si11  1  0.01793498  0.37623300  0.91691169  1
  Si  Si12  1  0.17136776  0.96640862  0.91643232  1
  Si  Si13  1  0.67077076  0.37388844  0.41512128  1
  Si  Si14  1  0.51923699  0.66034784  0.41458828  1
  S  S0  1  0.64355465  0.99970035  0.25035132  1
  S  S1  1  0.14548206  0.28892836  0.75034002  1
  S  S2  1  0.35551838  0.00141481  0.74987506  1
  S  S3  1  0.47733615  0.33068036  0.58265127  1
  S  S4  1  0.97482383  0.32779920  0.57980695  1
  S  S5  1  0.18830811  0.04931443  0.57874357  1
  S  S6  1  0.69123549  0.04384864  0.58362061  1
  S  S7  1  0.83407390  0.62419306  0.58025908  1
  S  S8  1  0.47453956  0.62203647  0.07942296  1
  S  S9  1  0.97732313  0.62410816  0.08224685  1
  S  S10  1  0.33453707  0.04351214  0.07982162  1
  S  S11  1  0.19043294  0.33626192  0.08282357  1
  S  S12  1  0.68794720  0.32523567  0.07831537  1
  S  S13  1  0.31314376  0.67415555  0.91745557  1
  S  S14  1  0.80512894  0.66141339  0.91641425  1
  S  S15  1  0.52472723  0.38011423  0.91747472  1
  S  S16  1  0.66317007  0.94601943  0.91811038  1
  S  S17  1  0.30570729  0.94958040  0.41650301  1
  S  S18  1  0.81352808  0.95623574  0.41786474  1
  S  S19  1  0.16323172  0.37864824  0.41766399  1
  S  S20  1  0.02519263  0.66965704  0.41804152  1
  O  O0  1  0.11411331  0.05934248  0.31126772  1
  O  O1  1  0.60325835  0.03409931  0.30264499  1
  O  O2  1  0.42140883  0.80356353  0.30636992  1
  O  O3  1  0.91262493  0.75965791  0.31152235  1
  O  O4  1  0.48229915  0.15593078  0.30543626  1
  O  O5  1  0.96852805  0.16935734  0.31306204  1
  O  O6  1  0.10571416  0.17709971  0.80278100  1
  O  O7  1  0.60915056  0.16868781  0.81105211  1
  O  O8  1  0.46235816  0.76468784  0.81079012  1
  O  O9  1  0.98488554  0.81049306  0.80571094  1
  O  O10  1  0.40722917  0.04599020  0.80264554  1
  O  O11  1  0.92199896  0.03845612  0.80641494  1
  O  O12  1  0.39895347  0.97770149  0.69727735  1
  O  O13  1  0.89171228  0.96683248  0.68832363  1
  O  O14  1  0.09724753  0.22823536  0.69681032  1
  O  O15  1  0.57983497  0.19290358  0.69488051  1
  O  O16  1  0.03065760  0.83349913  0.68882634  1
  O  O17  1  0.51033987  0.83147879  0.69574579  1
  O  O18  1  0.39099683  0.81484963  0.18795324  1
  O  O19  1  0.90440601  0.83365410  0.19579916  1
  O  O20  1  0.01335987  0.19457561  0.19594578  1
  O  O21  1  0.52787920  0.22517632  0.18813998  1
  O  O22  1  0.08206015  0.96982064  0.19380983  1
  O  O23  1  0.59568606  0.96743448  0.19671853  1
  O  O24  1  0.43212252  0.35619705  0.63555119  1
  O  O25  1  0.93541760  0.35920377  0.63396667  1
  O  O26  1  0.24346932  0.12485174  0.63373590  1
  O  O27  1  0.74561953  0.13031070  0.63555464  1
  O  O28  1  0.31563797  0.49526738  0.63941262  1
  O  O29  1  0.82286272  0.51596073  0.63445205  1
  O  O30  1  0.43603603  0.51262636  0.13320519  1
  O  O31  1  0.93442681  0.50988406  0.13465793  1
  O  O32  1  0.32173870  0.12701701  0.13326491  1
  O  O33  1  0.81625752  0.13870363  0.13811143  1
  O  O34  1  0.24770071  0.36502556  0.13422468  1
  O  O35  1  0.74152689  0.36175555  0.13226889  1
  O  O36  1  0.22718298  0.30813218  0.02927449  1
  O  O37  1  0.73255039  0.31523126  0.02591087  1
  O  O38  1  0.42201341  0.53923670  0.02776940  1
  O  O39  1  0.92739130  0.55582818  0.02954122  1
  O  O40  1  0.34572141  0.14938947  0.02758448  1
  O  O41  1  0.85337460  0.15715401  0.02279226  1
  O  O42  1  0.23418830  0.15290614  0.52762269  1
  O  O43  1  0.72574751  0.14623534  0.53036700  1
  O  O44  1  0.35684279  0.54940993  0.52618072  1
  O  O45  1  0.84487667  0.53878083  0.52866459  1
  O  O46  1  0.42657279  0.29558354  0.53047984  1
  O  O47  1  0.92145389  0.30432670  0.52870620  1
  O  O48  1  0.26270047  0.68297020  0.97110403  1
  O  O49  1  0.76375568  0.68615399  0.97027678  1
  O  O50  1  0.07972890  0.47428402  0.97557972  1
  O  O51  1  0.58006540  0.47413427  0.97000686  1
  O  O52  1  0.15730614  0.83699642  0.97408092  1
  O  O53  1  0.66039287  0.83872475  0.97152951  1
  O  O54  1  0.26379866  0.84143031  0.47101645  1
  O  O55  1  0.76097156  0.84210085  0.47310606  1
  O  O56  1  0.16169763  0.48388889  0.47223284  1
  O  O57  1  0.65638390  0.47445469  0.47411512  1
  O  O58  1  0.08068411  0.68056755  0.47101666  1
  O  O59  1  0.57910254  0.68324726  0.47568779  1
  O  O60  1  0.07207624  0.65770062  0.36508487  1
  O  O61  1  0.58043978  0.66106019  0.36116607  1
  O  O62  1  0.25263570  0.85951114  0.36519332  1
  O  O63  1  0.76121357  0.87059720  0.36579776  1
  O  O64  1  0.17030341  0.48705317  0.36590319  1
  O  O65  1  0.68229704  0.50137134  0.35938725  1
  O  O66  1  0.07858409  0.50035600  0.86128433  1
  O  O67  1  0.57178385  0.48675396  0.86406018  1
  O  O68  1  0.18381386  0.86179950  0.85973007  1
  O  O69  1  0.66890070  0.85150088  0.86548272  1
  O  O70  1  0.26092479  0.65525362  0.86400458  1
  O  O71  1  0.75254353  0.64651809  0.86467122  1
  O  O72  1  0.02052379  0.82868068  0.41920852  1
  O  O73  1  0.51441968  0.83960896  0.40697864  1
  O  O74  1  0.39214534  0.95760182  0.41213227  1
  O  O75  1  0.89616451  0.95894669  0.42001543  1
  O  O76  1  0.08150540  0.21456043  0.42100554  1
  O  O77  1  0.57923497  0.19099845  0.40558315  1
  O  O78  1  0.01542128  0.19067303  0.90640082  1
  O  O79  1  0.51685773  0.20774921  0.91546123  1
  O  O80  1  0.08026756  0.96705078  0.90490116  1
  O  O81  1  0.58078704  0.94772425  0.92011748  1
  O  O82  1  0.39627251  0.83907716  0.91664956  1
  O  O83  1  0.89241002  0.82670015  0.91169497  1
  O  O84  1  0.49119157  0.18258175  0.59654180  1
  O  O85  1  0.99419977  0.18745722  0.58706440  1
  O  O86  1  0.10179168  0.02778315  0.58648623  1
  O  O87  1  0.60054102  0.02048231  0.59409350  1
  O  O88  1  0.41307250  0.82161584  0.59953660  1
  O  O89  1  0.90999891  0.80054251  0.58480773  1
  O  O90  1  0.49393096  0.80135199  0.08627222  1
  O  O91  1  0.99460851  0.80246482  0.09337990  1
  O  O92  1  0.40954069  0.01686667  0.08426720  1
  O  O93  1  0.91689947  0.01423143  0.09548582  1
  O  O94  1  0.10243958  0.18474202  0.09324919  1
  O  O95  1  0.60013928  0.17567278  0.08456334  1
  O  O96  1  0.33752350  0.14728304  0.73599439  1
  O  O97  1  0.84578325  0.17612086  0.74019433  1
  O  O98  1  0.23512400  0.29839531  0.74400033  1
  O  O99  1  0.73916706  0.31522803  0.73300923  1
  O  O100  1  0.41354562  0.50566489  0.73546089  1
  O  O101  1  0.91672716  0.52688506  0.73979260  1
  O  O102  1  0.34512713  0.51517506  0.24065557  1
  O  O103  1  0.83452714  0.51253750  0.23228585  1
  O  O104  1  0.41356602  0.30152019  0.23871064  1
  O  O105  1  0.91415747  0.31791444  0.23670582  1
  O  O106  1  0.23956930  0.16381919  0.23228156  1
  O  O107  1  0.73318273  0.16595157  0.24498723  1
  O  O108  1  0.32036334  0.51685021  0.92211577  1
  O  O109  1  0.81470607  0.50818799  0.92119746  1
  O  O110  1  0.44133416  0.37791683  0.92067215  1
  O  O111  1  0.92730033  0.37260696  0.91563524  1
  O  O112  1  0.25645289  0.15421922  0.91887569  1
  O  O113  1  0.74158969  0.11755496  0.91917903  1
  O  O114  1  0.31469131  0.12142998  0.42227718  1
  O  O115  1  0.81955695  0.12639432  0.42493588  1
  O  O116  1  0.24235803  0.36600906  0.42022261  1
  O  O117  1  0.75558359  0.35604575  0.41923937  1
  O  O118  1  0.42775103  0.48262125  0.41510965  1
  O  O119  1  0.94185102  0.50545718  0.42188010  1
  O  O120  1  0.18219417  0.49763922  0.07653092  1
  O  O121  1  0.67814702  0.49020749  0.07131191  1
  O  O122  1  0.06620281  0.63523793  0.07704447  1
  O  O123  1  0.56365211  0.62872955  0.07211599  1
  O  O124  1  0.25172196  0.86615807  0.07401598  1
  O  O125  1  0.74722086  0.84939421  0.07240168  1
  O  O126  1  0.17950957  0.86812256  0.57303156  1
  O  O127  1  0.67960883  0.86586865  0.57875518  1
  O  O128  1  0.24607534  0.64393904  0.57322576  1
  O  O129  1  0.75149822  0.63489485  0.57556456  1
  O  O130  1  0.06333793  0.49948492  0.57297083  1
  O  O131  1  0.56520153  0.49344962  0.57896016  1
  O  O132  1  0.15533639  0.83392027  0.26128114  1
  O  O133  1  0.66204066  0.85789562  0.26279949  1
  O  O134  1  0.26303148  0.68454780  0.26830842  1
  O  O135  1  0.76291814  0.70537210  0.25935335  1
  O  O136  1  0.08119313  0.47463808  0.26083713  1
  O  O137  1  0.57941624  0.47953281  0.26315457  1
  O  O138  1  0.16777796  0.47187981  0.76279517  1
  O  O139  1  0.65576228  0.47903682  0.76103324  1
  O  O140  1  0.08405405  0.68374300  0.76364467  1
  O  O141  1  0.58014309  0.68949396  0.76122405  1
  O  O142  1  0.26945466  0.83848017  0.75544686  1
  O  O143  1  0.76291343  0.84328781  0.76847355  1
loop_
_geom_bond_atom_site_label_1
_geom_bond_atom_site_label_2
_geom_bond_distance
_geom_bond_site_symmetry_2
Na0 O75 2.420717 1_555
Na0 O76 2.452553 1_665
Na0 O72 2.463595 1_655
Na0 O89 2.584185 1_555
Na0 O86 2.682092 1_665
Na0 O85 2.685194 1_565
Na1 O92 2.500315 1_555
Na1 O81 2.529830 1_544
Na1 O95 2.544864 1_555
Na1 O82 2.556261 1_544
Na1 O79 2.583186 1_554
Na1 O90 2.594910 1_545
Na2 O112 2.249240 1_555
Na2 O110 2.462295 1_555
Na2 O108 2.468986 1_555
Na2 O98 2.821333 1_555
Na2 O100 2.879831 1_555
Na2 O96 3.010149 1_555
Na3 O111 2.235783 1_555
Na3 O113 2.476312 1_555
Na3 O109 2.537755 1_555
Na3 O97 2.746072 1_555
Na3 O101 2.838624 1_555
Na3 O99 2.999758 1_555
Na4 O118 2.250873 1_555
Na4 O116 2.518491 1_555
Na4 O114 2.574737 1_555
Na4 O102 2.712676 1_555
Na4 O104 2.809761 1_555
Na4 O106 2.985424 1_555
Na5 O117 2.286937 1_555
Na5 O119 2.501686 1_555
Na5 O115 2.636513 1_555
Na5 O107 2.805044 1_555
Na5 O105 2.828325 1_555
Na5 O103 2.893224 1_555
O0 Si0 1.583058 1_555
O0 Zn0 1.942992 1_445
O1 S0 1.491559 1_545
O1 Ta0 2.144469 1_545
O2 Si1 1.641863 1_555
O2 Ta0 1.953409 1_555
O3 Si2 1.586513 1_555
O3 Zn0 1.935949 1_555
O4 Si4 1.645773 1_555
O4 Ta0 1.959157 1_545
O5 Si3 1.574901 1_555
O5 Zn0 1.943922 1_545
O6 S1 1.480622 1_555
O6 Ta1 2.205311 1_445
O7 Si5 1.579317 1_555
O7 Zn1 1.916663 1_545
O8 Si7 1.575025 1_555
O8 Zn1 1.936902 1_555
O9 Si6 1.642057 1_655
O9 Ta1 1.959899 1_555
O10 S2 1.448127 1_555
O10 Zn1 2.278469 1_545
O11 Si8 1.644072 1_555
O11 Ta1 1.955602 1_545
O12 S2 1.489282 1_565
O12 Ta2 2.103198 1_555
O13 Si8 1.569271 1_565
O13 Zn2 1.883169 1_555
O14 S1 1.436916 1_555
O14 Zn2 2.296960 1_445
O15 Si5 1.643187 1_555
O15 Ta2 1.923229 1_545
O16 Si6 1.572228 1_555
O16 Zn2 1.890595 1_455
O17 Si7 1.654674 1_555
O17 Ta2 1.875723 1_555
O18 Si1 1.570115 1_555
O18 Zn3 1.880346 1_565
O19 Si2 1.653372 1_555
O19 Ta3 1.862654 1_565
O20 Si3 1.640254 1_455
O20 Ta3 1.887056 1_455
O21 Si4 1.573417 1_555
O21 Zn3 1.878514 1_555
O22 Si0 1.626944 1_565
O22 Ta3 1.947278 1_465
O23 S0 1.438450 1_555
O23 Zn3 2.222107 1_565
O24 S3 1.519671 1_555
O24 Ta4 2.050594 1_555
O25 S4 1.505662 1_555
O25 Ta5 2.117618 1_555
O26 S5 1.529186 1_555
O26 Ta4 2.093341 1_555
O27 S6 1.481539 1_555
O27 Ta5 2.194779 1_555
O28 Si9 1.696551 1_555
O28 Ta4 1.851688 1_555
O29 S7 1.512817 1_555
O29 Ta5 2.134266 1_555
O30 S8 1.493435 1_555
O30 Ta6 2.140991 1_555
O31 S9 1.497282 1_555
O31 Ta7 2.111789 1_555
O32 S10 1.498150 1_555
O32 Ta6 2.174334 1_555
O33 Si10 1.659668 1_555
O33 Ta7 1.921347 1_555
O34 S11 1.491942 1_555
O34 Ta6 2.167017 1_555
O35 S12 1.492900 1_555
O35 Ta7 2.184240 1_555
O36 S11 1.457250 1_555
O36 Zn4 2.053744 1_554
O37 S12 1.453161 1_555
O37 Zn5 2.169542 1_554
O38 S8 1.457317 1_555
O38 Zn4 2.134238 1_554
O39 S9 1.439702 1_555
O39 Zn5 2.140303 1_554
O40 S10 1.464747 1_555
O40 Zn4 2.017315 1_554
O41 Si10 1.564964 1_555
O41 Zn5 1.871341 1_554
O42 S5 1.447896 1_555
O42 Zn6 2.207363 1_555
O43 S6 1.449605 1_555
O43 Zn7 2.123974 1_555
O44 Si9 1.556947 1_555
O44 Zn6 1.893845 1_555
O45 S7 1.460122 1_555
O45 Zn7 2.031959 1_555
O46 S3 1.433993 1_555
O46 Zn6 2.208139 1_555
O47 S4 1.453871 1_555
O47 Zn7 2.147168 1_555
O48 S13 1.532734 1_555
O48 Ta8 2.034920 1_556
O49 S14 1.495527 1_555
O49 Ta9 2.071406 1_556
O50 Si11 1.676804 1_555
O50 Ta8 1.884999 1_556
O51 S15 1.512962 1_555
O51 Ta9 2.094369 1_556
O52 Si12 1.676153 1_555
O52 Ta8 1.887106 1_556
O53 S16 1.529387 1_555
O53 Ta9 2.016584 1_556
O54 S17 1.511348 1_555
O54 Ta10 2.046828 1_555
O55 S18 1.584454 1_555
O55 Ta11 1.950320 1_555
O56 S19 1.562105 1_555
O56 Ta10 1.965292 1_555
O57 Si13 1.698875 1_555
O57 Ta11 1.861997 1_555
O58 S20 1.535037 1_555
O58 Ta10 2.015505 1_555
O59 Si14 1.706684 1_555
O59 Ta11 1.864659 1_555
O60 S20 1.492447 1_555
O60 Ta12 2.102048 1_555
O61 Si14 1.620453 1_555
O61 Ta13 1.924428 1_555
O62 S17 1.467744 1_555
O62 Ta12 2.174865 1_555
O63 S18 1.468369 1_555
O63 Ta13 2.238463 1_555
O64 S19 1.485077 1_555
O64 Ta12 2.146598 1_555
O65 Si13 1.641202 1_555
O65 Ta13 1.883498 1_555
O66 Si11 1.662126 1_555
O66 Ta14 1.855329 1_555
O67 S15 1.504231 1_555
O67 Ta15 2.086468 1_555
O68 Si12 1.665896 1_555
O68 Ta14 1.867327 1_555
O69 S16 1.493986 1_555
O69 Ta15 2.113472 1_555
O70 S13 1.493452 1_555
O70 Ta14 2.140182 1_555
O71 S14 1.473023 1_555
O71 Ta15 2.161519 1_555
O72 S20 1.449689 1_555
O72 Zn0 2.527210 1_455
O73 Si14 1.638941 1_555
O73 Ta0 1.930738 1_555
O74 S17 1.496412 1_555
O74 Ta0 2.090834 1_555
O75 S18 1.450374 1_555
O75 Zn0 2.490179 1_555
O76 S19 1.448685 1_555
O76 Zn0 2.615499 1_445
O77 Si13 1.633465 1_555
O77 Ta0 1.946083 1_545
O78 Si11 1.636981 1_555
O78 Ta1 1.927338 1_445
O79 S15 1.460475 1_555
O79 Zn1 2.394347 1_545
O80 Si12 1.636933 1_555
O80 Ta1 1.943415 1_455
O81 S16 1.464435 1_555
O81 Zn1 2.275100 1_555
O82 S13 1.463379 1_555
O82 Zn1 2.300966 1_555
O83 S14 1.506257 1_555
O83 Ta1 2.053620 1_555
O84 S3 1.482655 1_555
O84 Ta2 2.118500 1_545
O85 S4 1.453192 1_555
O85 Zn2 2.399626 1_545
O86 S5 1.452906 1_555
O86 Zn2 2.338222 1_445
O87 S6 1.527296 1_555
O87 Ta2 2.010082 1_545
O88 Si9 1.636578 1_555
O88 Ta2 1.921062 1_555
O89 S7 1.466884 1_555
O89 Zn2 2.188222 1_555
O90 S8 1.453792 1_555
O90 Zn3 2.405915 1_565
O91 S9 1.471295 1_555
O91 Ta3 2.180377 1_565
O92 S10 1.462609 1_555
O92 Zn3 2.240737 1_555
O93 Si10 1.628005 1_555
O93 Ta3 1.938470 1_555
O94 S11 1.476273 1_555
O94 Ta3 2.182946 1_455
O95 S12 1.456257 1_555
O95 Zn3 2.369860 1_555
O96 S2 1.509341 1_555
O96 Ta4 2.109969 1_555
O97 Si8 1.677828 1_555
O97 Ta5 1.898708 1_555
O98 S1 1.550137 1_555
O98 Ta4 2.037038 1_555
O99 Si5 1.659197 1_555
O99 Ta5 1.871508 1_555
O100 Si7 1.675242 1_555
O100 Ta4 1.886964 1_555
O101 Si6 1.677452 1_655
O101 Ta5 1.880041 1_555
O102 Si1 1.675873 1_555
O102 Ta6 1.894533 1_555
O103 Si2 1.658879 1_555
O103 Ta7 1.905970 1_555
O104 Si4 1.674745 1_555
O104 Ta6 1.878588 1_555
O105 Si3 1.670092 1_555
O105 Ta7 1.875111 1_555
O106 Si0 1.663084 1_555
O106 Ta6 1.848654 1_555
O107 S0 1.533711 1_545
O107 Ta7 2.046378 1_555
O108 S13 1.463199 1_555
O108 Zn4 2.233547 1_555
O109 S14 1.451500 1_555
O109 Zn5 2.336137 1_555
O110 S15 1.465922 1_555
O110 Zn4 2.245775 1_555
O111 Si11 1.587092 1_655
O111 Zn5 1.971755 1_555
O112 Si12 1.589072 1_545
O112 Zn4 1.955247 1_555
O113 S16 1.455816 1_545
O113 Zn5 2.306086 1_555
O114 S17 1.452968 1_545
O114 Zn6 2.318089 1_555
O115 S18 1.463453 1_545
O115 Zn7 2.150618 1_555
O116 S19 1.459719 1_555
O116 Zn6 2.236610 1_555
O117 Si13 1.587863 1_555
O117 Zn7 1.933372 1_555
O118 Si14 1.594255 1_555
O118 Zn6 1.937003 1_555
O119 S20 1.464069 1_655
O119 Zn7 2.188693 1_555
O120 S11 1.512328 1_555
O120 Ta8 2.121168 1_555
O121 S12 1.561303 1_555
O121 Ta9 1.961881 1_555
O122 S9 1.528058 1_455
O122 Ta8 2.031060 1_555
O123 S8 1.554225 1_555
O123 Ta9 1.967613 1_555
O124 S10 1.525092 1_565
O124 Ta8 2.099467 1_555
O125 Si10 1.699115 1_565
O125 Ta9 1.844883 1_555
O126 S5 1.536162 1_565
O126 Ta10 2.023586 1_555
O127 S6 1.486152 1_565
O127 Ta11 2.203999 1_555
O128 Si9 1.658574 1_555
O128 Ta10 1.877340 1_555
O129 S7 1.514161 1_555
O129 Ta11 2.154032 1_555
O130 S4 1.547926 1_455
O130 Ta10 1.988991 1_555
O131 S3 1.500603 1_555
O131 Ta11 2.128719 1_555
O132 Si0 1.660216 1_565
O132 Ta12 1.865754 1_555
O133 S0 1.473768 1_555
O133 Ta13 2.139748 1_555
O134 Si1 1.654046 1_555
O134 Ta12 1.857774 1_555
O135 Si2 1.629270 1_555
O135 Ta13 1.922198 1_555
O136 Si3 1.650254 1_455
O136 Ta12 1.863065 1_555
O137 Si4 1.645327 1_555
O137 Ta13 1.860507 1_555
O138 S1 1.489107 1_555
O138 Ta14 2.138431 1_555
O139 Si5 1.652711 1_555
O139 Ta15 1.875711 1_555
O140 Si6 1.661060 1_555
O140 Ta14 1.862004 1_555
O141 Si7 1.641021 1_555
O141 Ta15 1.881612 1_555
O142 S2 1.486522 1_565
O142 Ta14 2.147914 1_555
O143 Si8 1.658851 1_565
O143 Ta15 1.858606 1_555
