# generated using pymatgen
data_Sr5(AuO4)2
_symmetry_space_group_name_H-M   'P 1'
_cell_length_a   6.53891546
_cell_length_b   6.73412319
_cell_length_c   6.73426534
_cell_angle_alpha   76.36644440
_cell_angle_beta   60.95502953
_cell_angle_gamma   60.95436309
_symmetry_Int_Tables_number   1
_chemical_formula_structural   Sr5(AuO4)2
_chemical_formula_sum   'Sr5 Au2 O8'
_cell_volume   226.63890916
_cell_formula_units_Z   1
loop_
 _symmetry_equiv_pos_site_id
 _symmetry_equiv_pos_as_xyz
  1  'x, y, z'
loop_
 _atom_site_type_symbol
 _atom_site_label
 _atom_site_symmetry_multiplicity
 _atom_site_fract_x
 _atom_site_fract_y
 _atom_site_fract_z
 _atom_site_occupancy
  Sr  Sr0  1  0.52734434  0.50000000  0.94531233  1
  Sr  Sr1  1  0.97265566  0.50000000  0.05468767  1
  Sr  Sr2  1  0.97262087  0.05476027  0.50000000  1
  Sr  Sr3  1  0.52737913  0.94523973  0.50000000  1
  Sr  Sr4  1  0.25000000  0.50000000  0.50000000  1
  Au  Au0  1  0.50000000  -0.00000000  -0.00000000  1
  Au  Au1  1  0.00000000  -0.00000000  -0.00000000  1
  O  O0  1  0.75552662  0.75619160  0.75620325  1
  O  O1  1  0.26792147  0.24380840  0.24379675  1
  O  O2  1  0.48828178  0.75619160  0.24379675  1
  O  O3  1  0.48827014  0.24380840  0.75620325  1
  O  O4  1  0.01170407  0.24380770  0.75620234  1
  O  O5  1  0.01171610  0.75619230  0.24379766  1
  O  O6  1  0.74448624  0.24380770  0.24379766  1
  O  O7  1  0.23209160  0.75619230  0.75620234  1
loop_
_geom_bond_atom_site_label_1
_geom_bond_atom_site_label_2
_geom_bond_distance
_geom_bond_site_symmetry_2
Au0 O2 2.031314 1_545
Au0 O3 2.031314 1_554
Au0 O0 2.031315 1_544
Au0 O1 2.031315 1_555
Au1 O4 2.031312 1_554
Au1 O5 2.031312 1_545
Au1 O6 2.031312 1_455
Au1 O7 2.031312 1_544
O0 Sr3 2.538251 1_555
O0 Sr0 2.538350 1_555
O0 Sr4 2.641503 1_655
O0 Sr1 2.791133 1_556
O0 Sr2 2.791480 1_565
O1 Sr2 2.538242 1_455
O1 Sr1 2.538354 1_455
O1 Sr4 2.641503 1_555
O1 Sr0 2.791137 1_554
O1 Sr3 2.791473 1_545
O2 Sr3 2.538243 1_555
O2 Sr1 2.538350 1_555
O2 Sr4 2.641503 1_555
O2 Sr0 2.791134 1_554
O2 Sr2 2.791473 1_465
O3 Sr2 2.538251 1_555
O3 Sr0 2.538355 1_555
O3 Sr4 2.641503 1_555
O3 Sr1 2.791137 1_456
O3 Sr3 2.791481 1_545
O4 Sr2 2.538172 1_455
O4 Sr0 2.538289 1_455
O4 Sr4 2.641560 1_555
O4 Sr1 2.791194 1_456
O4 Sr3 2.791522 1_545
O5 Sr3 2.538189 1_455
O5 Sr1 2.538302 1_455
O5 Sr4 2.641552 1_555
O5 Sr0 2.791190 1_554
O5 Sr2 2.791522 1_465
O6 Sr2 2.538189 1_555
O6 Sr1 2.538298 1_555
O6 Sr4 2.641552 1_555
O6 Sr0 2.791186 1_554
O6 Sr3 2.791522 1_545
O7 Sr3 2.538180 1_555
O7 Sr0 2.538302 1_555
O7 Sr4 2.641552 1_555
O7 Sr1 2.791190 1_456
O7 Sr2 2.791515 1_465
