# generated using pymatgen
data_Na6Ca4SiS5O24
_symmetry_space_group_name_H-M   'P 1'
_cell_length_a   9.49134063
_cell_length_b   9.44197988
_cell_length_c   22.79609766
_cell_angle_alpha   89.95958653
_cell_angle_beta   90.10098646
_cell_angle_gamma   119.86123247
_symmetry_Int_Tables_number   1
_chemical_formula_structural   Na6Ca4SiS5O24
_chemical_formula_sum   'Na18 Ca12 Si3 S15 O72'
_cell_volume   1771.68566436
_cell_formula_units_Z   3
loop_
 _symmetry_equiv_pos_site_id
 _symmetry_equiv_pos_as_xyz
  1  'x, y, z'
loop_
 _atom_site_type_symbol
 _atom_site_label
 _atom_site_symmetry_multiplicity
 _atom_site_fract_x
 _atom_site_fract_y
 _atom_site_fract_z
 _atom_site_occupancy
  Na  Na0  1  0.62897974  -0.00267563  0.24865603  1
  Na  Na1  1  0.35000031  0.32210182  0.25455722  1
  Na  Na2  1  0.02160783  0.67123857  0.23997542  1
  Na  Na3  1  0.64638680  0.66402484  0.73303059  1
  Na  Na4  1  0.96951163  0.32685747  0.76211020  1
  Na  Na5  1  0.37101880  -0.00229527  0.75297784  1
  Na  Na6  1  0.33709555  0.35924178  0.58681664  1
  Na  Na7  1  -0.00132127  0.68989185  0.57380352  1
  Na  Na8  1  0.67739856  0.96638690  0.59667350  1
  Na  Na9  1  0.30784295  0.97496614  0.09602010  1
  Na  Na10  1  0.69555469  0.02563796  0.90157425  1
  Na  Na11  1  0.69270124  0.65985598  0.43385839  1
  Na  Na12  1  0.99213751  0.99833764  0.50031940  1
  Na  Na13  1  0.99978405  0.00003519  0.00114580  1
  Na  Na14  1  0.66575844  0.32911551  0.83271694  1
  Na  Na15  1  0.62946984  0.28152060  0.33439098  1
  Na  Na16  1  0.33079076  0.67218801  0.16725779  1
  Na  Na17  1  0.37875210  0.69117482  0.66733566  1
  Ca  Ca0  1  0.01712450  0.00662910  0.34842846  1
  Ca  Ca1  1  0.99807776  -0.00187048  0.85078838  1
  Ca  Ca2  1  0.98944283  0.99509786  0.65371738  1
  Ca  Ca3  1  0.00183776  0.99856195  0.15018970  1
  Ca  Ca4  1  0.66778750  0.33662268  0.68061190  1
  Ca  Ca5  1  0.67025078  0.34029388  0.17846545  1
  Ca  Ca6  1  0.67258834  0.34299808  0.98504307  1
  Ca  Ca7  1  0.66633895  0.32914219  0.48355804  1
  Ca  Ca8  1  0.32657323  0.65604767  0.01569731  1
  Ca  Ca9  1  0.33411788  0.67239343  0.51289815  1
  Ca  Ca10  1  0.32780809  0.67173641  0.32024474  1
  Ca  Ca11  1  0.33380887  0.65992325  0.82130887  1
  Si  Si0  1  0.31280409  0.00047423  0.24208713  1
  Si  Si1  1  0.68500899  0.00003838  0.75180288  1
  Si  Si2  1  0.66768199  0.64822855  0.58186797  1
  S  S0  1  0.69402297  0.69386731  0.25509782  1
  S  S1  1  0.99975076  0.30512016  0.24974314  1
  S  S2  1  0.30698179  0.30702786  0.74622852  1
  S  S3  1  0.00260351  0.69161221  0.74861136  1
  S  S4  1  0.97794587  0.33692762  0.58644923  1
  S  S5  1  0.35416486  0.02450735  0.58593077  1
  S  S6  1  0.98485008  0.65192680  0.08598211  1
  S  S7  1  0.66252281  0.02091464  0.08172716  1
  S  S8  1  0.35522747  0.32992684  0.08604959  1
  S  S9  1  0.64328674  0.66963185  0.91469979  1
  S  S10  1  0.01469102  0.34877099  0.91341858  1
  S  S11  1  0.33888340  0.97846540  0.91780676  1
  S  S12  1  0.65227893  0.97703482  0.41513668  1
  S  S13  1  0.33680613  0.35704538  0.41705434  1
  S  S14  1  0.01134937  0.66434854  0.41725760  1
  O  O0  1  0.20594617  0.03049423  0.29165680  1
  O  O1  1  0.77765603  0.76986644  0.31093208  1
  O  O2  1  0.96860638  0.20248364  0.30249045  1
  O  O3  1  0.21126215  0.19552239  0.79447305  1
  O  O4  1  0.99861415  0.79323007  0.79695774  1
  O  O5  1  0.80064157  0.02079533  0.80869069  1
  O  O6  1  0.77239564  0.98306585  0.69178582  1
  O  O7  1  0.23189924  0.23273952  0.68876328  1
  O  O8  1  0.02328562  0.77840069  0.69185678  1
  O  O9  1  0.77721506  0.80677171  0.20561233  1
  O  O10  1  0.01012155  0.21956502  0.19726270  1
  O  O11  1  0.21360371  0.97666752  0.18077471  1
  O  O12  1  0.90386706  0.34269648  0.64328435  1
  O  O13  1  0.44350700  0.09094132  0.64222131  1
  O  O14  1  0.65186955  0.54544621  0.64227982  1
  O  O15  1  0.91101965  0.58393031  0.14428647  1
  O  O16  1  0.66322456  0.11277316  0.13547821  1
  O  O17  1  0.43108759  0.33559294  0.14426521  1
  O  O18  1  0.46326674  0.32964356  0.03910138  1
  O  O19  1  0.88699618  0.54029280  0.03867863  1
  O  O20  1  0.66913148  0.11515275  0.02845526  1
  O  O21  1  0.45346618  0.12569449  0.53661146  1
  O  O22  1  0.67760569  0.54629236  0.52500874  1
  O  O23  1  0.86195286  0.30679293  0.53836569  1
  O  O24  1  0.53653537  0.66937404  0.96199982  1
  O  O25  1  0.11259080  0.45799029  0.96090306  1
  O  O26  1  0.33153302  0.88336637  0.97056006  1
  O  O27  1  0.55366467  0.88454016  0.46696506  1
  O  O28  1  0.34346765  0.45148515  0.47055372  1
  O  O29  1  0.09615996  0.66017822  0.47161663  1
  O  O30  1  0.10733089  0.67516331  0.36434707  1
  O  O31  1  0.56473186  0.89349025  0.36008367  1
  O  O32  1  0.33020578  0.44489991  0.36372652  1
  O  O33  1  0.08932043  0.41766741  0.85535172  1
  O  O34  1  0.33882735  0.88836523  0.86359295  1
  O  O35  1  0.56741007  0.66382552  0.85678020  1
  O  O36  1  -0.01239220  0.80959469  0.42091898  1
  O  O37  1  0.80941769  0.97730411  0.41890499  1
  O  O38  1  0.19442936  0.19111437  0.42074788  1
  O  O39  1  -0.00228397  0.18346925  0.92163463  1
  O  O40  1  0.20007053  0.00872795  0.91751212  1
  O  O41  1  0.80264279  0.82546825  0.91992409  1
  O  O42  1  0.01892401  0.20328799  0.58617065  1
  O  O43  1  0.19653005  0.02346053  0.58552287  1
  O  O44  1  0.83521248  0.83026405  0.58029424  1
  O  O45  1  0.99873515  0.81499626  0.07708885  1
  O  O46  1  0.80070437  -0.00935038  0.08201144  1
  O  O47  1  0.19580976  0.17585867  0.08022342  1
  O  O48  1  0.66413169  0.16466098  0.75168940  1
  O  O49  1  0.47614224  0.33583800  0.74976240  1
  O  O50  1  0.84812289  0.53115017  0.74965781  1
  O  O51  1  0.69451632  0.53662216  0.24774903  1
  O  O52  1  0.86516670  0.34374654  0.24432659  1
  O  O53  1  0.50028297  0.16129851  0.24472508  1
  O  O54  1  0.67076144  0.52816149  0.91872752  1
  O  O55  1  0.84498873  0.32428503  0.91310691  1
  O  O56  1  0.49663794  0.13755351  0.91717579  1
  O  O57  1  0.68035812  0.14588354  0.41483402  1
  O  O58  1  0.49079631  0.34920589  0.41319553  1
  O  O59  1  0.84746876  0.51571645  0.41284242  1
  O  O60  1  0.33024818  0.47272867  0.08194668  1
  O  O61  1  0.15438811  0.67658288  0.08609191  1
  O  O62  1  0.50415758  0.86235091  0.08267261  1
  O  O63  1  0.31858252  0.85204792  0.58071523  1
  O  O64  1  0.50412376  0.67089014  0.58091177  1
  O  O65  1  0.13207522  0.49546587  0.57912836  1
  O  O66  1  0.32673882  0.83223610  0.24987356  1
  O  O67  1  0.52071683  0.65600041  0.25593007  1
  O  O68  1  0.15628620  0.46408304  0.25465063  1
  O  O69  1  0.31076295  0.46653623  0.75068970  1
  O  O70  1  0.14076904  0.66008340  0.75523794  1
  O  O71  1  0.50250423  0.83309571  0.75317430  1
loop_
_geom_bond_atom_site_label_1
_geom_bond_atom_site_label_2
_geom_bond_distance
_geom_bond_site_symmetry_2
Na0 O53 2.404125 1_555
Na0 O66 2.491425 1_545
Na0 O31 2.681760 1_545
Na0 O16 2.756179 1_555
Na0 O67 2.858636 1_545
Na0 O52 2.903887 1_555
Na0 O9 2.950853 1_545
Na0 O2 3.069333 1_555
Na1 O0 2.533308 1_555
Na1 O53 2.558954 1_555
Na1 O17 2.615078 1_555
Na1 O67 2.734737 1_555
Na1 O68 2.762629 1_555
Na1 O32 2.792056 1_555
Na1 O51 2.867932 1_555
Na1 O10 3.150640 1_555
Na2 O15 2.381668 1_455
Na2 O66 2.522563 1_555
Na2 O52 2.684046 1_455
Na2 O51 2.712432 1_455
Na2 O68 2.838841 1_555
Na2 O11 2.868563 1_555
Na2 O30 2.943407 1_555
Na2 O0 3.169201 1_565
Na2 O9 3.252693 1_455
Na2 O1 3.317732 1_455
Na3 O14 2.365946 1_555
Na3 O71 2.607366 1_555
Na3 O49 2.715334 1_555
Na3 O50 2.787986 1_555
Na3 O6 2.793053 1_555
Na3 O69 2.806251 1_555
Na3 O35 2.919936 1_555
Na3 O4 3.272977 1_555
Na4 O33 2.359944 1_655
Na4 O48 2.526012 1_555
Na4 O50 2.709228 1_555
Na4 O5 2.727073 1_555
Na4 O70 2.733754 1_655
Na4 O12 2.798972 1_555
Na4 O69 2.836650 1_655
Na4 O3 3.189529 1_655
Na5 O48 2.420464 1_555
Na5 O71 2.429933 1_545
Na5 O13 2.650076 1_555
Na5 O34 2.683753 1_545
Na5 O70 2.829050 1_545
Na5 O49 2.832260 1_555
Na5 O3 3.083894 1_555
Na5 O8 3.210048 1_545
Na5 O4 3.231158 1_445
Na6 O64 2.558314 1_555
Na6 O7 2.577047 1_555
Na6 O42 2.619139 1_555
Na6 O43 2.760511 1_555
Na6 O28 2.780538 1_555
Na6 O65 2.821799 1_555
Na6 O14 2.893915 1_555
Na6 O21 3.134626 1_555
Na6 O22 3.142952 1_555
Na7 O44 2.496912 1_455
Na7 O29 2.574521 1_555
Na7 O63 2.637721 1_555
Na7 O65 2.702125 1_555
Na7 O43 2.761744 1_565
Na7 O8 2.793178 1_555
Na7 O22 2.870195 1_455
Na7 O14 3.267500 1_455
Na7 O23 3.278250 1_455
Na7 O12 3.335452 1_455
Na8 O6 2.321855 1_555
Na8 O44 2.440217 1_555
Na8 O64 2.459343 1_555
Na8 O42 2.889622 1_665
Na8 O63 3.038289 1_555
Na8 O23 3.092141 1_565
Na8 O27 3.131548 1_555
Na8 O13 3.162112 1_565
Na9 O11 2.133932 1_555
Na9 O61 2.454278 1_555
Na9 O45 2.580463 1_455
Na9 O62 2.582721 1_555
Na9 O47 2.620021 1_565
Na10 O5 2.352283 1_555
Na10 O55 2.459521 1_555
Na10 O39 2.528888 1_655
Na10 O41 2.586599 1_545
Na10 O56 2.607139 1_555
Na10 O20 3.059456 1_556
Na10 O34 3.084574 1_545
Na10 O24 3.230459 1_545
Na11 O22 2.309276 1_555
Na11 O36 2.445852 1_655
Na11 O59 2.496748 1_555
Na11 O58 2.626607 1_555
Na11 O37 2.649687 1_555
Na11 O1 2.958290 1_555
Na11 O28 3.011832 1_555
Na11 O27 3.099231 1_555
Na12 O44 2.390045 1_555
Na12 O37 2.477451 1_555
Na12 O36 2.526243 1_655
Na12 O38 2.611010 1_665
Na12 O43 2.668593 1_665
Na12 O42 2.674546 1_665
Na13 O45 2.455223 1_545
Na13 O39 2.512918 1_654
Na13 O47 2.526629 1_655
Na13 O41 2.562620 1_544
Na13 O46 2.611837 1_555
Na13 O40 2.666926 1_654
Na14 O48 2.408993 1_555
Na14 O55 2.514048 1_555
Na14 O56 2.582602 1_555
Na14 O49 2.630706 1_555
Na14 O50 2.634094 1_555
Na14 O54 2.700874 1_555
Na15 O53 2.361882 1_555
Na15 O57 2.417798 1_555
Na15 O58 2.493104 1_555
Na15 O59 2.793856 1_555
Na15 O52 2.875874 1_555
Na15 O51 2.932679 1_555
Na16 O66 2.427786 1_555
Na16 O61 2.507316 1_555
Na16 O62 2.591081 1_555
Na16 O60 2.706359 1_555
Na16 O68 2.708952 1_555
Na16 O67 2.760433 1_555
Na17 O71 2.330779 1_555
Na17 O64 2.360043 1_555
Na17 O69 2.676084 1_555
Na17 O63 2.718102 1_555
Na17 O70 2.925475 1_555
Na17 O65 2.935974 1_555
Na17 Na3 3.065234 1_555
Ca0 O0 2.131468 1_555
Ca0 O2 2.360514 1_455
Ca0 O38 2.378935 1_555
Ca0 O36 2.397624 1_545
Ca0 O1 2.414589 1_445
Ca0 O37 2.451785 1_445
Ca1 O5 2.207059 1_555
Ca1 O4 2.293893 1_545
Ca1 O3 2.338020 1_655
Ca1 O41 2.361726 1_545
Ca1 O39 2.383421 1_655
Ca1 O40 2.407915 1_655
Ca2 O6 2.187006 1_555
Ca2 O44 2.256748 1_555
Ca2 O8 2.386708 1_655
Ca2 O42 2.400601 1_665
Ca2 O7 2.413050 1_665
Ca2 O43 2.416144 1_665
Ca3 O11 2.230996 1_555
Ca3 O10 2.313334 1_565
Ca3 O9 2.362741 1_455
Ca3 O47 2.381868 1_565
Ca3 O45 2.394774 1_455
Ca3 O46 2.431702 1_465
Ca4 O14 2.228849 1_555
Ca4 O48 2.281051 1_555
Ca4 O12 2.372095 1_555
Ca4 O50 2.375840 1_555
Ca4 O13 2.399467 1_555
Ca4 O49 2.406303 1_555
Ca5 O53 2.242831 1_555
Ca5 O16 2.332332 1_555
Ca5 O51 2.358292 1_555
Ca5 O52 2.368114 1_555
Ca5 O17 2.378251 1_555
Ca5 O15 2.426944 1_555
Ca6 O18 2.289236 1_556
Ca6 O19 2.307788 1_556
Ca6 O54 2.317023 1_555
Ca6 O20 2.352744 1_556
Ca6 O55 2.386557 1_555
Ca6 O56 2.390511 1_555
Ca7 O22 2.211828 1_555
Ca7 O21 2.318487 1_555
Ca7 O23 2.331144 1_555
Ca7 O59 2.376444 1_555
Ca7 O58 2.385192 1_555
Ca7 O57 2.387450 1_555
Ca8 O24 2.290035 1_554
Ca8 O60 2.309598 1_555
Ca8 O25 2.322601 1_554
Ca8 O26 2.358849 1_554
Ca8 O61 2.368287 1_555
Ca8 O62 2.385798 1_555
Ca9 O64 2.240913 1_555
Ca9 O27 2.301997 1_555
Ca9 O28 2.340455 1_555
Ca9 O63 2.354302 1_555
Ca9 O65 2.358847 1_555
Ca9 O29 2.394401 1_555
Ca10 O66 2.209501 1_555
Ca10 O30 2.337897 1_555
Ca10 O68 2.355297 1_555
Ca10 O31 2.360592 1_555
Ca10 O32 2.369754 1_555
Ca10 O67 2.409292 1_555
Ca11 O71 2.246727 1_555
Ca11 O35 2.341688 1_555
Ca11 O34 2.341851 1_555
Ca11 O69 2.361934 1_555
Ca11 O70 2.370343 1_555
Ca11 O33 2.436673 1_555
O0 Si0 1.636047 1_555
O1 S0 1.481743 1_555
O2 S1 1.478753 1_555
O3 S2 1.480801 1_555
O4 S3 1.474613 1_655
O5 Si1 1.644939 1_555
O6 Si1 1.649888 1_565
O7 S2 1.488673 1_555
O8 S3 1.491016 1_555
O9 S0 1.481790 1_555
O10 S1 1.474604 1_455
O11 Si0 1.635727 1_565
O12 S4 1.489095 1_555
O13 S5 1.492236 1_555
O14 Si2 1.647633 1_555
O15 S6 1.491258 1_555
O16 S7 1.499804 1_555
O17 S8 1.496937 1_555
O18 S8 1.484432 1_555
O19 S6 1.469573 1_555
O20 S7 1.487811 1_555
O21 S5 1.473317 1_555
O22 Si2 1.645526 1_555
O23 S4 1.476052 1_555
O24 S9 1.480080 1_555
O25 S10 1.463701 1_555
O26 S11 1.481114 1_555
O27 S12 1.491016 1_555
O28 S13 1.493858 1_555
O29 S14 1.487633 1_555
O30 S14 1.485331 1_555
O31 S12 1.494229 1_555
O32 S13 1.489943 1_555
O33 S10 1.490076 1_555
O34 S11 1.500706 1_555
O35 S9 1.490767 1_555
O36 S14 1.498825 1_555
O37 S12 1.492516 1_555
O38 S13 1.476399 1_555
O39 S10 1.498780 1_555
O40 S11 1.480677 1_545
O41 S9 1.500110 1_555
O42 S4 1.494068 1_455
O43 S5 1.491282 1_555
O44 Si2 1.662059 1_555
O45 S6 1.492224 1_555
O46 S7 1.474784 1_555
O47 S8 1.493638 1_555
O48 Si1 1.661932 1_555
O49 S2 1.490961 1_555
O50 S3 1.494592 1_655
O51 S0 1.496567 1_555
O52 S1 1.497754 1_555
O53 Si0 1.668787 1_555
O54 S9 1.485697 1_555
O55 S10 1.508974 1_655
O56 S11 1.502939 1_545
O57 S12 1.479746 1_545
O58 S13 1.502534 1_555
O59 S14 1.491627 1_655
O60 S8 1.483587 1_555
O61 S6 1.506815 1_455
O62 S7 1.503458 1_565
O63 S5 1.494071 1_565
O64 Si2 1.669373 1_555
O65 S4 1.492829 1_455
O66 Si0 1.667653 1_565
O67 S0 1.499455 1_555
O68 S1 1.500576 1_455
O69 S2 1.492069 1_555
O70 S3 1.489677 1_555
O71 Si1 1.663525 1_565
