# generated using pymatgen
data_BaMgMn2O5
_symmetry_space_group_name_H-M   'P 1'
_cell_length_a   3.89558501
_cell_length_b   4.14930500
_cell_length_c   7.32968254
_cell_angle_alpha   90.00000000
_cell_angle_beta   105.40451146
_cell_angle_gamma   90.00000000
_symmetry_Int_Tables_number   1
_chemical_formula_structural   BaMgMn2O5
_chemical_formula_sum   'Ba1 Mg1 Mn2 O5'
_cell_volume   114.22043294
_cell_formula_units_Z   1
loop_
 _symmetry_equiv_pos_site_id
 _symmetry_equiv_pos_as_xyz
  1  'x, y, z'
loop_
 _atom_site_type_symbol
 _atom_site_label
 _atom_site_symmetry_multiplicity
 _atom_site_fract_x
 _atom_site_fract_y
 _atom_site_fract_z
 _atom_site_occupancy
  Ba  Ba0  1  0.96520700  0.00000000  0.94541900  1
  Mg  Mg0  1  0.20230000  0.00000000  0.41859100  1
  Mn  Mn0  1  0.63486500  0.50000000  0.28371200  1
  Mn  Mn1  1  0.34474200  0.50000000  0.70429800  1
  O  O0  1  0.48525000  0.50000000  0.98574000  1
  O  O1  1  0.83156700  0.50000000  0.67792300  1
  O  O2  1  0.18253800  0.50000000  0.37906400  1
  O  O3  1  0.64205500  0.00000000  0.29791600  1
  O  O4  1  0.33897600  0.00000000  0.69275500  1
loop_
_geom_bond_atom_site_label_1
_geom_bond_atom_site_label_2
_geom_bond_distance
_geom_bond_site_symmetry_2
Ba0 O4 2.642130 1_555
Ba0 O4 2.642414 1_655
Ba0 O1 2.806622 1_555
Ba0 O1 2.806622 1_545
Ba0 O0 2.859651 1_645
Ba0 O0 2.859651 1_655
Ba0 O0 2.860230 1_555
Ba0 O0 2.860230 1_545
Ba0 O3 3.160404 1_556
Ba0 O3 3.163626 1_656
Ba0 Mg0 3.343605 1_656
Mg0 O4 1.937342 1_555
Mg0 O2 2.093370 1_555
Mg0 O2 2.093370 1_545
Mg0 O3 2.126034 1_455
Mg0 O3 2.126518 1_555
Mn0 O2 2.060981 1_555
Mn0 O2 2.061102 1_655
Mn0 O3 2.077079 1_555
Mn0 O3 2.077079 1_565
Mn0 O0 2.105579 1_554
Mn0 O1 2.785637 1_555
Mn1 O1 1.956661 1_455
Mn1 O1 1.956717 1_555
Mn1 O0 1.988771 1_555
Mn1 O4 2.076255 1_555
Mn1 O4 2.076255 1_565
Mn1 O2 2.298221 1_555
