# generated using pymatgen
data_Na5Y3Sn(PO4)6
_symmetry_space_group_name_H-M   'P 1'
_cell_length_a   9.19528005
_cell_length_b   9.18855636
_cell_length_c   23.39052946
_cell_angle_alpha   89.95434479
_cell_angle_beta   89.94381079
_cell_angle_gamma   120.03025641
_symmetry_Int_Tables_number   1
_chemical_formula_structural   Na5Y3Sn(PO4)6
_chemical_formula_sum   'Na15 Y9 Sn3 P18 O72'
_cell_volume   1710.99897237
_cell_formula_units_Z   3
loop_
 _symmetry_equiv_pos_site_id
 _symmetry_equiv_pos_as_xyz
  1  'x, y, z'
loop_
 _atom_site_type_symbol
 _atom_site_label
 _atom_site_symmetry_multiplicity
 _atom_site_fract_x
 _atom_site_fract_y
 _atom_site_fract_z
 _atom_site_occupancy
  Na  Na0  1  0.63809054  -0.00005834  0.25408376  1
  Na  Na1  1  0.36234899  0.36306083  0.25504383  1
  Na  Na2  1  0.99944877  0.63742273  0.25420225  1
  Na  Na3  1  0.64284282  0.64047500  0.75111463  1
  Na  Na4  1  0.99809653  0.36024803  0.75143123  1
  Na  Na5  1  0.03278704  0.69992641  0.58039028  1
  Na  Na6  1  0.66450554  0.96620785  0.58017731  1
  Na  Na7  1  0.66452001  0.69882623  0.08043064  1
  Na  Na8  1  0.03326404  0.33245529  0.08042862  1
  Na  Na9  1  0.01099403  0.01127828  0.49546415  1
  Na  Na10  1  0.01125696  0.99964866  0.99475262  1
  Na  Na11  1  0.65616458  0.32223788  0.83697778  1
  Na  Na12  1  0.66644419  0.33320673  0.34271024  1
  Na  Na13  1  0.33322610  0.67710973  0.16663642  1
  Na  Na14  1  0.33362181  0.66676925  0.66623768  1
  Y  Y0  1  0.99825732  0.99868273  0.35566141  1
  Y  Y1  1  0.00170582  0.99943770  0.85392842  1
  Y  Y2  1  0.01130009  0.00841727  0.65031038  1
  Y  Y3  1  0.00803555  0.99936134  0.14705248  1
  Y  Y4  1  0.65508627  0.32520369  0.68485709  1
  Y  Y5  1  0.66250908  0.32943439  0.18196613  1
  Y  Y6  1  0.33288102  0.67373792  0.01436289  1
  Y  Y7  1  0.33253946  0.65788026  0.51409552  1
  Y  Y8  1  0.33333624  0.66590066  0.32560891  1
  Sn  Sn0  1  0.66424255  0.33104050  0.97876452  1
  Sn  Sn1  1  0.66379003  0.33342812  0.48207802  1
  Sn  Sn2  1  0.33343738  0.67278839  0.82156072  1
  P  P0  1  0.29664284  0.99656180  0.25104246  1
  P  P1  1  0.70069969  0.70347569  0.24839196  1
  P  P2  1  0.00269444  0.29928457  0.24851014  1
  P  P3  1  0.29775081  0.30978524  0.75417600  1
  P  P4  1  0.00872133  0.70209787  0.75101005  1
  P  P5  1  0.69597643  0.99111259  0.75153784  1
  P  P6  1  0.95361072  0.33190125  0.58297257  1
  P  P7  1  0.37346711  0.03969307  0.57990406  1
  P  P8  1  0.66936606  0.62770800  0.58325264  1
  P  P9  1  0.95402703  0.62139790  0.08078874  1
  P  P10  1  0.66880085  0.04151115  0.08137812  1
  P  P11  1  0.37468835  0.33393075  0.08011423  1
  P  P12  1  0.62606406  0.65665001  0.91745589  1
  P  P13  1  0.03012383  0.37320527  0.91775959  1
  P  P14  1  0.34338600  0.97089396  0.91664703  1
  P  P15  1  0.63563875  0.97927443  0.41962123  1
  P  P16  1  0.34323485  0.36257877  0.41711229  1
  P  P17  1  0.02100717  0.65681579  0.41977666  1
  O  O0  1  0.21261314  0.02605163  0.30234966  1
  O  O1  1  0.81700530  0.79115393  0.29891874  1
  O  O2  1  0.97462631  0.18294547  0.29908903  1
  O  O3  1  0.21349958  0.19860431  0.80539973  1
  O  O4  1  0.97636616  0.78850760  0.80089161  1
  O  O5  1  0.81380832  0.01998639  0.80145760  1
  O  O6  1  0.76773745  0.95727641  0.69581066  1
  O  O7  1  0.18932265  0.23527602  0.69975864  1
  O  O8  1  0.03633077  0.80183659  0.69472488  1
  O  O9  1  0.77719225  0.80536587  0.19242346  1
  O  O10  1  0.02874890  0.22314953  0.19264433  1
  O  O11  1  0.19003361  0.96868255  0.19669414  1
  O  O12  1  0.87791229  0.35678040  0.63855306  1
  O  O13  1  0.47967527  0.11826654  0.63365353  1
  O  O14  1  0.64721700  0.52995761  0.63901171  1
  O  O15  1  0.88032924  0.52365926  0.13702821  1
  O  O16  1  0.64708064  0.11482324  0.13770245  1
  O  O17  1  0.47281638  0.35814078  0.13615375  1
  O  O18  1  0.46774248  0.31236942  0.02837668  1
  O  O19  1  0.83478277  0.52897641  0.02946074  1
  O  O20  1  0.69435505  0.16047224  0.02996925  1
  O  O21  1  0.46050982  0.15102148  0.52689791  1
  O  O22  1  0.69568883  0.53648295  0.53136661  1
  O  O23  1  0.83542962  0.30363666  0.53111355  1
  O  O24  1  0.54534813  0.67795558  0.97160711  1
  O  O25  1  0.13236224  0.45387217  0.97183462  1
  O  O26  1  0.32006437  0.86673130  0.96978561  1
  O  O27  1  0.54818315  0.87119584  0.47252176  1
  O  O28  1  0.32199060  0.45459093  0.46783800  1
  O  O29  1  0.12868141  0.67724397  0.47263251  1
  O  O30  1  0.10033207  0.63242414  0.36419130  1
  O  O31  1  0.53252237  0.89896304  0.36407386  1
  O  O32  1  0.36792890  0.46247583  0.36055326  1
  O  O33  1  0.11654131  0.48507422  0.86274671  1
  O  O34  1  0.37152883  0.88647085  0.86230198  1
  O  O35  1  0.51502875  0.63288657  0.86247929  1
  O  O36  1  0.00109555  0.81217493  0.41510055  1
  O  O37  1  0.81094457  0.99899218  0.41507725  1
  O  O38  1  0.18776609  0.18725321  0.41406531  1
  O  O39  1  0.00919387  0.19841616  0.91134645  1
  O  O40  1  0.18968070  0.99163319  0.91078971  1
  O  O41  1  0.80109209  0.81072617  0.91122215  1
  O  O42  1  0.96396314  0.16873327  0.58638978  1
  O  O43  1  0.19431766  0.01463049  0.58444064  1
  O  O44  1  0.83358048  0.80321873  0.58593040  1
  O  O45  1  0.96399322  0.79445231  0.08303852  1
  O  O46  1  0.83281546  0.03059838  0.08324858  1
  O  O47  1  0.19484613  0.18063929  0.08230441  1
  O  O48  1  0.68054438  0.15026794  0.74648320  1
  O  O49  1  0.47940210  0.34354470  0.74795836  1
  O  O50  1  0.85160715  0.52234293  0.74627864  1
  O  O51  1  0.67949330  0.52463033  0.24487228  1
  O  O52  1  0.84477852  0.31987430  0.24497171  1
  O  O53  1  0.47460167  0.15456031  0.24593569  1
  O  O54  1  0.63835996  0.49221278  0.92097132  1
  O  O55  1  0.85336180  0.36095915  0.92150738  1
  O  O56  1  0.50774166  0.14727929  0.92089069  1
  O  O57  1  0.64870061  0.15528056  0.42403315  1
  O  O58  1  0.50724477  0.35250691  0.42330194  1
  O  O59  1  0.84511446  0.49334799  0.42459179  1
  O  O60  1  0.35986178  0.49496982  0.07600959  1
  O  O61  1  0.12632037  0.63259727  0.07576491  1
  O  O62  1  0.51876557  0.86102150  0.07698241  1
  O  O63  1  0.35659607  0.86288802  0.57580289  1
  O  O64  1  0.51915747  0.65774026  0.57768995  1
  O  O65  1  0.12634450  0.49285086  0.57683261  1
  O  O66  1  0.31598215  0.83802307  0.25615442  1
  O  O67  1  0.52414340  0.68650715  0.25480925  1
  O  O68  1  0.16158309  0.47680301  0.25473812  1
  O  O69  1  0.31080052  0.48899271  0.76050069  1
  O  O70  1  0.16586535  0.67758882  0.75955361  1
  O  O71  1  0.52033934  0.82506062  0.75994830  1
loop_
_geom_bond_atom_site_label_1
_geom_bond_atom_site_label_2
_geom_bond_distance
_geom_bond_site_symmetry_2
Na0 O67 2.524303 1_545
Na0 O53 2.540208 1_555
Na0 O66 2.564664 1_545
Na0 O52 2.589495 1_555
Na0 O31 2.740789 1_545
Na0 O2 2.883191 1_555
Na0 O16 2.905037 1_555
Na0 O9 3.033491 1_545
Na1 O51 2.535690 1_555
Na1 O68 2.536061 1_555
Na1 O67 2.573044 1_555
Na1 O53 2.600135 1_555
Na1 O32 2.623860 1_555
Na1 O0 2.904004 1_555
Na1 O17 2.967809 1_555
Na1 O10 3.042606 1_555
Na2 O52 2.535940 1_555
Na2 O66 2.549864 1_655
Na2 O68 2.569701 1_655
Na2 O51 2.593694 1_555
Na2 O30 2.743826 1_655
Na2 O1 2.876557 1_555
Na2 O15 2.944260 1_555
Na2 O11 2.965652 1_655
Na3 O49 2.367370 1_555
Na3 O71 2.469952 1_555
Na3 O50 2.638456 1_555
Na3 O69 2.655613 1_555
Na3 O14 2.820181 1_555
Na3 O35 2.843103 1_555
Na3 O6 2.847961 1_555
Na3 O4 2.906108 1_555
Na4 O50 2.460784 1_555
Na4 O69 2.511836 1_655
Na4 O70 2.533276 1_655
Na4 O48 2.573779 1_555
Na4 O7 2.808986 1_655
Na4 O33 2.835689 1_655
Na4 O12 2.857274 1_555
Na4 O5 2.950124 1_555
Na5 O65 2.450690 1_555
Na5 O44 2.452101 1_455
Na5 O43 2.505726 1_565
Na5 O63 2.579888 1_555
Na5 O29 2.711894 1_555
Na5 O8 2.829076 1_555
Na5 O22 2.920416 1_455
Na5 O12 3.052124 1_455
Na6 O42 2.436952 1_565
Na6 O64 2.456032 1_555
Na6 O63 2.497683 1_555
Na6 O44 2.647388 1_555
Na6 O27 2.705792 1_555
Na6 O6 2.882013 1_555
Na6 O23 2.917806 1_565
Na6 O13 2.963226 1_565
Na7 O45 2.436687 1_555
Na7 O62 2.454216 1_555
Na7 O60 2.473040 1_555
Na7 O46 2.640291 1_565
Na7 O24 2.740943 1_554
Na7 O9 2.808583 1_555
Na7 O19 2.958577 1_555
Na7 O17 3.011876 1_555
Na8 O46 2.444827 1_455
Na8 O61 2.446890 1_555
Na8 O47 2.495998 1_555
Na8 O60 2.601925 1_555
Na8 O25 2.738681 1_554
Na8 O10 2.802465 1_555
Na8 O20 2.946693 1_455
Na8 O15 3.047944 1_455
Na9 O38 2.498014 1_555
Na9 O36 2.593810 1_545
Na9 O37 2.594477 1_445
Na9 O43 2.670021 1_555
Na9 O42 2.726322 1_455
Na9 O44 2.767495 1_445
Na10 O40 2.582457 1_555
Na10 O47 2.647936 1_566
Na10 O39 2.677907 1_565
Na10 O45 2.679578 1_456
Na10 O41 2.687105 1_455
Na10 O46 2.742126 1_466
Na11 O56 2.468439 1_555
Na11 O54 2.566350 1_555
Na11 O55 2.585785 1_555
Na11 O49 2.709297 1_555
Na11 O48 2.717829 1_555
Na11 O50 2.791084 1_555
Na12 O58 2.445998 1_555
Na12 O57 2.458704 1_555
Na12 O59 2.474581 1_555
Na12 O53 2.836499 1_555
Na12 O52 2.850393 1_555
Na12 O51 2.850807 1_555
Na13 O66 2.614294 1_555
Na13 O67 2.683013 1_555
Na13 O68 2.684264 1_555
Na13 O62 2.695494 1_555
Na13 O61 2.745058 1_555
Na13 O60 2.787371 1_555
Na13 O11 3.596909 1_555
Na14 O69 2.687760 1_555
Na14 O70 2.702010 1_555
Na14 O64 2.709666 1_555
Na14 O63 2.716355 1_555
Na14 O71 2.716776 1_555
Na14 O65 2.743042 1_555
Na14 O7 3.580839 1_555
O0 P0 1.522814 1_545
O0 Y0 2.236482 1_445
O1 P1 1.526819 1_555
O1 Y0 2.236713 1_555
O2 P2 1.526509 1_655
O2 Y0 2.242783 1_545
O3 P3 1.511112 1_555
O3 Y1 2.203498 1_545
O4 P4 1.522325 1_655
O4 Y1 2.214061 1_655
O5 P5 1.524143 1_545
O5 Y1 2.203966 1_645
O6 P5 1.560597 1_555
O6 Y2 2.304467 1_665
O7 P3 1.550352 1_555
O7 Y2 2.225930 1_555
O8 P4 1.549891 1_555
O8 Y2 2.273751 1_565
O9 P1 1.556342 1_555
O9 Y3 2.239372 1_655
O10 P2 1.556580 1_555
O10 Y3 2.239138 1_545
O11 P0 1.547341 1_555
O11 Y3 2.168842 1_555
O12 P6 1.544308 1_555
O12 Y4 2.203528 1_555
O13 P7 1.534199 1_555
O13 Y4 2.142250 1_555
O14 P8 1.537452 1_555
O14 Y4 2.197272 1_555
O15 P9 1.543845 1_555
O15 Y5 2.171776 1_555
O16 P10 1.537830 1_555
O16 Y5 2.168930 1_555
O17 P11 1.543929 1_555
O17 Y5 2.173495 1_555
O18 P11 1.550464 1_555
O18 Sn0 2.079947 1_554
O19 P9 1.561110 1_555
O19 Sn0 2.079786 1_554
O20 P10 1.560854 1_555
O20 Sn0 2.097510 1_554
O21 P7 1.549444 1_555
O21 Sn1 2.063922 1_555
O22 P8 1.561491 1_555
O22 Sn1 2.086299 1_555
O23 P6 1.562171 1_555
O23 Sn1 2.077715 1_555
O24 P12 1.528895 1_555
O24 Y6 2.176903 1_556
O25 P13 1.529510 1_555
O25 Y6 2.179232 1_556
O26 P14 1.516272 1_555
O26 Y6 2.110038 1_556
O27 P15 1.536474 1_555
O27 Y7 2.195994 1_555
O28 P16 1.525516 1_555
O28 Y7 2.119283 1_555
O29 P17 1.536482 1_555
O29 Y7 2.196188 1_555
O30 P17 1.560434 1_555
O30 Y8 2.199010 1_555
O31 P15 1.560560 1_555
O31 Y8 2.197860 1_555
O32 P16 1.559859 1_555
O32 Y8 2.203699 1_555
O33 P13 1.588137 1_555
O33 Sn2 2.105043 1_555
O34 P14 1.576838 1_555
O34 Sn2 2.049678 1_555
O35 P12 1.588591 1_555
O35 Sn2 2.110450 1_555
O36 P17 1.531247 1_555
O36 Y0 2.216210 1_455
O37 P15 1.532949 1_555
O37 Y0 2.213214 1_555
O38 P16 1.529477 1_555
O38 Y0 2.211643 1_445
O39 P13 1.526444 1_555
O39 Y1 2.242622 1_545
O40 P14 1.524008 1_555
O40 Y1 2.211370 1_555
O41 P12 1.527887 1_555
O41 Y1 2.235042 1_655
O42 P6 1.551116 1_555
O42 Y2 2.287879 1_655
O43 P7 1.548514 1_555
O43 Y2 2.260057 1_555
O44 P8 1.564528 1_555
O44 Y2 2.327784 1_665
O45 P9 1.547235 1_555
O45 Y3 2.278917 1_655
O46 P10 1.561411 1_555
O46 Y3 2.317871 1_645
O47 P11 1.545834 1_555
O47 Y3 2.268464 1_545
O48 P5 1.542795 1_545
O48 Y4 2.256099 1_555
O49 P3 1.545390 1_555
O49 Y4 2.254959 1_555
O50 P4 1.561960 1_655
O50 Y4 2.311641 1_555
O51 P1 1.557191 1_555
O51 Y5 2.265085 1_555
O52 P2 1.557679 1_655
O52 Y5 2.267299 1_555
O53 P0 1.556013 1_545
O53 Y5 2.240192 1_555
O54 P12 1.572672 1_555
O54 Sn0 2.104151 1_555
O55 P13 1.574433 1_655
O55 Sn0 2.099931 1_555
O56 P14 1.571476 1_545
O56 Sn0 2.080824 1_555
O57 P15 1.564103 1_545
O57 Sn1 2.078144 1_555
O58 P16 1.563345 1_555
O58 Sn1 2.061308 1_555
O59 P17 1.566047 1_655
O59 Sn1 2.070614 1_555
O60 P11 1.555341 1_555
O60 Y6 2.289934 1_555
O61 P9 1.539738 1_455
O61 Y6 2.255752 1_555
O62 P10 1.541033 1_565
O62 Y6 2.256798 1_555
O63 P7 1.555814 1_565
O63 Y7 2.295332 1_555
O64 P8 1.543572 1_555
O64 Y7 2.272568 1_555
O65 P6 1.542287 1_455
O65 Y7 2.271784 1_555
O66 P0 1.557906 1_555
O66 Y8 2.327028 1_555
O67 P1 1.558419 1_555
O67 Y8 2.349037 1_555
O68 P2 1.559459 1_555
O68 Y8 2.350395 1_555
O69 P3 1.597003 1_555
O69 Sn2 2.141923 1_555
O70 P4 1.582667 1_555
O70 Sn2 2.133575 1_555
O71 P5 1.583506 1_555
O71 Sn2 2.138529 1_555
