# generated using pymatgen
data_ZrPb3F10
_symmetry_space_group_name_H-M   'P 1'
_cell_length_a   8.25996798
_cell_length_b   8.25996798
_cell_length_c   6.01292982
_cell_angle_alpha   90.00000000
_cell_angle_beta   90.00000000
_cell_angle_gamma   100.79430538
_symmetry_Int_Tables_number   1
_chemical_formula_structural   ZrPb3F10
_chemical_formula_sum   'Zr2 Pb6 F20'
_cell_volume   402.98566908
_cell_formula_units_Z   2
loop_
 _symmetry_equiv_pos_site_id
 _symmetry_equiv_pos_as_xyz
  1  'x, y, z'
loop_
 _atom_site_type_symbol
 _atom_site_label
 _atom_site_symmetry_multiplicity
 _atom_site_fract_x
 _atom_site_fract_y
 _atom_site_fract_z
 _atom_site_occupancy
  Zr  Zr0  1  0.81789085  0.18210915  0.25000000  1
  Zr  Zr1  1  0.18210915  0.81789085  0.75000000  1
  Pb  Pb0  1  0.10879261  0.32114206  0.75000000  1
  Pb  Pb1  1  0.89120739  0.67885794  0.25000000  1
  Pb  Pb2  1  0.32114206  0.10879261  0.25000000  1
  Pb  Pb3  1  0.67885794  0.89120739  0.75000000  1
  Pb  Pb4  1  0.38869589  0.61130411  0.25000000  1
  Pb  Pb5  1  0.61130411  0.38869589  0.75000000  1
  F  F0  1  0.92246110  0.74241320  0.75000000  1
  F  F1  1  0.07753890  0.25758680  0.25000000  1
  F  F2  1  0.74241320  0.92246110  0.25000000  1
  F  F3  1  0.25758680  0.07753890  0.75000000  1
  F  F4  1  0.89858630  0.10141370  0.54585717  1
  F  F5  1  0.10141370  0.89858630  0.04585717  1
  F  F6  1  0.10141370  0.89858630  0.45414283  1
  F  F7  1  0.89858630  0.10141370  0.95414283  1
  F  F8  1  0.63620790  0.63620790  0.00000000  1
  F  F9  1  0.36379210  0.36379210  0.50000000  1
  F  F10  1  0.36379210  0.36379210  0.00000000  1
  F  F11  1  0.63620790  0.63620790  0.50000000  1
  F  F12  1  0.39550126  0.84685163  0.96076163  1
  F  F13  1  0.60449874  0.15314837  0.46076163  1
  F  F14  1  0.84685163  0.39550126  0.03923837  1
  F  F15  1  0.15314837  0.60449874  0.53923837  1
  F  F16  1  0.60449874  0.15314837  0.03923837  1
  F  F17  1  0.39550126  0.84685163  0.53923837  1
  F  F18  1  0.15314837  0.60449874  0.96076163  1
  F  F19  1  0.84685163  0.39550126  0.46076163  1
loop_
_geom_bond_atom_site_label_1
_geom_bond_atom_site_label_2
_geom_bond_distance
_geom_bond_site_symmetry_2
F0 Zr1 2.118378 1_655
F0 F6 2.509876 1_655
F0 F5 2.509876 1_656
F0 Pb3 2.546684 1_555
F0 F15 2.710648 1_655
F0 F18 2.710648 1_655
F0 F11 2.800524 1_555
F0 F8 2.800524 1_556
F0 Pb1 3.054554 1_556
F0 Pb1 3.054554 1_555
F1 Zr0 2.118378 1_455
F1 F4 2.509876 1_455
F1 F7 2.509876 1_454
F1 Pb2 2.546684 1_555
F1 F14 2.710648 1_455
F1 F19 2.710648 1_455
F1 F9 2.800524 1_555
F1 F10 2.800524 1_555
F1 Pb0 3.054554 1_554
F1 Pb0 3.054554 1_555
F2 Zr0 2.118378 1_565
F2 F4 2.509876 1_565
F2 F7 2.509876 1_564
F2 Pb1 2.546684 1_555
F2 F8 2.800524 1_555
F2 Pb3 3.054554 1_555
F2 Pb3 3.054554 1_554
F3 Zr1 2.118378 1_545
F3 F6 2.509876 1_545
F3 F5 2.509876 1_546
F3 Pb0 2.546684 1_555
F3 F9 2.800524 1_555
F3 Pb2 3.054554 1_555
F3 Pb2 3.054554 1_556
F4 Zr0 2.054190 1_555
F4 F7 2.454993 1_555
F4 Pb3 2.575878 1_545
F4 Pb0 2.575878 1_655
F4 F6 2.639893 1_645
F5 Zr1 2.054190 1_554
F5 F6 2.454993 1_555
F5 Pb1 2.575878 1_455
F5 Pb2 2.575878 1_565
F5 F7 2.639893 1_464
F6 Zr1 2.054190 1_555
F6 Pb1 2.575878 1_455
F6 Pb2 2.575878 1_565
F7 Zr0 2.054190 1_556
F7 Pb3 2.575878 1_545
F7 Pb0 2.575878 1_655
F8 Pb5 2.514804 1_554
F8 Pb4 2.514804 1_555
F8 Pb1 2.557797 1_555
F8 Pb3 2.557797 1_554
F9 Pb5 2.514804 1_555
F9 Pb4 2.514804 1_555
F9 Pb2 2.557797 1_555
F9 Pb0 2.557797 1_555
F10 Pb5 2.514804 1_554
F10 Pb4 2.514804 1_555
F10 Pb2 2.557797 1_555
F10 Pb0 2.557797 1_554
F10 F3 2.800524 1_554
F10 F8 2.868766 1_555
F10 F16 2.886480 1_555
F10 F18 2.886480 1_554
F10 F9 3.006465 1_554
F10 F9 3.006465 1_555
F11 Pb5 2.514804 1_555
F11 Pb4 2.514804 1_555
F11 Pb1 2.557797 1_555
F11 Pb3 2.557797 1_555
F11 F2 2.800524 1_555
F11 F9 2.868766 1_555
F11 F17 2.886480 1_555
F11 F19 2.886480 1_555
F11 F8 3.006465 1_556
F11 F8 3.006465 1_555
F12 Zr1 2.147586 1_555
F12 F17 2.534590 1_555
F12 F18 2.552179 1_555
F12 F5 2.595000 1_556
F12 Pb4 2.602369 1_556
F12 Pb3 2.626232 1_555
F12 F3 2.710648 1_565
F12 F16 2.822725 1_566
F12 F8 2.886480 1_556
F12 Pb2 2.929333 1_566
F13 Zr0 2.147586 1_555
F13 F16 2.534590 1_555
F13 F19 2.552179 1_555
F13 F4 2.595000 1_555
F13 Pb5 2.602369 1_555
F13 Pb2 2.626232 1_555
F13 F2 2.710648 1_545
F13 F17 2.822725 1_545
F13 F9 2.886480 1_555
F13 Pb3 2.929333 1_545
F14 Zr0 2.147586 1_555
F14 F19 2.534590 1_555
F14 F16 2.552179 1_555
F14 F7 2.595000 1_554
F14 Pb5 2.602369 1_554
F14 Pb1 2.626232 1_555
F14 F18 2.822725 1_654
F14 F8 2.886480 1_555
F14 Pb0 2.929333 1_654
F15 Zr1 2.147586 1_555
F15 F18 2.534590 1_555
F15 F17 2.552179 1_555
F15 F6 2.595000 1_555
F15 Pb4 2.602369 1_555
F15 Pb0 2.626232 1_555
F15 F19 2.822725 1_455
F15 F9 2.886480 1_555
F15 Pb1 2.929333 1_455
F16 Zr0 2.147586 1_555
F16 F7 2.595000 1_554
F16 Pb5 2.602369 1_554
F16 Pb2 2.626232 1_555
F16 F2 2.710648 1_545
F16 Pb3 2.929333 1_544
F17 Zr1 2.147586 1_555
F17 F6 2.595000 1_555
F17 Pb4 2.602369 1_555
F17 Pb3 2.626232 1_555
F17 F3 2.710648 1_565
F17 Pb2 2.929333 1_565
F18 Zr1 2.147586 1_555
F18 F5 2.595000 1_556
F18 Pb4 2.602369 1_556
F18 Pb0 2.626232 1_555
F18 Pb1 2.929333 1_456
F19 Zr0 2.147586 1_555
F19 F4 2.595000 1_555
F19 Pb5 2.602369 1_555
F19 Pb1 2.626232 1_555
F19 Pb0 2.929333 1_655
