# generated using pymatgen
data_Na7Al2Si3Sn2(PO8)3
_symmetry_space_group_name_H-M   'P 1'
_cell_length_a   8.90400424
_cell_length_b   8.86708971
_cell_length_c   21.95215043
_cell_angle_alpha   89.60986994
_cell_angle_beta   89.95579322
_cell_angle_gamma   119.91800623
_symmetry_Int_Tables_number   1
_chemical_formula_structural   Na7Al2Si3Sn2(PO8)3
_chemical_formula_sum   'Na21 Al6 Si9 Sn6 P9 O72'
_cell_volume   1502.16384713
_cell_formula_units_Z   3
loop_
 _symmetry_equiv_pos_site_id
 _symmetry_equiv_pos_as_xyz
  1  'x, y, z'
loop_
 _atom_site_type_symbol
 _atom_site_label
 _atom_site_symmetry_multiplicity
 _atom_site_fract_x
 _atom_site_fract_y
 _atom_site_fract_z
 _atom_site_occupancy
  Na  Na0  1  0.63532094  0.00319558  0.25204025  1
  Na  Na1  1  0.36492277  0.36762924  0.24750926  1
  Na  Na2  1  0.99957395  0.62934664  0.24964083  1
  Na  Na3  1  0.63189112  0.63572208  0.74985451  1
  Na  Na4  1  0.99636193  0.36419004  0.74932156  1
  Na  Na5  1  0.37138108  0.00082487  0.74833090  1
  Na  Na6  1  0.03372858  0.69884331  0.58264248  1
  Na  Na7  1  0.66583255  0.97061375  0.58244272  1
  Na  Na8  1  0.66418752  0.69254635  0.08193960  1
  Na  Na9  1  0.03417083  0.33517752  0.08516951  1
  Na  Na10  1  0.96287906  0.66589777  0.91871013  1
  Na  Na11  1  0.70139033  0.03099874  0.91663841  1
  Na  Na12  1  0.33804381  0.30235605  0.91816090  1
  Na  Na13  1  0.96485712  0.29994055  0.41647246  1
  Na  Na14  1  0.33422965  0.02807387  0.41892776  1
  Na  Na15  1  0.99941689  0.99985895  0.50034906  1
  Na  Na16  1  0.00757237  0.99687574  0.99952931  1
  Na  Na17  1  0.66627148  0.33307477  0.83349279  1
  Na  Na18  1  0.67181314  0.33924961  0.33293658  1
  Na  Na19  1  0.32795737  0.66770541  0.16678142  1
  Na  Na20  1  0.33378229  0.66246086  0.66685393  1
  Al  Al0  1  0.99247281  0.99849602  0.85052179  1
  Al  Al1  1  0.66925450  0.32440093  0.68379145  1
  Al  Al2  1  0.67301528  0.33657474  0.18222750  1
  Al  Al3  1  0.66445921  0.34462078  0.98356188  1
  Al  Al4  1  0.32649731  0.66355388  0.31665087  1
  Al  Al5  1  0.34211727  0.66930360  0.81635961  1
  Si  Si0  1  0.99988583  0.30256160  0.24917828  1
  Si  Si1  1  0.70375041  0.00028334  0.75286628  1
  Si  Si2  1  0.95730511  0.33430573  0.58576143  1
  Si  Si3  1  0.37700623  0.04810349  0.58602447  1
  Si  Si4  1  0.95173717  0.61811808  0.08266755  1
  Si  Si5  1  0.38530064  0.32906369  0.08310886  1
  Si  Si6  1  0.63008315  0.66689593  0.91410566  1
  Si  Si7  1  0.61940451  0.94940474  0.41407672  1
  Si  Si8  1  0.04239950  0.66642819  0.41433769  1
  Sn  Sn0  1  0.99172101  0.99519700  0.35208947  1
  Sn  Sn1  1  0.00225071  0.00530888  0.64946378  1
  Sn  Sn2  1  0.00779937  0.00248721  0.14584879  1
  Sn  Sn3  1  0.66557273  0.33243811  0.47979032  1
  Sn  Sn4  1  0.33565626  0.67028530  0.01937296  1
  Sn  Sn5  1  0.33314848  0.66632103  0.52038759  1
  P  P0  1  0.29950293  -0.00018773  0.25040277  1
  P  P1  1  0.70033211  0.70042283  0.24892119  1
  P  P2  1  0.29234010  0.29439673  0.75403441  1
  P  P3  1  0.00087518  0.70678476  0.75344185  1
  P  P4  1  0.66383458  0.61472090  0.58751583  1
  P  P5  1  0.66294538  0.05331169  0.08286110  1
  P  P6  1  0.04191441  0.37315513  0.91383155  1
  P  P7  1  0.33224959  0.95896172  0.91321086  1
  P  P8  1  0.33690043  0.38293051  0.41346357  1
  O  O0  1  0.22137247  0.04179698  0.30705975  1
  O  O1  1  0.82680525  0.77990308  0.30315407  1
  O  O2  1  0.95487020  0.17291880  0.30853576  1
  O  O3  1  0.20431804  0.16991745  0.80867494  1
  O  O4  1  0.97214384  0.80031749  0.80734387  1
  O  O5  1  0.83756382  0.03865414  0.80893011  1
  O  O6  1  0.77905040  0.94947252  0.69209055  1
  O  O7  1  0.17661308  0.21992381  0.69662919  1
  O  O8  1  0.04421972  0.82125026  0.69441067  1
  O  O9  1  0.77917630  0.82145228  0.19190339  1
  O  O10  1  0.04465516  0.21669866  0.19043634  1
  O  O11  1  0.17251246  0.95297055  0.19629620  1
  O  O12  1  0.86819524  0.37032713  0.64420901  1
  O  O13  1  0.49970319  0.13941069  0.64414719  1
  O  O14  1  0.64290815  0.50552572  0.64451866  1
  O  O15  1  0.86831693  0.50075582  0.14361542  1
  O  O16  1  0.64208901  0.13476173  0.14142738  1
  O  O17  1  0.50208907  0.36124065  0.14368068  1
  O  O18  1  0.46920111  0.30493560  0.02131923  1
  O  O19  1  0.83698821  0.53259050  0.02187190  1
  O  O20  1  0.69315375  0.16421940  0.02496901  1
  O  O21  1  0.44803134  0.15456534  0.52169196  1
  O  O22  1  0.70186224  0.54405574  0.52883675  1
  O  O23  1  0.84366617  0.29508112  0.52318488  1
  O  O24  1  0.55513274  0.71775620  0.97536375  1
  O  O25  1  0.15390428  0.44689882  0.97263130  1
  O  O26  1  0.28554205  0.83950737  0.97078297  1
  O  O27  1  0.54799503  0.84402527  0.47851508  1
  O  O28  1  0.29628661  0.45336933  0.47155030  1
  O  O29  1  0.15539841  0.70597060  0.47708661  1
  O  O30  1  0.13260225  0.63195516  0.35619017  1
  O  O31  1  0.49696971  0.85635390  0.35601199  1
  O  O32  1  0.35893520  0.49176397  0.35644987  1
  O  O33  1  0.13103610  0.49832853  0.85944994  1
  O  O34  1  0.36217657  0.86860483  0.85831108  1
  O  O35  1  0.49642630  0.62914935  0.85812374  1
  O  O36  1  0.03534515  0.84758766  0.41041406  1
  O  O37  1  0.81959168  0.98699473  0.41331426  1
  O  O38  1  0.17384223  0.19667412  0.40960268  1
  O  O39  1  0.02780506  0.19170540  0.90719051  1
  O  O40  1  0.17155230  0.98308954  0.90589630  1
  O  O41  1  0.82508583  0.84058128  0.90674201  1
  O  O42  1  0.96682519  0.15481443  0.58858105  1
  O  O43  1  0.17604815  0.00814079  0.58951625  1
  O  O44  1  0.82881093  0.80009767  0.59053951  1
  O  O45  1  0.96081234  0.80880549  0.08704393  1
  O  O46  1  0.82761819  0.03062120  0.08663147  1
  O  O47  1  0.18326244  0.16620147  0.08456729  1
  O  O48  1  0.68782774  0.17720915  0.74475924  1
  O  O49  1  0.47451260  0.31524939  0.74614512  1
  O  O50  1  0.83350896  0.52825638  0.74661154  1
  O  O51  1  0.68151701  0.51842452  0.24247440  1
  O  O52  1  0.82257721  0.31437610  0.24211866  1
  O  O53  1  0.47846828  0.16436250  0.24165782  1
  O  O54  1  0.64725682  0.49062937  0.92150422  1
  O  O55  1  0.85881030  0.35103586  0.92118271  1
  O  O56  1  0.49971542  0.13722222  0.92065153  1
  O  O57  1  0.63391438  0.14358909  0.41628199  1
  O  O58  1  0.49706392  0.35948289  0.41770528  1
  O  O59  1  0.85101967  0.49213765  0.41847291  1
  O  O60  1  0.36449474  0.50739188  0.08029663  1
  O  O61  1  0.14535457  0.63653580  0.07872077  1
  O  O62  1  0.50441519  0.86569380  0.08024208  1
  O  O63  1  0.36451199  0.85510833  0.58342943  1
  O  O64  1  0.50432214  0.63996148  0.58293956  1
  O  O65  1  0.14876553  0.50872986  0.58172526  1
  O  O66  1  0.31814773  0.83656492  0.25735698  1
  O  O67  1  0.52232770  0.68719753  0.25741215  1
  O  O68  1  0.17681496  0.49180109  0.25677468  1
  O  O69  1  0.30686155  0.47625959  0.76041642  1
  O  O70  1  0.16178180  0.68314783  0.76070089  1
  O  O71  1  0.50881594  0.82662669  0.76002327  1
loop_
_geom_bond_atom_site_label_1
_geom_bond_atom_site_label_2
_geom_bond_distance
_geom_bond_site_symmetry_2
Na0 O52 2.417236 1_555
Na0 O66 2.450939 1_545
Na0 O53 2.455961 1_555
Na0 O67 2.461806 1_545
Na0 O31 2.603351 1_545
Na0 O16 2.674282 1_555
Na0 O2 2.767311 1_555
Na0 O9 2.840055 1_545
Na1 O68 2.429218 1_555
Na1 O51 2.446261 1_555
Na1 O67 2.467456 1_555
Na1 O53 2.471415 1_555
Na1 O17 2.599300 1_555
Na1 O32 2.650996 1_555
Na1 O10 2.777436 1_555
Na1 O0 2.819984 1_555
Na2 O68 2.433179 1_655
Na2 O52 2.434584 1_555
Na2 O51 2.497305 1_555
Na2 O66 2.501383 1_655
Na2 O15 2.606576 1_555
Na2 O30 2.617648 1_655
Na2 O11 2.742393 1_655
Na2 O1 2.756053 1_555
Na3 O50 2.417233 1_555
Na3 O71 2.443648 1_555
Na3 O49 2.465053 1_555
Na3 O69 2.518175 1_555
Na3 O14 2.615021 1_555
Na3 O35 2.651554 1_555
Na3 O6 2.716201 1_555
Na3 O4 2.919178 1_555
Na4 O48 2.401077 1_555
Na4 O69 2.440107 1_655
Na4 O70 2.466886 1_655
Na4 O50 2.515117 1_555
Na4 O12 2.587258 1_555
Na4 O33 2.705201 1_655
Na4 O7 2.759631 1_655
Na4 O5 2.813914 1_555
Na5 O71 2.414509 1_545
Na5 O48 2.448159 1_555
Na5 O49 2.462299 1_555
Na5 O70 2.497251 1_545
Na5 O13 2.569691 1_555
Na5 O34 2.659964 1_545
Na5 O8 2.797564 1_545
Na5 O3 2.909368 1_555
Na6 O65 2.369427 1_555
Na6 O43 2.385248 1_565
Na6 O44 2.408530 1_455
Na6 O29 2.544168 1_555
Na6 O63 2.554306 1_555
Na6 O8 2.672490 1_555
Na6 O22 2.827084 1_455
Na6 O12 2.853938 1_455
Na7 O42 2.346392 1_565
Na7 O63 2.346543 1_555
Na7 O27 2.535651 1_555
Na7 O64 2.541264 1_555
Na7 O44 2.570792 1_555
Na7 O6 2.651637 1_555
Na7 O23 2.806870 1_565
Na7 O13 2.914811 1_565
Na8 O45 2.310197 1_555
Na8 O60 2.334146 1_555
Na8 O62 2.561338 1_555
Na8 O24 2.584443 1_554
Na8 O46 2.601462 1_565
Na8 O9 2.656294 1_555
Na8 O17 2.874637 1_555
Na8 O19 2.883921 1_555
Na9 O61 2.344439 1_555
Na9 O46 2.391802 1_455
Na9 O47 2.447815 1_555
Na9 O60 2.551680 1_555
Na9 O10 2.552930 1_555
Na9 O25 2.670244 1_554
Na9 O15 2.857988 1_455
Na9 O20 2.950628 1_455
Na10 O41 2.421608 1_555
Na10 O54 2.441018 1_555
Na10 O55 2.464458 1_555
Na10 O40 2.493487 1_655
Na10 O19 2.533804 1_556
Na10 O4 2.695567 1_555
Na10 O26 2.747336 1_655
Na10 O33 2.895584 1_655
Na11 O56 2.409891 1_555
Na11 O41 2.443512 1_545
Na11 O55 2.462520 1_555
Na11 O39 2.526754 1_655
Na11 O5 2.641316 1_555
Na11 O20 2.679648 1_556
Na11 O24 2.722698 1_545
Na11 O34 2.920304 1_545
Na12 O54 2.406186 1_555
Na12 O39 2.439671 1_555
Na12 O40 2.471668 1_545
Na12 O56 2.514141 1_555
Na12 O18 2.543748 1_556
Na12 O3 2.687277 1_555
Na12 O25 2.806198 1_555
Na12 O35 2.826880 1_555
Na13 O59 2.378617 1_555
Na13 O37 2.408409 1_545
Na13 O38 2.454568 1_655
Na13 O57 2.555418 1_555
Na13 O23 2.569483 1_555
Na13 O2 2.612950 1_555
Na13 O28 2.836281 1_655
Na13 O30 2.864756 1_655
Na14 O36 2.331279 1_545
Na14 O57 2.333537 1_555
Na14 O21 2.505617 1_555
Na14 O38 2.538174 1_555
Na14 O58 2.546999 1_555
Na14 O0 2.678989 1_555
Na14 O29 2.780920 1_545
Na14 O31 2.924414 1_545
Na15 O37 2.460210 1_555
Na15 O42 2.481276 1_565
Na15 O43 2.490345 1_665
Na15 O36 2.507850 1_655
Na15 O44 2.574594 1_555
Na15 O38 2.582690 1_665
Na16 O47 2.426113 1_566
Na16 O45 2.430566 1_456
Na16 O41 2.550880 1_455
Na16 O40 2.558996 1_555
Na16 O39 2.601370 1_565
Na16 O46 2.606591 1_466
Na17 O54 2.446506 1_555
Na17 O48 2.458038 1_555
Na17 O50 2.496018 1_555
Na17 O56 2.501470 1_555
Na17 O49 2.521296 1_555
Na17 O55 2.531182 1_555
Na18 O59 2.406494 1_555
Na18 O57 2.417267 1_555
Na18 O52 2.474374 1_555
Na18 O58 2.488885 1_555
Na18 O51 2.508988 1_555
Na18 O53 2.601571 1_555
Na19 O68 2.450876 1_555
Na19 O61 2.453722 1_555
Na19 O60 2.495608 1_555
Na19 O62 2.521529 1_555
Na19 O66 2.524618 1_555
Na19 O67 2.587467 1_555
Na20 O63 2.416011 1_555
Na20 O65 2.421506 1_555
Na20 O64 2.458012 1_555
Na20 O71 2.552146 1_555
Na20 O69 2.561297 1_555
Na20 O70 2.627511 1_555
Al0 O5 1.830400 1_565
Al0 O41 1.896580 1_555
Al0 O4 1.929980 1_555
Al0 O3 1.957191 1_665
Al0 O39 2.018309 1_665
Al0 O40 2.063213 1_655
Al1 O13 1.810644 1_555
Al1 O12 1.825334 1_555
Al1 O48 1.927150 1_555
Al1 O14 1.932606 1_555
Al1 O50 2.169815 1_555
Al1 O49 2.177465 1_555
Al2 O15 1.821383 1_555
Al2 O17 1.847062 1_555
Al2 O16 1.900254 1_555
Al2 O52 1.949709 1_555
Al2 O51 2.064555 1_555
Al2 O53 2.089325 1_555
Al3 O18 1.793604 1_556
Al3 O19 1.819941 1_556
Al3 O54 1.931220 1_555
Al3 O20 1.959233 1_556
Al3 O55 2.184057 1_555
Al3 O56 2.188087 1_555
Al4 O30 1.823275 1_555
Al4 O31 1.845769 1_555
Al4 O32 1.894264 1_555
Al4 O68 1.956676 1_555
Al4 O66 2.034691 1_555
Al4 O67 2.098469 1_555
Al5 O35 1.827729 1_555
Al5 O71 1.893883 1_555
Al5 O34 1.926301 1_555
Al5 O33 1.964945 1_555
Al5 O69 2.007478 1_555
Al5 O70 2.069744 1_555
O0 P0 1.559733 1_555
O0 Sn0 2.116041 1_445
O1 P1 1.550485 1_555
O1 Sn0 2.046628 1_555
O2 Si0 1.642918 1_555
O2 Sn0 2.000232 1_545
O3 P2 1.545607 1_555
O4 P3 1.542060 1_655
O5 Si1 1.628999 1_555
O6 Si1 1.655486 1_565
O6 Sn1 2.019832 1_665
O7 P2 1.555782 1_555
O7 Sn1 2.045963 1_555
O8 P3 1.564912 1_555
O8 Sn1 2.088980 1_565
O9 P1 1.562061 1_555
O9 Sn2 2.111384 1_665
O10 Si0 1.648249 1_455
O10 Sn2 2.019308 1_555
O11 P0 1.549879 1_565
O11 Sn2 2.051425 1_565
O12 Si2 1.623140 1_555
O13 Si3 1.615831 1_555
O14 P4 1.530107 1_555
O15 Si4 1.622717 1_555
O16 P5 1.534624 1_555
O17 Si5 1.625472 1_555
O18 Si5 1.614168 1_555
O19 Si4 1.625780 1_555
O20 P5 1.540501 1_555
O21 Si3 1.634152 1_555
O21 Sn3 2.003907 1_555
O22 P4 1.545480 1_555
O22 Sn3 2.051310 1_555
O23 Si2 1.639944 1_555
O23 Sn3 2.013398 1_555
O24 Si6 1.662586 1_555
O24 Sn4 2.024969 1_556
O25 P6 1.565592 1_555
O25 Sn4 2.104272 1_556
O26 P7 1.560033 1_555
O26 Sn4 2.057964 1_556
O27 Si7 1.632894 1_555
O27 Sn5 1.989484 1_555
O28 P8 1.543462 1_555
O28 Sn5 2.057306 1_555
O29 Si8 1.639972 1_555
O29 Sn5 2.021108 1_555
O30 Si8 1.617560 1_555
O31 Si7 1.616527 1_555
O32 P8 1.526607 1_555
O33 P6 1.545538 1_555
O34 P7 1.546280 1_555
O35 Si6 1.627604 1_555
O36 Si8 1.640281 1_555
O36 Sn0 1.997095 1_455
O37 Si7 1.641889 1_555
O37 Sn0 2.011207 1_555
O38 P8 1.566186 1_555
O38 Sn0 2.135248 1_445
O39 P6 1.557976 1_555
O40 P7 1.556963 1_555
O41 Si6 1.655746 1_555
O42 Si2 1.636258 1_555
O42 Sn1 2.009182 1_655
O43 Si3 1.643194 1_555
O43 Sn1 2.021090 1_555
O44 P4 1.567538 1_555
O44 Sn1 2.145028 1_665
O45 Si4 1.655488 1_555
O45 Sn2 2.026123 1_665
O46 P5 1.578432 1_555
O46 Sn2 2.173482 1_655
O47 Si5 1.652436 1_555
O47 Sn2 2.016367 1_555
O48 Si1 1.652593 1_555
O49 P2 1.547652 1_555
O50 P3 1.549062 1_655
O51 P1 1.544632 1_555
O52 Si0 1.640915 1_555
O53 P0 1.543198 1_555
O54 Si6 1.651554 1_555
O55 P6 1.550087 1_655
O56 P7 1.549635 1_545
O57 Si7 1.662240 1_545
O57 Sn3 2.094929 1_555
O58 P8 1.543165 1_555
O58 Sn3 2.126931 1_555
O59 Si8 1.634409 1_655
O59 Sn3 2.044945 1_555
O60 Si5 1.682078 1_555
O60 Sn4 2.070035 1_555
O61 Si4 1.650752 1_455
O61 Sn4 2.035556 1_555
O62 P5 1.556403 1_565
O62 Sn4 2.117330 1_555
O63 Si3 1.660005 1_565
O63 Sn5 2.088362 1_555
O64 P4 1.547397 1_555
O64 Sn5 2.148805 1_555
O65 Si2 1.635219 1_455
O65 Sn5 2.035572 1_555
O66 P0 1.543680 1_565
O67 P1 1.540912 1_555
O68 Si0 1.640915 1_455
O69 P2 1.559462 1_555
O70 P3 1.556093 1_555
O71 Si1 1.654883 1_565
