# generated using pymatgen
data_CaTi3P2(SO6)4
_symmetry_space_group_name_H-M   'P 1'
_cell_length_a   8.75598174
_cell_length_b   8.77366537
_cell_length_c   22.53335054
_cell_angle_alpha   90.14962025
_cell_angle_beta   90.01906652
_cell_angle_gamma   119.95533303
_symmetry_Int_Tables_number   1
_chemical_formula_structural   CaTi3P2(SO6)4
_chemical_formula_sum   'Ca3 Ti9 P6 S12 O72'
_cell_volume   1499.80694328
_cell_formula_units_Z   3
loop_
 _symmetry_equiv_pos_site_id
 _symmetry_equiv_pos_as_xyz
  1  'x, y, z'
loop_
 _atom_site_type_symbol
 _atom_site_label
 _atom_site_symmetry_multiplicity
 _atom_site_fract_x
 _atom_site_fract_y
 _atom_site_fract_z
 _atom_site_occupancy
  Ca  Ca0  1  0.99876136  0.00120055  0.36404784  1
  Ca  Ca1  1  0.67092607  0.33509201  0.69104306  1
  Ca  Ca2  1  0.66596311  0.33455995  0.18299865  1
  Ti  Ti0  1  0.99945206  0.99971006  0.86219285  1
  Ti  Ti1  1  0.99862053  0.00729363  0.64264944  1
  Ti  Ti2  1  0.00956866  0.01187238  0.14272397  1
  Ti  Ti3  1  0.65456637  0.33136167  0.97455931  1
  Ti  Ti4  1  0.67438380  0.32382949  0.47705946  1
  Ti  Ti5  1  0.33161854  0.66085263  0.01718642  1
  Ti  Ti6  1  0.33524288  0.66572653  0.52183801  1
  Ti  Ti7  1  0.34317715  0.67686218  0.30785627  1
  Ti  Ti8  1  0.32923606  0.66459252  0.81581267  1
  P  P0  1  0.96163739  0.33461540  0.58208704  1
  P  P1  1  0.37228392  0.33576081  0.08034034  1
  P  P2  1  0.61661685  0.66513887  0.91589449  1
  P  P3  1  0.04235188  0.38185910  0.91623047  1
  P  P4  1  0.33463836  0.95117112  0.91638360  1
  P  P5  1  0.60273312  0.95030633  0.41849018  1
  S  S0  1  0.28234410  0.98742965  0.25019146  1
  S  S1  1  0.70796691  0.71848185  0.24994016  1
  S  S2  1  0.01537675  0.29749360  0.25051147  1
  S  S3  1  0.26945892  0.28451722  0.75318762  1
  S  S4  1  0.01539809  0.73180905  0.75320150  1
  S  S5  1  0.71416303  0.98387084  0.75328139  1
  S  S6  1  0.36834063  0.03706215  0.58168573  1
  S  S7  1  0.66971180  0.63047223  0.58175888  1
  S  S8  1  0.96594057  0.63396853  0.08016118  1
  S  S9  1  0.66622195  0.03337139  0.07991405  1
  S  S10  1  0.35477912  0.39743985  0.41892053  1
  S  S11  1  0.04638008  0.64990656  0.41874517  1
  O  O0  1  0.20536066  0.01188494  0.30353685  1
  O  O1  1  0.80718207  0.79551941  0.30379661  1
  O  O2  1  0.98850346  0.19305620  0.30297004  1
  O  O3  1  0.17902730  0.17543595  0.80540684  1
  O  O4  1  0.99794040  0.82307685  0.80620752  1
  O  O5  1  0.82538885  0.00428333  0.80554662  1
  O  O6  1  0.79985947  0.96366392  0.69757922  1
  O  O7  1  0.16283774  0.19966134  0.69741161  1
  O  O8  1  0.03757360  0.83649355  0.69828615  1
  O  O9  1  0.79213252  0.83025949  0.19663983  1
  O  O10  1  0.03866621  0.20480177  0.19597324  1
  O  O11  1  0.16863924  0.96336986  0.19631194  1
  O  O12  1  0.89859591  0.38086913  0.63710072  1
  O  O13  1  0.47413792  0.10068405  0.63511612  1
  O  O14  1  0.62561537  0.52573425  0.63530324  1
  O  O15  1  0.90808006  0.53041099  0.13394142  1
  O  O16  1  0.62509400  0.09436374  0.13407171  1
  O  O17  1  0.47652152  0.38165318  0.13631270  1
  O  O18  1  0.46721190  0.30022343  0.02721753  1
  O  O19  1  0.84417505  0.54541574  0.02932358  1
  O  O20  1  0.70119924  0.15455283  0.02910934  1
  O  O21  1  0.45323774  0.15623892  0.53030688  1
  O  O22  1  0.70266418  0.54548515  0.53049641  1
  O  O23  1  0.83082108  0.29584887  0.52820527  1
  O  O24  1  0.53328740  0.70062615  0.96977314  1
  O  O25  1  0.16549963  0.46797823  0.96930615  1
  O  O26  1  0.30059192  0.83331760  0.96982200  1
  O  O27  1  0.50115307  0.83771158  0.47240898  1
  O  O28  1  0.33359004  0.48741821  0.47195635  1
  O  O29  1  0.15200110  0.66483776  0.47202310  1
  O  O30  1  0.12373766  0.62190573  0.36432968  1
  O  O31  1  0.49058630  0.86341113  0.36132723  1
  O  O32  1  0.37613454  0.50175745  0.36467148  1
  O  O33  1  0.13082617  0.50282328  0.86110370  1
  O  O34  1  0.36888064  0.86544804  0.86096935  1
  O  O35  1  0.49580448  0.62966674  0.86088210  1
  O  O36  1  0.02704774  0.80348992  0.41755964  1
  O  O37  1  0.78286937  0.97375457  0.41856828  1
  O  O38  1  0.20080951  0.22411960  0.41736177  1
  O  O39  1  0.02312894  0.19832367  0.90478937  1
  O  O40  1  0.17396448  0.97702829  0.90545895  1
  O  O41  1  0.80195194  0.82644177  0.90516416  1
  O  O42  1  0.97630225  0.16356618  0.59302422  1
  O  O43  1  0.19007007  0.02055983  0.59066896  1
  O  O44  1  0.83085970  0.80884062  0.59122353  1
  O  O45  1  0.98111574  0.81071376  0.08981900  1
  O  O46  1  0.82846850  0.01682169  0.08938531  1
  O  O47  1  0.18622761  0.16474048  0.09131146  1
  O  O48  1  0.69579841  0.13887647  0.74953577  1
  O  O49  1  0.44265775  0.30230003  0.74859275  1
  O  O50  1  0.85937158  0.55863131  0.75044329  1
  O  O51  1  0.67036997  0.53956647  0.24269318  1
  O  O52  1  0.87164112  0.33026098  0.24048642  1
  O  O53  1  0.46123218  0.12710890  0.24170826  1
  O  O54  1  0.63732982  0.50180447  0.92724222  1
  O  O55  1  0.86073412  0.36164580  0.92881034  1
  O  O56  1  0.49983878  0.13509579  0.92720994  1
  O  O57  1  0.61156906  0.13374870  0.42802353  1
  O  O58  1  0.51818221  0.38761310  0.42838121  1
  O  O59  1  0.86805695  0.48689739  0.42695199  1
  O  O60  1  0.33733210  0.48631443  0.06335893  1
  O  O61  1  0.14579600  0.66458333  0.06618516  1
  O  O62  1  0.51641652  0.85483369  0.06654499  1
  O  O63  1  0.33377712  0.85569486  0.56909844  1
  O  O64  1  0.52217707  0.66554903  0.56919757  1
  O  O65  1  0.14778416  0.48117852  0.56519018  1
  O  O66  1  0.28455827  0.81437254  0.25655592  1
  O  O67  1  0.52806798  0.71051334  0.25739224  1
  O  O68  1  0.18489515  0.47024963  0.25720990  1
  O  O69  1  0.27886940  0.45788259  0.75938759  1
  O  O70  1  0.17887058  0.71941572  0.76038661  1
  O  O71  1  0.54143936  0.81994557  0.75944102  1
loop_
_geom_bond_atom_site_label_1
_geom_bond_atom_site_label_2
_geom_bond_distance
_geom_bond_site_symmetry_2
Ca0 O37 2.165452 1_545
Ca0 O1 2.208234 1_545
Ca0 O2 2.213291 1_555
Ca0 O38 2.220170 1_655
Ca0 O36 2.228019 1_645
Ca0 O0 2.230097 1_655
Ca1 O12 2.194832 1_555
Ca1 O50 2.261356 1_555
Ca1 O48 2.265918 1_555
Ca1 O49 2.277871 1_555
Ca1 O14 2.281664 1_555
Ca1 O13 2.287557 1_555
Ca2 O17 2.171264 1_555
Ca2 O51 2.228009 1_555
Ca2 O52 2.233671 1_555
Ca2 O16 2.240349 1_555
Ca2 O53 2.243257 1_555
Ca2 O15 2.245549 1_555
O0 S0 1.445321 1_545
O1 S1 1.446688 1_555
O2 S2 1.443184 1_655
O3 S3 1.475530 1_555
O3 Ti0 2.019251 1_445
O4 S4 1.486114 1_655
O4 Ti0 1.990623 1_555
O5 S5 1.480370 1_545
O5 Ti0 2.003444 1_545
O6 S5 1.517300 1_555
O6 Ti1 2.011464 1_565
O7 S3 1.518440 1_555
O7 Ti1 2.000793 1_455
O8 S4 1.496832 1_555
O8 Ti1 2.110362 1_465
O9 S1 1.494103 1_555
O9 Ti2 2.149829 1_665
O10 S2 1.540709 1_555
O10 Ti2 1.982012 1_555
O11 S0 1.515836 1_555
O11 Ti2 2.042694 1_565
O12 P0 1.492523 1_555
O13 S6 1.448659 1_555
O14 S7 1.449489 1_555
O15 S8 1.448183 1_555
O16 S9 1.447285 1_555
O17 P1 1.488446 1_555
O18 P1 1.574326 1_555
O18 Ti3 1.931100 1_554
O19 S8 1.489944 1_555
O19 Ti3 2.163087 1_554
O20 S9 1.488684 1_555
O20 Ti3 2.173989 1_554
O21 S6 1.488936 1_555
O21 Ti4 2.125684 1_555
O22 S7 1.477873 1_555
O22 Ti4 2.190857 1_555
O23 P0 1.584193 1_555
O23 Ti4 1.897625 1_555
O24 P2 1.526022 1_555
O24 Ti5 1.941424 1_556
O25 P3 1.531253 1_555
O25 Ti5 1.916939 1_556
O26 P4 1.518854 1_555
O26 Ti5 1.980220 1_556
O27 P5 1.540345 1_555
O27 Ti6 1.857035 1_555
O28 S10 1.492424 1_555
O28 Ti6 1.918120 1_555
O29 S11 1.480260 1_555
O29 Ti6 1.954640 1_555
O30 S11 1.479114 1_555
O30 Ti7 2.150182 1_555
O31 P5 1.565571 1_555
O31 Ti7 1.917161 1_555
O32 S10 1.483921 1_555
O32 Ti7 2.129624 1_555
O33 P3 1.567160 1_555
O33 Ti8 1.902747 1_555
O34 P4 1.560535 1_555
O34 Ti8 1.908103 1_555
O35 P2 1.555906 1_555
O35 Ti8 1.923371 1_555
O36 S11 1.439814 1_555
O37 P5 1.485279 1_555
O38 S10 1.443442 1_555
O39 P3 1.554003 1_555
O39 Ti0 1.905567 1_445
O40 P4 1.552452 1_555
O40 Ti0 1.904902 1_455
O41 P2 1.550258 1_555
O41 Ti0 1.903300 1_555
O42 P0 1.588636 1_555
O42 Ti1 1.855778 1_555
O43 S6 1.507687 1_555
O43 Ti1 2.000681 1_455
O44 S7 1.509427 1_555
O44 Ti1 1.991564 1_565
O45 S8 1.504043 1_555
O45 Ti2 2.036618 1_665
O46 S9 1.513530 1_555
O46 Ti2 2.007160 1_655
O47 P1 1.589843 1_555
O47 Ti2 1.863093 1_555
O48 S5 1.449645 1_545
O49 S3 1.448728 1_555
O50 S4 1.450984 1_655
O51 S1 1.442810 1_555
O52 S2 1.441909 1_655
O53 S0 1.440929 1_545
O54 P2 1.553485 1_555
O54 Ti3 1.905109 1_555
O55 P3 1.536098 1_655
O55 Ti3 1.978820 1_555
O56 P4 1.556447 1_545
O56 Ti3 1.897021 1_555
O57 P5 1.586295 1_545
O57 Ti4 1.838100 1_555
O58 S10 1.490979 1_555
O58 Ti4 2.038010 1_555
O59 S11 1.512974 1_655
O59 Ti4 1.945325 1_555
O60 P1 1.546330 1_555
O60 Ti5 1.874773 1_555
O61 S8 1.493218 1_455
O61 Ti5 1.980311 1_555
O62 S9 1.486730 1_565
O62 Ti5 1.997636 1_555
O63 S6 1.490233 1_565
O63 Ti6 1.980986 1_555
O64 S7 1.496942 1_555
O64 Ti6 1.954312 1_555
O65 P0 1.537850 1_455
O65 Ti6 1.904036 1_555
O66 S0 1.535203 1_555
O66 Ti7 1.918481 1_555
O67 S1 1.550669 1_555
O67 Ti7 1.877954 1_555
O68 S2 1.508384 1_555
O68 Ti7 1.997111 1_555
O69 S3 1.487824 1_555
O69 Ti8 2.071007 1_555
O70 S4 1.497398 1_555
O70 Ti8 2.039387 1_555
O71 S5 1.484589 1_555
O71 Ti8 2.098846 1_555
