# generated using pymatgen
data_Na8Ti3ZnSi4(PO12)2
_symmetry_space_group_name_H-M   'P 1'
_cell_length_a   9.00799218
_cell_length_b   9.01010429
_cell_length_c   22.02073636
_cell_angle_alpha   89.92313845
_cell_angle_beta   90.11808828
_cell_angle_gamma   120.09628965
_symmetry_Int_Tables_number   1
_chemical_formula_structural   Na8Ti3ZnSi4(PO12)2
_chemical_formula_sum   'Na24 Ti9 Zn3 Si12 P6 O72'
_cell_volume   1546.31202345
_cell_formula_units_Z   3
loop_
 _symmetry_equiv_pos_site_id
 _symmetry_equiv_pos_as_xyz
  1  'x, y, z'
loop_
 _atom_site_type_symbol
 _atom_site_label
 _atom_site_symmetry_multiplicity
 _atom_site_fract_x
 _atom_site_fract_y
 _atom_site_fract_z
 _atom_site_occupancy
  Na  Na0  1  0.63579474  0.01012552  0.24462789  1
  Na  Na1  1  0.37508874  0.36282932  0.24428448  1
  Na  Na2  1  0.98877452  0.62679128  0.24434207  1
  Na  Na3  1  0.62936231  0.61989624  0.74692537  1
  Na  Na4  1  0.98932106  0.36952833  0.74887075  1
  Na  Na5  1  0.38095425  0.00879160  0.74579911  1
  Na  Na6  1  0.30546103  0.33460845  0.58619558  1
  Na  Na7  1  0.03206693  0.69826243  0.58384597  1
  Na  Na8  1  0.66334150  0.97068266  0.58660082  1
  Na  Na9  1  0.30856182  0.96871932  0.08419571  1
  Na  Na10  1  0.66022171  0.69164025  0.08418092  1
  Na  Na11  1  0.03135937  0.33945538  0.08412410  1
  Na  Na12  1  0.96418341  0.66509779  0.91718377  1
  Na  Na13  1  0.70172735  0.03740108  0.91725047  1
  Na  Na14  1  0.33400496  0.29780374  0.91687621  1
  Na  Na15  1  0.96340682  0.28898543  0.41447789  1
  Na  Na16  1  0.32212951  0.03456708  0.41450718  1
  Na  Na17  1  0.71189332  0.67532337  0.41279603  1
  Na  Na18  1  0.00343949  0.00049966  0.49704641  1
  Na  Na19  1  0.00105072  0.00109679  0.99833545  1
  Na  Na20  1  0.66869261  0.33333045  0.83061961  1
  Na  Na21  1  0.66749122  0.33401497  0.32953440  1
  Na  Na22  1  0.33439539  0.66766065  0.16360331  1
  Na  Na23  1  0.33673620  0.67007450  0.66807903  1
  Ti  Ti0  1  0.99266815  0.99518424  0.85347851  1
  Ti  Ti1  1  0.99659427  0.98863413  0.64811957  1
  Ti  Ti2  1  0.99978490  0.99897977  0.14376663  1
  Ti  Ti3  1  0.66704653  0.33353273  0.98219509  1
  Ti  Ti4  1  0.66154539  0.34143996  0.48206882  1
  Ti  Ti5  1  0.33310770  0.66626083  0.01805447  1
  Ti  Ti6  1  0.33142049  0.66716649  0.51890684  1
  Ti  Ti7  1  0.32771080  0.65917321  0.31596939  1
  Ti  Ti8  1  0.33474847  0.67262995  0.81551895  1
  Zn  Zn0  1  0.00521500  0.00028505  0.35096634  1
  Zn  Zn1  1  0.66587425  0.33151300  0.68342742  1
  Zn  Zn2  1  0.66646188  0.33307334  0.17601561  1
  Si  Si0  1  0.00201086  0.70847428  0.75150551  1
  Si  Si1  1  0.70815144  0.99744847  0.75025027  1
  Si  Si2  1  0.37480230  0.04068998  0.58452186  1
  Si  Si3  1  0.66409168  0.62660692  0.58529041  1
  Si  Si4  1  0.96087193  0.62494701  0.08462522  1
  Si  Si5  1  0.66453574  0.03933839  0.08460303  1
  Si  Si6  1  0.37503865  0.33551222  0.08444611  1
  Si  Si7  1  0.62205029  0.66474426  0.91633193  1
  Si  Si8  1  0.04296679  0.37692811  0.91598001  1
  Si  Si9  1  0.33416609  0.95918967  0.91695185  1
  Si  Si10  1  0.33436053  0.37673839  0.41772107  1
  Si  Si11  1  0.03891950  0.66206027  0.41738162  1
  P  P0  1  0.29263554  0.99831079  0.25147284  1
  P  P1  1  0.70726614  0.71017129  0.25187851  1
  P  P2  1  0.00156966  0.29153413  0.25190162  1
  P  P3  1  0.28318519  0.28734625  0.75095751  1
  P  P4  1  0.95924510  0.33478898  0.58301644  1
  P  P5  1  0.61811472  0.95595552  0.41687659  1
  O  O0  1  0.21414559  0.02505663  0.30899388  1
  O  O1  1  0.81291383  0.79087615  0.30936317  1
  O  O2  1  0.97611096  0.18617949  0.30939081  1
  O  O3  1  0.19244083  0.17539513  0.80764415  1
  O  O4  1  0.98067634  0.81146763  0.80946255  1
  O  O5  1  0.83128158  0.02105598  0.80949572  1
  O  O6  1  0.80705182  0.97091919  0.69066044  1
  O  O7  1  0.17174799  0.19983857  0.69293353  1
  O  O8  1  0.03251340  0.83374885  0.69088043  1
  O  O9  1  0.79882633  0.82613475  0.19474897  1
  O  O10  1  0.02908067  0.20364206  0.19486982  1
  O  O11  1  0.17500338  0.97165527  0.19467532  1
  O  O12  1  0.89152173  0.37439605  0.63995723  1
  O  O13  1  0.49284895  0.11011566  0.64385576  1
  O  O14  1  0.62029921  0.50821885  0.64400268  1
  O  O15  1  0.89147070  0.51209429  0.14513024  1
  O  O16  1  0.62094819  0.10866300  0.14495252  1
  O  O17  1  0.48843521  0.37977766  0.14492760  1
  O  O18  1  0.46534242  0.29712642  0.02547867  1
  O  O19  1  0.83216122  0.53484071  0.02549274  1
  O  O20  1  0.70305215  0.16833396  0.02558158  1
  O  O21  1  0.47329639  0.16945755  0.52492575  1
  O  O22  1  0.70012756  0.53355978  0.52522939  1
  O  O23  1  0.84194282  0.30530413  0.52638322  1
  O  O24  1  0.53322552  0.69968207  0.97502648  1
  O  O25  1  0.16665775  0.46801960  0.97491674  1
  O  O26  1  0.30020869  0.83378226  0.97512575  1
  O  O27  1  0.52954525  0.84292006  0.47337254  1
  O  O28  1  0.31388503  0.47843468  0.47551916  1
  O  O29  1  0.16443815  0.68898197  0.47530917  1
  O  O30  1  0.13943538  0.63515679  0.35792388  1
  O  O31  1  0.50326577  0.86739017  0.35967761  1
  O  O32  1  0.36771537  0.50373236  0.35774817  1
  O  O33  1  0.13566878  0.50200686  0.85671791  1
  O  O34  1  0.36737659  0.86631127  0.85756990  1
  O  O35  1  0.49850773  0.63365853  0.85689634  1
  O  O36  1  0.01838471  0.82924674  0.41497556  1
  O  O37  1  0.79618744  0.97412545  0.41399576  1
  O  O38  1  0.16520994  0.19041693  0.41527857  1
  O  O39  1  0.02510712  0.18700623  0.91119457  1
  O  O40  1  0.16412884  0.97905086  0.91108649  1
  O  O41  1  0.81355165  0.83728918  0.91160184  1
  O  O42  1  0.97789451  0.17185670  0.58673571  1
  O  O43  1  0.18520057  0.02792543  0.58745344  1
  O  O44  1  0.84027050  0.81806276  0.58765023  1
  O  O45  1  0.97701478  0.81734367  0.09070904  1
  O  O46  1  0.84062958  0.02303688  0.09086440  1
  O  O47  1  0.18243831  0.15946852  0.09078495  1
  O  O48  1  0.69139184  0.16661094  0.74951251  1
  O  O49  1  0.46070379  0.30505564  0.74950889  1
  O  O50  1  0.83146513  0.52382364  0.74891250  1
  O  O51  1  0.68312863  0.52916227  0.24753622  1
  O  O52  1  0.84627508  0.31794294  0.24742042  1
  O  O53  1  0.47361093  0.15580146  0.24682297  1
  O  O54  1  0.64087076  0.49394280  0.92196308  1
  O  O55  1  0.85363001  0.35957870  0.92196246  1
  O  O56  1  0.50732951  0.14757103  0.92204739  1
  O  O57  1  0.63262047  0.13459312  0.42124648  1
  O  O58  1  0.51133444  0.36421976  0.42188472  1
  O  O59  1  0.85325482  0.48304322  0.42161379  1
  O  O60  1  0.34660714  0.50004055  0.07485090  1
  O  O61  1  0.15380769  0.65349223  0.07508227  1
  O  O62  1  0.49999367  0.84626839  0.07494880  1
  O  O63  1  0.34601859  0.84610455  0.57429426  1
  O  O64  1  0.49902537  0.65445539  0.57458566  1
  O  O65  1  0.14372212  0.49428630  0.57482860  1
  O  O66  1  0.30483203  0.82928878  0.25440033  1
  O  O67  1  0.52641463  0.69922943  0.25404184  1
  O  O68  1  0.17262986  0.47427826  0.25481488  1
  O  O69  1  0.29643786  0.46632895  0.75379940  1
  O  O70  1  0.17865691  0.69753558  0.75424608  1
  O  O71  1  0.52143252  0.81873840  0.75400261  1
loop_
_geom_bond_atom_site_label_1
_geom_bond_atom_site_label_2
_geom_bond_distance
_geom_bond_site_symmetry_2
Na0 O16 2.395093 1_555
Na0 O53 2.404815 1_555
Na0 O52 2.452938 1_555
Na0 O67 2.468152 1_545
Na0 O66 2.592156 1_545
Na0 O31 2.821633 1_545
Na0 O9 2.926533 1_545
Na0 O2 3.009796 1_555
Na1 O17 2.388453 1_555
Na1 O51 2.404080 1_555
Na1 O53 2.435172 1_555
Na1 O68 2.495440 1_555
Na1 O67 2.635929 1_555
Na1 O32 2.820054 1_555
Na1 O10 2.909069 1_555
Na1 O0 2.994371 1_555
Na2 O15 2.387249 1_555
Na2 O52 2.411112 1_555
Na2 O51 2.435331 1_555
Na2 O66 2.504491 1_655
Na2 O68 2.639019 1_655
Na2 O30 2.826171 1_655
Na2 O11 2.904499 1_655
Na2 O1 3.018152 1_555
Na3 O50 2.376057 1_555
Na3 O71 2.434664 1_555
Na3 O49 2.456858 1_555
Na3 O14 2.465531 1_555
Na3 O69 2.602111 1_555
Na3 O35 2.725492 1_555
Na3 O6 3.003443 1_555
Na3 O4 3.066075 1_555
Na4 O48 2.371601 1_555
Na4 O50 2.436655 1_555
Na4 O69 2.450537 1_655
Na4 O12 2.561232 1_555
Na4 O70 2.569449 1_655
Na4 O33 2.686870 1_655
Na4 O7 3.014715 1_655
Na4 O5 3.029991 1_555
Na5 O49 2.392784 1_555
Na5 O48 2.420748 1_555
Na5 O13 2.443318 1_555
Na5 O70 2.468782 1_545
Na5 O71 2.595708 1_545
Na5 O34 2.748850 1_545
Na5 O8 2.970939 1_545
Na5 O3 3.092443 1_555
Na6 O43 2.409900 1_555
Na6 O65 2.520910 1_555
Na6 O64 2.524092 1_555
Na6 O42 2.552994 1_455
Na6 O7 2.643304 1_555
Na6 O28 2.742003 1_555
Na6 O14 2.766184 1_555
Na6 O21 2.930926 1_555
Na7 O44 2.455253 1_455
Na7 O63 2.457682 1_555
Na7 O65 2.506868 1_555
Na7 O43 2.573471 1_565
Na7 O8 2.654871 1_555
Na7 O29 2.693228 1_555
Na7 O12 2.817155 1_455
Na7 O22 2.889310 1_455
Na8 O64 2.479890 1_555
Na8 O42 2.482589 1_565
Na8 O63 2.506761 1_555
Na8 O44 2.574759 1_555
Na8 O6 2.629010 1_555
Na8 O13 2.733835 1_565
Na8 O27 2.756539 1_555
Na8 O23 2.927482 1_565
Na9 O61 2.465763 1_555
Na9 O62 2.478399 1_555
Na9 O47 2.495054 1_565
Na9 O45 2.591604 1_455
Na9 O26 2.677277 1_554
Na9 O11 2.722317 1_555
Na9 O16 2.780083 1_565
Na9 O18 2.868472 1_565
Na10 O62 2.465836 1_555
Na10 O60 2.471981 1_555
Na10 O45 2.490814 1_555
Na10 O46 2.590749 1_565
Na10 O24 2.676352 1_554
Na10 O9 2.726452 1_555
Na10 O17 2.777989 1_555
Na10 O19 2.876227 1_555
Na11 O60 2.465807 1_555
Na11 O61 2.476229 1_555
Na11 O46 2.487833 1_455
Na11 O47 2.591425 1_555
Na11 O25 2.683119 1_554
Na11 O10 2.722521 1_555
Na11 O15 2.791159 1_455
Na11 O20 2.863888 1_455
Na12 O55 2.414706 1_555
Na12 O40 2.480749 1_655
Na12 O54 2.523443 1_555
Na12 O41 2.524556 1_555
Na12 O19 2.661680 1_556
Na12 O4 2.680437 1_555
Na12 O26 2.911284 1_655
Na12 O33 2.934062 1_655
Na13 O56 2.409838 1_555
Na13 O41 2.470563 1_545
Na13 O55 2.515205 1_555
Na13 O39 2.526549 1_655
Na13 O20 2.660066 1_556
Na13 O5 2.683043 1_555
Na13 O34 2.916739 1_545
Na13 O24 2.923555 1_545
Na14 O54 2.424188 1_555
Na14 O39 2.442916 1_555
Na14 O40 2.489739 1_545
Na14 O56 2.530082 1_555
Na14 O18 2.667316 1_556
Na14 O3 2.685576 1_555
Na14 O25 2.930863 1_555
Na14 O35 2.932181 1_555
Na15 O38 2.390098 1_655
Na15 O59 2.409936 1_555
Na15 O37 2.455912 1_545
Na15 O2 2.517797 1_555
Na15 O57 2.584616 1_555
Na15 O23 2.732156 1_555
Na15 O30 2.971741 1_655
Na15 O28 3.044956 1_655
Na16 O36 2.415051 1_545
Na16 O38 2.441526 1_555
Na16 O57 2.475387 1_555
Na16 O0 2.501941 1_555
Na16 O58 2.583888 1_555
Na16 O21 2.752827 1_555
Na16 O31 2.977741 1_545
Na16 O29 3.011091 1_545
Na17 O36 2.389068 1_655
Na17 O37 2.403185 1_555
Na17 O58 2.466239 1_555
Na17 O1 2.480288 1_555
Na17 O59 2.621303 1_555
Na17 O22 2.762151 1_555
Na17 O32 2.941796 1_555
Na17 O27 3.043001 1_555
Na18 O38 2.407378 1_555
Na18 O36 2.425284 1_545
Na18 O43 2.507456 1_555
Na18 O44 2.534414 1_445
Na18 O37 2.535484 1_445
Na18 O42 2.589170 1_455
Na19 O39 2.482750 1_555
Na19 O41 2.484571 1_445
Na19 O40 2.488791 1_545
Na19 O47 2.550724 1_556
Na19 O45 2.561050 1_446
Na19 O46 2.564890 1_456
Na20 O48 2.409352 1_555
Na20 O50 2.410757 1_555
Na20 O49 2.504812 1_555
Na20 O55 2.543504 1_555
Na20 O56 2.555514 1_555
Na20 O54 2.564481 1_555
Na21 O51 2.473054 1_555
Na21 O53 2.475502 1_555
Na21 O52 2.476056 1_555
Na21 O59 2.540548 1_555
Na21 O58 2.566239 1_555
Na21 O57 2.613940 1_555
Na22 O62 2.494436 1_555
Na22 O61 2.498329 1_555
Na22 O60 2.507610 1_555
Na22 O67 2.555945 1_555
Na22 O66 2.566771 1_555
Na22 O68 2.578736 1_555
Na23 O71 2.429214 1_555
Na23 O70 2.460700 1_555
Na23 O69 2.527873 1_555
Na23 O64 2.571983 1_555
Na23 O63 2.578091 1_555
Na23 O65 2.642047 1_555
O0 P0 1.528980 1_545
O0 Zn0 2.007861 1_555
O1 P1 1.529805 1_555
O1 Zn0 2.029820 1_665
O2 P2 1.528387 1_655
O2 Zn0 2.036563 1_655
O3 P3 1.554911 1_555
O3 Ti0 1.991524 1_445
O4 Si0 1.646196 1_655
O4 Ti0 1.875026 1_555
O5 Si1 1.653993 1_545
O5 Ti0 1.854535 1_545
O6 Si1 1.670916 1_555
O6 Ti1 1.884440 1_555
O7 P3 1.570211 1_555
O7 Ti1 2.017910 1_445
O8 Si0 1.678756 1_555
O8 Ti1 1.840361 1_455
O9 P1 1.578317 1_555
O9 Ti2 2.034450 1_555
O10 P2 1.570529 1_555
O10 Ti2 2.062219 1_445
O11 P0 1.576362 1_555
O11 Ti2 2.047019 1_455
O12 P4 1.514733 1_555
O12 Zn1 2.101564 1_555
O13 Si2 1.599542 1_555
O13 Zn1 2.012154 1_555
O14 Si3 1.594173 1_555
O14 Zn1 2.026700 1_555
O15 Si4 1.600691 1_555
O15 Zn2 1.973939 1_555
O16 Si5 1.600231 1_555
O16 Zn2 1.973697 1_555
O17 Si6 1.601102 1_555
O17 Zn2 1.972047 1_555
O18 Si6 1.659870 1_555
O18 Ti3 1.930268 1_554
O19 Si4 1.658777 1_555
O19 Ti3 1.924667 1_554
O20 Si5 1.659465 1_555
O20 Ti3 1.926804 1_554
O21 Si2 1.680439 1_555
O21 Ti4 1.880088 1_555
O22 Si3 1.683789 1_555
O22 Ti4 1.849384 1_555
O23 P4 1.567259 1_555
O23 Ti4 2.054795 1_555
O24 Si7 1.633346 1_555
O24 Ti5 1.923511 1_556
O25 Si8 1.636826 1_555
O25 Ti5 1.911452 1_556
O26 Si9 1.631703 1_555
O26 Ti5 1.924405 1_556
O27 P5 1.551550 1_555
O27 Ti6 1.966455 1_555
O28 Si10 1.633131 1_555
O28 Ti6 1.887808 1_555
O29 Si11 1.638369 1_555
O29 Ti6 1.874285 1_555
O30 Si11 1.678906 1_555
O30 Ti7 1.847858 1_555
O31 P5 1.569379 1_555
O31 Ti7 1.992470 1_555
O32 Si10 1.672253 1_555
O32 Ti7 1.854484 1_555
O33 Si8 1.651400 1_555
O33 Ti8 1.907995 1_555
O34 Si9 1.659921 1_555
O34 Ti8 1.864939 1_555
O35 Si7 1.646906 1_555
O35 Ti8 1.908570 1_555
O36 Si11 1.607908 1_555
O36 Zn0 2.133680 1_565
O37 P5 1.530004 1_555
O37 Zn0 2.256580 1_665
O38 Si10 1.605417 1_555
O38 Zn0 2.130598 1_555
O39 Si8 1.639988 1_555
O39 Ti0 2.045899 1_445
O40 Si9 1.633650 1_555
O40 Ti0 2.057311 1_455
O41 Si7 1.647489 1_555
O41 Ti0 1.991727 1_555
O42 P4 1.561096 1_555
O42 Ti1 2.202907 1_545
O43 Si2 1.654647 1_555
O43 Ti1 2.049718 1_445
O44 Si3 1.658719 1_555
O44 Ti1 1.986276 1_555
O45 Si4 1.670897 1_555
O45 Ti2 1.937258 1_555
O46 Si5 1.670176 1_555
O46 Ti2 1.939998 1_545
O47 Si6 1.669111 1_555
O47 Ti2 1.943339 1_445
O48 Si1 1.605258 1_545
O48 Zn1 2.171051 1_555
O49 P3 1.525730 1_555
O49 Zn1 2.271205 1_555
O50 Si0 1.602465 1_655
O50 Zn1 2.170834 1_555
O51 P1 1.536548 1_555
O51 Zn2 2.316236 1_555
O52 P2 1.535074 1_655
O52 Zn2 2.307591 1_555
O53 P0 1.536869 1_545
O53 Zn2 2.285152 1_555
O54 Si7 1.635089 1_555
O54 Ti3 2.058904 1_555
O55 Si8 1.638340 1_655
O55 Ti3 2.062036 1_555
O56 Si9 1.634373 1_545
O56 Ti3 2.052339 1_555
O57 P5 1.551258 1_545
O57 Ti4 2.203048 1_555
O58 Si10 1.655972 1_555
O58 Ti4 1.974798 1_555
O59 Si11 1.643850 1_655
O59 Ti4 2.043901 1_555
O60 Si6 1.639361 1_555
O60 Ti5 1.999756 1_555
O61 Si4 1.638259 1_455
O61 Ti5 2.005125 1_555
O62 Si5 1.637691 1_565
O62 Ti5 2.003122 1_555
O63 Si2 1.654296 1_565
O63 Ti6 1.973887 1_555
O64 Si3 1.643783 1_555
O64 Ti6 1.990293 1_555
O65 P4 1.569932 1_455
O65 Ti6 2.040494 1_555
O66 P0 1.582080 1_555
O66 Ti7 2.130748 1_555
O67 P1 1.582787 1_555
O67 Ti7 2.134148 1_555
O68 P2 1.595288 1_555
O68 Ti7 2.050508 1_555
O69 P3 1.557555 1_555
O69 Ti8 2.186983 1_555
O70 Si0 1.643846 1_555
O70 Ti8 2.038564 1_555
O71 Si1 1.646999 1_555
O71 Ti8 2.044598 1_555
