# generated using pymatgen
data_Eu(BIr)4
_symmetry_space_group_name_H-M   'P 1'
_cell_length_a   3.96716550
_cell_length_b   7.67328942
_cell_length_c   7.67328402
_cell_angle_alpha   89.99995139
_cell_angle_beta   90.00020905
_cell_angle_gamma   89.99995835
_symmetry_Int_Tables_number   1
_chemical_formula_structural   Eu(BIr)4
_chemical_formula_sum   'Eu2 B8 Ir8'
_cell_volume   233.58404302
_cell_formula_units_Z   2
loop_
 _symmetry_equiv_pos_site_id
 _symmetry_equiv_pos_as_xyz
  1  'x, y, z'
loop_
 _atom_site_type_symbol
 _atom_site_label
 _atom_site_symmetry_multiplicity
 _atom_site_fract_x
 _atom_site_fract_y
 _atom_site_fract_z
 _atom_site_occupancy
  Eu  Eu0  1  0.75000189  0.25000145  0.25000317  1
  Eu  Eu1  1  0.24999811  0.74999855  0.74999683  1
  B  B0  1  0.85708038  0.02862435  0.90753939  1
  B  B1  1  0.14292038  0.52862457  0.40753910  1
  B  B2  1  0.35708007  0.09246048  0.52862500  1
  B  B3  1  0.35708008  0.40753908  0.97137684  1
  B  B4  1  0.85707962  0.47137543  0.59246090  1
  B  B5  1  0.14291962  0.97137565  0.09246061  1
  B  B6  1  0.64291993  0.90753952  0.47137500  1
  B  B7  1  0.64291992  0.59246092  0.02862316  1
  Ir  Ir0  1  0.35696734  0.36054960  0.59387957  1
  Ir  Ir1  1  0.35696860  0.13945145  0.90611990  1
  Ir  Ir2  1  0.85696703  0.40611988  0.86054903  1
  Ir  Ir3  1  0.14303143  0.90612047  0.36054892  1
  Ir  Ir4  1  0.64303266  0.63945040  0.40612043  1
  Ir  Ir5  1  0.64303140  0.86054855  0.09388010  1
  Ir  Ir6  1  0.14303297  0.59388012  0.13945097  1
  Ir  Ir7  1  0.85696857  0.09387953  0.63945108  1
loop_
_geom_bond_atom_site_label_1
_geom_bond_atom_site_label_2
_geom_bond_distance
_geom_bond_site_symmetry_2
Eu0 Ir0 3.180146 1_555
Eu0 Ir3 3.180154 1_645
Eu0 Ir6 3.180161 1_655
Eu0 Ir1 3.180183 1_554
Eu0 Ir7 3.247367 1_555
Eu0 Ir4 3.247368 1_555
Eu0 Ir2 3.247403 1_554
Eu0 Ir5 3.247412 1_545
Eu1 Ir4 3.180146 1_555
Eu1 Ir7 3.180154 1_465
Eu1 Ir2 3.180161 1_455
Eu1 Ir5 3.180183 1_556
Eu1 Ir3 3.247367 1_555
Eu1 Ir0 3.247368 1_555
Eu1 Ir6 3.247403 1_556
Eu1 Ir1 3.247412 1_565
B0 B5 1.868764 1_646
B0 Ir5 2.104486 1_546
B0 Ir7 2.117181 1_555
B0 Ir1 2.157813 1_655
B0 Ir1 2.158627 1_555
B0 Eu1 2.908966 1_645
B0 Ir2 2.918988 1_555
B0 Eu0 3.157763 1_556
B0 Eu1 3.439865 1_545
B1 B4 1.868778 1_455
B1 Ir0 2.104473 1_555
B1 Ir6 2.117180 1_555
B1 Ir4 2.157806 1_455
B1 Ir4 2.158626 1_555
B1 Eu0 2.908928 1_455
B1 Ir3 2.918990 1_555
B1 Eu1 3.157709 1_555
B1 Eu0 3.439836 1_555
B2 B6 1.868771 1_545
B2 Ir3 2.104481 1_545
B2 Ir0 2.117188 1_555
B2 Ir7 2.157807 1_555
B2 Ir7 2.158626 1_455
B2 Eu0 2.908948 1_555
B2 Ir1 2.918982 1_555
B2 Eu1 3.157729 1_545
B2 Eu0 3.439824 1_455
B3 B7 1.868769 1_556
B3 Ir6 2.104478 1_556
B3 Ir1 2.117181 1_555
B3 Ir2 2.157813 1_555
B3 Ir2 2.158631 1_455
B3 Eu0 2.908953 1_556
B3 Ir0 2.918999 1_555
B3 Eu1 3.157745 1_555
B3 Eu0 3.439849 1_456
B4 Ir4 2.104473 1_555
B4 Ir2 2.117180 1_555
B4 Ir0 2.157806 1_655
B4 Ir0 2.158626 1_555
B4 Eu1 2.908928 1_655
B4 Ir7 2.918990 1_555
B4 Eu0 3.157709 1_555
B4 Eu1 3.439836 1_555
B5 Ir1 2.104486 1_564
B5 Ir3 2.117181 1_555
B5 Ir5 2.157813 1_455
B5 Ir5 2.158627 1_555
B5 Eu0 2.908966 1_465
B5 Ir6 2.918988 1_555
B5 Eu1 3.157763 1_554
B5 Eu0 3.439865 1_565
B6 Ir7 2.104481 1_565
B6 Ir4 2.117188 1_555
B6 Ir3 2.157807 1_555
B6 Ir3 2.158626 1_655
B6 Eu1 2.908948 1_555
B6 Ir5 2.918982 1_555
B6 Eu0 3.157729 1_565
B6 Eu1 3.439824 1_655
B7 Ir2 2.104478 1_554
B7 Ir5 2.117181 1_555
B7 Ir6 2.157813 1_555
B7 Ir6 2.158631 1_655
B7 Eu1 2.908953 1_554
B7 Ir4 2.918999 1_555
B7 Eu0 3.157745 1_555
B7 Eu1 3.439849 1_654
Ir0 Ir1 2.935754 1_555
Ir2 Ir7 2.935757 1_555
Ir3 Ir6 2.935757 1_555
Ir4 Ir5 2.935754 1_555
