# generated using pymatgen
data_Ca11(ReO6)4
_symmetry_space_group_name_H-M   'P 1'
_cell_length_a   11.46076126
_cell_length_b   11.46076126
_cell_length_c   11.46076126
_cell_angle_alpha   122.00547940
_cell_angle_beta   122.00547940
_cell_angle_gamma   86.56014548
_symmetry_Int_Tables_number   1
_chemical_formula_structural   Ca11(ReO6)4
_chemical_formula_sum   'Ca22 Re8 O48'
_cell_volume   1030.16312102
_cell_formula_units_Z   2
loop_
 _symmetry_equiv_pos_site_id
 _symmetry_equiv_pos_as_xyz
  1  'x, y, z'
loop_
 _atom_site_type_symbol
 _atom_site_label
 _atom_site_symmetry_multiplicity
 _atom_site_fract_x
 _atom_site_fract_y
 _atom_site_fract_z
 _atom_site_occupancy
  Ca  Ca0  1  0.36618500  0.86618500  0.50000000  1
  Ca  Ca1  1  0.61618500  0.61618500  0.00000000  1
  Ca  Ca2  1  0.88246800  0.38246800  0.50000000  1
  Ca  Ca3  1  0.13246800  0.13246800  0.00000000  1
  Ca  Ca4  1  0.67329000  0.17329000  0.50000000  1
  Ca  Ca5  1  0.92329000  0.92329000  0.00000000  1
  Ca  Ca6  1  0.43385200  0.66693000  0.19853100  1
  Ca  Ca7  1  0.41693000  0.71839900  0.73307900  1
  Ca  Ca8  1  0.98532100  0.68385200  0.26692100  1
  Ca  Ca9  1  0.46839900  0.23532100  0.80146900  1
  Ca  Ca10  1  0.03096800  0.76681800  0.70156700  1
  Ca  Ca11  1  0.51681800  0.31525000  0.23584900  1
  Ca  Ca12  1  0.07940100  0.28096800  0.76415100  1
  Ca  Ca13  1  0.06525000  0.32940100  0.29843300  1
  Ca  Ca14  1  0.81353100  0.88122600  0.46692600  1
  Ca  Ca15  1  0.63122600  0.66430000  0.56769500  1
  Ca  Ca16  1  0.09660500  0.06353100  0.43230500  1
  Ca  Ca17  1  0.41430000  0.34660500  0.53307400  1
  Ca  Ca18  1  0.39979700  0.92881000  0.06517800  1
  Ca  Ca19  1  0.67881000  0.11363300  0.02901300  1
  Ca  Ca20  1  0.08461900  0.64979700  0.97098700  1
  Ca  Ca21  1  0.86363300  0.33461900  0.93482200  1
  Re  Re0  1  0.24893100  0.00065500  0.75058700  1
  Re  Re1  1  0.75065500  0.50006800  0.25172300  1
  Re  Re2  1  0.24834500  0.49893100  0.74827700  1
  Re  Re3  1  0.25006800  0.49834500  0.24941300  1
  Re  Re4  1  0.74018300  0.99882700  0.74010900  1
  Re  Re5  1  0.74882700  0.50871800  0.75864400  1
  Re  Re6  1  0.75007400  0.99018300  0.24135600  1
  Re  Re7  1  0.25871800  0.00007400  0.25989100  1
  O  O0  1  0.76167100  0.47451400  0.08038100  1
  O  O1  1  0.22451400  0.64413300  0.21284300  1
  O  O2  1  0.43128900  0.01167100  0.78715700  1
  O  O3  1  0.39413300  0.68128900  0.91961900  1
  O  O4  1  0.86309600  0.37200000  0.27738600  1
  O  O5  1  0.12200000  0.34461400  0.00890500  1
  O  O6  1  0.33570900  0.11309600  0.99109500  1
  O  O7  1  0.09461400  0.58570900  0.72261400  1
  O  O8  1  0.58556200  0.33024700  0.08468600  1
  O  O9  1  0.08024700  0.49556100  0.24468500  1
  O  O10  1  0.25087500  0.83556200  0.75531500  1
  O  O11  1  0.24556100  0.50087500  0.91531400  1
  O  O12  1  0.16348200  0.88651600  0.50918900  1
  O  O13  1  0.63651600  0.62732700  0.22303400  1
  O  O14  1  0.40429300  0.41348200  0.77696600  1
  O  O15  1  0.37732700  0.65429300  0.49081100  1
  O  O16  1  0.24617800  0.16484400  0.74394400  1
  O  O17  1  0.91484400  0.67090000  0.41866500  1
  O  O18  1  0.25223500  0.49617800  0.58133500  1
  O  O19  1  0.42090000  0.50223500  0.25605600  1
  O  O20  1  0.06535500  0.99021400  0.71065200  1
  O  O21  1  0.74021400  0.52956200  0.42485800  1
  O  O22  1  0.10470400  0.31535500  0.57514100  1
  O  O23  1  0.27956200  0.35470400  0.28934800  1
  O  O24  1  0.62490100  0.93433500  0.28188600  1
  O  O25  1  0.68433500  0.90244900  0.80943400  1
  O  O26  1  0.09301500  0.87490100  0.19056600  1
  O  O27  1  0.65244900  0.34301500  0.71811400  1
  O  O28  1  0.32698800  0.84324400  0.19173200  1
  O  O29  1  0.59324400  0.90151300  0.01625600  1
  O  O30  1  0.41954000  0.12248000  0.32274300  1
  O  O31  1  0.87248000  0.04973700  0.20294100  1
  O  O32  1  0.84679700  0.66954000  0.79705900  1
  O  O33  1  0.79973700  0.09679700  0.67725700  1
  O  O34  1  0.88588800  0.39934400  0.71695200  1
  O  O35  1  0.14934400  0.93239200  0.01345700  1
  O  O36  1  0.91893600  0.13588800  0.98654300  1
  O  O37  1  0.68239200  0.16893600  0.28304800  1
  O  O38  1  0.34507800  0.07014400  0.49143400  1
  O  O39  1  0.82014400  0.82871000  0.22506600  1
  O  O40  1  0.60364300  0.59507800  0.77493400  1
  O  O41  1  0.57871000  0.85364300  0.50856600  1
  O  O42  1  0.16612700  0.14594600  0.29282200  1
  O  O43  1  0.89594600  0.10312400  0.47981900  1
  O  O44  1  0.62330500  0.41612700  0.52018100  1
  O  O45  1  0.85312400  0.87330500  0.70717800  1
  O  O46  1  0.65151300  0.13525700  0.80826800  1
  O  O47  1  0.88525700  0.57698800  0.98374400  1
loop_
_geom_bond_atom_site_label_1
_geom_bond_atom_site_label_2
_geom_bond_distance
_geom_bond_site_symmetry_2
Ca0 O15 2.372907 1_555
Ca0 O12 2.372907 1_555
Ca0 O38 2.383779 1_565
Ca0 O41 2.383779 1_555
Ca0 O1 2.428479 1_555
Ca0 O2 2.428483 1_565
Ca1 O13 2.372907 1_555
Ca1 O14 2.372907 1_554
Ca1 O40 2.383773 1_554
Ca1 O39 2.383779 1_555
Ca1 O3 2.428474 1_554
Ca1 O0 2.428479 1_555
Ca2 O34 2.368364 1_555
Ca2 O37 2.368364 1_555
Ca2 O7 2.377234 1_655
Ca2 O4 2.377239 1_555
Ca2 O21 2.441806 1_555
Ca2 O22 2.441811 1_655
Ca3 O36 2.368358 1_454
Ca3 O35 2.368370 1_545
Ca3 O6 2.377234 1_554
Ca3 O5 2.377234 1_555
Ca3 O20 2.441802 1_544
Ca3 O23 2.441806 1_555
Ca4 O27 2.347863 1_555
Ca4 O24 2.347863 1_545
Ca4 O33 2.368621 1_555
Ca4 O30 2.368621 1_555
Ca4 O34 2.517643 1_555
Ca4 O37 2.517643 1_555
Ca4 O43 2.719209 1_555
Ca4 O44 2.719209 1_555
Ca5 O26 2.347863 1_655
Ca5 O25 2.347863 1_554
Ca5 O32 2.368622 1_554
Ca5 O31 2.368630 1_565
Ca5 O35 2.517637 1_655
Ca5 O36 2.517649 1_564
Ca5 O42 2.719209 1_665
Ca5 O45 2.719209 1_554
Ca6 O13 2.235381 1_555
Ca6 O11 2.309660 1_554
Ca6 O28 2.314741 1_555
Ca6 O19 2.340062 1_555
Ca6 O41 2.464632 1_555
Ca6 O1 2.527644 1_555
Ca7 O15 2.235392 1_555
Ca7 O10 2.309665 1_555
Ca7 O29 2.314738 1_556
Ca7 O18 2.340067 1_555
Ca7 O40 2.464625 1_555
Ca7 O3 2.527640 1_555
Ca8 O12 2.235384 1_655
Ca8 O9 2.309660 1_655
Ca8 O47 2.314734 1_554
Ca8 O17 2.340073 1_555
Ca8 O39 2.464632 1_555
Ca8 O0 2.527646 1_555
Ca9 O14 2.235381 1_555
Ca9 O8 2.309658 1_556
Ca9 O46 2.314746 1_555
Ca9 O16 2.340073 1_555
Ca9 O38 2.464634 1_555
Ca9 O2 2.527646 1_555
Ca10 O7 2.249686 1_555
Ca10 O17 2.305546 1_455
Ca10 O45 2.324904 1_455
Ca10 O10 2.330299 1_555
Ca10 O35 2.489390 1_556
Ca10 O20 2.552694 1_555
Ca10 O21 3.049569 1_455
Ca11 O6 2.249674 1_554
Ca11 O19 2.305554 1_555
Ca11 O44 2.324912 1_555
Ca11 O8 2.330305 1_555
Ca11 O37 2.489375 1_555
Ca11 O21 2.552700 1_555
Ca11 O23 3.049575 1_555
Ca12 O5 2.249675 1_556
Ca12 O16 2.305539 1_555
Ca12 O43 2.324909 1_455
Ca12 O11 2.330305 1_555
Ca12 O34 2.489382 1_455
Ca12 O22 2.552712 1_555
Ca12 O20 3.049564 1_545
Ca13 O4 2.249664 1_455
Ca13 O18 2.305547 1_555
Ca13 O42 2.324909 1_555
Ca13 O9 2.330313 1_555
Ca13 O36 2.489389 1_454
Ca13 O23 2.552707 1_555
Ca13 O22 3.049559 1_555
Ca14 O20 2.425080 1_655
Ca14 O24 2.427357 1_555
Ca14 O33 2.446196 1_565
Ca14 O17 2.529083 1_555
Ca14 O13 2.544013 1_555
Ca14 O39 2.549550 1_555
Ca14 O45 2.594487 1_555
Ca14 O43 2.668975 1_565
Ca14 O41 3.032124 1_555
Ca15 O21 2.425087 1_555
Ca15 O25 2.427357 1_555
Ca15 O32 2.446190 1_555
Ca15 O19 2.529083 1_555
Ca15 O15 2.544013 1_555
Ca15 O41 2.549538 1_555
Ca15 O44 2.594487 1_555
Ca15 O45 2.668975 1_555
Ca15 O40 3.032127 1_555
Ca16 O22 2.425077 1_555
Ca16 O26 2.427357 1_545
Ca16 O31 2.446190 1_455
Ca16 O16 2.529083 1_555
Ca16 O12 2.544013 1_545
Ca16 O38 2.549550 1_555
Ca16 O43 2.594487 1_455
Ca16 O42 2.668975 1_555
Ca16 O39 3.032121 1_445
Ca17 O23 2.425087 1_555
Ca17 O27 2.427357 1_555
Ca17 O30 2.446196 1_555
Ca17 O18 2.529077 1_555
Ca17 O14 2.544013 1_555
Ca17 O40 2.549546 1_555
Ca17 O42 2.594487 1_555
Ca17 O44 2.668975 1_555
Ca17 O38 3.032121 1_555
Ca18 O3 2.392797 1_554
Ca18 O24 2.426761 1_555
Ca18 O30 2.469537 1_565
Ca18 O29 2.525081 1_555
Ca18 O10 2.537271 1_554
Ca18 O28 2.578844 1_555
Ca18 O6 2.602843 1_564
Ca18 O35 2.607730 1_555
Ca18 O37 3.084041 1_565
Ca19 O2 2.392794 1_554
Ca19 O25 2.426766 1_544
Ca19 O31 2.469551 1_555
Ca19 O46 2.525085 1_554
Ca19 O8 2.537262 1_555
Ca19 O29 2.578844 1_545
Ca19 O4 2.602828 1_555
Ca19 O37 2.607730 1_555
Ca19 O36 3.084046 1_554
Ca20 O1 2.392788 1_556
Ca20 O26 2.426761 1_556
Ca20 O32 2.469541 1_455
Ca20 O28 2.525080 1_556
Ca20 O11 2.537277 1_555
Ca20 O47 2.578834 1_455
Ca20 O7 2.602832 1_555
Ca20 O34 2.607726 1_455
Ca20 O35 3.084035 1_556
Ca21 O0 2.392797 1_556
Ca21 O27 2.426766 1_555
Ca21 O33 2.469534 1_555
Ca21 O47 2.525080 1_555
Ca21 O9 2.537269 1_656
Ca21 O46 2.578837 1_555
Ca21 O5 2.602821 1_656
Ca21 O36 2.607719 1_555
Ca21 O34 3.084035 1_555
O0 Re1 1.899108 1_555
O0 O13 2.635680 1_555
O1 Re3 1.899108 1_555
O1 O15 2.635680 1_555
O2 Re0 1.899108 1_555
O3 Re2 1.899108 1_555
O4 Re1 1.931403 1_555
O4 O8 2.615316 1_555
O5 Re3 1.931397 1_555
O5 O9 2.615307 1_555
O6 Re0 1.931394 1_555
O7 Re2 1.931403 1_555
O8 Re1 1.919839 1_555
O9 Re3 1.919839 1_555
O10 Re0 1.919839 1_565
O10 O6 2.615313 1_565
O11 Re2 1.919839 1_555
O11 O7 2.615316 1_555
O12 Re0 1.941631 1_565
O12 O16 2.621977 1_565
O12 O2 2.635674 1_565
O13 Re1 1.941629 1_555
O13 O17 2.621976 1_555
O14 Re2 1.941623 1_555
O14 O18 2.621967 1_555
O14 O3 2.635671 1_555
O15 Re3 1.941629 1_555
O15 O19 2.621976 1_555
O16 Re0 1.920909 1_555
O16 O20 2.701107 1_545
O17 Re1 1.920909 1_555
O17 O21 2.701107 1_555
O18 Re2 1.920909 1_555
O18 O22 2.701098 1_555
O19 Re3 1.920909 1_555
O19 O23 2.701107 1_555
O20 Re0 1.897821 1_565
O21 Re1 1.897821 1_555
O22 Re2 1.897821 1_555
O23 Re3 1.897821 1_555
O24 Re6 1.953239 1_555
O24 O43 2.671646 1_565
O25 Re4 1.953239 1_555
O25 O45 2.671646 1_555
O26 Re7 1.953239 1_565
O26 O42 2.671646 1_565
O27 Re5 1.953239 1_555
O27 O44 2.671646 1_555
O28 Re7 1.855756 1_565
O28 O35 2.630066 1_555
O29 Re6 1.855758 1_555
O29 O37 2.630066 1_565
O30 Re7 1.927660 1_555
O31 Re6 1.927651 1_545
O32 Re5 1.927667 1_555
O33 Re4 1.927660 1_545
O34 Re5 2.047319 1_555
O34 O47 2.630066 1_555
O34 O44 2.715817 1_555
O35 Re7 2.047309 1_565
O35 O42 2.715810 1_565
O36 Re4 2.047314 1_545
O36 O46 2.630066 1_555
O36 O45 2.715812 1_545
O37 Re6 2.047319 1_545
O37 O43 2.715817 1_555
O38 Re7 1.928430 1_555
O38 O42 2.660094 1_555
O39 Re6 1.928430 1_555
O39 O43 2.660094 1_565
O40 Re5 1.928440 1_555
O40 O44 2.660101 1_555
O41 Re4 1.928432 1_555
O41 O45 2.660091 1_555
O42 Re7 1.899015 1_555
O43 Re6 1.899015 1_545
O44 Re5 1.899015 1_555
O45 Re4 1.899015 1_555
O46 Re4 1.855755 1_545
O47 Re5 1.855758 1_555
