# generated using pymatgen
data_Os2(CO)7
_symmetry_space_group_name_H-M   'P 1'
_cell_length_a   9.60696474
_cell_length_b   9.60696474
_cell_length_c   11.99458142
_cell_angle_alpha   89.83363864
_cell_angle_beta   89.83363864
_cell_angle_gamma   88.42405174
_symmetry_Int_Tables_number   1
_chemical_formula_structural   Os2(CO)7
_chemical_formula_sum   'Os8 C28 O28'
_cell_volume   1106.59734132
_cell_formula_units_Z   4
loop_
 _symmetry_equiv_pos_site_id
 _symmetry_equiv_pos_as_xyz
  1  'x, y, z'
loop_
 _atom_site_type_symbol
 _atom_site_label
 _atom_site_symmetry_multiplicity
 _atom_site_fract_x
 _atom_site_fract_y
 _atom_site_fract_z
 _atom_site_occupancy
  Os  Os0  1  0.71273400  0.32179600  0.13166300  1
  Os  Os1  1  0.67820400  0.28726600  0.36833700  1
  Os  Os2  1  0.28726600  0.67820400  0.86833700  1
  Os  Os3  1  0.32179600  0.71273400  0.63166300  1
  Os  Os4  1  0.94948400  0.25548000  0.27508800  1
  Os  Os5  1  0.74452000  0.05051600  0.22491200  1
  Os  Os6  1  0.05051600  0.74452000  0.72491200  1
  Os  Os7  1  0.25548000  0.94948400  0.77508800  1
  C  C0  1  0.52256700  0.29577500  0.10290700  1
  C  C1  1  0.70422500  0.47743300  0.39709300  1
  C  C2  1  0.47743300  0.70422500  0.89709300  1
  C  C3  1  0.29577500  0.52256700  0.60290700  1
  C  C4  1  0.68692600  0.51565500  0.15438400  1
  C  C5  1  0.48434500  0.31307400  0.34561600  1
  C  C6  1  0.31307400  0.48434500  0.84561600  1
  C  C7  1  0.51565500  0.68692600  0.65438400  1
  C  C8  1  0.75160500  0.34704900  0.97631500  1
  C  C9  1  0.65295100  0.24839500  0.52368500  1
  C  C10  1  0.24839500  0.65295100  0.02368500  1
  C  C11  1  0.34704900  0.75160500  0.47631500  1
  C  C12  1  0.10999700  0.13199800  0.26942700  1
  C  C13  1  0.86800200  0.89000300  0.23057300  1
  C  C14  1  0.89000300  0.86800200  0.73057300  1
  C  C15  1  0.13199800  0.10999700  0.76942700  1
  C  C16  1  0.03215800  0.42384000  0.32497200  1
  C  C17  1  0.57616000  0.96784200  0.17502800  1
  C  C18  1  0.96784200  0.57616000  0.67502800  1
  C  C19  1  0.42384000  0.03215800  0.82497200  1
  C  C20  1  0.98685900  0.30924800  0.11888900  1
  C  C21  1  0.69075200  0.01314100  0.38111100  1
  C  C22  1  0.01314100  0.69075200  0.88111100  1
  C  C23  1  0.30924800  0.98685900  0.61888900  1
  C  C24  1  0.92240000  0.19821200  0.43191100  1
  C  C25  1  0.80178800  0.07760000  0.06808900  1
  C  C26  1  0.07760000  0.80178800  0.56808900  1
  C  C27  1  0.19821200  0.92240000  0.93191100  1
  O  O0  1  0.40567500  0.27928300  0.08299700  1
  O  O1  1  0.72071700  0.59432500  0.41700300  1
  O  O2  1  0.59432500  0.72071700  0.91700300  1
  O  O3  1  0.27928300  0.40567500  0.58299700  1
  O  O4  1  0.66489200  0.63458600  0.16453600  1
  O  O5  1  0.36541400  0.33510800  0.33546400  1
  O  O6  1  0.33510800  0.36541400  0.83546400  1
  O  O7  1  0.63458600  0.66489200  0.66453600  1
  O  O8  1  0.77110700  0.36671900  0.88216400  1
  O  O9  1  0.63328100  0.22889300  0.61783600  1
  O  O10  1  0.22889300  0.63328100  0.11783600  1
  O  O11  1  0.36671900  0.77110700  0.38216400  1
  O  O12  1  0.20756200  0.05856400  0.26920200  1
  O  O13  1  0.94143600  0.79243800  0.23079800  1
  O  O14  1  0.79243800  0.94143600  0.73079800  1
  O  O15  1  0.05856400  0.20756200  0.76920200  1
  O  O16  1  0.08394300  0.52202000  0.36049300  1
  O  O17  1  0.47798000  0.91605700  0.13950700  1
  O  O18  1  0.91605700  0.47798000  0.63950700  1
  O  O19  1  0.52202000  0.08394300  0.86049300  1
  O  O20  1  0.04881600  0.33575800  0.03770700  1
  O  O21  1  0.66424200  0.95118400  0.46229300  1
  O  O22  1  0.95118400  0.66424200  0.96229300  1
  O  O23  1  0.33575800  0.04881600  0.53770700  1
  O  O24  1  0.94864300  0.15580900  0.52127700  1
  O  O25  1  0.84419100  0.05135700  0.97872300  1
  O  O26  1  0.05135700  0.84419100  0.47872300  1
  O  O27  1  0.15580900  0.94864300  0.02127700  1
loop_
_geom_bond_atom_site_label_1
_geom_bond_atom_site_label_2
_geom_bond_distance
_geom_bond_site_symmetry_2
C0 O0 1.163948 1_555
C0 Os0 1.883721 1_555
C1 O1 1.163948 1_555
C1 Os1 1.883721 1_555
C2 O2 1.163948 1_555
C2 Os2 1.883721 1_555
C3 O3 1.163948 1_555
C3 Os3 1.883721 1_555
C4 O4 1.162948 1_555
C4 Os0 1.892465 1_555
C5 O5 1.162948 1_555
C5 Os1 1.892465 1_555
C6 O6 1.162948 1_555
C6 Os2 1.892465 1_555
C7 O7 1.162948 1_555
C7 Os3 1.892465 1_555
C8 O8 1.160006 1_555
C8 Os0 1.915370 1_556
C9 O9 1.160006 1_555
C9 Os1 1.915370 1_555
C10 O10 1.160006 1_555
C10 Os2 1.915370 1_554
C11 O11 1.160006 1_555
C11 Os3 1.915370 1_555
C12 O12 1.157527 1_555
C12 Os4 1.920683 1_455
C13 O13 1.157527 1_555
C13 Os5 1.920683 1_565
C14 O14 1.157527 1_555
C14 Os6 1.920683 1_655
C15 O15 1.157527 1_555
C15 Os7 1.920683 1_545
C16 O16 1.161057 1_555
C16 Os4 1.919362 1_455
C17 O17 1.161057 1_555
C17 Os5 1.919362 1_565
C18 O18 1.161057 1_555
C18 Os6 1.919362 1_655
C19 O19 1.161057 1_555
C19 Os7 1.919362 1_545
C20 O20 1.170836 1_655
C20 Os4 1.976507 1_555
C20 Os0 2.636983 1_555
C21 O21 1.170836 1_545
C21 Os5 1.976507 1_555
C21 Os1 2.636983 1_555
C22 O22 1.170836 1_455
C22 Os6 1.976507 1_555
C22 Os2 2.636983 1_555
C23 O23 1.170836 1_565
C23 Os7 1.976507 1_555
C23 Os3 2.636983 1_555
C24 O24 1.171272 1_555
C24 Os4 1.976783 1_555
C24 Os1 2.590995 1_555
C25 O25 1.171272 1_554
C25 Os5 1.976783 1_555
C25 Os0 2.590995 1_555
C26 O26 1.171272 1_555
C26 Os6 1.976783 1_555
C26 Os3 2.590995 1_555
C27 O27 1.171272 1_556
C27 Os7 1.976783 1_555
C27 Os2 2.590995 1_555
