# generated using pymatgen
data_Th(TiH3)2
_symmetry_space_group_name_H-M   'P 1'
_cell_length_a   6.20866645
_cell_length_b   6.20866645
_cell_length_c   10.01917900
_cell_angle_alpha   90.00000000
_cell_angle_beta   90.00000000
_cell_angle_gamma   120.00000480
_symmetry_Int_Tables_number   1
_chemical_formula_structural   Th(TiH3)2
_chemical_formula_sum   'Th4 Ti8 H24'
_cell_volume   334.47172031
_cell_formula_units_Z   4
loop_
 _symmetry_equiv_pos_site_id
 _symmetry_equiv_pos_as_xyz
  1  'x, y, z'
loop_
 _atom_site_type_symbol
 _atom_site_label
 _atom_site_symmetry_multiplicity
 _atom_site_fract_x
 _atom_site_fract_y
 _atom_site_fract_z
 _atom_site_occupancy
  Th  Th0  1  0.33333300  0.66666700  0.43964900  1
  Th  Th1  1  0.66666700  0.33333300  0.93964900  1
  Th  Th2  1  0.66666700  0.33333300  0.56035100  1
  Th  Th3  1  0.33333300  0.66666700  0.06035100  1
  Ti  Ti0  1  0.16692000  0.33384000  0.75000000  1
  Ti  Ti1  1  0.83308000  0.16692000  0.25000000  1
  Ti  Ti2  1  0.33384000  0.16692000  0.25000000  1
  Ti  Ti3  1  0.66616000  0.83308000  0.75000000  1
  Ti  Ti4  1  0.16692000  0.83308000  0.75000000  1
  Ti  Ti5  1  0.83308000  0.66616000  0.25000000  1
  Ti  Ti6  1  0.00000000  0.00000000  0.50000000  1
  Ti  Ti7  1  0.00000000  0.00000000  0.00000000  1
  H  H0  1  0.15423900  0.84576100  0.56757500  1
  H  H1  1  0.15423900  0.30847900  0.56757500  1
  H  H2  1  0.69152100  0.84576100  0.56757500  1
  H  H3  1  0.30847900  0.15423900  0.06757500  1
  H  H4  1  0.84576100  0.69152100  0.43242500  1
  H  H5  1  0.84576100  0.15423900  0.06757500  1
  H  H6  1  0.84576100  0.69152100  0.06757500  1
  H  H7  1  0.15423900  0.84576100  0.93242500  1
  H  H8  1  0.69152100  0.84576100  0.93242500  1
  H  H9  1  0.30847900  0.15423900  0.43242500  1
  H  H10  1  0.84576100  0.15423900  0.43242500  1
  H  H11  1  0.15423900  0.30847900  0.93242500  1
  H  H12  1  0.54189400  0.08378900  0.35262600  1
  H  H13  1  0.45810600  0.54189400  0.85262600  1
  H  H14  1  0.08378900  0.54189400  0.85262600  1
  H  H15  1  0.91621100  0.45810600  0.35262600  1
  H  H16  1  0.54189400  0.45810600  0.35262600  1
  H  H17  1  0.45810600  0.91621100  0.64737400  1
  H  H18  1  0.45810600  0.54189400  0.64737400  1
  H  H19  1  0.45810600  0.91621100  0.85262600  1
  H  H20  1  0.08378900  0.54189400  0.64737400  1
  H  H21  1  0.91621100  0.45810600  0.14737400  1
  H  H22  1  0.54189400  0.08378900  0.14737400  1
  H  H23  1  0.54189400  0.45810600  0.14737400  1
loop_
_geom_bond_atom_site_label_1
_geom_bond_atom_site_label_2
_geom_bond_distance
_geom_bond_site_symmetry_2
H0 Ti6 1.791505 1_565
H0 Ti4 1.832829 1_555
H0 H17 1.888026 1_555
H0 H20 1.888026 1_555
H0 H4 2.141183 1_455
H0 H9 2.141183 1_565
H0 Th0 2.313436 1_555
H1 Ti6 1.791510 1_555
H1 Ti0 1.832828 1_555
H1 H20 1.888015 1_555
H1 H18 1.888022 1_555
H1 H10 2.141183 1_455
H1 H9 2.141191 1_555
H1 Th0 2.313436 1_555
H2 Ti6 1.791510 1_665
H2 Ti3 1.832828 1_555
H2 H4 2.141191 1_555
H2 Th0 2.313436 1_555
H3 Ti7 1.791510 1_555
H3 Ti2 1.832828 1_555
H3 H7 2.141183 1_544
H3 Th1 2.313436 1_554
H4 Ti6 1.791510 1_665
H4 Ti5 1.832828 1_555
H4 Th2 2.313436 1_555
H5 Ti7 1.791505 1_655
H5 Ti1 1.832829 1_555
H5 H8 2.141183 1_544
H5 Th1 2.313436 1_554
H6 Ti7 1.791510 1_665
H6 Ti5 1.832828 1_555
H6 H7 2.141183 1_654
H6 H8 2.141191 1_554
H6 Th1 2.313436 1_554
H7 Ti7 1.791505 1_566
H7 Ti4 1.832829 1_555
H7 Th3 2.313436 1_556
H8 Ti7 1.791510 1_666
H8 Ti3 1.832828 1_555
H8 Th3 2.313436 1_556
H9 Ti6 1.791510 1_555
H9 Ti2 1.832828 1_555
H9 Th2 2.313436 1_555
H10 Ti6 1.791505 1_655
H10 Ti1 1.832829 1_555
H10 H15 1.888026 1_555
H10 H12 1.888026 1_555
H10 H2 2.141183 1_545
H10 Th2 2.313436 1_555
H11 Ti7 1.791510 1_556
H11 Ti0 1.832828 1_555
H11 H14 1.888015 1_555
H11 H13 1.888022 1_555
H11 H5 2.141183 1_456
H11 H3 2.141191 1_556
H11 Th3 2.313436 1_556
H12 H9 1.888015 1_555
H12 Ti2 1.912836 1_555
H12 Ti1 1.912841 1_555
H12 H22 2.056457 1_555
H12 H15 2.324009 1_555
H12 H16 2.324009 1_555
H12 Th0 2.406324 1_545
H12 Th2 2.476260 1_555
H13 H8 1.888022 1_555
H13 Ti0 1.912840 1_555
H13 Ti3 1.912840 1_555
H13 H18 2.056457 1_555
H13 H14 2.324009 1_555
H13 H19 2.324009 1_555
H13 Th1 2.406324 1_555
H13 Th3 2.476266 1_556
H14 H7 1.888026 1_555
H14 Ti0 1.912836 1_555
H14 Ti4 1.912841 1_555
H14 H20 2.056457 1_555
H14 H19 2.324009 1_555
H14 Th1 2.406324 1_455
H14 Th3 2.476260 1_556
H15 H4 1.888015 1_555
H15 Ti5 1.912836 1_555
H15 Ti1 1.912841 1_555
H15 H21 2.056457 1_555
H15 H16 2.324009 1_555
H15 Th0 2.406324 1_655
H15 Th2 2.476260 1_555
H16 H9 1.888022 1_555
H16 H4 1.888022 1_555
H16 Ti2 1.912840 1_555
H16 Ti5 1.912840 1_555
H16 H23 2.056457 1_555
H16 Th0 2.406324 1_555
H16 Th2 2.476266 1_555
H17 H2 1.888015 1_555
H17 Ti3 1.912836 1_555
H17 Ti4 1.912841 1_555
H17 H19 2.056457 1_555
H17 H20 2.324009 1_555
H17 H18 2.324009 1_555
H17 Th2 2.406324 1_565
H17 Th0 2.476260 1_555
H18 H2 1.888022 1_555
H18 Ti0 1.912840 1_555
H18 Ti3 1.912840 1_555
H18 H20 2.324009 1_555
H18 Th2 2.406324 1_555
H18 Th0 2.476266 1_555
H19 H8 1.888015 1_555
H19 H7 1.888026 1_555
H19 Ti3 1.912836 1_555
H19 Ti4 1.912841 1_555
H19 Th1 2.406324 1_565
H19 Th3 2.476260 1_556
H20 Ti0 1.912836 1_555
H20 Ti4 1.912841 1_555
H20 Th2 2.406324 1_455
H20 Th0 2.476260 1_555
H21 H6 1.888015 1_555
H21 H5 1.888026 1_555
H21 Ti5 1.912836 1_555
H21 Ti1 1.912841 1_555
H21 H22 2.324009 1_555
H21 H23 2.324009 1_555
H21 Th3 2.406324 1_655
H21 Th1 2.476260 1_554
H22 H3 1.888015 1_555
H22 H5 1.888026 1_555
H22 Ti2 1.912836 1_555
H22 Ti1 1.912841 1_555
H22 H23 2.324009 1_555
H22 Th3 2.406324 1_545
H22 Th1 2.476260 1_554
H23 H3 1.888022 1_555
H23 H6 1.888022 1_555
H23 Ti2 1.912840 1_555
H23 Ti5 1.912840 1_555
H23 Th3 2.406324 1_555
H23 Th1 2.476266 1_554
