# generated using pymatgen
data_Na4Ca2Y2SiS5O24
_symmetry_space_group_name_H-M   'P 1'
_cell_length_a   9.30367231
_cell_length_b   9.28538506
_cell_length_c   23.73659272
_cell_angle_alpha   89.96935107
_cell_angle_beta   89.84584602
_cell_angle_gamma   119.95041959
_symmetry_Int_Tables_number   1
_chemical_formula_structural   Na4Ca2Y2SiS5O24
_chemical_formula_sum   'Na12 Ca6 Y6 Si3 S15 O72'
_cell_volume   1776.71390187
_cell_formula_units_Z   3
loop_
 _symmetry_equiv_pos_site_id
 _symmetry_equiv_pos_as_xyz
  1  'x, y, z'
loop_
 _atom_site_type_symbol
 _atom_site_label
 _atom_site_symmetry_multiplicity
 _atom_site_fract_x
 _atom_site_fract_y
 _atom_site_fract_z
 _atom_site_occupancy
  Na  Na0  1  0.99629817  0.63311880  0.23545015  1
  Na  Na1  1  0.98513871  0.34519148  0.76103991  1
  Na  Na2  1  0.37495045  0.00072728  0.75124642  1
  Na  Na3  1  0.65536659  0.97962332  0.59429778  1
  Na  Na4  1  0.68317189  0.67950403  0.07507544  1
  Na  Na5  1  0.33874757  0.03611861  0.42655935  1
  Na  Na6  1  0.02810352  0.00443527  0.50320674  1
  Na  Na7  1  0.01751509  0.98664287  0.00505452  1
  Na  Na8  1  0.66602309  0.32742211  0.84513357  1
  Na  Na9  1  0.66627296  0.33353446  0.32845215  1
  Na  Na10  1  0.30796511  0.66128727  0.15987497  1
  Na  Na11  1  0.36306080  0.69564661  0.66863499  1
  Ca  Ca0  1  0.99361104  0.00454000  0.35112659  1
  Ca  Ca1  1  0.67044314  0.32989193  0.17877853  1
  Ca  Ca2  1  0.67829372  0.33905453  0.98740333  1
  Ca  Ca3  1  0.66290799  0.33445982  0.48392920  1
  Ca  Ca4  1  0.33937380  0.66200841  0.31449564  1
  Ca  Ca5  1  0.35241915  0.67662465  0.81746143  1
  Y  Y0  1  0.98129405  0.99415117  0.85244207  1
  Y  Y1  1  0.00062660  0.99415583  0.64783981  1
  Y  Y2  1  0.00655257  0.00665025  0.14972135  1
  Y  Y3  1  0.65885210  0.32707006  0.68065219  1
  Y  Y4  1  0.31694495  0.66883349  0.01660647  1
  Y  Y5  1  0.32786660  0.66501159  0.51809448  1
  Si  Si0  1  0.69969766  0.00262920  0.74421816  1
  Si  Si1  1  0.35938645  0.02532931  0.57975873  1
  Si  Si2  1  0.96986982  0.64037725  0.08904340  1
  S  S0  1  0.29862680  0.99961784  0.25390659  1
  S  S1  1  0.70356005  0.70039512  0.24912938  1
  S  S2  1  0.99698594  0.30502230  0.25118298  1
  S  S3  1  0.29087030  0.29091052  0.75047880  1
  S  S4  1  0.00058406  0.69968943  0.75142721  1
  S  S5  1  0.96544859  0.33310171  0.58412108  1
  S  S6  1  0.66642070  0.63715346  0.58244729  1
  S  S7  1  0.66452294  0.02312519  0.08251486  1
  S  S8  1  0.36831188  0.33755130  0.08206670  1
  S  S9  1  0.63473476  0.66280626  0.91931558  1
  S  S10  1  0.03258340  0.36598826  0.91217360  1
  S  S11  1  0.33290748  0.97448908  0.91268174  1
  S  S12  1  0.62979953  0.96389606  0.41818874  1
  S  S13  1  0.33336255  0.36277500  0.41668894  1
  S  S14  1  0.03702504  0.66963488  0.41401758  1
  O  O0  1  0.22361204  0.01451751  0.30731498  1
  O  O1  1  0.80657503  0.79007058  0.29858768  1
  O  O2  1  0.99348840  0.21387011  0.30239262  1
  O  O3  1  0.21450506  0.18291089  0.80060345  1
  O  O4  1  0.98461173  0.78248627  0.80231751  1
  O  O5  1  0.82801711  0.03047129  0.79659631  1
  O  O6  1  0.78446725  0.99317060  0.68477365  1
  O  O7  1  0.19152153  0.20685277  0.69965811  1
  O  O8  1  0.02586729  0.80553778  0.70112345  1
  O  O9  1  0.78774814  0.79704573  0.19684250  1
  O  O10  1  0.00493625  0.21697185  0.20006492  1
  O  O11  1  0.19025753  0.98917425  0.20549465  1
  O  O12  1  0.89348346  0.35755392  0.63720430  1
  O  O13  1  0.47902015  0.12226078  0.63547128  1
  O  O14  1  0.65689939  0.54492312  0.63470260  1
  O  O15  1  0.90128918  0.54829962  0.14952892  1
  O  O16  1  0.63510815  0.09387168  0.13354867  1
  O  O17  1  0.46734931  0.35797711  0.13293556  1
  O  O18  1  0.43872621  0.30574986  0.03136654  1
  O  O19  1  0.83616910  0.54465730  0.03915124  1
  O  O20  1  0.68108605  0.11912513  0.03137197  1
  O  O21  1  0.44300030  0.12461936  0.52177062  1
  O  O22  1  0.68772435  0.55943036  0.53215891  1
  O  O23  1  0.86119054  0.31754973  0.53567686  1
  O  O24  1  0.55328194  0.67598439  0.97159261  1
  O  O25  1  0.13743000  0.46102487  0.96074663  1
  O  O26  1  0.31935421  0.86658330  0.96128885  1
  O  O27  1  0.54773237  0.86892225  0.47121477  1
  O  O28  1  0.32646062  0.45095655  0.46821474  1
  O  O29  1  0.14366939  0.68056214  0.46344108  1
  O  O30  1  0.11435814  0.65520189  0.36161648  1
  O  O31  1  0.52567980  0.87329457  0.36943837  1
  O  O32  1  0.33740668  0.45410207  0.36584791  1
  O  O33  1  0.10984133  0.45231165  0.85826897  1
  O  O34  1  0.34362965  0.89716128  0.85901927  1
  O  O35  1  0.53946272  0.65735456  0.86902407  1
  O  O36  1  0.03549514  0.83024285  0.41534509  1
  O  O37  1  0.79719628  0.98345418  0.41588987  1
  O  O38  1  0.18456996  0.19088932  0.41807084  1
  O  O39  1  0.02156027  0.19954383  0.91337866  1
  O  O40  1  0.17890445  0.98746908  0.91295827  1
  O  O41  1  0.80377564  0.81705272  0.91698295  1
  O  O42  1  0.97271160  0.17630957  0.58724086  1
  O  O43  1  0.17212383  0.99819615  0.58636514  1
  O  O44  1  0.80843699  0.81152739  0.58535612  1
  O  O45  1  0.98949246  0.83029463  0.08930377  1
  O  O46  1  0.81782586  0.00871949  0.08791968  1
  O  O47  1  0.19381287  0.19932990  0.08890275  1
  O  O48  1  0.68676336  0.17696957  0.74598375  1
  O  O49  1  0.46053426  0.31353080  0.74493716  1
  O  O50  1  0.85029953  0.53327737  0.74598066  1
  O  O51  1  0.69233749  0.53453857  0.24762001  1
  O  O52  1  0.84569878  0.32216427  0.25076968  1
  O  O53  1  0.46727567  0.14313830  0.24791865  1
  O  O54  1  0.65423000  0.51480613  0.91952261  1
  O  O55  1  0.86481281  0.34503688  0.91653050  1
  O  O56  1  0.48147344  0.14043305  0.91767305  1
  O  O57  1  0.63994786  0.12932466  0.41959605  1
  O  O58  1  0.48353434  0.34338909  0.41685922  1
  O  O59  1  0.86844577  0.52606117  0.41986570  1
  O  O60  1  0.36468339  0.49735757  0.07576595  1
  O  O61  1  0.15728210  0.66505557  0.07899018  1
  O  O62  1  0.52410641  0.84656351  0.07685520  1
  O  O63  1  0.35668314  0.84365560  0.58133290  1
  O  O64  1  0.51245808  0.65021596  0.58031001  1
  O  O65  1  0.13641391  0.47537821  0.57906651  1
  O  O66  1  0.29963061  0.83900268  0.25254954  1
  O  O67  1  0.53681109  0.68220380  0.25143360  1
  O  O68  1  0.14531473  0.47651925  0.25004069  1
  O  O69  1  0.29593478  0.45165013  0.75544578  1
  O  O70  1  0.14835906  0.67782584  0.75487352  1
  O  O71  1  0.51157303  0.84475277  0.74938857  1
loop_
_geom_bond_atom_site_label_1
_geom_bond_atom_site_label_2
_geom_bond_distance
_geom_bond_site_symmetry_2
Na0 O15 2.208479 1_555
Na0 O68 2.484229 1_655
Na0 O51 2.515800 1_555
Na0 O52 2.527599 1_555
Na0 O66 2.530551 1_655
Na0 O11 2.953952 1_655
Na1 O48 2.439265 1_555
Na1 O69 2.549426 1_655
Na1 O33 2.554667 1_655
Na1 O50 2.634580 1_555
Na1 O5 2.667267 1_555
Na1 O70 2.679963 1_655
Na1 O12 3.080823 1_555
Na1 O7 3.147919 1_655
Na2 O71 2.356491 1_545
Na2 O48 2.523294 1_555
Na2 O49 2.604271 1_555
Na2 O70 2.669964 1_545
Na2 O34 2.695816 1_545
Na2 O13 2.941838 1_555
Na2 O3 2.996093 1_555
Na2 O8 3.064948 1_545
Na3 O63 2.431585 1_555
Na3 O6 2.435967 1_555
Na3 O42 2.587186 1_565
Na3 O44 2.593756 1_555
Na3 O64 2.678865 1_555
Na3 O13 2.750195 1_565
Na3 O23 3.070852 1_565
Na3 O27 3.096145 1_555
Na4 O19 2.468864 1_555
Na4 O45 2.493556 1_555
Na4 O60 2.576143 1_555
Na4 O62 2.624890 1_555
Na4 O46 2.680705 1_565
Na4 O24 2.733424 1_554
Na4 O17 2.970914 1_555
Na4 O9 3.074095 1_555
Na5 O21 2.437529 1_555
Na5 O58 2.483539 1_555
Na5 O57 2.490943 1_555
Na5 O38 2.494592 1_555
Na5 O36 2.510885 1_545
Na5 O29 2.994250 1_545
Na5 O0 3.000255 1_555
Na5 O31 3.124703 1_545
Na6 O43 2.405540 1_545
Na6 O38 2.581512 1_555
Na6 O36 2.661619 1_545
Na6 O44 2.739905 1_445
Na6 O42 2.758695 1_455
Na6 O37 2.924939 1_445
Na7 O45 2.406426 1_455
Na7 O40 2.646552 1_554
Na7 O47 2.709066 1_565
Na7 O41 2.775525 1_454
Na7 O46 2.779115 1_465
Na7 O39 2.926667 1_564
Na8 O56 2.435491 1_555
Na8 O55 2.456522 1_555
Na8 O54 2.519943 1_555
Na8 O48 2.792485 1_555
Na8 O50 2.972117 1_555
Na8 O49 3.017714 1_555
Na9 O52 2.521393 1_555
Na9 O51 2.601026 1_555
Na9 O53 2.638527 1_555
Na9 O58 2.727421 1_555
Na9 O57 2.804457 1_555
Na9 O59 2.847916 1_555
Na10 O61 2.390833 1_555
Na10 O68 2.683330 1_555
Na10 O60 2.716773 1_555
Na10 O62 2.721660 1_555
Na10 O66 2.774668 1_555
Na10 O67 2.984371 1_555
Na11 O71 2.367939 1_555
Na11 O63 2.503109 1_555
Na11 O64 2.660088 1_555
Na11 O70 2.802729 1_555
Na11 O69 2.888651 1_555
Na11 O65 2.978610 1_555
Ca0 O1 2.259040 1_545
Ca0 O2 2.261850 1_555
Ca0 O37 2.316922 1_545
Ca0 O0 2.336451 1_655
Ca0 O38 2.371503 1_655
Ca0 O36 2.392690 1_645
Ca1 O15 2.202029 1_555
Ca1 O17 2.307627 1_555
Ca1 O16 2.312699 1_555
Ca1 O52 2.390714 1_555
Ca1 O51 2.437441 1_555
Ca1 O53 2.445545 1_555
Ca2 O19 2.126773 1_556
Ca2 O20 2.304570 1_556
Ca2 O18 2.334805 1_556
Ca2 O54 2.381885 1_555
Ca2 O55 2.394243 1_555
Ca2 O56 2.478207 1_555
Ca3 O21 2.190196 1_555
Ca3 O23 2.288611 1_555
Ca3 O22 2.291279 1_555
Ca3 O58 2.340662 1_555
Ca3 O57 2.367322 1_555
Ca3 O59 2.391390 1_555
Ca4 O31 2.274559 1_555
Ca4 O32 2.274862 1_555
Ca4 O67 2.300205 1_555
Ca4 O68 2.340852 1_555
Ca4 O30 2.343683 1_555
Ca4 O66 2.367876 1_555
Ca5 O35 2.209163 1_555
Ca5 O71 2.217391 1_555
Ca5 O34 2.311285 1_555
Ca5 O33 2.379565 1_555
Ca5 O69 2.391276 1_555
Ca5 O70 2.418230 1_555
O0 S0 1.484994 1_545
O1 S1 1.483363 1_555
O2 S2 1.471786 1_555
O3 S3 1.486197 1_555
O3 Y0 2.340912 1_445
O4 S4 1.478652 1_655
O4 Y0 2.311316 1_555
O5 Si0 1.654688 1_555
O5 Y0 2.096283 1_545
O6 Si0 1.638282 1_565
O6 Y1 2.187514 1_655
O7 S3 1.485053 1_555
O7 Y1 2.253812 1_545
O8 S4 1.487761 1_555
O8 Y1 2.265405 1_555
O9 S1 1.500318 1_555
O9 Y2 2.283059 1_665
O10 S2 1.485644 1_455
O10 Y2 2.296481 1_555
O11 S0 1.501724 1_555
O11 Y2 2.233598 1_565
O12 S5 1.495001 1_555
O12 Y3 2.297720 1_555
O13 Si1 1.675306 1_555
O13 Y3 2.097807 1_555
O14 S6 1.484009 1_555
O14 Y3 2.305708 1_555
O15 Si2 1.627404 1_555
O16 S7 1.467108 1_555
O17 S8 1.474670 1_555
O18 S8 1.467635 1_555
O19 Si2 1.626312 1_555
O20 S7 1.467211 1_555
O21 Si1 1.620643 1_555
O22 S6 1.458579 1_555
O23 S5 1.466393 1_555
O24 S9 1.488866 1_555
O24 Y4 2.412941 1_556
O25 S10 1.485661 1_555
O25 Y4 2.251122 1_556
O26 S11 1.490907 1_555
O26 Y4 2.247742 1_556
O27 S12 1.505391 1_555
O27 Y5 2.264011 1_555
O28 S13 1.491157 1_555
O28 Y5 2.308484 1_555
O29 S14 1.508929 1_555
O29 Y5 2.213468 1_555
O30 S14 1.474568 1_555
O31 S12 1.475976 1_555
O32 S13 1.464132 1_555
O33 S10 1.488273 1_555
O34 S11 1.489896 1_555
O35 S9 1.474525 1_555
O36 S14 1.498811 1_555
O37 S12 1.476005 1_555
O38 S13 1.502768 1_555
O39 S10 1.497192 1_555
O39 Y0 2.272045 1_445
O40 S11 1.496611 1_555
O40 Y0 2.361216 1_455
O41 S9 1.509338 1_555
O41 Y0 2.247369 1_555
O42 S5 1.492570 1_555
O42 Y1 2.331356 1_645
O43 Si1 1.638181 1_565
O43 Y1 2.145718 1_555
O44 S6 1.495532 1_555
O44 Y1 2.293888 1_655
O45 Si2 1.679793 1_555
O45 Y2 2.123105 1_665
O46 S7 1.503359 1_555
O46 Y2 2.298450 1_655
O47 S8 1.492341 1_555
O47 Y2 2.278514 1_555
O48 Si0 1.682666 1_555
O48 Y3 2.185407 1_555
O49 S3 1.490262 1_555
O49 Y3 2.345541 1_555
O50 S4 1.484333 1_655
O50 Y3 2.419918 1_555
O51 S1 1.491119 1_555
O52 S2 1.493430 1_555
O53 S0 1.472689 1_545
O54 S9 1.473205 1_555
O55 S10 1.476755 1_655
O56 S11 1.474197 1_545
O57 S12 1.491575 1_545
O58 S13 1.495189 1_555
O59 S14 1.472171 1_655
O60 S8 1.508364 1_555
O60 Y4 2.326243 1_555
O61 Si2 1.657838 1_455
O61 Y4 2.082444 1_555
O62 S7 1.508348 1_565
O62 Y4 2.307550 1_555
O63 Si1 1.674891 1_565
O63 Y5 2.153461 1_555
O64 S6 1.497654 1_555
O64 Y5 2.323397 1_555
O65 S5 1.479974 1_455
O65 Y5 2.284622 1_555
O66 S0 1.496421 1_555
O67 S1 1.475186 1_555
O68 S2 1.498812 1_455
O69 S3 1.474368 1_555
O70 S4 1.489093 1_555
O71 Si0 1.632225 1_565
