# generated using pymatgen
data_Na3Zr2Sc2P5SO24
_symmetry_space_group_name_H-M   'P 1'
_cell_length_a   8.91782803
_cell_length_b   8.89766474
_cell_length_c   23.23317990
_cell_angle_alpha   90.07332872
_cell_angle_beta   89.99011048
_cell_angle_gamma   119.91628106
_symmetry_Int_Tables_number   1
_chemical_formula_structural   Na3Zr2Sc2P5SO24
_chemical_formula_sum   'Na9 Zr6 Sc6 P15 S3 O72'
_cell_volume   1597.86379310
_cell_formula_units_Z   3
loop_
 _symmetry_equiv_pos_site_id
 _symmetry_equiv_pos_as_xyz
  1  'x, y, z'
loop_
 _atom_site_type_symbol
 _atom_site_label
 _atom_site_symmetry_multiplicity
 _atom_site_fract_x
 _atom_site_fract_y
 _atom_site_fract_z
 _atom_site_occupancy
  Na  Na0  1  0.00337743  0.36496212  0.75086745  1
  Na  Na1  1  0.66749706  0.96648024  0.58350661  1
  Na  Na2  1  0.03464594  0.33350614  0.08346558  1
  Na  Na3  1  0.00534125  0.99610889  0.50238255  1
  Na  Na4  1  0.00434919  0.99569676  0.00182367  1
  Na  Na5  1  0.65996805  0.32893314  0.83385991  1
  Na  Na6  1  0.67466076  0.33592883  0.33322151  1
  Na  Na7  1  0.34162465  0.66982427  0.16719076  1
  Na  Na8  1  0.33388286  0.66683261  0.66662283  1
  Zr  Zr0  1  0.98460704  0.99178093  0.35291579  1
  Zr  Zr1  1  0.00663877  0.00488397  0.85237314  1
  Zr  Zr2  1  0.66100593  0.33492835  0.68528022  1
  Zr  Zr3  1  0.67110879  0.33864980  0.18564536  1
  Zr  Zr4  1  0.66524642  0.32772807  0.98126937  1
  Zr  Zr5  1  0.67329236  0.33526405  0.48101370  1
  Sc  Sc0  1  0.00524901  0.99753074  0.64846069  1
  Sc  Sc1  1  0.99299999  0.99578986  0.14800197  1
  Sc  Sc2  1  0.33063101  0.67124603  0.01901971  1
  Sc  Sc3  1  0.32679541  0.66904159  0.51882693  1
  Sc  Sc4  1  0.33043289  0.66639433  0.31428069  1
  Sc  Sc5  1  0.33391215  0.67626677  0.81441991  1
  P  P0  1  0.70375610  0.70824800  0.24906746  1
  P  P1  1  0.00353995  0.29348000  0.24891647  1
  P  P2  1  0.29116658  0.29374144  0.74954521  1
  P  P3  1  0.00139918  0.70956132  0.74974244  1
  P  P4  1  0.70722161  0.99589396  0.74858736  1
  P  P5  1  0.96293843  0.33455690  0.58458557  1
  P  P6  1  0.37235453  0.04156681  0.58238404  1
  P  P7  1  0.66538797  0.62809546  0.58259502  1
  P  P8  1  0.95933896  0.62857978  0.08253840  1
  P  P9  1  0.66411199  0.03773845  0.08414639  1
  P  P10  1  0.37293760  0.33333718  0.08345205  1
  P  P11  1  0.04400670  0.37813660  0.91662605  1
  P  P12  1  0.33302836  0.95570756  0.91694622  1
  P  P13  1  0.61827811  0.95418013  0.41730813  1
  P  P14  1  0.04593231  0.66792838  0.41596787  1
  S  S0  1  0.28966411  0.99883138  0.24985126  1
  S  S1  1  0.62248879  0.66683330  0.91656982  1
  S  S2  1  0.33280537  0.37639049  0.41640568  1
  O  O0  1  0.20980485  0.02574562  0.30221165  1
  O  O1  1  0.82016181  0.79254019  0.30327565  1
  O  O2  1  0.97770587  0.17739280  0.30245550  1
  O  O3  1  0.20680656  0.17936223  0.80377247  1
  O  O4  1  0.97265293  0.79350127  0.80382911  1
  O  O5  1  0.82616030  0.03002518  0.80202833  1
  O  O6  1  0.78993983  0.97422031  0.69347206  1
  O  O7  1  0.17566554  0.20907316  0.69690128  1
  O  O8  1  0.02733881  0.81949075  0.69639292  1
  O  O9  1  0.79425085  0.81975425  0.19626231  1
  O  O10  1  0.02675484  0.21020891  0.19389404  1
  O  O11  1  0.18551082  0.97516382  0.19816460  1
  O  O12  1  0.87612784  0.36001757  0.63910442  1
  O  O13  1  0.49085530  0.12735313  0.63596511  1
  O  O14  1  0.64031836  0.51352235  0.63622200  1
  O  O15  1  0.87320412  0.50913806  0.13593608  1
  O  O16  1  0.63970357  0.12827610  0.13726676  1
  O  O17  1  0.48784589  0.35840732  0.13680986  1
  O  O18  1  0.46256504  0.30814249  0.02995756  1
  O  O19  1  0.84469735  0.53832884  0.02937227  1
  O  O20  1  0.69742406  0.15716117  0.03069962  1
  O  O21  1  0.46345087  0.15578233  0.52916526  1
  O  O22  1  0.69118615  0.53751815  0.52962873  1
  O  O23  1  0.84206703  0.30390105  0.53165422  1
  O  O24  1  0.54465094  0.69227043  0.96866936  1
  O  O25  1  0.15073720  0.45729520  0.97172791  1
  O  O26  1  0.30800370  0.84703208  0.97080418  1
  O  O27  1  0.54435218  0.84969171  0.47297547  1
  O  O28  1  0.30691674  0.45423838  0.46854159  1
  O  O29  1  0.15298490  0.69268786  0.47044312  1
  O  O30  1  0.12767708  0.63907689  0.36228959  1
  O  O31  1  0.51094247  0.86901315  0.36345283  1
  O  O32  1  0.35922103  0.48091889  0.36453422  1
  O  O33  1  0.12565540  0.48308689  0.86146788  1
  O  O34  1  0.36207877  0.87508308  0.86281775  1
  O  O35  1  0.51898958  0.64104220  0.86450138  1
  O  O36  1  0.02628400  0.83167209  0.40902899  1
  O  O37  1  0.80490498  0.97922434  0.41034734  1
  O  O38  1  0.17859137  0.20027837  0.40954226  1
  O  O39  1  0.01945203  0.19211802  0.91010282  1
  O  O40  1  0.16986880  0.97543541  0.91028383  1
  O  O41  1  0.79834860  0.82228395  0.91039961  1
  O  O42  1  0.96836907  0.16479471  0.58938947  1
  O  O43  1  0.19419964  0.02345519  0.58881193  1
  O  O44  1  0.82574303  0.80989681  0.58878638  1
  O  O45  1  0.97882194  0.80751138  0.08992628  1
  O  O46  1  0.83396747  0.03179823  0.08946293  1
  O  O47  1  0.19056480  0.17298851  0.08980655  1
  O  O48  1  0.69741025  0.16696645  0.74366506  1
  O  O49  1  0.47162239  0.31019709  0.74420647  1
  O  O50  1  0.84021488  0.52321520  0.74401416  1
  O  O51  1  0.68827283  0.52651972  0.24381460  1
  O  O52  1  0.83641440  0.30780208  0.24382889  1
  O  O53  1  0.46456844  0.15608851  0.24437249  1
  O  O54  1  0.64334091  0.51111822  0.92257457  1
  O  O55  1  0.86029728  0.35751324  0.92327035  1
  O  O56  1  0.49397650  0.14064943  0.92330712  1
  O  O57  1  0.64270006  0.13971199  0.42315902  1
  O  O58  1  0.48882417  0.35652361  0.42260400  1
  O  O59  1  0.86071776  0.50710039  0.42314904  1
  O  O60  1  0.35065172  0.49378077  0.07689072  1
  O  O61  1  0.13484928  0.63435423  0.07706235  1
  O  O62  1  0.50510045  0.85936518  0.07668066  1
  O  O63  1  0.36555632  0.86497418  0.57698631  1
  O  O64  1  0.50503842  0.64939376  0.57661532  1
  O  O65  1  0.14031802  0.49515923  0.57676461  1
  O  O66  1  0.30964480  0.84482810  0.25617952  1
  O  O67  1  0.52537914  0.68986508  0.25742284  1
  O  O68  1  0.16248678  0.47414493  0.25701724  1
  O  O69  1  0.30475105  0.47165606  0.75778088  1
  O  O70  1  0.15785324  0.68058053  0.75624969  1
  O  O71  1  0.52749697  0.83765254  0.75681079  1
loop_
_geom_bond_atom_site_label_1
_geom_bond_atom_site_label_2
_geom_bond_distance
_geom_bond_site_symmetry_2
Na0 O69 2.367491 1_555
Na0 O48 2.404435 1_455
Na0 O70 2.437226 1_555
Na0 O50 2.483856 1_455
Na0 O33 2.783425 1_555
Na0 O7 2.824387 1_555
Na0 O12 2.825420 1_455
Na0 O5 2.846461 1_455
Na1 O42 2.368217 1_565
Na1 O63 2.379723 1_555
Na1 O44 2.430905 1_555
Na1 O64 2.450772 1_555
Na1 O6 2.765825 1_555
Na1 O27 2.781414 1_555
Na1 O23 2.869668 1_565
Na1 O13 2.873975 1_565
Na2 O61 2.366677 1_555
Na2 O46 2.374337 1_455
Na2 O47 2.444668 1_555
Na2 O60 2.447532 1_555
Na2 O10 2.778659 1_555
Na2 O25 2.809497 1_554
Na2 O15 2.870473 1_455
Na2 O20 2.880675 1_455
Na3 O43 2.553252 1_565
Na3 O44 2.588557 1_455
Na3 O42 2.633118 1_465
Na3 O36 2.672823 1_555
Na3 O37 2.742702 1_455
Na3 O38 2.747549 1_565
Na4 O45 2.583349 1_455
Na4 O47 2.608549 1_565
Na4 O40 2.645332 1_554
Na4 O46 2.653642 1_465
Na4 O39 2.718129 1_564
Na4 O41 2.726329 1_454
Na5 O56 2.617390 1_555
Na5 O49 2.628421 1_555
Na5 O48 2.655469 1_555
Na5 O55 2.667988 1_555
Na5 O54 2.670023 1_555
Na5 O50 2.676887 1_555
Na6 O52 2.610468 1_555
Na6 O59 2.628731 1_555
Na6 O57 2.647308 1_555
Na6 O51 2.647433 1_555
Na6 O53 2.708198 1_555
Na6 O58 2.719057 1_555
Na7 O67 2.611641 1_555
Na7 O62 2.635727 1_555
Na7 O60 2.641732 1_555
Na7 O68 2.678173 1_555
Na7 O66 2.686076 1_555
Na7 O61 2.702546 1_555
Na8 O64 2.638377 1_555
Na8 O70 2.646704 1_555
Na8 O65 2.652247 1_555
Na8 O63 2.652810 1_555
Na8 O71 2.656551 1_555
Na8 O69 2.669831 1_555
O0 S0 1.487775 1_545
O0 Zr0 2.215162 1_445
O1 P0 1.564521 1_555
O1 Zr0 2.006392 1_555
O2 P1 1.559820 1_655
O2 Zr0 2.052329 1_545
O3 P2 1.558280 1_555
O3 Zr1 2.027587 1_555
O4 P3 1.546303 1_655
O4 Zr1 2.080244 1_665
O5 P4 1.561098 1_545
O5 Zr1 2.090222 1_655
O6 P4 1.536870 1_555
O6 Sc0 2.103806 1_655
O7 P2 1.532478 1_555
O7 Sc0 2.064198 1_545
O8 P3 1.524416 1_555
O8 Sc0 2.025911 1_555
O9 P0 1.531296 1_555
O9 Sc1 2.021543 1_555
O10 P1 1.541582 1_555
O10 Sc1 2.071065 1_445
O11 S0 1.467556 1_555
O11 Sc1 2.157490 1_455
O12 P5 1.558493 1_555
O12 Zr2 2.110408 1_555
O13 P6 1.562848 1_555
O13 Zr2 2.055752 1_555
O14 P7 1.554791 1_555
O14 Zr2 2.038481 1_555
O15 P8 1.564395 1_555
O15 Zr3 2.039562 1_555
O16 P9 1.546524 1_555
O16 Zr3 2.077827 1_555
O17 P10 1.551885 1_555
O17 Zr3 2.068071 1_555
O18 P10 1.552882 1_555
O18 Zr4 2.064590 1_554
O19 P8 1.547520 1_555
O19 Zr4 2.079765 1_554
O20 P9 1.564492 1_555
O20 Zr4 2.035543 1_554
O21 P6 1.549482 1_555
O21 Zr5 2.080064 1_555
O22 P7 1.548894 1_555
O22 Zr5 2.061100 1_555
O23 P5 1.566824 1_555
O23 Zr5 2.036628 1_555
O24 S1 1.467631 1_555
O24 Sc2 2.165596 1_556
O25 P11 1.539586 1_555
O25 Sc2 2.086583 1_556
O26 P12 1.529149 1_555
O26 Sc2 2.015268 1_556
O27 P13 1.537235 1_555
O27 Sc3 2.091797 1_555
O28 S2 1.468863 1_555
O28 Sc3 2.169237 1_555
O29 P14 1.533521 1_555
O29 Sc3 2.009210 1_555
O30 P14 1.529102 1_555
O30 Sc4 2.033271 1_555
O31 P13 1.526604 1_555
O31 Sc4 2.060885 1_555
O32 S2 1.468705 1_555
O32 Sc4 2.140141 1_555
O33 P11 1.539138 1_555
O33 Sc5 2.101996 1_555
O34 P12 1.531727 1_555
O34 Sc5 2.002148 1_555
O35 S1 1.468463 1_555
O35 Sc5 2.166512 1_555
O36 P14 1.560322 1_555
O36 Zr0 2.097681 1_455
O37 P13 1.573467 1_555
O37 Zr0 2.045021 1_555
O38 S2 1.490666 1_555
O38 Zr0 2.226752 1_445
O39 P11 1.564683 1_555
O39 Zr1 2.095667 1_555
O40 P12 1.557814 1_555
O40 Zr1 2.092811 1_565
O41 S1 1.493292 1_555
O41 Zr1 2.214035 1_665
O42 P5 1.539407 1_555
O42 Sc0 2.167998 1_645
O43 P6 1.522173 1_555
O43 Sc0 2.103657 1_545
O44 P7 1.540916 1_555
O44 Sc0 2.145005 1_655
O45 P8 1.522413 1_555
O45 Sc1 2.103800 1_555
O46 P9 1.546749 1_555
O46 Sc1 2.102084 1_545
O47 P10 1.545436 1_555
O47 Sc1 2.156819 1_445
O48 P4 1.571927 1_545
O48 Zr2 2.160583 1_555
O49 P2 1.546459 1_555
O49 Zr2 2.098649 1_555
O50 P3 1.566915 1_655
O50 Zr2 2.132396 1_555
O51 P0 1.557341 1_555
O51 Zr3 2.093608 1_555
O52 P1 1.562382 1_655
O52 Zr3 2.116853 1_555
O53 S0 1.493435 1_545
O53 Zr3 2.216584 1_555
O54 S1 1.493703 1_555
O54 Zr4 2.209995 1_555
O55 P11 1.562566 1_655
O55 Zr4 2.109953 1_555
O56 P12 1.559918 1_545
O56 Zr4 2.091907 1_555
O57 P13 1.559445 1_545
O57 Zr5 2.104582 1_555
O58 S2 1.494421 1_555
O58 Zr5 2.212549 1_555
O59 P14 1.564174 1_655
O59 Zr5 2.096218 1_555
O60 P10 1.544108 1_555
O60 Sc2 2.149344 1_555
O61 P8 1.545419 1_455
O61 Sc2 2.098389 1_555
O62 P9 1.521290 1_565
O62 Sc2 2.101051 1_555
O63 P6 1.546851 1_565
O63 Sc3 2.092269 1_555
O64 P7 1.539631 1_555
O64 Sc3 2.153675 1_555
O65 P5 1.524171 1_455
O65 Sc3 2.099827 1_555
O66 S0 1.474813 1_555
O66 Sc4 2.162474 1_555
O67 P0 1.528175 1_555
O67 Sc4 2.109211 1_555
O68 P1 1.534661 1_555
O68 Sc4 2.092510 1_555
O69 P2 1.537920 1_555
O69 Sc5 2.152999 1_555
O70 P3 1.547596 1_555
O70 Sc5 2.086634 1_555
O71 P4 1.528849 1_555
O71 Sc5 2.089290 1_555
