# generated using pymatgen
data_Sb2(SO4)3
_symmetry_space_group_name_H-M   'P 1'
_cell_length_a   8.55668862
_cell_length_b   8.55668862
_cell_length_c   8.55668923
_cell_angle_alpha   65.25236495
_cell_angle_beta   65.25236495
_cell_angle_gamma   65.25237291
_symmetry_Int_Tables_number   1
_chemical_formula_structural   Sb2(SO4)3
_chemical_formula_sum   'Sb4 S6 O24'
_cell_volume   493.69544489
_cell_formula_units_Z   2
loop_
 _symmetry_equiv_pos_site_id
 _symmetry_equiv_pos_as_xyz
  1  'x, y, z'
loop_
 _atom_site_type_symbol
 _atom_site_label
 _atom_site_symmetry_multiplicity
 _atom_site_fract_x
 _atom_site_fract_y
 _atom_site_fract_z
 _atom_site_occupancy
  Sb  Sb0  1  0.85043303  0.85043303  0.85043303  1
  Sb  Sb1  1  0.64956697  0.64956697  0.64956697  1
  Sb  Sb2  1  0.14956697  0.14956697  0.14956697  1
  Sb  Sb3  1  0.35043303  0.35043303  0.35043303  1
  S  S0  1  0.25000000  0.59456006  0.90543994  1
  S  S1  1  0.40543994  0.09456006  0.75000000  1
  S  S2  1  0.09456006  0.75000000  0.40543994  1
  S  S3  1  0.90543994  0.25000000  0.59456006  1
  S  S4  1  0.59456006  0.90543994  0.25000000  1
  S  S5  1  0.75000000  0.40543994  0.09456006  1
  O  O0  1  0.39927302  0.61606924  0.73074216  1
  O  O1  1  0.26925784  0.60072698  0.38393076  1
  O  O2  1  0.44903123  0.92687249  0.19125609  1
  O  O3  1  0.57312751  0.05096877  0.30874391  1
  O  O4  1  0.10072698  0.76925784  0.88393076  1
  O  O5  1  0.23074216  0.11606924  0.89927302  1
  O  O6  1  0.38393076  0.26925784  0.60072698  1
  O  O7  1  0.69125609  0.42687249  0.94903123  1
  O  O8  1  0.07312751  0.80874391  0.55096877  1
  O  O9  1  0.80874391  0.55096877  0.07312751  1
  O  O10  1  0.94903123  0.69125609  0.42687249  1
  O  O11  1  0.11606924  0.89927302  0.23074216  1
  O  O12  1  0.88393076  0.10072698  0.76925784  1
  O  O13  1  0.19125609  0.44903123  0.92687249  1
  O  O14  1  0.05096877  0.30874391  0.57312751  1
  O  O15  1  0.30874391  0.57312751  0.05096877  1
  O  O16  1  0.92687249  0.19125609  0.44903123  1
  O  O17  1  0.61606924  0.73074216  0.39927302  1
  O  O18  1  0.76925784  0.88393076  0.10072698  1
  O  O19  1  0.89927302  0.23074216  0.11606924  1
  O  O20  1  0.55096877  0.07312751  0.80874391  1
  O  O21  1  0.42687249  0.94903123  0.69125609  1
  O  O22  1  0.73074216  0.39927302  0.61606924  1
  O  O23  1  0.60072698  0.38393076  0.26925784  1
loop_
_geom_bond_atom_site_label_1
_geom_bond_atom_site_label_2
_geom_bond_distance
_geom_bond_site_symmetry_2
O0 S0 1.505908 1_555
O0 Sb1 2.062336 1_555
O1 S2 1.505908 1_555
O1 Sb3 2.062336 1_555
O2 S4 1.446583 1_555
O2 Sb2 2.536221 1_565
O3 S4 1.446583 1_545
O3 Sb3 2.536221 1_555
O4 S0 1.505908 1_555
O4 Sb0 2.062336 1_455
O5 S1 1.505908 1_555
O5 Sb2 2.062336 1_556
O6 S1 1.505908 1_555
O6 Sb3 2.062336 1_555
O7 S5 1.446583 1_556
O7 Sb1 2.536221 1_555
O8 S2 1.446583 1_555
O8 Sb0 2.536221 1_455
O9 S5 1.446583 1_555
O9 Sb0 2.536220 1_554
O10 S2 1.446583 1_655
O10 Sb1 2.536220 1_555
O11 S2 1.505908 1_555
O11 Sb2 2.062336 1_565
O12 S3 1.505908 1_555
O12 Sb0 2.062336 1_545
O13 S0 1.446583 1_555
O13 Sb2 2.536220 1_556
O14 S3 1.446583 1_455
O14 Sb3 2.536220 1_555
O15 S0 1.446583 1_554
O15 Sb3 2.536221 1_555
O16 S3 1.446583 1_555
O16 Sb2 2.536221 1_655
O17 S4 1.505908 1_555
O17 Sb1 2.062336 1_555
O18 S4 1.505908 1_555
O18 Sb0 2.062336 1_554
O19 S5 1.505908 1_555
O19 Sb2 2.062336 1_655
O20 S1 1.446583 1_555
O20 Sb0 2.536221 1_545
O21 S1 1.446583 1_565
O21 Sb1 2.536221 1_555
O22 S3 1.505908 1_555
O22 Sb1 2.062336 1_555
O23 S5 1.505908 1_555
O23 Sb3 2.062336 1_555
