# generated using pymatgen
data_RbMgH3
_symmetry_space_group_name_H-M   'P 1'
_cell_length_a   5.88668425
_cell_length_b   5.88668397
_cell_length_c   14.28385677
_cell_angle_alpha   90.00000007
_cell_angle_beta   90.00000047
_cell_angle_gamma   119.99975613
_symmetry_Int_Tables_number   1
_chemical_formula_structural   RbMgH3
_chemical_formula_sum   'Rb6 Mg6 H18'
_cell_volume   428.66561520
_cell_formula_units_Z   6
loop_
 _symmetry_equiv_pos_site_id
 _symmetry_equiv_pos_as_xyz
  1  'x, y, z'
loop_
 _atom_site_type_symbol
 _atom_site_label
 _atom_site_symmetry_multiplicity
 _atom_site_fract_x
 _atom_site_fract_y
 _atom_site_fract_z
 _atom_site_occupancy
  Rb  Rb0  1  0.00000042  -0.00000024  0.74999998  1
  Rb  Rb1  1  -0.00000022  0.00000038  0.25000000  1
  Rb  Rb2  1  0.33333334  0.66666783  0.40451189  1
  Rb  Rb3  1  0.66666724  0.33333184  0.90451210  1
  Rb  Rb4  1  0.66666693  0.33333171  0.59548790  1
  Rb  Rb5  1  0.33333280  0.66666760  0.09548817  1
  Mg  Mg0  1  0.33333815  0.66666216  0.84585807  1
  Mg  Mg1  1  0.66666207  0.33333786  0.34585807  1
  Mg  Mg2  1  0.66666193  0.33333824  0.15414195  1
  Mg  Mg3  1  0.33333840  0.66666213  0.65414195  1
  Mg  Mg4  1  -0.00000024  0.00000005  0.49999999  1
  Mg  Mg5  1  -0.00000018  -0.00000011  -0.00000004  1
  H  H0  1  0.47609709  0.95218233  0.74999997  1
  H  H1  1  0.52390270  0.47609711  0.25000003  1
  H  H2  1  0.95218243  0.47609717  0.25000003  1
  H  H3  1  0.04781764  0.52390292  0.74999998  1
  H  H4  1  0.47609729  0.52390272  0.75000003  1
  H  H5  1  0.52390338  0.04781777  0.25000000  1
  H  H6  1  0.16610464  0.83389521  0.92015044  1
  H  H7  1  0.16610445  0.33220877  0.92015083  1
  H  H8  1  0.66779125  0.83389557  0.92015083  1
  H  H9  1  0.33220874  0.16610456  0.42015085  1
  H  H10  1  0.83389543  0.66779138  0.07984914  1
  H  H11  1  0.83389526  0.16610479  0.42015044  1
  H  H12  1  0.16610455  0.33220867  0.57984916  1
  H  H13  1  0.83389521  0.16610485  0.07984956  1
  H  H14  1  0.33220868  0.16610458  0.07984917  1
  H  H15  1  0.66779141  0.83389552  0.57984912  1
  H  H16  1  0.16610481  0.83389532  0.57984959  1
  H  H17  1  0.83389542  0.66779129  0.42015081  1
loop_
_geom_bond_atom_site_label_1
_geom_bond_atom_site_label_2
_geom_bond_distance
_geom_bond_site_symmetry_2
H0 Mg3 1.998378 1_555
H0 Mg0 1.998378 1_555
H0 H4 2.521147 1_555
H0 H3 2.521155 1_555
H0 Rb4 2.940519 1_565
H0 Rb3 2.940521 1_565
H0 Rb0 2.953389 1_665
H0 Rb0 2.953450 1_565
H1 Mg2 1.998367 1_555
H1 Mg1 1.998368 1_555
H1 H5 2.521147 1_555
H1 H2 2.521147 1_555
H1 Rb2 2.940481 1_555
H1 Rb5 2.940482 1_555
H1 Rb1 2.953425 1_555
H1 Rb1 2.953427 1_665
H2 Mg1 1.998379 1_555
H2 Mg2 1.998380 1_555
H2 H5 2.521154 1_555
H2 Rb5 2.940521 1_655
H2 Rb2 2.940522 1_655
H2 Rb1 2.953389 1_665
H2 Rb1 2.953451 1_655
H3 Mg0 1.998380 1_555
H3 Mg3 1.998380 1_555
H3 H4 2.521148 1_555
H3 Rb3 2.940524 1_455
H3 Rb4 2.940524 1_455
H3 Rb0 2.953389 1_555
H3 Rb0 2.953451 1_565
H4 Mg3 1.998367 1_555
H4 Mg0 1.998368 1_555
H4 Rb3 2.940486 1_555
H4 Rb4 2.940486 1_555
H4 Rb0 2.953425 1_555
H4 Rb0 2.953426 1_665
H5 Mg1 1.998378 1_555
H5 Mg2 1.998379 1_555
H5 Rb2 2.940519 1_545
H5 Rb5 2.940520 1_545
H5 Rb1 2.953391 1_555
H5 Rb1 2.953449 1_655
H6 Mg0 2.008363 1_555
H6 Mg5 2.041858 1_566
H6 Rb3 2.951820 1_565
H6 Rb3 2.951825 1_455
H6 Rb0 2.962290 1_565
H6 Rb5 3.029809 1_556
H7 Mg0 2.008314 1_555
H7 Mg5 2.041857 1_556
H7 Rb3 2.951805 1_455
H7 Rb3 2.951820 1_555
H7 Rb0 2.962299 1_555
H7 Rb5 3.029817 1_556
H8 Mg0 2.008313 1_555
H8 Mg5 2.041856 1_666
H8 Rb3 2.951802 1_565
H8 Rb3 2.951822 1_555
H8 Rb0 2.962299 1_665
H8 Rb5 3.029816 1_556
H9 Mg1 2.008314 1_555
H9 Mg4 2.041858 1_555
H9 Rb2 2.951807 1_545
H9 Rb2 2.951818 1_555
H9 Rb1 2.962299 1_555
H9 Rb4 3.029812 1_555
H10 Mg2 2.008313 1_555
H10 Mg5 2.041856 1_665
H10 Rb5 2.951808 1_655
H10 Rb5 2.951817 1_555
H10 Rb1 2.962299 1_665
H10 Rb3 3.029815 1_554
H11 Mg1 2.008362 1_555
H11 Mg4 2.041857 1_655
H11 Rb2 2.951819 1_545
H11 Rb2 2.951826 1_655
H11 Rb1 2.962290 1_655
H11 Rb4 3.029804 1_555
H12 Mg3 2.008315 1_555
H12 Mg4 2.041856 1_555
H12 Rb4 2.951807 1_455
H12 Rb4 2.951817 1_555
H12 Rb0 2.962298 1_555
H12 Rb2 3.029817 1_555
H13 Mg2 2.008364 1_555
H13 Mg5 2.041859 1_655
H13 Rb5 2.951822 1_545
H13 Rb5 2.951824 1_655
H13 Rb1 2.962291 1_655
H13 Rb3 3.029804 1_554
H14 Mg2 2.008314 1_555
H14 Mg5 2.041858 1_555
H14 Rb5 2.951807 1_545
H14 Rb5 2.951818 1_555
H14 Rb1 2.962298 1_555
H14 Rb3 3.029813 1_554
H15 Mg3 2.008313 1_555
H15 Mg4 2.041855 1_665
H15 Rb4 2.951803 1_565
H15 Rb4 2.951821 1_555
H15 Rb0 2.962299 1_665
H15 Rb2 3.029813 1_555
H16 Mg3 2.008364 1_555
H16 Mg4 2.041860 1_565
H16 Rb4 2.951818 1_565
H16 Rb4 2.951827 1_455
H16 Rb0 2.962289 1_565
H16 Rb2 3.029809 1_555
H17 Mg1 2.008314 1_555
H17 Mg4 2.041857 1_665
H17 Rb2 2.951810 1_655
H17 Rb2 2.951814 1_555
H17 Rb1 2.962299 1_665
H17 Rb4 3.029816 1_555
