# generated using pymatgen
data_Nb2Zn2SiS5O24
_symmetry_space_group_name_H-M   'P 1'
_cell_length_a   8.81513783
_cell_length_b   8.80892475
_cell_length_c   22.66444899
_cell_angle_alpha   89.85925751
_cell_angle_beta   89.92574505
_cell_angle_gamma   119.84584879
_symmetry_Int_Tables_number   1
_chemical_formula_structural   Nb2Zn2SiS5O24
_chemical_formula_sum   'Nb6 Zn6 Si3 S15 O72'
_cell_volume   1526.50127740
_cell_formula_units_Z   3
loop_
 _symmetry_equiv_pos_site_id
 _symmetry_equiv_pos_as_xyz
  1  'x, y, z'
loop_
 _atom_site_type_symbol
 _atom_site_label
 _atom_site_symmetry_multiplicity
 _atom_site_fract_x
 _atom_site_fract_y
 _atom_site_fract_z
 _atom_site_occupancy
  Nb  Nb0  1  0.00440927  0.00653466  0.14054790  1
  Nb  Nb1  1  0.65467631  0.32990070  0.97660570  1
  Nb  Nb2  1  0.67695127  0.32446257  0.47850803  1
  Nb  Nb3  1  0.33998649  0.66888204  0.52654927  1
  Nb  Nb4  1  0.34184035  0.67540321  0.30970527  1
  Nb  Nb5  1  0.32877630  0.66294221  0.80712022  1
  Zn  Zn0  1  0.99510366  0.00089428  0.35634285  1
  Zn  Zn1  1  0.00079273  0.00229165  0.85084515  1
  Zn  Zn2  1  0.99732880  0.00710045  0.64374174  1
  Zn  Zn3  1  0.67659747  0.33612426  0.68658079  1
  Zn  Zn4  1  0.66268726  0.33582103  0.18602111  1
  Zn  Zn5  1  0.33151366  0.66027528  0.02138839  1
  Si  Si0  1  0.95603287  0.32492693  0.58945520  1
  Si  Si1  1  0.38667844  0.34991844  0.08660811  1
  Si  Si2  1  0.62897543  0.95343497  0.41695876  1
  S  S0  1  0.28637586  0.00323629  0.25147608  1
  S  S1  1  0.71628712  0.70870531  0.25091713  1
  S  S2  1  0.99553433  0.28815979  0.25008567  1
  S  S3  1  0.29447860  0.28374069  0.75034559  1
  S  S4  1  0.99234883  0.71274257  0.75047116  1
  S  S5  1  0.71393324  0.00511233  0.75132939  1
  S  S6  1  0.37624784  0.04726926  0.58441180  1
  S  S7  1  0.67181209  0.62011510  0.58429643  1
  S  S8  1  0.95532262  0.61857003  0.08404753  1
  S  S9  1  0.66189416  0.04435338  0.08403905  1
  S  S10  1  0.62583602  0.67443280  0.91648165  1
  S  S11  1  0.04503747  0.37480064  0.91700997  1
  S  S12  1  0.32801998  0.94923340  0.91750003  1
  S  S13  1  0.33333646  0.37994359  0.41686578  1
  S  S14  1  0.04928550  0.66989643  0.41647230  1
  O  O0  1  0.20461458  0.02470776  0.30398650  1
  O  O1  1  0.81732477  0.79008187  0.30346443  1
  O  O2  1  0.97113918  0.18254838  0.30213967  1
  O  O3  1  0.21733629  0.18626872  0.80469878  1
  O  O4  1  0.97641897  0.79303010  0.80461786  1
  O  O5  1  0.81444369  0.02709037  0.80483090  1
  O  O6  1  0.77562661  0.95523516  0.69923186  1
  O  O7  1  0.18291704  0.22147216  0.69856665  1
  O  O8  1  0.03886212  0.82278034  0.69784814  1
  O  O9  1  0.78983662  0.82300226  0.19751345  1
  O  O10  1  0.02860753  0.20185265  0.19617499  1
  O  O11  1  0.17139736  0.96873011  0.19778541  1
  O  O12  1  0.87513284  0.38227827  0.64068490  1
  O  O13  1  0.48477975  0.11553522  0.63621215  1
  O  O14  1  0.62489754  0.51096752  0.63660451  1
  O  O15  1  0.88221661  0.51566296  0.13716957  1
  O  O16  1  0.64255417  0.12303745  0.13737339  1
  O  O17  1  0.49408608  0.35884300  0.14238209  1
  O  O18  1  0.47750224  0.30293691  0.02643197  1
  O  O19  1  0.83893277  0.53840804  0.03077012  1
  O  O20  1  0.70419773  0.16263285  0.03025925  1
  O  O21  1  0.46382234  0.15764627  0.52973609  1
  O  O22  1  0.68603206  0.53185880  0.52959416  1
  O  O23  1  0.83181273  0.30861063  0.52706268  1
  O  O24  1  0.54752819  0.69835470  0.96918875  1
  O  O25  1  0.15014074  0.45534588  0.96884127  1
  O  O26  1  0.30720507  0.84859175  0.97060798  1
  O  O27  1  0.51602877  0.82937912  0.47196501  1
  O  O28  1  0.30532649  0.46485935  0.46930447  1
  O  O29  1  0.15595116  0.68867971  0.46913953  1
  O  O30  1  0.12675494  0.63138352  0.36303942  1
  O  O31  1  0.49161049  0.85507334  0.35886588  1
  O  O32  1  0.36006260  0.49557024  0.36314848  1
  O  O33  1  0.12944425  0.49313189  0.86335701  1
  O  O34  1  0.36441286  0.87059214  0.86431118  1
  O  O35  1  0.50876268  0.63388480  0.86377869  1
  O  O36  1  0.03393410  0.82346259  0.40821893  1
  O  O37  1  0.81421047  0.97665257  0.40779401  1
  O  O38  1  0.18299447  0.20982501  0.40820336  1
  O  O39  1  0.02059339  0.20196622  0.90598667  1
  O  O40  1  0.18534953  0.98285327  0.90772192  1
  O  O41  1  0.80098126  0.81809760  0.90605613  1
  O  O42  1  0.97994568  0.15987194  0.58850246  1
  O  O43  1  0.20147849  0.02103108  0.58812970  1
  O  O44  1  0.82234625  0.79272459  0.58853694  1
  O  O45  1  0.96272576  0.79637414  0.09299691  1
  O  O46  1  0.82768289  0.02854556  0.09179253  1
  O  O47  1  0.18898918  0.15894674  0.09499154  1
  O  O48  1  0.67620428  0.14665450  0.74448077  1
  O  O49  1  0.47260515  0.31884834  0.74230058  1
  O  O50  1  0.84813515  0.53545726  0.74543644  1
  O  O51  1  0.68800288  0.53422738  0.24300076  1
  O  O52  1  0.84780112  0.31300458  0.23843566  1
  O  O53  1  0.46300341  0.14418537  0.24282314  1
  O  O54  1  0.64129911  0.50683202  0.92461995  1
  O  O55  1  0.86851274  0.36321358  0.92456008  1
  O  O56  1  0.49894401  0.12903122  0.92450444  1
  O  O57  1  0.62820780  0.14094162  0.42583113  1
  O  O58  1  0.49670662  0.37398051  0.42454939  1
  O  O59  1  0.87142283  0.51046165  0.42423119  1
  O  O60  1  0.34471496  0.49790504  0.07204497  1
  O  O61  1  0.13100830  0.65506820  0.07254163  1
  O  O62  1  0.51634720  0.87306463  0.07284261  1
  O  O63  1  0.36054835  0.86850015  0.57287620  1
  O  O64  1  0.50851086  0.63914343  0.57304306  1
  O  O65  1  0.14414463  0.50172002  0.56799592  1
  O  O66  1  0.29395039  0.83193837  0.25784723  1
  O  O67  1  0.53186876  0.69204074  0.25869968  1
  O  O68  1  0.15982037  0.46390620  0.25717917  1
  O  O69  1  0.31212439  0.47148679  0.76229482  1
  O  O70  1  0.16199341  0.69258156  0.76176841  1
  O  O71  1  0.52707153  0.83616703  0.76374644  1
loop_
_geom_bond_atom_site_label_1
_geom_bond_atom_site_label_2
_geom_bond_distance
_geom_bond_site_symmetry_2
Nb0 O47 1.824983 1_555
Nb0 O46 1.997413 1_455
Nb0 O45 2.014326 1_445
Nb0 O10 2.059449 1_555
Nb0 O11 2.109829 1_545
Nb0 O9 2.190458 1_445
Nb1 O18 1.842780 1_556
Nb1 O54 2.001388 1_555
Nb1 O56 2.001653 1_555
Nb1 O55 2.114879 1_555
Nb1 O20 2.114979 1_556
Nb1 O19 2.136731 1_556
Nb2 O23 1.812998 1_555
Nb2 O57 1.882258 1_555
Nb2 O21 2.067654 1_555
Nb2 O59 2.079796 1_555
Nb2 O22 2.133019 1_555
Nb2 O58 2.214194 1_555
Nb3 O65 1.868106 1_555
Nb3 O27 1.933956 1_555
Nb3 O64 1.943190 1_555
Nb3 O63 1.979816 1_555
Nb3 O28 2.114850 1_555
Nb3 O29 2.154353 1_555
Nb4 O31 1.849890 1_555
Nb4 O67 1.978304 1_555
Nb4 O66 2.008415 1_555
Nb4 O32 2.060775 1_555
Nb4 O30 2.113376 1_555
Nb4 O68 2.122074 1_555
Nb5 O69 1.913223 1_555
Nb5 O70 1.915957 1_555
Nb5 O71 1.919276 1_555
Nb5 O33 2.078055 1_555
Nb5 O34 2.136694 1_555
Nb5 O35 2.154000 1_555
O0 S0 1.451271 1_555
O0 Zn0 2.114354 1_455
O1 S1 1.448092 1_555
O1 Zn0 2.111860 1_565
O2 S2 1.448598 1_555
O2 Zn0 2.107569 1_555
O3 S3 1.458998 1_555
O3 Zn1 2.066747 1_555
O4 S4 1.458978 1_555
O4 Zn1 2.039054 1_665
O5 S5 1.458102 1_555
O5 Zn1 2.047991 1_655
O6 S5 1.456609 1_565
O6 Zn2 2.170699 1_565
O7 S3 1.454114 1_555
O7 Zn2 2.174460 1_455
O8 S4 1.458637 1_455
O8 Zn2 2.203902 1_465
O9 S1 1.497096 1_555
O10 S2 1.542792 1_455
O11 S0 1.516186 1_565
O12 Si0 1.572031 1_555
O12 Zn3 1.896105 1_555
O13 S6 1.445343 1_555
O13 Zn3 2.164193 1_555
O14 S7 1.448554 1_555
O14 Zn3 2.134070 1_555
O15 S8 1.448373 1_555
O15 Zn4 2.101172 1_555
O16 S9 1.446327 1_555
O16 Zn4 2.107148 1_555
O17 Si1 1.558863 1_555
O17 Zn4 1.879122 1_555
O18 Si1 1.732665 1_555
O19 S8 1.515138 1_555
O20 S9 1.521905 1_555
O21 S6 1.523625 1_555
O22 S7 1.502850 1_555
O23 Si0 1.751496 1_555
O24 S10 1.446309 1_555
O24 Zn5 2.120049 1_556
O25 S11 1.447210 1_555
O25 Zn5 2.091921 1_556
O26 S12 1.449382 1_555
O26 Zn5 2.113626 1_556
O27 Si2 1.626919 1_555
O28 S13 1.490118 1_555
O29 S14 1.478301 1_555
O30 S14 1.509475 1_555
O31 Si2 1.707630 1_555
O32 S13 1.526270 1_555
O33 S11 1.529154 1_555
O34 S12 1.503441 1_555
O35 S10 1.502605 1_555
O36 S14 1.436758 1_555
O36 Zn0 2.113522 1_465
O37 Si2 1.554914 1_555
O37 Zn0 1.898207 1_565
O38 S13 1.437350 1_555
O38 Zn0 2.119827 1_455
O39 S11 1.449927 1_555
O39 Zn1 2.095692 1_555
O40 S12 1.445564 1_555
O40 Zn1 2.149293 1_565
O41 S10 1.447041 1_555
O41 Zn1 2.107281 1_665
O42 Si0 1.569742 1_555
O42 Zn2 1.897216 1_555
O43 S6 1.441931 1_555
O43 Zn2 2.148453 1_455
O44 S7 1.440425 1_555
O44 Zn2 2.151327 1_565
O45 S8 1.548689 1_555
O46 S9 1.545708 1_555
O47 Si1 1.727018 1_555
O48 S5 1.449562 1_555
O48 Zn3 2.119241 1_555
O49 S3 1.452615 1_555
O49 Zn3 2.138307 1_555
O50 S4 1.446791 1_555
O50 Zn3 2.126753 1_555
O51 S1 1.441062 1_555
O51 Zn4 2.096614 1_555
O52 S2 1.448400 1_555
O52 Zn4 2.108244 1_555
O53 S0 1.441575 1_555
O53 Zn4 2.152056 1_555
O54 S10 1.559276 1_555
O55 S11 1.517317 1_655
O56 S12 1.559010 1_545
O57 Si2 1.667769 1_545
O58 S13 1.477485 1_555
O59 S14 1.505984 1_655
O60 Si1 1.556706 1_555
O60 Zn5 1.880269 1_555
O61 S8 1.439711 1_455
O61 Zn5 2.093788 1_555
O62 S9 1.436336 1_565
O62 Zn5 2.122278 1_555
O63 S6 1.533814 1_565
O64 S7 1.551219 1_555
O65 Si0 1.683869 1_455
O66 S0 1.549671 1_565
O67 S1 1.567506 1_555
O68 S2 1.513319 1_455
O69 S3 1.605922 1_555
O70 S4 1.612004 1_455
O71 S5 1.601273 1_565
