# generated using pymatgen
data_Eu(GeRu)2
_symmetry_space_group_name_H-M   'P 1'
_cell_length_a   4.28871751
_cell_length_b   4.28871765
_cell_length_c   5.89722928
_cell_angle_alpha   111.32275802
_cell_angle_beta   111.32276082
_cell_angle_gamma   90.00001305
_symmetry_Int_Tables_number   1
_chemical_formula_structural   Eu(GeRu)2
_chemical_formula_sum   'Eu1 Ge2 Ru2'
_cell_volume   93.02757079
_cell_formula_units_Z   1
loop_
 _symmetry_equiv_pos_site_id
 _symmetry_equiv_pos_as_xyz
  1  'x, y, z'
loop_
 _atom_site_type_symbol
 _atom_site_label
 _atom_site_symmetry_multiplicity
 _atom_site_fract_x
 _atom_site_fract_y
 _atom_site_fract_z
 _atom_site_occupancy
  Eu  Eu0  1  0.00000000  0.00000000  0.00000000  1
  Ge  Ge0  1  0.63716416  0.63716416  0.27432931  1
  Ge  Ge1  1  0.36283584  0.36283584  0.72567069  1
  Ru  Ru0  1  0.75000000  0.25000000  0.50000000  1
  Ru  Ru1  1  0.25000000  0.75000000  0.50000000  1
loop_
_geom_bond_atom_site_label_1
_geom_bond_atom_site_label_2
_geom_bond_distance
_geom_bond_site_symmetry_2
Eu0 Ru0 3.315640 1_454
Eu0 Ru1 3.315640 1_545
Eu0 Ru1 3.315640 1_444
Eu0 Ru0 3.315640 1_555
Eu0 Ru0 3.315640 1_455
Eu0 Ru1 3.315640 1_544
Eu0 Ru0 3.315640 1_444
Eu0 Ru1 3.315640 1_555
Eu0 Ge0 3.334914 1_555
Eu0 Ge1 3.334914 1_444
Eu0 Ge0 3.334917 1_545
Eu0 Ge1 3.334917 1_454
Eu0 Ge1 3.334917 1_544
Eu0 Ge0 3.334917 1_455
Eu0 Ge1 3.334919 1_554
Eu0 Ge0 3.334919 1_445
Ge0 Ru0 2.429202 1_555
Ge0 Ru1 2.429202 1_555
Ge0 Ru1 2.429206 1_655
Ge0 Ru0 2.429206 1_565
Ge0 Ge1 2.774974 1_554
Ge1 Ru1 2.429202 1_555
Ge1 Ru0 2.429202 1_555
Ge1 Ru0 2.429206 1_455
Ge1 Ru1 2.429206 1_545
