# generated using pymatgen
data_MgV3(OF)4
_symmetry_space_group_name_H-M   'P 1'
_cell_length_a   4.87109746
_cell_length_b   9.75083279
_cell_length_c   3.11925700
_cell_angle_alpha   90.00000000
_cell_angle_beta   90.00000000
_cell_angle_gamma   90.25815052
_symmetry_Int_Tables_number   1
_chemical_formula_structural   MgV3(OF)4
_chemical_formula_sum   'Mg1 V3 O4 F4'
_cell_volume   148.15464697
_cell_formula_units_Z   1
loop_
 _symmetry_equiv_pos_site_id
 _symmetry_equiv_pos_as_xyz
  1  'x, y, z'
loop_
 _atom_site_type_symbol
 _atom_site_label
 _atom_site_symmetry_multiplicity
 _atom_site_fract_x
 _atom_site_fract_y
 _atom_site_fract_z
 _atom_site_occupancy
  Mg  Mg0  1  0.97284400  0.13491400  0.25000000  1
  V  V0  1  0.02034800  0.84134700  0.75000000  1
  V  V1  1  0.46871000  0.38392600  0.75000000  1
  V  V2  1  0.52505000  0.63904800  0.25000000  1
  O  O0  1  0.29994100  0.47631800  0.25000000  1
  O  O1  1  0.33286400  0.72529300  0.75000000  1
  O  O2  1  0.69990000  0.54104900  0.75000000  1
  O  O3  1  0.81642900  0.76870100  0.25000000  1
  F  F0  1  0.17385300  0.22428400  0.75000000  1
  F  F1  1  0.20086600  0.96103000  0.25000000  1
  F  F2  1  0.66806900  0.27135000  0.25000000  1
  F  F3  1  0.80858200  0.03111000  0.75000000  1
loop_
_geom_bond_atom_site_label_1
_geom_bond_atom_site_label_2
_geom_bond_distance
_geom_bond_site_symmetry_2
O0 V2 1.924703 1_555
O0 V1 1.981556 1_554
O0 V1 1.981556 1_555
O1 V0 1.900915 1_555
O1 V2 2.005777 1_555
O1 V2 2.005777 1_556
O2 V1 1.897349 1_555
O2 V2 2.019481 1_556
O2 V2 2.019481 1_555
O3 V2 1.896473 1_555
O3 V0 1.978519 1_654
O3 V0 1.978519 1_655
F0 Mg0 2.035399 1_455
F0 Mg0 2.035399 1_456
F0 V1 2.113263 1_555
F1 Mg0 2.031116 1_465
F1 V0 2.135020 1_554
F1 V0 2.135020 1_555
F1 F3 2.561742 1_465
F1 F3 2.561742 1_464
F2 Mg0 1.997917 1_555
F2 V1 2.142439 1_555
F2 V1 2.142439 1_554
F3 Mg0 2.022340 1_555
F3 Mg0 2.022340 1_556
F3 V0 2.122509 1_645
