# generated using pymatgen
data_CdH4NCl3
_symmetry_space_group_name_H-M   'P 1'
_cell_length_a   4.02391247
_cell_length_b   9.16824750
_cell_length_c   14.67617345
_cell_angle_alpha   90.00000000
_cell_angle_beta   90.00000000
_cell_angle_gamma   90.00000000
_symmetry_Int_Tables_number   1
_chemical_formula_structural   CdH4NCl3
_chemical_formula_sum   'Cd4 H16 N4 Cl12'
_cell_volume   541.43669956
_cell_formula_units_Z   4
loop_
 _symmetry_equiv_pos_site_id
 _symmetry_equiv_pos_as_xyz
  1  'x, y, z'
loop_
 _atom_site_type_symbol
 _atom_site_label
 _atom_site_symmetry_multiplicity
 _atom_site_fract_x
 _atom_site_fract_y
 _atom_site_fract_z
 _atom_site_occupancy
  Cd  Cd0  1  0.75000000  0.83478471  0.05714661  1
  Cd  Cd1  1  0.25000000  0.16521529  0.94285339  1
  Cd  Cd2  1  0.75000000  0.33478471  0.44285339  1
  Cd  Cd3  1  0.25000000  0.66521529  0.55714661  1
  H  H0  1  0.04622266  0.38489198  0.19377170  1
  H  H1  1  0.54622266  0.61510802  0.80622830  1
  H  H2  1  0.45377734  0.88489198  0.30622830  1
  H  H3  1  0.95377734  0.11510802  0.69377170  1
  H  H4  1  0.95377734  0.61510802  0.80622830  1
  H  H5  1  0.45377734  0.38489198  0.19377170  1
  H  H6  1  0.54622266  0.11510802  0.69377170  1
  H  H7  1  0.04622266  0.88489198  0.30622830  1
  H  H8  1  0.75000000  0.46096778  0.78136037  1
  H  H9  1  0.25000000  0.53903222  0.21863963  1
  H  H10  1  0.75000000  0.96096778  0.71863963  1
  H  H11  1  0.25000000  0.03903222  0.28136037  1
  H  H12  1  0.75000000  0.51980473  0.88875316  1
  H  H13  1  0.25000000  0.48019527  0.11124684  1
  H  H14  1  0.75000000  0.01980473  0.61124684  1
  H  H15  1  0.25000000  0.98019527  0.38875316  1
  N  N0  1  0.25000000  0.94793955  0.32179029  1
  N  N1  1  0.75000000  0.05206045  0.67820971  1
  N  N2  1  0.25000000  0.44793955  0.17820971  1
  N  N3  1  0.75000000  0.55206045  0.82179029  1
  Cl  Cl0  1  0.75000000  0.72925923  0.21798963  1
  Cl  Cl1  1  0.25000000  0.27074077  0.78201037  1
  Cl  Cl2  1  0.75000000  0.22925923  0.28201037  1
  Cl  Cl3  1  0.25000000  0.77074077  0.71798963  1
  Cl  Cl4  1  0.25000000  0.66984297  -0.00162406  1
  Cl  Cl5  1  0.75000000  0.33015703  0.00162406  1
  Cl  Cl6  1  0.25000000  0.16984297  0.50162406  1
  Cl  Cl7  1  0.75000000  0.83015703  0.49837594  1
  Cl  Cl8  1  0.75000000  0.97555056  0.89976646  1
  Cl  Cl9  1  0.25000000  0.02444944  0.10023354  1
  Cl  Cl10  1  0.75000000  0.47555056  0.60023354  1
  Cl  Cl11  1  0.25000000  0.52444944  0.39976646  1
loop_
_geom_bond_atom_site_label_1
_geom_bond_atom_site_label_2
_geom_bond_distance
_geom_bond_site_symmetry_2
Cd0 Cl0 2.551131 1_555
Cd0 Cl8 2.645842 1_554
Cd0 Cl4 2.660593 1_555
Cd0 Cl4 2.660593 1_655
Cd0 Cl9 2.733420 1_665
Cd0 Cl9 2.733420 1_565
Cd1 Cl1 2.551131 1_555
Cd1 Cl9 2.645842 1_556
Cd1 Cl5 2.660593 1_556
Cd1 Cl5 2.660593 1_456
Cd1 Cl8 2.733420 1_545
Cd1 Cl8 2.733420 1_445
Cd2 Cl2 2.551131 1_555
Cd2 Cl10 2.645842 1_555
Cd2 Cl6 2.660593 1_555
Cd2 Cl6 2.660593 1_655
Cd2 Cl11 2.733420 1_555
Cd2 Cl11 2.733420 1_655
Cd3 Cl3 2.551131 1_555
Cd3 Cl11 2.645842 1_555
Cd3 Cl7 2.660593 1_455
Cd3 Cl7 2.660593 1_555
Cd3 Cl10 2.733420 1_555
Cd3 Cl10 2.733420 1_455
H0 N2 1.028911 1_555
H1 N3 1.028911 1_555
H2 N0 1.028911 1_555
H3 N1 1.028911 1_555
H4 N3 1.028911 1_555
H5 N2 1.028911 1_555
H6 N1 1.028911 1_555
H7 N0 1.028911 1_555
H8 N3 1.024483 1_555
H9 N2 1.024483 1_555
H10 N1 1.024483 1_565
H11 N0 1.024483 1_545
H12 N3 1.026289 1_555
H13 N2 1.026289 1_555
H14 N1 1.026289 1_555
H15 N0 1.026289 1_555
Cl0 H7 2.265795 1_655
Cl0 H2 2.265795 1_555
Cl0 H9 2.662661 1_555
Cl0 H9 2.662661 1_655
Cl1 H6 2.265795 1_555
Cl1 H3 2.265795 1_455
Cl1 H8 2.662661 1_555
Cl1 H8 2.662661 1_455
Cl2 H0 2.265795 1_655
Cl2 H5 2.265795 1_555
Cl2 H11 2.662661 1_655
Cl2 H11 2.662661 1_555
Cl3 H1 2.265795 1_555
Cl3 H4 2.265795 1_455
Cl3 H10 2.662661 1_555
Cl3 H10 2.662661 1_455
Cl4 H13 2.401508 1_555
Cl4 H12 2.920374 1_454
Cl4 H12 2.920374 1_554
Cl4 H4 3.102416 1_454
Cl4 H1 3.102416 1_554
Cl5 H12 2.401508 1_554
Cl5 H13 2.920374 1_655
Cl5 H13 2.920374 1_555
Cl5 H0 3.102416 1_655
Cl5 H5 3.102416 1_555
Cl6 H15 2.401508 1_545
Cl6 H14 2.920374 1_455
Cl6 H14 2.920374 1_555
Cl6 H6 3.102416 1_555
Cl6 H3 3.102416 1_455
Cl7 H14 2.401508 1_565
Cl7 H15 2.920374 1_555
Cl7 H15 2.920374 1_655
Cl7 H7 3.102416 1_655
Cl7 H2 3.102416 1_555
Cl8 H10 2.661609 1_555
Cl9 H11 2.661609 1_555
Cl10 H8 2.661609 1_555
Cl11 H9 2.661609 1_555
