# generated using pymatgen
data_Na18Ta4Zn20Si3(S11O48)3
_symmetry_space_group_name_H-M   'P 1'
_cell_length_a   17.62928618
_cell_length_b   8.80000953
_cell_length_c   22.61699400
_cell_angle_alpha   89.78582098
_cell_angle_beta   90.30614577
_cell_angle_gamma   119.93652122
_symmetry_Int_Tables_number   1
_chemical_formula_structural   Na18Ta4Zn20Si3(S11O48)3
_chemical_formula_sum   'Na18 Ta4 Zn20 Si3 S33 O144'
_cell_volume   3040.56502778
_cell_formula_units_Z   1
loop_
 _symmetry_equiv_pos_site_id
 _symmetry_equiv_pos_as_xyz
  1  'x, y, z'
loop_
 _atom_site_type_symbol
 _atom_site_label
 _atom_site_symmetry_multiplicity
 _atom_site_fract_x
 _atom_site_fract_y
 _atom_site_fract_z
 _atom_site_occupancy
  Na  Na0  1  0.31752400  0.99772301  0.25368047  1
  Na  Na1  1  0.81777700  0.99869716  0.24981875  1
  Na  Na2  1  0.18147685  0.36692911  0.25784430  1
  Na  Na3  1  0.68343692  0.36893300  0.25547664  1
  Na  Na4  1  0.68197973  0.99872955  0.75065680  1
  Na  Na5  1  0.98345124  0.67517940  0.92351329  1
  Na  Na6  1  0.00640361  0.01626425  0.49581879  1
  Na  Na7  1  0.50643028  0.01688990  0.49600618  1
  Na  Na8  1  0.99716465  0.99916946  0.00092568  1
  Na  Na9  1  0.50927993  0.00893602  0.00046294  1
  Na  Na10  1  0.33582245  0.33682089  0.82571713  1
  Na  Na11  1  0.82797937  0.32764126  0.83475455  1
  Na  Na12  1  0.33699696  0.34872574  0.33316822  1
  Na  Na13  1  0.83719975  0.34867659  0.33146444  1
  Na  Na14  1  0.15593493  0.66298664  0.16543390  1
  Na  Na15  1  0.66454257  0.66681578  0.16267031  1
  Na  Na16  1  0.16641487  0.66363166  0.65710777  1
  Na  Na17  1  0.66536577  0.65257499  0.66420988  1
  Ta  Ta0  1  0.33227681  0.32820734  0.97960407  1
  Ta  Ta1  1  0.33025194  0.33406355  0.47985400  1
  Ta  Ta2  1  0.83037105  0.33488709  0.47957852  1
  Ta  Ta3  1  0.16810075  0.67503664  0.81369258  1
  Zn  Zn0  1  0.00542626  0.00957823  0.35316719  1
  Zn  Zn1  1  0.50619329  0.00957873  0.35364264  1
  Zn  Zn2  1  0.00008826  0.00304584  0.85020061  1
  Zn  Zn3  1  0.50639970  0.00152699  0.84858720  1
  Zn  Zn4  1  0.99892401  0.00580892  0.64726868  1
  Zn  Zn5  1  0.50007333  0.00184924  0.64738542  1
  Zn  Zn6  1  0.99677963  0.99023204  0.14865401  1
  Zn  Zn7  1  0.50526141  0.00335422  0.14993947  1
  Zn  Zn8  1  0.33493004  0.33639190  0.68173821  1
  Zn  Zn9  1  0.83502442  0.33435526  0.68162966  1
  Zn  Zn10  1  0.33765243  0.34419304  0.18237729  1
  Zn  Zn11  1  0.83544245  0.33863499  0.17643136  1
  Zn  Zn12  1  0.82452569  0.32275103  0.98760619  1
  Zn  Zn13  1  0.16015469  0.66913989  0.01866860  1
  Zn  Zn14  1  0.67330113  0.67554153  0.01659205  1
  Zn  Zn15  1  0.16433929  0.65319907  0.51335335  1
  Zn  Zn16  1  0.66402692  0.65269484  0.51401518  1
  Zn  Zn17  1  0.16306777  0.65419795  0.32661361  1
  Zn  Zn18  1  0.66472681  0.65659707  0.32622409  1
  Zn  Zn19  1  0.66735066  0.66301864  0.81879857  1
  Si  Si0  1  0.16295773  0.95918629  0.91859699  1
  Si  Si1  1  0.16023210  0.36851119  0.41531645  1
  Si  Si2  1  0.65994630  0.36899077  0.41547217  1
  S  S0  1  0.14692694  0.99652293  0.24856207  1
  S  S1  1  0.64711573  0.99453751  0.24938248  1
  S  S2  1  0.35605183  0.71115017  0.24849825  1
  S  S3  1  0.85471654  0.70744405  0.25022246  1
  S  S4  1  0.99890991  0.29463526  0.24758882  1
  S  S5  1  0.49860627  0.29495698  0.24830917  1
  S  S6  1  0.14790305  0.29234478  0.75035159  1
  S  S7  1  0.64727213  0.29705154  0.74917428  1
  S  S8  1  0.99793824  0.70379856  0.75060253  1
  S  S9  1  0.49847793  0.70376939  0.75008999  1
  S  S10  1  0.35558911  0.00277139  0.75097697  1
  S  S11  1  0.85376371  0.99946044  0.74980791  1
  S  S12  1  0.47991780  0.33355946  0.58561606  1
  S  S13  1  0.98019465  0.33487299  0.58523114  1
  S  S14  1  0.18697520  0.03794083  0.58495796  1
  S  S15  1  0.68616784  0.03537065  0.58439510  1
  S  S16  1  0.33400214  0.62859058  0.58508655  1
  S  S17  1  0.83430500  0.62831279  0.58529594  1
  S  S18  1  0.48097000  0.62798975  0.08309425  1
  S  S19  1  0.98177990  0.62978405  0.08249642  1
  S  S20  1  0.33356065  0.03844352  0.08534276  1
  S  S21  1  0.83393839  0.03701219  0.08395527  1
  S  S22  1  0.18729212  0.33679365  0.08365138  1
  S  S23  1  0.68252159  0.33305220  0.08472766  1
  S  S24  1  0.31372856  0.67162354  0.91878014  1
  S  S25  1  0.81236750  0.66342378  0.91676990  1
  S  S26  1  0.02115508  0.37267895  0.91713267  1
  S  S27  1  0.52210993  0.37297195  0.91836129  1
  S  S28  1  0.66633161  0.96204904  0.91604329  1
  S  S29  1  0.31368600  0.96002468  0.41748210  1
  S  S30  1  0.81364596  0.96013950  0.41773611  1
  S  S31  1  0.01986365  0.66893647  0.41849953  1
  S  S32  1  0.51990373  0.66845422  0.41839250  1
  O  O0  1  0.10760826  0.02671732  0.30110571  1
  O  O1  1  0.60657410  0.02545498  0.30116339  1
  O  O2  1  0.40687025  0.79127550  0.30244038  1
  O  O3  1  0.90639624  0.78955517  0.30385270  1
  O  O4  1  0.48253011  0.18354062  0.30131874  1
  O  O5  1  0.98340001  0.18479849  0.30102584  1
  O  O6  1  0.10776138  0.18983010  0.80374778  1
  O  O7  1  0.60886074  0.18701656  0.80297801  1
  O  O8  1  0.48498505  0.78228793  0.80395307  1
  O  O9  1  0.98919733  0.77990233  0.80573740  1
  O  O10  1  0.40516381  0.02115798  0.80525838  1
  O  O11  1  0.90606766  0.02399095  0.80369869  1
  O  O12  1  0.38980300  0.96829429  0.69727000  1
  O  O13  1  0.89413083  0.97509776  0.69636696  1
  O  O14  1  0.09511977  0.22472417  0.69645708  1
  O  O15  1  0.59366222  0.21385574  0.69581090  1
  O  O16  1  0.01748621  0.81474407  0.69807389  1
  O  O17  1  0.51364091  0.81621994  0.69700194  1
  O  O18  1  0.39742809  0.81696585  0.19466841  1
  O  O19  1  0.89481496  0.81384535  0.19643151  1
  O  O20  1  0.01510849  0.21403623  0.19489947  1
  O  O21  1  0.51235313  0.21413823  0.19499012  1
  O  O22  1  0.09655851  0.97533103  0.19394583  1
  O  O23  1  0.59623690  0.96873927  0.19449318  1
  O  O24  1  0.43776564  0.35154824  0.63901256  1
  O  O25  1  0.93833455  0.35314482  0.63872689  1
  O  O26  1  0.23947927  0.11926978  0.63819011  1
  O  O27  1  0.73618591  0.11307956  0.63956752  1
  O  O28  1  0.32153063  0.52187283  0.63812000  1
  O  O29  1  0.82234559  0.52122642  0.63822288  1
  O  O30  1  0.44050992  0.52202651  0.13611941  1
  O  O31  1  0.93852452  0.52443067  0.13538746  1
  O  O32  1  0.32237861  0.12072765  0.13864043  1
  O  O33  1  0.82194549  0.11335260  0.13960278  1
  O  O34  1  0.23838101  0.35866969  0.13796044  1
  O  O35  1  0.73314651  0.35532920  0.14043740  1
  O  O36  1  0.23853557  0.31931251  0.03054833  1
  O  O37  1  0.72446740  0.30895773  0.03212775  1
  O  O38  1  0.42223777  0.52924328  0.02943811  1
  O  O39  1  0.93219129  0.55002148  0.02660739  1
  O  O40  1  0.34123753  0.15744863  0.03132708  1
  O  O41  1  0.84605826  0.14721496  0.03124969  1
  O  O42  1  0.23558632  0.15506101  0.53117180  1
  O  O43  1  0.73708522  0.15637019  0.53239722  1
  O  O44  1  0.34223668  0.52982732  0.53144118  1
  O  O45  1  0.84266957  0.52998551  0.53148164  1
  O  O46  1  0.42371696  0.31566509  0.53184929  1
  O  O47  1  0.92434989  0.31698489  0.53164838  1
  O  O48  1  0.27200720  0.68874112  0.97071593  1
  O  O49  1  0.77287677  0.68575213  0.97046202  1
  O  O50  1  0.07414802  0.44939517  0.96989566  1
  O  O51  1  0.57384188  0.45382123  0.97130266  1
  O  O52  1  0.14700822  0.83575282  0.97348105  1
  O  O53  1  0.65396426  0.85137750  0.96813793  1
  O  O54  1  0.27024401  0.85788262  0.46978417  1
  O  O55  1  0.77015355  0.85790305  0.47006640  1
  O  O56  1  0.15083935  0.45691484  0.47347116  1
  O  O57  1  0.65113631  0.45725946  0.47376465  1
  O  O58  1  0.07280317  0.69859096  0.47146771  1
  O  O59  1  0.57277405  0.69856886  0.47139303  1
  O  O60  1  0.05317006  0.63183255  0.36423606  1
  O  O61  1  0.55325649  0.63135548  0.36423563  1
  O  O62  1  0.26173169  0.89960423  0.36174642  1
  O  O63  1  0.76189701  0.90051877  0.36210226  1
  O  O64  1  0.18828871  0.47742233  0.35296706  1
  O  O65  1  0.68737821  0.47654127  0.35297167  1
  O  O66  1  0.07119485  0.49464694  0.86327915  1
  O  O67  1  0.55371813  0.47654930  0.86394552  1
  O  O68  1  0.18233210  0.86235641  0.85954349  1
  O  O69  1  0.67723619  0.88580042  0.85991104  1
  O  O70  1  0.25674452  0.63647663  0.86354217  1
  O  O71  1  0.75941362  0.63564834  0.86289870  1
  O  O72  1  -0.00031220  0.81061967  0.41151279  1
  O  O73  1  0.49944302  0.80992693  0.41134693  1
  O  O74  1  0.40084115  0.98119577  0.41135898  1
  O  O75  1  0.90096058  0.98171879  0.41173577  1
  O  O76  1  0.08125448  0.16892629  0.41187502  1
  O  O77  1  0.58104103  0.16902668  0.41241819  1
  O  O78  1  0.00939463  0.19938192  0.90751373  1
  O  O79  1  0.50405536  0.19125186  0.91239895  1
  O  O80  1  0.07859091  0.97806803  0.90766707  1
  O  O81  1  0.58653883  0.98151134  0.91231940  1
  O  O82  1  0.40068631  0.82120963  0.90932374  1
  O  O83  1  0.90140610  0.82227262  0.91151811  1
  O  O84  1  0.48514079  0.17007551  0.58674327  1
  O  O85  1  0.98594690  0.17198346  0.58620058  1
  O  O86  1  0.10126553  0.03031071  0.58609943  1
  O  O87  1  0.60091686  0.02887923  0.58469233  1
  O  O88  1  0.41661457  0.79826255  0.58562684  1
  O  O89  1  0.91735040  0.79789603  0.58592387  1
  O  O90  1  0.48369339  0.79811144  0.08381553  1
  O  O91  1  0.99161043  0.80800666  0.08645509  1
  O  O92  1  0.41550909  0.03391557  0.08432947  1
  O  O93  1  0.91398862  0.01990404  0.08786910  1
  O  O94  1  0.10245219  0.17465592  0.08337887  1
  O  O95  1  0.59427659  0.17157455  0.08848148  1
  O  O96  1  0.33778514  0.14912765  0.74616714  1
  O  O97  1  0.84160045  0.15748768  0.74522166  1
  O  O98  1  0.23758922  0.32043416  0.74495803  1
  O  O99  1  0.73553072  0.30934501  0.74402704  1
  O  O100  1  0.42060974  0.52588379  0.74429376  1
  O  O101  1  0.92358471  0.52509959  0.74456601  1
  O  O102  1  0.34131343  0.52738659  0.24415812  1
  O  O103  1  0.84093926  0.52551488  0.24508846  1
  O  O104  1  0.41678243  0.30796974  0.24285639  1
  O  O105  1  0.91784192  0.30833063  0.24131239  1
  O  O106  1  0.23758434  0.16008700  0.24408498  1
  O  O107  1  0.73688980  0.15795024  0.24441399  1
  O  O108  1  0.32143038  0.50510678  0.92342048  1
  O  O109  1  0.82619972  0.50735447  0.92167897  1
  O  O110  1  0.42989779  0.35745381  0.92786358  1
  O  O111  1  0.93735587  0.37363979  0.91726744  1
  O  O112  1  0.25492266  0.15426040  0.92550109  1
  O  O113  1  0.74661580  0.13928258  0.92160792  1
  O  O114  1  0.32592625  0.14595278  0.42643133  1
  O  O115  1  0.82589014  0.14619450  0.42688212  1
  O  O116  1  0.25381223  0.35181392  0.42860804  1
  O  O117  1  0.75353200  0.35182673  0.42869617  1
  O  O118  1  0.42984816  0.49867152  0.42761336  1
  O  O119  1  0.92997911  0.49916482  0.42754176  1
  O  O120  1  0.18118255  0.49533664  0.07458027  1
  O  O121  1  0.67352504  0.49158035  0.07916735  1
  O  O122  1  0.06955027  0.64278008  0.08147587  1
  O  O123  1  0.56709773  0.64423139  0.07508742  1
  O  O124  1  0.25583770  0.86618401  0.07747715  1
  O  O125  1  0.75389549  0.86079458  0.07885478  1
  O  O126  1  0.17893527  0.86536658  0.57604317  1
  O  O127  1  0.67887984  0.86389854  0.57550108  1
  O  O128  1  0.25706395  0.64955443  0.57810200  1
  O  O129  1  0.75751807  0.64914537  0.57838286  1
  O  O130  1  0.06663995  0.49390163  0.58014075  1
  O  O131  1  0.56611883  0.49234013  0.58027669  1
  O  O132  1  0.16070164  0.84278506  0.25487765  1
  O  O133  1  0.66060516  0.84089723  0.25627770  1
  O  O134  1  0.26672516  0.69495866  0.25071613  1
  O  O135  1  0.76558646  0.69273818  0.25272833  1
  O  O136  1  0.07810005  0.47232568  0.25328736  1
  O  O137  1  0.57733503  0.47168538  0.25354122  1
  O  O138  1  0.15809706  0.47675456  0.75968057  1
  O  O139  1  0.65698707  0.47328062  0.75535945  1
  O  O140  1  0.08172540  0.68250505  0.75805764  1
  O  O141  1  0.58047952  0.69174063  0.75565870  1
  O  O142  1  0.26341252  0.83194414  0.75850392  1
  O  O143  1  0.76302957  0.84314653  0.75438477  1
loop_
_geom_bond_atom_site_label_1
_geom_bond_atom_site_label_2
_geom_bond_distance
_geom_bond_site_symmetry_2
Na0 O134 2.350402 1_555
Na0 O132 2.396119 1_555
Na0 O104 2.409796 1_565
Na0 O106 2.465518 1_565
Na0 O62 2.617059 1_555
Na0 O4 2.743863 1_565
Na0 O32 2.799561 1_565
Na0 O18 2.927154 1_555
Na1 O135 2.372116 1_555
Na1 O105 2.403249 1_565
Na1 O133 2.406171 1_555
Na1 O107 2.450267 1_565
Na1 O33 2.673273 1_565
Na1 O63 2.706825 1_555
Na1 O5 2.784625 1_565
Na1 O19 2.861089 1_555
Na2 O64 2.341941 1_555
Na2 O136 2.424163 1_555
Na2 O102 2.462627 1_555
Na2 O106 2.488555 1_555
Na2 O134 2.507308 1_555
Na2 O0 2.777928 1_555
Na2 O34 2.909764 1_555
Na2 O20 2.910377 1_555
Na3 O65 2.389995 1_555
Na3 O103 2.418586 1_555
Na3 O137 2.450558 1_555
Na3 O135 2.470155 1_555
Na3 O107 2.479914 1_555
Na3 O35 2.771876 1_555
Na3 O1 2.818461 1_555
Na3 O21 2.948400 1_555
Na4 O141 2.384941 1_555
Na4 O99 2.410020 1_565
Na4 O143 2.423557 1_555
Na4 O97 2.442153 1_565
Na4 O69 2.646005 1_555
Na4 O27 2.699161 1_565
Na4 O7 2.823125 1_565
Na4 O17 2.842216 1_555
Na5 O111 2.360301 1_555
Na5 O80 2.362916 1_655
Na5 O83 2.388102 1_555
Na5 O109 2.404370 1_555
Na5 O39 2.544866 1_556
Na5 O52 2.738320 1_655
Na5 O9 2.801141 1_555
Na5 O66 3.043691 1_655
Na6 O76 2.321408 1_555
Na6 O75 2.562593 1_445
Na6 O85 2.590084 1_455
Na6 O72 2.595027 1_545
Na6 O86 2.596221 1_555
Na6 O89 2.702652 1_445
Na7 O77 2.312268 1_555
Na7 O87 2.568959 1_555
Na7 O74 2.571325 1_545
Na7 O84 2.589106 1_555
Na7 O73 2.607312 1_545
Na7 O88 2.698480 1_545
Na8 O93 2.520057 1_565
Na8 O91 2.528788 1_555
Na8 O94 2.536011 1_665
Na8 O83 2.593517 1_554
Na8 O80 2.616350 1_654
Na8 O78 2.685529 1_664
Na9 O95 2.470949 1_555
Na9 O81 2.499648 1_544
Na9 O90 2.519338 1_545
Na9 O79 2.582866 1_554
Na9 O92 2.603518 1_555
Na9 O82 2.733092 1_544
Na10 O100 2.432703 1_555
Na10 O96 2.458922 1_555
Na10 O98 2.464748 1_555
Na10 O112 2.725557 1_555
Na10 O108 2.746997 1_555
Na10 O110 2.789695 1_555
Na11 O113 2.509269 1_555
Na11 O109 2.537817 1_555
Na11 O111 2.559838 1_555
Na11 O99 2.568588 1_555
Na11 O97 2.605177 1_555
Na11 O101 2.666092 1_555
Na12 O102 2.527639 1_555
Na12 O118 2.609844 1_555
Na12 O104 2.611296 1_555
Na12 O116 2.623882 1_555
Na12 O106 2.640101 1_555
Na12 O114 2.701876 1_555
Na12 O64 3.366859 1_555
Na12 O61 3.425663 1_555
Na12 O2 3.516806 1_555
Na13 O103 2.473602 1_555
Na13 O105 2.616248 1_555
Na13 O107 2.616411 1_555
Na13 O119 2.640555 1_555
Na13 O117 2.662391 1_555
Na13 O115 2.737374 1_555
Na13 O60 3.430641 1_655
Na14 O122 2.378639 1_555
Na14 O136 2.520397 1_555
Na14 O132 2.547987 1_555
Na14 O134 2.651352 1_555
Na14 O124 2.669138 1_555
Na14 O120 2.699051 1_555
Na15 O121 2.497703 1_555
Na15 O125 2.512508 1_555
Na15 O123 2.557391 1_555
Na15 O137 2.628435 1_555
Na15 O135 2.633065 1_555
Na15 O133 2.639267 1_555
Na16 O130 2.391578 1_555
Na16 O128 2.447831 1_555
Na16 O126 2.480058 1_555
Na16 O140 2.785024 1_555
Na16 O142 2.798679 1_555
Na16 O138 2.800403 1_555
Na17 O131 2.485016 1_555
Na17 O129 2.547804 1_555
Na17 O139 2.550976 1_555
Na17 O143 2.653772 1_555
Na17 O127 2.659965 1_555
Na17 O141 2.681287 1_555
O0 S0 1.469118 1_545
O0 Zn0 2.098663 1_555
O1 S1 1.470307 1_545
O1 Zn1 2.081917 1_555
O2 S2 1.467134 1_555
O2 Zn1 2.176049 1_565
O3 S3 1.470075 1_555
O3 Zn0 2.159247 1_665
O4 S5 1.482072 1_555
O4 Zn1 2.129933 1_555
O5 S4 1.483478 1_555
O5 Zn0 2.120890 1_655
O6 S6 1.461808 1_555
O6 Zn2 2.074379 1_555
O7 S7 1.490811 1_555
O7 Zn3 2.013904 1_555
O8 S9 1.480375 1_555
O8 Zn3 2.041407 1_565
O9 S8 1.462372 1_555
O9 Zn2 2.130851 1_665
O10 S10 1.464951 1_555
O10 Zn3 2.112619 1_555
O11 S11 1.474352 1_545
O11 Zn2 2.042626 1_655
O12 S10 1.457589 1_565
O12 Zn5 2.141781 1_565
O13 S11 1.475364 1_555
O13 Zn4 2.059247 1_565
O14 S6 1.465068 1_555
O14 Zn4 2.135405 1_455
O15 S7 1.479761 1_555
O15 Zn5 2.079936 1_555
O16 S8 1.464000 1_455
O16 Zn4 2.187494 1_465
O17 S9 1.490936 1_555
O17 Zn5 2.087664 1_565
O18 S2 1.484751 1_555
O18 Zn7 2.055153 1_565
O19 S3 1.482083 1_555
O19 Zn6 2.007890 1_555
O20 S4 1.488899 1_455
O20 Zn6 2.110416 1_445
O21 S5 1.483356 1_555
O21 Zn7 2.067795 1_555
O22 S0 1.474391 1_555
O22 Zn6 2.090613 1_455
O23 S1 1.477901 1_555
O23 Zn7 2.036790 1_565
O24 S12 1.471111 1_555
O24 Zn8 2.003664 1_555
O25 S13 1.470973 1_555
O25 Zn9 2.000769 1_555
O26 S14 1.466909 1_555
O26 Zn8 2.059059 1_555
O27 S15 1.481570 1_555
O27 Zn9 2.083877 1_555
O28 S16 1.468773 1_555
O28 Zn8 2.015812 1_555
O29 S17 1.470164 1_555
O29 Zn9 2.017543 1_555
O30 S18 1.467471 1_555
O30 Zn10 2.001858 1_555
O31 S19 1.472362 1_555
O31 Zn11 1.969405 1_555
O32 S20 1.472340 1_555
O32 Zn10 2.097934 1_555
O33 S21 1.493640 1_555
O33 Zn11 2.054287 1_555
O34 S22 1.474409 1_555
O34 Zn10 2.071467 1_555
O35 S23 1.495903 1_555
O35 Zn11 2.045584 1_555
O36 S22 1.560105 1_555
O36 Ta0 1.988801 1_554
O37 S23 1.474730 1_555
O37 Zn12 1.986096 1_554
O38 S18 1.548000 1_555
O38 Ta0 2.027515 1_554
O39 S19 1.495697 1_555
O39 Zn12 2.141764 1_554
O40 S20 1.567886 1_555
O40 Ta0 1.968065 1_554
O41 S21 1.481340 1_555
O41 Zn12 2.018525 1_554
O42 S14 1.548130 1_555
O42 Ta1 1.999210 1_555
O43 S15 1.539662 1_555
O43 Ta2 2.006972 1_555
O44 S16 1.544093 1_555
O44 Ta1 2.005698 1_555
O45 S17 1.545631 1_555
O45 Ta2 2.003369 1_555
O46 S12 1.522511 1_555
O46 Ta1 2.090038 1_555
O47 S13 1.515480 1_555
O47 Ta2 2.096402 1_555
O48 S24 1.436862 1_555
O48 Zn13 2.185470 1_556
O49 S25 1.464684 1_555
O49 Zn14 2.009884 1_556
O50 S26 1.455069 1_555
O50 Zn13 2.080115 1_556
O51 S27 1.455583 1_555
O51 Zn14 2.124088 1_556
O52 Si0 1.577529 1_555
O52 Zn13 1.890334 1_556
O53 S28 1.471898 1_555
O53 Zn14 2.054580 1_556
O54 S29 1.452039 1_555
O54 Zn15 2.085933 1_555
O55 S30 1.453051 1_555
O55 Zn16 2.093751 1_555
O56 Si1 1.581503 1_555
O56 Zn15 1.858199 1_555
O57 Si2 1.579849 1_555
O57 Zn16 1.859465 1_555
O58 S31 1.456567 1_555
O58 Zn15 2.070088 1_555
O59 S32 1.455951 1_555
O59 Zn16 2.075795 1_555
O60 S31 1.469569 1_555
O60 Zn17 2.037683 1_555
O61 S32 1.467951 1_555
O61 Zn18 2.056982 1_555
O62 S29 1.489050 1_555
O62 Zn17 2.137649 1_555
O63 S30 1.485174 1_555
O63 Zn18 2.128063 1_555
O64 Si1 1.635837 1_555
O64 Zn17 1.911416 1_555
O65 Si2 1.633493 1_555
O65 Zn18 1.912541 1_555
O66 S26 1.571766 1_555
O66 Ta3 1.999174 1_555
O67 S27 1.465602 1_555
O67 Zn19 2.115835 1_555
O68 Si0 1.711861 1_555
O68 Ta3 1.858180 1_555
O69 S28 1.495540 1_555
O69 Zn19 2.099846 1_555
O70 S24 1.531343 1_555
O70 Ta3 2.082299 1_555
O71 S25 1.475831 1_555
O71 Zn19 2.014462 1_555
O72 S31 1.465120 1_555
O72 Zn0 2.150438 1_565
O73 S32 1.466812 1_555
O73 Zn1 2.140119 1_565
O74 S29 1.459809 1_555
O74 Zn1 2.185485 1_565
O75 S30 1.460889 1_555
O75 Zn0 2.186204 1_665
O76 Si1 1.608892 1_555
O76 Zn0 1.907988 1_555
O77 Si2 1.610295 1_555
O77 Zn1 1.903765 1_555
O78 S26 1.449970 1_555
O78 Zn2 2.103304 1_555
O79 S27 1.473051 1_555
O79 Zn3 2.227025 1_555
O80 Si0 1.594767 1_555
O80 Zn2 1.983720 1_565
O81 S28 1.501429 1_555
O81 Zn3 2.080732 1_565
O82 S24 1.454624 1_555
O82 Zn3 2.222074 1_565
O83 S25 1.497602 1_555
O83 Zn2 2.174293 1_665
O84 S12 1.486871 1_555
O84 Zn5 2.124128 1_555
O85 S13 1.486710 1_555
O85 Zn4 2.100916 1_555
O86 S14 1.478999 1_555
O86 Zn4 2.202681 1_455
O87 S15 1.475288 1_555
O87 Zn5 2.197732 1_555
O88 S16 1.476546 1_555
O88 Zn5 2.165954 1_565
O89 S17 1.479850 1_555
O89 Zn4 2.170752 1_565
O90 S18 1.473850 1_555
O90 Zn7 2.229797 1_565
O91 S19 1.492450 1_555
O91 Zn6 2.104373 1_555
O92 S20 1.465287 1_555
O92 Zn7 2.274755 1_555
O93 S21 1.494218 1_555
O93 Zn6 2.108247 1_545
O94 S22 1.463858 1_555
O94 Zn6 2.297354 1_445
O95 S23 1.496915 1_555
O95 Zn7 2.067714 1_555
O96 S10 1.473495 1_555
O96 Zn8 2.214869 1_555
O97 S11 1.512259 1_545
O97 Zn9 2.160116 1_555
O98 S6 1.479063 1_555
O98 Zn8 2.189337 1_555
O99 S7 1.509977 1_555
O99 Zn9 2.180688 1_555
O100 S9 1.485578 1_555
O100 Zn8 2.131847 1_555
O101 S8 1.467006 1_555
O101 Zn9 2.158635 1_555
O102 S2 1.507904 1_555
O102 Zn10 2.113650 1_555
O103 S3 1.499530 1_555
O103 Zn11 2.232394 1_555
O104 S5 1.507308 1_555
O104 Zn10 2.082992 1_555
O105 S4 1.498940 1_555
O105 Zn11 2.166918 1_555
O106 S0 1.530025 1_545
O106 Zn10 2.200357 1_555
O107 S1 1.521352 1_545
O107 Zn11 2.272428 1_555
O108 S24 1.540771 1_555
O108 Ta0 2.086703 1_555
O109 S25 1.513568 1_555
O109 Zn12 2.190371 1_555
O110 S27 1.577804 1_555
O110 Ta0 1.993648 1_555
O111 S26 1.481577 1_655
O111 Zn12 2.413993 1_555
O112 Si0 1.679670 1_545
O112 Ta0 1.900750 1_555
O113 S28 1.499310 1_545
O113 Zn12 2.122287 1_555
O114 S29 1.553771 1_545
O114 Ta1 2.023352 1_555
O115 S30 1.555443 1_545
O115 Ta2 2.016638 1_555
O116 Si1 1.752127 1_555
O116 Ta1 1.837325 1_555
O117 Si2 1.754246 1_555
O117 Ta2 1.834439 1_555
O118 S32 1.558859 1_555
O118 Ta1 2.011977 1_555
O119 S31 1.556643 1_655
O119 Ta2 2.008552 1_555
O120 S22 1.465546 1_555
O120 Zn13 2.149936 1_555
O121 S23 1.485409 1_555
O121 Zn14 2.147764 1_555
O122 S19 1.493847 1_455
O122 Zn13 2.067602 1_555
O123 S18 1.464519 1_555
O123 Zn14 2.200126 1_555
O124 S20 1.460594 1_565
O124 Zn13 2.166826 1_555
O125 S21 1.491581 1_565
O125 Zn14 2.084072 1_555
O126 S14 1.467720 1_565
O126 Zn15 2.258071 1_555
O127 S15 1.463698 1_565
O127 Zn16 2.233042 1_555
O128 S16 1.464907 1_555
O128 Zn15 2.200930 1_555
O129 S17 1.461428 1_555
O129 Zn16 2.205050 1_555
O130 S13 1.471818 1_455
O130 Zn15 2.194427 1_555
O131 S12 1.468918 1_555
O131 Zn16 2.190266 1_555
O132 S0 1.495254 1_555
O132 Zn17 2.331630 1_555
O133 S1 1.492585 1_555
O133 Zn18 2.288125 1_555
O134 S2 1.509816 1_555
O134 Zn17 2.406116 1_555
O135 S3 1.512245 1_555
O135 Zn18 2.342868 1_555
O136 S4 1.493812 1_455
O136 Zn17 2.270718 1_555
O137 S5 1.484681 1_555
O137 Zn18 2.283535 1_555
O138 S6 1.556083 1_555
O138 Ta3 2.067487 1_555
O139 S7 1.479935 1_555
O139 Zn19 2.142559 1_555
O140 S8 1.587056 1_455
O140 Ta3 1.996282 1_555
O141 S9 1.505854 1_555
O141 Zn19 2.192911 1_555
O142 S10 1.578725 1_565
O142 Ta3 1.995443 1_555
O143 S11 1.505373 1_555
O143 Zn19 2.195580 1_555
