# generated using pymatgen
data_HoFe5
_symmetry_space_group_name_H-M   'P 1'
_cell_length_a   5.11236506
_cell_length_b   5.11249421
_cell_length_c   3.92167646
_cell_angle_alpha   90.00000000
_cell_angle_beta   90.00000000
_cell_angle_gamma   119.99761872
_symmetry_Int_Tables_number   1
_chemical_formula_structural   HoFe5
_chemical_formula_sum   'Ho1 Fe5'
_cell_volume   88.77026181
_cell_formula_units_Z   1
loop_
 _symmetry_equiv_pos_site_id
 _symmetry_equiv_pos_as_xyz
  1  'x, y, z'
loop_
 _atom_site_type_symbol
 _atom_site_label
 _atom_site_symmetry_multiplicity
 _atom_site_fract_x
 _atom_site_fract_y
 _atom_site_fract_z
 _atom_site_occupancy
  Ho  Ho0  1  0.00000000  -0.00000000  -0.00000000  1
  Fe  Fe0  1  0.33335543  0.66671675  -0.00000000  1
  Fe  Fe1  1  0.66664457  0.33328325  0.00000000  1
  Fe  Fe2  1  0.50000000  -0.00000000  0.50000000  1
  Fe  Fe3  1  0.50000000  0.50000000  0.50000000  1
  Fe  Fe4  1  0.00000000  0.50000000  0.50000000  1
loop_
_geom_bond_atom_site_label_1
_geom_bond_atom_site_label_2
_geom_bond_distance
_geom_bond_site_symmetry_2
Fe0 Fe2 2.454072 1_565
Fe0 Fe2 2.454072 1_564
Fe0 Fe3 2.454237 1_554
Fe0 Fe3 2.454237 1_555
Fe0 Fe4 2.454242 1_554
Fe0 Fe4 2.454242 1_555
Fe0 Fe1 2.951327 1_565
Fe0 Ho0 2.951503 1_565
Fe0 Ho0 2.951598 1_665
Fe0 Fe1 2.951875 1_555
Fe0 Fe1 2.951892 1_455
Fe0 Ho0 2.951992 1_555
Fe1 Fe2 2.454072 1_555
Fe1 Fe2 2.454072 1_554
Fe1 Fe3 2.454237 1_554
Fe1 Fe3 2.454237 1_555
Fe1 Fe4 2.454242 1_654
Fe1 Fe4 2.454242 1_655
Fe1 Ho0 2.951503 1_655
Fe1 Ho0 2.951598 1_555
Fe1 Ho0 2.951992 1_665
Fe2 Fe3 2.556247 1_545
Fe2 Fe3 2.556247 1_555
Fe2 Fe4 2.556307 1_655
Fe2 Fe4 2.556307 1_545
Fe2 Ho0 3.221639 1_656
Fe2 Ho0 3.221639 1_555
Fe2 Ho0 3.221639 1_556
Fe2 Ho0 3.221639 1_655
Fe3 Fe4 2.556183 1_655
Fe3 Fe4 2.556183 1_555
Fe3 Ho0 3.221737 1_665
Fe3 Ho0 3.221737 1_555
Fe3 Ho0 3.221737 1_666
Fe3 Ho0 3.221737 1_556
Fe4 Ho0 3.221690 1_555
Fe4 Ho0 3.221690 1_566
Fe4 Ho0 3.221690 1_556
Fe4 Ho0 3.221690 1_565
