# generated using pymatgen
data_Dy2MgW2(ClO4)2
_symmetry_space_group_name_H-M   'P 1'
_cell_length_a   6.54482457
_cell_length_b   6.54482457
_cell_length_c   6.97639493
_cell_angle_alpha   72.33452921
_cell_angle_beta   72.33452921
_cell_angle_gamma   65.71732641
_symmetry_Int_Tables_number   1
_chemical_formula_structural   Dy2MgW2(ClO4)2
_chemical_formula_sum   'Dy2 Mg1 W2 Cl2 O8'
_cell_volume   253.99801720
_cell_formula_units_Z   1
loop_
 _symmetry_equiv_pos_site_id
 _symmetry_equiv_pos_as_xyz
  1  'x, y, z'
loop_
 _atom_site_type_symbol
 _atom_site_label
 _atom_site_symmetry_multiplicity
 _atom_site_fract_x
 _atom_site_fract_y
 _atom_site_fract_z
 _atom_site_occupancy
  Dy  Dy0  1  0.75599800  0.76379800  0.10757300  1
  Dy  Dy1  1  0.23620200  0.24400200  0.89242700  1
  Mg  Mg0  1  0.68932900  0.31067100  0.50000000  1
  W  W0  1  0.64676600  0.63545100  0.73480400  1
  W  W1  1  0.36454900  0.35323400  0.26519600  1
  Cl  Cl0  1  0.95283000  0.05656800  0.75150600  1
  Cl  Cl1  1  0.94343200  0.04717000  0.24849400  1
  O  O0  1  0.54802600  0.52982000  0.21970300  1
  O  O1  1  0.47018000  0.45197400  0.78029700  1
  O  O2  1  0.75817800  0.60854200  0.45601900  1
  O  O3  1  0.39145800  0.24182200  0.54398100  1
  O  O4  1  0.11994300  0.51250500  0.12889000  1
  O  O5  1  0.45138800  0.08660800  0.16388400  1
  O  O6  1  0.91339200  0.54861200  0.83611600  1
  O  O7  1  0.48749500  0.88005700  0.87111000  1
loop_
_geom_bond_atom_site_label_1
_geom_bond_atom_site_label_2
_geom_bond_distance
_geom_bond_site_symmetry_2
Dy0 O0 2.269525 1_555
Dy0 O5 2.270821 1_565
Dy0 O4 2.290248 1_655
Dy0 O2 2.334942 1_555
Dy0 O6 2.423337 1_554
Dy0 O7 2.507253 1_554
Dy1 O1 2.269525 1_555
Dy1 O6 2.270821 1_455
Dy1 O7 2.290248 1_545
Dy1 O3 2.334942 1_555
Dy1 O5 2.423337 1_556
Dy1 O4 2.507253 1_556
Mg0 O2 2.091257 1_555
Mg0 O3 2.091257 1_555
Mg0 O1 2.245141 1_555
Mg0 O0 2.245141 1_555
Cl0 Mg0 2.554433 1_555
Cl0 Dy0 2.949731 1_546
Cl0 Dy1 3.101736 1_655
Cl0 O1 3.150026 1_555
Cl0 O6 3.299931 1_545
Cl0 O3 3.328993 1_655
Cl0 O6 3.341137 1_555
Cl0 Cl1 3.431207 1_556
Cl0 O7 3.483966 1_645
Cl0 Cl1 3.547850 1_555
Cl1 Mg0 2.554433 1_555
Cl1 Dy1 2.949731 1_654
Cl1 Dy0 3.101736 1_545
Cl1 O0 3.150026 1_555
Cl1 O5 3.299931 1_655
Cl1 O2 3.328993 1_545
Cl1 O5 3.341137 1_555
Cl1 O4 3.483966 1_645
O0 W1 1.888369 1_555
O1 W0 1.888369 1_555
O2 W0 1.893924 1_555
O3 W1 1.893924 1_555
O4 W1 1.871775 1_555
O5 W1 1.885924 1_555
O6 W0 1.885924 1_555
O7 W0 1.871775 1_555
