# generated using pymatgen
data_MgFe6(O5F)2
_symmetry_space_group_name_H-M   'P 1'
_cell_length_a   7.14970723
_cell_length_b   5.70052857
_cell_length_c   5.96451447
_cell_angle_alpha   82.59871394
_cell_angle_beta   71.78844016
_cell_angle_gamma   73.25355316
_symmetry_Int_Tables_number   1
_chemical_formula_structural   MgFe6(O5F)2
_chemical_formula_sum   'Mg1 Fe6 O10 F2'
_cell_volume   220.92504940
_cell_formula_units_Z   1
loop_
 _symmetry_equiv_pos_site_id
 _symmetry_equiv_pos_as_xyz
  1  'x, y, z'
loop_
 _atom_site_type_symbol
 _atom_site_label
 _atom_site_symmetry_multiplicity
 _atom_site_fract_x
 _atom_site_fract_y
 _atom_site_fract_z
 _atom_site_occupancy
  Mg  Mg0  1  0.67477092  0.34142101  0.84874076  1
  Fe  Fe0  1  0.84944763  0.72215031  0.61307212  1
  Fe  Fe1  1  0.65445575  0.27893355  0.39203450  1
  Fe  Fe2  1  0.32765785  0.73578311  0.60159789  1
  Fe  Fe3  1  0.15017144  0.33339403  0.35585327  1
  Fe  Fe4  1  0.48215638  0.96945471  0.02418925  1
  Fe  Fe5  1  0.00370471  0.94509233  0.05017718  1
  O  O0  1  0.66032760  0.04800180  0.67459715  1
  O  O1  1  0.29073691  0.89965383  0.89042743  1
  O  O2  1  0.95634024  0.21458020  0.24318861  1
  O  O3  1  0.61652062  0.58076509  0.57432951  1
  O  O4  1  0.03408993  0.79676141  0.75964100  1
  O  O5  1  0.36486251  0.44272131  0.44574005  1
  O  O6  1  0.70458283  0.08546638  0.11121640  1
  O  O7  1  0.32608574  0.99005868  0.35060158  1
  O  O8  1  0.95725902  0.37675827  0.66816213  1
  O  O9  1  0.01241124  0.68547020  0.29250155  1
  F  F0  1  0.36466503  0.33962189  0.00195527  1
  F  F1  1  0.65308666  0.63057888  0.01864035  1
loop_
_geom_bond_atom_site_label_1
_geom_bond_atom_site_label_2
_geom_bond_distance
_geom_bond_site_symmetry_2
Mg0 O6 2.016458 1_556
Mg0 O8 2.024527 1_555
Mg0 O3 2.058438 1_555
Mg0 O0 2.121661 1_555
Fe0 O9 1.904551 1_655
Fe0 O8 1.922447 1_555
Fe0 O4 1.956690 1_655
Fe0 O0 1.957409 1_565
Fe0 O3 2.130358 1_555
Fe1 O5 1.951874 1_555
Fe1 O2 2.002816 1_555
Fe1 O0 2.003979 1_555
Fe1 O6 2.005771 1_555
Fe1 O3 2.060334 1_555
Fe2 O5 1.927521 1_555
Fe2 O7 1.945371 1_555
Fe2 O4 1.960147 1_555
Fe2 O3 1.961654 1_555
Fe2 O1 1.974429 1_555
Fe3 O8 1.936396 1_455
Fe3 O7 1.996517 1_545
Fe3 O9 2.009749 1_555
Fe3 O2 2.017699 1_455
Fe3 O5 2.045423 1_555
Fe4 O7 1.916979 1_555
Fe4 O1 1.935458 1_554
Fe4 O6 2.108618 1_565
Fe4 O0 2.144520 1_564
Fe5 O2 1.926689 1_465
Fe5 O1 1.929124 1_554
Fe5 O9 1.932691 1_555
Fe5 O4 1.949739 1_554
Fe5 O6 1.987161 1_465
F0 Fe4 2.037646 1_545
F0 Mg0 2.120209 1_554
F0 Fe3 2.190296 1_555
F0 O0 2.697363 1_554
F0 O5 2.784857 1_555
F1 Fe4 1.963945 1_555
F1 Mg0 1.988190 1_554
F1 Fe0 2.463612 1_554
F1 O8 2.705052 1_554
