# generated using pymatgen
data_SrBiSe3
_symmetry_space_group_name_H-M   'P 1'
_cell_length_a   4.26780100
_cell_length_b   16.12663100
_cell_length_c   33.81257200
_cell_angle_alpha   90.00000000
_cell_angle_beta   90.00000000
_cell_angle_gamma   90.00000000
_symmetry_Int_Tables_number   1
_chemical_formula_structural   SrBiSe3
_chemical_formula_sum   'Sr16 Bi16 Se48'
_cell_volume   2327.15878557
_cell_formula_units_Z   16
loop_
 _symmetry_equiv_pos_site_id
 _symmetry_equiv_pos_as_xyz
  1  'x, y, z'
loop_
 _atom_site_type_symbol
 _atom_site_label
 _atom_site_symmetry_multiplicity
 _atom_site_fract_x
 _atom_site_fract_y
 _atom_site_fract_z
 _atom_site_occupancy
  Sr  Sr0  1  0.25387800  0.31456100  0.32668700  1
  Sr  Sr1  1  0.75387800  0.18543900  0.67331300  1
  Sr  Sr2  1  0.74612200  0.81456100  0.17331300  1
  Sr  Sr3  1  0.24612200  0.68543900  0.82668700  1
  Sr  Sr4  1  0.73780600  0.88080500  0.04645900  1
  Sr  Sr5  1  0.23780600  0.61919500  0.95354100  1
  Sr  Sr6  1  0.26219400  0.38080500  0.45354100  1
  Sr  Sr7  1  0.76219400  0.11919500  0.54645900  1
  Sr  Sr8  1  0.21257600  0.53301600  0.07694400  1
  Sr  Sr9  1  0.71257600  0.96698400  0.92305600  1
  Sr  Sr10  1  0.78742400  0.03301600  0.42305600  1
  Sr  Sr11  1  0.28742400  0.46698400  0.57694400  1
  Sr  Sr12  1  0.77074900  0.95408400  0.29357300  1
  Sr  Sr13  1  0.27074900  0.54591600  0.70642700  1
  Sr  Sr14  1  0.22925100  0.45408400  0.20642700  1
  Sr  Sr15  1  0.72925100  0.04591600  0.79357300  1
  Bi  Bi0  1  0.76242900  0.70163100  0.60932400  1
  Bi  Bi1  1  0.26242900  0.79836900  0.39067600  1
  Bi  Bi2  1  0.23757100  0.20163100  0.89067600  1
  Bi  Bi3  1  0.73757100  0.29836900  0.10932400  1
  Bi  Bi4  1  0.75754100  0.62956000  0.48462000  1
  Bi  Bi5  1  0.25754100  0.87044000  0.51538000  1
  Bi  Bi6  1  0.24245900  0.12956000  0.01538000  1
  Bi  Bi7  1  0.74245900  0.37044000  0.98462000  1
  Bi  Bi8  1  0.27209400  0.69893400  0.27145100  1
  Bi  Bi9  1  0.77209400  0.80106600  0.72854900  1
  Bi  Bi10  1  0.72790600  0.19893400  0.22854900  1
  Bi  Bi11  1  0.22790600  0.30106600  0.77145100  1
  Bi  Bi12  1  0.76125000  0.55307200  0.36102200  1
  Bi  Bi13  1  0.26125000  0.94692800  0.63897800  1
  Bi  Bi14  1  0.23875000  0.05307200  0.13897800  1
  Bi  Bi15  1  0.73875000  0.44692800  0.86102200  1
  Se  Se0  1  0.89016000  0.30573800  0.59197200  1
  Se  Se1  1  0.39016000  0.19426200  0.40802800  1
  Se  Se2  1  0.10984000  0.80573800  0.90802800  1
  Se  Se3  1  0.60984000  0.69426200  0.09197200  1
  Se  Se4  1  0.70316100  0.36122800  0.72232200  1
  Se  Se5  1  0.20316100  0.13877200  0.27767800  1
  Se  Se6  1  0.29683900  0.86122800  0.77767800  1
  Se  Se7  1  0.79683900  0.63877200  0.22232200  1
  Se  Se8  1  0.76135300  0.63973900  0.75932900  1
  Se  Se9  1  0.26135300  0.86026100  0.24067100  1
  Se  Se10  1  0.23864700  0.13973900  0.74067100  1
  Se  Se11  1  0.73864700  0.36026100  0.25932900  1
  Se  Se12  1  0.26091000  0.33181800  0.64690200  1
  Se  Se13  1  0.76091000  0.16818200  0.35309800  1
  Se  Se14  1  0.73909000  0.83181800  0.85309800  1
  Se  Se15  1  0.23909000  0.66818200  0.14690200  1
  Se  Se16  1  0.77530300  0.54067600  0.63682700  1
  Se  Se17  1  0.27530300  0.95932400  0.36317300  1
  Se  Se18  1  0.22469700  0.04067600  0.86317300  1
  Se  Se19  1  0.24696000  0.27185300  0.53582400  1
  Se  Se20  1  0.72469700  0.45932400  0.13682700  1
  Se  Se21  1  0.26447600  0.52195900  0.30809200  1
  Se  Se22  1  0.23552400  0.47804100  0.80809200  1
  Se  Se23  1  0.73552400  0.02195900  0.19190800  1
  Se  Se24  1  0.77187600  0.46888500  0.50822500  1
  Se  Se25  1  0.27187600  0.03111500  0.49177500  1
  Se  Se26  1  0.22812400  0.96888500  0.99177500  1
  Se  Se27  1  0.72812400  0.53111500  0.00822500  1
  Se  Se28  1  0.73573100  0.60659100  0.88549100  1
  Se  Se29  1  0.23573100  0.89340900  0.11450900  1
  Se  Se30  1  0.26426900  0.10659100  0.61450900  1
  Se  Se31  1  0.76426900  0.39340900  0.38549100  1
  Se  Se32  1  0.78527400  0.75485100  0.33465200  1
  Se  Se33  1  0.28527400  0.74514900  0.66534800  1
  Se  Se34  1  0.21472600  0.25485100  0.16534800  1
  Se  Se35  1  0.71472600  0.24514900  0.83465200  1
  Se  Se36  1  0.27066600  0.60515300  0.42727400  1
  Se  Se37  1  0.77066600  0.89484700  0.57272600  1
  Se  Se38  1  0.72933400  0.10515300  0.07272600  1
  Se  Se39  1  0.22933400  0.39484700  0.92727400  1
  Se  Se40  1  0.28096400  0.66908800  0.54772300  1
  Se  Se41  1  0.78096400  0.83091200  0.45227700  1
  Se  Se42  1  0.71903600  0.16908800  0.95227700  1
  Se  Se43  1  0.21903600  0.33091200  0.04772300  1
  Se  Se44  1  0.25304000  0.72814700  0.03582400  1
  Se  Se45  1  0.75304000  0.77185300  0.96417600  1
  Se  Se46  1  0.74696000  0.22814700  0.46417600  1
  Se  Se47  1  0.76447600  0.97804100  0.69190800  1
loop_
_geom_bond_atom_site_label_1
_geom_bond_atom_site_label_2
_geom_bond_distance
_geom_bond_site_symmetry_2
Bi0 Se16 2.757767 1_555
Bi0 Se33 2.868430 1_555
Bi0 Se40 2.972547 1_555
Bi0 Se33 3.009999 1_655
Bi0 Se40 3.084029 1_655
Bi0 Se37 3.352842 1_555
Bi1 Se17 2.757767 1_555
Bi1 Se32 2.868430 1_455
Bi1 Se41 2.972547 1_455
Bi1 Se32 3.009999 1_555
Bi1 Se41 3.084029 1_555
Bi1 Se36 3.352842 1_555
Bi2 Se18 2.757767 1_555
Bi2 Se35 2.868430 1_555
Bi2 Se42 2.972547 1_555
Bi2 Se35 3.009999 1_455
Bi2 Se42 3.084029 1_455
Bi2 Se39 3.352842 1_555
Bi3 Se20 2.757767 1_555
Bi3 Se34 2.868430 1_655
Bi3 Se43 2.972547 1_655
Bi3 Se34 3.009999 1_555
Bi3 Se43 3.084029 1_555
Bi3 Se38 3.352842 1_555
Bi4 Se24 2.711977 1_555
Bi4 Se36 2.869201 1_555
Bi4 Se36 2.951345 1_655
Bi4 Se40 3.015926 1_555
Bi4 Se40 3.154214 1_655
Bi4 Se41 3.427799 1_555
Bi5 Se25 2.711977 1_565
Bi5 Se37 2.869201 1_455
Bi5 Se37 2.951345 1_555
Bi5 Se41 3.015926 1_455
Bi5 Se41 3.154214 1_555
Bi5 Se40 3.427799 1_555
Bi6 Se26 2.711977 1_544
Bi6 Se38 2.869201 1_555
Bi6 Se38 2.951345 1_455
Bi6 Se42 3.015926 1_554
Bi6 Se42 3.154214 1_454
Bi6 Se43 3.427799 1_555
Bi7 Se27 2.711977 1_556
Bi7 Se39 2.869201 1_655
Bi7 Se39 2.951345 1_555
Bi7 Se43 3.015926 1_656
Bi7 Se43 3.154214 1_556
Bi7 Se42 3.427799 1_555
Bi8 Se7 2.795496 1_455
Bi8 Se9 2.802482 1_555
Bi8 Se7 2.952323 1_555
Bi8 Se21 3.111490 1_555
Bi8 Se32 3.113922 1_455
Bi8 Se32 3.190084 1_555
Bi9 Se6 2.795496 1_555
Bi9 Se8 2.802482 1_555
Bi9 Se6 2.952323 1_655
Bi9 Se47 3.111490 1_555
Bi9 Se33 3.113922 1_555
Bi9 Se33 3.190084 1_655
Bi10 Se5 2.795496 1_655
Bi10 Se11 2.802482 1_555
Bi10 Se5 2.952323 1_555
Bi10 Se23 3.111490 1_555
Bi10 Se34 3.113922 1_655
Bi10 Se34 3.190084 1_555
Bi11 Se4 2.795496 1_555
Bi11 Se10 2.802482 1_555
Bi11 Se4 2.952323 1_455
Bi11 Se22 3.111490 1_555
Bi11 Se35 3.113922 1_555
Bi11 Se35 3.190084 1_455
Bi12 Se31 2.704519 1_555
Bi12 Se21 2.819528 1_555
Bi12 Se21 2.840291 1_655
Bi12 Se36 3.179203 1_555
Bi12 Se36 3.232699 1_655
Bi12 Se32 3.375522 1_555
Bi13 Se30 2.704519 1_565
Bi13 Se47 2.819528 1_455
Bi13 Se47 2.840291 1_555
Bi13 Se37 3.179203 1_455
Bi13 Se37 3.232699 1_555
Bi13 Se33 3.375522 1_555
Bi14 Se29 2.704519 1_545
Bi14 Se23 2.819528 1_555
Bi14 Se23 2.840291 1_455
Bi14 Se38 3.179203 1_555
Bi14 Se38 3.232699 1_455
Bi14 Se34 3.375522 1_555
Bi15 Se28 2.704519 1_555
Bi15 Se22 2.819528 1_655
Bi15 Se22 2.840291 1_555
Bi15 Se39 3.179203 1_655
Bi15 Se39 3.232699 1_555
Bi15 Se35 3.375522 1_555
Se0 Se12 2.475919 1_655
Se0 Se19 2.494336 1_655
Se0 Sr11 3.145564 1_655
Se0 Se12 3.292192 1_555
Se0 Se19 3.382047 1_555
Se0 Sr1 3.415607 1_555
Se0 Sr7 3.422929 1_555
Se0 Sr11 3.692840 1_555
Se1 Se13 2.475919 1_555
Se1 Se46 2.494336 1_555
Se1 Sr10 3.145564 1_555
Se1 Se13 3.292192 1_455
Se1 Se46 3.382047 1_455
Se1 Sr0 3.415607 1_555
Se1 Sr6 3.422929 1_555
Se1 Sr10 3.692840 1_455
Se2 Se45 2.494336 1_455
Se2 Sr9 3.145564 1_455
Se2 Se45 3.382047 1_555
Se2 Sr3 3.415607 1_555
Se2 Sr5 3.422929 1_555
Se2 Sr9 3.692840 1_555
Se3 Se44 2.494336 1_555
Se3 Sr8 3.145564 1_555
Se3 Se44 3.382047 1_655
Se3 Sr2 3.415607 1_555
Se3 Sr4 3.422929 1_555
Se3 Sr8 3.692840 1_655
Se4 Sr1 3.290816 1_555
Se4 Sr13 3.544767 1_555
Se4 Sr13 3.876530 1_655
Se5 Sr0 3.290816 1_555
Se5 Sr12 3.544767 1_445
Se5 Sr12 3.876530 1_545
Se6 Sr3 3.290816 1_555
Se6 Sr15 3.544767 1_565
Se6 Sr15 3.876530 1_465
Se7 Sr2 3.290816 1_555
Se7 Sr14 3.544767 1_655
Se7 Sr14 3.876530 1_555
Se8 Sr13 3.142125 1_555
Se8 Sr3 3.163970 1_655
Se8 Sr13 3.196128 1_655
Se8 Sr3 3.250469 1_555
Se9 Sr12 3.142125 1_455
Se9 Sr2 3.163970 1_555
Se9 Sr12 3.196128 1_555
Se9 Sr2 3.250469 1_455
Se10 Sr15 3.142125 1_555
Se10 Sr1 3.163970 1_455
Se10 Sr15 3.196128 1_455
Se10 Sr1 3.250469 1_555
Se10 Se47 3.689659 1_445
Se10 Se47 3.815035 1_545
Se11 Sr14 3.142125 1_655
Se11 Sr0 3.163970 1_555
Se11 Sr14 3.196128 1_555
Se11 Sr0 3.250469 1_655
Se11 Se21 3.689659 1_555
Se11 Se21 3.815035 1_655
Se12 Se4 3.207898 1_555
Se12 Sr11 3.218635 1_555
Se12 Sr1 3.285769 1_555
Se12 Sr1 3.324521 1_455
Se12 Se4 3.520554 1_455
Se12 Sr13 3.996710 1_555
Se13 Se5 3.207898 1_655
Se13 Sr10 3.218635 1_555
Se13 Sr0 3.285769 1_655
Se13 Sr0 3.324521 1_555
Se13 Se5 3.520554 1_555
Se13 Sr12 3.996710 1_545
Se14 Se2 2.475919 1_655
Se14 Se6 3.207898 1_555
Se14 Sr9 3.218635 1_555
Se14 Sr3 3.285769 1_555
Se14 Se2 3.292192 1_555
Se14 Sr3 3.324521 1_655
Se14 Se6 3.520554 1_655
Se14 Sr15 3.996710 1_565
Se15 Se3 2.475919 1_555
Se15 Se7 3.207898 1_455
Se15 Sr8 3.218635 1_555
Se15 Sr2 3.285769 1_455
Se15 Se3 3.292192 1_455
Se15 Sr2 3.324521 1_555
Se15 Se7 3.520554 1_555
Se15 Sr14 3.996710 1_555
Se16 Sr11 3.138080 1_555
Se16 Sr13 3.164867 1_655
Se16 Sr13 3.190968 1_555
Se16 Sr11 3.207661 1_655
Se17 Sr10 3.138080 1_465
Se17 Sr12 3.164867 1_555
Se17 Sr12 3.190968 1_455
Se17 Sr10 3.207661 1_565
Se18 Sr9 3.138080 1_545
Se18 Sr15 3.164867 1_455
Se18 Sr15 3.190968 1_555
Se18 Sr9 3.207661 1_445
Se19 Sr7 3.235791 1_455
Se19 Sr6 3.291202 1_555
Se19 Se46 3.304440 1_455
Se19 Se46 3.304440 1_555
Se19 Sr7 3.320436 1_555
Se19 Sr11 3.444611 1_555
Se20 Sr8 3.138080 1_655
Se20 Sr14 3.164867 1_555
Se20 Sr14 3.190968 1_655
Se20 Sr8 3.207661 1_555
Se21 Sr0 3.403516 1_555
Se21 Sr14 3.610751 1_555
Se22 Sr3 3.403516 1_555
Se22 Sr13 3.610751 1_555
Se22 Se8 3.689659 1_455
Se22 Se8 3.815035 1_555
Se23 Sr2 3.403516 1_545
Se23 Sr12 3.610751 1_545
Se23 Se9 3.689659 1_545
Se23 Se9 3.815035 1_645
Se24 Sr11 3.110408 1_555
Se24 Sr6 3.132945 1_655
Se24 Sr6 3.188737 1_555
Se24 Sr11 3.200160 1_655
Se25 Sr10 3.110408 1_455
Se25 Sr7 3.132945 1_555
Se25 Sr7 3.188737 1_455
Se25 Sr10 3.200160 1_555
Se26 Sr9 3.110408 1_555
Se26 Sr4 3.132945 1_456
Se26 Sr4 3.188737 1_556
Se26 Sr9 3.200160 1_455
Se27 Sr8 3.110408 1_655
Se27 Sr5 3.132945 1_554
Se27 Sr5 3.188737 1_654
Se27 Sr8 3.200160 1_555
Se28 Sr5 3.138707 1_555
Se28 Sr5 3.150725 1_655
Se28 Sr3 3.152218 1_555
Se28 Sr3 3.211698 1_655
Se29 Sr4 3.138707 1_455
Se29 Sr4 3.150725 1_555
Se29 Sr2 3.152218 1_455
Se29 Sr2 3.211698 1_555
Se30 Sr7 3.138707 1_555
Se30 Sr7 3.150725 1_455
Se30 Sr1 3.152218 1_555
Se30 Sr1 3.211698 1_455
Se31 Sr6 3.138707 1_655
Se31 Sr6 3.150725 1_555
Se31 Sr0 3.152218 1_655
Se31 Sr0 3.211698 1_555
Se32 Sr12 3.500888 1_555
Se33 Sr13 3.500888 1_555
Se34 Sr14 3.500888 1_555
Se35 Sr15 3.500888 1_555
Se36 Sr6 3.725572 1_555
Se37 Sr7 3.725572 1_565
Se38 Sr4 3.725572 1_545
Se39 Sr5 3.725572 1_555
Se40 Sr11 3.405838 1_555
Se41 Sr10 3.405838 1_565
Se42 Sr9 3.405838 1_545
Se43 Sr8 3.405838 1_555
Se44 Sr4 3.235791 1_555
Se44 Sr5 3.291202 1_554
Se44 Se45 3.304440 1_554
Se44 Se45 3.304440 1_454
Se44 Sr4 3.320436 1_455
Se44 Sr8 3.444611 1_555
Se45 Sr5 3.235791 1_655
Se45 Sr4 3.291202 1_556
Se45 Sr5 3.320436 1_555
Se45 Sr9 3.444611 1_555
Se46 Sr6 3.235791 1_555
Se46 Sr7 3.291202 1_555
Se46 Sr6 3.320436 1_655
Se46 Sr10 3.444611 1_555
Se47 Sr1 3.403516 1_565
Se47 Sr15 3.610751 1_565
