# generated using pymatgen
data_Na2MgNb2O6
_symmetry_space_group_name_H-M   'P 1'
_cell_length_a   5.33512234
_cell_length_b   5.33512234
_cell_length_c   6.49586623
_cell_angle_alpha   65.75400598
_cell_angle_beta   65.75400598
_cell_angle_gamma   60.00002058
_symmetry_Int_Tables_number   1
_chemical_formula_structural   Na2MgNb2O6
_chemical_formula_sum   'Na2 Mg1 Nb2 O6'
_cell_volume   140.97736203
_cell_formula_units_Z   1
loop_
 _symmetry_equiv_pos_site_id
 _symmetry_equiv_pos_as_xyz
  1  'x, y, z'
loop_
 _atom_site_type_symbol
 _atom_site_label
 _atom_site_symmetry_multiplicity
 _atom_site_fract_x
 _atom_site_fract_y
 _atom_site_fract_z
 _atom_site_occupancy
  Na  Na0  1  0.33343900  0.33343900  0.99968000  1
  Na  Na1  1  0.66656100  0.66656100  0.00032000  1
  Mg  Mg0  1  0.50000000  0.50000000  0.50000000  1
  Nb  Nb0  1  0.15448600  0.15448600  0.53654200  1
  Nb  Nb1  1  0.84551400  0.84551400  0.46345800  1
  O  O0  1  0.90224300  0.24041500  0.30424300  1
  O  O1  1  0.24041500  0.55309900  0.30424300  1
  O  O2  1  0.55309900  0.90224300  0.30424300  1
  O  O3  1  0.09775700  0.75958500  0.69575700  1
  O  O4  1  0.75958500  0.44690100  0.69575700  1
  O  O5  1  0.44690100  0.09775700  0.69575700  1
loop_
_geom_bond_atom_site_label_1
_geom_bond_atom_site_label_2
_geom_bond_distance
_geom_bond_site_symmetry_2
Na0 O0 2.459652 1_456
Na0 O2 2.459658 1_546
Na0 O1 2.459663 1_556
Na0 O5 2.478155 1_555
Na0 O3 2.478160 1_555
Na0 O4 2.478166 1_555
Na0 Na1 3.080228 1_456
Na0 Na1 3.080228 1_546
Na0 Na1 3.080255 1_556
Na1 O3 2.459652 1_654
Na1 O5 2.459658 1_564
Na1 O4 2.459663 1_554
Na1 O2 2.478155 1_555
Na1 O0 2.478160 1_555
Na1 O1 2.478166 1_555
Mg0 O4 2.091277 1_555
Mg0 O1 2.091277 1_555
Mg0 O2 2.091277 1_555
Mg0 O5 2.091277 1_555
Mg0 O0 2.091277 1_555
Mg0 O3 2.091277 1_555
Nb0 O3 2.047191 1_545
Nb0 O5 2.047191 1_555
Nb0 O4 2.047192 1_455
Nb0 O1 2.186542 1_555
Nb0 O0 2.186542 1_455
Nb0 O2 2.186542 1_545
Nb1 O0 2.047191 1_565
Nb1 O2 2.047191 1_555
Nb1 O1 2.047192 1_655
Nb1 O4 2.186542 1_555
Nb1 O3 2.186542 1_655
Nb1 O5 2.186542 1_565
