# generated using pymatgen
data_MgV2Zn2(SiO5)2
_symmetry_space_group_name_H-M   'P 1'
_cell_length_a   5.48210598
_cell_length_b   7.33554646
_cell_length_c   8.08446739
_cell_angle_alpha   89.56097554
_cell_angle_beta   41.97829740
_cell_angle_gamma   106.38528976
_symmetry_Int_Tables_number   1
_chemical_formula_structural   MgV2Zn2(SiO5)2
_chemical_formula_sum   'Mg1 V2 Zn2 Si2 O10'
_cell_volume   196.28423463
_cell_formula_units_Z   1
loop_
 _symmetry_equiv_pos_site_id
 _symmetry_equiv_pos_as_xyz
  1  'x, y, z'
loop_
 _atom_site_type_symbol
 _atom_site_label
 _atom_site_symmetry_multiplicity
 _atom_site_fract_x
 _atom_site_fract_y
 _atom_site_fract_z
 _atom_site_occupancy
  Mg  Mg0  1  0.00120600  0.49909800  0.00003900  1
  V  V0  1  0.50161900  0.49927700  0.49998300  1
  V  V1  1  0.50133500  0.99921400  0.50015500  1
  Zn  Zn0  1  0.30120900  0.16765500  0.28582300  1
  Zn  Zn1  1  0.70085300  0.83051000  0.71493300  1
  Si  Si0  1  0.53751900  0.24951000  0.84097400  1
  Si  Si1  1  0.46531900  0.74897200  0.15927700  1
  O  O0  1  0.69403700  0.11177100  0.64491100  1
  O  O1  1  0.46018400  0.41110600  0.76201000  1
  O  O2  1  0.30843000  0.88652200  0.35553500  1
  O  O3  1  0.54280500  0.58737800  0.23808600  1
  O  O4  1  0.14824400  0.64245200  0.16478500  1
  O  O5  1  0.89052100  0.89777700  0.84807300  1
  O  O6  1  0.85493000  0.35603400  0.83516500  1
  O  O7  1  0.11226900  0.10081500  0.15224400  1
  O  O8  1  0.44293900  0.73491500  0.63368600  1
  O  O9  1  0.55993300  0.26344700  0.36638800  1
loop_
_geom_bond_atom_site_label_1
_geom_bond_atom_site_label_2
_geom_bond_distance
_geom_bond_site_symmetry_2
Mg0 O3 2.045712 1_455
Mg0 O1 2.046250 1_554
Mg0 O9 2.126459 1_455
Mg0 O8 2.126744 1_554
Mg0 O6 2.157984 1_454
Mg0 O4 2.160775 1_555
O0 Si0 1.661658 1_555
O0 Zn0 2.126061 1_655
O0 V1 2.127931 1_545
O0 Zn1 2.153070 1_545
O1 Si0 1.633026 1_555
O1 V0 2.034211 1_555
O2 Si1 1.661466 1_555
O2 Zn1 2.127421 1_455
O2 V1 2.128053 1_555
O2 Zn0 2.152567 1_565
O3 Si1 1.632915 1_555
O3 V0 2.034091 1_555
O4 Si1 1.658946 1_555
O4 V0 2.141508 1_455
O4 Zn1 2.343385 1_554
O5 Si1 1.660667 1_556
O5 Zn1 1.966179 1_555
O5 V1 2.058297 1_655
O6 Si0 1.658761 1_555
O6 V0 2.141713 1_655
O6 Zn0 2.347541 1_556
O7 Si0 1.660739 1_554
O7 Zn0 1.965742 1_555
O7 V1 2.058493 1_445
O8 Zn1 1.936697 1_555
O8 V0 2.021153 1_555
O8 V1 2.032400 1_555
O9 Zn0 1.935960 1_555
O9 V0 2.022051 1_555
O9 V1 2.032177 1_545
