# generated using pymatgen
data_Na3GaSn3(PO4)6
_symmetry_space_group_name_H-M   'P 1'
_cell_length_a   8.73470795
_cell_length_b   8.72937702
_cell_length_c   22.63691809
_cell_angle_alpha   89.97910803
_cell_angle_beta   90.01534626
_cell_angle_gamma   120.14102264
_symmetry_Int_Tables_number   1
_chemical_formula_structural   Na3GaSn3(PO4)6
_chemical_formula_sum   'Na9 Ga3 Sn9 P18 O72'
_cell_volume   1492.65910834
_cell_formula_units_Z   3
loop_
 _symmetry_equiv_pos_site_id
 _symmetry_equiv_pos_as_xyz
  1  'x, y, z'
loop_
 _atom_site_type_symbol
 _atom_site_label
 _atom_site_symmetry_multiplicity
 _atom_site_fract_x
 _atom_site_fract_y
 _atom_site_fract_z
 _atom_site_occupancy
  Na  Na0  1  0.36675523  0.36305780  0.24824184  1
  Na  Na1  1  0.63641719  0.63277551  0.74874200  1
  Na  Na2  1  0.96953989  0.29919745  0.41512498  1
  Na  Na3  1  0.00051311  0.99464152  0.49898946  1
  Na  Na4  1  0.99995643  0.99996577  0.00118257  1
  Na  Na5  1  0.66714700  0.32797259  0.83292423  1
  Na  Na6  1  0.66698180  0.33336248  0.33023753  1
  Na  Na7  1  0.33302585  0.67216254  0.16537883  1
  Na  Na8  1  0.32831183  0.66733841  0.66561103  1
  Ga  Ga0  1  0.99914859  0.99288054  0.34947352  1
  Ga  Ga1  1  0.66696360  0.32750911  0.68395693  1
  Ga  Ga2  1  0.67238704  0.33269007  0.18400970  1
  Sn  Sn0  1  0.00110466  0.00141833  0.85286437  1
  Sn  Sn1  1  0.00128981  0.00144015  0.64675917  1
  Sn  Sn2  1  0.99831792  0.99814801  0.14725811  1
  Sn  Sn3  1  0.66684316  0.33323014  0.98233474  1
  Sn  Sn4  1  0.66221636  0.33360976  0.48251739  1
  Sn  Sn5  1  0.33310360  0.66684147  0.02089635  1
  Sn  Sn6  1  0.33436051  0.66851871  0.52008300  1
  Sn  Sn7  1  0.33417034  0.67269219  0.31381275  1
  Sn  Sn8  1  0.32888742  0.66722686  0.81554680  1
  P  P0  1  0.29103785  0.00228286  0.25045835  1
  P  P1  1  0.71392136  0.70878520  0.25084487  1
  P  P2  1  0.99209887  0.28671643  0.25132550  1
  P  P3  1  0.29425222  0.29008737  0.74944099  1
  P  P4  1  0.99882241  0.70541429  0.74913196  1
  P  P5  1  0.70954871  0.00698742  0.74954435  1
  P  P6  1  0.95492595  0.33378689  0.58455657  1
  P  P7  1  0.37830302  0.04493788  0.58514591  1
  P  P8  1  0.66637094  0.62172868  0.58545056  1
  P  P9  1  0.95415859  0.62096511  0.08485420  1
  P  P10  1  0.66700174  0.04595965  0.08498543  1
  P  P11  1  0.37861269  0.33309317  0.08524450  1
  P  P12  1  0.62468146  0.66576695  0.91668939  1
  P  P13  1  0.04067705  0.37494373  0.91727616  1
  P  P14  1  0.33414325  0.95914193  0.91716379  1
  P  P15  1  0.62831964  0.95728945  0.41654366  1
  P  P16  1  0.33221921  0.37184071  0.41577980  1
  P  P17  1  0.04218592  0.67364808  0.41654989  1
  O  O0  1  0.20952558  0.03836274  0.30535417  1
  O  O1  1  0.82474408  0.79191518  0.30614311  1
  O  O2  1  0.96822487  0.17875375  0.30796274  1
  O  O3  1  0.21442063  0.17837598  0.80530652  1
  O  O4  1  0.95934822  0.78452764  0.80451430  1
  O  O5  1  0.82128335  0.03521343  0.80531592  1
  O  O6  1  0.78554705  0.95865194  0.69540527  1
  O  O7  1  0.17665067  0.21373056  0.69467808  1
  O  O8  1  0.03577813  0.82332875  0.69451070  1
  O  O9  1  0.78608492  0.82275546  0.19497011  1
  O  O10  1  0.04055653  0.21327925  0.19647764  1
  O  O11  1  0.17702488  0.96478475  0.19468979  1
  O  O12  1  0.87162732  0.36583705  0.63863468  1
  O  O13  1  0.49280218  0.12735122  0.63950036  1
  O  O14  1  0.63507218  0.51028346  0.64124235  1
  O  O15  1  0.87254201  0.50698245  0.13943574  1
  O  O16  1  0.63387331  0.12727069  0.13945541  1
  O  O17  1  0.48973765  0.36490271  0.14116348  1
  O  O18  1  0.45331344  0.29866873  0.02827292  1
  O  O19  1  0.84599489  0.54799792  0.02744887  1
  O  O20  1  0.70209273  0.15383642  0.02753478  1
  O  O21  1  0.45093340  0.15316505  0.52773190  1
  O  O22  1  0.70193723  0.54748820  0.52853916  1
  O  O23  1  0.84888156  0.29931179  0.52601221  1
  O  O24  1  0.54363573  0.70112443  0.97119159  1
  O  O25  1  0.15668909  0.45478775  0.97206171  1
  O  O26  1  0.29800395  0.84335549  0.97199784  1
  O  O27  1  0.54763198  0.84478329  0.47224719  1
  O  O28  1  0.29368009  0.45317768  0.47072052  1
  O  O29  1  0.15461011  0.70192417  0.47218824  1
  O  O30  1  0.11793426  0.62460265  0.36241801  1
  O  O31  1  0.51085182  0.88138994  0.36173203  1
  O  O32  1  0.36809266  0.48702527  0.35981155  1
  O  O33  1  0.11750190  0.48669522  0.86085378  1
  O  O34  1  0.36974162  0.88254686  0.86085262  1
  O  O35  1  0.51531127  0.63221068  0.85905703  1
  O  O36  1  0.02309556  0.83625680  0.40887216  1
  O  O37  1  0.81488756  0.98302226  0.40941772  1
  O  O38  1  0.16274674  0.19035049  0.40904155  1
  O  O39  1  0.02378442  0.19087701  0.91108874  1
  O  O40  1  0.16688927  0.97562512  0.91083431  1
  O  O41  1  0.80913012  0.83306645  0.91061382  1
  O  O42  1  0.97497286  0.16758804  0.58909945  1
  O  O43  1  0.19166384  0.02399855  0.58928153  1
  O  O44  1  0.83241923  0.80880480  0.58948002  1
  O  O45  1  0.97594521  0.80812374  0.08910176  1
  O  O46  1  0.83250702  0.02467844  0.08945464  1
  O  O47  1  0.19117329  0.16749211  0.08949451  1
  O  O48  1  0.68967558  0.16928477  0.74215356  1
  O  O49  1  0.48120554  0.31623523  0.74247735  1
  O  O50  1  0.82924221  0.52357377  0.74226382  1
  O  O51  1  0.68521211  0.52012392  0.24350549  1
  O  O52  1  0.83097605  0.30899967  0.24330025  1
  O  O53  1  0.47466770  0.17068674  0.24329600  1
  O  O54  1  0.64240651  0.49950248  0.92213546  1
  O  O55  1  0.85646893  0.35673523  0.92241123  1
  O  O56  1  0.50034760  0.14391296  0.92241602  1
  O  O57  1  0.64980526  0.14587301  0.42280646  1
  O  O58  1  0.50010264  0.35739091  0.42220568  1
  O  O59  1  0.85955602  0.49800798  0.42297501  1
  O  O60  1  0.35918215  0.49967158  0.07844212  1
  O  O61  1  0.14046394  0.64099678  0.07843077  1
  O  O62  1  0.50052194  0.85908609  0.07842682  1
  O  O63  1  0.35857923  0.85894634  0.57870313  1
  O  O64  1  0.49992511  0.64066595  0.57852777  1
  O  O65  1  0.14146934  0.49984979  0.57813110  1
  O  O66  1  0.30878977  0.83475959  0.25574471  1
  O  O67  1  0.52251251  0.68408376  0.25626652  1
  O  O68  1  0.16804463  0.47223705  0.25662451  1
  O  O69  1  0.31636104  0.47901690  0.75584038  1
  O  O70  1  0.16627277  0.69004899  0.75545024  1
  O  O71  1  0.52662573  0.83133992  0.75598888  1
loop_
_geom_bond_atom_site_label_1
_geom_bond_atom_site_label_2
_geom_bond_distance
_geom_bond_site_symmetry_2
Na0 O53 2.304512 1_555
Na0 O68 2.370337 1_555
Na0 O51 2.408066 1_555
Na0 O67 2.430751 1_555
Na0 O17 2.648320 1_555
Na0 O10 2.731104 1_555
Na0 O32 2.745744 1_555
Na0 O0 2.771349 1_555
Na1 O50 2.319398 1_555
Na1 O71 2.370803 1_555
Na1 O49 2.394046 1_555
Na1 O69 2.423743 1_555
Na1 O14 2.656030 1_555
Na1 O35 2.711301 1_555
Na1 O6 2.742970 1_555
Na1 O4 2.748084 1_555
Na2 O38 2.319558 1_655
Na2 O59 2.375095 1_555
Na2 O37 2.390623 1_545
Na2 O57 2.422295 1_555
Na2 O2 2.641951 1_555
Na2 O23 2.722874 1_555
Na2 O30 2.733735 1_655
Na2 O28 2.753932 1_655
Na3 O36 2.527480 1_555
Na3 O37 2.565869 1_455
Na3 O44 2.567228 1_455
Na3 O43 2.569029 1_565
Na3 O38 2.576897 1_565
Na3 O42 2.613535 1_465
Na4 O45 2.540575 1_555
Na4 O47 2.544033 1_665
Na4 O46 2.548997 1_565
Na4 O39 2.574766 1_664
Na4 O41 2.581819 1_554
Na4 O40 2.582083 1_654
Na5 O48 2.540816 1_555
Na5 O56 2.540968 1_555
Na5 O55 2.546130 1_555
Na5 O49 2.582944 1_555
Na5 O54 2.587353 1_555
Na5 O50 2.589036 1_555
Na6 O51 2.505019 1_555
Na6 O52 2.505567 1_555
Na6 O53 2.513239 1_555
Na6 O58 2.609964 1_555
Na6 O57 2.615965 1_555
Na6 O59 2.621935 1_555
Na7 O62 2.505805 1_555
Na7 O61 2.513180 1_555
Na7 O60 2.557395 1_555
Na7 O66 2.558912 1_555
Na7 O67 2.609319 1_555
Na7 O68 2.619565 1_555
Na8 O63 2.508329 1_555
Na8 O65 2.515295 1_555
Na8 O70 2.542056 1_555
Na8 O64 2.557268 1_555
Na8 O69 2.590482 1_555
Na8 O71 2.597214 1_555
Ga0 O1 1.917539 1_555
Ga0 O0 1.949308 1_665
Ga0 O36 2.001681 1_655
Ga0 O2 2.006871 1_565
Ga0 O37 2.073908 1_555
Ga0 O38 2.087732 1_665
Ga1 O13 1.926392 1_555
Ga1 O12 1.939171 1_555
Ga1 O48 1.989044 1_555
Ga1 O14 2.000814 1_555
Ga1 O49 2.058619 1_555
Ga1 O50 2.060315 1_555
Ga2 O15 1.928219 1_555
Ga2 O16 1.934224 1_555
Ga2 O17 2.003636 1_555
Ga2 O52 2.012336 1_555
Ga2 O51 2.078693 1_555
Ga2 O53 2.081051 1_555
O0 P0 1.541529 1_555
O1 P1 1.524847 1_555
O2 P2 1.541865 1_555
O3 P3 1.533998 1_555
O3 Sn0 2.031322 1_555
O4 P4 1.551628 1_555
O4 Sn0 2.055096 1_665
O5 P5 1.537918 1_555
O5 Sn0 2.043728 1_655
O6 P5 1.550079 1_565
O6 Sn1 2.048718 1_665
O7 P3 1.532494 1_555
O7 Sn1 2.026573 1_555
O8 P4 1.535621 1_455
O8 Sn1 2.036069 1_565
O9 P1 1.535139 1_555
O9 Sn2 2.024037 1_555
O10 P2 1.550807 1_455
O10 Sn2 2.051767 1_445
O11 P0 1.537819 1_565
O11 Sn2 2.032158 1_455
O12 P6 1.520326 1_555
O13 P7 1.519586 1_555
O14 P8 1.532455 1_555
O15 P9 1.520549 1_555
O16 P10 1.521515 1_555
O17 P11 1.533138 1_555
O18 P11 1.541725 1_555
O18 Sn3 2.021581 1_554
O19 P9 1.543557 1_555
O19 Sn3 2.015141 1_554
O20 P10 1.543214 1_555
O20 Sn3 2.019142 1_554
O21 P7 1.543317 1_555
O21 Sn4 2.003767 1_555
O22 P8 1.542477 1_555
O22 Sn4 2.010519 1_555
O23 P6 1.557097 1_555
O23 Sn4 2.051010 1_555
O24 P12 1.529295 1_555
O24 Sn5 2.045831 1_556
O25 P13 1.530143 1_555
O25 Sn5 2.039386 1_556
O26 P14 1.529996 1_555
O26 Sn5 2.041196 1_556
O27 P15 1.534835 1_555
O27 Sn6 2.032653 1_555
O28 P16 1.550841 1_555
O28 Sn6 2.058888 1_555
O29 P17 1.538724 1_555
O29 Sn6 2.045548 1_555
O30 P17 1.551746 1_555
O30 Sn7 2.039301 1_555
O31 P15 1.532469 1_555
O31 Sn7 2.013539 1_555
O32 P16 1.548299 1_555
O32 Sn7 2.068762 1_555
O33 P13 1.541233 1_555
O33 Sn8 2.005554 1_555
O34 P14 1.542161 1_555
O34 Sn8 2.009903 1_555
O35 P12 1.555329 1_555
O35 Sn8 2.052770 1_555
O36 P17 1.520008 1_555
O37 P15 1.537732 1_555
O38 P16 1.539276 1_555
O39 P13 1.544414 1_555
O39 Sn0 2.045504 1_555
O40 P14 1.544824 1_555
O40 Sn0 2.048381 1_565
O41 P12 1.544170 1_555
O41 Sn0 2.050725 1_665
O42 P6 1.549548 1_555
O42 Sn1 2.047762 1_655
O43 P7 1.549408 1_555
O43 Sn1 2.041792 1_555
O44 P8 1.549257 1_555
O44 Sn1 2.047998 1_665
O45 P9 1.550020 1_555
O45 Sn2 2.049102 1_555
O46 P10 1.550559 1_555
O46 Sn2 2.049147 1_545
O47 P11 1.550048 1_555
O47 Sn2 2.057108 1_445
O48 P5 1.520561 1_555
O49 P3 1.539276 1_555
O50 P4 1.541660 1_555
O51 P1 1.545375 1_555
O52 P2 1.525210 1_555
O53 P0 1.546623 1_555
O54 P12 1.539874 1_555
O54 Sn3 2.078180 1_555
O55 P13 1.539779 1_655
O55 Sn3 2.070088 1_555
O56 P14 1.540053 1_545
O56 Sn3 2.067080 1_555
O57 P15 1.566921 1_545
O57 Sn4 2.085098 1_555
O58 P16 1.540476 1_555
O58 Sn4 2.050885 1_555
O59 P17 1.568558 1_655
O59 Sn4 2.088776 1_555
O60 P11 1.553920 1_555
O60 Sn5 2.051978 1_555
O61 P9 1.553781 1_455
O61 Sn5 2.048948 1_555
O62 P10 1.554194 1_565
O62 Sn5 2.046167 1_555
O63 P7 1.551209 1_565
O63 Sn6 2.053588 1_555
O64 P8 1.551387 1_555
O64 Sn6 2.062207 1_555
O65 P6 1.550938 1_455
O65 Sn6 2.059552 1_555
O66 P0 1.550639 1_565
O66 Sn7 2.022865 1_555
O67 P1 1.579511 1_555
O67 Sn7 2.061553 1_555
O68 P2 1.580991 1_455
O68 Sn7 2.072230 1_555
O69 P3 1.567984 1_555
O69 Sn8 2.087828 1_555
O70 P4 1.540982 1_455
O70 Sn8 2.047154 1_555
O71 P5 1.569977 1_565
O71 Sn8 2.090004 1_555
