# generated using pymatgen
data_MgCrTe(WO6)2
_symmetry_space_group_name_H-M   'P 1'
_cell_length_a   5.37307290
_cell_length_b   10.76975130
_cell_length_c   9.42727557
_cell_angle_alpha   28.72106627
_cell_angle_beta   52.62143341
_cell_angle_gamma   57.93967895
_symmetry_Int_Tables_number   1
_chemical_formula_structural   MgCrTe(WO6)2
_chemical_formula_sum   'Mg1 Cr1 Te1 W2 O12'
_cell_volume   208.31341334
_cell_formula_units_Z   1
loop_
 _symmetry_equiv_pos_site_id
 _symmetry_equiv_pos_as_xyz
  1  'x, y, z'
loop_
 _atom_site_type_symbol
 _atom_site_label
 _atom_site_symmetry_multiplicity
 _atom_site_fract_x
 _atom_site_fract_y
 _atom_site_fract_z
 _atom_site_occupancy
  Mg  Mg0  1  0.18673400  0.49264800  0.25105300  1
  Cr  Cr0  1  0.98149700  0.00445900  0.98982000  1
  Te  Te0  1  0.99371600  0.49747000  0.99978000  1
  W  W0  1  0.51105900  0.00337200  0.48154100  1
  W  W1  1  0.46625600  0.50957200  0.49837100  1
  O  O0  1  0.35731400  0.31438900  0.13197900  1
  O  O1  1  0.26007700  0.11154200  0.62454800  1
  O  O2  1  0.17970300  0.28216500  0.74776700  1
  O  O3  1  0.86905600  0.18907400  0.25129100  1
  O  O4  1  0.32979700  0.78409100  0.16413500  1
  O  O5  1  0.79024300  0.39766000  0.34449600  1
  O  O6  1  0.22438100  0.61691000  0.63925900  1
  O  O7  1  0.67275900  0.21529500  0.82327400  1
  O  O8  1  0.14599300  0.78946600  0.76829800  1
  O  O9  1  0.84623400  0.69925700  0.24778700  1
  O  O10  1  0.73950500  0.91446800  0.33666900  1
  O  O11  1  0.61587700  0.67816400  0.88799200  1
loop_
_geom_bond_atom_site_label_1
_geom_bond_atom_site_label_2
_geom_bond_distance
_geom_bond_site_symmetry_2
Mg0 O9 1.981350 1_455
Mg0 O1 2.004804 1_555
Mg0 O11 2.082758 1_554
Mg0 O5 2.194429 1_455
Mg0 O8 2.434913 1_554
Mg0 O0 2.539380 1_555
Cr0 O7 1.812013 1_555
Cr0 O9 1.901656 1_546
Cr0 O2 1.935687 1_655
Cr0 O10 1.984738 1_546
Cr0 O4 2.003401 1_646
Cr0 O1 2.009322 1_655
O0 W0 1.941436 1_555
O0 Te0 1.953051 1_454
O0 O5 2.634498 1_455
O0 O8 2.648373 1_554
O0 O10 2.708425 1_545
O0 O3 2.735435 1_455
O1 W0 1.967921 1_555
O1 O2 2.684183 1_555
O1 O8 2.692206 1_545
O1 O3 2.748324 1_555
O1 O11 2.751021 1_545
O2 W1 1.845280 1_555
O3 Te0 1.929489 1_554
O3 W0 1.952423 1_555
O4 W1 1.836130 1_555
O4 O9 2.641212 1_455
O5 Te0 1.928331 1_554
O5 W1 2.088169 1_555
O5 O8 2.592207 1_654
O5 O7 2.633773 1_555
O5 O9 2.642427 1_555
O6 Te0 1.911049 1_455
O6 W1 1.947223 1_555
O6 O8 2.760962 1_555
O7 W1 2.006030 1_555
O7 O9 2.624869 1_555
O8 Te0 1.961656 1_455
O8 W0 1.974505 1_565
O9 W1 2.007424 1_555
O10 W0 1.816357 1_565
O10 O3 2.684958 1_565
O11 Te0 1.955918 1_555
O11 W0 2.062501 1_565
O11 O8 2.637818 1_555
