# generated using pymatgen
data_Na7NbIn3Si3(PO8)3
_symmetry_space_group_name_H-M   'P 1'
_cell_length_a   9.20753086
_cell_length_b   9.20524854
_cell_length_c   22.53456257
_cell_angle_alpha   90.02075894
_cell_angle_beta   90.04136591
_cell_angle_gamma   120.02187086
_symmetry_Int_Tables_number   1
_chemical_formula_structural   Na7NbIn3Si3(PO8)3
_chemical_formula_sum   'Na21 Nb3 In9 Si9 P9 O72'
_cell_volume   1653.72178297
_cell_formula_units_Z   3
loop_
 _symmetry_equiv_pos_site_id
 _symmetry_equiv_pos_as_xyz
  1  'x, y, z'
loop_
 _atom_site_type_symbol
 _atom_site_label
 _atom_site_symmetry_multiplicity
 _atom_site_fract_x
 _atom_site_fract_y
 _atom_site_fract_z
 _atom_site_occupancy
  Na  Na0  1  0.62948380  0.99868817  0.25294448  1
  Na  Na1  1  0.36887567  0.37068107  0.25251060  1
  Na  Na2  1  0.00264589  0.63381917  0.25546327  1
  Na  Na3  1  0.64329426  0.63317910  0.74325341  1
  Na  Na4  1  0.99211943  0.35107091  0.74096518  1
  Na  Na5  1  0.29593278  0.34291941  0.58328180  1
  Na  Na6  1  0.03824251  0.70021745  0.58150581  1
  Na  Na7  1  0.66554153  0.95761602  0.57892489  1
  Na  Na8  1  0.30139612  0.96318128  0.08304718  1
  Na  Na9  1  0.65730810  0.69975667  0.08349907  1
  Na  Na10  1  0.04645413  0.33475188  0.07930824  1
  Na  Na11  1  0.31960326  0.29527690  0.91160198  1
  Na  Na12  1  0.98041066  0.29965043  0.41797753  1
  Na  Na13  1  0.32411913  0.02335414  0.41823934  1
  Na  Na14  1  0.69774108  0.67884391  0.41780796  1
  Na  Na15  1  0.99691996  0.00043664  0.49880016  1
  Na  Na16  1  0.98833713  0.99785574  0.99510276  1
  Na  Na17  1  0.65960363  0.32087520  0.82786713  1
  Na  Na18  1  0.66396303  0.33102983  0.33505811  1
  Na  Na19  1  0.33902930  0.66606866  0.16491441  1
  Na  Na20  1  0.33501686  0.67242119  0.65774090  1
  Nb  Nb0  1  0.66892937  0.32745576  0.97917094  1
  Nb  Nb1  1  0.67198706  0.33842731  0.48209496  1
  Nb  Nb2  1  0.32710911  0.66401350  0.81615072  1
  In  In0  1  0.99850077  0.99980339  0.35005061  1
  In  In1  1  0.00071836  0.00097147  0.85023218  1
  In  In2  1  0.00152077  0.00445148  0.64923501  1
  In  In3  1  0.00177026  0.00371984  0.14538297  1
  In  In4  1  0.65977670  0.33070444  0.68468118  1
  In  In5  1  0.66301623  0.33044321  0.18113389  1
  In  In6  1  0.33625917  0.66688534  0.01440408  1
  In  In7  1  0.33249616  0.66253465  0.51420149  1
  In  In8  1  0.33422988  0.66606780  0.32276835  1
  Si  Si0  1  0.30100582  0.29839723  0.75283454  1
  Si  Si1  1  0.96246902  0.33468383  0.58681786  1
  Si  Si2  1  0.66728847  0.63209867  0.58634948  1
  Si  Si3  1  0.66453240  0.03576568  0.08434077  1
  Si  Si4  1  0.37378298  0.33514235  0.08302808  1
  Si  Si5  1  0.03395945  0.36871100  0.91928618  1
  Si  Si6  1  0.63140999  0.96868929  0.41667727  1
  Si  Si7  1  0.33578976  0.36570002  0.41629841  1
  Si  Si8  1  0.03311965  0.66528865  0.41666615  1
  P  P0  1  0.29728767  0.99749072  0.24859064  1
  P  P1  1  0.70185611  0.70161645  0.24787123  1
  P  P2  1  0.00141997  0.30241661  0.24839857  1
  P  P3  1  0.00547141  0.70649738  0.75082347  1
  P  P4  1  0.69809822  0.99541222  0.75118071  1
  P  P5  1  0.37504959  0.04058362  0.58263884  1
  P  P6  1  0.95702603  0.62339425  0.08291176  1
  P  P7  1  0.63041550  0.66482105  0.91723295  1
  P  P8  1  0.33585249  0.96232888  0.91915553  1
  O  O0  1  0.21282948  0.02093827  0.30391861  1
  O  O1  1  0.80817843  0.78462377  0.30377912  1
  O  O2  1  0.97389417  0.19342463  0.30388492  1
  O  O3  1  0.21913256  0.19502712  0.81288490  1
  O  O4  1  0.96999246  0.78980043  0.80292189  1
  O  O5  1  0.81640357  0.02806176  0.80343606  1
  O  O6  1  0.76028055  0.94834456  0.69370449  1
  O  O7  1  0.17967925  0.22849191  0.69394823  1
  O  O8  1  0.03465512  0.80418242  0.69221320  1
  O  O9  1  0.78414374  0.80707847  0.19103518  1
  O  O10  1  0.02625210  0.22185217  0.19143288  1
  O  O11  1  0.19242172  0.97330146  0.19135776  1
  O  O12  1  0.88100762  0.35969945  0.64694817  1
  O  O13  1  0.48246981  0.11624595  0.63794693  1
  O  O14  1  0.63187100  0.52172038  0.64615008  1
  O  O15  1  0.89004352  0.52440024  0.14143255  1
  O  O16  1  0.63255326  0.10892064  0.14547363  1
  O  O17  1  0.48336178  0.37430151  0.14377954  1
  O  O18  1  0.48225015  0.31825659  0.02563406  1
  O  O19  1  0.83664448  0.52087772  0.03008197  1
  O  O20  1  0.68633421  0.16780353  0.02812447  1
  O  O21  1  0.46728407  0.14999768  0.52654710  1
  O  O22  1  0.67977959  0.52145207  0.52878424  1
  O  O23  1  0.83764543  0.31726531  0.52928958  1
  O  O24  1  0.56089174  0.69278881  0.97562344  1
  O  O25  1  0.14498333  0.44715628  0.97856997  1
  O  O26  1  0.31533187  0.87018058  0.97773466  1
  O  O27  1  0.55274286  0.84896260  0.47423117  1
  O  O28  1  0.29204458  0.44169236  0.47405620  1
  O  O29  1  0.15204672  0.70566946  0.47425841  1
  O  O30  1  0.10137972  0.61555001  0.35730759  1
  O  O31  1  0.51456844  0.89929908  0.35675883  1
  O  O32  1  0.38632617  0.48471364  0.35684439  1
  O  O33  1  0.14141132  0.49848338  0.86253546  1
  O  O34  1  0.35581960  0.86368686  0.86656840  1
  O  O35  1  0.50630185  0.64282624  0.86461656  1
  O  O36  1  0.00027404  0.82262382  0.41116637  1
  O  O37  1  0.82094054  0.99811603  0.41117030  1
  O  O38  1  0.17573077  0.17655782  0.41035053  1
  O  O39  1  0.01770632  0.18604496  0.91254754  1
  O  O40  1  0.18695529  0.99256004  0.91240550  1
  O  O41  1  0.80744901  0.81160925  0.90836114  1
  O  O42  1  0.96962985  0.16004532  0.58332477  1
  O  O43  1  0.20351450  0.03505544  0.58394180  1
  O  O44  1  0.84738080  0.80956702  0.58455150  1
  O  O45  1  0.96056741  0.79358048  0.08278119  1
  O  O46  1  0.83763928  0.02691753  0.08178964  1
  O  O47  1  0.19502136  0.15615509  0.08173078  1
  O  O48  1  0.68241960  0.15425896  0.74597580  1
  O  O49  1  0.49488886  0.33999563  0.75002794  1
  O  O50  1  0.85728212  0.52303013  0.74897496  1
  O  O51  1  0.68627240  0.52453670  0.24622679  1
  O  O52  1  0.84295375  0.32303742  0.24569800  1
  O  O53  1  0.47478058  0.15842886  0.24728578  1
  O  O54  1  0.62600394  0.49129253  0.91954366  1
  O  O55  1  0.84971136  0.36186928  0.92288320  1
  O  O56  1  0.50133537  0.14213048  0.92130012  1
  O  O57  1  0.64892640  0.15629228  0.42584621  1
  O  O58  1  0.50553227  0.34816691  0.42583990  1
  O  O59  1  0.84461713  0.49348434  0.42570041  1
  O  O60  1  0.34757479  0.49742428  0.07845029  1
  O  O61  1  0.13386069  0.64824959  0.07576256  1
  O  O62  1  0.49702540  0.85241891  0.07741130  1
  O  O63  1  0.35099671  0.86264474  0.57711702  1
  O  O64  1  0.50449334  0.65737596  0.58019386  1
  O  O65  1  0.14667036  0.50353580  0.58111989  1
  O  O66  1  0.31445704  0.83758404  0.25237423  1
  O  O67  1  0.52472712  0.68440887  0.25158420  1
  O  O68  1  0.16250850  0.47872598  0.25278124  1
  O  O69  1  0.31795324  0.49390937  0.76188155  1
  O  O70  1  0.16826927  0.69022690  0.76117862  1
  O  O71  1  0.52082168  0.83621804  0.76314975  1
loop_
_geom_bond_atom_site_label_1
_geom_bond_atom_site_label_2
_geom_bond_distance
_geom_bond_site_symmetry_2
Na0 O53 2.510643 1_565
Na0 O66 2.511676 1_555
Na0 O31 2.542809 1_555
Na0 O67 2.551165 1_555
Na0 O16 2.620838 1_565
Na0 O52 2.633039 1_565
Na0 O2 2.981997 1_565
Na0 O9 3.098339 1_555
Na1 O67 2.500604 1_555
Na1 O51 2.534871 1_555
Na1 O32 2.546434 1_555
Na1 O68 2.547710 1_555
Na1 O53 2.586249 1_555
Na1 O17 2.661665 1_555
Na1 O0 3.024519 1_555
Na1 O10 3.064482 1_555
Na2 O52 2.486875 1_455
Na2 O30 2.504414 1_555
Na2 O68 2.512251 1_555
Na2 O66 2.525366 1_555
Na2 O51 2.570525 1_455
Na2 O15 2.764373 1_455
Na2 O1 2.967769 1_455
Na2 O11 3.073862 1_555
Na3 O49 2.341902 1_555
Na3 O14 2.396235 1_555
Na3 O50 2.631659 1_555
Na3 O69 2.636778 1_555
Na3 O71 2.659901 1_555
Na3 O6 2.775032 1_555
Na3 O4 2.930555 1_555
Na3 O35 3.032376 1_555
Na4 O12 2.370629 1_555
Na4 O50 2.458914 1_555
Na4 O48 2.501494 1_555
Na4 O69 2.646115 1_655
Na4 O7 2.707377 1_655
Na4 O70 2.741529 1_655
Na4 O5 2.938175 1_555
Na4 O33 3.059623 1_655
Na5 O65 2.471934 1_555
Na5 O43 2.518450 1_555
Na5 O64 2.551370 1_555
Na5 O42 2.607586 1_455
Na5 O28 2.630646 1_555
Na5 O7 2.711446 1_555
Na5 O14 3.030063 1_555
Na5 O21 3.175300 1_555
Na5 O22 3.300868 1_555
Na6 O44 2.424150 1_455
Na6 O65 2.466460 1_555
Na6 O63 2.495995 1_555
Na6 O29 2.625345 1_555
Na6 O43 2.669330 1_565
Na6 O8 2.677825 1_555
Na6 O12 3.092179 1_455
Na6 O22 3.093719 1_455
Na7 O64 2.395266 1_555
Na7 O42 2.469865 1_565
Na7 O27 2.569101 1_555
Na7 O63 2.572936 1_555
Na7 O44 2.638129 1_555
Na7 O6 2.744018 1_555
Na7 O13 3.034388 1_565
Na7 O23 3.078667 1_565
Na8 O47 2.420064 1_565
Na8 O62 2.477551 1_555
Na8 O61 2.516982 1_555
Na8 O26 2.547586 1_554
Na8 O11 2.658860 1_555
Na8 O45 2.717169 1_455
Na8 O16 2.995850 1_565
Na8 O18 3.112876 1_565
Na9 O45 2.475851 1_555
Na9 O62 2.499368 1_555
Na9 O60 2.509845 1_555
Na9 O24 2.577099 1_554
Na9 O46 2.612383 1_565
Na9 O9 2.655524 1_555
Na9 O17 2.930946 1_555
Na9 O19 3.099866 1_555
Na10 O60 2.403221 1_555
Na10 O25 2.472313 1_554
Na10 O46 2.505595 1_455
Na10 O61 2.580365 1_555
Na10 O47 2.612935 1_555
Na10 O10 2.703318 1_555
Na10 O20 3.095288 1_455
Na10 O15 3.098151 1_455
Na11 O3 2.407754 1_555
Na11 O40 2.418986 1_545
Na11 O39 2.437538 1_555
Na11 O54 2.480345 1_555
Na11 O56 2.682406 1_555
Na11 O18 2.927064 1_556
Na11 O35 2.968718 1_555
Na11 O25 3.011383 1_555
Na12 O37 2.409369 1_545
Na12 O38 2.566551 1_655
Na12 O59 2.647600 1_555
Na12 O57 2.656890 1_555
Na12 O2 2.740290 1_555
Na12 O28 2.789125 1_655
Na12 O23 2.874702 1_555
Na12 O30 2.886148 1_655
Na13 O38 2.411470 1_555
Na13 O58 2.600193 1_555
Na13 O57 2.609202 1_555
Na13 O36 2.610867 1_545
Na13 O21 2.740274 1_555
Na13 O0 2.767760 1_555
Na13 O29 2.832831 1_545
Na13 O31 2.881785 1_545
Na14 O36 2.417665 1_655
Na14 O37 2.571234 1_555
Na14 O58 2.653440 1_555
Na14 O59 2.660984 1_555
Na14 O1 2.756760 1_555
Na14 O27 2.818595 1_555
Na14 O22 2.853757 1_555
Na14 O32 2.857903 1_555
Na15 O42 2.493565 1_555
Na15 O44 2.510465 1_545
Na15 O37 2.546782 1_545
Na15 O36 2.574534 1_645
Na15 O38 2.578354 1_655
Na15 O43 2.605542 1_655
Na16 O39 2.463590 1_665
Na16 O46 2.487534 1_566
Na16 O41 2.582563 1_555
Na16 O47 2.602581 1_666
Na16 O40 2.629390 1_655
Na16 O45 2.650918 1_556
Na17 O49 2.381464 1_555
Na17 O48 2.474445 1_555
Na17 O50 2.560102 1_555
Na17 O56 2.621358 1_555
Na17 O55 2.669066 1_555
Na17 O54 2.703471 1_555
Na18 O57 2.563588 1_555
Na18 O58 2.563631 1_555
Na18 O59 2.584389 1_555
Na18 O53 2.587291 1_555
Na18 O51 2.619024 1_555
Na18 O52 2.627259 1_555
Na19 O60 2.516510 1_555
Na19 O62 2.540971 1_555
Na19 O67 2.544117 1_555
Na19 O68 2.595881 1_555
Na19 O66 2.604629 1_555
Na19 O61 2.704787 1_555
Na20 O65 2.387775 1_555
Na20 O64 2.393314 1_555
Na20 O63 2.476605 1_555
Na20 O69 2.824398 1_555
Na20 O70 2.841483 1_555
Na20 O71 2.872774 1_555
Nb0 O20 1.907628 1_556
Nb0 O18 1.978613 1_556
Nb0 O55 1.988887 1_555
Nb0 O19 2.028714 1_556
Nb0 O56 2.086490 1_555
Nb0 O54 2.198497 1_555
Nb1 O23 1.946970 1_555
Nb1 O22 1.956595 1_555
Nb1 O59 1.978074 1_555
Nb1 O58 2.024553 1_555
Nb1 O57 2.025973 1_555
Nb1 O21 2.072946 1_555
Nb2 O33 1.932494 1_555
Nb2 O69 1.954720 1_555
Nb2 O70 2.020519 1_555
Nb2 O34 2.061781 1_555
Nb2 O35 2.067038 1_555
Nb2 O71 2.072630 1_555
In0 O38 2.120147 1_665
In0 O37 2.132589 1_555
In0 O36 2.141340 1_655
In0 O1 2.145714 1_555
In0 O0 2.152190 1_665
In0 O2 2.171497 1_565
In1 O3 2.086233 1_555
In1 O4 2.107860 1_445
In1 O5 2.115516 1_455
In1 O39 2.151765 1_555
In1 O41 2.195931 1_445
In1 O40 2.244746 1_545
In2 O7 2.137810 1_555
In2 O42 2.182980 1_455
In2 O44 2.191930 1_445
In2 O8 2.234574 1_545
In2 O6 2.249537 1_445
In2 O43 2.276684 1_555
In3 O47 2.167772 1_555
In3 O46 2.168662 1_455
In3 O10 2.169055 1_555
In3 O11 2.173183 1_545
In3 O9 2.173687 1_445
In3 O45 2.266884 1_445
In4 O14 2.089163 1_555
In4 O12 2.098141 1_555
In4 O13 2.107738 1_555
In4 O49 2.147972 1_555
In4 O48 2.220242 1_555
In4 O50 2.305036 1_555
In5 O17 2.067454 1_555
In5 O16 2.075762 1_555
In5 O15 2.151037 1_555
In5 O52 2.230691 1_555
In5 O53 2.234421 1_555
In5 O51 2.237075 1_555
In6 O25 2.068118 1_554
In6 O26 2.140969 1_554
In6 O62 2.142290 1_555
In6 O24 2.146562 1_554
In6 O60 2.165934 1_555
In6 O61 2.257921 1_555
In7 O28 2.080949 1_555
In7 O29 2.094436 1_555
In7 O27 2.095263 1_555
In7 O64 2.189443 1_555
In7 O65 2.200707 1_555
In7 O63 2.261872 1_555
In8 O31 2.093544 1_555
In8 O32 2.099614 1_555
In8 O30 2.103254 1_555
In8 O68 2.286313 1_555
In8 O66 2.308959 1_555
In8 O67 2.320803 1_555
O0 P0 1.541098 1_545
O1 P1 1.542229 1_555
O2 P2 1.543101 1_655
O3 Si0 1.609197 1_555
O4 P3 1.524341 1_655
O5 P4 1.527684 1_545
O6 P4 1.562681 1_555
O7 Si0 1.643415 1_555
O8 P3 1.544272 1_555
O9 P1 1.556655 1_555
O10 P2 1.555493 1_555
O11 P0 1.558238 1_555
O12 Si1 1.620414 1_555
O13 P5 1.524793 1_555
O14 Si2 1.620111 1_555
O15 P6 1.545804 1_555
O16 Si3 1.623668 1_555
O17 Si4 1.629666 1_555
O18 Si4 1.688610 1_555
O19 P6 1.577025 1_555
O20 Si3 1.696978 1_555
O21 P5 1.574771 1_555
O22 Si2 1.688152 1_555
O23 Si1 1.685384 1_555
O24 P7 1.540548 1_555
O25 Si5 1.615497 1_555
O26 P8 1.529236 1_555
O27 Si6 1.620174 1_555
O28 Si7 1.621000 1_555
O29 Si8 1.616128 1_555
O30 Si8 1.637866 1_555
O31 Si6 1.642612 1_555
O32 Si7 1.644258 1_555
O33 Si5 1.691631 1_555
O34 P8 1.558584 1_555
O35 P7 1.587178 1_555
O36 Si8 1.625668 1_555
O37 Si6 1.631407 1_555
O38 Si7 1.628876 1_555
O39 Si5 1.618898 1_555
O40 P8 1.536769 1_555
O41 P7 1.522980 1_555
O42 Si1 1.643433 1_555
O43 P5 1.554877 1_555
O44 Si2 1.646059 1_555
O45 P6 1.550553 1_555
O46 Si3 1.637208 1_555
O47 Si4 1.646472 1_555
O48 P4 1.544028 1_545
O49 Si0 1.629003 1_555
O50 P3 1.552320 1_655
O51 P1 1.563639 1_555
O52 P2 1.563868 1_655
O53 P0 1.563280 1_545
O54 P7 1.578321 1_555
O55 Si5 1.667884 1_655
O56 P8 1.593632 1_545
O57 Si6 1.664927 1_545
O58 Si7 1.663406 1_555
O59 Si8 1.676024 1_655
O60 Si4 1.631333 1_555
O61 P6 1.535252 1_455
O62 Si3 1.626757 1_565
O63 P5 1.544117 1_565
O64 Si2 1.633689 1_555
O65 Si1 1.634467 1_455
O66 P0 1.559460 1_555
O67 P1 1.560029 1_555
O68 P2 1.560320 1_555
O69 Si0 1.738860 1_555
O70 P3 1.596233 1_555
O71 P4 1.578578 1_555
