# generated using pymatgen
data_MgMn2V2(CuO4)2
_symmetry_space_group_name_H-M   'P 1'
_cell_length_a   5.96062120
_cell_length_b   5.93538026
_cell_length_c   6.34534700
_cell_angle_alpha   89.99665718
_cell_angle_beta   90.00136753
_cell_angle_gamma   120.47721164
_symmetry_Int_Tables_number   1
_chemical_formula_structural   MgMn2V2(CuO4)2
_chemical_formula_sum   'Mg1 Mn2 V2 Cu2 O8'
_cell_volume   193.47173986
_cell_formula_units_Z   1
loop_
 _symmetry_equiv_pos_site_id
 _symmetry_equiv_pos_as_xyz
  1  'x, y, z'
loop_
 _atom_site_type_symbol
 _atom_site_label
 _atom_site_symmetry_multiplicity
 _atom_site_fract_x
 _atom_site_fract_y
 _atom_site_fract_z
 _atom_site_occupancy
  Mg  Mg0  1  0.15044800  0.83985700  0.74990300  1
  Mn  Mn0  1  0.92974100  0.07409300  0.02295600  1
  Mn  Mn1  1  0.92961900  0.07413400  0.47702600  1
  V  V0  1  0.42354900  0.57549200  0.74996500  1
  V  V1  1  0.60292600  0.39817600  0.25004200  1
  Cu  Cu0  1  0.70151700  0.29409500  0.75010900  1
  Cu  Cu1  1  0.30462500  0.69392200  0.24992700  1
  O  O0  1  0.29737000  0.69952500  0.95655700  1
  O  O1  1  0.72595600  0.27284600  0.46466400  1
  O  O2  1  0.72678100  0.27353500  0.03553900  1
  O  O3  1  0.29685200  0.69893600  0.54330100  1
  O  O4  1  0.21770600  0.21403500  0.75009200  1
  O  O5  1  0.77398000  0.75430100  0.24998400  1
  O  O6  1  0.78306500  0.78402700  0.74988900  1
  O  O7  1  0.24836700  0.22802700  0.25004600  1
loop_
_geom_bond_atom_site_label_1
_geom_bond_atom_site_label_2
_geom_bond_distance
_geom_bond_site_symmetry_2
Mg0 O0 1.979880 1_555
Mg0 O3 1.979987 1_555
Mg0 O6 2.041831 1_455
Mg0 O4 2.046925 1_565
Mn0 O2 2.079403 1_555
Mn0 O5 2.179933 1_545
Mn0 O7 2.181277 1_655
Mn0 O4 2.277647 1_654
Mn0 O6 2.281255 1_544
Mn1 O1 2.079249 1_555
Mn1 O5 2.180279 1_545
Mn1 O7 2.181290 1_655
Mn1 O4 2.279050 1_655
Mn1 O6 2.280288 1_545
Cu0 O1 1.826587 1_555
Cu0 O2 1.826594 1_556
Cu1 O0 1.862722 1_554
Cu1 O3 1.862752 1_555
O0 V0 1.840624 1_555
O1 V1 1.870555 1_555
O2 V1 1.870580 1_555
O3 V0 1.840631 1_555
O4 V0 1.854163 1_555
O5 V1 1.822440 1_555
O6 V0 1.853001 1_555
O7 V1 1.822442 1_555
