# generated using pymatgen
data_Sr4I6O
_symmetry_space_group_name_H-M   'P 1'
_cell_length_a   10.56574492
_cell_length_b   10.56572017
_cell_length_c   8.16286932
_cell_angle_alpha   90.00004260
_cell_angle_beta   90.00105235
_cell_angle_gamma   119.99692419
_symmetry_Int_Tables_number   1
_chemical_formula_structural   Sr4I6O
_chemical_formula_sum   'Sr8 I12 O2'
_cell_volume   789.19833648
_cell_formula_units_Z   2
loop_
 _symmetry_equiv_pos_site_id
 _symmetry_equiv_pos_as_xyz
  1  'x, y, z'
loop_
 _atom_site_type_symbol
 _atom_site_label
 _atom_site_symmetry_multiplicity
 _atom_site_fract_x
 _atom_site_fract_y
 _atom_site_fract_z
 _atom_site_occupancy
  Sr  Sr0  1  0.58665292  0.79332856  0.48867594  1
  Sr  Sr1  1  0.79332594  0.20667633  0.98867245  1
  Sr  Sr2  1  0.66666742  0.33333489  0.37606334  1
  Sr  Sr3  1  0.20667333  0.41334872  0.48867551  1
  Sr  Sr4  1  0.20667579  0.79332693  0.48867093  1
  Sr  Sr5  1  0.79332338  0.58664909  0.98867378  1
  Sr  Sr6  1  0.41335108  0.20667678  0.98867421  1
  Sr  Sr7  1  0.33333341  0.66666823  0.87606925  1
  I  I0  1  0.92854326  0.46427729  0.68184704  1
  I  I1  1  0.53572668  0.07146032  0.68184676  1
  I  I2  1  0.07139847  0.53570573  0.18187134  1
  I  I3  1  0.53570002  0.46424288  0.68186171  1
  I  I4  1  0.27219342  0.13609444  0.36453241  1
  I  I5  1  0.13609310  0.27218512  0.86456482  1
  I  I6  1  0.13609891  0.86390406  0.86452139  1
  I  I7  1  0.86391197  0.13609359  0.36453122  1
  I  I8  1  0.86390811  0.72780912  0.36453447  1
  I  I9  1  0.72781773  0.86390727  0.86456390  1
  I  I10  1  0.46429734  0.53570596  0.18187188  1
  I  I11  1  0.46430326  0.92860465  0.18187096  1
  O  O0  1  0.66666692  0.33333530  0.08202351  1
  O  O1  1  0.33333452  0.66666774  0.58202517  1
loop_
_geom_bond_atom_site_label_1
_geom_bond_atom_site_label_2
_geom_bond_distance
_geom_bond_site_symmetry_2
I0 Sr5 3.439917 1_555
I0 Sr1 3.440044 1_555
I0 Sr2 3.460106 1_555
I0 Sr3 3.604570 1_655
I0 Sr4 3.604692 1_655
I0 O1 3.792621 1_655
I0 I6 3.949948 1_655
I0 I5 3.950052 1_655
I0 Sr7 4.029031 1_655
I0 I8 4.102391 1_555
I0 I7 4.102597 1_555
I0 I3 4.150500 1_555
I0 I1 4.150590 1_555
I1 Sr6 3.439921 1_555
I1 Sr1 3.439980 1_555
I1 Sr2 3.460149 1_555
I1 Sr0 3.604544 1_545
I1 Sr4 3.604650 1_545
I1 O1 3.792598 1_545
I1 I6 3.950011 1_545
I1 I9 3.950069 1_545
I1 Sr7 4.029088 1_545
I1 I4 4.102385 1_555
I1 I7 4.102659 1_555
I1 I3 4.150171 1_555
I2 Sr4 3.439986 1_555
I2 Sr3 3.440005 1_555
I2 Sr7 3.460663 1_554
I2 Sr5 3.604186 1_454
I2 Sr1 3.604394 1_454
I2 O0 3.792099 1_455
I2 I8 3.949497 1_455
I2 I7 3.949799 1_455
I2 Sr2 4.028500 1_455
I2 I5 4.102600 1_554
I2 I6 4.102722 1_554
I3 Sr6 3.439745 1_555
I3 Sr5 3.440044 1_555
I3 Sr2 3.460165 1_555
I3 Sr3 3.604437 1_555
I3 Sr0 3.604810 1_555
I3 O1 3.792441 1_555
I3 I5 3.949915 1_555
I3 I9 3.950339 1_555
I3 Sr7 4.028883 1_555
I3 I4 4.102414 1_555
I3 I8 4.102961 1_555
I4 Sr6 3.328916 1_554
I4 Sr4 3.480684 1_545
I4 Sr3 3.480694 1_555
I4 Sr2 3.610854 1_555
I4 I7 4.313793 1_455
I4 I8 4.314034 1_445
I5 Sr3 3.329158 1_555
I5 Sr6 3.480561 1_555
I5 Sr1 3.480661 1_455
I5 Sr7 3.610924 1_555
I5 I6 4.313814 1_545
I5 I9 4.313942 1_445
I6 Sr4 3.328808 1_555
I6 Sr6 3.480850 1_565
I6 Sr5 3.480916 1_455
I6 Sr7 3.610653 1_555
I6 I9 4.313812 1_455
I7 Sr1 3.328898 1_554
I7 Sr3 3.480765 1_655
I7 Sr0 3.480837 1_545
I7 Sr2 3.610794 1_555
I7 I8 4.313799 1_545
I8 Sr5 3.328903 1_554
I8 Sr4 3.480665 1_655
I8 Sr0 3.480713 1_555
I8 Sr2 3.610851 1_555
I9 Sr0 3.329114 1_555
I9 Sr5 3.480553 1_555
I9 Sr1 3.480651 1_565
I9 Sr7 3.610947 1_555
I10 Sr0 3.440016 1_555
I10 Sr3 3.440082 1_555
I10 Sr7 3.460477 1_554
I10 Sr6 3.604334 1_554
I10 Sr5 3.604358 1_554
I10 O0 3.792030 1_555
I10 I8 3.949754 1_555
I10 I4 3.949791 1_555
I10 Sr2 4.028374 1_555
I10 I5 4.102631 1_554
I10 I9 4.102692 1_554
I10 I11 4.151226 1_555
I10 I2 4.151268 1_555
I11 Sr0 3.439974 1_555
I11 Sr4 3.440089 1_555
I11 Sr7 3.460609 1_554
I11 Sr6 3.604222 1_564
I11 Sr1 3.604406 1_564
I11 O0 3.792108 1_565
I11 I4 3.949539 1_565
I11 I7 3.949733 1_565
I11 Sr2 4.028438 1_565
I11 I9 4.102598 1_554
I11 I6 4.102725 1_554
I11 I2 4.151489 1_555
O0 Sr2 2.400209 1_555
O0 Sr1 2.439925 1_554
O0 Sr6 2.439983 1_554
O0 Sr5 2.439985 1_554
O1 Sr7 2.400243 1_555
O1 Sr4 2.439917 1_555
O1 Sr3 2.440014 1_555
O1 Sr0 2.440037 1_555
