# generated using pymatgen
data_Cr4AgBiO14
_symmetry_space_group_name_H-M   'P 1'
_cell_length_a   7.38139862
_cell_length_b   7.38139862
_cell_length_c   7.38139862
_cell_angle_alpha   108.40324961
_cell_angle_beta   108.40324961
_cell_angle_gamma   111.62894982
_symmetry_Int_Tables_number   1
_chemical_formula_structural   Cr4AgBiO14
_chemical_formula_sum   'Cr4 Ag1 Bi1 O14'
_cell_volume   309.26441863
_cell_formula_units_Z   1
loop_
 _symmetry_equiv_pos_site_id
 _symmetry_equiv_pos_as_xyz
  1  'x, y, z'
loop_
 _atom_site_type_symbol
 _atom_site_label
 _atom_site_symmetry_multiplicity
 _atom_site_fract_x
 _atom_site_fract_y
 _atom_site_fract_z
 _atom_site_occupancy
  Cr  Cr0  1  0.82866400  0.37067700  0.78222100  1
  Cr  Cr1  1  0.04644300  0.82866400  0.45798700  1
  Cr  Cr2  1  0.37067700  0.58845600  0.54201300  1
  Cr  Cr3  1  0.58845600  0.04644300  0.21777900  1
  Ag  Ag0  1  0.42640800  0.42640800  0.00000000  1
  Bi  Bi0  1  0.00674700  0.00674700  0.00000000  1
  O  O0  1  0.23884500  0.73884500  0.50000000  1
  O  O1  1  0.73884500  0.23884500  0.50000000  1
  O  O2  1  0.96815700  0.64407400  0.88077300  1
  O  O3  1  0.08738300  0.96815700  0.32408300  1
  O  O4  1  0.64407400  0.76330000  0.67591700  1
  O  O5  1  0.76330000  0.08738300  0.11922700  1
  O  O6  1  0.47763400  0.79417800  0.17912200  1
  O  O7  1  0.29851200  0.47763400  0.68345700  1
  O  O8  1  0.79417800  0.61505500  0.31654300  1
  O  O9  1  0.61505500  0.29851200  0.82087800  1
  O  O10  1  0.39061100  0.09041800  0.09636800  1
  O  O11  1  0.29424300  0.39061100  0.30019400  1
  O  O12  1  0.09041800  0.99404900  0.69980600  1
  O  O13  1  0.99404900  0.29424300  0.90363200  1
loop_
_geom_bond_atom_site_label_1
_geom_bond_atom_site_label_2
_geom_bond_distance
_geom_bond_site_symmetry_2
Cr0 O9 1.616212 1_555
Cr0 O2 1.652345 1_555
Cr0 O13 1.657693 1_555
Cr0 O1 1.760265 1_555
Cr1 O8 1.616208 1_455
Cr1 O3 1.652344 1_555
Cr1 O12 1.657690 1_555
Cr1 O0 1.760265 1_555
Cr2 O7 1.616212 1_555
Cr2 O4 1.652344 1_555
Cr2 O11 1.657693 1_555
Cr2 O0 1.760265 1_555
Cr3 O6 1.616206 1_545
Cr3 O5 1.652338 1_555
Cr3 O10 1.657698 1_555
Cr3 O1 1.760265 1_555
Ag0 O9 2.433477 1_554
Ag0 O7 2.433477 1_554
Ag0 O8 2.433482 1_555
Ag0 O6 2.433484 1_555
Ag0 O10 2.734240 1_555
Ag0 O12 2.734246 1_544
Ag0 O11 2.734247 1_555
Ag0 O13 2.734247 1_454
Bi0 O2 2.411259 1_444
Bi0 O3 2.411259 1_545
Bi0 O4 2.411259 1_444
Bi0 O5 2.411263 1_455
Bi0 O10 2.464920 1_555
Bi0 O11 2.464922 1_555
Bi0 O13 2.464922 1_454
Bi0 O12 2.464926 1_544
