# generated using pymatgen
data_Na6Nb4Zn4Si5S7O48
_symmetry_space_group_name_H-M   'P 1'
_cell_length_a   17.82998107
_cell_length_b   8.99341993
_cell_length_c   22.74702374
_cell_angle_alpha   90.15520886
_cell_angle_beta   89.56424690
_cell_angle_gamma   120.46041319
_symmetry_Int_Tables_number   1
_chemical_formula_structural   Na6Nb4Zn4Si5S7O48
_chemical_formula_sum   'Na18 Nb12 Zn12 Si15 S21 O144'
_cell_volume   3144.01341623
_cell_formula_units_Z   3
loop_
 _symmetry_equiv_pos_site_id
 _symmetry_equiv_pos_as_xyz
  1  'x, y, z'
loop_
 _atom_site_type_symbol
 _atom_site_label
 _atom_site_symmetry_multiplicity
 _atom_site_fract_x
 _atom_site_fract_y
 _atom_site_fract_z
 _atom_site_occupancy
  Na  Na0  1  0.99868233  0.60547870  0.24911379  1
  Na  Na1  1  0.50110051  0.62091086  0.25029861  1
  Na  Na2  1  0.00152935  0.38476613  0.75026852  1
  Na  Na3  1  0.49859726  0.38930775  0.74919395  1
  Na  Na4  1  0.32859297  0.97082964  0.57738554  1
  Na  Na5  1  0.82790624  0.68662774  0.08138336  1
  Na  Na6  1  0.98994270  0.97782133  0.49645232  1
  Na  Na7  1  0.50516252  0.99892512  0.49616761  1
  Na  Na8  1  0.00663843  0.00916792  0.00122311  1
  Na  Na9  1  0.48844068  0.99582318  0.00138795  1
  Na  Na10  1  0.32480168  0.34963868  0.82490619  1
  Na  Na11  1  0.81608372  0.31579717  0.82620352  1
  Na  Na12  1  0.32605619  0.31936255  0.32024415  1
  Na  Na13  1  0.82375631  0.30257534  0.32253728  1
  Na  Na14  1  0.17595345  0.68220799  0.16978614  1
  Na  Na15  1  0.66803415  0.68506799  0.17132722  1
  Na  Na16  1  0.17738485  0.65017930  0.66359261  1
  Na  Na17  1  0.67194746  0.66404015  0.66794898  1
  Nb  Nb0  1  0.00258757  0.99625190  0.35831154  1
  Nb  Nb1  1  0.50068502  0.00207065  0.34678080  1
  Nb  Nb2  1  0.00143076  0.01152889  0.85026862  1
  Nb  Nb3  1  0.50326128  0.00868889  0.85888462  1
  Nb  Nb4  1  0.99626457  0.00494112  0.64783402  1
  Nb  Nb5  1  0.50264915  0.00744380  0.64076057  1
  Nb  Nb6  1  0.00336316  0.99857371  0.14092655  1
  Nb  Nb7  1  0.49671240  0.00309465  0.15165812  1
  Nb  Nb8  1  0.33820514  0.33876774  0.97730961  1
  Nb  Nb9  1  0.83651403  0.33052907  0.98686662  1
  Nb  Nb10  1  0.33800292  0.34449088  0.48575019  1
  Nb  Nb11  1  0.83589274  0.33224009  0.47523039  1
  Zn  Zn0  1  0.33278885  0.36110460  0.68114503  1
  Zn  Zn1  1  0.81970081  0.31173993  0.69385439  1
  Zn  Zn2  1  0.32956650  0.32377735  0.19762129  1
  Zn  Zn3  1  0.83218275  0.30557604  0.18144895  1
  Zn  Zn4  1  0.17277440  0.67943550  0.02054079  1
  Zn  Zn5  1  0.66277858  0.67037613  0.01499644  1
  Zn  Zn6  1  0.16662849  0.66080563  0.51217618  1
  Zn  Zn7  1  0.66942183  0.66367807  0.51776855  1
  Zn  Zn8  1  0.16716683  0.68862299  0.30856372  1
  Zn  Zn9  1  0.67252802  0.69584594  0.30683332  1
  Zn  Zn10  1  0.18250250  0.65022478  0.81182016  1
  Zn  Zn11  1  0.66634931  0.64733464  0.80868985  1
  Si  Si0  1  0.14493655  0.99837860  0.24888684  1
  Si  Si1  1  0.65353396  0.01328625  0.24643905  1
  Si  Si2  1  0.34485506  0.70026279  0.25107863  1
  Si  Si3  1  0.50785000  0.30851573  0.25077854  1
  Si  Si4  1  0.15430283  0.30208385  0.74755263  1
  Si  Si5  1  0.64618326  0.29277052  0.74902724  1
  Si  Si6  1  0.84518784  0.99369391  0.75100260  1
  Si  Si7  1  0.48666058  0.35578751  0.59059970  1
  Si  Si8  1  0.32351679  0.62608158  0.58600443  1
  Si  Si9  1  0.98707568  0.61901176  0.09052925  1
  Si  Si10  1  0.82442139  0.02014796  0.08557484  1
  Si  Si11  1  0.30755812  0.66602205  0.91908966  1
  Si  Si12  1  0.53026178  0.39378927  0.91411331  1
  Si  Si13  1  0.80433165  0.93757229  0.41780003  1
  Si  Si14  1  0.03080620  0.66875577  0.41505310  1
  S  S0  1  0.85798176  0.71756917  0.24911296  1
  S  S1  1  -0.00007933  0.27893926  0.24993397  1
  S  S2  1  0.00459999  0.72043974  0.74969706  1
  S  S3  1  0.49975305  0.72013548  0.74966719  1
  S  S4  1  0.35562773  0.99570425  0.74988978  1
  S  S5  1  0.97645760  0.33009722  0.58691971  1
  S  S6  1  0.18427373  0.04314205  0.58490816  1
  S  S7  1  0.69029743  0.04360100  0.58433258  1
  S  S8  1  0.83712564  0.61975265  0.58783457  1
  S  S9  1  0.47744491  0.62892458  0.08514043  1
  S  S10  1  0.33663272  0.05112546  0.08576572  1
  S  S11  1  0.19237382  0.33591442  0.08521716  1
  S  S12  1  0.68364092  0.32419310  0.08348070  1
  S  S13  1  0.82010591  0.66341775  0.91681886  1
  S  S14  1  0.01509436  0.36805328  0.91455927  1
  S  S15  1  0.16474665  0.95984372  0.91571648  1
  S  S16  1  0.67126882  0.96957375  0.91623223  1
  S  S17  1  0.31982495  0.97428244  0.41960332  1
  S  S18  1  0.17063731  0.37152712  0.41758797  1
  S  S19  1  0.66340169  0.36415824  0.41888132  1
  S  S20  1  0.51602809  0.66919939  0.41742729  1
  O  O0  1  0.08799523  0.00600793  0.30627730  1
  O  O1  1  0.59563690  0.01510809  0.30634337  1
  O  O2  1  0.41064074  0.81552328  0.30768364  1
  O  O3  1  0.91088747  0.82143823  0.30055237  1
  O  O4  1  0.49680444  0.17789642  0.30719756  1
  O  O5  1  0.99597418  0.18111687  0.30375930  1
  O  O6  1  0.09457971  0.18025407  0.80651231  1
  O  O7  1  0.59005392  0.16913999  0.80610311  1
  O  O8  1  0.49571379  0.80991987  0.80365369  1
  O  O9  1  0.99683660  0.81168543  0.80310197  1
  O  O10  1  0.40792414  0.99601207  0.80112700  1
  O  O11  1  0.91292875  0.00585954  0.80564736  1
  O  O12  1  0.39737409  0.98179681  0.69315485  1
  O  O13  1  0.90206245  0.97679511  0.69226396  1
  O  O14  1  0.08488267  0.18029278  0.69233830  1
  O  O15  1  0.58564570  0.17167219  0.69186534  1
  O  O16  1  0.00918121  0.82259998  0.69582799  1
  O  O17  1  0.49538110  0.81294151  0.69586032  1
  O  O18  1  0.40085917  0.83233543  0.19255771  1
  O  O19  1  0.90102958  0.81383768  0.19230915  1
  O  O20  1  0.99562179  0.17748759  0.19575636  1
  O  O21  1  0.51174761  0.19738149  0.19163728  1
  O  O22  1  0.08371855  0.99462896  0.19169138  1
  O  O23  1  0.58575014  0.99274286  0.19057422  1
  O  O24  1  0.43747445  0.35565579  0.64997284  1
  O  O25  1  0.93588438  0.34138310  0.64153259  1
  O  O26  1  0.23628330  0.12521459  0.63698314  1
  O  O27  1  0.73847380  0.12436775  0.63769067  1
  O  O28  1  0.30205053  0.51268390  0.64338511  1
  O  O29  1  0.83509312  0.52408330  0.64009813  1
  O  O30  1  0.43611880  0.53559075  0.13900435  1
  O  O31  1  0.93699679  0.51932404  0.14927560  1
  O  O32  1  0.33482433  0.14205495  0.13793747  1
  O  O33  1  0.80498336  0.09732262  0.14175800  1
  O  O34  1  0.24091936  0.34740687  0.13730787  1
  O  O35  1  0.73579388  0.34729883  0.13514581  1
  O  O36  1  0.23125812  0.30567252  0.03089363  1
  O  O37  1  0.73123669  0.30820443  0.02845642  1
  O  O38  1  0.42162215  0.52801444  0.03209108  1
  O  O39  1  0.91628774  0.51769392  0.03214158  1
  O  O40  1  0.34166997  0.15097906  0.03065286  1
  O  O41  1  0.84007617  0.15701448  0.02743090  1
  O  O42  1  0.22786403  0.15163487  0.53035157  1
  O  O43  1  0.73189803  0.15621082  0.53194848  1
  O  O44  1  0.33893014  0.52113783  0.52886375  1
  O  O45  1  0.84562777  0.53628497  0.53276604  1
  O  O46  1  0.41545983  0.31409027  0.53341139  1
  O  O47  1  0.92167322  0.30884400  0.53445369  1
  O  O48  1  0.27105948  0.71226436  0.97583600  1
  O  O49  1  0.79031742  0.69551440  0.97310570  1
  O  O50  1  0.06691648  0.44610934  0.96633810  1
  O  O51  1  0.58778961  0.47034007  0.97111838  1
  O  O52  1  0.14713842  0.85983447  0.96952454  1
  O  O53  1  0.65853416  0.87424139  0.97054645  1
  O  O54  1  0.28594161  0.88267153  0.47580763  1
  O  O55  1  0.77274641  0.83209949  0.47798739  1
  O  O56  1  0.15673441  0.44086776  0.47194566  1
  O  O57  1  0.64939725  0.43463216  0.47254509  1
  O  O58  1  0.08594379  0.70352200  0.47308652  1
  O  O59  1  0.56673272  0.68713595  0.46916179  1
  O  O60  1  0.05910937  0.62294404  0.35387443  1
  O  O61  1  0.54713346  0.64163822  0.36139904  1
  O  O62  1  0.26728007  0.88941824  0.36846378  1
  O  O63  1  0.74825650  0.87665692  0.35943195  1
  O  O64  1  0.18636006  0.47245413  0.36479663  1
  O  O65  1  0.67906966  0.46151758  0.36520922  1
  O  O66  1  0.04850811  0.45742659  0.85855549  1
  O  O67  1  0.55761904  0.49360586  0.85241727  1
  O  O68  1  0.17787536  0.88617915  0.86251984  1
  O  O69  1  0.68610065  0.89942417  0.86311267  1
  O  O70  1  0.25437043  0.60648011  0.85912036  1
  O  O71  1  0.76732596  0.64398221  0.86601884  1
  O  O72  1  0.00822639  0.83030978  0.40800017  1
  O  O73  1  0.50018572  0.81895058  0.41468883  1
  O  O74  1  0.41108942  0.00326901  0.41363048  1
  O  O75  1  0.90717153  0.98501783  0.40509498  1
  O  O76  1  0.08934370  0.19124419  0.41179649  1
  O  O77  1  0.58853335  0.18015947  0.41405147  1
  O  O78  1  0.00057530  0.18286292  0.91062642  1
  O  O79  1  0.50825685  0.18657790  0.90665051  1
  O  O80  1  0.08808952  0.99110326  0.90873779  1
  O  O81  1  0.59025047  0.98749332  0.91088850  1
  O  O82  1  0.40954344  0.82891894  0.90648711  1
  O  O83  1  0.91292348  0.81750295  0.90809871  1
  O  O84  1  0.48642407  0.16380471  0.59116589  1
  O  O85  1  0.98058435  0.16076841  0.58759241  1
  O  O86  1  0.09609602  0.02952429  0.58694720  1
  O  O87  1  0.60039225  0.02994699  0.58644779  1
  O  O88  1  0.41806569  0.81562385  0.58924647  1
  O  O89  1  0.92198153  0.79869897  0.58888904  1
  O  O90  1  0.48047220  0.79995914  0.08266483  1
  O  O91  1  0.98682494  0.80931570  0.08964898  1
  O  O92  1  0.41993470  0.04208997  0.08375570  1
  O  O93  1  0.91858300  0.01994718  0.08786339  1
  O  O94  1  0.10094387  0.16963238  0.08669879  1
  O  O95  1  0.59756683  0.16057523  0.08276069  1
  O  O96  1  0.35596686  0.15830433  0.75121833  1
  O  O97  1  0.85789614  0.18368910  0.74912453  1
  O  O98  1  0.24268130  0.30143435  0.74659017  1
  O  O99  1  0.73920001  0.30947948  0.75016900  1
  O  O100  1  0.42283921  0.54421057  0.75136468  1
  O  O101  1  0.92635408  0.54895154  0.74829193  1
  O  O102  1  0.35553175  0.53535537  0.24752928  1
  O  O103  1  0.85845008  0.55573398  0.25079681  1
  O  O104  1  0.42190449  0.32038360  0.24835865  1
  O  O105  1  0.92297295  0.29989477  0.25167951  1
  O  O106  1  0.23485237  0.17217413  0.24957551  1
  O  O107  1  0.74261414  0.19175179  0.24478488  1
  O  O108  1  0.32545471  0.49916284  0.93320446  1
  O  O109  1  0.83126977  0.50751450  0.92117219  1
  O  O110  1  0.42660362  0.34870638  0.92990732  1
  O  O111  1  0.92366625  0.33847075  0.92188001  1
  O  O112  1  0.24297751  0.14229035  0.92335765  1
  O  O113  1  0.74539382  0.15528063  0.92289631  1
  O  O114  1  0.33013174  0.15254682  0.42495547  1
  O  O115  1  0.82352279  0.14582274  0.43208196  1
  O  O116  1  0.24422027  0.33421296  0.42536035  1
  O  O117  1  0.74378906  0.34102752  0.42748163  1
  O  O118  1  0.42372386  0.50780720  0.42580425  1
  O  O119  1  0.92697936  0.50177199  0.43089328  1
  O  O120  1  0.17753083  0.47969125  0.07903227  1
  O  O121  1  0.67447998  0.47517837  0.07542710  1
  O  O122  1  0.08074854  0.64808928  0.07576327  1
  O  O123  1  0.56457497  0.65390876  0.07770285  1
  O  O124  1  0.26120177  0.87672095  0.08280058  1
  O  O125  1  0.75033781  0.82450149  0.07124040  1
  O  O126  1  0.17321836  0.87167156  0.57819064  1
  O  O127  1  0.67560327  0.87080493  0.57754436  1
  O  O128  1  0.24996519  0.67499870  0.57210525  1
  O  O129  1  0.76395510  0.64846478  0.58523340  1
  O  O130  1  0.06472079  0.47443213  0.58040576  1
  O  O131  1  0.58144853  0.51271528  0.57678950  1
  O  O132  1  0.13859880  0.81452876  0.24579848  1
  O  O133  1  0.64777708  0.83013613  0.24615791  1
  O  O134  1  0.25367862  0.68946608  0.25522608  1
  O  O135  1  0.77264182  0.69996448  0.24976032  1
  O  O136  1  0.08106017  0.44444208  0.24683704  1
  O  O137  1  0.59614450  0.49044761  0.25516132  1
  O  O138  1  0.14581676  0.47291237  0.74739560  1
  O  O139  1  0.63998959  0.46397400  0.74593182  1
  O  O140  1  0.08420029  0.71211543  0.75215771  1
  O  O141  1  0.58084719  0.71724390  0.74649242  1
  O  O142  1  0.26780795  0.84301269  0.75098296  1
  O  O143  1  0.75398519  0.82294346  0.75462886  1
loop_
_geom_bond_atom_site_label_1
_geom_bond_atom_site_label_2
_geom_bond_distance
_geom_bond_site_symmetry_2
Na0 O132 2.237516 1_655
Na0 O103 2.306039 1_555
Na0 O105 2.369976 1_555
Na0 O31 2.476288 1_555
Na0 O136 2.532334 1_655
Na0 O60 2.594145 1_655
Na1 O102 2.304342 1_555
Na1 O133 2.323118 1_555
Na1 O104 2.330590 1_555
Na1 O137 2.506026 1_555
Na1 O61 2.639894 1_555
Na1 O30 2.733672 1_555
Na1 O23 3.190994 1_555
Na1 O2 3.191612 1_555
Na2 O97 2.265997 1_455
Na2 O138 2.276217 1_555
Na2 O101 2.446809 1_455
Na2 O140 2.538145 1_555
Na2 O66 2.581420 1_555
Na2 O25 2.686220 1_455
Na2 O14 3.170932 1_555
Na3 O139 2.256772 1_555
Na3 O96 2.329716 1_555
Na3 O100 2.382068 1_555
Na3 O24 2.464261 1_555
Na3 O141 2.543035 1_555
Na3 O67 2.554475 1_555
Na4 O128 2.297264 1_555
Na4 O54 2.439521 1_555
Na4 O126 2.442297 1_555
Na4 O84 2.467441 1_565
Na4 O88 2.613882 1_555
Na4 O46 2.841644 1_565
Na4 O12 2.893719 1_555
Na4 O26 2.957594 1_565
Na5 O125 2.290997 1_555
Na5 O121 2.418253 1_555
Na5 O91 2.473608 1_555
Na5 O49 2.569512 1_554
Na5 O93 2.590200 1_565
Na5 O19 2.810249 1_555
Na5 O35 2.900689 1_555
Na5 O39 2.904737 1_555
Na6 O72 2.515654 1_655
Na6 O89 2.546575 1_555
Na6 O75 2.577780 1_555
Na6 O76 2.655654 1_665
Na6 O86 2.682856 1_665
Na6 O85 2.699545 1_565
Na6 O55 3.430320 1_555
Na7 O77 2.423448 1_565
Na7 O73 2.429694 1_555
Na7 O74 2.540586 1_565
Na7 O87 2.597651 1_565
Na7 O88 2.642976 1_555
Na7 O84 2.730199 1_565
Na8 O94 2.502912 1_555
Na8 O93 2.542574 1_455
Na8 O80 2.598502 1_544
Na8 O91 2.601177 1_445
Na8 O78 2.625042 1_554
Na8 O83 2.713722 1_444
Na8 O52 3.460868 1_544
Na9 O92 2.377357 1_565
Na9 O90 2.510183 1_555
Na9 O95 2.554273 1_565
Na9 O82 2.603807 1_554
Na9 O79 2.665671 1_564
Na9 O81 2.760220 1_554
Na10 O98 2.212993 1_555
Na10 O100 2.405435 1_555
Na10 O96 2.649338 1_555
Na10 O112 2.799229 1_555
Na10 O108 2.800662 1_555
Na10 O110 3.013469 1_555
Na11 O99 2.197806 1_555
Na11 O97 2.430717 1_555
Na11 O113 2.576920 1_555
Na11 O101 2.681518 1_555
Na11 O109 2.688539 1_555
Na11 O111 2.849928 1_555
Na12 O106 2.196922 1_555
Na12 O104 2.352904 1_555
Na12 O102 2.398866 1_555
Na12 O116 2.829657 1_555
Na12 O114 2.839339 1_555
Na12 O118 2.952911 1_555
Na13 O107 2.186768 1_555
Na13 O105 2.393245 1_555
Na13 O103 2.608865 1_555
Na13 O115 2.865215 1_555
Na13 O117 2.880069 1_555
Na14 O132 2.371560 1_555
Na14 O134 2.377095 1_555
Na14 O124 2.561786 1_555
Na14 O136 2.610371 1_555
Na14 O122 2.659594 1_555
Na14 O120 2.758684 1_555
Na15 O133 2.277360 1_555
Na15 O137 2.459540 1_555
Na15 O135 2.544760 1_555
Na15 O125 2.647286 1_555
Na15 O123 2.747597 1_555
Na15 O121 2.920422 1_555
Na16 O138 2.362755 1_555
Na16 O128 2.392498 1_555
Na16 O142 2.598799 1_555
Na16 O130 2.633737 1_555
Na16 O126 2.814342 1_555
Na16 O140 2.830317 1_555
Na16 O28 3.073967 1_555
Na17 O139 2.381421 1_555
Na17 O143 2.445140 1_555
Na17 O129 2.536852 1_555
Na17 O131 2.562183 1_555
Na17 O141 2.607417 1_555
Na17 O127 2.754413 1_555
Nb0 O0 1.888204 1_565
Nb0 O72 1.917767 1_555
Nb0 O75 1.958514 1_455
Nb0 O76 2.053042 1_565
Nb0 O3 2.070376 1_455
Nb0 O5 2.128390 1_465
Nb1 O4 1.853518 1_555
Nb1 O2 1.861694 1_545
Nb1 O1 1.871280 1_555
Nb1 O77 2.199956 1_555
Nb1 O74 2.201095 1_555
Nb1 O73 2.257676 1_545
Nb2 O11 1.861554 1_455
Nb2 O6 1.865337 1_555
Nb2 O9 2.056612 1_445
Nb2 O78 2.066787 1_555
Nb2 O83 2.110592 1_445
Nb2 O80 2.123772 1_545
Nb3 O79 1.896186 1_555
Nb3 O7 1.906724 1_555
Nb3 O82 1.954851 1_545
Nb3 O81 2.042109 1_545
Nb3 O10 2.113125 1_545
Nb3 O8 2.130390 1_545
Nb4 O13 1.857718 1_545
Nb4 O14 1.870212 1_655
Nb4 O16 2.080986 1_645
Nb4 O85 2.081680 1_555
Nb4 O89 2.124890 1_545
Nb4 O86 2.168093 1_655
Nb5 O15 1.877113 1_555
Nb5 O84 1.939031 1_555
Nb5 O88 2.000418 1_545
Nb5 O87 2.053172 1_555
Nb5 O17 2.104071 1_545
Nb5 O12 2.127310 1_545
Nb6 O22 1.861278 1_555
Nb6 O91 1.957074 1_455
Nb6 O93 2.025463 1_465
Nb6 O94 2.044318 1_565
Nb6 O19 2.088093 1_455
Nb6 O20 2.091726 1_465
Nb7 O18 1.862075 1_545
Nb7 O21 1.863367 1_555
Nb7 O23 1.866615 1_545
Nb7 O92 2.214628 1_555
Nb7 O95 2.254472 1_555
Nb7 O90 2.310709 1_545
Nb8 O108 1.866233 1_555
Nb8 O110 1.867271 1_555
Nb8 O38 2.027761 1_556
Nb8 O40 2.108658 1_556
Nb8 O112 2.118821 1_555
Nb8 O36 2.145123 1_556
Nb9 O41 1.843840 1_556
Nb9 O39 1.871507 1_556
Nb9 O37 2.012635 1_556
Nb9 O111 2.111424 1_555
Nb9 O113 2.160641 1_555
Nb9 O109 2.222896 1_555
Nb10 O44 1.857707 1_555
Nb10 O46 1.888030 1_555
Nb10 O118 2.013900 1_555
Nb10 O42 2.102351 1_555
Nb10 O116 2.137562 1_555
Nb10 O114 2.157864 1_555
Nb11 O115 1.855319 1_555
Nb11 O119 1.858020 1_555
Nb11 O117 2.010466 1_555
Nb11 O47 2.134834 1_555
Nb11 O43 2.146482 1_555
Nb11 O45 2.185851 1_555
O0 Si0 1.670234 1_545
O1 Si1 1.708318 1_555
O2 Si2 1.700361 1_555
O3 S0 1.499671 1_555
O4 Si3 1.683902 1_555
O5 S1 1.489885 1_655
O6 Si4 1.713599 1_555
O7 Si5 1.668316 1_555
O8 S3 1.489127 1_555
O9 S2 1.508482 1_655
O10 S4 1.497241 1_555
O11 Si6 1.704106 1_545
O12 S4 1.521219 1_555
O13 Si6 1.723726 1_555
O14 Si4 1.717800 1_555
O15 Si5 1.692239 1_555
O16 S2 1.510234 1_555
O17 S3 1.507880 1_555
O18 Si2 1.722145 1_555
O19 S0 1.524957 1_555
O20 S1 1.510478 1_655
O21 Si3 1.695670 1_555
O22 Si0 1.693888 1_555
O23 Si1 1.704504 1_565
O24 Si7 1.604390 1_555
O24 Zn0 2.015338 1_555
O25 S5 1.461845 1_555
O25 Zn1 2.276659 1_555
O26 S6 1.458048 1_555
O26 Zn0 2.187275 1_555
O27 S7 1.455027 1_555
O27 Zn1 2.027647 1_555
O28 Si8 1.579260 1_555
O28 Zn0 1.915070 1_555
O29 S8 1.458837 1_555
O29 Zn1 2.166481 1_555
O30 S9 1.453784 1_555
O30 Zn2 2.306921 1_555
O31 Si9 1.601084 1_555
O31 Zn3 2.016904 1_555
O32 S10 1.448812 1_555
O32 Zn2 2.159695 1_555
O33 Si10 1.570819 1_555
O33 Zn3 1.906493 1_555
O34 S11 1.445036 1_555
O34 Zn2 2.191061 1_555
O35 S12 1.452038 1_555
O35 Zn3 2.210720 1_555
O36 S11 1.502640 1_555
O37 S12 1.553719 1_555
O38 S9 1.538486 1_555
O39 Si9 1.743609 1_555
O40 S10 1.519465 1_555
O41 Si10 1.731230 1_555
O42 S6 1.522889 1_555
O43 S7 1.492371 1_555
O44 Si8 1.704880 1_555
O45 S8 1.504321 1_555
O46 Si7 1.727519 1_555
O47 S5 1.497395 1_555
O48 Si11 1.587879 1_555
O48 Zn4 1.908450 1_556
O49 S13 1.465550 1_555
O49 Zn5 2.361613 1_556
O50 S14 1.445070 1_555
O50 Zn4 2.343430 1_556
O51 Si12 1.583325 1_555
O51 Zn5 1.895293 1_556
O52 S15 1.455838 1_555
O52 Zn4 2.226647 1_556
O53 S16 1.455044 1_555
O53 Zn5 2.131072 1_556
O54 S17 1.472277 1_555
O54 Zn6 2.206767 1_555
O55 Si13 1.595308 1_555
O55 Zn7 1.913100 1_555
O56 S18 1.458459 1_555
O56 Zn6 2.102355 1_555
O57 S19 1.451127 1_555
O57 Zn7 2.162716 1_555
O58 Si14 1.585160 1_555
O58 Zn6 1.894584 1_555
O59 S20 1.447590 1_555
O59 Zn7 2.245670 1_555
O60 Si14 1.599397 1_555
O60 Zn8 1.985571 1_555
O61 S20 1.456103 1_555
O61 Zn9 2.373384 1_555
O62 S17 1.449219 1_555
O62 Zn8 2.249294 1_555
O63 Si13 1.588540 1_555
O63 Zn9 1.920105 1_555
O64 S18 1.444748 1_555
O64 Zn8 2.495490 1_555
O65 S19 1.444942 1_555
O65 Zn9 2.546525 1_555
O66 S14 1.460257 1_555
O66 Zn10 2.369770 1_555
O67 Si12 1.601803 1_555
O67 Zn11 1.979852 1_555
O68 S15 1.451391 1_555
O68 Zn10 2.450034 1_555
O69 S16 1.445037 1_555
O69 Zn11 2.445085 1_555
O70 Si11 1.596172 1_555
O70 Zn10 1.867833 1_555
O71 S13 1.449180 1_555
O71 Zn11 2.243643 1_555
O72 Si14 1.701211 1_555
O73 S20 1.511258 1_555
O74 S17 1.516929 1_545
O75 Si13 1.681410 1_555
O76 S18 1.538220 1_555
O77 S19 1.514572 1_555
O78 S14 1.552835 1_555
O79 Si12 1.706904 1_555
O80 S15 1.538014 1_555
O81 S16 1.538278 1_555
O82 Si11 1.681777 1_555
O83 S13 1.539412 1_555
O84 Si7 1.724531 1_555
O85 S5 1.561555 1_555
O86 S6 1.514161 1_555
O87 S7 1.544768 1_555
O88 Si8 1.685461 1_555
O89 S8 1.552833 1_555
O90 S9 1.512727 1_555
O91 Si9 1.713926 1_555
O92 S10 1.528413 1_555
O93 Si10 1.681018 1_555
O94 S11 1.556516 1_555
O95 S12 1.493802 1_555
O96 S4 1.459507 1_545
O96 Zn0 2.613037 1_555
O97 Si6 1.606407 1_545
O97 Zn1 2.046136 1_555
O98 Si4 1.578741 1_555
O98 Zn0 2.044303 1_555
O99 Si5 1.588013 1_555
O99 Zn1 1.908954 1_555
O100 S3 1.478195 1_555
O100 Zn0 2.277077 1_555
O101 S2 1.464533 1_655
O101 Zn1 2.368344 1_555
O102 Si2 1.589860 1_555
O102 Zn2 2.055958 1_555
O103 S0 1.460310 1_555
O103 Zn3 2.587067 1_555
O104 Si3 1.590546 1_555
O104 Zn2 2.030654 1_555
O105 S1 1.476719 1_655
O105 Zn3 2.301921 1_555
O106 Si0 1.572621 1_545
O106 Zn2 1.936851 1_555
O107 Si1 1.585862 1_555
O107 Zn3 1.997359 1_555
O108 Si11 1.716531 1_555
O109 S13 1.516357 1_555
O110 Si12 1.714734 1_555
O111 S14 1.520633 1_655
O112 S15 1.532898 1_545
O113 S16 1.524069 1_545
O114 S17 1.522969 1_545
O115 Si13 1.754696 1_545
O116 S18 1.521648 1_555
O117 S19 1.562913 1_555
O118 S20 1.557699 1_555
O119 Si14 1.728074 1_655
O120 S11 1.452690 1_555
O120 Zn4 2.274547 1_555
O121 S12 1.459705 1_555
O121 Zn5 2.324575 1_555
O122 Si9 1.587399 1_455
O122 Zn4 1.962460 1_555
O123 S9 1.461113 1_555
O123 Zn5 2.196050 1_555
O124 S10 1.461355 1_565
O124 Zn4 2.196285 1_555
O125 Si10 1.610608 1_565
O125 Zn5 1.955036 1_555
O126 S6 1.459891 1_565
O126 Zn6 2.372003 1_555
O127 S7 1.447066 1_565
O127 Zn7 2.260826 1_555
O128 Si8 1.614107 1_555
O128 Zn6 1.979917 1_555
O129 S8 1.454322 1_555
O129 Zn7 2.342880 1_555
O130 S5 1.452543 1_455
O130 Zn6 2.324453 1_555
O131 Si7 1.588337 1_555
O131 Zn7 1.981107 1_555
O132 Si0 1.600506 1_555
O132 Zn8 2.045630 1_555
O133 Si1 1.597561 1_565
O133 Zn9 2.029026 1_555
O134 Si2 1.580765 1_555
O134 Zn8 1.952212 1_555
O135 S0 1.447755 1_555
O135 Zn9 2.184285 1_555
O136 S1 1.459166 1_555
O136 Zn8 2.397675 1_555
O137 Si3 1.598544 1_555
O137 Zn9 2.027434 1_555
O138 Si4 1.618316 1_555
O138 Zn10 2.015616 1_555
O139 Si5 1.600295 1_555
O139 Zn11 2.046900 1_555
O140 S2 1.460147 1_555
O140 Zn10 2.500621 1_555
O141 S3 1.460501 1_555
O141 Zn11 2.393846 1_555
O142 S4 1.468901 1_555
O142 Zn10 2.131168 1_555
O143 Si6 1.573569 1_555
O143 Zn11 1.981743 1_555
