# generated using pymatgen
data_CaZnAsHO5
_symmetry_space_group_name_H-M   'P 1'
_cell_length_a   5.93376766
_cell_length_b   7.48899955
_cell_length_c   9.04653314
_cell_angle_alpha   90.00000000
_cell_angle_beta   90.00000000
_cell_angle_gamma   90.00000000
_symmetry_Int_Tables_number   1
_chemical_formula_structural   CaZnAsHO5
_chemical_formula_sum   'Ca4 Zn4 As4 H4 O20'
_cell_volume   402.00968892
_cell_formula_units_Z   4
loop_
 _symmetry_equiv_pos_site_id
 _symmetry_equiv_pos_as_xyz
  1  'x, y, z'
loop_
 _atom_site_type_symbol
 _atom_site_label
 _atom_site_symmetry_multiplicity
 _atom_site_fract_x
 _atom_site_fract_y
 _atom_site_fract_z
 _atom_site_occupancy
  Ca  Ca0  1  0.02413661  0.37003120  0.82722360  1
  Ca  Ca1  1  0.52413661  0.12996880  0.17277640  1
  Ca  Ca2  1  0.97586339  0.87003120  0.67277640  1
  Ca  Ca3  1  0.47586339  0.62996880  0.32722360  1
  Zn  Zn0  1  0.25755869  0.76358070  0.99384141  1
  Zn  Zn1  1  0.75755869  0.73641930  0.00615859  1
  Zn  Zn2  1  0.74244131  0.26358070  0.50615859  1
  Zn  Zn3  1  0.24244131  0.23641930  0.49384141  1
  As  As0  1  0.98344842  0.37489955  0.17588513  1
  As  As1  1  0.48344842  0.12510045  0.82411487  1
  As  As2  1  0.01655158  0.87489955  0.32411487  1
  As  As3  1  0.51655158  0.62510045  0.67588513  1
  H  H0  1  0.97903211  0.00755534  0.98093301  1
  H  H1  1  0.47903211  0.49244466  0.01906699  1
  H  H2  1  0.02096789  0.50755534  0.51906699  1
  H  H3  1  0.52096789  0.99244466  0.48093301  1
  O  O0  1  0.99233122  0.89327594  0.92809205  1
  O  O1  1  0.49233122  0.60672406  0.07190795  1
  O  O2  1  0.00766878  0.39327594  0.57190795  1
  O  O3  1  0.50766878  0.10672406  0.42809205  1
  O  O4  1  0.74389760  0.60535785  0.79014465  1
  O  O5  1  0.24389760  0.89464215  0.20985535  1
  O  O6  1  0.25610240  0.10535785  0.70985535  1
  O  O7  1  0.75610240  0.39464215  0.29014465  1
  O  O8  1  0.48892432  0.44801156  0.55698088  1
  O  O9  1  0.98892432  0.05198844  0.44301912  1
  O  O10  1  0.51107568  0.94801156  0.94301912  1
  O  O11  1  0.01107568  0.55198844  0.05698088  1
  O  O12  1  0.59116750  0.79474592  0.56082928  1
  O  O13  1  0.09116750  0.70525408  0.43917072  1
  O  O14  1  0.40883250  0.29474592  0.93917072  1
  O  O15  1  0.90883250  0.20525408  0.06082928  1
  O  O16  1  0.23205496  0.34714474  0.26734387  1
  O  O17  1  0.73205496  0.15285526  0.73265613  1
  O  O18  1  0.76794504  0.84714474  0.23265613  1
  O  O19  1  0.26794504  0.65285526  0.76734387  1
loop_
_geom_bond_atom_site_label_1
_geom_bond_atom_site_label_2
_geom_bond_distance
_geom_bond_site_symmetry_2
Ca0 O2 2.318333 1_555
Ca0 O4 2.446136 1_455
Ca0 O11 2.486581 1_556
Ca0 O17 2.526056 1_455
Ca0 O15 2.541070 1_456
Ca0 O14 2.560120 1_555
Ca0 O19 2.621566 1_555
Ca0 O6 2.636438 1_555
Ca1 O3 2.318333 1_555
Ca1 O5 2.446136 1_545
Ca1 O10 2.486581 1_544
Ca1 O16 2.526056 1_555
Ca1 O14 2.541070 1_554
Ca1 O15 2.560120 1_555
Ca1 O18 2.621566 1_545
Ca1 O7 2.636438 1_555
Ca2 O0 2.318333 1_555
Ca2 O6 2.446136 1_665
Ca2 O9 2.486581 1_565
Ca2 O19 2.526056 1_655
Ca2 O13 2.541070 1_655
Ca2 O12 2.560120 1_555
Ca2 O17 2.621566 1_565
Ca2 O4 2.636438 1_555
Ca3 O1 2.318333 1_555
Ca3 O7 2.446136 1_555
Ca3 O8 2.486581 1_555
Ca3 O18 2.526056 1_555
Ca3 O12 2.541070 1_555
Ca3 O13 2.560120 1_555
Ca3 O16 2.621566 1_555
Ca3 O5 2.636438 1_555
As0 O15 1.701035 1_555
As0 O16 1.704085 1_655
As0 O7 1.705916 1_555
As0 O11 1.715459 1_655
As1 O14 1.701035 1_555
As1 O17 1.704085 1_555
As1 O6 1.705916 1_555
As1 O10 1.715459 1_545
As2 O13 1.701035 1_555
As2 O18 1.704085 1_455
As2 O5 1.705916 1_555
As2 O9 1.715459 1_465
As3 O12 1.701035 1_555
As3 O19 1.704085 1_555
As3 O4 1.705916 1_555
As3 O8 1.715459 1_555
H0 O0 0.983462 1_545
H0 O15 1.699413 1_556
H1 O1 0.983462 1_555
H1 O14 1.699413 1_554
H2 O2 0.983462 1_555
H2 O13 1.699413 1_555
H3 O3 0.983462 1_565
H3 O12 1.699413 1_555
O0 Zn0 1.942687 1_655
O0 Zn1 1.954321 1_556
O1 Zn1 1.942687 1_555
O1 Zn0 1.954321 1_554
O2 Zn2 1.942687 1_455
O2 Zn3 1.954321 1_555
O3 Zn3 1.942687 1_555
O3 Zn2 1.954321 1_555
O4 Zn1 2.188323 1_556
O5 Zn0 2.188323 1_554
O6 Zn3 2.188323 1_555
O7 Zn2 2.188323 1_555
O8 Zn2 2.093336 1_555
O8 Zn3 2.230781 1_555
O9 Zn3 2.093336 1_655
O9 Zn2 2.230781 1_555
O10 Zn0 2.093336 1_555
O10 Zn1 2.230781 1_556
O11 Zn1 2.093336 1_455
O11 Zn0 2.230781 1_554
O16 Zn3 2.211308 1_555
O17 Zn2 2.211308 1_555
O18 Zn1 2.211308 1_555
O19 Zn0 2.211308 1_555
