# generated using pymatgen
data_Fe3(PO4)4
_symmetry_space_group_name_H-M   'P 1'
_cell_length_a   11.81012700
_cell_length_b   6.01182200
_cell_length_c   8.88703539
_cell_angle_alpha   79.60026896
_cell_angle_beta   90.00000000
_cell_angle_gamma   90.00000000
_symmetry_Int_Tables_number   1
_chemical_formula_structural   Fe3(PO4)4
_chemical_formula_sum   'Fe6 P8 O32'
_cell_volume   620.61731515
_cell_formula_units_Z   2
loop_
 _symmetry_equiv_pos_site_id
 _symmetry_equiv_pos_as_xyz
  1  'x, y, z'
loop_
 _atom_site_type_symbol
 _atom_site_label
 _atom_site_symmetry_multiplicity
 _atom_site_fract_x
 _atom_site_fract_y
 _atom_site_fract_z
 _atom_site_occupancy
  Fe  Fe0  1  0.08625100  0.88933300  0.75679300  1
  Fe  Fe1  1  0.92848700  0.57003600  0.27736000  1
  Fe  Fe2  1  0.20258800  0.13123500  0.36116800  1
  Fe  Fe3  1  0.42848700  0.42996400  0.72264000  1
  Fe  Fe4  1  0.58625100  0.11066700  0.24320700  1
  Fe  Fe5  1  0.70258800  0.86876500  0.63883200  1
  P  P0  1  0.86302100  0.62863000  0.91229900  1
  P  P1  1  0.41430400  0.96278200  0.60409800  1
  P  P2  1  0.36302100  0.37137000  0.08770100  1
  P  P3  1  0.09165100  0.42994000  0.58573500  1
  P  P4  1  0.91430400  0.03721800  0.39590200  1
  P  P5  1  0.62963400  0.14162400  0.89948300  1
  P  P6  1  0.12963400  0.85837600  0.10051700  1
  P  P7  1  0.59165100  0.57006000  0.41426500  1
  O  O0  1  0.88836900  0.26405900  0.28903900  1
  O  O1  1  0.56166600  0.91896400  0.90055500  1
  O  O2  1  0.21909500  0.90061800  0.22062900  1
  O  O3  1  0.48124100  0.50151600  0.50666100  1
  O  O4  1  0.56348300  0.35858800  0.83714100  1
  O  O5  1  0.33162000  0.37467500  0.91840200  1
  O  O6  1  0.38836900  0.73594100  0.71096100  1
  O  O7  1  0.44418500  0.17503100  0.15032100  1
  O  O8  1  0.75726800  0.65035000  0.81022300  1
  O  O9  1  0.57510600  0.78680300  0.29195500  1
  O  O10  1  0.91817900  0.39273200  0.92256700  1
  O  O11  1  0.17749700  0.84562300  0.94170600  1
  O  O12  1  0.94418500  0.82496900  0.84967900  1
  O  O13  1  0.83162000  0.62532500  0.08159800  1
  O  O14  1  0.37608200  0.14092700  0.69894400  1
  O  O15  1  0.12468700  0.63084300  0.66506300  1
  O  O16  1  0.87608200  0.85907300  0.30105600  1
  O  O17  1  0.33579900  0.98903000  0.46295000  1
  O  O18  1  0.04205900  0.01830700  0.44011900  1
  O  O19  1  0.68684800  0.61869200  0.52395500  1
  O  O20  1  0.07510600  0.21319700  0.70804500  1
  O  O21  1  0.18684800  0.38130800  0.47604500  1
  O  O22  1  0.06348300  0.64141200  0.16285900  1
  O  O23  1  0.06166600  0.08103600  0.09944500  1
  O  O24  1  0.98124100  0.49848400  0.49333900  1
  O  O25  1  0.41817900  0.60726800  0.07743300  1
  O  O26  1  0.62468700  0.36915700  0.33493700  1
  O  O27  1  0.67749700  0.15437700  0.05829400  1
  O  O28  1  0.25726800  0.34965000  0.18977700  1
  O  O29  1  0.71909500  0.09938200  0.77937100  1
  O  O30  1  0.83579900  0.01097000  0.53705000  1
  O  O31  1  0.54205900  0.98169300  0.55988100  1
loop_
_geom_bond_atom_site_label_1
_geom_bond_atom_site_label_2
_geom_bond_distance
_geom_bond_site_symmetry_2
Fe0 O12 1.879069 1_455
Fe0 O20 1.921286 1_565
Fe0 O15 1.934654 1_555
Fe0 O11 1.942925 1_555
Fe1 O0 1.884148 1_555
Fe1 O16 1.891797 1_555
Fe1 O22 1.898368 1_655
Fe1 O24 1.989791 1_555
Fe1 O13 2.058441 1_555
Fe2 O28 1.933684 1_555
Fe2 O17 1.935190 1_545
Fe2 O21 1.972598 1_555
Fe2 O2 2.035999 1_545
Fe2 O18 2.091781 1_555
Fe3 O6 1.884148 1_555
Fe3 O14 1.891797 1_555
Fe3 O4 1.898368 1_555
Fe3 O3 1.989791 1_555
Fe3 O5 2.058441 1_555
Fe4 O7 1.879069 1_555
Fe4 O9 1.921286 1_545
Fe4 O26 1.934654 1_555
Fe4 O27 1.942925 1_555
Fe5 O8 1.933684 1_555
Fe5 O30 1.935190 1_565
Fe5 O19 1.972598 1_555
Fe5 O29 2.035999 1_565
Fe5 O31 2.091781 1_555
O0 P4 1.545287 1_555
O1 P5 1.559378 1_565
O2 P6 1.555016 1_555
O3 P7 1.556341 1_555
O4 P5 1.535492 1_555
O5 P2 1.546238 1_556
O6 P1 1.545287 1_555
O7 P2 1.544221 1_555
O8 P0 1.535286 1_555
O9 P7 1.551197 1_555
O10 P0 1.548284 1_555
O11 P6 1.535059 1_556
O12 P0 1.544221 1_555
O13 P0 1.546238 1_554
O14 P1 1.545040 1_545
O15 P3 1.554159 1_555
O16 P4 1.545040 1_565
O17 P1 1.544843 1_555
O18 P4 1.558107 1_455
O19 P7 1.550055 1_555
O20 P3 1.551197 1_555
O21 P3 1.550055 1_555
O22 P6 1.535492 1_555
O23 P6 1.559378 1_545
O24 P3 1.556341 1_655
O25 P2 1.548284 1_555
O26 P7 1.554159 1_555
O27 P5 1.535059 1_554
O28 P2 1.535286 1_555
O29 P5 1.555016 1_555
O30 P4 1.544843 1_555
O31 P1 1.558107 1_555
