# generated using pymatgen
data_Y2Pd2Pb
_symmetry_space_group_name_H-M   'P 1'
_cell_length_a   15.67497944
_cell_length_b   15.67497944
_cell_length_c   7.31903618
_cell_angle_alpha   90.00000000
_cell_angle_beta   90.00000000
_cell_angle_gamma   90.00000000
_symmetry_Int_Tables_number   1
_chemical_formula_structural   Y2Pd2Pb
_chemical_formula_sum   'Y32 Pd32 Pb16'
_cell_volume   1798.32364148
_cell_formula_units_Z   16
loop_
 _symmetry_equiv_pos_site_id
 _symmetry_equiv_pos_as_xyz
  1  'x, y, z'
loop_
 _atom_site_type_symbol
 _atom_site_label
 _atom_site_symmetry_multiplicity
 _atom_site_fract_x
 _atom_site_fract_y
 _atom_site_fract_z
 _atom_site_occupancy
  Y  Y0_0  1  0.33620180  0.08620180  0.25000000  1
  Y  Y0_1  1  0.33620180  0.08620180  0.75000000  1
  Y  Y0_2  1  0.33620180  0.58620180  0.25000000  1
  Y  Y0_3  1  0.33620180  0.58620180  0.75000000  1
  Y  Y0_4  1  0.83620180  0.08620180  0.25000000  1
  Y  Y0_5  1  0.83620180  0.08620180  0.75000000  1
  Y  Y0_6  1  0.83620180  0.58620180  0.25000000  1
  Y  Y0_7  1  0.83620180  0.58620180  0.75000000  1
  Y  Y1_0  1  0.08620180  0.16379820  0.25000000  1
  Y  Y1_1  1  0.08620180  0.16379820  0.75000000  1
  Y  Y1_2  1  0.08620180  0.66379820  0.25000000  1
  Y  Y1_3  1  0.08620180  0.66379820  0.75000000  1
  Y  Y1_4  1  0.58620180  0.16379820  0.25000000  1
  Y  Y1_5  1  0.58620180  0.16379820  0.75000000  1
  Y  Y1_6  1  0.58620180  0.66379820  0.25000000  1
  Y  Y1_7  1  0.58620180  0.66379820  0.75000000  1
  Y  Y2_0  1  0.41379820  0.33620180  0.25000000  1
  Y  Y2_1  1  0.41379820  0.33620180  0.75000000  1
  Y  Y2_2  1  0.41379820  0.83620180  0.25000000  1
  Y  Y2_3  1  0.41379820  0.83620180  0.75000000  1
  Y  Y2_4  1  0.91379820  0.33620180  0.25000000  1
  Y  Y2_5  1  0.91379820  0.33620180  0.75000000  1
  Y  Y2_6  1  0.91379820  0.83620180  0.25000000  1
  Y  Y2_7  1  0.91379820  0.83620180  0.75000000  1
  Y  Y3_0  1  0.16379820  0.41379820  0.25000000  1
  Y  Y3_1  1  0.16379820  0.41379820  0.75000000  1
  Y  Y3_2  1  0.16379820  0.91379820  0.25000000  1
  Y  Y3_3  1  0.16379820  0.91379820  0.75000000  1
  Y  Y3_4  1  0.66379820  0.41379820  0.25000000  1
  Y  Y3_5  1  0.66379820  0.41379820  0.75000000  1
  Y  Y3_6  1  0.66379820  0.91379820  0.25000000  1
  Y  Y3_7  1  0.66379820  0.91379820  0.75000000  1
  Pd  Pd0_0  1  0.43766740  0.18766740  0.00000000  1
  Pd  Pd0_1  1  0.43766740  0.18766740  0.50000000  1
  Pd  Pd0_2  1  0.43766740  0.68766740  0.00000000  1
  Pd  Pd0_3  1  0.43766740  0.68766740  0.50000000  1
  Pd  Pd0_4  1  0.93766740  0.18766740  0.00000000  1
  Pd  Pd0_5  1  0.93766740  0.18766740  0.50000000  1
  Pd  Pd0_6  1  0.93766740  0.68766740  0.00000000  1
  Pd  Pd0_7  1  0.93766740  0.68766740  0.50000000  1
  Pd  Pd1_0  1  0.18766740  0.06233260  0.00000000  1
  Pd  Pd1_1  1  0.18766740  0.06233260  0.50000000  1
  Pd  Pd1_2  1  0.18766740  0.56233260  0.00000000  1
  Pd  Pd1_3  1  0.18766740  0.56233260  0.50000000  1
  Pd  Pd1_4  1  0.68766740  0.06233260  0.00000000  1
  Pd  Pd1_5  1  0.68766740  0.06233260  0.50000000  1
  Pd  Pd1_6  1  0.68766740  0.56233260  0.00000000  1
  Pd  Pd1_7  1  0.68766740  0.56233260  0.50000000  1
  Pd  Pd2_0  1  0.31233260  0.43766740  0.00000000  1
  Pd  Pd2_1  1  0.31233260  0.43766740  0.50000000  1
  Pd  Pd2_2  1  0.31233260  0.93766740  0.00000000  1
  Pd  Pd2_3  1  0.31233260  0.93766740  0.50000000  1
  Pd  Pd2_4  1  0.81233260  0.43766740  0.00000000  1
  Pd  Pd2_5  1  0.81233260  0.43766740  0.50000000  1
  Pd  Pd2_6  1  0.81233260  0.93766740  0.00000000  1
  Pd  Pd2_7  1  0.81233260  0.93766740  0.50000000  1
  Pd  Pd3_0  1  0.06233260  0.31233260  0.00000000  1
  Pd  Pd3_1  1  0.06233260  0.31233260  0.50000000  1
  Pd  Pd3_2  1  0.06233260  0.81233260  0.00000000  1
  Pd  Pd3_3  1  0.06233260  0.81233260  0.50000000  1
  Pd  Pd3_4  1  0.56233260  0.31233260  0.00000000  1
  Pd  Pd3_5  1  0.56233260  0.31233260  0.50000000  1
  Pd  Pd3_6  1  0.56233260  0.81233260  0.00000000  1
  Pd  Pd3_7  1  0.56233260  0.81233260  0.50000000  1
  Pb  Pb0_0  1  0.00000000  0.00000000  0.00000000  1
  Pb  Pb0_1  1  0.00000000  0.00000000  0.50000000  1
  Pb  Pb0_2  1  0.00000000  0.50000000  0.00000000  1
  Pb  Pb0_3  1  0.00000000  0.50000000  0.50000000  1
  Pb  Pb0_4  1  0.50000000  0.00000000  0.00000000  1
  Pb  Pb0_5  1  0.50000000  0.00000000  0.50000000  1
  Pb  Pb0_6  1  0.50000000  0.50000000  0.00000000  1
  Pb  Pb0_7  1  0.50000000  0.50000000  0.50000000  1
  Pb  Pb1_0  1  0.25000000  0.25000000  0.00000000  1
  Pb  Pb1_1  1  0.25000000  0.25000000  0.50000000  1
  Pb  Pb1_2  1  0.25000000  0.75000000  0.00000000  1
  Pb  Pb1_3  1  0.25000000  0.75000000  0.50000000  1
  Pb  Pb1_4  1  0.75000000  0.25000000  0.00000000  1
  Pb  Pb1_5  1  0.75000000  0.25000000  0.50000000  1
  Pb  Pb1_6  1  0.75000000  0.75000000  0.00000000  1
  Pb  Pb1_7  1  0.75000000  0.75000000  0.50000000  1
loop_
_geom_bond_atom_site_label_1
_geom_bond_atom_site_label_2
_geom_bond_distance
_geom_bond_site_symmetry_2
Pd0_0 Pd3_4 2.763549 1_555
Pd0_0 Y0_1 2.899520 1_554
Pd0_0 Y0_0 2.899520 1_555
Pd0_0 Y1_4 2.984772 1_555
Pd0_0 Y1_5 2.984772 1_554
Pd0_0 Y2_1 2.984772 1_554
Pd0_0 Y2_0 2.984772 1_555
Pd0_1 Pd3_5 2.763549 1_555
Pd0_1 Y0_1 2.899520 1_555
Pd0_1 Y0_0 2.899520 1_555
Pd0_1 Y1_4 2.984772 1_555
Pd0_1 Y1_5 2.984772 1_555
Pd0_1 Y2_0 2.984772 1_555
Pd0_1 Y2_1 2.984772 1_555
Pd0_2 Pd3_6 2.763549 1_555
Pd0_2 Y0_3 2.899520 1_554
Pd0_2 Y0_2 2.899520 1_555
Pd0_2 Y1_6 2.984772 1_555
Pd0_2 Y1_7 2.984772 1_554
Pd0_2 Y2_2 2.984772 1_555
Pd0_2 Y2_3 2.984772 1_554
Pd0_3 Pd3_7 2.763549 1_555
Pd0_3 Y0_3 2.899520 1_555
Pd0_3 Y0_2 2.899520 1_555
Pd0_3 Y1_6 2.984772 1_555
Pd0_3 Y1_7 2.984772 1_555
Pd0_3 Y2_2 2.984772 1_555
Pd0_3 Y2_3 2.984772 1_555
Pd0_4 Pd3_0 2.763549 1_655
Pd0_4 Y0_5 2.899520 1_554
Pd0_4 Y0_4 2.899520 1_555
Pd0_4 Y1_0 2.984772 1_655
Pd0_4 Y1_1 2.984772 1_654
Pd0_4 Y2_5 2.984772 1_554
Pd0_4 Y2_4 2.984772 1_555
Pd0_5 Pd3_1 2.763549 1_655
Pd0_5 Y0_4 2.899520 1_555
Pd0_5 Y0_5 2.899520 1_555
Pd0_5 Y1_1 2.984772 1_655
Pd0_5 Y1_0 2.984772 1_655
Pd0_5 Y2_4 2.984772 1_555
Pd0_5 Y2_5 2.984772 1_555
Pd0_6 Pd3_2 2.763549 1_655
Pd0_6 Y0_7 2.899520 1_554
Pd0_6 Y0_6 2.899520 1_555
Pd0_6 Y1_2 2.984772 1_655
Pd0_6 Y1_3 2.984772 1_654
Pd0_6 Y2_7 2.984772 1_554
Pd0_6 Y2_6 2.984772 1_555
Pd0_7 Pd3_3 2.763549 1_655
Pd0_7 Y0_6 2.899520 1_555
Pd0_7 Y0_7 2.899520 1_555
Pd0_7 Y1_2 2.984772 1_655
Pd0_7 Y1_3 2.984772 1_655
Pd0_7 Y2_6 2.984772 1_555
Pd0_7 Y2_7 2.984772 1_555
Pd1_0 Pd2_2 2.763549 1_545
Pd1_0 Y1_1 2.899520 1_554
Pd1_0 Y1_0 2.899520 1_555
Pd1_0 Y3_3 2.984772 1_544
Pd1_0 Y3_2 2.984772 1_545
Pd1_0 Y0_1 2.984772 1_554
Pd1_0 Y0_0 2.984772 1_555
Pd1_1 Pd2_3 2.763549 1_545
Pd1_1 Y1_0 2.899520 1_555
Pd1_1 Y1_1 2.899520 1_555
Pd1_1 Y3_2 2.984772 1_545
Pd1_1 Y3_3 2.984772 1_545
Pd1_1 Y0_1 2.984772 1_555
Pd1_1 Y0_0 2.984772 1_555
Pd1_2 Pd2_0 2.763549 1_555
Pd1_2 Y1_3 2.899520 1_554
Pd1_2 Y1_2 2.899520 1_555
Pd1_2 Y3_1 2.984772 1_554
Pd1_2 Y3_0 2.984772 1_555
Pd1_2 Y0_3 2.984772 1_554
Pd1_2 Y0_2 2.984772 1_555
Pd1_3 Pd2_1 2.763549 1_555
Pd1_3 Y1_3 2.899520 1_555
Pd1_3 Y1_2 2.899520 1_555
Pd1_3 Y3_0 2.984772 1_555
Pd1_3 Y3_1 2.984772 1_555
Pd1_3 Y0_2 2.984772 1_555
Pd1_3 Y0_3 2.984772 1_555
Pd1_4 Pd2_6 2.763549 1_545
Pd1_4 Y1_4 2.899520 1_555
Pd1_4 Y1_5 2.899520 1_554
Pd1_4 Y3_7 2.984772 1_544
Pd1_4 Y3_6 2.984772 1_545
Pd1_4 Y0_5 2.984772 1_554
Pd1_4 Y0_4 2.984772 1_555
Pd1_5 Pd2_7 2.763549 1_545
Pd1_5 Y1_5 2.899520 1_555
Pd1_5 Y1_4 2.899520 1_555
Pd1_5 Y3_7 2.984772 1_545
Pd1_5 Y3_6 2.984772 1_545
Pd1_5 Y0_4 2.984772 1_555
Pd1_5 Y0_5 2.984772 1_555
Pd1_6 Pd2_4 2.763549 1_555
Pd1_6 Y1_6 2.899520 1_555
Pd1_6 Y1_7 2.899520 1_554
Pd1_6 Y3_4 2.984772 1_555
Pd1_6 Y3_5 2.984772 1_554
Pd1_6 Y0_6 2.984772 1_555
Pd1_6 Y0_7 2.984772 1_554
Pd1_7 Pd2_5 2.763549 1_555
Pd1_7 Y1_7 2.899520 1_555
Pd1_7 Y1_6 2.899520 1_555
Pd1_7 Y3_4 2.984772 1_555
Pd1_7 Y3_5 2.984772 1_555
Pd1_7 Y0_7 2.984772 1_555
Pd1_7 Y0_6 2.984772 1_555
Pd2_0 Y2_1 2.899520 1_554
Pd2_0 Y2_0 2.899520 1_555
Pd2_0 Y3_1 2.984772 1_554
Pd2_0 Y3_0 2.984772 1_555
Pd2_0 Y0_3 2.984772 1_554
Pd2_0 Y0_2 2.984772 1_555
Pd2_1 Y2_0 2.899520 1_555
Pd2_1 Y2_1 2.899520 1_555
Pd2_1 Y3_0 2.984772 1_555
Pd2_1 Y3_1 2.984772 1_555
Pd2_1 Y0_3 2.984772 1_555
Pd2_1 Y0_2 2.984772 1_555
Pd2_2 Y2_3 2.899520 1_554
Pd2_2 Y2_2 2.899520 1_555
Pd2_2 Y3_3 2.984772 1_554
Pd2_2 Y3_2 2.984772 1_555
Pd2_2 Y0_1 2.984772 1_564
Pd2_2 Y0_0 2.984772 1_565
Pd2_3 Y2_2 2.899520 1_555
Pd2_3 Y2_3 2.899520 1_555
Pd2_3 Y3_3 2.984772 1_555
Pd2_3 Y3_2 2.984772 1_555
Pd2_3 Y0_0 2.984772 1_565
Pd2_3 Y0_1 2.984772 1_565
Pd2_4 Y2_5 2.899520 1_554
Pd2_4 Y2_4 2.899520 1_555
Pd2_4 Y3_5 2.984772 1_554
Pd2_4 Y3_4 2.984772 1_555
Pd2_4 Y0_7 2.984772 1_554
Pd2_4 Y0_6 2.984772 1_555
Pd2_5 Y2_5 2.899520 1_555
Pd2_5 Y2_4 2.899520 1_555
Pd2_5 Y3_5 2.984772 1_555
Pd2_5 Y3_4 2.984772 1_555
Pd2_5 Y0_6 2.984772 1_555
Pd2_5 Y0_7 2.984772 1_555
Pd2_6 Y2_7 2.899520 1_554
Pd2_6 Y2_6 2.899520 1_555
Pd2_6 Y3_7 2.984772 1_554
Pd2_6 Y3_6 2.984772 1_555
Pd2_6 Y0_4 2.984772 1_565
Pd2_6 Y0_5 2.984772 1_564
Pd2_7 Y2_7 2.899520 1_555
Pd2_7 Y2_6 2.899520 1_555
Pd2_7 Y3_6 2.984772 1_555
Pd2_7 Y3_7 2.984772 1_555
Pd2_7 Y0_5 2.984772 1_565
Pd2_7 Y0_4 2.984772 1_565
Pd3_0 Y3_1 2.899520 1_554
Pd3_0 Y3_0 2.899520 1_555
Pd3_0 Y2_4 2.984772 1_455
Pd3_0 Y2_5 2.984772 1_454
Pd3_0 Y1_0 2.984772 1_555
Pd3_0 Y1_1 2.984772 1_554
Pd3_1 Y3_0 2.899520 1_555
Pd3_1 Y3_1 2.899520 1_555
Pd3_1 Y2_5 2.984772 1_455
Pd3_1 Y2_4 2.984772 1_455
Pd3_1 Y1_0 2.984772 1_555
Pd3_1 Y1_1 2.984772 1_555
Pd3_2 Y3_3 2.899520 1_554
Pd3_2 Y3_2 2.899520 1_555
Pd3_2 Y2_6 2.984772 1_455
Pd3_2 Y1_3 2.984772 1_554
Pd3_2 Y2_7 2.984772 1_454
Pd3_2 Y1_2 2.984772 1_555
Pd3_3 Y3_3 2.899520 1_555
Pd3_3 Y3_2 2.899520 1_555
Pd3_3 Y1_3 2.984772 1_555
Pd3_3 Y2_6 2.984772 1_455
Pd3_3 Y2_7 2.984772 1_455
Pd3_3 Y1_2 2.984772 1_555
Pd3_4 Y3_4 2.899520 1_555
Pd3_4 Y3_5 2.899520 1_554
Pd3_4 Y2_0 2.984772 1_555
Pd3_4 Y2_1 2.984772 1_554
Pd3_4 Y1_5 2.984772 1_554
Pd3_4 Y1_4 2.984772 1_555
Pd3_5 Y3_4 2.899520 1_555
Pd3_5 Y3_5 2.899520 1_555
Pd3_5 Y2_0 2.984772 1_555
Pd3_5 Y2_1 2.984772 1_555
Pd3_5 Y1_4 2.984772 1_555
Pd3_5 Y1_5 2.984772 1_555
Pd3_6 Y3_6 2.899520 1_555
Pd3_6 Y3_7 2.899520 1_554
Pd3_6 Y1_7 2.984772 1_554
Pd3_6 Y1_6 2.984772 1_555
Pd3_6 Y2_2 2.984772 1_555
Pd3_6 Y2_3 2.984772 1_554
Pd3_7 Y3_7 2.899520 1_555
Pd3_7 Y3_6 2.899520 1_555
Pd3_7 Y1_6 2.984772 1_555
Pd3_7 Y1_7 2.984772 1_555
Pd3_7 Y2_2 2.984772 1_555
Pd3_7 Y2_3 2.984772 1_555
Pb0_0 Pd1_0 3.099701 1_555
Pb0_0 Pd0_4 3.099701 1_455
Pb0_0 Pd3_2 3.099701 1_545
Pb0_0 Pd2_6 3.099701 1_445
Pb0_0 Y3_2 3.430163 1_545
Pb0_0 Y2_6 3.430163 1_445
Pb0_0 Y2_7 3.430163 1_444
Pb0_0 Y3_3 3.430163 1_544
Pb0_0 Y1_1 3.430163 1_554
Pb0_0 Y0_5 3.430163 1_454
Pb0_0 Y1_0 3.430163 1_555
Pb0_0 Y0_4 3.430163 1_455
Pb0_0 Pb0_1 3.659518 1_554
Pb0_0 Pb0_1 3.659518 1_555
Pb0_1 Pd1_1 3.099701 1_555
Pb0_1 Pd0_5 3.099701 1_455
Pb0_1 Pd3_3 3.099701 1_545
Pb0_1 Pd2_7 3.099701 1_445
Pb0_1 Y2_7 3.430163 1_445
Pb0_1 Y3_3 3.430163 1_545
Pb0_1 Y3_2 3.430163 1_545
Pb0_1 Y2_6 3.430163 1_445
Pb0_1 Y0_5 3.430163 1_455
Pb0_1 Y1_0 3.430163 1_555
Pb0_1 Y1_1 3.430163 1_555
Pb0_1 Y0_4 3.430163 1_455
Pb0_2 Pd1_2 3.099701 1_555
Pb0_2 Pd0_6 3.099701 1_455
Pb0_2 Pd3_0 3.099701 1_555
Pb0_2 Pd2_4 3.099701 1_455
Pb0_2 Y3_0 3.430163 1_555
Pb0_2 Y2_4 3.430163 1_455
Pb0_2 Y2_5 3.430163 1_454
Pb0_2 Y3_1 3.430163 1_554
Pb0_2 Y0_7 3.430163 1_454
Pb0_2 Y0_6 3.430163 1_455
Pb0_2 Y1_3 3.430163 1_554
Pb0_2 Y1_2 3.430163 1_555
Pb0_2 Pb0_3 3.659518 1_554
Pb0_2 Pb0_3 3.659518 1_555
Pb0_3 Pd1_3 3.099701 1_555
Pb0_3 Pd0_7 3.099701 1_455
Pb0_3 Pd3_1 3.099701 1_555
Pb0_3 Pd2_5 3.099701 1_455
Pb0_3 Y2_5 3.430163 1_455
Pb0_3 Y3_0 3.430163 1_555
Pb0_3 Y2_4 3.430163 1_455
Pb0_3 Y3_1 3.430163 1_555
Pb0_3 Y0_6 3.430163 1_455
Pb0_3 Y0_7 3.430163 1_455
Pb0_3 Y1_2 3.430163 1_555
Pb0_3 Y1_3 3.430163 1_555
Pb0_4 Pd1_4 3.099701 1_555
Pb0_4 Pd0_0 3.099701 1_555
Pb0_4 Pd3_6 3.099701 1_545
Pb0_4 Pd2_2 3.099701 1_545
Pb0_4 Y2_2 3.430163 1_545
Pb0_4 Y2_3 3.430163 1_544
Pb0_4 Y0_0 3.430163 1_555
Pb0_4 Y1_5 3.430163 1_554
Pb0_4 Y1_4 3.430163 1_555
Pb0_4 Y0_1 3.430163 1_554
Pb0_4 Y3_6 3.430163 1_545
Pb0_4 Y3_7 3.430163 1_544
Pb0_4 Pb0_5 3.659518 1_555
Pb0_4 Pb0_5 3.659518 1_554
Pb0_5 Pd1_5 3.099701 1_555
Pb0_5 Pd0_1 3.099701 1_555
Pb0_5 Pd3_7 3.099701 1_545
Pb0_5 Pd2_3 3.099701 1_545
Pb0_5 Y2_2 3.430163 1_545
Pb0_5 Y2_3 3.430163 1_545
Pb0_5 Y0_0 3.430163 1_555
Pb0_5 Y1_5 3.430163 1_555
Pb0_5 Y0_1 3.430163 1_555
Pb0_5 Y1_4 3.430163 1_555
Pb0_5 Y3_6 3.430163 1_545
Pb0_5 Y3_7 3.430163 1_545
Pb0_6 Pd1_6 3.099701 1_555
Pb0_6 Pd0_2 3.099701 1_555
Pb0_6 Pd3_4 3.099701 1_555
Pb0_6 Pd2_0 3.099701 1_555
Pb0_6 Y2_1 3.430163 1_554
Pb0_6 Y2_0 3.430163 1_555
Pb0_6 Y0_3 3.430163 1_554
Pb0_6 Y0_2 3.430163 1_555
Pb0_6 Y3_4 3.430163 1_555
Pb0_6 Y3_5 3.430163 1_554
Pb0_6 Y1_7 3.430163 1_554
Pb0_6 Y1_6 3.430163 1_555
Pb0_6 Pb0_7 3.659518 1_555
Pb0_6 Pb0_7 3.659518 1_554
Pb0_7 Pd1_7 3.099701 1_555
Pb0_7 Pd0_3 3.099701 1_555
Pb0_7 Pd3_5 3.099701 1_555
Pb0_7 Pd2_1 3.099701 1_555
Pb0_7 Y2_1 3.430163 1_555
Pb0_7 Y2_0 3.430163 1_555
Pb0_7 Y0_2 3.430163 1_555
Pb0_7 Y0_3 3.430163 1_555
Pb0_7 Y3_5 3.430163 1_555
Pb0_7 Y3_4 3.430163 1_555
Pb0_7 Y1_7 3.430163 1_555
Pb0_7 Y1_6 3.430163 1_555
Pb1_0 Pd2_0 3.099701 1_555
Pb1_0 Pd0_0 3.099701 1_555
Pb1_0 Pd3_0 3.099701 1_555
Pb1_0 Pd1_0 3.099701 1_555
Pb1_0 Y0_0 3.430163 1_555
Pb1_0 Y1_1 3.430163 1_554
Pb1_0 Y1_0 3.430163 1_555
Pb1_0 Y0_1 3.430163 1_554
Pb1_0 Y2_0 3.430163 1_555
Pb1_0 Y3_1 3.430163 1_554
Pb1_0 Y3_0 3.430163 1_555
Pb1_0 Y2_1 3.430163 1_554
Pb1_0 Pb1_1 3.659518 1_554
Pb1_0 Pb1_1 3.659518 1_555
Pb1_1 Pd2_1 3.099701 1_555
Pb1_1 Pd0_1 3.099701 1_555
Pb1_1 Pd3_1 3.099701 1_555
Pb1_1 Pd1_1 3.099701 1_555
Pb1_1 Y0_0 3.430163 1_555
Pb1_1 Y1_0 3.430163 1_555
Pb1_1 Y0_1 3.430163 1_555
Pb1_1 Y1_1 3.430163 1_555
Pb1_1 Y3_1 3.430163 1_555
Pb1_1 Y2_0 3.430163 1_555
Pb1_1 Y2_1 3.430163 1_555
Pb1_1 Y3_0 3.430163 1_555
Pb1_2 Pd2_2 3.099701 1_555
Pb1_2 Pd0_2 3.099701 1_555
Pb1_2 Pd3_2 3.099701 1_555
Pb1_2 Pd1_2 3.099701 1_555
Pb1_2 Y1_3 3.430163 1_554
Pb1_2 Y1_2 3.430163 1_555
Pb1_2 Y0_2 3.430163 1_555
Pb1_2 Y0_3 3.430163 1_554
Pb1_2 Y2_2 3.430163 1_555
Pb1_2 Y2_3 3.430163 1_554
Pb1_2 Y3_2 3.430163 1_555
Pb1_2 Y3_3 3.430163 1_554
Pb1_2 Pb1_3 3.659518 1_554
Pb1_2 Pb1_3 3.659518 1_555
Pb1_3 Pd2_3 3.099701 1_555
Pb1_3 Pd0_3 3.099701 1_555
Pb1_3 Pd3_3 3.099701 1_555
Pb1_3 Pd1_3 3.099701 1_555
Pb1_3 Y1_3 3.430163 1_555
Pb1_3 Y1_2 3.430163 1_555
Pb1_3 Y0_2 3.430163 1_555
Pb1_3 Y0_3 3.430163 1_555
Pb1_3 Y2_2 3.430163 1_555
Pb1_3 Y2_3 3.430163 1_555
Pb1_3 Y3_3 3.430163 1_555
Pb1_3 Y3_2 3.430163 1_555
Pb1_4 Pd2_4 3.099701 1_555
Pb1_4 Pd0_4 3.099701 1_555
Pb1_4 Pd3_4 3.099701 1_555
Pb1_4 Pd1_4 3.099701 1_555
Pb1_4 Y0_5 3.430163 1_554
Pb1_4 Y0_4 3.430163 1_555
Pb1_4 Y3_5 3.430163 1_554
Pb1_4 Y1_4 3.430163 1_555
Pb1_4 Y1_5 3.430163 1_554
Pb1_4 Y3_4 3.430163 1_555
Pb1_4 Y2_5 3.430163 1_554
Pb1_4 Y2_4 3.430163 1_555
Pb1_4 Pb1_5 3.659518 1_555
Pb1_4 Pb1_5 3.659518 1_554
Pb1_5 Pd2_5 3.099701 1_555
Pb1_5 Pd0_5 3.099701 1_555
Pb1_5 Pd3_5 3.099701 1_555
Pb1_5 Pd1_5 3.099701 1_555
Pb1_5 Y0_4 3.430163 1_555
Pb1_5 Y1_5 3.430163 1_555
Pb1_5 Y3_5 3.430163 1_555
Pb1_5 Y1_4 3.430163 1_555
Pb1_5 Y0_5 3.430163 1_555
Pb1_5 Y3_4 3.430163 1_555
Pb1_5 Y2_5 3.430163 1_555
Pb1_5 Y2_4 3.430163 1_555
Pb1_6 Pd2_6 3.099701 1_555
Pb1_6 Pd0_6 3.099701 1_555
Pb1_6 Pd3_6 3.099701 1_555
Pb1_6 Pd1_6 3.099701 1_555
Pb1_6 Y1_7 3.430163 1_554
Pb1_6 Y1_6 3.430163 1_555
Pb1_6 Y0_7 3.430163 1_554
Pb1_6 Y0_6 3.430163 1_555
Pb1_6 Y3_6 3.430163 1_555
Pb1_6 Y3_7 3.430163 1_554
Pb1_6 Y2_7 3.430163 1_554
Pb1_6 Y2_6 3.430163 1_555
Pb1_6 Pb1_7 3.659518 1_555
Pb1_6 Pb1_7 3.659518 1_554
Pb1_7 Pd2_7 3.099701 1_555
Pb1_7 Pd0_7 3.099701 1_555
Pb1_7 Pd3_7 3.099701 1_555
Pb1_7 Pd1_7 3.099701 1_555
Pb1_7 Y1_6 3.430163 1_555
Pb1_7 Y1_7 3.430163 1_555
Pb1_7 Y0_7 3.430163 1_555
Pb1_7 Y0_6 3.430163 1_555
Pb1_7 Y3_6 3.430163 1_555
Pb1_7 Y3_7 3.430163 1_555
Pb1_7 Y2_6 3.430163 1_555
Pb1_7 Y2_7 3.430163 1_555
