# generated using pymatgen
data_Ga3Ni5Ge2
_symmetry_space_group_name_H-M   'P 1'
_cell_length_a   6.37413871
_cell_length_b   6.37413871
_cell_length_c   11.15499100
_cell_angle_alpha   90.00000000
_cell_angle_beta   90.00000000
_cell_angle_gamma   144.32751200
_symmetry_Int_Tables_number   1
_chemical_formula_structural   Ga3Ni5Ge2
_chemical_formula_sum   'Ga6 Ni10 Ge4'
_cell_volume   264.29772164
_cell_formula_units_Z   2
loop_
 _symmetry_equiv_pos_site_id
 _symmetry_equiv_pos_as_xyz
  1  'x, y, z'
loop_
 _atom_site_type_symbol
 _atom_site_label
 _atom_site_symmetry_multiplicity
 _atom_site_fract_x
 _atom_site_fract_y
 _atom_site_fract_z
 _atom_site_occupancy
  Ga  Ga0  1  0.16872900  0.83127100  0.97678900  1
  Ga  Ga1  1  0.83127100  0.16872900  0.02321100  1
  Ga  Ga2  1  0.83127100  0.16872900  0.47678900  1
  Ga  Ga3  1  0.16872900  0.83127100  0.52321100  1
  Ga  Ga4  1  0.50000000  0.50000000  0.00000000  1
  Ga  Ga5  1  0.50000000  0.50000000  0.50000000  1
  Ni  Ni0  1  0.34074800  0.65925200  0.86807000  1
  Ni  Ni1  1  0.65925200  0.34074800  0.13193000  1
  Ni  Ni2  1  0.65925200  0.34074800  0.36807000  1
  Ni  Ni3  1  0.34074800  0.65925200  0.63193000  1
  Ni  Ni4  1  0.97949500  0.02050500  0.86811800  1
  Ni  Ni5  1  0.02050500  0.97949500  0.13188200  1
  Ni  Ni6  1  0.02050500  0.97949500  0.36811800  1
  Ni  Ni7  1  0.97949500  0.02050500  0.63188200  1
  Ni  Ni8  1  0.16042700  0.83957300  0.75000000  1
  Ni  Ni9  1  0.83957300  0.16042700  0.25000000  1
  Ge  Ge0  1  0.78933900  0.21066100  0.75000000  1
  Ge  Ge1  1  0.21066100  0.78933900  0.25000000  1
  Ge  Ge2  1  0.53740800  0.46259200  0.75000000  1
  Ge  Ge3  1  0.46259200  0.53740800  0.25000000  1
loop_
_geom_bond_atom_site_label_1
_geom_bond_atom_site_label_2
_geom_bond_distance
_geom_bond_site_symmetry_2
Ga0 Ni0 2.414254 1_555
Ga0 Ni5 2.495739 1_556
Ga0 Ni8 2.531835 1_555
Ga0 Ni4 2.596768 1_465
Ga0 Ni1 2.611511 1_566
Ga0 Ni1 2.611511 1_456
Ga0 Ga1 2.823269 1_566
Ga0 Ga1 2.823269 1_456
Ga0 Ga4 2.841052 1_456
Ga0 Ga4 2.841052 1_566
Ga0 Ge1 3.089857 1_556
Ga1 Ni1 2.414254 1_555
Ga1 Ni4 2.495739 1_554
Ga1 Ni9 2.531835 1_555
Ga1 Ni5 2.596768 1_645
Ga1 Ni0 2.611511 1_654
Ga1 Ni0 2.611511 1_544
Ga1 Ga4 2.841052 1_545
Ga1 Ga4 2.841052 1_655
Ga1 Ge0 3.089857 1_554
Ga2 Ni2 2.414254 1_555
Ga2 Ni7 2.495739 1_555
Ga2 Ni9 2.531835 1_555
Ga2 Ni6 2.596768 1_645
Ga2 Ni3 2.611511 1_655
Ga2 Ni3 2.611511 1_545
Ga2 Ga3 2.823269 1_545
Ga2 Ga3 2.823269 1_655
Ga2 Ga5 2.841052 1_545
Ga2 Ga5 2.841052 1_655
Ga2 Ge0 3.089857 1_555
Ga3 Ni3 2.414254 1_555
Ga3 Ni6 2.495739 1_555
Ga3 Ni8 2.531835 1_555
Ga3 Ni7 2.596768 1_465
Ga3 Ni2 2.611511 1_455
Ga3 Ni2 2.611511 1_565
Ga3 Ga5 2.841052 1_565
Ga3 Ga5 2.841052 1_455
Ga3 Ge1 3.089857 1_555
Ga4 Ni0 2.429159 1_554
Ga4 Ni1 2.429159 1_555
Ga4 Ni5 2.457230 1_545
Ga4 Ni5 2.457230 1_655
Ga4 Ni4 2.457230 1_564
Ga4 Ni4 2.457230 1_454
Ga4 Ge3 2.825456 1_555
Ga4 Ge2 2.825456 1_554
Ga5 Ni2 2.429159 1_555
Ga5 Ni3 2.429159 1_555
Ga5 Ni7 2.457230 1_455
Ga5 Ni7 2.457230 1_565
Ga5 Ni6 2.457230 1_655
Ga5 Ni6 2.457230 1_545
Ga5 Ge3 2.825456 1_555
Ga5 Ge2 2.825456 1_555
Ni0 Ni8 2.554075 1_555
Ni0 Ni4 2.578155 1_455
Ni0 Ni4 2.578155 1_565
Ni0 Ni3 2.634140 1_555
Ni1 Ni9 2.554075 1_555
Ni1 Ni5 2.578155 1_655
Ni1 Ni5 2.578155 1_545
Ni1 Ni2 2.634140 1_555
Ni2 Ni9 2.554075 1_555
Ni2 Ni6 2.578155 1_545
Ni2 Ni6 2.578155 1_655
Ni3 Ni8 2.554075 1_555
Ni3 Ni7 2.578155 1_455
Ni3 Ni7 2.578155 1_565
Ni4 Ni8 2.560706 1_645
Ni4 Ni7 2.635210 1_555
Ni5 Ni9 2.560706 1_465
Ni5 Ni6 2.635210 1_555
Ni6 Ni9 2.560706 1_465
Ni7 Ni8 2.560706 1_645
Ge0 Ni3 2.436328 1_545
Ge0 Ni3 2.436328 1_655
Ge0 Ni0 2.436328 1_655
Ge0 Ni0 2.436328 1_545
Ge0 Ni8 2.501839 1_545
Ge0 Ni8 2.501839 1_655
Ge0 Ni4 2.657313 1_555
Ge0 Ni7 2.657313 1_555
Ge0 Ge2 3.057319 1_555
Ge1 Ni1 2.436328 1_455
Ge1 Ni1 2.436328 1_565
Ge1 Ni2 2.436328 1_455
Ge1 Ni2 2.436328 1_565
Ge1 Ni9 2.501839 1_455
Ge1 Ni9 2.501839 1_565
Ge1 Ni6 2.657313 1_555
Ge1 Ni5 2.657313 1_555
Ge1 Ge3 3.057319 1_555
Ge2 Ni8 2.457754 1_655
Ge2 Ni8 2.457754 1_545
Ge2 Ni4 2.458011 1_455
Ge2 Ni4 2.458011 1_565
Ge2 Ni7 2.458011 1_455
Ge2 Ni7 2.458011 1_565
Ge2 Ni3 2.725879 1_555
Ge2 Ni0 2.725879 1_555
Ge3 Ni9 2.457754 1_565
Ge3 Ni9 2.457754 1_455
Ge3 Ni5 2.458011 1_655
Ge3 Ni5 2.458011 1_545
Ge3 Ni6 2.458011 1_545
Ge3 Ni6 2.458011 1_655
Ge3 Ni2 2.725879 1_555
Ge3 Ni1 2.725879 1_555
