# generated using pymatgen
data_BaMgCuO2
_symmetry_space_group_name_H-M   'P 1'
_cell_length_a   9.56808616
_cell_length_b   10.51387582
_cell_length_c   6.69287702
_cell_angle_alpha   90.00000000
_cell_angle_beta   90.00000000
_cell_angle_gamma   90.00000000
_symmetry_Int_Tables_number   1
_chemical_formula_structural   BaMgCuO2
_chemical_formula_sum   'Ba8 Mg8 Cu8 O16'
_cell_volume   673.28783194
_cell_formula_units_Z   8
loop_
 _symmetry_equiv_pos_site_id
 _symmetry_equiv_pos_as_xyz
  1  'x, y, z'
loop_
 _atom_site_type_symbol
 _atom_site_label
 _atom_site_symmetry_multiplicity
 _atom_site_fract_x
 _atom_site_fract_y
 _atom_site_fract_z
 _atom_site_occupancy
  Ba  Ba0_0  1  0.25000000  0.17067394  0.25000000  1
  Ba  Ba0_1  1  0.25000000  0.17067394  0.75000000  1
  Ba  Ba0_2  1  0.25000000  0.67067394  0.25000000  1
  Ba  Ba0_3  1  0.25000000  0.67067394  0.75000000  1
  Ba  Ba0_4  1  0.75000000  0.17067394  0.25000000  1
  Ba  Ba0_5  1  0.75000000  0.17067394  0.75000000  1
  Ba  Ba0_6  1  0.75000000  0.67067394  0.25000000  1
  Ba  Ba0_7  1  0.75000000  0.67067394  0.75000000  1
  Mg  Mg0_0  1  0.00000000  0.38066219  0.25000000  1
  Mg  Mg0_1  1  0.00000000  0.38066219  0.75000000  1
  Mg  Mg0_2  1  0.00000000  0.88066219  0.25000000  1
  Mg  Mg0_3  1  0.00000000  0.88066219  0.75000000  1
  Mg  Mg0_4  1  0.50000000  0.38066219  0.25000000  1
  Mg  Mg0_5  1  0.50000000  0.38066219  0.75000000  1
  Mg  Mg0_6  1  0.50000000  0.88066219  0.25000000  1
  Mg  Mg0_7  1  0.50000000  0.88066219  0.75000000  1
  Cu  Cu0_0  1  0.00000000  0.07191153  0.00000000  1
  Cu  Cu0_1  1  0.00000000  0.07191153  0.50000000  1
  Cu  Cu0_2  1  0.00000000  0.57191153  0.00000000  1
  Cu  Cu0_3  1  0.00000000  0.57191153  0.50000000  1
  Cu  Cu0_4  1  0.50000000  0.07191153  0.00000000  1
  Cu  Cu0_5  1  0.50000000  0.07191153  0.50000000  1
  Cu  Cu0_6  1  0.50000000  0.57191153  0.00000000  1
  Cu  Cu0_7  1  0.50000000  0.57191153  0.50000000  1
  O  O0_0  1  0.00000000  0.26590007  0.00000000  1
  O  O0_1  1  0.00000000  0.26590007  0.50000000  1
  O  O0_2  1  0.00000000  0.76590007  0.00000000  1
  O  O0_3  1  0.00000000  0.76590007  0.50000000  1
  O  O0_4  1  0.50000000  0.26590007  0.00000000  1
  O  O0_5  1  0.50000000  0.26590007  0.50000000  1
  O  O0_6  1  0.50000000  0.76590007  0.00000000  1
  O  O0_7  1  0.50000000  0.76590007  0.50000000  1
  O  O1_0  1  0.25000000  0.49418577  0.00000000  1
  O  O1_1  1  0.25000000  0.49418577  0.50000000  1
  O  O1_2  1  0.25000000  0.99418577  0.00000000  1
  O  O1_3  1  0.25000000  0.99418577  0.50000000  1
  O  O1_4  1  0.75000000  0.49418577  0.00000000  1
  O  O1_5  1  0.75000000  0.49418577  0.50000000  1
  O  O1_6  1  0.75000000  0.99418577  0.00000000  1
  O  O1_7  1  0.75000000  0.99418577  0.50000000  1
loop_
_geom_bond_atom_site_label_1
_geom_bond_atom_site_label_2
_geom_bond_distance
_geom_bond_site_symmetry_2
Ba0_0 O1_3 2.498564 1_545
Ba0_0 O1_2 2.498564 1_545
Ba0_0 O0_0 3.086069 1_555
Ba0_0 O0_1 3.086069 1_555
Ba0_0 O0_5 3.086069 1_555
Ba0_0 O0_4 3.086069 1_555
Ba0_0 Cu0_4 3.098331 1_555
Ba0_0 Cu0_5 3.098331 1_555
Ba0_0 Cu0_1 3.098331 1_555
Ba0_0 Cu0_0 3.098331 1_555
Ba0_0 Mg0_0 3.255166 1_555
Ba0_0 Mg0_4 3.255166 1_555
Ba0_1 O1_3 2.498564 1_545
Ba0_1 O1_2 2.498564 1_546
Ba0_1 O0_4 3.086069 1_556
Ba0_1 O0_1 3.086069 1_555
Ba0_1 O0_5 3.086069 1_555
Ba0_1 O0_0 3.086069 1_556
Ba0_1 Cu0_0 3.098331 1_556
Ba0_1 Cu0_1 3.098331 1_555
Ba0_1 Cu0_5 3.098331 1_555
Ba0_1 Cu0_4 3.098331 1_556
Ba0_1 Mg0_1 3.255166 1_555
Ba0_1 Mg0_5 3.255166 1_555
Ba0_2 O1_1 2.498564 1_555
Ba0_2 O1_0 2.498564 1_555
Ba0_2 O0_2 3.086069 1_555
Ba0_2 O0_3 3.086069 1_555
Ba0_2 O0_7 3.086069 1_555
Ba0_2 O0_6 3.086069 1_555
Ba0_2 Cu0_2 3.098331 1_555
Ba0_2 Cu0_3 3.098331 1_555
Ba0_2 Cu0_7 3.098331 1_555
Ba0_2 Cu0_6 3.098331 1_555
Ba0_2 Mg0_6 3.255166 1_555
Ba0_2 Mg0_2 3.255166 1_555
Ba0_3 O1_0 2.498564 1_556
Ba0_3 O1_1 2.498564 1_555
Ba0_3 O0_2 3.086069 1_556
Ba0_3 O0_6 3.086069 1_556
Ba0_3 O0_3 3.086069 1_555
Ba0_3 O0_7 3.086069 1_555
Ba0_3 Cu0_6 3.098331 1_556
Ba0_3 Cu0_3 3.098331 1_555
Ba0_3 Cu0_7 3.098331 1_555
Ba0_3 Cu0_2 3.098331 1_556
Ba0_3 Mg0_3 3.255166 1_555
Ba0_3 Mg0_7 3.255166 1_555
Ba0_4 O1_6 2.498564 1_545
Ba0_4 O1_7 2.498564 1_545
Ba0_4 O0_1 3.086069 1_655
Ba0_4 O0_0 3.086069 1_655
Ba0_4 O0_4 3.086069 1_555
Ba0_4 O0_5 3.086069 1_555
Ba0_4 Cu0_1 3.098331 1_655
Ba0_4 Cu0_0 3.098331 1_655
Ba0_4 Cu0_5 3.098331 1_555
Ba0_4 Cu0_4 3.098331 1_555
Ba0_4 Mg0_0 3.255166 1_655
Ba0_4 Mg0_4 3.255166 1_555
Ba0_5 O1_6 2.498564 1_546
Ba0_5 O1_7 2.498564 1_545
Ba0_5 O0_1 3.086069 1_655
Ba0_5 O0_4 3.086069 1_556
Ba0_5 O0_0 3.086069 1_656
Ba0_5 O0_5 3.086069 1_555
Ba0_5 Cu0_0 3.098331 1_656
Ba0_5 Cu0_1 3.098331 1_655
Ba0_5 Cu0_5 3.098331 1_555
Ba0_5 Cu0_4 3.098331 1_556
Ba0_5 Mg0_1 3.255166 1_655
Ba0_5 Mg0_5 3.255166 1_555
Ba0_6 O1_4 2.498564 1_555
Ba0_6 O1_5 2.498564 1_555
Ba0_6 O0_6 3.086069 1_555
Ba0_6 O0_7 3.086069 1_555
Ba0_6 O0_3 3.086069 1_655
Ba0_6 O0_2 3.086069 1_655
Ba0_6 Cu0_2 3.098331 1_655
Ba0_6 Cu0_3 3.098331 1_655
Ba0_6 Cu0_6 3.098331 1_555
Ba0_6 Cu0_7 3.098331 1_555
Ba0_6 Mg0_2 3.255166 1_655
Ba0_6 Mg0_6 3.255166 1_555
Ba0_7 O1_4 2.498564 1_556
Ba0_7 O1_5 2.498564 1_555
Ba0_7 O0_6 3.086069 1_556
Ba0_7 O0_2 3.086069 1_656
Ba0_7 O0_7 3.086069 1_555
Ba0_7 O0_3 3.086069 1_655
Ba0_7 Cu0_2 3.098331 1_656
Ba0_7 Cu0_6 3.098331 1_556
Ba0_7 Cu0_3 3.098331 1_655
Ba0_7 Cu0_7 3.098331 1_555
Ba0_7 Mg0_3 3.255166 1_655
Ba0_7 Mg0_7 3.255166 1_555
Mg0_0 O0_0 2.062894 1_555
Mg0_0 O0_1 2.062894 1_555
Mg0_0 O1_5 3.153735 1_455
Mg0_0 O1_0 3.153735 1_555
Mg0_0 O1_4 3.153735 1_455
Mg0_0 O1_1 3.153735 1_555
Mg0_1 O0_1 2.062894 1_555
Mg0_1 O0_0 2.062894 1_556
Mg0_1 O1_5 3.153735 1_455
Mg0_1 O1_0 3.153735 1_556
Mg0_1 O1_1 3.153735 1_555
Mg0_1 O1_4 3.153735 1_456
Mg0_2 O0_2 2.062894 1_555
Mg0_2 O0_3 2.062894 1_555
Mg0_2 O1_2 3.153735 1_555
Mg0_2 O1_6 3.153735 1_455
Mg0_2 O1_3 3.153735 1_555
Mg0_2 O1_7 3.153735 1_455
Mg0_3 O0_2 2.062894 1_556
Mg0_3 O0_3 2.062894 1_555
Mg0_3 O1_2 3.153735 1_556
Mg0_3 O1_6 3.153735 1_456
Mg0_3 O1_3 3.153735 1_555
Mg0_3 O1_7 3.153735 1_455
Mg0_4 O0_5 2.062894 1_555
Mg0_4 O0_4 2.062894 1_555
Mg0_4 O1_0 3.153735 1_555
Mg0_4 O1_1 3.153735 1_555
Mg0_4 O1_4 3.153735 1_555
Mg0_4 O1_5 3.153735 1_555
Mg0_5 O0_4 2.062894 1_556
Mg0_5 O0_5 2.062894 1_555
Mg0_5 O1_0 3.153735 1_556
Mg0_5 O1_1 3.153735 1_555
Mg0_5 O1_4 3.153735 1_556
Mg0_5 O1_5 3.153735 1_555
Mg0_6 O0_6 2.062894 1_555
Mg0_6 O0_7 2.062894 1_555
Mg0_6 O1_2 3.153735 1_555
Mg0_6 O1_3 3.153735 1_555
Mg0_6 O1_6 3.153735 1_555
Mg0_6 O1_7 3.153735 1_555
Mg0_7 O0_6 2.062894 1_556
Mg0_7 O0_7 2.062894 1_555
Mg0_7 O1_2 3.153735 1_556
Mg0_7 O1_3 3.153735 1_555
Mg0_7 O1_6 3.153735 1_556
Mg0_7 O1_7 3.153735 1_555
Cu0_0 O0_0 2.039571 1_555
Cu0_0 O1_6 2.527762 1_445
Cu0_0 O1_2 2.527762 1_545
Cu0_0 Mg0_2 2.615887 1_545
Cu0_0 Mg0_3 2.615887 1_544
Cu0_1 O0_1 2.039571 1_555
Cu0_1 O1_7 2.527762 1_445
Cu0_1 O1_3 2.527762 1_545
Cu0_1 Mg0_2 2.615887 1_545
Cu0_1 Mg0_3 2.615887 1_545
Cu0_2 O0_2 2.039571 1_555
Cu0_2 O1_0 2.527762 1_555
Cu0_2 O1_4 2.527762 1_455
Cu0_2 Mg0_0 2.615887 1_555
Cu0_2 Mg0_1 2.615887 1_554
Cu0_3 O0_3 2.039571 1_555
Cu0_3 O1_1 2.527762 1_555
Cu0_3 O1_5 2.527762 1_455
Cu0_3 Mg0_1 2.615887 1_555
Cu0_3 Mg0_0 2.615887 1_555
Cu0_4 O0_4 2.039571 1_555
Cu0_4 O1_2 2.527762 1_545
Cu0_4 O1_6 2.527762 1_545
Cu0_4 Mg0_6 2.615887 1_545
Cu0_4 Mg0_7 2.615887 1_544
Cu0_5 O0_5 2.039571 1_555
Cu0_5 O1_3 2.527762 1_545
Cu0_5 O1_7 2.527762 1_545
Cu0_5 Mg0_6 2.615887 1_545
Cu0_5 Mg0_7 2.615887 1_545
Cu0_6 O0_6 2.039571 1_555
Cu0_6 O1_0 2.527762 1_555
Cu0_6 O1_4 2.527762 1_555
Cu0_6 Mg0_5 2.615887 1_554
Cu0_6 Mg0_4 2.615887 1_555
Cu0_7 O0_7 2.039571 1_555
Cu0_7 O1_1 2.527762 1_555
Cu0_7 O1_5 2.527762 1_555
Cu0_7 Mg0_5 2.615887 1_555
Cu0_7 Mg0_4 2.615887 1_555
O1_0 O1_1 3.346439 1_555
O1_0 O1_1 3.346439 1_554
O1_2 O1_3 3.346439 1_555
O1_2 O1_3 3.346439 1_554
O1_4 O1_5 3.346439 1_555
O1_4 O1_5 3.346439 1_554
O1_6 O1_7 3.346439 1_554
O1_6 O1_7 3.346439 1_555
