# generated using pymatgen
data_MgV2(OF3)2
_symmetry_space_group_name_H-M   'P 1'
_cell_length_a   4.61095206
_cell_length_b   6.66395713
_cell_length_c   4.60606587
_cell_angle_alpha   69.96739800
_cell_angle_beta   90.01253693
_cell_angle_gamma   69.75565587
_symmetry_Int_Tables_number   1
_chemical_formula_structural   MgV2(OF3)2
_chemical_formula_sum   'Mg1 V2 O2 F6'
_cell_volume   123.61711645
_cell_formula_units_Z   1
loop_
 _symmetry_equiv_pos_site_id
 _symmetry_equiv_pos_as_xyz
  1  'x, y, z'
loop_
 _atom_site_type_symbol
 _atom_site_label
 _atom_site_symmetry_multiplicity
 _atom_site_fract_x
 _atom_site_fract_y
 _atom_site_fract_z
 _atom_site_occupancy
  Mg  Mg0  1  0.75526600  0.99964200  0.74881000  1
  V  V0  1  0.04762900  0.36120600  0.04179300  1
  V  V1  1  0.40962800  0.63743100  0.45683700  1
  O  O0  1  0.16169700  0.60966500  0.72727000  1
  O  O1  1  0.77215000  0.38883400  0.77138900  1
  F  F0  1  0.40707000  0.14155400  0.95634800  1
  F  F1  1  0.34861300  0.38811000  0.33650600  1
  F  F2  1  0.10668600  0.85691700  0.09349500  1
  F  F3  1  0.54958800  0.85693700  0.54257000  1
  F  F4  1  0.73732100  0.61021600  0.16255300  1
  F  F5  1  0.96468900  0.14154700  0.40524300  1
loop_
_geom_bond_atom_site_label_1
_geom_bond_atom_site_label_2
_geom_bond_distance
_geom_bond_site_symmetry_2
Mg0 O1 2.658561 1_565
Mg0 O0 2.661175 1_655
O0 V1 1.697599 1_555
O0 V0 2.019027 1_556
O1 V0 1.696757 1_656
O1 V1 2.018880 1_555
F0 V0 1.939174 1_556
F0 Mg0 1.988742 1_545
F0 F2 2.629244 1_546
F0 F3 2.635933 1_546
F0 O1 2.689517 1_555
F0 F1 2.720812 1_555
F0 F1 2.739185 1_556
F1 V1 2.025124 1_555
F1 V0 2.034459 1_555
F1 F4 2.658779 1_555
F1 F4 2.660225 1_455
F1 O0 2.660288 1_554
F1 Mg0 2.663645 1_545
F1 O0 2.665131 1_555
F1 F5 2.698627 1_555
F1 F5 2.755098 1_455
F2 V1 1.949203 1_555
F2 Mg0 1.987117 1_454
F2 F5 2.663688 1_465
F2 O0 2.690689 1_554
F2 F4 2.698932 1_455
F2 F4 2.755430 1_555
F3 V1 1.939347 1_555
F3 Mg0 1.987173 1_555
F3 F5 2.628352 1_465
F3 O0 2.687928 1_655
F3 F4 2.721163 1_556
F3 F4 2.739294 1_555
F4 V0 2.024794 1_655
F4 V1 2.032972 1_555
F4 O1 2.658566 1_555
F4 O1 2.665649 1_554
F4 Mg0 2.670896 1_554
F5 V0 1.949439 1_655
F5 Mg0 1.984529 1_545
F5 O1 2.690775 1_555
