# generated using pymatgen
data_MgZn2(Ni2S5)2
_symmetry_space_group_name_H-M   'P 1'
_cell_length_a   3.69028152
_cell_length_b   6.42537740
_cell_length_c   13.23631662
_cell_angle_alpha   92.62386659
_cell_angle_beta   89.99856273
_cell_angle_gamma   90.00445154
_symmetry_Int_Tables_number   1
_chemical_formula_structural   MgZn2(Ni2S5)2
_chemical_formula_sum   'Mg1 Zn2 Ni4 S10'
_cell_volume   313.52323139
_cell_formula_units_Z   1
loop_
 _symmetry_equiv_pos_site_id
 _symmetry_equiv_pos_as_xyz
  1  'x, y, z'
loop_
 _atom_site_type_symbol
 _atom_site_label
 _atom_site_symmetry_multiplicity
 _atom_site_fract_x
 _atom_site_fract_y
 _atom_site_fract_z
 _atom_site_occupancy
  Mg  Mg0  1  0.74985395  0.06032563  0.01913445  1
  Zn  Zn0  1  0.74998890  0.88981535  0.31235356  1
  Zn  Zn1  1  0.24975174  0.11286409  0.68861611  1
  Ni  Ni0  1  0.25008464  0.49893557  0.10268082  1
  Ni  Ni1  1  0.75014752  0.50733656  0.89501264  1
  Ni  Ni2  1  0.74992068  0.53705113  0.60757773  1
  Ni  Ni3  1  0.24998511  0.46625516  0.39018983  1
  S  S0  1  0.74992298  0.34707666  0.74486697  1
  S  S1  1  0.24998705  0.65732130  0.25294587  1
  S  S2  1  0.75008358  0.66767726  0.04862709  1
  S  S3  1  0.24984316  0.31983822  0.95083220  1
  S  S4  1  0.75001959  0.63250867  0.44562582  1
  S  S5  1  0.24983270  0.36933028  0.55272275  1
  S  S6  1  0.25007130  0.14984168  0.31555357  1
  S  S7  1  0.74959985  0.84945813  0.68625023  1
  S  S8  1  0.75094766  0.82166862  0.84669643  1
  S  S9  1  0.24995157  0.17519870  0.15031491  1
loop_
_geom_bond_atom_site_label_1
_geom_bond_atom_site_label_2
_geom_bond_distance
_geom_bond_site_symmetry_2
Mg0 S2 2.570537 1_545
Mg0 S9 2.616413 1_555
Mg0 S9 2.616902 1_655
Mg0 S3 2.672012 1_654
Mg0 S3 2.672277 1_554
Mg0 S8 2.690839 1_544
Ni0 S1 2.192329 1_555
Ni0 S9 2.201036 1_555
Ni0 S3 2.269860 1_554
Ni0 S2 2.272142 1_555
Ni0 S2 2.272315 1_455
Ni1 S8 2.146267 1_555
Ni1 S0 2.196050 1_555
Ni1 S2 2.236936 1_556
Ni1 S3 2.340859 1_655
Ni1 S3 2.342452 1_555
Ni2 S7 2.218644 1_555
Ni2 S0 2.235023 1_555
Ni2 S5 2.240649 1_655
Ni2 S5 2.241076 1_555
Ni2 S4 2.256502 1_555
Ni3 S6 2.219340 1_555
Ni3 S1 2.238621 1_555
Ni3 S4 2.238772 1_455
Ni3 S4 2.238876 1_555
Ni3 S5 2.266887 1_555
S0 Zn1 2.473678 1_655
S0 Zn1 2.474474 1_555
S1 Zn0 2.479237 1_555
S1 Zn0 2.479370 1_455
S2 S8 2.892252 1_554
S4 Zn0 2.472290 1_555
S5 Zn1 2.494465 1_555
S6 S9 2.200637 1_555
S6 Zn0 2.488107 1_545
S6 Zn0 2.488367 1_445
S7 S8 2.139346 1_555
S7 Zn1 2.502715 1_565
S7 Zn1 2.503349 1_665
