# generated using pymatgen
data_Na7Al2In2SiP5O24
_symmetry_space_group_name_H-M   'P 1'
_cell_length_a   8.92085076
_cell_length_b   8.91699198
_cell_length_c   22.04012971
_cell_angle_alpha   90.06675395
_cell_angle_beta   89.74904001
_cell_angle_gamma   119.93392453
_symmetry_Int_Tables_number   1
_chemical_formula_structural   Na7Al2In2SiP5O24
_chemical_formula_sum   'Na21 Al6 In6 Si3 P15 O72'
_cell_volume   1519.33568314
_cell_formula_units_Z   3
loop_
 _symmetry_equiv_pos_site_id
 _symmetry_equiv_pos_as_xyz
  1  'x, y, z'
loop_
 _atom_site_type_symbol
 _atom_site_label
 _atom_site_symmetry_multiplicity
 _atom_site_fract_x
 _atom_site_fract_y
 _atom_site_fract_z
 _atom_site_occupancy
  Na  Na0  1  0.36938838  0.37079967  0.25205662  1
  Na  Na1  1  0.99799511  0.62914426  0.24938063  1
  Na  Na2  1  0.63871673  0.64419112  0.75056908  1
  Na  Na3  1  0.99388116  0.35624804  0.75383464  1
  Na  Na4  1  0.36598909  0.99953832  0.74985562  1
  Na  Na5  1  0.30412402  0.32684362  0.57950899  1
  Na  Na6  1  0.03156122  0.69765205  0.58074343  1
  Na  Na7  1  0.66152673  0.96980813  0.58458076  1
  Na  Na8  1  0.30483266  0.97158982  0.08364705  1
  Na  Na9  1  0.67239698  0.69396997  0.08262769  1
  Na  Na10  1  0.02740966  0.33920608  0.08480953  1
  Na  Na11  1  0.96014877  0.66458571  0.91924821  1
  Na  Na12  1  0.70648136  0.03791821  0.91464573  1
  Na  Na13  1  0.96442911  0.29621855  0.41405143  1
  Na  Na14  1  0.33497198  0.03674362  0.41707985  1
  Na  Na15  1  0.99366261  0.98901689  0.49751892  1
  Na  Na16  1  0.00963539  0.00613328  0.00211494  1
  Na  Na17  1  0.65630879  0.32916825  0.83386562  1
  Na  Na18  1  0.66667806  0.33316665  0.33243506  1
  Na  Na19  1  0.33943562  0.67718648  0.16790965  1
  Na  Na20  1  0.33910462  0.67491884  0.66632477  1
  Al  Al0  1  0.99239109  0.99335619  0.35151928  1
  Al  Al1  1  0.99636493  0.99438571  0.15159607  1
  Al  Al2  1  0.32960600  0.66515337  0.01835743  1
  Al  Al3  1  0.33769647  0.67172776  0.51422885  1
  Al  Al4  1  0.34109636  0.67352996  0.31463020  1
  Al  Al5  1  0.33705517  0.66853810  0.81647424  1
  In  In0  1  0.00576187  0.00695402  0.85435204  1
  In  In1  1  0.99932989  -0.00002101  0.65321400  1
  In  In2  1  0.66422786  0.32695784  0.67950779  1
  In  In3  1  0.66959692  0.32811035  0.18486730  1
  In  In4  1  0.66241725  0.33659471  0.98358363  1
  In  In5  1  0.66309116  0.33742071  0.47781429  1
  Si  Si0  1  0.69171117  0.99389793  0.75355809  1
  Si  Si1  1  0.36285326  0.02286388  0.57930424  1
  Si  Si2  1  0.97516961  0.64237921  0.08407834  1
  P  P0  1  0.28168928  0.99394279  0.25311255  1
  P  P1  1  0.70958804  0.72096035  0.25209913  1
  P  P2  1  0.00401244  0.28471348  0.25291834  1
  P  P3  1  0.30166276  0.30860877  0.75171761  1
  P  P4  1  0.00602926  0.69804621  0.75329522  1
  P  P5  1  0.97505099  0.34208264  0.57893754  1
  P  P6  1  0.66038738  0.63299629  0.58093756  1
  P  P7  1  0.66681301  0.02702948  0.08224140  1
  P  P8  1  0.35933034  0.33182376  0.08564839  1
  P  P9  1  0.61037902  0.66181047  0.91726990  1
  P  P10  1  0.05519969  0.38619454  0.91792219  1
  P  P11  1  0.33460938  0.94842727  0.91748147  1
  P  P12  1  0.62460135  0.94500668  0.41380967  1
  P  P13  1  0.32788965  0.38114522  0.41283990  1
  P  P14  1  0.05235726  0.67365625  0.41274626  1
  O  O0  1  0.19337172  0.02175570  0.30967615  1
  O  O1  1  0.83162492  0.81047510  0.30597588  1
  O  O2  1  0.98578302  0.17654579  0.31019067  1
  O  O3  1  0.22236061  0.17798510  0.80386173  1
  O  O4  1  0.96830774  0.77811488  0.80938212  1
  O  O5  1  0.81930524  0.04001310  0.81186898  1
  O  O6  1  0.76853792  0.95089355  0.69214561  1
  O  O7  1  0.19440930  0.23920564  0.69236352  1
  O  O8  1  0.04796175  0.81189642  0.69547886  1
  O  O9  1  0.79303639  0.82235666  0.19249173  1
  O  O10  1  0.02546119  0.19598877  0.19524142  1
  O  O11  1  0.17062778  0.96862052  0.19537657  1
  O  O12  1  0.90448294  0.38460830  0.63745144  1
  O  O13  1  0.48063246  0.09663739  0.64085993  1
  O  O14  1  0.62553184  0.52689149  0.64065663  1
  O  O15  1  0.89792034  0.51066684  0.14271700  1
  O  O16  1  0.61041786  0.10132923  0.13558722  1
  O  O17  1  0.47773690  0.37783316  0.14236513  1
  O  O18  1  0.43327286  0.27676001  0.03168189  1
  O  O19  1  0.84557488  0.56676881  0.02489918  1
  O  O20  1  0.71226150  0.14398196  0.02482936  1
  O  O21  1  0.44214215  0.15241619  0.52111879  1
  O  O22  1  0.70904040  0.55207958  0.52855018  1
  O  O23  1  0.85565466  0.30426493  0.52381777  1
  O  O24  1  0.51960451  0.67875983  0.97457863  1
  O  O25  1  0.15520374  0.47758604  0.97574727  1
  O  O26  1  0.31867464  0.84230462  0.97501540  1
  O  O27  1  0.54151928  0.84382420  0.47353063  1
  O  O28  1  0.30629016  0.46900300  0.47090988  1
  O  O29  1  0.16289592  0.69891635  0.47072003  1
  O  O30  1  0.14158882  0.64632336  0.35646077  1
  O  O31  1  0.50189154  0.85543438  0.36021978  1
  O  O32  1  0.34619065  0.49032045  0.35600511  1
  O  O33  1  0.14416123  0.49305152  0.86001565  1
  O  O34  1  0.35054716  0.85907913  0.85934082  1
  O  O35  1  0.51150141  0.65301629  0.85886526  1
  O  O36  1  0.03429659  0.83894369  0.40787200  1
  O  O37  1  0.81129233  0.97203640  0.40786102  1
  O  O38  1  0.16172449  0.19474817  0.41047048  1
  O  O39  1  0.02990983  0.20096903  0.91898662  1
  O  O40  1  0.16689029  0.96132491  0.91699925  1
  O  O41  1  0.79591259  0.82778576  0.91828821  1
  O  O42  1  0.98953571  0.17758235  0.58555849  1
  O  O43  1  0.17070679  0.00331239  0.58585846  1
  O  O44  1  0.81811897  0.81698600  0.58543657  1
  O  O45  1  0.99252645  0.83393804  0.09476074  1
  O  O46  1  0.83270977  0.01644468  0.09434037  1
  O  O47  1  0.17595626  0.17303621  0.09577382  1
  O  O48  1  0.67569535  0.16864078  0.74913226  1
  O  O49  1  0.48664641  0.33774774  0.74617149  1
  O  O50  1  0.84114088  0.52003105  0.74614574  1
  O  O51  1  0.68962879  0.53475746  0.24952196  1
  O  O52  1  0.84416759  0.31135494  0.25140297  1
  O  O53  1  0.46166279  0.16240862  0.24895144  1
  O  O54  1  0.63605648  0.50175086  0.91665868  1
  O  O55  1  0.86986327  0.36732028  0.91747962  1
  O  O56  1  0.50150517  0.12914438  0.91867684  1
  O  O57  1  0.64550350  0.13153103  0.41565465  1
  O  O58  1  0.48736132  0.35439422  0.41336090  1
  O  O59  1  0.87255648  0.50532429  0.41591706  1
  O  O60  1  0.34581335  0.49640525  0.07393714  1
  O  O61  1  0.16788197  0.66208617  0.07434836  1
  O  O62  1  0.50939054  0.84255523  0.07297119  1
  O  O63  1  0.34792965  0.83289361  0.57083668  1
  O  O64  1  0.49202819  0.64083510  0.57127516  1
  O  O65  1  0.15692667  0.50297540  0.57009432  1
  O  O66  1  0.29954583  0.82841262  0.25821700  1
  O  O67  1  0.52275077  0.69407991  0.25829937  1
  O  O68  1  0.17047865  0.47132034  0.25559155  1
  O  O69  1  0.31070248  0.48500282  0.76165559  1
  O  O70  1  0.16636843  0.67560122  0.76111453  1
  O  O71  1  0.49997701  0.82023629  0.76017736  1
loop_
_geom_bond_atom_site_label_1
_geom_bond_atom_site_label_2
_geom_bond_distance
_geom_bond_site_symmetry_2
Na0 O68 2.354593 1_555
Na0 O53 2.379296 1_555
Na0 O51 2.476376 1_555
Na0 O67 2.503061 1_555
Na0 O32 2.576394 1_555
Na0 O17 2.588903 1_555
Na0 O10 2.944036 1_555
Na0 O0 2.979905 1_555
Na1 O66 2.380163 1_655
Na1 O51 2.442346 1_555
Na1 O52 2.456420 1_555
Na1 O15 2.551682 1_555
Na1 O68 2.555440 1_655
Na1 O30 2.657830 1_655
Na1 O11 2.879513 1_655
Na1 O1 2.957564 1_555
Na2 O49 2.370140 1_555
Na2 O71 2.444766 1_555
Na2 O69 2.546819 1_555
Na2 O50 2.547473 1_555
Na2 O14 2.617271 1_555
Na2 O35 2.656349 1_555
Na2 O6 2.704249 1_555
Na2 O4 2.876962 1_555
Na3 O50 2.450885 1_555
Na3 O69 2.470081 1_655
Na3 O48 2.475783 1_555
Na3 O70 2.476028 1_655
Na3 O33 2.674101 1_655
Na3 O12 2.738690 1_555
Na3 O5 2.760661 1_555
Na3 O7 2.821993 1_655
Na4 O48 2.397753 1_565
Na4 O71 2.438690 1_555
Na4 O70 2.537846 1_555
Na4 O13 2.581889 1_565
Na4 O49 2.649612 1_565
Na4 O34 2.691190 1_555
Na4 O8 2.751823 1_555
Na4 O3 2.758154 1_565
Na5 O42 2.436080 1_455
Na5 O64 2.448796 1_555
Na5 O65 2.509065 1_555
Na5 O43 2.516279 1_555
Na5 O7 2.641082 1_555
Na5 O28 2.705275 1_555
Na5 O21 2.735683 1_555
Na5 O14 2.853625 1_555
Na6 O43 2.367761 1_565
Na6 O63 2.462869 1_555
Na6 O65 2.500712 1_555
Na6 O44 2.605506 1_455
Na6 O29 2.686092 1_555
Na6 O8 2.702300 1_555
Na6 O12 2.734377 1_455
Na6 O22 2.754007 1_455
Na7 O44 2.389327 1_555
Na7 O63 2.450821 1_555
Na7 O64 2.559813 1_555
Na7 O42 2.566169 1_565
Na7 O6 2.596466 1_555
Na7 O27 2.686068 1_555
Na7 O13 2.687436 1_565
Na7 O23 2.919166 1_565
Na8 O61 2.405657 1_555
Na8 O45 2.431146 1_455
Na8 O47 2.584016 1_565
Na8 O62 2.607741 1_555
Na8 O18 2.629371 1_565
Na8 O16 2.637647 1_565
Na8 O26 2.685104 1_554
Na8 O11 2.727783 1_555
Na9 O62 2.416918 1_555
Na9 O45 2.496736 1_555
Na9 O46 2.505557 1_565
Na9 O60 2.551470 1_555
Na9 O19 2.649585 1_555
Na9 O9 2.668121 1_555
Na9 O24 2.718565 1_554
Na9 O17 2.792646 1_555
Na10 O47 2.444023 1_555
Na10 O60 2.472161 1_555
Na10 O61 2.512197 1_555
Na10 O46 2.520609 1_455
Na10 O15 2.654433 1_455
Na10 O25 2.679413 1_554
Na10 O10 2.745897 1_555
Na10 O20 2.797288 1_455
Na11 O40 2.352560 1_655
Na11 O55 2.354965 1_555
Na11 O54 2.506417 1_555
Na11 O19 2.514324 1_556
Na11 O41 2.528442 1_555
Na11 O4 2.612325 1_555
Na11 O33 3.036608 1_655
Na11 O26 3.036951 1_655
Na12 O56 2.344389 1_555
Na12 O41 2.376274 1_545
Na12 O5 2.471015 1_555
Na12 O39 2.502656 1_655
Na12 O55 2.546299 1_555
Na12 O20 2.596467 1_556
Na12 O34 3.014452 1_545
Na12 O24 3.072940 1_545
Na13 O38 2.347467 1_655
Na13 O59 2.382179 1_555
Na13 O57 2.466139 1_555
Na13 O37 2.510127 1_545
Na13 O2 2.570681 1_555
Na13 O23 2.616888 1_555
Na13 O28 2.929934 1_655
Na13 O30 2.987080 1_655
Na14 O36 2.372587 1_545
Na14 O58 2.456511 1_555
Na14 O57 2.460075 1_555
Na14 O21 2.503090 1_555
Na14 O38 2.563303 1_555
Na14 O0 2.659716 1_555
Na14 O29 2.864627 1_545
Na14 O31 2.963646 1_545
Na15 O43 2.475279 1_665
Na15 O44 2.478538 1_555
Na15 O36 2.509535 1_655
Na15 O37 2.521151 1_555
Na15 O38 2.555807 1_665
Na15 O42 2.578236 1_565
Na16 O39 2.469578 1_554
Na16 O40 2.486252 1_544
Na16 O45 2.514179 1_445
Na16 O47 2.548222 1_555
Na16 O41 2.564300 1_444
Na16 O46 2.597609 1_455
Na17 O48 2.409267 1_555
Na17 O54 2.449232 1_555
Na17 O56 2.471723 1_555
Na17 O49 2.484722 1_555
Na17 O55 2.554157 1_555
Na17 O50 2.555830 1_555
Na18 O52 2.452805 1_555
Na18 O58 2.460168 1_555
Na18 O51 2.499950 1_555
Na18 O53 2.508518 1_555
Na18 O57 2.509642 1_555
Na18 O59 2.514838 1_555
Na19 O66 2.524502 1_555
Na19 O61 2.536509 1_555
Na19 O67 2.539260 1_555
Na19 O68 2.568590 1_555
Na19 O62 2.568979 1_555
Na19 O60 2.640892 1_555
Na19 O16 3.394421 1_565
Na20 O71 2.486221 1_555
Na20 O63 2.512870 1_555
Na20 O70 2.592367 1_555
Na20 O64 2.594096 1_555
Na20 O69 2.630991 1_555
Na20 O65 2.650691 1_555
Al0 O1 1.843493 1_555
Al0 O2 1.897776 1_565
Al0 O0 1.913667 1_665
Al0 O37 1.965867 1_555
Al0 O36 2.024836 1_655
Al0 O38 2.121186 1_665
Al1 O45 1.888005 1_555
Al1 O9 1.915111 1_555
Al1 O10 1.938271 1_665
Al1 O11 1.941821 1_655
Al1 O47 2.014545 1_665
Al1 O46 2.016405 1_565
Al2 O25 1.874058 1_554
Al2 O61 1.884185 1_555
Al2 O26 1.890878 1_554
Al2 O24 1.897181 1_554
Al2 O62 2.000998 1_555
Al2 O60 2.002164 1_555
Al3 O63 1.869796 1_555
Al3 O27 1.915689 1_555
Al3 O28 1.936669 1_555
Al3 O29 1.949594 1_555
Al3 O65 1.986473 1_555
Al3 O64 1.986624 1_555
Al4 O31 1.839837 1_555
Al4 O32 1.892214 1_555
Al4 O30 1.905699 1_555
Al4 O67 1.971701 1_555
Al4 O66 2.027231 1_555
Al4 O68 2.129306 1_555
Al5 O71 1.872899 1_555
Al5 O35 1.881984 1_555
Al5 O34 1.893951 1_555
Al5 O33 1.905880 1_555
Al5 O69 1.951243 1_555
Al5 O70 1.980754 1_555
In0 O5 2.057668 1_455
In0 O3 2.083740 1_555
In0 O4 2.139072 1_445
In0 O39 2.166512 1_555
In0 O40 2.177273 1_545
In0 O41 2.244990 1_445
In1 O6 2.062231 1_545
In1 O43 2.115864 1_655
In1 O8 2.145238 1_645
In1 O7 2.151165 1_655
In1 O42 2.209961 1_555
In1 O44 2.211401 1_545
In2 O13 2.068128 1_555
In2 O48 2.123379 1_555
In2 O12 2.145046 1_555
In2 O14 2.156648 1_555
In2 O49 2.192953 1_555
In2 O50 2.216895 1_555
In3 O15 2.083160 1_555
In3 O16 2.117116 1_555
In3 O17 2.185377 1_555
In3 O52 2.202449 1_555
In3 O53 2.205799 1_555
In3 O51 2.263950 1_555
In4 O19 2.091245 1_556
In4 O18 2.116820 1_556
In4 O20 2.177926 1_556
In4 O54 2.180273 1_555
In4 O56 2.211491 1_555
In4 O55 2.256932 1_555
In5 O21 2.063862 1_555
In5 O22 2.073225 1_555
In5 O23 2.142243 1_555
In5 O58 2.180657 1_555
In5 O59 2.187405 1_555
In5 O57 2.231742 1_555
O0 P0 1.556313 1_545
O1 P1 1.540859 1_555
O2 P2 1.547462 1_655
O3 P3 1.533495 1_555
O4 P4 1.544399 1_655
O5 Si0 1.631211 1_545
O6 Si0 1.643712 1_555
O7 P3 1.558171 1_555
O8 P4 1.553767 1_555
O9 P1 1.555662 1_555
O10 P2 1.557277 1_555
O11 P0 1.561724 1_555
O12 P5 1.559902 1_555
O13 Si1 1.642537 1_555
O14 P6 1.558844 1_555
O15 Si2 1.646994 1_555
O16 P7 1.549221 1_555
O17 P8 1.557097 1_555
O18 P8 1.551108 1_555
O19 Si2 1.650947 1_555
O20 P7 1.558754 1_555
O21 Si1 1.630781 1_555
O22 P6 1.532434 1_555
O23 P5 1.541416 1_555
O24 P9 1.544906 1_555
O25 P10 1.538263 1_555
O26 P11 1.546161 1_555
O27 P12 1.556518 1_555
O28 P13 1.560484 1_555
O29 P14 1.563479 1_555
O30 P14 1.554433 1_555
O31 P12 1.538787 1_555
O32 P13 1.544648 1_555
O33 P10 1.551088 1_555
O34 P11 1.551162 1_555
O35 P9 1.543335 1_555
O36 P14 1.564383 1_555
O37 P12 1.564139 1_555
O38 P13 1.582476 1_555
O39 P10 1.551636 1_555
O40 P11 1.556862 1_555
O41 P9 1.576669 1_555
O42 P5 1.542550 1_555
O43 Si1 1.639842 1_555
O44 P6 1.542195 1_555
O45 Si2 1.653039 1_555
O46 P7 1.553435 1_555
O47 P8 1.554529 1_555
O48 Si0 1.637227 1_545
O49 P3 1.541440 1_555
O50 P4 1.542535 1_655
O51 P1 1.580058 1_555
O52 P2 1.558653 1_655
O53 P0 1.560370 1_545
O54 P9 1.554318 1_555
O55 P10 1.576212 1_655
O56 P11 1.555628 1_545
O57 P12 1.578978 1_545
O58 P13 1.555542 1_555
O59 P14 1.557931 1_655
O60 P8 1.553286 1_555
O61 Si2 1.651585 1_455
O62 P7 1.554370 1_565
O63 Si1 1.642095 1_565
O64 P6 1.553567 1_555
O65 P5 1.550335 1_455
O66 P0 1.565854 1_555
O67 P1 1.566380 1_555
O68 P2 1.584930 1_555
O69 P3 1.549603 1_555
O70 P4 1.550366 1_555
O71 Si0 1.643106 1_555
