# generated using pymatgen
data_InSe
_symmetry_space_group_name_H-M   'P 1'
_cell_length_a   4.10929791
_cell_length_b   5.07299639
_cell_length_c   11.01643218
_cell_angle_alpha   95.80738112
_cell_angle_beta   90.00000000
_cell_angle_gamma   90.00000000
_symmetry_Int_Tables_number   1
_chemical_formula_structural   InSe
_chemical_formula_sum   'In4 Se4'
_cell_volume   228.47488595
_cell_formula_units_Z   4
loop_
 _symmetry_equiv_pos_site_id
 _symmetry_equiv_pos_as_xyz
  1  'x, y, z'
loop_
 _atom_site_type_symbol
 _atom_site_label
 _atom_site_symmetry_multiplicity
 _atom_site_fract_x
 _atom_site_fract_y
 _atom_site_fract_z
 _atom_site_occupancy
  In  In0  1  0.50000000  0.34136189  0.38820325  1
  In  In1  1  0.50000000  0.65863811  0.61179675  1
  In  In2  1  -0.00000000  0.15863811  0.11179675  1
  In  In3  1  0.00000000  0.84136189  0.88820325  1
  Se  Se0  1  0.50000000  0.49197197  0.16092759  1
  Se  Se1  1  0.50000000  0.50802803  0.83907241  1
  Se  Se2  1  -0.00000000  0.00802803  0.33907241  1
  Se  Se3  1  0.00000000  -0.00802803  0.66092759  1
loop_
_geom_bond_atom_site_label_1
_geom_bond_atom_site_label_2
_geom_bond_distance
_geom_bond_site_symmetry_2
In0 Se2 2.681193 1_655
In0 Se2 2.681193 1_555
In0 Se0 2.690677 1_555
In0 In1 2.802797 1_555
In1 Se3 2.681193 1_665
In1 Se3 2.681193 1_565
In1 Se1 2.690677 1_555
In2 Se0 2.681193 1_555
In2 Se0 2.681193 1_455
In2 Se2 2.690677 1_555
In2 In3 2.802797 1_544
In3 Se1 2.681193 1_455
In3 Se1 2.681193 1_555
In3 Se3 2.690677 1_565
Se0 Se1 3.554861 1_554
Se0 Se2 3.726527 1_665
Se0 Se2 3.726527 1_565
Se1 Se3 3.726527 1_555
Se1 Se3 3.726527 1_655
Se2 Se3 3.554861 1_555
