# generated using pymatgen
data_MgMo2H4(Cl2O3)2
_symmetry_space_group_name_H-M   'P 1'
_cell_length_a   8.74142000
_cell_length_b   3.83448903
_cell_length_c   8.46245038
_cell_angle_alpha   90.11604627
_cell_angle_beta   90.00000000
_cell_angle_gamma   90.00000000
_symmetry_Int_Tables_number   1
_chemical_formula_structural   MgMo2H4(Cl2O3)2
_chemical_formula_sum   'Mg1 Mo2 H4 Cl4 O6'
_cell_volume   283.65126916
_cell_formula_units_Z   1
loop_
 _symmetry_equiv_pos_site_id
 _symmetry_equiv_pos_as_xyz
  1  'x, y, z'
loop_
 _atom_site_type_symbol
 _atom_site_label
 _atom_site_symmetry_multiplicity
 _atom_site_fract_x
 _atom_site_fract_y
 _atom_site_fract_z
 _atom_site_occupancy
  Mg  Mg0  1  0.00000000  0.72739700  0.57304500  1
  Mo  Mo0  1  0.50000000  0.77872200  0.78811700  1
  Mo  Mo1  1  0.00000000  0.22069800  0.28278300  1
  H  H0  1  0.58825000  0.89105000  0.45031500  1
  H  H1  1  0.41175000  0.89105000  0.45031500  1
  H  H2  1  0.90967300  0.11770500  0.96356600  1
  H  H3  1  0.09032700  0.11770500  0.96356600  1
  Cl  Cl0  1  0.78473100  0.77531800  0.77152600  1
  Cl  Cl1  1  0.21526900  0.77531800  0.77152600  1
  Cl  Cl2  1  0.72658000  0.19607600  0.26226100  1
  Cl  Cl3  1  0.27342000  0.19607600  0.26226100  1
  O  O0  1  0.50000000  0.78995400  0.50669000  1
  O  O1  1  0.00000000  0.21336700  0.01790000  1
  O  O2  1  0.50000000  0.78382200  0.98842000  1
  O  O3  1  0.00000000  0.22814800  0.51781100  1
  O  O4  1  0.50000000  0.28248900  0.75055300  1
  O  O5  1  0.00000000  0.71510500  0.28816100  1
loop_
_geom_bond_atom_site_label_1
_geom_bond_atom_site_label_2
_geom_bond_distance
_geom_bond_site_symmetry_2
Mg0 O3 1.969681 1_555
Mg0 O3 1.977116 1_565
Mg0 O5 2.411182 1_555
Mo0 O2 1.695127 1_555
Mo0 O4 1.928535 1_555
Mo0 O4 1.958305 1_565
Mo1 O5 1.896252 1_555
Mo1 O5 1.939317 1_545
Mo1 O3 1.989060 1_555
Mo1 O1 2.241679 1_555
H0 O0 0.986775 1_555
H1 O0 0.986775 1_555
H2 O1 0.984241 1_656
H3 O1 0.984241 1_556
Cl0 H2 2.355608 1_565
Cl0 Mo0 2.492943 1_555
Cl0 Mg0 2.528774 1_655
Cl0 O4 3.129884 1_555
Cl0 H2 3.195152 1_555
Cl0 H0 3.246612 1_555
Cl1 H3 2.355608 1_565
Cl1 Mo0 2.492943 1_555
Cl1 Mg0 2.528774 1_555
Cl1 O4 3.129884 1_555
Cl1 H3 3.195152 1_555
Cl1 H1 3.246612 1_555
Cl2 H0 2.317382 1_545
Cl2 Mo1 2.398225 1_655
Cl2 H2 3.006332 1_554
Cl3 H1 2.317382 1_545
Cl3 Mo1 2.398225 1_555
Cl3 H3 3.006332 1_554
