# generated using pymatgen
data_CuTe
_symmetry_space_group_name_H-M   'P 1'
_cell_length_a   6.47777168
_cell_length_b   7.99384266
_cell_length_c   14.62605616
_cell_angle_alpha   90.00000000
_cell_angle_beta   90.00000000
_cell_angle_gamma   90.00000000
_symmetry_Int_Tables_number   1
_chemical_formula_structural   CuTe
_chemical_formula_sum   'Cu16 Te16'
_cell_volume   757.37064649
_cell_formula_units_Z   16
loop_
 _symmetry_equiv_pos_site_id
 _symmetry_equiv_pos_as_xyz
  1  'x, y, z'
loop_
 _atom_site_type_symbol
 _atom_site_label
 _atom_site_symmetry_multiplicity
 _atom_site_fract_x
 _atom_site_fract_y
 _atom_site_fract_z
 _atom_site_occupancy
  Cu  Cu0_0  1  0.12500000  0.37500000  0.23229280  1
  Cu  Cu0_1  1  0.12500000  0.37500000  0.73229280  1
  Cu  Cu0_2  1  0.12500000  0.87500000  0.23229280  1
  Cu  Cu0_3  1  0.12500000  0.87500000  0.73229280  1
  Cu  Cu0_4  1  0.62500000  0.37500000  0.23229280  1
  Cu  Cu0_5  1  0.62500000  0.37500000  0.73229280  1
  Cu  Cu0_6  1  0.62500000  0.87500000  0.23229280  1
  Cu  Cu0_7  1  0.62500000  0.87500000  0.73229280  1
  Cu  Cu1_0  1  0.37500000  0.12500000  0.26770720  1
  Cu  Cu1_1  1  0.37500000  0.12500000  0.76770720  1
  Cu  Cu1_2  1  0.37500000  0.62500000  0.26770720  1
  Cu  Cu1_3  1  0.37500000  0.62500000  0.76770720  1
  Cu  Cu1_4  1  0.87500000  0.12500000  0.26770720  1
  Cu  Cu1_5  1  0.87500000  0.12500000  0.76770720  1
  Cu  Cu1_6  1  0.87500000  0.62500000  0.26770720  1
  Cu  Cu1_7  1  0.87500000  0.62500000  0.76770720  1
  Te  Te0_0  1  0.12500000  0.12500000  0.11911534  1
  Te  Te0_1  1  0.12500000  0.12500000  0.61911534  1
  Te  Te0_2  1  0.12500000  0.62500000  0.11911534  1
  Te  Te0_3  1  0.12500000  0.62500000  0.61911534  1
  Te  Te0_4  1  0.62500000  0.12500000  0.11911534  1
  Te  Te0_5  1  0.62500000  0.12500000  0.61911534  1
  Te  Te0_6  1  0.62500000  0.62500000  0.11911534  1
  Te  Te0_7  1  0.62500000  0.62500000  0.61911534  1
  Te  Te1_0  1  0.37500000  0.37500000  0.38088467  1
  Te  Te1_1  1  0.37500000  0.37500000  0.88088467  1
  Te  Te1_2  1  0.37500000  0.87500000  0.38088467  1
  Te  Te1_3  1  0.37500000  0.87500000  0.88088467  1
  Te  Te1_4  1  0.87500000  0.37500000  0.38088467  1
  Te  Te1_5  1  0.87500000  0.37500000  0.88088467  1
  Te  Te1_6  1  0.87500000  0.87500000  0.38088467  1
  Te  Te1_7  1  0.87500000  0.87500000  0.88088467  1
loop_
_geom_bond_atom_site_label_1
_geom_bond_atom_site_label_2
_geom_bond_distance
_geom_bond_site_symmetry_2
Cu0_0 Te0_2 2.594994 1_555
Cu0_0 Te0_0 2.594994 1_555
Cu0_0 Cu1_2 2.623878 1_555
Cu0_0 Cu1_6 2.623878 1_455
Cu0_0 Cu1_0 2.623878 1_555
Cu0_0 Cu1_4 2.623878 1_455
Cu0_0 Te1_0 2.710329 1_555
Cu0_0 Te1_4 2.710329 1_455
Cu0_0 Cu0_4 3.238886 1_555
Cu0_0 Cu0_4 3.238886 1_455
Cu0_1 Te0_3 2.594994 1_555
Cu0_1 Te0_1 2.594994 1_555
Cu0_1 Cu1_3 2.623878 1_555
Cu0_1 Cu1_7 2.623878 1_455
Cu0_1 Cu1_1 2.623878 1_555
Cu0_1 Cu1_5 2.623878 1_455
Cu0_1 Te1_1 2.710329 1_555
Cu0_1 Te1_5 2.710329 1_455
Cu0_1 Cu0_5 3.238886 1_555
Cu0_1 Cu0_5 3.238886 1_455
Cu0_2 Te0_2 2.594994 1_555
Cu0_2 Te0_0 2.594994 1_565
Cu0_2 Cu1_2 2.623878 1_555
Cu0_2 Cu1_0 2.623878 1_565
Cu0_2 Cu1_6 2.623878 1_455
Cu0_2 Cu1_4 2.623878 1_465
Cu0_2 Te1_2 2.710329 1_555
Cu0_2 Te1_6 2.710329 1_455
Cu0_2 Cu0_6 3.238886 1_555
Cu0_2 Cu0_6 3.238886 1_455
Cu0_3 Te0_3 2.594994 1_555
Cu0_3 Te0_1 2.594994 1_565
Cu0_3 Cu1_3 2.623878 1_555
Cu0_3 Cu1_1 2.623878 1_565
Cu0_3 Cu1_7 2.623878 1_455
Cu0_3 Cu1_5 2.623878 1_465
Cu0_3 Te1_3 2.710329 1_555
Cu0_3 Te1_7 2.710329 1_455
Cu0_3 Cu0_7 3.238886 1_455
Cu0_3 Cu0_7 3.238886 1_555
Cu0_4 Te0_6 2.594994 1_555
Cu0_4 Te0_4 2.594994 1_555
Cu0_4 Cu1_6 2.623878 1_555
Cu0_4 Cu1_2 2.623878 1_555
Cu0_4 Cu1_4 2.623878 1_555
Cu0_4 Cu1_0 2.623878 1_555
Cu0_4 Te1_4 2.710329 1_555
Cu0_4 Te1_0 2.710329 1_555
Cu0_5 Te0_7 2.594994 1_555
Cu0_5 Te0_5 2.594994 1_555
Cu0_5 Cu1_7 2.623878 1_555
Cu0_5 Cu1_3 2.623878 1_555
Cu0_5 Cu1_5 2.623878 1_555
Cu0_5 Cu1_1 2.623878 1_555
Cu0_5 Te1_5 2.710329 1_555
Cu0_5 Te1_1 2.710329 1_555
Cu0_6 Te0_6 2.594994 1_555
Cu0_6 Te0_4 2.594994 1_565
Cu0_6 Cu1_4 2.623878 1_565
Cu0_6 Cu1_6 2.623878 1_555
Cu0_6 Cu1_2 2.623878 1_555
Cu0_6 Cu1_0 2.623878 1_565
Cu0_6 Te1_6 2.710329 1_555
Cu0_6 Te1_2 2.710329 1_555
Cu0_7 Te0_7 2.594994 1_555
Cu0_7 Te0_5 2.594994 1_565
Cu0_7 Cu1_5 2.623878 1_565
Cu0_7 Cu1_7 2.623878 1_555
Cu0_7 Cu1_3 2.623878 1_555
Cu0_7 Cu1_1 2.623878 1_565
Cu0_7 Te1_7 2.710329 1_555
Cu0_7 Te1_3 2.710329 1_555
Cu1_0 Te1_2 2.594994 1_545
Cu1_0 Te1_0 2.594994 1_555
Cu1_0 Te0_0 2.710329 1_555
Cu1_0 Te0_4 2.710329 1_555
Cu1_0 Cu1_4 3.238886 1_555
Cu1_0 Cu1_4 3.238886 1_455
Cu1_1 Te1_3 2.594994 1_545
Cu1_1 Te1_1 2.594994 1_555
Cu1_1 Te0_1 2.710329 1_555
Cu1_1 Te0_5 2.710329 1_555
Cu1_1 Cu1_5 3.238886 1_555
Cu1_1 Cu1_5 3.238886 1_455
Cu1_2 Te1_0 2.594994 1_555
Cu1_2 Te1_2 2.594994 1_555
Cu1_2 Te0_6 2.710329 1_555
Cu1_2 Te0_2 2.710329 1_555
Cu1_2 Cu1_6 3.238886 1_555
Cu1_2 Cu1_6 3.238886 1_455
Cu1_3 Te1_1 2.594994 1_555
Cu1_3 Te1_3 2.594994 1_555
Cu1_3 Te0_3 2.710329 1_555
Cu1_3 Te0_7 2.710329 1_555
Cu1_3 Cu1_7 3.238886 1_555
Cu1_3 Cu1_7 3.238886 1_455
Cu1_4 Te1_6 2.594994 1_545
Cu1_4 Te1_4 2.594994 1_555
Cu1_4 Te0_4 2.710329 1_555
Cu1_4 Te0_0 2.710329 1_655
Cu1_5 Te1_7 2.594994 1_545
Cu1_5 Te1_5 2.594994 1_555
Cu1_5 Te0_5 2.710329 1_555
Cu1_5 Te0_1 2.710329 1_655
Cu1_6 Te1_6 2.594994 1_555
Cu1_6 Te1_4 2.594994 1_555
Cu1_6 Te0_6 2.710329 1_555
Cu1_6 Te0_2 2.710329 1_655
Cu1_7 Te1_5 2.594994 1_555
Cu1_7 Te1_7 2.594994 1_555
Cu1_7 Te0_7 2.710329 1_555
Cu1_7 Te0_3 2.710329 1_655
Te0_0 Te0_4 3.238886 1_455
Te0_0 Te0_4 3.238886 1_555
Te0_1 Te0_5 3.238886 1_555
Te0_1 Te0_5 3.238886 1_455
Te0_2 Te0_6 3.238886 1_455
Te0_2 Te0_6 3.238886 1_555
Te0_3 Te0_7 3.238886 1_455
Te0_3 Te0_7 3.238886 1_555
Te1_0 Te1_4 3.238886 1_555
Te1_0 Te1_4 3.238886 1_455
Te1_1 Te1_5 3.238886 1_555
Te1_1 Te1_5 3.238886 1_455
Te1_2 Te1_6 3.238886 1_555
Te1_2 Te1_6 3.238886 1_455
Te1_3 Te1_7 3.238886 1_555
Te1_3 Te1_7 3.238886 1_455
