# generated using pymatgen
data_Ba2MgNiMoO6
_symmetry_space_group_name_H-M   'P 1'
_cell_length_a   6.38996639
_cell_length_b   7.03503425
_cell_length_c   7.03503357
_cell_angle_alpha   51.76176558
_cell_angle_beta   54.73666577
_cell_angle_gamma   54.73664375
_symmetry_Int_Tables_number   1
_chemical_formula_structural   Ba2MgNiMoO6
_chemical_formula_sum   'Ba2 Mg1 Ni1 Mo1 O6'
_cell_volume   190.51044873
_cell_formula_units_Z   1
loop_
 _symmetry_equiv_pos_site_id
 _symmetry_equiv_pos_as_xyz
  1  'x, y, z'
loop_
 _atom_site_type_symbol
 _atom_site_label
 _atom_site_symmetry_multiplicity
 _atom_site_fract_x
 _atom_site_fract_y
 _atom_site_fract_z
 _atom_site_occupancy
  Ba  Ba0  1  0.70691411  0.79601499  0.79601499  1
  Ba  Ba1  1  0.19758829  0.18096217  0.18096217  1
  Mg  Mg0  1  0.37985785  0.41242065  0.41242065  1
  Ni  Ni0  1  -0.02232600  0.02448477  0.02448477  1
  Mo  Mo0  1  0.59886605  0.55883019  0.55883018  1
  O  O0  1  0.24249843  0.21271217  0.77073978  1
  O  O1  1  0.77144887  0.22603382  0.74735347  1
  O  O2  1  0.72909007  0.23177915  0.23177915  1
  O  O3  1  0.77144887  0.74735247  0.22603382  1
  O  O4  1  0.24249844  0.77073978  0.21271218  1
  O  O5  1  0.24669802  0.71366784  0.71366684  1
loop_
_geom_bond_atom_site_label_1
_geom_bond_atom_site_label_2
_geom_bond_distance
_geom_bond_site_symmetry_2
Ba0 O0 2.711250 1_565
Ba0 O4 2.711251 1_556
Ba0 O5 2.892949 1_655
Ba0 O3 3.071568 1_556
Ba0 O1 3.071572 1_565
Ba0 O2 3.156462 1_565
Ba0 O2 3.156462 1_556
Ba0 Mo0 3.485990 1_555
Ba0 O0 3.545121 1_655
Ba0 O4 3.545122 1_655
Ba1 O0 2.603962 1_554
Ba1 O4 2.603962 1_545
Ba1 O2 2.627629 1_455
Ba1 O5 3.141088 1_545
Ba1 O5 3.141095 1_554
Ba1 O1 3.175152 1_554
Ba1 O3 3.175152 1_545
Ba1 O3 3.380967 1_455
Ba1 O1 3.380973 1_455
Mg0 O4 1.893086 1_555
Mg0 O0 1.893086 1_555
Mg0 O2 1.913087 1_555
Ni0 O4 1.994236 1_545
Ni0 O0 1.994237 1_554
Ni0 O2 2.014853 1_455
Ni0 O1 2.221520 1_454
Ni0 O3 2.221527 1_445
Mo0 O5 1.801415 1_555
Mo0 O3 1.822195 1_555
Mo0 O1 1.822196 1_555
