# generated using pymatgen
data_MgSc2(AgO3)2
_symmetry_space_group_name_H-M   'P 1'
_cell_length_a   6.70137068
_cell_length_b   6.70199083
_cell_length_c   3.21599980
_cell_angle_alpha   89.99576531
_cell_angle_beta   89.99589263
_cell_angle_gamma   73.97448846
_symmetry_Int_Tables_number   1
_chemical_formula_structural   MgSc2(AgO3)2
_chemical_formula_sum   'Mg1 Sc2 Ag2 O6'
_cell_volume   138.82562028
_cell_formula_units_Z   1
loop_
 _symmetry_equiv_pos_site_id
 _symmetry_equiv_pos_as_xyz
  1  'x, y, z'
loop_
 _atom_site_type_symbol
 _atom_site_label
 _atom_site_symmetry_multiplicity
 _atom_site_fract_x
 _atom_site_fract_y
 _atom_site_fract_z
 _atom_site_occupancy
  Mg  Mg0  1  0.19346000  0.80736800  0.00000900  1
  Sc  Sc0  1  0.01657800  0.44920800  0.99997600  1
  Sc  Sc1  1  0.55150000  0.98446300  0.00001100  1
  Ag  Ag0  1  0.51133800  0.48959600  0.49999900  1
  Ag  Ag1  1  0.92808900  0.07279200  0.50000700  1
  O  O0  1  0.18677500  0.56699400  0.49992000  1
  O  O1  1  0.43386000  0.81414600  0.50008000  1
  O  O2  1  0.87206400  0.83043000  0.99997600  1
  O  O3  1  0.17063600  0.12877700  0.00002500  1
  O  O4  1  0.82874900  0.44746300  0.50002100  1
  O  O5  1  0.55335900  0.17222200  0.49997600  1
loop_
_geom_bond_atom_site_label_1
_geom_bond_atom_site_label_2
_geom_bond_distance
_geom_bond_site_symmetry_2
Mg0 O2 2.116345 1_454
Mg0 O3 2.116966 1_565
Mg0 O0 2.285055 1_555
Mg0 O1 2.285250 1_554
Mg0 O0 2.285630 1_554
Mg0 O1 2.285739 1_555
Ag0 O4 2.067030 1_555
Ag0 O5 2.067094 1_555
Ag0 O0 2.092090 1_555
Ag0 O1 2.092182 1_555
Ag1 O2 2.387659 1_545
Ag1 O2 2.387991 1_544
Ag1 O3 2.388397 1_655
Ag1 O3 2.388669 1_656
Ag1 O4 2.413616 1_555
Ag1 O5 2.413766 1_555
Ag1 Mg0 2.676924 1_645
Ag1 Mg0 2.676927 1_646
O0 Sc0 2.237557 1_554
O0 Sc0 2.237615 1_555
O1 Sc1 2.237562 1_556
O1 Sc1 2.237678 1_555
O2 Sc1 2.110948 1_556
O2 Sc0 2.469713 1_655
O3 Sc0 2.110352 1_554
O3 Sc1 2.467139 1_545
O4 Sc0 2.044043 1_655
O4 Sc0 2.044127 1_654
O5 Sc1 2.043987 1_545
O5 Sc1 2.044016 1_546
