# generated using pymatgen
data_MgMn6O7F5
_symmetry_space_group_name_H-M   'P 1'
_cell_length_a   5.21411562
_cell_length_b   7.87012274
_cell_length_c   5.72171951
_cell_angle_alpha   93.92828768
_cell_angle_beta   81.36688915
_cell_angle_gamma   95.88168296
_symmetry_Int_Tables_number   1
_chemical_formula_structural   MgMn6O7F5
_chemical_formula_sum   'Mg1 Mn6 O7 F5'
_cell_volume   230.57546686
_cell_formula_units_Z   1
loop_
 _symmetry_equiv_pos_site_id
 _symmetry_equiv_pos_as_xyz
  1  'x, y, z'
loop_
 _atom_site_type_symbol
 _atom_site_label
 _atom_site_symmetry_multiplicity
 _atom_site_fract_x
 _atom_site_fract_y
 _atom_site_fract_z
 _atom_site_occupancy
  Mg  Mg0  1  0.53484777  0.17878525  0.14881501  1
  Mn  Mn0  1  0.50842293  0.98077093  0.53323075  1
  Mn  Mn1  1  0.63335181  0.61347998  0.25328589  1
  Mn  Mn2  1  0.47373736  0.36434900  0.76048406  1
  Mn  Mn3  1  0.95880677  0.67915483  0.65850425  1
  Mn  Mn4  1  0.03341734  0.30566963  0.41700725  1
  Mn  Mn5  1  0.00654146  0.96381283  0.02942613  1
  O  O0  1  0.75320961  0.47056187  0.53981928  1
  O  O1  1  0.79684209  0.75507953  0.00551786  1
  O  O2  1  0.80991342  0.08681318  0.30067207  1
  O  O3  1  0.69112522  0.77960506  0.50454083  1
  O  O4  1  0.62021958  0.41933337  0.04433571  1
  O  O5  1  0.36093253  0.21547881  0.50280102  1
  O  O6  1  0.17622305  0.88846723  0.71697689  1
  F  F0  1  0.68882615  0.11407033  0.81649783  1
  F  F1  1  0.17562455  0.51892470  0.78587254  1
  F  F2  1  0.33395919  0.94513931  0.19795119  1
  F  F3  1  0.22592490  0.56812608  0.34019250  1
  F  F4  1  0.20418428  0.21071309  0.00359594  1
loop_
_geom_bond_atom_site_label_1
_geom_bond_atom_site_label_2
_geom_bond_distance
_geom_bond_site_symmetry_2
Mg0 O2 2.002235 1_555
Mg0 O4 2.010465 1_555
Mg0 O5 2.104786 1_555
Mn0 O3 1.915078 1_555
Mn0 O6 1.983271 1_555
Mn0 O2 2.047826 1_565
Mn0 O5 2.099809 1_565
Mn1 O4 1.876575 1_555
Mn1 O1 1.907171 1_555
Mn1 O3 1.912744 1_555
Mn1 O0 2.246746 1_555
Mn2 O4 1.901774 1_556
Mn2 O0 1.938790 1_555
Mn2 O5 1.942913 1_555
Mn3 O6 1.940701 1_655
Mn3 O0 2.002622 1_555
Mn3 O3 2.009914 1_555
Mn3 O1 2.109497 1_556
Mn4 O5 2.051557 1_555
Mn4 O0 2.065893 1_455
Mn4 O2 2.105310 1_455
Mn5 O1 1.886496 1_455
Mn5 O6 1.953933 1_554
Mn5 O2 1.979077 1_465
O0 O3 2.511856 1_555
O2 O3 2.729927 1_545
F0 Mg0 2.003053 1_556
F0 Mn0 2.152852 1_545
F0 Mn2 2.426403 1_555
F0 Mn5 2.613781 1_646
F1 Mn3 2.016133 1_455
F1 Mn2 2.052496 1_555
F1 F3 2.575890 1_555
F1 Mn4 2.747809 1_555
F1 F4 2.828722 1_556
F2 Mg0 2.035964 1_565
F2 Mn5 2.104978 1_555
F2 Mn0 2.232537 1_555
F3 Mn1 2.106989 1_555
F3 Mn4 2.243719 1_555
F3 Mn3 2.300071 1_455
F3 O4 2.764162 1_555
F4 Mg0 2.067268 1_555
F4 Mn5 2.107804 1_545
F4 Mn2 2.160448 1_554
F4 Mn4 2.491665 1_555
F4 O2 2.614099 1_455
F4 O5 2.861001 1_554
