# generated using pymatgen
data_Na2PdCl4
_symmetry_space_group_name_H-M   'P 1'
_cell_length_a   9.55973209
_cell_length_b   9.55973209
_cell_length_c   7.40463468
_cell_angle_alpha   90.00000000
_cell_angle_beta   90.00000000
_cell_angle_gamma   90.00000000
_symmetry_Int_Tables_number   1
_chemical_formula_structural   Na2PdCl4
_chemical_formula_sum   'Na8 Pd4 Cl16'
_cell_volume   676.69829083
_cell_formula_units_Z   4
loop_
 _symmetry_equiv_pos_site_id
 _symmetry_equiv_pos_as_xyz
  1  'x, y, z'
loop_
 _atom_site_type_symbol
 _atom_site_label
 _atom_site_symmetry_multiplicity
 _atom_site_fract_x
 _atom_site_fract_y
 _atom_site_fract_z
 _atom_site_occupancy
  Na  Na0  1  0.80555996  0.19444004  0.25000000  1
  Na  Na1  1  0.69444004  0.69444004  0.25000000  1
  Na  Na2  1  0.30555996  0.30555996  0.25000000  1
  Na  Na3  1  0.19444004  0.80555996  0.25000000  1
  Na  Na4  1  0.69444004  0.30555996  0.75000000  1
  Na  Na5  1  0.80555996  0.80555996  0.75000000  1
  Na  Na6  1  0.19444004  0.19444004  0.75000000  1
  Na  Na7  1  0.30555996  0.69444004  0.75000000  1
  Pd  Pd0  1  0.00000000  0.50000000  0.06426543  1
  Pd  Pd1  1  0.00000000  0.50000000  0.56426543  1
  Pd  Pd2  1  0.50000000  -0.00000000  0.93573457  1
  Pd  Pd3  1  0.50000000  -0.00000000  0.43573457  1
  Cl  Cl0  1  0.94522233  0.26346214  0.56873048  1
  Cl  Cl1  1  0.76346214  0.55477767  0.56873048  1
  Cl  Cl2  1  0.23653786  0.44522233  0.56873048  1
  Cl  Cl3  1  0.23653786  0.55477767  0.06873048  1
  Cl  Cl4  1  0.05477767  0.26346214  0.06873048  1
  Cl  Cl5  1  0.76346214  0.44522233  0.06873048  1
  Cl  Cl6  1  0.26346214  0.05477767  0.43126952  1
  Cl  Cl7  1  0.94522233  0.73653786  0.06873048  1
  Cl  Cl8  1  0.44522233  0.76346214  0.43126952  1
  Cl  Cl9  1  0.55477767  0.23653786  0.43126952  1
  Cl  Cl10  1  0.55477767  0.76346214  0.93126952  1
  Cl  Cl11  1  0.73653786  0.94522233  0.43126952  1
  Cl  Cl12  1  0.44522233  0.23653786  0.93126952  1
  Cl  Cl13  1  0.73653786  0.05477767  0.93126952  1
  Cl  Cl14  1  0.26346214  0.94522233  0.93126952  1
  Cl  Cl15  1  0.05477767  0.73653786  0.56873048  1
loop_
_geom_bond_atom_site_label_1
_geom_bond_atom_site_label_2
_geom_bond_distance
_geom_bond_site_symmetry_2
Cl0 Pd1 2.321317 1_655
Cl0 Na4 2.776893 1_555
Cl0 Na0 2.790691 1_555
Cl0 Na6 2.813017 1_655
Cl1 Pd1 2.321317 1_655
Cl1 Na5 2.776893 1_555
Cl1 Na1 2.790691 1_555
Cl1 Na4 2.813017 1_555
Cl2 Pd1 2.321317 1_555
Cl2 Na6 2.776893 1_555
Cl2 Na2 2.790691 1_555
Cl2 Na7 2.813017 1_555
Cl3 Pd0 2.321317 1_555
Cl3 Na3 2.776893 1_555
Cl3 Na7 2.790691 1_554
Cl3 Na2 2.813017 1_555
Cl4 Pd0 2.321317 1_555
Cl4 Na2 2.776893 1_555
Cl4 Na6 2.790691 1_554
Cl4 Na0 2.813017 1_455
Cl5 Pd0 2.321317 1_655
Cl5 Na0 2.776893 1_555
Cl5 Na4 2.790691 1_554
Cl5 Na1 2.813017 1_555
Cl6 Pd3 2.321317 1_555
Cl6 Na2 2.776893 1_555
Cl6 Na6 2.790691 1_555
Cl6 Na3 2.813017 1_545
Cl7 Pd0 2.321317 1_655
Cl7 Na1 2.776893 1_555
Cl7 Na5 2.790691 1_554
Cl7 Na3 2.813017 1_655
Cl8 Pd3 2.321317 1_565
Cl8 Na3 2.776893 1_555
Cl8 Na7 2.790691 1_555
Cl8 Na1 2.813017 1_555
Cl9 Pd3 2.321317 1_555
Cl9 Na0 2.776893 1_555
Cl9 Na4 2.790691 1_555
Cl9 Na2 2.813017 1_555
Cl10 Pd2 2.321317 1_565
Cl10 Na5 2.776893 1_555
Cl10 Na1 2.790691 1_556
Cl10 Na7 2.813017 1_555
Cl11 Pd3 2.321317 1_565
Cl11 Na1 2.776893 1_555
Cl11 Na5 2.790691 1_555
Cl11 Na0 2.813017 1_565
Cl12 Pd2 2.321317 1_555
Cl12 Na6 2.776893 1_555
Cl12 Na2 2.790691 1_556
Cl12 Na4 2.813017 1_555
Cl13 Pd2 2.321317 1_555
Cl13 Na4 2.776893 1_555
Cl13 Na0 2.790691 1_556
Cl13 Na5 2.813017 1_545
Cl14 Pd2 2.321317 1_565
Cl14 Na7 2.776893 1_555
Cl14 Na3 2.790691 1_556
Cl14 Na6 2.813017 1_565
Cl15 Pd1 2.321317 1_555
Cl15 Na7 2.776893 1_555
Cl15 Na3 2.790691 1_555
Cl15 Na5 2.813017 1_455
