# generated using pymatgen
data_Mo8O23
_symmetry_space_group_name_H-M   'P 1'
_cell_length_a   13.69758000
_cell_length_b   4.07751300
_cell_length_c   17.35280771
_cell_angle_alpha   90.00000000
_cell_angle_beta   106.45373125
_cell_angle_gamma   90.00000000
_symmetry_Int_Tables_number   1
_chemical_formula_structural   Mo8O23
_chemical_formula_sum   'Mo16 O46'
_cell_volume   929.50054719
_cell_formula_units_Z   2
loop_
 _symmetry_equiv_pos_site_id
 _symmetry_equiv_pos_as_xyz
  1  'x, y, z'
loop_
 _atom_site_type_symbol
 _atom_site_label
 _atom_site_symmetry_multiplicity
 _atom_site_fract_x
 _atom_site_fract_y
 _atom_site_fract_z
 _atom_site_occupancy
  Mo  Mo0  1  0.05377000  0.58457900  0.59698900  1
  Mo  Mo1  1  0.94623000  0.58457900  0.90301100  1
  Mo  Mo2  1  0.94623000  0.41542100  0.40301100  1
  Mo  Mo3  1  0.05377000  0.41542100  0.09698900  1
  Mo  Mo4  1  0.18501000  0.41966700  0.92041600  1
  Mo  Mo5  1  0.81499000  0.41966700  0.57958400  1
  Mo  Mo6  1  0.81499000  0.58033300  0.07958400  1
  Mo  Mo7  1  0.18501000  0.58033300  0.42041600  1
  Mo  Mo8  1  0.31466700  0.57333700  0.75361400  1
  Mo  Mo9  1  0.68533300  0.57333700  0.74638600  1
  Mo  Mo10  1  0.68533300  0.42666300  0.24638600  1
  Mo  Mo11  1  0.31466700  0.42666300  0.25361400  1
  Mo  Mo12  1  0.43591100  0.42535600  0.58311700  1
  Mo  Mo13  1  0.56408900  0.42535600  0.91688300  1
  Mo  Mo14  1  0.56408900  0.57464400  0.41688300  1
  Mo  Mo15  1  0.43591100  0.57464400  0.08311700  1
  O  O0  1  0.23839200  0.48585400  0.83657700  1
  O  O1  1  0.76160800  0.48585400  0.66342300  1
  O  O2  1  0.76160800  0.51414600  0.16342300  1
  O  O3  1  0.23839200  0.51414600  0.33657700  1
  O  O4  1  0.30003000  0.50369400  0.50432700  1
  O  O5  1  0.69997000  0.50369400  0.99567300  1
  O  O6  1  0.69997000  0.49630600  0.49567300  1
  O  O7  1  0.30003000  0.49630600  0.00432700  1
  O  O8  1  0.36999400  0.50497400  0.66982700  1
  O  O9  1  0.63000600  0.50497400  0.83017300  1
  O  O10  1  0.63000600  0.49502600  0.33017300  1
  O  O11  1  0.36999400  0.49502600  0.16982700  1
  O  O12  1  0.43431100  0.50478200  0.83469400  1
  O  O13  1  0.56568900  0.50478200  0.66530600  1
  O  O14  1  0.56568900  0.49521800  0.16530600  1
  O  O15  1  0.43402900  0.99803600  0.58457400  1
  O  O16  1  0.50000000  0.50000000  0.50000000  1
  O  O17  1  0.50000000  0.50000000  0.00000000  1
  O  O18  1  0.17345300  0.49086100  0.17274900  1
  O  O19  1  0.82654700  0.49086100  0.32725100  1
  O  O20  1  0.82654700  0.50913900  0.82725100  1
  O  O21  1  0.17345300  0.50913900  0.67274900  1
  O  O22  1  0.08884500  0.50158800  0.49553400  1
  O  O23  1  0.91115500  0.50158800  0.00446600  1
  O  O24  1  0.91115500  0.49841200  0.50446600  1
  O  O25  1  0.08884500  0.49841200  0.99553400  1
  O  O26  1  0.04320300  0.48989900  0.34803700  1
  O  O27  1  0.95679700  0.48989900  0.15196300  1
  O  O28  1  0.95679700  0.51010100  0.65196300  1
  O  O29  1  0.04320300  0.51010100  0.84803700  1
  O  O30  1  0.30695700  0.99892300  0.25404300  1
  O  O31  1  0.69304300  0.99892300  0.24595700  1
  O  O32  1  0.69304300  0.00107700  0.74595700  1
  O  O33  1  0.30695700  0.00107700  0.75404300  1
  O  O34  1  0.18005400  0.00791500  0.42302900  1
  O  O35  1  0.81994600  0.00791500  0.07697100  1
  O  O36  1  0.81994600  0.99208500  0.57697100  1
  O  O37  1  0.18005400  0.99208500  0.92302900  1
  O  O38  1  0.05303000  0.98766500  0.09297400  1
  O  O39  1  0.94697000  0.98766500  0.40702600  1
  O  O40  1  0.94697000  0.01233500  0.90702600  1
  O  O41  1  0.05303000  0.01233500  0.59297400  1
  O  O42  1  0.43402900  0.00196400  0.08457400  1
  O  O43  1  0.56597100  0.00196400  0.41542600  1
  O  O44  1  0.56597100  0.99803600  0.91542600  1
  O  O45  1  0.43431100  0.49521800  0.33469400  1
loop_
_geom_bond_atom_site_label_1
_geom_bond_atom_site_label_2
_geom_bond_distance
_geom_bond_site_symmetry_2
Mo0 O41 1.745486 1_565
Mo0 O21 1.813718 1_555
Mo0 O28 1.866662 1_455
Mo0 O22 1.980896 1_555
Mo0 O24 2.177284 1_455
Mo0 O41 2.334309 1_555
Mo1 O40 1.745486 1_565
Mo1 O20 1.813718 1_555
Mo1 O29 1.866662 1_655
Mo1 O23 1.980896 1_556
Mo1 O25 2.177284 1_655
Mo1 O40 2.334309 1_555
Mo2 O39 1.745486 1_545
Mo2 O19 1.813718 1_555
Mo2 O26 1.866662 1_655
Mo2 O24 1.980896 1_555
Mo2 O22 2.177284 1_655
Mo2 O39 2.334309 1_555
Mo3 O38 1.745486 1_545
Mo3 O18 1.813718 1_555
Mo3 O27 1.866662 1_455
Mo3 O25 1.980896 1_554
Mo3 O23 2.177284 1_455
Mo3 O38 2.334309 1_555
Mo4 O37 1.745881 1_545
Mo4 O0 1.823918 1_555
Mo4 O7 1.844043 1_556
Mo4 O29 2.025936 1_555
Mo4 O25 2.123671 1_555
Mo4 O37 2.335842 1_555
Mo5 O36 1.745881 1_545
Mo5 O1 1.823918 1_555
Mo5 O6 1.844043 1_555
Mo5 O28 2.025936 1_555
Mo5 O24 2.123671 1_555
Mo5 O36 2.335842 1_555
Mo6 O35 1.745881 1_565
Mo6 O2 1.823918 1_555
Mo6 O5 1.844043 1_554
Mo6 O27 2.025936 1_555
Mo6 O23 2.123671 1_555
Mo6 O35 2.335842 1_555
Mo7 O34 1.745881 1_565
Mo7 O3 1.823918 1_555
Mo7 O4 1.844043 1_555
Mo7 O26 2.025936 1_555
Mo7 O22 2.123671 1_555
Mo7 O34 2.335842 1_555
Mo8 O33 1.747453 1_565
Mo8 O8 1.841238 1_555
Mo8 O12 1.853991 1_555
Mo8 O0 2.035543 1_555
Mo8 O21 2.059487 1_555
Mo8 O33 2.335893 1_555
Mo9 O32 1.747453 1_565
Mo9 O9 1.841238 1_555
Mo9 O13 1.853991 1_555
Mo9 O1 2.035543 1_555
Mo9 O20 2.059487 1_555
Mo9 O32 2.335893 1_555
Mo10 O31 1.747453 1_545
Mo10 O10 1.841238 1_555
Mo10 O14 1.853991 1_555
Mo10 O2 2.035543 1_555
Mo10 O19 2.059487 1_555
Mo10 O31 2.335893 1_555
Mo11 O30 1.747453 1_545
Mo11 O11 1.841238 1_555
Mo11 O45 1.853991 1_555
Mo11 O3 2.035543 1_555
Mo11 O18 2.059487 1_555
Mo11 O30 2.335893 1_555
Mo12 O15 1.742883 1_545
Mo12 O16 1.913323 1_555
Mo12 O13 1.965396 1_555
Mo12 O8 1.988526 1_555
Mo12 O4 1.998502 1_555
Mo12 O15 2.335468 1_555
Mo13 O44 1.742883 1_545
Mo13 O17 1.913323 1_556
Mo13 O12 1.965396 1_555
Mo13 O9 1.988526 1_555
Mo13 O5 1.998502 1_555
Mo13 O44 2.335468 1_555
Mo14 O43 1.742883 1_565
Mo14 O16 1.913323 1_555
Mo14 O45 1.965396 1_555
Mo14 O10 1.988526 1_555
Mo14 O6 1.998502 1_555
Mo14 O43 2.335468 1_555
Mo15 O42 1.742883 1_565
Mo15 O17 1.913323 1_555
Mo15 O14 1.965396 1_555
Mo15 O11 1.988526 1_555
Mo15 O7 1.998502 1_555
Mo15 O42 2.335468 1_555
O22 O26 2.457162 1_555
O22 O24 2.482313 1_455
O22 O41 2.747605 1_555
O23 O27 2.457162 1_555
O23 O25 2.482313 1_654
O23 O40 2.747605 1_554
O24 O28 2.457162 1_555
O24 O39 2.747605 1_555
O25 O29 2.457162 1_555
O25 O38 2.747605 1_556
