# generated using pymatgen
data_MgAlTl(MoO4)2
_symmetry_space_group_name_H-M   'P 1'
_cell_length_a   5.56454355
_cell_length_b   5.56454357
_cell_length_c   6.99111155
_cell_angle_alpha   90.00000000
_cell_angle_beta   90.00000000
_cell_angle_gamma   119.99999991
_symmetry_Int_Tables_number   1
_chemical_formula_structural   MgAlTl(MoO4)2
_chemical_formula_sum   'Mg1 Al1 Tl1 Mo2 O8'
_cell_volume   187.47180340
_cell_formula_units_Z   1
loop_
 _symmetry_equiv_pos_site_id
 _symmetry_equiv_pos_as_xyz
  1  'x, y, z'
loop_
 _atom_site_type_symbol
 _atom_site_label
 _atom_site_symmetry_multiplicity
 _atom_site_fract_x
 _atom_site_fract_y
 _atom_site_fract_z
 _atom_site_occupancy
  Mg  Mg0  1  0.33333300  0.66666700  0.16958248  1
  Al  Al0  1  0.00000000  0.00000000  0.01462544  1
  Tl  Tl0  1  0.00000000  0.00000000  0.48163769  1
  Mo  Mo0  1  0.66666700  0.33333300  0.30365961  1
  Mo  Mo1  1  0.33333300  0.66666700  0.72571452  1
  O  O0  1  0.84195392  0.15804608  0.15770475  1
  O  O1  1  0.84195392  0.68390785  0.15770475  1
  O  O2  1  0.31609215  0.15804608  0.15770475  1
  O  O3  1  0.66684964  0.83342482  0.83970284  1
  O  O4  1  0.33333300  0.66666700  0.45907818  1
  O  O5  1  0.66666700  0.33333300  0.56181229  1
  O  O6  1  0.16657518  0.83342482  0.83970284  1
  O  O7  1  0.16657518  0.33315036  0.83970284  1
loop_
_geom_bond_atom_site_label_1
_geom_bond_atom_site_label_2
_geom_bond_distance
_geom_bond_site_symmetry_2
Mg0 O4 2.023897 1_555
Mg0 O1 2.784748 1_455
Mg0 O2 2.784748 1_565
Mg0 O0 2.784751 1_565
Mg0 O0 2.784751 1_455
Mg0 O1 2.784753 1_555
Mg0 O2 2.784753 1_555
Mg0 O6 2.811022 1_554
Mg0 O3 2.811025 1_554
Mg0 O7 2.811025 1_554
Al0 O2 1.822330 1_555
Al0 O1 1.822330 1_445
Al0 O0 1.822330 1_455
Al0 O3 2.018169 1_444
Al0 O6 2.018169 1_544
Al0 O7 2.018169 1_554
Mo0 O5 1.804774 1_555
Mo0 O0 1.973666 1_555
Mo0 O2 1.973670 1_555
Mo0 O1 1.973670 1_555
Mo1 O6 1.793942 1_555
Mo1 O3 1.793946 1_555
Mo1 O7 1.793946 1_555
Mo1 O4 1.864084 1_555
O0 Tl0 2.729279 1_655
O1 Tl0 2.729279 1_665
O2 Tl0 2.729279 1_555
O3 Tl0 2.973868 1_665
O4 Tl0 3.216556 1_565
O4 Tl0 3.216561 1_665
O4 Tl0 3.216561 1_555
O5 Tl0 3.261216 1_655
O5 Tl0 3.261221 1_555
O5 Tl0 3.261221 1_665
O6 Tl0 2.973868 1_565
O7 Tl0 2.973868 1_555
