# generated using pymatgen
data_Na6Mg3ZrSi2(SO6)4
_symmetry_space_group_name_H-M   'P 1'
_cell_length_a   9.06684752
_cell_length_b   9.06552373
_cell_length_c   22.55338010
_cell_angle_alpha   89.72154329
_cell_angle_beta   90.17645076
_cell_angle_gamma   120.03113185
_symmetry_Int_Tables_number   1
_chemical_formula_structural   Na6Mg3ZrSi2(SO6)4
_chemical_formula_sum   'Na18 Mg9 Zr3 Si6 S12 O72'
_cell_volume   1604.90712762
_cell_formula_units_Z   3
loop_
 _symmetry_equiv_pos_site_id
 _symmetry_equiv_pos_as_xyz
  1  'x, y, z'
loop_
 _atom_site_type_symbol
 _atom_site_label
 _atom_site_symmetry_multiplicity
 _atom_site_fract_x
 _atom_site_fract_y
 _atom_site_fract_z
 _atom_site_occupancy
  Na  Na0  1  0.63072702  0.99441273  0.25847347  1
  Na  Na1  1  0.36902323  0.36491457  0.24310026  1
  Na  Na2  1  0.64334896  0.64935810  0.73968089  1
  Na  Na3  1  0.31531751  0.34517288  0.58913379  1
  Na  Na4  1  0.02069721  0.69965752  0.58424696  1
  Na  Na5  1  0.66813231  0.94886239  0.58602575  1
  Na  Na6  1  0.29768476  0.97542658  0.07749513  1
  Na  Na7  1  0.05059540  0.33732311  0.07664534  1
  Na  Na8  1  0.98624770  0.67202526  0.91420818  1
  Na  Na9  1  0.70902674  0.03755176  0.90343454  1
  Na  Na10  1  0.30889999  0.28589546  0.91781748  1
  Na  Na11  1  0.69635400  0.68442292  0.42048985  1
  Na  Na12  1  0.98165914  0.99503765  0.49635881  1
  Na  Na13  1  0.01426975  0.01346155  0.99687854  1
  Na  Na14  1  0.67222514  0.30532113  0.82432103  1
  Na  Na15  1  0.67455880  0.32120785  0.33345506  1
  Na  Na16  1  0.33699156  0.65613530  0.16238925  1
  Na  Na17  1  0.35097549  0.67615756  0.66728611  1
  Mg  Mg0  1  0.99593163  0.00404768  0.35225277  1
  Mg  Mg1  1  0.00165333  0.01592985  0.84910405  1
  Mg  Mg2  1  0.98062826  0.98773426  0.65312573  1
  Mg  Mg3  1  0.00556466  0.00160925  0.14890644  1
  Mg  Mg4  1  0.66266507  0.32604925  0.68695033  1
  Mg  Mg5  1  0.66618806  0.34531177  0.18145664  1
  Mg  Mg6  1  0.32897171  0.65573821  0.01654092  1
  Mg  Mg7  1  0.35333478  0.67295811  0.51414176  1
  Mg  Mg8  1  0.33319063  0.67986175  0.32081386  1
  Zr  Zr0  1  0.65539862  0.32430695  0.98242150  1
  Zr  Zr1  1  0.66774716  0.32914159  0.47961217  1
  Zr  Zr2  1  0.32812967  0.67897384  0.81393850  1
  Si  Si0  1  0.70728012  0.00739128  0.74939235  1
  Si  Si1  1  0.66639385  0.62854164  0.58586135  1
  Si  Si2  1  0.36540618  0.33857559  0.08866326  1
  Si  Si3  1  0.03912165  0.36924288  0.91974732  1
  Si  Si4  1  0.32527070  0.95682428  0.92141971  1
  Si  Si5  1  0.63344488  0.96136283  0.41421800  1
  S  S0  1  0.29038421  0.99593336  0.24985911  1
  S  S1  1  0.71002009  0.70602391  0.25037652  1
  S  S2  1  0.00033435  0.29481873  0.24920520  1
  S  S3  1  0.29475724  0.29120314  0.74906748  1
  S  S4  1  0.99646624  0.70777477  0.74914626  1
  S  S5  1  0.96439382  0.33724943  0.58453588  1
  S  S6  1  0.37034526  0.03840707  0.58498025  1
  S  S7  1  0.95954638  0.62936151  0.08612436  1
  S  S8  1  0.66722376  0.03628387  0.08751423  1
  S  S9  1  0.62670584  0.66854236  0.91737650  1
  S  S10  1  0.32739370  0.37130995  0.41523602  1
  S  S11  1  0.04559393  0.66988200  0.41694227  1
  O  O0  1  0.20599070  0.02309157  0.30146962  1
  O  O1  1  0.80811855  0.78528500  0.30503639  1
  O  O2  1  0.97266907  0.18323717  0.30120981  1
  O  O3  1  0.21439418  0.19103187  0.80309170  1
  O  O4  1  0.98099034  0.79034621  0.80303971  1
  O  O5  1  0.80697671  0.01400480  0.81028098  1
  O  O6  1  0.78044454  0.96322829  0.68990580  1
  O  O7  1  0.19403153  0.21037543  0.69471791  1
  O  O8  1  0.02501289  0.81203198  0.69490070  1
  O  O9  1  0.79382326  0.81699409  0.19841946  1
  O  O10  1  0.02657520  0.21737732  0.19495691  1
  O  O11  1  0.19357808  0.97884792  0.19492271  1
  O  O12  1  0.88234309  0.36286293  0.63578392  1
  O  O13  1  0.48304343  0.11626396  0.63563562  1
  O  O14  1  0.63813584  0.50453318  0.64183834  1
  O  O15  1  0.87459545  0.51334534  0.13612388  1
  O  O16  1  0.64465604  0.12247778  0.13933015  1
  O  O17  1  0.47713996  0.35336611  0.14655950  1
  O  O18  1  0.46223289  0.30823337  0.02914110  1
  O  O19  1  0.86085343  0.55093283  0.02998506  1
  O  O20  1  0.69858996  0.14805042  0.03275026  1
  O  O21  1  0.45340006  0.14614164  0.53031206  1
  O  O22  1  0.69097797  0.53218386  0.52547343  1
  O  O23  1  0.85078733  0.30155016  0.53060668  1
  O  O24  1  0.54596613  0.69639837  0.96915896  1
  O  O25  1  0.15227291  0.45094276  0.97830980  1
  O  O26  1  0.30579446  0.84944694  0.98085168  1
  O  O27  1  0.54750301  0.84950742  0.47391493  1
  O  O28  1  0.30426829  0.44731506  0.46961263  1
  O  O29  1  0.13777196  0.68363397  0.47228973  1
  O  O30  1  0.12251924  0.63970149  0.36485159  1
  O  O31  1  0.52341676  0.88341147  0.35380599  1
  O  O32  1  0.35627547  0.47925899  0.36212137  1
  O  O33  1  0.13171740  0.49628395  0.86233601  1
  O  O34  1  0.37189407  0.87329808  0.86421383  1
  O  O35  1  0.52003365  0.63327044  0.86310167  1
  O  O36  1  0.02324264  0.82060850  0.41021032  1
  O  O37  1  0.82162058  0.97609562  0.41033949  1
  O  O38  1  0.18406848  0.19731437  0.40852447  1
  O  O39  1  0.01012354  0.17815536  0.91303483  1
  O  O40  1  0.15845171  0.97493538  0.91008989  1
  O  O41  1  0.79952879  0.81427125  0.91070363  1
  O  O42  1  0.99067185  0.18860066  0.58890742  1
  O  O43  1  0.20356638  0.03131605  0.59019954  1
  O  O44  1  0.84256417  0.81672513  0.58539881  1
  O  O45  1  0.97466041  0.79866143  0.09207756  1
  O  O46  1  0.82163561  0.02171024  0.09218147  1
  O  O47  1  0.17733199  0.15964229  0.08818037  1
  O  O48  1  0.68044185  0.17002877  0.74338130  1
  O  O49  1  0.46982744  0.31893021  0.74543832  1
  O  O50  1  0.84121156  0.53976564  0.74426103  1
  O  O51  1  0.68920330  0.53198890  0.24560819  1
  O  O52  1  0.84267819  0.30850858  0.24319435  1
  O  O53  1  0.46780334  0.15081142  0.24659652  1
  O  O54  1  0.64310790  0.51179664  0.92408180  1
  O  O55  1  0.85019095  0.36011157  0.92391526  1
  O  O56  1  0.49994054  0.15135293  0.92261238  1
  O  O57  1  0.65416825  0.15653243  0.42176754  1
  O  O58  1  0.49212416  0.36401445  0.42098894  1
  O  O59  1  0.86464418  0.51549031  0.42074040  1
  O  O60  1  0.34312941  0.50494794  0.08197882  1
  O  O61  1  0.13276227  0.65087666  0.08173077  1
  O  O62  1  0.51093691  0.87162707  0.07960233  1
  O  O63  1  0.34146200  0.86329537  0.57704036  1
  O  O64  1  0.49202819  0.64301199  0.57998326  1
  O  O65  1  0.13135474  0.49463999  0.57466359  1
  O  O66  1  0.31033646  0.84279683  0.25474894  1
  O  O67  1  0.53306540  0.68334042  0.25374231  1
  O  O68  1  0.15652079  0.46476238  0.25657296  1
  O  O69  1  0.31292369  0.46618831  0.75348172  1
  O  O70  1  0.15026261  0.68510033  0.75241692  1
  O  O71  1  0.51406249  0.81907993  0.75450609  1
loop_
_geom_bond_atom_site_label_1
_geom_bond_atom_site_label_2
_geom_bond_distance
_geom_bond_site_symmetry_2
Na0 O31 2.365149 1_555
Na0 O67 2.500191 1_555
Na0 O66 2.517533 1_555
Na0 O53 2.520797 1_565
Na0 O52 2.537144 1_565
Na0 O2 2.856016 1_565
Na0 O16 2.899870 1_565
Na0 O9 3.003719 1_555
Na1 O17 2.414688 1_555
Na1 O67 2.511932 1_555
Na1 O53 2.512719 1_555
Na1 O51 2.514662 1_555
Na1 O68 2.525051 1_555
Na1 O32 2.905578 1_555
Na1 O10 2.906031 1_555
Na1 O0 2.984630 1_555
Na2 O71 2.380326 1_555
Na2 O50 2.449087 1_555
Na2 O14 2.561409 1_555
Na2 O49 2.597188 1_555
Na2 O69 2.617438 1_555
Na2 O6 2.709048 1_555
Na2 O35 2.978517 1_555
Na2 O4 3.020212 1_555
Na3 O64 2.359344 1_555
Na3 O43 2.497331 1_555
Na3 O42 2.548924 1_455
Na3 O65 2.641814 1_555
Na3 O7 2.648746 1_555
Na3 O14 2.798181 1_555
Na3 O28 2.863683 1_555
Na3 O21 2.979521 1_555
Na4 O44 2.334902 1_455
Na4 O63 2.523401 1_555
Na4 O65 2.525760 1_555
Na4 O43 2.611478 1_565
Na4 O8 2.692890 1_555
Na4 O29 2.774525 1_555
Na4 O12 2.896133 1_455
Na4 O22 2.907128 1_455
Na5 O64 2.413890 1_555
Na5 O44 2.415171 1_555
Na5 O6 2.529503 1_555
Na5 O42 2.630272 1_565
Na5 O63 2.667130 1_555
Na5 O27 2.723924 1_555
Na5 O13 2.991392 1_565
Na5 O23 3.033395 1_565
Na6 O47 2.422266 1_565
Na6 O26 2.483906 1_554
Na6 O62 2.538977 1_555
Na6 O61 2.548763 1_555
Na6 O45 2.560679 1_455
Na6 O11 2.819824 1_555
Na6 O18 2.826729 1_565
Na6 O16 3.067931 1_565
Na7 O60 2.307416 1_555
Na7 O47 2.414427 1_555
Na7 O25 2.422682 1_554
Na7 O61 2.555605 1_555
Na7 O46 2.582290 1_455
Na7 O10 2.843960 1_555
Na7 O20 2.937008 1_455
Na7 O15 3.078165 1_455
Na8 O40 2.386215 1_655
Na8 O55 2.463640 1_555
Na8 O41 2.592025 1_555
Na8 O54 2.704946 1_555
Na8 O4 2.731906 1_555
Na8 O33 2.788810 1_655
Na8 O19 2.838490 1_556
Na8 O26 2.927904 1_655
Na9 O5 2.335335 1_555
Na9 O39 2.374970 1_655
Na9 O41 2.540842 1_545
Na9 O55 2.581784 1_555
Na9 O56 2.610040 1_555
Na9 O34 2.789903 1_545
Na9 O24 3.056180 1_545
Na9 O20 3.105383 1_556
Na10 O39 2.378008 1_555
Na10 O40 2.447911 1_545
Na10 O56 2.571359 1_555
Na10 O54 2.680451 1_555
Na10 O3 2.727472 1_555
Na10 O18 2.824743 1_556
Na10 O25 2.876699 1_555
Na10 O35 3.007848 1_555
Na10 Na13 3.130179 1_555
Na11 O37 2.307319 1_555
Na11 O58 2.546020 1_555
Na11 O36 2.588674 1_655
Na11 O59 2.648117 1_555
Na11 O22 2.723032 1_555
Na11 O27 2.749955 1_555
Na11 O1 2.776460 1_555
Na11 O32 2.993039 1_555
Na12 O37 2.373861 1_555
Na12 O44 2.485905 1_555
Na12 O36 2.654954 1_655
Na12 O38 2.696932 1_665
Na12 O42 2.708062 1_565
Na12 O43 2.820242 1_665
Na13 O39 2.415491 1_555
Na13 O40 2.478244 1_545
Na13 O47 2.495764 1_556
Na13 O41 2.705669 1_445
Na13 O45 2.791925 1_446
Na13 O46 2.798481 1_456
Na14 O48 2.226258 1_555
Na14 O49 2.598522 1_555
Na14 O50 2.616343 1_555
Na14 O55 2.661208 1_555
Na14 O56 2.666723 1_555
Na14 O54 3.028997 1_555
Na14 Na9 3.154770 1_555
Na15 O57 2.434542 1_555
Na15 O52 2.584151 1_555
Na15 O53 2.616521 1_555
Na15 O59 2.631006 1_555
Na15 O51 2.702801 1_555
Na15 O58 2.730226 1_555
Na16 O60 2.296003 1_555
Na16 O61 2.575279 1_555
Na16 O62 2.586239 1_555
Na16 O67 2.647590 1_555
Na16 O68 2.709891 1_555
Na16 O66 2.776255 1_555
Na17 O71 2.413283 1_555
Na17 O64 2.451255 1_555
Na17 O69 2.613856 1_555
Na17 O63 2.672083 1_555
Na17 O70 2.678698 1_555
Na17 O65 2.786517 1_555
Mg0 O37 1.971532 1_545
Mg0 O2 2.081305 1_555
Mg0 O1 2.143802 1_545
Mg0 O38 2.146380 1_655
Mg0 O0 2.156707 1_655
Mg0 O36 2.219113 1_645
Mg1 O5 1.960192 1_455
Mg1 O39 2.038274 1_555
Mg1 O3 2.061274 1_555
Mg1 O40 2.136096 1_545
Mg1 O4 2.220934 1_445
Mg1 O41 2.295271 1_445
Mg2 O6 1.906745 1_555
Mg2 O8 2.052176 1_655
Mg2 O44 2.091012 1_555
Mg2 O7 2.189921 1_665
Mg2 O42 2.287154 1_565
Mg2 O43 2.338570 1_665
Mg3 O47 2.028414 1_555
Mg3 O11 2.089192 1_545
Mg3 O9 2.124312 1_445
Mg3 O10 2.141647 1_555
Mg3 O45 2.147298 1_445
Mg3 O46 2.177100 1_455
Mg4 O48 1.963604 1_555
Mg4 O14 2.011346 1_555
Mg4 O13 2.125606 1_555
Mg4 O49 2.168325 1_555
Mg4 O12 2.180668 1_555
Mg4 O50 2.217463 1_555
Mg5 O17 1.918129 1_555
Mg5 O15 2.012953 1_555
Mg5 O16 2.155084 1_555
Mg5 O51 2.160857 1_555
Mg5 O52 2.264267 1_555
Mg5 O53 2.306359 1_555
Mg6 O25 1.945995 1_554
Mg6 O26 2.032345 1_554
Mg6 O60 2.053809 1_555
Mg6 O24 2.105215 1_554
Mg6 O61 2.294652 1_555
Mg6 O62 2.314256 1_555
Mg7 O27 1.912972 1_555
Mg7 O64 2.046068 1_555
Mg7 O28 2.120659 1_555
Mg7 O29 2.213003 1_555
Mg7 O63 2.282975 1_555
Mg7 O65 2.294782 1_555
Mg8 O31 1.937342 1_555
Mg8 O30 2.019818 1_555
Mg8 O32 2.140620 1_555
Mg8 O66 2.174367 1_555
Mg8 O68 2.313907 1_555
Mg8 O67 2.352155 1_555
O0 S0 1.482510 1_545
O1 S1 1.479620 1_555
O2 S2 1.482599 1_655
O3 S3 1.473957 1_555
O4 S4 1.473920 1_555
O5 Si0 1.626468 1_555
O6 Si0 1.636105 1_565
O7 S3 1.485088 1_555
O8 S4 1.484218 1_455
O9 S1 1.480348 1_555
O10 S2 1.491213 1_555
O11 S0 1.479395 1_555
O12 S5 1.457425 1_555
O13 S6 1.458160 1_555
O14 Si1 1.619629 1_555
O15 S7 1.467656 1_555
O16 S8 1.479362 1_555
O17 Si2 1.614585 1_555
O18 Si2 1.703250 1_555
O18 Zr0 1.988298 1_554
O19 S7 1.508072 1_555
O19 Zr0 2.240562 1_554
O20 S8 1.527932 1_555
O20 Zr0 2.144966 1_554
O21 S6 1.516238 1_555
O21 Zr1 2.145877 1_555
O22 Si1 1.695873 1_555
O22 Zr1 2.032587 1_555
O23 S5 1.519057 1_555
O23 Zr1 2.130847 1_555
O24 S9 1.468593 1_555
O25 Si3 1.608150 1_555
O26 Si4 1.610006 1_555
O27 Si5 1.628017 1_555
O28 S10 1.475508 1_555
O29 S11 1.470722 1_555
O30 S11 1.463115 1_555
O31 Si5 1.626758 1_555
O32 S10 1.481651 1_555
O33 Si3 1.652933 1_555
O33 Zr2 2.036661 1_555
O34 Si4 1.658280 1_555
O34 Zr2 1.965580 1_555
O35 S9 1.490978 1_555
O35 Zr2 2.265791 1_555
O36 S11 1.485320 1_555
O37 Si5 1.645961 1_555
O38 S10 1.465977 1_555
O39 Si3 1.624609 1_555
O40 Si4 1.620418 1_555
O41 S9 1.466556 1_555
O42 S5 1.484047 1_555
O43 S6 1.486047 1_555
O44 Si1 1.653561 1_555
O45 S7 1.477756 1_555
O46 S8 1.474013 1_555
O47 Si2 1.664510 1_555
O48 Si0 1.615054 1_555
O49 S3 1.480117 1_555
O50 S4 1.472457 1_555
O51 S1 1.496611 1_555
O52 S2 1.501101 1_655
O53 S0 1.517718 1_545
O54 S9 1.507803 1_555
O54 Zr0 2.190785 1_555
O55 Si3 1.676024 1_655
O55 Zr0 2.098129 1_555
O56 Si4 1.680325 1_545
O56 Zr0 2.015289 1_555
O57 Si5 1.692555 1_545
O57 Zr1 1.997927 1_555
O58 S10 1.532842 1_555
O58 Zr1 2.206909 1_555
O59 S11 1.535992 1_655
O59 Zr1 2.185859 1_555
O60 Si2 1.625077 1_555
O61 S7 1.486122 1_455
O62 S8 1.466904 1_565
O63 S6 1.485628 1_565
O64 Si1 1.655386 1_555
O65 S5 1.487965 1_455
O66 S0 1.490614 1_555
O67 S1 1.514125 1_555
O68 S2 1.491245 1_555
O69 S3 1.514395 1_555
O69 Zr2 2.314616 1_555
O70 S4 1.509406 1_455
O70 Zr2 2.145739 1_555
O71 Si0 1.732777 1_565
O71 Zr2 2.026340 1_555
