# generated using pymatgen
data_MgV5O10
_symmetry_space_group_name_H-M   'P 1'
_cell_length_a   5.55953283
_cell_length_b   7.43680097
_cell_length_c   5.40449822
_cell_angle_alpha   71.63923444
_cell_angle_beta   62.19420862
_cell_angle_gamma   78.89124344
_symmetry_Int_Tables_number   1
_chemical_formula_structural   MgV5O10
_chemical_formula_sum   'Mg1 V5 O10'
_cell_volume   187.30838022
_cell_formula_units_Z   1
loop_
 _symmetry_equiv_pos_site_id
 _symmetry_equiv_pos_as_xyz
  1  'x, y, z'
loop_
 _atom_site_type_symbol
 _atom_site_label
 _atom_site_symmetry_multiplicity
 _atom_site_fract_x
 _atom_site_fract_y
 _atom_site_fract_z
 _atom_site_occupancy
  Mg  Mg0  1  0.44544300  0.99562000  0.43874700  1
  V  V0  1  0.01302400  0.00360900  0.01547400  1
  V  V1  1  0.50096600  0.59717600  0.71319600  1
  V  V2  1  0.51652700  0.18584800  0.87141500  1
  V  V3  1  0.49101700  0.41458400  0.28987900  1
  V  V4  1  0.97977900  0.78416600  0.60815900  1
  O  O0  1  0.69124700  0.59965700  0.91974400  1
  O  O1  1  0.76351300  0.80845000  0.40188700  1
  O  O2  1  0.79231300  0.00348800  0.78397700  1
  O  O3  1  0.68927700  0.40477700  0.52741000  1
  O  O4  1  0.70532200  0.19501100  0.13647000  1
  O  O5  1  0.22371300  0.79798400  0.79764000  1
  O  O6  1  0.31024500  0.18373600  0.67241500  1
  O  O7  1  0.26440100  0.58608200  0.47585200  1
  O  O8  1  0.23588100  0.99775900  0.21294700  1
  O  O9  1  0.31384200  0.39317900  0.05085000  1
loop_
_geom_bond_atom_site_label_1
_geom_bond_atom_site_label_2
_geom_bond_distance
_geom_bond_site_symmetry_2
Mg0 O6 1.984736 1_565
Mg0 O1 2.000428 1_555
Mg0 O4 2.013071 1_565
Mg0 O5 2.028170 1_555
Mg0 O8 2.038119 1_555
O0 V1 1.867552 1_555
O0 V3 1.978245 1_556
O0 V4 2.040591 1_555
O1 V4 1.939327 1_555
O1 V1 2.087373 1_555
O1 V0 2.134377 1_665
O2 V2 1.827531 1_555
O2 V4 2.011685 1_545
O2 V0 2.122348 1_656
O3 V1 1.870470 1_555
O3 V2 2.014804 1_555
O3 V3 2.024440 1_555
O4 V3 1.988718 1_555
O4 V0 1.996146 1_655
O4 V2 2.156423 1_554
O5 V1 1.923642 1_555
O5 V0 2.062491 1_566
O5 V4 2.077032 1_455
O6 V2 1.907998 1_555
O6 V0 2.095821 1_556
O6 V3 2.172996 1_555
O7 V3 1.797540 1_555
O7 V4 1.973575 1_455
O7 V1 2.250404 1_555
O8 V0 1.964583 1_565
O8 V2 2.079803 1_564
O8 V4 2.238163 1_455
O9 V1 1.951102 1_554
O9 V2 1.959739 1_554
O9 V3 2.010358 1_555
