# generated using pymatgen
data_Sr2MgCuMoO6
_symmetry_space_group_name_H-M   'P 1'
_cell_length_a   6.13335146
_cell_length_b   6.00235735
_cell_length_c   7.10418331
_cell_angle_alpha   125.76062598
_cell_angle_beta   130.87720873
_cell_angle_gamma   77.44057553
_symmetry_Int_Tables_number   1
_chemical_formula_structural   Sr2MgCuMoO6
_chemical_formula_sum   'Sr2 Mg1 Cu1 Mo1 O6'
_cell_volume   154.55743137
_cell_formula_units_Z   1
loop_
 _symmetry_equiv_pos_site_id
 _symmetry_equiv_pos_as_xyz
  1  'x, y, z'
loop_
 _atom_site_type_symbol
 _atom_site_label
 _atom_site_symmetry_multiplicity
 _atom_site_fract_x
 _atom_site_fract_y
 _atom_site_fract_z
 _atom_site_occupancy
  Sr  Sr0  1  0.71748033  0.22822386  0.41358368  1
  Sr  Sr1  1  0.18164183  0.76800470  0.58235513  1
  Mg  Mg0  1  0.27283076  0.61033267  0.14890158  1
  Cu  Cu0  1  0.53271533  0.34648363  0.80367444  1
  Mo  Mo0  1  0.97360410  0.01825020  0.00848153  1
  O  O0  1  0.07308942  0.20688833  0.88666293  1
  O  O1  1  0.96066825  0.83099391  0.16482039  1
  O  O2  1  0.72322014  0.28665330  0.10004208  1
  O  O3  1  0.25580324  0.77435606  0.97088356  1
  O  O4  1  0.32466303  0.31236002  0.44487759  1
  O  O5  1  0.62714055  0.74840532  0.57988409  1
loop_
_geom_bond_atom_site_label_1
_geom_bond_atom_site_label_2
_geom_bond_distance
_geom_bond_site_symmetry_2
Mg0 O3 1.953788 1_554
Mg0 O0 1.966151 1_554
Mg0 O5 1.972928 1_555
Mg0 O1 2.106711 1_455
Cu0 O2 1.846195 1_556
Cu0 O4 1.847603 1_555
Cu0 O1 2.777449 1_556
Mo0 O5 1.916750 1_544
Mo0 O4 1.970563 1_655
Mo0 O1 2.028890 1_545
Mo0 O3 2.063088 1_644
Mo0 O2 2.093702 1_555
Mo0 O0 2.130788 1_654
O0 Sr1 2.553701 1_545
O0 Sr0 2.618379 1_455
O1 Sr1 2.569907 1_655
O1 O4 2.750174 1_665
O1 Sr0 2.830447 1_565
O2 Sr0 2.471210 1_555
O2 Sr1 2.710348 1_655
O2 Sr1 3.062121 1_544
O3 Sr1 2.463371 1_555
O3 Sr0 2.648664 1_566
O3 Sr0 3.122544 1_455
O4 Sr0 2.479882 1_555
O4 Sr1 2.481781 1_555
O5 Sr0 2.691577 1_555
O5 Sr1 2.720428 1_555
