# generated using pymatgen
data_Na5La2Mg2P3(SO8)3
_symmetry_space_group_name_H-M   'P 1'
_cell_length_a   9.40063879
_cell_length_b   9.30183346
_cell_length_c   23.48357046
_cell_angle_alpha   89.67880500
_cell_angle_beta   90.51338243
_cell_angle_gamma   119.99788468
_symmetry_Int_Tables_number   1
_chemical_formula_structural   Na5La2Mg2P3(SO8)3
_chemical_formula_sum   'Na15 La6 Mg6 P9 S9 O72'
_cell_volume   1778.32912218
_cell_formula_units_Z   3
loop_
 _symmetry_equiv_pos_site_id
 _symmetry_equiv_pos_as_xyz
  1  'x, y, z'
loop_
 _atom_site_type_symbol
 _atom_site_label
 _atom_site_symmetry_multiplicity
 _atom_site_fract_x
 _atom_site_fract_y
 _atom_site_fract_z
 _atom_site_occupancy
  Na  Na0  1  0.63559539  0.01859432  0.25318284  1
  Na  Na1  1  0.00030441  0.63338032  0.24075673  1
  Na  Na2  1  0.62572408  0.62637884  0.74229596  1
  Na  Na3  1  0.99346380  0.34729384  0.74432780  1
  Na  Na4  1  0.30125946  0.35015862  0.58632946  1
  Na  Na5  1  0.66834389  0.96700314  0.57684590  1
  Na  Na6  1  0.29719747  0.95391520  0.07958267  1
  Na  Na7  1  0.69129753  0.02736699  0.90979798  1
  Na  Na8  1  0.96071818  0.28280977  0.41272717  1
  Na  Na9  1  0.97446457  0.96467318  0.48983298  1
  Na  Na10  1  0.01016356  0.98226595  0.98955497  1
  Na  Na11  1  0.62447853  0.30192100  0.82281614  1
  Na  Na12  1  0.63448330  0.31078146  0.32488958  1
  Na  Na13  1  0.30943475  0.63175236  0.15704813  1
  Na  Na14  1  0.32612854  0.66650831  0.65711069  1
  La  La0  1  0.00055127  0.99816398  0.65200083  1
  La  La1  1  0.00351785  0.00913191  0.15017272  1
  La  La2  1  0.67617138  0.35216059  0.98373066  1
  La  La3  1  0.67182944  0.34045225  0.48355502  1
  La  La4  1  0.34041396  0.67219144  0.31873295  1
  La  La5  1  0.33317498  0.67640456  0.81815551  1
  Mg  Mg0  1  0.00870786  0.00883654  0.34533303  1
  Mg  Mg1  1  0.03468214  0.01674058  0.84905391  1
  Mg  Mg2  1  0.66381115  0.32870264  0.68178288  1
  Mg  Mg3  1  0.67338502  0.33854792  0.18278049  1
  Mg  Mg4  1  0.30267504  0.66019018  0.01562121  1
  Mg  Mg5  1  0.34185735  0.67180060  0.51547810  1
  P  P0  1  0.30690373  0.01459812  0.24966777  1
  P  P1  1  0.98157320  0.29758473  0.25382869  1
  P  P2  1  0.31222906  0.29994962  0.74875585  1
  P  P3  1  0.70886610  0.01478863  0.75259015  1
  P  P4  1  0.97854858  0.34907264  0.58517000  1
  P  P5  1  0.64799796  0.62865906  0.58683977  1
  P  P6  1  0.98197128  0.63186954  0.08866707  1
  P  P7  1  0.32246007  0.96592641  0.92237407  1
  P  P8  1  0.65116238  0.96537330  0.41862957  1
  S  S0  1  0.71138083  0.69639293  0.25203200  1
  S  S1  1  0.98004577  0.68609930  0.75271409  1
  S  S2  1  0.37680947  0.02887910  0.58504193  1
  S  S3  1  0.64819018  0.02337100  0.08387114  1
  S  S4  1  0.37850407  0.35007898  0.08502654  1
  S  S5  1  0.64171763  0.68750747  0.91672221  1
  S  S6  1  0.03765744  0.35231254  0.91712729  1
  S  S7  1  0.31433731  0.35340590  0.42014630  1
  S  S8  1  0.04477855  0.68249088  0.41701812  1
  O  O0  1  0.20638582  0.02309519  0.29961251  1
  O  O1  1  0.81752479  0.78578032  0.30132457  1
  O  O2  1  0.96779251  0.19359877  0.30771988  1
  O  O3  1  0.21337542  0.18634713  0.79833307  1
  O  O4  1  0.97617260  0.78298831  0.80152081  1
  O  O5  1  0.81857122  0.03047562  0.80467450  1
  O  O6  1  0.78449410  0.98773327  0.69766638  1
  O  O7  1  0.21983596  0.23500735  0.69088544  1
  O  O8  1  0.00940011  0.77894503  0.69891885  1
  O  O9  1  0.78008629  0.79370453  0.19938542  1
  O  O10  1  0.00138954  0.21431238  0.20053671  1
  O  O11  1  0.21011533  0.98208659  0.19277860  1
  O  O12  1  0.88657640  0.35726077  0.63838352  1
  O  O13  1  0.48318900  0.11801790  0.63459005  1
  O  O14  1  0.63554277  0.52657957  0.64097095  1
  O  O15  1  0.89227896  0.53653731  0.14346822  1
  O  O16  1  0.63716313  0.11681934  0.13389432  1
  O  O17  1  0.47982195  0.36206977  0.13539739  1
  O  O18  1  0.45050433  0.32416615  0.03290542  1
  O  O19  1  0.87961062  0.54677534  0.03514823  1
  O  O20  1  0.66770022  0.11901082  0.03077288  1
  O  O21  1  0.44596800  0.12629322  0.53253426  1
  O  O22  1  0.66378258  0.54276412  0.53357693  1
  O  O23  1  0.87288804  0.31799338  0.53053003  1
  O  O24  1  0.54079129  0.69247010  0.96383548  1
  O  O25  1  0.14172299  0.45073519  0.96517491  1
  O  O26  1  0.30557304  0.86140262  0.97635631  1
  O  O27  1  0.55252351  0.86298423  0.47132053  1
  O  O28  1  0.30353028  0.44376734  0.47093117  1
  O  O29  1  0.15020934  0.69125864  0.46560555  1
  O  O30  1  0.11101754  0.65872282  0.36275813  1
  O  O31  1  0.55691426  0.89046302  0.36196091  1
  O  O32  1  0.33350614  0.45149778  0.36817730  1
  O  O33  1  0.10218469  0.43966899  0.86209488  1
  O  O34  1  0.35182856  0.88381737  0.86961811  1
  O  O35  1  0.55478548  0.66669782  0.86115008  1
  O  O36  1  0.02824000  0.83241677  0.41413069  1
  O  O37  1  0.82414879  0.98215279  0.41607946  1
  O  O38  1  0.15684511  0.19167704  0.41599610  1
  O  O39  1  0.02346402  0.18554504  0.91588290  1
  O  O40  1  0.16881316  0.98345689  0.91402920  1
  O  O41  1  0.80169830  0.84627514  0.91596539  1
  O  O42  1  0.00131002  0.19176318  0.58737893  1
  O  O43  1  0.20984275  0.00616693  0.58993641  1
  O  O44  1  0.79674655  0.80990344  0.58714899  1
  O  O45  1  0.01212595  0.81363278  0.08715194  1
  O  O46  1  0.78987921  0.99679883  0.08764496  1
  O  O47  1  0.21192301  0.19790490  0.08773908  1
  O  O48  1  0.70005401  0.17690766  0.74629044  1
  O  O49  1  0.48825593  0.32642996  0.74591156  1
  O  O50  1  0.82161589  0.52614994  0.74940338  1
  O  O51  1  0.70147469  0.53141042  0.24738038  1
  O  O52  1  0.81983497  0.30688894  0.24785498  1
  O  O53  1  0.48276917  0.16803223  0.24558169  1
  O  O54  1  0.67143866  0.54548391  0.91987141  1
  O  O55  1  0.86581402  0.32391106  0.92147471  1
  O  O56  1  0.48525261  0.13801785  0.92432688  1
  O  O57  1  0.67831034  0.14673158  0.41969041  1
  O  O58  1  0.45534364  0.32574213  0.42256194  1
  O  O59  1  0.87873181  0.52991883  0.42081616  1
  O  O60  1  0.36153377  0.49992120  0.07987015  1
  O  O61  1  0.15426235  0.64586239  0.08360141  1
  O  O62  1  0.49157531  0.86085619  0.08113198  1
  O  O63  1  0.36903619  0.86477128  0.58045528  1
  O  O64  1  0.48797997  0.64155954  0.58144004  1
  O  O65  1  0.15287387  0.50331929  0.57910851  1
  O  O66  1  0.33114524  0.85832800  0.25483704  1
  O  O67  1  0.54361626  0.67405483  0.25660727  1
  O  O68  1  0.12933338  0.47902793  0.25562611  1
  O  O69  1  0.32681434  0.47615184  0.75420070  1
  O  O70  1  0.11512280  0.64478389  0.75671465  1
  O  O71  1  0.53451563  0.85714368  0.75526069  1
loop_
_geom_bond_atom_site_label_1
_geom_bond_atom_site_label_2
_geom_bond_distance
_geom_bond_site_symmetry_2
Na0 O52 2.358510 1_555
Na0 O53 2.453084 1_555
Na0 O66 2.479938 1_545
Na0 O31 2.758856 1_545
Na0 O67 2.872731 1_545
Na0 O16 2.939556 1_555
Na0 O2 2.985115 1_555
Na0 O10 3.233970 1_655
Na0 O9 3.273940 1_545
Na1 O68 2.320083 1_555
Na1 O15 2.475736 1_455
Na1 O51 2.481375 1_455
Na1 O52 2.641324 1_455
Na1 O66 2.764499 1_555
Na1 O30 3.009315 1_555
Na1 O11 3.046693 1_555
Na1 O1 3.080107 1_455
Na2 O49 2.419854 1_555
Na2 O50 2.449023 1_555
Na2 O69 2.451529 1_555
Na2 O14 2.578093 1_555
Na2 O71 2.699600 1_555
Na2 O35 2.944638 1_555
Na2 O6 3.097775 1_555
Na2 O4 3.170417 1_555
Na3 O48 2.398359 1_555
Na3 O70 2.426624 1_655
Na3 O12 2.693306 1_555
Na3 O69 2.746777 1_655
Na3 O50 2.843414 1_555
Na3 O33 2.920487 1_655
Na3 O5 2.923395 1_555
Na3 O7 3.078903 1_655
Na3 O6 3.111052 1_545
Na4 O64 2.384110 1_555
Na4 O42 2.443122 1_555
Na4 O65 2.446321 1_555
Na4 O7 2.635581 1_555
Na4 O28 2.838755 1_555
Na4 O43 2.869281 1_555
Na4 O14 3.001577 1_555
Na4 O22 3.209999 1_555
Na4 O21 3.267348 1_555
Na5 O44 2.324992 1_555
Na5 O63 2.481165 1_555
Na5 O64 2.630159 1_555
Na5 O27 2.681009 1_555
Na5 O42 2.770908 1_665
Na5 O6 3.003287 1_555
Na5 O23 3.043003 1_565
Na5 O13 3.057804 1_565
Na6 O45 2.329206 1_555
Na6 O62 2.381100 1_555
Na6 O61 2.484844 1_555
Na6 O26 2.591844 1_554
Na6 O47 2.767134 1_565
Na6 O11 2.840140 1_555
Na6 O16 3.040196 1_565
Na6 O18 3.187887 1_565
Na7 O41 2.382910 1_545
Na7 O55 2.418844 1_555
Na7 O56 2.633789 1_555
Na7 O39 2.708511 1_655
Na7 O5 2.746676 1_555
Na7 O34 2.925145 1_545
Na7 O24 2.982783 1_545
Na7 O20 3.012352 1_556
Na7 O35 3.149428 1_545
Na8 O57 2.306998 1_555
Na8 O38 2.383977 1_655
Na8 O37 2.425874 1_545
Na8 O2 2.618203 1_555
Na8 O59 2.773532 1_555
Na8 O23 2.960278 1_555
Na8 O28 3.100759 1_655
Na9 O37 2.281605 1_555
Na9 O36 2.364728 1_655
Na9 O38 2.607096 1_665
Na9 O44 2.777217 1_555
Na9 O42 3.046966 1_665
Na9 O43 3.103903 1_665
Na10 O40 2.323960 1_555
Na10 O41 2.431480 1_455
Na10 O39 2.512966 1_565
Na10 O45 2.775181 1_556
Na10 O47 3.017676 1_566
Na10 O46 3.159361 1_456
Na11 O49 2.280206 1_555
Na11 O48 2.441096 1_555
Na11 O50 2.628448 1_555
Na11 O56 2.782074 1_555
Na11 O54 3.092295 1_555
Na11 O55 3.162876 1_555
Na12 O53 2.313513 1_555
Na12 O52 2.535806 1_555
Na12 O51 2.570556 1_555
Na12 O57 2.833495 1_555
Na12 O58 2.902325 1_555
Na12 O59 3.127373 1_555
Na13 O61 2.294300 1_555
Na13 O60 2.381140 1_555
Na13 O62 2.648587 1_555
Na13 O68 2.805709 1_555
Na13 O66 3.061512 1_555
Na13 O67 3.085351 1_555
Na14 O65 2.412015 1_555
Na14 O64 2.435729 1_555
Na14 O63 2.456884 1_555
Na14 O69 2.880915 1_555
Na14 O71 2.964120 1_555
Na14 O70 3.020543 1_555
La0 O6 2.263960 1_455
La0 O7 2.320449 1_565
La0 O42 2.345785 1_565
La0 O8 2.349842 1_555
La0 O44 2.383149 1_455
La0 O43 2.429918 1_565
La1 O10 2.259588 1_555
La1 O11 2.299395 1_545
La1 O9 2.360438 1_445
La1 O47 2.377790 1_555
La1 O45 2.383950 1_545
La1 O46 2.433387 1_445
La2 O19 2.216719 1_556
La2 O18 2.321619 1_556
La2 O54 2.352280 1_555
La2 O56 2.355093 1_555
La2 O20 2.394184 1_556
La2 O55 2.429847 1_555
La3 O22 2.257385 1_555
La3 O23 2.277684 1_555
La3 O21 2.363933 1_555
La3 O57 2.375244 1_555
La3 O59 2.377896 1_555
La3 O58 2.425587 1_555
La4 O31 2.269162 1_555
La4 O66 2.318679 1_555
La4 O32 2.325507 1_555
La4 O30 2.345912 1_555
La4 O68 2.402940 1_555
La4 O67 2.407139 1_555
La5 O34 2.213054 1_555
La5 O71 2.330405 1_555
La5 O35 2.348831 1_555
La5 O69 2.376414 1_555
La5 O70 2.391446 1_555
La5 O33 2.421229 1_555
Mg0 O0 2.100324 1_555
Mg0 O2 2.125961 1_455
Mg0 O1 2.205697 1_445
Mg0 O38 2.281988 1_555
Mg0 O37 2.334169 1_445
Mg0 O36 2.367098 1_545
Mg1 O3 2.023443 1_555
Mg1 O40 2.089155 1_545
Mg1 O4 2.257559 1_445
Mg1 O39 2.266221 1_555
Mg1 O5 2.334503 1_455
Mg1 O41 2.518206 1_445
Mg2 O13 2.148302 1_555
Mg2 O14 2.200408 1_555
Mg2 O48 2.202811 1_555
Mg2 O12 2.230165 1_555
Mg2 O49 2.236355 1_555
Mg2 O50 2.315512 1_555
Mg3 O52 2.163349 1_555
Mg3 O15 2.168840 1_555
Mg3 O17 2.226234 1_555
Mg3 O16 2.237192 1_555
Mg3 O53 2.254076 1_555
Mg3 O51 2.266962 1_555
Mg4 O26 2.069817 1_554
Mg4 O61 2.089120 1_555
Mg4 O25 2.129488 1_554
Mg4 O60 2.364260 1_555
Mg4 O62 2.381818 1_555
Mg4 O24 2.439741 1_554
Mg5 O27 2.157394 1_555
Mg5 O64 2.169991 1_555
Mg5 O29 2.221738 1_555
Mg5 O28 2.230986 1_555
Mg5 O65 2.254414 1_555
Mg5 O63 2.276122 1_555
O0 P0 1.539602 1_555
O1 S0 1.478997 1_555
O2 P1 1.554968 1_555
O3 P2 1.536021 1_555
O4 S1 1.473901 1_555
O5 P3 1.552362 1_555
O6 P3 1.559285 1_565
O7 P2 1.558718 1_555
O8 S1 1.474335 1_455
O9 S0 1.477220 1_555
O10 P1 1.536305 1_455
O11 P0 1.552971 1_565
O12 P4 1.549585 1_555
O13 S2 1.484011 1_555
O14 P5 1.552162 1_555
O15 P6 1.553212 1_555
O16 S3 1.500010 1_555
O17 S4 1.481179 1_555
O18 S4 1.481777 1_555
O19 P6 1.536201 1_555
O20 S3 1.486079 1_555
O21 S2 1.475457 1_555
O22 P5 1.535569 1_555
O23 P4 1.552679 1_555
O24 S5 1.479720 1_555
O25 S6 1.471243 1_555
O26 P7 1.553384 1_555
O27 P8 1.556362 1_555
O28 S7 1.495969 1_555
O29 S8 1.480139 1_555
O30 S8 1.488385 1_555
O31 P8 1.553526 1_555
O32 S7 1.476981 1_555
O33 S6 1.485876 1_555
O34 P7 1.556282 1_555
O35 S5 1.494646 1_555
O36 S8 1.479593 1_555
O37 P8 1.555718 1_555
O38 S7 1.495505 1_555
O39 S6 1.489459 1_555
O40 P7 1.543149 1_555
O41 S5 1.490776 1_555
O42 P4 1.581661 1_455
O43 S2 1.480828 1_555
O44 P5 1.562150 1_555
O45 P6 1.568584 1_455
O46 S3 1.473066 1_565
O47 S4 1.498080 1_555
O48 P3 1.557247 1_555
O49 P2 1.548421 1_555
O50 S1 1.490398 1_555
O51 S0 1.494831 1_555
O52 P1 1.570521 1_555
O53 P0 1.556053 1_555
O54 S5 1.482025 1_555
O55 S6 1.505245 1_655
O56 P7 1.567329 1_545
O57 P8 1.575265 1_545
O58 S7 1.471760 1_555
O59 S8 1.498185 1_655
O60 S4 1.484222 1_555
O61 P6 1.564234 1_455
O62 S3 1.493603 1_565
O63 S2 1.495766 1_565
O64 P5 1.571694 1_555
O65 P4 1.554086 1_455
O66 P0 1.583785 1_565
O67 S0 1.488978 1_555
O68 P1 1.560535 1_455
O69 P2 1.580761 1_555
O70 S1 1.501454 1_455
O71 P3 1.561445 1_565
