# generated using pymatgen
data_MgVO3
_symmetry_space_group_name_H-M   'P 1'
_cell_length_a   5.25043530
_cell_length_b   5.22821384
_cell_length_c   5.70993649
_cell_angle_alpha   89.99996492
_cell_angle_beta   117.37182363
_cell_angle_gamma   89.99999995
_symmetry_Int_Tables_number   1
_chemical_formula_structural   MgVO3
_chemical_formula_sum   'Mg2 V2 O6'
_cell_volume   139.19166732
_cell_formula_units_Z   2
loop_
 _symmetry_equiv_pos_site_id
 _symmetry_equiv_pos_as_xyz
  1  'x, y, z'
loop_
 _atom_site_type_symbol
 _atom_site_label
 _atom_site_symmetry_multiplicity
 _atom_site_fract_x
 _atom_site_fract_y
 _atom_site_fract_z
 _atom_site_occupancy
  Mg  Mg0  1  0.57477528  0.01221184  0.14955056  1
  Mg  Mg1  1  0.42522478  0.51221221  0.85044955  1
  V  V0  1  0.92951864  0.01272159  0.85903628  1
  V  V1  1  0.07048075  0.51272124  0.14096350  1
  O  O0  1  0.23816182  0.26240776  0.00050773  1
  O  O1  1  0.76183833  0.76240741  0.99949222  1
  O  O2  1  0.76234591  0.26240776  0.00050773  1
  O  O3  1  0.23765388  0.76240741  0.99949222  1
  O  O4  1  0.76570600  0.01425203  0.53141001  1
  O  O5  1  0.23429360  0.51425276  0.46858920  1
loop_
_geom_bond_atom_site_label_1
_geom_bond_atom_site_label_2
_geom_bond_distance
_geom_bond_site_symmetry_2
Mg0 O4 1.936309 1_555
Mg0 O0 2.043492 1_555
Mg0 O2 2.043493 1_555
Mg0 O3 2.044095 1_544
Mg0 O1 2.044095 1_544
Mg1 O5 1.936314 1_555
Mg1 O1 2.043491 1_555
Mg1 O3 2.043491 1_555
Mg1 O2 2.044094 1_556
Mg1 O0 2.044094 1_556
O0 V0 1.943964 1_454
O0 V1 1.944280 1_555
O1 V1 1.943960 1_656
O1 V0 1.944280 1_565
O2 V0 1.943967 1_554
O2 V1 1.944273 1_655
O3 V1 1.943967 1_556
O3 V0 1.944277 1_465
O4 V0 1.661301 1_555
O5 V1 1.661298 1_555
