# generated using pymatgen
data_BaH6Cl2O11
_symmetry_space_group_name_H-M   'P 1'
_cell_length_a   7.43277391
_cell_length_b   7.43277391
_cell_length_c   9.81676800
_cell_angle_alpha   90.00000000
_cell_angle_beta   90.00000000
_cell_angle_gamma   119.99999919
_symmetry_Int_Tables_number   1
_chemical_formula_structural   BaH6Cl2O11
_chemical_formula_sum   'Ba2 H12 Cl4 O22'
_cell_volume   469.67885416
_cell_formula_units_Z   2
loop_
 _symmetry_equiv_pos_site_id
 _symmetry_equiv_pos_as_xyz
  1  'x, y, z'
loop_
 _atom_site_type_symbol
 _atom_site_label
 _atom_site_symmetry_multiplicity
 _atom_site_fract_x
 _atom_site_fract_y
 _atom_site_fract_z
 _atom_site_occupancy
  Ba  Ba0  1  0.00000000  0.00000000  0.50000000  1
  Ba  Ba1  1  0.00000000  0.00000000  0.00000000  1
  H  H0  1  0.72639900  0.69377500  0.75000000  1
  H  H1  1  0.03262400  0.72639900  0.25000000  1
  H  H2  1  0.69377500  0.96737600  0.25000000  1
  H  H3  1  0.30622500  0.03262400  0.75000000  1
  H  H4  1  0.96737600  0.27360100  0.75000000  1
  H  H5  1  0.27360100  0.30622500  0.25000000  1
  H  H6  1  0.81371300  0.20779900  0.25000000  1
  H  H7  1  0.18628700  0.79220100  0.75000000  1
  H  H8  1  0.20779900  0.39408600  0.75000000  1
  H  H9  1  0.39408600  0.18628700  0.25000000  1
  H  H10  1  0.60591400  0.81371300  0.75000000  1
  H  H11  1  0.79220100  0.60591400  0.25000000  1
  Cl  Cl0  1  0.33333300  0.66666700  0.46619800  1
  Cl  Cl1  1  0.66666700  0.33333300  0.96619800  1
  Cl  Cl2  1  0.66666700  0.33333300  0.53380200  1
  Cl  Cl3  1  0.33333300  0.66666700  0.03380200  1
  O  O0  1  0.73182100  0.18934400  0.58390900  1
  O  O1  1  0.54247700  0.73182100  0.08390900  1
  O  O2  1  0.26817900  0.81065600  0.08390900  1
  O  O3  1  0.81065600  0.54247700  0.58390900  1
  O  O4  1  0.45752300  0.26817900  0.58390900  1
  O  O5  1  0.26817900  0.81065600  0.41609100  1
  O  O6  1  0.54247700  0.73182100  0.41609100  1
  O  O7  1  0.45752300  0.26817900  0.91609100  1
  O  O8  1  0.73182100  0.18934400  0.91609100  1
  O  O9  1  0.18934400  0.45752300  0.41609100  1
  O  O10  1  0.25319600  0.16542200  0.25000000  1
  O  O11  1  0.08777400  0.25319600  0.75000000  1
  O  O12  1  0.16542200  0.91222600  0.75000000  1
  O  O13  1  0.83457800  0.08777400  0.25000000  1
  O  O14  1  0.91222600  0.74680400  0.25000000  1
  O  O15  1  0.74680400  0.83457800  0.75000000  1
  O  O16  1  0.33333300  0.66666700  0.61472400  1
  O  O17  1  0.66666700  0.33333300  0.11472400  1
  O  O18  1  0.66666700  0.33333300  0.38527600  1
  O  O19  1  0.33333300  0.66666700  0.88527600  1
  O  O20  1  0.81065600  0.54247700  0.91609100  1
  O  O21  1  0.18934400  0.45752300  0.08390900  1
loop_
_geom_bond_atom_site_label_1
_geom_bond_atom_site_label_2
_geom_bond_distance
_geom_bond_site_symmetry_2
Ba0 O12 2.960174 1_545
Ba0 O13 2.960174 1_455
Ba0 O11 2.960174 1_555
Ba0 O14 2.960174 1_445
Ba0 O10 2.960174 1_555
Ba0 O15 2.960174 1_445
Ba0 O0 3.072090 1_455
Ba0 O5 3.072090 1_545
Ba0 O9 3.072090 1_555
Ba0 O3 3.072090 1_445
Ba0 O4 3.072090 1_555
Ba0 O6 3.072090 1_445
Ba1 O12 2.960174 1_544
Ba1 O13 2.960174 1_455
Ba1 O11 2.960174 1_554
Ba1 O14 2.960174 1_445
Ba1 O10 2.960174 1_555
Ba1 O15 2.960174 1_444
Ba1 O8 3.072090 1_454
Ba1 O2 3.072090 1_545
Ba1 O21 3.072090 1_555
Ba1 O20 3.072090 1_444
Ba1 O7 3.072090 1_554
Ba1 O1 3.072090 1_445
H0 O15 0.979570 1_555
H1 O14 0.979570 1_455
H2 O13 0.979570 1_565
H3 O12 0.979570 1_545
H4 O11 0.979570 1_655
H5 O10 0.979570 1_555
H6 O13 0.978918 1_555
H7 O12 0.978918 1_555
H8 O11 0.978918 1_555
H9 O10 0.978918 1_555
H10 O15 0.978918 1_555
H11 O14 0.978918 1_555
Cl0 O16 1.458045 1_555
Cl0 O5 1.462934 1_555
Cl0 O9 1.462939 1_555
Cl0 O6 1.462940 1_555
Cl1 O17 1.458045 1_556
Cl1 O8 1.462934 1_555
Cl1 O20 1.462939 1_555
Cl1 O7 1.462940 1_555
Cl2 O18 1.458045 1_555
Cl2 O0 1.462934 1_555
Cl2 O3 1.462939 1_555
Cl2 O4 1.462940 1_555
Cl3 O19 1.458045 1_554
Cl3 O2 1.462934 1_555
Cl3 O21 1.462939 1_555
Cl3 O1 1.462940 1_555
