# generated using pymatgen
data_LiMnAsO4
_symmetry_space_group_name_H-M   'P 1'
_cell_length_a   4.99929500
_cell_length_b   6.24638900
_cell_length_c   10.91589800
_cell_angle_alpha   90.00000000
_cell_angle_beta   90.00000000
_cell_angle_gamma   90.00000000
_symmetry_Int_Tables_number   1
_chemical_formula_structural   LiMnAsO4
_chemical_formula_sum   'Li4 Mn4 As4 O16'
_cell_volume   340.87665558
_cell_formula_units_Z   4
loop_
 _symmetry_equiv_pos_site_id
 _symmetry_equiv_pos_as_xyz
  1  'x, y, z'
loop_
 _atom_site_type_symbol
 _atom_site_label
 _atom_site_symmetry_multiplicity
 _atom_site_fract_x
 _atom_site_fract_y
 _atom_site_fract_z
 _atom_site_occupancy
  Li  Li0  1  0.00000000  0.00000000  0.00000000  1
  Li  Li1  1  0.50000000  0.00000000  0.50000000  1
  Li  Li2  1  0.00000000  0.50000000  0.00000000  1
  Li  Li3  1  0.50000000  0.50000000  0.50000000  1
  Mn  Mn0  1  0.98981200  0.25000000  0.27664100  1
  Mn  Mn1  1  0.51018800  0.25000000  0.77664100  1
  Mn  Mn2  1  0.01018800  0.75000100  0.72335900  1
  Mn  Mn3  1  0.48981200  0.75000100  0.22335900  1
  As  As0  1  0.07096600  0.25000000  0.59086900  1
  As  As1  1  0.42903400  0.25000000  0.09086900  1
  As  As2  1  0.92903400  0.75000100  0.40913100  1
  As  As3  1  0.57096600  0.75000100  0.90913100  1
  O  O0  1  0.77104500  0.25000000  0.09351200  1
  O  O1  1  0.22895500  0.75000100  0.90648800  1
  O  O2  1  0.72895500  0.25000000  0.59351200  1
  O  O3  1  0.27104500  0.75000100  0.40648800  1
  O  O4  1  0.71499300  0.75000100  0.05271700  1
  O  O5  1  0.28500700  0.25000000  0.94728300  1
  O  O6  1  0.21499300  0.25000000  0.44728300  1
  O  O7  1  0.78500700  0.75000100  0.55271600  1
  O  O8  1  0.22177800  0.46461400  0.66551300  1
  O  O9  1  0.72177800  0.53538700  0.83448700  1
  O  O10  1  0.77822200  0.96461400  0.33448700  1
  O  O11  1  0.27822200  0.03538700  0.16551300  1
  O  O12  1  0.77822200  0.53538700  0.33448700  1
  O  O13  1  0.27822200  0.46461400  0.16551300  1
  O  O14  1  0.22177800  0.03538700  0.66551300  1
  O  O15  1  0.72177800  0.96461400  0.83448700  1
loop_
_geom_bond_atom_site_label_1
_geom_bond_atom_site_label_2
_geom_bond_distance
_geom_bond_site_symmetry_2
Li0 O1 2.188761 1_544
Li0 O0 2.188765 1_455
Li0 O4 2.190859 1_445
Li0 O5 2.190864 1_554
Li0 O15 2.290796 1_444
Li0 O11 2.290796 1_555
Li1 O3 2.188761 1_545
Li1 O2 2.188765 1_555
Li1 O7 2.190857 1_545
Li1 O6 2.190864 1_555
Li1 O10 2.290796 1_545
Li1 O14 2.290796 1_555
Li2 O0 2.188765 1_455
Li2 O1 2.188770 1_554
Li2 O5 2.190864 1_554
Li2 O4 2.190868 1_455
Li2 O13 2.290796 1_555
Li2 O9 2.290796 1_454
Li3 O2 2.188765 1_555
Li3 O3 2.188770 1_555
Li3 O6 2.190864 1_555
Li3 O7 2.190866 1_555
Li3 O8 2.290796 1_555
Li3 O12 2.290796 1_555
Mn0 O10 2.166896 1_545
Mn0 O12 2.166901 1_555
Mn0 O6 2.176464 1_655
Mn0 O0 2.278642 1_555
Mn0 O11 2.312473 1_655
Mn0 O13 2.312477 1_655
Mn1 O15 2.166896 1_545
Mn1 O9 2.166901 1_555
Mn1 O5 2.176464 1_555
Mn1 O2 2.278642 1_555
Mn1 O14 2.312473 1_555
Mn1 O8 2.312477 1_555
Mn2 O14 2.166896 1_565
Mn2 O8 2.166901 1_555
Mn2 O7 2.176473 1_455
Mn2 O1 2.278642 1_555
Mn2 O15 2.312473 1_455
Mn2 O9 2.312477 1_455
Mn3 O11 2.166896 1_565
Mn3 O13 2.166901 1_555
Mn3 O4 2.176464 1_555
Mn3 O3 2.278642 1_555
Mn3 O10 2.312473 1_555
Mn3 O12 2.312477 1_555
As0 O2 1.710057 1_455
As0 O6 1.724847 1_555
As0 O14 1.740531 1_555
As0 O8 1.740535 1_555
As1 O0 1.710057 1_555
As1 O5 1.724847 1_554
As1 O11 1.740531 1_555
As1 O13 1.740535 1_555
As2 O3 1.710057 1_655
As2 O7 1.724837 1_555
As2 O10 1.740531 1_555
As2 O12 1.740535 1_555
As3 O1 1.710057 1_555
As3 O4 1.724847 1_556
As3 O15 1.740531 1_555
As3 O9 1.740535 1_555
