# generated using pymatgen
data_HgO2
_symmetry_space_group_name_H-M   'P 1'
_cell_length_a   3.56952822
_cell_length_b   3.56952822
_cell_length_c   4.38475259
_cell_angle_alpha   68.67065243
_cell_angle_beta   68.67065243
_cell_angle_gamma   85.16586188
_symmetry_Int_Tables_number   1
_chemical_formula_structural   HgO2
_chemical_formula_sum   'Hg1 O2'
_cell_volume   48.40284508
_cell_formula_units_Z   1
loop_
 _symmetry_equiv_pos_site_id
 _symmetry_equiv_pos_as_xyz
  1  'x, y, z'
loop_
 _atom_site_type_symbol
 _atom_site_label
 _atom_site_symmetry_multiplicity
 _atom_site_fract_x
 _atom_site_fract_y
 _atom_site_fract_z
 _atom_site_occupancy
  Hg  Hg0  1  0.00000000  0.00000000  0.00000000  1
  O  O0  1  0.46321700  0.46321700  0.68576300  1
  O  O1  1  0.53678300  0.53678300  0.31423700  1
loop_
_geom_bond_atom_site_label_1
_geom_bond_atom_site_label_2
_geom_bond_distance
_geom_bond_site_symmetry_2
Hg0 O1 2.124273 1_445
Hg0 O0 2.124273 1_554
Hg0 O1 2.834247 1_545
Hg0 O1 2.834247 1_455
Hg0 O0 2.834247 1_544
Hg0 O0 2.834247 1_454
O0 O1 1.476805 1_555
