# generated using pymatgen
data_Na4Mg(CuO2)2
_symmetry_space_group_name_H-M   'P 1'
_cell_length_a   5.87344060
_cell_length_b   10.53033449
_cell_length_c   20.55662225
_cell_angle_alpha   98.20054401
_cell_angle_beta   90.00000000
_cell_angle_gamma   90.00000000
_symmetry_Int_Tables_number   1
_chemical_formula_structural   Na4Mg(CuO2)2
_chemical_formula_sum   'Na32 Mg8 Cu16 O32'
_cell_volume   1258.41222514
_cell_formula_units_Z   8
loop_
 _symmetry_equiv_pos_site_id
 _symmetry_equiv_pos_as_xyz
  1  'x, y, z'
loop_
 _atom_site_type_symbol
 _atom_site_label
 _atom_site_symmetry_multiplicity
 _atom_site_fract_x
 _atom_site_fract_y
 _atom_site_fract_z
 _atom_site_occupancy
  Na  Na0_0  1  0.37500000  0.37072231  0.48256232  1
  Na  Na0_1  1  0.37500000  0.37072231  0.98256232  1
  Na  Na0_2  1  0.37500000  0.87072231  0.48256232  1
  Na  Na0_3  1  0.37500000  0.87072231  0.98256232  1
  Na  Na0_4  1  0.87500000  0.37072231  0.48256232  1
  Na  Na0_5  1  0.87500000  0.37072231  0.98256232  1
  Na  Na0_6  1  0.87500000  0.87072231  0.48256232  1
  Na  Na0_7  1  0.87500000  0.87072231  0.98256232  1
  Na  Na1_0  1  0.12500000  0.16571401  0.06821842  1
  Na  Na1_1  1  0.12500000  0.16571402  0.56821842  1
  Na  Na1_2  1  0.12500000  0.66571402  0.06821842  1
  Na  Na1_3  1  0.12500000  0.66571401  0.56821842  1
  Na  Na1_4  1  0.62500000  0.16571401  0.06821842  1
  Na  Na1_5  1  0.62500000  0.16571402  0.56821842  1
  Na  Na1_6  1  0.62500000  0.66571402  0.06821842  1
  Na  Na1_7  1  0.62500000  0.66571401  0.56821842  1
  Na  Na2_0  1  0.37500000  0.27721886  0.19748592  1
  Na  Na2_1  1  0.37500000  0.27721886  0.69748592  1
  Na  Na2_2  1  0.37500000  0.77721885  0.19748592  1
  Na  Na2_3  1  0.37500000  0.77721886  0.69748592  1
  Na  Na2_4  1  0.87500000  0.27721886  0.19748592  1
  Na  Na2_5  1  0.87500000  0.27721886  0.69748592  1
  Na  Na2_6  1  0.87500000  0.77721885  0.19748592  1
  Na  Na2_7  1  0.87500000  0.77721886  0.69748592  1
  Na  Na3_0  1  0.12500000  0.04797146  0.25763013  1
  Na  Na3_1  1  0.12500000  0.04797146  0.75763013  1
  Na  Na3_2  1  0.12500000  0.54797146  0.25763013  1
  Na  Na3_3  1  0.12500000  0.54797145  0.75763013  1
  Na  Na3_4  1  0.62500000  0.04797146  0.25763013  1
  Na  Na3_5  1  0.62500000  0.04797146  0.75763013  1
  Na  Na3_6  1  0.62500000  0.54797146  0.25763013  1
  Na  Na3_7  1  0.62500000  0.54797145  0.75763013  1
  Mg  Mg0_0  1  0.37500000  0.32036426  0.34238061  1
  Mg  Mg0_1  1  0.37500000  0.32036426  0.84238061  1
  Mg  Mg0_2  1  0.37500000  0.82036426  0.34238061  1
  Mg  Mg0_3  1  0.37500000  0.82036426  0.84238061  1
  Mg  Mg0_4  1  0.87500000  0.32036426  0.34238061  1
  Mg  Mg0_5  1  0.87500000  0.32036426  0.84238061  1
  Mg  Mg0_6  1  0.87500000  0.82036426  0.34238061  1
  Mg  Mg0_7  1  0.87500000  0.82036426  0.84238061  1
  Cu  Cu0_0  1  0.37500000  0.11342550  0.41813035  1
  Cu  Cu0_1  1  0.37500000  0.11342550  0.91813035  1
  Cu  Cu0_2  1  0.37500000  0.61342549  0.41813035  1
  Cu  Cu0_3  1  0.37500000  0.61342549  0.91813034  1
  Cu  Cu0_4  1  0.87500000  0.11342550  0.41813035  1
  Cu  Cu0_5  1  0.87500000  0.11342550  0.91813035  1
  Cu  Cu0_6  1  0.87500000  0.61342549  0.41813035  1
  Cu  Cu0_7  1  0.87500000  0.61342549  0.91813034  1
  Cu  Cu1_0  1  0.12500000  0.44629140  0.12351821  1
  Cu  Cu1_1  1  0.12500000  0.44629140  0.62351821  1
  Cu  Cu1_2  1  0.12500000  0.94629140  0.12351821  1
  Cu  Cu1_3  1  0.12500000  0.94629140  0.62351821  1
  Cu  Cu1_4  1  0.62500000  0.44629140  0.12351821  1
  Cu  Cu1_5  1  0.62500000  0.44629140  0.62351821  1
  Cu  Cu1_6  1  0.62500000  0.94629140  0.12351821  1
  Cu  Cu1_7  1  0.62500000  0.94629140  0.62351821  1
  O  O0_0  1  0.12500000  0.33621005  0.28004865  1
  O  O0_1  1  0.12500000  0.33621005  0.78004865  1
  O  O0_2  1  0.12500000  0.83621005  0.28004865  1
  O  O0_3  1  0.12500000  0.83621005  0.78004865  1
  O  O0_4  1  0.62500000  0.33621005  0.28004865  1
  O  O0_5  1  0.62500000  0.33621005  0.78004865  1
  O  O0_6  1  0.62500000  0.83621005  0.28004865  1
  O  O0_7  1  0.62500000  0.83621005  0.78004865  1
  O  O1_0  1  0.37500000  0.05738619  0.16340075  1
  O  O1_1  1  0.37500000  0.05738619  0.66340075  1
  O  O1_2  1  0.37500000  0.55738619  0.16340075  1
  O  O1_3  1  0.37500000  0.55738619  0.66340075  1
  O  O1_4  1  0.87500000  0.05738619  0.16340075  1
  O  O1_5  1  0.87500000  0.05738619  0.66340075  1
  O  O1_6  1  0.87500000  0.55738619  0.16340075  1
  O  O1_7  1  0.87500000  0.55738619  0.66340075  1
  O  O2_0  1  0.12500000  0.24753518  0.40327926  1
  O  O2_1  1  0.12500000  0.24753518  0.90327926  1
  O  O2_2  1  0.12500000  0.74753519  0.40327926  1
  O  O2_3  1  0.12500000  0.74753518  0.90327926  1
  O  O2_4  1  0.62500000  0.24753518  0.40327926  1
  O  O2_5  1  0.62500000  0.24753518  0.90327926  1
  O  O2_6  1  0.62500000  0.74753519  0.40327926  1
  O  O2_7  1  0.62500000  0.74753518  0.90327926  1
  O  O3_0  1  0.37500000  0.33144629  0.08756438  1
  O  O3_1  1  0.37500000  0.33144629  0.58756438  1
  O  O3_2  1  0.37500000  0.83144629  0.08756439  1
  O  O3_3  1  0.37500000  0.83144629  0.58756438  1
  O  O3_4  1  0.87500000  0.33144629  0.08756438  1
  O  O3_5  1  0.87500000  0.33144629  0.58756438  1
  O  O3_6  1  0.87500000  0.83144629  0.08756439  1
  O  O3_7  1  0.87500000  0.83144629  0.58756438  1
loop_
_geom_bond_atom_site_label_1
_geom_bond_atom_site_label_2
_geom_bond_distance
_geom_bond_site_symmetry_2
Na0_0 O3_1 2.254950 1_555
Na0_0 O2_0 2.427326 1_555
Na0_0 O2_4 2.427326 1_555
Na0_0 Na0_4 2.936720 1_555
Na0_0 Na0_4 2.936720 1_455
Na0_1 O3_0 2.254950 1_556
Na0_1 O2_1 2.427326 1_555
Na0_1 O2_5 2.427326 1_555
Na0_1 Na0_5 2.936720 1_555
Na0_1 Na0_5 2.936720 1_455
Na0_2 O3_3 2.254950 1_555
Na0_2 O2_2 2.427326 1_555
Na0_2 O2_6 2.427326 1_555
Na0_2 Na0_6 2.936720 1_555
Na0_2 Na0_6 2.936720 1_455
Na0_3 O3_2 2.254950 1_556
Na0_3 O2_3 2.427326 1_555
Na0_3 O2_7 2.427326 1_555
Na0_3 Na0_7 2.936720 1_555
Na0_3 Na0_7 2.936720 1_455
Na0_4 O3_5 2.254950 1_555
Na0_4 O2_4 2.427326 1_555
Na0_4 O2_0 2.427326 1_655
Na0_5 O3_4 2.254950 1_556
Na0_5 O2_5 2.427326 1_555
Na0_5 O2_1 2.427326 1_655
Na0_6 O3_7 2.254950 1_555
Na0_6 O2_6 2.427326 1_555
Na0_6 O2_2 2.427326 1_655
Na0_7 O3_6 2.254950 1_556
Na0_7 O2_7 2.427326 1_555
Na0_7 O2_3 2.427326 1_655
Na1_0 O3_0 2.272008 1_555
Na1_0 O3_4 2.272008 1_455
Na1_0 O1_0 2.814687 1_555
Na1_0 O1_4 2.814687 1_455
Na1_0 Na1_4 2.936720 1_455
Na1_0 Na1_4 2.936720 1_555
Na1_1 O3_1 2.272008 1_555
Na1_1 O3_5 2.272008 1_455
Na1_1 O1_1 2.814687 1_555
Na1_1 O1_5 2.814687 1_455
Na1_1 Na1_5 2.936720 1_455
Na1_1 Na1_5 2.936720 1_555
Na1_2 O3_2 2.272008 1_555
Na1_2 O3_6 2.272008 1_455
Na1_2 O1_2 2.814687 1_555
Na1_2 O1_6 2.814687 1_455
Na1_2 Na1_6 2.936720 1_455
Na1_2 Na1_6 2.936720 1_555
Na1_3 O3_3 2.272008 1_555
Na1_3 O3_7 2.272008 1_455
Na1_3 O1_3 2.814687 1_555
Na1_3 O1_7 2.814687 1_455
Na1_3 Na1_7 2.936720 1_555
Na1_3 Na1_7 2.936720 1_455
Na1_4 O3_4 2.272008 1_555
Na1_4 O3_0 2.272008 1_555
Na1_4 O1_4 2.814687 1_555
Na1_4 O1_0 2.814687 1_555
Na1_5 O3_5 2.272008 1_555
Na1_5 O3_1 2.272008 1_555
Na1_5 O1_5 2.814687 1_555
Na1_5 O1_1 2.814687 1_555
Na1_6 O3_6 2.272008 1_555
Na1_6 O3_2 2.272008 1_555
Na1_6 O1_6 2.814687 1_555
Na1_6 O1_2 2.814687 1_555
Na1_7 O3_7 2.272008 1_555
Na1_7 O3_3 2.272008 1_555
Na1_7 O1_7 2.814687 1_555
Na1_7 O1_3 2.814687 1_555
Na2_0 O0_0 2.263123 1_555
Na2_0 O0_4 2.263123 1_555
Na2_0 O1_0 2.321000 1_555
Na2_0 O3_0 2.408327 1_555
Na2_0 Na2_4 2.936720 1_555
Na2_0 Na2_4 2.936720 1_455
Na2_1 O0_1 2.263123 1_555
Na2_1 O0_5 2.263123 1_555
Na2_1 O1_1 2.321000 1_555
Na2_1 O3_1 2.408327 1_555
Na2_1 Na2_5 2.936720 1_555
Na2_1 Na2_5 2.936720 1_455
Na2_2 O0_2 2.263123 1_555
Na2_2 O0_6 2.263123 1_555
Na2_2 O1_2 2.321000 1_555
Na2_2 O3_2 2.408327 1_555
Na2_2 Na2_6 2.936720 1_555
Na2_2 Na2_6 2.936720 1_455
Na2_3 O0_3 2.263123 1_555
Na2_3 O0_7 2.263123 1_555
Na2_3 O1_3 2.321000 1_555
Na2_3 O3_3 2.408327 1_555
Na2_3 Na2_7 2.936720 1_555
Na2_3 Na2_7 2.936720 1_455
Na2_4 O0_4 2.263123 1_555
Na2_4 O0_0 2.263123 1_655
Na2_4 O1_4 2.321000 1_555
Na2_4 O3_4 2.408327 1_555
Na2_5 O0_5 2.263123 1_555
Na2_5 O0_1 2.263123 1_655
Na2_5 O1_5 2.321000 1_555
Na2_5 O3_5 2.408327 1_555
Na2_6 O0_6 2.263123 1_555
Na2_6 O0_2 2.263123 1_655
Na2_6 O1_6 2.321000 1_555
Na2_6 O3_6 2.408327 1_555
Na2_7 O0_7 2.263123 1_555
Na2_7 O0_3 2.263123 1_655
Na2_7 O1_7 2.321000 1_555
Na2_7 O3_7 2.408327 1_555
Na3_0 O0_2 2.340531 1_545
Na3_0 O1_0 2.443933 1_555
Na3_0 O1_4 2.443933 1_455
Na3_0 Na3_4 2.936720 1_455
Na3_0 Na3_4 2.936720 1_555
Na3_0 O0_0 3.004343 1_555
Na3_1 O0_3 2.340531 1_545
Na3_1 O1_1 2.443933 1_555
Na3_1 O1_5 2.443933 1_455
Na3_1 Na3_5 2.936720 1_455
Na3_1 Na3_5 2.936720 1_555
Na3_1 O0_1 3.004343 1_555
Na3_2 O0_0 2.340531 1_555
Na3_2 O1_2 2.443933 1_555
Na3_2 O1_6 2.443933 1_455
Na3_2 Na3_6 2.936720 1_555
Na3_2 Na3_6 2.936720 1_455
Na3_2 O0_2 3.004343 1_555
Na3_3 O0_1 2.340531 1_555
Na3_3 O1_3 2.443933 1_555
Na3_3 O1_7 2.443933 1_455
Na3_3 Na3_7 2.936720 1_555
Na3_3 Na3_7 2.936720 1_455
Na3_3 O0_3 3.004343 1_555
Na3_4 O0_6 2.340531 1_545
Na3_4 O1_4 2.443933 1_555
Na3_4 O1_0 2.443933 1_555
Na3_4 O0_4 3.004343 1_555
Na3_5 O0_7 2.340531 1_545
Na3_5 O1_5 2.443933 1_555
Na3_5 O1_1 2.443933 1_555
Na3_5 O0_5 3.004343 1_555
Na3_6 O0_4 2.340531 1_555
Na3_6 O1_6 2.443933 1_555
Na3_6 O1_2 2.443933 1_555
Na3_6 O0_6 3.004343 1_555
Na3_7 O0_5 2.340531 1_555
Na3_7 O1_7 2.443933 1_555
Na3_7 O1_3 2.443933 1_555
Na3_7 O0_7 3.004343 1_555
Mg0_0 O0_0 1.971481 1_555
Mg0_0 O0_4 1.971481 1_555
Mg0_0 O2_0 2.141333 1_555
Mg0_0 O2_4 2.141333 1_555
Mg0_1 O0_1 1.971481 1_555
Mg0_1 O0_5 1.971481 1_555
Mg0_1 O2_1 2.141333 1_555
Mg0_1 O2_5 2.141333 1_555
Mg0_2 O0_2 1.971481 1_555
Mg0_2 O0_6 1.971481 1_555
Mg0_2 O2_2 2.141333 1_555
Mg0_2 O2_6 2.141333 1_555
Mg0_3 O0_3 1.971481 1_555
Mg0_3 O0_7 1.971481 1_555
Mg0_3 O2_3 2.141333 1_555
Mg0_3 O2_7 2.141333 1_555
Mg0_4 O0_4 1.971481 1_555
Mg0_4 O0_0 1.971481 1_655
Mg0_4 O2_4 2.141333 1_555
Mg0_4 O2_0 2.141333 1_655
Mg0_5 O0_5 1.971481 1_555
Mg0_5 O0_1 1.971481 1_655
Mg0_5 O2_5 2.141333 1_555
Mg0_5 O2_1 2.141333 1_655
Mg0_6 O0_6 1.971481 1_555
Mg0_6 O0_2 1.971481 1_655
Mg0_6 O2_6 2.141333 1_555
Mg0_6 O2_2 2.141333 1_655
Mg0_7 O0_7 1.971481 1_555
Mg0_7 O0_3 1.971481 1_655
Mg0_7 O2_7 2.141333 1_555
Mg0_7 O2_3 2.141333 1_655
Cu0_0 O2_0 2.089651 1_555
Cu0_0 O2_4 2.089651 1_555
Cu0_0 Cu0_4 2.936720 1_555
Cu0_0 Cu0_4 2.936720 1_455
Cu0_0 Na0_2 3.041683 1_545
Cu0_1 O2_1 2.089651 1_555
Cu0_1 O2_5 2.089651 1_555
Cu0_1 Cu0_5 2.936720 1_555
Cu0_1 Cu0_5 2.936720 1_455
Cu0_1 Na0_3 3.041683 1_545
Cu0_2 O2_2 2.089651 1_555
Cu0_2 O2_6 2.089651 1_555
Cu0_2 Cu0_6 2.936720 1_555
Cu0_2 Cu0_6 2.936720 1_455
Cu0_2 Na0_0 3.041683 1_555
Cu0_3 O2_3 2.089651 1_555
Cu0_3 O2_7 2.089651 1_555
Cu0_3 Cu0_7 2.936720 1_555
Cu0_3 Cu0_7 2.936720 1_455
Cu0_3 Na0_1 3.041683 1_555
Cu0_4 O2_4 2.089651 1_555
Cu0_4 O2_0 2.089651 1_655
Cu0_4 Na0_6 3.041683 1_545
Cu0_5 O2_5 2.089651 1_555
Cu0_5 O2_1 2.089651 1_655
Cu0_5 Na0_7 3.041683 1_545
Cu0_6 O2_6 2.089651 1_555
Cu0_6 O2_2 2.089651 1_655
Cu0_6 Na0_4 3.041683 1_555
Cu0_7 O2_7 2.089651 1_555
Cu0_7 O2_3 2.089651 1_655
Cu0_7 Na0_5 3.041683 1_555
Cu1_0 O3_0 1.977345 1_555
Cu1_0 O3_4 1.977345 1_455
Cu1_0 O1_2 1.980709 1_555
Cu1_0 O1_6 1.980709 1_455
Cu1_0 Na1_2 2.716693 1_555
Cu1_0 Na2_4 2.900026 1_455
Cu1_0 Na2_0 2.900026 1_555
Cu1_1 O3_1 1.977345 1_555
Cu1_1 O3_5 1.977345 1_455
Cu1_1 O1_3 1.980709 1_555
Cu1_1 O1_7 1.980709 1_455
Cu1_1 Na1_3 2.716693 1_555
Cu1_1 Na2_1 2.900026 1_555
Cu1_1 Na2_5 2.900026 1_455
Cu1_2 O3_2 1.977345 1_555
Cu1_2 O3_6 1.977345 1_455
Cu1_2 O1_0 1.980709 1_565
Cu1_2 O1_4 1.980709 1_465
Cu1_2 Na1_0 2.716693 1_565
Cu1_2 Na2_6 2.900026 1_455
Cu1_2 Na2_2 2.900026 1_555
Cu1_3 O3_3 1.977345 1_555
Cu1_3 O3_7 1.977345 1_455
Cu1_3 O1_1 1.980709 1_565
Cu1_3 O1_5 1.980709 1_465
Cu1_3 Na1_1 2.716693 1_565
Cu1_3 Na2_3 2.900026 1_555
Cu1_3 Na2_7 2.900026 1_455
Cu1_4 O3_4 1.977345 1_555
Cu1_4 O3_0 1.977345 1_555
Cu1_4 O1_6 1.980709 1_555
Cu1_4 O1_2 1.980709 1_555
Cu1_4 Na1_6 2.716693 1_555
Cu1_4 Na2_4 2.900026 1_555
Cu1_4 Na2_0 2.900026 1_555
Cu1_5 O3_5 1.977345 1_555
Cu1_5 O3_1 1.977345 1_555
Cu1_5 O1_7 1.980709 1_555
Cu1_5 O1_3 1.980709 1_555
Cu1_5 Na1_7 2.716693 1_555
Cu1_5 Na2_5 2.900026 1_555
Cu1_5 Na2_1 2.900026 1_555
Cu1_6 O3_6 1.977345 1_555
Cu1_6 O3_2 1.977345 1_555
Cu1_6 O1_4 1.980709 1_565
Cu1_6 O1_0 1.980709 1_565
Cu1_6 Na1_4 2.716693 1_565
Cu1_6 Na2_6 2.900026 1_555
Cu1_6 Na2_2 2.900026 1_555
Cu1_7 O3_7 1.977345 1_555
Cu1_7 O3_3 1.977345 1_555
Cu1_7 O1_5 1.980709 1_565
Cu1_7 O1_1 1.980709 1_565
Cu1_7 Na1_5 2.716693 1_565
Cu1_7 Na2_7 2.900026 1_555
Cu1_7 Na2_3 2.900026 1_555
