# generated using pymatgen
data_MgMn6(O5F)2
_symmetry_space_group_name_H-M   'P 1'
_cell_length_a   12.00582951
_cell_length_b   6.41995153
_cell_length_c   2.97253860
_cell_angle_alpha   90.08599791
_cell_angle_beta   90.97599341
_cell_angle_gamma   108.81384219
_symmetry_Int_Tables_number   1
_chemical_formula_structural   MgMn6(O5F)2
_chemical_formula_sum   'Mg1 Mn6 O10 F2'
_cell_volume   216.83526703
_cell_formula_units_Z   1
loop_
 _symmetry_equiv_pos_site_id
 _symmetry_equiv_pos_as_xyz
  1  'x, y, z'
loop_
 _atom_site_type_symbol
 _atom_site_label
 _atom_site_symmetry_multiplicity
 _atom_site_fract_x
 _atom_site_fract_y
 _atom_site_fract_z
 _atom_site_occupancy
  Mg  Mg0  1  0.83036195  0.66025618  0.03796595  1
  Mn  Mn0  1  0.06182802  0.00839908  0.98780802  1
  Mn  Mn1  1  0.33934234  0.16799110  0.49822277  1
  Mn  Mn2  1  0.03369849  0.48287051  0.52354414  1
  Mn  Mn3  1  0.62562562  0.34118884  0.01982767  1
  Mn  Mn4  1  0.31953613  0.65726179  0.00789643  1
  Mn  Mn5  1  0.63158294  0.85653526  0.52047478  1
  O  O0  1  0.16757843  0.05733721  0.48714643  1
  O  O1  1  0.02159689  0.28388070  0.02223074  1
  O  O2  1  0.33806062  0.36337780  0.99964764  1
  O  O3  1  0.00166388  0.66162874  0.02437103  1
  O  O4  1  0.63788878  0.05113333  0.02098484  1
  O  O5  1  0.51937258  0.29187599  0.51277402  1
  O  O6  1  0.21466929  0.59921422  0.51599758  1
  O  O7  1  0.74746136  0.42866646  0.52845439  1
  O  O8  1  0.65957003  0.67749381  0.02230580  1
  O  O9  1  0.34501012  0.97546643  0.99928985  1
  F  F0  1  0.44446815  0.72611645  0.49708505  1
  F  F1  1  0.89193338  0.88638910  0.54480586  1
loop_
_geom_bond_atom_site_label_1
_geom_bond_atom_site_label_2
_geom_bond_distance
_geom_bond_site_symmetry_2
Mg0 O3 2.054884 1_655
Mg0 O8 2.088560 1_555
Mg0 O7 2.104378 1_555
Mg0 O7 2.117177 1_554
Mn0 O0 1.894973 1_556
Mn0 O0 1.932353 1_555
Mn0 O1 1.980846 1_556
Mn0 O3 2.110914 1_546
Mn1 O9 1.945272 1_544
Mn1 O2 1.946116 1_554
Mn1 O2 1.950106 1_555
Mn1 O9 1.951174 1_545
Mn1 O0 1.952184 1_555
Mn1 O5 2.047945 1_555
Mn2 O1 1.934151 1_555
Mn2 O1 1.934901 1_556
Mn2 O3 1.984187 1_555
Mn2 O3 1.995073 1_556
Mn2 O6 2.057678 1_555
Mn3 O4 1.914705 1_555
Mn3 O5 1.916213 1_554
Mn3 O5 1.918130 1_555
Mn3 O7 2.033015 1_555
Mn3 O7 2.033183 1_554
Mn3 O8 2.063981 1_555
Mn4 O6 1.869496 1_554
Mn4 O6 1.941391 1_555
Mn4 O9 1.965937 1_554
Mn4 O2 1.969891 1_554
Mn5 O4 1.926030 1_566
Mn5 O4 1.928573 1_565
Mn5 O8 1.971777 1_555
Mn5 O8 1.973954 1_556
O4 O7 2.783073 1_555
O4 O7 2.787173 1_554
F0 Mn4 2.013893 1_555
F0 Mn4 2.098251 1_556
F0 Mn5 2.129277 1_555
F0 O2 2.692219 1_554
F0 O9 2.712525 1_554
F0 O2 2.728274 1_555
F0 O9 2.739232 1_555
F1 Mg0 2.038174 1_556
F1 Mg0 2.046269 1_555
F1 Mn0 2.320130 1_665
F1 Mn0 2.569788 1_664
