# generated using pymatgen
data_MgNb4VO12
_symmetry_space_group_name_H-M   'P 1'
_cell_length_a   5.73413889
_cell_length_b   11.33576586
_cell_length_c   9.99130206
_cell_angle_alpha   27.84099967
_cell_angle_beta   49.83865192
_cell_angle_gamma   55.25258651
_symmetry_Int_Tables_number   1
_chemical_formula_structural   MgNb4VO12
_chemical_formula_sum   'Mg1 Nb4 V1 O12'
_cell_volume   231.79326521
_cell_formula_units_Z   1
loop_
 _symmetry_equiv_pos_site_id
 _symmetry_equiv_pos_as_xyz
  1  'x, y, z'
loop_
 _atom_site_type_symbol
 _atom_site_label
 _atom_site_symmetry_multiplicity
 _atom_site_fract_x
 _atom_site_fract_y
 _atom_site_fract_z
 _atom_site_occupancy
  Mg  Mg0  1  0.79507100  0.99912300  0.78735800  1
  Nb  Nb0  1  0.02837100  0.01565600  0.96979600  1
  Nb  Nb1  1  0.98108500  0.48954500  0.01749400  1
  Nb  Nb2  1  0.52421000  0.98288400  0.50470400  1
  Nb  Nb3  1  0.48384500  0.50900900  0.49718700  1
  V  V0  1  0.29420100  0.99969300  0.29326900  1
  O  O0  1  0.32866000  0.29305000  0.12905600  1
  O  O1  1  0.20654800  0.08938700  0.64132900  1
  O  O2  1  0.13442400  0.31353900  0.71372400  1
  O  O3  1  0.86079800  0.18188900  0.24016300  1
  O  O4  1  0.37329700  0.82214800  0.09152600  1
  O  O5  1  0.73408000  0.36043200  0.37707100  1
  O  O6  1  0.22867100  0.63060300  0.60762700  1
  O  O7  1  0.60695300  0.18480000  0.85329600  1
  O  O8  1  0.09725500  0.81640900  0.72660500  1
  O  O9  1  0.82108900  0.71178000  0.21123900  1
  O  O10  1  0.71484200  0.90349900  0.32660200  1
  O  O11  1  0.63161200  0.68464600  0.84625500  1
loop_
_geom_bond_atom_site_label_1
_geom_bond_atom_site_label_2
_geom_bond_distance
_geom_bond_site_symmetry_2
Mg0 O5 2.055636 1_565
Mg0 O4 2.092289 1_556
Mg0 O1 2.101003 1_665
Mg0 O9 2.105502 1_556
Mg0 O8 2.106287 1_655
Mg0 O7 2.230532 1_565
Nb0 O2 1.836647 1_555
Nb0 O4 1.908398 1_546
Nb0 O10 1.969869 1_446
Nb0 O1 2.076120 1_555
Nb0 O7 2.295678 1_455
Nb0 O9 2.317521 1_446
Nb1 O5 1.885656 1_555
Nb1 O0 1.894810 1_655
Nb1 O8 1.972639 1_654
Nb1 O11 2.124332 1_554
Nb1 O3 2.151573 1_555
Nb1 O6 2.202404 1_654
Nb2 O11 1.840829 1_555
Nb2 O3 1.907459 1_565
Nb2 O1 1.959420 1_565
Nb2 O10 2.091125 1_555
Nb2 O0 2.302823 1_565
Nb2 O8 2.310068 1_555
Nb3 O9 1.874089 1_555
Nb3 O6 1.888541 1_555
Nb3 O7 1.954902 1_555
Nb3 O2 2.143942 1_555
Nb3 O4 2.176007 1_555
Nb3 O5 2.221349 1_555
O0 V0 2.114543 1_545
O1 O9 2.660303 1_446
O3 V0 2.152966 1_645
O6 V0 2.131013 1_555
O7 V0 2.179741 1_546
O8 V0 2.190160 1_555
O10 V0 2.124510 1_555
