# generated using pymatgen
data_MgTi(FeO2)4
_symmetry_space_group_name_H-M   'P 1'
_cell_length_a   6.20826339
_cell_length_b   6.26783869
_cell_length_c   6.36761788
_cell_angle_alpha   56.27236797
_cell_angle_beta   55.34228872
_cell_angle_gamma   55.66043114
_symmetry_Int_Tables_number   1
_chemical_formula_structural   MgTi(FeO2)4
_chemical_formula_sum   'Mg1 Ti1 Fe4 O8'
_cell_volume   157.94625744
_cell_formula_units_Z   1
loop_
 _symmetry_equiv_pos_site_id
 _symmetry_equiv_pos_as_xyz
  1  'x, y, z'
loop_
 _atom_site_type_symbol
 _atom_site_label
 _atom_site_symmetry_multiplicity
 _atom_site_fract_x
 _atom_site_fract_y
 _atom_site_fract_z
 _atom_site_occupancy
  Mg  Mg0  1  0.00000000  0.00000000  0.00000000  1
  Ti  Ti0  1  0.50000000  0.50000000  0.00000000  1
  Fe  Fe0  1  0.18013900  0.14157100  0.14779700  1
  Fe  Fe1  1  0.50000000  0.00000000  0.50000000  1
  Fe  Fe2  1  0.50000000  0.50000000  0.50000000  1
  Fe  Fe3  1  0.81986100  0.85842900  0.85220300  1
  O  O0  1  0.26492400  0.28157700  0.27233300  1
  O  O1  1  0.27291400  0.76009900  0.20516000  1
  O  O2  1  0.28183700  0.23635700  0.77636200  1
  O  O3  1  0.75633300  0.24616600  0.22782600  1
  O  O4  1  0.24366700  0.75383400  0.77217400  1
  O  O5  1  0.71816300  0.76364300  0.22363800  1
  O  O6  1  0.72708600  0.23990100  0.79484000  1
  O  O7  1  0.73507600  0.71842300  0.72766700  1
loop_
_geom_bond_atom_site_label_1
_geom_bond_atom_site_label_2
_geom_bond_distance
_geom_bond_site_symmetry_2
Mg0 O3 2.032242 1_455
Mg0 O4 2.032242 1_544
Mg0 O1 2.073670 1_545
Mg0 O6 2.073670 1_454
Mg0 O2 2.243183 1_554
Mg0 O5 2.243183 1_445
Fe0 O0 1.855965 1_555
Fe0 O2 1.873486 1_554
Fe0 O1 1.974285 1_545
Fe0 O3 2.124190 1_455
Fe1 O7 2.001371 1_545
Fe1 O0 2.001371 1_555
Fe1 O3 2.140229 1_555
Fe1 O4 2.140229 1_545
Fe1 O2 2.246428 1_555
Fe1 O5 2.246428 1_545
Fe2 O5 2.060787 1_555
Fe2 O2 2.060787 1_555
Fe2 O4 2.266302 1_555
Fe2 O3 2.266302 1_555
Fe2 O1 2.277834 1_555
Fe2 O6 2.277834 1_555
Fe3 O7 1.855965 1_555
Fe3 O5 1.873486 1_556
Fe3 O6 1.974285 1_565
Fe3 O4 2.124190 1_655
O0 Ti0 1.936664 1_555
O1 Ti0 2.007312 1_555
O3 Ti0 2.091528 1_555
O4 Ti0 2.091528 1_556
O6 Ti0 2.007312 1_556
O7 Ti0 1.936664 1_556
