# generated using pymatgen
data_BaB8O13
_symmetry_space_group_name_H-M   'P 1'
_cell_length_a   8.65389511
_cell_length_b   8.65389511
_cell_length_c   13.10523069
_cell_angle_alpha   90.00000000
_cell_angle_beta   90.00000000
_cell_angle_gamma   90.00000000
_symmetry_Int_Tables_number   1
_chemical_formula_structural   BaB8O13
_chemical_formula_sum   'Ba4 B32 O52'
_cell_volume   981.44942338
_cell_formula_units_Z   4
loop_
 _symmetry_equiv_pos_site_id
 _symmetry_equiv_pos_as_xyz
  1  'x, y, z'
loop_
 _atom_site_type_symbol
 _atom_site_label
 _atom_site_symmetry_multiplicity
 _atom_site_fract_x
 _atom_site_fract_y
 _atom_site_fract_z
 _atom_site_occupancy
  Ba  Ba0  1  0.00000000  0.53230924  0.50000000  1
  Ba  Ba1  1  0.46769076  -0.00000000  0.75000000  1
  Ba  Ba2  1  0.53230924  -0.00000000  0.25000000  1
  Ba  Ba3  1  0.00000000  0.46769076  -0.00000000  1
  B  B0  1  0.78200625  0.07546670  0.99754482  1
  B  B1  1  0.21799375  0.92453330  0.49754482  1
  B  B2  1  0.07546670  0.78200625  0.75245518  1
  B  B3  1  0.07546670  0.21799375  0.74754482  1
  B  B4  1  0.92453330  0.78200625  0.24754482  1
  B  B5  1  0.21799375  0.07546670  0.00245518  1
  B  B6  1  0.78200625  0.92453330  0.50245518  1
  B  B7  1  0.92453330  0.21799375  0.25245518  1
  B  B8  1  0.73634836  0.81163749  0.03465629  1
  B  B9  1  0.26365164  0.18836251  0.53465629  1
  B  B10  1  0.81163749  0.73634836  0.71534371  1
  B  B11  1  0.81163749  0.26365164  0.78465629  1
  B  B12  1  0.18836251  0.73634836  0.28465629  1
  B  B13  1  0.26365164  0.81163749  0.96534371  1
  B  B14  1  0.73634836  0.18836251  0.46534371  1
  B  B15  1  0.18836251  0.26365164  0.21534371  1
  B  B16  1  0.62964995  0.56200463  0.11190320  1
  B  B17  1  0.37035005  0.43799537  0.61190320  1
  B  B18  1  0.56200463  0.62964995  0.63809680  1
  B  B19  1  0.56200463  0.37035005  0.86190320  1
  B  B20  1  0.43799537  0.62964995  0.36190320  1
  B  B21  1  0.37035005  0.56200463  0.88809680  1
  B  B22  1  0.62964995  0.43799537  0.38809680  1
  B  B23  1  0.43799537  0.37035005  0.13809680  1
  B  B24  1  0.87234334  0.87234334  0.87500000  1
  B  B25  1  0.12765666  0.87234334  0.12500000  1
  B  B26  1  0.87234334  0.12765666  0.62500000  1
  B  B27  1  0.12765666  0.12765666  0.37500000  1
  B  B28  1  0.28510502  0.71489498  0.62500000  1
  B  B29  1  0.28510502  0.28510502  0.87500000  1
  B  B30  1  0.71489498  0.71489498  0.37500000  1
  B  B31  1  0.71489498  0.28510502  0.12500000  1
  O  O0  1  0.69919299  0.96546951  0.05241726  1
  O  O1  1  0.30080701  0.03453049  0.55241726  1
  O  O2  1  0.96546951  0.69919299  0.69758274  1
  O  O3  1  0.96546951  0.30080701  0.80241726  1
  O  O4  1  0.03453049  0.69919299  0.30241726  1
  O  O5  1  0.30080701  0.96546951  0.94758274  1
  O  O6  1  0.69919299  0.03453049  0.44758274  1
  O  O7  1  0.03453049  0.30080701  0.19758274  1
  O  O8  1  0.85082573  0.03270841  0.90884675  1
  O  O9  1  0.14917427  0.96729159  0.40884675  1
  O  O10  1  0.03270841  0.85082573  0.84115325  1
  O  O11  1  0.03270841  0.14917427  0.65884675  1
  O  O12  1  0.96729159  0.85082573  0.15884675  1
  O  O13  1  0.14917427  0.03270841  0.09115325  1
  O  O14  1  0.85082573  0.96729159  0.59115325  1
  O  O15  1  0.96729159  0.14917427  0.34115325  1
  O  O16  1  0.83351499  0.76398651  0.95997295  1
  O  O17  1  0.16648501  0.23601349  0.45997295  1
  O  O18  1  0.76398651  0.83351499  0.79002705  1
  O  O19  1  0.76398651  0.16648501  0.70997295  1
  O  O20  1  0.23601349  0.83351499  0.20997295  1
  O  O21  1  0.16648501  0.76398651  0.04002705  1
  O  O22  1  0.83351499  0.23601349  0.54002705  1
  O  O23  1  0.23601349  0.16648501  0.29002705  1
  O  O24  1  0.74400309  0.45504673  0.12004108  1
  O  O25  1  0.25599691  0.54495327  0.62004108  1
  O  O26  1  0.45504673  0.74400309  0.62995892  1
  O  O27  1  0.45504673  0.25599691  0.87004108  1
  O  O28  1  0.54495327  0.74400309  0.37004108  1
  O  O29  1  0.25599691  0.45504673  0.87995892  1
  O  O30  1  0.74400309  0.54495327  0.37995892  1
  O  O31  1  0.54495327  0.25599691  0.12995892  1
  O  O32  1  0.78716241  0.22308984  0.03297713  1
  O  O33  1  0.21283759  0.77691016  0.53297713  1
  O  O34  1  0.22308984  0.78716241  0.71702287  1
  O  O35  1  0.22308984  0.21283759  0.78297713  1
  O  O36  1  0.77691016  0.78716241  0.28297713  1
  O  O37  1  0.21283759  0.22308984  0.96702287  1
  O  O38  1  0.78716241  0.77691016  0.46702287  1
  O  O39  1  0.77691016  0.21283759  0.21702287  1
  O  O40  1  0.65330391  0.71417284  0.09479708  1
  O  O41  1  0.34669609  0.28582716  0.59479708  1
  O  O42  1  0.71417284  0.65330391  0.65520292  1
  O  O43  1  0.71417284  0.34669609  0.84479708  1
  O  O44  1  0.28582716  0.65330391  0.34479708  1
  O  O45  1  0.34669609  0.71417284  0.90520292  1
  O  O46  1  0.65330391  0.28582716  0.40520292  1
  O  O47  1  0.28582716  0.34669609  0.15520292  1
  O  O48  1  0.52250326  0.47749674  0.62500000  1
  O  O49  1  0.52250326  0.52250326  0.87500000  1
  O  O50  1  0.47749674  0.47749674  0.37500000  1
  O  O51  1  0.47749674  0.52250326  0.12500000  1
loop_
_geom_bond_atom_site_label_1
_geom_bond_atom_site_label_2
_geom_bond_distance
_geom_bond_site_symmetry_2
Ba0 O30 2.719318 1_455
Ba0 O25 2.719318 1_555
Ba0 O33 2.838998 1_555
Ba0 O38 2.838998 1_455
Ba0 O4 2.979902 1_555
Ba0 O2 2.979902 1_455
Ba0 O22 2.987571 1_455
Ba0 O17 2.987571 1_555
Ba0 O44 3.369227 1_555
Ba0 O42 3.369227 1_455
Ba1 O27 2.719318 1_555
Ba1 O26 2.719318 1_545
Ba1 O34 2.838998 1_545
Ba1 O35 2.838998 1_555
Ba1 O5 2.979902 1_545
Ba1 O1 2.979902 1_555
Ba1 O19 2.987571 1_555
Ba1 O18 2.987571 1_545
Ba1 O45 3.369227 1_545
Ba1 O41 3.369227 1_555
Ba2 O28 2.719318 1_545
Ba2 O31 2.719318 1_555
Ba2 O39 2.838998 1_555
Ba2 O36 2.838998 1_545
Ba2 O0 2.979902 1_545
Ba2 O6 2.979902 1_555
Ba2 O20 2.987571 1_545
Ba2 O23 2.987571 1_555
Ba2 O40 3.369227 1_545
Ba2 O46 3.369227 1_555
Ba3 O24 2.719318 1_455
Ba3 O29 2.719318 1_554
Ba3 O32 2.838998 1_455
Ba3 O37 2.838998 1_554
Ba3 O7 2.979902 1_555
Ba3 O3 2.979902 1_454
Ba3 O16 2.987571 1_454
Ba3 O21 2.987571 1_555
Ba3 O43 3.369227 1_454
Ba3 O47 3.369227 1_555
B0 O8 1.357498 1_555
B0 O32 1.360020 1_556
B0 O0 1.391706 1_546
B1 O9 1.357498 1_555
B1 O33 1.360020 1_555
B1 O1 1.391706 1_565
B2 O10 1.357498 1_555
B2 O34 1.360020 1_555
B2 O2 1.391706 1_455
B3 O11 1.357498 1_555
B3 O35 1.360020 1_555
B3 O3 1.391706 1_455
B4 O12 1.357498 1_555
B4 O36 1.360020 1_555
B4 O4 1.391706 1_655
B5 O13 1.357498 1_555
B5 O37 1.360020 1_554
B5 O5 1.391706 1_544
B6 O14 1.357498 1_555
B6 O38 1.360020 1_555
B6 O6 1.391706 1_565
B7 O15 1.357498 1_555
B7 O39 1.360020 1_555
B7 O7 1.391706 1_655
B8 O16 1.354638 1_554
B8 O40 1.359805 1_555
B8 O0 1.389166 1_555
B9 O17 1.354638 1_555
B9 O41 1.359805 1_555
B9 O1 1.389166 1_555
B10 O18 1.354638 1_555
B10 O42 1.359805 1_555
B10 O2 1.389166 1_555
B11 O19 1.354638 1_555
B11 O43 1.359805 1_555
B11 O3 1.389166 1_555
B12 O20 1.354638 1_555
B12 O44 1.359805 1_555
B12 O4 1.389166 1_555
B13 O21 1.354638 1_556
B13 O45 1.359805 1_555
B13 O5 1.389166 1_555
B14 O22 1.354638 1_555
B14 O46 1.359805 1_555
B14 O6 1.389166 1_555
B15 O23 1.354638 1_555
B15 O47 1.359805 1_555
B15 O7 1.389166 1_555
B16 O40 1.351387 1_555
B16 O24 1.359199 1_555
B16 O51 1.371153 1_555
B17 O41 1.351387 1_555
B17 O25 1.359199 1_555
B17 O48 1.371153 1_555
B18 O42 1.351387 1_555
B18 O26 1.359199 1_555
B18 O48 1.371153 1_555
B19 O43 1.351387 1_555
B19 O27 1.359199 1_555
B19 O49 1.371153 1_555
B20 O44 1.351387 1_555
B20 O28 1.359199 1_555
B20 O50 1.371153 1_555
B21 O45 1.351387 1_555
B21 O29 1.359199 1_555
B21 O49 1.371153 1_555
B22 O46 1.351387 1_555
B22 O30 1.359199 1_555
B22 O50 1.371153 1_555
B23 O47 1.351387 1_555
B23 O31 1.359199 1_555
B23 O51 1.371153 1_555
B24 O10 1.468798 1_655
B24 O8 1.468798 1_565
B24 O18 1.494084 1_555
B24 O16 1.494084 1_555
B25 O13 1.468798 1_565
B25 O12 1.468798 1_455
B25 O21 1.494084 1_555
B25 O20 1.494084 1_555
B26 O11 1.468798 1_655
B26 O14 1.468798 1_545
B26 O22 1.494084 1_555
B26 O19 1.494084 1_555
B27 O15 1.468798 1_455
B27 O9 1.468798 1_545
B27 O23 1.494084 1_555
B27 O17 1.494084 1_555
B28 O34 1.460660 1_555
B28 O33 1.460660 1_555
B28 O25 1.493489 1_555
B28 O26 1.493489 1_555
B29 O35 1.460660 1_555
B29 O37 1.460660 1_555
B29 O29 1.493489 1_555
B29 O27 1.493489 1_555
B30 O36 1.460660 1_555
B30 O38 1.460660 1_555
B30 O30 1.493489 1_555
B30 O28 1.493489 1_555
B31 O32 1.460660 1_555
B31 O39 1.460660 1_555
B31 O24 1.493489 1_555
B31 O31 1.493489 1_555
