# generated using pymatgen
data_MgTi4Cr2O10
_symmetry_space_group_name_H-M   'P 1'
_cell_length_a   5.22660644
_cell_length_b   6.03507206
_cell_length_c   7.33868761
_cell_angle_alpha   106.85851294
_cell_angle_beta   90.59750615
_cell_angle_gamma   117.46822798
_symmetry_Int_Tables_number   1
_chemical_formula_structural   MgTi4Cr2O10
_chemical_formula_sum   'Mg1 Ti4 Cr2 O10'
_cell_volume   193.70621578
_cell_formula_units_Z   1
loop_
 _symmetry_equiv_pos_site_id
 _symmetry_equiv_pos_as_xyz
  1  'x, y, z'
loop_
 _atom_site_type_symbol
 _atom_site_label
 _atom_site_symmetry_multiplicity
 _atom_site_fract_x
 _atom_site_fract_y
 _atom_site_fract_z
 _atom_site_occupancy
  Mg  Mg0  1  0.50012100  0.50006900  0.00000100  1
  Ti  Ti0  1  0.62707000  0.24895200  0.22161700  1
  Ti  Ti1  1  0.34417100  0.75256800  0.30379700  1
  Ti  Ti2  1  0.65581200  0.24735900  0.69620400  1
  Ti  Ti3  1  0.37287300  0.75097700  0.77838200  1
  Cr  Cr0  1  0.99996800  0.00003900  0.99996500  1
  Cr  Cr1  1  0.00004800  0.00001800  0.50004500  1
  O  O0  1  0.79637200  0.00251800  0.74669100  1
  O  O1  1  0.20359800  0.99749400  0.25331500  1
  O  O2  1  0.26190900  0.84652800  0.56170800  1
  O  O3  1  0.42691700  0.14213700  0.93707300  1
  O  O4  1  0.73809400  0.15346600  0.43830400  1
  O  O5  1  0.57310500  0.85791300  0.06292200  1
  O  O6  1  0.41649100  0.43762800  0.71213600  1
  O  O7  1  0.97650100  0.57589700  0.82598000  1
  O  O8  1  0.58352100  0.56238500  0.28786100  1
  O  O9  1  0.02342900  0.42405100  0.17400000  1
loop_
_geom_bond_atom_site_label_1
_geom_bond_atom_site_label_2
_geom_bond_distance
_geom_bond_site_symmetry_2
Mg0 O5 1.918493 1_555
Mg0 O3 1.918630 1_554
Mg0 O8 2.040322 1_555
Mg0 O6 2.040338 1_554
Cr0 O5 2.100649 1_546
Cr0 O3 2.100879 1_655
Cr0 O0 2.139367 1_555
Cr0 O1 2.140132 1_646
Cr0 O9 2.450725 1_656
Cr0 O7 2.451314 1_545
Cr1 O2 2.082265 1_545
Cr1 O4 2.082672 1_455
Cr1 O0 2.109250 1_455
Cr1 O1 2.109439 1_545
Cr1 O6 2.525307 1_555
Cr1 O8 2.525743 1_445
O0 Ti2 2.042961 1_555
O0 Ti3 2.091348 1_545
O1 Ti1 2.043477 1_555
O1 Ti0 2.091127 1_565
O2 Ti1 1.925667 1_555
O2 Ti3 2.004609 1_555
O2 Ti2 2.245644 1_565
O3 Ti0 2.102849 1_556
O3 Ti3 2.189121 1_545
O3 Ti2 2.225638 1_555
O3 O5 2.547995 1_546
O4 Ti2 1.925588 1_555
O4 Ti0 2.004567 1_555
O4 Ti1 2.245910 1_545
O5 Ti3 2.102811 1_554
O5 Ti0 2.188650 1_565
O5 Ti1 2.225960 1_555
O6 Ti3 1.931656 1_555
O6 Ti2 2.036425 1_555
O7 Ti2 1.858313 1_555
O7 Ti3 1.933941 1_655
O8 Ti0 1.931937 1_555
O8 Ti1 2.036124 1_555
O9 Ti1 1.858391 1_555
O9 Ti0 1.933946 1_455
