# generated using pymatgen
data_KBiP2S7
_symmetry_space_group_name_H-M   'P 1'
_cell_length_a   12.74412400
_cell_length_b   9.23819800
_cell_length_c   9.77734716
_cell_angle_alpha   89.57882243
_cell_angle_beta   90.00000000
_cell_angle_gamma   90.00000000
_symmetry_Int_Tables_number   1
_chemical_formula_structural   KBiP2S7
_chemical_formula_sum   'K4 Bi4 P8 S28'
_cell_volume   1151.08277909
_cell_formula_units_Z   4
loop_
 _symmetry_equiv_pos_site_id
 _symmetry_equiv_pos_as_xyz
  1  'x, y, z'
loop_
 _atom_site_type_symbol
 _atom_site_label
 _atom_site_symmetry_multiplicity
 _atom_site_fract_x
 _atom_site_fract_y
 _atom_site_fract_z
 _atom_site_occupancy
  K  K0  1  0.68835100  0.62600600  0.88816200  1
  K  K1  1  0.18835100  0.87399400  0.11183800  1
  K  K2  1  0.31164900  0.37399400  0.11183800  1
  K  K3  1  0.81164900  0.12600600  0.88816200  1
  Bi  Bi0  1  0.63697900  0.37360100  0.34831400  1
  Bi  Bi1  1  0.13697900  0.12639900  0.65168600  1
  Bi  Bi2  1  0.36302100  0.62639900  0.65168600  1
  Bi  Bi3  1  0.86302100  0.87360100  0.34831400  1
  P  P0  1  0.60873400  0.01692100  0.22778800  1
  P  P1  1  0.10873400  0.48307900  0.77221200  1
  P  P2  1  0.39126600  0.98307900  0.77221200  1
  P  P3  1  0.89126600  0.51692100  0.22778800  1
  P  P4  1  0.53417200  0.30203700  0.67915900  1
  P  P5  1  0.03417200  0.19796300  0.32084100  1
  P  P6  1  0.46582800  0.69796300  0.32084100  1
  P  P7  1  0.96582800  0.80203700  0.67915900  1
  S  S0  1  0.81123200  0.84472600  0.65539600  1
  S  S1  1  0.31123200  0.65527400  0.34460400  1
  S  S2  1  0.18876800  0.15527400  0.34460400  1
  S  S3  1  0.68876800  0.34472600  0.65539600  1
  S  S4  1  0.71092400  0.89039300  0.12384400  1
  S  S5  1  0.21092400  0.60960700  0.87615600  1
  S  S6  1  0.28907600  0.10960700  0.87615600  1
  S  S7  1  0.78907600  0.39039300  0.12384400  1
  S  S8  1  0.96863400  0.06976200  0.17401500  1
  S  S9  1  0.46863400  0.43023800  0.82598500  1
  S  S10  1  0.03136600  0.93023800  0.82598500  1
  S  S11  1  0.53136600  0.56976200  0.17401500  1
  S  S12  1  0.82468200  0.56942100  0.41002400  1
  S  S13  1  0.32468200  0.93057900  0.58997600  1
  S  S14  1  0.17531800  0.43057900  0.58997600  1
  S  S15  1  0.67531800  0.06942100  0.41002400  1
  S  S16  1  0.05038500  0.81561100  0.50274800  1
  S  S17  1  0.55038500  0.68438900  0.49725200  1
  S  S18  1  0.94961500  0.18438900  0.49725200  1
  S  S19  1  0.44961500  0.31561100  0.50274800  1
  S  S20  1  0.45748900  0.91722100  0.24878800  1
  S  S21  1  0.95748900  0.58277900  0.75121200  1
  S  S22  1  0.54251100  0.08277900  0.75121200  1
  S  S23  1  0.04251100  0.41722100  0.24878800  1
  S  S24  1  0.94231900  0.70257100  0.13363000  1
  S  S25  1  0.44231900  0.79742900  0.86637000  1
  S  S26  1  0.05768100  0.29742900  0.86637000  1
  S  S27  1  0.55768100  0.20257100  0.13363000  1
loop_
_geom_bond_atom_site_label_1
_geom_bond_atom_site_label_2
_geom_bond_distance
_geom_bond_site_symmetry_2
K0 S4 3.382472 1_556
K0 S9 3.390742 1_555
K0 S7 3.409074 1_556
K0 S0 3.412762 1_555
K0 S3 3.466800 1_555
K0 S11 3.473118 1_556
K0 S25 3.518448 1_555
K0 S21 3.704684 1_555
K0 S24 4.094016 1_556
K0 S17 4.237950 1_555
K1 S5 3.382472 1_554
K1 S8 3.390742 1_465
K1 S6 3.409074 1_564
K1 S1 3.412762 1_555
K1 S2 3.466800 1_565
K1 S10 3.473118 1_554
K1 S24 3.518448 1_455
K1 S20 3.704684 1_555
K1 S25 4.094016 1_554
K1 S16 4.237950 1_555
K2 S6 3.382472 1_554
K2 S11 3.390742 1_555
K2 S5 3.409074 1_554
K2 S2 3.412762 1_555
K2 S1 3.466800 1_555
K2 S9 3.473118 1_554
K2 S27 3.518448 1_555
K2 S23 3.704684 1_555
K2 S26 4.094016 1_554
K2 S19 4.237950 1_555
K3 S7 3.382472 1_556
K3 S10 3.390742 1_645
K3 S4 3.409074 1_546
K3 S3 3.412762 1_555
K3 S0 3.466800 1_545
K3 S8 3.473118 1_556
K3 S26 3.518448 1_655
K3 S22 3.704684 1_555
K3 S27 4.094016 1_556
K3 S18 4.237950 1_555
Bi0 S11 2.820350 1_555
Bi0 S27 2.823550 1_555
Bi0 S19 2.873432 1_555
Bi0 S15 2.911076 1_555
Bi0 S7 2.931388 1_555
Bi0 S12 3.061838 1_555
Bi0 S3 3.083777 1_555
Bi0 S17 3.412218 1_555
Bi1 S10 2.820350 1_545
Bi1 S26 2.823550 1_555
Bi1 S18 2.873432 1_455
Bi1 S14 2.911076 1_555
Bi1 S6 2.931388 1_555
Bi1 S13 3.061838 1_545
Bi1 S2 3.083777 1_555
Bi1 S16 3.412218 1_545
Bi2 S9 2.820350 1_555
Bi2 S25 2.823550 1_555
Bi2 S17 2.873432 1_555
Bi2 S13 2.911076 1_555
Bi2 S5 2.931388 1_555
Bi2 S14 3.061838 1_555
Bi2 S1 3.083777 1_555
Bi2 S19 3.412218 1_555
Bi3 S8 2.820350 1_565
Bi3 S24 2.823550 1_555
Bi3 S16 2.873432 1_655
Bi3 S12 2.911076 1_555
Bi3 S4 2.931388 1_555
Bi3 S15 3.061838 1_565
Bi3 S0 3.083777 1_555
Bi3 S18 3.412218 1_565
P0 S4 2.027972 1_545
P0 S15 2.035371 1_555
P0 S27 2.046730 1_555
P0 S20 2.145439 1_545
P1 S5 2.027972 1_555
P1 S14 2.035371 1_555
P1 S26 2.046730 1_555
P1 S21 2.145439 1_455
P2 S6 2.027972 1_565
P2 S13 2.035371 1_555
P2 S25 2.046730 1_555
P2 S22 2.145439 1_565
P3 S7 2.027972 1_555
P3 S12 2.035371 1_555
P3 S24 2.046730 1_555
P3 S23 2.145439 1_655
P4 S3 2.022329 1_555
P4 S19 2.036866 1_555
P4 S9 2.046003 1_555
P4 S22 2.142304 1_555
P5 S2 2.022329 1_555
P5 S18 2.036866 1_455
P5 S8 2.046003 1_455
P5 S23 2.142304 1_555
P6 S1 2.022329 1_555
P6 S17 2.036866 1_555
P6 S11 2.046003 1_555
P6 S20 2.142304 1_555
P7 S0 2.022329 1_555
P7 S16 2.036866 1_655
P7 S10 2.046003 1_655
P7 S21 2.142304 1_555
