# generated using pymatgen
data_Na4MgMn2O6
_symmetry_space_group_name_H-M   'P 1'
_cell_length_a   7.69180788
_cell_length_b   6.67105614
_cell_length_c   12.35577922
_cell_angle_alpha   67.56393096
_cell_angle_beta   159.33231411
_cell_angle_gamma   122.99513772
_symmetry_Int_Tables_number   1
_chemical_formula_structural   Na4MgMn2O6
_chemical_formula_sum   'Na4 Mg1 Mn2 O6'
_cell_volume   169.26765904
_cell_formula_units_Z   1
loop_
 _symmetry_equiv_pos_site_id
 _symmetry_equiv_pos_as_xyz
  1  'x, y, z'
loop_
 _atom_site_type_symbol
 _atom_site_label
 _atom_site_symmetry_multiplicity
 _atom_site_fract_x
 _atom_site_fract_y
 _atom_site_fract_z
 _atom_site_occupancy
  Na  Na0  1  0.48663581  0.52220165  -0.00235076  1
  Na  Na1  1  0.05095502  0.09749997  0.21949577  1
  Na  Na2  1  0.92039364  0.88987877  0.73398435  1
  Na  Na3  1  0.23810187  0.62883277  0.16908598  1
  Mg  Mg0  1  0.40444152  0.21919717  0.62662962  1
  Mn  Mn0  1  0.31948658  0.77564565  0.64034864  1
  Mn  Mn1  1  0.65107519  0.19514794  0.33608285  1
  O  O0  1  0.26929017  0.12931478  0.72408339  1
  O  O1  1  0.73692668  0.85592752  0.24746390  1
  O  O2  1  0.22072505  0.48209755  0.50504112  1
  O  O3  1  0.04890962  0.85879482  0.12588308  1
  O  O4  1  0.90856304  0.13907479  0.84580437  1
  O  O5  1  0.78604080  0.46723964  0.47752369  1
loop_
_geom_bond_atom_site_label_1
_geom_bond_atom_site_label_2
_geom_bond_distance
_geom_bond_site_symmetry_2
Na0 O5 2.305534 1_454
Na0 O2 2.319647 1_655
Na0 O4 2.344188 1_454
Na0 O3 2.360700 1_655
Na0 O1 2.765412 1_555
Na0 Na1 2.950484 1_665
Na1 O0 2.278621 1_454
Na1 O3 2.284397 1_545
Na1 O5 2.301810 1_555
Na1 O1 2.334135 1_445
Na1 O4 2.756300 1_555
Na2 O0 2.358983 1_665
Na2 O1 2.374169 1_656
Na2 O2 2.409563 1_555
Na2 O4 2.614180 1_565
Na2 O3 2.618706 1_555
Na2 Na3 3.173371 1_555
Na3 O3 2.260268 1_555
Na3 O5 2.281428 1_555
Na3 O1 2.406321 1_555
Na3 O0 2.671035 1_454
Na3 O2 2.674661 1_454
Na3 O0 2.817045 1_665
Mg0 O0 2.000624 1_555
Mg0 O2 2.011269 1_555
Mg0 O4 2.039010 1_555
Mg0 O1 2.070090 1_445
Mg0 Na3 2.824774 1_656
Mg0 Na1 2.911327 1_555
Mn0 O5 1.906353 1_455
Mn0 O1 1.963512 1_455
Mn0 O3 1.985321 1_656
Mn0 O4 2.015406 1_565
Mn0 O2 2.389383 1_555
Mn1 O0 1.948345 1_655
Mn1 O3 1.962552 1_545
Mn1 O2 2.004850 1_655
Mn1 O4 2.028793 1_454
Mn1 O5 2.097766 1_555
