# generated using pymatgen
data_Ba3MgMn3O9
_symmetry_space_group_name_H-M   'P 1'
_cell_length_a   8.30286281
_cell_length_b   9.42247782
_cell_length_c   8.23215613
_cell_angle_alpha   37.84562103
_cell_angle_beta   41.18924662
_cell_angle_gamma   38.33146773
_symmetry_Int_Tables_number   1
_chemical_formula_structural   Ba3MgMn3O9
_chemical_formula_sum   'Ba3 Mg1 Mn3 O9'
_cell_volume   229.58759902
_cell_formula_units_Z   1
loop_
 _symmetry_equiv_pos_site_id
 _symmetry_equiv_pos_as_xyz
  1  'x, y, z'
loop_
 _atom_site_type_symbol
 _atom_site_label
 _atom_site_symmetry_multiplicity
 _atom_site_fract_x
 _atom_site_fract_y
 _atom_site_fract_z
 _atom_site_occupancy
  Ba  Ba0  1  0.81060930  0.65795394  0.79029900  1
  Ba  Ba1  1  0.19593694  0.29698556  0.20378045  1
  Ba  Ba2  1  0.00887930  0.98880697  0.99405232  1
  Mg  Mg0  1  0.74310263  0.03399700  0.76635433  1
  Mn  Mn0  1  0.61495234  0.63252168  0.59981833  1
  Mn  Mn1  1  0.40748490  0.37124065  0.38984492  1
  Mn  Mn2  1  0.45123190  0.57108779  0.47064321  1
  O  O0  1  0.51809392  0.94661571  0.50071918  1
  O  O1  1  0.04395495  0.45963879  0.50250825  1
  O  O2  1  0.52913171  0.46566937  0.00756330  1
  O  O3  1  0.33625851  0.29417881  0.74818424  1
  O  O4  1  0.27096609  0.75820968  0.25665335  1
  O  O5  1  0.74387372  0.30943864  0.32983759  1
  O  O6  1  0.68129249  0.32324568  0.69797983  1
  O  O7  1  0.64303975  0.77382411  0.21370051  1
  O  O8  1  0.15119156  0.75825262  0.68639620  1
loop_
_geom_bond_atom_site_label_1
_geom_bond_atom_site_label_2
_geom_bond_distance
_geom_bond_site_symmetry_2
Ba0 O5 2.633161 1_556
Ba0 O3 2.654553 1_655
Ba0 O0 2.662583 1_555
Ba0 O2 2.679083 1_556
Ba0 O1 2.694760 1_655
Ba0 O4 2.939272 1_655
Ba0 Mg0 2.975760 1_565
Ba0 O8 2.982772 1_655
Ba0 O4 2.984039 1_556
Ba1 O0 2.696416 1_545
Ba1 O8 2.789466 1_554
Ba1 O1 2.869920 1_555
Ba1 O6 2.884611 1_554
Ba1 O6 2.939041 1_455
Ba1 O5 2.969486 1_455
Ba1 O2 2.984431 1_555
Ba1 O7 2.987268 1_455
Ba1 O3 2.992707 1_554
Ba1 O7 3.032857 1_545
Ba1 O8 3.252100 1_545
Ba2 O4 2.524594 1_556
Ba2 O6 2.769328 1_465
Ba2 O1 2.835826 1_565
Ba2 O2 2.848004 1_466
Ba2 O0 2.915802 1_456
Ba2 O0 2.932031 1_555
Ba2 O1 3.010207 1_556
Ba2 O2 3.069368 1_556
Mg0 O6 1.955965 1_555
Mg0 O8 2.048710 1_645
Mg0 O7 2.143397 1_546
Mg0 O3 2.152265 1_555
Mg0 O5 2.216080 1_555
Mn0 O0 1.873884 1_555
Mn0 O6 1.970065 1_555
Mn0 O2 2.017342 1_556
Mn0 O7 2.148985 1_555
Mn0 O1 2.155459 1_655
Mn0 O8 2.604695 1_555
Mn1 O1 1.930500 1_555
Mn1 O2 1.979688 1_555
Mn1 O5 2.051830 1_555
Mn1 O3 2.060118 1_555
Mn1 O4 2.203247 1_555
Mn2 O4 1.837091 1_555
Mn2 O8 1.966117 1_555
Mn2 O7 1.995215 1_555
Mn2 O6 2.020969 1_555
Mn2 O3 2.036968 1_555
Mn2 O5 2.049827 1_555
