# generated using pymatgen
data_TlReO4
_symmetry_space_group_name_H-M   'P 1'
_cell_length_a   13.06682081
_cell_length_b   5.67858318
_cell_length_c   17.41206205
_cell_angle_alpha   89.35889129
_cell_angle_beta   90.00000000
_cell_angle_gamma   90.00000000
_symmetry_Int_Tables_number   1
_chemical_formula_structural   TlReO4
_chemical_formula_sum   'Tl12 Re12 O48'
_cell_volume   1291.91203727
_cell_formula_units_Z   12
loop_
 _symmetry_equiv_pos_site_id
 _symmetry_equiv_pos_as_xyz
  1  'x, y, z'
loop_
 _atom_site_type_symbol
 _atom_site_label
 _atom_site_symmetry_multiplicity
 _atom_site_fract_x
 _atom_site_fract_y
 _atom_site_fract_z
 _atom_site_occupancy
  Tl  Tl0  1  0.37120668  0.52310669  0.57951428  1
  Tl  Tl1  1  0.87120668  0.97689331  0.42048572  1
  Tl  Tl2  1  0.62879332  0.47689331  0.42048572  1
  Tl  Tl3  1  0.12879332  0.02310669  0.57951428  1
  Tl  Tl4  1  0.36895494  0.48944209  0.25397142  1
  Tl  Tl5  1  0.86895494  0.01055791  0.74602858  1
  Tl  Tl6  1  0.63104506  0.51055791  0.74602858  1
  Tl  Tl7  1  0.13104506  0.98944209  0.25397142  1
  Tl  Tl8  1  0.37667243  0.50637778  0.91460419  1
  Tl  Tl9  1  0.87667243  0.99362222  0.08539581  1
  Tl  Tl10  1  0.62332757  0.49362222  0.08539581  1
  Tl  Tl11  1  0.12332757  0.00637778  0.91460419  1
  Re  Re0  1  0.11335948  0.53242457  0.41693047  1
  Re  Re1  1  0.61335948  0.96757543  0.58306953  1
  Re  Re2  1  0.88664052  0.46757543  0.58306953  1
  Re  Re3  1  0.38664052  0.03242457  0.41693047  1
  Re  Re4  1  0.12807263  0.49397109  0.08297618  1
  Re  Re5  1  0.62807263  0.00602891  0.91702382  1
  Re  Re6  1  0.87192737  0.50602891  0.91702382  1
  Re  Re7  1  0.37192737  0.99397109  0.08297618  1
  Re  Re8  1  0.12419269  0.51447489  0.75004554  1
  Re  Re9  1  0.62419269  0.98552511  0.24995446  1
  Re  Re10  1  0.87580731  0.48552511  0.24995446  1
  Re  Re11  1  0.37580731  0.01447489  0.75004554  1
  O  O0  1  0.80683136  0.56230718  0.50871584  1
  O  O1  1  0.30683136  0.93769282  0.49128416  1
  O  O2  1  0.19316864  0.43769282  0.49128416  1
  O  O3  1  0.69316864  0.06230718  0.50871584  1
  O  O4  1  0.82774250  0.52277523  0.67108887  1
  O  O5  1  0.32774250  0.97722477  0.32891113  1
  O  O6  1  0.17225750  0.47722477  0.32891113  1
  O  O7  1  0.67225750  0.02277523  0.67108887  1
  O  O8  1  0.00098929  0.62454205  0.57800124  1
  O  O9  1  0.50098929  0.87545795  0.42199876  1
  O  O10  1  -0.00098929  0.37545795  0.42199876  1
  O  O11  1  0.49901071  0.12454205  0.57800124  1
  O  O12  1  0.90945182  0.16511783  0.57615450  1
  O  O13  1  0.40945182  0.33488217  0.42384550  1
  O  O14  1  0.09054818  0.83488217  0.42384550  1
  O  O15  1  0.59054818  0.66511783  0.57615450  1
  O  O16  1  0.70578800  0.14237138  0.84816590  1
  O  O17  1  0.45160065  0.78198845  0.04259532  1
  O  O18  1  0.20578800  0.35762862  0.15183410  1
  O  O19  1  0.79421200  0.64237138  0.84816590  1
  O  O20  1  0.55455540  0.78863639  0.87332197  1
  O  O21  1  0.05455540  0.71136361  0.12667803  1
  O  O22  1  0.44544460  0.21136361  0.12667803  1
  O  O23  1  0.94544460  0.28863639  0.87332197  1
  O  O24  1  0.20418180  0.64070406  0.68080577  1
  O  O25  1  0.70418180  0.85929594  0.31919423  1
  O  O26  1  0.79581820  0.35929594  0.31919423  1
  O  O27  1  0.29581820  0.14070406  0.68080577  1
  O  O28  1  0.04029998  0.73071581  0.78271615  1
  O  O29  1  0.54029998  0.76928419  0.21728385  1
  O  O30  1  0.95970002  0.26928419  0.21728385  1
  O  O31  1  0.45970002  0.23071581  0.78271615  1
  O  O32  1  0.19627674  0.40842139  0.82744247  1
  O  O33  1  0.69627674  0.09157861  0.17255753  1
  O  O34  1  0.80372326  0.59157861  0.17255753  1
  O  O35  1  0.30372326  0.90842139  0.82744247  1
  O  O36  1  0.05509738  0.28297028  0.71042531  1
  O  O37  1  0.55509738  0.21702972  0.28957469  1
  O  O38  1  0.94490262  0.71702972  0.28957469  1
  O  O39  1  0.44490262  0.78297028  0.71042531  1
  O  O40  1  0.79797433  0.37834385  0.98976538  1
  O  O41  1  0.29797433  0.12165615  0.01023462  1
  O  O42  1  0.20202567  0.62165615  0.01023462  1
  O  O43  1  0.70202567  0.87834385  0.98976538  1
  O  O44  1  0.04839935  0.28198845  0.04259532  1
  O  O45  1  0.54839935  0.21801155  0.95740468  1
  O  O46  1  0.95160065  0.71801155  0.95740468  1
  O  O47  1  0.29421200  0.85762862  0.15183410  1
loop_
_geom_bond_atom_site_label_1
_geom_bond_atom_site_label_2
_geom_bond_distance
_geom_bond_site_symmetry_2
O0 Re2 1.742830 1_555
O0 Tl2 2.832692 1_555
O0 Tl1 2.920499 1_555
O1 Re3 1.742830 1_565
O1 Tl3 2.832692 1_565
O1 Tl0 2.920499 1_555
O2 Re0 1.742830 1_555
O2 Tl0 2.832692 1_555
O2 Tl3 2.920499 1_555
O3 Re1 1.742830 1_545
O3 Tl1 2.832692 1_545
O3 Tl2 2.920499 1_555
O4 Re2 1.746471 1_555
O4 Tl6 2.882952 1_555
O4 Tl5 3.121851 1_565
O4 Tl5 3.219948 1_555
O5 Re3 1.746471 1_565
O5 Tl7 2.882952 1_555
O5 Tl4 3.121851 1_555
O5 Tl4 3.219948 1_565
O6 Re0 1.746471 1_555
O6 Tl4 2.882952 1_555
O6 Tl7 3.121851 1_545
O6 Tl7 3.219948 1_555
O7 Re1 1.746471 1_545
O7 Tl5 2.882952 1_555
O7 Tl6 3.121851 1_555
O7 Tl6 3.219948 1_545
O8 Re2 1.741576 1_455
O8 Tl3 2.813068 1_565
O9 Re3 1.741576 1_565
O9 Tl2 2.813068 1_555
O10 Re0 1.741576 1_555
O10 Tl1 2.813068 1_445
O11 Re1 1.741576 1_545
O11 Tl0 2.813068 1_555
O12 Re2 1.748680 1_555
O12 Tl1 2.967137 1_545
O12 Tl3 2.977783 1_655
O12 Tl5 3.121085 1_555
O13 Re3 1.748680 1_555
O13 Tl0 2.967137 1_555
O13 Tl2 2.977783 1_555
O13 Tl4 3.121085 1_555
O14 Re0 1.748680 1_555
O14 Tl3 2.967137 1_565
O14 Tl1 2.977783 1_455
O14 Tl7 3.121085 1_555
O15 Re1 1.748680 1_555
O15 Tl2 2.967137 1_555
O15 Tl0 2.977783 1_555
O15 Tl6 3.121085 1_555
O16 Re5 1.745677 1_555
O16 Tl5 2.880726 1_555
O16 Tl6 2.899099 1_555
O17 Re7 1.745334 1_555
O17 Tl10 2.871363 1_555
O17 Tl8 2.907356 1_554
O18 Re4 1.745677 1_555
O18 Tl4 2.880726 1_555
O18 Tl7 2.899099 1_545
O19 Re6 1.745677 1_555
O19 Tl6 2.880726 1_555
O19 Tl5 2.899099 1_565
O20 Re5 1.745513 1_565
O20 Tl8 2.909061 1_555
O20 Tl6 2.912630 1_555
O21 Re4 1.745513 1_555
O21 Tl9 2.909061 1_455
O21 Tl7 2.912630 1_555
O22 Re7 1.745513 1_545
O22 Tl10 2.909061 1_555
O22 Tl4 2.912630 1_555
O23 Re6 1.745513 1_555
O23 Tl11 2.909061 1_655
O23 Tl5 2.912630 1_555
O24 Re8 1.743676 1_555
O24 Tl0 2.888970 1_555
O24 Tl3 2.951397 1_565
O25 Re9 1.743676 1_555
O25 Tl1 2.888970 1_555
O25 Tl2 2.951397 1_555
O26 Re10 1.743676 1_555
O26 Tl2 2.888970 1_555
O26 Tl1 2.951397 1_545
O27 Re11 1.743676 1_555
O27 Tl3 2.888970 1_555
O27 Tl0 2.951397 1_555
O28 Re8 1.746069 1_555
O28 Tl5 2.814862 1_465
O28 Tl11 2.996915 1_565
O29 Re9 1.746069 1_555
O29 Tl4 2.814862 1_555
O29 Tl10 2.996915 1_555
O30 Re10 1.746069 1_555
O30 Tl7 2.814862 1_645
O30 Tl9 2.996915 1_545
O31 Re11 1.746069 1_555
O31 Tl6 2.814862 1_555
O31 Tl8 2.996915 1_555
O32 Re8 1.745809 1_555
O32 Tl8 2.861468 1_555
O32 Tl11 2.889057 1_555
O33 Re9 1.745809 1_545
O33 Tl9 2.861468 1_545
O33 Tl10 2.889057 1_555
O34 Re10 1.745809 1_555
O34 Tl10 2.861468 1_555
O34 Tl9 2.889057 1_555
O35 Re11 1.745809 1_565
O35 Tl11 2.861468 1_565
O35 Tl8 2.889057 1_555
O36 Re8 1.743441 1_555
O36 Tl3 2.894125 1_555
O36 Tl5 2.944798 1_455
O37 Re9 1.743441 1_545
O37 Tl2 2.894125 1_555
O37 Tl4 2.944798 1_555
O38 Re10 1.743441 1_555
O38 Tl1 2.894125 1_555
O38 Tl7 2.944798 1_655
O39 Re11 1.743441 1_565
O39 Tl0 2.894125 1_555
O39 Tl6 2.944798 1_555
O40 Re6 1.744476 1_555
O40 Tl10 2.904037 1_556
O40 Tl9 2.919160 1_546
O41 Re7 1.744476 1_545
O41 Tl11 2.904037 1_554
O41 Tl8 2.919160 1_554
O42 Re4 1.744476 1_555
O42 Tl8 2.904037 1_554
O42 Tl11 2.919160 1_564
O43 Re5 1.744476 1_565
O43 Tl9 2.904037 1_556
O43 Tl10 2.919160 1_556
O44 Re4 1.745334 1_555
O44 Tl9 2.871363 1_445
O44 Tl11 2.907356 1_554
O45 Re5 1.745334 1_555
O45 Tl8 2.871363 1_555
O45 Tl10 2.907356 1_556
O46 Re6 1.745334 1_555
O46 Tl11 2.871363 1_665
O46 Tl9 2.907356 1_556
O47 Re7 1.745677 1_555
O47 Tl7 2.880726 1_555
O47 Tl4 2.899099 1_555
