# generated using pymatgen
data_MgCo6(O2F)4
_symmetry_space_group_name_H-M   'P 1'
_cell_length_a   8.29251302
_cell_length_b   5.86361334
_cell_length_c   5.72060716
_cell_angle_alpha   63.79577001
_cell_angle_beta   63.57655715
_cell_angle_gamma   62.24381135
_symmetry_Int_Tables_number   1
_chemical_formula_structural   MgCo6(O2F)4
_chemical_formula_sum   'Mg1 Co6 O8 F4'
_cell_volume   210.58076537
_cell_formula_units_Z   1
loop_
 _symmetry_equiv_pos_site_id
 _symmetry_equiv_pos_as_xyz
  1  'x, y, z'
loop_
 _atom_site_type_symbol
 _atom_site_label
 _atom_site_symmetry_multiplicity
 _atom_site_fract_x
 _atom_site_fract_y
 _atom_site_fract_z
 _atom_site_occupancy
  Mg  Mg0  1  0.50495319  0.50146146  0.97618967  1
  Co  Co0  1  0.88649329  0.69266070  0.69226934  1
  Co  Co1  1  0.29276383  0.64003606  0.61857280  1
  Co  Co2  1  0.67516390  0.33516564  0.35692782  1
  Co  Co3  1  0.12543894  0.31690733  0.32597403  1
  Co  Co4  1  0.48921788  0.99302160  0.99366570  1
  Co  Co5  1  0.00682572  0.99140533  0.99281904  1
  O  O0  1  0.32441917  0.36406724  0.96065790  1
  O  O1  1  0.67631645  0.02977258  0.65212896  1
  O  O2  1  0.41916522  0.42576183  0.40173121  1
  O  O3  1  0.03174134  0.78018902  0.78068659  1
  O  O4  1  0.31132770  0.96193327  0.35259704  1
  O  O5  1  0.67245854  0.63510836  0.03057931  1
  O  O6  1  0.01436763  0.30998678  0.69558630  1
  O  O7  1  0.00657531  0.69058090  0.31085504  1
  F  F0  1  0.62006439  0.56130544  0.58468098  1
  F  F1  1  0.31160546  0.87316326  0.91435299  1
  F  F2  1  0.95970986  0.22542832  0.23942788  1
  F  F3  1  0.70710718  0.13633188  0.08458440  1
loop_
_geom_bond_atom_site_label_1
_geom_bond_atom_site_label_2
_geom_bond_distance
_geom_bond_site_symmetry_2
Mg0 O0 2.050160 1_555
Mg0 O5 2.062575 1_556
Mg0 O2 2.104218 1_556
Co0 O3 1.821329 1_655
Co0 O1 1.934983 1_565
Co0 O7 1.957287 1_655
Co0 O6 1.980854 1_655
Co0 O5 1.983322 1_556
Co1 O2 1.791257 1_555
Co1 O4 1.851286 1_555
Co1 O3 1.857497 1_555
Co1 O0 1.944716 1_555
Co1 F0 2.461899 1_555
Co1 F1 2.689411 1_555
Co2 O1 1.840193 1_555
Co2 O2 1.854749 1_555
Co2 O5 1.918292 1_555
Co2 F2 1.997440 1_555
Co2 F0 2.023895 1_555
Co2 F3 2.192243 1_555
Co3 O6 1.883208 1_555
Co3 O4 1.916313 1_545
Co3 O7 1.917496 1_555
Co3 F2 1.987033 1_455
Co3 O0 2.003029 1_554
Co4 O1 1.874203 1_565
Co4 O4 1.910370 1_556
Co4 O5 1.918819 1_556
Co4 O0 1.932425 1_565
Co4 F1 2.170159 1_555
Co4 F3 2.622580 1_566
Co5 O7 1.894028 1_556
Co5 O6 1.895705 1_565
Co5 O3 1.978640 1_555
Co5 F3 2.107261 1_466
Co5 F1 2.168621 1_555
Co5 F2 2.178434 1_466
O1 O5 2.371946 1_546
O6 O7 2.341576 1_555
F0 Mg0 1.940518 1_555
F1 Mg0 2.003786 1_555
F1 O4 2.775300 1_556
F1 O7 2.821463 1_556
F3 Mg0 2.046525 1_554
F3 O2 2.638646 1_555
F3 O6 2.801786 1_654
