# generated using pymatgen
data_B9H11N4
_symmetry_space_group_name_H-M   'P 1'
_cell_length_a   6.16227500
_cell_length_b   8.55039600
_cell_length_c   19.77726010
_cell_angle_alpha   84.92040221
_cell_angle_beta   90.00000000
_cell_angle_gamma   90.00000000
_symmetry_Int_Tables_number   1
_chemical_formula_structural   B9H11N4
_chemical_formula_sum   'B36 H44 N16'
_cell_volume   1037.96915453
_cell_formula_units_Z   4
loop_
 _symmetry_equiv_pos_site_id
 _symmetry_equiv_pos_as_xyz
  1  'x, y, z'
loop_
 _atom_site_type_symbol
 _atom_site_label
 _atom_site_symmetry_multiplicity
 _atom_site_fract_x
 _atom_site_fract_y
 _atom_site_fract_z
 _atom_site_occupancy
  B  B0  1  0.75917700  0.08792200  0.19253900  1
  B  B1  1  0.25917700  0.91207800  0.30746100  1
  B  B2  1  0.24082300  0.91207800  0.80746100  1
  B  B3  1  0.74082300  0.08792200  0.69253900  1
  B  B4  1  0.69619900  0.97012700  0.12722800  1
  B  B5  1  0.19619900  0.02987300  0.37277200  1
  B  B6  1  0.30380100  0.02987300  0.87277200  1
  B  B7  1  0.80380100  0.97012700  0.62722800  1
  B  B8  1  0.74534300  0.08782300  0.05154800  1
  B  B9  1  0.24534300  0.91217700  0.44845200  1
  B  B10  1  0.25465700  0.91217700  0.94845200  1
  B  B11  1  0.75465700  0.08782300  0.55154800  1
  B  B12  1  0.60865500  0.28797000  0.04992300  1
  B  B13  1  0.10865500  0.71203000  0.45007700  1
  B  B14  1  0.39134500  0.71203000  0.95007700  1
  B  B15  1  0.89134500  0.28797000  0.54992300  1
  B  B16  1  0.62237600  0.29115700  0.18178400  1
  B  B17  1  0.12237600  0.70884300  0.31821600  1
  B  B18  1  0.37762400  0.70884300  0.81821600  1
  B  B19  1  0.87762400  0.29115700  0.68178400  1
  B  B20  1  0.92973300  0.08101600  0.12119900  1
  B  B21  1  0.42973300  0.91898400  0.37880100  1
  B  B22  1  0.07026700  0.91898400  0.87880100  1
  B  B23  1  0.57026700  0.08101600  0.62119900  1
  B  B24  1  0.88492600  0.26080100  0.06783800  1
  B  B25  1  0.38492600  0.73919900  0.43216200  1
  B  B26  1  0.11507400  0.73919900  0.93216200  1
  B  B27  1  0.61507400  0.26080100  0.56783800  1
  B  B28  1  0.74586000  0.40367300  0.10823100  1
  B  B29  1  0.24586000  0.59632700  0.39176900  1
  B  B30  1  0.25414000  0.59632700  0.89176900  1
  B  B31  1  0.75414000  0.40367300  0.60823100  1
  B  B32  1  0.89406800  0.26143500  0.16003900  1
  B  B33  1  0.39406800  0.73856500  0.33996100  1
  B  B34  1  0.10593200  0.73856500  0.83996100  1
  B  B35  1  0.60593200  0.26143500  0.66003900  1
  H  H0  1  0.78667100  0.03330400  0.24946000  1
  H  H1  1  0.28667100  0.96669600  0.25054000  1
  H  H2  1  0.21332900  0.96669600  0.75054000  1
  H  H3  1  0.71332900  0.03330400  0.74946000  1
  H  H4  1  0.65923100  0.83301500  0.13324800  1
  H  H5  1  0.15923100  0.16698500  0.36675200  1
  H  H6  1  0.34076900  0.16698500  0.86675200  1
  H  H7  1  0.84076900  0.83301500  0.63324800  1
  H  H8  1  0.76965500  0.02951800  0.99958300  1
  H  H9  1  0.26965500  0.97048200  0.50041700  1
  H  H10  1  0.23034500  0.97048200  0.00041700  1
  H  H11  1  0.73034500  0.02951800  0.49958300  1
  H  H12  1  0.52424200  0.33742700  0.99828100  1
  H  H13  1  0.02424200  0.66257300  0.50171900  1
  H  H14  1  0.47575800  0.66257300  0.00171900  1
  H  H15  1  0.97575800  0.33742700  0.49828100  1
  H  H16  1  0.36875400  0.38988200  0.11478600  1
  H  H17  1  0.86875400  0.61011800  0.38521400  1
  H  H18  1  0.63124600  0.61011800  0.88521400  1
  H  H19  1  0.13124600  0.38988200  0.61478600  1
  H  H20  1  0.10243400  0.01753200  0.12245400  1
  H  H21  1  0.60243400  0.98246800  0.37754600  1
  H  H22  1  0.89756600  0.98246800  0.87754600  1
  H  H23  1  0.39756600  0.01753200  0.62245400  1
  H  H24  1  0.02421900  0.29980800  0.02778200  1
  H  H25  1  0.52421900  0.70019200  0.47221800  1
  H  H26  1  0.97578100  0.70019200  0.97221800  1
  H  H27  1  0.47578100  0.29980800  0.52778200  1
  H  H28  1  0.76730300  0.54218900  0.10344500  1
  H  H29  1  0.26730300  0.45781100  0.39655500  1
  H  H30  1  0.23269700  0.45781100  0.89655500  1
  H  H31  1  0.73269700  0.54218900  0.60344500  1
  H  H32  1  0.03737500  0.30177300  0.19540700  1
  H  H33  1  0.53737500  0.69822700  0.30459300  1
  H  H34  1  0.96262500  0.69822700  0.80459300  1
  H  H35  1  0.46262500  0.30177300  0.69540700  1
  H  H36  1  0.56037300  0.03898400  0.07718200  1
  H  H37  1  0.06037300  0.96101600  0.42281800  1
  H  H38  1  0.43962700  0.96101600  0.92281800  1
  H  H39  1  0.93962700  0.03898400  0.57718200  1
  H  H40  1  0.56967400  0.03793100  0.17430000  1
  H  H41  1  0.06967400  0.96206900  0.32570000  1
  H  H42  1  0.43032600  0.96206900  0.82570000  1
  H  H43  1  0.93032600  0.03793100  0.67430000  1
  N  N0  1  0.70207600  0.36291300  0.34874300  1
  N  N1  1  0.20207600  0.63708700  0.15125700  1
  N  N2  1  0.29792400  0.63708700  0.65125700  1
  N  N3  1  0.79792400  0.36291300  0.84874300  1
  N  N4  1  0.62729100  0.35468500  0.29594800  1
  N  N5  1  0.12729100  0.64531500  0.20405200  1
  N  N6  1  0.37270900  0.64531500  0.70405200  1
  N  N7  1  0.87270900  0.35468500  0.79594800  1
  N  N8  1  0.52990700  0.35270600  0.24217900  1
  N  N9  1  0.02990700  0.64729400  0.25782100  1
  N  N10  1  0.47009300  0.64729400  0.75782100  1
  N  N11  1  0.97009300  0.35270600  0.74217900  1
  N  N12  1  0.50493600  0.32089100  0.11615300  1
  N  N13  1  0.00493600  0.67910900  0.38384700  1
  N  N14  1  0.49506400  0.67910900  0.88384700  1
  N  N15  1  0.99506400  0.32089100  0.61615300  1
loop_
_geom_bond_atom_site_label_1
_geom_bond_atom_site_label_2
_geom_bond_distance
_geom_bond_site_symmetry_2
B0 H0 1.192056 1_555
B0 H40 1.305302 1_555
B0 B16 1.926185 1_555
B1 H1 1.192056 1_555
B1 H41 1.305302 1_555
B1 B17 1.926185 1_555
B2 H2 1.192056 1_555
B2 H42 1.305302 1_555
B3 H3 1.192056 1_555
B3 H43 1.305302 1_555
B4 H4 1.189868 1_555
B4 H40 1.380676 1_565
B4 H36 1.386959 1_565
B5 H5 1.189868 1_555
B5 H41 1.380676 1_545
B5 H37 1.386959 1_545
B6 H6 1.189868 1_555
B6 H42 1.380676 1_545
B6 H38 1.386959 1_545
B7 H7 1.189868 1_555
B7 H43 1.380676 1_565
B7 H39 1.386959 1_565
B8 H8 1.190766 1_554
B8 H36 1.301207 1_555
B9 H9 1.190766 1_555
B9 H37 1.301207 1_555
B10 H10 1.190766 1_556
B10 H38 1.301207 1_555
B11 H11 1.190766 1_555
B11 H39 1.301207 1_555
B12 H12 1.189982 1_554
B12 N12 1.506232 1_555
B13 H13 1.189982 1_555
B13 N13 1.506232 1_555
B14 H14 1.189982 1_556
B14 N14 1.506232 1_555
B15 H15 1.189982 1_555
B15 N15 1.506232 1_555
B16 N8 1.462761 1_555
B16 N12 1.488202 1_555
B16 B32 1.752703 1_555
B16 B28 1.836532 1_555
B17 N9 1.462761 1_555
B17 N13 1.488202 1_555
B17 B33 1.752703 1_555
B17 B29 1.836532 1_555
B18 N10 1.462761 1_555
B18 N14 1.488202 1_555
B18 B34 1.752703 1_555
B18 B30 1.836532 1_555
B18 B2 1.926185 1_555
B19 N11 1.462761 1_555
B19 N15 1.488202 1_555
B19 B35 1.752703 1_555
B19 B31 1.836532 1_555
B19 B3 1.926185 1_555
B20 H20 1.193928 1_655
B21 H21 1.193928 1_555
B22 H22 1.193928 1_455
B23 H23 1.193928 1_555
B24 H24 1.195330 1_655
B25 H25 1.195330 1_555
B26 H26 1.195330 1_455
B27 H27 1.195330 1_555
B28 H28 1.187136 1_555
B28 N12 1.646230 1_555
B29 H29 1.187136 1_555
B29 N13 1.646230 1_555
B30 H30 1.187136 1_555
B30 N14 1.646230 1_555
B31 H31 1.187136 1_555
B31 N15 1.646230 1_555
B32 H32 1.196168 1_655
B33 H33 1.196168 1_555
B34 H34 1.196168 1_455
B35 H35 1.196168 1_555
H16 N12 1.024759 1_555
H17 N13 1.024759 1_655
H18 N14 1.024759 1_555
H19 N15 1.024759 1_455
N0 N4 1.149159 1_555
N1 N5 1.149159 1_555
N2 N6 1.149159 1_555
N3 N7 1.149159 1_555
N4 N8 1.222468 1_555
N5 N9 1.222468 1_555
N10 N6 1.222468 1_555
N11 N7 1.222468 1_555
