# generated using pymatgen
data_Fe2Pb3F12
_symmetry_space_group_name_H-M   'P 1'
_cell_length_a   7.34557914
_cell_length_b   7.55541375
_cell_length_c   9.81422352
_cell_angle_alpha   109.82247434
_cell_angle_beta   108.15327785
_cell_angle_gamma   95.45353545
_symmetry_Int_Tables_number   1
_chemical_formula_structural   Fe2Pb3F12
_chemical_formula_sum   'Fe4 Pb6 F24'
_cell_volume   474.47168707
_cell_formula_units_Z   2
loop_
 _symmetry_equiv_pos_site_id
 _symmetry_equiv_pos_as_xyz
  1  'x, y, z'
loop_
 _atom_site_type_symbol
 _atom_site_label
 _atom_site_symmetry_multiplicity
 _atom_site_fract_x
 _atom_site_fract_y
 _atom_site_fract_z
 _atom_site_occupancy
  Fe  Fe0  1  0.66733069  0.73262484  0.43180806  1
  Fe  Fe1  1  0.33266931  0.26737516  0.56819194  1
  Fe  Fe2  1  0.00511825  0.20583605  0.79270590  1
  Fe  Fe3  1  0.99488175  0.79416395  0.20729410  1
  Pb  Pb0  1  0.58941253  0.23760610  0.97005943  1
  Pb  Pb1  1  0.41058747  0.76239390  0.02994057  1
  Pb  Pb2  1  0.22522620  0.78024481  0.61493178  1
  Pb  Pb3  1  0.77477380  0.21975519  0.38506822  1
  Pb  Pb4  1  0.80727109  0.68370711  0.79898939  1
  Pb  Pb5  1  0.19272891  0.31629289  0.20101061  1
  F  F0  1  0.85954241  0.32642890  0.20520099  1
  F  F1  1  0.14045759  0.67357110  0.79479901  1
  F  F2  1  0.51620749  0.88750026  0.85826284  1
  F  F3  1  0.48379251  0.11249974  0.14173716  1
  F  F4  1  0.55718975  0.90217355  0.34336137  1
  F  F5  1  0.44281025  0.09782645  0.65663863  1
  F  F6  1  0.82714891  0.57964954  0.52784084  1
  F  F7  1  0.17285109  0.42035046  0.47215916  1
  F  F8  1  0.48703612  0.29763356  0.45150804  1
  F  F9  1  0.51296388  0.70236644  0.54849196  1
  F  F10  1  0.11481228  0.85879816  0.07573610  1
  F  F11  1  0.88518772  0.14120184  0.92426390  1
  F  F12  1  0.18225323  0.42100952  0.97266697  1
  F  F13  1  0.81774677  0.57899048  0.02733303  1
  F  F14  1  0.20330052  0.06445089  0.84237481  1
  F  F15  1  0.79669948  0.93554911  0.15762519  1
  F  F16  1  0.17921348  0.64975644  0.27289031  1
  F  F17  1  0.82078652  0.35024356  0.72710969  1
  F  F18  1  0.15748189  0.04362130  0.37407688  1
  F  F19  1  0.84251811  0.95637870  0.62592312  1
  F  F20  1  0.11109298  0.23569087  0.63962224  1
  F  F21  1  0.88890702  0.76430913  0.36037776  1
  F  F22  1  0.47470891  0.48818430  0.75333115  1
  F  F23  1  0.52529109  0.51181570  0.24666885  1
loop_
_geom_bond_atom_site_label_1
_geom_bond_atom_site_label_2
_geom_bond_distance
_geom_bond_site_symmetry_2
F0 Pb0 2.357215 1_554
F0 Pb3 2.389118 1_555
F0 Pb5 2.468555 1_655
F0 F7 2.708485 1_655
F0 F11 2.711613 1_554
F0 F15 2.797176 1_545
F0 F3 2.831365 1_555
F0 F16 2.959705 1_655
F0 F13 2.969733 1_555
F0 F23 3.007587 1_555
F0 F21 3.090903 1_555
F1 Pb1 2.357215 1_556
F1 Pb2 2.389118 1_555
F1 Pb4 2.468555 1_455
F1 F6 2.708485 1_455
F1 F10 2.711613 1_556
F1 F14 2.797176 1_565
F1 F2 2.831365 1_555
F1 F17 2.959705 1_455
F1 F12 2.969733 1_555
F1 F22 3.007587 1_555
F1 F20 3.090903 1_555
F2 Pb0 2.425627 1_565
F2 Pb1 2.467691 1_556
F2 Pb2 2.471020 1_555
F2 F22 2.788928 1_555
F2 F3 2.822886 1_566
F2 Pb4 2.841415 1_555
F2 F9 2.874740 1_555
F2 F5 2.891750 1_565
F3 Pb1 2.425627 1_545
F3 Pb0 2.467691 1_554
F3 Pb3 2.471020 1_555
F3 Pb5 2.841415 1_555
F3 F8 2.874740 1_555
F3 F4 2.891750 1_545
F4 Fe0 1.887478 1_555
F4 Pb3 2.583941 1_565
F4 Pb1 2.693184 1_555
F5 Fe1 1.887478 1_555
F5 Pb2 2.583941 1_545
F5 Pb0 2.693184 1_555
F6 Fe0 1.977262 1_555
F6 Pb3 2.527124 1_555
F6 Pb4 2.562412 1_555
F6 F9 2.607249 1_555
F6 Pb2 2.880910 1_655
F7 Fe1 1.977262 1_555
F7 Pb2 2.527124 1_555
F7 Pb5 2.562412 1_555
F7 F8 2.607249 1_555
F7 Pb3 2.880910 1_455
F8 Fe1 1.893894 1_555
F8 Pb3 2.464478 1_555
F8 Pb5 2.778247 1_555
F9 Fe0 1.893894 1_555
F9 Pb2 2.464478 1_555
F9 Pb4 2.778247 1_555
F10 Fe3 1.932930 1_455
F10 Pb1 2.477930 1_555
F10 F18 2.682024 1_565
F10 F13 2.693081 1_455
F10 Pb4 2.720693 1_454
F10 F3 2.918276 1_565
F10 Pb5 3.176515 1_565
F11 Fe2 1.932930 1_655
F11 Pb0 2.477930 1_555
F11 F19 2.682024 1_545
F11 F12 2.693081 1_655
F11 Pb5 2.720693 1_656
F11 F2 2.918276 1_545
F11 Pb4 3.176515 1_545
F12 Fe2 1.916757 1_555
F12 Pb5 2.600125 1_556
F12 F14 2.604308 1_555
F12 Pb1 2.718245 1_556
F13 Fe3 1.916757 1_555
F13 Pb4 2.600125 1_554
F13 F15 2.604308 1_555
F13 Pb0 2.718245 1_554
F14 Fe2 1.924715 1_555
F14 Pb2 2.580388 1_545
F14 F19 2.665895 1_445
F14 F20 2.676745 1_555
F14 Pb0 2.700774 1_555
F14 F2 2.756245 1_545
F14 F3 2.893319 1_556
F15 Fe3 1.924715 1_555
F15 Pb3 2.580388 1_565
F15 F18 2.665895 1_665
F15 F21 2.676745 1_555
F15 Pb1 2.700774 1_555
F15 F3 2.756245 1_565
F15 F2 2.893319 1_554
F16 Fe3 1.911086 1_455
F16 Pb5 2.396024 1_555
F16 F21 2.649805 1_455
F16 Pb2 3.056129 1_555
F17 Fe2 1.911086 1_655
F17 Pb4 2.396024 1_555
F17 F20 2.649805 1_655
F17 Pb3 3.056129 1_555
F18 Fe3 1.979822 1_445
F18 Fe1 2.004469 1_555
F18 F7 2.655936 1_555
F18 F20 2.663882 1_555
F18 F8 2.665017 1_555
F18 F21 2.685993 1_445
F18 F5 2.774102 1_555
F18 Pb5 3.121219 1_555
F19 Fe2 1.979822 1_665
F19 Fe0 2.004469 1_555
F19 F6 2.655936 1_555
F19 F21 2.663882 1_555
F19 F9 2.665017 1_555
F19 F20 2.685993 1_665
F19 F4 2.774102 1_555
F19 Pb4 3.121219 1_555
F20 Fe2 1.959408 1_555
F20 Fe1 1.987108 1_555
F20 F7 2.598637 1_555
F20 F5 2.719743 1_555
F20 Pb3 2.872732 1_455
F21 Fe3 1.959408 1_555
F21 Fe0 1.987108 1_555
F21 F6 2.598637 1_555
F21 F4 2.719743 1_555
F21 Pb2 2.872732 1_655
F22 Fe1 1.898761 1_555
F22 Pb4 2.556104 1_555
F22 Pb1 3.008571 1_556
F22 Pb0 3.276585 1_555
F23 Fe0 1.898761 1_555
F23 Pb5 2.556104 1_555
F23 F3 2.788928 1_555
F23 Pb0 3.008571 1_554
F23 Pb1 3.276585 1_555
