# generated using pymatgen
data_CeInCu
_symmetry_space_group_name_H-M   'P 1'
_cell_length_a   7.51094062
_cell_length_b   7.51103353
_cell_length_c   4.18671390
_cell_angle_alpha   90.00000000
_cell_angle_beta   90.00000000
_cell_angle_gamma   119.99964492
_symmetry_Int_Tables_number   1
_chemical_formula_structural   CeInCu
_chemical_formula_sum   'Ce3 In3 Cu3'
_cell_volume   204.55000739
_cell_formula_units_Z   3
loop_
 _symmetry_equiv_pos_site_id
 _symmetry_equiv_pos_as_xyz
  1  'x, y, z'
loop_
 _atom_site_type_symbol
 _atom_site_label
 _atom_site_symmetry_multiplicity
 _atom_site_fract_x
 _atom_site_fract_y
 _atom_site_fract_z
 _atom_site_occupancy
  Ce  Ce0  1  0.00003056  0.58091201  0.50000000  1
  Ce  Ce1  1  0.41912218  0.41911076  0.50000000  1
  Ce  Ce2  1  0.58089296  0.00000098  0.50000000  1
  In  In0  1  0.75715303  0.75714630  -0.00000000  1
  In  In1  1  0.00000806  0.24286293  0.00000000  1
  In  In2  1  0.24285175  0.00001831  -0.00000000  1
  Cu  Cu0  1  0.33330721  0.66662679  0.00000000  1
  Cu  Cu1  1  0.99995011  0.99994381  0.50000000  1
  Cu  Cu2  1  0.66668514  0.33337711  0.00000000  1
loop_
_geom_bond_atom_site_label_1
_geom_bond_atom_site_label_2
_geom_bond_distance
_geom_bond_site_symmetry_2
Ce0 Cu0 3.074276 1_556
Ce0 Cu0 3.074276 1_555
Ce0 Cu2 3.074512 1_456
Ce0 Cu2 3.074512 1_455
Ce0 Cu1 3.147664 1_455
Ce0 In1 3.290704 1_555
Ce0 In1 3.290704 1_556
Ce0 In2 3.446257 1_566
Ce0 In2 3.446257 1_565
Ce0 In0 3.446288 1_455
Ce0 In0 3.446288 1_456
Ce1 Cu2 3.074355 1_555
Ce1 Cu2 3.074355 1_556
Ce1 Cu0 3.074430 1_555
Ce1 Cu0 3.074430 1_556
Ce1 Cu1 3.148394 1_445
Ce1 In0 3.290676 1_555
Ce1 In0 3.290676 1_556
Ce1 In2 3.446191 1_556
Ce1 In2 3.446191 1_555
Ce1 In1 3.446291 1_555
Ce1 In1 3.446291 1_556
Ce2 Cu0 3.074709 1_545
Ce2 Cu0 3.074709 1_546
Ce2 Cu2 3.074715 1_556
Ce2 Cu2 3.074715 1_555
Ce2 Cu1 3.147728 1_545
Ce2 In2 3.290750 1_556
Ce2 In2 3.290750 1_555
Ce2 In0 3.446295 1_545
Ce2 In0 3.446295 1_546
Ce2 In1 3.446299 1_656
Ce2 In1 3.446299 1_655
In0 In2 3.159319 1_665
In0 In1 3.159475 1_665
In1 In2 3.159254 1_555
Cu0 In1 2.903425 1_555
Cu0 In0 2.903859 1_555
Cu0 In2 2.904045 1_565
Cu1 In0 2.776305 1_556
Cu1 In0 2.776305 1_555
Cu1 In2 2.776622 1_665
Cu1 In2 2.776622 1_666
Cu1 In1 2.776764 1_666
Cu1 In1 2.776764 1_665
Cu2 In0 2.903458 1_555
Cu2 In1 2.903809 1_655
Cu2 In2 2.903897 1_555
