# generated using pymatgen
data_Ba2Mg(WO4)2
_symmetry_space_group_name_H-M   'P 1'
_cell_length_a   4.05563108
_cell_length_b   5.76790500
_cell_length_c   9.20960821
_cell_angle_alpha   90.68139035
_cell_angle_beta   101.04660606
_cell_angle_gamma   91.44203229
_symmetry_Int_Tables_number   1
_chemical_formula_structural   Ba2Mg(WO4)2
_chemical_formula_sum   'Ba2 Mg1 W2 O8'
_cell_volume   211.34640637
_cell_formula_units_Z   1
loop_
 _symmetry_equiv_pos_site_id
 _symmetry_equiv_pos_as_xyz
  1  'x, y, z'
loop_
 _atom_site_type_symbol
 _atom_site_label
 _atom_site_symmetry_multiplicity
 _atom_site_fract_x
 _atom_site_fract_y
 _atom_site_fract_z
 _atom_site_occupancy
  Ba  Ba0  1  0.12710880  0.49249175  0.22272152  1
  Ba  Ba1  1  0.76519330  -0.00445224  0.58529544  1
  Mg  Mg0  1  0.14143925  0.90516002  0.92755611  1
  W  W0  1  0.43447766  0.48523150  0.84811819  1
  W  W1  1  0.62250729  0.98187569  0.18466960  1
  O  O0  1  0.51679757  0.70249264  0.04396656  1
  O  O1  1  0.65483065  0.22736860  0.32079436  1
  O  O2  1  0.09313253  0.97090651  0.14953336  1
  O  O3  1  0.94307808  0.53780768  0.88172982  1
  O  O4  1  0.70098304  0.75716581  0.34603059  1
  O  O5  1  0.32960277  0.30470252  0.67948068  1
  O  O6  1  0.35197622  0.80103186  0.75227177  1
  O  O7  1  0.48553985  0.19278466  0.99116499  1
loop_
_geom_bond_atom_site_label_1
_geom_bond_atom_site_label_2
_geom_bond_distance
_geom_bond_site_symmetry_2
Ba0 O1 2.681734 1_555
Ba0 O1 2.715024 1_455
Ba0 O4 2.729572 1_455
Ba0 O0 2.761023 1_555
Ba0 O4 2.793593 1_555
Ba0 O2 2.848800 1_555
Ba0 O0 2.990107 1_455
Ba0 O2 3.069107 1_545
Ba0 O3 3.101390 1_454
Ba0 O7 3.297877 1_554
Ba1 O4 2.550280 1_545
Ba1 O6 2.714045 1_545
Ba1 O1 2.758959 1_555
Ba1 O5 2.786028 1_555
Ba1 O6 2.838996 1_645
Ba1 O5 2.858092 1_655
Mg0 O6 2.055902 1_555
Mg0 O0 2.080205 1_556
Mg0 O2 2.121375 1_556
Mg0 O7 2.142439 1_565
Mg0 O3 2.253369 1_455
O0 W1 2.040198 1_555
O0 W0 2.151635 1_554
O0 O3 2.659218 1_454
O0 O3 2.676265 1_554
O0 O4 2.750872 1_555
O0 O2 2.777907 1_655
O0 O7 2.969755 1_554
O1 W1 1.865287 1_545
O2 W1 1.998514 1_455
O2 W1 2.108209 1_555
O2 O7 2.670056 1_564
O2 O7 2.943306 1_464
O3 W0 2.040612 1_555
O3 W0 2.103372 1_655
O3 O6 2.674074 1_655
O3 O7 2.999652 1_555
O4 W1 1.968481 1_555
O5 W0 1.833940 1_555
O5 O7 2.902642 1_555
O6 W0 2.040771 1_555
O7 W0 2.142345 1_555
O7 W1 2.161145 1_546
