# generated using pymatgen
data_Na2Mg(CuO2)2
_symmetry_space_group_name_H-M   'P 1'
_cell_length_a   3.68015258
_cell_length_b   5.60554700
_cell_length_c   5.72367923
_cell_angle_alpha   90.00000000
_cell_angle_beta   71.24927143
_cell_angle_gamma   90.00000000
_symmetry_Int_Tables_number   1
_chemical_formula_structural   Na2Mg(CuO2)2
_chemical_formula_sum   'Na2 Mg1 Cu2 O4'
_cell_volume   111.80858977
_cell_formula_units_Z   1
loop_
 _symmetry_equiv_pos_site_id
 _symmetry_equiv_pos_as_xyz
  1  'x, y, z'
loop_
 _atom_site_type_symbol
 _atom_site_label
 _atom_site_symmetry_multiplicity
 _atom_site_fract_x
 _atom_site_fract_y
 _atom_site_fract_z
 _atom_site_occupancy
  Na  Na0  1  0.33822100  0.25000000  0.32293200  1
  Na  Na1  1  0.71189600  0.75000000  0.57662900  1
  Mg  Mg0  1  0.67743300  0.25000000  0.64404100  1
  Cu  Cu0  1  0.99551700  0.25000000  0.00876500  1
  Cu  Cu1  1  0.98704200  0.75000000  0.02554600  1
  O  O0  1  0.86612000  0.48165900  0.26701900  1
  O  O1  1  0.12704000  0.47996100  0.74610800  1
  O  O2  1  0.86612000  0.01834100  0.26701900  1
  O  O3  1  0.12704000  0.02003900  0.74610800  1
loop_
_geom_bond_atom_site_label_1
_geom_bond_atom_site_label_2
_geom_bond_distance
_geom_bond_site_symmetry_2
Na0 O0 2.272284 1_555
Na0 O2 2.272284 1_555
Na0 O2 2.272609 1_455
Na0 O0 2.272609 1_455
Na0 O1 2.630997 1_555
Na0 O3 2.630997 1_555
Na1 O2 2.253550 1_565
Na1 O0 2.253550 1_555
Na1 O3 2.553287 1_665
Na1 O1 2.553287 1_655
Na1 O3 2.553951 1_565
Na1 O1 2.553951 1_555
Mg0 O1 2.311920 1_555
Mg0 O3 2.311920 1_555
Mg0 O1 2.315638 1_655
Mg0 O3 2.315638 1_655
Mg0 O2 2.421130 1_555
Mg0 O0 2.421130 1_555
Mg0 Na0 2.532077 1_555
Mg0 Na0 2.533414 1_655
Mg0 Na1 2.826489 1_555
Mg0 Na1 2.826489 1_545
Cu0 O2 1.909317 1_555
Cu0 O0 1.909317 1_555
Cu0 O1 1.920478 1_654
Cu0 O3 1.920478 1_654
Cu0 Na0 2.506423 1_655
Cu0 Na0 2.507659 1_555
Cu0 Mg0 2.699576 1_654
Cu0 Mg0 2.701718 1_554
Cu1 O0 1.993857 1_555
Cu1 O2 1.993857 1_565
Cu1 O3 2.141291 1_664
Cu1 O1 2.141291 1_654
