# generated using pymatgen
data_Na8MgCr2O8
_symmetry_space_group_name_H-M   'P 1'
_cell_length_a   5.90167057
_cell_length_b   5.83625801
_cell_length_c   9.16543424
_cell_angle_alpha   68.86988878
_cell_angle_beta   83.13008305
_cell_angle_gamma   69.33554323
_symmetry_Int_Tables_number   1
_chemical_formula_structural   Na8MgCr2O8
_chemical_formula_sum   'Na8 Mg1 Cr2 O8'
_cell_volume   275.51003568
_cell_formula_units_Z   1
loop_
 _symmetry_equiv_pos_site_id
 _symmetry_equiv_pos_as_xyz
  1  'x, y, z'
loop_
 _atom_site_type_symbol
 _atom_site_label
 _atom_site_symmetry_multiplicity
 _atom_site_fract_x
 _atom_site_fract_y
 _atom_site_fract_z
 _atom_site_occupancy
  Na  Na0  1  0.75564641  0.94285187  0.40281554  1
  Na  Na1  1  0.77711725  0.37125841  0.70077335  1
  Na  Na2  1  0.26760990  0.39945962  0.82136874  1
  Na  Na3  1  0.24926677  0.79830778  0.01044704  1
  Na  Na4  1  0.72457905  0.21944003  0.02559480  1
  Na  Na5  1  0.18942773  0.50986134  0.45581737  1
  Na  Na6  1  0.24580550  0.90196250  0.60187746  1
  Na  Na7  1  0.82328967  0.58708813  0.07779286  1
  Mg  Mg0  1  0.63569983  0.44540788  0.38222683  1
  Cr  Cr0  1  0.26818362  0.16486769  0.24375009  1
  Cr  Cr1  1  0.71743818  0.86855023  0.74209983  1
  O  O0  1  0.12354211  0.20525770  0.06203702  1
  O  O1  1  0.98040282  0.36367451  0.33772516  1
  O  O2  1  0.96431017  0.67465711  0.63362780  1
  O  O3  1  0.52762470  0.64005529  0.82993708  1
  O  O4  1  0.50070764  0.34291810  0.23090405  1
  O  O5  1  0.45189847  0.80853813  0.36798585  1
  O  O6  1  0.85737037  0.95371994  0.88297875  1
  O  O7  1  0.55466279  0.21878973  0.59024138  1
loop_
_geom_bond_atom_site_label_1
_geom_bond_atom_site_label_2
_geom_bond_distance
_geom_bond_site_symmetry_2
Na0 O5 2.288882 1_555
Na0 O2 2.305923 1_555
Na0 O4 2.373468 1_565
Na0 O7 2.666520 1_565
Na0 Na5 2.832347 1_655
Na0 O1 3.033320 1_565
Na1 O2 2.273100 1_555
Na1 O3 2.306992 1_555
Na1 O7 2.309628 1_555
Na1 O6 2.322086 1_545
Na1 Na4 2.795666 1_556
Na2 O0 2.302645 1_556
Na2 O2 2.336610 1_455
Na2 O3 2.441673 1_555
Na2 O7 2.821431 1_555
Na2 Na6 2.864696 1_555
Na2 Na4 3.109773 1_556
Na3 O3 2.381088 1_554
Na3 O0 2.428378 1_565
Na3 O6 2.436942 1_454
Na3 O4 2.722214 1_555
Na3 Na7 3.080287 1_455
Na3 Na7 3.222002 1_555
Na4 O6 2.255316 1_544
Na4 O4 2.348796 1_555
Na4 O0 2.385994 1_655
Na4 O3 2.429816 1_554
Na4 Na7 2.619398 1_555
Na5 O2 2.248630 1_455
Na5 O1 2.269194 1_455
Na5 O7 2.364720 1_555
Na5 O5 2.584919 1_555
Na5 O4 2.802221 1_555
Na5 Na6 3.215467 1_545
Na6 O2 2.401244 1_455
Na6 O5 2.474485 1_555
Na6 O3 2.491131 1_555
Na6 O1 2.966620 1_465
Na6 O7 2.990510 1_565
Na6 O6 3.262476 1_455
Na7 O6 2.295751 1_554
Na7 O0 2.347470 1_655
Na7 O1 2.381434 1_555
Na7 O4 2.730981 1_555
Na7 O3 2.891752 1_554
Mg0 O1 1.946600 1_555
Mg0 O5 1.974109 1_555
Mg0 O7 2.005794 1_555
Mg0 O4 2.028519 1_555
Mg0 Na5 2.567447 1_555
Mg0 Na0 2.703143 1_545
Mg0 Na7 2.817560 1_555
Cr0 O0 1.863627 1_555
Cr0 O5 1.947730 1_545
Cr0 O4 1.963781 1_555
Cr0 O1 1.988062 1_455
Cr1 O6 1.898391 1_555
Cr1 O2 1.921626 1_555
Cr1 O3 1.935447 1_555
Cr1 O7 1.980181 1_565
