# generated using pymatgen
data_TlBiTe2
_symmetry_space_group_name_H-M   'P 1'
_cell_length_a   8.38638463
_cell_length_b   8.38638463
_cell_length_c   8.38638525
_cell_angle_alpha   31.50059579
_cell_angle_beta   31.50059579
_cell_angle_gamma   31.50060312
_symmetry_Int_Tables_number   1
_chemical_formula_structural   TlBiTe2
_chemical_formula_sum   'Tl1 Bi1 Te2'
_cell_volume   142.96338775
_cell_formula_units_Z   1
loop_
 _symmetry_equiv_pos_site_id
 _symmetry_equiv_pos_as_xyz
  1  'x, y, z'
loop_
 _atom_site_type_symbol
 _atom_site_label
 _atom_site_symmetry_multiplicity
 _atom_site_fract_x
 _atom_site_fract_y
 _atom_site_fract_z
 _atom_site_occupancy
  Tl  Tl0  1  0.50000000  0.50000000  0.50000000  1
  Bi  Bi0  1  -0.00000000  -0.00000000  0.00000000  1
  Te  Te0  1  0.74066475  0.74066475  0.74066475  1
  Te  Te1  1  0.25933525  0.25933525  0.25933525  1
loop_
_geom_bond_atom_site_label_1
_geom_bond_atom_site_label_2
_geom_bond_distance
_geom_bond_site_symmetry_2
Bi0 Te0 3.167827 1_544
Bi0 Te1 3.167827 1_455
Bi0 Te1 3.167827 1_545
Bi0 Te0 3.167827 1_454
Bi0 Te0 3.167827 1_445
Bi0 Te1 3.167827 1_554
Te0 Tl0 3.436758 1_565
Te0 Tl0 3.436758 1_655
Te0 Tl0 3.436758 1_556
Te1 Tl0 3.436758 1_545
Te1 Tl0 3.436758 1_455
Te1 Tl0 3.436758 1_554
