# generated using pymatgen
data_HfGa2Co
_symmetry_space_group_name_H-M   'P 1'
_cell_length_a   9.47100107
_cell_length_b   9.47099252
_cell_length_c   9.47093896
_cell_angle_alpha   100.40329205
_cell_angle_beta   100.40276215
_cell_angle_gamma   129.70637395
_symmetry_Int_Tables_number   1
_chemical_formula_structural   HfGa2Co
_chemical_formula_sum   'Hf10 Ga20 Co10'
_cell_volume   591.63307816
_cell_formula_units_Z   10
loop_
 _symmetry_equiv_pos_site_id
 _symmetry_equiv_pos_as_xyz
  1  'x, y, z'
loop_
 _atom_site_type_symbol
 _atom_site_label
 _atom_site_symmetry_multiplicity
 _atom_site_fract_x
 _atom_site_fract_y
 _atom_site_fract_z
 _atom_site_occupancy
  Hf  Hf0  1  0.51942027  0.51941972  0.00000797  1
  Hf  Hf1  1  0.05377673  0.05377635  0.99996590  1
  Hf  Hf2  1  0.83631198  0.83630759  0.40137441  1
  Hf  Hf3  1  0.43495776  0.83631926  0.00002219  1
  Hf  Hf4  1  0.83632314  0.43496133  0.00003122  1
  Hf  Hf5  1  0.43495615  0.43495988  0.59863586  1
  Hf  Hf6  1  0.84322713  0.12400201  0.71922199  1
  Hf  Hf7  1  0.12399026  0.84321159  0.71921845  1
  Hf  Hf8  1  0.12400669  0.40479446  0.28080038  1
  Hf  Hf9  1  0.40480320  0.12401916  0.28079769  1
  Ga  Ga0  1  0.79904411  0.63708485  0.83804744  1
  Ga  Ga1  1  0.63708794  0.79904982  0.83804580  1
  Ga  Ga2  1  0.03245298  0.64875558  0.38373768  1
  Ga  Ga3  1  0.64870452  0.03239806  0.38373589  1
  Ga  Ga4  1  0.42334868  0.42335471  0.26256634  1
  Ga  Ga5  1  0.64868172  0.26497218  0.61627097  1
  Ga  Ga6  1  0.26502121  0.64872989  0.61626248  1
  Ga  Ga7  1  0.16081207  0.16080641  0.73743014  1
  Ga  Ga8  1  0.42337001  0.16077839  -0.00000157  1
  Ga  Ga9  1  0.16078347  0.42337434  0.00001071  1
  Ga  Ga10  1  0.73863536  0.24684437  0.21132746  1
  Ga  Ga11  1  0.52730091  0.73867550  0.49178309  1
  Ga  Ga12  1  0.24685780  0.03551236  0.50821576  1
  Ga  Ga13  1  0.03552972  0.52731945  0.78865754  1
  Ga  Ga14  1  0.24685702  0.73864486  0.21134635  1
  Ga  Ga15  1  0.52730398  0.03552187  0.78862997  1
  Ga  Ga16  1  0.73866435  0.52731520  0.49179227  1
  Ga  Ga17  1  0.03551966  0.24684120  0.50820829  1
  Ga  Ga18  1  0.96100171  0.79906175  0.16194965  1
  Ga  Ga19  1  0.79905695  0.96099560  0.16194808  1
  Co  Co0  1  0.81900266  0.81900403  0.67477138  1
  Co  Co1  1  0.89817682  0.39816264  0.49998313  1
  Co  Co2  1  0.39816395  0.89817895  0.49998400  1
  Co  Co3  1  0.14426311  0.14426137  0.32520990  1
  Co  Co4  1  0.81904125  0.14426824  0.99999323  1
  Co  Co5  1  0.14427023  0.81904334  0.99999604  1
  Co  Co6  1  0.27134540  0.48746783  0.78389210  1
  Co  Co7  1  0.48746320  0.27133922  0.78388951  1
  Co  Co8  1  0.48746530  0.70357472  0.21612015  1
  Co  Co9  1  0.70357659  0.48746889  0.21611816  1
loop_
_geom_bond_atom_site_label_1
_geom_bond_atom_site_label_2
_geom_bond_distance
_geom_bond_site_symmetry_2
Ga0 Ga18 2.776919 1_556
Ga0 Ga1 2.777091 1_555
Ga0 Hf5 2.805538 1_555
Ga0 Hf4 2.805607 1_556
Ga0 Hf1 2.838988 1_665
Ga0 Ga5 2.948572 1_555
Ga0 Hf7 2.986111 1_655
Ga0 Hf0 2.986952 1_556
Ga0 Ga13 3.081205 1_655
Ga0 Ga16 3.081220 1_555
Ga1 Ga19 2.776919 1_556
Ga1 Hf5 2.805513 1_555
Ga1 Hf3 2.805564 1_556
Ga1 Hf1 2.838990 1_665
Ga1 Ga6 2.948450 1_555
Ga1 Hf6 2.986126 1_565
Ga1 Hf0 2.987010 1_556
Ga1 Ga15 3.081275 1_565
Ga1 Ga11 3.081310 1_555
Ga2 Ga6 2.819682 1_555
Ga2 Hf7 3.015067 1_555
Ga2 Hf8 3.015398 1_555
Ga3 Ga5 2.819746 1_555
Ga3 Hf6 3.015086 1_555
Ga3 Hf9 3.015439 1_555
Ga4 Hf8 2.765746 1_555
Ga4 Hf9 2.765759 1_555
Ga4 Hf0 2.900981 1_555
Ga4 Hf1 2.957552 1_554
Ga4 Hf2 3.010538 1_555
Ga4 Hf5 3.144333 1_555
Ga5 Hf9 3.015001 1_555
Ga5 Hf6 3.015422 1_555
Ga6 Hf8 3.014923 1_555
Ga6 Hf7 3.015435 1_555
Ga7 Hf7 2.765804 1_545
Ga7 Hf6 2.765816 1_455
Ga7 Hf0 2.901005 1_556
Ga7 Hf1 2.957239 1_555
Ga7 Hf5 3.010412 1_555
Ga7 Hf2 3.144384 1_445
Ga8 Hf7 2.765772 1_544
Ga8 Hf9 2.765819 1_555
Ga8 Hf0 2.901182 1_555
Ga8 Hf1 2.957521 1_554
Ga8 Hf4 3.010385 1_555
Ga8 Hf3 3.144235 1_545
Ga9 Hf6 2.765785 1_454
Ga9 Hf8 2.765789 1_555
Ga9 Hf0 2.901195 1_555
Ga9 Hf1 2.957510 1_554
Ga9 Hf3 3.010400 1_555
Ga9 Hf4 3.144239 1_455
Ga10 Ga3 2.646967 1_555
Ga10 Ga2 2.734880 1_655
Ga10 Ga8 2.780046 1_555
Ga10 Hf8 2.791632 1_655
Ga10 Hf4 2.808044 1_555
Ga10 Hf9 2.847968 1_555
Ga10 Hf3 2.866607 1_545
Ga10 Ga19 3.081295 1_545
Ga11 Ga6 2.646250 1_555
Ga11 Ga3 2.733864 1_565
Ga11 Ga4 2.780415 1_555
Ga11 Hf6 2.791507 1_565
Ga11 Hf2 2.808318 1_555
Ga11 Hf8 2.847943 1_555
Ga11 Hf5 2.867014 1_555
Ga12 Ga2 2.646280 1_545
Ga12 Ga5 2.734282 1_555
Ga12 Ga7 2.780132 1_555
Ga12 Hf9 2.791585 1_555
Ga12 Hf5 2.808399 1_555
Ga12 Hf7 2.847999 1_545
Ga12 Hf2 2.866824 1_445
Ga12 Ga18 3.081285 1_445
Ga13 Ga5 2.646899 1_455
Ga13 Ga6 2.734689 1_555
Ga13 Ga9 2.780215 1_556
Ga13 Hf7 2.791466 1_555
Ga13 Hf3 2.808335 1_556
Ga13 Hf6 2.848123 1_455
Ga13 Hf4 2.867076 1_456
Ga14 Ga2 2.646583 1_555
Ga14 Ga3 2.734461 1_565
Ga14 Ga9 2.780058 1_555
Ga14 Hf9 2.791683 1_565
Ga14 Hf3 2.808182 1_555
Ga14 Hf8 2.847984 1_555
Ga14 Hf4 2.866691 1_455
Ga14 Ga18 3.081331 1_455
Ga15 Ga6 2.646532 1_545
Ga15 Ga5 2.734161 1_555
Ga15 Ga8 2.780237 1_556
Ga15 Hf6 2.791530 1_555
Ga15 Hf4 2.808495 1_556
Ga15 Hf7 2.848110 1_545
Ga15 Hf3 2.867212 1_546
Ga16 Ga5 2.646668 1_555
Ga16 Ga2 2.734359 1_655
Ga16 Ga4 2.780406 1_555
Ga16 Hf7 2.791441 1_655
Ga16 Hf2 2.808171 1_555
Ga16 Hf9 2.847952 1_555
Ga16 Hf5 2.866871 1_555
Ga17 Ga3 2.646664 1_455
Ga17 Ga6 2.734710 1_555
Ga17 Ga7 2.780119 1_555
Ga17 Hf8 2.791518 1_555
Ga17 Hf5 2.808257 1_555
Ga17 Hf6 2.848015 1_455
Ga17 Hf2 2.866707 1_445
Ga17 Ga19 3.081212 1_445
Ga18 Ga19 2.776726 1_555
Ga18 Hf4 2.805511 1_555
Ga18 Hf2 2.805602 1_555
Ga18 Hf1 2.839078 1_664
Ga18 Ga2 2.948585 1_655
Ga18 Hf9 2.986290 1_665
Ga18 Hf0 2.986924 1_555
Ga19 Hf3 2.805542 1_555
Ga19 Hf2 2.805637 1_555
Ga19 Hf1 2.839091 1_664
Ga19 Ga3 2.948713 1_565
Ga19 Hf8 2.986260 1_665
Ga19 Hf0 2.986878 1_555
Co0 Ga1 2.459075 1_555
Co0 Ga0 2.459116 1_555
Co0 Ga16 2.514575 1_555
Co0 Ga11 2.514772 1_555
Co0 Ga7 2.556175 1_665
Co0 Hf2 2.651521 1_555
Co0 Hf6 2.693180 1_565
Co0 Hf7 2.693191 1_655
Co0 Hf1 2.847889 1_665
Co0 Hf5 2.860320 1_555
Co1 Ga3 2.453633 1_555
Co1 Ga5 2.453752 1_555
Co1 Ga2 2.460707 1_655
Co1 Ga6 2.460762 1_655
Co1 Ga10 2.477356 1_555
Co1 Ga16 2.477431 1_555
Co1 Ga17 2.477438 1_655
Co1 Ga13 2.477503 1_655
Co2 Ga2 2.453286 1_555
Co2 Ga6 2.453389 1_555
Co2 Ga3 2.460378 1_565
Co2 Ga5 2.460419 1_565
Co2 Ga14 2.477202 1_555
Co2 Ga11 2.477221 1_555
Co2 Ga12 2.477227 1_565
Co2 Ga15 2.477260 1_565
Co3 Ga18 2.459048 1_445
Co3 Ga19 2.459100 1_445
Co3 Ga17 2.514642 1_555
Co3 Ga12 2.514818 1_555
Co3 Ga4 2.555625 1_555
Co3 Hf5 2.651676 1_555
Co3 Hf9 2.693094 1_555
Co3 Hf8 2.693107 1_555
Co3 Hf1 2.848230 1_554
Co3 Hf2 2.860814 1_445
Co4 Ga1 2.459173 1_545
Co4 Ga19 2.459287 1_546
Co4 Ga10 2.514623 1_556
Co4 Ga15 2.514819 1_555
Co4 Ga9 2.555650 1_656
Co4 Hf4 2.651507 1_556
Co4 Hf6 2.693009 1_555
Co4 Hf8 2.693280 1_656
Co4 Hf1 2.848104 1_655
Co4 Hf3 2.860731 1_546
Co5 Ga0 2.459230 1_455
Co5 Ga18 2.459247 1_456
Co5 Ga13 2.514618 1_555
Co5 Ga14 2.514749 1_556
Co5 Ga8 2.555654 1_566
Co5 Hf3 2.651513 1_556
Co5 Hf7 2.693014 1_555
Co5 Hf9 2.693276 1_566
Co5 Hf1 2.848094 1_565
Co5 Hf4 2.860741 1_456
Co6 Ga6 2.411437 1_555
Co6 Ga7 2.462712 1_555
Co6 Ga9 2.462751 1_556
Co6 Ga13 2.497985 1_555
Co6 Ga17 2.498173 1_555
Co6 Ga1 2.592549 1_555
Co6 Hf0 2.632951 1_556
Co6 Hf3 2.716231 1_556
Co6 Hf5 2.716285 1_555
Co6 Hf6 3.028768 1_455
Co7 Ga5 2.411157 1_555
Co7 Ga7 2.462631 1_555
Co7 Ga8 2.462661 1_556
Co7 Ga15 2.497890 1_555
Co7 Ga12 2.498076 1_555
Co7 Ga0 2.592551 1_555
Co7 Hf0 2.632956 1_556
Co7 Hf4 2.716319 1_556
Co7 Hf5 2.716351 1_555
Co7 Hf7 3.028831 1_545
Co8 Ga3 2.411097 1_565
Co8 Ga4 2.462659 1_555
Co8 Ga9 2.462730 1_555
Co8 Ga11 2.497927 1_555
Co8 Ga14 2.498123 1_555
Co8 Ga19 2.592638 1_555
Co8 Hf0 2.632832 1_555
Co8 Hf3 2.716110 1_555
Co8 Hf2 2.716212 1_555
Co8 Hf8 3.028834 1_555
Co9 Ga2 2.411366 1_655
Co9 Ga4 2.462746 1_555
Co9 Ga8 2.462807 1_555
Co9 Ga16 2.498038 1_555
Co9 Ga10 2.498176 1_555
Co9 Ga18 2.592635 1_555
Co9 Hf0 2.632815 1_555
Co9 Hf4 2.716028 1_555
Co9 Hf2 2.716133 1_555
Co9 Hf9 3.028766 1_555
