# generated using pymatgen
data_MgV6O5F19
_symmetry_space_group_name_H-M   'P 1'
_cell_length_a   5.42704128
_cell_length_b   5.18357878
_cell_length_c   15.94035696
_cell_angle_alpha   90.81278960
_cell_angle_beta   100.17487392
_cell_angle_gamma   88.60431111
_symmetry_Int_Tables_number   1
_chemical_formula_structural   MgV6O5F19
_chemical_formula_sum   'Mg1 V6 O5 F19'
_cell_volume   441.22056804
_cell_formula_units_Z   1
loop_
 _symmetry_equiv_pos_site_id
 _symmetry_equiv_pos_as_xyz
  1  'x, y, z'
loop_
 _atom_site_type_symbol
 _atom_site_label
 _atom_site_symmetry_multiplicity
 _atom_site_fract_x
 _atom_site_fract_y
 _atom_site_fract_z
 _atom_site_occupancy
  Mg  Mg0  1  0.31485400  0.98853600  0.44500900  1
  V  V0  1  0.98713000  0.98506200  0.00002400  1
  V  V1  1  0.15582700  0.50814900  0.31792000  1
  V  V2  1  0.32218800  0.00858300  0.67909300  1
  V  V3  1  0.45608400  0.46751100  0.99549200  1
  V  V4  1  0.65669700  0.07485700  0.31265300  1
  V  V5  1  0.80877200  0.44959700  0.66896400  1
  O  O0  1  0.03912300  0.21139500  0.65455600  1
  O  O1  1  0.20105900  0.29652400  0.97580500  1
  O  O2  1  0.36345300  0.21433100  0.29091600  1
  O  O3  1  0.54239600  0.27218200  0.65409000  1
  O  O4  1  0.85083300  0.30741200  0.29398800  1
  F  F0  1  0.13657300  0.71650400  0.69018600  1
  F  F1  1  0.03588100  0.11122300  0.10540600  1
  F  F2  1  0.19746600  0.35084300  0.42947200  1
  F  F3  1  0.38526500  0.07862400  0.78853200  1
  F  F4  1  0.13316600  0.65249200  0.21762600  1
  F  F5  1  0.29030200  0.91507600  0.55790900  1
  F  F6  1  0.46534900  0.60272500  0.89515700  1
  F  F7  1  0.67946900  0.19523000  0.96915200  1
  F  F8  1  0.30634600  0.78297000  0.02962500  1
  F  F9  1  0.44540800  0.71710600  0.36741500  1
  F  F10  1  0.62103700  0.78091100  0.69192500  1
  F  F11  1  0.56376800  0.40247500  0.10501700  1
  F  F12  1  0.66500600  0.10088700  0.43098900  1
  F  F13  1  0.88665900  0.44887800  0.78202300  1
  F  F14  1  0.64877400  0.85162500  0.22822500  1
  F  F15  1  0.78034800  0.58323500  0.56380100  1
  F  F16  1  0.98086000  0.91103300  0.89160300  1
  F  F17  1  0.80930100  0.69975500  0.02371600  1
  F  F18  1  0.99679400  0.82677100  0.36782100  1
loop_
_geom_bond_atom_site_label_1
_geom_bond_atom_site_label_2
_geom_bond_distance
_geom_bond_site_symmetry_2
O0 V5 1.777172 1_455
O0 V2 1.827247 1_555
O1 V3 1.642562 1_555
O1 V0 2.090667 1_446
O2 V4 1.712218 1_555
O2 V1 1.960546 1_555
O3 V5 1.711519 1_555
O3 V2 1.928043 1_555
O4 V4 1.683600 1_555
O4 V1 1.953850 1_655
F0 V2 1.866297 1_565
F0 V5 2.255528 1_455
F0 F13 2.599583 1_455
F0 F15 2.631140 1_455
F0 F10 2.653621 1_555
F1 V0 1.771927 1_445
F1 F8 2.637304 1_545
F1 F7 2.673917 1_454
F2 V1 1.941151 1_555
F2 Mg0 1.973176 1_545
F2 O4 2.612500 1_455
F2 F9 2.653614 1_555
F3 V2 1.751961 1_555
F4 V1 1.758081 1_555
F4 F9 2.694477 1_555
F5 Mg0 1.873015 1_555
F5 V2 1.963626 1_565
F6 V3 1.764572 1_555
F6 F7 2.582667 1_555
F6 F8 2.601810 1_556
F7 V3 1.928135 1_555
F7 V0 1.962950 1_546
F7 O1 2.656552 1_555
F8 V3 1.922642 1_554
F8 V0 1.989483 1_455
F8 O1 2.693742 1_554
F9 V1 1.971321 1_555
F9 Mg0 2.055029 1_555
F9 V4 2.453351 1_565
F10 V2 1.965059 1_565
F10 V5 2.037185 1_555
F10 F13 2.514111 1_555
F10 F15 2.547539 1_555
F10 F5 2.625949 1_555
F10 F3 2.631113 1_565
F10 O3 2.632574 1_565
F10 O3 2.723712 1_555
F11 V3 1.774784 1_554
F11 F17 2.568374 1_555
F11 F7 2.573002 1_554
F11 F8 2.574082 1_555
F12 V4 1.881876 1_555
F12 Mg0 2.051307 1_545
F12 F9 2.456913 1_545
F12 F18 2.598164 1_545
F13 V5 1.776959 1_555
F14 V4 1.757792 1_565
F14 F18 2.654585 1_555
F14 F9 2.752028 1_555
F15 V5 1.802815 1_555
F16 V0 1.759650 1_556
F16 F7 2.630397 1_565
F16 F8 2.648149 1_656
F17 V0 1.864226 1_555
F17 V3 2.262437 1_554
F17 F6 2.569408 1_554
F18 V1 2.059432 1_655
F18 Mg0 2.118347 1_655
F18 V4 2.275248 1_565
F18 F9 2.487716 1_655
F18 F4 2.761876 1_655
F18 F2 2.792442 1_655
F18 O4 2.806702 1_565
