# generated using pymatgen
data_BaLaMg(CoO3)2
_symmetry_space_group_name_H-M   'P 1'
_cell_length_a   3.79821646
_cell_length_b   5.56894932
_cell_length_c   7.77413233
_cell_angle_alpha   90.00000000
_cell_angle_beta   90.00000000
_cell_angle_gamma   90.00000000
_symmetry_Int_Tables_number   1
_chemical_formula_structural   BaLaMg(CoO3)2
_chemical_formula_sum   'Ba1 La1 Mg1 Co2 O6'
_cell_volume   164.43902989
_cell_formula_units_Z   1
loop_
 _symmetry_equiv_pos_site_id
 _symmetry_equiv_pos_as_xyz
  1  'x, y, z'
loop_
 _atom_site_type_symbol
 _atom_site_label
 _atom_site_symmetry_multiplicity
 _atom_site_fract_x
 _atom_site_fract_y
 _atom_site_fract_z
 _atom_site_occupancy
  Ba  Ba0  1  -0.00000000  -0.00000000  0.50000000  1
  La  La0  1  -0.00000000  -0.00000000  -0.00000000  1
  Mg  Mg0  1  -0.00000000  0.50000000  -0.00000000  1
  Co  Co0  1  0.49999900  0.49999900  0.73449646  1
  Co  Co1  1  0.49999900  0.49999900  0.26550254  1
  O  O0  1  0.49999900  0.49999900  0.50000000  1
  O  O1  1  0.49999900  -0.00000000  0.80019307  1
  O  O2  1  0.00000000  0.49999900  0.75736537  1
  O  O3  1  0.49999900  -0.00000000  0.19980793  1
  O  O4  1  0.49999900  0.49999900  -0.00000000  1
  O  O5  1  0.00000000  0.49999900  0.24263563  1
loop_
_geom_bond_atom_site_label_1
_geom_bond_atom_site_label_2
_geom_bond_distance
_geom_bond_site_symmetry_2
Ba0 O3 3.008805 1_555
Ba0 O3 3.008810 1_455
Ba0 O1 3.008811 1_555
Ba0 O1 3.008816 1_455
Ba0 O0 3.370440 1_555
Ba0 O0 3.370444 1_455
Ba0 O0 3.370449 1_545
Ba0 O0 3.370453 1_445
Ba0 O5 3.428762 1_555
Ba0 O2 3.428766 1_555
Ba0 O5 3.428771 1_545
Ba0 O2 3.428775 1_545
La0 O1 2.453450 1_554
La0 O3 2.453455 1_555
La0 O1 2.453456 1_454
La0 O3 2.453461 1_455
La0 Mg0 2.784475 1_555
La0 Mg0 2.784475 1_545
Mg0 O2 1.886274 1_554
Mg0 O5 1.886281 1_555
Mg0 O4 1.899104 1_555
Mg0 O4 1.899112 1_455
Co0 O0 1.823007 1_555
Co0 O2 1.907408 1_555
Co0 O2 1.907416 1_655
Co0 O4 2.064060 1_556
Co0 O1 2.830922 1_555
Co0 O1 2.830933 1_565
Co1 O0 1.823014 1_555
Co1 O5 1.907407 1_555
Co1 O5 1.907414 1_655
Co1 O4 2.064052 1_555
Co1 O3 2.830919 1_555
Co1 O3 2.830930 1_565
