# generated using pymatgen
data_Ga2PbO4
_symmetry_space_group_name_H-M   'P 1'
_cell_length_a   5.25125472
_cell_length_b   5.39734257
_cell_length_c   8.58802772
_cell_angle_alpha   90.00000000
_cell_angle_beta   90.00000000
_cell_angle_gamma   119.10861658
_symmetry_Int_Tables_number   1
_chemical_formula_structural   Ga2PbO4
_chemical_formula_sum   'Ga4 Pb2 O8'
_cell_volume   212.66615640
_cell_formula_units_Z   2
loop_
 _symmetry_equiv_pos_site_id
 _symmetry_equiv_pos_as_xyz
  1  'x, y, z'
loop_
 _atom_site_type_symbol
 _atom_site_label
 _atom_site_symmetry_multiplicity
 _atom_site_fract_x
 _atom_site_fract_y
 _atom_site_fract_z
 _atom_site_occupancy
  Ga  Ga0  1  0.71038825  0.34585465  0.44769187  1
  Ga  Ga1  1  0.36453359  0.65414535  0.55230813  1
  Ga  Ga2  1  0.71038825  0.34585465  0.05230813  1
  Ga  Ga3  1  0.36453359  0.65414535  0.94769187  1
  Pb  Pb0  1  0.02730583  0.05344930  0.25000000  1
  Pb  Pb1  1  0.97385653  0.94655070  0.75000000  1
  O  O0  1  0.87056852  0.38096540  0.25000000  1
  O  O1  1  0.48960312  0.61903460  0.75000000  1
  O  O2  1  0.67602806  -0.00000000  0.50000000  1
  O  O3  1  0.67602806  -0.00000000  -0.00000000  1
  O  O4  1  0.37124941  0.36581621  0.43897638  1
  O  O5  1  0.00543420  0.63418379  0.56102362  1
  O  O6  1  0.00543420  0.63418379  0.93897638  1
  O  O7  1  0.37124941  0.36581621  0.06102362  1
loop_
_geom_bond_atom_site_label_1
_geom_bond_atom_site_label_2
_geom_bond_distance
_geom_bond_site_symmetry_2
Ga0 O4 1.837256 1_555
Ga0 O2 1.841525 1_555
Ga0 O5 1.850337 1_655
Ga0 O0 1.863014 1_555
Ga1 O5 1.837251 1_555
Ga1 O2 1.841525 1_565
Ga1 O4 1.850335 1_555
Ga1 O1 1.863014 1_555
Ga2 O7 1.837256 1_555
Ga2 O3 1.841525 1_555
Ga2 O6 1.850337 1_654
Ga2 O0 1.863014 1_555
Ga3 O6 1.837251 1_555
Ga3 O3 1.841525 1_566
Ga3 O7 1.850335 1_556
Ga3 O1 1.863014 1_555
O0 Pb0 2.284257 1_655
O1 Pb1 2.284257 1_555
O2 Pb0 2.752788 1_655
O2 Pb1 2.752788 1_545
O3 Pb0 2.752788 1_655
O3 Pb1 2.752788 1_544
O4 Pb0 2.403297 1_555
O5 Pb1 2.403299 1_455
O6 Pb1 2.403299 1_455
O7 Pb0 2.403297 1_555
