# generated using pymatgen
data_Fe(PO3)3
_symmetry_space_group_name_H-M   'P 1'
_cell_length_a   8.44690886
_cell_length_b   8.53147036
_cell_length_c   8.66103327
_cell_angle_alpha   90.04397542
_cell_angle_beta   90.20363670
_cell_angle_gamma   90.61825528
_symmetry_Int_Tables_number   1
_chemical_formula_structural   Fe(PO3)3
_chemical_formula_sum   'Fe4 P12 O36'
_cell_volume   624.11300548
_cell_formula_units_Z   4
loop_
 _symmetry_equiv_pos_site_id
 _symmetry_equiv_pos_as_xyz
  1  'x, y, z'
loop_
 _atom_site_type_symbol
 _atom_site_label
 _atom_site_symmetry_multiplicity
 _atom_site_fract_x
 _atom_site_fract_y
 _atom_site_fract_z
 _atom_site_occupancy
  Fe  Fe0  1  0.86641900  0.64442200  0.35100500  1
  Fe  Fe1  1  0.63392500  0.35527800  0.85153500  1
  Fe  Fe2  1  0.36262400  0.85969700  0.64789300  1
  Fe  Fe3  1  0.13324100  0.14181300  0.15109800  1
  P  P0  1  0.67926400  0.98397900  0.81071400  1
  P  P1  1  0.70005100  0.30561900  0.44872700  1
  P  P2  1  0.80050100  0.69331600  0.94946500  1
  P  P3  1  0.82216900  0.01550000  0.30815100  1
  P  P4  1  0.03508400  0.68055300  0.69014500  1
  P  P5  1  0.17928900  0.51065100  0.19223900  1
  P  P6  1  0.20703500  0.19074100  0.55079400  1
  P  P7  1  0.29089700  0.80973800  0.05347300  1
  P  P8  1  0.31981500  0.48991900  0.68936600  1
  P  P9  1  0.46337000  0.31935400  0.18900600  1
  P  P10  1  0.53295400  0.82536000  0.30758900  1
  P  P11  1  0.96917100  0.17465800  0.81292400  1
  O  O0  1  0.63510000  0.69074100  0.35728000  1
  O  O1  1  0.96088300  0.72671700  0.85283000  1
  O  O2  1  0.90264100  0.87644500  0.37827900  1
  O  O3  1  0.90656500  0.62807000  0.58206500  1
  O  O4  1  0.04817400  0.21537900  0.64968700  1
  O  O5  1  0.09657100  0.36849400  0.12479400  1
  O  O6  1  0.09517000  0.12102500  0.92279000  1
  O  O7  1  0.09936400  0.59220300  0.32453700  1
  O  O8  1  0.13733500  0.81603000  0.63362600  1
  O  O9  1  0.14411200  0.53612400  0.74367100  1
  O  O10  1  0.15916200  0.15877000  0.38770000  1
  O  O11  1  0.18397800  0.91668900  0.14328400  1
  O  O12  1  0.21329900  0.63451900  0.05730500  1
  O  O13  1  0.28220300  0.36629600  0.55370300  1
  O  O14  1  0.32031400  0.08604100  0.63719700  1
  O  O15  1  0.33331000  0.84104000  0.88962300  1
  O  O16  1  0.35612400  0.46481800  0.24420300  1
  O  O17  1  0.35903400  0.18622800  0.13282900  1
  O  O18  1  0.40104900  0.40701300  0.82028300  1
  O  O19  1  0.40881600  0.88188600  0.41521800  1
  O  O20  1  0.40169100  0.63144300  0.62129700  1
  O  O21  1  0.45426000  0.78054300  0.14510100  1
  O  O22  1  0.53940000  0.27271200  0.35188700  1
  O  O23  1  0.86726800  0.31010200  0.85969300  1
  O  O24  1  0.59143700  0.37299200  0.08148800  1
  O  O25  1  0.59651500  0.89963300  0.67982400  1
  O  O26  1  0.90428000  0.09846700  0.17613100  1
  O  O27  1  0.64730600  0.96845600  0.25034100  1
  O  O28  1  0.65303800  0.33500400  0.61240600  1
  O  O29  1  0.69522500  0.58074500  0.86313100  1
  O  O30  1  0.71875300  0.86273200  0.94709000  1
  O  O31  1  0.78302200  0.13655000  0.44464500  1
  O  O32  1  0.80482700  0.41889100  0.36354800  1
  O  O33  1  0.84903900  0.66231100  0.11245800  1
  O  O34  1  0.85549700  0.03069600  0.75598100  1
  O  O35  1  0.59942900  0.12359100  0.87994400  1
loop_
_geom_bond_atom_site_label_1
_geom_bond_atom_site_label_2
_geom_bond_distance
_geom_bond_site_symmetry_2
Fe0 O32 1.990929 1_555
Fe0 O0 1.998585 1_555
Fe0 O2 2.013336 1_555
Fe0 O3 2.033705 1_555
Fe0 O7 2.035853 1_655
Fe0 O33 2.076602 1_555
Fe1 O29 1.989005 1_555
Fe1 O35 2.010309 1_555
Fe1 O23 2.013438 1_555
Fe1 O24 2.030769 1_556
Fe1 O18 2.037799 1_555
Fe1 O28 2.085158 1_555
Fe2 O8 1.938661 1_555
Fe2 O14 1.969818 1_565
Fe2 O20 1.991939 1_555
Fe2 O25 2.019215 1_555
Fe2 O19 2.062453 1_555
Fe2 O15 2.115015 1_555
Fe3 O17 1.947530 1_555
Fe3 O11 1.973544 1_545
Fe3 O5 1.975096 1_555
Fe3 O26 1.977836 1_455
Fe3 O6 2.009633 1_554
Fe3 O10 2.064905 1_555
O0 P10 1.506064 1_555
O1 P4 1.595006 1_655
O1 P2 1.617744 1_555
O2 P3 1.501314 1_565
O3 P4 1.495622 1_655
O4 P11 1.602284 1_455
O4 P6 1.610105 1_555
O5 P5 1.509321 1_555
O6 P11 1.500513 1_455
O7 P5 1.505729 1_555
O8 P4 1.517845 1_555
O9 P8 1.611398 1_555
O9 P4 1.613596 1_555
O10 P6 1.492053 1_555
O11 P7 1.508299 1_555
O12 P5 1.600881 1_555
O12 P7 1.626183 1_555
O13 P8 1.606890 1_555
O13 P6 1.620592 1_555
O14 P6 1.512566 1_555
O15 P7 1.488513 1_556
O16 P5 1.610813 1_555
O16 P9 1.617331 1_555
O17 P9 1.509273 1_555
O18 P8 1.504319 1_555
O19 P10 1.489368 1_555
O20 P8 1.506546 1_555
O21 P10 1.598631 1_555
O21 P7 1.611187 1_555
O22 P9 1.600266 1_555
O22 P1 1.614646 1_555
O23 P11 1.504489 1_555
O24 P9 1.497976 1_555
O25 P0 1.507908 1_555
O26 P3 1.511886 1_555
O27 P3 1.604713 1_565
O27 P10 1.627308 1_555
O28 P1 1.495268 1_555
O29 P2 1.499332 1_555
O30 P0 1.607150 1_555
O30 P2 1.608667 1_555
O31 P3 1.606769 1_555
O31 P1 1.610867 1_555
O32 P1 1.499568 1_555
O33 P2 1.493228 1_554
O34 P0 1.609992 1_545
O34 P11 1.626023 1_555
O35 P0 1.500702 1_545
