# generated using pymatgen
data_CsIO4
_symmetry_space_group_name_H-M   'P 1'
_cell_length_a   5.80943646
_cell_length_b   6.03725748
_cell_length_c   14.35809249
_cell_angle_alpha   90.00000000
_cell_angle_beta   90.00000000
_cell_angle_gamma   90.00000000
_symmetry_Int_Tables_number   1
_chemical_formula_structural   CsIO4
_chemical_formula_sum   'Cs4 I4 O16'
_cell_volume   503.58229284
_cell_formula_units_Z   4
loop_
 _symmetry_equiv_pos_site_id
 _symmetry_equiv_pos_as_xyz
  1  'x, y, z'
loop_
 _atom_site_type_symbol
 _atom_site_label
 _atom_site_symmetry_multiplicity
 _atom_site_fract_x
 _atom_site_fract_y
 _atom_site_fract_z
 _atom_site_occupancy
  Cs  Cs0  1  0.47823000  0.25000000  0.62867107  1
  Cs  Cs1  1  0.97823000  0.25000000  0.87132893  1
  Cs  Cs2  1  0.52177000  0.75000000  0.37132893  1
  Cs  Cs3  1  0.02177000  0.75000000  0.12867107  1
  I  I0  1  0.46158309  0.75000000  0.88212887  1
  I  I1  1  0.96158309  0.75000000  0.61787113  1
  I  I2  1  0.53841691  0.25000000  0.11787113  1
  I  I3  1  0.03841691  0.25000000  0.38212887  1
  O  O0  1  0.52039480  0.50943290  0.81523754  1
  O  O1  1  0.02039480  0.99056710  0.68476246  1
  O  O2  1  0.47960520  0.00943290  0.18476246  1
  O  O3  1  0.97960520  0.49056710  0.31523754  1
  O  O4  1  0.47960520  0.49056710  0.18476246  1
  O  O5  1  0.97960520  0.00943290  0.31523754  1
  O  O6  1  0.52039480  0.99056710  0.81523754  1
  O  O7  1  0.02039480  0.50943290  0.68476246  1
  O  O8  1  0.83362642  0.25000000  0.08498074  1
  O  O9  1  0.33362642  0.25000000  0.41501926  1
  O  O10  1  0.16637358  0.75000000  0.91501926  1
  O  O11  1  0.66637358  0.75000000  0.58498074  1
  O  O12  1  0.86252182  0.25000000  0.48323808  1
  O  O13  1  0.36252182  0.25000000  0.01676192  1
  O  O14  1  0.13747818  0.75000000  0.51676192  1
  O  O15  1  0.63747818  0.75000000  0.98323808  1
loop_
_geom_bond_atom_site_label_1
_geom_bond_atom_site_label_2
_geom_bond_distance
_geom_bond_site_symmetry_2
Cs0 O12 3.056873 1_555
Cs0 O0 3.112687 1_555
Cs0 O6 3.112687 1_545
Cs0 O9 3.180578 1_555
Cs0 O7 3.190006 1_555
Cs0 O1 3.190006 1_545
Cs0 O11 3.271132 1_555
Cs0 O11 3.271132 1_545
Cs0 O7 3.608632 1_655
Cs0 O1 3.608632 1_645
Cs1 O13 3.056873 1_656
Cs1 O7 3.112687 1_655
Cs1 O1 3.112687 1_645
Cs1 O8 3.180578 1_556
Cs1 O0 3.190006 1_555
Cs1 O6 3.190006 1_545
Cs1 O10 3.271132 1_645
Cs1 O10 3.271132 1_655
Cs1 O0 3.608632 1_655
Cs1 O6 3.608632 1_645
Cs2 O14 3.056873 1_555
Cs2 O2 3.112687 1_565
Cs2 O4 3.112687 1_555
Cs2 O11 3.180578 1_555
Cs2 O5 3.190006 1_565
Cs2 O3 3.190006 1_555
Cs2 O9 3.271132 1_555
Cs2 O9 3.271132 1_565
Cs2 O3 3.608632 1_455
Cs2 O5 3.608632 1_465
Cs3 O15 3.056873 1_454
Cs3 O5 3.112687 1_465
Cs3 O3 3.112687 1_455
Cs3 O10 3.180578 1_554
Cs3 O2 3.190006 1_565
Cs3 O4 3.190006 1_555
Cs3 O8 3.271132 1_465
Cs3 O8 3.271132 1_455
Cs3 O4 3.608632 1_455
Cs3 O2 3.608632 1_465
I0 O6 1.774409 1_555
I0 O0 1.774409 1_555
I0 O15 1.775307 1_555
I0 O10 1.778832 1_555
I1 O1 1.774409 1_655
I1 O7 1.774409 1_655
I1 O14 1.775307 1_655
I1 O11 1.778832 1_555
I2 O2 1.774409 1_555
I2 O4 1.774409 1_555
I2 O13 1.775307 1_555
I2 O8 1.778832 1_555
I3 O3 1.774409 1_455
I3 O5 1.774409 1_455
I3 O12 1.775307 1_455
I3 O9 1.778832 1_555
