# generated using pymatgen
data_Na30Ca20Ta4Si9(S3O16)9
_symmetry_space_group_name_H-M   'P 1'
_cell_length_a   18.64269977
_cell_length_b   9.34093002
_cell_length_c   23.42865974
_cell_angle_alpha   89.97855215
_cell_angle_beta   90.21123920
_cell_angle_gamma   120.07671477
_symmetry_Int_Tables_number   1
_chemical_formula_structural   Na30Ca20Ta4Si9(S3O16)9
_chemical_formula_sum   'Na30 Ca20 Ta4 Si9 S27 O144'
_cell_volume   3530.50782415
_cell_formula_units_Z   1
loop_
 _symmetry_equiv_pos_site_id
 _symmetry_equiv_pos_as_xyz
  1  'x, y, z'
loop_
 _atom_site_type_symbol
 _atom_site_label
 _atom_site_symmetry_multiplicity
 _atom_site_fract_x
 _atom_site_fract_y
 _atom_site_fract_z
 _atom_site_occupancy
  Na  Na0  1  0.80734790  0.00530603  0.23471659  1
  Na  Na1  1  0.00272591  0.63385146  0.23727103  1
  Na  Na2  1  0.50285610  0.63041653  0.23445381  1
  Na  Na3  1  0.00207370  0.37088520  0.73271518  1
  Na  Na4  1  0.50091623  0.37265415  0.73458292  1
  Na  Na5  1  0.18071506  0.01401836  0.75146975  1
  Na  Na6  1  0.66049362  0.34670476  0.58522854  1
  Na  Na7  1  0.66914763  0.97156239  0.08983189  1
  Na  Na8  1  0.83570660  0.68667324  0.07733760  1
  Na  Na9  1  0.00570327  0.34290410  0.08402592  1
  Na  Na10  1  0.48091428  0.65882481  0.92996342  1
  Na  Na11  1  0.84971963  0.03649140  0.93010660  1
  Na  Na12  1  0.16427948  0.29550370  0.90740113  1
  Na  Na13  1  0.66414614  0.30055439  0.90479130  1
  Na  Na14  1  0.47985917  0.30101349  0.42943846  1
  Na  Na15  1  0.98616368  0.30648946  0.43130902  1
  Na  Na16  1  0.16485192  0.03006858  0.40566460  1
  Na  Na17  1  0.66367548  0.02948243  0.40566201  1
  Na  Na18  1  0.98933156  0.99300963  0.50305025  1
  Na  Na19  1  0.47508985  0.96721091  0.50136123  1
  Na  Na20  1  0.00096636  0.96629505  0.99936313  1
  Na  Na21  1  0.47596267  0.98463722  0.00359707  1
  Na  Na22  1  0.32093918  0.33547553  0.82770898  1
  Na  Na23  1  0.82058381  0.34846165  0.82206277  1
  Na  Na24  1  0.30867855  0.30400732  0.32341199  1
  Na  Na25  1  0.81356020  0.32801385  0.32667424  1
  Na  Na26  1  0.16891560  0.70656555  0.16340568  1
  Na  Na27  1  0.65652056  0.67058369  0.15951547  1
  Na  Na28  1  0.16054213  0.62089555  0.65914150  1
  Na  Na29  1  0.66122554  0.65121816  0.66473434  1
  Ca  Ca0  1  0.00408956  0.00040378  0.34963377  1
  Ca  Ca1  1  0.49925909  0.99870161  0.34909724  1
  Ca  Ca2  1  0.00182994  0.99402508  0.84970752  1
  Ca  Ca3  1  0.50074702  0.00389157  0.84768923  1
  Ca  Ca4  1  0.33443160  0.34124160  0.67799452  1
  Ca  Ca5  1  0.83198012  0.33247324  0.68180134  1
  Ca  Ca6  1  0.32950575  0.32613698  0.18117925  1
  Ca  Ca7  1  0.83011852  0.32671890  0.18091048  1
  Ca  Ca8  1  0.33906514  0.33540495  0.99468622  1
  Ca  Ca9  1  0.84480079  0.34550805  0.99249703  1
  Ca  Ca10  1  0.33777914  0.33920143  0.49441171  1
  Ca  Ca11  1  0.84199148  0.33947419  0.49299302  1
  Ca  Ca12  1  0.16786829  0.67796058  0.01750427  1
  Ca  Ca13  1  0.66075811  0.66460769  0.02019977  1
  Ca  Ca14  1  0.16500421  0.65959935  0.52076672  1
  Ca  Ca15  1  0.66521159  0.66693177  0.51916991  1
  Ca  Ca16  1  0.17190396  0.67892205  0.30942536  1
  Ca  Ca17  1  0.66704488  0.66408284  0.31137193  1
  Ca  Ca18  1  0.16924402  0.65742477  0.81120544  1
  Ca  Ca19  1  0.66939760  0.66205860  0.80711207  1
  Ta  Ta0  1  0.00408146  0.01288863  0.64977388  1
  Ta  Ta1  1  0.50242431  0.00831406  0.65157647  1
  Ta  Ta2  1  0.00817484  0.00169471  0.15022684  1
  Ta  Ta3  1  0.50341723  0.99743662  0.15252895  1
  Si  Si0  1  0.15211230  0.00059385  0.25446624  1
  Si  Si1  1  0.65038080  0.99935711  0.25472568  1
  Si  Si2  1  0.15056050  0.29712623  0.75301139  1
  Si  Si3  1  0.65100643  0.30222076  0.75332155  1
  Si  Si4  1  0.48995194  0.33409037  0.58658789  1
  Si  Si5  1  0.98934219  0.33554479  0.58694143  1
  Si  Si6  1  0.48624921  0.64481329  0.08722988  1
  Si  Si7  1  0.98708526  0.64107151  0.09138868  1
  Si  Si8  1  0.83823309  0.02231387  0.08546231  1
  S  S0  1  0.35565201  0.71138405  0.24574592  1
  S  S1  1  0.85689569  0.71661124  0.24536175  1
  S  S2  1  0.00024479  0.29259576  0.24906827  1
  S  S3  1  0.49996939  0.29335935  0.24877765  1
  S  S4  1  0.00143887  0.70889353  0.74678999  1
  S  S5  1  0.49949454  0.70681724  0.74908745  1
  S  S6  1  0.35380115  0.99927627  0.74515750  1
  S  S7  1  0.85729284  0.99934535  0.74761554  1
  S  S8  1  0.17289764  0.02564493  0.58733183  1
  S  S9  1  0.67336774  0.02944149  0.58553759  1
  S  S10  1  0.34078377  0.65543192  0.58695808  1
  S  S11  1  0.83950633  0.64958295  0.58631524  1
  S  S12  1  0.34140689  0.02835555  0.08761915  1
  S  S13  1  0.17573059  0.32365815  0.08398238  1
  S  S14  1  0.67352682  0.31751411  0.08431092  1
  S  S15  1  0.31746888  0.65888518  0.91751255  1
  S  S16  1  0.81380754  0.66233903  0.91840714  1
  S  S17  1  0.01441025  0.36103012  0.91564731  1
  S  S18  1  0.51569894  0.36781356  0.91402724  1
  S  S19  1  0.16938300  0.97830314  0.91434825  1
  S  S20  1  0.66701225  0.96911700  0.91720785  1
  S  S21  1  0.31641432  0.97398162  0.41828638  1
  S  S22  1  0.81627346  0.97374253  0.41500784  1
  S  S23  1  0.16638290  0.36426934  0.41620953  1
  S  S24  1  0.66618219  0.36140158  0.41896326  1
  S  S25  1  0.01668169  0.66277592  0.41486085  1
  S  S26  1  0.51578366  0.66373719  0.41500419  1
  O  O0  1  0.11246175  0.00269060  0.31574461  1
  O  O1  1  0.60811232  0.00235334  0.31407779  1
  O  O2  1  0.40023326  0.79069670  0.29847618  1
  O  O3  1  0.90389996  0.79694438  0.29708579  1
  O  O4  1  0.49477991  0.21131794  0.30345911  1
  O  O5  1  0.99203267  0.19915999  0.30137000  1
  O  O6  1  0.11074661  0.20227665  0.81248401  1
  O  O7  1  0.61011578  0.21695138  0.81373867  1
  O  O8  1  0.49389666  0.77806736  0.80369555  1
  O  O9  1  0.99101890  0.77907023  0.79992591  1
  O  O10  1  0.39859958  0.01093043  0.79779666  1
  O  O11  1  0.89880141  0.00714551  0.80202139  1
  O  O12  1  0.40224467  0.98528433  0.69504316  1
  O  O13  1  0.90903453  0.98799818  0.69909915  1
  O  O14  1  0.08406960  0.16350550  0.69958639  1
  O  O15  1  0.58310553  0.16186314  0.70031648  1
  O  O16  1  0.00113058  0.80879578  0.69662498  1
  O  O17  1  0.49708089  0.81009067  0.70009567  1
  O  O18  1  0.40692457  0.82490987  0.19586367  1
  O  O19  1  0.90453443  0.82070658  0.19380246  1
  O  O20  1  0.00160085  0.19621504  0.19748278  1
  O  O21  1  0.49866140  0.18520514  0.19997637  1
  O  O22  1  0.08515040  0.00826858  0.20323965  1
  O  O23  1  0.58682563  0.00480332  0.19966368  1
  O  O24  1  0.44531060  0.34809081  0.64298219  1
  O  O25  1  0.94117990  0.34234800  0.64263521  1
  O  O26  1  0.22224939  0.10982503  0.63823181  1
  O  O27  1  0.72547138  0.11862494  0.63397345  1
  O  O28  1  0.32604425  0.54859232  0.63621751  1
  O  O29  1  0.82268245  0.53622763  0.63429602  1
  O  O30  1  0.44122242  0.53898806  0.14286833  1
  O  O31  1  0.94651852  0.53976726  0.14918727  1
  O  O32  1  0.32703196  0.10829031  0.13579989  1
  O  O33  1  0.81342461  0.10275122  0.13777778  1
  O  O34  1  0.22825198  0.34502637  0.13210971  1
  O  O35  1  0.72791172  0.34216295  0.13297026  1
  O  O36  1  0.20451877  0.28677660  0.03006124  1
  O  O37  1  0.70319742  0.27402472  0.03206327  1
  O  O38  1  0.43805167  0.57942352  0.02633640  1
  O  O39  1  0.92042916  0.57901764  0.03883903  1
  O  O40  1  0.35729557  0.12230699  0.03378325  1
  O  O41  1  0.86300210  0.13792607  0.02779441  1
  O  O42  1  0.20483508  0.12818613  0.53550713  1
  O  O43  1  0.70258047  0.13052926  0.53261377  1
  O  O44  1  0.35694869  0.58991402  0.53425413  1
  O  O45  1  0.85579421  0.58528302  0.53340441  1
  O  O46  1  0.44023538  0.30204350  0.52646587  1
  O  O47  1  0.93968052  0.29735829  0.52621996  1
  O  O48  1  0.27684761  0.67207783  0.96927872  1
  O  O49  1  0.77515883  0.67516612  0.97191847  1
  O  O50  1  0.06269498  0.44627570  0.96750320  1
  O  O51  1  0.56889056  0.45475456  0.96370632  1
  O  O52  1  0.16814209  0.88007465  0.96375854  1
  O  O53  1  0.66292642  0.88069492  0.97074844  1
  O  O54  1  0.27655806  0.87914376  0.47005126  1
  O  O55  1  0.77338906  0.87388348  0.46540519  1
  O  O56  1  0.16299552  0.45322659  0.46705449  1
  O  O57  1  0.66435424  0.44588649  0.47202947  1
  O  O58  1  0.07001326  0.67958336  0.46415140  1
  O  O59  1  0.57028172  0.68284739  0.46401660  1
  O  O60  1  0.05489331  0.64733408  0.36130015  1
  O  O61  1  0.55440943  0.64803898  0.36150191  1
  O  O62  1  0.27049313  0.88813052  0.36603262  1
  O  O63  1  0.77196501  0.89009376  0.36137846  1
  O  O64  1  0.17225616  0.45468246  0.36325065  1
  O  O65  1  0.67234006  0.45912114  0.36779811  1
  O  O66  1  0.05721216  0.45350467  0.86355027  1
  O  O67  1  0.55485831  0.46156743  0.86091327  1
  O  O68  1  0.17152452  0.90094106  0.85933706  1
  O  O69  1  0.67453429  0.88178019  0.86719401  1
  O  O70  1  0.27078739  0.65294414  0.86544498  1
  O  O71  1  0.76274658  0.65311965  0.86837787  1
  O  O72  1  0.00768845  0.81304459  0.41490586  1
  O  O73  1  0.50757799  0.81492475  0.41463431  1
  O  O74  1  0.40426143  0.00774403  0.41674890  1
  O  O75  1  0.90373288  0.00817399  0.41487300  1
  O  O76  1  0.08593855  0.19854755  0.41687475  1
  O  O77  1  0.58595493  0.19749538  0.41799014  1
  O  O78  1  0.00620610  0.19156711  0.91557316  1
  O  O79  1  0.50654768  0.19931414  0.91344616  1
  O  O80  1  0.09279496  0.99409074  0.91817335  1
  O  O81  1  0.58897246  0.97878966  0.91487990  1
  O  O82  1  0.40484525  0.80099120  0.91610906  1
  O  O83  1  0.89738084  0.81556613  0.91552601  1
  O  O84  1  0.49736179  0.15462777  0.59916438  1
  O  O85  1  0.99523930  0.15392135  0.59916792  1
  O  O86  1  0.08480250  0.00040600  0.59548260  1
  O  O87  1  0.58671616  0.00828718  0.59531255  1
  O  O88  1  0.42069152  0.82116780  0.59690256  1
  O  O89  1  0.91555776  0.81662719  0.59750123  1
  O  O90  1  0.49609302  0.84131713  0.09938403  1
  O  O91  1  0.00461232  0.83832968  0.10201637  1
  O  O92  1  0.42075530  0.02084647  0.09753056  1
  O  O93  1  0.92575235  0.01793760  0.10136701  1
  O  O94  1  0.08861173  0.17174505  0.09391419  1
  O  O95  1  0.58795061  0.16786484  0.09555480  1
  O  O96  1  0.34943190  0.15249968  0.73953231  1
  O  O97  1  0.85563312  0.15465053  0.74212167  1
  O  O98  1  0.23803840  0.30173004  0.74506884  1
  O  O99  1  0.74131872  0.32382096  0.74572060  1
  O  O100  1  0.42830018  0.53585975  0.74517381  1
  O  O101  1  0.93474919  0.53532885  0.74232883  1
  O  O102  1  0.35319473  0.55267064  0.24009148  1
  O  O103  1  0.84767869  0.55127126  0.24127568  1
  O  O104  1  0.42954210  0.32225713  0.24424163  1
  O  O105  1  0.92557306  0.31121100  0.24528010  1
  O  O106  1  0.24212021  0.16012674  0.24658647  1
  O  O107  1  0.74317746  0.15659468  0.24992757  1
  O  O108  1  0.32070136  0.50043892  0.91819586  1
  O  O109  1  0.81923629  0.50812969  0.91820943  1
  O  O110  1  0.43322002  0.35698609  0.91906332  1
  O  O111  1  0.92907598  0.33685373  0.91668023  1
  O  O112  1  0.24265996  0.15026113  0.91677267  1
  O  O113  1  0.74057015  0.14113871  0.91908082  1
  O  O114  1  0.31975734  0.13921273  0.41953407  1
  O  O115  1  0.81797555  0.13709509  0.41715091  1
  O  O116  1  0.23640556  0.32942818  0.41948476  1
  O  O117  1  0.73655092  0.32772956  0.41979846  1
  O  O118  1  0.43344108  0.51104995  0.42057280  1
  O  O119  1  0.93362570  0.50906779  0.41967759  1
  O  O120  1  0.15897081  0.46192960  0.07865378  1
  O  O121  1  0.66299221  0.46171272  0.07791492  1
  O  O122  1  0.07399120  0.64599247  0.08051186  1
  O  O123  1  0.58373986  0.69738028  0.08489609  1
  O  O124  1  0.27246490  0.85584314  0.08237272  1
  O  O125  1  0.76544797  0.82954986  0.07941369  1
  O  O126  1  0.16180340  0.85999848  0.58197989  1
  O  O127  1  0.66164082  0.86292989  0.58023936  1
  O  O128  1  0.27360125  0.69322041  0.58126311  1
  O  O129  1  0.76761515  0.67525950  0.58045215  1
  O  O130  1  0.08420819  0.48306686  0.58481519  1
  O  O131  1  0.58769169  0.47730640  0.58408488  1
  O  O132  1  0.14396151  0.81973631  0.24223575  1
  O  O133  1  0.64871271  0.82344244  0.24227998  1
  O  O134  1  0.27391107  0.69639241  0.24150689  1
  O  O135  1  0.77618282  0.71138894  0.24330456  1
  O  O136  1  0.07592625  0.45665214  0.24768427  1
  O  O137  1  0.57897685  0.45403389  0.24382626  1
  O  O138  1  0.14477080  0.46436375  0.74434213  1
  O  O139  1  0.64222773  0.46559542  0.74036151  1
  O  O140  1  0.08395762  0.71720201  0.74594537  1
  O  O141  1  0.57790752  0.70310367  0.74414102  1
  O  O142  1  0.26967609  0.85385243  0.74284941  1
  O  O143  1  0.77494290  0.85174512  0.74249067  1
loop_
_geom_bond_atom_site_label_1
_geom_bond_atom_site_label_2
_geom_bond_distance
_geom_bond_site_symmetry_2
Na0 O107 2.292000 1_555
Na0 O33 2.428261 1_555
Na0 O135 2.513409 1_545
Na0 O133 2.575158 1_545
Na0 O105 2.601535 1_555
Na0 O63 3.114477 1_545
Na0 O19 3.212524 1_545
Na1 O31 2.278494 1_455
Na1 O132 2.318760 1_555
Na1 O103 2.593438 1_455
Na1 O105 2.616008 1_455
Na1 O136 2.631115 1_555
Na1 O60 3.043395 1_555
Na1 O22 3.138319 1_565
Na2 O30 2.377681 1_555
Na2 O133 2.400179 1_555
Na2 O104 2.502966 1_555
Na2 O102 2.510216 1_555
Na2 O137 2.667862 1_555
Na2 O61 3.103457 1_555
Na2 O23 3.140841 1_565
Na3 O25 2.343768 1_455
Na3 O138 2.362243 1_555
Na3 O101 2.433154 1_455
Na3 O97 2.461409 1_455
Na3 O140 2.817569 1_555
Na3 O14 3.109569 1_555
Na3 O66 3.198693 1_555
Na4 O139 2.327508 1_555
Na4 O24 2.340619 1_555
Na4 O100 2.507917 1_555
Na4 O96 2.529632 1_555
Na4 O141 2.682444 1_555
Na4 O67 3.099023 1_555
Na4 O15 3.146955 1_555
Na5 O98 2.347201 1_555
Na5 O140 2.437886 1_545
Na5 O68 2.711363 1_545
Na5 O142 2.742139 1_545
Na5 O96 2.751867 1_555
Na5 O26 2.785272 1_555
Na5 O6 3.025223 1_555
Na5 O14 3.029500 1_555
Na5 O16 3.173624 1_545
Na6 O131 2.233900 1_555
Na6 O84 2.666914 1_555
Na6 O129 2.697729 1_555
Na6 O87 2.753951 1_555
Na6 O43 2.794577 1_555
Na6 O57 2.798191 1_555
Na6 O29 2.865073 1_555
Na6 O15 3.140277 1_555
Na6 O27 3.144089 1_555
Na7 O123 2.240404 1_555
Na7 O33 2.583236 1_565
Na7 O125 2.726328 1_555
Na7 O90 2.830125 1_555
Na7 O53 2.901468 1_554
Na7 O37 2.902212 1_565
Na7 O95 2.907815 1_565
Na7 O23 3.095238 1_565
Na8 O125 2.291675 1_555
Na8 O39 2.433649 1_555
Na8 O49 2.691425 1_554
Na8 O93 2.738182 1_565
Na8 O91 2.787928 1_655
Na8 O121 2.828766 1_555
Na8 O19 3.004299 1_555
Na8 O35 3.102797 1_555
Na9 O122 2.455766 1_555
Na9 O120 2.496924 1_555
Na9 O93 2.658854 1_455
Na9 O41 2.711006 1_455
Na9 O94 2.733630 1_555
Na9 O50 2.916347 1_554
Na9 O20 2.973682 1_555
Na9 O31 2.996286 1_455
Na10 O38 2.388450 1_556
Na10 O82 2.400798 1_555
Na10 O110 2.508239 1_555
Na10 O108 2.598255 1_555
Na10 O81 2.661852 1_555
Na10 O53 3.106598 1_555
Na10 O8 3.127823 1_555
Na10 O51 3.173567 1_555
Na10 O67 3.236828 1_555
Na11 O41 2.441202 1_556
Na11 O111 2.449852 1_555
Na11 O78 2.548787 1_655
Na11 O83 2.646783 1_545
Na11 O113 2.674403 1_555
Na11 O49 3.096510 1_545
Na11 O53 3.177265 1_545
Na11 O69 3.187899 1_545
Na11 O11 3.192155 1_555
Na12 O6 2.411126 1_555
Na12 O80 2.451074 1_545
Na12 O112 2.451218 1_555
Na12 O108 2.575253 1_555
Na12 O78 2.607657 1_555
Na12 O36 2.978780 1_556
Na12 O70 3.069788 1_555
Na12 O50 3.201128 1_555
Na13 O7 2.317787 1_555
Na13 O113 2.545976 1_555
Na13 O109 2.567613 1_555
Na13 O79 2.605182 1_555
Na13 O81 2.614082 1_545
Na13 O71 2.982319 1_555
Na13 O37 3.105945 1_556
Na13 O51 3.117175 1_555
Na14 O74 2.388891 1_555
Na14 O46 2.394331 1_555
Na14 O118 2.518187 1_555
Na14 O114 2.592367 1_555
Na14 O77 2.615372 1_555
Na14 O4 3.119674 1_555
Na14 O57 3.157133 1_555
Na14 O59 3.191380 1_555
Na14 O61 3.235649 1_555
Na15 O47 2.375450 1_555
Na15 O75 2.445199 1_555
Na15 O119 2.543540 1_555
Na15 O76 2.544714 1_655
Na15 O115 2.732196 1_555
Na15 O56 2.983163 1_655
Na15 O58 3.116710 1_655
Na15 O60 3.223564 1_655
Na15 O5 3.224830 1_555
Na16 O0 2.278687 1_555
Na16 O116 2.441775 1_555
Na16 O114 2.554800 1_555
Na16 O72 2.606151 1_545
Na16 O76 2.652119 1_555
Na16 O62 3.021635 1_545
Na16 O58 3.151908 1_545
Na16 O42 3.154395 1_555
Na17 O1 2.337118 1_555
Na17 O117 2.433192 1_555
Na17 O115 2.540432 1_555
Na17 O73 2.586083 1_545
Na17 O77 2.632191 1_555
Na17 O63 3.081938 1_545
Na17 O43 3.092489 1_555
Na17 O59 3.122213 1_545
Na18 O75 2.652638 1_565
Na18 O85 2.679031 1_565
Na18 O89 2.692824 1_555
Na18 O76 2.750290 1_665
Na18 O86 2.776816 1_665
Na18 O72 2.791434 1_655
Na18 O45 3.422871 1_555
Na18 O47 3.446153 1_565
Na19 O74 2.509553 1_565
Na19 O88 2.554935 1_555
Na19 O73 2.719139 1_555
Na19 O84 2.784795 1_565
Na19 O77 2.878294 1_565
Na19 O87 2.913668 1_565
Na19 O44 3.177387 1_555
Na19 O54 3.441242 1_555
Na20 O80 2.488875 1_555
Na20 O83 2.611218 1_455
Na20 O91 2.701043 1_556
Na20 O78 2.843135 1_565
Na20 O94 2.844883 1_566
Na20 O93 2.934893 1_466
Na20 O39 3.280225 1_456
Na21 O92 2.526478 1_565
Na21 O82 2.569988 1_554
Na21 O90 2.732113 1_555
Na21 O79 2.768930 1_564
Na21 O95 2.884049 1_565
Na21 O81 2.984896 1_554
Na21 O40 3.148292 1_565
Na21 O48 3.473720 1_554
Na22 O98 2.393049 1_555
Na22 O108 2.622619 1_555
Na22 O112 2.639325 1_555
Na22 O100 2.742167 1_555
Na22 O96 2.896877 1_555
Na22 O110 2.923796 1_555
Na23 O99 2.252909 1_555
Na23 O109 2.709185 1_555
Na23 O101 2.714689 1_555
Na23 O113 2.875458 1_555
Na23 O97 2.899904 1_555
Na23 O111 3.033680 1_555
Na24 O106 2.213475 1_555
Na24 O116 2.698438 1_555
Na24 O114 2.792205 1_555
Na24 O102 2.823290 1_555
Na24 O104 2.862192 1_555
Na25 O107 2.323255 1_555
Na25 O117 2.615444 1_555
Na25 O103 2.726430 1_555
Na25 O115 2.797050 1_555
Na25 O105 2.894804 1_555
Na25 O119 2.964909 1_555
Na26 O132 2.290332 1_555
Na26 O122 2.489053 1_555
Na26 O124 2.569477 1_555
Na26 O134 2.710817 1_555
Na26 O136 2.884286 1_555
Na26 O120 2.962250 1_555
Na27 O123 2.298378 1_555
Na27 O133 2.456085 1_555
Na27 O125 2.618057 1_555
Na27 O137 2.677747 1_555
Na27 O121 2.777864 1_555
Na27 O135 2.844556 1_555
Na28 O130 2.205003 1_555
Na28 O138 2.404193 1_555
Na28 O128 2.613088 1_555
Na28 O126 2.863842 1_555
Na28 O142 2.873490 1_555
Na28 O140 2.879893 1_555
Na29 O139 2.378665 1_555
Na29 O131 2.416522 1_555
Na29 O141 2.623956 1_555
Na29 O143 2.704718 1_555
Na29 O129 2.732305 1_555
Na29 O127 2.794918 1_555
Ca0 O0 2.163615 1_555
Ca0 O3 2.245680 1_445
Ca0 O5 2.278333 1_455
Ca0 O76 2.321523 1_555
Ca0 O72 2.349656 1_545
Ca0 O75 2.449306 1_455
Ca1 O1 2.176080 1_565
Ca1 O2 2.231618 1_555
Ca1 O4 2.293155 1_565
Ca1 O73 2.364665 1_555
Ca1 O77 2.374958 1_565
Ca1 O74 2.413823 1_565
Ca2 O6 2.172627 1_565
Ca2 O9 2.242073 1_455
Ca2 O11 2.274297 1_465
Ca2 O80 2.329757 1_555
Ca2 O78 2.375526 1_565
Ca2 O83 2.390619 1_455
Ca3 O7 2.166624 1_555
Ca3 O10 2.259665 1_555
Ca3 O8 2.293234 1_545
Ca3 O79 2.349540 1_555
Ca3 O81 2.367586 1_545
Ca3 O82 2.445528 1_545
Ca4 O24 2.197662 1_555
Ca4 O28 2.243846 1_555
Ca4 O98 2.278297 1_555
Ca4 O26 2.317385 1_555
Ca4 O100 2.374360 1_555
Ca4 O96 2.398830 1_555
Ca5 O25 2.195543 1_555
Ca5 O99 2.233273 1_555
Ca5 O27 2.279951 1_555
Ca5 O29 2.284473 1_555
Ca5 O101 2.369662 1_555
Ca5 O97 2.382950 1_555
Ca6 O106 2.211654 1_555
Ca6 O30 2.226723 1_555
Ca6 O32 2.276060 1_555
Ca6 O34 2.287722 1_555
Ca6 O102 2.374598 1_555
Ca6 O104 2.389485 1_555
Ca7 O33 2.200331 1_555
Ca7 O31 2.214502 1_555
Ca7 O35 2.274321 1_555
Ca7 O107 2.280947 1_555
Ca7 O105 2.387569 1_555
Ca7 O103 2.411953 1_555
Ca8 O38 2.219436 1_556
Ca8 O40 2.364569 1_556
Ca8 O110 2.434911 1_555
Ca8 O36 2.461275 1_556
Ca8 O108 2.495503 1_555
Ca8 O112 2.532960 1_555
Ca9 O39 2.198260 1_556
Ca9 O41 2.283632 1_556
Ca9 O111 2.403773 1_555
Ca9 O109 2.506263 1_555
Ca9 O37 2.554380 1_556
Ca9 O113 2.576506 1_555
Ca10 O46 2.233050 1_555
Ca10 O44 2.375670 1_555
Ca10 O118 2.429248 1_555
Ca10 O114 2.459499 1_555
Ca10 O42 2.464642 1_555
Ca10 O116 2.542491 1_555
Ca11 O47 2.187448 1_555
Ca11 O45 2.375341 1_555
Ca11 O119 2.384410 1_555
Ca11 O115 2.465707 1_555
Ca11 O43 2.521478 1_555
Ca11 O117 2.564342 1_555
Ca12 O122 2.196842 1_555
Ca12 O52 2.266823 1_554
Ca12 O48 2.352903 1_554
Ca12 O124 2.367585 1_555
Ca12 O50 2.373207 1_554
Ca12 O120 2.411667 1_555
Ca13 O123 2.215799 1_555
Ca13 O125 2.252820 1_555
Ca13 O51 2.268866 1_554
Ca13 O53 2.309743 1_554
Ca13 O121 2.344957 1_555
Ca13 O49 2.375860 1_554
Ca14 O130 2.182869 1_555
Ca14 O56 2.286959 1_555
Ca14 O58 2.290003 1_555
Ca14 O128 2.355455 1_555
Ca14 O126 2.383063 1_555
Ca14 O54 2.384119 1_555
Ca15 O131 2.233262 1_555
Ca15 O59 2.251781 1_555
Ca15 O57 2.334910 1_555
Ca15 O55 2.345230 1_555
Ca15 O127 2.351216 1_555
Ca15 O129 2.354372 1_555
Ca16 O132 2.271263 1_555
Ca16 O62 2.310801 1_555
Ca16 O60 2.386793 1_555
Ca16 O136 2.421610 1_555
Ca16 O134 2.426139 1_555
Ca16 O64 2.447330 1_555
Ca17 O133 2.336013 1_555
Ca17 O63 2.345522 1_555
Ca17 O61 2.348143 1_555
Ca17 O65 2.368420 1_555
Ca17 O137 2.409131 1_555
Ca17 O135 2.449564 1_555
Ca18 O138 2.255313 1_555
Ca18 O70 2.293867 1_555
Ca18 O66 2.350318 1_555
Ca18 O142 2.452243 1_555
Ca18 O140 2.459427 1_555
Ca18 O68 2.520352 1_555
Ca19 O139 2.265978 1_555
Ca19 O71 2.285383 1_555
Ca19 O67 2.380242 1_555
Ca19 O143 2.414283 1_555
Ca19 O141 2.422644 1_555
Ca19 O69 2.450949 1_555
O0 Si0 1.621819 1_555
O1 Si1 1.607962 1_545
O2 S0 1.463482 1_555
O3 S1 1.460565 1_555
O4 S3 1.470972 1_555
O5 S2 1.467426 1_655
O6 Si2 1.620158 1_555
O7 Si3 1.617921 1_555
O8 S5 1.470349 1_555
O9 S4 1.465349 1_655
O10 S6 1.460024 1_545
O11 S7 1.471447 1_545
O12 S6 1.528884 1_555
O12 Ta1 2.045120 1_565
O13 S7 1.531136 1_555
O13 Ta0 2.032544 1_665
O14 Si2 1.760701 1_555
O14 Ta0 1.857575 1_555
O15 Si3 1.785949 1_555
O15 Ta1 1.857348 1_555
O16 S4 1.502228 1_555
O16 Ta0 2.176250 1_565
O17 S5 1.514062 1_555
O17 Ta1 2.131871 1_565
O18 S0 1.547683 1_555
O18 Ta3 1.992587 1_555
O19 S1 1.528025 1_555
O19 Ta2 2.091115 1_665
O20 S2 1.515146 1_555
O20 Ta2 2.183572 1_555
O21 S3 1.518037 1_555
O21 Ta3 2.116108 1_545
O22 Si0 1.755710 1_555
O22 Ta2 1.871975 1_555
O23 Si1 1.766268 1_545
O23 Ta3 1.876769 1_545
O24 Si4 1.603972 1_555
O25 Si5 1.605831 1_555
O26 S8 1.467778 1_555
O27 S9 1.451469 1_555
O28 S10 1.459448 1_555
O29 S11 1.466977 1_555
O30 Si6 1.598869 1_555
O31 Si7 1.609466 1_555
O32 S12 1.451537 1_555
O33 Si8 1.622934 1_555
O34 S13 1.437388 1_555
O35 S14 1.462297 1_555
O36 S13 1.480978 1_555
O37 S14 1.483233 1_555
O38 Si6 1.629994 1_555
O39 Si7 1.631940 1_555
O40 S12 1.479922 1_555
O41 Si8 1.645773 1_555
O42 S8 1.476153 1_555
O43 S9 1.488056 1_555
O44 S10 1.475878 1_555
O45 S11 1.475048 1_555
O46 Si4 1.626453 1_555
O47 Si5 1.633373 1_555
O48 S15 1.469697 1_555
O49 S16 1.482755 1_555
O50 S17 1.481411 1_555
O51 S18 1.477353 1_555
O52 S19 1.469908 1_555
O53 S20 1.482679 1_555
O54 S21 1.467579 1_555
O55 S22 1.470396 1_555
O56 S23 1.472200 1_555
O57 S24 1.482454 1_555
O58 S25 1.477151 1_555
O59 S26 1.480693 1_555
O60 S25 1.487499 1_555
O61 S26 1.491270 1_555
O62 S21 1.476357 1_555
O63 S22 1.489197 1_555
O64 S23 1.473854 1_555
O65 S24 1.475970 1_555
O66 S17 1.479246 1_555
O67 S18 1.487772 1_555
O68 S19 1.488251 1_555
O69 S20 1.474725 1_555
O70 S15 1.480660 1_555
O71 S16 1.482262 1_555
O72 S25 1.494732 1_555
O73 S26 1.494790 1_555
O74 S21 1.505186 1_545
O75 S22 1.495439 1_545
O76 S23 1.522786 1_555
O77 S24 1.511998 1_555
O78 S17 1.512096 1_555
O79 S18 1.495807 1_555
O80 S19 1.510105 1_555
O81 S20 1.502983 1_555
O82 S15 1.499866 1_555
O83 S16 1.498713 1_555
O84 Si4 1.774114 1_555
O84 Ta1 1.873985 1_555
O85 Si5 1.777276 1_555
O85 Ta0 1.839409 1_655
O86 S8 1.550320 1_555
O86 Ta0 2.021436 1_555
O87 S9 1.543962 1_555
O87 Ta1 2.054915 1_555
O88 S10 1.535025 1_555
O88 Ta1 2.082285 1_565
O89 S11 1.514499 1_555
O89 Ta0 2.130386 1_665
O90 Si6 1.773783 1_555
O90 Ta3 1.869791 1_555
O91 Si7 1.720503 1_455
O91 Ta2 1.872957 1_565
O92 S12 1.532492 1_555
O92 Ta3 2.099015 1_545
O93 Si8 1.692626 1_555
O93 Ta2 1.978649 1_655
O94 S13 1.548571 1_555
O94 Ta2 2.034200 1_555
O95 S14 1.528453 1_555
O95 Ta3 2.073389 1_545
O96 S6 1.479564 1_545
O97 S7 1.472026 1_545
O98 Si2 1.621111 1_555
O99 Si3 1.602760 1_555
O100 S5 1.481523 1_555
O101 S4 1.471039 1_655
O102 S0 1.466143 1_555
O103 S1 1.468995 1_555
O104 S3 1.470438 1_555
O105 S2 1.489196 1_655
O106 Si0 1.601921 1_555
O107 Si1 1.617776 1_545
O108 S15 1.511213 1_555
O109 S16 1.493759 1_555
O110 S18 1.494627 1_555
O111 S17 1.490841 1_655
O112 S19 1.499860 1_545
O113 S20 1.501796 1_545
O114 S21 1.513429 1_545
O115 S22 1.511061 1_545
O116 S23 1.496989 1_555
O117 S24 1.494549 1_555
O118 S26 1.488132 1_555
O119 S25 1.498189 1_655
O120 S13 1.478336 1_555
O121 S14 1.462899 1_555
O122 Si7 1.618754 1_455
O123 Si6 1.628979 1_555
O124 S12 1.478777 1_565
O125 Si8 1.628894 1_565
O126 S8 1.460069 1_565
O127 S9 1.463389 1_565
O128 S10 1.467281 1_555
O129 S11 1.481035 1_555
O130 Si5 1.608426 1_455
O131 Si4 1.634234 1_555
O132 Si0 1.643756 1_565
O133 Si1 1.653841 1_555
O134 S0 1.461732 1_555
O135 S1 1.481465 1_555
O136 S2 1.474191 1_555
O137 S3 1.490256 1_555
O138 Si2 1.631512 1_555
O139 Si3 1.642405 1_555
O140 S4 1.501186 1_555
O141 S5 1.484472 1_555
O142 S6 1.473729 1_555
O143 S7 1.466089 1_555
