# generated using pymatgen
data_MgMnV4CoO12
_symmetry_space_group_name_H-M   'P 1'
_cell_length_a   7.04681096
_cell_length_b   6.64468245
_cell_length_c   5.89938115
_cell_angle_alpha   74.10439537
_cell_angle_beta   103.05718940
_cell_angle_gamma   98.91113514
_symmetry_Int_Tables_number   1
_chemical_formula_structural   MgMnV4CoO12
_chemical_formula_sum   'Mg1 Mn1 V4 Co1 O12'
_cell_volume   257.52137724
_cell_formula_units_Z   1
loop_
 _symmetry_equiv_pos_site_id
 _symmetry_equiv_pos_as_xyz
  1  'x, y, z'
loop_
 _atom_site_type_symbol
 _atom_site_label
 _atom_site_symmetry_multiplicity
 _atom_site_fract_x
 _atom_site_fract_y
 _atom_site_fract_z
 _atom_site_occupancy
  Mg  Mg0  1  0.17299100  0.47498700  0.34925700  1
  Mn  Mn0  1  0.91403400  0.90807200  0.27179000  1
  V  V0  1  0.23413800  0.65416400  0.75276400  1
  V  V1  1  0.39425500  0.89140500  0.18063100  1
  V  V2  1  0.60575200  0.19381300  0.76982000  1
  V  V3  1  0.75740100  0.34766300  0.25380500  1
  Co  Co0  1  0.07602100  0.08660000  0.76156000  1
  O  O0  1  0.03810000  0.80289100  0.66135400  1
  O  O1  1  0.14574300  0.40305000  0.73352600  1
  O  O2  1  0.17002400  0.00330400  0.12313900  1
  O  O3  1  0.35543000  0.71471500  0.50316300  1
  O  O4  1  0.38821900  0.02679800  0.81138800  1
  O  O5  1  0.32141400  0.62874900  0.07685500  1
  O  O6  1  0.63799100  0.39214000  0.93112300  1
  O  O7  1  0.63604200  0.00871700  0.25535700  1
  O  O8  1  0.57941200  0.32341900  0.46356200  1
  O  O9  1  0.80503100  0.05637700  0.84846600  1
  O  O10  1  0.90425800  0.59565200  0.24861800  1
  O  O11  1  0.98411500  0.20970900  0.37882200  1
loop_
_geom_bond_atom_site_label_1
_geom_bond_atom_site_label_2
_geom_bond_distance
_geom_bond_site_symmetry_2
Mg0 O11 2.029442 1_455
Mg0 O5 2.061378 1_555
Mg0 O10 2.069566 1_455
Mg0 O3 2.155208 1_555
Mg0 O1 2.231388 1_555
Mn0 O10 2.107086 1_555
Mn0 O2 2.116777 1_665
Mn0 O7 2.139786 1_565
Mn0 O11 2.214816 1_565
Mn0 O0 2.221727 1_655
Mn0 O9 2.411958 1_564
Co0 O2 2.030674 1_556
Co0 O1 2.053363 1_555
Co0 O9 2.053530 1_455
Co0 O0 2.087507 1_545
Co0 O11 2.162967 1_455
Co0 O4 2.235833 1_555
O0 V0 1.723436 1_555
O1 V0 1.713130 1_555
O2 V1 1.774351 1_545
O3 V0 1.788373 1_555
O3 V1 1.996421 1_555
O4 V2 1.770673 1_555
O4 V1 2.110143 1_546
O5 V0 1.840180 1_554
O5 V1 1.962138 1_555
O6 V2 1.786131 1_555
O6 V3 1.861256 1_556
O7 V1 1.772673 1_545
O7 V3 2.280205 1_555
O8 V2 1.756724 1_555
O8 V3 1.913076 1_555
O9 V2 1.700603 1_555
O10 V3 1.801543 1_555
O11 V3 1.867496 1_555
