# generated using pymatgen
data_FePO4
_symmetry_space_group_name_H-M   'P 1'
_cell_length_a   10.39360062
_cell_length_b   7.40531542
_cell_length_c   5.22022197
_cell_angle_alpha   90.24581823
_cell_angle_beta   89.21667247
_cell_angle_gamma   90.08196428
_symmetry_Int_Tables_number   1
_chemical_formula_structural   FePO4
_chemical_formula_sum   'Fe4 P4 O16'
_cell_volume   401.74784975
_cell_formula_units_Z   4
loop_
 _symmetry_equiv_pos_site_id
 _symmetry_equiv_pos_as_xyz
  1  'x, y, z'
loop_
 _atom_site_type_symbol
 _atom_site_label
 _atom_site_symmetry_multiplicity
 _atom_site_fract_x
 _atom_site_fract_y
 _atom_site_fract_z
 _atom_site_occupancy
  Fe  Fe0  1  0.84707100  0.21294400  0.30344200  1
  Fe  Fe1  1  0.65063400  0.71432100  0.81137700  1
  Fe  Fe2  1  0.35473800  0.21005300  0.19698600  1
  Fe  Fe3  1  0.15024200  0.71100100  0.68617500  1
  P  P0  1  0.09938000  0.96067600  0.18679000  1
  P  P1  1  0.40465100  0.46084000  0.69037600  1
  P  P2  1  0.59430200  0.96240300  0.31817800  1
  P  P3  1  0.90161900  0.46200600  0.80555100  1
  O  O0  1  0.54554800  0.51405500  0.74475300  1
  O  O1  1  0.88358800  0.41129700  0.09097000  1
  O  O2  1  0.86124300  0.29742700  0.64225900  1
  O  O3  1  0.81918000  0.63029500  0.74676600  1
  O  O4  1  0.04377400  0.50918200  0.74936800  1
  O  O5  1  0.11353300  0.90948200  0.90047700  1
  O  O6  1  0.13365100  0.79337000  0.34770700  1
  O  O7  1  0.18644600  0.12399100  0.24942700  1
  O  O8  1  0.31839600  0.62710500  0.74376700  1
  O  O9  1  0.67706600  0.12927100  0.24821900  1
  O  O10  1  0.39409700  0.40856600  0.40292600  1
  O  O11  1  0.44985800  0.00567300  0.27776000  1
  O  O12  1  0.95867100  0.01696400  0.24429100  1
  O  O13  1  0.61488500  0.91377900  0.60222800  1
  O  O14  1  0.63151600  0.79734900  0.15139700  1
  O  O15  1  0.36591100  0.29845200  0.85880600  1
loop_
_geom_bond_atom_site_label_1
_geom_bond_atom_site_label_2
_geom_bond_distance
_geom_bond_site_symmetry_2
Fe0 O1 1.879551 1_555
Fe0 O12 1.881012 1_555
Fe0 O2 1.881161 1_555
Fe0 O9 1.896961 1_555
Fe1 O0 1.874732 1_555
Fe1 O13 1.881029 1_555
Fe1 O14 1.883990 1_556
Fe1 O3 1.885446 1_555
Fe2 O11 1.861998 1_555
Fe2 O10 1.865712 1_555
Fe2 O7 1.877735 1_555
Fe2 O15 1.887500 1_554
Fe3 O5 1.879694 1_555
Fe3 O6 1.881897 1_555
Fe3 O8 1.884142 1_555
Fe3 O4 1.885869 1_555
O0 P1 1.545695 1_555
O1 P3 1.546949 1_554
O2 P3 1.545156 1_555
O3 P3 1.547567 1_555
O4 P3 1.542282 1_455
O5 P0 1.545487 1_556
O6 P0 1.544635 1_555
O7 P0 1.545970 1_545
O8 P1 1.546201 1_555
O9 P2 1.546792 1_545
O10 P1 1.553363 1_555
O11 P2 1.552962 1_545
O12 P0 1.546397 1_645
O13 P2 1.545188 1_555
O14 P2 1.544209 1_555
O15 P1 1.542494 1_555
