# generated using pymatgen
data_MgFeCuS2
_symmetry_space_group_name_H-M   'P 1'
_cell_length_a   3.70278884
_cell_length_b   3.70219389
_cell_length_c   6.53898588
_cell_angle_alpha   90.06266609
_cell_angle_beta   89.93857046
_cell_angle_gamma   119.88100088
_symmetry_Int_Tables_number   1
_chemical_formula_structural   MgFeCuS2
_chemical_formula_sum   'Mg1 Fe1 Cu1 S2'
_cell_volume   77.72277844
_cell_formula_units_Z   1
loop_
 _symmetry_equiv_pos_site_id
 _symmetry_equiv_pos_as_xyz
  1  'x, y, z'
loop_
 _atom_site_type_symbol
 _atom_site_label
 _atom_site_symmetry_multiplicity
 _atom_site_fract_x
 _atom_site_fract_y
 _atom_site_fract_z
 _atom_site_occupancy
  Mg  Mg0  1  0.99973700  0.00023100  0.49205700  1
  Fe  Fe0  1  0.33399500  0.66609800  0.88678800  1
  Cu  Cu0  1  0.66636500  0.33363600  0.11211800  1
  S  S0  1  0.33317900  0.66674500  0.25761500  1
  S  S1  1  0.66672400  0.33329000  0.72017200  1
loop_
_geom_bond_atom_site_label_1
_geom_bond_atom_site_label_2
_geom_bond_distance
_geom_bond_site_symmetry_2
Mg0 S1 2.602477 1_555
Mg0 S1 2.610091 1_545
Mg0 S1 2.610448 1_655
Mg0 S0 2.628594 1_645
Mg0 S0 2.632863 1_655
Mg0 S0 2.633210 1_545
Fe0 S1 2.393687 1_555
Fe0 S1 2.403525 1_565
Fe0 S1 2.404021 1_455
Fe0 S0 2.424831 1_556
Cu0 S0 2.336449 1_555
Cu0 S0 2.343198 1_545
Cu0 S0 2.343253 1_655
Cu0 S1 2.562928 1_554
Cu0 Fe0 2.591865 1_554
Cu0 Fe0 2.599728 1_544
Cu0 Fe0 2.600301 1_654
