# generated using pymatgen
data_Li3Ce5Ge4
_symmetry_space_group_name_H-M   'P 1'
_cell_length_a   10.30134642
_cell_length_b   10.30134642
_cell_length_c   6.30561700
_cell_angle_alpha   90.00000000
_cell_angle_beta   90.00000000
_cell_angle_gamma   154.42067921
_symmetry_Int_Tables_number   1
_chemical_formula_structural   Li3Ce5Ge4
_chemical_formula_sum   'Li3 Ce5 Ge4'
_cell_volume   288.90709673
_cell_formula_units_Z   1
loop_
 _symmetry_equiv_pos_site_id
 _symmetry_equiv_pos_as_xyz
  1  'x, y, z'
loop_
 _atom_site_type_symbol
 _atom_site_label
 _atom_site_symmetry_multiplicity
 _atom_site_fract_x
 _atom_site_fract_y
 _atom_site_fract_z
 _atom_site_occupancy
  Li  Li0  1  0.49803500  0.50196500  0.50000000  1
  Li  Li1  1  0.18110800  0.81889200  0.00000000  1
  Li  Li2  1  0.60829200  0.39170800  0.00000000  1
  Ce  Ce0  1  0.69291800  0.30708200  0.50000000  1
  Ce  Ce1  1  0.86970700  0.13029300  0.50000000  1
  Ce  Ce2  1  0.11108500  0.88891500  0.50000000  1
  Ce  Ce3  1  0.80935700  0.19064300  0.00000000  1
  Ce  Ce4  1  0.98589100  0.01410900  0.00000000  1
  Ge  Ge0  1  0.27089100  0.72910900  0.70631600  1
  Ge  Ge1  1  0.27089100  0.72910900  0.29368400  1
  Ge  Ge2  1  0.40836300  0.59163700  0.20210400  1
  Ge  Ge3  1  0.40836300  0.59163700  0.79789600  1
loop_
_geom_bond_atom_site_label_1
_geom_bond_atom_site_label_2
_geom_bond_distance
_geom_bond_site_symmetry_2
Li1 Li2 2.709374 1_565
Li1 Li2 2.709374 1_455
Ce0 Ce2 2.811336 1_545
Ce0 Ce2 2.811336 1_655
Ce0 Ge0 3.057299 1_545
Ce0 Ge1 3.057299 1_545
Ce0 Ge0 3.057299 1_655
Ce0 Ge1 3.057299 1_655
Ce0 Ce1 3.551961 1_555
Ce0 Li2 3.582053 1_556
Ce0 Li2 3.582053 1_555
Ce1 Ge3 3.054838 1_545
Ce1 Ge3 3.054838 1_655
Ce1 Ge2 3.054838 1_655
Ce1 Ge2 3.054838 1_545
Ce1 Ge0 3.291584 1_655
Ce1 Ge0 3.291584 1_545
Ce1 Ge1 3.291584 1_545
Ce1 Ge1 3.291584 1_655
Ce1 Ce3 3.377931 1_555
Ce1 Ce3 3.377931 1_556
Ce1 Li0 3.442099 1_655
Ce1 Li0 3.442099 1_545
Ce2 Li0 3.218602 1_455
Ce2 Li0 3.218602 1_565
Ce2 Li1 3.452460 1_555
Ce2 Li1 3.452460 1_556
Ce2 Ce4 4.033253 1_465
Ce2 Ce4 4.033253 1_466
Ce3 Ge1 3.037606 1_545
Ce3 Ge1 3.037606 1_655
Ce3 Ge0 3.037606 1_544
Ce3 Ge0 3.037606 1_654
Ce3 Ge2 3.283489 1_545
Ce3 Ge2 3.283489 1_655
Ce3 Ge3 3.283489 1_544
Ce3 Ge3 3.283489 1_654
Ce3 Li1 3.440910 1_545
Ce3 Li1 3.440910 1_655
Ce3 Ce4 3.546837 1_555
Ce4 Ge2 3.041504 1_655
Ce4 Ge2 3.041504 1_545
Ce4 Ge3 3.041504 1_654
Ce4 Ge3 3.041504 1_544
Ce4 Li2 3.353828 1_655
Ce4 Li2 3.353828 1_545
Ce4 Li0 3.898733 1_655
Ce4 Li0 3.898733 1_654
Ce4 Li0 3.898733 1_544
Ce4 Li0 3.898733 1_545
Ge0 Li1 2.585219 1_556
Ge0 Ge1 2.601899 1_555
Ge0 Ge3 2.821744 1_555
Ge1 Li1 2.585219 1_555
Ge1 Ge2 2.821744 1_555
Ge2 Ge3 2.548781 1_554
Ge2 Li0 2.602765 1_555
Ge3 Li0 2.602765 1_555
