# generated using pymatgen
data_MgMn6(O2F)4
_symmetry_space_group_name_H-M   'P 1'
_cell_length_a   5.25530177
_cell_length_b   5.21874989
_cell_length_c   8.78500094
_cell_angle_alpha   90.40653483
_cell_angle_beta   91.26634597
_cell_angle_gamma   95.98613414
_symmetry_Int_Tables_number   1
_chemical_formula_structural   MgMn6(O2F)4
_chemical_formula_sum   'Mg1 Mn6 O8 F4'
_cell_volume   239.55533366
_cell_formula_units_Z   1
loop_
 _symmetry_equiv_pos_site_id
 _symmetry_equiv_pos_as_xyz
  1  'x, y, z'
loop_
 _atom_site_type_symbol
 _atom_site_label
 _atom_site_symmetry_multiplicity
 _atom_site_fract_x
 _atom_site_fract_y
 _atom_site_fract_z
 _atom_site_occupancy
  Mg  Mg0  1  0.49459047  0.03789357  0.80772572  1
  Mn  Mn0  1  0.03083091  0.00867862  0.00784530  1
  Mn  Mn1  1  0.05334357  0.01935714  0.32754632  1
  Mn  Mn2  1  0.99046469  0.95284827  0.65400306  1
  Mn  Mn3  1  0.42511824  0.53554957  0.82972851  1
  Mn  Mn4  1  0.57297486  0.39749397  0.17303291  1
  Mn  Mn5  1  0.42977876  0.53524020  0.50509410  1
  O  O0  1  0.16137416  0.82932161  0.17153681  1
  O  O1  1  0.15629169  0.80358716  0.49377079  1
  O  O2  1  0.15683399  0.81331263  0.82950780  1
  O  O3  1  0.37939622  0.27239994  0.97624851  1
  O  O4  1  0.32567975  0.29219176  0.34298896  1
  O  O5  1  0.33288111  0.29401787  0.66994276  1
  O  O6  1  0.60820175  0.74638224  0.67199793  1
  O  O7  1  0.87515141  0.18426026  0.16703056  1
  F  F0  1  0.62929606  0.76373625  0.97800856  1
  F  F1  1  0.66806952  0.68129477  0.34084175  1
  F  F2  1  0.85502817  0.16508042  0.49411387  1
  F  F3  1  0.85469466  0.18124075  0.82331980  1
loop_
_geom_bond_atom_site_label_1
_geom_bond_atom_site_label_2
_geom_bond_distance
_geom_bond_site_symmetry_2
Mg0 O2 2.035983 1_545
Mg0 O5 2.046555 1_555
Mg0 O3 2.055354 1_555
Mg0 O6 2.070709 1_545
Mn0 O0 1.877272 1_545
Mn0 O7 1.911383 1_455
Mn0 O2 2.023992 1_544
Mn0 O3 2.197462 1_554
Mn1 O0 1.821213 1_545
Mn1 O4 1.912528 1_555
Mn1 O7 1.932090 1_455
Mn1 O1 1.951564 1_545
Mn2 O1 1.878280 1_655
Mn2 O2 1.939339 1_655
Mn2 O6 2.187845 1_555
Mn2 O5 2.396867 1_665
Mn3 O3 1.889571 1_555
Mn3 O5 1.900424 1_555
Mn3 O6 1.978937 1_555
Mn3 O2 2.124932 1_555
Mn4 O7 2.033330 1_555
Mn4 O4 2.041733 1_555
Mn4 O3 2.053638 1_554
Mn5 O4 1.931681 1_555
Mn5 O5 1.966244 1_555
Mn5 O6 1.985973 1_555
Mn5 O1 2.110047 1_555
F0 Mn3 1.978900 1_555
F0 Mg0 2.231785 1_565
F0 Mn0 2.358772 1_666
F0 Mn4 2.574301 1_556
F1 Mn5 2.031680 1_555
F1 Mn4 2.097309 1_555
F1 Mn1 2.548355 1_665
F2 Mn2 1.961795 1_545
F2 Mn1 2.005670 1_655
F3 Mg0 1.962549 1_555
F3 Mn2 2.083607 1_545
F3 Mn0 2.103311 1_656
