# generated using pymatgen
data_Na3Ca5Nb(SO4)9
_symmetry_space_group_name_H-M   'P 1'
_cell_length_a   9.13140620
_cell_length_b   9.13140589
_cell_length_c   24.35105868
_cell_angle_alpha   90.00000000
_cell_angle_beta   90.00000000
_cell_angle_gamma   120.00000113
_symmetry_Int_Tables_number   1
_chemical_formula_structural   Na3Ca5Nb(SO4)9
_chemical_formula_sum   'Na6 Ca10 Nb2 S18 O72'
_cell_volume   1758.42473302
_cell_formula_units_Z   2
loop_
 _symmetry_equiv_pos_site_id
 _symmetry_equiv_pos_as_xyz
  1  'x, y, z'
loop_
 _atom_site_type_symbol
 _atom_site_label
 _atom_site_symmetry_multiplicity
 _atom_site_fract_x
 _atom_site_fract_y
 _atom_site_fract_z
 _atom_site_occupancy
  Na  Na0  1  -0.00000000  0.00000000  0.51178053  1
  Na  Na1  1  -0.00000000  0.00000000  0.01178053  1
  Na  Na2  1  0.66666700  0.33333300  0.83284019  1
  Na  Na3  1  0.66666700  0.33333300  0.33284019  1
  Na  Na4  1  0.33333300  0.66666700  0.15363800  1
  Na  Na5  1  0.33333300  0.66666700  0.65363800  1
  Ca  Ca0  1  -0.00000000  0.00000000  0.35024630  1
  Ca  Ca1  1  -0.00000000  0.00000000  0.85024630  1
  Ca  Ca2  1  -0.00000000  0.00000000  0.65208720  1
  Ca  Ca3  1  -0.00000000  0.00000000  0.15208720  1
  Ca  Ca4  1  0.66666700  0.33333300  0.68186554  1
  Ca  Ca5  1  0.66666700  0.33333300  0.18186554  1
  Ca  Ca6  1  0.66666700  0.33333300  0.98257560  1
  Ca  Ca7  1  0.66666700  0.33333300  0.48257560  1
  Ca  Ca8  1  0.33333300  0.66666700  0.02057903  1
  Ca  Ca9  1  0.33333300  0.66666700  0.52057903  1
  Nb  Nb0  1  0.33333300  0.66666700  0.31651994  1
  Nb  Nb1  1  0.33333300  0.66666700  0.81651994  1
  S  S0  1  0.30335971  0.99179349  0.25463306  1
  S  S1  1  0.68843378  0.69664029  0.25463306  1
  S  S2  1  0.00820651  0.31156622  0.25463306  1
  S  S3  1  0.30335971  0.31156622  0.75463306  1
  S  S4  1  0.00820651  0.69664029  0.75463306  1
  S  S5  1  0.68843378  0.99179349  0.75463306  1
  S  S6  1  0.96655015  0.33035414  0.58339445  1
  S  S7  1  0.36380499  0.03344985  0.58339445  1
  S  S8  1  0.66964586  0.63619501  0.58339445  1
  S  S9  1  0.96655015  0.63619501  0.08339445  1
  S  S10  1  0.66964586  0.03344985  0.08339445  1
  S  S11  1  0.36380499  0.33035414  0.08339445  1
  S  S12  1  0.61888240  0.66376189  0.91326319  1
  S  S13  1  0.04487849  0.38111760  0.91326319  1
  S  S14  1  0.33623811  0.95512151  0.91326319  1
  S  S15  1  0.61888240  0.95512151  0.41326319  1
  S  S16  1  0.33623811  0.38111760  0.41326319  1
  S  S17  1  0.04487849  0.66376189  0.41326319  1
  O  O0  1  0.21988771  0.01360935  0.30257440  1
  O  O1  1  0.79372164  0.78011229  0.30257440  1
  O  O2  1  0.98639065  0.20627836  0.30257440  1
  O  O3  1  0.21988771  0.20627836  0.80257440  1
  O  O4  1  0.98639065  0.78011229  0.80257440  1
  O  O5  1  0.79372164  0.01360935  0.80257440  1
  O  O6  1  0.75034717  0.95277764  0.70437688  1
  O  O7  1  0.20243047  0.24965283  0.70437688  1
  O  O8  1  0.04722236  0.79756953  0.70437688  1
  O  O9  1  0.75034717  0.79756953  0.20437688  1
  O  O10  1  0.04722236  0.24965283  0.20437688  1
  O  O11  1  0.20243047  0.95277764  0.20437688  1
  O  O12  1  0.88075221  0.34055462  0.63368908  1
  O  O13  1  0.45980341  0.11924779  0.63368908  1
  O  O14  1  0.65944538  0.54019659  0.63368908  1
  O  O15  1  0.88075221  0.54019659  0.13368908  1
  O  O16  1  0.65944538  0.11924779  0.13368908  1
  O  O17  1  0.45980341  0.34055462  0.13368908  1
  O  O18  1  0.44991567  0.32120651  0.03283312  1
  O  O19  1  0.87129185  0.55008433  0.03283312  1
  O  O20  1  0.67879349  0.12870815  0.03283312  1
  O  O21  1  0.44991567  0.12870815  0.53283312  1
  O  O22  1  0.67879349  0.55008433  0.53283312  1
  O  O23  1  0.87129185  0.32120651  0.53283312  1
  O  O24  1  0.53815970  0.67618488  0.96301567  1
  O  O25  1  0.13802418  0.46184030  0.96301567  1
  O  O26  1  0.32381512  0.86197582  0.96301567  1
  O  O27  1  0.53815970  0.86197582  0.46301567  1
  O  O28  1  0.32381512  0.46184030  0.46301567  1
  O  O29  1  0.13802418  0.67618488  0.46301567  1
  O  O30  1  0.14998006  0.65861998  0.36289637  1
  O  O31  1  0.50863892  0.85001994  0.36289637  1
  O  O32  1  0.34138002  0.49136108  0.36289637  1
  O  O33  1  0.14998006  0.49136108  0.86289637  1
  O  O34  1  0.34138002  0.85001994  0.86289637  1
  O  O35  1  0.50863892  0.65861998  0.86289637  1
  O  O36  1  0.02858973  0.81455217  0.40659235  1
  O  O37  1  0.78596244  0.97141027  0.40659235  1
  O  O38  1  0.18544783  0.21403756  0.40659235  1
  O  O39  1  0.02858973  0.21403756  0.90659235  1
  O  O40  1  0.18544783  0.97141027  0.90659235  1
  O  O41  1  0.78596244  0.81455217  0.90659235  1
  O  O42  1  0.98416794  0.17614748  0.58561328  1
  O  O43  1  0.19197954  0.01583206  0.58561328  1
  O  O44  1  0.82385252  0.80802046  0.58561328  1
  O  O45  1  0.98416794  0.80802046  0.08561328  1
  O  O46  1  0.82385252  0.01583206  0.08561328  1
  O  O47  1  0.19197954  0.17614748  0.08561328  1
  O  O48  1  0.65655496  0.13410454  0.74962173  1
  O  O49  1  0.47755059  0.34344504  0.74962173  1
  O  O50  1  0.86589546  0.52244941  0.74962173  1
  O  O51  1  0.65655496  0.52244941  0.24962173  1
  O  O52  1  0.86589546  0.34344504  0.24962173  1
  O  O53  1  0.47755059  0.13410454  0.24962173  1
  O  O54  1  0.62335159  0.50489897  0.90948314  1
  O  O55  1  0.88154838  0.37664841  0.90948314  1
  O  O56  1  0.49510103  0.11845162  0.90948314  1
  O  O57  1  0.62335159  0.11845162  0.40948314  1
  O  O58  1  0.49510103  0.37664841  0.40948314  1
  O  O59  1  0.88154838  0.50489897  0.40948314  1
  O  O60  1  0.34577322  0.48418718  0.08197842  1
  O  O61  1  0.13841296  0.65422678  0.08197842  1
  O  O62  1  0.51581282  0.86158704  0.08197842  1
  O  O63  1  0.34577322  0.86158704  0.58197842  1
  O  O64  1  0.51581282  0.65422678  0.58197842  1
  O  O65  1  0.13841296  0.48418718  0.58197842  1
  O  O66  1  0.32038786  0.83207312  0.26532409  1
  O  O67  1  0.51168426  0.67961214  0.26532409  1
  O  O68  1  0.16792688  0.48831574  0.26532409  1
  O  O69  1  0.32038786  0.48831574  0.76532409  1
  O  O70  1  0.16792688  0.67961214  0.76532409  1
  O  O71  1  0.51168426  0.83207312  0.76532409  1
loop_
_geom_bond_atom_site_label_1
_geom_bond_atom_site_label_2
_geom_bond_distance
_geom_bond_site_symmetry_2
Na0 O44 2.464364 1_445
Na0 O42 2.464364 1_455
Na0 O43 2.464364 1_555
Na0 O38 3.152592 1_555
Na0 O36 3.152592 1_545
Na0 O37 3.152592 1_445
Na1 O45 2.464364 1_445
Na1 O47 2.464364 1_555
Na1 O46 2.464364 1_455
Na1 O39 3.152592 1_554
Na1 O41 3.152592 1_444
Na1 O40 3.152592 1_544
Na2 O56 2.591075 1_555
Na2 O54 2.591075 1_555
Na2 O55 2.591075 1_555
Na2 O50 2.693825 1_555
Na2 O49 2.693825 1_555
Na2 O48 2.693825 1_555
Na3 O57 2.591075 1_555
Na3 O59 2.591075 1_555
Na3 O58 2.591075 1_555
Na3 O51 2.693825 1_555
Na3 O53 2.693825 1_555
Na3 O52 2.693825 1_555
Na4 O62 2.454326 1_555
Na4 O60 2.454326 1_555
Na4 O61 2.454326 1_555
Na4 O68 3.141723 1_555
Na4 O66 3.141723 1_555
Na4 O67 3.141723 1_555
Na5 O63 2.454326 1_555
Na5 O65 2.454326 1_555
Na5 O64 2.454326 1_555
Na5 O69 3.141723 1_555
Na5 O71 3.141723 1_555
Na5 O70 3.141723 1_555
Ca0 O1 2.268285 1_445
Ca0 O2 2.268285 1_455
Ca0 O0 2.268285 1_555
Ca0 O38 2.293570 1_555
Ca0 O36 2.293570 1_545
Ca0 O37 2.293570 1_445
Ca1 O4 2.268285 1_445
Ca1 O3 2.268285 1_555
Ca1 O5 2.268285 1_455
Ca1 O39 2.293570 1_555
Ca1 O41 2.293570 1_445
Ca1 O40 2.293570 1_545
Ca2 O44 2.336846 1_445
Ca2 O42 2.336846 1_455
Ca2 O43 2.336846 1_555
Ca2 O7 2.453811 1_555
Ca2 O8 2.453811 1_545
Ca2 O6 2.453811 1_445
Ca3 O45 2.336846 1_445
Ca3 O47 2.336846 1_555
Ca3 O46 2.336846 1_455
Ca3 O10 2.453811 1_555
Ca3 O9 2.453811 1_445
Ca3 O11 2.453811 1_545
Ca4 O13 2.252408 1_555
Ca4 O14 2.252408 1_555
Ca4 O12 2.252408 1_555
Ca4 O50 2.423313 1_555
Ca4 O49 2.423313 1_555
Ca4 O48 2.423313 1_555
Ca5 O16 2.252408 1_555
Ca5 O15 2.252408 1_555
Ca5 O17 2.252408 1_555
Ca5 O51 2.423313 1_555
Ca5 O53 2.423313 1_555
Ca5 O52 2.423313 1_555
Ca6 O19 2.282159 1_556
Ca6 O18 2.282159 1_556
Ca6 O20 2.282159 1_556
Ca6 O56 2.529510 1_555
Ca6 O54 2.529510 1_555
Ca6 O55 2.529510 1_555
Ca7 O22 2.282159 1_555
Ca7 O21 2.282159 1_555
Ca7 O23 2.282159 1_555
Ca7 O57 2.529510 1_555
Ca7 O59 2.529510 1_555
Ca7 O58 2.529510 1_555
Ca8 O62 2.283458 1_555
Ca8 O60 2.283458 1_555
Ca8 O61 2.283458 1_555
Ca8 O25 2.303925 1_554
Ca8 O26 2.303925 1_554
Ca8 O24 2.303925 1_554
Ca9 O63 2.283458 1_555
Ca9 O65 2.283458 1_555
Ca9 O64 2.283458 1_555
Ca9 O28 2.303925 1_555
Ca9 O27 2.303925 1_555
Ca9 O29 2.303925 1_555
Nb0 O31 1.990203 1_555
Nb0 O32 1.990203 1_555
Nb0 O30 1.990203 1_555
Nb0 O68 2.006984 1_555
Nb0 O66 2.006984 1_555
Nb0 O67 2.006984 1_555
Nb1 O34 1.990203 1_555
Nb1 O33 1.990203 1_555
Nb1 O35 1.990203 1_555
Nb1 O69 2.006984 1_555
Nb1 O71 2.006984 1_555
Nb1 O70 2.006984 1_555
O0 S0 1.461292 1_545
O1 S1 1.461292 1_555
O2 S2 1.461292 1_655
O3 S3 1.461292 1_555
O4 S4 1.461292 1_655
O5 S5 1.461292 1_545
O6 S5 1.464800 1_555
O7 S3 1.464800 1_555
O8 S4 1.464800 1_555
O9 S1 1.464800 1_555
O10 S2 1.464800 1_555
O11 S0 1.464800 1_555
O12 S6 1.481692 1_555
O13 S7 1.481692 1_555
O14 S8 1.481692 1_555
O15 S9 1.481692 1_555
O16 S10 1.481692 1_555
O17 S11 1.481692 1_555
O18 S11 1.485548 1_555
O19 S9 1.485548 1_555
O20 S10 1.485548 1_555
O21 S7 1.485548 1_555
O22 S8 1.485548 1_555
O23 S6 1.485548 1_555
O24 S12 1.451762 1_555
O25 S13 1.451762 1_555
O26 S14 1.451762 1_555
O27 S15 1.451762 1_555
O28 S16 1.451762 1_555
O29 S17 1.451762 1_555
O30 S17 1.572452 1_555
O31 S15 1.572452 1_555
O32 S16 1.572452 1_555
O33 S13 1.572452 1_555
O34 S14 1.572452 1_555
O35 S12 1.572452 1_555
O36 S17 1.466030 1_555
O37 S15 1.466039 1_555
O38 S16 1.466035 1_555
O39 S13 1.466039 1_555
O40 S14 1.466030 1_555
O41 S12 1.466035 1_555
O42 S6 1.496043 1_555
O43 S7 1.496052 1_555
O44 S8 1.496048 1_555
O45 S9 1.496052 1_555
O46 S10 1.496043 1_555
O47 S11 1.496048 1_555
O48 S5 1.471942 1_545
O49 S3 1.471951 1_555
O50 S4 1.471948 1_655
O51 S1 1.471951 1_555
O52 S2 1.471942 1_655
O53 S0 1.471948 1_545
O54 S12 1.474348 1_555
O55 S13 1.474329 1_655
O56 S14 1.474338 1_545
O57 S15 1.474329 1_545
O58 S16 1.474348 1_555
O59 S17 1.474338 1_655
O60 S11 1.494259 1_555
O61 S9 1.494241 1_455
O62 S10 1.494248 1_565
O63 S7 1.494241 1_565
O64 S8 1.494259 1_555
O65 S6 1.494248 1_455
O66 S0 1.563928 1_555
O67 S1 1.563937 1_555
O68 S2 1.563933 1_555
O69 S3 1.563937 1_555
O70 S4 1.563928 1_555
O71 S5 1.563933 1_555
