# generated using pymatgen
data_Sr2MgZnWO6
_symmetry_space_group_name_H-M   'P 1'
_cell_length_a   6.41398287
_cell_length_b   6.41398274
_cell_length_c   6.41398298
_cell_angle_alpha   55.50233064
_cell_angle_beta   55.50233124
_cell_angle_gamma   55.50232744
_symmetry_Int_Tables_number   1
_chemical_formula_structural   Sr2MgZnWO6
_chemical_formula_sum   'Sr2 Mg1 Zn1 W1 O6'
_cell_volume   167.09732160
_cell_formula_units_Z   1
loop_
 _symmetry_equiv_pos_site_id
 _symmetry_equiv_pos_as_xyz
  1  'x, y, z'
loop_
 _atom_site_type_symbol
 _atom_site_label
 _atom_site_symmetry_multiplicity
 _atom_site_fract_x
 _atom_site_fract_y
 _atom_site_fract_z
 _atom_site_occupancy
  Sr  Sr0  1  0.21869218  0.21869218  0.21869218  1
  Sr  Sr1  1  0.80764547  0.80764547  0.80764547  1
  Mg  Mg0  1  0.58567837  0.58567837  0.58567837  1
  Zn  Zn0  1  0.41488874  0.41488874  0.41488874  1
  W  W0  1  0.01259331  0.01259331  0.01259331  1
  O  O0  1  0.23892611  0.77833597  0.77833597  1
  O  O1  1  0.25247256  0.79091076  0.25247256  1
  O  O2  1  0.77833597  0.23892611  0.77833597  1
  O  O3  1  0.25247256  0.25247256  0.79091076  1
  O  O4  1  0.79091076  0.25247256  0.25247256  1
  O  O5  1  0.77833597  0.77833597  0.23892611  1
loop_
_geom_bond_atom_site_label_1
_geom_bond_atom_site_label_2
_geom_bond_distance
_geom_bond_site_symmetry_2
Sr0 Zn0 3.183093 1_555
Mg0 O2 1.871852 1_555
Mg0 O0 1.871852 1_555
Mg0 O5 1.871853 1_555
Mg0 Sr1 3.601194 1_555
O0 W0 2.058719 1_566
O0 Sr1 2.566050 1_455
O0 Sr0 3.083395 1_556
O0 Sr0 3.083395 1_565
O1 Zn0 1.877371 1_555
O1 W0 2.116961 1_565
O1 Sr0 2.515672 1_565
O1 Sr1 3.067478 1_554
O1 Sr1 3.067478 1_455
O2 W0 2.058719 1_656
O2 Sr1 2.566050 1_545
O2 Sr0 3.083395 1_556
O2 Sr0 3.083395 1_655
O3 Zn0 1.877371 1_555
O3 W0 2.116961 1_556
O3 Sr0 2.515672 1_556
O3 Sr1 3.067478 1_455
O3 Sr1 3.067478 1_545
O4 Zn0 1.877371 1_555
O4 W0 2.116961 1_655
O4 Sr0 2.515672 1_655
O4 Sr1 3.067478 1_554
O4 Sr1 3.067478 1_545
O5 W0 2.058719 1_665
O5 Sr1 2.566050 1_554
O5 Sr0 3.083395 1_655
O5 Sr0 3.083395 1_565
