# generated using pymatgen
data_Co7O12
_symmetry_space_group_name_H-M   'P 1'
_cell_length_a   4.99021229
_cell_length_b   4.96796956
_cell_length_c   9.73607527
_cell_angle_alpha   84.21407958
_cell_angle_beta   98.07519318
_cell_angle_gamma   57.92458887
_symmetry_Int_Tables_number   1
_chemical_formula_structural   Co7O12
_chemical_formula_sum   'Co7 O12'
_cell_volume   198.02074722
_cell_formula_units_Z   1
loop_
 _symmetry_equiv_pos_site_id
 _symmetry_equiv_pos_as_xyz
  1  'x, y, z'
loop_
 _atom_site_type_symbol
 _atom_site_label
 _atom_site_symmetry_multiplicity
 _atom_site_fract_x
 _atom_site_fract_y
 _atom_site_fract_z
 _atom_site_occupancy
  Co  Co0  1  0.07140300  0.07969600  0.24755400  1
  Co  Co1  1  0.04405600  0.55012900  0.97165000  1
  Co  Co2  1  0.25375900  0.23785800  0.75201800  1
  Co  Co3  1  0.53970400  0.00020100  0.51728000  1
  Co  Co4  1  0.41525900  0.41323800  0.25400800  1
  Co  Co5  1  0.56803500  0.57158900  0.74645000  1
  Co  Co6  1  0.74691500  0.74711000  0.25032100  1
  O  O0  1  0.96613800  0.25999800  0.86552000  1
  O  O1  1  0.24457500  0.97020500  0.63234500  1
  O  O2  1  0.16038200  0.35600300  0.36235400  1
  O  O3  1  0.35565300  0.15641100  0.14330600  1
  O  O4  1  0.31651300  0.50749600  0.86107000  1
  O  O5  1  0.49224700  0.30829300  0.64459600  1
  O  O6  1  0.45832000  0.72179600  0.35251700  1
  O  O7  1  0.70454900  0.45428500  0.15167600  1
  O  O8  1  0.59844100  0.84853100  0.85869600  1
  O  O9  1  0.83700900  0.60711500  0.63702600  1
  O  O10  1  0.78917900  0.01418700  0.36342500  1
  O  O11  1  0.01644700  0.77444000  0.13818800  1
loop_
_geom_bond_atom_site_label_1
_geom_bond_atom_site_label_2
_geom_bond_distance
_geom_bond_site_symmetry_2
Co0 O7 1.799243 1_455
Co0 O6 1.834916 1_545
Co0 O3 2.021905 1_555
Co0 O2 2.036646 1_555
Co0 O11 2.047930 1_545
Co0 O10 2.054556 1_455
Co1 O4 1.789944 1_555
Co1 O8 1.958329 1_455
Co1 O0 2.019663 1_455
Co1 O11 2.038096 1_556
Co1 O3 2.101758 1_556
Co2 O8 1.827018 1_545
Co2 O5 1.830527 1_555
Co2 O1 1.868111 1_545
Co2 O0 1.896250 1_455
Co2 O4 1.912756 1_555
Co2 O9 1.955404 1_455
Co3 O9 1.830801 1_545
Co3 O5 2.003829 1_555
Co3 O2 2.022223 1_555
Co3 O1 2.027119 1_545
Co3 O10 2.096026 1_555
Co3 O6 2.347785 1_545
Co4 O3 1.862350 1_555
Co4 O2 1.873994 1_555
Co4 O11 1.902878 1_555
Co4 O10 1.906234 1_555
Co4 O7 1.947827 1_555
Co4 O6 1.975905 1_555
Co5 O0 1.847115 1_555
Co5 O1 1.849050 1_555
Co5 O5 1.875894 1_555
Co5 O9 1.892927 1_555
Co5 O8 1.894342 1_555
Co5 O4 1.915322 1_555
Co6 O10 1.882585 1_565
Co6 O11 1.896316 1_655
Co6 O7 1.906484 1_555
Co6 O6 1.910379 1_555
Co6 O3 1.953756 1_565
Co6 O2 1.976052 1_655
