# generated using pymatgen
data_LaIn2Rh
_symmetry_space_group_name_H-M   'P 1'
_cell_length_a   5.56130070
_cell_length_b   5.56130070
_cell_length_c   8.06086922
_cell_angle_alpha   90.00000000
_cell_angle_beta   90.00000000
_cell_angle_gamma   131.73760301
_symmetry_Int_Tables_number   1
_chemical_formula_structural   LaIn2Rh
_chemical_formula_sum   'La2 In4 Rh2'
_cell_volume   186.03330851
_cell_formula_units_Z   2
loop_
 _symmetry_equiv_pos_site_id
 _symmetry_equiv_pos_as_xyz
  1  'x, y, z'
loop_
 _atom_site_type_symbol
 _atom_site_label
 _atom_site_symmetry_multiplicity
 _atom_site_fract_x
 _atom_site_fract_y
 _atom_site_fract_z
 _atom_site_occupancy
  La  La0  1  0.06037003  0.93962997  0.25000000  1
  La  La1  1  0.93962997  0.06037003  0.75000000  1
  In  In0  1  0.65078039  0.34921961  0.54976510  1
  In  In1  1  0.34921961  0.65078039  0.45023490  1
  In  In2  1  0.65078039  0.34921961  0.95023490  1
  In  In3  1  0.34921961  0.65078039  0.04976510  1
  Rh  Rh0  1  0.20347489  0.79652511  0.75000000  1
  Rh  Rh1  1  0.79652511  0.20347489  0.25000000  1
loop_
_geom_bond_atom_site_label_1
_geom_bond_atom_site_label_2
_geom_bond_distance
_geom_bond_site_symmetry_2
La0 Rh1 2.678189 1_465
La0 Rh1 3.303861 1_455
La0 Rh1 3.303861 1_565
La1 Rh0 2.678189 1_645
La1 Rh0 3.303861 1_655
La1 Rh0 3.303861 1_545
In0 Rh1 2.833276 1_555
In0 Rh0 2.839124 1_655
In0 Rh0 2.839124 1_545
In0 In1 3.141707 1_655
In0 In1 3.141707 1_545
In0 In1 3.164423 1_555
In0 In2 3.228135 1_555
In0 La1 3.346916 1_555
In0 La0 3.442435 1_545
In0 La0 3.442435 1_655
In0 La1 3.516858 1_565
In0 La1 3.516858 1_455
In1 Rh0 2.833276 1_555
In1 Rh1 2.839124 1_455
In1 Rh1 2.839124 1_565
In1 In3 3.228135 1_555
In1 La0 3.346916 1_555
In1 La1 3.442435 1_455
In1 La1 3.442435 1_565
In1 La0 3.516858 1_655
In1 La0 3.516858 1_545
In2 Rh1 2.833276 1_556
In2 Rh0 2.839124 1_655
In2 Rh0 2.839124 1_545
In2 In3 3.141707 1_546
In2 In3 3.141707 1_656
In2 In3 3.164423 1_556
In2 La1 3.346916 1_555
In2 La0 3.442435 1_546
In2 La0 3.442435 1_656
In2 La1 3.516858 1_565
In2 La1 3.516858 1_455
In3 Rh0 2.833276 1_554
In3 Rh1 2.839124 1_455
In3 Rh1 2.839124 1_565
In3 La0 3.346916 1_555
In3 La1 3.442435 1_454
In3 La1 3.442435 1_564
In3 La0 3.516858 1_655
In3 La0 3.516858 1_545
