# generated using pymatgen
data_Fe2SiO4
_symmetry_space_group_name_H-M   'P 1'
_cell_length_a   4.81996094
_cell_length_b   6.05723057
_cell_length_c   10.37742196
_cell_angle_alpha   90.00974998
_cell_angle_beta   89.99116463
_cell_angle_gamma   90.10962054
_symmetry_Int_Tables_number   1
_chemical_formula_structural   Fe2SiO4
_chemical_formula_sum   'Fe8 Si4 O16'
_cell_volume   302.97465099
_cell_formula_units_Z   4
loop_
 _symmetry_equiv_pos_site_id
 _symmetry_equiv_pos_as_xyz
  1  'x, y, z'
loop_
 _atom_site_type_symbol
 _atom_site_label
 _atom_site_symmetry_multiplicity
 _atom_site_fract_x
 _atom_site_fract_y
 _atom_site_fract_z
 _atom_site_occupancy
  Fe  Fe0  1  0.98460435  0.24884928  0.27975216  1
  Fe  Fe1  1  0.01537669  0.75115041  0.72022731  1
  Fe  Fe2  1  1.00001201  0.49996992  0.99994859  1
  Fe  Fe3  1  0.99999828  1.00003544  0.99993932  1
  Fe  Fe4  1  0.48454903  0.74901377  0.22041624  1
  Fe  Fe5  1  0.51542567  0.25098497  0.77960844  1
  Fe  Fe6  1  0.50000629  0.50004857  0.50005606  1
  Fe  Fe7  1  0.50001887  -0.00001954  0.50004329  1
  Si  Si0  1  0.93234603  0.74951796  0.40237052  1
  Si  Si1  1  0.43221928  0.24963262  0.09798323  1
  Si  Si2  1  0.06767642  0.25047740  0.59760463  1
  Si  Si3  1  0.56778690  0.75035555  0.90203924  1
  O  O0  1  0.79194050  0.75132637  0.54770540  1
  O  O1  1  0.29216785  0.25114803  0.95257243  1
  O  O2  1  0.20813356  0.24869738  0.45229417  1
  O  O3  1  0.70788240  0.74884225  0.04743125  1
  O  O4  1  0.23017704  0.75000690  0.90940477  1
  O  O5  1  0.73010721  0.24996733  0.59015280  1
  O  O6  1  0.76981992  0.24998594  0.09056164  1
  O  O7  1  0.26990185  0.75003748  0.40987606  1
  O  O8  1  0.20804709  0.46692095  0.66612775  1
  O  O9  1  0.70912313  0.53576885  0.83222050  1
  O  O10  1  0.79091717  0.96385777  0.33237942  1
  O  O11  1  0.29135304  0.03347430  0.16655466  1
  O  O12  1  0.79191320  0.53307723  0.33388749  1
  O  O13  1  0.29084458  0.46422047  0.16777980  1
  O  O14  1  0.20906797  0.03613459  0.66762313  1
  O  O15  1  0.70858370  0.96652181  0.83343970  1
loop_
_geom_bond_atom_site_label_1
_geom_bond_atom_site_label_2
_geom_bond_distance
_geom_bond_site_symmetry_2
Fe0 O10 2.035626 1_545
Fe0 O12 2.036629 1_555
Fe0 O2 2.089841 1_655
Fe0 O6 2.219694 1_555
Fe0 O13 2.285488 1_655
Fe0 O11 2.296556 1_655
Fe1 O14 2.035534 1_565
Fe1 O8 2.036489 1_555
Fe1 O0 2.089431 1_455
Fe1 O4 2.219610 1_555
Fe1 O9 2.285675 1_455
Fe1 O15 2.296760 1_455
Fe2 O4 2.097891 1_655
Fe2 O6 2.098050 1_556
Fe2 O1 2.122240 1_655
Fe2 O3 2.122630 1_556
Fe2 O9 2.245999 1_555
Fe2 O13 2.246630 1_656
Fe3 O4 2.100678 1_655
Fe3 O6 2.100743 1_566
Fe3 O1 2.128427 1_665
Fe3 O3 2.128905 1_556
Fe3 O15 2.235864 1_555
Fe3 O11 2.236571 1_666
Fe4 O13 2.034593 1_555
Fe4 O11 2.038394 1_565
Fe4 O3 2.093010 1_555
Fe4 O7 2.221571 1_555
Fe4 O10 2.284026 1_555
Fe4 O12 2.302319 1_555
Fe5 O9 2.034461 1_555
Fe5 O15 2.038238 1_545
Fe5 O1 2.092636 1_555
Fe5 O5 2.221609 1_555
Fe5 O14 2.284133 1_555
Fe5 O8 2.302412 1_555
Fe6 O7 2.099055 1_555
Fe6 O5 2.099065 1_555
Fe6 O0 2.129052 1_555
Fe6 O2 2.129445 1_555
Fe6 O8 2.233596 1_555
Fe6 O12 2.234160 1_555
Fe7 O5 2.095385 1_555
Fe7 O7 2.095533 1_545
Fe7 O0 2.121677 1_545
Fe7 O2 2.122042 1_555
Fe7 O14 2.244812 1_555
Fe7 O10 2.245311 1_545
O0 Si0 1.653024 1_555
O1 Si1 1.653226 1_556
O2 Si2 1.652894 1_555
O3 Si3 1.653135 1_554
O4 Si3 1.629046 1_555
O5 Si2 1.628916 1_655
O6 Si1 1.629029 1_555
O7 Si0 1.628878 1_455
O8 Si2 1.636674 1_555
O9 Si3 1.637509 1_555
O10 Si0 1.637589 1_555
O11 Si1 1.636598 1_555
O12 Si0 1.636603 1_555
O13 Si1 1.637490 1_555
O14 Si2 1.637655 1_555
O15 Si3 1.636625 1_555
