# generated using pymatgen
data_MgMn12O17F7
_symmetry_space_group_name_H-M   'P 1'
_cell_length_a   4.77804695
_cell_length_b   5.72762320
_cell_length_c   15.05801378
_cell_angle_alpha   91.06868023
_cell_angle_beta   87.04220727
_cell_angle_gamma   90.16432361
_symmetry_Int_Tables_number   1
_chemical_formula_structural   MgMn12O17F7
_chemical_formula_sum   'Mg1 Mn12 O17 F7'
_cell_volume   411.46912942
_cell_formula_units_Z   1
loop_
 _symmetry_equiv_pos_site_id
 _symmetry_equiv_pos_as_xyz
  1  'x, y, z'
loop_
 _atom_site_type_symbol
 _atom_site_label
 _atom_site_symmetry_multiplicity
 _atom_site_fract_x
 _atom_site_fract_y
 _atom_site_fract_z
 _atom_site_occupancy
  Mg  Mg0  1  0.49132100  0.08092400  0.41299200  1
  Mn  Mn0  1  0.01143100  0.35269500  0.41082300  1
  Mn  Mn1  1  0.01406600  0.84296500  0.24598500  1
  Mn  Mn2  1  0.99990400  0.17140700  0.07687700  1
  Mn  Mn3  1  0.04374200  0.16667500  0.74654600  1
  Mn  Mn4  1  0.05057700  0.81136100  0.58413500  1
  Mn  Mn5  1  0.00040300  0.84145800  0.90775400  1
  Mn  Mn6  1  0.49613600  0.35111800  0.91974300  1
  Mn  Mn7  1  0.52796700  0.33861200  0.59693900  1
  Mn  Mn8  1  0.45413700  0.37612700  0.24682300  1
  Mn  Mn9  1  0.47776600  0.65128000  0.08949200  1
  Mn  Mn10  1  0.50769400  0.60426800  0.42354100  1
  Mn  Mn11  1  0.50809300  0.63523700  0.75727400  1
  O  O0  1  0.20945700  0.14330200  0.31754600  1
  O  O1  1  0.25002100  0.11267900  0.63796200  1
  O  O2  1  0.19960800  0.12023900  0.96445700  1
  O  O3  1  0.21901400  0.91058400  0.13270700  1
  O  O4  1  0.29538900  0.83336600  0.47669200  1
  O  O5  1  0.23936900  0.88099900  0.80095600  1
  O  O6  1  0.32264800  0.35732300  0.48348300  1
  O  O7  1  0.23971300  0.42438400  0.14778600  1
  O  O8  1  0.24862600  0.59908400  0.32381800  1
  O  O9  1  0.32526100  0.59600000  0.64639700  1
  O  O10  1  0.28797300  0.39887500  0.81313800  1
  O  O11  1  0.69535100  0.38898600  0.02909700  1
  O  O12  1  0.67799400  0.62869600  0.19388100  1
  O  O13  1  0.68263900  0.35560500  0.35025100  1
  O  O14  1  0.79591400  0.55723400  0.50546900  1
  O  O15  1  0.71998500  0.62085000  0.86214400  1
  O  O16  1  0.75398300  0.38479100  0.69443000  1
  F  F0  1  0.24567400  0.62489400  0.98548300  1
  F  F1  1  0.73777100  0.14171000  0.19082100  1
  F  F2  1  0.76897200  0.09724200  0.51731600  1
  F  F3  1  0.73763600  0.84279000  0.35993900  1
  F  F4  1  0.74119200  0.87426800  0.02363400  1
  F  F5  1  0.77560100  0.12289500  0.84912100  1
  F  F6  1  0.77475400  0.86622100  0.69121500  1
loop_
_geom_bond_atom_site_label_1
_geom_bond_atom_site_label_2
_geom_bond_distance
_geom_bond_site_symmetry_2
Mg0 O4 1.938406 1_545
Mg0 O6 2.034402 1_555
Mg0 O13 2.039959 1_555
Mg0 O0 2.056380 1_555
Mn0 O13 1.857088 1_455
Mn0 O6 1.890921 1_555
Mn0 O0 2.028043 1_555
Mn0 O14 2.063292 1_455
Mn0 O8 2.213361 1_555
Mn1 O3 1.966869 1_555
Mn1 O12 2.187008 1_455
Mn1 O8 2.187803 1_555
Mn1 O0 2.239943 1_565
Mn2 O2 1.917922 1_654
Mn2 O3 2.044791 1_645
Mn2 O11 2.083288 1_555
Mn2 O7 2.147438 1_655
Mn3 O1 1.886020 1_555
Mn3 O10 2.048939 1_555
Mn3 O16 2.062033 1_455
Mn3 O5 2.088076 1_545
Mn4 O4 1.952722 1_555
Mn4 O9 2.074239 1_555
Mn4 O1 2.135810 1_565
Mn4 O14 2.253138 1_455
Mn5 O5 1.940047 1_555
Mn5 O15 1.978978 1_455
Mn5 O2 2.051559 1_565
Mn6 O11 1.952382 1_556
Mn6 O10 1.955414 1_555
Mn6 O2 2.033091 1_555
Mn6 O15 2.056155 1_555
Mn7 O16 1.881155 1_555
Mn7 O9 1.886486 1_555
Mn7 O1 1.937823 1_555
Mn7 O6 2.018166 1_555
Mn7 O14 2.230988 1_555
Mn8 O7 1.877421 1_555
Mn8 O8 1.942585 1_555
Mn8 O13 1.953057 1_555
Mn8 O12 1.954080 1_555
Mn8 O0 2.048108 1_555
Mn9 O12 1.888475 1_555
Mn9 O7 1.919425 1_555
Mn9 O11 2.006311 1_555
Mn9 O3 2.012268 1_555
Mn10 O4 1.809995 1_555
Mn10 O6 1.885491 1_555
Mn10 O14 1.918557 1_555
Mn10 O13 1.948881 1_555
Mn10 O8 1.994486 1_555
Mn11 O10 1.894610 1_555
Mn11 O15 1.922445 1_555
Mn11 O9 1.933020 1_555
Mn11 O5 1.987800 1_555
Mn11 O16 2.043965 1_555
O4 O8 2.661918 1_555
O11 O7 2.749968 1_555
F0 Mn9 1.968486 1_556
F0 Mn5 2.118009 1_555
F0 Mn6 2.168309 1_555
F0 O7 2.718457 1_556
F0 O3 2.728584 1_556
F0 F4 2.833121 1_456
F0 F4 2.840080 1_556
F1 Mn8 2.049563 1_555
F1 Mn2 2.080722 1_555
F1 Mn1 2.353678 1_645
F1 O13 2.675915 1_555
F2 Mg0 2.108395 1_555
F2 Mn7 2.116507 1_555
F2 Mn4 2.391179 1_645
F2 Mn0 2.437289 1_655
F2 O14 2.646328 1_555
F2 F3 2.769271 1_545
F2 O4 2.804905 1_545
F3 Mg0 1.937827 1_565
F3 Mn10 1.980485 1_555
F3 Mn1 2.110699 1_655
F4 Mn9 2.026847 1_555
F4 Mn5 2.092864 1_654
F4 Mn2 2.259777 1_565
F4 O11 2.789912 1_555
F4 O15 2.814827 1_554
F5 Mn3 1.974442 1_655
F5 Mn6 2.105758 1_555
F5 Mn5 2.166229 1_645
F5 O2 2.735893 1_655
F5 F6 2.772286 1_545
F6 Mn4 2.049300 1_655
F6 Mn11 2.066825 1_555
F6 Mn3 2.313398 1_665
F6 O9 2.748647 1_555
F6 O16 2.760188 1_555
F6 O5 2.835196 1_655
