# generated using pymatgen
data_MgMn12(O7F5)2
_symmetry_space_group_name_H-M   'P 1'
_cell_length_a   4.86421591
_cell_length_b   5.78510489
_cell_length_c   15.20152091
_cell_angle_alpha   88.00471229
_cell_angle_beta   87.44472956
_cell_angle_gamma   89.26652101
_symmetry_Int_Tables_number   1
_chemical_formula_structural   MgMn12(O7F5)2
_chemical_formula_sum   'Mg1 Mn12 O14 F10'
_cell_volume   427.05923382
_cell_formula_units_Z   1
loop_
 _symmetry_equiv_pos_site_id
 _symmetry_equiv_pos_as_xyz
  1  'x, y, z'
loop_
 _atom_site_type_symbol
 _atom_site_label
 _atom_site_symmetry_multiplicity
 _atom_site_fract_x
 _atom_site_fract_y
 _atom_site_fract_z
 _atom_site_occupancy
  Mg  Mg0  1  0.47857400  0.89955000  0.57731200  1
  Mn  Mn0  1  0.97567100  0.13561200  0.40747700  1
  Mn  Mn1  1  0.99252100  0.83483500  0.23876600  1
  Mn  Mn2  1  0.02224800  0.17431500  0.08046100  1
  Mn  Mn3  1  0.07311600  0.19926400  0.74703200  1
  Mn  Mn4  1  0.00829500  0.63331100  0.58090700  1
  Mn  Mn5  1  0.03764500  0.88057000  0.91642100  1
  Mn  Mn6  1  0.52005200  0.37385700  0.59581800  1
  Mn  Mn7  1  0.51362100  0.35089200  0.92506300  1
  Mn  Mn8  1  0.46986400  0.33007700  0.25073400  1
  Mn  Mn9  1  0.50221300  0.63871100  0.09328900  1
  Mn  Mn10  1  0.45965900  0.62107700  0.41322000  1
  Mn  Mn11  1  0.51697900  0.67609300  0.76127600  1
  O  O0  1  0.20022400  0.08890100  0.29731600  1
  O  O1  1  0.30216100  0.14506600  0.64784800  1
  O  O2  1  0.22391700  0.13363300  0.97076500  1
  O  O3  1  0.22060400  0.88279000  0.13271500  1
  O  O4  1  0.20011600  0.83343400  0.48541900  1
  O  O5  1  0.24074300  0.92353800  0.80763600  1
  O  O6  1  0.27515600  0.39811700  0.14321000  1
  O  O7  1  0.32110000  0.63072200  0.64970300  1
  O  O8  1  0.33447800  0.41995900  0.81582800  1
  O  O9  1  0.72913000  0.39092900  0.02850600  1
  O  O10  1  0.69534900  0.61396400  0.19668200  1
  O  O11  1  0.65640500  0.36190100  0.36019000  1
  O  O12  1  0.67823300  0.61897800  0.51977900  1
  O  O13  1  0.83507800  0.42334100  0.67830300  1
  F  F0  1  0.20392400  0.58906200  0.31824200  1
  F  F1  1  0.20411300  0.36473100  0.49003000  1
  F  F2  1  0.29639200  0.63420700  0.98073900  1
  F  F3  1  0.77441100  0.65238900  0.86469800  1
  F  F4  1  0.76372900  0.12077700  0.18262400  1
  F  F5  1  0.71942200  0.13091800  0.52287600  1
  F  F6  1  0.74293400  0.86407300  0.35086600  1
  F  F7  1  0.76658500  0.87723400  0.02245200  1
  F  F8  1  0.79970300  0.16243000  0.84865400  1
  F  F9  1  0.75952500  0.88359600  0.68047200  1
loop_
_geom_bond_atom_site_label_1
_geom_bond_atom_site_label_2
_geom_bond_distance
_geom_bond_site_symmetry_2
Mg0 O1 1.973890 1_565
Mg0 O7 2.013092 1_555
Mg0 O4 2.037513 1_555
Mg0 O12 2.079769 1_555
Mn0 O0 1.982745 1_655
Mn0 O11 2.150392 1_555
Mn0 O4 2.360925 1_645
Mn1 O3 1.929786 1_655
Mn1 O0 2.045121 1_665
Mn1 O10 2.078005 1_555
Mn2 O2 1.916754 1_554
Mn2 O9 2.052497 1_455
Mn2 O6 2.081101 1_555
Mn2 O3 2.083168 1_545
Mn3 O1 1.867372 1_555
Mn3 O5 1.997320 1_545
Mn3 O13 2.021826 1_455
Mn3 O8 2.143157 1_555
Mn4 O7 1.883948 1_555
Mn4 O12 1.894668 1_455
Mn4 O4 2.026782 1_555
Mn4 O13 2.041378 1_455
Mn5 O5 1.898543 1_555
Mn5 O2 1.957453 1_565
Mn6 O1 1.840933 1_555
Mn6 O12 1.942550 1_555
Mn6 O7 1.947547 1_555
Mn6 O13 2.051797 1_555
Mn7 O8 1.936559 1_555
Mn7 O9 1.950341 1_556
Mn7 O2 1.986308 1_555
Mn8 O11 1.945767 1_555
Mn8 O6 1.951233 1_555
Mn8 O0 2.015836 1_555
Mn8 O10 2.108821 1_555
Mn9 O10 1.867072 1_555
Mn9 O6 1.903697 1_555
Mn9 O3 2.040977 1_555
Mn9 O9 2.050312 1_555
Mn10 O11 1.947422 1_555
Mn10 O12 1.976444 1_555
Mn10 O4 2.058709 1_555
Mn11 O8 1.885163 1_555
Mn11 O7 2.008706 1_555
Mn11 O5 2.070716 1_555
Mn11 O13 2.453480 1_555
O13 O7 2.676199 1_655
F0 Mn10 1.962388 1_555
F0 Mn1 2.119521 1_455
F0 Mn8 2.215932 1_555
F0 F6 2.769428 1_455
F0 F1 2.875418 1_555
F1 Mn0 2.200992 1_455
F1 Mn10 2.214710 1_555
F1 Mn6 2.275739 1_555
F1 Mn4 2.285639 1_555
F1 O1 2.733517 1_555
F1 F5 2.750827 1_455
F1 F5 2.887837 1_555
F1 O11 2.889698 1_555
F2 Mn9 2.021580 1_556
F2 Mn7 2.119361 1_555
F2 Mn5 2.130281 1_555
F2 O3 2.771848 1_556
F2 O6 2.778850 1_556
F2 F7 2.807736 1_556
F2 O8 2.832696 1_555
F2 F3 2.856024 1_555
F3 Mn5 2.050747 1_655
F3 Mn11 2.052968 1_555
F3 Mn7 2.309731 1_555
F3 F7 2.766243 1_556
F3 F8 2.854005 1_555
F3 O5 2.859945 1_655
F3 O9 2.869580 1_556
F4 Mn2 1.972680 1_655
F4 Mn8 2.119520 1_555
F4 Mn1 2.154655 1_545
F4 O9 2.780854 1_555
F4 F7 2.854672 1_545
F5 Mg0 1.930129 1_545
F5 Mn6 2.030502 1_555
F5 Mn0 2.105782 1_555
F5 F9 2.760508 1_545
F6 Mn1 2.058345 1_555
F6 Mn10 2.147931 1_555
F6 Mn0 2.171728 1_565
F6 O10 2.816693 1_555
F6 O12 2.896307 1_555
F7 Mn5 2.036122 1_654
F7 Mn9 2.129747 1_555
F7 Mn2 2.352857 1_665
F7 O9 2.819585 1_555
F7 O3 2.832567 1_655
F8 Mn3 2.000431 1_655
F8 Mn7 2.092731 1_555
F8 Mn5 2.236215 1_645
F8 O8 2.748122 1_555
F9 Mn11 2.036206 1_555
F9 Mg0 2.124413 1_555
F9 Mn4 2.407488 1_655
F9 Mn3 2.650102 1_665
F9 O13 2.684342 1_555
F9 O1 2.728251 1_565
