# generated using pymatgen
data_Ti4ZnPdN2
_symmetry_space_group_name_H-M   'P 1'
_cell_length_a   16.46954117
_cell_length_b   16.46954274
_cell_length_c   8.43085337
_cell_angle_alpha   90.00000000
_cell_angle_beta   90.00000000
_cell_angle_gamma   159.24212216
_symmetry_Int_Tables_number   1
_chemical_formula_structural   Ti4ZnPdN2
_chemical_formula_sum   'Ti32 Zn8 Pd8 N16'
_cell_volume   810.49869869
_cell_formula_units_Z   8
loop_
 _symmetry_equiv_pos_site_id
 _symmetry_equiv_pos_as_xyz
  1  'x, y, z'
loop_
 _atom_site_type_symbol
 _atom_site_label
 _atom_site_symmetry_multiplicity
 _atom_site_fract_x
 _atom_site_fract_y
 _atom_site_fract_z
 _atom_site_occupancy
  Ti  Ti0_0  1  0.39392849  0.10607151  0.12500000  1
  Ti  Ti0_1  1  0.39392849  0.10607151  0.62500000  1
  Ti  Ti0_2  1  0.39392849  0.60607151  0.12500000  1
  Ti  Ti0_3  1  0.39392849  0.60607151  0.62500000  1
  Ti  Ti0_4  1  0.89392849  0.10607151  0.12500000  1
  Ti  Ti0_5  1  0.89392849  0.10607151  0.62500000  1
  Ti  Ti0_6  1  0.89392849  0.60607151  0.12500000  1
  Ti  Ti0_7  1  0.89392849  0.60607151  0.62500000  1
  Ti  Ti1_0  1  0.10605332  0.39394668  0.37500000  1
  Ti  Ti1_1  1  0.10605332  0.39394668  0.87500000  1
  Ti  Ti1_2  1  0.10605332  0.89394668  0.37500000  1
  Ti  Ti1_3  1  0.10605332  0.89394668  0.87500000  1
  Ti  Ti1_4  1  0.60605332  0.39394668  0.37500000  1
  Ti  Ti1_5  1  0.60605332  0.39394668  0.87500000  1
  Ti  Ti1_6  1  0.60605332  0.89394668  0.37500000  1
  Ti  Ti1_7  1  0.60605332  0.89394668  0.87500000  1
  Ti  Ti2_0  1  0.30539150  0.19460850  0.12500000  1
  Ti  Ti2_1  1  0.30539150  0.19460850  0.62500000  1
  Ti  Ti2_2  1  0.30539150  0.69460850  0.12500000  1
  Ti  Ti2_3  1  0.30539150  0.69460850  0.62500000  1
  Ti  Ti2_4  1  0.80539150  0.19460850  0.12500000  1
  Ti  Ti2_5  1  0.80539150  0.19460850  0.62500000  1
  Ti  Ti2_6  1  0.80539150  0.69460850  0.12500000  1
  Ti  Ti2_7  1  0.80539150  0.69460850  0.62500000  1
  Ti  Ti3_0  1  0.19453068  0.30546932  0.37500000  1
  Ti  Ti3_1  1  0.19453068  0.30546932  0.87500000  1
  Ti  Ti3_2  1  0.19453068  0.80546932  0.37500000  1
  Ti  Ti3_3  1  0.19453068  0.80546932  0.87500000  1
  Ti  Ti3_4  1  0.69453068  0.30546932  0.37500000  1
  Ti  Ti3_5  1  0.69453068  0.30546932  0.87500000  1
  Ti  Ti3_6  1  0.69453068  0.80546932  0.37500000  1
  Ti  Ti3_7  1  0.69453068  0.80546932  0.87500000  1
  Zn  Zn0_0  1  0.02206765  0.47793235  0.37500000  1
  Zn  Zn0_1  1  0.02206765  0.47793235  0.87500000  1
  Zn  Zn0_2  1  0.02206765  0.97793235  0.37500000  1
  Zn  Zn0_3  1  0.02206765  0.97793235  0.87500000  1
  Zn  Zn0_4  1  0.52206765  0.47793235  0.37500000  1
  Zn  Zn0_5  1  0.52206765  0.47793235  0.87500000  1
  Zn  Zn0_6  1  0.52206765  0.97793235  0.37500000  1
  Zn  Zn0_7  1  0.52206765  0.97793235  0.87500000  1
  Pd  Pd0_0  1  0.47850406  0.02149594  0.12500000  1
  Pd  Pd0_1  1  0.47850406  0.02149594  0.62500000  1
  Pd  Pd0_2  1  0.47850406  0.52149594  0.12500000  1
  Pd  Pd0_3  1  0.47850406  0.52149594  0.62500000  1
  Pd  Pd0_4  1  0.97850406  0.02149594  0.12500000  1
  Pd  Pd0_5  1  0.97850406  0.02149594  0.62500000  1
  Pd  Pd0_6  1  0.97850406  0.52149594  0.12500000  1
  Pd  Pd0_7  1  0.97850406  0.52149594  0.62500000  1
  N  N0_0  1  0.09933872  0.40066128  0.12500000  1
  N  N0_1  1  0.09933872  0.40066128  0.62500000  1
  N  N0_2  1  0.09933872  0.90066128  0.12500000  1
  N  N0_3  1  0.09933872  0.90066128  0.62500000  1
  N  N0_4  1  0.59933872  0.40066128  0.12500000  1
  N  N0_5  1  0.59933872  0.40066128  0.62500000  1
  N  N0_6  1  0.59933872  0.90066128  0.12500000  1
  N  N0_7  1  0.59933872  0.90066128  0.62500000  1
  N  N1_0  1  0.40018557  0.09981443  0.37500000  1
  N  N1_1  1  0.40018557  0.09981443  0.87500000  1
  N  N1_2  1  0.40018557  0.59981443  0.37500000  1
  N  N1_3  1  0.40018557  0.59981443  0.87500000  1
  N  N1_4  1  0.90018557  0.09981443  0.37500000  1
  N  N1_5  1  0.90018557  0.09981443  0.87500000  1
  N  N1_6  1  0.90018557  0.59981443  0.37500000  1
  N  N1_7  1  0.90018557  0.59981443  0.87500000  1
loop_
_geom_bond_atom_site_label_1
_geom_bond_atom_site_label_2
_geom_bond_distance
_geom_bond_site_symmetry_2
Ti1_0 Zn0_0 2.721146 1_555
Ti1_1 Zn0_1 2.721146 1_555
Ti1_2 Zn0_2 2.721146 1_555
Ti1_3 Zn0_3 2.721146 1_555
Ti1_4 Zn0_4 2.721146 1_555
Ti1_5 Zn0_5 2.721146 1_555
Ti1_6 Zn0_6 2.721146 1_555
Ti1_7 Zn0_7 2.721146 1_555
Ti2_0 Zn0_3 2.794484 1_544
Ti2_0 Zn0_2 2.794484 1_545
Ti2_0 Zn0_5 2.794484 1_554
Ti2_0 Zn0_4 2.794484 1_555
Ti2_1 Zn0_2 2.794484 1_545
Ti2_1 Zn0_3 2.794484 1_545
Ti2_1 Zn0_4 2.794484 1_555
Ti2_1 Zn0_5 2.794484 1_555
Ti2_2 Zn0_1 2.794484 1_554
Ti2_2 Zn0_0 2.794484 1_555
Ti2_2 Zn0_7 2.794484 1_554
Ti2_2 Zn0_6 2.794484 1_555
Ti2_3 Zn0_0 2.794484 1_555
Ti2_3 Zn0_1 2.794484 1_555
Ti2_3 Zn0_6 2.794484 1_555
Ti2_3 Zn0_7 2.794484 1_555
Ti2_4 Zn0_7 2.794484 1_544
Ti2_4 Zn0_6 2.794484 1_545
Ti2_4 Zn0_1 2.794484 1_654
Ti2_4 Zn0_0 2.794484 1_655
Ti2_5 Zn0_6 2.794484 1_545
Ti2_5 Zn0_7 2.794484 1_545
Ti2_5 Zn0_0 2.794484 1_655
Ti2_5 Zn0_1 2.794484 1_655
Ti2_6 Zn0_5 2.794484 1_554
Ti2_6 Zn0_4 2.794484 1_555
Ti2_6 Zn0_3 2.794484 1_654
Ti2_6 Zn0_2 2.794484 1_655
Ti2_7 Zn0_4 2.794484 1_555
Ti2_7 Zn0_5 2.794484 1_555
Ti2_7 Zn0_2 2.794484 1_655
Ti2_7 Zn0_3 2.794484 1_655
Ti3_0 Zn0_4 2.917555 1_555
Ti3_0 Zn0_2 2.917555 1_545
Ti3_1 Zn0_5 2.917555 1_555
Ti3_1 Zn0_3 2.917555 1_545
Ti3_2 Zn0_6 2.917555 1_555
Ti3_2 Zn0_0 2.917555 1_555
Ti3_3 Zn0_7 2.917555 1_555
Ti3_3 Zn0_1 2.917555 1_555
Ti3_4 Zn0_0 2.917555 1_655
Ti3_4 Zn0_6 2.917555 1_545
Ti3_5 Zn0_1 2.917555 1_655
Ti3_5 Zn0_7 2.917555 1_545
Ti3_6 Zn0_2 2.917555 1_655
Ti3_6 Zn0_4 2.917555 1_555
Ti3_7 Zn0_3 2.917555 1_655
Ti3_7 Zn0_5 2.917555 1_555
Zn0_0 Zn0_6 2.967113 1_555
Zn0_0 Zn0_6 2.967113 1_445
Zn0_1 Zn0_7 2.967113 1_555
Zn0_1 Zn0_7 2.967113 1_445
Zn0_2 Zn0_4 2.967113 1_455
Zn0_2 Zn0_4 2.967113 1_565
Zn0_3 Zn0_5 2.967113 1_455
Zn0_3 Zn0_5 2.967113 1_565
Pd0_0 Zn0_7 2.536669 1_544
Pd0_0 Zn0_6 2.536669 1_545
Pd0_0 Ti0_0 2.740259 1_555
Pd0_0 Ti3_3 2.802682 1_544
Pd0_0 Ti3_2 2.802682 1_545
Pd0_0 Ti3_5 2.802682 1_554
Pd0_0 Ti3_4 2.802682 1_555
Pd0_0 Ti2_4 2.899453 1_555
Pd0_0 Ti2_2 2.899454 1_545
Pd0_0 Pd0_6 2.967113 1_555
Pd0_0 Pd0_6 2.967113 1_445
Pd0_1 Zn0_6 2.536669 1_545
Pd0_1 Zn0_7 2.536669 1_545
Pd0_1 Ti0_1 2.740259 1_555
Pd0_1 Ti3_2 2.802682 1_545
Pd0_1 Ti3_3 2.802682 1_545
Pd0_1 Ti3_4 2.802682 1_555
Pd0_1 Ti3_5 2.802682 1_555
Pd0_1 Ti2_5 2.899453 1_555
Pd0_1 Ti2_3 2.899454 1_545
Pd0_1 Pd0_7 2.967113 1_555
Pd0_1 Pd0_7 2.967113 1_445
Pd0_2 Zn0_5 2.536669 1_554
Pd0_2 Zn0_4 2.536669 1_555
Pd0_2 Ti0_2 2.740259 1_555
Pd0_2 Ti3_1 2.802682 1_554
Pd0_2 Ti3_0 2.802682 1_555
Pd0_2 Ti3_7 2.802682 1_554
Pd0_2 Ti3_6 2.802682 1_555
Pd0_2 Ti2_6 2.899453 1_555
Pd0_2 Ti2_0 2.899454 1_555
Pd0_2 Pd0_4 2.967113 1_455
Pd0_2 Pd0_4 2.967113 1_565
Pd0_3 Zn0_4 2.536669 1_555
Pd0_3 Zn0_5 2.536669 1_555
Pd0_3 Ti0_3 2.740259 1_555
Pd0_3 Ti3_0 2.802682 1_555
Pd0_3 Ti3_1 2.802682 1_555
Pd0_3 Ti3_6 2.802682 1_555
Pd0_3 Ti3_7 2.802682 1_555
Pd0_3 Ti2_7 2.899453 1_555
Pd0_3 Ti2_1 2.899454 1_555
Pd0_3 Pd0_5 2.967113 1_455
Pd0_3 Pd0_5 2.967113 1_565
Pd0_4 Zn0_3 2.536669 1_644
Pd0_4 Zn0_2 2.536669 1_645
Pd0_4 Ti0_4 2.740259 1_555
Pd0_4 Ti3_7 2.802682 1_544
Pd0_4 Ti3_6 2.802682 1_545
Pd0_4 Ti3_1 2.802682 1_654
Pd0_4 Ti3_0 2.802682 1_655
Pd0_4 Ti2_0 2.899453 1_655
Pd0_4 Ti2_6 2.899454 1_545
Pd0_5 Zn0_2 2.536669 1_645
Pd0_5 Zn0_3 2.536669 1_645
Pd0_5 Ti0_5 2.740259 1_555
Pd0_5 Ti3_6 2.802682 1_545
Pd0_5 Ti3_7 2.802682 1_545
Pd0_5 Ti3_0 2.802682 1_655
Pd0_5 Ti3_1 2.802682 1_655
Pd0_5 Ti2_1 2.899453 1_655
Pd0_5 Ti2_7 2.899454 1_545
Pd0_6 Zn0_1 2.536669 1_654
Pd0_6 Zn0_0 2.536669 1_655
Pd0_6 Ti0_6 2.740259 1_555
Pd0_6 Ti3_5 2.802682 1_554
Pd0_6 Ti3_4 2.802682 1_555
Pd0_6 Ti3_3 2.802682 1_654
Pd0_6 Ti3_2 2.802682 1_655
Pd0_6 Ti2_2 2.899453 1_655
Pd0_6 Ti2_4 2.899454 1_555
Pd0_7 Zn0_0 2.536669 1_655
Pd0_7 Zn0_1 2.536669 1_655
Pd0_7 Ti0_7 2.740259 1_555
Pd0_7 Ti3_4 2.802682 1_555
Pd0_7 Ti3_5 2.802682 1_555
Pd0_7 Ti3_2 2.802682 1_655
Pd0_7 Ti3_3 2.802682 1_655
Pd0_7 Ti2_3 2.899453 1_655
Pd0_7 Ti2_5 2.899454 1_555
N0_0 Ti2_4 2.056311 1_455
N0_0 Ti2_2 2.056312 1_555
N0_0 Ti0_2 2.070782 1_555
N0_0 Ti0_4 2.070783 1_455
N0_0 Ti1_1 2.118911 1_554
N0_0 Ti1_0 2.118911 1_555
N0_1 Ti2_5 2.056311 1_455
N0_1 Ti2_3 2.056312 1_555
N0_1 Ti0_3 2.070782 1_555
N0_1 Ti0_5 2.070783 1_455
N0_1 Ti1_0 2.118911 1_555
N0_1 Ti1_1 2.118911 1_555
N0_2 Ti2_6 2.056311 1_455
N0_2 Ti2_0 2.056312 1_565
N0_2 Ti0_0 2.070782 1_565
N0_2 Ti0_6 2.070783 1_455
N0_2 Ti1_3 2.118911 1_554
N0_2 Ti1_2 2.118911 1_555
N0_3 Ti2_7 2.056311 1_455
N0_3 Ti2_1 2.056312 1_565
N0_3 Ti0_1 2.070782 1_565
N0_3 Ti0_7 2.070783 1_455
N0_3 Ti1_2 2.118911 1_555
N0_3 Ti1_3 2.118911 1_555
N0_4 Ti2_0 2.056311 1_555
N0_4 Ti2_6 2.056312 1_555
N0_4 Ti0_6 2.070782 1_555
N0_4 Ti0_0 2.070783 1_555
N0_4 Ti1_5 2.118911 1_554
N0_4 Ti1_4 2.118911 1_555
N0_5 Ti2_1 2.056311 1_555
N0_5 Ti2_7 2.056312 1_555
N0_5 Ti0_7 2.070782 1_555
N0_5 Ti0_1 2.070783 1_555
N0_5 Ti1_4 2.118911 1_555
N0_5 Ti1_5 2.118911 1_555
N0_6 Ti2_2 2.056311 1_555
N0_6 Ti2_4 2.056312 1_565
N0_6 Ti0_4 2.070782 1_565
N0_6 Ti0_2 2.070783 1_555
N0_6 Ti1_7 2.118911 1_554
N0_6 Ti1_6 2.118911 1_555
N0_7 Ti2_3 2.056311 1_555
N0_7 Ti2_5 2.056312 1_565
N0_7 Ti0_5 2.070782 1_565
N0_7 Ti0_3 2.070783 1_555
N0_7 Ti1_6 2.118911 1_555
N0_7 Ti1_7 2.118911 1_555
N1_0 Ti1_2 2.060467 1_545
N1_0 Ti1_4 2.060468 1_555
N1_0 Ti3_4 2.065259 1_555
N1_0 Ti3_2 2.065260 1_545
N1_0 Ti0_0 2.117441 1_555
N1_0 Ti0_1 2.117441 1_555
N1_1 Ti1_3 2.060467 1_545
N1_1 Ti1_5 2.060468 1_555
N1_1 Ti3_5 2.065259 1_555
N1_1 Ti3_3 2.065260 1_545
N1_1 Ti0_0 2.117441 1_556
N1_1 Ti0_1 2.117441 1_555
N1_2 Ti1_0 2.060467 1_555
N1_2 Ti1_6 2.060468 1_555
N1_2 Ti3_6 2.065259 1_555
N1_2 Ti3_0 2.065260 1_555
N1_2 Ti0_3 2.117441 1_555
N1_2 Ti0_2 2.117441 1_555
N1_3 Ti1_1 2.060467 1_555
N1_3 Ti1_7 2.060468 1_555
N1_3 Ti3_7 2.065259 1_555
N1_3 Ti3_1 2.065260 1_555
N1_3 Ti0_2 2.117441 1_556
N1_3 Ti0_3 2.117441 1_555
N1_4 Ti1_6 2.060467 1_545
N1_4 Ti1_0 2.060468 1_655
N1_4 Ti3_0 2.065259 1_655
N1_4 Ti3_6 2.065260 1_545
N1_4 Ti0_4 2.117441 1_555
N1_4 Ti0_5 2.117441 1_555
N1_5 Ti1_7 2.060467 1_545
N1_5 Ti1_1 2.060468 1_655
N1_5 Ti3_1 2.065259 1_655
N1_5 Ti3_7 2.065260 1_545
N1_5 Ti0_4 2.117441 1_556
N1_5 Ti0_5 2.117441 1_555
N1_6 Ti1_4 2.060467 1_555
N1_6 Ti1_2 2.060468 1_655
N1_6 Ti3_2 2.065259 1_655
N1_6 Ti3_4 2.065260 1_555
N1_6 Ti0_6 2.117441 1_555
N1_6 Ti0_7 2.117441 1_555
N1_7 Ti1_5 2.060467 1_555
N1_7 Ti1_3 2.060468 1_655
N1_7 Ti3_3 2.065259 1_655
N1_7 Ti3_5 2.065260 1_555
N1_7 Ti0_6 2.117441 1_556
N1_7 Ti0_7 2.117441 1_555
