# generated using pymatgen
data_NaLuH6Ru
_symmetry_space_group_name_H-M   'P 1'
_cell_length_a   4.85534422
_cell_length_b   4.85534389
_cell_length_c   4.85534306
_cell_angle_alpha   60.00000565
_cell_angle_beta   60.00000787
_cell_angle_gamma   59.99999156
_symmetry_Int_Tables_number   1
_chemical_formula_structural   NaLuH6Ru
_chemical_formula_sum   'Na1 Lu1 H6 Ru1'
_cell_volume   80.93660070
_cell_formula_units_Z   1
loop_
 _symmetry_equiv_pos_site_id
 _symmetry_equiv_pos_as_xyz
  1  'x, y, z'
loop_
 _atom_site_type_symbol
 _atom_site_label
 _atom_site_symmetry_multiplicity
 _atom_site_fract_x
 _atom_site_fract_y
 _atom_site_fract_z
 _atom_site_occupancy
  Na  Na0  1  0.75000000  0.75000000  0.75000000  1
  Lu  Lu0  1  0.25000000  0.25000000  0.25000000  1
  H  H0  1  0.75368407  0.75368407  0.24631593  1
  H  H1  1  0.24631593  0.75368407  0.24631593  1
  H  H2  1  0.75368407  0.24631593  0.24631593  1
  H  H3  1  0.24631593  0.24631593  0.75368407  1
  H  H4  1  0.75368407  0.24631593  0.75368407  1
  H  H5  1  0.24631593  0.75368407  0.75368407  1
  Ru  Ru0  1  0.00000000  0.00000000  0.00000000  1
loop_
_geom_bond_atom_site_label_1
_geom_bond_atom_site_label_2
_geom_bond_distance
_geom_bond_site_symmetry_2
H0 Ru0 1.691327 1_665
H0 Na0 2.427803 1_554
H0 Na0 2.427803 1_555
H0 Lu0 2.427804 1_655
H0 Lu0 2.427804 1_565
H1 Ru0 1.691326 1_565
H1 Lu0 2.427804 1_565
H1 Lu0 2.427804 1_555
H1 Na0 2.427804 1_455
H1 Na0 2.427804 1_554
H2 Ru0 1.691326 1_655
H2 Na0 2.427804 1_545
H2 Na0 2.427804 1_554
H2 Lu0 2.427804 1_655
H2 Lu0 2.427804 1_555
H3 Ru0 1.691327 1_556
H3 Lu0 2.427803 1_556
H3 Lu0 2.427803 1_555
H3 Na0 2.427804 1_455
H3 Na0 2.427804 1_545
H4 Ru0 1.691326 1_656
H4 Na0 2.427804 1_545
H4 Na0 2.427804 1_555
H4 Lu0 2.427804 1_655
H4 Lu0 2.427804 1_556
H5 Ru0 1.691326 1_566
H5 Lu0 2.427804 1_565
H5 Lu0 2.427804 1_556
H5 Na0 2.427804 1_455
H5 Na0 2.427804 1_555
