# generated using pymatgen
data_Y4ScZn2Bi
_symmetry_space_group_name_H-M   'P 1'
_cell_length_a   8.58486589
_cell_length_b   8.58486597
_cell_length_c   8.58486643
_cell_angle_alpha   124.55355562
_cell_angle_beta   124.55355234
_cell_angle_gamma   82.27881257
_symmetry_Int_Tables_number   1
_chemical_formula_structural   Y4ScZn2Bi
_chemical_formula_sum   'Y8 Sc2 Zn4 Bi2'
_cell_volume   412.47787136
_cell_formula_units_Z   2
loop_
 _symmetry_equiv_pos_site_id
 _symmetry_equiv_pos_as_xyz
  1  'x, y, z'
loop_
 _atom_site_type_symbol
 _atom_site_label
 _atom_site_symmetry_multiplicity
 _atom_site_fract_x
 _atom_site_fract_y
 _atom_site_fract_z
 _atom_site_occupancy
  Y  Y0  1  0.79613262  0.29613262  0.81058783  1
  Y  Y1  1  0.20386738  0.70386738  0.18941217  1
  Y  Y2  1  0.48554279  0.98554279  0.18941217  1
  Y  Y3  1  0.29613262  0.48554279  0.50000000  1
  Y  Y4  1  0.01445721  0.20386738  0.50000000  1
  Y  Y5  1  0.51445721  0.01445721  0.81058783  1
  Y  Y6  1  0.70386738  0.51445721  0.50000000  1
  Y  Y7  1  0.98554279  0.79613262  0.50000000  1
  Sc  Sc0  1  0.00000000  0.00000000  0.00000000  1
  Sc  Sc1  1  0.50000000  0.50000000  0.00000000  1
  Zn  Zn0  1  0.14051788  0.64051788  0.78103476  1
  Zn  Zn1  1  0.85948212  0.35948212  0.21896524  1
  Zn  Zn2  1  0.64051788  0.85948212  0.50000000  1
  Zn  Zn3  1  0.35948212  0.14051788  0.50000000  1
  Bi  Bi0  1  0.25000000  0.25000000  0.00000000  1
  Bi  Bi1  1  0.75000000  0.75000000  0.00000000  1
loop_
_geom_bond_atom_site_label_1
_geom_bond_atom_site_label_2
_geom_bond_distance
_geom_bond_site_symmetry_2
Y0 Zn1 2.938787 1_556
Y0 Zn2 2.985487 1_545
Y0 Zn3 2.985487 1_555
Y0 Y2 3.508355 1_545
Y0 Y1 3.542242 1_656
Y0 Y4 3.758204 1_655
Y0 Y6 3.758204 1_555
Y1 Zn0 2.938787 1_554
Y1 Zn3 2.985487 1_565
Y1 Zn2 2.985487 1_555
Y1 Y5 3.508355 1_565
Y1 Y7 3.758204 1_455
Y1 Y3 3.758204 1_555
Y2 Zn0 2.938763 1_554
Y2 Zn3 2.985471 1_565
Y2 Zn2 2.985471 1_555
Y2 Y5 3.542283 1_564
Y2 Y6 3.758223 1_565
Y2 Y4 3.758224 1_665
Y3 Zn3 2.938762 1_555
Y3 Zn0 2.985479 1_555
Y3 Zn1 2.985487 1_455
Y3 Y7 3.508377 1_455
Y3 Y6 3.542249 1_555
Y3 Y5 3.758223 1_565
Y4 Zn3 2.938762 1_555
Y4 Zn1 2.985479 1_455
Y4 Zn0 2.985486 1_555
Y4 Y6 3.508377 1_455
Y4 Y7 3.542249 1_445
Y5 Zn1 2.938763 1_556
Y5 Zn2 2.985471 1_545
Y5 Zn3 2.985471 1_555
Y5 Y7 3.758224 1_445
Y6 Zn2 2.938762 1_555
Y6 Zn1 2.985479 1_555
Y6 Zn0 2.985487 1_655
Y7 Zn2 2.938762 1_555
Y7 Zn0 2.985479 1_655
Y7 Zn1 2.985486 1_555
Sc0 Zn3 3.082885 1_555
Sc0 Zn2 3.082885 1_444
Sc0 Zn1 3.082887 1_455
Sc0 Zn0 3.082887 1_544
Sc0 Y2 3.526427 1_545
Sc0 Y5 3.526427 1_454
Sc0 Y3 3.526430 1_555
Sc0 Y6 3.526430 1_444
Sc0 Y4 3.526430 1_555
Sc0 Y7 3.526430 1_444
Sc0 Y0 3.526440 1_454
Sc0 Y1 3.526440 1_545
Sc1 Zn2 3.082885 1_555
Sc1 Zn3 3.082885 1_554
Sc1 Zn1 3.082887 1_555
Sc1 Zn0 3.082887 1_554
Sc1 Y2 3.526427 1_555
Sc1 Y5 3.526427 1_554
Sc1 Y7 3.526430 1_555
Sc1 Y4 3.526430 1_554
Sc1 Y6 3.526430 1_555
Sc1 Y3 3.526430 1_554
Sc1 Y0 3.526440 1_554
Sc1 Y1 3.526440 1_555
Zn0 Zn1 3.174528 1_455
Zn2 Zn3 3.174539 1_565
Bi0 Sc1 3.232679 1_555
Bi0 Sc0 3.232679 1_555
Bi0 Y1 3.333412 1_555
Bi0 Y0 3.333412 1_454
Bi0 Y7 3.333414 1_444
Bi0 Y3 3.333414 1_555
Bi0 Y6 3.333414 1_555
Bi0 Y4 3.333414 1_554
Bi0 Y5 3.333423 1_554
Bi0 Y2 3.333423 1_545
Bi1 Sc1 3.232679 1_555
Bi1 Sc0 3.232679 1_665
Bi1 Y0 3.333412 1_554
Bi1 Y1 3.333412 1_655
Bi1 Y4 3.333414 1_665
Bi1 Y6 3.333414 1_554
Bi1 Y3 3.333414 1_554
Bi1 Y7 3.333414 1_555
Bi1 Y2 3.333423 1_555
Bi1 Y5 3.333423 1_564
