# generated using pymatgen
data_Ta9(FeS3)2
_symmetry_space_group_name_H-M   'P 1'
_cell_length_a   10.38314948
_cell_length_b   10.38314183
_cell_length_c   6.57049595
_cell_angle_alpha   90.00004295
_cell_angle_beta   90.00003929
_cell_angle_gamma   119.99993274
_symmetry_Int_Tables_number   1
_chemical_formula_structural   Ta9(FeS3)2
_chemical_formula_sum   'Ta18 Fe4 S12'
_cell_volume   613.46101746
_cell_formula_units_Z   2
loop_
 _symmetry_equiv_pos_site_id
 _symmetry_equiv_pos_as_xyz
  1  'x, y, z'
loop_
 _atom_site_type_symbol
 _atom_site_label
 _atom_site_symmetry_multiplicity
 _atom_site_fract_x
 _atom_site_fract_y
 _atom_site_fract_z
 _atom_site_occupancy
  Ta  Ta0  1  0.78208590  0.52640988  0.00001981  1
  Ta  Ta1  1  0.74431553  0.21790513  0.00002256  1
  Ta  Ta2  1  0.47358570  0.25567240  0.00002053  1
  Ta  Ta3  1  0.25570100  0.47359922  0.00001139  1
  Ta  Ta4  1  0.52640560  0.78210463  0.00001135  1
  Ta  Ta5  1  0.21791156  0.74430820  0.00000511  1
  Ta  Ta6  1  0.73421623  0.19050373  0.49998160  1
  Ta  Ta7  1  0.80949009  0.54371080  0.49997453  1
  Ta  Ta8  1  0.45628320  0.26577308  0.49997543  1
  Ta  Ta9  1  0.26578989  0.45629760  0.50000321  1
  Ta  Ta10  1  0.54370033  0.80949298  0.50000226  1
  Ta  Ta11  1  0.19051503  0.73421384  0.50000080  1
  Ta  Ta12  1  0.45973497  0.00000511  0.75375065  1
  Ta  Ta13  1  0.54028302  0.54027519  0.24624080  1
  Ta  Ta14  1  -0.00000964  0.45971705  0.24624159  1
  Ta  Ta15  1  -0.00000335  0.45972724  0.75375349  1
  Ta  Ta16  1  0.54027273  0.54027183  0.75375521  1
  Ta  Ta17  1  0.45972724  0.00000941  0.24624213  1
  Fe  Fe0  1  0.66665925  0.33331987  0.28440654  1
  Fe  Fe1  1  0.66665810  0.33332144  0.71557697  1
  Fe  Fe2  1  0.33334334  0.66667832  0.71557362  1
  Fe  Fe3  1  0.33334279  0.66667764  0.28442718  1
  S  S0  1  0.70077465  0.00000630  0.76593358  1
  S  S1  1  0.29923619  0.29923506  0.23407009  1
  S  S2  1  -0.00000021  0.70076492  0.23406812  1
  S  S3  1  -0.00000727  0.70077060  0.76593242  1
  S  S4  1  0.29923095  0.29922350  0.76593201  1
  S  S5  1  0.70076249  0.00000125  0.23406900  1
  S  S6  1  -0.00001850  0.27936521  0.49999335  1
  S  S7  1  0.72063406  0.72061782  0.49999387  1
  S  S8  1  0.27937884  0.00001549  0.49999414  1
  S  S9  1  -0.00002228  0.27630336  0.00000390  1
  S  S10  1  0.72369561  0.72367725  0.00000563  1
  S  S11  1  0.27632392  0.00002165  0.00000614  1
loop_
_geom_bond_atom_site_label_1
_geom_bond_atom_site_label_2
_geom_bond_distance
_geom_bond_site_symmetry_2
Ta0 Ta2 3.026269 1_555
Ta0 Ta1 3.026280 1_555
Ta0 Ta13 3.050070 1_555
Ta0 Ta16 3.050295 1_554
Ta0 Ta14 3.127719 1_655
Ta0 Ta15 3.127864 1_654
Ta1 Ta2 3.026215 1_555
Ta1 Ta14 3.050131 1_655
Ta1 Ta15 3.050380 1_654
Ta1 Ta17 3.127639 1_555
Ta1 Ta12 3.127777 1_554
Ta3 Ta5 3.026135 1_555
Ta3 Ta4 3.026164 1_555
Ta4 Ta5 3.026064 1_555
Ta10 Ta12 3.029408 1_565
Ta10 Ta17 3.029536 1_565
Ta11 Ta15 3.029498 1_555
Ta11 Ta14 3.029594 1_555
Ta12 Ta6 3.029486 1_555
Ta12 Ta2 3.050288 1_556
Ta12 Ta5 3.050409 1_546
Ta12 Ta4 3.127682 1_546
Ta12 Ta17 3.235913 1_556
Ta13 Ta8 3.029499 1_555
Ta13 Ta9 3.029569 1_555
Ta13 Ta4 3.050390 1_555
Ta13 Ta3 3.127657 1_555
Ta13 Ta2 3.127748 1_555
Ta13 Ta16 3.235875 1_554
Ta14 Ta7 3.029436 1_455
Ta14 Ta3 3.050408 1_555
Ta14 Ta5 3.127779 1_555
Ta14 Ta15 3.235891 1_554
Ta15 Ta7 3.029589 1_455
Ta15 Ta3 3.050489 1_556
Ta15 Ta5 3.127749 1_556
Ta16 Ta9 3.029450 1_555
Ta16 Ta8 3.029651 1_555
Ta16 Ta4 3.050461 1_556
Ta16 Ta3 3.127670 1_556
Ta16 Ta2 3.127902 1_556
Ta17 Ta6 3.029417 1_555
Ta17 Ta2 3.050053 1_555
Ta17 Ta5 3.050334 1_545
Ta17 Ta4 3.127663 1_545
Fe0 Ta6 2.395294 1_555
Fe0 Ta8 2.395313 1_555
Fe0 Ta7 2.395402 1_555
Fe0 Ta1 2.558114 1_555
Fe0 Ta2 2.558148 1_555
Fe0 Ta0 2.558248 1_555
Fe0 Ta17 3.036559 1_555
Fe0 Ta14 3.036732 1_655
Fe0 Ta13 3.036762 1_555
Fe1 Ta6 2.395392 1_555
Fe1 Ta8 2.395426 1_555
Fe1 Ta7 2.395531 1_555
Fe1 Ta2 2.558418 1_556
Fe1 Ta1 2.558427 1_556
Fe1 Ta0 2.558506 1_556
Fe1 Ta12 3.036600 1_555
Fe1 Ta16 3.036796 1_555
Fe1 Ta15 3.036797 1_655
Fe2 Ta10 2.395180 1_555
Fe2 Ta11 2.395247 1_555
Fe2 Ta9 2.395341 1_555
Fe2 Ta5 2.558303 1_556
Fe2 Ta4 2.558332 1_556
Fe2 Ta3 2.558438 1_556
Fe2 Ta12 3.036702 1_565
Fe2 Ta16 3.036770 1_555
Fe2 Ta15 3.036892 1_555
Fe3 Ta10 2.395196 1_555
Fe3 Ta11 2.395251 1_555
Fe3 Ta9 2.395361 1_555
Fe3 Ta4 2.558234 1_555
Fe3 Ta5 2.558258 1_555
Fe3 Ta3 2.558326 1_555
Fe3 Ta17 3.036765 1_565
Fe3 Ta13 3.036843 1_555
Fe3 Ta14 3.036955 1_555
S0 Ta12 2.504025 1_555
S0 Ta6 2.529750 1_555
S0 Ta10 2.529779 1_545
S0 Ta1 2.581864 1_556
S0 Ta4 2.581870 1_546
S0 S5 3.075882 1_556
S0 S9 3.366660 1_656
S0 S10 3.367036 1_546
S0 S6 3.479535 1_655
S0 S7 3.479848 1_545
S1 Ta13 2.504069 1_555
S1 Ta8 2.529569 1_555
S1 Ta9 2.529735 1_555
S1 Ta2 2.581761 1_555
S1 Ta3 2.581766 1_555
S1 S4 3.075899 1_554
S1 S11 3.366708 1_555
S1 S9 3.367053 1_555
S1 S8 3.479553 1_555
S1 S6 3.479817 1_555
S2 Ta14 2.504063 1_555
S2 Ta7 2.529600 1_455
S2 Ta11 2.529774 1_555
S2 Ta0 2.581780 1_455
S2 Ta5 2.581865 1_555
S2 S3 3.075884 1_554
S2 S7 3.479569 1_455
S2 S8 3.479780 1_565
S3 Ta15 2.504087 1_555
S3 Ta7 2.529811 1_455
S3 Ta11 2.529839 1_555
S3 Ta0 2.581914 1_456
S3 Ta5 2.581974 1_556
S3 S7 3.479518 1_455
S3 S8 3.479826 1_565
S4 Ta16 2.504087 1_555
S4 Ta9 2.529777 1_555
S4 Ta8 2.529787 1_555
S4 Ta2 2.581893 1_556
S4 Ta3 2.581912 1_556
S4 S9 3.367071 1_556
S4 S8 3.479514 1_555
S4 S6 3.479865 1_555
S5 Ta17 2.504025 1_555
S5 Ta6 2.529575 1_555
S5 Ta10 2.529736 1_545
S5 Ta1 2.581708 1_555
S5 Ta4 2.581727 1_545
S5 S9 3.366732 1_655
S5 S6 3.479559 1_655
S5 S7 3.479816 1_545
S6 Ta6 2.433100 1_455
S6 Ta9 2.433495 1_555
S6 Ta14 2.507257 1_555
S6 Ta15 2.507347 1_555
S6 S9 3.285332 1_555
S6 S9 3.285471 1_556
S7 Ta7 2.433086 1_555
S7 Ta10 2.433499 1_555
S7 Ta13 2.507258 1_555
S7 Ta16 2.507350 1_555
S8 Ta8 2.433040 1_555
S8 Ta11 2.433450 1_545
S8 Ta17 2.507291 1_555
S8 Ta12 2.507385 1_555
S9 Ta1 2.409323 1_455
S9 Ta3 2.409853 1_555
S9 Ta14 2.498827 1_555
S9 Ta15 2.498939 1_554
S10 Ta0 2.409299 1_555
S10 Ta4 2.409790 1_555
S10 Ta13 2.498821 1_555
S10 Ta16 2.498936 1_554
S10 S7 3.285324 1_555
S10 S7 3.285479 1_554
S10 S3 3.366673 1_654
S10 S2 3.366734 1_655
S10 S5 3.367024 1_565
S11 Ta2 2.409236 1_555
S11 Ta5 2.409797 1_545
S11 Ta17 2.498837 1_555
S11 Ta12 2.499000 1_554
S11 S8 3.285323 1_555
S11 S8 3.285480 1_554
S11 S4 3.366656 1_554
S11 S2 3.367025 1_545
S11 S3 3.367056 1_544
