# generated using pymatgen
data_Al6Cd4SeO12
_symmetry_space_group_name_H-M   'P 1'
_cell_length_a   7.71251970
_cell_length_b   7.71251979
_cell_length_c   7.71251888
_cell_angle_alpha   109.47121825
_cell_angle_beta   109.47121848
_cell_angle_gamma   109.47122255
_symmetry_Int_Tables_number   1
_chemical_formula_structural   Al6Cd4SeO12
_chemical_formula_sum   'Al6 Cd4 Se1 O12'
_cell_volume   353.15628651
_cell_formula_units_Z   1
loop_
 _symmetry_equiv_pos_site_id
 _symmetry_equiv_pos_as_xyz
  1  'x, y, z'
loop_
 _atom_site_type_symbol
 _atom_site_label
 _atom_site_symmetry_multiplicity
 _atom_site_fract_x
 _atom_site_fract_y
 _atom_site_fract_z
 _atom_site_occupancy
  Al  Al0  1  0.25000000  0.50000000  0.75000000  1
  Al  Al1  1  0.75000000  0.50000000  0.25000000  1
  Al  Al2  1  0.25000000  0.75000000  0.50000000  1
  Al  Al3  1  0.75000000  0.25000000  0.50000000  1
  Al  Al4  1  0.50000000  0.25000000  0.75000000  1
  Al  Al5  1  0.50000000  0.75000000  0.25000000  1
  Cd  Cd0  1  1.00000000  0.34266206  1.00000000  1
  Cd  Cd1  1  0.34266206  0.00000000  1.00000000  1
  Cd  Cd2  1  0.65733794  0.65733794  0.65733794  1
  Cd  Cd3  1  0.00000000  0.00000000  0.34266206  1
  Se  Se0  1  0.00000000  0.00000000  0.00000000  1
  O  O0  1  1.00000000  0.55758609  0.27506039  1
  O  O1  1  0.44241391  0.44241391  0.71747430  1
  O  O2  1  1.00000000  0.27506039  0.55758609  1
  O  O3  1  0.27506039  0.00000000  0.55758609  1
  O  O4  1  0.72493961  0.28252570  0.72493961  1
  O  O5  1  0.28252570  0.72493961  0.72493961  1
  O  O6  1  0.72493961  0.72493961  0.28252570  1
  O  O7  1  0.55758609  0.27506039  1.00000000  1
  O  O8  1  0.27506039  0.55758609  1.00000000  1
  O  O9  1  0.44241391  0.71747430  0.44241391  1
  O  O10  1  0.55758609  0.00000000  0.27506039  1
  O  O11  1  0.71747430  0.44241391  0.44241391  1
loop_
_geom_bond_atom_site_label_1
_geom_bond_atom_site_label_2
_geom_bond_distance
_geom_bond_site_symmetry_2
Al0 O8 1.753775 1_555
Al0 O5 1.753775 1_555
Al0 O1 1.753775 1_555
Al0 O2 1.753775 1_455
Al1 O11 1.753775 1_555
Al1 O7 1.753775 1_554
Al1 O0 1.753775 1_555
Al1 O6 1.753775 1_555
Al2 O5 1.753775 1_555
Al2 O9 1.753775 1_555
Al2 O0 1.753775 1_455
Al2 O3 1.753775 1_565
Al3 O4 1.753775 1_555
Al3 O11 1.753775 1_555
Al3 O2 1.753775 1_555
Al3 O10 1.753775 1_555
Al4 O7 1.753775 1_555
Al4 O4 1.753775 1_555
Al4 O1 1.753775 1_555
Al4 O3 1.753775 1_555
Al5 O9 1.753775 1_555
Al5 O8 1.753775 1_554
Al5 O6 1.753775 1_555
Al5 O10 1.753775 1_565
Cd0 O0 2.214436 1_556
Cd0 O4 2.214436 1_555
Cd0 O8 2.214436 1_655
Cd0 Se0 2.642788 1_656
Cd1 O10 2.214436 1_556
Cd1 O5 2.214436 1_545
Cd1 O7 2.214436 1_555
Cd1 Se0 2.642788 1_556
Cd2 O1 2.214436 1_555
Cd2 O9 2.214436 1_555
Cd2 O11 2.214436 1_555
Cd2 Se0 2.642788 1_666
Cd3 O3 2.214436 1_555
Cd3 O6 2.214436 1_445
Cd3 O2 2.214436 1_455
Cd3 Se0 2.642788 1_555
