# generated using pymatgen
data_Nb3FeOs2N
_symmetry_space_group_name_H-M   'P 1'
_cell_length_a   8.25997276
_cell_length_b   8.25997178
_cell_length_c   8.25997253
_cell_angle_alpha   59.99999701
_cell_angle_beta   60.00000092
_cell_angle_gamma   59.99999670
_symmetry_Int_Tables_number   1
_chemical_formula_structural   Nb3FeOs2N
_chemical_formula_sum   'Nb12 Fe4 Os8 N4'
_cell_volume   398.49306310
_cell_formula_units_Z   4
loop_
 _symmetry_equiv_pos_site_id
 _symmetry_equiv_pos_as_xyz
  1  'x, y, z'
loop_
 _atom_site_type_symbol
 _atom_site_label
 _atom_site_symmetry_multiplicity
 _atom_site_fract_x
 _atom_site_fract_y
 _atom_site_fract_z
 _atom_site_occupancy
  Nb  Nb0  1  0.80617702  0.80617702  0.19382298  1
  Nb  Nb1  1  0.19382298  0.19382298  0.80617702  1
  Nb  Nb2  1  0.80617702  0.19382298  0.80617702  1
  Nb  Nb3  1  0.19382298  0.80617702  0.19382298  1
  Nb  Nb4  1  0.19382298  0.80617702  0.80617702  1
  Nb  Nb5  1  0.80617702  0.19382298  0.19382298  1
  Nb  Nb6  1  0.44382298  0.44382298  0.05617702  1
  Nb  Nb7  1  0.05617702  0.05617702  0.44382298  1
  Nb  Nb8  1  0.44382298  0.05617702  0.44382298  1
  Nb  Nb9  1  0.05617702  0.44382298  0.05617702  1
  Nb  Nb10  1  0.05617702  0.44382298  0.44382298  1
  Nb  Nb11  1  0.44382298  0.05617702  0.05617702  1
  Fe  Fe0  1  0.12500000  0.62500000  0.62500000  1
  Fe  Fe1  1  0.62500000  0.12500000  0.62500000  1
  Fe  Fe2  1  0.62500000  0.62500000  0.12500000  1
  Fe  Fe3  1  0.62500000  0.62500000  0.62500000  1
  Os  Os0  1  0.74907077  0.41697674  0.41697674  1
  Os  Os1  1  0.41697674  0.74907077  0.41697674  1
  Os  Os2  1  0.41697674  0.41697674  0.74907077  1
  Os  Os3  1  0.41697674  0.41697674  0.41697674  1
  Os  Os4  1  0.50092923  0.83302326  0.83302326  1
  Os  Os5  1  0.83302326  0.50092923  0.83302326  1
  Os  Os6  1  0.83302326  0.83302326  0.50092923  1
  Os  Os7  1  0.83302326  0.83302326  0.83302326  1
  N  N0  1  0.62500000  0.12500000  0.12500000  1
  N  N1  1  0.12500000  0.62500000  0.12500000  1
  N  N2  1  0.12500000  0.12500000  0.62500000  1
  N  N3  1  0.12500000  0.12500000  0.12500000  1
loop_
_geom_bond_atom_site_label_1
_geom_bond_atom_site_label_2
_geom_bond_distance
_geom_bond_site_symmetry_2
Nb0 Os6 2.776207 1_555
Nb0 Os7 2.776216 1_554
Nb0 Os0 2.945538 1_555
Nb0 Os1 2.945539 1_555
Nb1 Os4 2.776212 1_545
Nb1 Os5 2.776212 1_455
Nb1 Os3 2.945542 1_555
Nb1 Os2 2.945546 1_555
Nb2 Os5 2.776207 1_555
Nb2 Os7 2.776215 1_545
Nb2 Os0 2.945539 1_555
Nb2 Os2 2.945539 1_555
Nb3 Os4 2.776212 1_554
Nb3 Os6 2.776212 1_455
Nb3 Os3 2.945542 1_555
Nb3 Os1 2.945546 1_555
Nb4 Os4 2.776207 1_555
Nb4 Os7 2.776216 1_455
Nb4 Os2 2.945538 1_555
Nb4 Os1 2.945539 1_555
Nb5 Os6 2.776212 1_545
Nb5 Os5 2.776212 1_554
Nb5 Os3 2.945542 1_555
Nb5 Os0 2.945546 1_555
Nb6 Os2 2.776207 1_554
Nb6 Os3 2.776216 1_555
Nb6 Os4 2.945538 1_554
Nb6 Os5 2.945539 1_554
Nb7 Os0 2.776212 1_455
Nb7 Os1 2.776212 1_545
Nb7 Os7 2.945542 1_445
Nb7 Os6 2.945546 1_445
Nb8 Os1 2.776207 1_545
Nb8 Os3 2.776215 1_555
Nb8 Os4 2.945539 1_545
Nb8 Os6 2.945539 1_545
Nb9 Os0 2.776212 1_455
Nb9 Os2 2.776212 1_554
Nb9 Os7 2.945542 1_454
Nb9 Os5 2.945546 1_454
Nb10 Os0 2.776207 1_455
Nb10 Os3 2.776216 1_555
Nb10 Os6 2.945538 1_455
Nb10 Os5 2.945539 1_455
Nb11 Os2 2.776212 1_554
Nb11 Os1 2.776212 1_545
Nb11 Os7 2.945542 1_544
Nb11 Os4 2.945546 1_544
Fe0 Os7 2.527005 1_455
Fe0 Os3 2.527005 1_555
Fe0 Os2 2.527010 1_555
Fe0 Os6 2.527010 1_455
Fe0 Os1 2.527010 1_555
Fe0 Os5 2.527010 1_455
Fe0 Nb7 2.956911 1_565
Fe0 Nb1 2.956911 1_555
Fe0 Nb4 2.956911 1_555
Fe0 Nb9 2.956911 1_556
Fe0 Nb10 2.956911 1_555
Fe0 Nb3 2.956911 1_555
Fe1 Os7 2.527005 1_545
Fe1 Os3 2.527005 1_555
Fe1 Os2 2.527010 1_555
Fe1 Os6 2.527010 1_545
Fe1 Os0 2.527010 1_555
Fe1 Os4 2.527010 1_545
Fe1 Nb2 2.956911 1_555
Fe1 Nb11 2.956911 1_556
Fe1 Nb5 2.956911 1_555
Fe1 Nb8 2.956911 1_555
Fe1 Nb7 2.956911 1_655
Fe1 Nb1 2.956911 1_555
Fe2 Os7 2.527005 1_554
Fe2 Os3 2.527005 1_555
Fe2 Os0 2.527010 1_555
Fe2 Os4 2.527010 1_554
Fe2 Os1 2.527010 1_555
Fe2 Os5 2.527010 1_554
Fe2 Nb11 2.956911 1_565
Fe2 Nb5 2.956911 1_555
Fe2 Nb0 2.956911 1_555
Fe2 Nb6 2.956911 1_555
Fe2 Nb9 2.956911 1_655
Fe2 Nb3 2.956911 1_555
Fe3 Os4 2.527003 1_555
Fe3 Os0 2.527003 1_555
Fe3 Os6 2.527003 1_555
Fe3 Os2 2.527003 1_555
Fe3 Os5 2.527003 1_555
Fe3 Os1 2.527003 1_555
Fe3 Nb8 2.956911 1_565
Fe3 Nb2 2.956911 1_555
Fe3 Nb6 2.956911 1_556
Fe3 Nb0 2.956911 1_555
Fe3 Nb10 2.956911 1_655
Fe3 Nb4 2.956911 1_555
Os0 Os1 2.743087 1_555
Os0 Os3 2.743088 1_555
Os0 Os2 2.743088 1_555
Os1 Os2 2.743087 1_555
Os1 Os3 2.743087 1_555
Os2 Os3 2.743088 1_555
Os4 Os5 2.743087 1_555
Os4 Os7 2.743088 1_555
Os4 Os6 2.743088 1_555
Os5 Os6 2.743087 1_555
Os5 Os7 2.743087 1_555
Os6 Os7 2.743088 1_555
N0 Nb6 2.215970 1_555
N0 Nb0 2.215970 1_545
N0 Nb5 2.215971 1_555
N0 Nb8 2.215971 1_555
N0 Nb2 2.215971 1_554
N0 Nb11 2.215971 1_555
N1 Nb3 2.215971 1_555
N1 Nb4 2.215971 1_554
N1 Nb10 2.215971 1_555
N1 Nb9 2.215971 1_555
N1 Nb6 2.215971 1_555
N1 Nb0 2.215971 1_455
N2 Nb10 2.215970 1_555
N2 Nb4 2.215970 1_545
N2 Nb1 2.215971 1_555
N2 Nb7 2.215971 1_555
N2 Nb8 2.215971 1_555
N2 Nb2 2.215971 1_455
N3 Nb9 2.215970 1_555
N3 Nb3 2.215970 1_545
N3 Nb7 2.215971 1_555
N3 Nb1 2.215971 1_554
N3 Nb11 2.215971 1_555
N3 Nb5 2.215971 1_455
