# generated using pymatgen
data_Nb3Al2RhN
_symmetry_space_group_name_H-M   'P 1'
_cell_length_a   8.28458844
_cell_length_b   8.28458868
_cell_length_c   8.28458830
_cell_angle_alpha   59.99999357
_cell_angle_beta   59.99999260
_cell_angle_gamma   60.00000061
_symmetry_Int_Tables_number   1
_chemical_formula_structural   Nb3Al2RhN
_chemical_formula_sum   'Nb12 Al8 Rh4 N4'
_cell_volume   402.06639832
_cell_formula_units_Z   4
loop_
 _symmetry_equiv_pos_site_id
 _symmetry_equiv_pos_as_xyz
  1  'x, y, z'
loop_
 _atom_site_type_symbol
 _atom_site_label
 _atom_site_symmetry_multiplicity
 _atom_site_fract_x
 _atom_site_fract_y
 _atom_site_fract_z
 _atom_site_occupancy
  Nb  Nb0  1  0.81461459  0.81461459  0.18538541  1
  Nb  Nb1  1  0.06461459  0.43538541  0.43538541  1
  Nb  Nb2  1  0.43538541  0.06461459  0.06461459  1
  Nb  Nb3  1  0.06461459  0.06461459  0.43538541  1
  Nb  Nb4  1  0.06461459  0.43538541  0.06461459  1
  Nb  Nb5  1  0.43538541  0.06461459  0.43538541  1
  Nb  Nb6  1  0.18538541  0.81461459  0.18538541  1
  Nb  Nb7  1  0.18538541  0.81461459  0.81461459  1
  Nb  Nb8  1  0.81461459  0.18538541  0.18538541  1
  Nb  Nb9  1  0.81461459  0.18538541  0.81461459  1
  Nb  Nb10  1  0.43538541  0.43538541  0.06461459  1
  Nb  Nb11  1  0.18538541  0.18538541  0.81461459  1
  Al  Al0  1  0.41712425  0.74862524  0.41712425  1
  Al  Al1  1  0.83287575  0.83287575  0.50137476  1
  Al  Al2  1  0.50137476  0.83287575  0.83287575  1
  Al  Al3  1  0.83287575  0.83287575  0.83287575  1
  Al  Al4  1  0.74862524  0.41712425  0.41712425  1
  Al  Al5  1  0.41712425  0.41712425  0.41712425  1
  Al  Al6  1  0.41712425  0.41712425  0.74862524  1
  Al  Al7  1  0.83287575  0.50137476  0.83287575  1
  Rh  Rh0  1  0.62500000  0.12500000  0.62500000  1
  Rh  Rh1  1  0.62500000  0.62500000  0.12500000  1
  Rh  Rh2  1  0.12500000  0.62500000  0.62500000  1
  Rh  Rh3  1  0.62500000  0.62500000  0.62500000  1
  N  N0  1  0.12500000  0.62500000  0.12500000  1
  N  N1  1  0.12500000  0.12500000  0.62500000  1
  N  N2  1  0.62500000  0.12500000  0.12500000  1
  N  N3  1  0.12500000  0.12500000  0.12500000  1
loop_
_geom_bond_atom_site_label_1
_geom_bond_atom_site_label_2
_geom_bond_distance
_geom_bond_site_symmetry_2
Nb0 Rh3 3.037263 1_555
Nb0 Rh1 3.037264 1_555
Nb1 Rh3 3.037264 1_455
Nb1 Rh2 3.037264 1_555
Nb2 Rh0 3.037263 1_554
Nb2 Rh1 3.037264 1_545
Nb3 Rh0 3.037264 1_455
Nb3 Rh2 3.037264 1_545
Nb4 Rh2 3.037263 1_554
Nb4 Rh1 3.037264 1_455
Nb5 Rh3 3.037264 1_545
Nb5 Rh0 3.037264 1_555
Nb6 Rh2 3.037263 1_555
Nb6 Rh1 3.037264 1_555
Nb7 Rh3 3.037264 1_555
Nb7 Rh2 3.037264 1_555
Nb8 Rh0 3.037263 1_555
Nb8 Rh1 3.037264 1_555
Nb9 Rh3 3.037264 1_555
Nb9 Rh0 3.037264 1_555
Nb10 Rh3 3.037263 1_554
Nb10 Rh1 3.037264 1_555
Nb11 Rh0 3.037264 1_555
Nb11 Rh2 3.037264 1_555
Al0 Rh2 2.533537 1_555
Al0 Rh1 2.533538 1_555
Al0 Rh3 2.533551 1_555
Al0 Al6 2.746349 1_555
Al0 Al4 2.746349 1_555
Al0 Al5 2.746349 1_555
Al0 Nb2 2.777371 1_565
Al0 Nb3 2.777372 1_565
Al0 Nb5 2.777381 1_565
Al0 Nb6 3.042584 1_555
Al0 Nb0 3.042598 1_555
Al0 Nb7 3.042598 1_555
Al1 Rh2 2.533538 1_655
Al1 Rh0 2.533538 1_565
Al1 Rh3 2.533551 1_555
Al1 Al2 2.746349 1_555
Al1 Al7 2.746349 1_555
Al1 Al3 2.746349 1_555
Al1 Nb6 2.777371 1_655
Al1 Nb8 2.777371 1_565
Al1 Nb0 2.777381 1_555
Al1 Nb3 3.042584 1_665
Al1 Nb5 3.042598 1_565
Al1 Nb1 3.042598 1_655
Al2 Rh0 2.533537 1_565
Al2 Rh1 2.533538 1_556
Al2 Rh3 2.533551 1_555
Al2 Al3 2.746349 1_555
Al2 Al7 2.746349 1_555
Al2 Nb6 2.777371 1_556
Al2 Nb11 2.777372 1_565
Al2 Nb7 2.777381 1_555
Al2 Nb2 3.042584 1_566
Al2 Nb5 3.042598 1_565
Al2 Nb10 3.042598 1_556
Al3 Rh1 2.533546 1_556
Al3 Rh2 2.533547 1_655
Al3 Rh0 2.533547 1_565
Al3 Al7 2.746349 1_555
Al3 Nb0 2.777364 1_556
Al3 Nb7 2.777364 1_655
Al3 Nb9 2.777364 1_565
Al3 Nb3 3.042591 1_665
Al3 Nb2 3.042591 1_566
Al3 Nb4 3.042592 1_656
Al4 Rh0 2.533537 1_555
Al4 Rh1 2.533538 1_555
Al4 Rh3 2.533551 1_555
Al4 Al6 2.746349 1_555
Al4 Al5 2.746349 1_555
Al4 Nb4 2.777371 1_655
Al4 Nb3 2.777372 1_655
Al4 Nb1 2.777381 1_655
Al4 Nb8 3.042584 1_555
Al4 Nb9 3.042598 1_555
Al4 Nb0 3.042598 1_555
Al5 Rh1 2.533546 1_555
Al5 Rh2 2.533547 1_555
Al5 Rh0 2.533547 1_555
Al5 Al6 2.746349 1_555
Al5 Nb10 2.777364 1_555
Al5 Nb1 2.777364 1_555
Al5 Nb5 2.777364 1_555
Al5 Nb11 3.042591 1_555
Al5 Nb8 3.042591 1_555
Al5 Nb6 3.042592 1_555
Al6 Rh2 2.533538 1_555
Al6 Rh0 2.533538 1_555
Al6 Rh3 2.533551 1_555
Al6 Nb4 2.777371 1_556
Al6 Nb2 2.777371 1_556
Al6 Nb10 2.777381 1_556
Al6 Nb11 3.042584 1_555
Al6 Nb9 3.042598 1_555
Al6 Nb7 3.042598 1_555
Al7 Rh2 2.533537 1_655
Al7 Rh1 2.533538 1_556
Al7 Rh3 2.533551 1_555
Al7 Nb8 2.777371 1_556
Al7 Nb11 2.777372 1_655
Al7 Nb9 2.777381 1_555
Al7 Nb4 3.042584 1_656
Al7 Nb10 3.042598 1_556
Al7 Nb1 3.042598 1_655
N0 Nb1 2.188649 1_555
N0 Nb7 2.188649 1_554
N0 Nb10 2.188650 1_555
N0 Nb0 2.188650 1_455
N0 Nb6 2.188650 1_555
N0 Nb4 2.188650 1_555
N1 Nb5 2.188649 1_555
N1 Nb9 2.188649 1_455
N1 Nb1 2.188649 1_555
N1 Nb7 2.188649 1_545
N1 Nb11 2.188650 1_555
N1 Nb3 2.188650 1_555
N2 Nb5 2.188649 1_555
N2 Nb9 2.188649 1_554
N2 Nb10 2.188650 1_555
N2 Nb0 2.188650 1_545
N2 Nb8 2.188650 1_555
N2 Nb2 2.188650 1_555
N3 Nb3 2.188649 1_555
N3 Nb11 2.188649 1_554
N3 Nb2 2.188650 1_555
N3 Nb8 2.188650 1_455
N3 Nb4 2.188650 1_555
N3 Nb6 2.188650 1_545
