# generated using pymatgen
data_Hf6Zn21SiPt2
_symmetry_space_group_name_H-M   'P 1'
_cell_length_a   8.65194263
_cell_length_b   8.65135990
_cell_length_c   8.65136043
_cell_angle_alpha   59.62592295
_cell_angle_beta   60.00920271
_cell_angle_gamma   60.00920483
_symmetry_Int_Tables_number   1
_chemical_formula_structural   Hf6Zn21SiPt2
_chemical_formula_sum   'Hf6 Zn21 Si1 Pt2'
_cell_volume   456.65123358
_cell_formula_units_Z   1
loop_
 _symmetry_equiv_pos_site_id
 _symmetry_equiv_pos_as_xyz
  1  'x, y, z'
loop_
 _atom_site_type_symbol
 _atom_site_label
 _atom_site_symmetry_multiplicity
 _atom_site_fract_x
 _atom_site_fract_y
 _atom_site_fract_z
 _atom_site_occupancy
  Hf  Hf0  1  0.72291748  0.28671201  0.28671201  1
  Hf  Hf1  1  0.29311293  0.70684788  0.70684788  1
  Hf  Hf2  1  0.28408440  0.72043249  0.29039402  1
  Hf  Hf3  1  0.70992968  0.29720661  0.70331938  1
  Hf  Hf4  1  0.28408440  0.29039402  0.72043249  1
  Hf  Hf5  1  0.70992968  0.70331938  0.29720661  1
  Zn  Zn0  1  0.87464154  0.87560456  0.87560456  1
  Zn  Zn1  1  0.12583928  0.12481399  0.62618924  1
  Zn  Zn2  1  0.12583928  0.62618924  0.12481399  1
  Zn  Zn3  1  0.87735600  0.87847600  0.36710662  1
  Zn  Zn4  1  0.87735600  0.36710662  0.87847600  1
  Zn  Zn5  1  0.62954036  0.12458502  0.12458502  1
  Zn  Zn6  1  0.36250691  0.88029198  0.88029198  1
  Zn  Zn7  1  0.50530323  0.99948463  0.99948463  1
  Zn  Zn8  1  0.99947553  0.50350797  0.99915788  1
  Zn  Zn9  1  0.50010065  0.00071738  0.50064882  1
  Zn  Zn10  1  0.99947553  0.99915788  0.50350797  1
  Zn  Zn11  1  0.50010065  0.50064882  0.00071738  1
  Zn  Zn12  1  0.34499595  0.33949386  0.33949386  1
  Zn  Zn13  1  0.66203593  0.66878635  0.66878635  1
  Zn  Zn14  1  0.33390890  0.33164267  0.00034019  1
  Zn  Zn15  1  0.33390890  0.00034019  0.33164267  1
  Zn  Zn16  1  0.66351637  0.66504818  0.00833998  1
  Zn  Zn17  1  0.66351637  0.00833998  0.66504818  1
  Zn  Zn18  1  0.00407196  0.32936458  0.32936458  1
  Zn  Zn19  1  0.00604129  0.66640077  0.66640077  1
  Zn  Zn20  1  0.99252381  0.99382708  0.99382708  1
  Si  Si0  1  0.49752671  0.49687988  0.49687988  1
  Pt  Pt0  1  0.11601205  0.11414371  0.11414371  1
  Pt  Pt1  1  0.00034421  0.50023628  0.50023628  1
loop_
_geom_bond_atom_site_label_1
_geom_bond_atom_site_label_2
_geom_bond_distance
_geom_bond_site_symmetry_2
Hf0 Si0 2.582372 1_555
Hf0 Zn18 2.849906 1_655
Hf0 Pt0 2.850712 1_655
Hf0 Zn12 2.886843 1_555
Hf0 Zn16 2.891607 1_555
Hf0 Zn17 2.891607 1_555
Hf0 Zn3 2.910296 1_545
Hf0 Zn4 2.910297 1_554
Hf0 Zn5 2.973654 1_555
Hf0 Zn8 3.041217 1_554
Hf0 Zn10 3.041217 1_545
Hf0 Zn9 3.135958 1_555
Hf0 Zn11 3.135958 1_555
Hf1 Si0 2.576963 1_555
Hf1 Zn19 2.876693 1_555
Hf1 Zn13 2.900558 1_555
Hf1 Zn14 2.919569 1_556
Hf1 Zn15 2.919569 1_565
Hf1 Zn1 2.980414 1_565
Hf1 Zn2 2.980414 1_556
Hf1 Zn6 2.990308 1_555
Hf1 Zn0 2.993044 1_455
Hf1 Zn8 3.080640 1_455
Hf1 Zn10 3.080640 1_455
Hf1 Zn9 3.102334 1_565
Hf1 Zn11 3.102334 1_556
Hf2 Si0 2.564256 1_555
Hf2 Pt0 2.837968 1_565
Hf2 Zn15 2.872027 1_565
Hf2 Zn19 2.889726 1_555
Hf2 Zn12 2.896747 1_555
Hf2 Zn3 2.909634 1_455
Hf2 Zn6 2.920657 1_554
Hf2 Zn16 2.926152 1_555
Hf2 Zn2 2.974753 1_555
Hf2 Zn10 3.049367 1_455
Hf2 Zn7 3.079751 1_554
Hf2 Pt1 3.110265 1_555
Hf2 Zn11 3.157960 1_555
Hf3 Si0 2.557043 1_555
Hf3 Zn13 2.901013 1_555
Hf3 Zn17 2.913640 1_555
Hf3 Zn18 2.930381 1_655
Hf3 Zn14 2.953564 1_556
Hf3 Zn4 2.959260 1_555
Hf3 Zn1 2.976396 1_655
Hf3 Zn0 2.997565 1_545
Hf3 Zn5 2.999438 1_556
Hf3 Pt1 3.059977 1_655
Hf3 Zn10 3.103759 1_545
Hf3 Zn7 3.111823 1_545
Hf3 Zn11 3.119124 1_556
Hf4 Si0 2.564256 1_555
Hf4 Pt0 2.837968 1_556
Hf4 Zn14 2.872027 1_556
Hf4 Zn19 2.889726 1_555
Hf4 Zn12 2.896747 1_555
Hf4 Zn4 2.909634 1_455
Hf4 Zn6 2.920657 1_545
Hf4 Zn17 2.926152 1_555
Hf4 Zn1 2.974753 1_555
Hf4 Zn8 3.049367 1_455
Hf4 Zn7 3.079752 1_545
Hf4 Pt1 3.110266 1_555
Hf4 Zn9 3.157960 1_555
Hf5 Si0 2.557043 1_555
Hf5 Zn13 2.901013 1_555
Hf5 Zn16 2.913640 1_555
Hf5 Zn18 2.930381 1_655
Hf5 Zn15 2.953564 1_565
Hf5 Zn3 2.959260 1_555
Hf5 Zn2 2.976396 1_655
Hf5 Zn0 2.997565 1_554
Hf5 Zn5 2.999438 1_565
Hf5 Pt1 3.059977 1_655
Hf5 Zn8 3.103759 1_554
Hf5 Zn7 3.111824 1_554
Hf5 Zn9 3.119124 1_565
Zn0 Zn20 2.505198 1_555
Zn0 Zn7 2.611983 1_555
Zn0 Zn8 2.621150 1_555
Zn0 Zn10 2.621150 1_555
Zn0 Zn19 2.653780 1_655
Zn0 Zn16 2.662248 1_556
Zn0 Zn17 2.662248 1_565
Zn0 Zn1 3.052744 1_665
Zn0 Zn2 3.052744 1_656
Zn0 Zn5 3.055426 1_566
Zn1 Zn20 2.593226 1_445
Zn1 Zn9 2.646751 1_555
Zn1 Zn10 2.649266 1_445
Zn1 Zn18 2.661018 1_555
Zn1 Zn15 2.672981 1_555
Zn1 Zn12 2.712392 1_555
Zn1 Zn6 2.994549 1_545
Zn1 Zn4 3.034827 1_455
Zn2 Zn20 2.593226 1_454
Zn2 Zn8 2.649266 1_454
Zn2 Zn6 2.994549 1_554
Zn2 Zn3 3.034827 1_455
Zn3 Zn9 2.668640 1_565
Zn3 Zn5 2.991394 1_565
Zn4 Zn8 2.682199 1_555
Zn4 Zn5 2.991394 1_556
Zn5 Zn7 2.647395 1_544
Zn5 Zn9 2.649335 1_555
Zn6 Zn9 2.675941 1_565
Zn6 Zn7 2.697337 1_555
Zn10 Zn19 2.467896 1_655
Zn10 Zn18 2.476592 1_665
Zn10 Zn17 2.495729 1_565
Zn10 Zn15 2.509257 1_665
Zn10 Zn3 2.682199 1_555
Zn11 Zn13 2.473089 1_554
Zn11 Zn12 2.478057 1_555
Zn11 Zn16 2.494924 1_555
Zn11 Zn14 2.513295 1_555
Zn11 Zn2 2.646751 1_555
Zn11 Zn5 2.649335 1_555
Zn11 Zn4 2.668640 1_554
Zn11 Zn6 2.675941 1_554
Zn12 Zn9 2.478056 1_555
Zn12 Zn5 2.705245 1_555
Zn12 Zn2 2.712392 1_555
Zn12 Zn15 3.018681 1_555
Zn12 Zn14 3.018681 1_555
Zn12 Zn18 3.039805 1_555
Zn13 Zn9 2.473089 1_565
Zn13 Zn3 2.702399 1_555
Zn13 Zn4 2.702399 1_555
Zn13 Zn6 2.705001 1_555
Zn13 Zn17 2.927770 1_565
Zn13 Zn16 2.927770 1_556
Zn13 Zn19 2.955827 1_655
Zn14 Zn7 2.491418 1_544
Zn14 Zn8 2.509257 1_454
Zn14 Zn5 2.669702 1_555
Zn14 Zn2 2.672981 1_555
Zn14 Zn15 2.849996 1_555
Zn14 Zn18 2.850502 1_555
Zn15 Zn7 2.491418 1_544
Zn15 Zn9 2.513295 1_555
Zn15 Zn5 2.669702 1_555
Zn15 Zn18 2.850502 1_555
Zn16 Zn7 2.484396 1_554
Zn16 Zn8 2.495729 1_554
Zn16 Zn4 2.722547 1_554
Zn16 Zn6 2.725264 1_554
Zn16 Zn17 2.953133 1_564
Zn16 Zn19 2.961254 1_654
Zn17 Zn7 2.484396 1_545
Zn17 Zn9 2.494924 1_555
Zn17 Zn3 2.722547 1_545
Zn17 Zn6 2.725264 1_545
Zn17 Zn19 2.961254 1_645
Zn18 Zn8 2.476592 1_454
Zn18 Zn2 2.661017 1_555
Zn19 Zn8 2.467896 1_455
Zn19 Zn4 2.710337 1_455
Zn19 Zn3 2.710337 1_455
Zn20 Zn5 2.571575 1_566
Zn20 Zn6 2.620201 1_655
Zn20 Zn4 2.633567 1_565
Zn20 Zn3 2.633567 1_556
Pt0 Zn20 2.574447 1_444
Pt0 Zn8 2.751674 1_454
Pt0 Zn10 2.751674 1_445
Pt0 Zn7 2.761720 1_544
Pt0 Zn18 2.787855 1_555
Pt0 Zn14 2.807377 1_555
Pt0 Zn15 2.807378 1_555
Pt0 Zn6 2.871716 1_544
Pt0 Zn3 2.896321 1_445
Pt0 Zn4 2.896321 1_454
Pt1 Zn19 2.523306 1_555
Pt1 Zn12 2.534566 1_555
Pt1 Zn13 2.537021 1_455
Pt1 Zn18 2.546811 1_555
Pt1 Zn1 2.644507 1_555
Pt1 Zn2 2.644507 1_555
Pt1 Zn3 2.664484 1_455
Pt1 Zn4 2.664484 1_455
