# generated using pymatgen
data_LuSc9GaPb5
_symmetry_space_group_name_H-M   'P 1'
_cell_length_a   6.20277583
_cell_length_b   8.45512470
_cell_length_c   8.45070124
_cell_angle_alpha   119.80266258
_cell_angle_beta   90.00199431
_cell_angle_gamma   89.99647084
_symmetry_Int_Tables_number   1
_chemical_formula_structural   LuSc9GaPb5
_chemical_formula_sum   'Lu1 Sc9 Ga1 Pb5'
_cell_volume   384.58261539
_cell_formula_units_Z   1
loop_
 _symmetry_equiv_pos_site_id
 _symmetry_equiv_pos_as_xyz
  1  'x, y, z'
loop_
 _atom_site_type_symbol
 _atom_site_label
 _atom_site_symmetry_multiplicity
 _atom_site_fract_x
 _atom_site_fract_y
 _atom_site_fract_z
 _atom_site_occupancy
  Lu  Lu0  1  0.74999637  0.98527776  0.22406686  1
  Sc  Sc0  1  0.75001228  0.24345720  0.99996654  1
  Sc  Sc1  1  0.74998558  0.75657246  0.77135960  1
  Sc  Sc2  1  0.25004486  0.76371241  0.99952713  1
  Sc  Sc3  1  0.25000511  0.23623170  0.23583272  1
  Sc  Sc4  1  0.25001711  0.00027647  0.76723229  1
  Sc  Sc5  1  0.50497294  0.34318353  0.67825122  1
  Sc  Sc6  1  0.50467039  0.66572365  0.32181438  1
  Sc  Sc7  1  0.99529523  0.66561207  0.32158044  1
  Sc  Sc8  1  0.99499568  0.34332258  0.67847950  1
  Ga  Ga0  1  0.74983977  0.59762438  0.99706033  1
  Pb  Pb0  1  0.75005671  0.39494451  0.39422758  1
  Pb  Pb1  1  0.75007807  0.99771045  0.61002224  1
  Pb  Pb2  1  0.25014749  0.39507429  0.99992862  1
  Pb  Pb3  1  0.24993870  0.60683201  0.60233267  1
  Pb  Pb4  1  0.24994471  0.00444353  0.39831690  1
loop_
_geom_bond_atom_site_label_1
_geom_bond_atom_site_label_2
_geom_bond_distance
_geom_bond_site_symmetry_2
Lu0 Pb0 3.019019 1_565
Lu0 Pb1 3.210644 1_555
Lu0 Sc1 3.319874 1_554
Lu0 Pb4 3.402027 1_665
Lu0 Pb4 3.402686 1_565
Lu0 Sc0 3.530028 1_564
Lu0 Sc7 3.537332 1_555
Lu0 Sc6 3.537954 1_555
Lu0 Sc2 3.632299 1_554
Lu0 Sc2 3.632729 1_654
Lu0 Sc3 3.730937 1_565
Lu0 Sc3 3.731238 1_665
Sc0 Sc8 3.561428 1_555
Sc0 Sc5 3.562426 1_555
Sc0 Sc1 3.574033 1_545
Sc0 Sc7 3.577598 1_556
Sc0 Sc6 3.578754 1_556
Sc0 Sc4 3.700606 1_655
Sc0 Sc4 3.700653 1_555
Sc0 Sc3 3.703463 1_656
Sc0 Sc3 3.703660 1_556
Sc1 Sc8 3.522439 1_555
Sc1 Sc5 3.523123 1_555
Sc1 Sc2 3.636278 1_555
Sc1 Sc2 3.636797 1_655
Sc1 Sc4 3.732976 1_565
Sc1 Sc4 3.733514 1_665
Sc2 Sc4 3.428893 1_565
Sc2 Sc3 3.466831 1_566
Sc2 Sc7 3.582771 1_456
Sc2 Sc6 3.583458 1_556
Sc2 Sc8 3.593347 1_455
Sc2 Sc5 3.594137 1_555
Sc3 Sc4 3.436367 1_554
Sc5 Sc8 3.039502 1_555
Sc5 Sc8 3.163275 1_455
Sc6 Sc7 3.043236 1_555
Sc6 Sc7 3.159540 1_455
Ga0 Sc1 2.827021 1_555
Ga0 Lu0 2.858840 1_556
Ga0 Sc8 2.903339 1_555
Ga0 Sc5 2.903849 1_555
Ga0 Sc7 2.932936 1_556
Ga0 Sc6 2.933481 1_556
Ga0 Sc0 3.006810 1_555
Ga0 Sc2 3.399054 1_555
Ga0 Sc2 3.401531 1_655
Pb0 Sc0 2.915360 1_554
Pb0 Sc5 3.050901 1_555
Pb0 Sc8 3.051371 1_555
Pb0 Sc6 3.053692 1_555
Pb0 Sc7 3.053729 1_555
Pb0 Sc1 3.133629 1_555
Pb0 Sc3 3.379849 1_655
Pb0 Sc3 3.380503 1_555
Pb0 Pb3 3.575601 1_655
Pb0 Pb3 3.576785 1_555
Pb1 Sc0 2.893129 1_565
Pb1 Sc1 2.962940 1_555
Pb1 Sc6 3.054957 1_555
Pb1 Sc7 3.055447 1_555
Pb1 Sc5 3.082461 1_565
Pb1 Sc8 3.082503 1_565
Pb1 Sc4 3.369393 1_665
Pb1 Sc4 3.370172 1_565
Pb1 Pb4 3.594315 1_665
Pb1 Pb4 3.595628 1_565
Pb2 Sc3 2.905069 1_556
Pb2 Sc4 2.912844 1_555
Pb2 Sc8 2.982231 1_455
Pb2 Sc5 2.982486 1_555
Pb2 Sc7 2.989831 1_456
Pb2 Sc6 2.990142 1_556
Pb2 Sc2 3.118569 1_555
Pb2 Sc0 3.355100 1_555
Pb2 Sc0 3.356796 1_455
Pb3 Sc4 2.898324 1_565
Pb3 Sc2 2.932629 1_555
Pb3 Sc8 3.050316 1_455
Pb3 Sc5 3.050319 1_555
Pb3 Sc6 3.088335 1_555
Pb3 Sc7 3.089104 1_455
Pb3 Sc3 3.124772 1_555
Pb3 Sc1 3.385592 1_455
Pb3 Sc1 3.386176 1_555
Pb4 Sc3 2.898476 1_555
Pb4 Sc2 2.946468 1_544
Pb4 Sc6 3.045564 1_545
Pb4 Sc7 3.045762 1_445
Pb4 Sc5 3.093051 1_555
Pb4 Sc8 3.093934 1_455
Pb4 Sc4 3.135254 1_555
