# generated using pymatgen
data_Ca10GeBi4As
_symmetry_space_group_name_H-M   'P 1'
_cell_length_a   8.20758543
_cell_length_b   9.47629091
_cell_length_c   12.81422833
_cell_angle_alpha   90.00000000
_cell_angle_beta   88.58297875
_cell_angle_gamma   90.00000000
_symmetry_Int_Tables_number   1
_chemical_formula_structural   Ca10GeBi4As
_chemical_formula_sum   'Ca20 Ge2 Bi8 As2'
_cell_volume   996.35343409
_cell_formula_units_Z   2
loop_
 _symmetry_equiv_pos_site_id
 _symmetry_equiv_pos_as_xyz
  1  'x, y, z'
loop_
 _atom_site_type_symbol
 _atom_site_label
 _atom_site_symmetry_multiplicity
 _atom_site_fract_x
 _atom_site_fract_y
 _atom_site_fract_z
 _atom_site_occupancy
  Ca  Ca0  1  0.04574320  0.75000000  0.50397685  1
  Ca  Ca1  1  0.95425680  0.25000000  0.49602315  1
  Ca  Ca2  1  0.55734290  0.25000000  0.00138285  1
  Ca  Ca3  1  0.44265710  0.75000000  0.99861715  1
  Ca  Ca4  1  0.85746341  0.75000000  0.79711154  1
  Ca  Ca5  1  0.14253659  0.25000000  0.20288846  1
  Ca  Ca6  1  0.36090827  0.25000000  0.69455730  1
  Ca  Ca7  1  0.63909173  0.75000000  0.30544270  1
  Ca  Ca8  1  0.68248348  0.53704009  0.57312177  1
  Ca  Ca9  1  0.31751652  0.46295991  0.42687823  1
  Ca  Ca10  1  0.17285805  0.47095513  0.92292477  1
  Ca  Ca11  1  0.31751652  0.03704009  0.42687823  1
  Ca  Ca12  1  0.82714195  0.52904487  0.07707523  1
  Ca  Ca13  1  0.68248348  0.96295991  0.57312177  1
  Ca  Ca14  1  0.82714195  0.97095513  0.07707523  1
  Ca  Ca15  1  0.17285805  0.02904487  0.92292477  1
  Ca  Ca16  1  0.32650775  0.75000000  0.71568787  1
  Ca  Ca17  1  0.67349225  0.25000000  0.28431213  1
  Ca  Ca18  1  0.83583670  0.25000000  0.78742711  1
  Ca  Ca19  1  0.16416330  0.75000000  0.21257289  1
  Ge  Ge0  1  0.05669455  0.75000000  0.98881836  1
  Ge  Ge1  1  0.94330545  0.25000000  0.01118164  1
  Bi  Bi0  1  0.55482506  0.50546833  0.82747188  1
  Bi  Bi1  1  0.44517494  0.49453167  0.17252812  1
  Bi  Bi2  1  0.06574550  0.48683823  0.66741071  1
  Bi  Bi3  1  0.44517494  0.00546833  0.17252812  1
  Bi  Bi4  1  0.93425450  0.51316177  0.33258929  1
  Bi  Bi5  1  0.55482506  0.99453167  0.82747188  1
  Bi  Bi6  1  0.93425450  0.98683823  0.33258929  1
  Bi  Bi7  1  0.06574550  0.01316177  0.66741071  1
  As  As0  1  0.57246552  0.25000000  0.51028247  1
  As  As1  1  0.42753448  0.75000000  0.48971753  1
loop_
_geom_bond_atom_site_label_1
_geom_bond_atom_site_label_2
_geom_bond_distance
_geom_bond_site_symmetry_2
Ca0 Ca16 3.602686 1_555
Ca0 Ca11 3.638883 1_565
Ca0 Ca9 3.638883 1_555
Ca0 Ca13 3.690023 1_455
Ca0 Ca8 3.690023 1_455
Ca0 Ca19 3.835205 1_555
Ca0 Ca4 4.026249 1_455
Ca1 Ca17 3.602686 1_555
Ca1 Ca8 3.638883 1_555
Ca1 Ca13 3.638883 1_545
Ca1 Ca9 3.690023 1_655
Ca1 Ca11 3.690023 1_655
Ca1 Ca18 3.835205 1_555
Ca1 Ca5 4.026249 1_655
Ca2 Ge1 3.173409 1_555
Ca3 Ge0 3.173409 1_555
Ca4 Ge0 2.984516 1_655
Ca4 Ca8 3.818038 1_555
Ca5 Ge1 2.984516 1_455
Ca5 Ca9 3.818038 1_555
Ca6 Ca9 4.003180 1_555
Ca7 Ca8 4.003180 1_555
Ca8 Ca9 3.640786 1_555
Ca10 Ge0 2.928232 1_555
Ca10 Ge1 3.017867 1_456
Ca10 Ca12 3.461080 1_456
Ca10 Ca3 3.597631 1_555
Ca10 Ca6 3.886708 1_555
Ca10 Ca18 3.909974 1_455
Ca10 Ca16 3.933092 1_555
Ca10 Ca2 3.938305 1_556
Ca11 Ca13 3.640786 1_545
Ca11 Ca5 3.818038 1_555
Ca11 Ca17 3.960104 1_555
Ca11 Ca6 4.003180 1_555
Ca11 Ca9 4.036140 1_555
Ca11 Ca19 4.085997 1_545
Ca12 Ge1 2.928232 1_555
Ca12 Ge0 3.017867 1_654
Ca12 Ca2 3.597631 1_555
Ca12 Ca7 3.886708 1_555
Ca12 Ca19 3.909974 1_655
Ca12 Ca17 3.933092 1_555
Ca12 Ca3 3.938305 1_554
Ca13 Ca4 3.818038 1_555
Ca13 Ca16 3.960104 1_555
Ca13 Ca7 4.003180 1_555
Ca13 Ca8 4.036140 1_555
Ca13 Ca18 4.085997 1_565
Ca14 Ge1 2.928232 1_565
Ca14 Ge0 3.017867 1_654
Ca14 Ca15 3.461080 1_664
Ca14 Ca2 3.597631 1_565
Ca14 Ca7 3.886708 1_555
Ca14 Ca19 3.909974 1_655
Ca14 Ca17 3.933092 1_565
Ca14 Ca3 3.938305 1_554
Ca15 Ge0 2.928232 1_545
Ca15 Ge1 3.017867 1_456
Ca15 Ca3 3.597631 1_545
Ca15 Ca6 3.886708 1_555
Ca15 Ca18 3.909974 1_455
Ca15 Ca16 3.933092 1_545
Ca15 Ca2 3.938305 1_556
Ca16 Ca3 3.771489 1_555
Ca16 Ca8 3.960104 1_555
Ca16 Ca4 3.963627 1_455
Ca17 Ca2 3.771489 1_555
Ca17 Ca9 3.960104 1_555
Ca17 Ca5 3.963627 1_655
Ca18 Ge1 3.020627 1_556
Ca18 Ca2 3.525841 1_556
Ca18 Ca8 4.085997 1_555
Ca19 Ge0 3.020627 1_554
Ca19 Ca3 3.525841 1_554
Ca19 Ca9 4.085997 1_555
Bi0 Ca2 3.290865 1_556
Bi0 Ca3 3.305605 1_555
Bi0 Ca16 3.326544 1_555
Bi0 Ca10 3.352881 1_555
Bi0 Ca18 3.374182 1_555
Bi0 Ca6 3.380655 1_555
Bi0 Ca8 3.411959 1_555
Bi0 Ca4 3.412204 1_555
Bi0 Ca12 3.953383 1_556
Bi1 Ca3 3.290865 1_554
Bi1 Ca2 3.305605 1_555
Bi1 Ca17 3.326544 1_555
Bi1 Ca12 3.352881 1_555
Bi1 Ca19 3.374182 1_555
Bi1 Ca7 3.380655 1_555
Bi1 Ca9 3.411959 1_555
Bi1 Ca5 3.412204 1_555
Bi1 Ca10 3.953383 1_554
Bi2 Ca0 3.263278 1_555
Bi2 Ca1 3.285895 1_455
Bi2 Ca18 3.289303 1_455
Bi2 Ca6 3.326958 1_555
Bi2 Ca16 3.353773 1_555
Bi2 Ca10 3.414438 1_555
Bi2 Ca4 3.429748 1_455
Bi2 Ca8 3.430640 1_455
Bi2 Ca9 3.675122 1_555
Bi3 Ca3 3.290865 1_544
Bi3 Ca2 3.305605 1_555
Bi3 Ca17 3.326544 1_555
Bi3 Ca14 3.352881 1_545
Bi3 Ca19 3.374182 1_545
Bi3 Ca7 3.380655 1_545
Bi3 Ca11 3.411959 1_555
Bi3 Ca5 3.412204 1_555
Bi3 Ca15 3.953383 1_554
Bi4 Ca1 3.263278 1_555
Bi4 Ca0 3.285895 1_655
Bi4 Ca19 3.289303 1_655
Bi4 Ca7 3.326958 1_555
Bi4 Ca17 3.353773 1_555
Bi4 Ca12 3.414438 1_555
Bi4 Ca5 3.429748 1_655
Bi4 Ca9 3.430640 1_655
Bi4 Ca8 3.675122 1_555
Bi5 Ca2 3.290865 1_566
Bi5 Ca3 3.305605 1_555
Bi5 Ca16 3.326544 1_555
Bi5 Ca15 3.352881 1_565
Bi5 Ca18 3.374182 1_565
Bi5 Ca6 3.380655 1_565
Bi5 Ca13 3.411959 1_555
Bi5 Ca4 3.412204 1_555
Bi5 Ca14 3.953383 1_556
Bi6 Ca1 3.263278 1_565
Bi6 Ca0 3.285895 1_655
Bi6 Ca19 3.289303 1_655
Bi6 Ca7 3.326958 1_555
Bi6 Ca17 3.353773 1_565
Bi6 Ca14 3.414438 1_555
Bi6 Ca5 3.429748 1_665
Bi6 Ca11 3.430640 1_665
Bi6 Ca13 3.675122 1_555
Bi7 Ca0 3.263278 1_545
Bi7 Ca1 3.285895 1_455
Bi7 Ca18 3.289303 1_455
Bi7 Ca6 3.326958 1_555
Bi7 Ca16 3.353773 1_545
Bi7 Ca15 3.414438 1_555
Bi7 Ca4 3.429748 1_445
Bi7 Ca13 3.430640 1_445
Bi7 Ca11 3.675122 1_555
As0 Ca6 2.896227 1_555
As0 Ca8 2.983045 1_555
As0 Ca13 2.983045 1_545
As0 Ca17 2.992240 1_555
As0 Ca9 3.115138 1_555
As0 Ca11 3.115138 1_555
As0 Ca1 3.134393 1_555
As1 Ca7 2.896227 1_555
As1 Ca11 2.983045 1_565
As1 Ca9 2.983045 1_555
As1 Ca16 2.992240 1_555
As1 Ca13 3.115138 1_555
As1 Ca8 3.115138 1_555
As1 Ca0 3.134393 1_555
