# generated using pymatgen
data_Sr2GaSiI
_symmetry_space_group_name_H-M   'P 1'
_cell_length_a   8.56651271
_cell_length_b   8.56651367
_cell_length_c   37.53081532
_cell_angle_alpha   90.00000000
_cell_angle_beta   90.00000000
_cell_angle_gamma   120.00001143
_symmetry_Int_Tables_number   1
_chemical_formula_structural   Sr2GaSiI
_chemical_formula_sum   'Sr32 Ga16 Si16 I16'
_cell_volume   2385.21074340
_cell_formula_units_Z   16
loop_
 _symmetry_equiv_pos_site_id
 _symmetry_equiv_pos_as_xyz
  1  'x, y, z'
loop_
 _atom_site_type_symbol
 _atom_site_label
 _atom_site_symmetry_multiplicity
 _atom_site_fract_x
 _atom_site_fract_y
 _atom_site_fract_z
 _atom_site_occupancy
  Sr  Sr0_0  1  0.00000000  0.00000000  0.19021260  1
  Sr  Sr0_1  1  0.00000000  0.00000000  0.69021260  1
  Sr  Sr0_2  1  0.00000000  0.50000000  0.19021260  1
  Sr  Sr0_3  1  0.00000000  0.50000000  0.69021260  1
  Sr  Sr0_4  1  0.50000000  0.00000000  0.19021260  1
  Sr  Sr0_5  1  0.50000000  0.00000000  0.69021260  1
  Sr  Sr0_6  1  0.50000000  0.50000000  0.19021260  1
  Sr  Sr0_7  1  0.50000000  0.50000000  0.69021260  1
  Sr  Sr1_0  1  0.00000000  0.00000000  0.44021260  1
  Sr  Sr1_1  1  0.00000000  0.00000000  0.94021260  1
  Sr  Sr1_2  1  0.00000000  0.50000000  0.44021260  1
  Sr  Sr1_3  1  0.00000000  0.50000000  0.94021260  1
  Sr  Sr1_4  1  0.50000000  0.00000000  0.44021260  1
  Sr  Sr1_5  1  0.50000000  0.00000000  0.94021260  1
  Sr  Sr1_6  1  0.50000000  0.50000000  0.44021260  1
  Sr  Sr1_7  1  0.50000000  0.50000000  0.94021260  1
  Sr  Sr2_0  1  0.00000000  0.00000000  0.30924436  1
  Sr  Sr2_1  1  0.00000000  0.00000000  0.80924436  1
  Sr  Sr2_2  1  0.00000000  0.50000000  0.30924436  1
  Sr  Sr2_3  1  0.00000000  0.50000000  0.80924436  1
  Sr  Sr2_4  1  0.50000000  0.00000000  0.30924436  1
  Sr  Sr2_5  1  0.50000000  0.00000000  0.80924436  1
  Sr  Sr2_6  1  0.50000000  0.50000000  0.30924436  1
  Sr  Sr2_7  1  0.50000000  0.50000000  0.80924436  1
  Sr  Sr3_0  1  0.00000000  0.00000000  0.05924436  1
  Sr  Sr3_1  1  0.00000000  0.00000000  0.55924436  1
  Sr  Sr3_2  1  0.00000000  0.50000000  0.05924436  1
  Sr  Sr3_3  1  0.00000000  0.50000000  0.55924436  1
  Sr  Sr3_4  1  0.50000000  0.00000000  0.05924436  1
  Sr  Sr3_5  1  0.50000000  0.00000000  0.55924436  1
  Sr  Sr3_6  1  0.50000000  0.50000000  0.05924436  1
  Sr  Sr3_7  1  0.50000000  0.50000000  0.55924436  1
  Ga  Ga0_0  1  0.16666650  0.33333350  0.26027408  1
  Ga  Ga0_1  1  0.16666650  0.33333350  0.76027408  1
  Ga  Ga0_2  1  0.16666650  0.83333350  0.26027408  1
  Ga  Ga0_3  1  0.16666650  0.83333350  0.76027408  1
  Ga  Ga0_4  1  0.66666650  0.33333350  0.26027408  1
  Ga  Ga0_5  1  0.66666650  0.33333350  0.76027408  1
  Ga  Ga0_6  1  0.66666650  0.83333350  0.26027408  1
  Ga  Ga0_7  1  0.66666650  0.83333350  0.76027408  1
  Ga  Ga1_0  1  0.33333350  0.16666650  0.01027408  1
  Ga  Ga1_1  1  0.33333350  0.16666650  0.51027408  1
  Ga  Ga1_2  1  0.33333350  0.66666650  0.01027408  1
  Ga  Ga1_3  1  0.33333350  0.66666650  0.51027408  1
  Ga  Ga1_4  1  0.83333350  0.16666650  0.01027408  1
  Ga  Ga1_5  1  0.83333350  0.16666650  0.51027408  1
  Ga  Ga1_6  1  0.83333350  0.66666650  0.01027408  1
  Ga  Ga1_7  1  0.83333350  0.66666650  0.51027408  1
  Si  Si0_0  1  0.33333350  0.16666650  0.23989651  1
  Si  Si0_1  1  0.33333350  0.16666650  0.73989651  1
  Si  Si0_2  1  0.33333350  0.66666650  0.23989651  1
  Si  Si0_3  1  0.33333350  0.66666650  0.73989651  1
  Si  Si0_4  1  0.83333350  0.16666650  0.23989651  1
  Si  Si0_5  1  0.83333350  0.16666650  0.73989651  1
  Si  Si0_6  1  0.83333350  0.66666650  0.23989651  1
  Si  Si0_7  1  0.83333350  0.66666650  0.73989651  1
  Si  Si1_0  1  0.16666650  0.33333350  0.48989651  1
  Si  Si1_1  1  0.16666650  0.33333350  0.98989651  1
  Si  Si1_2  1  0.16666650  0.83333350  0.48989651  1
  Si  Si1_3  1  0.16666650  0.83333350  0.98989651  1
  Si  Si1_4  1  0.66666650  0.33333350  0.48989651  1
  Si  Si1_5  1  0.66666650  0.33333350  0.98989651  1
  Si  Si1_6  1  0.66666650  0.83333350  0.48989651  1
  Si  Si1_7  1  0.66666650  0.83333350  0.98989651  1
  I  I0_0  1  0.16666650  0.33333350  0.12537245  1
  I  I0_1  1  0.16666650  0.33333350  0.62537245  1
  I  I0_2  1  0.16666650  0.83333350  0.12537245  1
  I  I0_3  1  0.16666650  0.83333350  0.62537245  1
  I  I0_4  1  0.66666650  0.33333350  0.12537245  1
  I  I0_5  1  0.66666650  0.33333350  0.62537245  1
  I  I0_6  1  0.66666650  0.83333350  0.12537245  1
  I  I0_7  1  0.66666650  0.83333350  0.62537245  1
  I  I1_0  1  0.33333350  0.16666650  0.37537245  1
  I  I1_1  1  0.33333350  0.16666650  0.87537245  1
  I  I1_2  1  0.33333350  0.66666650  0.37537245  1
  I  I1_3  1  0.33333350  0.66666650  0.87537245  1
  I  I1_4  1  0.83333350  0.16666650  0.37537245  1
  I  I1_5  1  0.83333350  0.16666650  0.87537245  1
  I  I1_6  1  0.83333350  0.66666650  0.37537245  1
  I  I1_7  1  0.83333350  0.66666650  0.87537245  1
loop_
_geom_bond_atom_site_label_1
_geom_bond_atom_site_label_2
_geom_bond_distance
_geom_bond_site_symmetry_2
Ga0_0 Si0_4 2.588496 1_455
Ga0_0 Si0_2 2.588497 1_555
Ga0_0 Si0_0 2.588504 1_555
Ga0_0 Sr2_2 3.081116 1_555
Ga0_0 Sr2_6 3.081118 1_555
Ga0_0 Sr2_0 3.081119 1_555
Ga0_0 Sr0_2 3.609640 1_555
Ga0_0 Sr0_6 3.609642 1_555
Ga0_0 Sr0_0 3.609642 1_555
Ga0_1 Si0_5 2.588496 1_455
Ga0_1 Si0_3 2.588497 1_555
Ga0_1 Si0_1 2.588504 1_555
Ga0_1 Sr2_3 3.081116 1_555
Ga0_1 Sr2_7 3.081118 1_555
Ga0_1 Sr2_1 3.081119 1_555
Ga0_1 Sr0_3 3.609640 1_555
Ga0_1 Sr0_7 3.609642 1_555
Ga0_1 Sr0_1 3.609642 1_555
Ga0_2 Si0_6 2.588496 1_455
Ga0_2 Si0_0 2.588497 1_565
Ga0_2 Si0_2 2.588504 1_555
Ga0_2 Sr2_0 3.081116 1_565
Ga0_2 Sr2_4 3.081118 1_565
Ga0_2 Sr2_2 3.081119 1_555
Ga0_2 Sr0_0 3.609640 1_565
Ga0_2 Sr0_4 3.609642 1_565
Ga0_2 Sr0_2 3.609642 1_555
Ga0_3 Si0_7 2.588496 1_455
Ga0_3 Si0_1 2.588497 1_565
Ga0_3 Si0_3 2.588504 1_555
Ga0_3 Sr2_1 3.081116 1_565
Ga0_3 Sr2_5 3.081118 1_565
Ga0_3 Sr2_3 3.081119 1_555
Ga0_3 Sr0_1 3.609640 1_565
Ga0_3 Sr0_5 3.609642 1_565
Ga0_3 Sr0_3 3.609642 1_555
Ga0_4 Si0_0 2.588496 1_555
Ga0_4 Si0_6 2.588497 1_555
Ga0_4 Si0_4 2.588504 1_555
Ga0_4 Sr2_6 3.081116 1_555
Ga0_4 Sr2_2 3.081118 1_655
Ga0_4 Sr2_4 3.081119 1_555
Ga0_4 Sr0_6 3.609640 1_555
Ga0_4 Sr0_2 3.609642 1_655
Ga0_4 Sr0_4 3.609642 1_555
Ga0_5 Si0_1 2.588496 1_555
Ga0_5 Si0_7 2.588497 1_555
Ga0_5 Si0_5 2.588504 1_555
Ga0_5 Sr2_7 3.081116 1_555
Ga0_5 Sr2_3 3.081118 1_655
Ga0_5 Sr2_5 3.081119 1_555
Ga0_5 Sr0_7 3.609640 1_555
Ga0_5 Sr0_3 3.609642 1_655
Ga0_5 Sr0_5 3.609642 1_555
Ga0_6 Si0_2 2.588496 1_555
Ga0_6 Si0_4 2.588497 1_565
Ga0_6 Si0_6 2.588504 1_555
Ga0_6 Sr2_4 3.081116 1_565
Ga0_6 Sr2_0 3.081118 1_665
Ga0_6 Sr2_6 3.081119 1_555
Ga0_6 Sr0_4 3.609640 1_565
Ga0_6 Sr0_0 3.609642 1_665
Ga0_6 Sr0_6 3.609642 1_555
Ga0_7 Si0_3 2.588496 1_555
Ga0_7 Si0_5 2.588497 1_565
Ga0_7 Si0_7 2.588504 1_555
Ga0_7 Sr2_5 3.081116 1_565
Ga0_7 Sr2_1 3.081118 1_665
Ga0_7 Sr2_7 3.081119 1_555
Ga0_7 Sr0_5 3.609640 1_565
Ga0_7 Sr0_1 3.609642 1_665
Ga0_7 Sr0_7 3.609642 1_555
Ga1_0 Si1_5 2.588496 1_554
Ga1_0 Si1_3 2.588497 1_544
Ga1_0 Si1_1 2.588504 1_554
Ga1_0 Sr3_4 3.081116 1_555
Ga1_0 Sr3_0 3.081118 1_555
Ga1_0 Sr3_6 3.081119 1_555
Ga1_0 Sr1_5 3.609640 1_554
Ga1_0 Sr1_1 3.609642 1_554
Ga1_0 Sr1_7 3.609642 1_554
Ga1_1 Si1_4 2.588496 1_555
Ga1_1 Si1_2 2.588497 1_545
Ga1_1 Si1_0 2.588504 1_555
Ga1_1 Sr3_5 3.081116 1_555
Ga1_1 Sr3_1 3.081118 1_555
Ga1_1 Sr3_7 3.081119 1_555
Ga1_1 Sr1_4 3.609640 1_555
Ga1_1 Sr1_0 3.609642 1_555
Ga1_1 Sr1_6 3.609642 1_555
Ga1_2 Si1_7 2.588496 1_554
Ga1_2 Si1_1 2.588497 1_554
Ga1_2 Si1_3 2.588504 1_554
Ga1_2 Sr3_6 3.081116 1_555
Ga1_2 Sr3_2 3.081118 1_555
Ga1_2 Sr3_4 3.081119 1_565
Ga1_2 Sr1_7 3.609640 1_554
Ga1_2 Sr1_3 3.609642 1_554
Ga1_2 Sr1_5 3.609642 1_564
Ga1_3 Si1_6 2.588496 1_555
Ga1_3 Si1_0 2.588497 1_555
Ga1_3 Si1_2 2.588504 1_555
Ga1_3 Sr3_7 3.081116 1_555
Ga1_3 Sr3_3 3.081118 1_555
Ga1_3 Sr3_5 3.081119 1_565
Ga1_3 Sr1_6 3.609640 1_555
Ga1_3 Sr1_2 3.609642 1_555
Ga1_3 Sr1_4 3.609642 1_565
Ga1_4 Si1_1 2.588496 1_654
Ga1_4 Si1_7 2.588497 1_544
Ga1_4 Si1_5 2.588504 1_554
Ga1_4 Sr3_0 3.081116 1_655
Ga1_4 Sr3_4 3.081118 1_555
Ga1_4 Sr3_2 3.081119 1_655
Ga1_4 Sr1_1 3.609640 1_654
Ga1_4 Sr1_5 3.609642 1_554
Ga1_4 Sr1_3 3.609642 1_654
Ga1_5 Si1_0 2.588496 1_655
Ga1_5 Si1_6 2.588497 1_545
Ga1_5 Si1_4 2.588504 1_555
Ga1_5 Sr3_1 3.081116 1_655
Ga1_5 Sr3_5 3.081118 1_555
Ga1_5 Sr3_3 3.081119 1_655
Ga1_5 Sr1_0 3.609640 1_655
Ga1_5 Sr1_4 3.609642 1_555
Ga1_5 Sr1_2 3.609642 1_655
Ga1_6 Si1_3 2.588496 1_654
Ga1_6 Si1_5 2.588497 1_554
Ga1_6 Si1_7 2.588504 1_554
Ga1_6 Sr3_2 3.081116 1_655
Ga1_6 Sr3_6 3.081118 1_555
Ga1_6 Sr3_0 3.081119 1_665
Ga1_6 Sr1_3 3.609640 1_654
Ga1_6 Sr1_7 3.609642 1_554
Ga1_6 Sr1_1 3.609642 1_664
Ga1_7 Si1_2 2.588496 1_655
Ga1_7 Si1_4 2.588497 1_555
Ga1_7 Si1_6 2.588504 1_555
Ga1_7 Sr3_3 3.081116 1_655
Ga1_7 Sr3_7 3.081118 1_555
Ga1_7 Sr3_1 3.081119 1_665
Ga1_7 Sr1_2 3.609640 1_655
Ga1_7 Sr1_6 3.609642 1_555
Ga1_7 Sr1_0 3.609642 1_665
Si0_0 Sr0_4 3.097167 1_555
Si0_0 Sr0_0 3.097169 1_555
Si0_0 Sr0_6 3.097169 1_555
Si0_0 Sr2_4 3.590177 1_555
Si0_0 Sr2_0 3.590179 1_555
Si0_0 Sr2_6 3.590179 1_555
Si0_1 Sr0_5 3.097167 1_555
Si0_1 Sr0_1 3.097169 1_555
Si0_1 Sr0_7 3.097169 1_555
Si0_1 Sr2_5 3.590177 1_555
Si0_1 Sr2_1 3.590179 1_555
Si0_1 Sr2_7 3.590179 1_555
Si0_2 Sr0_6 3.097167 1_555
Si0_2 Sr0_2 3.097169 1_555
Si0_2 Sr0_4 3.097169 1_565
Si0_2 Sr2_6 3.590177 1_555
Si0_2 Sr2_2 3.590179 1_555
Si0_2 Sr2_4 3.590179 1_565
Si0_3 Sr0_7 3.097167 1_555
Si0_3 Sr0_3 3.097169 1_555
Si0_3 Sr0_5 3.097169 1_565
Si0_3 Sr2_7 3.590177 1_555
Si0_3 Sr2_3 3.590179 1_555
Si0_3 Sr2_5 3.590179 1_565
Si0_4 Sr0_0 3.097167 1_655
Si0_4 Sr0_4 3.097169 1_555
Si0_4 Sr0_2 3.097169 1_655
Si0_4 Sr2_0 3.590177 1_655
Si0_4 Sr2_4 3.590179 1_555
Si0_4 Sr2_2 3.590179 1_655
Si0_5 Sr0_1 3.097167 1_655
Si0_5 Sr0_5 3.097169 1_555
Si0_5 Sr0_3 3.097169 1_655
Si0_5 Sr2_1 3.590177 1_655
Si0_5 Sr2_5 3.590179 1_555
Si0_5 Sr2_3 3.590179 1_655
Si0_6 Sr0_2 3.097167 1_655
Si0_6 Sr0_6 3.097169 1_555
Si0_6 Sr0_0 3.097169 1_665
Si0_6 Sr2_2 3.590177 1_655
Si0_6 Sr2_6 3.590179 1_555
Si0_6 Sr2_0 3.590179 1_665
Si0_7 Sr0_3 3.097167 1_655
Si0_7 Sr0_7 3.097169 1_555
Si0_7 Sr0_1 3.097169 1_665
Si0_7 Sr2_3 3.590177 1_655
Si0_7 Sr2_7 3.590179 1_555
Si0_7 Sr2_1 3.590179 1_665
Si1_0 Sr1_2 3.097167 1_555
Si1_0 Sr1_6 3.097169 1_555
Si1_0 Sr1_0 3.097169 1_555
Si1_0 Sr3_3 3.590177 1_555
Si1_0 Sr3_7 3.590179 1_555
Si1_0 Sr3_1 3.590179 1_555
Si1_1 Sr1_3 3.097167 1_555
Si1_1 Sr1_7 3.097169 1_555
Si1_1 Sr1_1 3.097169 1_555
Si1_1 Sr3_2 3.590177 1_556
Si1_1 Sr3_6 3.590179 1_556
Si1_1 Sr3_0 3.590179 1_556
Si1_2 Sr1_0 3.097167 1_565
Si1_2 Sr1_4 3.097169 1_565
Si1_2 Sr1_2 3.097169 1_555
Si1_2 Sr3_1 3.590177 1_565
Si1_2 Sr3_5 3.590179 1_565
Si1_2 Sr3_3 3.590179 1_555
Si1_3 Sr1_1 3.097167 1_565
Si1_3 Sr1_5 3.097169 1_565
Si1_3 Sr1_3 3.097169 1_555
Si1_3 Sr3_0 3.590177 1_566
Si1_3 Sr3_4 3.590179 1_566
Si1_3 Sr3_2 3.590179 1_556
Si1_4 Sr1_6 3.097167 1_555
Si1_4 Sr1_2 3.097169 1_655
Si1_4 Sr1_4 3.097169 1_555
Si1_4 Sr3_7 3.590177 1_555
Si1_4 Sr3_3 3.590179 1_655
Si1_4 Sr3_5 3.590179 1_555
Si1_5 Sr1_7 3.097167 1_555
Si1_5 Sr1_3 3.097169 1_655
Si1_5 Sr1_5 3.097169 1_555
Si1_5 Sr3_6 3.590177 1_556
Si1_5 Sr3_2 3.590179 1_656
Si1_5 Sr3_4 3.590179 1_556
Si1_6 Sr1_4 3.097167 1_565
Si1_6 Sr1_0 3.097169 1_665
Si1_6 Sr1_6 3.097169 1_555
Si1_6 Sr3_5 3.590177 1_565
Si1_6 Sr3_1 3.590179 1_665
Si1_6 Sr3_7 3.590179 1_555
Si1_7 Sr1_5 3.097167 1_565
Si1_7 Sr1_1 3.097169 1_665
Si1_7 Sr1_7 3.097169 1_555
Si1_7 Sr3_4 3.590177 1_566
Si1_7 Sr3_0 3.590179 1_666
Si1_7 Sr3_6 3.590179 1_556
I0_0 Sr0_2 3.469490 1_555
I0_0 Sr0_6 3.469492 1_555
I0_0 Sr0_0 3.469492 1_555
I0_0 Sr3_2 3.503563 1_555
I0_0 Sr3_6 3.503565 1_555
I0_0 Sr3_0 3.503565 1_555
I0_0 I0_6 4.283256 1_555
I0_0 I0_6 4.283256 1_445
I0_0 I0_4 4.283256 1_555
I0_0 I0_4 4.283256 1_455
I0_0 I0_2 4.283257 1_555
I0_0 I0_2 4.283257 1_545
I0_1 Sr0_3 3.469490 1_555
I0_1 Sr0_7 3.469492 1_555
I0_1 Sr0_1 3.469492 1_555
I0_1 Sr3_3 3.503563 1_555
I0_1 Sr3_7 3.503565 1_555
I0_1 Sr3_1 3.503565 1_555
I0_1 I0_7 4.283256 1_555
I0_1 I0_7 4.283256 1_445
I0_1 I0_5 4.283256 1_455
I0_1 I0_5 4.283256 1_555
I0_1 I0_3 4.283257 1_555
I0_1 I0_3 4.283257 1_545
I0_2 Sr0_0 3.469490 1_565
I0_2 Sr0_4 3.469492 1_565
I0_2 Sr0_2 3.469492 1_555
I0_2 Sr3_0 3.503563 1_565
I0_2 Sr3_4 3.503565 1_565
I0_2 Sr3_2 3.503565 1_555
I0_2 I0_4 4.283256 1_455
I0_2 I0_4 4.283256 1_565
I0_2 I0_6 4.283256 1_455
I0_2 I0_6 4.283256 1_555
I0_3 Sr0_1 3.469490 1_565
I0_3 Sr0_5 3.469492 1_565
I0_3 Sr0_3 3.469492 1_555
I0_3 Sr3_1 3.503563 1_565
I0_3 Sr3_5 3.503565 1_565
I0_3 Sr3_3 3.503565 1_555
I0_3 I0_5 4.283256 1_455
I0_3 I0_5 4.283256 1_565
I0_3 I0_7 4.283256 1_555
I0_3 I0_7 4.283256 1_455
I0_4 Sr0_6 3.469490 1_555
I0_4 Sr0_2 3.469492 1_655
I0_4 Sr0_4 3.469492 1_555
I0_4 Sr3_6 3.503563 1_555
I0_4 Sr3_2 3.503565 1_655
I0_4 Sr3_4 3.503565 1_555
I0_4 I0_6 4.283257 1_555
I0_4 I0_6 4.283257 1_545
I0_5 Sr0_7 3.469490 1_555
I0_5 Sr0_3 3.469492 1_655
I0_5 Sr0_5 3.469492 1_555
I0_5 Sr3_7 3.503563 1_555
I0_5 Sr3_3 3.503565 1_655
I0_5 Sr3_5 3.503565 1_555
I0_5 I0_7 4.283257 1_555
I0_5 I0_7 4.283257 1_545
I0_6 Sr0_4 3.469490 1_565
I0_6 Sr0_0 3.469492 1_665
I0_6 Sr0_6 3.469492 1_555
I0_6 Sr3_4 3.503563 1_565
I0_6 Sr3_0 3.503565 1_665
I0_6 Sr3_6 3.503565 1_555
I0_7 Sr0_5 3.469490 1_565
I0_7 Sr0_1 3.469492 1_665
I0_7 Sr0_7 3.469492 1_555
I0_7 Sr3_5 3.503563 1_565
I0_7 Sr3_1 3.503565 1_665
I0_7 Sr3_7 3.503565 1_555
I1_0 Sr1_4 3.469490 1_555
I1_0 Sr1_0 3.469492 1_555
I1_0 Sr1_6 3.469492 1_555
I1_0 Sr2_4 3.503563 1_555
I1_0 Sr2_0 3.503565 1_555
I1_0 Sr2_6 3.503565 1_555
I1_0 I1_6 4.283256 1_445
I1_0 I1_6 4.283256 1_555
I1_0 I1_4 4.283256 1_455
I1_0 I1_4 4.283256 1_555
I1_0 I1_2 4.283257 1_545
I1_0 I1_2 4.283257 1_555
I1_1 Sr1_5 3.469490 1_555
I1_1 Sr1_1 3.469492 1_555
I1_1 Sr1_7 3.469492 1_555
I1_1 Sr2_5 3.503563 1_555
I1_1 Sr2_1 3.503565 1_555
I1_1 Sr2_7 3.503565 1_555
I1_1 I1_7 4.283256 1_555
I1_1 I1_7 4.283256 1_445
I1_1 I1_5 4.283256 1_455
I1_1 I1_5 4.283256 1_555
I1_1 I1_3 4.283257 1_545
I1_1 I1_3 4.283257 1_555
I1_2 Sr1_6 3.469490 1_555
I1_2 Sr1_2 3.469492 1_555
I1_2 Sr1_4 3.469492 1_565
I1_2 Sr2_6 3.503563 1_555
I1_2 Sr2_2 3.503565 1_555
I1_2 Sr2_4 3.503565 1_565
I1_2 I1_4 4.283256 1_565
I1_2 I1_4 4.283256 1_455
I1_2 I1_6 4.283256 1_555
I1_2 I1_6 4.283256 1_455
I1_3 Sr1_7 3.469490 1_555
I1_3 Sr1_3 3.469492 1_555
I1_3 Sr1_5 3.469492 1_565
I1_3 Sr2_7 3.503563 1_555
I1_3 Sr2_3 3.503565 1_555
I1_3 Sr2_5 3.503565 1_565
I1_3 I1_5 4.283256 1_565
I1_3 I1_5 4.283256 1_455
I1_3 I1_7 4.283256 1_555
I1_3 I1_7 4.283256 1_455
I1_4 Sr1_0 3.469490 1_655
I1_4 Sr1_4 3.469492 1_555
I1_4 Sr1_2 3.469492 1_655
I1_4 Sr2_0 3.503563 1_655
I1_4 Sr2_4 3.503565 1_555
I1_4 Sr2_2 3.503565 1_655
I1_4 I1_6 4.283257 1_545
I1_4 I1_6 4.283257 1_555
I1_5 Sr1_1 3.469490 1_655
I1_5 Sr1_5 3.469492 1_555
I1_5 Sr1_3 3.469492 1_655
I1_5 Sr2_1 3.503563 1_655
I1_5 Sr2_5 3.503565 1_555
I1_5 Sr2_3 3.503565 1_655
I1_5 I1_7 4.283257 1_545
I1_5 I1_7 4.283257 1_555
I1_6 Sr1_2 3.469490 1_655
I1_6 Sr1_6 3.469492 1_555
I1_6 Sr1_0 3.469492 1_665
I1_6 Sr2_2 3.503563 1_655
I1_6 Sr2_6 3.503565 1_555
I1_6 Sr2_0 3.503565 1_665
I1_7 Sr1_3 3.469490 1_655
I1_7 Sr1_7 3.469492 1_555
I1_7 Sr1_1 3.469492 1_665
I1_7 Sr2_3 3.503563 1_655
I1_7 Sr2_7 3.503565 1_555
I1_7 Sr2_1 3.503565 1_665
