# generated using pymatgen
data_CaAgGePd3
_symmetry_space_group_name_H-M   'P 1'
_cell_length_a   5.09219495
_cell_length_b   5.09219460
_cell_length_c   5.09219331
_cell_angle_alpha   65.61203852
_cell_angle_beta   65.61203964
_cell_angle_gamma   65.61203295
_symmetry_Int_Tables_number   1
_chemical_formula_structural   CaAgGePd3
_chemical_formula_sum   'Ca1 Ag1 Ge1 Pd3'
_cell_volume   104.74830484
_cell_formula_units_Z   1
loop_
 _symmetry_equiv_pos_site_id
 _symmetry_equiv_pos_as_xyz
  1  'x, y, z'
loop_
 _atom_site_type_symbol
 _atom_site_label
 _atom_site_symmetry_multiplicity
 _atom_site_fract_x
 _atom_site_fract_y
 _atom_site_fract_z
 _atom_site_occupancy
  Ca  Ca0  1  0.12290500  0.12290500  0.12290500  1
  Ag  Ag0  1  0.87296405  0.87296405  0.87296405  1
  Ge  Ge0  1  0.50130997  0.50130997  0.50130997  1
  Pd  Pd0  1  0.50168820  0.50168820  0.99944458  1
  Pd  Pd1  1  0.99944458  0.50168820  0.50168820  1
  Pd  Pd2  1  0.50168820  0.99944458  0.50168820  1
loop_
_geom_bond_atom_site_label_1
_geom_bond_atom_site_label_2
_geom_bond_distance
_geom_bond_site_symmetry_2
Ca0 Pd1 2.984233 1_455
Ca0 Pd2 2.984233 1_545
Ca0 Pd0 2.984233 1_554
Ca0 Pd1 3.118423 1_454
Ca0 Pd2 3.118423 1_544
Ca0 Pd0 3.118423 1_544
Ca0 Pd0 3.118424 1_454
Ca0 Pd1 3.118424 1_445
Ca0 Pd2 3.118424 1_445
Ca0 Ge0 3.230709 1_545
Ca0 Ge0 3.230709 1_455
Ca0 Ge0 3.230709 1_554
Ag0 Pd1 2.916210 1_555
Ag0 Pd2 2.916210 1_555
Ag0 Pd0 2.916211 1_555
Ag0 Ca0 2.978741 1_666
Ag0 Pd1 3.152455 1_556
Ag0 Pd2 3.152455 1_556
Ag0 Pd0 3.152456 1_565
Ag0 Pd0 3.152456 1_655
Ag0 Pd1 3.152456 1_565
Ag0 Pd2 3.152456 1_655
Ag0 Ge0 3.218310 1_565
Ag0 Ge0 3.218310 1_556
Ag0 Ge0 3.218310 1_655
Ag0 Ca0 3.337168 1_665
Ag0 Ca0 3.337168 1_656
Ag0 Ca0 3.337168 1_566
Ge0 Pd0 2.538190 1_555
Ge0 Pd2 2.538190 1_555
Ge0 Pd1 2.538191 1_555
Ge0 Pd0 2.554007 1_554
Ge0 Pd2 2.554007 1_545
Ge0 Pd1 2.554007 1_455
Pd0 Pd2 2.746553 1_555
Pd0 Pd1 2.746553 1_555
Pd0 Pd2 2.771313 1_546
Pd0 Pd1 2.771313 1_456
Pd1 Pd2 2.746553 1_555
Pd1 Pd2 2.771313 1_645
