# generated using pymatgen
data_Nb2Co4O9
_symmetry_space_group_name_H-M   'P 1'
_cell_length_a   5.14304815
_cell_length_b   5.15723587
_cell_length_c   14.14779315
_cell_angle_alpha   90.51049800
_cell_angle_beta   90.01873046
_cell_angle_gamma   60.09319817
_symmetry_Int_Tables_number   1
_chemical_formula_structural   Nb2Co4O9
_chemical_formula_sum   'Nb4 Co8 O18'
_cell_volume   325.26840181
_cell_formula_units_Z   2
loop_
 _symmetry_equiv_pos_site_id
 _symmetry_equiv_pos_as_xyz
  1  'x, y, z'
loop_
 _atom_site_type_symbol
 _atom_site_label
 _atom_site_symmetry_multiplicity
 _atom_site_fract_x
 _atom_site_fract_y
 _atom_site_fract_z
 _atom_site_occupancy
  Nb  Nb0  1  0.99928889  0.00561417  0.64149842  1
  Nb  Nb1  1  0.00485040  0.99452911  0.85851563  1
  Nb  Nb2  1  -0.00013410  0.99577153  0.35849899  1
  Nb  Nb3  1  0.99618809  0.00416196  0.14145731  1
  Co  Co0  1  0.33443966  0.33306621  0.01498570  1
  Co  Co1  1  0.33159148  0.33471237  0.51492250  1
  Co  Co2  1  0.66657187  0.66539206  0.98507370  1
  Co  Co3  1  0.33549045  0.33555827  0.80773925  1
  Co  Co4  1  0.66721411  0.66684732  0.48501867  1
  Co  Co5  1  0.67084426  0.66465641  0.69228133  1
  Co  Co6  1  0.32919747  0.33545848  0.30765631  1
  Co  Co7  1  0.66473263  0.66429871  0.19233697  1
  O  O0  1  0.70317014  0.29302147  0.25044091  1
  O  O1  1  0.99626440  0.70676769  0.24949252  1
  O  O2  1  0.29053397  0.99990015  0.25003361  1
  O  O3  1  0.29703881  0.70687791  0.74942209  1
  O  O4  1  0.00386810  0.29330073  0.75060069  1
  O  O5  1  0.70962264  0.00010932  0.74999935  1
  O  O6  1  0.34729951  0.98015167  0.58265070  1
  O  O7  1  0.67476231  0.34806305  0.58266333  1
  O  O8  1  0.97818894  0.67564531  0.58390078  1
  O  O9  1  0.32762687  0.01996705  0.91731965  1
  O  O10  1  0.02297767  0.65209850  0.91738411  1
  O  O11  1  0.65387207  0.32456645  0.91609831  1
  O  O12  1  0.65161657  0.02121823  0.41725985  1
  O  O13  1  0.32448016  0.65290126  0.41727318  1
  O  O14  1  0.02066502  0.32560278  0.41611498  1
  O  O15  1  0.67315752  0.97864606  0.08278597  1
  O  O16  1  0.97785680  0.34684033  0.08265872  1
  O  O17  1  0.34672527  0.67425744  0.08391647  1
loop_
_geom_bond_atom_site_label_1
_geom_bond_atom_site_label_2
_geom_bond_distance
_geom_bond_site_symmetry_2
Nb0 O6 1.917961 1_645
Nb0 O7 1.919266 1_555
Nb0 O8 1.931595 1_545
Nb0 O4 2.139720 1_655
Nb0 O5 2.149659 1_555
Nb0 O3 2.176640 1_645
Nb1 O9 1.918189 1_565
Nb1 O10 1.919132 1_555
Nb1 O11 1.931743 1_465
Nb1 O3 2.139824 1_555
Nb1 O5 2.149188 1_465
Nb1 O4 2.177003 1_565
Nb2 O12 1.918565 1_465
Nb2 O13 1.920138 1_555
Nb2 O14 1.930294 1_565
Nb2 O1 2.141670 1_455
Nb2 O2 2.150324 1_555
Nb2 O0 2.173310 1_465
Nb3 O15 1.918753 1_545
Nb3 O16 1.919414 1_555
Nb3 O17 1.930093 1_645
Nb3 O0 2.142338 1_555
Nb3 O2 2.148891 1_645
Nb3 O1 2.174787 1_545
Co0 O17 2.032609 1_555
Co0 O15 2.037339 1_545
Co0 O16 2.038384 1_455
Co0 O9 2.129426 1_554
Co0 O11 2.141683 1_554
Co0 O10 2.142588 1_554
Co1 O8 2.032546 1_455
Co1 O6 2.037683 1_545
Co1 O7 2.038912 1_555
Co1 O12 2.130773 1_555
Co1 O13 2.140855 1_555
Co1 O14 2.141446 1_555
Co2 O11 2.032239 1_555
Co2 O9 2.037882 1_565
Co2 O10 2.038727 1_655
Co2 O15 2.129993 1_556
Co2 O16 2.141110 1_556
Co2 O17 2.142190 1_556
Co3 O4 1.994113 1_555
Co3 O5 2.004760 1_555
Co3 O3 2.009329 1_555
Co3 O11 2.223067 1_555
Co3 O10 2.234878 1_555
Co3 O9 2.272616 1_555
Co4 O14 2.032830 1_655
Co4 O12 2.037259 1_565
Co4 O13 2.038379 1_555
Co4 O6 2.129911 1_555
Co4 O8 2.141699 1_555
Co4 O7 2.142337 1_555
Co5 O3 1.994341 1_555
Co5 O5 2.004569 1_565
Co5 O4 2.009588 1_655
Co5 O8 2.223825 1_555
Co5 O7 2.234615 1_555
Co5 O6 2.272763 1_555
Co6 O0 1.995134 1_555
Co6 O2 2.004212 1_545
Co6 O1 2.008364 1_455
Co6 O14 2.226759 1_555
Co6 O13 2.236302 1_555
Co6 O12 2.268022 1_555
Co7 O1 1.994367 1_555
Co7 O2 2.004995 1_555
Co7 O0 2.007895 1_555
Co7 O17 2.224066 1_555
Co7 O16 2.238053 1_555
Co7 O15 2.268726 1_555
