# generated using pymatgen
data_Sr4GaGe5Au2
_symmetry_space_group_name_H-M   'P 1'
_cell_length_a   8.82047144
_cell_length_b   8.68337191
_cell_length_c   6.33394498
_cell_angle_alpha   69.94627922
_cell_angle_beta   67.63379902
_cell_angle_gamma   42.41991547
_symmetry_Int_Tables_number   1
_chemical_formula_structural   Sr4GaGe5Au2
_chemical_formula_sum   'Sr4 Ga1 Ge5 Au2'
_cell_volume   301.12966556
_cell_formula_units_Z   1
loop_
 _symmetry_equiv_pos_site_id
 _symmetry_equiv_pos_as_xyz
  1  'x, y, z'
loop_
 _atom_site_type_symbol
 _atom_site_label
 _atom_site_symmetry_multiplicity
 _atom_site_fract_x
 _atom_site_fract_y
 _atom_site_fract_z
 _atom_site_occupancy
  Sr  Sr0  1  0.25391245  0.74833810  0.25166190  1
  Sr  Sr1  1  0.24870182  0.24870182  0.25129918  1
  Sr  Sr2  1  0.74870082  0.74870182  0.75129918  1
  Sr  Sr3  1  0.74833710  0.25391245  0.74608755  1
  Ga  Ga0  1  0.83515264  0.83515364  0.16484636  1
  Ge  Ge0  1  0.83181679  0.33168868  0.16818221  1
  Ge  Ge1  1  0.67256717  0.16054924  0.32743183  1
  Ge  Ge2  1  0.33168868  0.83181779  0.66831132  1
  Ge  Ge3  1  0.16054924  0.67256817  0.83945076  1
  Ge  Ge4  1  0.16506090  0.16506090  0.83493910  1
  Au  Au0  1  0.66881710  0.66881810  0.33118190  1
  Au  Au1  1  0.33469228  0.33469228  0.66530772  1
loop_
_geom_bond_atom_site_label_1
_geom_bond_atom_site_label_2
_geom_bond_distance
_geom_bond_site_symmetry_2
Ga0 Ge1 2.447385 1_565
Ga0 Ge3 2.447389 1_654
Ga0 Sr3 3.415272 1_564
Ga0 Sr0 3.415281 1_655
Ga0 Sr1 3.423451 1_565
Ga0 Sr2 3.423451 1_554
Ga0 Sr1 3.423458 1_655
Ga0 Sr2 3.423463 1_555
Ge0 Ge1 2.484864 1_555
Ge0 Ge4 2.506412 1_654
Ge0 Sr0 3.374098 1_555
Ge0 Sr3 3.374104 1_555
Ge0 Sr3 3.408331 1_554
Ge0 Sr0 3.408332 1_645
Ge0 Sr2 3.408585 1_554
Ge0 Sr1 3.408601 1_655
Ge1 Sr3 3.397405 1_554
Ge1 Sr0 3.397411 1_645
Ge1 Sr1 3.419050 1_555
Ge1 Sr2 3.419064 1_545
Ge1 Sr0 3.429094 1_555
Ge1 Sr3 3.429095 1_555
Ge2 Ge3 2.484864 1_555
Ge2 Ge4 2.506408 1_565
Ge2 Sr3 3.374104 1_555
Ge2 Sr0 3.374104 1_555
Ge2 Sr0 3.408331 1_556
Ge2 Sr3 3.408337 1_465
Ge2 Sr2 3.408583 1_555
Ge2 Sr1 3.408585 1_565
Ge3 Sr0 3.397405 1_556
Ge3 Sr3 3.397405 1_465
Ge3 Sr1 3.419064 1_556
Ge3 Sr2 3.419067 1_455
Ge3 Sr3 3.429089 1_555
Ge3 Sr0 3.429094 1_555
Ge4 Sr0 3.392958 1_546
Ge4 Sr3 3.392968 1_455
Ge4 Sr1 3.407621 1_555
Ge4 Sr2 3.407622 1_545
Ge4 Sr2 3.407628 1_455
Ge4 Sr1 3.407633 1_556
Au0 Ga0 2.501487 1_555
Au0 Ge2 2.536081 1_555
Au0 Ge0 2.536085 1_555
Au0 Sr2 3.387171 1_554
Au0 Sr1 3.387177 1_565
Au0 Sr2 3.387183 1_555
Au0 Sr1 3.387184 1_655
Au0 Sr0 3.399544 1_555
Au0 Sr3 3.399552 1_555
Au1 Ge1 2.541664 1_555
Au1 Ge3 2.541667 1_555
Au1 Ge4 2.551053 1_555
Au1 Sr3 3.385513 1_555
Au1 Sr0 3.385521 1_555
Au1 Sr1 3.420822 1_555
Au1 Sr2 3.420828 1_545
Au1 Sr1 3.420834 1_556
Au1 Sr2 3.420834 1_455
