# generated using pymatgen
data_LiMnO2
_symmetry_space_group_name_H-M   'P 1'
_cell_length_a   5.75183121
_cell_length_b   6.11743095
_cell_length_c   5.75192762
_cell_angle_alpha   63.66245315
_cell_angle_beta   88.38734357
_cell_angle_gamma   63.66266690
_symmetry_Int_Tables_number   1
_chemical_formula_structural   LiMnO2
_chemical_formula_sum   'Li4 Mn4 O8'
_cell_volume   158.92738658
_cell_formula_units_Z   4
loop_
 _symmetry_equiv_pos_site_id
 _symmetry_equiv_pos_as_xyz
  1  'x, y, z'
loop_
 _atom_site_type_symbol
 _atom_site_label
 _atom_site_symmetry_multiplicity
 _atom_site_fract_x
 _atom_site_fract_y
 _atom_site_fract_z
 _atom_site_occupancy
  Li  Li0  1  0.50000900  0.50000500  0.49999900  1
  Li  Li1  1  0.99998200  0.00000500  0.99999700  1
  Li  Li2  1  0.55304600  0.24999600  0.94695200  1
  Li  Li3  1  0.44696700  0.74999200  0.05303100  1
  Mn  Mn0  1  0.99990300  0.50005200  0.99998800  1
  Mn  Mn1  1  0.49990300  0.00013200  0.49987100  1
  Mn  Mn2  1  0.00004000  0.49995100  0.50003400  1
  Mn  Mn3  1  0.00001300  0.99997100  0.50004400  1
  O  O0  1  0.76867100  0.97284700  0.28732600  1
  O  O1  1  0.21267400  0.52710400  0.73136600  1
  O  O2  1  0.78728500  0.47283800  0.26868100  1
  O  O3  1  0.23134500  0.02714800  0.71271700  1
  O  O4  1  0.77273400  0.48215600  0.76630100  1
  O  O5  1  0.26626600  0.98215800  0.27272400  1
  O  O6  1  0.73387900  0.01782600  0.72720400  1
  O  O7  1  0.22728300  0.51782000  0.23376500  1
loop_
_geom_bond_atom_site_label_1
_geom_bond_atom_site_label_2
_geom_bond_distance
_geom_bond_site_symmetry_2
Li0 O2 2.087347 1_555
Li0 O1 2.087776 1_555
Li0 O7 2.157106 1_555
Li0 O4 2.157256 1_555
Li0 Li2 2.276560 1_555
Li0 Li3 2.276613 1_555
Li0 O5 2.318449 1_555
Li0 O6 2.318588 1_555
Li1 O3 2.087536 1_655
Li1 O0 2.087550 1_546
Li1 O6 2.156831 1_555
Li1 O5 2.157199 1_646
Li1 Li2 2.276428 1_555
Li1 Li3 2.276687 1_646
Li1 O4 2.318429 1_555
Li1 O7 2.318606 1_646
Li2 O1 1.889661 1_555
Li2 O0 1.889783 1_546
Li2 O4 2.214152 1_555
Li2 O6 2.214681 1_555
Li3 O3 1.889558 1_564
Li3 O2 1.889604 1_555
Li3 O7 2.214264 1_555
Li3 O5 2.214270 1_555
Mn0 O2 1.938518 1_556
Mn0 O1 1.938772 1_655
Mn0 O4 1.970376 1_555
Mn0 O7 1.971099 1_656
Mn0 O6 2.502150 1_565
Mn0 O5 2.502785 1_646
Mn1 O0 1.938566 1_545
Mn1 O3 1.938771 1_555
Mn1 O5 1.970389 1_545
Mn1 O6 1.971442 1_555
Mn1 O7 2.501726 1_555
Mn1 O4 2.503215 1_545
Mn2 O1 1.939559 1_555
Mn2 O2 1.939964 1_455
Mn2 O7 1.982824 1_555
Mn2 O4 1.983053 1_455
Mn2 O3 2.273722 1_555
Mn2 O0 2.274174 1_455
Mn3 O3 1.939809 1_565
Mn3 O0 1.939813 1_455
Mn3 O6 1.981937 1_465
Mn3 O5 1.983045 1_555
Mn3 O1 2.274031 1_555
Mn3 O2 2.274035 1_465
