# generated using pymatgen
data_Na4TcPtBr12
_symmetry_space_group_name_H-M   'P 1'
_cell_length_a   7.24421568
_cell_length_b   6.92201657
_cell_length_c   12.08682361
_cell_angle_alpha   55.92176675
_cell_angle_beta   90.01626296
_cell_angle_gamma   89.63609226
_symmetry_Int_Tables_number   1
_chemical_formula_structural   Na4TcPtBr12
_chemical_formula_sum   'Na4 Tc1 Pt1 Br12'
_cell_volume   501.99154084
_cell_formula_units_Z   1
loop_
 _symmetry_equiv_pos_site_id
 _symmetry_equiv_pos_as_xyz
  1  'x, y, z'
loop_
 _atom_site_type_symbol
 _atom_site_label
 _atom_site_symmetry_multiplicity
 _atom_site_fract_x
 _atom_site_fract_y
 _atom_site_fract_z
 _atom_site_occupancy
  Na  Na0  1  0.40833225  0.71983490  0.25911982  1
  Na  Na1  1  0.90786419  0.29601581  0.24132133  1
  Na  Na2  1  0.09213581  0.70398419  0.75867867  1
  Na  Na3  1  0.59166775  0.28016510  0.74088018  1
  Tc  Tc0  1  0.50000000  0.00000000  0.50000000  1
  Pt  Pt0  1  0.00000000  0.00000000  0.00000000  1
  Br  Br0  1  0.81083189  0.34903467  0.93869228  1
  Br  Br1  1  0.51996057  0.13669590  0.25793212  1
  Br  Br2  1  0.48003943  0.86330410  0.74206788  1
  Br  Br3  1  0.28791937  0.23180896  0.94454670  1
  Br  Br4  1  0.31757578  0.64819750  0.55257285  1
  Br  Br5  1  0.20247327  0.22497470  0.45166478  1
  Br  Br6  1  0.18916811  0.65096533  0.06130772  1
  Br  Br7  1  0.79752673  0.77502530  0.54833522  1
  Br  Br8  1  0.71208063  0.76819104  0.05545330  1
  Br  Br9  1  0.02166981  0.88634128  0.23519016  1
  Br  Br10  1  0.97833019  0.11365872  0.76480984  1
  Br  Br11  1  0.68242422  0.35180250  0.44742715  1
loop_
_geom_bond_atom_site_label_1
_geom_bond_atom_site_label_2
_geom_bond_distance
_geom_bond_site_symmetry_2
Br0 Pt0 2.493042 1_656
Br0 Na2 2.999799 1_655
Br0 Na3 3.122375 1_555
Br0 Na1 3.535443 1_556
Br1 Tc0 2.525120 1_555
Br1 Na1 2.990734 1_555
Br1 Na0 2.993924 1_545
Br2 Tc0 2.525120 1_565
Br2 Na2 2.990734 1_555
Br2 Na3 2.993924 1_565
Br3 Pt0 2.492460 1_556
Br3 Na2 3.074382 1_555
Br3 Na3 3.178490 1_555
Br3 Na0 3.554621 1_546
Br4 Tc0 2.527364 1_565
Br4 Na3 3.008011 1_555
Br4 Na2 3.177183 1_555
Br4 Na0 3.360534 1_555
Br5 Tc0 2.519731 1_555
Br5 Na1 3.137345 1_455
Br5 Na0 3.241426 1_555
Br5 Na2 3.529293 1_545
Br6 Pt0 2.493042 1_565
Br6 Na1 2.999799 1_455
Br6 Na0 3.122375 1_555
Br6 Na2 3.535443 1_554
Br7 Tc0 2.519731 1_565
Br7 Na2 3.137345 1_655
Br7 Na3 3.241426 1_555
Br7 Na1 3.529293 1_565
Br8 Pt0 2.492460 1_665
Br8 Na1 3.074382 1_555
Br8 Na0 3.178490 1_555
Br8 Na3 3.554621 1_564
Br9 Pt0 2.493277 1_565
Br9 Na0 2.973714 1_555
Br9 Na1 2.988751 1_465
Br10 Pt0 2.493277 1_656
Br10 Na3 2.973714 1_555
Br10 Na2 2.988751 1_645
Br11 Tc0 2.527364 1_555
Br11 Na0 3.008011 1_555
Br11 Na1 3.177183 1_555
Br11 Na3 3.360534 1_555
