# generated using pymatgen
data_CdHg3(Pt2O7)2
_symmetry_space_group_name_H-M   'P 1'
_cell_length_a   7.19748175
_cell_length_b   7.22194119
_cell_length_c   7.19748236
_cell_angle_alpha   60.11197373
_cell_angle_beta   60.00000166
_cell_angle_gamma   60.11197572
_symmetry_Int_Tables_number   1
_chemical_formula_structural   CdHg3(Pt2O7)2
_chemical_formula_sum   'Cd1 Hg3 Pt4 O14'
_cell_volume   264.99221142
_cell_formula_units_Z   1
loop_
 _symmetry_equiv_pos_site_id
 _symmetry_equiv_pos_as_xyz
  1  'x, y, z'
loop_
 _atom_site_type_symbol
 _atom_site_label
 _atom_site_symmetry_multiplicity
 _atom_site_fract_x
 _atom_site_fract_y
 _atom_site_fract_z
 _atom_site_occupancy
  Cd  Cd0  1  0.12500000  0.62500000  0.12500000  1
  Hg  Hg0  1  0.12500000  0.12500000  0.12500000  1
  Hg  Hg1  1  0.62500000  0.12500000  0.12500000  1
  Hg  Hg2  1  0.12500000  0.12500000  0.62500000  1
  Pt  Pt0  1  0.62500000  0.62500000  0.12500000  1
  Pt  Pt1  1  0.62500000  0.62500000  0.62500000  1
  Pt  Pt2  1  0.62500000  0.12500000  0.62500000  1
  Pt  Pt3  1  0.12500000  0.62500000  0.62500000  1
  O  O0  1  0.70341202  0.29749266  0.29568430  1
  O  O1  1  0.70341202  0.29749266  0.70341202  1
  O  O2  1  0.99287238  0.02138385  0.99287238  1
  O  O3  1  0.29447595  0.69702118  0.29447595  1
  O  O4  1  0.71402791  0.69702118  0.29447595  1
  O  O5  1  0.95552405  0.55297882  0.53597209  1
  O  O6  1  0.29447595  0.69702118  0.71402791  1
  O  O7  1  0.25712762  0.22861615  0.25712762  1
  O  O8  1  0.95552405  0.55297882  0.95552405  1
  O  O9  1  0.54658798  0.95250734  0.54658798  1
  O  O10  1  0.53597209  0.55297882  0.95552405  1
  O  O11  1  0.95431570  0.95250734  0.54658798  1
  O  O12  1  0.54658798  0.95250734  0.95431570  1
  O  O13  1  0.29568430  0.29749266  0.70341202  1
loop_
_geom_bond_atom_site_label_1
_geom_bond_atom_site_label_2
_geom_bond_distance
_geom_bond_site_symmetry_2
Cd0 O2 2.341301 1_464
Cd0 O7 2.341301 1_555
Cd0 O10 2.449258 1_554
Cd0 O4 2.449258 1_455
Cd0 O5 2.449258 1_455
Cd0 O6 2.449258 1_554
Cd0 O3 2.449264 1_555
Cd0 O8 2.449264 1_454
Hg0 O7 2.165995 1_555
Hg0 O2 2.165995 1_454
Hg0 O12 2.509728 1_544
Hg0 O0 2.509728 1_455
Hg0 O11 2.509728 1_445
Hg0 O13 2.509728 1_554
Hg0 O8 2.549930 1_454
Hg0 O3 2.549930 1_545
Hg1 O2 2.166001 1_554
Hg1 O7 2.166001 1_555
Hg1 O9 2.509727 1_545
Hg1 O1 2.509727 1_554
Hg1 O0 2.509733 1_555
Hg1 O12 2.509733 1_544
Hg1 O10 2.549930 1_554
Hg1 O4 2.549930 1_545
Hg2 O2 2.166001 1_455
Hg2 O7 2.166001 1_555
Hg2 O9 2.509727 1_545
Hg2 O1 2.509727 1_455
Hg2 O13 2.509733 1_555
Hg2 O11 2.509733 1_445
Hg2 O5 2.549930 1_455
Hg2 O6 2.549930 1_545
O0 Pt0 1.972106 1_555
O0 Pt2 1.977045 1_555
O0 O11 2.650071 1_545
O0 O9 2.650079 1_545
O0 O8 2.661448 1_554
O0 O10 2.661456 1_554
O1 Pt1 1.972105 1_555
O1 Pt2 1.977050 1_555
O1 O12 2.650079 1_545
O1 O11 2.650079 1_545
O1 O5 2.661444 1_555
O1 O10 2.661445 1_555
O3 Pt0 1.978664 1_555
O3 Pt3 1.978664 1_555
O3 O5 2.557694 1_455
O4 Pt1 1.978663 1_555
O4 Pt0 1.978670 1_555
O4 O5 2.557682 1_555
O4 O8 2.557694 1_554
O4 O9 2.661445 1_555
O5 Pt1 1.978663 1_555
O5 Pt3 1.978670 1_655
O6 Pt1 1.978663 1_555
O6 Pt3 1.978670 1_555
O6 O8 2.557694 1_455
O6 O9 2.661444 1_555
O8 Pt0 1.978664 1_556
O8 Pt3 1.978664 1_655
O9 Pt1 1.972105 1_555
O9 Pt2 1.977050 1_565
O10 Pt1 1.978663 1_555
O10 Pt0 1.978670 1_556
O10 O6 2.557682 1_555
O10 O3 2.557694 1_556
O11 Pt3 1.972106 1_655
O11 Pt2 1.977045 1_565
O11 O3 2.661448 1_655
O11 O6 2.661456 1_655
O12 Pt0 1.972106 1_556
O12 Pt2 1.977045 1_565
O12 O13 2.650071 1_565
O12 O3 2.661448 1_556
O12 O4 2.661456 1_556
O13 Pt3 1.972106 1_555
O13 Pt2 1.977045 1_555
O13 O9 2.650079 1_545
O13 O8 2.661448 1_455
O13 O5 2.661456 1_455
