# generated using pymatgen
data_Ta4MnB2P
_symmetry_space_group_name_H-M   'P 1'
_cell_length_a   7.14641604
_cell_length_b   7.14641648
_cell_length_c   7.14641511
_cell_angle_alpha   130.43240075
_cell_angle_beta   130.43240685
_cell_angle_gamma   72.71643872
_symmetry_Int_Tables_number   1
_chemical_formula_structural   Ta4MnB2P
_chemical_formula_sum   'Ta8 Mn2 B4 P2'
_cell_volume   206.59969978
_cell_formula_units_Z   2
loop_
 _symmetry_equiv_pos_site_id
 _symmetry_equiv_pos_as_xyz
  1  'x, y, z'
loop_
 _atom_site_type_symbol
 _atom_site_label
 _atom_site_symmetry_multiplicity
 _atom_site_fract_x
 _atom_site_fract_y
 _atom_site_fract_z
 _atom_site_occupancy
  Ta  Ta0  1  0.19054847  0.69054847  0.15725602  1
  Ta  Ta1  1  0.46670755  0.96670755  0.15725602  1
  Ta  Ta2  1  0.53329245  0.03329245  0.84274398  1
  Ta  Ta3  1  0.03329245  0.19054847  0.50000000  1
  Ta  Ta4  1  0.69054847  0.53329245  0.50000000  1
  Ta  Ta5  1  0.96670755  0.80945153  0.50000000  1
  Ta  Ta6  1  0.30945153  0.46670755  0.50000000  1
  Ta  Ta7  1  0.80945153  0.30945153  0.84274398  1
  Mn  Mn0  1  0.00000000  0.00000000  0.00000000  1
  Mn  Mn1  1  0.50000000  0.50000000  0.00000000  1
  B  B0  1  0.88387229  0.38387229  0.26774358  1
  B  B1  1  0.38387229  0.11612771  0.50000000  1
  B  B2  1  0.61612771  0.88387229  0.50000000  1
  B  B3  1  0.11612771  0.61612771  0.73225642  1
  P  P0  1  0.75000000  0.75000000  0.00000000  1
  P  P1  1  0.25000000  0.25000000  0.00000000  1
loop_
_geom_bond_atom_site_label_1
_geom_bond_atom_site_label_2
_geom_bond_distance
_geom_bond_site_symmetry_2
Ta0 Ta7 2.900657 1_454
Ta0 Ta2 2.904153 1_565
Ta0 Ta6 3.294752 1_555
Ta0 Ta5 3.294752 1_455
Ta1 Ta2 2.900657 1_564
Ta1 Ta7 2.904153 1_565
Ta1 Ta3 3.294752 1_665
Ta1 Ta4 3.294753 1_565
Ta2 Ta5 3.294752 1_445
Ta2 Ta6 3.294753 1_545
Ta3 Ta5 2.900657 1_445
Ta3 Ta4 2.904154 1_455
Ta3 Ta7 3.294752 1_455
Ta4 Ta6 2.900657 1_555
Ta4 Ta7 3.294752 1_555
Ta5 Ta6 2.904154 1_655
Mn0 Ta3 2.730777 1_555
Mn0 Ta5 2.730777 1_444
Mn0 Ta1 2.730777 1_545
Mn0 Ta2 2.730777 1_454
Mn0 Ta7 2.730777 1_454
Mn0 Ta0 2.730777 1_545
Mn0 Ta6 2.730777 1_555
Mn0 Ta4 2.730777 1_444
Mn0 P0 2.877599 1_445
Mn0 P1 2.877599 1_555
Mn1 Ta6 2.730777 1_554
Mn1 Ta4 2.730777 1_555
Mn1 Ta3 2.730777 1_554
Mn1 Ta5 2.730777 1_555
Mn1 Ta7 2.730777 1_554
Mn1 Ta0 2.730777 1_555
Mn1 Ta1 2.730777 1_555
Mn1 Ta2 2.730777 1_554
Mn1 P0 2.877599 1_555
Mn1 P1 2.877599 1_555
B0 B3 1.967965 1_655
B0 Ta6 2.367016 1_655
B0 Ta5 2.367016 1_555
B0 Ta3 2.367023 1_655
B0 Ta4 2.367023 1_555
B0 Ta7 2.401674 1_554
B0 Ta2 2.401682 1_554
B0 Mn1 2.402903 1_555
B0 Mn0 2.402903 1_655
B1 B2 1.967957 1_545
B1 Ta2 2.367018 1_555
B1 Ta1 2.367018 1_545
B1 Ta7 2.367018 1_555
B1 Ta0 2.367018 1_545
B1 Ta3 2.401682 1_555
B1 Ta6 2.401682 1_555
B1 Mn0 2.402905 1_555
B1 Mn1 2.402905 1_556
B2 Ta1 2.367018 1_555
B2 Ta2 2.367018 1_565
B2 Ta0 2.367018 1_555
B2 Ta7 2.367018 1_565
B2 Ta5 2.401682 1_555
B2 Ta4 2.401682 1_555
B2 Mn0 2.402905 1_666
B2 Mn1 2.402905 1_555
B3 Ta4 2.367016 1_455
B3 Ta3 2.367016 1_555
B3 Ta5 2.367023 1_455
B3 Ta6 2.367023 1_555
B3 Ta0 2.401674 1_556
B3 Ta1 2.401682 1_556
B3 Mn1 2.402903 1_556
B3 Mn0 2.402903 1_566
P0 Ta5 2.567234 1_555
P0 Ta4 2.567235 1_554
P0 Ta6 2.567235 1_554
P0 Ta0 2.567235 1_655
P0 Ta2 2.567235 1_564
P0 Ta3 2.567235 1_665
P0 Ta1 2.567235 1_555
P0 Ta7 2.567235 1_554
P1 Ta3 2.567234 1_554
P1 Ta6 2.567235 1_555
P1 Ta4 2.567235 1_555
P1 Ta7 2.567235 1_454
P1 Ta1 2.567235 1_545
P1 Ta5 2.567235 1_444
P1 Ta2 2.567235 1_554
P1 Ta0 2.567235 1_555
