# generated using pymatgen
data_LiMnPdPt
_symmetry_space_group_name_H-M   'P 1'
_cell_length_a   4.29893876
_cell_length_b   4.29893913
_cell_length_c   4.29893892
_cell_angle_alpha   59.99999407
_cell_angle_beta   59.99999121
_cell_angle_gamma   59.99999263
_symmetry_Int_Tables_number   1
_chemical_formula_structural   LiMnPdPt
_chemical_formula_sum   'Li1 Mn1 Pd1 Pt1'
_cell_volume   56.17832135
_cell_formula_units_Z   1
loop_
 _symmetry_equiv_pos_site_id
 _symmetry_equiv_pos_as_xyz
  1  'x, y, z'
loop_
 _atom_site_type_symbol
 _atom_site_label
 _atom_site_symmetry_multiplicity
 _atom_site_fract_x
 _atom_site_fract_y
 _atom_site_fract_z
 _atom_site_occupancy
  Li  Li0  1  0.25000000  0.25000000  0.25000000  1
  Mn  Mn0  1  0.75000000  0.75000000  0.75000000  1
  Pd  Pd0  1  0.50000000  0.50000000  0.50000000  1
  Pt  Pt0  1  0.00000000  0.00000000  0.00000000  1
loop_
_geom_bond_atom_site_label_1
_geom_bond_atom_site_label_2
_geom_bond_distance
_geom_bond_site_symmetry_2
Li0 Pd0 2.632551 1_455
Li0 Pt0 2.632551 1_655
Li0 Pt0 2.632551 1_556
Li0 Pd0 2.632551 1_554
Li0 Pt0 2.632552 1_565
Li0 Pd0 2.632552 1_545
Li0 Pt0 2.632552 1_555
Li0 Pd0 2.632552 1_555
Li0 Mn0 3.039809 1_455
Li0 Mn0 3.039809 1_544
Li0 Mn0 3.039809 1_454
Li0 Mn0 3.039809 1_545
Li0 Mn0 3.039809 1_445
Li0 Mn0 3.039809 1_554
Mn0 Pt0 2.632551 1_566
Mn0 Pd0 2.632551 1_655
Mn0 Pt0 2.632551 1_665
Mn0 Pd0 2.632551 1_556
Mn0 Pd0 2.632552 1_565
Mn0 Pt0 2.632552 1_656
Mn0 Pd0 2.632552 1_555
Mn0 Pt0 2.632552 1_666
Pd0 Pt0 3.039809 1_566
Pd0 Pt0 3.039809 1_655
Pd0 Pt0 3.039809 1_656
Pd0 Pt0 3.039809 1_565
Pd0 Pt0 3.039809 1_665
Pd0 Pt0 3.039809 1_556
