# generated using pymatgen
data_KRbP2Pt
_symmetry_space_group_name_H-M   'P 1'
_cell_length_a   7.50242428
_cell_length_b   7.50242467
_cell_length_c   6.16859607
_cell_angle_alpha   90.00000000
_cell_angle_beta   90.00000000
_cell_angle_gamma   128.03223876
_symmetry_Int_Tables_number   1
_chemical_formula_structural   KRbP2Pt
_chemical_formula_sum   'K2 Rb2 P4 Pt2'
_cell_volume   273.48323634
_cell_formula_units_Z   2
loop_
 _symmetry_equiv_pos_site_id
 _symmetry_equiv_pos_as_xyz
  1  'x, y, z'
loop_
 _atom_site_type_symbol
 _atom_site_label
 _atom_site_symmetry_multiplicity
 _atom_site_fract_x
 _atom_site_fract_y
 _atom_site_fract_z
 _atom_site_occupancy
  K  K0  1  0.78908660  0.21091340  0.25000000  1
  K  K1  1  0.21091340  0.78908660  0.75000000  1
  Rb  Rb0  1  0.41149717  0.58850283  0.25000000  1
  Rb  Rb1  1  0.58850283  0.41149717  0.75000000  1
  P  P0  1  0.94510160  0.72432905  0.25000000  1
  P  P1  1  0.05489840  0.27567095  0.75000000  1
  P  P2  1  0.27567095  0.05489840  0.25000000  1
  P  P3  1  0.72432905  0.94510160  0.75000000  1
  Pt  Pt0  1  0.00000000  0.00000000  0.00000000  1
  Pt  Pt1  1  0.00000000  0.00000000  0.50000000  1
loop_
_geom_bond_atom_site_label_1
_geom_bond_atom_site_label_2
_geom_bond_distance
_geom_bond_site_symmetry_2
K0 Pt1 3.235932 1_655
K0 Pt0 3.235932 1_655
K0 P2 3.263647 1_555
K0 P0 3.263647 1_555
K0 P1 3.540062 1_654
K0 P1 3.540062 1_655
K0 P3 3.540062 1_544
K0 P3 3.540062 1_545
K0 Rb0 3.678332 1_655
K0 Rb0 3.678332 1_545
K0 Rb1 4.102757 1_554
K0 Rb1 4.102757 1_555
K1 Pt0 3.235932 1_566
K1 Pt1 3.235932 1_565
K1 P3 3.263647 1_555
K1 P1 3.263647 1_555
K1 P0 3.540062 1_455
K1 P0 3.540062 1_456
K1 P2 3.540062 1_565
K1 P2 3.540062 1_566
K1 Rb1 3.678332 1_455
K1 Rb1 3.678332 1_565
K1 Rb0 4.102757 1_556
K1 Rb0 4.102757 1_555
Rb0 Rb1 3.900375 1_554
Rb0 Rb1 3.900375 1_555
P0 P2 2.173129 1_665
P0 Pt0 2.403264 1_665
P0 Pt1 2.403264 1_665
P0 Rb0 3.469618 1_555
P0 Rb1 3.800225 1_554
P0 Rb1 3.800225 1_555
P0 Rb0 4.204254 1_655
P1 P3 2.173129 1_445
P1 Pt1 2.403264 1_555
P1 Pt0 2.403264 1_556
P1 Rb1 3.469618 1_555
P1 Rb0 3.800225 1_556
P1 Rb0 3.800225 1_555
P1 Rb1 4.204254 1_455
P2 Pt1 2.403264 1_555
P2 Pt0 2.403264 1_555
P2 Rb0 3.469618 1_555
P2 Rb1 3.800225 1_554
P2 Rb1 3.800225 1_555
P2 Rb0 4.204254 1_545
P3 Pt0 2.403264 1_666
P3 Pt1 2.403264 1_665
P3 Rb1 3.469618 1_555
P3 Rb0 3.800225 1_556
P3 Rb0 3.800225 1_555
P3 Rb1 4.204254 1_565
Pt0 Pt1 3.084298 1_554
Pt0 Pt1 3.084298 1_555
Pt0 Rb1 3.821945 1_554
Pt0 Rb0 3.821945 1_445
Pt0 Rb0 3.821945 1_555
Pt0 Rb1 3.821945 1_444
Pt1 Rb1 3.821945 1_555
Pt1 Rb0 3.821945 1_445
Pt1 Rb0 3.821945 1_555
Pt1 Rb1 3.821945 1_445
