# generated using pymatgen
data_NbHg4Sb3O14
_symmetry_space_group_name_H-M   'P 1'
_cell_length_a   7.42689461
_cell_length_b   7.42689493
_cell_length_c   7.42689455
_cell_angle_alpha   59.31241464
_cell_angle_beta   59.31241022
_cell_angle_gamma   59.31241352
_symmetry_Int_Tables_number   1
_chemical_formula_structural   NbHg4Sb3O14
_chemical_formula_sum   'Nb1 Hg4 Sb3 O14'
_cell_volume   285.13729601
_cell_formula_units_Z   1
loop_
 _symmetry_equiv_pos_site_id
 _symmetry_equiv_pos_as_xyz
  1  'x, y, z'
loop_
 _atom_site_type_symbol
 _atom_site_label
 _atom_site_symmetry_multiplicity
 _atom_site_fract_x
 _atom_site_fract_y
 _atom_site_fract_z
 _atom_site_occupancy
  Nb  Nb0  1  0.12500000  0.12500000  0.12500000  1
  Hg  Hg0  1  0.62500000  0.62500000  0.62500000  1
  Hg  Hg1  1  0.62500000  0.12500000  0.62500000  1
  Hg  Hg2  1  0.62500000  0.62500000  0.12500000  1
  Hg  Hg3  1  0.12500000  0.62500000  0.62500000  1
  Sb  Sb0  1  0.12500000  0.62500000  0.12500000  1
  Sb  Sb1  1  0.12500000  0.12500000  0.62500000  1
  Sb  Sb2  1  0.62500000  0.12500000  0.12500000  1
  O  O0  1  0.80422723  0.80422723  0.19772266  1
  O  O1  1  0.80422723  0.19772266  0.80422723  1
  O  O2  1  0.05956129  0.05956129  0.44383410  1
  O  O3  1  0.80616590  0.19043871  0.19043871  1
  O  O4  1  0.44577277  0.44577277  0.05227734  1
  O  O5  1  0.05956129  0.44383410  0.05956129  1
  O  O6  1  0.19772266  0.80422723  0.80422723  1
  O  O7  1  0.44577277  0.05227734  0.44577277  1
  O  O8  1  0.49753385  0.49753385  0.49753385  1
  O  O9  1  0.19043871  0.80616590  0.19043871  1
  O  O10  1  0.19043871  0.19043871  0.80616590  1
  O  O11  1  0.75246615  0.75246615  0.75246615  1
  O  O12  1  0.44383410  0.05956129  0.05956129  1
  O  O13  1  0.05227734  0.44577277  0.44577277  1
loop_
_geom_bond_atom_site_label_1
_geom_bond_atom_site_label_2
_geom_bond_distance
_geom_bond_site_symmetry_2
Nb0 O10 1.992818 1_554
Nb0 O2 1.992818 1_555
Nb0 O12 1.992818 1_555
Nb0 O3 1.992818 1_455
Nb0 O5 1.992818 1_555
Nb0 O9 1.992818 1_545
Hg0 O11 2.330854 1_555
Hg0 O8 2.330854 1_555
Hg0 O13 2.607534 1_655
Hg0 O6 2.607534 1_555
Hg0 O4 2.607534 1_556
Hg0 O0 2.607534 1_555
Hg0 O7 2.607534 1_565
Hg0 O1 2.607534 1_555
Hg1 O8 2.239462 1_555
Hg1 O11 2.239462 1_545
Hg1 O12 2.664000 1_556
Hg1 O3 2.664000 1_555
Hg1 O2 2.664000 1_655
Hg1 O10 2.664000 1_555
Hg1 O1 2.666750 1_555
Hg1 O7 2.666750 1_555
Hg2 O8 2.239462 1_555
Hg2 O11 2.239462 1_554
Hg2 O5 2.664000 1_655
Hg2 O9 2.664000 1_555
Hg2 O12 2.664000 1_565
Hg2 O3 2.664000 1_555
Hg2 O0 2.666750 1_555
Hg2 O4 2.666750 1_555
Hg3 O8 2.239462 1_555
Hg3 O11 2.239462 1_455
Hg3 O5 2.664000 1_556
Hg3 O9 2.664000 1_555
Hg3 O2 2.664000 1_565
Hg3 O10 2.664000 1_555
Hg3 O6 2.666750 1_555
Hg3 O13 2.666750 1_555
O0 Sb0 1.980592 1_655
O0 Sb2 1.980592 1_565
O0 O7 2.706875 1_565
O0 O13 2.706875 1_655
O0 O5 2.729385 1_655
O0 O12 2.729385 1_565
O1 Sb1 1.980592 1_655
O1 Sb2 1.980592 1_556
O1 O4 2.706875 1_556
O1 O13 2.706875 1_655
O1 O2 2.729384 1_655
O1 O12 2.729384 1_556
O2 Sb1 1.964384 1_555
O2 O6 2.729385 1_545
O3 Sb2 1.964384 1_555
O3 O7 2.729384 1_555
O3 O4 2.729385 1_555
O4 Sb0 1.980592 1_555
O4 Sb2 1.980592 1_555
O4 O6 2.706875 1_554
O4 O9 2.729385 1_555
O5 Sb0 1.964384 1_555
O5 O6 2.729385 1_554
O6 Sb0 1.980592 1_556
O6 Sb1 1.980592 1_565
O6 O7 2.706875 1_565
O7 Sb1 1.980592 1_555
O7 Sb2 1.980592 1_555
O9 Sb0 1.964384 1_555
O10 Sb1 1.964384 1_555
O10 O7 2.729384 1_555
O10 O13 2.729385 1_555
O12 Sb2 1.964384 1_555
O13 Sb0 1.980592 1_555
O13 Sb1 1.980592 1_555
O13 O9 2.729385 1_555
