# generated using pymatgen
data_YSn6(RuRh)2
_symmetry_space_group_name_H-M   'P 1'
_cell_length_a   6.90284731
_cell_length_b   6.88745208
_cell_length_c   6.90284749
_cell_angle_alpha   120.01278081
_cell_angle_beta   119.93808013
_cell_angle_gamma   90.10673374
_symmetry_Int_Tables_number   1
_chemical_formula_structural   YSn6(RuRh)2
_chemical_formula_sum   'Y1 Sn6 Ru2 Rh2'
_cell_volume   232.01550294
_cell_formula_units_Z   1
loop_
 _symmetry_equiv_pos_site_id
 _symmetry_equiv_pos_as_xyz
  1  'x, y, z'
loop_
 _atom_site_type_symbol
 _atom_site_label
 _atom_site_symmetry_multiplicity
 _atom_site_fract_x
 _atom_site_fract_y
 _atom_site_fract_z
 _atom_site_occupancy
  Y  Y0  1  0.98891697  1.00000000  0.98891697  1
  Sn  Sn0  1  0.87527591  0.53677834  0.00365818  1
  Sn  Sn1  1  0.53974441  0.87803950  0.00815060  1
  Sn  Sn2  1  0.13011110  0.12196050  0.66170491  1
  Sn  Sn3  1  0.99996970  0.50000000  0.49996970  1
  Sn  Sn4  1  0.46687984  0.46322166  0.33849757  1
  Sn  Sn5  1  0.50146730  0.00000000  0.50146730  1
  Ru  Ru0  1  0.60381586  0.24294406  0.99927728  1
  Ru  Ru1  1  0.75633322  0.75705594  0.36087180  1
  Rh  Rh0  1  0.24165198  0.60289515  0.99872787  1
  Rh  Rh1  1  0.39583271  0.39710485  0.63875683  1
loop_
_geom_bond_atom_site_label_1
_geom_bond_atom_site_label_2
_geom_bond_distance
_geom_bond_site_symmetry_2
Sn0 Sn3 3.235412 1_555
Sn0 Sn5 3.249403 1_554
Sn0 Y0 3.346579 1_554
Sn0 Y0 3.742715 1_544
Sn1 Sn5 3.226261 1_565
Sn1 Sn3 3.278493 1_454
Sn1 Y0 3.293858 1_554
Sn1 Y0 3.847094 1_454
Sn2 Sn5 3.226261 1_555
Sn2 Sn3 3.278493 1_455
Sn2 Y0 3.293858 1_445
Sn2 Y0 3.847094 1_444
Sn3 Sn4 3.235412 1_555
Sn3 Y0 3.447761 1_544
Sn3 Y0 3.447761 1_555
Sn4 Sn5 3.249403 1_565
Sn4 Y0 3.346579 1_444
Sn4 Y0 3.742715 1_555
Sn5 Y0 3.367939 1_545
Sn5 Y0 3.541368 1_444
Ru0 Sn1 2.587034 1_546
Ru0 Sn5 2.632012 1_555
Ru0 Sn3 2.642873 1_556
Ru0 Sn2 2.694185 1_555
Ru0 Sn4 2.709047 1_556
Ru0 Sn0 2.734218 1_556
Ru0 Ru1 2.897969 1_556
Ru0 Y0 3.155642 1_545
Ru1 Sn2 2.587034 1_665
Ru1 Sn5 2.632012 1_565
Ru1 Sn3 2.642873 1_555
Ru1 Sn1 2.694185 1_555
Ru1 Sn0 2.709047 1_555
Ru1 Sn4 2.734218 1_555
Ru1 Y0 3.155642 1_555
Rh0 Sn0 2.588761 1_456
Rh0 Sn3 2.638273 1_455
Rh0 Sn5 2.648484 1_566
Rh0 Sn4 2.732488 1_556
Rh0 Sn2 2.733262 1_555
Rh0 Sn1 2.749194 1_556
Rh0 Rh1 2.904816 1_555
Rh0 Ru1 2.909406 1_556
Rh0 Y0 3.257879 1_455
Rh1 Sn4 2.588761 1_555
Rh1 Sn3 2.638273 1_455
Rh1 Sn5 2.648484 1_555
Rh1 Sn0 2.732487 1_556
Rh1 Sn1 2.733262 1_556
Rh1 Sn2 2.749194 1_555
Rh1 Ru0 2.909406 1_555
Rh1 Y0 3.257879 1_444
