# generated using pymatgen
data_MnAl2VOs4
_symmetry_space_group_name_H-M   'P 1'
_cell_length_a   4.23749990
_cell_length_b   4.23750010
_cell_length_c   7.32000949
_cell_angle_alpha   73.18532017
_cell_angle_beta   106.81468107
_cell_angle_gamma   119.98592459
_symmetry_Int_Tables_number   1
_chemical_formula_structural   MnAl2VOs4
_chemical_formula_sum   'Mn1 Al2 V1 Os4'
_cell_volume   107.30743228
_cell_formula_units_Z   1
loop_
 _symmetry_equiv_pos_site_id
 _symmetry_equiv_pos_as_xyz
  1  'x, y, z'
loop_
 _atom_site_type_symbol
 _atom_site_label
 _atom_site_symmetry_multiplicity
 _atom_site_fract_x
 _atom_site_fract_y
 _atom_site_fract_z
 _atom_site_occupancy
  Mn  Mn0  1  0.37500000  0.62500000  0.12500000  1
  Al  Al0  1  0.12459534  0.87540466  0.37365287  1
  Al  Al1  1  0.62540466  0.37459534  0.87634713  1
  V  V0  1  0.87500000  0.12500000  0.62500000  1
  Os  Os0  1  0.74982509  0.25017491  0.24952716  1
  Os  Os1  1  0.25008656  0.74991344  0.75031394  1
  Os  Os2  1  0.00017491  0.99982509  0.00047284  1
  Os  Os3  1  0.49991344  0.50008656  0.49968606  1
loop_
_geom_bond_atom_site_label_1
_geom_bond_atom_site_label_2
_geom_bond_distance
_geom_bond_site_symmetry_2
Mn0 Os3 2.585150 1_555
Mn0 Os1 2.585150 1_554
Mn0 Os2 2.592845 1_555
Mn0 Os0 2.592845 1_555
Mn0 Os2 2.593324 1_655
Mn0 Os0 2.593324 1_455
Mn0 Os0 2.593324 1_565
Mn0 Os2 2.593324 1_545
Al0 Os2 2.574759 1_555
Al0 Os0 2.592135 1_565
Al0 Os0 2.592135 1_455
Al0 Os0 2.592475 1_465
Al0 Os3 2.596246 1_555
Al0 Os3 2.596816 1_455
Al0 Os3 2.596816 1_565
Al0 Os1 2.598776 1_555
Al0 Mn0 2.987462 1_555
Al0 Mn0 2.988620 1_455
Al0 Mn0 2.988620 1_565
Al0 V0 2.998705 1_465
Al0 V0 2.999064 1_565
Al0 V0 2.999065 1_455
Al1 Os0 2.574759 1_556
Al1 Os2 2.592135 1_546
Al1 Os2 2.592135 1_656
Al1 Os2 2.592475 1_646
Al1 Os1 2.596246 1_555
Al1 Os1 2.596816 1_655
Al1 Os1 2.596816 1_545
Al1 Os3 2.598776 1_555
Al1 Mn0 2.987462 1_556
Al1 Mn0 2.988620 1_656
Al1 Mn0 2.988620 1_546
Al1 V0 2.998705 1_555
Al1 V0 2.999064 1_455
Al1 V0 2.999065 1_565
Os0 V0 2.590578 1_555
Os0 Os2 2.989528 1_645
Os0 Os2 2.989973 1_545
Os0 Os2 2.989974 1_655
Os0 Os3 2.993494 1_555
Os0 Os3 2.994570 1_655
Os0 Os3 2.994570 1_545
Os1 V0 2.594644 1_465
Os1 V0 2.595130 1_565
Os1 V0 2.595130 1_455
Os1 Os2 2.993494 1_556
Os1 Os2 2.994570 1_656
Os1 Os2 2.994570 1_546
Os1 Os3 2.995789 1_555
Os1 Os3 2.996222 1_455
Os1 Os3 2.996222 1_565
Os2 V0 2.590578 1_464
Os3 V0 2.594644 1_555
Os3 V0 2.595130 1_455
Os3 V0 2.595130 1_565
