# generated using pymatgen
data_LiSc3Ag2Sn3
_symmetry_space_group_name_H-M   'P 1'
_cell_length_a   8.30577043
_cell_length_b   8.30577042
_cell_length_c   8.30577016
_cell_angle_alpha   129.72115476
_cell_angle_beta   116.57107048
_cell_angle_gamma   85.04580102
_symmetry_Int_Tables_number   1
_chemical_formula_structural   LiSc3Ag2Sn3
_chemical_formula_sum   'Li2 Sc6 Ag4 Sn6'
_cell_volume   377.22953031
_cell_formula_units_Z   2
loop_
 _symmetry_equiv_pos_site_id
 _symmetry_equiv_pos_as_xyz
  1  'x, y, z'
loop_
 _atom_site_type_symbol
 _atom_site_label
 _atom_site_symmetry_multiplicity
 _atom_site_fract_x
 _atom_site_fract_y
 _atom_site_fract_z
 _atom_site_occupancy
  Li  Li0  1  0.00000000  0.01133859  0.01133859  1
  Li  Li1  1  0.50000000  0.01133859  0.51133859  1
  Sc  Sc0  1  0.02857061  0.80349002  0.27491940  1
  Sc  Sc1  1  0.97142939  0.24634979  0.77491940  1
  Sc  Sc2  1  0.47152824  0.24633251  0.27480427  1
  Sc  Sc3  1  0.52847176  0.80327503  0.77480427  1
  Sc  Sc4  1  0.75000203  0.67668969  0.42668667  1
  Sc  Sc5  1  0.24999797  0.67668464  0.92668667  1
  Ag  Ag0  1  0.62182139  0.48381724  0.86217152  1
  Ag  Ag1  1  0.37817861  0.24035213  0.86199786  1
  Ag  Ag2  1  0.87835427  0.24035213  0.36217152  1
  Ag  Ag3  1  0.12164573  0.48381724  0.36199786  1
  Sn  Sn0  1  0.25004623  0.22922291  0.47917668  1
  Sn  Sn1  1  0.74995377  0.22913046  0.97917668  1
  Sn  Sn2  1  0.83789879  0.58635891  0.74848489  1
  Sn  Sn3  1  0.16210121  0.91058610  0.74846012  1
  Sn  Sn4  1  0.66212598  0.91058610  0.24848489  1
  Sn  Sn5  1  0.33787402  0.58635891  0.24846012  1
loop_
_geom_bond_atom_site_label_1
_geom_bond_atom_site_label_2
_geom_bond_distance
_geom_bond_site_symmetry_2
Li0 Sn0 2.670057 1_555
Li0 Sn1 2.670057 1_454
Li0 Sn3 2.716670 1_544
Li0 Sn2 2.716670 1_444
Li0 Sc5 3.216094 1_544
Li0 Sc4 3.216094 1_444
Li0 Sc0 3.481993 1_545
Li0 Sc1 3.482000 1_454
Li0 Sc2 3.482913 1_555
Li0 Sc3 3.482915 1_444
Li1 Sn1 2.670057 1_555
Li1 Sn0 2.670057 1_555
Li1 Sn4 2.716670 1_545
Li1 Sn5 2.716670 1_545
Li1 Sc4 3.216088 1_545
Li1 Sc5 3.216093 1_544
Li1 Sc0 3.481993 1_545
Li1 Sc1 3.481995 1_555
Li1 Sc2 3.482913 1_555
Li1 Sc3 3.482920 1_545
Sc0 Sn2 3.016419 1_454
Sc0 Sn5 3.016419 1_555
Sc0 Sn3 3.047483 1_555
Sc0 Sn4 3.047484 1_455
Sc0 Sn0 3.070814 1_565
Sc0 Sc4 3.574678 1_455
Sc0 Sc1 3.597154 1_454
Sc0 Sc1 3.597161 1_465
Sc0 Sc5 3.658973 1_554
Sc1 Sn4 3.016419 1_545
Sc1 Sn3 3.016426 1_645
Sc1 Sn2 3.047476 1_555
Sc1 Sn5 3.047482 1_656
Sc1 Sn1 3.070817 1_555
Sc1 Sc5 3.574676 1_655
Sc1 Sc4 3.658973 1_545
Sc2 Sn3 3.016342 1_544
Sc2 Sn4 3.016342 1_545
Sc2 Sn2 3.047493 1_555
Sc2 Sn5 3.047493 1_555
Sc2 Sn0 3.071264 1_555
Sc2 Sc4 3.573826 1_555
Sc2 Sc3 3.596684 1_555
Sc2 Sc3 3.596691 1_544
Sc2 Sc5 3.659361 1_544
Sc3 Sn2 3.016338 1_555
Sc3 Sn5 3.016344 1_555
Sc3 Sn4 3.047489 1_556
Sc3 Sn3 3.047495 1_555
Sc3 Sn1 3.071271 1_565
Sc3 Sc5 3.573814 1_555
Sc3 Sc4 3.659365 1_555
Sc4 Sn4 2.993519 1_555
Sc4 Sn3 2.993525 1_655
Sc4 Sn5 2.993718 1_555
Sc4 Sn2 2.993724 1_555
Sc4 Sn1 3.158061 1_554
Sc5 Sn5 2.993527 1_556
Sc5 Sn2 2.993527 1_455
Sc5 Sn4 2.993717 1_556
Sc5 Sn3 2.993717 1_555
Sc5 Sn0 3.158058 1_555
Ag0 Sn2 2.765108 1_555
Ag0 Sn4 2.771181 1_556
Ag0 Sn1 2.804497 1_555
Ag0 Sn0 2.805090 1_555
Ag0 Li1 2.889249 1_555
Ag0 Ag1 2.980726 1_555
Ag0 Sc0 3.125704 1_656
Ag0 Sc3 3.125726 1_555
Ag0 Sc4 3.451485 1_556
Ag0 Sc1 3.451624 1_555
Ag0 Sc5 3.452479 1_555
Ag0 Sc2 3.453585 1_555
Ag1 Sn3 2.765112 1_545
Ag1 Sn5 2.771167 1_556
Ag1 Sn0 2.804502 1_555
Ag1 Sn1 2.805094 1_555
Ag1 Li1 2.889261 1_555
Ag1 Sc1 3.125699 1_455
Ag1 Sc2 3.125728 1_556
Ag1 Sc5 3.451479 1_555
Ag1 Sc0 3.451637 1_545
Ag1 Sc4 3.452472 1_556
Ag1 Sc3 3.453602 1_545
Ag2 Sn4 2.765121 1_545
Ag2 Sn2 2.771176 1_555
Ag2 Sn0 2.804500 1_655
Ag2 Sn1 2.805079 1_554
Ag2 Li0 2.889248 1_655
Ag2 Ag3 2.980701 1_655
Ag2 Sc1 3.125709 1_555
Ag2 Sc2 3.125732 1_555
Ag2 Sc5 3.451483 1_655
Ag2 Sc0 3.451642 1_645
Ag2 Sc4 3.452472 1_555
Ag2 Sc3 3.453590 1_544
Ag3 Sn5 2.765121 1_555
Ag3 Sn3 2.771176 1_555
Ag3 Sn1 2.804500 1_454
Ag3 Sn0 2.805079 1_555
Ag3 Li0 2.889248 1_555
Ag3 Sc0 3.125715 1_555
Ag3 Sc3 3.125730 1_555
Ag3 Sc4 3.451486 1_455
Ag3 Sc1 3.451644 1_454
Ag3 Sc5 3.452464 1_555
Ag3 Sc2 3.453589 1_555
