# generated using pymatgen
data_CsGe2HO5
_symmetry_space_group_name_H-M   'P 1'
_cell_length_a   5.04849835
_cell_length_b   8.95866155
_cell_length_c   12.90147805
_cell_angle_alpha   90.00000000
_cell_angle_beta   90.00000000
_cell_angle_gamma   90.00000000
_symmetry_Int_Tables_number   1
_chemical_formula_structural   CsGe2HO5
_chemical_formula_sum   'Cs4 Ge8 H4 O20'
_cell_volume   583.50531434
_cell_formula_units_Z   4
loop_
 _symmetry_equiv_pos_site_id
 _symmetry_equiv_pos_as_xyz
  1  'x, y, z'
loop_
 _atom_site_type_symbol
 _atom_site_label
 _atom_site_symmetry_multiplicity
 _atom_site_fract_x
 _atom_site_fract_y
 _atom_site_fract_z
 _atom_site_occupancy
  Cs  Cs0  1  0.03962028  0.25000000  0.52661395  1
  Cs  Cs1  1  0.46037972  0.25000000  0.02661395  1
  Cs  Cs2  1  0.96037972  0.75000000  0.47338605  1
  Cs  Cs3  1  0.53962028  0.75000000  0.97338605  1
  Ge  Ge0  1  0.51165006  0.57011870  0.69094553  1
  Ge  Ge1  1  0.98834994  0.92988130  0.19094553  1
  Ge  Ge2  1  0.48834994  0.07011870  0.30905447  1
  Ge  Ge3  1  0.01165006  0.42988130  0.80905447  1
  Ge  Ge4  1  0.48834994  0.42988130  0.30905447  1
  Ge  Ge5  1  0.01165006  0.07011870  0.80905447  1
  Ge  Ge6  1  0.51165006  0.92988130  0.69094553  1
  Ge  Ge7  1  0.98834994  0.57011870  0.19094553  1
  H  H0  1  0.50000000  0.00000000  0.50000000  1
  H  H1  1  0.00000000  0.50000000  0.00000000  1
  H  H2  1  0.50000000  0.50000000  0.50000000  1
  H  H3  1  0.00000000  0.00000000  0.00000000  1
  O  O0  1  0.28477843  0.55137858  0.79443578  1
  O  O1  1  0.21522157  0.94862142  0.29443578  1
  O  O2  1  0.71522157  0.05137858  0.20556422  1
  O  O3  1  0.78477843  0.44862142  0.70556422  1
  O  O4  1  0.71522157  0.44862142  0.20556422  1
  O  O5  1  0.78477843  0.05137858  0.70556422  1
  O  O6  1  0.28477843  0.94862142  0.79443578  1
  O  O7  1  0.21522157  0.55137858  0.29443578  1
  O  O8  1  0.36777479  0.54163109  0.57209424  1
  O  O9  1  0.13222521  0.95836891  0.07209424  1
  O  O10  1  0.63222521  0.04163109  0.42790576  1
  O  O11  1  0.86777479  0.45836891  0.92790576  1
  O  O12  1  0.63222521  0.45836891  0.42790576  1
  O  O13  1  0.86777479  0.04163109  0.92790576  1
  O  O14  1  0.36777479  0.95836891  0.57209424  1
  O  O15  1  0.13222521  0.54163109  0.07209424  1
  O  O16  1  0.15092019  0.25000000  0.79049207  1
  O  O17  1  0.34907981  0.25000000  0.29049207  1
  O  O18  1  0.84907981  0.75000000  0.20950793  1
  O  O19  1  0.65092019  0.75000000  0.70950793  1
loop_
_geom_bond_atom_site_label_1
_geom_bond_atom_site_label_2
_geom_bond_distance
_geom_bond_site_symmetry_2
Cs0 O12 3.055569 1_455
Cs0 O10 3.055569 1_455
Cs0 O8 3.148763 1_555
Cs0 O14 3.148763 1_545
Cs0 O3 3.186167 1_455
Cs0 O5 3.186167 1_455
Cs0 H0 3.245924 1_555
Cs0 H2 3.245924 1_555
Cs0 O17 3.423576 1_555
Cs0 O16 3.450477 1_555
Cs1 O11 3.055569 1_554
Cs1 O13 3.055569 1_554
Cs1 O15 3.148763 1_555
Cs1 O9 3.148763 1_545
Cs1 O4 3.186167 1_555
Cs1 O2 3.186167 1_555
Cs1 H3 3.245924 1_555
Cs1 H1 3.245924 1_555
Cs1 O16 3.423576 1_554
Cs1 O17 3.450477 1_555
Cs2 O14 3.055569 1_655
Cs2 O8 3.055569 1_655
Cs2 O10 3.148763 1_565
Cs2 O12 3.148763 1_555
Cs2 O1 3.186167 1_655
Cs2 O7 3.186167 1_655
Cs2 H0 3.245924 1_565
Cs2 H2 3.245924 1_555
Cs2 O19 3.423576 1_555
Cs2 O18 3.450477 1_555
Cs3 O9 3.055569 1_556
Cs3 O15 3.055569 1_556
Cs3 O13 3.148763 1_565
Cs3 O11 3.148763 1_555
Cs3 O6 3.186167 1_555
Cs3 O0 3.186167 1_555
Cs3 H3 3.245924 1_666
Cs3 H1 3.245924 1_656
Cs3 O18 3.423576 1_556
Cs3 O19 3.450477 1_555
Ge0 O8 1.715782 1_555
Ge0 O3 1.766814 1_555
Ge0 O0 1.767126 1_555
Ge0 O19 1.774437 1_555
Ge1 O9 1.715782 1_655
Ge1 O2 1.766814 1_565
Ge1 O1 1.767126 1_655
Ge1 O18 1.774437 1_555
Ge2 O10 1.715782 1_555
Ge2 O1 1.766814 1_545
Ge2 O2 1.767126 1_555
Ge2 O17 1.774437 1_555
Ge3 O11 1.715782 1_455
Ge3 O0 1.766814 1_555
Ge3 O3 1.767126 1_455
Ge3 O16 1.774437 1_555
Ge4 O12 1.715782 1_555
Ge4 O7 1.766814 1_555
Ge4 O4 1.767126 1_555
Ge4 O17 1.774437 1_555
Ge5 O13 1.715782 1_455
Ge5 O6 1.766814 1_545
Ge5 O5 1.767126 1_455
Ge5 O16 1.774437 1_555
Ge6 O14 1.715782 1_555
Ge6 O5 1.766814 1_565
Ge6 O6 1.767126 1_555
Ge6 O19 1.774437 1_555
Ge7 O15 1.715782 1_655
Ge7 O4 1.766814 1_555
Ge7 O7 1.767126 1_655
Ge7 O18 1.774437 1_555
H0 O14 1.204090 1_545
H0 O10 1.204090 1_555
H1 O15 1.204090 1_555
H1 O11 1.204090 1_454
H2 O8 1.204090 1_555
H2 O12 1.204090 1_555
H3 O9 1.204090 1_545
H3 O13 1.204090 1_454
