# generated using pymatgen
data_LiHf2(AsO4)3
_symmetry_space_group_name_H-M   'P 1'
_cell_length_a   9.15789422
_cell_length_b   9.15789451
_cell_length_c   9.02182311
_cell_angle_alpha   59.49981251
_cell_angle_beta   59.49981085
_cell_angle_gamma   59.99999611
_symmetry_Int_Tables_number   1
_chemical_formula_structural   LiHf2(AsO4)3
_chemical_formula_sum   'Li2 Hf4 As6 O24'
_cell_volume   530.93998121
_cell_formula_units_Z   2
loop_
 _symmetry_equiv_pos_site_id
 _symmetry_equiv_pos_as_xyz
  1  'x, y, z'
loop_
 _atom_site_type_symbol
 _atom_site_label
 _atom_site_symmetry_multiplicity
 _atom_site_fract_x
 _atom_site_fract_y
 _atom_site_fract_z
 _atom_site_occupancy
  Li  Li0  1  0.50000000  0.50000000  0.50000000  1
  Li  Li1  1  0.00000000  0.00000000  0.00000000  1
  Hf  Hf0  1  0.63973290  0.63973290  0.08080231  1
  Hf  Hf1  1  0.13973290  0.13973290  0.58080231  1
  Hf  Hf2  1  0.36026710  0.36026710  0.91919769  1
  Hf  Hf3  1  0.86026710  0.86026710  0.41919769  1
  As  As0  1  0.45560869  0.04439131  0.75000000  1
  As  As1  1  0.04439131  0.75000000  0.75000000  1
  As  As2  1  0.75000000  0.45560869  0.75000000  1
  As  As3  1  0.95560869  0.25000000  0.25000000  1
  As  As4  1  0.25000000  0.54439131  0.25000000  1
  As  As5  1  0.54439131  0.95560869  0.25000000  1
  O  O0  1  0.50134251  0.87629026  0.93683045  1
  O  O1  1  0.87629026  0.68553578  0.93683045  1
  O  O2  1  0.68553578  0.50134251  0.93683045  1
  O  O3  1  0.00134251  0.18553578  0.43683045  1
  O  O4  1  0.18553578  0.37629026  0.43683045  1
  O  O5  1  0.37629026  0.00134251  0.43683045  1
  O  O6  1  0.49865749  0.12370974  0.06316955  1
  O  O7  1  0.12370974  0.31446422  0.06316955  1
  O  O8  1  0.31446422  0.49865749  0.06316955  1
  O  O9  1  0.99865749  0.81446422  0.56316955  1
  O  O10  1  0.81446422  0.62370974  0.56316955  1
  O  O11  1  0.62370974  0.99865749  0.56316955  1
  O  O12  1  0.55827869  0.75637358  0.26926626  1
  O  O13  1  0.75637358  0.41607947  0.26926626  1
  O  O14  1  0.41607947  0.55827869  0.26926626  1
  O  O15  1  0.05827869  0.91607947  0.76926626  1
  O  O16  1  0.91607947  0.25637358  0.76926626  1
  O  O17  1  0.25637358  0.05827869  0.76926626  1
  O  O18  1  0.44172131  0.24362642  0.73073374  1
  O  O19  1  0.24362642  0.58392053  0.73073374  1
  O  O20  1  0.58392053  0.44172131  0.73073374  1
  O  O21  1  0.94172131  0.08392053  0.23073374  1
  O  O22  1  0.08392053  0.74362642  0.23073374  1
  O  O23  1  0.74362642  0.94172131  0.23073374  1
loop_
_geom_bond_atom_site_label_1
_geom_bond_atom_site_label_2
_geom_bond_distance
_geom_bond_site_symmetry_2
Li0 O12 2.301016 1_555
Li0 O18 2.301016 1_555
Li0 O13 2.301021 1_555
Li0 O19 2.301021 1_555
Li0 O14 2.301029 1_555
Li0 O20 2.301029 1_555
Li1 O17 2.301016 1_554
Li1 O23 2.301016 1_445
Li1 O22 2.301021 1_545
Li1 O16 2.301021 1_454
Li1 O21 2.301029 1_455
Li1 O15 2.301029 1_544
Hf0 O1 2.013839 1_554
Hf0 O0 2.013847 1_554
Hf0 O2 2.013855 1_554
Hf0 O12 2.085133 1_555
Hf0 O13 2.085142 1_555
Hf0 O14 2.085154 1_555
Hf1 O4 2.013839 1_555
Hf1 O5 2.013847 1_555
Hf1 O3 2.013855 1_555
Hf1 O17 2.085133 1_555
Hf1 O16 2.085142 1_455
Hf1 O15 2.085154 1_545
Hf2 O7 2.013839 1_556
Hf2 O6 2.013847 1_556
Hf2 O8 2.013855 1_556
Hf2 O18 2.085133 1_555
Hf2 O19 2.085142 1_555
Hf2 O20 2.085154 1_555
Hf3 O10 2.013839 1_555
Hf3 O11 2.013847 1_555
Hf3 O9 2.013855 1_555
Hf3 O23 2.085133 1_555
Hf3 O22 2.085142 1_655
Hf3 O21 2.085154 1_565
As0 O11 1.680561 1_545
As0 O0 1.680561 1_545
As0 O17 1.686394 1_555
As0 O18 1.686394 1_555
As1 O9 1.680559 1_455
As1 O1 1.680564 1_455
As1 O15 1.686376 1_555
As1 O19 1.686386 1_555
As2 O2 1.680559 1_555
As2 O10 1.680564 1_555
As2 O20 1.686376 1_555
As2 O16 1.686386 1_555
As3 O3 1.680559 1_655
As3 O7 1.680564 1_655
As3 O21 1.686376 1_555
As3 O13 1.686386 1_555
As4 O8 1.680559 1_555
As4 O4 1.680564 1_555
As4 O14 1.686376 1_555
As4 O22 1.686386 1_555
As5 O5 1.680561 1_565
As5 O6 1.680561 1_565
As5 O23 1.686394 1_555
As5 O12 1.686394 1_555
