# generated using pymatgen
data_Rb3Ag(PAu)2
_symmetry_space_group_name_H-M   'P 1'
_cell_length_a   7.79011969
_cell_length_b   7.51063571
_cell_length_c   7.79012026
_cell_angle_alpha   47.92655199
_cell_angle_beta   49.06778510
_cell_angle_gamma   47.92656190
_symmetry_Int_Tables_number   1
_chemical_formula_structural   Rb3Ag(PAu)2
_chemical_formula_sum   'Rb3 Ag1 P2 Au2'
_cell_volume   232.89465816
_cell_formula_units_Z   1
loop_
 _symmetry_equiv_pos_site_id
 _symmetry_equiv_pos_as_xyz
  1  'x, y, z'
loop_
 _atom_site_type_symbol
 _atom_site_label
 _atom_site_symmetry_multiplicity
 _atom_site_fract_x
 _atom_site_fract_y
 _atom_site_fract_z
 _atom_site_occupancy
  Rb  Rb0  1  0.91034328  0.91065686  0.91034328  1
  Rb  Rb1  1  0.50000000  0.50000000  0.50000000  1
  Rb  Rb2  1  0.08965672  0.08934314  0.08965672  1
  Ag  Ag0  1  0.50000000  0.00000000  0.50000000  1
  P  P0  1  0.25359819  0.25949519  0.25359819  1
  P  P1  1  0.74640181  0.74050481  0.74640181  1
  Au  Au0  1  0.00000000  0.50000000  0.50000000  1
  Au  Au1  1  0.50000000  0.50000000  0.00000000  1
loop_
_geom_bond_atom_site_label_1
_geom_bond_atom_site_label_2
_geom_bond_distance
_geom_bond_site_symmetry_2
Rb0 Rb2 3.644877 1_666
Rb0 Rb1 3.936225 1_565
Rb0 Rb1 3.977068 1_556
Rb0 Rb1 3.977069 1_655
Rb1 Rb2 3.936225 1_565
Rb1 Rb2 3.977068 1_556
Rb1 Rb2 3.977069 1_655
Ag0 P1 2.442966 1_545
Ag0 P0 2.442966 1_555
Ag0 Au1 3.109832 1_555
Ag0 Au1 3.109832 1_546
Ag0 Au0 3.109832 1_645
Ag0 Au0 3.109832 1_555
Ag0 Rb2 3.712759 1_655
Ag0 Rb0 3.712759 1_445
Ag0 Rb2 3.712760 1_556
Ag0 Rb0 3.712760 1_544
Ag0 Rb1 3.755318 1_545
Ag0 Rb1 3.755318 1_555
P0 Rb2 3.377429 1_555
P0 Rb0 3.540609 1_454
P0 Rb0 3.699799 1_445
P0 Rb0 3.699799 1_544
P0 Rb1 3.922731 1_545
P0 Rb1 4.132916 1_554
P0 Rb1 4.132917 1_455
P1 Rb0 3.377429 1_555
P1 Rb2 3.540609 1_656
P1 Rb2 3.699799 1_665
P1 Rb2 3.699799 1_566
P1 Rb1 3.922731 1_565
P1 Rb1 4.132916 1_556
P1 Rb1 4.132917 1_655
Au0 P1 2.396997 1_455
Au0 P0 2.396997 1_555
Au0 Au1 3.234703 1_456
Au0 Au1 3.234703 1_555
Au0 Rb2 3.543148 1_565
Au0 Rb0 3.543148 1_445
Au0 Rb2 3.664802 1_556
Au0 Rb0 3.664802 1_454
Au0 Rb1 3.895060 1_555
Au0 Rb1 3.895060 1_455
Au1 P1 2.396997 1_554
Au1 P0 2.396997 1_555
Au1 Rb2 3.543149 1_565
Au1 Rb0 3.543149 1_544
Au1 Rb2 3.664802 1_655
Au1 Rb0 3.664802 1_454
Au1 Rb1 3.895060 1_554
Au1 Rb1 3.895060 1_555
