# generated using pymatgen
data_Sc22OsRuRh6
_symmetry_space_group_name_H-M   'P 1'
_cell_length_a   9.47452702
_cell_length_b   9.47452564
_cell_length_c   9.48254251
_cell_angle_alpha   59.97199527
_cell_angle_beta   59.97200010
_cell_angle_gamma   60.01325350
_symmetry_Int_Tables_number   1
_chemical_formula_structural   Sc22OsRuRh6
_chemical_formula_sum   'Sc22 Os1 Ru1 Rh6'
_cell_volume   601.70595802
_cell_formula_units_Z   1
loop_
 _symmetry_equiv_pos_site_id
 _symmetry_equiv_pos_as_xyz
  1  'x, y, z'
loop_
 _atom_site_type_symbol
 _atom_site_label
 _atom_site_symmetry_multiplicity
 _atom_site_fract_x
 _atom_site_fract_y
 _atom_site_fract_z
 _atom_site_occupancy
  Sc  Sc0  1  0.80295969  0.80295969  0.19704031  1
  Sc  Sc1  1  0.19654680  0.80345320  0.19734383  1
  Sc  Sc2  1  0.80345320  0.19654680  0.19734383  1
  Sc  Sc3  1  0.19704031  0.19704031  0.80295969  1
  Sc  Sc4  1  0.80345320  0.19654680  0.80265617  1
  Sc  Sc5  1  0.19654680  0.80345320  0.80265617  1
  Sc  Sc6  1  0.61640101  0.61640101  0.15237896  1
  Sc  Sc7  1  0.61894777  0.15144682  0.61480370  1
  Sc  Sc8  1  0.15144682  0.61894777  0.61480370  1
  Sc  Sc9  1  0.61640101  0.61640101  0.61482002  1
  Sc  Sc10  1  0.38359899  0.38359899  0.84762104  1
  Sc  Sc11  1  0.38105223  0.84855318  0.38519630  1
  Sc  Sc12  1  0.84855318  0.38105223  0.38519630  1
  Sc  Sc13  1  0.38359899  0.38359899  0.38517998  1
  Sc  Sc14  1  0.84361549  0.84361549  0.47147450  1
  Sc  Sc15  1  0.84243691  0.47234059  0.84261125  1
  Sc  Sc16  1  0.47234059  0.84243691  0.84261125  1
  Sc  Sc17  1  0.84361549  0.84361549  0.84129552  1
  Sc  Sc18  1  0.15638451  0.15638451  0.52852550  1
  Sc  Sc19  1  0.15756309  0.52765941  0.15738875  1
  Sc  Sc20  1  0.52765941  0.15756309  0.15738875  1
  Sc  Sc21  1  0.15638451  0.15638451  0.15870448  1
  Os  Os0  1  0.50000000  0.50000000  0.50000000  1
  Ru  Ru0  1  0.00000000  0.00000000  0.50000000  1
  Rh  Rh0  1  0.00000000  0.00000000  0.00000000  1
  Rh  Rh1  1  0.50000000  0.00000000  0.50000000  1
  Rh  Rh2  1  0.00000000  0.50000000  0.50000000  1
  Rh  Rh3  1  0.50000000  0.50000000  0.00000000  1
  Rh  Rh4  1  0.00000000  0.50000000  0.00000000  1
  Rh  Rh5  1  0.50000000  0.00000000  0.00000000  1
loop_
_geom_bond_atom_site_label_1
_geom_bond_atom_site_label_2
_geom_bond_distance
_geom_bond_site_symmetry_2
Sc0 Sc20 3.031487 1_565
Sc0 Sc19 3.031487 1_655
Sc0 Sc17 3.037047 1_554
Sc0 Sc14 3.037057 1_555
Sc0 Sc6 3.324042 1_555
Sc0 Sc9 3.324047 1_555
Sc0 Sc12 3.355014 1_555
Sc0 Sc11 3.355015 1_555
Sc1 Sc21 3.016927 1_565
Sc1 Sc14 3.016930 1_455
Sc1 Sc16 3.033720 1_554
Sc1 Sc19 3.033720 1_555
Sc1 Sc11 3.322134 1_555
Sc1 Sc8 3.322150 1_555
Sc1 Sc13 3.340390 1_555
Sc1 Sc6 3.340393 1_555
Sc2 Sc21 3.016927 1_655
Sc2 Sc20 3.033720 1_555
Sc2 Sc7 3.322150 1_555
Sc2 Sc6 3.340392 1_555
Sc3 Sc8 3.355014 1_555
Sc3 Sc7 3.355015 1_555
Sc4 Sc7 3.322134 1_555
Sc4 Sc9 3.340390 1_555
Sc5 Sc8 3.322134 1_555
Sc5 Sc9 3.340391 1_555
Sc10 Sc8 3.116803 1_555
Sc10 Sc7 3.116803 1_555
Sc10 Sc9 3.117682 1_555
Sc10 Sc20 3.142030 1_556
Sc10 Sc19 3.142030 1_556
Sc10 Sc21 3.145066 1_556
Sc10 Sc3 3.324042 1_555
Sc10 Sc5 3.340392 1_555
Sc10 Sc4 3.340393 1_555
Sc11 Sc8 3.074873 1_555
Sc11 Sc6 3.116803 1_555
Sc11 Sc9 3.116823 1_555
Sc11 Sc21 3.122590 1_565
Sc11 Sc18 3.122595 1_565
Sc11 Sc20 3.146357 1_565
Sc11 Sc5 3.322150 1_555
Sc12 Sc7 3.074873 1_555
Sc12 Sc6 3.116803 1_555
Sc12 Sc9 3.116823 1_555
Sc12 Sc21 3.122590 1_655
Sc12 Sc18 3.122595 1_655
Sc12 Sc19 3.146357 1_655
Sc12 Sc2 3.322134 1_555
Sc12 Sc4 3.322150 1_555
Sc13 Sc8 3.116823 1_555
Sc13 Sc7 3.116823 1_555
Sc13 Sc6 3.117682 1_555
Sc13 Sc20 3.142023 1_555
Sc13 Sc19 3.142023 1_555
Sc13 Sc18 3.145067 1_555
Sc13 Sc3 3.324047 1_555
Sc13 Sc2 3.340391 1_555
Sc14 Sc2 3.016930 1_565
Sc14 Sc7 3.122595 1_565
Sc14 Sc8 3.122595 1_655
Sc14 Sc9 3.145067 1_555
Sc14 Sc17 3.506844 1_555
Sc14 Sc15 3.517006 1_555
Sc14 Sc16 3.517006 1_555
Sc15 Sc3 3.031487 1_655
Sc15 Sc2 3.033719 1_556
Sc15 Sc4 3.033720 1_555
Sc15 Sc9 3.142023 1_555
Sc15 Sc6 3.142030 1_556
Sc15 Sc8 3.146357 1_655
Sc15 Sc16 3.507190 1_555
Sc15 Sc17 3.517011 1_555
Sc16 Sc3 3.031487 1_565
Sc16 Sc5 3.033720 1_555
Sc16 Sc9 3.142023 1_555
Sc16 Sc6 3.142030 1_556
Sc16 Sc7 3.146357 1_565
Sc16 Sc17 3.517012 1_555
Sc17 Sc4 3.016927 1_565
Sc17 Sc5 3.016927 1_655
Sc17 Sc7 3.122590 1_565
Sc17 Sc8 3.122590 1_655
Sc17 Sc6 3.145066 1_556
Sc18 Sc5 3.016930 1_545
Sc18 Sc4 3.016930 1_455
Sc18 Sc3 3.037057 1_555
Sc18 Sc21 3.506844 1_555
Sc18 Sc19 3.517006 1_555
Sc18 Sc20 3.517006 1_555
Sc19 Sc5 3.033719 1_554
Sc19 Sc20 3.507190 1_555
Sc19 Sc21 3.517011 1_555
Sc20 Sc4 3.033720 1_554
Sc20 Sc21 3.517012 1_555
Sc21 Sc3 3.037047 1_554
Os0 Sc10 2.690218 1_555
Os0 Sc6 2.690218 1_555
Os0 Sc9 2.690227 1_555
Os0 Sc13 2.690227 1_555
Os0 Sc11 2.696379 1_555
Os0 Sc7 2.696379 1_555
Os0 Sc12 2.696380 1_555
Os0 Sc8 2.696380 1_555
Ru0 Sc18 2.731403 1_555
Ru0 Sc14 2.731403 1_445
Ru0 Sc17 2.731408 1_445
Ru0 Sc21 2.731408 1_555
Ru0 Sc12 2.954608 1_455
Ru0 Sc8 2.954608 1_545
Ru0 Sc11 2.954609 1_545
Ru0 Sc7 2.954609 1_455
Ru0 Sc5 3.421366 1_545
Ru0 Sc2 3.421366 1_455
Ru0 Sc4 3.421366 1_455
Ru0 Sc1 3.421366 1_545
Rh0 Sc3 2.638761 1_554
Rh0 Sc0 2.638761 1_445
Rh0 Sc1 2.640261 1_545
Rh0 Sc4 2.640261 1_454
Rh0 Sc2 2.640261 1_455
Rh0 Sc5 2.640261 1_544
Rh1 Sc16 2.745357 1_545
Rh1 Sc20 2.745357 1_555
Rh1 Sc14 2.750524 1_545
Rh1 Sc18 2.750524 1_555
Rh1 Sc13 2.974130 1_555
Rh1 Sc9 2.974130 1_545
Rh1 Sc7 2.986938 1_555
Rh1 Sc11 2.986938 1_545
Rh1 Sc2 3.422716 1_555
Rh1 Sc5 3.422716 1_545
Rh1 Sc3 3.425725 1_555
Rh1 Sc0 3.425725 1_545
Rh2 Sc15 2.745357 1_455
Rh2 Sc19 2.745357 1_555
Rh2 Sc14 2.750523 1_455
Rh2 Sc18 2.750523 1_555
Rh2 Sc13 2.974131 1_555
Rh2 Sc9 2.974131 1_455
Rh2 Sc8 2.986938 1_555
Rh2 Sc12 2.986938 1_455
Rh2 Sc4 3.422716 1_455
Rh2 Sc1 3.422716 1_555
Rh2 Sc3 3.425725 1_555
Rh2 Sc0 3.425725 1_455
Rh3 Sc16 2.741842 1_554
Rh3 Sc20 2.741842 1_555
Rh3 Sc15 2.741842 1_554
Rh3 Sc19 2.741842 1_555
Rh3 Sc13 2.987624 1_555
Rh3 Sc9 2.987624 1_554
Rh3 Sc6 2.987632 1_555
Rh3 Sc10 2.987632 1_554
Rh3 Sc1 3.430920 1_555
Rh3 Sc4 3.430920 1_554
Rh3 Sc2 3.430920 1_555
Rh3 Sc5 3.430920 1_554
Rh4 Sc19 2.745357 1_555
Rh4 Sc15 2.745357 1_454
Rh4 Sc17 2.750521 1_454
Rh4 Sc21 2.750521 1_555
Rh4 Sc10 2.974131 1_554
Rh4 Sc6 2.974131 1_455
Rh4 Sc12 2.986923 1_455
Rh4 Sc8 2.986923 1_554
Rh4 Sc5 3.422716 1_554
Rh4 Sc2 3.422716 1_455
Rh4 Sc0 3.425725 1_455
Rh4 Sc3 3.425725 1_554
Rh5 Sc20 2.745357 1_555
Rh5 Sc16 2.745357 1_544
Rh5 Sc17 2.750522 1_544
Rh5 Sc21 2.750522 1_555
Rh5 Sc10 2.974131 1_554
Rh5 Sc6 2.974131 1_545
Rh5 Sc11 2.986923 1_545
Rh5 Sc7 2.986923 1_554
Rh5 Sc4 3.422716 1_554
Rh5 Sc1 3.422716 1_545
Rh5 Sc0 3.425725 1_545
Rh5 Sc3 3.425725 1_554
