# generated using pymatgen
data_Zr6Zn17Ag6C
_symmetry_space_group_name_H-M   'P 1'
_cell_length_a   8.72232227
_cell_length_b   8.73108845
_cell_length_c   8.73108810
_cell_angle_alpha   59.99999764
_cell_angle_beta   59.96674602
_cell_angle_gamma   59.96674165
_symmetry_Int_Tables_number   1
_chemical_formula_structural   Zr6Zn17Ag6C
_chemical_formula_sum   'Zr6 Zn17 Ag6 C1'
_cell_volume   469.93240453
_cell_formula_units_Z   1
loop_
 _symmetry_equiv_pos_site_id
 _symmetry_equiv_pos_as_xyz
  1  'x, y, z'
loop_
 _atom_site_type_symbol
 _atom_site_label
 _atom_site_symmetry_multiplicity
 _atom_site_fract_x
 _atom_site_fract_y
 _atom_site_fract_z
 _atom_site_occupancy
  Zr  Zr0  1  0.68904297  0.31190571  0.31190571  1
  Zr  Zr1  1  0.31095703  0.68809429  0.68809429  1
  Zr  Zr2  1  0.31095703  0.68809429  0.31285338  1
  Zr  Zr3  1  0.68904297  0.31190571  0.68714662  1
  Zr  Zr4  1  0.31095703  0.31285338  0.68809429  1
  Zr  Zr5  1  0.68904297  0.68714662  0.31190571  1
  Zn  Zn0  1  0.63838161  0.12054013  0.12054013  1
  Zn  Zn1  1  0.36161839  0.87945987  0.87945987  1
  Zn  Zn2  1  0.50000000  0.00000000  0.00000000  1
  Zn  Zn3  1  0.00000000  0.50000000  0.50000000  1
  Zn  Zn4  1  0.00000000  0.50000000  0.00000000  1
  Zn  Zn5  1  0.50000000  0.00000000  0.50000000  1
  Zn  Zn6  1  0.00000000  0.00000000  0.50000000  1
  Zn  Zn7  1  0.50000000  0.50000000  0.00000000  1
  Zn  Zn8  1  0.33268566  0.33042328  0.33042328  1
  Zn  Zn9  1  0.66731434  0.66957672  0.66957672  1
  Zn  Zn10  1  0.33268566  0.33042328  0.00646877  1
  Zn  Zn11  1  0.33268566  0.00646877  0.33042328  1
  Zn  Zn12  1  0.66731434  0.66957672  0.99353123  1
  Zn  Zn13  1  0.66731434  0.99353123  0.66957672  1
  Zn  Zn14  1  0.00791951  0.33069383  0.33069383  1
  Zn  Zn15  1  0.99208049  0.66930617  0.66930617  1
  Zn  Zn16  1  0.00000000  0.00000000  0.00000000  1
  Ag  Ag0  1  0.12174344  0.11822237  0.11822237  1
  Ag  Ag1  1  0.87825656  0.88177763  0.88177763  1
  Ag  Ag2  1  0.12174344  0.11822237  0.64181281  1
  Ag  Ag3  1  0.12174344  0.64181281  0.11822237  1
  Ag  Ag4  1  0.87825656  0.88177763  0.35818719  1
  Ag  Ag5  1  0.87825656  0.35818719  0.88177763  1
  C  C0  1  0.50000000  0.50000000  0.50000000  1
loop_
_geom_bond_atom_site_label_1
_geom_bond_atom_site_label_2
_geom_bond_distance
_geom_bond_site_symmetry_2
Zn0 Zn16 2.574059 1_655
Zn0 Zn7 2.706086 1_555
Zn0 Zn5 2.706086 1_555
Zn0 Zn2 2.706101 1_555
Zn0 Zn8 2.720605 1_555
Zn0 Zn10 2.720609 1_555
Zn0 Zn11 2.720610 1_555
Zn0 Zr0 3.169920 1_555
Zn0 Zr3 3.169927 1_554
Zn0 Zr5 3.169927 1_545
Zn1 Zn16 2.574059 1_566
Zn1 Zn7 2.706086 1_556
Zn1 Zn5 2.706086 1_565
Zn1 Zn2 2.706101 1_566
Zn1 Zn9 2.720605 1_555
Zn1 Zn12 2.720609 1_555
Zn1 Zn13 2.720610 1_555
Zn1 Zr1 3.169920 1_555
Zn1 Zr2 3.169927 1_556
Zn1 Zr4 3.169927 1_565
Zn2 Zr5 3.184969 1_545
Zn2 Zr4 3.184969 1_554
Zn2 Zr3 3.184969 1_554
Zn2 Zr2 3.184969 1_545
Zn3 Zn8 2.528926 1_555
Zn3 Zn9 2.528926 1_455
Zn3 Zr4 3.172126 1_555
Zn3 Zr5 3.172126 1_455
Zn3 Zr2 3.172126 1_555
Zn3 Zr3 3.172126 1_455
Zn4 Zr1 3.172127 1_554
Zn4 Zr0 3.172127 1_455
Zn4 Zr5 3.172132 1_455
Zn4 Zr4 3.172132 1_554
Zn5 Zn9 2.514336 1_545
Zn5 Zn8 2.514336 1_555
Zn5 Zr4 3.184963 1_555
Zn5 Zr5 3.184963 1_545
Zn5 Zr0 3.184971 1_555
Zn5 Zr1 3.184971 1_545
Zn6 Zr1 3.172127 1_545
Zn6 Zr0 3.172127 1_455
Zn6 Zr3 3.172132 1_455
Zn6 Zr2 3.172132 1_545
Zn7 Zn9 2.514336 1_554
Zn7 Zn8 2.514336 1_555
Zn7 Zr2 3.184963 1_555
Zn7 Zr3 3.184963 1_554
Zn7 Zr0 3.184970 1_555
Zn7 Zr1 3.184970 1_554
Zn8 Zr0 2.955272 1_555
Zn8 Zr4 2.961297 1_555
Zn8 Zr2 2.961297 1_555
Zn9 Zr1 2.955272 1_555
Zn9 Zr5 2.961297 1_555
Zn9 Zr3 2.961297 1_555
Zn10 Zn7 2.514332 1_555
Zn10 Zn2 2.514339 1_555
Zn10 Zn4 2.528929 1_555
Zn10 Zn11 2.828475 1_555
Zn10 Zn8 2.828475 1_555
Zn10 Zn14 2.830352 1_555
Zn10 Zr3 2.955272 1_554
Zn10 Zr1 2.961305 1_554
Zn10 Zr4 2.961314 1_554
Zn11 Zn5 2.514331 1_555
Zn11 Zn2 2.514339 1_555
Zn11 Zn6 2.528929 1_555
Zn11 Zn8 2.828475 1_555
Zn11 Zn14 2.830352 1_555
Zn11 Zr5 2.955271 1_545
Zn11 Zr1 2.961305 1_545
Zn11 Zr2 2.961315 1_545
Zn12 Zn7 2.514332 1_556
Zn12 Zn2 2.514339 1_566
Zn12 Zn4 2.528929 1_656
Zn12 Zn13 2.828475 1_555
Zn12 Zn9 2.828475 1_555
Zn12 Zn15 2.830352 1_555
Zn12 Zr2 2.955272 1_556
Zn12 Zr0 2.961305 1_556
Zn12 Zr5 2.961314 1_556
Zn13 Zn5 2.514331 1_565
Zn13 Zn2 2.514339 1_566
Zn13 Zn6 2.528929 1_665
Zn13 Zn9 2.828475 1_555
Zn13 Zn15 2.830352 1_555
Zn13 Zr4 2.955271 1_565
Zn13 Zr0 2.961305 1_565
Zn13 Zr3 2.961315 1_565
Zn14 Zn3 2.521073 1_555
Zn14 Zn4 2.521081 1_555
Zn14 Zn6 2.521081 1_555
Zn14 Zn8 2.830352 1_555
Zn14 Zr5 2.954662 1_455
Zn14 Zr3 2.954662 1_455
Zn14 Zr0 2.954662 1_455
Zn15 Zn3 2.521073 1_655
Zn15 Zn4 2.521081 1_656
Zn15 Zn6 2.521081 1_665
Zn15 Zn9 2.830352 1_555
Zn15 Zr4 2.954662 1_655
Zn15 Zr2 2.954662 1_655
Zn15 Zr1 2.954662 1_655
Ag0 Zn16 2.553107 1_555
Ag0 Zn2 2.695117 1_555
Ag0 Zn4 2.723506 1_555
Ag0 Zn6 2.723506 1_555
Ag0 Zn11 2.752714 1_555
Ag0 Zn10 2.752714 1_555
Ag0 Zn14 2.760924 1_555
Ag0 Zn1 2.946672 1_544
Ag0 Ag5 2.961636 1_454
Ag0 Ag4 2.961636 1_445
Ag0 Zr2 3.152223 1_545
Ag0 Zr4 3.152223 1_554
Ag0 Zr0 3.169516 1_455
Ag1 Zn16 2.553107 1_666
Ag1 Zn2 2.695117 1_566
Ag1 Zn4 2.723506 1_656
Ag1 Zn6 2.723506 1_665
Ag1 Zn13 2.752714 1_555
Ag1 Zn12 2.752714 1_555
Ag1 Zn15 2.760924 1_555
Ag1 Zn0 2.946672 1_566
Ag1 Ag3 2.961636 1_656
Ag1 Ag2 2.961636 1_665
Ag1 Zr3 3.152223 1_565
Ag1 Zr5 3.152223 1_556
Ag1 Zr1 3.169516 1_655
Ag2 Zn16 2.553100 1_556
Ag2 Zn5 2.695117 1_555
Ag2 Zn3 2.723507 1_555
Ag2 Zn6 2.723514 1_555
Ag2 Zn11 2.752714 1_555
Ag2 Zn8 2.752714 1_555
Ag2 Zn14 2.760924 1_555
Ag2 Zn1 2.946653 1_545
Ag2 Ag5 2.961624 1_455
Ag2 Zr4 3.152212 1_555
Ag2 Zr1 3.152226 1_545
Ag2 Zr3 3.169516 1_455
Ag3 Zn16 2.553100 1_565
Ag3 Zn7 2.695117 1_555
Ag3 Zn3 2.723507 1_555
Ag3 Zn4 2.723514 1_555
Ag3 Zn8 2.752714 1_555
Ag3 Zn10 2.752714 1_555
Ag3 Zn14 2.760924 1_555
Ag3 Zn1 2.946654 1_554
Ag3 Ag4 2.961624 1_455
Ag3 Zr2 3.152211 1_555
Ag3 Zr1 3.152226 1_554
Ag3 Zr5 3.169516 1_455
Ag4 Zn16 2.553100 1_665
Ag4 Zn5 2.695117 1_565
Ag4 Zn3 2.723507 1_655
Ag4 Zn6 2.723514 1_665
Ag4 Zn13 2.752714 1_555
Ag4 Zn9 2.752714 1_555
Ag4 Zn15 2.760924 1_555
Ag4 Zn0 2.946653 1_565
Ag4 Zr5 3.152212 1_555
Ag4 Zr0 3.152226 1_565
Ag4 Zr2 3.169516 1_655
Ag5 Zn16 2.553100 1_656
Ag5 Zn7 2.695117 1_556
Ag5 Zn3 2.723507 1_655
Ag5 Zn4 2.723514 1_656
Ag5 Zn9 2.752714 1_555
Ag5 Zn12 2.752714 1_555
Ag5 Zn15 2.760924 1_555
Ag5 Zn0 2.946654 1_556
Ag5 Zr3 3.152211 1_555
Ag5 Zr0 3.152226 1_556
Ag5 Zr4 3.169516 1_655
C0 Zr1 2.321355 1_555
C0 Zr0 2.321355 1_555
C0 Zr3 2.321361 1_555
C0 Zr2 2.321361 1_555
C0 Zr5 2.321361 1_555
C0 Zr4 2.321361 1_555
