# generated using pymatgen
data_Lu10Al2SnSb3
_symmetry_space_group_name_H-M   'P 1'
_cell_length_a   8.63238942
_cell_length_b   8.66210931
_cell_length_c   6.28261124
_cell_angle_alpha   90.00000000
_cell_angle_beta   90.00000000
_cell_angle_gamma   120.11395445
_symmetry_Int_Tables_number   1
_chemical_formula_structural   Lu10Al2SnSb3
_chemical_formula_sum   'Lu10 Al2 Sn1 Sb3'
_cell_volume   406.37376658
_cell_formula_units_Z   1
loop_
 _symmetry_equiv_pos_site_id
 _symmetry_equiv_pos_as_xyz
  1  'x, y, z'
loop_
 _atom_site_type_symbol
 _atom_site_label
 _atom_site_symmetry_multiplicity
 _atom_site_fract_x
 _atom_site_fract_y
 _atom_site_fract_z
 _atom_site_occupancy
  Lu  Lu0  1  0.66109026  0.33277566  0.00576608  1
  Lu  Lu1  1  0.33890974  0.67168639  0.00576608  1
  Lu  Lu2  1  0.33890974  0.67168639  0.49423392  1
  Lu  Lu3  1  0.66109026  0.33277566  0.49423392  1
  Lu  Lu4  1  0.76206342  0.76359754  0.75000000  1
  Lu  Lu5  1  0.23793658  0.00153312  0.75000000  1
  Lu  Lu6  1  0.00000000  0.23923459  0.75000000  1
  Lu  Lu7  1  0.24353579  0.23405164  0.25000000  1
  Lu  Lu8  1  0.75646421  0.99051585  0.25000000  1
  Lu  Lu9  1  1.00000000  0.76262416  0.25000000  1
  Al  Al0  1  0.60472249  0.60381086  0.25000000  1
  Al  Al1  1  0.39527751  0.99908937  0.25000000  1
  Sn  Sn0  1  1.00000000  0.38888594  0.25000000  1
  Sb  Sb0  1  0.39510274  0.39831625  0.75000000  1
  Sb  Sb1  1  0.60489726  0.00321351  0.75000000  1
  Sb  Sb2  1  0.00000000  0.60620407  0.75000000  1
loop_
_geom_bond_atom_site_label_1
_geom_bond_atom_site_label_2
_geom_bond_distance
_geom_bond_site_symmetry_2
Lu0 Lu3 3.068854 1_555
Lu0 Sb0 3.079693 1_554
Lu0 Sb1 3.094700 1_554
Lu0 Sn0 3.118172 1_555
Lu0 Sb2 3.130142 1_654
Lu0 Lu3 3.213758 1_554
Lu0 Lu7 3.603485 1_555
Lu0 Lu5 3.693354 1_554
Lu0 Lu9 3.721102 1_555
Lu0 Lu4 3.742237 1_554
Lu0 Lu6 3.765155 1_654
Lu0 Lu8 3.777690 1_545
Lu1 Lu2 3.068854 1_555
Lu1 Sb1 3.079688 1_564
Lu1 Sb0 3.094707 1_554
Lu1 Sn0 3.118175 1_455
Lu1 Sb2 3.130140 1_554
Lu1 Lu2 3.213758 1_554
Lu1 Lu8 3.603483 1_555
Lu1 Lu4 3.693354 1_554
Lu1 Lu9 3.721097 1_455
Lu1 Lu5 3.742222 1_564
Lu1 Lu6 3.765160 1_554
Lu1 Lu7 3.777698 1_555
Lu2 Sb1 3.079688 1_565
Lu2 Sb0 3.094707 1_555
Lu2 Sn0 3.118175 1_455
Lu2 Sb2 3.130140 1_555
Lu2 Lu8 3.603483 1_555
Lu2 Lu4 3.693354 1_555
Lu2 Lu9 3.721097 1_455
Lu2 Lu5 3.742222 1_565
Lu2 Lu6 3.765160 1_555
Lu2 Lu7 3.777698 1_555
Lu3 Sb0 3.079693 1_555
Lu3 Sb1 3.094700 1_555
Lu3 Sn0 3.118172 1_555
Lu3 Sb2 3.130142 1_655
Lu3 Lu7 3.603485 1_555
Lu3 Lu5 3.693354 1_555
Lu3 Lu9 3.721102 1_555
Lu3 Lu4 3.742237 1_555
Lu3 Lu6 3.765155 1_655
Lu3 Lu8 3.777690 1_545
Lu4 Sb2 2.981180 1_655
Lu4 Sb1 2.995729 1_565
Lu4 Sb0 3.160474 1_555
Lu4 Lu5 3.553473 1_665
Lu4 Lu6 3.563962 1_665
Lu4 Lu8 3.718739 1_556
Lu4 Lu8 3.718739 1_555
Lu4 Lu9 3.755530 1_555
Lu4 Lu9 3.755530 1_556
Lu5 Sb2 2.981173 1_545
Lu5 Sb0 2.995737 1_555
Lu5 Sb1 3.160470 1_555
Lu5 Lu6 3.563970 1_555
Lu5 Lu7 3.718744 1_555
Lu5 Lu7 3.718744 1_556
Lu5 Lu9 3.755528 1_445
Lu5 Lu9 3.755528 1_446
Lu6 Sb1 2.969097 1_455
Lu6 Sb0 2.969097 1_555
Lu6 Sb2 3.178730 1_555
Lu6 Sn0 3.398262 1_456
Lu6 Sn0 3.398262 1_455
Lu6 Lu8 3.792647 1_446
Lu6 Lu8 3.792647 1_445
Lu6 Lu7 3.792647 1_555
Lu6 Lu7 3.792647 1_556
Lu7 Sn0 3.007945 1_455
Lu7 Sb0 3.425810 1_555
Lu7 Sb0 3.425810 1_554
Lu7 Lu9 3.532801 1_445
Lu7 Lu8 3.637095 1_445
Lu8 Sn0 3.007945 1_565
Lu8 Sb1 3.425810 1_565
Lu8 Sb1 3.425810 1_564
Lu8 Lu9 3.532801 1_555
Lu9 Sn0 3.237361 1_555
Lu9 Sb2 3.421057 1_655
Lu9 Sb2 3.421057 1_654
Al0 Lu8 2.921190 1_555
Al0 Lu9 2.970741 1_555
Al0 Lu3 3.041285 1_555
Al0 Lu0 3.041285 1_555
Al0 Lu1 3.052716 1_555
Al0 Lu2 3.052716 1_555
Al0 Lu7 3.155814 1_555
Al0 Lu4 3.426647 1_554
Al0 Lu4 3.426647 1_555
Al0 Sb0 3.616429 1_555
Al0 Sb0 3.616429 1_554
Al1 Lu7 2.921182 1_565
Al1 Lu9 2.970742 1_455
Al1 Lu2 3.041285 1_555
Al1 Lu1 3.041285 1_555
Al1 Lu3 3.052706 1_565
Al1 Lu0 3.052706 1_565
Al1 Lu8 3.155818 1_555
Al1 Lu5 3.426643 1_564
Al1 Lu5 3.426643 1_565
Al1 Sb1 3.616431 1_565
Al1 Sb1 3.616431 1_564
Sb2 Sn0 3.662152 1_456
Sb2 Sn0 3.662152 1_455
