# generated using pymatgen
data_PW4Br11
_symmetry_space_group_name_H-M   'P 1'
_cell_length_a   9.08296067
_cell_length_b   9.08296147
_cell_length_c   11.90688507
_cell_angle_alpha   90.00000000
_cell_angle_beta   90.00000000
_cell_angle_gamma   109.93610332
_symmetry_Int_Tables_number   1
_chemical_formula_structural   PW4Br11
_chemical_formula_sum   'P2 W8 Br22'
_cell_volume   923.45313382
_cell_formula_units_Z   2
loop_
 _symmetry_equiv_pos_site_id
 _symmetry_equiv_pos_as_xyz
  1  'x, y, z'
loop_
 _atom_site_type_symbol
 _atom_site_label
 _atom_site_symmetry_multiplicity
 _atom_site_fract_x
 _atom_site_fract_y
 _atom_site_fract_z
 _atom_site_occupancy
  P  P0  1  0.68429329  0.31570671  0.25000000  1
  P  P1  1  0.31570671  0.68429329  0.75000000  1
  W  W0  1  0.65192404  0.09808186  0.36976095  1
  W  W1  1  0.09808186  0.65192404  0.63023905  1
  W  W2  1  0.34807596  0.90191814  0.63023905  1
  W  W3  1  0.90191814  0.34807596  0.36976095  1
  W  W4  1  0.65192404  0.09808186  0.13023905  1
  W  W5  1  0.09808186  0.65192404  0.86976095  1
  W  W6  1  0.34807596  0.90191814  0.86976095  1
  W  W7  1  0.90191814  0.34807596  0.13023905  1
  Br  Br0  1  0.87346875  0.12653125  0.99106017  1
  Br  Br1  1  0.12653125  0.87346875  0.00893983  1
  Br  Br2  1  0.48521993  0.18204191  0.98584553  1
  Br  Br3  1  0.18204191  0.48521993  0.01415447  1
  Br  Br4  1  0.51478007  0.81795809  0.01415447  1
  Br  Br5  1  0.81795809  0.51478007  0.98584553  1
  Br  Br6  1  0.87346875  0.12653125  0.50893983  1
  Br  Br7  1  0.12653125  0.87346875  0.49106017  1
  Br  Br8  1  0.48521993  0.18204191  0.51415447  1
  Br  Br9  1  0.18204191  0.48521993  0.48584553  1
  Br  Br10  1  0.51478007  0.81795809  0.48584553  1
  Br  Br11  1  0.81795809  0.51478007  0.51415447  1
  Br  Br12  1  0.75641365  0.92166180  0.25000000  1
  Br  Br13  1  0.92166180  0.75641365  0.75000000  1
  Br  Br14  1  0.24358635  0.07833820  0.75000000  1
  Br  Br15  1  0.07833820  0.24358635  0.25000000  1
  Br  Br16  1  0.53573228  0.46426772  0.25000000  1
  Br  Br17  1  0.46426772  0.53573228  0.75000000  1
  Br  Br18  1  0.39277377  0.99010198  0.25000000  1
  Br  Br19  1  0.99010198  0.39277377  0.75000000  1
  Br  Br20  1  0.60722623  0.00989802  0.75000000  1
  Br  Br21  1  0.00989802  0.60722623  0.25000000  1
loop_
_geom_bond_atom_site_label_1
_geom_bond_atom_site_label_2
_geom_bond_distance
_geom_bond_site_symmetry_2
P0 W7 2.372930 1_555
P0 W3 2.372930 1_555
P0 W0 2.372930 1_555
P0 W4 2.372930 1_555
P1 W1 2.372930 1_555
P1 W5 2.372930 1_555
P1 W2 2.372930 1_555
P1 W6 2.372930 1_555
W0 W3 2.606899 1_555
W0 W4 2.851960 1_555
W1 W2 2.606899 1_555
W1 W5 2.851960 1_555
W2 W6 2.851960 1_555
W3 W7 2.851960 1_555
W4 W7 2.606899 1_555
W5 W6 2.606899 1_555
Br0 W4 2.551024 1_556
Br0 W7 2.551024 1_556
Br0 Br4 3.509748 1_546
Br0 Br3 3.509748 1_656
Br0 Br15 3.570686 1_656
Br0 Br12 3.570686 1_546
Br0 Br20 3.669025 1_555
Br0 Br19 3.669026 1_555
Br1 W6 2.551024 1_554
Br1 W5 2.551024 1_554
Br1 Br2 3.509748 1_564
Br1 Br5 3.509748 1_454
Br1 Br13 3.570686 1_454
Br1 Br14 3.570686 1_564
Br1 Br18 3.669025 1_555
Br1 Br21 3.669026 1_555
Br2 W4 2.572476 1_556
Br2 W6 2.788289 1_545
Br2 Br5 3.469741 1_555
Br2 Br20 3.569363 1_555
Br3 W5 2.572476 1_554
Br3 W7 2.788288 1_455
Br3 Br4 3.469741 1_555
Br4 W6 2.572476 1_554
Br4 W4 2.788289 1_565
Br5 W7 2.572476 1_556
Br5 W5 2.788288 1_655
Br6 W0 2.551024 1_555
Br6 W3 2.551024 1_555
Br6 Br9 3.509748 1_655
Br7 W2 2.551024 1_555
Br7 W1 2.551024 1_555
Br7 Br8 3.509748 1_565
Br8 W0 2.572476 1_555
Br8 W2 2.788289 1_545
Br9 W1 2.572476 1_555
Br9 W3 2.788288 1_455
Br10 W2 2.572476 1_555
Br10 W0 2.788289 1_565
Br10 Br9 3.469741 1_555
Br10 Br12 3.490026 1_555
Br10 Br6 3.509748 1_565
Br10 Br20 3.555109 1_565
Br10 Br18 3.569363 1_555
Br11 W3 2.572476 1_555
Br11 W1 2.788288 1_655
Br11 Br8 3.469741 1_555
Br11 Br13 3.490026 1_555
Br11 Br7 3.509748 1_655
Br11 Br21 3.555109 1_655
Br11 Br19 3.569363 1_555
Br12 W0 2.557149 1_565
Br12 W4 2.557149 1_565
Br12 Br15 3.356978 1_665
Br12 Br4 3.490026 1_555
Br12 Br6 3.570686 1_565
Br13 W5 2.557149 1_655
Br13 W1 2.557149 1_655
Br13 Br14 3.356978 1_665
Br13 Br5 3.490026 1_555
Br13 Br7 3.570686 1_655
Br14 W6 2.557149 1_545
Br14 W2 2.557149 1_545
Br14 Br2 3.490026 1_555
Br14 Br8 3.490026 1_555
Br14 Br7 3.570686 1_545
Br15 W3 2.557149 1_455
Br15 W7 2.557149 1_455
Br15 Br9 3.490026 1_555
Br15 Br3 3.490026 1_555
Br15 Br6 3.570686 1_455
Br16 P0 2.209821 1_555
Br17 P1 2.209821 1_555
Br18 W4 2.638488 1_565
Br18 W0 2.638488 1_565
Br18 P0 3.227608 1_565
Br18 Br8 3.555109 1_565
Br18 Br2 3.555109 1_564
Br18 Br4 3.569363 1_555
Br18 Br7 3.669025 1_555
Br19 W1 2.638489 1_655
Br19 W5 2.638489 1_655
Br19 P1 3.227608 1_655
Br19 Br3 3.555109 1_656
Br19 Br9 3.555109 1_655
Br19 Br5 3.569363 1_555
Br19 Br6 3.669026 1_555
Br20 W2 2.638488 1_545
Br20 W6 2.638488 1_545
Br20 P1 3.227608 1_545
Br20 Br4 3.555109 1_546
Br20 Br8 3.569363 1_555
Br20 Br6 3.669025 1_555
Br21 W3 2.638489 1_455
Br21 W7 2.638489 1_455
Br21 P0 3.227608 1_455
Br21 Br5 3.555109 1_454
Br21 Br9 3.569363 1_555
Br21 Br3 3.569363 1_555
Br21 Br7 3.669026 1_555
