# generated using pymatgen
data_BaLaI4
_symmetry_space_group_name_H-M   'P 1'
_cell_length_a   7.53172103
_cell_length_b   9.04477061
_cell_length_c   9.27609685
_cell_angle_alpha   113.81734356
_cell_angle_beta   107.78827075
_cell_angle_gamma   101.95084762
_symmetry_Int_Tables_number   1
_chemical_formula_structural   BaLaI4
_chemical_formula_sum   'Ba2 La2 I8'
_cell_volume   509.31765430
_cell_formula_units_Z   2
loop_
 _symmetry_equiv_pos_site_id
 _symmetry_equiv_pos_as_xyz
  1  'x, y, z'
loop_
 _atom_site_type_symbol
 _atom_site_label
 _atom_site_symmetry_multiplicity
 _atom_site_fract_x
 _atom_site_fract_y
 _atom_site_fract_z
 _atom_site_occupancy
  Ba  Ba0  1  0.38471698  0.63469342  0.26929678  1
  Ba  Ba1  1  0.61529398  0.36532173  0.73069903  1
  La  La0  1  0.25039647  0.00036487  0.00075752  1
  La  La1  1  0.74960860  0.99962271  0.99924184  1
  I  I0  1  0.01283335  0.23407406  0.87383423  1
  I  I1  1  0.36106952  0.63962889  0.87356410  1
  I  I2  1  0.98719282  0.76593687  0.12616988  1
  I  I3  1  0.63888995  0.36040244  0.12643403  1
  I  I4  1  0.35599828  0.94116564  0.65106970  1
  I  I5  1  0.79505710  0.70975000  0.65136214  1
  I  I6  1  0.64401374  0.05885232  0.34895043  1
  I  I7  1  0.20492920  0.29018705  0.34862031  1
loop_
_geom_bond_atom_site_label_1
_geom_bond_atom_site_label_2
_geom_bond_distance
_geom_bond_site_symmetry_2
Ba0 I3 3.526682 1_555
Ba0 I2 3.528754 1_455
Ba0 I7 3.577356 1_555
Ba0 I6 3.578284 1_565
Ba0 I4 3.613850 1_555
Ba0 I5 3.615031 1_555
Ba0 I0 3.635273 1_554
Ba0 I1 3.639376 1_554
Ba1 I1 3.527097 1_555
Ba1 I0 3.528891 1_655
Ba1 I5 3.576772 1_555
Ba1 I4 3.578348 1_545
Ba1 I6 3.613689 1_555
Ba1 I7 3.614934 1_555
Ba1 I2 3.635315 1_556
Ba1 I3 3.639434 1_556
La0 La1 3.765630 1_544
La0 La1 3.766127 1_444
I0 La0 3.368268 1_556
I0 La1 3.382428 1_445
I0 I7 3.967973 1_556
I0 I5 4.030572 1_445
I0 I1 4.044935 1_555
I0 I6 4.197017 1_455
I0 I3 4.229122 1_556
I0 I3 4.234480 1_456
I0 I4 4.432450 1_545
I1 La0 3.369084 1_566
I1 La1 3.380575 1_555
I1 I6 3.971398 1_566
I1 I4 4.029951 1_555
I1 I7 4.197100 1_555
I1 I2 4.229609 1_556
I1 I2 4.234035 1_456
I1 I5 4.430688 1_455
I2 La1 3.368190 1_554
I2 La0 3.382237 1_665
I2 I5 3.967899 1_554
I2 I7 4.029996 1_665
I2 I3 4.044993 1_555
I2 I4 4.197098 1_655
I2 I6 4.432634 1_565
I3 La1 3.369622 1_544
I3 La0 3.380641 1_555
I3 I4 3.971332 1_544
I3 I6 4.030215 1_555
I3 I5 4.196748 1_555
I3 I7 4.431279 1_655
I4 La1 3.408903 1_555
I4 La0 3.433819 1_566
I4 I5 4.264049 1_555
I4 I5 4.310423 1_455
I4 I6 4.342822 1_565
I5 La1 3.408512 1_555
I5 La0 3.430710 1_666
I5 I7 4.338622 1_555
I6 La0 3.408939 1_555
I6 La1 3.433925 1_544
I6 I7 4.263729 1_555
I6 I7 4.310219 1_655
I7 La0 3.408299 1_555
I7 La1 3.430499 1_444
