# generated using pymatgen
data_Ba4CoH12Au
_symmetry_space_group_name_H-M   'P 1'
_cell_length_a   7.85104891
_cell_length_b   7.85104982
_cell_length_c   5.95133163
_cell_angle_alpha   89.99161910
_cell_angle_beta   89.99160568
_cell_angle_gamma   135.53367361
_symmetry_Int_Tables_number   1
_chemical_formula_structural   Ba4CoH12Au
_chemical_formula_sum   'Ba4 Co1 H12 Au1'
_cell_volume   256.96350467
_cell_formula_units_Z   1
loop_
 _symmetry_equiv_pos_site_id
 _symmetry_equiv_pos_as_xyz
  1  'x, y, z'
loop_
 _atom_site_type_symbol
 _atom_site_label
 _atom_site_symmetry_multiplicity
 _atom_site_fract_x
 _atom_site_fract_y
 _atom_site_fract_z
 _atom_site_occupancy
  Ba  Ba0  1  0.36066561  0.63933439  1.00000000  1
  Ba  Ba1  1  0.85835235  0.14164765  0.50000000  1
  Ba  Ba2  1  0.63933439  0.36066561  0.00000000  1
  Ba  Ba3  1  0.14164765  0.85835235  0.50000000  1
  Co  Co0  1  0.50000000  0.50000000  0.50000000  1
  H  H0  1  0.00005950  0.50035592  0.24456109  1
  H  H1  1  0.49964408  0.99994050  0.75543891  1
  H  H2  1  0.99994050  0.49964408  0.75543891  1
  H  H3  1  0.50035592  0.00005950  0.24456109  1
  H  H4  1  0.11393809  0.88606191  0.00000000  1
  H  H5  1  0.60713674  0.39286326  0.50000000  1
  H  H6  1  0.88606191  0.11393809  1.00000000  1
  H  H7  1  0.39286326  0.60713674  0.50000000  1
  H  H8  1  0.68593490  0.68593490  0.31442261  1
  H  H9  1  0.31406510  0.31406510  0.68557739  1
  H  H10  1  0.68600028  0.68600028  0.68534775  1
  H  H11  1  0.31399972  0.31399972  0.31465225  1
  Au  Au0  1  0.00000000  0.00000000  0.00000000  1
loop_
_geom_bond_atom_site_label_1
_geom_bond_atom_site_label_2
_geom_bond_distance
_geom_bond_site_symmetry_2
Ba0 H2 2.628730 1_455
Ba0 H3 2.628730 1_566
Ba0 H0 2.629335 1_556
Ba0 H1 2.629336 1_555
Ba0 H9 2.970660 1_555
Ba0 H8 2.970660 1_556
Ba0 H10 2.971127 1_555
Ba0 H11 2.971127 1_556
Ba0 H6 2.993499 1_565
Ba0 H6 2.993499 1_455
Ba0 H7 3.012241 1_555
Ba0 H7 3.012241 1_556
Ba1 H3 2.643617 1_555
Ba1 H2 2.643617 1_555
Ba1 H1 2.646908 1_545
Ba1 H0 2.646908 1_655
Ba1 H11 2.989009 1_655
Ba1 H10 2.989010 1_545
Ba1 H9 2.990289 1_655
Ba1 H8 2.990289 1_545
Ba1 H6 3.002798 1_554
Ba1 H6 3.002798 1_555
Ba1 H7 3.012705 1_655
Ba1 H7 3.012705 1_545
Ba2 H0 2.628730 1_655
Ba2 H1 2.628730 1_544
Ba2 H2 2.629335 1_554
Ba2 H3 2.629336 1_555
Ba2 H8 2.970660 1_555
Ba2 H9 2.970660 1_554
Ba2 H11 2.971127 1_555
Ba2 H10 2.971127 1_554
Ba2 H4 2.993499 1_545
Ba2 H4 2.993499 1_655
Ba2 H5 3.012241 1_555
Ba2 H5 3.012241 1_554
Ba3 H1 2.643617 1_555
Ba3 H0 2.643617 1_555
Ba3 H3 2.646908 1_565
Ba3 H2 2.646908 1_455
Ba3 H10 2.989009 1_455
Ba3 H11 2.989010 1_565
Ba3 H8 2.990289 1_455
Ba3 H9 2.990289 1_565
Ba3 H4 3.002798 1_556
Ba3 H4 3.002798 1_555
Ba3 H5 3.012705 1_455
Ba3 H5 3.012705 1_565
Co0 H7 1.557198 1_555
Co0 H5 1.557198 1_555
Co0 H10 1.561701 1_555
Co0 H11 1.561701 1_555
Co0 H8 1.561788 1_555
Co0 H9 1.561788 1_555
H0 H4 2.867348 1_555
H0 H6 2.872177 1_454
H0 H2 2.910933 1_454
H0 H5 2.970171 1_455
H0 H3 2.970657 1_565
H0 H3 2.970657 1_455
H0 H7 2.972536 1_555
H0 H2 3.040406 1_455
H1 H4 2.867348 1_556
H1 H6 2.872177 1_565
H1 H3 2.910933 1_566
H1 H5 2.970172 1_565
H1 H2 2.970657 1_565
H1 H2 2.970657 1_455
H1 H7 2.972536 1_555
H1 H3 3.040406 1_565
H2 H6 2.867348 1_555
H2 H4 2.872177 1_656
H2 H7 2.970171 1_655
H2 H5 2.972536 1_555
H3 H6 2.867348 1_554
H3 H4 2.872177 1_545
H3 H7 2.970172 1_545
H3 H5 2.972536 1_555
Au0 H6 1.656053 1_454
Au0 H4 1.656053 1_545
