# generated using pymatgen
data_K2VCoSe4
_symmetry_space_group_name_H-M   'P 1'
_cell_length_a   13.67649274
_cell_length_b   12.24653636
_cell_length_c   7.26729886
_cell_angle_alpha   84.92527265
_cell_angle_beta   63.11732077
_cell_angle_gamma   31.95741035
_symmetry_Int_Tables_number   1
_chemical_formula_structural   K2VCoSe4
_chemical_formula_sum   'K4 V2 Co2 Se8'
_cell_volume   448.44761823
_cell_formula_units_Z   2
loop_
 _symmetry_equiv_pos_site_id
 _symmetry_equiv_pos_as_xyz
  1  'x, y, z'
loop_
 _atom_site_type_symbol
 _atom_site_label
 _atom_site_symmetry_multiplicity
 _atom_site_fract_x
 _atom_site_fract_y
 _atom_site_fract_z
 _atom_site_occupancy
  K  K0  1  0.67910415  0.67910415  0.32089585  1
  K  K1  1  0.92910415  0.92910415  0.57089585  1
  K  K2  1  0.32089585  0.32089585  0.67910415  1
  K  K3  1  0.57089585  0.57089585  0.92910415  1
  V  V0  1  0.75000000  0.75000000  0.75000000  1
  V  V1  1  0.50000000  0.50000000  0.50000000  1
  Co  Co0  1  0.00000000  0.00000000  0.00000000  1
  Co  Co1  1  0.25000000  0.25000000  0.25000000  1
  Se  Se0  1  0.03702414  0.35228144  0.66139223  1
  Se  Se1  1  0.21297586  0.89771856  0.58860777  1
  Se  Se2  1  0.89771856  0.21297586  0.30069782  1
  Se  Se3  1  0.58860777  0.30069782  0.21297586  1
  Se  Se4  1  0.94930218  0.66139223  0.35228144  1
  Se  Se5  1  0.66139223  0.94930218  0.03702414  1
  Se  Se6  1  0.35228144  0.03702414  0.94930218  1
  Se  Se7  1  0.30069782  0.58860777  0.89771856  1
loop_
_geom_bond_atom_site_label_1
_geom_bond_atom_site_label_2
_geom_bond_distance
_geom_bond_site_symmetry_2
K0 Se6 3.447253 1_565
K0 Se0 3.447253 1_654
K0 Se0 3.509150 1_565
K0 Se6 3.509150 1_654
K0 Se2 3.512412 1_555
K0 Se1 3.512412 1_555
K0 Se5 3.626030 1_555
K0 Se4 3.626030 1_555
K1 Se7 3.447253 1_565
K1 Se3 3.447253 1_655
K1 Se3 3.509150 1_566
K1 Se7 3.509150 1_654
K1 Se4 3.512412 1_555
K1 Se5 3.512412 1_556
K1 Se2 3.626030 1_565
K1 Se1 3.626031 1_655
K2 Se4 3.447253 1_545
K2 Se5 3.447253 1_456
K2 Se5 3.509150 1_545
K2 Se4 3.509150 1_456
K2 Se7 3.512412 1_555
K2 Se3 3.512412 1_555
K2 Se6 3.626030 1_555
K2 Se0 3.626031 1_555
K3 Se2 3.447253 1_555
K3 Se1 3.447253 1_556
K3 Se1 3.509150 1_645
K3 Se2 3.509150 1_466
K3 Se6 3.512412 1_565
K3 Se0 3.512412 1_655
K3 Se3 3.626030 1_556
K3 Se7 3.626030 1_555
Co0 Se2 2.363846 1_455
Co0 Se1 2.363846 1_544
Co0 Se7 2.363846 1_544
Co0 Se3 2.363846 1_455
Co0 V1 2.805784 1_544
Co0 V1 2.805784 1_455
Co1 Se6 2.363846 1_554
Co1 Se0 2.363846 1_555
Co1 Se4 2.363846 1_455
Co1 Se5 2.363846 1_545
Co1 V0 2.805784 1_544
Co1 V0 2.805784 1_455
Se0 V0 2.317861 1_455
Se1 V1 2.317861 1_555
Se2 V1 2.317861 1_555
Se3 V1 2.317860 1_555
Se4 V0 2.317860 1_555
Se5 V0 2.317860 1_554
Se6 V0 2.317861 1_545
Se7 V1 2.317860 1_555
