# generated using pymatgen
data_Rb3NaPb4
_symmetry_space_group_name_H-M   'P 1'
_cell_length_a   9.24073048
_cell_length_b   9.24060222
_cell_length_c   10.94445690
_cell_angle_alpha   90.00000000
_cell_angle_beta   90.00000000
_cell_angle_gamma   134.02823155
_symmetry_Int_Tables_number   1
_chemical_formula_structural   Rb3NaPb4
_chemical_formula_sum   'Rb6 Na2 Pb8'
_cell_volume   671.93634639
_cell_formula_units_Z   2
loop_
 _symmetry_equiv_pos_site_id
 _symmetry_equiv_pos_as_xyz
  1  'x, y, z'
loop_
 _atom_site_type_symbol
 _atom_site_label
 _atom_site_symmetry_multiplicity
 _atom_site_fract_x
 _atom_site_fract_y
 _atom_site_fract_z
 _atom_site_occupancy
  Rb  Rb0  1  0.23298263  0.76701694  0.25000000  1
  Rb  Rb1  1  0.76701737  0.23298306  0.75000000  1
  Rb  Rb2  1  0.61114137  0.38885963  0.04918323  1
  Rb  Rb3  1  0.38885863  0.61114037  0.95081677  1
  Rb  Rb4  1  0.38885863  0.61114037  0.54918323  1
  Rb  Rb5  1  0.61114137  0.38885963  0.45081677  1
  Na  Na0  1  0.00000000  0.00000000  0.00000000  1
  Na  Na1  1  0.00000000  0.00000000  0.50000000  1
  Pb  Pb0  1  0.17677450  0.27316680  0.25000000  1
  Pb  Pb1  1  0.82322550  0.72683320  0.75000000  1
  Pb  Pb2  1  0.72679124  0.82319041  0.25000000  1
  Pb  Pb3  1  0.27320876  0.17680959  0.75000000  1
  Pb  Pb4  1  0.82392853  0.17607021  0.11041022  1
  Pb  Pb5  1  0.17607147  0.82392979  0.88958978  1
  Pb  Pb6  1  0.17607147  0.82392979  0.61041022  1
  Pb  Pb7  1  0.82392853  0.17607021  0.38958978  1
loop_
_geom_bond_atom_site_label_1
_geom_bond_atom_site_label_2
_geom_bond_distance
_geom_bond_site_symmetry_2
Rb0 Rb4 4.213686 1_555
Rb0 Rb3 4.213686 1_554
Rb0 Rb5 4.706273 1_565
Rb0 Rb2 4.706273 1_565
Rb0 Rb5 4.706326 1_455
Rb0 Rb2 4.706326 1_455
Rb1 Rb2 4.213686 1_556
Rb1 Rb5 4.213686 1_555
Rb1 Rb4 4.706273 1_545
Rb1 Rb3 4.706273 1_545
Rb1 Rb3 4.706326 1_655
Rb1 Rb4 4.706326 1_655
Rb2 Rb3 3.932133 1_554
Rb2 Rb5 4.395661 1_555
Rb3 Rb4 4.395661 1_555
Rb4 Rb5 3.932133 1_555
Na0 Pb4 3.230193 1_455
Na0 Pb5 3.230193 1_544
Na0 Pb0 3.285549 1_555
Na0 Pb1 3.285549 1_444
Na0 Pb3 3.285716 1_554
Na0 Pb2 3.285716 1_445
Na0 Rb3 4.109324 1_554
Na0 Rb2 4.109324 1_445
Na0 Rb3 4.109395 1_444
Na0 Rb2 4.109395 1_555
Na0 Rb1 4.816561 1_454
Na0 Rb0 4.816561 1_545
Na1 Pb7 3.230193 1_455
Na1 Pb6 3.230193 1_545
Na1 Pb0 3.285549 1_555
Na1 Pb1 3.285549 1_445
Na1 Pb3 3.285716 1_555
Na1 Pb2 3.285716 1_445
Na1 Rb4 4.109324 1_555
Na1 Rb5 4.109324 1_445
Na1 Rb4 4.109395 1_445
Na1 Rb5 4.109395 1_555
Na1 Rb1 4.816561 1_455
Na1 Rb0 4.816561 1_545
Pb0 Pb7 3.115082 1_455
Pb0 Pb4 3.115082 1_455
Pb0 Pb2 3.247523 1_445
Pb0 Pb2 3.969518 1_555
Pb0 Rb3 3.975967 1_554
Pb0 Rb4 3.975967 1_555
Pb0 Rb2 4.014941 1_555
Pb0 Rb5 4.014941 1_555
Pb0 Rb0 4.219041 1_555
Pb1 Pb5 3.115082 1_655
Pb1 Pb6 3.115082 1_655
Pb1 Pb3 3.247523 1_665
Pb1 Pb3 3.969518 1_555
Pb1 Rb5 3.975967 1_555
Pb1 Rb2 3.975967 1_556
Pb1 Rb4 4.014941 1_555
Pb1 Rb3 4.014941 1_555
Pb1 Rb1 4.219041 1_555
Pb2 Pb7 3.115137 1_565
Pb2 Pb4 3.115137 1_565
Pb2 Rb3 3.975837 1_554
Pb2 Rb4 3.975837 1_555
Pb2 Rb2 4.014787 1_555
Pb2 Rb5 4.014787 1_555
Pb2 Rb0 4.218927 1_555
Pb3 Pb5 3.115137 1_545
Pb3 Pb6 3.115137 1_545
Pb3 Rb5 3.975837 1_555
Pb3 Rb2 3.975837 1_556
Pb3 Rb4 4.014787 1_555
Pb3 Rb3 4.014787 1_555
Pb3 Rb1 4.218927 1_555
Pb4 Pb7 3.055469 1_555
Pb4 Rb2 3.681858 1_555
Pb4 Rb1 4.061605 1_554
Pb4 Rb3 4.158423 1_544
Pb4 Rb3 4.158462 1_654
Pb4 Rb0 4.213016 1_655
Pb4 Rb0 4.213062 1_545
Pb5 Pb6 3.055469 1_555
Pb5 Rb3 3.681858 1_555
Pb5 Rb0 4.061605 1_556
Pb5 Rb2 4.158423 1_566
Pb5 Rb2 4.158462 1_456
Pb5 Rb1 4.213016 1_455
Pb5 Rb1 4.213062 1_565
Pb6 Rb4 3.681858 1_555
Pb6 Rb0 4.061605 1_555
Pb6 Rb5 4.158423 1_565
Pb6 Rb5 4.158462 1_455
Pb6 Rb1 4.213016 1_455
Pb6 Rb1 4.213062 1_565
Pb7 Rb5 3.681858 1_555
Pb7 Rb1 4.061605 1_555
Pb7 Rb4 4.158423 1_545
Pb7 Rb4 4.158462 1_655
Pb7 Rb0 4.213016 1_655
Pb7 Rb0 4.213062 1_545
