# generated using pymatgen
data_RbNa2SbSe3
_symmetry_space_group_name_H-M   'P 1'
_cell_length_a   9.43082030
_cell_length_b   9.43082030
_cell_length_c   9.43082030
_cell_angle_alpha   90.00000000
_cell_angle_beta   90.00000000
_cell_angle_gamma   90.00000000
_symmetry_Int_Tables_number   1
_chemical_formula_structural   RbNa2SbSe3
_chemical_formula_sum   'Rb4 Na8 Sb4 Se12'
_cell_volume   838.78066011
_cell_formula_units_Z   4
loop_
 _symmetry_equiv_pos_site_id
 _symmetry_equiv_pos_as_xyz
  1  'x, y, z'
loop_
 _atom_site_type_symbol
 _atom_site_label
 _atom_site_symmetry_multiplicity
 _atom_site_fract_x
 _atom_site_fract_y
 _atom_site_fract_z
 _atom_site_occupancy
  Rb  Rb0  1  0.92057648  0.42057648  0.07942352  1
  Rb  Rb1  1  0.42057648  0.07942352  0.92057648  1
  Rb  Rb2  1  0.07942352  0.92057648  0.42057648  1
  Rb  Rb3  1  0.57942352  0.57942352  0.57942352  1
  Na  Na0  1  0.18348863  0.68348863  0.81651137  1
  Na  Na1  1  0.68348863  0.81651137  0.18348863  1
  Na  Na2  1  0.81651137  0.18348863  0.68348863  1
  Na  Na3  1  0.31651137  0.31651137  0.31651137  1
  Na  Na4  1  0.68550731  0.18550731  0.31449269  1
  Na  Na5  1  0.18550731  0.31449269  0.68550731  1
  Na  Na6  1  0.31449269  0.68550731  0.18550731  1
  Na  Na7  1  0.81449269  0.81449269  0.81449269  1
  Sb  Sb0  1  0.47023089  0.97023089  0.52976911  1
  Sb  Sb1  1  0.97023089  0.52976911  0.47023089  1
  Sb  Sb2  1  0.52976911  0.47023089  0.97023089  1
  Sb  Sb3  1  0.02976911  0.02976911  0.02976911  1
  Se  Se0  1  0.00493393  0.76671808  0.09200949  1
  Se  Se1  1  0.90799051  0.50493393  0.73328192  1
  Se  Se2  1  0.26671808  0.40799051  0.99506607  1
  Se  Se3  1  0.50493393  0.73328192  0.90799051  1
  Se  Se4  1  0.40799051  0.99506607  0.26671808  1
  Se  Se5  1  0.76671808  0.09200949  0.00493393  1
  Se  Se6  1  0.99506607  0.26671808  0.40799051  1
  Se  Se7  1  0.09200949  0.00493393  0.76671808  1
  Se  Se8  1  0.73328192  0.90799051  0.50493393  1
  Se  Se9  1  0.49506607  0.23328192  0.59200949  1
  Se  Se10  1  0.59200949  0.49506607  0.23328192  1
  Se  Se11  1  0.23328192  0.59200949  0.49506607  1
loop_
_geom_bond_atom_site_label_1
_geom_bond_atom_site_label_2
_geom_bond_distance
_geom_bond_site_symmetry_2
Rb0 Se0 3.362039 1_655
Rb0 Se2 3.362039 1_654
Rb0 Se1 3.362039 1_554
Rb0 Se10 3.492937 1_555
Rb0 Se5 3.492937 1_555
Rb0 Se6 3.492937 1_555
Rb0 Sb1 3.855337 1_555
Rb0 Sb3 3.855337 1_655
Rb0 Sb2 3.855337 1_554
Rb1 Se3 3.362039 1_545
Rb1 Se4 3.362039 1_546
Rb1 Se5 3.362039 1_556
Rb1 Se9 3.492937 1_555
Rb1 Se7 3.492937 1_555
Rb1 Se2 3.492937 1_555
Rb1 Sb3 3.855337 1_556
Rb1 Sb0 3.855337 1_545
Rb1 Sb2 3.855337 1_555
Rb2 Se8 3.362039 1_455
Rb2 Se7 3.362039 1_565
Rb2 Se6 3.362039 1_465
Rb2 Se11 3.492937 1_555
Rb2 Se4 3.492937 1_555
Rb2 Se0 3.492937 1_555
Rb2 Sb3 3.855337 1_565
Rb2 Sb1 3.855337 1_455
Rb2 Sb0 3.855337 1_555
Rb3 Se9 3.362039 1_555
Rb3 Se10 3.362039 1_555
Rb3 Se11 3.362039 1_555
Rb3 Se1 3.492937 1_555
Rb3 Se3 3.492937 1_555
Rb3 Se8 3.492937 1_555
Rb3 Sb0 3.855337 1_555
Rb3 Sb1 3.855337 1_555
Rb3 Sb2 3.855337 1_555
Na0 Se3 3.186653 1_555
Na0 Se7 3.186653 1_565
Na0 Se11 3.186653 1_555
Na0 Se0 3.194086 1_556
Na0 Se2 3.194086 1_555
Na0 Se1 3.194086 1_455
Na0 Na6 3.692791 1_556
Na0 Na7 3.692791 1_455
Na0 Na5 3.692791 1_555
Na1 Se8 3.186653 1_555
Na1 Se0 3.186653 1_655
Na1 Se10 3.186653 1_555
Na1 Se5 3.194086 1_565
Na1 Se4 3.194086 1_555
Na1 Se3 3.194086 1_554
Na1 Na4 3.692791 1_565
Na1 Na7 3.692791 1_554
Na1 Na6 3.692791 1_555
Na2 Se1 3.186653 1_555
Na2 Se5 3.186653 1_556
Na2 Se9 3.186653 1_555
Na2 Se7 3.194086 1_655
Na2 Se6 3.194086 1_555
Na2 Se8 3.194086 1_545
Na2 Na5 3.692791 1_655
Na2 Na7 3.692791 1_545
Na2 Na4 3.692791 1_555
Na3 Se6 3.186653 1_455
Na3 Se2 3.186653 1_554
Na3 Se4 3.186653 1_545
Na3 Se10 3.194086 1_555
Na3 Se11 3.194086 1_555
Na3 Se9 3.194086 1_555
Na3 Na4 3.692791 1_555
Na3 Na5 3.692791 1_555
Na3 Na6 3.692791 1_555
Na4 Se10 3.144350 1_555
Na4 Se5 3.144350 1_555
Na4 Se6 3.144350 1_555
Na4 Se4 3.206005 1_545
Na4 Se8 3.206005 1_545
Na4 Se9 3.206005 1_555
Na4 Rb0 3.839775 1_555
Na5 Se2 3.144350 1_555
Na5 Se9 3.144350 1_555
Na5 Se7 3.144350 1_555
Na5 Se6 3.206005 1_455
Na5 Se1 3.206005 1_455
Na5 Se11 3.206005 1_555
Na5 Rb1 3.839775 1_555
Na6 Se11 3.144350 1_555
Na6 Se0 3.144350 1_555
Na6 Se4 3.144350 1_555
Na6 Se2 3.206005 1_554
Na6 Se3 3.206005 1_554
Na6 Se10 3.206005 1_555
Na6 Rb2 3.839775 1_555
Na7 Se8 3.144350 1_555
Na7 Se1 3.144350 1_555
Na7 Se3 3.144350 1_555
Na7 Se5 3.206005 1_566
Na7 Se7 3.206005 1_665
Na7 Se0 3.206005 1_656
Na7 Rb3 3.839775 1_555
Sb0 Se9 2.560020 1_565
Sb0 Se4 2.560020 1_555
Sb0 Se8 2.560020 1_555
Sb1 Se6 2.560020 1_555
Sb1 Se11 2.560020 1_655
Sb1 Se1 2.560020 1_555
Sb2 Se2 2.560020 1_555
Sb2 Se10 2.560020 1_556
Sb2 Se3 2.560020 1_555
Sb3 Se7 2.560020 1_554
Sb3 Se0 2.560020 1_545
Sb3 Se5 2.560020 1_455
