# generated using pymatgen
data_Nd2Zn17
_symmetry_space_group_name_H-M   'P 1'
_cell_length_a   6.75870682
_cell_length_b   6.75870722
_cell_length_c   6.75870667
_cell_angle_alpha   82.95317125
_cell_angle_beta   82.95318417
_cell_angle_gamma   82.95316929
_symmetry_Int_Tables_number   1
_chemical_formula_structural   Nd2Zn17
_chemical_formula_sum   'Nd2 Zn17'
_cell_volume   302.27084395
_cell_formula_units_Z   1
loop_
 _symmetry_equiv_pos_site_id
 _symmetry_equiv_pos_as_xyz
  1  'x, y, z'
loop_
 _atom_site_type_symbol
 _atom_site_label
 _atom_site_symmetry_multiplicity
 _atom_site_fract_x
 _atom_site_fract_y
 _atom_site_fract_z
 _atom_site_occupancy
  Nd  Nd0  1  0.66362530  0.66362530  0.66362530  1
  Nd  Nd1  1  0.33637470  0.33637470  0.33637470  1
  Zn  Zn0  1  0.34938540  0.34938540  0.83919703  1
  Zn  Zn1  1  0.34938540  0.83919703  0.34938540  1
  Zn  Zn2  1  0.09878719  0.09878719  0.09878719  1
  Zn  Zn3  1  0.90121281  0.90121281  0.90121281  1
  Zn  Zn4  1  0.00000000  -0.00000000  0.50000000  1
  Zn  Zn5  1  0.50000000  -0.00000000  0.00000000  1
  Zn  Zn6  1  0.00000000  0.50000000  0.00000000  1
  Zn  Zn7  1  0.70798755  0.29201245  -0.00000000  1
  Zn  Zn8  1  0.00000000  0.70798755  0.29201245  1
  Zn  Zn9  1  0.29201245  -0.00000000  0.70798755  1
  Zn  Zn10  1  0.29201245  0.70798755  0.00000000  1
  Zn  Zn11  1  -0.00000000  0.29201245  0.70798755  1
  Zn  Zn12  1  0.70798755  0.00000000  0.29201245  1
  Zn  Zn13  1  0.65061460  0.16080297  0.65061460  1
  Zn  Zn14  1  0.65061460  0.65061460  0.16080297  1
  Zn  Zn15  1  0.16080297  0.65061460  0.65061460  1
  Zn  Zn16  1  0.83919703  0.34938540  0.34938540  1
loop_
_geom_bond_atom_site_label_1
_geom_bond_atom_site_label_2
_geom_bond_distance
_geom_bond_site_symmetry_2
Nd0 Zn3 3.103812 1_555
Nd0 Zn11 3.185625 1_655
Nd0 Zn7 3.185625 1_556
Nd0 Zn9 3.185625 1_565
Nd0 Zn12 3.185625 1_565
Nd0 Zn10 3.185625 1_556
Nd0 Zn8 3.185625 1_655
Nd0 Zn1 3.209307 1_555
Nd0 Zn16 3.209308 1_555
Nd0 Zn0 3.209308 1_555
Nd0 Zn14 3.341232 1_556
Nd0 Zn15 3.341232 1_655
Nd0 Zn13 3.341232 1_565
Nd0 Zn6 3.405088 1_656
Nd0 Zn5 3.405088 1_566
Nd0 Zn4 3.405089 1_665
Nd0 Zn14 3.422474 1_555
Nd0 Zn15 3.422474 1_555
Nd0 Zn13 3.422474 1_555
Nd1 Zn2 3.103812 1_555
Nd1 Zn8 3.185625 1_555
Nd1 Zn10 3.185625 1_555
Nd1 Zn12 3.185625 1_555
Nd1 Zn9 3.185625 1_555
Nd1 Zn7 3.185625 1_555
Nd1 Zn11 3.185625 1_555
Nd1 Zn13 3.209307 1_555
Nd1 Zn15 3.209308 1_555
Nd1 Zn14 3.209308 1_555
Nd1 Zn0 3.341232 1_554
Nd1 Zn16 3.341232 1_455
Nd1 Zn1 3.341232 1_545
Nd1 Zn6 3.405088 1_555
Nd1 Zn5 3.405088 1_555
Nd1 Zn4 3.405089 1_555
Nd1 Zn0 3.422474 1_555
Nd1 Zn16 3.422474 1_555
Nd1 Zn1 3.422474 1_555
Zn0 Zn15 2.553283 1_555
Zn0 Zn13 2.553283 1_555
Zn0 Zn5 2.616401 1_556
Zn0 Zn6 2.616401 1_556
Zn0 Zn11 2.708472 1_555
Zn0 Zn9 2.708472 1_555
Zn0 Zn7 2.741917 1_556
Zn0 Zn10 2.741917 1_556
Zn0 Zn2 2.839234 1_556
Zn1 Zn14 2.553283 1_555
Zn1 Zn15 2.553283 1_555
Zn1 Zn4 2.616401 1_565
Zn1 Zn5 2.616401 1_565
Zn1 Zn10 2.708472 1_555
Zn1 Zn8 2.708472 1_555
Zn1 Zn9 2.741917 1_565
Zn1 Zn12 2.741917 1_565
Zn1 Zn2 2.839233 1_565
Zn2 Zn3 2.581086 1_444
Zn2 Zn6 2.732344 1_555
Zn2 Zn4 2.732344 1_555
Zn2 Zn5 2.732344 1_555
Zn2 Zn7 2.915506 1_455
Zn2 Zn9 2.915506 1_554
Zn2 Zn8 2.915506 1_545
Zn3 Zn6 2.732344 1_656
Zn3 Zn4 2.732344 1_665
Zn3 Zn5 2.732344 1_566
Zn3 Zn8 2.915506 1_656
Zn3 Zn7 2.915506 1_566
Zn3 Zn9 2.915506 1_665
Zn4 Zn9 2.559686 1_555
Zn4 Zn8 2.559686 1_545
Zn5 Zn9 2.559686 1_554
Zn5 Zn7 2.559687 1_555
Zn6 Zn8 2.559686 1_555
Zn6 Zn7 2.559687 1_455
Zn10 Zn6 2.559687 1_555
Zn10 Zn5 2.559687 1_565
Zn10 Zn9 2.614321 1_564
Zn10 Zn8 2.614321 1_555
Zn10 Zn15 2.708472 1_554
Zn10 Zn14 2.741917 1_555
Zn10 Zn3 2.915506 1_454
Zn10 Zn2 2.915506 1_565
Zn11 Zn6 2.559686 1_556
Zn11 Zn4 2.559686 1_555
Zn11 Zn9 2.614321 1_555
Zn11 Zn7 2.614321 1_456
Zn11 Zn13 2.708472 1_455
Zn11 Zn16 2.741916 1_455
Zn11 Zn15 2.741917 1_555
Zn11 Zn2 2.915506 1_556
Zn11 Zn3 2.915506 1_445
Zn12 Zn5 2.559686 1_555
Zn12 Zn4 2.559686 1_655
Zn12 Zn8 2.614321 1_645
Zn12 Zn7 2.614321 1_555
Zn12 Zn14 2.708472 1_545
Zn12 Zn16 2.708472 1_555
Zn12 Zn13 2.741917 1_555
Zn12 Zn3 2.915506 1_544
Zn12 Zn2 2.915506 1_655
Zn13 Zn16 2.553283 1_555
Zn13 Zn4 2.616401 1_655
Zn13 Zn5 2.616401 1_556
Zn13 Zn7 2.708472 1_556
Zn13 Zn9 2.741917 1_555
Zn13 Zn3 2.839233 1_545
Zn14 Zn16 2.553283 1_555
Zn14 Zn5 2.616401 1_565
Zn14 Zn6 2.616401 1_655
Zn14 Zn8 2.708472 1_655
Zn14 Zn7 2.741917 1_555
Zn14 Zn3 2.839234 1_554
Zn15 Zn4 2.616401 1_565
Zn15 Zn6 2.616401 1_556
Zn15 Zn9 2.708472 1_565
Zn15 Zn8 2.741916 1_555
Zn15 Zn3 2.839234 1_455
Zn16 Zn4 2.616401 1_655
Zn16 Zn6 2.616401 1_655
Zn16 Zn7 2.708472 1_555
Zn16 Zn8 2.741917 1_655
Zn16 Zn2 2.839234 1_655
