# generated using pymatgen
data_PAuS4
_symmetry_space_group_name_H-M   'P 1'
_cell_length_a   6.10490370
_cell_length_b   7.12517159
_cell_length_c   8.22377810
_cell_angle_alpha   79.19618922
_cell_angle_beta   86.00534337
_cell_angle_gamma   78.69335781
_symmetry_Int_Tables_number   1
_chemical_formula_structural   PAuS4
_chemical_formula_sum   'P2 Au2 S8'
_cell_volume   344.36036455
_cell_formula_units_Z   2
loop_
 _symmetry_equiv_pos_site_id
 _symmetry_equiv_pos_as_xyz
  1  'x, y, z'
loop_
 _atom_site_type_symbol
 _atom_site_label
 _atom_site_symmetry_multiplicity
 _atom_site_fract_x
 _atom_site_fract_y
 _atom_site_fract_z
 _atom_site_occupancy
  P  P0  1  0.73984267  0.25109622  0.24584343  1
  P  P1  1  0.26015733  0.74890378  0.75415657  1
  Au  Au0  1  0.50000000  0.50000000  0.50000000  1
  Au  Au1  1  -0.00000000  -0.00000000  0.00000000  1
  S  S0  1  0.25210509  0.70246802  0.00706960  1
  S  S1  1  0.74789491  0.29753198  -0.00706960  1
  S  S2  1  0.43071288  0.25958341  0.35858893  1
  S  S3  1  0.56928712  0.74041659  0.64141107  1
  S  S4  1  0.05579325  0.01646294  0.71169436  1
  S  S5  1  0.94420675  0.98353706  0.28830564  1
  S  S6  1  0.16094249  0.53628353  0.65701850  1
  S  S7  1  0.83905751  0.46371647  0.34298150  1
loop_
_geom_bond_atom_site_label_1
_geom_bond_atom_site_label_2
_geom_bond_distance
_geom_bond_site_symmetry_2
P0 S2 2.038964 1_555
P0 S1 2.042552 1_555
P0 S7 2.044757 1_555
P0 S5 2.047282 1_545
P1 S3 2.038964 1_555
P1 S0 2.042552 1_556
P1 S6 2.044757 1_555
P1 S4 2.047282 1_565
Au0 S6 2.358328 1_555
Au0 S7 2.358328 1_555
Au0 S2 2.359074 1_555
Au0 S3 2.359074 1_555
Au1 S5 2.355869 1_445
Au1 S4 2.355869 1_554
Au1 S0 2.356534 1_545
Au1 S1 2.356534 1_455
