# generated using pymatgen
data_Rb6Hg2H9F
_symmetry_space_group_name_H-M   'P 1'
_cell_length_a   8.19541206
_cell_length_b   8.19541135
_cell_length_c   8.19541178
_cell_angle_alpha   122.07858283
_cell_angle_beta   122.07858491
_cell_angle_gamma   86.43597725
_symmetry_Int_Tables_number   1
_chemical_formula_structural   Rb6Hg2H9F
_chemical_formula_sum   'Rb6 Hg2 H9 F1'
_cell_volume   376.20111258
_cell_formula_units_Z   1
loop_
 _symmetry_equiv_pos_site_id
 _symmetry_equiv_pos_as_xyz
  1  'x, y, z'
loop_
 _atom_site_type_symbol
 _atom_site_label
 _atom_site_symmetry_multiplicity
 _atom_site_fract_x
 _atom_site_fract_y
 _atom_site_fract_z
 _atom_site_occupancy
  Rb  Rb0  1  0.81125225  0.32186886  0.13312211  1
  Rb  Rb1  1  0.67813114  0.81125225  0.48938340  1
  Rb  Rb2  1  0.32186886  0.18874775  0.51061660  1
  Rb  Rb3  1  0.18874775  0.67813114  0.86687789  1
  Rb  Rb4  1  0.25433473  0.25433473  0.00000000  1
  Rb  Rb5  1  0.74566527  0.74566527  1.00000000  1
  Hg  Hg0  1  0.25000000  0.75000000  0.50000000  1
  Hg  Hg1  1  0.75000000  0.25000000  0.50000000  1
  H  H0  1  0.00000000  0.00000000  0.00000000  1
  H  H1  1  0.28863384  0.53212529  0.50039301  1
  H  H2  1  0.03173327  0.78824182  0.49960699  1
  H  H3  1  0.78824182  0.28863384  0.75650855  1
  H  H4  1  0.53212529  0.03173327  0.24349145  1
  H  H5  1  0.46787471  0.96826673  0.75650855  1
  H  H6  1  0.21175818  0.71136616  0.24349145  1
  H  H7  1  0.96826673  0.21175818  0.50039301  1
  H  H8  1  0.71136616  0.46787471  0.49960699  1
  F  F0  1  0.50000000  0.50000000  0.00000000  1
loop_
_geom_bond_atom_site_label_1
_geom_bond_atom_site_label_2
_geom_bond_distance
_geom_bond_site_symmetry_2
H0 Rb2 2.961374 1_555
H0 Rb1 2.961374 1_444
H0 Rb0 2.961376 1_455
H0 Rb3 2.961376 1_544
H0 Rb5 3.037996 1_444
H0 Rb4 3.037996 1_555
H1 Hg0 1.795346 1_555
H1 Rb2 2.851559 1_555
H1 Rb3 3.129746 1_555
H1 Rb0 3.186941 1_455
H1 Rb5 3.281948 1_555
H1 Rb4 3.319358 1_555
H2 Hg0 1.795339 1_555
H2 Rb1 2.851567 1_455
H2 Rb0 3.129761 1_455
H2 Rb3 3.186941 1_555
H2 Rb5 3.281944 1_454
H2 Rb4 3.319353 1_566
H3 Hg1 1.795342 1_555
H3 Rb0 2.851571 1_556
H3 Rb2 3.129761 1_555
H3 Rb1 3.186941 1_545
H3 Rb5 3.281950 1_555
H3 Rb4 3.319351 1_656
H4 Hg1 1.795342 1_555
H4 Rb3 2.851563 1_544
H4 Rb1 3.129761 1_545
H4 Rb2 3.186941 1_555
H4 Rb5 3.281950 1_544
H4 Rb4 3.319351 1_555
H5 Hg0 1.795342 1_555
H5 Rb0 2.851563 1_566
H5 Rb2 3.129761 1_565
H5 Rb1 3.186941 1_555
H5 Rb4 3.281950 1_566
H5 Rb5 3.319351 1_555
H6 Hg0 1.795342 1_555
H6 Rb3 2.851571 1_554
H6 Rb1 3.129761 1_555
H6 Rb2 3.186941 1_565
H6 Rb4 3.281950 1_555
H6 Rb5 3.319351 1_454
H7 Hg1 1.795339 1_555
H7 Rb2 2.851567 1_655
H7 Rb3 3.129761 1_655
H7 Rb0 3.186941 1_555
H7 Rb4 3.281944 1_656
H7 Rb5 3.319353 1_544
H8 Hg1 1.795346 1_555
H8 Rb1 2.851559 1_555
H8 Rb0 3.129746 1_555
H8 Rb3 3.186941 1_655
H8 Rb4 3.281948 1_555
H8 Rb5 3.319358 1_555
F0 Rb1 2.846226 1_555
F0 Rb2 2.846226 1_554
F0 Rb0 2.846228 1_555
F0 Rb3 2.846228 1_554
F0 Rb4 2.934440 1_555
F0 Rb5 2.934440 1_554
