# generated using pymatgen
data_Hf16Tc3Ni4Pd
_symmetry_space_group_name_H-M   'P 1'
_cell_length_a   8.58640334
_cell_length_b   8.58640341
_cell_length_c   8.58640446
_cell_angle_alpha   60.07507620
_cell_angle_beta   60.07507453
_cell_angle_gamma   60.07507260
_symmetry_Int_Tables_number   1
_chemical_formula_structural   Hf16Tc3Ni4Pd
_chemical_formula_sum   'Hf16 Tc3 Ni4 Pd1'
_cell_volume   448.39128543
_cell_formula_units_Z   1
loop_
 _symmetry_equiv_pos_site_id
 _symmetry_equiv_pos_as_xyz
  1  'x, y, z'
loop_
 _atom_site_type_symbol
 _atom_site_label
 _atom_site_symmetry_multiplicity
 _atom_site_fract_x
 _atom_site_fract_y
 _atom_site_fract_z
 _atom_site_occupancy
  Hf  Hf0  1  0.68455388  0.10455526  0.10455526  1
  Hf  Hf1  1  0.10455526  0.68455388  0.10455526  1
  Hf  Hf2  1  0.10455526  0.10455526  0.68455388  1
  Hf  Hf3  1  0.10355251  0.10355251  0.10355251  1
  Hf  Hf4  1  0.31558818  0.31558818  0.69251350  1
  Hf  Hf5  1  0.68594487  0.68594487  0.31485629  1
  Hf  Hf6  1  0.31558818  0.69251350  0.31558818  1
  Hf  Hf7  1  0.68594487  0.31485629  0.68594487  1
  Hf  Hf8  1  0.69251350  0.31558818  0.31558818  1
  Hf  Hf9  1  0.31485629  0.68594487  0.68594487  1
  Hf  Hf10  1  0.95159964  0.95159964  0.54813259  1
  Hf  Hf11  1  0.55167637  0.55167637  0.94582634  1
  Hf  Hf12  1  0.95159964  0.54813259  0.95159964  1
  Hf  Hf13  1  0.55167637  0.94582634  0.55167637  1
  Hf  Hf14  1  0.54813259  0.95159964  0.95159964  1
  Hf  Hf15  1  0.94582634  0.55167637  0.55167637  1
  Tc  Tc0  1  0.99516892  0.33311431  0.33311431  1
  Tc  Tc1  1  0.33311431  0.99516892  0.33311431  1
  Tc  Tc2  1  0.33311431  0.33311431  0.99516892  1
  Ni  Ni0  1  0.32206324  0.89123970  0.89123970  1
  Ni  Ni1  1  0.89123970  0.32206324  0.89123970  1
  Ni  Ni2  1  0.89123970  0.89123970  0.32206324  1
  Ni  Ni3  1  0.89326211  0.89326211  0.89326211  1
  Pd  Pd0  1  0.33263192  0.33263192  0.33263192  1
loop_
_geom_bond_atom_site_label_1
_geom_bond_atom_site_label_2
_geom_bond_distance
_geom_bond_site_symmetry_2
Hf0 Ni3 2.567251 1_544
Hf0 Ni1 2.577414 1_554
Hf0 Ni2 2.577414 1_545
Hf0 Pd0 2.969728 1_555
Hf0 Tc2 2.986575 1_554
Hf0 Tc1 2.986575 1_545
Hf0 Hf14 3.100417 1_544
Hf0 Hf5 3.111783 1_545
Hf0 Hf7 3.111783 1_554
Hf0 Hf11 3.139911 1_554
Hf0 Hf13 3.139911 1_545
Hf0 Hf8 3.177187 1_555
Hf1 Ni3 2.567251 1_454
Hf1 Ni0 2.577414 1_554
Hf1 Ni2 2.577414 1_455
Hf1 Pd0 2.969728 1_555
Hf1 Tc2 2.986575 1_554
Hf1 Tc0 2.986575 1_455
Hf1 Hf12 3.100417 1_454
Hf1 Hf5 3.111783 1_455
Hf1 Hf9 3.111783 1_554
Hf1 Hf11 3.139911 1_554
Hf1 Hf15 3.139911 1_455
Hf1 Hf6 3.177187 1_555
Hf2 Ni3 2.567251 1_445
Hf2 Ni1 2.577414 1_455
Hf2 Ni0 2.577414 1_545
Hf2 Pd0 2.969729 1_555
Hf2 Tc1 2.986575 1_545
Hf2 Tc0 2.986575 1_455
Hf2 Hf7 3.111783 1_455
Hf2 Hf9 3.111783 1_545
Hf2 Hf4 3.177187 1_555
Hf3 Ni2 2.580213 1_445
Hf3 Ni0 2.580213 1_544
Hf3 Ni1 2.580213 1_454
Hf3 Tc2 2.975343 1_554
Hf3 Tc0 2.975344 1_455
Hf3 Tc1 2.975344 1_545
Hf3 Hf8 3.093659 1_455
Hf3 Hf6 3.093659 1_545
Hf3 Hf4 3.093660 1_554
Hf4 Tc2 2.757102 1_555
Hf4 Pd0 2.951350 1_555
Hf4 Ni1 3.143261 1_455
Hf4 Ni0 3.143261 1_545
Hf4 Hf7 3.149173 1_555
Hf4 Hf9 3.149173 1_555
Hf4 Hf8 3.240105 1_555
Hf4 Hf6 3.240105 1_555
Hf5 Tc1 2.858020 1_555
Hf5 Tc0 2.858020 1_555
Hf5 Ni2 3.088081 1_555
Hf5 Ni3 3.121660 1_554
Hf5 Hf6 3.149173 1_555
Hf5 Hf8 3.149173 1_555
Hf5 Hf9 3.189931 1_555
Hf5 Hf7 3.189932 1_555
Hf6 Tc1 2.757102 1_555
Hf6 Pd0 2.951350 1_555
Hf6 Ni2 3.143261 1_455
Hf6 Ni0 3.143262 1_554
Hf6 Hf9 3.149173 1_555
Hf6 Hf8 3.240105 1_555
Hf7 Tc2 2.858021 1_555
Hf7 Tc0 2.858021 1_555
Hf7 Ni1 3.088081 1_555
Hf7 Ni3 3.121660 1_545
Hf7 Hf8 3.149173 1_555
Hf7 Hf9 3.189931 1_555
Hf8 Tc0 2.757102 1_555
Hf8 Pd0 2.951350 1_555
Hf8 Ni2 3.143261 1_545
Hf8 Ni1 3.143262 1_554
Hf9 Tc2 2.858021 1_555
Hf9 Tc1 2.858021 1_555
Hf9 Ni0 3.088081 1_555
Hf9 Ni3 3.121660 1_455
Hf10 Ni3 2.563583 1_555
Hf10 Ni2 2.565283 1_555
Hf10 Tc1 2.962942 1_655
Hf10 Tc0 2.962942 1_565
Hf10 Hf2 3.100417 1_665
Hf10 Hf3 3.120356 1_665
Hf10 Hf6 3.157892 1_655
Hf10 Hf8 3.157892 1_565
Hf10 Hf7 3.197308 1_565
Hf10 Hf9 3.197308 1_655
Hf10 Hf13 3.443712 1_555
Hf10 Hf15 3.443712 1_555
Hf10 Hf14 3.468261 1_555
Hf10 Hf12 3.468262 1_555
Hf11 Ni1 2.535909 1_555
Hf11 Ni0 2.535909 1_555
Hf11 Tc2 3.024980 1_555
Hf11 Pd0 3.028221 1_556
Hf11 Hf7 3.172506 1_555
Hf11 Hf9 3.172506 1_555
Hf11 Hf6 3.258106 1_556
Hf11 Hf8 3.258106 1_556
Hf11 Hf15 3.388170 1_555
Hf11 Hf13 3.388171 1_555
Hf11 Hf12 3.443712 1_555
Hf11 Hf14 3.443712 1_555
Hf12 Ni3 2.563582 1_555
Hf12 Ni1 2.565283 1_555
Hf12 Tc2 2.962942 1_655
Hf12 Tc0 2.962942 1_556
Hf12 Hf3 3.120356 1_656
Hf12 Hf4 3.157892 1_655
Hf12 Hf8 3.157892 1_556
Hf12 Hf9 3.197309 1_655
Hf12 Hf5 3.197309 1_556
Hf12 Hf15 3.443713 1_555
Hf12 Hf14 3.468261 1_555
Hf13 Ni2 2.535909 1_555
Hf13 Ni0 2.535910 1_555
Hf13 Tc1 3.024980 1_555
Hf13 Pd0 3.028221 1_565
Hf13 Hf2 3.139911 1_565
Hf13 Hf9 3.172506 1_555
Hf13 Hf5 3.172506 1_555
Hf13 Hf4 3.258105 1_565
Hf13 Hf8 3.258105 1_565
Hf13 Hf15 3.388170 1_555
Hf13 Hf14 3.443713 1_555
Hf14 Ni3 2.563582 1_555
Hf14 Ni0 2.565283 1_555
Hf14 Tc2 2.962942 1_565
Hf14 Tc1 2.962942 1_556
Hf14 Hf3 3.120356 1_566
Hf14 Hf4 3.157892 1_565
Hf14 Hf6 3.157892 1_556
Hf14 Hf7 3.197309 1_565
Hf14 Hf5 3.197309 1_556
Hf15 Ni2 2.535909 1_555
Hf15 Ni1 2.535910 1_555
Hf15 Tc0 3.024980 1_555
Hf15 Pd0 3.028220 1_655
Hf15 Hf2 3.139911 1_655
Hf15 Hf7 3.172506 1_555
Hf15 Hf5 3.172506 1_555
Hf15 Hf6 3.258105 1_655
Hf15 Hf4 3.258105 1_655
Tc0 Tc1 2.905027 1_645
Tc0 Tc2 2.905028 1_654
Tc1 Tc2 2.905028 1_564
Pd0 Tc0 2.893467 1_455
Pd0 Tc1 2.893467 1_545
Pd0 Tc2 2.893467 1_554
