# generated using pymatgen
data_RbCl(OF)2
_symmetry_space_group_name_H-M   'P 1'
_cell_length_a   5.59303923
_cell_length_b   8.57500666
_cell_length_c   8.61587609
_cell_angle_alpha   90.00000000
_cell_angle_beta   90.00000000
_cell_angle_gamma   90.00000000
_symmetry_Int_Tables_number   1
_chemical_formula_structural   RbCl(OF)2
_chemical_formula_sum   'Rb4 Cl4 O8 F8'
_cell_volume   413.22042169
_cell_formula_units_Z   4
loop_
 _symmetry_equiv_pos_site_id
 _symmetry_equiv_pos_as_xyz
  1  'x, y, z'
loop_
 _atom_site_type_symbol
 _atom_site_label
 _atom_site_symmetry_multiplicity
 _atom_site_fract_x
 _atom_site_fract_y
 _atom_site_fract_z
 _atom_site_occupancy
  Rb  Rb0  1  0.25000000  0.39952005  0.62010767  1
  Rb  Rb1  1  0.75000000  0.89952005  0.87989233  1
  Rb  Rb2  1  0.75000000  0.60047995  0.37989233  1
  Rb  Rb3  1  0.25000000  0.10047995  0.12010767  1
  Cl  Cl0  1  0.75000000  0.38278737  0.90027189  1
  Cl  Cl1  1  0.25000000  0.61721263  0.09972811  1
  Cl  Cl2  1  0.25000000  0.88278737  0.59972811  1
  Cl  Cl3  1  0.75000000  0.11721263  0.40027189  1
  O  O0  1  0.96249337  0.20972534  0.39056530  1
  O  O1  1  0.46249337  0.70972534  0.10943470  1
  O  O2  1  0.53750663  0.29027466  0.89056530  1
  O  O3  1  0.96249337  0.29027466  0.89056530  1
  O  O4  1  0.53750663  0.20972534  0.39056530  1
  O  O5  1  0.46249337  0.79027466  0.60943470  1
  O  O6  1  0.03750663  0.70972534  0.10943470  1
  O  O7  1  0.03750663  0.79027466  0.60943470  1
  F  F0  1  0.75000000  0.44909705  0.66915668  1
  F  F1  1  0.75000000  0.09510486  0.61829047  1
  F  F2  1  0.25000000  0.94909705  0.83084332  1
  F  F3  1  0.25000000  0.55090295  0.33084332  1
  F  F4  1  0.75000000  0.05090295  0.16915668  1
  F  F5  1  0.25000000  0.90489514  0.38170953  1
  F  F6  1  0.75000000  0.40489514  0.11829047  1
  F  F7  1  0.25000000  0.59510486  0.88170953  1
loop_
_geom_bond_atom_site_label_1
_geom_bond_atom_site_label_2
_geom_bond_distance
_geom_bond_site_symmetry_2
Cl0 O3 1.431366 1_555
Cl0 O2 1.431366 1_555
Cl0 F6 1.887963 1_556
Cl0 F0 2.070852 1_555
Cl1 O1 1.431366 1_555
Cl1 O6 1.431366 1_555
Cl1 F7 1.887963 1_554
Cl1 F3 2.070852 1_555
Cl2 O5 1.431366 1_555
Cl2 O7 1.431366 1_555
Cl2 F5 1.887963 1_555
Cl2 F2 2.070852 1_555
Cl3 O0 1.431366 1_555
Cl3 O4 1.431366 1_555
Cl3 F1 1.887963 1_555
Cl3 F4 2.070852 1_555
O0 Rb3 2.982165 1_655
O0 Rb0 3.024209 1_655
O1 Rb2 2.982165 1_555
O1 Rb1 3.024209 1_554
O2 Rb0 2.982165 1_555
O2 Rb3 3.024209 1_556
O3 Rb0 2.982165 1_655
O3 Rb3 3.024209 1_656
O4 Rb3 2.982165 1_555
O4 Rb0 3.024209 1_555
O5 Rb1 2.982165 1_555
O5 Rb2 3.024209 1_555
O6 Rb2 2.982165 1_455
O6 Rb1 3.024209 1_454
O7 Rb1 2.982165 1_455
O7 Rb2 3.024209 1_455
F0 Rb2 2.810067 1_555
F0 Rb0 2.860042 1_555
F0 Rb0 2.860042 1_655
F1 O0 2.495632 1_555
F1 O4 2.495632 1_555
F1 Rb1 2.809448 1_545
F2 Rb3 2.810067 1_566
F2 Rb1 2.860042 1_455
F2 Rb1 2.860042 1_555
F3 Rb0 2.810067 1_555
F3 Rb2 2.860042 1_555
F3 Rb2 2.860042 1_455
F4 Rb1 2.810067 1_544
F4 Rb3 2.860042 1_655
F4 Rb3 2.860042 1_555
F5 O5 2.495632 1_555
F5 O7 2.495632 1_555
F5 Rb3 2.809448 1_565
F6 O3 2.495632 1_554
F6 O2 2.495632 1_554
F6 Rb2 2.809448 1_555
F7 O1 2.495632 1_556
F7 O6 2.495632 1_556
F7 Rb0 2.809448 1_555
