# generated using pymatgen
data_RbTcF5
_symmetry_space_group_name_H-M   'P 1'
_cell_length_a   5.64840054
_cell_length_b   8.07754408
_cell_length_c   10.05109719
_cell_angle_alpha   90.00000000
_cell_angle_beta   90.00000000
_cell_angle_gamma   90.00000000
_symmetry_Int_Tables_number   1
_chemical_formula_structural   RbTcF5
_chemical_formula_sum   'Rb4 Tc4 F20'
_cell_volume   458.58336286
_cell_formula_units_Z   4
loop_
 _symmetry_equiv_pos_site_id
 _symmetry_equiv_pos_as_xyz
  1  'x, y, z'
loop_
 _atom_site_type_symbol
 _atom_site_label
 _atom_site_symmetry_multiplicity
 _atom_site_fract_x
 _atom_site_fract_y
 _atom_site_fract_z
 _atom_site_occupancy
  Rb  Rb0  1  0.50000000  0.88776247  0.96010162  1
  Rb  Rb1  1  0.50000000  0.11223753  0.46010162  1
  Rb  Rb2  1  0.00000000  0.33199625  0.14763013  1
  Rb  Rb3  1  0.00000000  0.66800375  0.64763013  1
  Tc  Tc0  1  0.00000000  0.84852752  0.22475580  1
  Tc  Tc1  1  0.50000000  0.56971250  0.34898991  1
  Tc  Tc2  1  0.50000000  0.43028750  0.84898991  1
  Tc  Tc3  1  0.00000000  0.15147248  0.72475580  1
  F  F0  1  0.25865045  0.52683752  0.95262966  1
  F  F1  1  0.75028330  0.66628461  0.22359254  1
  F  F2  1  0.24044866  0.01252775  0.21953579  1
  F  F3  1  0.75028330  0.33371539  0.72359254  1
  F  F4  1  0.50000000  0.23110852  0.95105750  1
  F  F5  1  0.75955134  0.98747225  0.71953579  1
  F  F6  1  0.50000000  0.62666580  0.73879320  1
  F  F7  1  0.24044866  0.98747225  0.71953579  1
  F  F8  1  0.00000000  0.83572096  0.03408546  1
  F  F9  1  0.75955134  0.01252775  0.21953579  1
  F  F10  1  0.50000000  0.37333420  0.23879320  1
  F  F11  1  0.74134955  0.47316248  0.45262966  1
  F  F12  1  0.24971670  0.66628461  0.22359254  1
  F  F13  1  0.00000000  0.84371191  0.41458241  1
  F  F14  1  0.00000000  0.16427904  0.53408546  1
  F  F15  1  0.24971670  0.33371539  0.72359254  1
  F  F16  1  0.00000000  0.15628809  0.91458241  1
  F  F17  1  0.25865045  0.47316248  0.45262966  1
  F  F18  1  0.50000000  0.76889148  0.45105750  1
  F  F19  1  0.74134955  0.52683752  0.95262966  1
loop_
_geom_bond_atom_site_label_1
_geom_bond_atom_site_label_2
_geom_bond_distance
_geom_bond_site_symmetry_2
F0 Tc2 1.884614 1_555
F0 F6 2.669850 1_555
F0 F15 2.781285 1_555
F0 Rb2 2.907379 1_556
F0 Rb0 3.219246 1_555
F0 Rb3 3.582237 1_555
F1 Tc0 2.038787 1_655
F1 Tc1 2.048319 1_555
F1 F8 2.736923 1_655
F1 F10 2.760681 1_555
F1 F13 2.780035 1_655
F1 F11 2.781285 1_555
F1 F9 2.797581 1_565
F1 F18 2.812920 1_555
F1 F12 2.821000 1_655
F1 F12 2.827401 1_555
F1 Rb2 3.140651 1_655
F1 Rb0 3.494701 1_554
F2 Tc0 1.897948 1_545
F2 Rb1 2.940148 1_555
F2 Rb2 3.004330 1_555
F2 Rb0 3.156664 1_544
F3 Tc3 2.038787 1_655
F3 Tc2 2.048319 1_555
F3 F6 2.760681 1_555
F3 F5 2.797581 1_545
F3 F4 2.812920 1_555
F3 Rb3 3.140651 1_655
F3 Rb1 3.494701 1_555
F4 Tc2 1.908124 1_555
F4 Rb0 2.774882 1_545
F5 Tc3 1.897948 1_665
F5 Rb0 2.940148 1_555
F5 Rb3 3.004330 1_655
F5 Rb1 3.156664 1_565
F6 Tc2 1.934677 1_555
F6 Rb3 2.987840 1_655
F6 Rb3 2.987840 1_555
F6 Rb0 3.065271 1_555
F7 Tc3 1.897948 1_565
F7 Rb0 2.940148 1_555
F7 Rb3 3.004330 1_555
F7 Rb1 3.156664 1_565
F8 Tc0 1.919236 1_555
F8 Rb0 2.950557 1_454
F8 Rb0 2.950557 1_554
F9 Tc0 1.897948 1_645
F9 Rb1 2.940148 1_555
F9 Rb2 3.004330 1_655
F9 Rb0 3.156664 1_544
F10 Tc1 1.934677 1_555
F10 F11 2.669850 1_555
F10 F17 2.669850 1_555
F10 F12 2.760681 1_555
F10 Rb2 2.987840 1_555
F10 Rb2 2.987840 1_655
F10 Rb1 3.065271 1_555
F11 Tc1 1.884614 1_555
F11 Rb3 2.907379 1_655
F11 Rb1 3.219246 1_555
F11 Rb2 3.582237 1_655
F12 Tc0 2.038787 1_555
F12 Tc1 2.048319 1_555
F12 F8 2.736923 1_555
F12 F13 2.780035 1_555
F12 F17 2.781285 1_555
F12 F2 2.797581 1_565
F12 F18 2.812920 1_555
F12 Rb2 3.140651 1_555
F12 Rb0 3.494701 1_554
F13 Tc0 1.908362 1_555
F13 Rb3 2.738823 1_555
F14 Tc3 1.919236 1_555
F14 F3 2.736923 1_455
F14 F15 2.736923 1_555
F14 Rb1 2.950557 1_455
F14 Rb1 2.950557 1_555
F15 Tc3 2.038787 1_555
F15 Tc2 2.048319 1_555
F15 F6 2.760681 1_555
F15 F16 2.780035 1_555
F15 F7 2.797581 1_545
F15 F4 2.812920 1_555
F15 F3 2.821000 1_455
F15 F3 2.827401 1_555
F15 Rb3 3.140651 1_555
F15 Rb1 3.494701 1_555
F16 Tc3 1.908362 1_555
F16 Rb2 2.738823 1_556
F16 F3 2.780035 1_455
F17 Tc1 1.884614 1_555
F17 Rb3 2.907379 1_555
F17 Rb1 3.219246 1_555
F17 Rb2 3.582237 1_555
F18 Tc1 1.908124 1_555
F18 Rb1 2.774882 1_565
F19 Tc2 1.884614 1_555
F19 F6 2.669850 1_555
F19 F3 2.781285 1_555
F19 Rb2 2.907379 1_656
F19 Rb0 3.219246 1_555
F19 Rb3 3.582237 1_655
