# generated using pymatgen
data_Sc2H5
_symmetry_space_group_name_H-M   'P 1'
_cell_length_a   3.36049100
_cell_length_b   5.77435200
_cell_length_c   6.05017900
_cell_angle_alpha   90.00000000
_cell_angle_beta   90.00000000
_cell_angle_gamma   90.00000000
_symmetry_Int_Tables_number   1
_chemical_formula_structural   Sc2H5
_chemical_formula_sum   'Sc4 H10'
_cell_volume   117.40165389
_cell_formula_units_Z   2
loop_
 _symmetry_equiv_pos_site_id
 _symmetry_equiv_pos_as_xyz
  1  'x, y, z'
loop_
 _atom_site_type_symbol
 _atom_site_label
 _atom_site_symmetry_multiplicity
 _atom_site_fract_x
 _atom_site_fract_y
 _atom_site_fract_z
 _atom_site_occupancy
  Sc  Sc0  1  0.50000000  0.91076300  0.00000000  1
  Sc  Sc1  1  0.00000000  0.42322600  0.00000000  1
  Sc  Sc2  1  0.00000000  0.08923700  0.50000000  1
  Sc  Sc3  1  0.50000000  0.57677400  0.50000000  1
  H  H0  1  0.50000000  0.24447100  0.50000000  1
  H  H1  1  0.50000000  0.89419300  0.65984300  1
  H  H2  1  0.50000000  0.89419300  0.34015700  1
  H  H3  1  0.00000000  0.10580700  0.84015700  1
  H  H4  1  0.00000000  0.10580700  0.15984300  1
  H  H5  1  0.00000000  0.43903200  0.65809500  1
  H  H6  1  0.00000000  0.43903200  0.34190500  1
  H  H7  1  0.00000000  0.75552900  0.00000000  1
  H  H8  1  0.50000000  0.56096800  0.84190500  1
  H  H9  1  0.50000000  0.56096800  0.15809500  1
loop_
_geom_bond_atom_site_label_1
_geom_bond_atom_site_label_2
_geom_bond_distance
_geom_bond_site_symmetry_2
H0 Sc2 1.904393 1_555
H0 Sc2 1.904393 1_655
H0 Sc3 1.918834 1_555
H0 H5 2.236134 1_555
H0 H5 2.236134 1_655
H0 H6 2.236134 1_555
H0 H6 2.236134 1_655
H0 H2 2.241934 1_545
H0 H1 2.241934 1_545
H1 H2 1.934158 1_555
H1 Sc0 2.060234 1_556
H1 Sc3 2.072371 1_555
H1 H8 2.217139 1_555
H1 Sc2 2.242077 1_565
H1 Sc2 2.242077 1_665
H1 H3 2.346589 1_565
H1 H3 2.346589 1_665
H2 Sc0 2.060234 1_555
H2 Sc3 2.072371 1_555
H2 H9 2.217139 1_555
H2 Sc2 2.242077 1_565
H2 Sc2 2.242077 1_665
H2 H4 2.346589 1_565
H2 H4 2.346589 1_665
H3 H4 1.934158 1_556
H3 Sc2 2.060234 1_555
H3 Sc1 2.072371 1_556
H3 H5 2.217139 1_555
H3 H7 2.241934 1_546
H3 Sc0 2.242077 1_446
H3 Sc0 2.242077 1_546
H4 Sc2 2.060234 1_555
H4 Sc1 2.072371 1_555
H4 H6 2.217139 1_555
H4 H7 2.241934 1_545
H4 Sc0 2.242077 1_445
H4 Sc0 2.242077 1_545
H5 H6 1.913006 1_555
H5 Sc1 2.070599 1_556
H5 Sc3 2.090631 1_455
H5 Sc3 2.090631 1_555
H5 H8 2.134412 1_555
H5 H8 2.134412 1_455
H5 Sc2 2.234871 1_555
H6 Sc1 2.070599 1_555
H6 Sc3 2.090631 1_555
H6 Sc3 2.090631 1_455
H6 H9 2.134412 1_555
H6 H9 2.134412 1_455
H6 Sc2 2.234871 1_555
H7 Sc0 1.904393 1_555
H7 Sc0 1.904393 1_455
H7 Sc1 1.918834 1_555
H7 H9 2.236134 1_555
H7 H9 2.236134 1_455
H7 H8 2.236134 1_554
H7 H8 2.236134 1_454
H8 H9 1.913006 1_556
H8 Sc3 2.070599 1_555
H8 Sc1 2.090631 1_656
H8 Sc1 2.090631 1_556
H8 Sc0 2.234871 1_556
H9 Sc3 2.070599 1_555
H9 Sc1 2.090631 1_555
H9 Sc1 2.090631 1_655
H9 Sc0 2.234871 1_555
