# generated using pymatgen
data_AlP6(WO8)3
_symmetry_space_group_name_H-M   'P 1'
_cell_length_a   8.55881184
_cell_length_b   8.53650257
_cell_length_c   8.75597010
_cell_angle_alpha   89.66207839
_cell_angle_beta   61.09873978
_cell_angle_gamma   119.78194589
_symmetry_Int_Tables_number   1
_chemical_formula_structural   AlP6(WO8)3
_chemical_formula_sum   'Al1 P6 W3 O24'
_cell_volume   459.91387869
_cell_formula_units_Z   1
loop_
 _symmetry_equiv_pos_site_id
 _symmetry_equiv_pos_as_xyz
  1  'x, y, z'
loop_
 _atom_site_type_symbol
 _atom_site_label
 _atom_site_symmetry_multiplicity
 _atom_site_fract_x
 _atom_site_fract_y
 _atom_site_fract_z
 _atom_site_occupancy
  Al  Al0  1  0.78557702  0.14190655  0.07213234  1
  P  P0  1  0.29892985  0.03275220  0.24749998  1
  P  P1  1  0.71841778  0.76234189  0.24334142  1
  P  P2  1  0.27403611  0.25345747  0.75967985  1
  P  P3  1  0.71835888  0.96839634  0.75727397  1
  P  P4  1  0.99579535  0.52521115  0.75606572  1
  P  P5  1  0.98663767  0.45327274  0.25038612  1
  W  W0  1  0.78501777  0.64265504  0.57247345  1
  W  W1  1  0.21621183  0.35642098  0.42226582  1
  W  W2  1  0.21575740  0.85918120  0.92606253  1
  O  O0  1  0.49651247  0.06221026  0.22181503  1
  O  O1  1  0.85230111  0.35531005  0.92116780  1
  O  O2  1  0.91013580  0.13541946  0.57669047  1
  O  O3  1  0.85499594  0.56304411  0.72115130  1
  O  O4  1  0.13205403  0.63991587  0.08554981  1
  O  O5  1  0.09340762  0.86073550  0.41626383  1
  O  O6  1  0.15174470  0.44143137  0.26593829  1
  O  O7  1  0.15496842  0.70816563  0.76805172  1
  O  O8  1  0.13789704  0.49928068  0.57868577  1
  O  O9  1  0.29136775  0.20948590  0.28080015  1
  O  O10  1  0.28472034  0.01175620  0.08086496  1
  O  O11  1  0.72081500  0.93617182  0.22579908  1
  O  O12  1  0.51372538  0.58613986  0.27319016  1
  O  O13  1  0.28546273  0.27865978  0.58131735  1
  O  O14  1  0.84786995  0.48232356  0.42425247  1
  O  O15  1  0.07828728  0.22426388  0.92437550  1
  O  O16  1  0.90905047  0.77536590  0.07506023  1
  O  O17  1  0.51497619  0.93398095  0.77585564  1
  O  O18  1  0.72601934  0.72225773  0.41355077  1
  O  O19  1  0.47875958  0.42611560  0.73311562  1
  O  O20  1  0.28444454  0.07795361  0.78122760  1
  O  O21  1  0.72611805  0.99943241  0.92115386  1
  O  O22  1  0.71192809  0.78821262  0.72948492  1
  O  O23  1  0.84770350  0.28677067  0.21745749  1
loop_
_geom_bond_atom_site_label_1
_geom_bond_atom_site_label_2
_geom_bond_distance
_geom_bond_site_symmetry_2
Al0 O23 1.857556 1_555
Al0 O0 1.866726 1_555
Al0 O11 1.867147 1_545
Al0 O21 1.881534 1_544
Al0 O15 1.884414 1_654
Al0 O1 1.897500 1_554
O0 P0 1.477435 1_555
O1 P4 1.480322 1_555
O2 P3 1.538536 1_545
O2 W1 1.971429 1_655
O3 P4 1.546457 1_555
O3 W0 1.913864 1_555
O4 P5 1.561191 1_455
O4 W2 1.907065 1_554
O5 P0 1.526425 1_565
O5 W0 1.975422 1_455
O6 P5 1.534084 1_455
O6 W1 1.954676 1_555
O7 P4 1.527302 1_455
O7 W2 1.974158 1_555
O8 P4 1.544682 1_455
O8 W1 1.938222 1_555
O9 P0 1.565022 1_555
O9 W1 1.889719 1_555
O10 P0 1.526006 1_555
O10 W2 1.977995 1_544
O11 P1 1.479862 1_555
O12 P1 1.528078 1_555
O12 W1 1.957004 1_555
O13 P2 1.523933 1_555
O13 W1 1.977176 1_555
O14 P5 1.529392 1_555
O14 W0 1.981033 1_555
O15 P2 1.481294 1_555
O16 P1 1.529578 1_555
O16 W2 1.979319 1_654
O17 P3 1.536399 1_555
O17 W2 1.950879 1_555
O18 P1 1.565976 1_555
O18 W0 1.913630 1_555
O19 P2 1.527466 1_555
O19 W0 1.964263 1_555
O20 P2 1.560000 1_555
O20 W2 1.897995 1_545
O21 P3 1.487527 1_555
O22 P3 1.536673 1_555
O22 W0 1.945848 1_555
O23 P5 1.474647 1_555
