# generated using pymatgen
data_SrLi(NiGe)2
_symmetry_space_group_name_H-M   'P 1'
_cell_length_a   4.08432469
_cell_length_b   4.08432510
_cell_length_c   14.32234367
_cell_angle_alpha   90.00000000
_cell_angle_beta   90.00000000
_cell_angle_gamma   120.00001245
_symmetry_Int_Tables_number   1
_chemical_formula_structural   SrLi(NiGe)2
_chemical_formula_sum   'Sr2 Li2 Ni4 Ge4'
_cell_volume   206.91178682
_cell_formula_units_Z   2
loop_
 _symmetry_equiv_pos_site_id
 _symmetry_equiv_pos_as_xyz
  1  'x, y, z'
loop_
 _atom_site_type_symbol
 _atom_site_label
 _atom_site_symmetry_multiplicity
 _atom_site_fract_x
 _atom_site_fract_y
 _atom_site_fract_z
 _atom_site_occupancy
  Sr  Sr0  1  0.00000000  0.00000000  0.75000000  1
  Sr  Sr1  1  0.00000000  0.00000000  0.25000000  1
  Li  Li0  1  0.00000000  0.00000000  0.50000000  1
  Li  Li1  1  0.00000000  0.00000000  0.00000000  1
  Ni  Ni0  1  0.33333300  0.66666700  0.43684594  1
  Ni  Ni1  1  0.66666700  0.33333300  0.93684594  1
  Ni  Ni2  1  0.33333300  0.66666700  0.06315406  1
  Ni  Ni3  1  0.66666700  0.33333300  0.56315406  1
  Ge  Ge0  1  0.33333300  0.66666700  0.59835576  1
  Ge  Ge1  1  0.66666700  0.33333300  0.40164424  1
  Ge  Ge2  1  0.66666700  0.33333300  0.09835576  1
  Ge  Ge3  1  0.33333300  0.66666700  0.90164424  1
loop_
_geom_bond_atom_site_label_1
_geom_bond_atom_site_label_2
_geom_bond_distance
_geom_bond_site_symmetry_2
Li0 Ni3 2.525610 1_455
Li0 Ni0 2.525610 1_545
Li0 Ni3 2.525613 1_555
Li0 Ni0 2.525613 1_445
Li0 Ni3 2.525613 1_445
Li0 Ni0 2.525613 1_555
Li1 Ni2 2.525610 1_545
Li1 Ni1 2.525610 1_454
Li1 Ni2 2.525613 1_445
Li1 Ni1 2.525613 1_554
Li1 Ni2 2.525613 1_555
Li1 Ni1 2.525613 1_444
Ni0 Sr1 3.566780 1_565
Ni0 Sr1 3.566782 1_665
Ni0 Sr1 3.566782 1_555
Ni1 Sr0 3.566780 1_655
Ni1 Sr0 3.566782 1_555
Ni1 Sr0 3.566782 1_665
Ni2 Sr1 3.566780 1_565
Ni2 Sr1 3.566782 1_665
Ni2 Sr1 3.566782 1_555
Ni3 Sr0 3.566780 1_655
Ni3 Sr0 3.566782 1_555
Ni3 Sr0 3.566782 1_665
Ge0 Ni0 2.313199 1_555
Ge0 Ni3 2.411378 1_455
Ge0 Ni3 2.411378 1_565
Ge0 Ni3 2.411386 1_555
Ge0 Li0 2.746808 1_565
Ge0 Li0 2.746810 1_665
Ge0 Li0 2.746811 1_555
Ge0 Sr0 3.205887 1_565
Ge0 Sr0 3.205889 1_665
Ge0 Sr0 3.205890 1_555
Ge1 Ni3 2.313199 1_555
Ge1 Ni0 2.411378 1_655
Ge1 Ni0 2.411378 1_545
Ge1 Ni0 2.411386 1_555
Ge1 Li0 2.746808 1_655
Ge1 Li0 2.746810 1_555
Ge1 Li0 2.746811 1_665
Ge1 Sr1 3.205887 1_655
Ge1 Sr1 3.205889 1_555
Ge1 Sr1 3.205890 1_665
Ge2 Ni1 2.313199 1_554
Ge2 Ni2 2.411378 1_655
Ge2 Ni2 2.411378 1_545
Ge2 Ni2 2.411386 1_555
Ge2 Li1 2.746808 1_655
Ge2 Li1 2.746810 1_555
Ge2 Li1 2.746811 1_665
Ge2 Sr1 3.205887 1_655
Ge2 Sr1 3.205889 1_555
Ge2 Sr1 3.205890 1_665
Ge3 Ni2 2.313199 1_556
Ge3 Ni1 2.411378 1_455
Ge3 Ni1 2.411378 1_565
Ge3 Ni1 2.411386 1_555
Ge3 Li1 2.746808 1_566
Ge3 Li1 2.746810 1_666
Ge3 Li1 2.746811 1_556
Ge3 Sr0 3.205887 1_565
Ge3 Sr0 3.205889 1_665
Ge3 Sr0 3.205890 1_555
