# generated using pymatgen
data_K3ScAs2
_symmetry_space_group_name_H-M   'P 1'
_cell_length_a   9.12757756
_cell_length_b   9.12757754
_cell_length_c   9.12757705
_cell_angle_alpha   135.58291598
_cell_angle_beta   128.04008736
_cell_angle_gamma   70.70228864
_symmetry_Int_Tables_number   1
_chemical_formula_structural   K3ScAs2
_chemical_formula_sum   'K6 Sc2 As4'
_cell_volume   410.78349470
_cell_formula_units_Z   2
loop_
 _symmetry_equiv_pos_site_id
 _symmetry_equiv_pos_as_xyz
  1  'x, y, z'
loop_
 _atom_site_type_symbol
 _atom_site_label
 _atom_site_symmetry_multiplicity
 _atom_site_fract_x
 _atom_site_fract_y
 _atom_site_fract_z
 _atom_site_occupancy
  K  K0  1  0.61417484  0.30920135  0.30497449  1
  K  K1  1  0.38582516  0.69079865  0.69502551  1
  K  K2  1  0.99577313  0.19079865  0.80497449  1
  K  K3  1  0.00422687  0.80920135  0.19502551  1
  K  K4  1  0.50000000  0.25000000  0.75000000  1
  K  K5  1  0.50000000  0.75000000  0.25000000  1
  Sc  Sc0  1  0.00000000  0.75000000  0.75000000  1
  Sc  Sc1  1  0.00000000  0.25000000  0.25000000  1
  As  As0  1  0.71832434  0.90557166  0.81275267  1
  As  As1  1  0.28167566  0.09442834  0.18724733  1
  As  As2  1  0.90718101  0.59442834  0.31275267  1
  As  As3  1  0.09281899  0.40557166  0.68724733  1
loop_
_geom_bond_atom_site_label_1
_geom_bond_atom_site_label_2
_geom_bond_distance
_geom_bond_site_symmetry_2
K0 Sc0 3.671305 1_655
K0 Sc1 3.671308 1_655
K0 K1 3.972857 1_555
K0 K1 3.972869 1_544
K0 K5 4.122377 1_555
K0 K4 4.122380 1_554
K0 K2 4.369788 1_454
K0 K2 4.369795 1_555
K1 Sc1 3.671305 1_555
K1 Sc0 3.671308 1_555
K1 K4 4.122377 1_555
K1 K5 4.122380 1_556
K1 K3 4.369788 1_656
K1 K3 4.369795 1_555
K2 Sc1 3.671299 1_656
K2 Sc0 3.671299 1_645
K2 K3 3.972871 1_645
K2 K3 3.972871 1_656
K2 K4 4.122376 1_555
K2 K5 4.122376 1_545
K3 Sc0 3.671299 1_554
K3 Sc1 3.671299 1_565
K3 K5 4.122376 1_555
K3 K4 4.122376 1_565
K4 K5 3.450031 1_545
K4 K5 3.450031 1_556
As0 Sc0 2.682271 1_655
As0 Sc1 2.682271 1_666
As0 K1 3.333512 1_555
As0 K5 3.347764 1_555
As0 K4 3.347764 1_565
As0 K3 3.376963 1_656
As0 K0 3.737041 1_555
As0 K0 3.737048 1_566
As1 Sc1 2.682271 1_555
As1 Sc0 2.682271 1_544
As1 K0 3.333512 1_555
As1 K4 3.347764 1_555
As1 K5 3.347764 1_545
As1 K2 3.376963 1_454
As1 K1 3.737041 1_555
As1 K1 3.737048 1_544
As2 Sc0 2.682270 1_655
As2 Sc1 2.682271 1_655
As2 K3 3.333520 1_655
As2 K4 3.347764 1_554
As2 K5 3.347764 1_555
As2 K1 3.376970 1_655
As2 K2 3.737042 1_554
As2 K2 3.737042 1_565
As3 Sc1 2.682270 1_555
As3 Sc0 2.682271 1_555
As3 K2 3.333520 1_455
As3 K5 3.347764 1_556
As3 K4 3.347764 1_555
As3 K0 3.376970 1_455
As3 K3 3.737042 1_556
As3 K3 3.737042 1_545
