# generated using pymatgen
data_Li3V3(PO4)4
_symmetry_space_group_name_H-M   'P 1'
_cell_length_a   8.11389700
_cell_length_b   7.67040900
_cell_length_c   10.19882554
_cell_angle_alpha   85.71823030
_cell_angle_beta   90.00000000
_cell_angle_gamma   90.00000000
_symmetry_Int_Tables_number   1
_chemical_formula_structural   Li3V3(PO4)4
_chemical_formula_sum   'Li6 V6 P8 O32'
_cell_volume   632.97176548
_cell_formula_units_Z   2
loop_
 _symmetry_equiv_pos_site_id
 _symmetry_equiv_pos_as_xyz
  1  'x, y, z'
loop_
 _atom_site_type_symbol
 _atom_site_label
 _atom_site_symmetry_multiplicity
 _atom_site_fract_x
 _atom_site_fract_y
 _atom_site_fract_z
 _atom_site_occupancy
  Li  Li0  1  0.63118800  0.15826700  0.17123100  1
  Li  Li1  1  0.36672600  0.34755000  0.07630900  1
  Li  Li2  1  0.86672600  0.65245000  0.92369100  1
  Li  Li3  1  0.13118800  0.84173300  0.82876900  1
  Li  Li4  1  0.85859900  0.63861300  0.42208600  1
  Li  Li5  1  0.35859900  0.36138700  0.57791400  1
  V  V0  1  0.63952600  0.14278600  0.67766900  1
  V  V1  1  0.51149400  0.74148500  0.37048900  1
  V  V2  1  0.13952600  0.85721400  0.32233100  1
  V  V3  1  0.49467000  0.73637100  0.87543700  1
  V  V4  1  0.99467000  0.26362900  0.12456300  1
  V  V5  1  0.01149400  0.25851500  0.62951100  1
  P  P0  1  0.18823900  0.45043100  0.85858300  1
  P  P1  1  0.30265400  0.95015900  0.60620500  1
  P  P2  1  0.69857300  0.54813400  0.64607700  1
  P  P3  1  0.68823900  0.54956900  0.14141700  1
  P  P4  1  0.31497200  0.94856300  0.09923400  1
  P  P5  1  0.81497200  0.05143700  0.90076600  1
  P  P6  1  0.19857300  0.45186600  0.35392300  1
  P  P7  1  0.80265400  0.04984100  0.39379500  1
  O  O0  1  0.13512600  0.00310000  0.15189100  1
  O  O1  1  0.14169400  0.31838800  0.46492700  1
  O  O2  1  0.85381200  0.19290000  0.78324600  1
  O  O3  1  0.43012300  0.10072900  0.09209000  1
  O  O4  1  0.85936700  0.19309600  0.29083500  1
  O  O5  1  0.56963700  0.39864000  0.15648800  1
  O  O6  1  0.35936700  0.80690400  0.70916500  1
  O  O7  1  0.42498100  0.10482600  0.59414000  1
  O  O8  1  0.63623500  0.69277400  0.03235900  1
  O  O9  1  0.69558500  0.64455000  0.27392100  1
  O  O10  1  0.80368600  0.13027000  0.53356200  1
  O  O11  1  0.06963700  0.60136000  0.84351200  1
  O  O12  1  0.13623500  0.30722600  0.96764100  1
  O  O13  1  0.87216900  0.48560200  0.60554100  1
  O  O14  1  0.62942700  0.98652800  0.35825800  1
  O  O15  1  0.57853700  0.38682400  0.65494200  1
  O  O16  1  0.19098900  0.36480700  0.22258600  1
  O  O17  1  0.64169400  0.68161200  0.53507300  1
  O  O18  1  0.36674000  0.50511900  0.89623500  1
  O  O19  1  0.35381200  0.80710000  0.21675400  1
  O  O20  1  0.86674000  0.49488100  0.10376500  1
  O  O21  1  0.30368600  0.86973000  0.46643800  1
  O  O22  1  0.80525100  0.14407100  0.02941600  1
  O  O23  1  0.19558500  0.35545000  0.72607900  1
  O  O24  1  0.63512600  0.99690000  0.84810900  1
  O  O25  1  0.69098900  0.63519300  0.77741400  1
  O  O26  1  0.30525100  0.85592900  0.97058400  1
  O  O27  1  0.07853700  0.61317600  0.34505800  1
  O  O28  1  0.92498100  0.89517400  0.40586000  1
  O  O29  1  0.93012300  0.89927100  0.90791000  1
  O  O30  1  0.12942700  0.01347200  0.64174200  1
  O  O31  1  0.37216900  0.51439800  0.39445900  1
loop_
_geom_bond_atom_site_label_1
_geom_bond_atom_site_label_2
_geom_bond_distance
_geom_bond_site_symmetry_2
Li0 O3 1.887059 1_555
Li0 O5 1.905277 1_555
Li0 O22 2.030263 1_555
Li0 O14 2.235775 1_545
Li0 O4 2.244048 1_555
Li1 O5 1.892283 1_555
Li1 O3 1.956855 1_555
Li1 O16 2.075057 1_555
Li1 O18 2.121839 1_554
Li1 O12 2.207425 1_554
Li2 O11 1.892283 1_655
Li2 O29 1.956855 1_555
Li2 O25 2.075057 1_555
Li2 O20 2.121839 1_556
Li2 O8 2.207425 1_556
Li3 O29 1.887059 1_455
Li3 O11 1.905277 1_555
Li3 O26 2.030263 1_555
Li3 O30 2.235775 1_565
Li3 O6 2.244048 1_555
Li4 O27 1.965388 1_655
Li4 O9 2.006172 1_555
Li4 O28 2.035093 1_555
Li4 O13 2.135984 1_555
Li4 O17 2.142619 1_555
Li5 O15 1.965388 1_555
Li5 O23 2.006172 1_555
Li5 O7 2.035093 1_555
Li5 O31 2.135984 1_555
Li5 O1 2.142619 1_555
O0 P4 1.620607 1_545
O0 V2 1.996155 1_545
O0 V4 2.299296 1_455
O1 P6 1.539421 1_555
O1 V5 2.007341 1_555
O2 P5 1.587159 1_555
O2 V5 2.056875 1_655
O2 V0 2.095719 1_555
O3 P4 1.492605 1_545
O4 P7 1.532814 1_555
O4 V4 2.058303 1_555
O5 P3 1.504448 1_555
O6 P1 1.532814 1_555
O6 V3 2.058303 1_555
O7 P1 1.544650 1_545
O7 V0 1.969243 1_555
O8 P3 1.561830 1_555
O8 V3 1.978039 1_554
O9 P3 1.583535 1_555
O9 V1 1.965528 1_555
O10 P7 1.594965 1_555
O10 V0 1.991113 1_555
O10 V5 2.216309 1_655
O11 P0 1.504448 1_555
O12 P0 1.561830 1_555
O12 V4 1.978039 1_456
O13 P2 1.553889 1_555
O13 V5 2.075616 1_655
O14 P7 1.539170 1_565
O14 V1 2.104524 1_555
O15 P2 1.571945 1_555
O15 V0 1.933320 1_555
O16 P6 1.541913 1_555
O16 V4 2.062755 1_455
O17 P2 1.539421 1_555
O17 V1 2.007341 1_555
O18 P0 1.563701 1_555
O18 V3 2.052470 1_555
O19 P4 1.587159 1_555
O19 V1 2.056875 1_555
O19 V2 2.095719 1_555
O20 P3 1.563701 1_555
O20 V4 2.052470 1_555
O21 P1 1.594965 1_555
O21 V2 1.991113 1_555
O21 V1 2.216309 1_555
O22 P5 1.540082 1_554
O22 V4 2.068254 1_555
O23 P0 1.583535 1_555
O23 V5 1.965528 1_555
O24 P5 1.620607 1_565
O24 V0 1.996155 1_565
O24 V3 2.299296 1_555
O25 P2 1.541913 1_555
O25 V3 2.062755 1_555
O26 P4 1.540082 1_556
O26 V3 2.068254 1_555
O27 P6 1.571945 1_555
O27 V2 1.933320 1_555
O28 P7 1.544650 1_565
O28 V2 1.969243 1_655
O29 P5 1.492605 1_565
O30 P1 1.539170 1_545
O30 V5 2.104524 1_555
O31 P6 1.553889 1_555
O31 V1 2.075616 1_555
