# generated using pymatgen
data_Lu12Ni4BiRu
_symmetry_space_group_name_H-M   'P 1'
_cell_length_a   8.10573325
_cell_length_b   8.10573456
_cell_length_c   8.10573246
_cell_angle_alpha   111.72161505
_cell_angle_beta   110.19929351
_cell_angle_gamma   106.53588989
_symmetry_Int_Tables_number   1
_chemical_formula_structural   Lu12Ni4BiRu
_chemical_formula_sum   'Lu12 Ni4 Bi1 Ru1'
_cell_volume   409.09479243
_cell_formula_units_Z   1
loop_
 _symmetry_equiv_pos_site_id
 _symmetry_equiv_pos_as_xyz
  1  'x, y, z'
loop_
 _atom_site_type_symbol
 _atom_site_label
 _atom_site_symmetry_multiplicity
 _atom_site_fract_x
 _atom_site_fract_y
 _atom_site_fract_z
 _atom_site_occupancy
  Lu  Lu0  1  0.41019463  0.21576004  0.19443559  1
  Lu  Lu1  1  0.58980537  0.78423996  0.80556441  1
  Lu  Lu2  1  0.02132446  0.21576004  0.80556441  1
  Lu  Lu3  1  0.97867554  0.78423996  0.19443559  1
  Lu  Lu4  1  0.17924585  0.28147259  0.46071844  1
  Lu  Lu5  1  0.82075415  0.71852741  0.53928156  1
  Lu  Lu6  1  0.17924585  0.71852741  0.89777226  1
  Lu  Lu7  1  0.82075415  0.28147259  0.10222774  1
  Lu  Lu8  1  0.31917707  0.62858108  0.30940401  1
  Lu  Lu9  1  0.68082293  0.37141892  0.69059599  1
  Lu  Lu10  1  0.31917707  0.00977206  0.69059599  1
  Lu  Lu11  1  0.68082293  0.99022794  0.30940401  1
  Ni  Ni0  1  0.35906925  1.00000000  0.35906925  1
  Ni  Ni1  1  0.64093075  0.00000000  0.64093075  1
  Ni  Ni2  1  0.11939355  0.61939355  0.50000000  1
  Ni  Ni3  1  0.88060645  0.38060645  0.50000000  1
  Bi  Bi0  1  0.50000000  0.50000000  0.00000000  1
  Ru  Ru0  1  0.00000000  0.00000000  0.00000000  1
loop_
_geom_bond_atom_site_label_1
_geom_bond_atom_site_label_2
_geom_bond_distance
_geom_bond_site_symmetry_2
Lu0 Ni0 2.589989 1_545
Lu0 Ru0 2.762001 1_555
Lu0 Ni3 3.253839 1_555
Lu0 Lu4 3.309656 1_555
Lu0 Lu6 3.309665 1_544
Lu0 Lu11 3.339835 1_545
Lu0 Lu9 3.339837 1_555
Lu0 Lu8 3.490242 1_555
Lu0 Lu10 3.490248 1_554
Lu0 Lu7 3.594508 1_555
Lu0 Lu5 3.594509 1_555
Lu1 Ni1 2.589989 1_565
Lu1 Ru0 2.762001 1_666
Lu1 Ni2 3.253839 1_555
Lu1 Lu5 3.309656 1_555
Lu1 Lu7 3.309665 1_566
Lu1 Lu10 3.339835 1_565
Lu1 Lu8 3.339837 1_555
Lu1 Lu9 3.490242 1_555
Lu1 Lu11 3.490248 1_556
Lu1 Lu6 3.594508 1_555
Lu1 Lu4 3.594509 1_555
Lu2 Ni1 2.589991 1_455
Lu2 Ru0 2.762008 1_556
Lu2 Ni3 3.253832 1_455
Lu2 Lu5 3.309664 1_445
Lu2 Lu7 3.309670 1_456
Lu2 Lu9 3.339836 1_455
Lu2 Lu8 3.490246 1_556
Lu2 Lu4 3.594505 1_555
Lu2 Lu6 3.594509 1_555
Lu3 Ni0 2.589991 1_655
Lu3 Ru0 2.762008 1_665
Lu3 Ni2 3.253832 1_655
Lu3 Lu4 3.309664 1_665
Lu3 Lu6 3.309670 1_654
Lu3 Lu8 3.339836 1_655
Lu3 Lu9 3.490246 1_554
Lu3 Lu5 3.594505 1_555
Lu3 Lu7 3.594509 1_555
Lu4 Ni3 2.838477 1_455
Lu4 Ni2 2.838478 1_555
Lu4 Ru0 3.053195 1_555
Lu4 Ni0 3.056115 1_545
Lu4 Lu7 3.325151 1_455
Lu4 Lu8 3.522140 1_555
Lu4 Lu9 3.550866 1_555
Lu5 Ni2 2.838477 1_655
Lu5 Ni3 2.838478 1_555
Lu5 Ru0 3.053195 1_666
Lu5 Ni1 3.056115 1_565
Lu5 Lu6 3.325151 1_655
Lu5 Lu9 3.522140 1_555
Lu5 Lu8 3.550866 1_555
Lu6 Ni2 2.838469 1_555
Lu6 Ni3 2.838474 1_455
Lu6 Ru0 3.053196 1_566
Lu6 Ni0 3.056121 1_556
Lu6 Lu9 3.522143 1_455
Lu6 Lu8 3.550873 1_556
Lu7 Ni3 2.838469 1_555
Lu7 Ni2 2.838474 1_655
Lu7 Ru0 3.053196 1_655
Lu7 Ni1 3.056121 1_554
Lu7 Lu8 3.522143 1_655
Lu7 Lu9 3.550873 1_554
Lu8 Ni2 2.599801 1_555
Lu8 Ni0 2.790935 1_555
Lu8 Ni1 2.790936 1_565
Lu9 Ni3 2.599801 1_555
Lu9 Ni1 2.790935 1_555
Lu9 Ni0 2.790936 1_545
Lu10 Ni2 2.599795 1_545
Lu10 Ni1 2.790933 1_555
Lu10 Ni0 2.790937 1_545
Lu10 Lu3 3.339837 1_445
Lu10 Lu2 3.490250 1_555
Lu10 Lu6 3.522127 1_545
Lu10 Lu5 3.522139 1_445
Lu10 Lu7 3.550868 1_556
Lu10 Lu4 3.550873 1_555
Lu11 Ni3 2.599795 1_565
Lu11 Ni0 2.790933 1_555
Lu11 Ni1 2.790937 1_565
Lu11 Lu2 3.339837 1_665
Lu11 Lu3 3.490250 1_555
Lu11 Lu7 3.522127 1_565
Lu11 Lu4 3.522139 1_665
Lu11 Lu6 3.550868 1_554
Lu11 Lu5 3.550873 1_555
Ni0 Ni1 2.614380 1_565
Ni2 Ni3 2.315196 1_455
Bi0 Lu3 3.293545 1_555
Bi0 Lu2 3.293545 1_554
Bi0 Lu1 3.293546 1_554
Bi0 Lu0 3.293546 1_555
Bi0 Lu8 3.316265 1_555
Bi0 Lu9 3.316265 1_554
Bi0 Lu11 3.316272 1_555
Bi0 Lu10 3.316272 1_554
Bi0 Lu5 3.578285 1_555
Bi0 Lu4 3.578285 1_554
Bi0 Lu7 3.578286 1_555
Bi0 Lu6 3.578286 1_554
