# generated using pymatgen
data_Na16SnGeAs8
_symmetry_space_group_name_H-M   'P 1'
_cell_length_a   9.76527839
_cell_length_b   9.76527822
_cell_length_c   9.76527958
_cell_angle_alpha   59.99999865
_cell_angle_beta   59.99999920
_cell_angle_gamma   60.00000078
_symmetry_Int_Tables_number   1
_chemical_formula_structural   Na16SnGeAs8
_chemical_formula_sum   'Na16 Sn1 Ge1 As8'
_cell_volume   658.47445141
_cell_formula_units_Z   1
loop_
 _symmetry_equiv_pos_site_id
 _symmetry_equiv_pos_as_xyz
  1  'x, y, z'
loop_
 _atom_site_type_symbol
 _atom_site_label
 _atom_site_symmetry_multiplicity
 _atom_site_fract_x
 _atom_site_fract_y
 _atom_site_fract_z
 _atom_site_occupancy
  Na  Na0  1  0.62806915  0.62806915  0.11579254  1
  Na  Na1  1  0.62806915  0.11579254  0.62806915  1
  Na  Na2  1  0.11579254  0.62806915  0.62806915  1
  Na  Na3  1  0.62806915  0.62806915  0.62806915  1
  Na  Na4  1  0.02413117  0.47586883  0.47586883  1
  Na  Na5  1  0.77279912  0.22720088  0.22720088  1
  Na  Na6  1  0.47586883  0.02413117  0.47586883  1
  Na  Na7  1  0.47586883  0.47586883  0.02413117  1
  Na  Na8  1  0.02413117  0.02413117  0.47586883  1
  Na  Na9  1  0.02413117  0.47586883  0.02413117  1
  Na  Na10  1  0.47586883  0.02413117  0.02413117  1
  Na  Na11  1  0.77279912  0.22720088  0.77279912  1
  Na  Na12  1  0.22720088  0.77279912  0.22720088  1
  Na  Na13  1  0.22720088  0.22720088  0.77279912  1
  Na  Na14  1  0.77279912  0.77279912  0.22720088  1
  Na  Na15  1  0.22720088  0.77279912  0.77279912  1
  Sn  Sn0  1  0.50000000  0.50000000  0.50000000  1
  Ge  Ge0  1  0.75000000  0.75000000  0.75000000  1
  As  As0  1  0.85503871  0.85503871  0.43488687  1
  As  As1  1  0.85503871  0.43488687  0.85503871  1
  As  As2  1  0.38941168  0.38941168  0.83176196  1
  As  As3  1  0.38941168  0.83176196  0.38941168  1
  As  As4  1  0.83176196  0.38941168  0.38941168  1
  As  As5  1  0.85503871  0.85503871  0.85503871  1
  As  As6  1  0.43488687  0.85503871  0.85503871  1
  As  As7  1  0.38941168  0.38941168  0.38941168  1
loop_
_geom_bond_atom_site_label_1
_geom_bond_atom_site_label_2
_geom_bond_distance
_geom_bond_site_symmetry_2
Na0 Sn0 3.063408 1_555
Na0 Na10 3.176319 1_565
Na0 Na9 3.176320 1_655
Na0 Na7 3.176320 1_555
Na0 Na5 3.201766 1_555
Na0 Na12 3.201766 1_555
Na0 Na14 3.201766 1_555
Na1 Sn0 3.063408 1_555
Na1 Na8 3.176320 1_655
Na1 Na6 3.176320 1_555
Na1 Na10 3.176320 1_556
Na1 Na13 3.201766 1_555
Na1 Na11 3.201766 1_555
Na1 Na5 3.201766 1_555
Na2 Sn0 3.063408 1_555
Na2 Na8 3.176319 1_565
Na2 Na4 3.176320 1_555
Na2 Na9 3.176320 1_556
Na3 Sn0 3.063408 1_555
Na3 Na6 3.176320 1_565
Na3 Na4 3.176320 1_655
Na3 Na7 3.176320 1_556
Na5 Na9 3.482855 1_655
Na5 Na6 3.482855 1_555
Na5 Na7 3.482855 1_555
Na5 Na8 3.482855 1_655
Na10 Na12 3.482855 1_545
Na10 Na11 3.482855 1_554
Na10 Na14 3.482855 1_545
Na10 Na13 3.482855 1_554
Na11 Na3 3.201766 1_555
Na11 Na4 3.482855 1_655
Na11 Na7 3.482855 1_556
Na11 Na8 3.482855 1_655
Na12 Na2 3.201766 1_555
Na12 Na4 3.482855 1_555
Na12 Na7 3.482855 1_555
Na12 Na8 3.482855 1_565
Na13 Na2 3.201766 1_555
Na13 Na9 3.482855 1_556
Na13 Na4 3.482855 1_555
Na13 Na6 3.482855 1_555
Na14 Na3 3.201766 1_555
Na14 Na9 3.482855 1_655
Na14 Na4 3.482855 1_655
Na14 Na6 3.482855 1_565
Na15 Na3 3.201766 1_555
Na15 Na2 3.201766 1_555
Na15 Na9 3.482855 1_556
Na15 Na6 3.482855 1_565
Na15 Na7 3.482855 1_556
Na15 Na8 3.482855 1_565
Ge0 Na1 2.916580 1_565
Ge0 Na2 2.916580 1_655
Ge0 Na3 2.916580 1_555
Ge0 Na0 2.916580 1_556
As0 Ge0 2.512497 1_555
As0 Na5 3.050492 1_565
As0 Na12 3.050492 1_655
As0 Na14 3.050514 1_555
As0 Na8 3.108302 1_665
As0 Na4 3.108327 1_655
As0 Na6 3.108327 1_565
As0 Na1 3.151788 1_565
As0 Na2 3.151788 1_655
As0 Na3 3.151810 1_555
As1 Ge0 2.512497 1_555
As1 Na13 3.050492 1_655
As1 Na5 3.050492 1_556
As1 Na11 3.050513 1_555
As1 Na9 3.108302 1_656
As1 Na7 3.108327 1_556
As1 Na4 3.108327 1_655
As1 Na2 3.151788 1_655
As1 Na0 3.151788 1_556
As1 Na3 3.151810 1_555
As2 Sn0 2.645243 1_555
As2 Na10 2.973082 1_556
As2 Na9 2.973082 1_556
As2 Na7 2.973104 1_556
As2 Na13 3.111777 1_555
As2 Na15 3.111802 1_555
As2 Na11 3.111802 1_555
As2 Na1 3.313521 1_555
As2 Na2 3.313521 1_555
As2 Na3 3.313543 1_555
As3 Sn0 2.645243 1_555
As3 Na8 2.973082 1_565
As3 Na10 2.973082 1_565
As3 Na6 2.973103 1_565
As3 Na12 3.111777 1_555
As3 Na14 3.111802 1_555
As3 Na15 3.111803 1_555
As3 Na2 3.313521 1_555
As3 Na0 3.313522 1_555
As3 Na3 3.313544 1_555
As4 Sn0 2.645243 1_555
As4 Na8 2.973082 1_655
As4 Na9 2.973082 1_655
As4 Na4 2.973103 1_655
As4 Na5 3.111777 1_555
As4 Na14 3.111802 1_555
As4 Na11 3.111803 1_555
As4 Na1 3.313521 1_555
As4 Na0 3.313522 1_555
As4 Na3 3.313544 1_555
As5 Ge0 2.512521 1_555
As5 Na11 3.050486 1_565
As5 Na15 3.050486 1_655
As5 Na14 3.050486 1_556
As5 Na9 3.108321 1_656
As5 Na10 3.108321 1_566
As5 Na8 3.108321 1_665
As5 Na0 3.151807 1_556
As5 Na1 3.151807 1_565
As5 Na2 3.151807 1_655
As6 Ge0 2.512497 1_555
As6 Na13 3.050492 1_565
As6 Na12 3.050492 1_556
As6 Na15 3.050513 1_555
As6 Na10 3.108302 1_566
As6 Na7 3.108327 1_556
As6 Na6 3.108327 1_565
As6 Na1 3.151788 1_565
As6 Na0 3.151788 1_556
As6 Na3 3.151810 1_555
As7 Sn0 2.645267 1_555
As7 Na6 2.973076 1_555
As7 Na4 2.973077 1_555
As7 Na7 2.973077 1_555
As7 Na12 3.111797 1_555
As7 Na5 3.111797 1_555
As7 Na13 3.111798 1_555
As7 Na0 3.313540 1_555
As7 Na1 3.313541 1_555
As7 Na2 3.313541 1_555
