# generated using pymatgen
data_K4MnV3F12
_symmetry_space_group_name_H-M   'P 1'
_cell_length_a   5.83583600
_cell_length_b   5.86301413
_cell_length_c   8.26157197
_cell_angle_alpha   89.98956440
_cell_angle_beta   90.05250337
_cell_angle_gamma   89.99105102
_symmetry_Int_Tables_number   1
_chemical_formula_structural   K4MnV3F12
_chemical_formula_sum   'K4 Mn1 V3 F12'
_cell_volume   282.67442341
_cell_formula_units_Z   1
loop_
 _symmetry_equiv_pos_site_id
 _symmetry_equiv_pos_as_xyz
  1  'x, y, z'
loop_
 _atom_site_type_symbol
 _atom_site_label
 _atom_site_symmetry_multiplicity
 _atom_site_fract_x
 _atom_site_fract_y
 _atom_site_fract_z
 _atom_site_occupancy
  K  K0  1  0.99217262  0.00091246  0.24885427  1
  K  K1  1  0.49268837  0.49864358  0.24868742  1
  K  K2  1  0.50731163  0.50135642  0.75131258  1
  K  K3  1  0.00782738  0.99908754  0.75114573  1
  Mn  Mn0  1  0.00000000  0.50000000  0.50000000  1
  V  V0  1  0.00000000  0.50000000  0.00000000  1
  V  V1  1  0.50000000  0.00000000  0.50000000  1
  V  V2  1  0.50000000  0.00000000  0.00000000  1
  F  F0  1  0.73582052  0.26187088  0.48200203  1
  F  F1  1  0.23694225  0.23682580  0.01896501  1
  F  F2  1  0.76183859  0.76371054  0.51822613  1
  F  F3  1  0.26306466  0.73727746  0.98113832  1
  F  F4  1  0.26417948  0.73812912  0.51799797  1
  F  F5  1  0.76305775  0.76317420  0.98103499  1
  F  F6  1  0.23816141  0.23628946  0.48177387  1
  F  F7  1  0.73693534  0.26272254  0.01886168  1
  F  F8  1  0.50117120  0.96258517  0.24960516  1
  F  F9  1  0.00045231  0.53429532  0.24860053  1
  F  F10  1  0.99954769  0.46570468  0.75139947  1
  F  F11  1  0.49882880  0.03741483  0.75039484  1
loop_
_geom_bond_atom_site_label_1
_geom_bond_atom_site_label_2
_geom_bond_distance
_geom_bond_site_symmetry_2
F0 V1 2.067443 1_555
F0 Mn0 2.085317 1_655
F0 K1 2.765710 1_555
F0 K0 2.880064 1_555
F0 K2 2.950618 1_555
F0 K3 3.135165 1_645
F1 V2 2.075836 1_555
F1 V0 2.077557 1_555
F1 K0 2.750516 1_455
F1 K1 2.860485 1_555
F1 K3 2.936417 1_544
F1 K2 3.128967 1_554
F2 V1 2.067774 1_565
F2 Mn0 2.084408 1_655
F2 K3 2.768509 1_655
F2 K2 2.878438 1_555
F2 K0 2.949313 1_565
F2 K1 3.136345 1_555
F3 V2 2.075863 1_566
F3 V0 2.077856 1_556
F3 K2 2.748715 1_555
F3 K3 2.859774 1_555
F3 K1 2.938004 1_556
F3 K0 3.128436 1_466
F4 V1 2.067443 1_565
F4 Mn0 2.085317 1_555
F4 K2 2.765710 1_555
F4 K3 2.880064 1_555
F4 K1 2.950618 1_555
F4 K0 3.135165 1_465
F5 V2 2.075836 1_566
F5 V0 2.077557 1_656
F5 K3 2.750516 1_655
F5 K2 2.860485 1_555
F5 K0 2.936417 1_566
F5 K1 3.128967 1_556
F6 V1 2.067774 1_555
F6 Mn0 2.084408 1_555
F6 K0 2.768509 1_455
F6 K1 2.878438 1_555
F6 K3 2.949313 1_545
F6 K2 3.136345 1_555
F7 V2 2.075863 1_555
F7 V0 2.077856 1_655
F7 K1 2.748715 1_555
F7 K0 2.859774 1_555
F7 K2 2.938004 1_554
F7 K3 3.128436 1_644
F8 V2 2.073731 1_565
F8 V1 2.080310 1_565
F8 K1 2.720566 1_555
F8 K0 2.874249 1_565
F8 K0 2.978886 1_465
F8 K1 3.143308 1_565
F9 V0 2.063686 1_555
F9 Mn0 2.086633 1_555
F9 K0 2.736203 1_465
F9 K1 2.880171 1_555
F9 K1 2.970624 1_455
F9 K0 3.127612 1_455
F10 V0 2.063686 1_656
F10 Mn0 2.086633 1_655
F10 K3 2.736203 1_645
F10 K2 2.880171 1_555
F10 K2 2.970624 1_655
F10 K3 3.127612 1_655
F11 V2 2.073731 1_556
F11 V1 2.080310 1_555
F11 K2 2.720566 1_555
F11 K3 2.874249 1_545
F11 K3 2.978886 1_645
F11 K2 3.143308 1_545
