# generated using pymatgen
data_KAsO2
_symmetry_space_group_name_H-M   'P 1'
_cell_length_a   5.39317212
_cell_length_b   7.18861661
_cell_length_c   7.42391671
_cell_angle_alpha   90.00000000
_cell_angle_beta   90.00000000
_cell_angle_gamma   90.00000000
_symmetry_Int_Tables_number   1
_chemical_formula_structural   KAsO2
_chemical_formula_sum   'K4 As4 O8'
_cell_volume   287.82114306
_cell_formula_units_Z   4
loop_
 _symmetry_equiv_pos_site_id
 _symmetry_equiv_pos_as_xyz
  1  'x, y, z'
loop_
 _atom_site_type_symbol
 _atom_site_label
 _atom_site_symmetry_multiplicity
 _atom_site_fract_x
 _atom_site_fract_y
 _atom_site_fract_z
 _atom_site_occupancy
  K  K0  1  0.25000000  0.36586110  0.40621681  1
  K  K1  1  0.75000000  0.36586110  0.09378319  1
  K  K2  1  0.75000000  0.63413890  0.59378319  1
  K  K3  1  0.25000000  0.63413890  0.90621681  1
  As  As0  1  0.25000000  0.85487219  0.37556219  1
  As  As1  1  0.75000000  0.14512781  0.62443781  1
  As  As2  1  0.75000000  0.85487219  0.12443781  1
  As  As3  1  0.25000000  0.14512781  0.87556219  1
  O  O0  1  0.50000000  0.26470475  0.75000000  1
  O  O1  1  0.00000000  0.73529525  0.25000000  1
  O  O2  1  0.50000000  0.73529525  0.25000000  1
  O  O3  1  -0.00000000  0.26470475  0.75000000  1
  O  O4  1  0.25000000  0.71395986  0.55899925  1
  O  O5  1  0.25000000  0.28604014  0.05899925  1
  O  O6  1  0.75000000  0.71395986  0.94100075  1
  O  O7  1  0.75000000  0.28604014  0.44100075  1
loop_
_geom_bond_atom_site_label_1
_geom_bond_atom_site_label_2
_geom_bond_distance
_geom_bond_site_symmetry_2
K0 O5 2.640807 1_555
K0 O4 2.747409 1_555
K0 O7 2.769027 1_455
K0 O7 2.769027 1_555
K0 O3 2.976658 1_555
K0 O0 2.976658 1_555
K0 O1 3.196208 1_555
K0 O2 3.196208 1_555
K1 O7 2.640807 1_555
K1 O6 2.747409 1_554
K1 O5 2.769027 1_655
K1 O5 2.769027 1_555
K1 O3 2.976658 1_654
K1 O0 2.976658 1_554
K1 O1 3.196208 1_655
K1 O2 3.196208 1_555
K2 O6 2.640807 1_555
K2 O7 2.747409 1_555
K2 O4 2.769027 1_555
K2 O4 2.769027 1_655
K2 O1 2.976658 1_655
K2 O2 2.976658 1_555
K2 O0 3.196208 1_555
K2 O3 3.196208 1_655
K3 O4 2.640807 1_555
K3 O5 2.747409 1_556
K3 O6 2.769027 1_455
K3 O6 2.769027 1_555
K3 O1 2.976658 1_556
K3 O2 2.976658 1_556
K3 O3 3.196208 1_555
K3 O0 3.196208 1_555
As0 O4 1.697249 1_555
As0 O1 1.850871 1_555
As0 O2 1.850871 1_555
As0 K0 3.680346 1_565
As1 O7 1.697249 1_555
As1 O3 1.850871 1_655
As1 O0 1.850871 1_555
As1 K2 3.680346 1_545
As2 O6 1.697249 1_554
As2 O1 1.850871 1_655
As2 O2 1.850871 1_555
As2 K1 3.680346 1_565
As3 O5 1.697249 1_556
As3 O3 1.850871 1_555
As3 O0 1.850871 1_555
As3 K3 3.680346 1_545
