# generated using pymatgen
data_K2CoP2Ru
_symmetry_space_group_name_H-M   'P 1'
_cell_length_a   7.69046872
_cell_length_b   7.69046872
_cell_length_c   21.38177535
_cell_angle_alpha   90.00000000
_cell_angle_beta   90.00000000
_cell_angle_gamma   90.00000000
_symmetry_Int_Tables_number   1
_chemical_formula_structural   K2CoP2Ru
_chemical_formula_sum   'K16 Co8 P16 Ru8'
_cell_volume   1264.58894792
_cell_formula_units_Z   8
loop_
 _symmetry_equiv_pos_site_id
 _symmetry_equiv_pos_as_xyz
  1  'x, y, z'
loop_
 _atom_site_type_symbol
 _atom_site_label
 _atom_site_symmetry_multiplicity
 _atom_site_fract_x
 _atom_site_fract_y
 _atom_site_fract_z
 _atom_site_occupancy
  K  K0_0  1  0.00000000  0.25000000  0.14191972  1
  K  K0_1  1  0.00000000  0.25000000  0.64191972  1
  K  K0_2  1  0.00000000  0.75000000  0.14191972  1
  K  K0_3  1  0.00000000  0.75000000  0.64191972  1
  K  K0_4  1  0.50000000  0.25000000  0.14191972  1
  K  K0_5  1  0.50000000  0.25000000  0.64191972  1
  K  K0_6  1  0.50000000  0.75000000  0.14191972  1
  K  K0_7  1  0.50000000  0.75000000  0.64191972  1
  K  K1_0  1  0.25000000  0.00000000  0.35808028  1
  K  K1_1  1  0.25000000  0.00000000  0.85808028  1
  K  K1_2  1  0.25000000  0.50000000  0.35808028  1
  K  K1_3  1  0.25000000  0.50000000  0.85808028  1
  K  K1_4  1  0.75000000  0.00000000  0.35808028  1
  K  K1_5  1  0.75000000  0.00000000  0.85808028  1
  K  K1_6  1  0.75000000  0.50000000  0.35808028  1
  K  K1_7  1  0.75000000  0.50000000  0.85808028  1
  Co  Co0_0  1  0.25000000  0.25000000  0.00000000  1
  Co  Co0_1  1  0.25000000  0.25000000  0.50000000  1
  Co  Co0_2  1  0.25000000  0.75000000  0.00000000  1
  Co  Co0_3  1  0.25000000  0.75000000  0.50000000  1
  Co  Co0_4  1  0.75000000  0.25000000  0.00000000  1
  Co  Co0_5  1  0.75000000  0.25000000  0.50000000  1
  Co  Co0_6  1  0.75000000  0.75000000  0.00000000  1
  Co  Co0_7  1  0.75000000  0.75000000  0.50000000  1
  P  P0_0  1  0.00000000  0.25000000  0.44430192  1
  P  P0_1  1  0.00000000  0.25000000  0.94430192  1
  P  P0_2  1  0.00000000  0.75000000  0.44430192  1
  P  P0_3  1  0.00000000  0.75000000  0.94430192  1
  P  P0_4  1  0.50000000  0.25000000  0.44430192  1
  P  P0_5  1  0.50000000  0.25000000  0.94430192  1
  P  P0_6  1  0.50000000  0.75000000  0.44430192  1
  P  P0_7  1  0.50000000  0.75000000  0.94430192  1
  P  P1_0  1  0.25000000  0.00000000  0.05569808  1
  P  P1_1  1  0.25000000  0.00000000  0.55569808  1
  P  P1_2  1  0.25000000  0.50000000  0.05569808  1
  P  P1_3  1  0.25000000  0.50000000  0.55569808  1
  P  P1_4  1  0.75000000  0.00000000  0.05569808  1
  P  P1_5  1  0.75000000  0.00000000  0.55569808  1
  P  P1_6  1  0.75000000  0.50000000  0.05569808  1
  P  P1_7  1  0.75000000  0.50000000  0.55569808  1
  Ru  Ru0_0  1  0.00000000  0.00000000  0.00000000  1
  Ru  Ru0_1  1  0.00000000  0.00000000  0.50000000  1
  Ru  Ru0_2  1  0.00000000  0.50000000  0.00000000  1
  Ru  Ru0_3  1  0.00000000  0.50000000  0.50000000  1
  Ru  Ru0_4  1  0.50000000  0.00000000  0.00000000  1
  Ru  Ru0_5  1  0.50000000  0.00000000  0.50000000  1
  Ru  Ru0_6  1  0.50000000  0.50000000  0.00000000  1
  Ru  Ru0_7  1  0.50000000  0.50000000  0.50000000  1
loop_
_geom_bond_atom_site_label_1
_geom_bond_atom_site_label_2
_geom_bond_distance
_geom_bond_site_symmetry_2
K0_0 P1_6 3.285068 1_455
K0_0 P1_4 3.285068 1_455
K0_0 P1_2 3.285068 1_555
K0_0 P1_0 3.285068 1_555
K0_0 K0_2 3.845234 1_555
K0_0 K0_2 3.845234 1_545
K0_0 K0_4 3.845234 1_455
K0_0 K0_4 3.845234 1_555
K0_1 P1_1 3.285068 1_555
K0_1 P1_5 3.285068 1_455
K0_1 P1_3 3.285068 1_555
K0_1 P1_7 3.285068 1_455
K0_1 K0_5 3.845234 1_455
K0_1 K0_3 3.845234 1_545
K0_1 K0_5 3.845234 1_555
K0_1 K0_3 3.845234 1_555
K0_2 P1_6 3.285068 1_455
K0_2 P1_4 3.285068 1_465
K0_2 P1_2 3.285068 1_555
K0_2 P1_0 3.285068 1_565
K0_2 K0_6 3.845234 1_455
K0_2 K0_6 3.845234 1_555
K0_3 P1_1 3.285068 1_565
K0_3 P1_3 3.285068 1_555
K0_3 P1_7 3.285068 1_455
K0_3 P1_5 3.285068 1_465
K0_3 K0_7 3.845234 1_455
K0_3 K0_7 3.845234 1_555
K0_4 P1_4 3.285068 1_555
K0_4 P1_2 3.285068 1_555
K0_4 P1_6 3.285068 1_555
K0_4 P1_0 3.285068 1_555
K0_4 K0_6 3.845234 1_555
K0_4 K0_6 3.845234 1_545
K0_5 P1_1 3.285068 1_555
K0_5 P1_3 3.285068 1_555
K0_5 P1_7 3.285068 1_555
K0_5 P1_5 3.285068 1_555
K0_5 K0_7 3.845234 1_545
K0_5 K0_7 3.845234 1_555
K0_6 P1_4 3.285068 1_565
K0_6 P1_2 3.285068 1_555
K0_6 P1_6 3.285068 1_555
K0_6 P1_0 3.285068 1_565
K0_7 P1_1 3.285068 1_565
K0_7 P1_5 3.285068 1_565
K0_7 P1_3 3.285068 1_555
K0_7 P1_7 3.285068 1_555
K1_0 P0_0 3.285068 1_555
K1_0 P0_4 3.285068 1_555
K1_0 P0_2 3.285068 1_545
K1_0 P0_6 3.285068 1_545
K1_0 K1_4 3.845234 1_455
K1_0 K1_4 3.845234 1_555
K1_0 K1_2 3.845234 1_545
K1_0 K1_2 3.845234 1_555
K1_1 P0_3 3.285068 1_545
K1_1 P0_1 3.285068 1_555
K1_1 P0_5 3.285068 1_555
K1_1 P0_7 3.285068 1_545
K1_1 K1_3 3.845234 1_545
K1_1 K1_5 3.845234 1_455
K1_1 K1_5 3.845234 1_555
K1_1 K1_3 3.845234 1_555
K1_2 P0_0 3.285068 1_555
K1_2 P0_4 3.285068 1_555
K1_2 P0_2 3.285068 1_555
K1_2 P0_6 3.285068 1_555
K1_2 K1_6 3.845234 1_555
K1_2 K1_6 3.845234 1_455
K1_3 P0_3 3.285068 1_555
K1_3 P0_1 3.285068 1_555
K1_3 P0_5 3.285068 1_555
K1_3 P0_7 3.285068 1_555
K1_3 K1_7 3.845234 1_455
K1_3 K1_7 3.845234 1_555
K1_4 P0_4 3.285068 1_555
K1_4 P0_0 3.285068 1_655
K1_4 P0_6 3.285068 1_545
K1_4 P0_2 3.285068 1_645
K1_4 K1_6 3.845234 1_555
K1_4 K1_6 3.845234 1_545
K1_5 P0_3 3.285068 1_645
K1_5 P0_1 3.285068 1_655
K1_5 P0_5 3.285068 1_555
K1_5 P0_7 3.285068 1_545
K1_5 K1_7 3.845234 1_555
K1_5 K1_7 3.845234 1_545
K1_6 P0_4 3.285068 1_555
K1_6 P0_0 3.285068 1_655
K1_6 P0_2 3.285068 1_655
K1_6 P0_6 3.285068 1_555
K1_7 P0_3 3.285068 1_655
K1_7 P0_1 3.285068 1_655
K1_7 P0_5 3.285068 1_555
K1_7 P0_7 3.285068 1_555
Co0_0 P1_2 2.261583 1_555
Co0_0 P1_0 2.261583 1_555
Co0_0 P0_5 2.261583 1_554
Co0_0 P0_1 2.261583 1_554
Co0_0 Ru0_2 2.718991 1_555
Co0_0 Ru0_6 2.718991 1_555
Co0_0 Ru0_4 2.718991 1_555
Co0_0 Ru0_0 2.718991 1_555
Co0_1 P1_1 2.261583 1_555
Co0_1 P1_3 2.261583 1_555
Co0_1 P0_0 2.261583 1_555
Co0_1 P0_4 2.261583 1_555
Co0_1 Ru0_5 2.718991 1_555
Co0_1 Ru0_3 2.718991 1_555
Co0_1 Ru0_1 2.718991 1_555
Co0_1 Ru0_7 2.718991 1_555
Co0_2 P1_2 2.261583 1_555
Co0_2 P1_0 2.261583 1_565
Co0_2 P0_3 2.261583 1_554
Co0_2 P0_7 2.261583 1_554
Co0_2 Ru0_0 2.718991 1_565
Co0_2 Ru0_2 2.718991 1_555
Co0_2 Ru0_4 2.718991 1_565
Co0_2 Ru0_6 2.718991 1_555
Co0_3 P1_1 2.261583 1_565
Co0_3 P1_3 2.261583 1_555
Co0_3 P0_2 2.261583 1_555
Co0_3 P0_6 2.261583 1_555
Co0_3 Ru0_7 2.718991 1_555
Co0_3 Ru0_3 2.718991 1_555
Co0_3 Ru0_1 2.718991 1_565
Co0_3 Ru0_5 2.718991 1_565
Co0_4 P1_4 2.261583 1_555
Co0_4 P1_6 2.261583 1_555
Co0_4 P0_5 2.261583 1_554
Co0_4 P0_1 2.261583 1_654
Co0_4 Ru0_2 2.718991 1_655
Co0_4 Ru0_0 2.718991 1_655
Co0_4 Ru0_4 2.718991 1_555
Co0_4 Ru0_6 2.718991 1_555
Co0_5 P1_7 2.261583 1_555
Co0_5 P1_5 2.261583 1_555
Co0_5 P0_0 2.261583 1_655
Co0_5 P0_4 2.261583 1_555
Co0_5 Ru0_5 2.718991 1_555
Co0_5 Ru0_3 2.718991 1_655
Co0_5 Ru0_1 2.718991 1_655
Co0_5 Ru0_7 2.718991 1_555
Co0_6 P1_6 2.261583 1_555
Co0_6 P1_4 2.261583 1_565
Co0_6 P0_7 2.261583 1_554
Co0_6 P0_3 2.261583 1_654
Co0_6 Ru0_2 2.718991 1_655
Co0_6 Ru0_4 2.718991 1_565
Co0_6 Ru0_6 2.718991 1_555
Co0_6 Ru0_0 2.718991 1_665
Co0_7 P1_7 2.261583 1_555
Co0_7 P1_5 2.261583 1_565
Co0_7 P0_2 2.261583 1_655
Co0_7 P0_6 2.261583 1_555
Co0_7 Ru0_1 2.718991 1_665
Co0_7 Ru0_3 2.718991 1_655
Co0_7 Ru0_5 2.718991 1_565
Co0_7 Ru0_7 2.718991 1_555
P0_0 Ru0_3 2.261583 1_555
P0_0 Ru0_1 2.261583 1_555
P0_1 Ru0_0 2.261583 1_556
P0_1 Ru0_2 2.261583 1_556
P0_2 Ru0_3 2.261583 1_555
P0_2 Ru0_1 2.261583 1_565
P0_3 Ru0_0 2.261583 1_566
P0_3 Ru0_2 2.261583 1_556
P0_4 Ru0_7 2.261583 1_555
P0_4 Ru0_5 2.261583 1_555
P0_5 Ru0_6 2.261583 1_556
P0_5 Ru0_4 2.261583 1_556
P0_6 Ru0_5 2.261583 1_565
P0_6 Ru0_7 2.261583 1_555
P0_7 Ru0_6 2.261583 1_556
P0_7 Ru0_4 2.261583 1_566
P1_0 Ru0_0 2.261583 1_555
P1_0 Ru0_4 2.261583 1_555
P1_1 Ru0_5 2.261583 1_555
P1_1 Ru0_1 2.261583 1_555
P1_2 Ru0_2 2.261583 1_555
P1_2 Ru0_6 2.261583 1_555
P1_3 Ru0_7 2.261583 1_555
P1_3 Ru0_3 2.261583 1_555
P1_4 Ru0_0 2.261583 1_655
P1_4 Ru0_4 2.261583 1_555
P1_5 Ru0_5 2.261583 1_555
P1_5 Ru0_1 2.261583 1_655
P1_6 Ru0_2 2.261583 1_655
P1_6 Ru0_6 2.261583 1_555
P1_7 Ru0_7 2.261583 1_555
P1_7 Ru0_3 2.261583 1_655
