# generated using pymatgen
data_Ca2B4Ir3Rh
_symmetry_space_group_name_H-M   'P 1'
_cell_length_a   7.06617920
_cell_length_b   6.10589461
_cell_length_c   5.48953891
_cell_angle_alpha   74.87996398
_cell_angle_beta   56.53132489
_cell_angle_gamma   48.76839151
_symmetry_Int_Tables_number   1
_chemical_formula_structural   Ca2B4Ir3Rh
_chemical_formula_sum   'Ca2 B4 Ir3 Rh1'
_cell_volume   146.58485215
_cell_formula_units_Z   1
loop_
 _symmetry_equiv_pos_site_id
 _symmetry_equiv_pos_as_xyz
  1  'x, y, z'
loop_
 _atom_site_type_symbol
 _atom_site_label
 _atom_site_symmetry_multiplicity
 _atom_site_fract_x
 _atom_site_fract_y
 _atom_site_fract_z
 _atom_site_occupancy
  Ca  Ca0  1  0.49926116  0.49926116  0.50073884  1
  Ca  Ca1  1  0.75243134  0.75243134  0.74756866  1
  B  B0  1  0.81767845  0.18521801  0.82574830  1
  B  B1  1  0.07222591  0.42605652  0.07580961  1
  B  B2  1  0.18521801  0.81767845  0.17135523  1
  B  B3  1  0.42605652  0.07222591  0.42590795  1
  Ir  Ir0  1  0.12987725  0.12987725  0.87012275  1
  Ir  Ir1  1  0.37884225  0.37884225  0.12115775  1
  Ir  Ir2  1  0.11838034  0.11838034  0.38161966  1
  Rh  Rh0  1  0.87002875  0.87002875  0.12997125  1
loop_
_geom_bond_atom_site_label_1
_geom_bond_atom_site_label_2
_geom_bond_distance
_geom_bond_site_symmetry_2
Ca0 Ir1 3.030866 1_555
Ca0 Ir1 3.030866 1_556
Ca0 Ir2 3.033394 1_565
Ca0 Ir2 3.033394 1_655
Ca0 Rh0 3.270623 1_545
Ca0 Rh0 3.270623 1_456
Ca0 Ir0 3.276881 1_565
Ca0 Ir0 3.276881 1_654
Ca1 Rh0 3.018215 1_556
Ca1 Rh0 3.018215 1_555
Ca1 Ir0 3.048946 1_655
Ca1 Ir0 3.048946 1_565
Ca1 Ir1 3.258033 1_566
Ca1 Ir1 3.258034 1_655
Ca1 Ir2 3.292650 1_655
Ca1 Ir2 3.292650 1_566
B0 Ir1 2.065012 1_556
B0 Ir2 2.070676 1_655
B0 Ir0 2.146467 1_655
B0 Rh0 2.166995 1_546
B0 Ca0 2.979624 1_555
B0 Ca1 3.119209 1_555
B0 Ca1 3.129814 1_545
B0 Ca0 3.360519 1_556
B0 Ca0 3.428016 1_645
B1 Ir0 2.073189 1_554
B1 Rh0 2.079606 1_455
B1 Ir1 2.138541 1_555
B1 Ir2 2.145883 1_555
B1 Ca1 3.001007 1_454
B1 Ca0 3.126448 1_455
B1 Ca0 3.131473 1_554
B1 Ca1 3.373857 1_455
B1 Ca1 3.394125 1_544
B2 Ir1 2.065012 1_555
B2 Ir2 2.070676 1_565
B2 Ir0 2.146467 1_564
B2 Rh0 2.166995 1_455
B2 Ca0 2.979624 1_555
B2 Ca1 3.119209 1_554
B2 Ca1 3.129814 1_455
B2 Ca0 3.360519 1_554
B2 Ca0 3.428016 1_465
B3 Ir0 2.073189 1_555
B3 Rh0 2.079606 1_545
B3 Ir1 2.138541 1_555
B3 Ir2 2.145883 1_555
B3 Ca1 3.001007 1_545
B3 Ca0 3.126448 1_545
B3 Ca0 3.131473 1_555
B3 Ca1 3.373857 1_544
B3 Ca1 3.394125 1_455
