# generated using pymatgen
data_Hf3TiOs2N
_symmetry_space_group_name_H-M   'P 1'
_cell_length_a   8.52235223
_cell_length_b   8.52235222
_cell_length_c   8.52235151
_cell_angle_alpha   59.99999895
_cell_angle_beta   59.99999899
_cell_angle_gamma   60.00000149
_symmetry_Int_Tables_number   1
_chemical_formula_structural   Hf3TiOs2N
_chemical_formula_sum   'Hf12 Ti4 Os8 N4'
_cell_volume   437.68675249
_cell_formula_units_Z   4
loop_
 _symmetry_equiv_pos_site_id
 _symmetry_equiv_pos_as_xyz
  1  'x, y, z'
loop_
 _atom_site_type_symbol
 _atom_site_label
 _atom_site_symmetry_multiplicity
 _atom_site_fract_x
 _atom_site_fract_y
 _atom_site_fract_z
 _atom_site_occupancy
  Hf  Hf0  1  0.81107438  0.81107438  0.18892562  1
  Hf  Hf1  1  0.18892562  0.18892562  0.81107438  1
  Hf  Hf2  1  0.81107438  0.18892562  0.81107438  1
  Hf  Hf3  1  0.18892562  0.81107438  0.18892562  1
  Hf  Hf4  1  0.18892562  0.81107438  0.81107438  1
  Hf  Hf5  1  0.81107438  0.18892562  0.18892562  1
  Hf  Hf6  1  0.43892562  0.43892562  0.06107438  1
  Hf  Hf7  1  0.06107438  0.06107438  0.43892562  1
  Hf  Hf8  1  0.43892562  0.06107438  0.43892562  1
  Hf  Hf9  1  0.06107438  0.43892562  0.06107438  1
  Hf  Hf10  1  0.06107438  0.43892562  0.43892562  1
  Hf  Hf11  1  0.43892562  0.06107438  0.06107438  1
  Ti  Ti0  1  0.12500000  0.62500000  0.62500000  1
  Ti  Ti1  1  0.62500000  0.12500000  0.62500000  1
  Ti  Ti2  1  0.62500000  0.62500000  0.12500000  1
  Ti  Ti3  1  0.62500000  0.62500000  0.62500000  1
  Os  Os0  1  0.75215597  0.41594734  0.41594734  1
  Os  Os1  1  0.41594734  0.75215597  0.41594734  1
  Os  Os2  1  0.41594734  0.41594734  0.75215597  1
  Os  Os3  1  0.41594734  0.41594734  0.41594734  1
  Os  Os4  1  0.49784403  0.83405266  0.83405266  1
  Os  Os5  1  0.83405266  0.49784403  0.83405266  1
  Os  Os6  1  0.83405266  0.83405266  0.49784403  1
  Os  Os7  1  0.83405266  0.83405266  0.83405266  1
  N  N0  1  0.62500000  0.12500000  0.12500000  1
  N  N1  1  0.12500000  0.62500000  0.12500000  1
  N  N2  1  0.12500000  0.12500000  0.62500000  1
  N  N3  1  0.12500000  0.12500000  0.12500000  1
loop_
_geom_bond_atom_site_label_1
_geom_bond_atom_site_label_2
_geom_bond_distance
_geom_bond_site_symmetry_2
Hf0 N0 2.265615 1_565
Hf0 N1 2.265615 1_655
Hf0 Os7 2.842049 1_554
Hf0 Os6 2.842066 1_555
Hf0 Os0 3.088547 1_555
Hf0 Os1 3.088547 1_555
Hf0 Ti3 3.093359 1_555
Hf0 Ti2 3.093360 1_555
Hf1 N3 2.265615 1_556
Hf1 N2 2.265615 1_555
Hf1 Os4 2.842056 1_545
Hf1 Os5 2.842056 1_455
Hf1 Os2 3.088532 1_555
Hf1 Os3 3.088540 1_555
Hf1 Ti0 3.093360 1_555
Hf1 Ti1 3.093360 1_555
Hf2 N0 2.265615 1_556
Hf2 N2 2.265615 1_655
Hf2 Os7 2.842049 1_545
Hf2 Os5 2.842066 1_555
Hf2 Os0 3.088546 1_555
Hf2 Os2 3.088547 1_555
Hf2 Ti1 3.093360 1_555
Hf2 Ti3 3.093360 1_555
Hf3 N1 2.265615 1_555
Hf3 N3 2.265615 1_565
Hf3 Os4 2.842056 1_554
Hf3 Os6 2.842056 1_455
Hf3 Os1 3.088532 1_555
Hf3 Os3 3.088540 1_555
Hf3 Ti0 3.093359 1_555
Hf3 Ti2 3.093360 1_555
Hf4 N1 2.265615 1_556
Hf4 N2 2.265615 1_565
Hf4 Os7 2.842049 1_455
Hf4 Os4 2.842066 1_555
Hf4 Os1 3.088546 1_555
Hf4 Os2 3.088547 1_555
Hf4 Ti0 3.093360 1_555
Hf4 Ti3 3.093360 1_555
Hf5 N0 2.265615 1_555
Hf5 N3 2.265615 1_655
Hf5 Os5 2.842056 1_554
Hf5 Os6 2.842056 1_545
Hf5 Os0 3.088532 1_555
Hf5 Os3 3.088540 1_555
Hf5 Ti1 3.093359 1_555
Hf5 Ti2 3.093360 1_555
Hf6 N0 2.265615 1_555
Hf6 N1 2.265615 1_555
Hf6 Os3 2.842049 1_555
Hf6 Os2 2.842066 1_554
Hf6 Os4 3.088547 1_554
Hf6 Os5 3.088547 1_554
Hf6 Ti3 3.093359 1_554
Hf6 Ti2 3.093360 1_555
Hf7 N3 2.265615 1_555
Hf7 N2 2.265615 1_555
Hf7 Os0 2.842056 1_455
Hf7 Os1 2.842056 1_545
Hf7 Os6 3.088532 1_445
Hf7 Os7 3.088540 1_445
Hf7 Ti0 3.093360 1_545
Hf7 Ti1 3.093360 1_455
Hf8 N0 2.265615 1_555
Hf8 N2 2.265615 1_555
Hf8 Os3 2.842049 1_555
Hf8 Os1 2.842066 1_545
Hf8 Os4 3.088546 1_545
Hf8 Os6 3.088547 1_545
Hf8 Ti1 3.093360 1_555
Hf8 Ti3 3.093360 1_545
Hf9 N1 2.265615 1_555
Hf9 N3 2.265615 1_555
Hf9 Os0 2.842056 1_455
Hf9 Os2 2.842056 1_554
Hf9 Os5 3.088532 1_454
Hf9 Os7 3.088540 1_454
Hf9 Ti0 3.093359 1_554
Hf9 Ti2 3.093360 1_455
Hf10 N1 2.265615 1_555
Hf10 N2 2.265615 1_555
Hf10 Os3 2.842049 1_555
Hf10 Os0 2.842066 1_455
Hf10 Os5 3.088546 1_455
Hf10 Os6 3.088547 1_455
Hf10 Ti0 3.093360 1_555
Hf10 Ti3 3.093360 1_455
Hf11 N0 2.265615 1_555
Hf11 N3 2.265615 1_555
Hf11 Os1 2.842056 1_545
Hf11 Os2 2.842056 1_554
Hf11 Os4 3.088532 1_544
Hf11 Os7 3.088540 1_544
Hf11 Ti1 3.093359 1_554
Hf11 Ti2 3.093360 1_545
Os0 Ti2 2.614461 1_555
Os0 Ti1 2.614461 1_555
Os0 Ti3 2.614475 1_555
Os0 Os2 2.865288 1_555
Os0 Os3 2.865288 1_555
Os0 Os1 2.865288 1_555
Os1 Ti2 2.614461 1_555
Os1 Ti0 2.614461 1_555
Os1 Ti3 2.614475 1_555
Os1 Os2 2.865288 1_555
Os1 Os3 2.865288 1_555
Os2 Ti1 2.614461 1_555
Os2 Ti0 2.614461 1_555
Os2 Ti3 2.614475 1_555
Os2 Os3 2.865288 1_555
Os3 Ti2 2.614470 1_555
Os3 Ti1 2.614470 1_555
Os3 Ti0 2.614470 1_555
Os4 Ti2 2.614461 1_556
Os4 Ti1 2.614461 1_565
Os4 Ti3 2.614475 1_555
Os4 Os6 2.865288 1_555
Os4 Os7 2.865288 1_555
Os4 Os5 2.865288 1_555
Os5 Ti2 2.614461 1_556
Os5 Ti0 2.614461 1_655
Os5 Ti3 2.614475 1_555
Os5 Os6 2.865288 1_555
Os5 Os7 2.865288 1_555
Os6 Ti1 2.614461 1_565
Os6 Ti0 2.614461 1_655
Os6 Ti3 2.614475 1_555
Os6 Os7 2.865288 1_555
Os7 Ti2 2.614470 1_556
Os7 Ti1 2.614470 1_565
Os7 Ti0 2.614470 1_655
