# generated using pymatgen
data_Cs8Zr6CBr20
_symmetry_space_group_name_H-M   'P 1'
_cell_length_a   12.26328681
_cell_length_b   12.26328746
_cell_length_c   12.26328661
_cell_angle_alpha   59.99999973
_cell_angle_beta   59.99999796
_cell_angle_gamma   60.00000041
_symmetry_Int_Tables_number   1
_chemical_formula_structural   Cs8Zr6CBr20
_chemical_formula_sum   'Cs8 Zr6 C1 Br20'
_cell_volume   1304.08430587
_cell_formula_units_Z   1
loop_
 _symmetry_equiv_pos_site_id
 _symmetry_equiv_pos_as_xyz
  1  'x, y, z'
loop_
 _atom_site_type_symbol
 _atom_site_label
 _atom_site_symmetry_multiplicity
 _atom_site_fract_x
 _atom_site_fract_y
 _atom_site_fract_z
 _atom_site_occupancy
  Cs  Cs0  1  0.36113336  0.36113336  0.36113336  1
  Cs  Cs1  1  0.63886664  0.63886664  0.63886664  1
  Cs  Cs2  1  0.36113336  0.36113336  0.91660093  1
  Cs  Cs3  1  0.36113336  0.91660093  0.36113336  1
  Cs  Cs4  1  0.63886664  0.63886664  0.08339907  1
  Cs  Cs5  1  0.63886664  0.08339907  0.63886664  1
  Cs  Cs6  1  0.91660093  0.36113336  0.36113336  1
  Cs  Cs7  1  0.08339907  0.63886664  0.63886664  1
  Zr  Zr0  1  0.86899425  0.13100575  0.13100575  1
  Zr  Zr1  1  0.13100575  0.86899425  0.86899425  1
  Zr  Zr2  1  0.13100575  0.86899425  0.13100575  1
  Zr  Zr3  1  0.86899425  0.13100575  0.86899425  1
  Zr  Zr4  1  0.13100575  0.13100575  0.86899425  1
  Zr  Zr5  1  0.86899425  0.86899425  0.13100575  1
  C  C0  1  0.00000000  0.00000000  0.00000000  1
  Br  Br0  1  0.31188458  0.00000000  0.00000000  1
  Br  Br1  1  0.68811542  1.00000000  1.00000000  1
  Br  Br2  1  1.00000000  0.31188458  0.68811542  1
  Br  Br3  1  0.00000000  0.68811542  0.31188458  1
  Br  Br4  1  1.00000000  0.31188458  1.00000000  1
  Br  Br5  1  0.68811542  0.00000000  0.31188458  1
  Br  Br6  1  0.00000000  0.68811542  0.00000000  1
  Br  Br7  1  0.31188458  1.00000000  0.68811542  1
  Br  Br8  1  0.00000000  0.00000000  0.31188458  1
  Br  Br9  1  1.00000000  1.00000000  0.68811542  1
  Br  Br10  1  0.68811542  0.31188458  1.00000000  1
  Br  Br11  1  0.31188458  0.68811542  0.00000000  1
  Br  Br12  1  0.69987171  0.30012829  0.30012829  1
  Br  Br13  1  0.30012829  0.69987171  0.69987171  1
  Br  Br14  1  0.30012829  0.69987171  0.30012829  1
  Br  Br15  1  0.69987171  0.30012829  0.69987171  1
  Br  Br16  1  0.30012829  0.30012829  0.69987171  1
  Br  Br17  1  0.69987171  0.69987171  0.30012829  1
  Br  Br18  1  0.25000000  0.25000000  0.25000000  1
  Br  Br19  1  0.75000000  0.75000000  0.75000000  1
loop_
_geom_bond_atom_site_label_1
_geom_bond_atom_site_label_2
_geom_bond_distance
_geom_bond_site_symmetry_2
C0 Zr4 2.272021 1_554
C0 Zr5 2.272021 1_445
C0 Zr0 2.272021 1_455
C0 Zr2 2.272021 1_545
C0 Zr1 2.272021 1_544
C0 Zr3 2.272021 1_454
Br0 Zr2 2.738852 1_545
Br0 Zr4 2.738852 1_554
Br0 Br14 3.683382 1_545
Br0 Br16 3.683382 1_554
Br0 Br8 3.824730 1_555
Br0 Br7 3.824730 1_544
Br0 Br4 3.824730 1_454
Br0 Br11 3.824730 1_545
Br0 Cs5 4.307149 1_554
Br0 Cs4 4.307150 1_545
Br0 Cs3 4.307156 1_545
Br0 Cs2 4.307156 1_554
Br1 Zr3 2.738852 1_565
Br1 Zr5 2.738852 1_556
Br1 Br15 3.683382 1_565
Br1 Br17 3.683382 1_556
Br1 Br9 3.824730 1_555
Br1 Br5 3.824730 1_566
Br1 Br6 3.824730 1_656
Br1 Br10 3.824730 1_565
Br1 Cs3 4.307149 1_556
Br1 Cs2 4.307150 1_565
Br1 Cs5 4.307156 1_565
Br1 Cs4 4.307156 1_556
Br2 Zr3 2.738852 1_555
Br2 Zr4 2.738852 1_655
Br2 Br4 3.824730 1_555
Br2 Br7 3.824730 1_645
Br2 Br9 3.824730 1_545
Br2 Cs6 4.307144 1_555
Br2 Cs7 4.307144 1_655
Br2 Cs0 4.307152 1_655
Br2 Cs1 4.307152 1_555
Br3 Zr2 2.738852 1_555
Br3 Zr5 2.738852 1_455
Br3 Br6 3.824730 1_555
Br3 Br5 3.824730 1_465
Br3 Br8 3.824730 1_565
Br3 Cs7 4.307144 1_555
Br3 Cs6 4.307144 1_455
Br3 Cs1 4.307152 1_455
Br3 Cs0 4.307152 1_555
Br4 Zr0 2.738852 1_556
Br4 Zr4 2.738852 1_655
Br4 Br8 3.824730 1_656
Br4 Cs7 4.307150 1_655
Br4 Cs4 4.307150 1_556
Br4 Cs6 4.307156 1_556
Br4 Cs2 4.307156 1_655
Br5 Zr0 2.738852 1_555
Br5 Zr5 2.738852 1_545
Br5 Br8 3.824730 1_655
Br5 Cs5 4.307144 1_555
Br5 Cs3 4.307144 1_545
Br5 Cs1 4.307152 1_545
Br5 Cs0 4.307152 1_555
Br6 Zr1 2.738852 1_554
Br6 Zr5 2.738852 1_455
Br6 Br9 3.824730 1_454
Br6 Cs6 4.307150 1_455
Br6 Cs2 4.307150 1_554
Br6 Cs7 4.307156 1_554
Br6 Cs4 4.307156 1_455
Br7 Zr1 2.738852 1_555
Br7 Zr4 2.738852 1_565
Br7 Br9 3.824730 1_455
Br7 Cs3 4.307144 1_555
Br7 Cs5 4.307144 1_565
Br7 Cs0 4.307152 1_565
Br7 Cs1 4.307152 1_555
Br8 Zr2 2.738852 1_545
Br8 Zr0 2.738852 1_455
Br8 Cs5 4.307149 1_455
Br8 Cs7 4.307150 1_545
Br8 Cs3 4.307156 1_545
Br8 Cs6 4.307156 1_455
Br9 Zr1 2.738852 1_655
Br9 Zr3 2.738852 1_565
Br9 Cs3 4.307149 1_655
Br9 Cs6 4.307150 1_565
Br9 Cs5 4.307156 1_565
Br9 Cs7 4.307156 1_655
Br10 Zr0 2.738852 1_556
Br10 Zr3 2.738852 1_555
Br10 Br12 3.683382 1_556
Br10 Br15 3.683382 1_555
Br10 Br2 3.824730 1_555
Br10 Br4 3.824730 1_555
Br10 Br5 3.824730 1_556
Br10 Cs2 4.307144 1_555
Br10 Cs4 4.307144 1_556
Br10 Cs0 4.307152 1_556
Br10 Cs1 4.307152 1_555
Br11 Zr1 2.738852 1_554
Br11 Zr2 2.738852 1_555
Br11 Br13 3.683382 1_554
Br11 Br14 3.683382 1_555
Br11 Br3 3.824730 1_555
Br11 Br6 3.824730 1_555
Br11 Br7 3.824730 1_554
Br11 Cs4 4.307144 1_555
Br11 Cs2 4.307144 1_554
Br11 Cs1 4.307152 1_554
Br11 Cs0 4.307152 1_555
Br12 Zr0 2.933076 1_555
Br12 Cs0 3.566467 1_555
Br12 Cs5 3.566470 1_555
Br12 Cs4 3.566470 1_555
Br12 Cs6 3.566479 1_555
Br12 Br4 3.683382 1_554
Br12 Br8 3.683382 1_655
Br12 Br5 3.683382 1_555
Br13 Zr1 2.933076 1_555
Br13 Cs1 3.566467 1_555
Br13 Cs3 3.566470 1_555
Br13 Cs2 3.566470 1_555
Br13 Cs7 3.566479 1_555
Br13 Br6 3.683382 1_556
Br13 Br9 3.683382 1_455
Br13 Br7 3.683382 1_555
Br14 Zr2 2.933076 1_555
Br14 Cs0 3.566467 1_555
Br14 Cs7 3.566470 1_555
Br14 Cs4 3.566470 1_555
Br14 Cs3 3.566479 1_555
Br14 Br3 3.683382 1_555
Br14 Br8 3.683382 1_565
Br15 Zr3 2.933076 1_555
Br15 Cs1 3.566467 1_555
Br15 Cs6 3.566470 1_555
Br15 Cs2 3.566470 1_555
Br15 Cs5 3.566479 1_555
Br15 Br2 3.683382 1_555
Br15 Br9 3.683382 1_545
Br16 Zr4 2.933076 1_555
Br16 Cs0 3.566467 1_555
Br16 Cs5 3.566470 1_555
Br16 Cs7 3.566470 1_555
Br16 Cs2 3.566479 1_555
Br16 Br4 3.683382 1_455
Br16 Br2 3.683382 1_455
Br16 Br7 3.683382 1_545
Br17 Zr5 2.933076 1_555
Br17 Cs1 3.566467 1_555
Br17 Cs3 3.566470 1_555
Br17 Cs6 3.566470 1_555
Br17 Cs4 3.566479 1_555
Br17 Br6 3.683382 1_655
Br17 Br3 3.683382 1_655
Br17 Br5 3.683382 1_565
Br18 Cs2 3.338302 1_554
Br18 Cs6 3.338302 1_455
Br18 Cs3 3.338302 1_545
Br18 Cs0 3.338312 1_555
Br19 Cs4 3.338302 1_556
Br19 Cs7 3.338302 1_655
Br19 Cs5 3.338302 1_565
Br19 Cs1 3.338312 1_555
