# generated using pymatgen
data_BaZnP3N5O2
_symmetry_space_group_name_H-M   'P 1'
_cell_length_a   6.49492214
_cell_length_b   7.28151715
_cell_length_c   14.93934220
_cell_angle_alpha   58.68387000
_cell_angle_beta   90.00000000
_cell_angle_gamma   90.00000000
_symmetry_Int_Tables_number   1
_chemical_formula_structural   BaZnP3N5O2
_chemical_formula_sum   'Ba4 Zn4 P12 N20 O8'
_cell_volume   603.59284414
_cell_formula_units_Z   4
loop_
 _symmetry_equiv_pos_site_id
 _symmetry_equiv_pos_as_xyz
  1  'x, y, z'
loop_
 _atom_site_type_symbol
 _atom_site_label
 _atom_site_symmetry_multiplicity
 _atom_site_fract_x
 _atom_site_fract_y
 _atom_site_fract_z
 _atom_site_occupancy
  Ba  Ba0  1  0.75045315  0.49819265  0.63280441  1
  Ba  Ba1  1  0.25045315  0.50180735  0.86719559  1
  Ba  Ba2  1  0.24954685  0.50180735  0.36719559  1
  Ba  Ba3  1  0.74954685  0.49819265  0.13280441  1
  Zn  Zn0  1  0.50277061  0.97929132  0.88205793  1
  Zn  Zn1  1  0.00277061  0.02070868  0.61794207  1
  Zn  Zn2  1  0.49722939  0.02070868  0.11794207  1
  Zn  Zn3  1  0.99722939  0.97929132  0.38205793  1
  P  P0  1  0.00402338  0.95815688  0.87891298  1
  P  P1  1  0.50402338  0.04184312  0.62108702  1
  P  P2  1  0.99597662  0.04184312  0.12108702  1
  P  P3  1  0.49597662  0.95815688  0.37891298  1
  P  P4  1  0.27897623  0.74098711  0.58373346  1
  P  P5  1  0.77897623  0.25901289  0.91626654  1
  P  P6  1  0.72102377  0.25901289  0.41626654  1
  P  P7  1  0.22102377  0.74098711  0.08373346  1
  P  P8  1  0.75750178  0.73611436  0.79825076  1
  P  P9  1  0.25750178  0.26388564  0.70174924  1
  P  P10  1  0.24249822  0.26388564  0.20174924  1
  P  P11  1  0.74249822  0.73611436  0.29825076  1
  N  N0  1  0.29544841  0.89949113  0.63242061  1
  N  N1  1  0.79544841  0.10050887  0.86757939  1
  N  N2  1  0.70455159  0.10050887  0.36757939  1
  N  N3  1  0.20455159  0.89949113  0.13242061  1
  N  N4  1  0.71154042  0.89074448  0.67059295  1
  N  N5  1  0.21154042  0.10925552  0.82940705  1
  N  N6  1  0.28845958  0.10925552  0.32940705  1
  N  N7  1  0.78845958  0.89074448  0.17059295  1
  N  N8  1  0.96273286  0.83345237  0.81772793  1
  N  N9  1  0.46273286  0.16654763  0.68227207  1
  N  N10  1  0.03726714  0.16654763  0.18227207  1
  N  N11  1  0.53726714  0.83345237  0.31772793  1
  N  N12  1  0.80369296  0.50098596  0.81631147  1
  N  N13  1  0.30369296  0.49901404  0.68368853  1
  N  N14  1  0.19630704  0.49901404  0.18368853  1
  N  N15  1  0.69630704  0.50098596  0.31631147  1
  N  N16  1  0.54775149  0.21837167  0.50015975  1
  N  N17  1  0.04775149  0.78162833  0.99984025  1
  N  N18  1  0.45224851  0.78162833  0.49984025  1
  N  N19  1  0.95224851  0.21837167  0.00015975  1
  O  O0  1  0.05960409  0.77893290  0.53751342  1
  O  O1  1  0.55960409  0.22106710  0.96248658  1
  O  O2  1  0.94039591  0.22106710  0.46248658  1
  O  O3  1  0.44039591  0.77893290  0.03751342  1
  O  O4  1  0.57547314  0.72810273  0.86625693  1
  O  O5  1  0.07547314  0.27189727  0.63374307  1
  O  O6  1  0.42452686  0.27189727  0.13374307  1
  O  O7  1  0.92452686  0.72810273  0.36625693  1
loop_
_geom_bond_atom_site_label_1
_geom_bond_atom_site_label_2
_geom_bond_distance
_geom_bond_site_symmetry_2
Ba0 O5 2.673494 1_655
Ba0 O0 2.685516 1_655
Ba0 N12 2.773739 1_555
Ba0 N18 2.773959 1_555
Ba0 N9 2.831032 1_555
Ba0 N13 3.000389 1_555
Ba0 N1 3.196030 1_555
Ba0 N4 3.198483 1_555
Ba0 O7 3.606625 1_555
Ba1 O4 2.673494 1_555
Ba1 O1 2.685516 1_555
Ba1 N13 2.773739 1_555
Ba1 N19 2.773959 1_456
Ba1 N8 2.831032 1_455
Ba1 N12 3.000389 1_455
Ba1 N0 3.196030 1_555
Ba1 N5 3.198483 1_555
Ba1 O6 3.606625 1_556
Ba2 O7 2.673494 1_455
Ba2 O2 2.685516 1_455
Ba2 N14 2.773739 1_555
Ba2 N16 2.773959 1_555
Ba2 N11 2.831032 1_555
Ba2 N15 3.000389 1_555
Ba2 N3 3.196030 1_555
Ba2 N6 3.198483 1_555
Ba2 O5 3.606625 1_555
Ba3 O6 2.673494 1_555
Ba3 O3 2.685516 1_555
Ba3 N15 2.773739 1_555
Ba3 N17 2.773959 1_654
Ba3 N10 2.831032 1_655
Ba3 N14 3.000389 1_655
Ba3 N2 3.196030 1_555
Ba3 N7 3.198483 1_555
Ba3 O4 3.606625 1_554
N0 P4 1.656865 1_555
N0 P1 1.660058 1_565
N0 Zn1 2.059341 1_565
N1 P5 1.656865 1_555
N1 P0 1.660058 1_645
N1 Zn0 2.059341 1_545
N2 P6 1.656865 1_555
N2 P3 1.660058 1_545
N2 Zn3 2.059341 1_545
N3 P7 1.656865 1_555
N3 P2 1.660058 1_465
N3 Zn2 2.059341 1_565
N4 P1 1.651727 1_565
N4 P8 1.661868 1_555
N4 Zn1 2.078054 1_665
N5 P0 1.651727 1_545
N5 P9 1.661868 1_555
N5 Zn0 2.078054 1_545
N6 P3 1.651727 1_545
N6 P10 1.661868 1_555
N6 Zn3 2.078054 1_445
N7 P2 1.651727 1_565
N7 P11 1.661868 1_555
N7 Zn2 2.078054 1_565
N8 P8 1.605673 1_555
N8 P0 1.610830 1_655
N8 Zn1 2.569937 1_665
N9 P9 1.605673 1_555
N9 P1 1.610830 1_555
N9 Zn0 2.569937 1_545
N10 P10 1.605673 1_555
N10 P2 1.610830 1_455
N10 Zn3 2.569937 1_445
N11 P11 1.605673 1_555
N11 P3 1.610830 1_555
N11 Zn2 2.569937 1_565
N12 P8 1.616743 1_555
N12 P5 1.620186 1_555
N13 P9 1.616743 1_555
N13 P4 1.620186 1_555
N14 P10 1.616743 1_555
N14 P7 1.620186 1_555
N15 P11 1.616743 1_555
N15 P6 1.620186 1_555
N16 P6 1.593522 1_555
N16 P1 1.607072 1_555
N17 P7 1.593522 1_556
N17 P0 1.607072 1_555
N18 P4 1.593522 1_555
N18 P3 1.607072 1_555
N19 P5 1.593522 1_554
N19 P2 1.607072 1_555
O0 P4 1.544303 1_555
O0 Zn3 2.040593 1_455
O0 Zn1 2.622640 1_565
O1 P5 1.544303 1_555
O1 Zn2 2.040593 1_556
O1 Zn0 2.622640 1_545
O2 P6 1.544303 1_555
O2 Zn1 2.040593 1_655
O2 Zn3 2.622640 1_545
O3 P7 1.544303 1_555
O3 Zn0 2.040593 1_554
O3 Zn2 2.622640 1_565
O4 P8 1.540041 1_555
O4 Zn0 2.018137 1_555
O5 P9 1.540041 1_555
O5 Zn1 2.018137 1_555
O6 P10 1.540041 1_555
O6 Zn2 2.018137 1_555
O7 P11 1.540041 1_555
O7 Zn3 2.018137 1_555
