# generated using pymatgen
data_Al(FeB)2
_symmetry_space_group_name_H-M   'P 1'
_cell_length_a   5.72465166
_cell_length_b   5.78005257
_cell_length_c   11.30178361
_cell_angle_alpha   104.81589389
_cell_angle_beta   90.00000000
_cell_angle_gamma   90.00000000
_symmetry_Int_Tables_number   1
_chemical_formula_structural   Al(FeB)2
_chemical_formula_sum   'Al8 Fe16 B16'
_cell_volume   361.52900122
_cell_formula_units_Z   8
loop_
 _symmetry_equiv_pos_site_id
 _symmetry_equiv_pos_as_xyz
  1  'x, y, z'
loop_
 _atom_site_type_symbol
 _atom_site_label
 _atom_site_symmetry_multiplicity
 _atom_site_fract_x
 _atom_site_fract_y
 _atom_site_fract_z
 _atom_site_occupancy
  Al  Al0_0  1  0.00000000  0.00000000  0.00000000  1
  Al  Al0_1  1  0.00000000  0.00000000  0.50000000  1
  Al  Al0_2  1  0.00000000  0.50000000  0.00000000  1
  Al  Al0_3  1  0.00000000  0.50000000  0.50000000  1
  Al  Al0_4  1  0.50000000  0.00000000  0.00000000  1
  Al  Al0_5  1  0.50000000  0.00000000  0.50000000  1
  Al  Al0_6  1  0.50000000  0.50000000  0.00000000  1
  Al  Al0_7  1  0.50000000  0.50000000  0.50000000  1
  Fe  Fe0_0  1  0.25000000  0.32346745  0.14693390  1
  Fe  Fe0_1  1  0.25000000  0.32346745  0.64693389  1
  Fe  Fe0_2  1  0.25000000  0.82346745  0.14693390  1
  Fe  Fe0_3  1  0.25000000  0.82346745  0.64693389  1
  Fe  Fe0_4  1  0.75000000  0.32346745  0.14693390  1
  Fe  Fe0_5  1  0.75000000  0.32346745  0.64693389  1
  Fe  Fe0_6  1  0.75000000  0.82346745  0.14693390  1
  Fe  Fe0_7  1  0.75000000  0.82346745  0.64693389  1
  Fe  Fe1_0  1  0.25000000  0.17653255  0.35306611  1
  Fe  Fe1_1  1  0.25000000  0.17653255  0.85306611  1
  Fe  Fe1_2  1  0.25000000  0.67653255  0.35306611  1
  Fe  Fe1_3  1  0.25000000  0.67653255  0.85306611  1
  Fe  Fe1_4  1  0.75000000  0.17653255  0.35306611  1
  Fe  Fe1_5  1  0.75000000  0.17653255  0.85306611  1
  Fe  Fe1_6  1  0.75000000  0.67653255  0.35306611  1
  Fe  Fe1_7  1  0.75000000  0.67653255  0.85306611  1
  B  B0_0  1  0.00000000  0.39710548  0.29421047  1
  B  B0_1  1  0.00000000  0.39710548  0.79421047  1
  B  B0_2  1  0.00000000  0.89710548  0.29421047  1
  B  B0_3  1  0.00000000  0.89710548  0.79421047  1
  B  B0_4  1  0.50000000  0.39710548  0.29421047  1
  B  B0_5  1  0.50000000  0.39710548  0.79421047  1
  B  B0_6  1  0.50000000  0.89710548  0.29421047  1
  B  B0_7  1  0.50000000  0.89710548  0.79421047  1
  B  B1_0  1  0.00000000  0.10289502  0.20578954  1
  B  B1_1  1  0.00000000  0.10289502  0.70578954  1
  B  B1_2  1  0.00000000  0.60289502  0.20578954  1
  B  B1_3  1  0.00000000  0.60289502  0.70578954  1
  B  B1_4  1  0.50000000  0.10289502  0.20578954  1
  B  B1_5  1  0.50000000  0.10289502  0.70578954  1
  B  B1_6  1  0.50000000  0.60289502  0.20578954  1
  B  B1_7  1  0.50000000  0.60289502  0.70578954  1
loop_
_geom_bond_atom_site_label_1
_geom_bond_atom_site_label_2
_geom_bond_distance
_geom_bond_site_symmetry_2
Al0_0 B0_3 2.248462 1_544
Al0_0 B1_0 2.248462 1_555
Al0_0 Fe1_1 2.591062 1_554
Al0_0 Fe1_5 2.591062 1_454
Al0_0 Fe0_6 2.591062 1_445
Al0_0 Fe0_2 2.591062 1_545
Al0_0 Fe0_4 2.591066 1_455
Al0_0 Fe0_0 2.591066 1_555
Al0_0 Fe1_3 2.591066 1_544
Al0_0 Fe1_7 2.591066 1_444
Al0_0 Al0_4 2.862326 1_455
Al0_0 Al0_4 2.862326 1_555
Al0_0 Al0_2 2.890026 1_555
Al0_0 Al0_2 2.890026 1_545
Al0_1 B0_2 2.248462 1_545
Al0_1 B1_1 2.248462 1_555
Al0_1 Fe1_0 2.591062 1_555
Al0_1 Fe1_4 2.591062 1_455
Al0_1 Fe0_7 2.591062 1_445
Al0_1 Fe0_3 2.591062 1_545
Al0_1 Fe0_1 2.591066 1_555
Al0_1 Fe0_5 2.591066 1_455
Al0_1 Fe1_6 2.591066 1_445
Al0_1 Fe1_2 2.591066 1_545
Al0_1 Al0_5 2.862326 1_555
Al0_1 Al0_5 2.862326 1_455
Al0_1 Al0_3 2.890026 1_545
Al0_1 Al0_3 2.890026 1_555
Al0_2 B0_1 2.248462 1_554
Al0_2 B1_2 2.248462 1_555
Al0_2 Fe1_7 2.591062 1_454
Al0_2 Fe1_3 2.591062 1_554
Al0_2 Fe0_4 2.591062 1_455
Al0_2 Fe0_0 2.591062 1_555
Al0_2 Fe0_6 2.591066 1_455
Al0_2 Fe0_2 2.591066 1_555
Al0_2 Fe1_5 2.591066 1_454
Al0_2 Fe1_1 2.591066 1_554
Al0_2 Al0_6 2.862326 1_555
Al0_2 Al0_6 2.862326 1_455
Al0_3 B0_0 2.248462 1_555
Al0_3 B1_3 2.248462 1_555
Al0_3 Fe1_6 2.591062 1_455
Al0_3 Fe1_2 2.591062 1_555
Al0_3 Fe0_5 2.591062 1_455
Al0_3 Fe0_1 2.591062 1_555
Al0_3 Fe0_3 2.591066 1_555
Al0_3 Fe0_7 2.591066 1_455
Al0_3 Fe1_4 2.591066 1_455
Al0_3 Fe1_0 2.591066 1_555
Al0_3 Al0_7 2.862326 1_555
Al0_3 Al0_7 2.862326 1_455
Al0_4 B0_7 2.248462 1_544
Al0_4 B1_4 2.248462 1_555
Al0_4 Fe1_1 2.591062 1_554
Al0_4 Fe1_5 2.591062 1_554
Al0_4 Fe0_2 2.591062 1_545
Al0_4 Fe0_6 2.591062 1_545
Al0_4 Fe0_0 2.591066 1_555
Al0_4 Fe0_4 2.591066 1_555
Al0_4 Fe1_3 2.591066 1_544
Al0_4 Fe1_7 2.591066 1_544
Al0_4 Al0_6 2.890026 1_545
Al0_4 Al0_6 2.890026 1_555
Al0_5 B0_6 2.248462 1_545
Al0_5 B1_5 2.248462 1_555
Al0_5 Fe1_0 2.591062 1_555
Al0_5 Fe1_4 2.591062 1_555
Al0_5 Fe0_3 2.591062 1_545
Al0_5 Fe0_7 2.591062 1_545
Al0_5 Fe0_1 2.591066 1_555
Al0_5 Fe0_5 2.591066 1_555
Al0_5 Fe1_2 2.591066 1_545
Al0_5 Fe1_6 2.591066 1_545
Al0_5 Al0_7 2.890026 1_555
Al0_5 Al0_7 2.890026 1_545
Al0_6 B0_5 2.248462 1_554
Al0_6 B1_6 2.248462 1_555
Al0_6 Fe1_3 2.591062 1_554
Al0_6 Fe1_7 2.591062 1_554
Al0_6 Fe0_0 2.591062 1_555
Al0_6 Fe0_4 2.591062 1_555
Al0_6 Fe0_2 2.591066 1_555
Al0_6 Fe0_6 2.591066 1_555
Al0_6 Fe1_1 2.591066 1_554
Al0_6 Fe1_5 2.591066 1_554
Al0_7 B0_4 2.248462 1_555
Al0_7 B1_7 2.248462 1_555
Al0_7 Fe1_2 2.591062 1_555
Al0_7 Fe1_6 2.591062 1_555
Al0_7 Fe0_1 2.591062 1_555
Al0_7 Fe0_5 2.591062 1_555
Al0_7 Fe0_3 2.591066 1_555
Al0_7 Fe0_7 2.591066 1_555
Al0_7 Fe1_0 2.591066 1_555
Al0_7 Fe1_4 2.591066 1_555
B0_0 B1_2 1.738215 1_555
B0_0 B1_0 1.738215 1_555
B0_0 Fe1_6 2.133027 1_455
B0_0 Fe1_2 2.133027 1_555
B0_0 Fe1_4 2.133032 1_455
B0_0 Fe1_0 2.133032 1_555
B0_0 Fe0_4 2.153505 1_455
B0_0 Fe0_0 2.153505 1_555
B0_1 B1_3 1.738215 1_555
B0_1 B1_1 1.738215 1_555
B0_1 Fe1_7 2.133027 1_455
B0_1 Fe1_3 2.133027 1_555
B0_1 Fe1_5 2.133032 1_455
B0_1 Fe1_1 2.133032 1_555
B0_1 Fe0_5 2.153505 1_455
B0_1 Fe0_1 2.153505 1_555
B0_2 B1_0 1.738215 1_565
B0_2 B1_2 1.738215 1_555
B0_2 Fe1_4 2.133027 1_465
B0_2 Fe1_0 2.133027 1_565
B0_2 Fe1_6 2.133032 1_455
B0_2 Fe1_2 2.133032 1_555
B0_2 Fe0_6 2.153505 1_455
B0_2 Fe0_2 2.153505 1_555
B0_3 B1_1 1.738215 1_565
B0_3 B1_3 1.738215 1_555
B0_3 Fe1_5 2.133027 1_465
B0_3 Fe1_1 2.133027 1_565
B0_3 Fe1_7 2.133032 1_455
B0_3 Fe1_3 2.133032 1_555
B0_3 Fe0_7 2.153505 1_455
B0_3 Fe0_3 2.153505 1_555
B0_4 B1_6 1.738215 1_555
B0_4 B1_4 1.738215 1_555
B0_4 Fe1_2 2.133027 1_555
B0_4 Fe1_6 2.133027 1_555
B0_4 Fe1_0 2.133032 1_555
B0_4 Fe1_4 2.133032 1_555
B0_4 Fe0_0 2.153505 1_555
B0_4 Fe0_4 2.153505 1_555
B0_5 B1_7 1.738215 1_555
B0_5 B1_5 1.738215 1_555
B0_5 Fe1_3 2.133027 1_555
B0_5 Fe1_7 2.133027 1_555
B0_5 Fe1_1 2.133032 1_555
B0_5 Fe1_5 2.133032 1_555
B0_5 Fe0_1 2.153505 1_555
B0_5 Fe0_5 2.153505 1_555
B0_6 B1_4 1.738215 1_565
B0_6 B1_6 1.738215 1_555
B0_6 Fe1_0 2.133027 1_565
B0_6 Fe1_4 2.133027 1_565
B0_6 Fe1_2 2.133032 1_555
B0_6 Fe1_6 2.133032 1_555
B0_6 Fe0_2 2.153505 1_555
B0_6 Fe0_6 2.153505 1_555
B0_7 B1_5 1.738215 1_565
B0_7 B1_7 1.738215 1_555
B0_7 Fe1_1 2.133027 1_565
B0_7 Fe1_5 2.133027 1_565
B0_7 Fe1_3 2.133032 1_555
B0_7 Fe1_7 2.133032 1_555
B0_7 Fe0_3 2.153505 1_555
B0_7 Fe0_7 2.153505 1_555
B1_0 Fe0_6 2.133028 1_445
B1_0 Fe0_2 2.133028 1_545
B1_0 Fe0_4 2.133030 1_455
B1_0 Fe0_0 2.133030 1_555
B1_0 Fe1_4 2.153505 1_455
B1_0 Fe1_0 2.153505 1_555
B1_1 Fe0_7 2.133028 1_445
B1_1 Fe0_3 2.133028 1_545
B1_1 Fe0_5 2.133030 1_455
B1_1 Fe0_1 2.133030 1_555
B1_1 Fe1_5 2.153505 1_455
B1_1 Fe1_1 2.153505 1_555
B1_2 Fe0_4 2.133028 1_455
B1_2 Fe0_0 2.133028 1_555
B1_2 Fe0_6 2.133030 1_455
B1_2 Fe0_2 2.133030 1_555
B1_2 Fe1_6 2.153505 1_455
B1_2 Fe1_2 2.153505 1_555
B1_3 Fe0_5 2.133028 1_455
B1_3 Fe0_1 2.133028 1_555
B1_3 Fe0_7 2.133030 1_455
B1_3 Fe0_3 2.133030 1_555
B1_3 Fe1_7 2.153505 1_455
B1_3 Fe1_3 2.153505 1_555
B1_4 Fe0_2 2.133028 1_545
B1_4 Fe0_6 2.133028 1_545
B1_4 Fe0_0 2.133030 1_555
B1_4 Fe0_4 2.133030 1_555
B1_4 Fe1_0 2.153505 1_555
B1_4 Fe1_4 2.153505 1_555
B1_5 Fe0_3 2.133028 1_545
B1_5 Fe0_7 2.133028 1_545
B1_5 Fe0_1 2.133030 1_555
B1_5 Fe0_5 2.133030 1_555
B1_5 Fe1_1 2.153505 1_555
B1_5 Fe1_5 2.153505 1_555
B1_6 Fe0_0 2.133028 1_555
B1_6 Fe0_4 2.133028 1_555
B1_6 Fe0_2 2.133030 1_555
B1_6 Fe0_6 2.133030 1_555
B1_6 Fe1_2 2.153505 1_555
B1_6 Fe1_6 2.153505 1_555
B1_7 Fe0_1 2.133028 1_555
B1_7 Fe0_5 2.133028 1_555
B1_7 Fe0_3 2.133030 1_555
B1_7 Fe0_7 2.133030 1_555
B1_7 Fe1_3 2.153505 1_555
B1_7 Fe1_7 2.153505 1_555
