# generated using pymatgen
data_Y10Al2CoHg
_symmetry_space_group_name_H-M   'P 1'
_cell_length_a   9.64464787
_cell_length_b   9.64464746
_cell_length_c   9.55894928
_cell_angle_alpha   90.00000000
_cell_angle_beta   90.00000000
_cell_angle_gamma   120.40845575
_symmetry_Int_Tables_number   1
_chemical_formula_structural   Y10Al2CoHg
_chemical_formula_sum   'Y20 Al4 Co2 Hg2'
_cell_volume   766.85149268
_cell_formula_units_Z   2
loop_
 _symmetry_equiv_pos_site_id
 _symmetry_equiv_pos_as_xyz
  1  'x, y, z'
loop_
 _atom_site_type_symbol
 _atom_site_label
 _atom_site_symmetry_multiplicity
 _atom_site_fract_x
 _atom_site_fract_y
 _atom_site_fract_z
 _atom_site_occupancy
  Y  Y0  1  0.99675293  0.00324707  0.51246401  1
  Y  Y1  1  0.99675293  0.00324707  0.98753599  1
  Y  Y2  1  0.54571664  0.45428336  0.25000000  1
  Y  Y3  1  0.54177896  0.08295681  0.25000000  1
  Y  Y4  1  0.91704319  0.45822104  0.25000000  1
  Y  Y5  1  0.45995842  0.54004158  0.75000000  1
  Y  Y6  1  0.46163812  0.91262823  0.75000000  1
  Y  Y7  1  0.08737177  0.53836188  0.75000000  1
  Y  Y8  1  0.20848040  0.79151960  0.43797949  1
  Y  Y9  1  0.21197767  0.42098079  0.43205997  1
  Y  Y10  1  0.57901921  0.78802233  0.43205997  1
  Y  Y11  1  0.78849243  0.21150757  0.56257544  1
  Y  Y12  1  0.79271783  0.58084164  0.56529903  1
  Y  Y13  1  0.41915836  0.20728217  0.56529903  1
  Y  Y14  1  0.78849243  0.21150757  0.93742456  1
  Y  Y15  1  0.79271783  0.58084164  0.93470097  1
  Y  Y16  1  0.41915836  0.20728217  0.93470097  1
  Y  Y17  1  0.20848040  0.79151960  0.06202051  1
  Y  Y18  1  0.21197767  0.42098079  0.06794003  1
  Y  Y19  1  0.57901921  0.78802233  0.06794003  1
  Al  Al0  1  0.88836902  0.11163098  0.25000000  1
  Al  Al1  1  0.89008669  0.78147650  0.25000000  1
  Al  Al2  1  0.21852350  0.10991331  0.25000000  1
  Al  Al3  1  0.12074271  0.87925729  0.75000000  1
  Co  Co0  1  0.32833336  0.67166664  0.25000000  1
  Co  Co1  1  0.66614642  0.33385358  0.75000000  1
  Hg  Hg0  1  0.12371354  0.24261700  0.75000000  1
  Hg  Hg1  1  0.75738300  0.87628646  0.75000000  1
loop_
_geom_bond_atom_site_label_1
_geom_bond_atom_site_label_2
_geom_bond_distance
_geom_bond_site_symmetry_2
Y0 Y11 3.518889 1_555
Y0 Y12 3.550898 1_545
Y0 Y13 3.550898 1_655
Y0 Y9 3.558850 1_655
Y0 Y10 3.558850 1_545
Y0 Y8 3.614977 1_645
Y1 Y14 3.518889 1_555
Y1 Y15 3.550898 1_545
Y1 Y16 3.550898 1_655
Y1 Y18 3.558850 1_656
Y1 Y19 3.558850 1_546
Y1 Y17 3.614977 1_646
Y2 Y9 3.527870 1_555
Y2 Y3 3.562242 1_555
Y2 Y4 3.562242 1_555
Y3 Y8 3.509408 1_545
Y3 Y4 3.596924 1_555
Y4 Y9 3.504756 1_655
Y4 Y8 3.509408 1_655
Y5 Y6 3.585294 1_555
Y5 Y7 3.585294 1_555
Y5 Y9 3.673570 1_555
Y6 Y7 3.587359 1_555
Y6 Y8 3.651656 1_555
Y7 Y8 3.651656 1_555
Y7 Y9 3.652368 1_555
Y8 Y9 3.591353 1_555
Y10 Y19 3.480604 1_555
Y10 Y3 3.504756 1_565
Y10 Y9 3.518109 1_555
Y10 Y2 3.527870 1_555
Y10 Y8 3.591353 1_555
Y10 Y6 3.652368 1_555
Y10 Y5 3.673570 1_555
Y10 Y11 3.737221 1_565
Y10 Y12 3.745916 1_555
Y11 Y7 3.501091 1_655
Y11 Y6 3.501091 1_545
Y11 Y12 3.541740 1_555
Y11 Y13 3.541740 1_555
Y11 Y14 3.583164 1_555
Y11 Y4 3.624921 1_555
Y11 Y3 3.624921 1_555
Y11 Y9 3.737221 1_655
Y12 Y5 3.506204 1_555
Y12 Y15 3.531094 1_555
Y12 Y7 3.541141 1_655
Y12 Y13 3.580583 1_555
Y12 Y2 3.647615 1_555
Y12 Y4 3.654544 1_555
Y12 Y8 3.666182 1_655
Y13 Y5 3.506204 1_555
Y13 Y16 3.531094 1_555
Y13 Y6 3.541141 1_545
Y13 Y2 3.647615 1_555
Y13 Y3 3.654544 1_555
Y13 Y8 3.666182 1_545
Y13 Y9 3.745916 1_555
Y14 Y7 3.501091 1_655
Y14 Y6 3.501091 1_545
Y14 Y15 3.541740 1_555
Y14 Y16 3.541740 1_555
Y14 Y4 3.624921 1_556
Y14 Y3 3.624921 1_556
Y14 Y19 3.737221 1_546
Y14 Y18 3.737221 1_656
Y15 Y5 3.506204 1_555
Y15 Y7 3.541141 1_655
Y15 Y16 3.580583 1_555
Y15 Y2 3.647615 1_556
Y15 Y4 3.654544 1_556
Y15 Y17 3.666182 1_656
Y15 Y19 3.745916 1_556
Y16 Y5 3.506204 1_555
Y16 Y6 3.541141 1_545
Y16 Y2 3.647615 1_556
Y16 Y3 3.654544 1_556
Y16 Y17 3.666182 1_546
Y16 Y18 3.745916 1_556
Y17 Y4 3.509408 1_455
Y17 Y3 3.509408 1_565
Y17 Y18 3.591353 1_555
Y17 Y19 3.591353 1_555
Y17 Y7 3.651656 1_554
Y17 Y6 3.651656 1_554
Y18 Y9 3.480604 1_555
Y18 Y4 3.504756 1_455
Y18 Y19 3.518109 1_555
Y18 Y2 3.527870 1_555
Y18 Y7 3.652368 1_554
Y18 Y5 3.673570 1_554
Y19 Y3 3.504756 1_565
Y19 Y2 3.527870 1_555
Y19 Y6 3.652368 1_554
Y19 Y5 3.673570 1_554
Al0 Y0 3.096135 1_555
Al0 Y1 3.096135 1_554
Al0 Al1 3.192641 1_545
Al0 Al2 3.192641 1_655
Al0 Y4 3.211628 1_555
Al0 Y3 3.211628 1_555
Al0 Y11 3.423833 1_555
Al0 Y14 3.423833 1_554
Al0 Y10 3.499259 1_545
Al0 Y19 3.499259 1_545
Al0 Y9 3.499259 1_655
Al0 Y18 3.499259 1_655
Al1 Y0 3.114513 1_565
Al1 Y1 3.114513 1_564
Al1 Al2 3.148081 1_665
Al1 Y2 3.221690 1_555
Al1 Y4 3.257007 1_555
Al1 Y12 3.445359 1_555
Al1 Y15 3.445359 1_554
Al1 Y10 3.496455 1_555
Al1 Y19 3.496455 1_555
Al1 Y8 3.516654 1_655
Al1 Y17 3.516654 1_655
Al2 Y0 3.114513 1_455
Al2 Y1 3.114513 1_454
Al2 Y2 3.221690 1_555
Al2 Y3 3.257007 1_555
Al2 Y13 3.445359 1_555
Al2 Y16 3.445359 1_554
Al2 Y9 3.496454 1_555
Al2 Y18 3.496454 1_555
Al2 Y8 3.516654 1_545
Al2 Y17 3.516654 1_545
Al3 Y1 3.076248 1_465
Al3 Y0 3.076248 1_465
Al3 Y7 3.137212 1_555
Al3 Y6 3.137212 1_555
Al3 Y17 3.324577 1_556
Al3 Y8 3.324577 1_555
Al3 Hg0 3.490061 1_565
Al3 Hg1 3.490061 1_455
Al3 Y16 3.491698 1_565
Al3 Y13 3.491698 1_565
Al3 Y15 3.491698 1_455
Al3 Y12 3.491698 1_455
Co0 Y8 2.693298 1_555
Co0 Y17 2.693298 1_555
Co0 Y9 2.717897 1_555
Co0 Y18 2.717897 1_555
Co0 Y10 2.717897 1_555
Co0 Y19 2.717897 1_555
Co0 Y3 3.421456 1_565
Co0 Y4 3.421456 1_455
Co0 Y2 3.638842 1_555
Co1 Y15 2.708884 1_555
Co1 Y12 2.708884 1_555
Co1 Y16 2.708884 1_555
Co1 Y13 2.708884 1_555
Co1 Y14 2.721031 1_555
Co1 Y11 2.721031 1_555
Co1 Y5 3.451441 1_555
Co1 Y6 3.504723 1_545
Co1 Y7 3.504723 1_655
Hg0 Y1 3.020439 1_455
Hg0 Y0 3.020439 1_455
Hg0 Y7 3.044809 1_555
Hg0 Y5 3.054206 1_555
Hg0 Y18 3.382021 1_556
Hg0 Y9 3.382021 1_555
Hg0 Hg1 3.511294 1_445
Hg0 Y16 3.512231 1_555
Hg0 Y13 3.512231 1_555
Hg0 Y14 3.573605 1_455
Hg0 Y11 3.573605 1_455
Hg1 Y1 3.020439 1_565
Hg1 Y0 3.020439 1_565
Hg1 Y6 3.044809 1_555
Hg1 Y5 3.054206 1_555
Hg1 Y19 3.382021 1_556
Hg1 Y10 3.382021 1_555
Hg1 Y15 3.512231 1_555
Hg1 Y12 3.512231 1_555
Hg1 Y14 3.573604 1_565
Hg1 Y11 3.573604 1_565
