# generated using pymatgen
data_Cs3BSe2S
_symmetry_space_group_name_H-M   'P 1'
_cell_length_a   6.86256869
_cell_length_b   11.07021470
_cell_length_c   14.18670331
_cell_angle_alpha   75.79892491
_cell_angle_beta   90.00000000
_cell_angle_gamma   90.00000000
_symmetry_Int_Tables_number   1
_chemical_formula_structural   Cs3BSe2S
_chemical_formula_sum   'Cs12 B4 Se8 S4'
_cell_volume   1044.82968960
_cell_formula_units_Z   4
loop_
 _symmetry_equiv_pos_site_id
 _symmetry_equiv_pos_as_xyz
  1  'x, y, z'
loop_
 _atom_site_type_symbol
 _atom_site_label
 _atom_site_symmetry_multiplicity
 _atom_site_fract_x
 _atom_site_fract_y
 _atom_site_fract_z
 _atom_site_occupancy
  Cs  Cs0  1  0.63805397  0.25389843  0.50426815  1
  Cs  Cs1  1  0.13805397  0.74610157  0.99573185  1
  Cs  Cs2  1  0.36194603  0.74610157  0.49573185  1
  Cs  Cs3  1  0.86194603  0.25389843  0.00426815  1
  Cs  Cs4  1  0.29007270  0.02973991  0.13990510  1
  Cs  Cs5  1  0.79007270  0.97026009  0.36009490  1
  Cs  Cs6  1  0.70992730  0.97026009  0.86009490  1
  Cs  Cs7  1  0.20992730  0.02973991  0.63990510  1
  Cs  Cs8  1  0.44128034  0.40026011  0.18978587  1
  Cs  Cs9  1  0.94128034  0.59973989  0.31021413  1
  Cs  Cs10  1  0.55871966  0.59973989  0.81021413  1
  Cs  Cs11  1  0.05871966  0.40026011  0.68978587  1
  B  B0  1  0.12071871  0.23962244  0.37412855  1
  B  B1  1  0.62071871  0.76037756  0.12587145  1
  B  B2  1  0.87928129  0.76037756  0.62587145  1
  B  B3  1  0.37928129  0.23962244  0.87412855  1
  Se  Se0  1  0.93351723  0.29122743  0.26429528  1
  Se  Se1  1  0.43351723  0.70877257  0.23570472  1
  Se  Se2  1  0.06648277  0.70877257  0.73570472  1
  Se  Se3  1  0.56648277  0.29122743  0.76429528  1
  Se  Se4  1  0.29218173  0.09351909  0.37834372  1
  Se  Se5  1  0.79218173  0.90648091  0.12165628  1
  Se  Se6  1  0.70781827  0.90648091  0.62165628  1
  Se  Se7  1  0.20781827  0.09351909  0.87834372  1
  S  S0  1  0.36116114  0.32633289  0.96612947  1
  S  S1  1  0.86116114  0.67366711  0.53387053  1
  S  S2  1  0.63883886  0.67366711  0.03387053  1
  S  S3  1  0.13883886  0.32633289  0.46612947  1
loop_
_geom_bond_atom_site_label_1
_geom_bond_atom_site_label_2
_geom_bond_distance
_geom_bond_site_symmetry_2
Cs0 S3 3.529821 1_555
Cs0 S3 3.540278 1_655
Cs0 Se4 3.678809 1_555
Cs0 Se6 3.827746 1_545
Cs0 Se3 3.842935 1_555
Cs0 Se0 3.896397 1_555
Cs0 Cs7 4.018675 1_555
Cs0 Cs5 4.275753 1_545
Cs0 Cs11 4.469701 1_655
Cs0 Cs8 4.561430 1_555
Cs0 Cs9 4.625518 1_555
Cs1 S2 3.529821 1_456
Cs1 S2 3.540278 1_556
Cs1 Se5 3.678809 1_456
Cs1 Se7 3.827746 1_565
Cs1 Se2 3.842935 1_555
Cs1 Se1 3.896397 1_556
Cs1 Cs6 4.018675 1_455
Cs1 Cs4 4.275753 1_566
Cs1 Cs10 4.469701 1_555
Cs1 Cs9 4.561430 1_456
Cs1 Cs8 4.625518 1_556
Cs2 S1 3.529821 1_555
Cs2 S1 3.540278 1_455
Cs2 Se6 3.678809 1_555
Cs2 Se4 3.827746 1_565
Cs2 Se1 3.842935 1_555
Cs2 Se2 3.896397 1_555
Cs2 Cs5 4.018675 1_555
Cs2 Cs7 4.275753 1_565
Cs2 Cs9 4.469701 1_455
Cs3 S0 3.529821 1_654
Cs3 S0 3.540278 1_554
Cs3 Se7 3.678809 1_654
Cs3 Se5 3.827746 1_545
Cs3 Se0 3.842935 1_555
Cs3 Se3 3.896397 1_554
Cs3 Cs4 4.018675 1_655
Cs3 Cs6 4.275753 1_544
Cs3 Cs8 4.469701 1_555
Cs4 Se1 3.615498 1_545
Cs4 Se4 3.621177 1_555
Cs4 S0 3.622781 1_554
Cs4 Se7 3.647042 1_554
Cs4 Se5 3.711714 1_445
Cs4 Se5 3.738378 1_545
Cs4 Cs8 4.452632 1_555
Cs4 Se0 4.470702 1_455
Cs4 Cs5 4.577772 1_445
Cs4 Cs5 4.577772 1_545
Cs5 Se0 3.615498 1_565
Cs5 Se5 3.621177 1_555
Cs5 S1 3.622781 1_555
Cs5 Se6 3.647042 1_555
Cs5 Se4 3.711714 1_565
Cs5 Se4 3.738378 1_665
Cs5 Cs9 4.452632 1_555
Cs5 Se1 4.470702 1_555
Cs6 Se3 3.615498 1_565
Cs6 Se6 3.621177 1_555
Cs6 S2 3.622781 1_556
Cs6 Se5 3.647042 1_556
Cs6 Se7 3.711714 1_665
Cs6 Se7 3.738378 1_565
Cs6 Se2 4.470702 1_655
Cs6 Cs7 4.577772 1_665
Cs6 Cs7 4.577772 1_565
Cs7 Se2 3.615498 1_545
Cs7 Se7 3.621177 1_555
Cs7 S3 3.622781 1_555
Cs7 Se4 3.647042 1_555
Cs7 Se6 3.711714 1_545
Cs7 Se6 3.738378 1_445
Cs7 Se3 4.470702 1_555
Cs8 S0 3.509094 1_554
Cs8 S2 3.550584 1_555
Cs8 Se1 3.630854 1_555
Cs8 Se0 3.655020 1_555
Cs8 Se0 3.753715 1_455
Cs8 Se4 3.908517 1_555
Cs9 S1 3.509094 1_555
Cs9 S3 3.550584 1_655
Cs9 Se0 3.630854 1_555
Cs9 Se1 3.655020 1_655
Cs9 Se1 3.753715 1_555
Cs9 Se5 3.908517 1_555
Cs10 S2 3.509094 1_556
Cs10 S0 3.550584 1_555
Cs10 Se3 3.630854 1_555
Cs10 Se2 3.655020 1_555
Cs10 Se2 3.753715 1_655
Cs10 Se6 3.908517 1_555
Cs10 Cs6 4.452632 1_555
Cs10 Cs2 4.561430 1_555
Cs10 Cs3 4.625518 1_556
Cs11 S3 3.509094 1_555
Cs11 S1 3.550584 1_455
Cs11 Se2 3.630854 1_555
Cs11 Se3 3.655020 1_455
Cs11 Se3 3.753715 1_555
Cs11 Se7 3.908517 1_555
Cs11 Cs7 4.452632 1_555
Cs11 Cs3 4.561430 1_456
Cs11 Cs2 4.625518 1_555
B0 S3 1.804193 1_555
B0 Se4 1.989135 1_555
B0 Se0 1.991963 1_455
B0 Cs8 3.543910 1_555
B0 Cs5 3.790959 1_445
B0 Cs0 3.814216 1_455
B1 S2 1.804193 1_555
B1 Se5 1.989135 1_555
B1 Se1 1.991963 1_555
B1 Cs9 3.543910 1_555
B1 Cs4 3.790959 1_565
B1 Cs1 3.814216 1_554
B2 S1 1.804193 1_555
B2 Se6 1.989135 1_555
B2 Se2 1.991963 1_655
B2 Cs10 3.543910 1_555
B2 Cs7 3.790959 1_665
B2 Cs2 3.814216 1_655
B3 S0 1.804193 1_555
B3 Se7 1.989135 1_555
B3 Se3 1.991963 1_555
B3 Cs11 3.543910 1_555
B3 Cs6 3.790959 1_545
B3 Cs3 3.814216 1_556
