# generated using pymatgen
data_KRb19(SiP3)4
_symmetry_space_group_name_H-M   'P 1'
_cell_length_a   5.60009025
_cell_length_b   13.78671807
_cell_length_c   15.14493239
_cell_angle_alpha   90.16846642
_cell_angle_beta   90.00000000
_cell_angle_gamma   90.00000000
_symmetry_Int_Tables_number   1
_chemical_formula_structural   KRb19(SiP3)4
_chemical_formula_sum   'K1 Rb19 Si4 P12'
_cell_volume   1169.28770246
_cell_formula_units_Z   1
loop_
 _symmetry_equiv_pos_site_id
 _symmetry_equiv_pos_as_xyz
  1  'x, y, z'
loop_
 _atom_site_type_symbol
 _atom_site_label
 _atom_site_symmetry_multiplicity
 _atom_site_fract_x
 _atom_site_fract_y
 _atom_site_fract_z
 _atom_site_occupancy
  K  K0  1  0.75000000  0.38482082  0.68638991  1
  Rb  Rb0  1  0.25000000  0.56261808  0.54799377  1
  Rb  Rb1  1  0.75000000  0.45064983  0.14925781  1
  Rb  Rb2  1  0.75000000  0.95161897  0.35217541  1
  Rb  Rb3  1  0.25000000  0.06423507  0.95065123  1
  Rb  Rb4  1  0.25000000  0.27521454  0.78913183  1
  Rb  Rb5  1  0.25000000  0.85419462  0.45333961  1
  Rb  Rb6  1  0.75000000  0.14605895  0.55070518  1
  Rb  Rb7  1  0.25000000  0.77421301  0.70888064  1
  Rb  Rb8  1  0.25000000  0.61745832  0.31397490  1
  Rb  Rb9  1  0.75000000  0.64412185  0.95215013  1
  Rb  Rb10  1  0.25000000  0.04852324  0.65180720  1
  Rb  Rb11  1  0.25000000  0.54911825  0.84585027  1
  Rb  Rb12  1  0.75000000  0.72547709  0.20922582  1
  Rb  Rb13  1  0.75000000  0.88067339  0.81510021  1
  Rb  Rb14  1  0.75000000  0.93689927  0.04922206  1
  Rb  Rb15  1  0.25000000  0.11935663  0.18610610  1
  Rb  Rb16  1  0.25000000  0.35636698  0.04330360  1
  Rb  Rb17  1  0.75000000  0.22582339  0.29169034  1
  Rb  Rb18  1  0.75000000  0.43644006  0.45386442  1
  Si  Si0  1  0.25000000  0.26250468  0.43420398  1
  Si  Si1  1  0.75000000  0.73633332  0.56829086  1
  Si  Si2  1  0.75000000  0.23822338  0.92934367  1
  Si  Si3  1  0.25000000  0.76181647  0.06838364  1
  P  P0  1  0.25000000  0.36651767  0.32498358  1
  P  P1  1  0.25000000  0.31057074  0.57208054  1
  P  P2  1  0.25000000  0.86669066  0.17780852  1
  P  P3  1  0.75000000  0.68979820  0.43051787  1
  P  P4  1  0.75000000  0.39406148  0.90318226  1
  P  P5  1  0.75000000  0.13225088  0.82118544  1
  P  P6  1  0.75000000  0.89272514  0.59252137  1
  P  P7  1  0.25000000  0.60525594  0.09081266  1
  P  P8  1  0.75000000  0.63088718  0.67686574  1
  P  P9  1  0.25000000  0.10616615  0.41035861  1
  P  P10  1  0.25000000  0.80955844  0.93110125  1
  P  P11  1  0.75000000  0.19275931  0.06753757  1
loop_
_geom_bond_atom_site_label_1
_geom_bond_atom_site_label_2
_geom_bond_distance
_geom_bond_site_symmetry_2
K0 P4 3.285402 1_555
K0 P8 3.395936 1_555
K0 P1 3.445983 1_655
K0 P1 3.445983 1_555
K0 Rb4 3.543830 1_655
K0 Rb4 3.543830 1_555
K0 Rb18 3.594822 1_555
K0 Rb6 3.875378 1_555
K0 P5 4.041595 1_555
K0 Rb0 4.274607 1_555
K0 Rb0 4.274607 1_655
K0 Rb11 4.332570 1_555
K0 Rb11 4.332570 1_655
Rb0 Rb18 3.589442 1_555
Rb0 Rb18 3.589442 1_455
Rb0 Rb8 3.626120 1_555
Rb0 Si1 3.696791 1_455
Rb0 Si1 3.696791 1_555
Rb0 Rb7 3.795441 1_555
Rb0 Rb5 4.271810 1_555
Rb0 Rb11 4.515401 1_555
Rb1 Rb16 3.477436 1_555
Rb1 Rb16 3.477436 1_655
Rb1 Rb17 3.781557 1_555
Rb1 Rb12 3.893697 1_555
Rb1 Rb9 4.009098 1_554
Rb1 Rb8 4.395282 1_655
Rb1 Rb8 4.395282 1_555
Rb1 Rb18 4.617980 1_555
Rb2 Rb5 3.464657 1_555
Rb2 Rb5 3.464657 1_655
Rb2 Rb6 4.022320 1_565
Rb3 Si2 3.701734 1_555
Rb3 Si2 3.701734 1_455
Rb3 Rb4 3.806095 1_555
Rb4 Si2 3.551895 1_455
Rb4 Si2 3.551895 1_555
Rb5 Si1 3.678055 1_555
Rb5 Si1 3.678055 1_455
Rb5 Rb8 3.881612 1_555
Rb5 Rb7 4.027292 1_555
Rb6 Si0 3.680673 1_655
Rb6 Si0 3.680673 1_555
Rb7 Si1 3.555283 1_455
Rb7 Si1 3.555283 1_555
Rb9 Si3 3.681737 1_556
Rb9 Si3 3.681737 1_656
Rb10 Rb6 3.464837 1_555
Rb10 Rb6 3.464837 1_455
Rb10 Rb4 3.748988 1_555
Rb10 Rb7 3.881837 1_545
Rb10 Rb5 4.020599 1_545
Rb10 Rb13 4.398294 1_545
Rb10 Rb13 4.398294 1_445
Rb10 Rb3 4.530517 1_555
Rb11 Rb9 3.483560 1_555
Rb11 Rb9 3.483560 1_455
Rb11 Rb7 3.737855 1_555
Rb11 Rb4 3.870237 1_555
Rb11 Rb16 4.006388 1_556
Rb12 Rb8 3.548050 1_655
Rb12 Rb8 3.548050 1_555
Rb12 Si3 3.556321 1_555
Rb12 Si3 3.556321 1_655
Rb12 Rb2 3.790483 1_555
Rb12 Rb14 3.796027 1_555
Rb12 Rb9 4.048564 1_554
Rb13 Rb7 3.545209 1_555
Rb13 Rb7 3.545209 1_655
Rb13 Rb14 3.627277 1_556
Rb13 Rb9 3.870898 1_555
Rb13 Rb3 4.292861 1_565
Rb13 Rb3 4.292861 1_665
Rb14 Rb3 3.628525 1_664
Rb14 Rb3 3.628525 1_564
Rb14 Si3 3.708787 1_555
Rb14 Si3 3.708787 1_655
Rb14 Rb9 4.291769 1_554
Rb14 Rb15 4.293601 1_565
Rb14 Rb15 4.293601 1_665
Rb14 Rb2 4.592098 1_555
Rb15 Rb17 3.540901 1_455
Rb15 Rb17 3.540901 1_555
Rb15 Rb3 3.643839 1_554
Rb15 Rb16 3.923793 1_555
Rb15 Rb2 4.421326 1_545
Rb15 Rb2 4.421326 1_445
Rb16 Si2 3.668179 1_554
Rb16 Si2 3.668179 1_454
Rb16 Rb4 4.005550 1_554
Rb16 Rb3 4.261086 1_554
Rb17 Si0 3.570448 1_555
Rb17 Si0 3.570448 1_655
Rb17 Rb18 3.797645 1_555
Rb17 Rb2 3.892398 1_545
Rb17 Rb6 4.077101 1_555
Rb18 Si0 3.697987 1_655
Rb18 Si0 3.697987 1_555
Rb18 Rb6 4.267647 1_555
Rb18 Rb8 4.311397 1_655
Rb18 Rb8 4.311397 1_555
P0 Si0 2.192365 1_555
P0 Rb17 3.442561 1_455
P0 Rb17 3.442561 1_555
P0 Rb8 3.464153 1_555
P0 Rb18 3.545189 1_555
P0 Rb18 3.545189 1_455
P0 Rb15 3.999126 1_555
P0 Rb1 4.035666 1_455
P0 Rb1 4.035666 1_555
P0 Rb16 4.267908 1_555
P1 Si0 2.188902 1_555
P1 Rb4 3.324589 1_555
P1 Rb0 3.495068 1_555
P1 Rb6 3.617307 1_555
P1 Rb6 3.617307 1_455
P1 Rb18 3.751709 1_555
P1 Rb18 3.751709 1_455
P1 Rb10 3.812577 1_555
P2 Si3 2.196104 1_555
P2 Rb12 3.444185 1_455
P2 Rb12 3.444185 1_555
P2 Rb15 3.485331 1_565
P2 Rb14 3.546936 1_555
P2 Rb14 3.546936 1_455
P2 Rb8 4.012633 1_555
P2 Rb2 4.020787 1_455
P2 Rb2 4.020787 1_555
P2 Rb5 4.176961 1_555
P3 Si1 2.181165 1_555
P3 Rb12 3.388789 1_555
P3 Rb8 3.455419 1_655
P3 Rb8 3.455419 1_555
P3 Rb18 3.511862 1_555
P3 Rb5 3.618297 1_655
P3 Rb5 3.618297 1_555
P3 Rb0 3.754787 1_555
P3 Rb0 3.754787 1_655
P3 Rb2 3.802961 1_555
P4 Si2 2.185869 1_555
P4 Rb9 3.524244 1_555
P4 Rb16 3.552497 1_556
P4 Rb16 3.552497 1_656
P4 Rb11 3.629732 1_555
P4 Rb11 3.629732 1_655
P4 Rb4 3.673124 1_655
P4 Rb4 3.673124 1_555
P4 Rb1 3.805336 1_556
P5 Si2 2.191732 1_555
P5 Rb4 3.459246 1_555
P5 Rb4 3.459246 1_655
P5 Rb13 3.469381 1_545
P5 Rb3 3.546113 1_655
P5 Rb3 3.546113 1_555
P5 Rb10 3.966822 1_655
P5 Rb10 3.966822 1_555
P5 Rb6 4.101385 1_555
P6 Si1 2.186072 1_555
P6 Rb13 3.375522 1_555
P6 Rb5 3.543880 1_655
P6 Rb5 3.543880 1_555
P6 Rb6 3.551426 1_565
P6 Rb10 3.639885 1_565
P6 Rb10 3.639885 1_665
P6 Rb7 3.692198 1_555
P6 Rb7 3.692198 1_655
P6 Rb2 3.731811 1_555
P7 Si3 2.186008 1_555
P7 Rb8 3.383467 1_555
P7 Rb16 3.503917 1_555
P7 Rb9 3.541770 1_554
P7 Rb9 3.541770 1_454
P7 Rb1 3.630175 1_555
P7 Rb1 3.630175 1_455
P7 Rb12 3.712960 1_455
P7 Rb12 3.712960 1_555
P7 Rb11 3.787581 1_554
P8 Si1 2.198041 1_555
P8 Rb7 3.460384 1_555
P8 Rb7 3.460384 1_655
P8 Rb0 3.539022 1_655
P8 Rb0 3.539022 1_555
P8 Rb11 3.959531 1_555
P8 Rb11 3.959531 1_655
P8 Rb13 4.024904 1_555
P8 Rb9 4.172618 1_555
P9 Si0 2.184392 1_555
P9 Rb15 3.401688 1_555
P9 Rb5 3.536203 1_545
P9 Rb6 3.557216 1_555
P9 Rb6 3.557216 1_455
P9 Rb2 3.625682 1_545
P9 Rb2 3.625682 1_445
P9 Rb17 3.716066 1_455
P9 Rb17 3.716066 1_555
P9 Rb10 3.744365 1_555
P10 Si3 2.182676 1_556
P10 Rb7 3.399193 1_555
P10 Rb13 3.449361 1_555
P10 Rb13 3.449361 1_455
P10 Rb3 3.522749 1_565
P10 Rb9 3.626062 1_555
P10 Rb9 3.626062 1_455
P10 Rb14 3.755560 1_556
P10 Rb14 3.755560 1_456
P10 Rb11 3.812119 1_555
P11 Si2 2.186545 1_554
P11 Rb17 3.423918 1_555
P11 Rb15 3.478452 1_555
P11 Rb15 3.478452 1_655
P11 Rb14 3.537547 1_545
P11 Rb16 3.614916 1_655
P11 Rb16 3.614916 1_555
P11 Rb3 3.754366 1_654
P11 Rb3 3.754366 1_554
P11 Rb1 3.761279 1_555
