# generated using pymatgen
data_Lu10Zn4SnBi
_symmetry_space_group_name_H-M   'P 1'
_cell_length_a   8.40987532
_cell_length_b   8.40987506
_cell_length_c   8.40987638
_cell_angle_alpha   124.45789106
_cell_angle_beta   124.45788762
_cell_angle_gamma   82.43789705
_symmetry_Int_Tables_number   1
_chemical_formula_structural   Lu10Zn4SnBi
_chemical_formula_sum   'Lu10 Zn4 Sn1 Bi1'
_cell_volume   388.52571237
_cell_formula_units_Z   1
loop_
 _symmetry_equiv_pos_site_id
 _symmetry_equiv_pos_as_xyz
  1  'x, y, z'
loop_
 _atom_site_type_symbol
 _atom_site_label
 _atom_site_symmetry_multiplicity
 _atom_site_fract_x
 _atom_site_fract_y
 _atom_site_fract_z
 _atom_site_occupancy
  Lu  Lu0  1  0.00439059  0.00439059  0.00000000  1
  Lu  Lu1  1  0.49560941  0.49560941  1.00000000  1
  Lu  Lu2  1  0.80036108  0.29465060  0.80898397  1
  Lu  Lu3  1  0.20534940  0.69963892  0.19101603  1
  Lu  Lu4  1  0.48566763  0.99137811  0.19101603  1
  Lu  Lu5  1  0.29465060  0.48566763  0.49428952  1
  Lu  Lu6  1  0.01433237  0.20534940  0.50571048  1
  Lu  Lu7  1  0.50862189  0.01433237  0.80898397  1
  Lu  Lu8  1  0.69963892  0.50862189  0.49428952  1
  Lu  Lu9  1  0.99137811  0.80036108  0.50571048  1
  Zn  Zn0  1  0.13593353  0.63593353  0.77186806  1
  Zn  Zn1  1  0.86406647  0.36406647  0.22813194  1
  Zn  Zn2  1  0.63593353  0.86406647  0.50000000  1
  Zn  Zn3  1  0.36406647  0.13593353  0.50000000  1
  Sn  Sn0  1  0.25000000  0.25000000  0.00000000  1
  Bi  Bi0  1  0.75000000  0.75000000  0.00000000  1
loop_
_geom_bond_atom_site_label_1
_geom_bond_atom_site_label_2
_geom_bond_distance
_geom_bond_site_symmetry_2
Lu0 Zn1 3.046083 1_455
Lu0 Zn0 3.046083 1_544
Lu0 Zn2 3.046086 1_444
Lu0 Zn3 3.046086 1_555
Lu0 Sn0 3.107393 1_555
Lu0 Lu2 3.420431 1_454
Lu0 Lu5 3.420435 1_555
Lu0 Lu9 3.420436 1_444
Lu0 Lu4 3.420437 1_545
Lu0 Lu3 3.528755 1_545
Lu0 Lu8 3.528759 1_444
Lu0 Lu6 3.528760 1_555
Lu0 Lu7 3.528761 1_454
Lu1 Zn0 3.046083 1_555
Lu1 Zn1 3.046083 1_556
Lu1 Zn2 3.046086 1_556
Lu1 Zn3 3.046086 1_555
Lu1 Sn0 3.107393 1_556
Lu1 Lu3 3.420431 1_556
Lu1 Lu6 3.420436 1_555
Lu1 Lu8 3.420436 1_556
Lu1 Lu7 3.420437 1_555
Lu1 Lu2 3.528755 1_555
Lu1 Lu9 3.528760 1_556
Lu1 Lu5 3.528760 1_555
Lu1 Lu4 3.528761 1_556
Lu2 Zn2 2.895014 1_545
Lu2 Zn3 2.927766 1_555
Lu2 Zn1 2.944482 1_556
Lu2 Sn0 3.233506 1_656
Lu2 Lu4 3.425109 1_545
Lu2 Lu3 3.436641 1_656
Lu2 Lu6 3.602421 1_655
Lu2 Lu8 3.662091 1_555
Lu3 Zn2 2.895014 1_555
Lu3 Zn3 2.927766 1_565
Lu3 Zn0 2.944482 1_554
Lu3 Sn0 3.233506 1_555
Lu3 Lu7 3.425109 1_565
Lu3 Lu5 3.602421 1_555
Lu3 Lu9 3.662091 1_455
Lu4 Zn3 2.895023 1_565
Lu4 Zn2 2.927774 1_555
Lu4 Zn0 2.944497 1_554
Lu4 Sn0 3.233501 1_565
Lu4 Lu7 3.436621 1_564
Lu4 Lu8 3.602411 1_565
Lu4 Lu6 3.662082 1_665
Lu5 Zn1 2.895014 1_455
Lu5 Zn0 2.927773 1_555
Lu5 Zn3 2.944498 1_555
Lu5 Sn0 3.233506 1_555
Lu5 Lu9 3.425098 1_455
Lu5 Lu8 3.436638 1_555
Lu5 Lu7 3.662081 1_565
Lu6 Zn0 2.895014 1_555
Lu6 Zn1 2.927773 1_455
Lu6 Zn3 2.944498 1_555
Lu6 Sn0 3.233506 1_556
Lu6 Lu8 3.425098 1_455
Lu6 Lu9 3.436638 1_445
Lu7 Zn3 2.895023 1_555
Lu7 Zn2 2.927774 1_545
Lu7 Zn1 2.944497 1_556
Lu7 Sn0 3.233501 1_556
Lu7 Lu9 3.602411 1_445
Lu8 Zn1 2.895022 1_555
Lu8 Zn0 2.927765 1_655
Lu8 Zn2 2.944498 1_555
Lu8 Sn0 3.233506 1_555
Lu9 Zn0 2.895022 1_655
Lu9 Zn1 2.927765 1_555
Lu9 Zn2 2.944498 1_555
Lu9 Sn0 3.233506 1_666
Zn0 Zn1 3.013162 1_455
Zn2 Zn3 3.013151 1_565
Bi0 Lu0 3.218490 1_665
Bi0 Lu1 3.218490 1_554
Bi0 Lu4 3.287287 1_555
Bi0 Lu7 3.287287 1_564
Bi0 Lu6 3.287292 1_665
Bi0 Lu5 3.287292 1_554
Bi0 Lu8 3.287292 1_554
Bi0 Lu9 3.287292 1_555
Bi0 Lu2 3.287292 1_554
Bi0 Lu3 3.287293 1_655
