# generated using pymatgen
data_BeV10B4Se
_symmetry_space_group_name_H-M   'P 1'
_cell_length_a   6.69899450
_cell_length_b   6.69899416
_cell_length_c   6.69899462
_cell_angle_alpha   129.38893427
_cell_angle_beta   129.38894936
_cell_angle_gamma   74.38555835
_symmetry_Int_Tables_number   1
_chemical_formula_structural   BeV10B4Se
_chemical_formula_sum   'Be1 V10 B4 Se1'
_cell_volume   175.02221299
_cell_formula_units_Z   1
loop_
 _symmetry_equiv_pos_site_id
 _symmetry_equiv_pos_as_xyz
  1  'x, y, z'
loop_
 _atom_site_type_symbol
 _atom_site_label
 _atom_site_symmetry_multiplicity
 _atom_site_fract_x
 _atom_site_fract_y
 _atom_site_fract_z
 _atom_site_occupancy
  Be  Be0  1  0.75000000  0.75000000  0.00000000  1
  V  V0  1  0.53646103  0.69737296  0.51045237  1
  V  V1  1  0.02600966  0.53646103  0.83908906  1
  V  V2  1  0.69737296  0.18691959  0.16091094  1
  V  V3  1  0.96353897  0.47399034  0.16091094  1
  V  V4  1  0.18691959  0.02600966  0.48954763  1
  V  V5  1  0.47399034  0.31308041  0.51045237  1
  V  V6  1  0.80262704  0.96353897  0.48954763  1
  V  V7  1  0.31308041  0.80262704  0.83908906  1
  V  V8  1  0.99813882  0.99813882  0.00000000  1
  V  V9  1  0.50186118  0.50186118  1.00000000  1
  B  B0  1  0.61539293  0.11539293  0.73078586  1
  B  B1  1  0.11539293  0.38460707  0.50000000  1
  B  B2  1  0.88460707  0.61539293  0.50000000  1
  B  B3  1  0.38460707  0.88460707  0.26921414  1
  Se  Se0  1  0.25000000  0.25000000  0.00000000  1
loop_
_geom_bond_atom_site_label_1
_geom_bond_atom_site_label_2
_geom_bond_distance
_geom_bond_site_symmetry_2
Be0 V7 2.403263 1_554
Be0 V2 2.403263 1_565
Be0 V4 2.403265 1_665
Be0 V5 2.403265 1_554
Be0 V0 2.403268 1_554
Be0 V6 2.403268 1_555
Be0 V3 2.403270 1_555
Be0 V1 2.403270 1_654
Be0 V8 2.648366 1_555
Be0 V9 2.648366 1_554
V0 V8 2.544696 1_556
V0 V9 2.633549 1_554
V0 V5 2.717076 1_555
V0 V4 2.747609 1_565
V0 V7 3.037477 1_555
V1 V8 2.544698 1_456
V1 V9 2.633545 1_555
V1 V3 2.717076 1_456
V1 V2 2.747609 1_455
V1 V5 3.037484 1_455
V2 V8 2.544692 1_545
V2 V9 2.633551 1_554
V2 V7 2.717075 1_544
V2 V6 3.037477 1_545
V3 V9 2.544698 1_554
V3 V8 2.633545 1_545
V3 V7 2.747609 1_655
V3 V4 3.037484 1_665
V4 V8 2.544694 1_445
V4 V9 2.633547 1_555
V4 V6 2.717076 1_445
V5 V9 2.544694 1_555
V5 V8 2.633547 1_445
V5 V6 2.747610 1_545
V6 V9 2.544696 1_554
V6 V8 2.633549 1_556
V7 V9 2.544692 1_555
V7 V8 2.633552 1_456
B0 B3 1.869150 1_545
B0 V0 2.204699 1_545
B0 V5 2.204704 1_555
B0 V6 2.240297 1_545
B0 V4 2.240302 1_555
B0 V3 2.283579 1_556
B0 V2 2.283580 1_556
B0 V8 2.299694 1_546
B0 V9 2.299694 1_555
B1 B2 1.869150 1_455
B1 V2 2.204700 1_455
B1 V7 2.204700 1_555
B1 V3 2.240298 1_455
B1 V1 2.240298 1_555
B1 V4 2.283577 1_555
B1 V5 2.283577 1_555
B1 V9 2.299694 1_555
B1 V8 2.299694 1_445
B2 V1 2.204704 1_655
B2 V3 2.204704 1_555
B2 V7 2.240301 1_655
B2 V2 2.240301 1_555
B2 V6 2.283583 1_555
B2 V0 2.283583 1_555
B2 V9 2.299694 1_554
B2 V8 2.299694 1_556
B3 V6 2.204699 1_555
B3 V4 2.204705 1_565
B3 V0 2.240297 1_555
B3 V5 2.240302 1_565
B3 V1 2.283579 1_554
B3 V7 2.283580 1_554
B3 V8 2.299694 1_455
B3 V9 2.299694 1_554
Se0 V1 2.473557 1_554
Se0 V3 2.473558 1_455
Se0 V5 2.473559 1_555
Se0 V4 2.473560 1_554
Se0 V6 2.473561 1_444
Se0 V0 2.473561 1_555
Se0 V2 2.473564 1_555
Se0 V7 2.473564 1_544
Se0 V9 2.688094 1_554
Se0 V8 2.688094 1_445
