# generated using pymatgen
data_CaIr4Pb3O14
_symmetry_space_group_name_H-M   'P 1'
_cell_length_a   7.25139247
_cell_length_b   7.25139201
_cell_length_c   7.25300149
_cell_angle_alpha   60.00733951
_cell_angle_beta   60.00734100
_cell_angle_gamma   59.99999880
_symmetry_Int_Tables_number   1
_chemical_formula_structural   CaIr4Pb3O14
_chemical_formula_sum   'Ca1 Ir4 Pb3 O14'
_cell_volume   269.70794195
_cell_formula_units_Z   1
loop_
 _symmetry_equiv_pos_site_id
 _symmetry_equiv_pos_as_xyz
  1  'x, y, z'
loop_
 _atom_site_type_symbol
 _atom_site_label
 _atom_site_symmetry_multiplicity
 _atom_site_fract_x
 _atom_site_fract_y
 _atom_site_fract_z
 _atom_site_occupancy
  Ca  Ca0  1  0.12500000  0.12500000  0.62500000  1
  Ir  Ir0  1  0.12500000  0.62500000  0.62500000  1
  Ir  Ir1  1  0.62500000  0.12500000  0.62500000  1
  Ir  Ir2  1  0.62500000  0.62500000  0.12500000  1
  Ir  Ir3  1  0.62500000  0.62500000  0.62500000  1
  Pb  Pb0  1  0.62500000  0.12500000  0.12500000  1
  Pb  Pb1  1  0.12500000  0.62500000  0.12500000  1
  Pb  Pb2  1  0.12500000  0.12500000  0.12500000  1
  O  O0  1  0.70631348  0.70631348  0.29265154  1
  O  O1  1  0.29684514  0.29684514  0.71157313  1
  O  O2  1  0.69473759  0.29684514  0.71157313  1
  O  O3  1  0.29472251  0.70631348  0.29265154  1
  O  O4  1  0.29684514  0.69473759  0.71157313  1
  O  O5  1  0.70631348  0.29472251  0.29265154  1
  O  O6  1  0.54368652  0.54368652  0.95734846  1
  O  O7  1  0.95315486  0.95315486  0.53842687  1
  O  O8  1  0.55526241  0.95315486  0.53842687  1
  O  O9  1  0.95527749  0.54368652  0.95734846  1
  O  O10  1  0.95315486  0.55526241  0.53842687  1
  O  O11  1  0.54368652  0.95527749  0.95734846  1
  O  O12  1  0.24936679  0.24936679  0.25190063  1
  O  O13  1  0.00063321  0.00063321  0.99809937  1
loop_
_geom_bond_atom_site_label_1
_geom_bond_atom_site_label_2
_geom_bond_distance
_geom_bond_site_symmetry_2
Ca0 O13 2.209759 1_555
Ca0 O12 2.209759 1_555
Ca0 O10 2.572397 1_455
Ca0 O4 2.572397 1_545
Ca0 O8 2.572397 1_545
Ca0 O2 2.572397 1_455
Ca0 O1 2.572403 1_555
Ca0 O7 2.572403 1_445
Ir0 O1 1.983101 1_555
Ir0 O7 1.983101 1_455
Ir0 O4 1.983106 1_555
Ir0 O10 1.983106 1_455
Ir0 O3 2.002900 1_555
Ir0 O9 2.002900 1_455
Ir1 O7 1.983101 1_545
Ir1 O1 1.983101 1_555
Ir1 O2 1.983106 1_555
Ir1 O8 1.983106 1_545
Ir1 O11 2.002900 1_545
Ir1 O5 2.002900 1_555
Ir2 O11 1.988778 1_554
Ir2 O5 1.988778 1_555
Ir2 O9 1.988778 1_554
Ir2 O3 1.988778 1_555
Ir2 O0 1.988784 1_555
Ir2 O6 1.988784 1_554
Ir3 O8 1.983099 1_555
Ir3 O2 1.983099 1_555
Ir3 O10 1.983100 1_555
Ir3 O4 1.983100 1_555
Ir3 O6 2.002899 1_555
Ir3 O0 2.002899 1_555
O0 Pb0 2.505918 1_565
O0 Pb1 2.505918 1_655
O0 O8 2.618914 1_555
O0 O10 2.618914 1_555
O0 O11 2.629280 1_554
O0 O9 2.629280 1_554
O1 Pb2 2.485643 1_556
O1 O11 2.618918 1_545
O1 O9 2.618918 1_455
O1 O8 2.721395 1_545
O1 O10 2.721395 1_455
O2 Pb0 2.485642 1_556
O2 O6 2.618914 1_555
O2 O7 2.721395 1_545
O3 Pb2 2.505919 1_565
O3 Pb1 2.505924 1_555
O3 O7 2.618918 1_455
O3 O6 2.629280 1_554
O4 Pb1 2.485642 1_556
O4 O6 2.618914 1_555
O4 O9 2.618926 1_455
O4 O8 2.721383 1_555
O4 O7 2.721395 1_455
O5 Pb2 2.505919 1_655
O5 Pb0 2.505924 1_555
O5 O7 2.618918 1_545
O5 O8 2.618926 1_545
O5 O9 2.629272 1_554
O5 O6 2.629280 1_554
O6 Pb0 2.505918 1_556
O6 Pb1 2.505918 1_556
O7 Pb2 2.485643 1_665
O8 Pb0 2.485642 1_565
O9 Pb2 2.505919 1_656
O9 Pb1 2.505924 1_656
O10 Pb1 2.485642 1_655
O10 O3 2.618926 1_655
O10 O2 2.721383 1_555
O11 Pb2 2.505919 1_566
O11 Pb0 2.505924 1_566
O11 O2 2.618926 1_565
O11 O3 2.629272 1_556
O12 Pb1 2.224135 1_555
O12 Pb0 2.224135 1_555
O12 Pb2 2.224141 1_555
O13 Pb1 2.224135 1_546
O13 Pb0 2.224135 1_456
O13 Pb2 2.224141 1_556
