# generated using pymatgen
data_K4InGa11Te20
_symmetry_space_group_name_H-M   'P 1'
_cell_length_a   10.78816013
_cell_length_b   10.75951096
_cell_length_c   10.81508988
_cell_angle_alpha   90.54582281
_cell_angle_beta   90.39926761
_cell_angle_gamma   89.95509236
_symmetry_Int_Tables_number   1
_chemical_formula_structural   K4InGa11Te20
_chemical_formula_sum   'K4 In1 Ga11 Te20'
_cell_volume   1255.27733066
_cell_formula_units_Z   1
loop_
 _symmetry_equiv_pos_site_id
 _symmetry_equiv_pos_as_xyz
  1  'x, y, z'
loop_
 _atom_site_type_symbol
 _atom_site_label
 _atom_site_symmetry_multiplicity
 _atom_site_fract_x
 _atom_site_fract_y
 _atom_site_fract_z
 _atom_site_occupancy
  K  K0  1  0.26087229  0.00210348  0.74072999  1
  K  K1  1  0.74210908  0.25552399  0.99780909  1
  K  K2  1  0.99903696  0.74034249  0.25481913  1
  K  K3  1  0.49857810  0.49891457  0.50124468  1
  In  In0  1  0.83779827  0.88833802  0.58139431  1
  Ga  Ga0  1  0.57738560  0.83106080  0.89422817  1
  Ga  Ga1  1  0.89180833  0.57977072  0.83877184  1
  Ga  Ga2  1  0.16815411  0.41987390  0.10903028  1
  Ga  Ga3  1  0.11188711  0.16866494  0.41732200  1
  Ga  Ga4  1  0.42079911  0.10923094  0.16787988  1
  Ga  Ga5  1  0.73503227  0.16353418  0.35088618  1
  Ga  Ga6  1  0.34894900  0.73772773  0.16186555  1
  Ga  Ga7  1  0.15980647  0.35182950  0.73669510  1
  Ga  Ga8  1  0.26268351  0.65003556  0.83987240  1
  Ga  Ga9  1  0.83851182  0.26642587  0.64751708  1
  Ga  Ga10  1  0.64811002  0.83587124  0.26150422  1
  Te  Te0  1  0.18727941  0.81350065  0.00030895  1
  Te  Te1  1  0.81001618  0.99878745  0.19122471  1
  Te  Te2  1  0.17550712  0.17470752  0.17282743  1
  Te  Te3  1  0.82477135  0.82429408  0.84091376  1
  Te  Te4  1  0.99971165  0.18770557  0.80792644  1
  Te  Te5  1  0.93882843  0.49554328  0.06333731  1
  Te  Te6  1  0.07703105  0.93807460  0.49071425  1
  Te  Te7  1  0.49950115  0.06003947  0.94090867  1
  Te  Te8  1  0.73694110  0.69667038  0.43549447  1
  Te  Te9  1  0.44510198  0.73794102  0.71050879  1
  Te  Te10  1  0.71065920  0.44946181  0.73937713  1
  Te  Te11  1  0.26143772  0.55519633  0.29061449  1
  Te  Te12  1  0.29036709  0.26520135  0.55408376  1
  Te  Te13  1  0.55384520  0.29364291  0.25872507  1
  Te  Te14  1  0.67153533  0.09208285  0.58028934  1
  Te  Te15  1  0.57683791  0.67540236  0.08164231  1
  Te  Te16  1  0.07952863  0.58278520  0.68146808  1
  Te  Te17  1  0.32074852  0.41941868  0.91750300  1
  Te  Te18  1  0.91849387  0.32168070  0.41851665  1
  Te  Te19  1  0.42033406  0.91861585  0.32204449  1
loop_
_geom_bond_atom_site_label_1
_geom_bond_atom_site_label_2
_geom_bond_distance
_geom_bond_site_symmetry_2
K0 Te7 3.406183 1_555
K0 Te6 3.407542 1_545
K0 Te9 3.481080 1_545
K0 Te12 3.508371 1_555
K0 Te4 3.527911 1_455
K0 Te0 3.573757 1_546
K1 Te7 3.407989 1_555
K1 Te5 3.410009 1_556
K1 Te13 3.508918 1_556
K1 Te10 3.518231 1_555
K1 Te4 3.538458 1_555
K1 Te1 3.553666 1_546
K2 Te5 3.395297 1_555
K2 Te6 3.407707 1_655
K2 Te11 3.481722 1_655
K2 Te8 3.482888 1_555
K2 Te1 3.517364 1_555
K2 Te0 3.527312 1_655
K3 Te8 3.421767 1_555
K3 Te12 3.427766 1_555
K3 Te9 3.460363 1_555
K3 Te13 3.467322 1_555
K3 Te11 3.470374 1_555
K3 Te10 3.477468 1_555
In0 Te8 2.800746 1_555
In0 Te6 2.820738 1_655
In0 Te14 2.831458 1_565
In0 Te3 2.900826 1_555
Ga0 Te9 2.629294 1_555
Ga0 Te15 2.641629 1_556
Ga0 Te7 2.647573 1_565
Ga0 Te3 2.735105 1_555
Ga1 Te10 2.624266 1_555
Ga1 Te5 2.645978 1_556
Ga1 Te16 2.654383 1_655
Ga1 Te3 2.727922 1_555
Ga2 Te11 2.628627 1_555
Ga2 Te5 2.648628 1_455
Ga2 Te17 2.654806 1_554
Ga2 Te2 2.733917 1_555
Ga3 Te12 2.628343 1_555
Ga3 Te6 2.640100 1_545
Ga3 Te18 2.656725 1_455
Ga3 Te2 2.737862 1_555
Ga4 Te13 2.628708 1_555
Ga4 Te7 2.651458 1_554
Ga4 Te19 2.655467 1_545
Ga4 Te2 2.738639 1_555
Ga5 Te1 2.595583 1_545
Ga5 Te13 2.601751 1_555
Ga5 Te14 2.697510 1_555
Ga5 Te18 2.703523 1_555
Ga6 Te0 2.596526 1_555
Ga6 Te11 2.600113 1_555
Ga6 Te15 2.694949 1_555
Ga6 Te19 2.702145 1_555
Ga7 Te4 2.596935 1_455
Ga7 Te12 2.598992 1_555
Ga7 Te17 2.700899 1_555
Ga7 Te16 2.701771 1_555
Ga8 Te0 2.593282 1_556
Ga8 Te9 2.606025 1_555
Ga8 Te17 2.698924 1_555
Ga8 Te16 2.700763 1_555
Ga9 Te4 2.595189 1_555
Ga9 Te10 2.597201 1_555
Ga9 Te14 2.693218 1_555
Ga9 Te18 2.700085 1_555
Ga10 Te8 2.593988 1_555
Ga10 Te1 2.598060 1_555
Ga10 Te19 2.695820 1_555
Ga10 Te15 2.696919 1_555
