# generated using pymatgen
data_In2B(PtRh2)2
_symmetry_space_group_name_H-M   'P 1'
_cell_length_a   5.72935499
_cell_length_b   5.72935459
_cell_length_c   5.69341223
_cell_angle_alpha   60.20729421
_cell_angle_beta   60.20729648
_cell_angle_gamma   59.77253922
_symmetry_Int_Tables_number   1
_chemical_formula_structural   In2B(PtRh2)2
_chemical_formula_sum   'In2 B1 Pt2 Rh4'
_cell_volume   132.33234062
_cell_formula_units_Z   1
loop_
 _symmetry_equiv_pos_site_id
 _symmetry_equiv_pos_as_xyz
  1  'x, y, z'
loop_
 _atom_site_type_symbol
 _atom_site_label
 _atom_site_symmetry_multiplicity
 _atom_site_fract_x
 _atom_site_fract_y
 _atom_site_fract_z
 _atom_site_occupancy
  In  In0  1  0.25006381  0.25006381  0.25072736  1
  In  In1  1  0.74993619  0.74993619  0.75085499  1
  B  B0  1  0.49999900  0.49999900  0.49122124  1
  Pt  Pt0  1  0.75763367  0.24236533  0.75876365  1
  Pt  Pt1  1  0.24236533  0.75763367  0.75876365  1
  Rh  Rh0  1  0.24159504  0.75840396  0.24321992  1
  Rh  Rh1  1  0.75469447  0.75469447  0.24691816  1
  Rh  Rh2  1  0.75840396  0.24159504  0.24321992  1
  Rh  Rh3  1  0.24530453  0.24530453  0.75630811  1
loop_
_geom_bond_atom_site_label_1
_geom_bond_atom_site_label_2
_geom_bond_distance
_geom_bond_site_symmetry_2
In0 Rh3 2.842293 1_554
In0 Rh3 2.851646 1_555
In0 Rh1 2.855076 1_455
In0 Rh1 2.855076 1_545
In0 Rh0 2.863284 1_545
In0 Rh2 2.863284 1_455
In0 Pt1 2.864164 1_554
In0 Pt0 2.864164 1_554
In0 Pt1 2.866572 1_545
In0 Pt0 2.866572 1_455
In0 Rh0 2.867522 1_555
In0 Rh2 2.867522 1_555
In1 Rh1 2.842293 1_555
In1 Rh1 2.851646 1_556
In1 Rh3 2.855076 1_655
In1 Rh3 2.855076 1_565
In1 Rh2 2.863278 1_565
In1 Rh0 2.863278 1_655
In1 Pt0 2.864170 1_555
In1 Pt1 2.864170 1_555
In1 Pt0 2.866566 1_565
In1 Pt1 2.866567 1_655
In1 Rh2 2.867527 1_556
In1 Rh0 2.867527 1_556
B0 Rh0 2.042171 1_555
B0 Rh2 2.042171 1_555
B0 Rh3 2.074486 1_555
B0 Rh1 2.074494 1_555
B0 Pt1 2.117564 1_555
B0 Pt0 2.117564 1_555
Pt0 Rh2 2.758213 1_556
Pt0 Pt1 2.767646 1_645
Pt0 Rh1 2.795614 1_546
Pt0 Rh3 2.795614 1_655
Pt1 Rh0 2.758213 1_556
Pt1 Rh1 2.795614 1_456
Pt1 Rh3 2.795614 1_565
Rh0 Rh2 2.758850 1_465
Rh0 Rh3 2.789944 1_564
Rh0 Rh1 2.789945 1_455
Rh1 Rh2 2.789944 1_565
Rh2 Rh3 2.789944 1_654
