# generated using pymatgen
data_Lu12CdInTc3
_symmetry_space_group_name_H-M   'P 1'
_cell_length_a   8.23288881
_cell_length_b   8.23288972
_cell_length_c   8.23288917
_cell_angle_alpha   108.04183305
_cell_angle_beta   109.98330546
_cell_angle_gamma   110.39818655
_symmetry_Int_Tables_number   1
_chemical_formula_structural   Lu12CdInTc3
_chemical_formula_sum   'Lu12 Cd1 In1 Tc3'
_cell_volume   429.36528277
_cell_formula_units_Z   1
loop_
 _symmetry_equiv_pos_site_id
 _symmetry_equiv_pos_as_xyz
  1  'x, y, z'
loop_
 _atom_site_type_symbol
 _atom_site_label
 _atom_site_symmetry_multiplicity
 _atom_site_fract_x
 _atom_site_fract_y
 _atom_site_fract_z
 _atom_site_occupancy
  Lu  Lu0  1  0.30515661  0.30590680  0.61106441  1
  Lu  Lu1  1  0.69484339  0.69409320  0.38893559  1
  Lu  Lu2  1  0.69484339  0.30590680  0.00075118  1
  Lu  Lu3  1  0.30515661  0.69409320  0.99924882  1
  Lu  Lu4  1  0.18867334  0.42642647  0.23775313  1
  Lu  Lu5  1  0.81132666  0.57357353  0.76224687  1
  Lu  Lu6  1  0.18867334  0.95091921  0.76224687  1
  Lu  Lu7  1  0.94715790  0.19016748  0.75699043  1
  Lu  Lu8  1  0.81132666  0.04908079  0.23775313  1
  Lu  Lu9  1  0.05284210  0.80983252  0.24300957  1
  Lu  Lu10  1  0.43317705  0.19016748  0.24300957  1
  Lu  Lu11  1  0.56682295  0.80983252  0.75699043  1
  Cd  Cd0  1  0.50000000  0.00000000  0.50000000  1
  In  In0  1  0.00000000  0.50000000  0.50000000  1
  Tc  Tc0  1  0.37224510  0.37224510  0.00000000  1
  Tc  Tc1  1  0.62775490  0.62775490  1.00000000  1
  Tc  Tc2  1  0.00000000  0.00000000  0.00000000  1
loop_
_geom_bond_atom_site_label_1
_geom_bond_atom_site_label_2
_geom_bond_distance
_geom_bond_site_symmetry_2
Lu0 Tc0 2.890363 1_556
Lu0 Tc1 2.890367 1_555
Lu0 Lu8 3.447876 1_455
Lu0 Lu4 3.447881 1_555
Lu0 Lu6 3.482188 1_545
Lu0 Lu5 3.482189 1_555
Lu0 Lu7 3.494257 1_455
Lu0 Lu11 3.494265 1_555
Lu0 Lu9 3.506439 1_545
Lu0 Lu10 3.506444 1_555
Lu0 Lu2 3.681117 1_556
Lu1 Tc1 2.890363 1_554
Lu1 Tc0 2.890367 1_555
Lu1 Lu6 3.447876 1_655
Lu1 Lu5 3.447881 1_555
Lu1 Lu8 3.482188 1_565
Lu1 Lu4 3.482189 1_555
Lu1 Lu9 3.494257 1_655
Lu1 Lu10 3.494265 1_555
Lu1 Lu7 3.506439 1_565
Lu1 Lu11 3.506444 1_555
Lu1 Lu3 3.681117 1_554
Lu2 Tc0 2.890369 1_555
Lu2 Tc1 2.890373 1_554
Lu2 Lu8 3.447861 1_555
Lu2 Lu4 3.447873 1_655
Lu2 Lu6 3.482188 1_544
Lu2 Lu5 3.482194 1_554
Lu2 Lu9 3.494264 1_655
Lu2 Lu7 3.506442 1_554
Lu3 Tc1 2.890369 1_555
Lu3 Tc0 2.890373 1_556
Lu3 Lu6 3.447861 1_555
Lu3 Lu5 3.447873 1_455
Lu3 Lu8 3.482188 1_566
Lu3 Lu4 3.482194 1_556
Lu3 Lu7 3.494264 1_455
Lu3 Lu9 3.506442 1_556
Lu4 Tc0 2.874984 1_555
Lu4 Tc2 2.904005 1_555
Lu4 Lu7 3.249507 1_454
Lu4 Lu8 3.546095 1_455
Lu4 Lu9 3.691244 1_555
Lu5 Tc1 2.874984 1_555
Lu5 Tc2 2.904005 1_666
Lu5 Lu9 3.249507 1_656
Lu5 Lu6 3.546095 1_655
Lu5 Lu7 3.691244 1_555
Lu6 Tc0 2.874991 1_566
Lu6 Tc2 2.904006 1_566
Lu6 Lu7 3.249514 1_465
Lu6 Lu9 3.691245 1_555
Lu7 Tc0 2.863095 1_656
Lu7 Tc2 2.909168 1_656
Lu7 Lu8 3.691245 1_555
Lu8 Tc1 2.874991 1_544
Lu8 Tc2 2.904006 1_655
Lu8 Lu9 3.249514 1_645
Lu9 Tc1 2.863095 1_454
Lu9 Tc2 2.909168 1_565
Lu10 Tc0 2.863095 1_555
Lu10 Tc2 2.909167 1_555
Lu10 Lu4 3.249507 1_555
Lu10 Lu6 3.249508 1_544
Lu10 Lu2 3.494256 1_555
Lu10 Lu3 3.506438 1_544
Lu10 Lu9 3.574181 1_545
Lu10 Lu8 3.691239 1_555
Lu10 Lu5 3.691244 1_555
Lu11 Tc1 2.863095 1_555
Lu11 Tc2 2.909167 1_666
Lu11 Lu5 3.249507 1_555
Lu11 Lu8 3.249508 1_566
Lu11 Lu3 3.494256 1_555
Lu11 Lu2 3.506438 1_566
Lu11 Lu7 3.574181 1_565
Lu11 Lu6 3.691239 1_555
Lu11 Lu4 3.691244 1_555
Cd0 Lu7 3.014471 1_555
Cd0 Lu9 3.014471 1_545
Cd0 Lu10 3.014471 1_555
Cd0 Lu11 3.014471 1_545
Cd0 Lu0 3.484886 1_555
Cd0 Lu1 3.484886 1_545
Cd0 Lu2 3.484891 1_556
Cd0 Lu3 3.484891 1_544
Cd0 Lu5 3.872358 1_555
Cd0 Lu4 3.872358 1_545
Cd0 Lu8 3.872358 1_555
Cd0 Lu6 3.872358 1_545
In0 Lu6 3.095031 1_555
In0 Lu8 3.095031 1_455
In0 Lu5 3.095038 1_455
In0 Lu4 3.095038 1_555
In0 Lu3 3.440152 1_555
In0 Lu2 3.440152 1_455
In0 Lu1 3.440160 1_455
In0 Lu0 3.440160 1_555
In0 Lu11 3.790907 1_555
In0 Lu10 3.790907 1_455
In0 Lu9 3.790907 1_555
In0 Lu7 3.790907 1_455
Tc0 Tc1 2.401142 1_554
