# generated using pymatgen
data_Zr6Zn21Cu2Si
_symmetry_space_group_name_H-M   'P 1'
_cell_length_a   8.64035144
_cell_length_b   8.67860437
_cell_length_c   8.64035147
_cell_angle_alpha   59.85343962
_cell_angle_beta   59.98575767
_cell_angle_gamma   59.85342893
_symmetry_Int_Tables_number   1
_chemical_formula_structural   Zr6Zn21Cu2Si
_chemical_formula_sum   'Zr6 Zn21 Cu2 Si1'
_cell_volume   457.07290692
_cell_formula_units_Z   1
loop_
 _symmetry_equiv_pos_site_id
 _symmetry_equiv_pos_as_xyz
  1  'x, y, z'
loop_
 _atom_site_type_symbol
 _atom_site_label
 _atom_site_symmetry_multiplicity
 _atom_site_fract_x
 _atom_site_fract_y
 _atom_site_fract_z
 _atom_site_occupancy
  Zr  Zr0  1  0.71117129  0.29001562  0.28882871  1
  Zr  Zr1  1  0.28882871  0.70998438  0.71117129  1
  Zr  Zr2  1  0.28784351  0.71215649  0.28784351  1
  Zr  Zr3  1  0.71215649  0.28784351  0.71215649  1
  Zr  Zr4  1  0.28882871  0.29001562  0.71117129  1
  Zr  Zr5  1  0.71117129  0.70998438  0.28882871  1
  Zn  Zn0  1  0.12190164  0.12117512  0.12190164  1
  Zn  Zn1  1  0.87809836  0.87882488  0.87809836  1
  Zn  Zn2  1  0.12901747  0.11863539  0.63371375  1
  Zn  Zn3  1  0.12190164  0.63502261  0.12190164  1
  Zn  Zn4  1  0.87098253  0.88136461  0.36628625  1
  Zn  Zn5  1  0.87809836  0.36497739  0.87809836  1
  Zn  Zn6  1  0.63371375  0.11863539  0.12901747  1
  Zn  Zn7  1  0.36628625  0.88136461  0.87098253  1
  Zn  Zn8  1  0.50000000  0.00000000  0.00000000  1
  Zn  Zn9  1  0.00000000  0.50000000  0.50000000  1
  Zn  Zn10  1  0.00000000  0.50000000  0.00000000  1
  Zn  Zn11  1  0.00000000  0.00000000  0.50000000  1
  Zn  Zn12  1  0.50000000  0.50000000  0.00000000  1
  Zn  Zn13  1  0.33666250  0.32972614  0.33666250  1
  Zn  Zn14  1  0.66333750  0.67027386  0.66333750  1
  Zn  Zn15  1  0.33435099  0.33281024  0.00003053  1
  Zn  Zn16  1  0.33666250  0.99694985  0.33666250  1
  Zn  Zn17  1  0.66564901  0.66718976  0.99996947  1
  Zn  Zn18  1  0.66333750  0.00305015  0.66333750  1
  Zn  Zn19  1  0.00003053  0.33281024  0.33435099  1
  Zn  Zn20  1  0.99996947  0.66718976  0.66564901  1
  Cu  Cu0  1  0.50000000  0.00000000  0.50000000  1
  Cu  Cu1  1  0.00000000  0.00000000  0.00000000  1
  Si  Si0  1  0.50000000  0.50000000  0.50000000  1
loop_
_geom_bond_atom_site_label_1
_geom_bond_atom_site_label_2
_geom_bond_distance
_geom_bond_site_symmetry_2
Zn0 Zn8 2.665955 1_555
Zn0 Zn11 2.665955 1_555
Zn0 Zn10 2.679761 1_555
Zn0 Zn19 2.713280 1_555
Zn0 Zn15 2.713280 1_555
Zn0 Zn16 2.734019 1_545
Zn0 Zr2 2.923090 1_545
Zn0 Zr0 2.932676 1_455
Zn0 Zr4 2.932677 1_554
Zn0 Zn5 2.972810 1_454
Zn0 Zn7 3.004774 1_544
Zn0 Zn4 3.004774 1_445
Zn1 Zn8 2.665955 1_566
Zn1 Zn11 2.665955 1_665
Zn1 Zn10 2.679761 1_656
Zn1 Zn20 2.713280 1_555
Zn1 Zn17 2.713280 1_555
Zn1 Zn18 2.734019 1_565
Zn1 Zr3 2.923090 1_565
Zn1 Zr1 2.932676 1_655
Zn1 Zr5 2.932677 1_556
Zn1 Zn3 2.972810 1_656
Zn1 Zn6 3.004774 1_566
Zn1 Zn2 3.004774 1_665
Zn2 Zn9 2.696949 1_555
Zn2 Zn7 2.893132 1_545
Zn2 Zr4 2.924719 1_555
Zn2 Zr1 2.924733 1_545
Zn2 Zr3 2.972164 1_455
Zn2 Zn5 3.004755 1_455
Zn3 Zn9 2.665955 1_555
Zn3 Zr2 2.923084 1_555
Zn3 Zr5 2.932678 1_455
Zn3 Zr1 2.932678 1_554
Zn3 Zn4 3.004755 1_455
Zn3 Zn7 3.004756 1_554
Zn4 Zn9 2.696949 1_655
Zn4 Zn6 2.893132 1_565
Zn4 Zr5 2.924719 1_555
Zn4 Zr0 2.924733 1_565
Zn4 Zr2 2.972164 1_655
Zn5 Zn9 2.665955 1_655
Zn5 Zr3 2.923084 1_555
Zn5 Zr4 2.932678 1_655
Zn5 Zr0 2.932678 1_556
Zn5 Zn6 3.004756 1_556
Zn6 Zn8 2.696963 1_555
Zn6 Zr0 2.924718 1_555
Zn6 Zr5 2.924733 1_545
Zn6 Zr3 2.972165 1_554
Zn7 Zn8 2.696963 1_566
Zn7 Zr1 2.924718 1_555
Zn7 Zr4 2.924733 1_565
Zn7 Zr2 2.972165 1_556
Zn8 Zr5 3.086369 1_545
Zn8 Zr4 3.086369 1_554
Zn8 Zr3 3.095850 1_554
Zn8 Zr2 3.095850 1_545
Zn9 Zr4 3.086369 1_555
Zn9 Zr5 3.086369 1_455
Zn9 Zr2 3.095850 1_555
Zn9 Zr3 3.095850 1_455
Zn10 Zn17 2.498242 1_454
Zn10 Zn15 2.498242 1_555
Zn10 Zn19 2.498242 1_555
Zn10 Zn20 2.498242 1_454
Zn10 Zn3 2.679768 1_555
Zn10 Zn5 2.679768 1_454
Zn10 Zr5 3.089706 1_455
Zn10 Zr4 3.089706 1_554
Zn10 Zr1 3.089706 1_554
Zn10 Zr0 3.089706 1_455
Zn11 Zn19 2.497816 1_555
Zn11 Zn20 2.497816 1_445
Zn11 Zn16 2.511409 1_545
Zn11 Zn18 2.511409 1_455
Zn11 Zn2 2.696963 1_555
Zn11 Zn4 2.696963 1_445
Zn11 Zr1 3.086368 1_545
Zn11 Zr0 3.086368 1_455
Zn11 Zr3 3.095850 1_455
Zn11 Zr2 3.095850 1_545
Zn12 Zn17 2.497801 1_554
Zn12 Zn15 2.497801 1_555
Zn12 Zn13 2.511406 1_555
Zn12 Zn14 2.511406 1_554
Zn12 Zn3 2.665955 1_555
Zn12 Zn5 2.665955 1_554
Zn12 Zn7 2.696949 1_554
Zn12 Zn6 2.696949 1_555
Zn12 Zr0 3.086369 1_555
Zn12 Zr1 3.086369 1_554
Zn12 Zr2 3.095850 1_555
Zn12 Zr3 3.095850 1_554
Zn13 Zn9 2.511406 1_555
Zn13 Zn6 2.671008 1_555
Zn13 Zn2 2.671009 1_555
Zn13 Zn3 2.734018 1_555
Zn13 Zn16 2.888034 1_545
Zn13 Zn19 2.905264 1_555
Zn13 Zn15 2.905264 1_555
Zn13 Zr0 2.906119 1_555
Zn13 Zr4 2.906119 1_555
Zn13 Zr2 2.955842 1_555
Zn14 Zn9 2.511406 1_655
Zn14 Zn7 2.671008 1_555
Zn14 Zn4 2.671009 1_555
Zn14 Zn5 2.734018 1_555
Zn14 Zn18 2.888034 1_565
Zn14 Zn20 2.905264 1_555
Zn14 Zn17 2.905264 1_555
Zn14 Zr1 2.906119 1_555
Zn14 Zr5 2.906119 1_555
Zn14 Zr3 2.955842 1_555
Zn15 Zn8 2.497815 1_555
Zn15 Zn6 2.713239 1_555
Zn15 Zn3 2.713273 1_555
Zn15 Zn19 2.888024 1_555
Zn15 Zn16 2.905269 1_545
Zn15 Zr3 2.927044 1_554
Zn15 Zr1 2.929457 1_554
Zn15 Zr4 2.929468 1_554
Zn16 Zn8 2.511409 1_565
Zn16 Zn2 2.671013 1_565
Zn16 Zn6 2.671013 1_565
Zn16 Zn19 2.905268 1_565
Zn16 Zr5 2.906121 1_555
Zn16 Zr1 2.906122 1_555
Zn16 Zr2 2.955851 1_555
Zn17 Zn8 2.497815 1_566
Zn17 Zn7 2.713239 1_555
Zn17 Zn5 2.713273 1_555
Zn17 Zn20 2.888024 1_555
Zn17 Zn18 2.905269 1_565
Zn17 Zr2 2.927044 1_556
Zn17 Zr0 2.929457 1_556
Zn17 Zr5 2.929468 1_556
Zn18 Zn8 2.511409 1_556
Zn18 Zn4 2.671013 1_545
Zn18 Zn7 2.671013 1_545
Zn18 Zn20 2.905268 1_545
Zn18 Zr4 2.906121 1_555
Zn18 Zr0 2.906122 1_555
Zn18 Zr3 2.955851 1_555
Zn19 Zn9 2.497801 1_555
Zn19 Zn2 2.713239 1_555
Zn19 Zn3 2.713273 1_555
Zn19 Zr3 2.927044 1_455
Zn19 Zr5 2.929456 1_455
Zn19 Zr0 2.929468 1_455
Zn20 Zn9 2.497801 1_655
Zn20 Zn4 2.713239 1_555
Zn20 Zn5 2.713273 1_555
Zn20 Zr2 2.927044 1_655
Zn20 Zr4 2.929456 1_655
Zn20 Zr1 2.929468 1_655
Cu0 Zn18 2.460051 1_555
Cu0 Zn16 2.460051 1_545
Cu0 Zn13 2.460056 1_555
Cu0 Zn14 2.460056 1_545
Cu0 Zn4 2.616209 1_545
Cu0 Zn2 2.616209 1_555
Cu0 Zn7 2.616209 1_545
Cu0 Zn6 2.616209 1_555
Cu0 Zr4 3.108480 1_555
Cu0 Zr5 3.108480 1_545
Cu0 Zr0 3.108481 1_555
Cu0 Zr1 3.108481 1_545
Cu1 Zn5 2.580627 1_454
Cu1 Zn3 2.580627 1_545
Cu1 Zn0 2.580634 1_555
Cu1 Zn1 2.580634 1_444
Cu1 Zn7 2.582503 1_544
Cu1 Zn6 2.582503 1_455
Cu1 Zn4 2.582503 1_445
Cu1 Zn2 2.582503 1_554
Si0 Zr1 2.578516 1_555
Si0 Zr0 2.578516 1_555
Si0 Zr5 2.578517 1_555
Si0 Zr4 2.578517 1_555
Si0 Zr3 2.586926 1_555
Si0 Zr2 2.586926 1_555
