# generated using pymatgen
data_Na2S2O7
_symmetry_space_group_name_H-M   'P 1'
_cell_length_a   6.71922703
_cell_length_b   6.76965335
_cell_length_c   6.80806680
_cell_angle_alpha   83.71513397
_cell_angle_beta   63.18790110
_cell_angle_gamma   83.45698444
_symmetry_Int_Tables_number   1
_chemical_formula_structural   Na2S2O7
_chemical_formula_sum   'Na4 S4 O14'
_cell_volume   273.99442223
_cell_formula_units_Z   2
loop_
 _symmetry_equiv_pos_site_id
 _symmetry_equiv_pos_as_xyz
  1  'x, y, z'
loop_
 _atom_site_type_symbol
 _atom_site_label
 _atom_site_symmetry_multiplicity
 _atom_site_fract_x
 _atom_site_fract_y
 _atom_site_fract_z
 _atom_site_occupancy
  Na  Na0  1  0.77369445  0.86345535  0.17589806  1
  Na  Na1  1  0.22630555  0.13654465  0.82410194  1
  Na  Na2  1  0.38276609  0.33445954  0.24298953  1
  Na  Na3  1  0.61723391  0.66554046  0.75701047  1
  S  S0  1  0.26801153  0.84127308  0.25073672  1
  S  S1  1  0.73198847  0.15872692  0.74926328  1
  S  S2  1  0.14140832  0.63905089  0.68818361  1
  S  S3  1  0.85859168  0.36094911  0.31181639  1
  O  O0  1  0.23707849  0.44494764  0.60782210  1
  O  O1  1  0.76292151  0.55505236  0.39217790  1
  O  O2  1  0.70892080  0.24213637  0.28579411  1
  O  O3  1  0.29107920  0.75786363  0.71420589  1
  O  O4  1  0.91719892  0.64090157  0.86385514  1
  O  O5  1  0.08280108  0.35909843  0.13614486  1
  O  O6  1  0.08525973  0.76029562  0.49024853  1
  O  O7  1  0.91474027  0.23970438  0.50975147  1
  O  O8  1  0.38367919  0.99061424  0.28710417  1
  O  O9  1  0.61632081  0.00938576  0.71289583  1
  O  O10  1  0.58174781  0.32853368  0.85017567  1
  O  O11  1  0.41825219  0.67146632  0.14982433  1
  O  O12  1  0.87557918  0.08231161  0.84967163  1
  O  O13  1  0.12442082  0.91768839  0.15032837  1
loop_
_geom_bond_atom_site_label_1
_geom_bond_atom_site_label_2
_geom_bond_distance
_geom_bond_site_symmetry_2
Na0 O13 2.351978 1_655
Na0 O12 2.394894 1_564
Na0 O1 2.407778 1_555
Na0 O8 2.453664 1_555
Na0 O4 2.496893 1_554
Na0 O2 2.681945 1_565
Na0 O11 2.926615 1_555
Na1 O12 2.351978 1_455
Na1 O13 2.394894 1_546
Na1 O0 2.407778 1_555
Na1 O9 2.453664 1_555
Na1 O5 2.496893 1_556
Na1 O3 2.681945 1_545
Na1 O10 2.926615 1_555
Na2 O11 2.309707 1_555
Na2 O8 2.313835 1_545
Na2 O2 2.345711 1_555
Na2 O10 2.393059 1_554
Na2 O0 2.394458 1_555
Na2 O5 2.416352 1_555
Na2 O7 2.941376 1_455
Na3 O10 2.309707 1_555
Na3 O9 2.313835 1_565
Na3 O3 2.345711 1_555
Na3 O11 2.393059 1_556
Na3 O1 2.394458 1_555
Na3 O4 2.416352 1_555
Na3 O6 2.941376 1_655
O0 S2 1.444577 1_555
O1 S3 1.444577 1_555
O2 S3 1.437347 1_555
O3 S2 1.437347 1_555
O4 S2 1.440023 1_655
O5 S3 1.440023 1_455
O6 S0 1.618215 1_555
O6 S2 1.666685 1_555
O7 S1 1.618215 1_555
O7 S3 1.666685 1_555
O8 S0 1.447377 1_555
O9 S1 1.447377 1_555
O10 S1 1.447511 1_555
O11 S0 1.447511 1_555
O12 S1 1.438607 1_555
O13 S0 1.438607 1_555
