# generated using pymatgen
data_K3Ga(IO3)6
_symmetry_space_group_name_H-M   'P 1'
_cell_length_a   6.81636608
_cell_length_b   6.99104225
_cell_length_c   10.46892063
_cell_angle_alpha   97.46599879
_cell_angle_beta   109.34782886
_cell_angle_gamma   102.51894655
_symmetry_Int_Tables_number   1
_chemical_formula_structural   K3Ga(IO3)6
_chemical_formula_sum   'K3 Ga1 I6 O18'
_cell_volume   448.35654183
_cell_formula_units_Z   1
loop_
 _symmetry_equiv_pos_site_id
 _symmetry_equiv_pos_as_xyz
  1  'x, y, z'
loop_
 _atom_site_type_symbol
 _atom_site_label
 _atom_site_symmetry_multiplicity
 _atom_site_fract_x
 _atom_site_fract_y
 _atom_site_fract_z
 _atom_site_occupancy
  K  K0  1  0.37751406  0.54538539  0.29450172  1
  K  K1  1  0.62248594  0.45461461  0.70549828  1
  K  K2  1  0.00000000  0.50000000  0.50000000  1
  Ga  Ga0  1  0.00000000  0.00000000  0.00000000  1
  I  I0  1  0.55796516  0.03943258  0.19272420  1
  I  I1  1  0.44203484  0.96056742  0.80727580  1
  I  I2  1  0.78776637  0.54015354  0.09952786  1
  I  I3  1  0.21223363  0.45984646  0.90047214  1
  I  I4  1  0.13770979  0.05305573  0.37292345  1
  I  I5  1  0.86229021  0.94694427  0.62707655  1
  O  O0  1  0.58510485  0.65783833  0.12002816  1
  O  O1  1  0.41489515  0.34216167  0.87997184  1
  O  O2  1  0.00068059  0.35153460  0.73216948  1
  O  O3  1  0.99931941  0.64846540  0.26783052  1
  O  O4  1  0.61412170  0.31044015  0.23452402  1
  O  O5  1  0.38587830  0.68955985  0.76547598  1
  O  O6  1  0.04644708  0.09998557  0.19620824  1
  O  O7  1  0.95355292  0.90001443  0.80379176  1
  O  O8  1  0.29595127  0.97238059  0.04105144  1
  O  O9  1  0.70404873  0.02761941  0.95894856  1
  O  O10  1  0.29427365  0.30546947  0.46069810  1
  O  O11  1  0.70572635  0.69453053  0.53930190  1
  O  O12  1  0.88378950  0.07497858  0.39299575  1
  O  O13  1  0.11621050  0.92502142  0.60700425  1
  O  O14  1  0.55562185  0.02910543  0.68051737  1
  O  O15  1  0.44437815  0.97089457  0.31948263  1
  O  O16  1  0.10341660  0.30193186  0.00333023  1
  O  O17  1  0.89658340  0.69806814  0.99666977  1
loop_
_geom_bond_atom_site_label_1
_geom_bond_atom_site_label_2
_geom_bond_distance
_geom_bond_site_symmetry_2
K0 O11 2.674968 1_555
K0 O10 2.676253 1_555
K0 O4 2.691591 1_555
K0 O0 2.749559 1_555
K0 O3 2.761094 1_455
K0 O15 2.873386 1_555
K0 O16 3.029662 1_555
K0 O6 3.229487 1_555
K1 O10 2.674968 1_555
K1 O11 2.676253 1_555
K1 O5 2.691591 1_555
K1 O1 2.749559 1_555
K1 O2 2.761094 1_655
K1 O14 2.873386 1_555
K1 O17 3.029662 1_555
K1 O7 3.229487 1_555
K2 O11 2.761598 1_455
K2 O10 2.761598 1_555
K2 O3 2.763182 1_455
K2 O2 2.763182 1_555
K2 O13 2.870170 1_555
K2 O12 2.870170 1_455
K2 O5 3.014425 1_555
K2 O4 3.014425 1_455
Ga0 O8 1.976741 1_545
Ga0 O9 1.976741 1_454
Ga0 O6 1.976901 1_555
Ga0 O7 1.976901 1_444
Ga0 O16 2.067174 1_555
Ga0 O17 2.067174 1_444
I0 O15 1.809764 1_545
I0 O4 1.812944 1_555
I0 O8 1.869572 1_545
I0 O12 2.435178 1_555
I1 O14 1.809764 1_565
I1 O5 1.812944 1_555
I1 O9 1.869572 1_565
I1 O13 2.435178 1_555
I2 O3 1.803786 1_555
I2 O0 1.809571 1_555
I2 O17 1.847067 1_554
I3 O2 1.803786 1_555
I3 O1 1.809571 1_555
I3 O16 1.847067 1_556
I4 O10 1.791545 1_555
I4 O6 1.844138 1_555
I4 O12 1.846886 1_455
I4 O15 2.494890 1_545
I5 O11 1.791545 1_555
I5 O7 1.844138 1_555
I5 O13 1.846886 1_655
I5 O14 2.494890 1_565
