# generated using pymatgen
data_Na2SrCdSb2
_symmetry_space_group_name_H-M   'P 1'
_cell_length_a   4.79292050
_cell_length_b   8.10556209
_cell_length_c   9.14135055
_cell_angle_alpha   90.00000000
_cell_angle_beta   90.00000000
_cell_angle_gamma   90.00000000
_symmetry_Int_Tables_number   1
_chemical_formula_structural   Na2SrCdSb2
_chemical_formula_sum   'Na4 Sr2 Cd2 Sb4'
_cell_volume   355.13520486
_cell_formula_units_Z   2
loop_
 _symmetry_equiv_pos_site_id
 _symmetry_equiv_pos_as_xyz
  1  'x, y, z'
loop_
 _atom_site_type_symbol
 _atom_site_label
 _atom_site_symmetry_multiplicity
 _atom_site_fract_x
 _atom_site_fract_y
 _atom_site_fract_z
 _atom_site_occupancy
  Na  Na0  1  0.50000000  0.03196477  0.41889949  1
  Na  Na1  1  0.00000000  0.35933021  0.33312251  1
  Na  Na2  1  0.50000000  0.53196477  0.58110051  1
  Na  Na3  1  0.00000000  0.85933021  0.66687749  1
  Sr  Sr0  1  0.00000000  0.98978685  0.05807570  1
  Sr  Sr1  1  0.00000000  0.48978685  0.94192430  1
  Cd  Cd0  1  0.50000000  0.14673161  0.81145083  1
  Cd  Cd1  1  0.50000000  0.64673161  0.18854917  1
  Sb  Sb0  1  0.00000000  0.24254955  0.65422095  1
  Sb  Sb1  1  0.50000000  0.27523701  0.12517060  1
  Sb  Sb2  1  0.00000000  0.74254955  0.34577905  1
  Sb  Sb3  1  0.50000000  0.77523701  0.87482940  1
loop_
_geom_bond_atom_site_label_1
_geom_bond_atom_site_label_2
_geom_bond_distance
_geom_bond_site_symmetry_2
Na0 Sb1 3.331347 1_555
Na0 Sb2 3.419492 1_545
Na0 Sb2 3.419492 1_645
Na0 Na3 3.583251 1_545
Na0 Na3 3.583251 1_645
Na0 Sb0 3.644726 1_555
Na0 Sb0 3.644726 1_655
Na0 Na1 3.660440 1_555
Na0 Na1 3.660440 1_655
Na0 Sr0 4.091388 1_545
Na0 Sr0 4.091388 1_645
Na1 Sb0 3.084126 1_555
Na1 Sb2 3.108362 1_555
Na1 Sb1 3.133893 1_455
Na1 Sb1 3.133893 1_555
Na1 Na2 3.583251 1_455
Na1 Na2 3.583251 1_555
Na1 Sr1 3.729141 1_554
Na1 Sr0 3.910737 1_545
Na2 Sb3 3.331347 1_555
Na2 Sb0 3.419492 1_555
Na2 Sb0 3.419492 1_655
Na2 Sb2 3.644726 1_555
Na2 Sb2 3.644726 1_655
Na2 Na3 3.660440 1_655
Na2 Na3 3.660440 1_555
Na2 Sr1 4.091388 1_555
Na2 Sr1 4.091388 1_655
Na3 Sb2 3.084126 1_555
Na3 Sb0 3.108362 1_565
Na3 Sb3 3.133893 1_555
Na3 Sb3 3.133893 1_455
Na3 Sr0 3.729141 1_556
Na3 Sr1 3.910737 1_555
Cd0 Sb0 2.900350 1_655
Cd0 Sb0 2.900350 1_555
Cd0 Sb1 3.051123 1_556
Cd0 Sb3 3.066403 1_545
Cd0 Sr0 3.527609 1_646
Cd0 Sr0 3.527609 1_546
Cd0 Na3 3.593945 1_645
Cd0 Na3 3.593945 1_545
Cd0 Na0 3.707065 1_555
Cd0 Na2 3.766196 1_555
Cd0 Sr1 3.859742 1_555
Cd0 Sr1 3.859742 1_655
Cd1 Sb2 2.900350 1_555
Cd1 Sb2 2.900350 1_655
Cd1 Sb3 3.051123 1_554
Cd1 Sb1 3.066403 1_555
Cd1 Sr1 3.527609 1_554
Cd1 Sr1 3.527609 1_654
Cd1 Na1 3.593945 1_555
Cd1 Na1 3.593945 1_655
Cd1 Na2 3.707065 1_555
Cd1 Na0 3.766196 1_565
Cd1 Sr0 3.859742 1_555
Cd1 Sr0 3.859742 1_655
Sb0 Sr1 3.306492 1_555
Sb1 Sr0 3.387118 1_645
Sb1 Sr0 3.387118 1_545
Sb1 Sr1 3.401960 1_554
Sb1 Sr1 3.401960 1_654
Sb2 Sr0 3.306492 1_555
Sb3 Sr1 3.387118 1_555
Sb3 Sr1 3.387118 1_655
Sb3 Sr0 3.401960 1_656
Sb3 Sr0 3.401960 1_556
