# generated using pymatgen
data_Ba4Lu3TcO12
_symmetry_space_group_name_H-M   'P 1'
_cell_length_a   7.32259772
_cell_length_b   7.32259745
_cell_length_c   7.32259832
_cell_angle_alpha   109.47121503
_cell_angle_beta   109.47121427
_cell_angle_gamma   109.47122775
_symmetry_Int_Tables_number   1
_chemical_formula_structural   Ba4Lu3TcO12
_chemical_formula_sum   'Ba4 Lu3 Tc1 O12'
_cell_volume   302.25513178
_cell_formula_units_Z   1
loop_
 _symmetry_equiv_pos_site_id
 _symmetry_equiv_pos_as_xyz
  1  'x, y, z'
loop_
 _atom_site_type_symbol
 _atom_site_label
 _atom_site_symmetry_multiplicity
 _atom_site_fract_x
 _atom_site_fract_y
 _atom_site_fract_z
 _atom_site_occupancy
  Ba  Ba0  1  0.00000000  0.50000000  0.00000000  1
  Ba  Ba1  1  0.50000000  0.00000000  0.00000000  1
  Ba  Ba2  1  0.00000000  0.00000000  0.50000000  1
  Ba  Ba3  1  0.50000000  0.50000000  0.50000000  1
  Lu  Lu0  1  0.50000000  0.00000000  0.50000000  1
  Lu  Lu1  1  0.00000000  0.50000000  0.50000000  1
  Lu  Lu2  1  0.50000000  0.50000000  0.00000000  1
  Tc  Tc0  1  0.00000000  0.00000000  0.00000000  1
  O  O0  1  0.25000000  0.75000000  0.50000000  1
  O  O1  1  0.77650723  1.00000000  0.77650723  1
  O  O2  1  1.00000000  0.77650723  0.77650723  1
  O  O3  1  0.00000000  0.22349277  0.22349277  1
  O  O4  1  0.22349277  0.22349277  0.00000000  1
  O  O5  1  0.22349277  0.00000000  0.22349277  1
  O  O6  1  0.77650723  0.77650723  1.00000000  1
  O  O7  1  0.75000000  0.25000000  0.50000000  1
  O  O8  1  0.50000000  0.25000000  0.75000000  1
  O  O9  1  0.50000000  0.75000000  0.25000000  1
  O  O10  1  0.25000000  0.50000000  0.75000000  1
  O  O11  1  0.75000000  0.50000000  0.25000000  1
loop_
_geom_bond_atom_site_label_1
_geom_bond_atom_site_label_2
_geom_bond_distance
_geom_bond_site_symmetry_2
Ba0 O10 2.989438 1_554
Ba0 O11 2.989438 1_455
Ba0 O8 2.989438 1_454
Ba0 O9 2.989438 1_555
Ba0 O7 2.989439 1_454
Ba0 O0 2.989439 1_555
Ba0 O5 2.997828 1_565
Ba0 O1 2.997828 1_444
Ba0 O2 2.997828 1_454
Ba0 O3 2.997828 1_555
Ba0 O4 2.997828 1_555
Ba0 O6 2.997828 1_454
Ba1 O11 2.989438 1_555
Ba1 O10 2.989438 1_544
Ba1 O9 2.989438 1_545
Ba1 O8 2.989438 1_554
Ba1 O7 2.989439 1_555
Ba1 O0 2.989439 1_544
Ba1 O1 2.997828 1_544
Ba1 O5 2.997828 1_555
Ba1 O2 2.997828 1_444
Ba1 O3 2.997828 1_655
Ba1 O6 2.997828 1_544
Ba1 O4 2.997828 1_555
Ba2 O10 2.989438 1_555
Ba2 O11 2.989438 1_445
Ba2 O0 2.989438 1_545
Ba2 O7 2.989438 1_455
Ba2 O8 2.989438 1_555
Ba2 O9 2.989438 1_445
Ba2 O2 2.997828 1_445
Ba2 O3 2.997828 1_555
Ba2 O5 2.997828 1_555
Ba2 O1 2.997828 1_445
Ba2 O4 2.997829 1_556
Ba2 O6 2.997829 1_444
Ba3 O8 2.989438 1_555
Ba3 O9 2.989438 1_555
Ba3 O10 2.989438 1_555
Ba3 O11 2.989438 1_555
Ba3 O0 2.989438 1_555
Ba3 O7 2.989438 1_555
Ba3 O1 2.997828 1_555
Ba3 O5 2.997828 1_555
Ba3 O2 2.997828 1_555
Ba3 O3 2.997828 1_555
Ba3 O6 2.997829 1_555
Ba3 O4 2.997829 1_555
Lu0 O0 2.113852 1_545
Lu0 O7 2.113852 1_555
Lu0 O9 2.113852 1_545
Lu0 O8 2.113852 1_555
Lu0 O1 2.337982 1_545
Lu0 O5 2.337982 1_555
Lu1 O0 2.113852 1_555
Lu1 O7 2.113852 1_455
Lu1 O10 2.113852 1_555
Lu1 O11 2.113852 1_455
Lu1 O2 2.337981 1_455
Lu1 O3 2.337981 1_555
Lu2 O8 2.113852 1_554
Lu2 O9 2.113852 1_555
Lu2 O10 2.113852 1_554
Lu2 O11 2.113852 1_555
Lu2 O6 2.337981 1_554
Lu2 O4 2.337981 1_555
O1 Tc0 1.889723 1_666
O2 Tc0 1.889723 1_666
O3 Tc0 1.889723 1_555
O4 Tc0 1.889722 1_555
O5 Tc0 1.889723 1_555
O6 Tc0 1.889722 1_666
