# generated using pymatgen
data_Ca10ZrTcN10
_symmetry_space_group_name_H-M   'P 1'
_cell_length_a   6.95861253
_cell_length_b   6.95861118
_cell_length_c   8.93472709
_cell_angle_alpha   80.43741495
_cell_angle_beta   80.43740880
_cell_angle_gamma   59.76189617
_symmetry_Int_Tables_number   1
_chemical_formula_structural   Ca10ZrTcN10
_chemical_formula_sum   'Ca10 Zr1 Tc1 N10'
_cell_volume   366.85037466
_cell_formula_units_Z   1
loop_
 _symmetry_equiv_pos_site_id
 _symmetry_equiv_pos_as_xyz
  1  'x, y, z'
loop_
 _atom_site_type_symbol
 _atom_site_label
 _atom_site_symmetry_multiplicity
 _atom_site_fract_x
 _atom_site_fract_y
 _atom_site_fract_z
 _atom_site_occupancy
  Ca  Ca0  1  0.87635805  0.35316653  0.82720331  1
  Ca  Ca1  1  0.87440621  0.87440621  0.81808372  1
  Ca  Ca2  1  0.73885332  0.73885332  0.53195736  1
  Ca  Ca3  1  0.75048469  0.25046272  0.50924801  1
  Ca  Ca4  1  0.63067895  0.13644077  0.14983391  1
  Ca  Ca5  1  0.35316653  0.87635805  0.82720331  1
  Ca  Ca6  1  0.25046272  0.75048469  0.50924801  1
  Ca  Ca7  1  0.24122494  0.24122494  0.49993717  1
  Ca  Ca8  1  0.13999780  0.13999780  0.15827803  1
  Ca  Ca9  1  0.13644077  0.63067895  0.14983391  1
  Zr  Zr0  1  0.36967513  0.36967513  0.77950145  1
  Tc  Tc0  1  0.63216448  0.63216448  0.22906863  1
  N  N0  1  0.90054234  0.47512113  0.31594757  1
  N  N1  1  0.99563151  0.99563151  0.01458093  1
  N  N2  1  0.67496963  0.67496963  0.02747276  1
  N  N3  1  0.54369714  0.54369714  0.68762350  1
  N  N4  1  0.47512113  0.90054234  0.31594757  1
  N  N5  1  0.54447507  0.07469043  0.67125191  1
  N  N6  1  0.47832792  0.47832792  0.29619797  1
  N  N7  1  0.31894556  0.31894556  0.01204524  1
  N  N8  1  0.06197368  0.06197368  0.64409081  1
  N  N9  1  0.07469043  0.54447507  0.67125191  1
loop_
_geom_bond_atom_site_label_1
_geom_bond_atom_site_label_2
_geom_bond_distance
_geom_bond_site_symmetry_2
Ca0 N3 2.447510 1_555
Ca0 N9 2.492729 1_655
Ca0 N8 2.492828 1_655
Ca0 N1 2.584485 1_546
Ca0 N2 2.741825 1_556
Ca1 N9 2.470821 1_655
Ca1 N5 2.470822 1_565
Ca1 N8 2.488247 1_665
Ca1 N1 2.491249 1_556
Ca1 N2 2.750741 1_556
Ca2 N5 2.462351 1_565
Ca2 N9 2.462352 1_655
Ca2 N3 2.495037 1_555
Ca2 N0 2.595073 1_555
Ca2 N4 2.595073 1_555
Ca3 N8 2.312842 1_655
Ca3 N5 2.476813 1_555
Ca3 N3 2.476989 1_555
Ca3 N0 2.581665 1_555
Ca3 N6 2.625780 1_555
Ca4 N7 2.329629 1_555
Ca4 N1 2.395271 1_545
Ca4 N4 2.552558 1_545
Ca4 N6 2.554749 1_555
Ca5 N3 2.447509 1_555
Ca5 N5 2.492729 1_565
Ca5 N8 2.492828 1_565
Ca5 N1 2.584485 1_456
Ca5 N2 2.741826 1_556
Ca6 N8 2.312842 1_565
Ca6 N9 2.476813 1_555
Ca6 N3 2.476989 1_555
Ca6 N4 2.581665 1_555
Ca6 N6 2.625780 1_555
Ca7 N8 2.295667 1_555
Ca7 N9 2.481854 1_555
Ca7 N5 2.481854 1_555
Ca7 N4 2.737004 1_545
Ca7 N0 2.737005 1_455
Ca7 N6 3.082868 1_555
Ca8 N7 2.299758 1_555
Ca8 N1 2.353784 1_445
Ca8 N0 2.568484 1_455
Ca8 N4 2.568484 1_545
Ca9 N7 2.329629 1_555
Ca9 N1 2.395271 1_455
Ca9 N0 2.552558 1_455
Ca9 N6 2.554750 1_555
N0 Tc0 1.851688 1_555
N2 Tc0 1.776128 1_555
N3 Zr0 2.103111 1_555
N4 Tc0 1.851688 1_555
N5 Zr0 2.093436 1_555
N6 Tc0 1.838251 1_555
N7 Zr0 2.050430 1_554
N9 Zr0 2.093437 1_555
