# generated using pymatgen
data_CsK2Ag3As2
_symmetry_space_group_name_H-M   'P 1'
_cell_length_a   8.06200249
_cell_length_b   8.06200260
_cell_length_c   8.06200258
_cell_angle_alpha   44.27338436
_cell_angle_beta   44.27338561
_cell_angle_gamma   44.27338500
_symmetry_Int_Tables_number   1
_chemical_formula_structural   CsK2Ag3As2
_chemical_formula_sum   'Cs1 K2 Ag3 As2'
_cell_volume   232.06296945
_cell_formula_units_Z   1
loop_
 _symmetry_equiv_pos_site_id
 _symmetry_equiv_pos_as_xyz
  1  'x, y, z'
loop_
 _atom_site_type_symbol
 _atom_site_label
 _atom_site_symmetry_multiplicity
 _atom_site_fract_x
 _atom_site_fract_y
 _atom_site_fract_z
 _atom_site_occupancy
  Cs  Cs0  1  0.50000000  0.50000000  0.50000000  1
  K  K0  1  0.09052176  0.09052176  0.09052176  1
  K  K1  1  0.90947824  0.90947824  0.90947824  1
  Ag  Ag0  1  0.00000000  0.50000000  0.50000000  1
  Ag  Ag1  1  0.50000000  0.50000000  0.00000000  1
  Ag  Ag2  1  0.50000000  0.00000000  0.50000000  1
  As  As0  1  0.75182123  0.75182123  0.75182123  1
  As  As1  1  0.24817877  0.24817877  0.24817877  1
loop_
_geom_bond_atom_site_label_1
_geom_bond_atom_site_label_2
_geom_bond_distance
_geom_bond_site_symmetry_2
Cs0 K1 3.880036 1_545
Cs0 K0 3.880036 1_565
Cs0 K1 3.880036 1_554
Cs0 K0 3.880036 1_556
Cs0 K1 3.880036 1_455
Cs0 K0 3.880036 1_655
K0 K1 3.942497 1_444
Ag0 As0 2.552445 1_455
Ag0 As1 2.552445 1_555
Ag0 Ag2 3.037904 1_555
Ag0 Ag2 3.037904 1_465
Ag0 Ag1 3.037904 1_456
Ag0 Ag1 3.037904 1_555
Ag0 K0 3.621420 1_556
Ag0 K1 3.621420 1_454
Ag0 K0 3.621420 1_565
Ag0 K1 3.621420 1_445
Ag0 Cs0 4.031001 1_455
Ag0 Cs0 4.031001 1_555
Ag1 As0 2.552445 1_554
Ag1 As1 2.552445 1_555
Ag1 Ag2 3.037904 1_564
Ag1 Ag2 3.037904 1_555
Ag1 K0 3.621420 1_655
Ag1 K1 3.621420 1_454
Ag1 K0 3.621420 1_565
Ag1 K1 3.621420 1_544
Ag1 Cs0 4.031001 1_555
Ag1 Cs0 4.031001 1_554
Ag2 As0 2.552445 1_545
Ag2 As1 2.552445 1_555
Ag2 K0 3.621420 1_655
Ag2 K1 3.621420 1_445
Ag2 K0 3.621420 1_556
Ag2 K1 3.621420 1_544
Ag2 Cs0 4.031001 1_555
Ag2 Cs0 4.031001 1_545
As0 K1 3.433221 1_555
As0 K0 3.509816 1_656
As0 K0 3.509816 1_665
As0 K0 3.509816 1_566
As0 Cs0 3.931405 1_655
As0 Cs0 3.931405 1_565
As0 Cs0 3.931405 1_556
As1 K0 3.433221 1_555
As1 K1 3.509816 1_454
As1 K1 3.509816 1_445
As1 K1 3.509816 1_544
As1 Cs0 3.931405 1_455
As1 Cs0 3.931405 1_545
As1 Cs0 3.931405 1_554
