# generated using pymatgen
data_Ti8Al14AsRh7
_symmetry_space_group_name_H-M   'P 1'
_cell_length_a   8.58599218
_cell_length_b   8.58599272
_cell_length_c   8.58599183
_cell_angle_alpha   119.97105990
_cell_angle_beta   119.92099684
_cell_angle_gamma   90.09351452
_symmetry_Int_Tables_number   1
_chemical_formula_structural   Ti8Al14AsRh7
_chemical_formula_sum   'Ti8 Al14 As1 Rh7'
_cell_volume   447.92972638
_cell_formula_units_Z   1
loop_
 _symmetry_equiv_pos_site_id
 _symmetry_equiv_pos_as_xyz
  1  'x, y, z'
loop_
 _atom_site_type_symbol
 _atom_site_label
 _atom_site_symmetry_multiplicity
 _atom_site_fract_x
 _atom_site_fract_y
 _atom_site_fract_z
 _atom_site_occupancy
  Ti  Ti0  1  0.79702382  0.29536187  0.08559061  1
  Ti  Ti1  1  0.20977026  0.29536187  0.49833806  1
  Ti  Ti2  1  0.20467407  0.70467407  0.50000000  1
  Ti  Ti3  1  0.20977026  0.71143221  0.91440939  1
  Ti  Ti4  1  0.79702382  0.71143221  0.50166194  1
  Ti  Ti5  1  0.79095706  0.29095706  0.50000000  1
  Ti  Ti6  1  0.38022129  0.12267216  0.74245087  1
  Ti  Ti7  1  0.38022129  0.63777142  0.25754913  1
  Al  Al0  1  0.15981969  0.33731147  0.17749077  1
  Al  Al1  1  0.15981969  0.98232992  0.82250923  1
  Al  Al2  1  0.15577784  0.33925789  0.81651995  1
  Al  Al3  1  0.52273694  0.33925789  0.18348005  1
  Al  Al4  1  0.83860087  0.65963547  0.82103560  1
  Al  Al5  1  0.83860087  0.01756527  0.17896440  1
  Al  Al6  1  0.83735415  0.66100491  0.17634924  1
  Al  Al7  1  0.48465566  0.66100491  0.82365076  1
  Al  Al8  1  0.38062141  0.11976634  0.26085607  1
  Al  Al9  1  0.85891127  0.11976634  0.73914393  1
  Al  Al10  1  0.62037400  0.87991418  0.25954017  1
  Al  Al11  1  0.62037400  0.36083383  0.74045983  1
  Al  Al12  1  0.62138896  0.87936165  0.74202731  1
  Al  Al13  1  0.13733334  0.87936165  0.25797269  1
  As  As0  1  0.99823561  0.49823561  0.50000000  1
  Rh  Rh0  1  0.00177916  0.99984855  0.50151490  1
  Rh  Rh1  1  0.49833365  0.99984855  0.99806938  1
  Rh  Rh2  1  0.49758297  0.49758297  1.00000000  1
  Rh  Rh3  1  0.49833365  0.50026426  0.49848510  1
  Rh  Rh4  1  0.00177916  0.50026426  0.00193062  1
  Rh  Rh5  1  0.00007934  0.00007934  0.00000000  1
  Rh  Rh6  1  0.49783991  0.99783991  0.50000000  1
loop_
_geom_bond_atom_site_label_1
_geom_bond_atom_site_label_2
_geom_bond_distance
_geom_bond_site_symmetry_2
Ti0 Ti6 2.963988 1_554
Ti1 Ti6 2.963989 1_555
Ti2 Ti6 2.978819 1_565
Ti2 Ti7 2.978820 1_555
Ti3 Ti7 2.963976 1_556
Ti4 Ti7 2.963990 1_555
Al0 Rh5 2.465865 1_555
Al0 Rh4 2.478654 1_555
Al0 Rh3 2.478662 1_555
Al0 Al9 2.754781 1_454
Al0 Al8 2.754786 1_555
Al0 Ti7 2.761036 1_555
Al0 Ti0 2.777717 1_455
Al0 Ti1 2.777725 1_555
Al0 Ti2 2.823213 1_555
Al0 Al1 3.049202 1_544
Al0 Al3 3.090554 1_555
Al0 Al2 3.090558 1_554
Al1 Rh5 2.465860 1_566
Al1 Rh0 2.478656 1_555
Al1 Rh1 2.478664 1_555
Al1 Al9 2.754772 1_465
Al1 Al8 2.754785 1_566
Al1 Ti6 2.761031 1_565
Al1 Ti4 2.777723 1_455
Al1 Ti3 2.777734 1_555
Al1 Ti2 2.823221 1_555
Al1 Al3 3.090554 1_566
Al1 Al2 3.090554 1_565
Al2 Rh4 2.469951 1_556
Al2 Rh0 2.469951 1_545
Al2 Rh2 2.485451 1_555
Al2 Al9 2.744788 1_455
Al2 Ti6 2.762042 1_555
Al2 Ti7 2.762043 1_556
Al2 Ti5 2.783273 1_455
Al2 Ti3 2.838225 1_555
Al2 Ti1 2.838228 1_555
Al2 Al3 3.154474 1_556
Al3 Rh3 2.469946 1_555
Al3 Rh1 2.469953 1_544
Al3 Rh2 2.485453 1_554
Al3 Al8 2.744795 1_555
Al3 Ti6 2.762043 1_554
Al3 Ti7 2.762044 1_555
Al3 Ti5 2.783276 1_555
Al3 Ti4 2.838231 1_555
Al3 Ti0 2.838242 1_555
Al4 Rh5 2.490267 1_666
Al4 Rh4 2.491282 1_656
Al4 Rh3 2.491290 1_555
Al4 Ti5 2.817541 1_555
Al4 Ti3 2.843748 1_655
Al4 Ti4 2.843756 1_555
Al4 Al6 3.050227 1_556
Al4 Al7 3.050231 1_555
Al4 Al5 3.074522 1_566
Al5 Rh5 2.490260 1_655
Al5 Rh0 2.491290 1_645
Al5 Rh1 2.491290 1_544
Al5 Ti5 2.817547 1_555
Al5 Ti1 2.843751 1_655
Al5 Ti0 2.843756 1_555
Al5 Al7 3.050231 1_544
Al5 Al6 3.050232 1_545
Al6 Rh4 2.488159 1_655
Al6 Rh0 2.488159 1_655
Al6 Rh2 2.495847 1_554
Al6 Ti0 2.804645 1_555
Al6 Ti4 2.804648 1_555
Al6 Ti2 2.832178 1_655
Al6 Al7 3.031882 1_554
Al7 Rh3 2.488159 1_555
Al7 Rh1 2.488159 1_555
Al7 Rh2 2.495847 1_555
Al7 Ti1 2.804648 1_555
Al7 Ti3 2.804653 1_555
Al7 Ti2 2.832178 1_555
Al8 Rh6 2.532650 1_545
Al8 Rh3 2.670133 1_555
Al8 Rh1 2.670139 1_544
Al8 Rh5 2.671488 1_555
Al8 Ti1 2.915856 1_555
Al8 Ti3 2.915862 1_544
Al8 Ti5 2.922315 1_555
Al9 Rh6 2.532657 1_545
Al9 Rh0 2.670125 1_645
Al9 Rh4 2.670132 1_656
Al9 Rh5 2.671494 1_656
Al9 Ti0 2.915862 1_556
Al9 Ti4 2.915862 1_545
Al9 Ti5 2.922307 1_555
Al10 Rh6 2.544870 1_555
Al10 Rh0 2.676723 1_655
Al10 Rh1 2.676724 1_554
Al10 Rh2 2.681334 1_554
Al10 Al5 2.736611 1_565
Al10 Al7 2.740663 1_554
Al10 Al6 2.740664 1_555
Al10 Ti7 2.913700 1_555
Al10 Al9 2.914166 1_565
Al10 Al8 2.914172 1_565
Al10 Ti5 2.923952 1_565
Al10 Ti3 2.929324 1_554
Al10 Ti4 2.929325 1_555
Al11 Rh6 2.544870 1_545
Al11 Rh4 2.676723 1_656
Al11 Rh3 2.676724 1_555
Al11 Rh2 2.681334 1_555
Al11 Al4 2.736604 1_555
Al11 Al6 2.740664 1_556
Al11 Al7 2.740664 1_555
Al11 Ti6 2.913706 1_555
Al11 Al8 2.914166 1_555
Al11 Al9 2.914172 1_555
Al11 Ti5 2.923952 1_555
Al11 Ti0 2.929318 1_556
Al11 Ti1 2.929325 1_555
Al12 Rh6 2.528798 1_555
Al12 Rh5 2.657595 1_666
Al12 Rh1 2.658540 1_555
Al12 Rh3 2.658540 1_555
Al12 Al7 2.740560 1_555
Al12 Al5 2.743257 1_566
Al12 Al4 2.743264 1_555
Al12 Al9 2.916825 1_565
Al12 Ti7 2.943787 1_555
Al12 Ti6 2.943787 1_565
Al12 Ti0 2.958197 1_566
Al12 Ti4 2.958198 1_555
Al12 Ti2 2.969923 1_555
Al13 Rh6 2.528805 1_555
Al13 Rh5 2.657595 1_565
Al13 Rh0 2.658532 1_555
Al13 Rh4 2.658540 1_555
Al13 Al6 2.740553 1_455
Al13 Al5 2.743250 1_465
Al13 Al4 2.743254 1_454
Al13 Al8 2.916819 1_565
Al13 Ti6 2.943787 1_565
Al13 Ti7 2.943788 1_555
Al13 Ti3 2.958197 1_554
Al13 Ti1 2.958197 1_565
Al13 Ti2 2.969921 1_555
As0 Ti2 2.504617 1_655
As0 Ti5 2.514810 1_555
As0 Ti1 2.518805 1_655
As0 Ti4 2.518805 1_555
As0 Ti3 2.518811 1_655
As0 Ti0 2.518811 1_555
Rh0 Ti6 2.655742 1_565
Rh0 Ti4 3.035466 1_455
Rh0 Ti2 3.076039 1_555
Rh0 Ti5 3.089941 1_465
Rh0 Ti1 3.119387 1_565
Rh1 Ti6 2.655742 1_565
Rh1 Ti3 3.035471 1_555
Rh1 Ti2 3.076038 1_555
Rh1 Ti5 3.089940 1_566
Rh1 Ti0 3.119392 1_566
Rh2 Ti6 2.630905 1_555
Rh2 Ti7 2.630905 1_556
Rh2 Ti3 3.093420 1_555
Rh2 Ti0 3.093420 1_556
Rh2 Ti1 3.093421 1_555
Rh2 Ti4 3.093421 1_556
Rh3 Ti7 2.655749 1_555
Rh3 Ti1 3.035466 1_555
Rh3 Ti2 3.076038 1_555
Rh3 Ti5 3.089941 1_555
Rh3 Ti4 3.119387 1_555
Rh4 Ti7 2.655742 1_555
Rh4 Ti0 3.035459 1_455
Rh4 Ti2 3.076038 1_555
Rh4 Ti5 3.089940 1_454
Rh4 Ti3 3.119380 1_554
Rh5 Ti3 3.072197 1_544
Rh5 Ti0 3.072197 1_455
Rh5 Ti4 3.072198 1_444
Rh5 Ti1 3.072198 1_555
Rh6 Ti7 2.524581 1_555
Rh6 Ti6 2.524588 1_565
