# generated using pymatgen
data_Sc2Ga4CuNi
_symmetry_space_group_name_H-M   'P 1'
_cell_length_a   5.20543002
_cell_length_b   5.20543005
_cell_length_c   6.37076742
_cell_angle_alpha   90.00000000
_cell_angle_beta   90.00000000
_cell_angle_gamma   133.91971501
_symmetry_Int_Tables_number   1
_chemical_formula_structural   Sc2Ga4CuNi
_chemical_formula_sum   'Sc2 Ga4 Cu1 Ni1'
_cell_volume   124.34430933
_cell_formula_units_Z   1
loop_
 _symmetry_equiv_pos_site_id
 _symmetry_equiv_pos_as_xyz
  1  'x, y, z'
loop_
 _atom_site_type_symbol
 _atom_site_label
 _atom_site_symmetry_multiplicity
 _atom_site_fract_x
 _atom_site_fract_y
 _atom_site_fract_z
 _atom_site_occupancy
  Sc  Sc0  1  0.92130477  0.07869523  0.25000000  1
  Sc  Sc1  1  0.07624847  0.92375153  0.75000000  1
  Ga  Ga0  1  0.63446157  0.36553843  0.45333479  1
  Ga  Ga1  1  0.36636082  0.63363918  0.55226960  1
  Ga  Ga2  1  0.36636082  0.63363918  0.94773040  1
  Ga  Ga3  1  0.63446157  0.36553843  0.04666521  1
  Cu  Cu0  1  0.20521552  0.79478448  0.25000000  1
  Ni  Ni0  1  0.79558545  0.20441455  0.75000000  1
loop_
_geom_bond_atom_site_label_1
_geom_bond_atom_site_label_2
_geom_bond_distance
_geom_bond_site_symmetry_2
Ga0 Ni0 2.440254 1_555
Ga0 Ga3 2.590797 1_555
Ga0 Ga1 2.644715 1_555
Ga0 Sc1 2.834359 1_545
Ga0 Sc1 2.834359 1_655
Ga0 Sc0 3.038084 1_555
Ga0 Sc0 3.162095 1_455
Ga0 Sc0 3.162095 1_565
Ga1 Ni0 2.489398 1_455
Ga1 Ni0 2.489398 1_565
Ga1 Ga2 2.519389 1_555
Ga1 Sc0 2.852345 1_565
Ga1 Sc0 2.852345 1_455
Ga1 Sc1 3.051531 1_555
Ga1 Sc1 3.127408 1_655
Ga1 Sc1 3.127408 1_545
Ga2 Ni0 2.489398 1_455
Ga2 Ni0 2.489398 1_565
Ga2 Ga3 2.644715 1_556
Ga2 Sc0 2.852345 1_566
Ga2 Sc0 2.852345 1_456
Ga2 Sc1 3.051531 1_555
Ga2 Sc1 3.127408 1_655
Ga2 Sc1 3.127408 1_545
Ga3 Ni0 2.440254 1_554
Ga3 Sc1 2.834359 1_544
Ga3 Sc1 2.834359 1_654
Ga3 Sc0 3.038084 1_555
Ga3 Sc0 3.162095 1_455
Ga3 Sc0 3.162095 1_565
Cu0 Ga1 2.468139 1_555
Cu0 Ga2 2.468139 1_554
Cu0 Ga3 2.507598 1_455
Cu0 Ga0 2.507598 1_455
Cu0 Ga3 2.507598 1_565
Cu0 Ga0 2.507598 1_565
Cu0 Sc0 2.719977 1_465
Cu0 Sc0 2.904535 1_565
Cu0 Sc0 2.904535 1_455
Ni0 Sc1 2.688863 1_645
Ni0 Sc1 2.926793 1_545
Ni0 Sc1 2.926793 1_655
