# generated using pymatgen
data_Sr3CaAs2O
_symmetry_space_group_name_H-M   'P 1'
_cell_length_a   4.80955218
_cell_length_b   4.67489363
_cell_length_c   8.80081076
_cell_angle_alpha   105.40228383
_cell_angle_beta   105.85744263
_cell_angle_gamma   89.99999324
_symmetry_Int_Tables_number   1
_chemical_formula_structural   Sr3CaAs2O
_chemical_formula_sum   'Sr3 Ca1 As2 O1'
_cell_volume   182.94919802
_cell_formula_units_Z   1
loop_
 _symmetry_equiv_pos_site_id
 _symmetry_equiv_pos_as_xyz
  1  'x, y, z'
loop_
 _atom_site_type_symbol
 _atom_site_label
 _atom_site_symmetry_multiplicity
 _atom_site_fract_x
 _atom_site_fract_y
 _atom_site_fract_z
 _atom_site_occupancy
  Sr  Sr0  1  0.00000000  0.49999900  0.00000000  1
  Sr  Sr1  1  0.67191487  0.67191487  0.34383174  1
  Sr  Sr2  1  0.32808413  0.32808413  0.65616826  1
  Ca  Ca0  1  0.49999900  0.00000000  0.00000000  1
  As  As0  1  0.13465699  0.13465699  0.26931399  1
  As  As1  1  0.86534101  0.86534101  0.73068601  1
  O  O0  1  0.49999900  0.49999900  0.00000000  1
loop_
_geom_bond_atom_site_label_1
_geom_bond_atom_site_label_2
_geom_bond_distance
_geom_bond_site_symmetry_2
Ca0 O0 2.337442 1_555
Ca0 O0 2.337451 1_545
As0 Sr2 3.147759 1_555
As0 Sr0 3.204010 1_555
As0 Sr0 3.204017 1_545
As0 Ca0 3.253455 1_555
As0 Ca0 3.253462 1_455
As0 Sr1 3.407962 1_555
As0 Sr1 3.407968 1_545
As0 Sr1 3.407969 1_455
As0 Sr1 3.407975 1_445
As1 Sr1 3.147759 1_555
As1 Sr0 3.204010 1_656
As1 Sr0 3.204017 1_666
As1 Ca0 3.253455 1_566
As1 Ca0 3.253462 1_666
As1 Sr2 3.407956 1_555
As1 Sr2 3.407968 1_565
As1 Sr2 3.407969 1_655
As1 Sr2 3.407982 1_665
O0 Sr0 2.404771 1_555
O0 Sr0 2.404781 1_655
O0 Sr1 2.797693 1_555
O0 Sr2 2.797693 1_554
