# generated using pymatgen
data_MgHgPdO4
_symmetry_space_group_name_H-M   'P 1'
_cell_length_a   6.25718543
_cell_length_b   6.18538467
_cell_length_c   6.25717991
_cell_angle_alpha   60.38251705
_cell_angle_beta   90.09656400
_cell_angle_gamma   119.61765408
_symmetry_Int_Tables_number   1
_chemical_formula_structural   MgHgPdO4
_chemical_formula_sum   'Mg2 Hg2 Pd2 O8'
_cell_volume   173.34128130
_cell_formula_units_Z   2
loop_
 _symmetry_equiv_pos_site_id
 _symmetry_equiv_pos_as_xyz
  1  'x, y, z'
loop_
 _atom_site_type_symbol
 _atom_site_label
 _atom_site_symmetry_multiplicity
 _atom_site_fract_x
 _atom_site_fract_y
 _atom_site_fract_z
 _atom_site_occupancy
  Mg  Mg0  1  0.37501671  0.25000839  0.37500242  1
  Mg  Mg1  1  0.37501373  0.74999445  0.37501697  1
  Hg  Hg0  1  0.97171494  0.99999725  0.97171637  1
  Hg  Hg1  1  0.77827068  0.49999499  0.77827439  1
  Pd  Pd0  1  0.87499916  0.25000129  0.37499779  1
  Pd  Pd1  1  0.37500934  0.75000133  0.87501656  1
  O  O0  1  0.13427647  0.29268845  0.13423177  1
  O  O1  1  0.60676385  0.20780531  0.19109221  1
  O  O2  1  0.55890189  0.70778455  0.14328659  1
  O  O3  1  0.13423386  0.70731203  0.13427936  1
  O  O4  1  0.61569150  0.20732080  0.61572826  1
  O  O5  1  0.14329326  0.29221522  0.55890656  1
  O  O6  1  0.19108631  0.79219348  0.60675803  1
  O  O7  1  0.61573129  0.79267946  0.61569573  1
loop_
_geom_bond_atom_site_label_1
_geom_bond_atom_site_label_2
_geom_bond_distance
_geom_bond_site_symmetry_2
Mg0 O2 2.042338 1_555
Mg0 O5 2.042384 1_555
Mg0 O6 2.042492 1_545
Mg0 O1 2.042505 1_555
Mg0 O4 2.144458 1_555
Mg0 O0 2.144944 1_555
Mg1 O5 2.042349 1_555
Mg1 O2 2.042369 1_555
Mg1 O1 2.042476 1_565
Mg1 O6 2.042524 1_555
Mg1 O7 2.144440 1_555
Mg1 O3 2.144969 1_555
Hg0 O5 2.137347 1_665
Hg0 O2 2.137357 1_556
Hg0 O3 2.311330 1_656
Hg0 O0 2.311336 1_666
Hg1 O6 2.137341 1_655
Hg1 O1 2.137348 1_556
Hg1 O4 2.311418 1_555
Hg1 O7 2.311438 1_555
O0 Pd1 2.040331 1_554
O0 Pd0 2.040340 1_455
O1 Pd0 2.016602 1_555
O2 Pd1 2.016717 1_554
O3 Pd1 2.040305 1_554
O3 Pd0 2.040331 1_455
O4 Pd0 2.040355 1_555
O4 Pd1 2.040390 1_545
O5 Pd0 2.016897 1_455
O6 Pd1 2.016783 1_555
O7 Pd1 2.040388 1_555
O7 Pd0 2.040390 1_565
