# generated using pymatgen
data_Ca2Y2Sb6Rh7
_symmetry_space_group_name_H-M   'P 1'
_cell_length_a   7.59795765
_cell_length_b   7.59795854
_cell_length_c   7.56259211
_cell_angle_alpha   109.42137585
_cell_angle_beta   109.42138353
_cell_angle_gamma   109.75929740
_symmetry_Int_Tables_number   1
_chemical_formula_structural   Ca2Y2Sb6Rh7
_chemical_formula_sum   'Ca2 Y2 Sb6 Rh7'
_cell_volume   335.29333350
_cell_formula_units_Z   1
loop_
 _symmetry_equiv_pos_site_id
 _symmetry_equiv_pos_as_xyz
  1  'x, y, z'
loop_
 _atom_site_type_symbol
 _atom_site_label
 _atom_site_symmetry_multiplicity
 _atom_site_fract_x
 _atom_site_fract_y
 _atom_site_fract_z
 _atom_site_occupancy
  Ca  Ca0  1  0.00000000  0.00000000  0.50000000  1
  Ca  Ca1  1  0.50000000  0.50000000  0.50000000  1
  Y  Y0  1  0.50000000  0.00000000  0.00000000  1
  Y  Y1  1  0.00000000  0.50000000  0.00000000  1
  Sb  Sb0  1  0.31967326  0.00304927  0.32272154  1
  Sb  Sb1  1  0.99695073  0.68032674  0.67727846  1
  Sb  Sb2  1  0.67994491  0.67994491  1.00000000  1
  Sb  Sb3  1  0.68032674  0.99695073  0.67727846  1
  Sb  Sb4  1  0.00304927  0.31967326  0.32272154  1
  Sb  Sb5  1  0.32005509  0.32005509  0.00000000  1
  Rh  Rh0  1  0.24958032  0.50673910  0.75631942  1
  Rh  Rh1  1  0.50673910  0.24958032  0.75631942  1
  Rh  Rh2  1  0.75000000  0.25000000  0.50000000  1
  Rh  Rh3  1  0.49326090  0.75041968  0.24368058  1
  Rh  Rh4  1  0.00000000  0.00000000  0.00000000  1
  Rh  Rh5  1  0.25000000  0.75000000  0.50000000  1
  Rh  Rh6  1  0.75041968  0.49326090  0.24368058  1
loop_
_geom_bond_atom_site_label_1
_geom_bond_atom_site_label_2
_geom_bond_distance
_geom_bond_site_symmetry_2
Ca0 Rh2 3.107358 1_455
Ca0 Rh5 3.107358 1_545
Ca0 Rh1 3.135759 1_555
Ca0 Rh3 3.135759 1_445
Ca0 Rh0 3.135759 1_555
Ca0 Rh6 3.135759 1_445
Ca0 Sb0 3.137756 1_555
Ca0 Sb3 3.137756 1_445
Ca0 Sb1 3.137756 1_445
Ca0 Sb4 3.137756 1_555
Ca0 Sb5 3.145902 1_556
Ca0 Sb2 3.145902 1_444
Ca1 Rh2 3.107358 1_555
Ca1 Rh5 3.107358 1_555
Ca1 Rh0 3.135759 1_555
Ca1 Rh6 3.135759 1_555
Ca1 Rh3 3.135759 1_555
Ca1 Rh1 3.135759 1_555
Ca1 Sb4 3.137750 1_555
Ca1 Sb1 3.137750 1_555
Ca1 Sb3 3.137750 1_555
Ca1 Sb0 3.137750 1_555
Ca1 Sb2 3.145902 1_555
Ca1 Sb5 3.145902 1_555
Sb0 Y0 3.168910 1_555
Sb0 Y1 3.168915 1_545
Sb1 Y1 3.168910 1_656
Sb1 Y0 3.168915 1_666
Sb2 Y1 3.167135 1_656
Sb2 Y0 3.167135 1_566
Sb3 Y0 3.168910 1_566
Sb3 Y1 3.168915 1_666
Sb4 Y1 3.168910 1_555
Sb4 Y0 3.168915 1_455
Sb5 Y1 3.167135 1_555
Sb5 Y0 3.167135 1_555
Rh0 Sb1 2.693359 1_455
Rh0 Sb2 2.700071 1_555
Rh0 Sb5 2.700072 1_556
Rh0 Sb4 2.701316 1_555
Rh0 Rh3 3.007714 1_556
Rh0 Y1 3.052181 1_556
Rh0 Y0 3.052181 1_566
Rh0 Rh2 3.091357 1_455
Rh0 Rh5 3.091358 1_555
Rh0 Rh1 3.196337 1_555
Rh1 Sb3 2.693359 1_545
Rh1 Sb5 2.700072 1_556
Rh1 Sb2 2.700072 1_555
Rh1 Sb0 2.701316 1_555
Rh1 Rh6 3.007714 1_556
Rh1 Y1 3.052180 1_656
Rh1 Y0 3.052181 1_556
Rh1 Rh2 3.091358 1_555
Rh1 Rh5 3.091358 1_545
Rh2 Sb0 2.696716 1_555
Rh2 Sb1 2.696716 1_555
Rh2 Sb4 2.696723 1_655
Rh2 Sb3 2.696723 1_545
Rh2 Y0 3.085713 1_555
Rh2 Y1 3.085713 1_656
Rh2 Rh6 3.091358 1_555
Rh2 Rh3 3.091358 1_545
Rh3 Sb0 2.693359 1_565
Rh3 Sb2 2.700072 1_554
Rh3 Sb5 2.700072 1_555
Rh3 Sb3 2.701316 1_555
Rh3 Y1 3.052180 1_555
Rh3 Y0 3.052181 1_565
Rh3 Rh5 3.091358 1_555
Rh3 Rh6 3.196337 1_555
Rh4 Sb5 2.797969 1_555
Rh4 Sb2 2.797969 1_444
Rh4 Sb0 2.799756 1_555
Rh4 Sb3 2.799756 1_444
Rh4 Sb4 2.799756 1_555
Rh4 Sb1 2.799756 1_444
Rh5 Sb3 2.696716 1_555
Rh5 Sb4 2.696716 1_555
Rh5 Sb1 2.696723 1_455
Rh5 Sb0 2.696723 1_565
Rh5 Y1 3.085713 1_555
Rh5 Y0 3.085713 1_566
Rh5 Rh6 3.091357 1_455
Rh6 Sb4 2.693359 1_655
Rh6 Sb5 2.700071 1_555
Rh6 Sb2 2.700072 1_554
Rh6 Sb1 2.701316 1_555
Rh6 Y1 3.052181 1_655
Rh6 Y0 3.052181 1_555
