# generated using pymatgen
data_Zr6Ti6ZnAs5
_symmetry_space_group_name_H-M   'P 1'
_cell_length_a   7.95515283
_cell_length_b   7.95668465
_cell_length_c   7.95515316
_cell_angle_alpha   127.75528696
_cell_angle_beta   123.41613680
_cell_angle_gamma   80.61354959
_symmetry_Int_Tables_number   1
_chemical_formula_structural   Zr6Ti6ZnAs5
_chemical_formula_sum   'Zr6 Ti6 Zn1 As5'
_cell_volume   320.52749319
_cell_formula_units_Z   1
loop_
 _symmetry_equiv_pos_site_id
 _symmetry_equiv_pos_as_xyz
  1  'x, y, z'
loop_
 _atom_site_type_symbol
 _atom_site_label
 _atom_site_symmetry_multiplicity
 _atom_site_fract_x
 _atom_site_fract_y
 _atom_site_fract_z
 _atom_site_occupancy
  Zr  Zr0  1  0.45530805  0.66299654  0.70768949  1
  Zr  Zr1  1  0.54589203  0.25361040  0.20771837  1
  Zr  Zr2  1  0.74984985  0.84574456  0.59589471  1
  Zr  Zr3  1  0.24993068  0.84276707  0.09283538  1
  Zr  Zr4  1  0.04471439  0.25212890  0.70741451  1
  Zr  Zr5  1  0.95368980  0.66130850  0.20761870  1
  Ti  Ti0  1  0.49871586  0.49900966  0.99762449  1
  Ti  Ti1  1  0.00138617  0.49900966  0.50029481  1
  Ti  Ti2  1  0.12209174  0.25347490  0.13002120  1
  Ti  Ti3  1  0.87752553  0.00800129  0.13083358  1
  Ti  Ti4  1  0.37716771  0.00800129  0.63047676  1
  Ti  Ti5  1  0.62345369  0.25347490  0.63138216  1
  Zn  Zn0  1  0.25039561  0.25329898  0.50290437  1
  As  As0  1  0.74977438  0.25415356  0.00437918  1
  As  As1  1  0.33270124  0.58642902  0.25244668  1
  As  As2  1  0.66607434  0.91988038  0.25253679  1
  As  As3  1  0.16734459  0.91988038  0.75380704  1
  As  As4  1  0.83398234  0.58642902  0.75372778  1
loop_
_geom_bond_atom_site_label_1
_geom_bond_atom_site_label_2
_geom_bond_distance
_geom_bond_site_symmetry_2
Ti0 Zn0 2.547114 1_555
Ti0 Ti5 2.978539 1_555
Ti0 Ti4 2.979424 1_555
Ti0 Zr3 3.052900 1_556
Ti0 Zr2 3.082174 1_556
Ti0 Zr5 3.127537 1_556
Ti0 Zr0 3.130924 1_555
Ti0 Zr4 3.132000 1_555
Ti0 Zr1 3.132583 1_556
Ti1 Zn0 2.547114 1_555
Ti1 Ti2 2.978533 1_555
Ti1 Ti3 2.979424 1_455
Ti1 Zr3 3.052891 1_556
Ti1 Zr2 3.082178 1_455
Ti1 Zr5 3.127541 1_455
Ti1 Zr0 3.130924 1_555
Ti1 Zr4 3.131996 1_555
Ti1 Zr1 3.132588 1_455
Ti2 Zn0 2.551629 1_555
Ti2 Ti3 2.978066 1_455
Ti2 Zr4 3.059434 1_554
Ti2 Zr1 3.074657 1_555
Ti2 Zr2 3.121300 1_444
Ti2 Zr5 3.121803 1_455
Ti2 Zr0 3.134583 1_555
Ti2 Zr3 3.140744 1_545
Ti3 Zn0 2.551982 1_655
Ti3 Zr0 3.063806 1_544
Ti3 Zr5 3.075760 1_545
Ti3 Zr2 3.122025 1_544
Ti3 Zr1 3.128109 1_555
Ti3 Zr4 3.129469 1_655
Ti3 Zr3 3.134601 1_645
Ti4 Zn0 2.551982 1_555
Ti4 Ti5 2.978078 1_555
Ti4 Zr0 3.063806 1_545
Ti4 Zr5 3.075760 1_445
Ti4 Zr2 3.122027 1_545
Ti4 Zr1 3.128103 1_556
Ti4 Zr4 3.129467 1_555
Ti4 Zr3 3.134614 1_545
Ti5 Zn0 2.551625 1_555
Ti5 Zr4 3.059430 1_655
Ti5 Zr1 3.074650 1_555
Ti5 Zr2 3.121303 1_545
Ti5 Zr5 3.121807 1_556
Ti5 Zr0 3.134577 1_555
Ti5 Zr3 3.140747 1_545
Zn0 Zr0 2.871034 1_555
Zn0 Zr3 2.872868 1_545
Zn0 Zr4 2.877442 1_555
As0 Ti2 2.551919 1_655
As0 Ti5 2.551926 1_554
As0 Ti4 2.553067 1_554
As0 Ti3 2.553067 1_555
As0 Ti0 2.555029 1_554
As0 Ti1 2.555035 1_655
As0 Zr1 2.854436 1_555
As0 Zr5 2.855143 1_555
As0 Zr2 2.861767 1_544
As1 Ti0 2.694393 1_554
As1 Ti2 2.695351 1_555
As1 Ti4 2.698679 1_565
As1 Zr3 2.831640 1_555
As1 Zr0 2.835378 1_555
As1 Zr4 2.836717 1_554
As1 Zr1 2.839254 1_555
As1 Zr5 2.839522 1_455
As1 Zr2 2.842189 1_555
As2 Ti0 2.695091 1_554
As2 Ti3 2.695974 1_565
As2 Ti5 2.697971 1_565
As2 Zr3 2.832914 1_555
As2 Zr4 2.834335 1_665
As2 Zr0 2.835517 1_554
As2 Zr1 2.836912 1_565
As2 Zr5 2.839070 1_555
As2 Zr2 2.844790 1_555
As3 Ti1 2.695091 1_555
As3 Ti4 2.695967 1_565
As3 Ti2 2.697976 1_566
As3 Zr3 2.832904 1_556
As3 Zr4 2.834340 1_565
As3 Zr0 2.835517 1_555
As3 Zr1 2.836907 1_566
As3 Zr5 2.839075 1_455
As3 Zr2 2.844794 1_455
As4 Ti1 2.694393 1_655
As4 Ti5 2.695346 1_555
As4 Ti3 2.698676 1_566
As4 Zr3 2.831635 1_656
As4 Zr0 2.835373 1_555
As4 Zr4 2.836717 1_655
As4 Zr1 2.839255 1_555
As4 Zr5 2.839522 1_556
As4 Zr2 2.842189 1_555
