# generated using pymatgen
data_RbTiTc2Te3
_symmetry_space_group_name_H-M   'P 1'
_cell_length_a   20.29557090
_cell_length_b   19.90391336
_cell_length_c   9.04225666
_cell_angle_alpha   90.00000000
_cell_angle_beta   90.00000000
_cell_angle_gamma   120.49844692
_symmetry_Int_Tables_number   1
_chemical_formula_structural   RbTiTc2Te3
_chemical_formula_sum   'Rb16 Ti16 Tc32 Te48'
_cell_volume   3147.34171260
_cell_formula_units_Z   16
loop_
 _symmetry_equiv_pos_site_id
 _symmetry_equiv_pos_as_xyz
  1  'x, y, z'
loop_
 _atom_site_type_symbol
 _atom_site_label
 _atom_site_symmetry_multiplicity
 _atom_site_fract_x
 _atom_site_fract_y
 _atom_site_fract_z
 _atom_site_occupancy
  Rb  Rb0_0  1  0.17120348  0.33561732  0.12500000  1
  Rb  Rb0_1  1  0.17120348  0.33561732  0.62500000  1
  Rb  Rb0_2  1  0.17120348  0.83561732  0.12500000  1
  Rb  Rb0_3  1  0.17120348  0.83561732  0.62500000  1
  Rb  Rb0_4  1  0.67120348  0.33561732  0.12500000  1
  Rb  Rb0_5  1  0.67120348  0.33561732  0.62500000  1
  Rb  Rb0_6  1  0.67120348  0.83561732  0.12500000  1
  Rb  Rb0_7  1  0.67120348  0.83561732  0.62500000  1
  Rb  Rb1_0  1  0.33435442  0.16468196  0.37500000  1
  Rb  Rb1_1  1  0.33435442  0.16468196  0.87500000  1
  Rb  Rb1_2  1  0.33435442  0.66468196  0.37500000  1
  Rb  Rb1_3  1  0.33435442  0.66468196  0.87500000  1
  Rb  Rb1_4  1  0.83435442  0.16468196  0.37500000  1
  Rb  Rb1_5  1  0.83435442  0.16468196  0.87500000  1
  Rb  Rb1_6  1  0.83435442  0.66468196  0.37500000  1
  Rb  Rb1_7  1  0.83435442  0.66468196  0.87500000  1
  Ti  Ti0_0  1  0.48613123  0.07107303  0.37500000  1
  Ti  Ti0_1  1  0.48613123  0.07107303  0.87500000  1
  Ti  Ti0_2  1  0.48613123  0.57107303  0.37500000  1
  Ti  Ti0_3  1  0.48613123  0.57107303  0.87500000  1
  Ti  Ti0_4  1  0.98613123  0.07107303  0.37500000  1
  Ti  Ti0_5  1  0.98613123  0.07107303  0.87500000  1
  Ti  Ti0_6  1  0.98613123  0.57107303  0.37500000  1
  Ti  Ti0_7  1  0.98613123  0.57107303  0.87500000  1
  Ti  Ti1_0  1  0.42728361  0.41551328  0.37500000  1
  Ti  Ti1_1  1  0.42728361  0.41551328  0.87500000  1
  Ti  Ti1_2  1  0.42728361  0.91551328  0.37500000  1
  Ti  Ti1_3  1  0.42728361  0.91551328  0.87500000  1
  Ti  Ti1_4  1  0.92728361  0.41551328  0.37500000  1
  Ti  Ti1_5  1  0.92728361  0.41551328  0.87500000  1
  Ti  Ti1_6  1  0.92728361  0.91551328  0.37500000  1
  Ti  Ti1_7  1  0.92728361  0.91551328  0.87500000  1
  Tc  Tc0_0  1  0.41591560  0.48667105  0.12500000  1
  Tc  Tc0_1  1  0.41591560  0.48667105  0.62500000  1
  Tc  Tc0_2  1  0.41591560  0.98667105  0.12500000  1
  Tc  Tc0_3  1  0.41591560  0.98667105  0.62500000  1
  Tc  Tc0_4  1  0.91591560  0.48667105  0.12500000  1
  Tc  Tc0_5  1  0.91591560  0.48667105  0.62500000  1
  Tc  Tc0_6  1  0.91591560  0.98667105  0.12500000  1
  Tc  Tc0_7  1  0.91591560  0.98667105  0.62500000  1
  Tc  Tc1_0  1  0.06767057  0.08050007  0.12500000  1
  Tc  Tc1_1  1  0.06767057  0.08050007  0.62500000  1
  Tc  Tc1_2  1  0.06767057  0.58050007  0.12500000  1
  Tc  Tc1_3  1  0.06767057  0.58050007  0.62500000  1
  Tc  Tc1_4  1  0.56767057  0.08050007  0.12500000  1
  Tc  Tc1_5  1  0.56767057  0.08050007  0.62500000  1
  Tc  Tc1_6  1  0.56767057  0.58050007  0.12500000  1
  Tc  Tc1_7  1  0.56767057  0.58050007  0.62500000  1
  Tc  Tc2_0  1  0.01199211  0.43213543  0.12500000  1
  Tc  Tc2_1  1  0.01199211  0.43213543  0.62500000  1
  Tc  Tc2_2  1  0.01199211  0.93213543  0.12500000  1
  Tc  Tc2_3  1  0.01199211  0.93213543  0.62500000  1
  Tc  Tc2_4  1  0.51199211  0.43213543  0.12500000  1
  Tc  Tc2_5  1  0.51199211  0.43213543  0.62500000  1
  Tc  Tc2_6  1  0.51199211  0.93213543  0.12500000  1
  Tc  Tc2_7  1  0.51199211  0.93213543  0.62500000  1
  Tc  Tc3_0  1  0.07734614  0.01208595  0.37500000  1
  Tc  Tc3_1  1  0.07734614  0.01208595  0.87500000  1
  Tc  Tc3_2  1  0.07734614  0.51208595  0.37500000  1
  Tc  Tc3_3  1  0.07734614  0.51208595  0.87500000  1
  Tc  Tc3_4  1  0.57734614  0.01208595  0.37500000  1
  Tc  Tc3_5  1  0.57734614  0.01208595  0.87500000  1
  Tc  Tc3_6  1  0.57734614  0.51208595  0.37500000  1
  Tc  Tc3_7  1  0.57734614  0.51208595  0.87500000  1
  Te  Te0_0  1  0.16852191  0.02675084  0.12500000  1
  Te  Te0_1  1  0.16852191  0.02675084  0.62500000  1
  Te  Te0_2  1  0.16852191  0.52675084  0.12500000  1
  Te  Te0_3  1  0.16852191  0.52675084  0.62500000  1
  Te  Te0_4  1  0.66852191  0.02675084  0.12500000  1
  Te  Te0_5  1  0.66852191  0.02675084  0.62500000  1
  Te  Te0_6  1  0.66852191  0.52675084  0.12500000  1
  Te  Te0_7  1  0.66852191  0.52675084  0.62500000  1
  Te  Te1_0  1  0.47640848  0.14671077  0.12500000  1
  Te  Te1_1  1  0.47640848  0.14671077  0.62500000  1
  Te  Te1_2  1  0.47640848  0.64671077  0.12500000  1
  Te  Te1_3  1  0.47640848  0.64671077  0.62500000  1
  Te  Te1_4  1  0.97640848  0.14671077  0.12500000  1
  Te  Te1_5  1  0.97640848  0.14671077  0.62500000  1
  Te  Te1_6  1  0.97640848  0.64671077  0.12500000  1
  Te  Te1_7  1  0.97640848  0.64671077  0.62500000  1
  Te  Te2_0  1  0.35669324  0.32707461  0.12500000  1
  Te  Te2_1  1  0.35669324  0.32707461  0.62500000  1
  Te  Te2_2  1  0.35669324  0.82707461  0.12500000  1
  Te  Te2_3  1  0.35669324  0.82707461  0.62500000  1
  Te  Te2_4  1  0.85669324  0.32707461  0.12500000  1
  Te  Te2_5  1  0.85669324  0.32707461  0.62500000  1
  Te  Te2_6  1  0.85669324  0.82707461  0.12500000  1
  Te  Te2_7  1  0.85669324  0.82707461  0.62500000  1
  Te  Te3_0  1  0.32339247  0.47307185  0.37500000  1
  Te  Te3_1  1  0.32339247  0.47307185  0.87500000  1
  Te  Te3_2  1  0.32339247  0.97307185  0.37500000  1
  Te  Te3_3  1  0.32339247  0.97307185  0.87500000  1
  Te  Te3_4  1  0.82339247  0.47307185  0.37500000  1
  Te  Te3_5  1  0.82339247  0.47307185  0.87500000  1
  Te  Te3_6  1  0.82339247  0.97307185  0.37500000  1
  Te  Te3_7  1  0.82339247  0.97307185  0.87500000  1
  Te  Te4_0  1  0.15165988  0.17178267  0.37500000  1
  Te  Te4_1  1  0.15165988  0.17178267  0.87500000  1
  Te  Te4_2  1  0.15165988  0.67178267  0.37500000  1
  Te  Te4_3  1  0.15165988  0.67178267  0.87500000  1
  Te  Te4_4  1  0.65165988  0.17178267  0.37500000  1
  Te  Te4_5  1  0.65165988  0.17178267  0.87500000  1
  Te  Te4_6  1  0.65165988  0.67178267  0.37500000  1
  Te  Te4_7  1  0.65165988  0.67178267  0.87500000  1
  Te  Te5_0  1  0.03142787  0.35633016  0.37500000  1
  Te  Te5_1  1  0.03142787  0.35633016  0.87500000  1
  Te  Te5_2  1  0.03142787  0.85633016  0.37500000  1
  Te  Te5_3  1  0.03142787  0.85633016  0.87500000  1
  Te  Te5_4  1  0.53142787  0.35633016  0.37500000  1
  Te  Te5_5  1  0.53142787  0.35633016  0.87500000  1
  Te  Te5_6  1  0.53142787  0.85633016  0.37500000  1
  Te  Te5_7  1  0.53142787  0.85633016  0.87500000  1
loop_
_geom_bond_atom_site_label_1
_geom_bond_atom_site_label_2
_geom_bond_distance
_geom_bond_site_symmetry_2
Rb0_0 Te3_0 3.682140 1_555
Rb0_0 Te3_1 3.682140 1_554
Rb0_0 Te5_1 3.809830 1_554
Rb0_0 Te5_0 3.809830 1_555
Rb0_0 Te4_0 3.819475 1_555
Rb0_0 Te4_1 3.819475 1_554
Rb0_0 Te1_4 3.831319 1_455
Rb0_0 Te0_2 3.832213 1_555
Rb0_0 Te2_0 3.853701 1_555
Rb0_1 Te3_0 3.682140 1_555
Rb0_1 Te3_1 3.682140 1_555
Rb0_1 Te5_0 3.809830 1_555
Rb0_1 Te5_1 3.809830 1_555
Rb0_1 Te4_1 3.819475 1_555
Rb0_1 Te4_0 3.819475 1_555
Rb0_1 Te1_5 3.831319 1_455
Rb0_1 Te0_3 3.832213 1_555
Rb0_1 Te2_1 3.853701 1_555
Rb0_2 Te3_3 3.682140 1_554
Rb0_2 Te3_2 3.682140 1_555
Rb0_2 Te5_2 3.809830 1_555
Rb0_2 Te5_3 3.809830 1_554
Rb0_2 Te4_2 3.819475 1_555
Rb0_2 Te4_3 3.819475 1_554
Rb0_2 Te1_6 3.831319 1_455
Rb0_2 Te0_0 3.832213 1_565
Rb0_2 Te2_2 3.853701 1_555
Rb0_3 Te3_3 3.682140 1_555
Rb0_3 Te3_2 3.682140 1_555
Rb0_3 Te5_2 3.809830 1_555
Rb0_3 Te5_3 3.809830 1_555
Rb0_3 Te4_2 3.819475 1_555
Rb0_3 Te4_3 3.819475 1_555
Rb0_3 Te1_7 3.831319 1_455
Rb0_3 Te0_1 3.832213 1_565
Rb0_3 Te2_3 3.853701 1_555
Rb0_4 Te3_4 3.682140 1_555
Rb0_4 Te3_5 3.682140 1_554
Rb0_4 Te5_4 3.809830 1_555
Rb0_4 Te5_5 3.809830 1_554
Rb0_4 Te4_5 3.819475 1_554
Rb0_4 Te4_4 3.819475 1_555
Rb0_4 Te1_0 3.831319 1_555
Rb0_4 Te0_6 3.832213 1_555
Rb0_4 Te2_4 3.853701 1_555
Rb0_5 Te3_4 3.682140 1_555
Rb0_5 Te3_5 3.682140 1_555
Rb0_5 Te5_5 3.809830 1_555
Rb0_5 Te5_4 3.809830 1_555
Rb0_5 Te4_5 3.819475 1_555
Rb0_5 Te4_4 3.819475 1_555
Rb0_5 Te1_1 3.831319 1_555
Rb0_5 Te0_7 3.832213 1_555
Rb0_5 Te2_5 3.853701 1_555
Rb0_6 Te3_6 3.682140 1_555
Rb0_6 Te3_7 3.682140 1_554
Rb0_6 Te5_6 3.809830 1_555
Rb0_6 Te5_7 3.809830 1_554
Rb0_6 Te4_7 3.819475 1_554
Rb0_6 Te4_6 3.819475 1_555
Rb0_6 Te1_2 3.831319 1_555
Rb0_6 Te0_4 3.832213 1_565
Rb0_6 Te2_6 3.853701 1_555
Rb0_7 Te3_6 3.682140 1_555
Rb0_7 Te3_7 3.682140 1_555
Rb0_7 Te5_6 3.809830 1_555
Rb0_7 Te5_7 3.809830 1_555
Rb0_7 Te4_7 3.819475 1_555
Rb0_7 Te4_6 3.819475 1_555
Rb0_7 Te1_3 3.831319 1_555
Rb0_7 Te0_5 3.832213 1_565
Rb0_7 Te2_7 3.853701 1_555
Rb1_0 Te3_2 3.705841 1_545
Rb1_0 Te2_1 3.778317 1_555
Rb1_0 Te2_0 3.778317 1_555
Rb1_0 Te4_0 3.781579 1_555
Rb1_0 Te0_1 3.820476 1_555
Rb1_0 Te0_0 3.820476 1_555
Rb1_0 Te1_1 3.820595 1_555
Rb1_0 Te1_0 3.820595 1_555
Rb1_0 Te5_4 3.880992 1_555
Rb1_0 Rb1_1 4.521128 1_554
Rb1_0 Rb1_1 4.521128 1_555
Rb1_1 Te3_3 3.705841 1_545
Rb1_1 Te2_0 3.778317 1_556
Rb1_1 Te2_1 3.778317 1_555
Rb1_1 Te4_1 3.781579 1_555
Rb1_1 Te0_1 3.820476 1_555
Rb1_1 Te0_0 3.820476 1_556
Rb1_1 Te1_1 3.820595 1_555
Rb1_1 Te1_0 3.820595 1_556
Rb1_1 Te5_5 3.880992 1_555
Rb1_2 Te3_0 3.705841 1_555
Rb1_2 Te2_2 3.778317 1_555
Rb1_2 Te2_3 3.778317 1_555
Rb1_2 Te4_2 3.781579 1_555
Rb1_2 Te0_3 3.820476 1_555
Rb1_2 Te0_2 3.820476 1_555
Rb1_2 Te1_2 3.820595 1_555
Rb1_2 Te1_3 3.820595 1_555
Rb1_2 Te5_6 3.880992 1_555
Rb1_2 Rb1_3 4.521128 1_554
Rb1_2 Rb1_3 4.521128 1_555
Rb1_3 Te3_1 3.705841 1_555
Rb1_3 Te2_2 3.778317 1_556
Rb1_3 Te2_3 3.778317 1_555
Rb1_3 Te4_3 3.781579 1_555
Rb1_3 Te0_3 3.820476 1_555
Rb1_3 Te0_2 3.820476 1_556
Rb1_3 Te1_2 3.820595 1_556
Rb1_3 Te1_3 3.820595 1_555
Rb1_3 Te5_7 3.880992 1_555
Rb1_4 Te3_6 3.705841 1_545
Rb1_4 Te2_4 3.778317 1_555
Rb1_4 Te2_5 3.778317 1_555
Rb1_4 Te4_4 3.781579 1_555
Rb1_4 Te0_4 3.820476 1_555
Rb1_4 Te0_5 3.820476 1_555
Rb1_4 Te1_5 3.820595 1_555
Rb1_4 Te1_4 3.820595 1_555
Rb1_4 Te5_0 3.880992 1_655
Rb1_4 Rb1_5 4.521128 1_555
Rb1_4 Rb1_5 4.521128 1_554
Rb1_5 Te3_7 3.705841 1_545
Rb1_5 Te2_4 3.778317 1_556
Rb1_5 Te2_5 3.778317 1_555
Rb1_5 Te4_5 3.781579 1_555
Rb1_5 Te0_5 3.820476 1_555
Rb1_5 Te0_4 3.820476 1_556
Rb1_5 Te1_4 3.820595 1_556
Rb1_5 Te1_5 3.820595 1_555
Rb1_5 Te5_1 3.880992 1_655
Rb1_6 Te3_4 3.705841 1_555
Rb1_6 Te2_6 3.778317 1_555
Rb1_6 Te2_7 3.778317 1_555
Rb1_6 Te4_6 3.781579 1_555
Rb1_6 Te0_6 3.820476 1_555
Rb1_6 Te0_7 3.820476 1_555
Rb1_6 Te1_7 3.820595 1_555
Rb1_6 Te1_6 3.820595 1_555
Rb1_6 Te5_2 3.880992 1_655
Rb1_6 Rb1_7 4.521128 1_555
Rb1_6 Rb1_7 4.521128 1_554
Rb1_7 Te3_5 3.705841 1_555
Rb1_7 Te2_6 3.778317 1_556
Rb1_7 Te2_7 3.778317 1_555
Rb1_7 Te4_7 3.781579 1_555
Rb1_7 Te0_7 3.820476 1_555
Rb1_7 Te0_6 3.820476 1_556
Rb1_7 Te1_7 3.820595 1_555
Rb1_7 Te1_6 3.820595 1_556
Rb1_7 Te5_3 3.880992 1_655
Ti0_0 Ti1_2 2.694372 1_545
Ti0_1 Ti1_3 2.694372 1_545
Ti0_2 Ti1_0 2.694372 1_555
Ti0_3 Ti1_1 2.694372 1_555
Ti0_4 Ti1_6 2.694372 1_545
Ti0_5 Ti1_7 2.694372 1_545
Ti0_6 Ti1_4 2.694372 1_555
Ti0_7 Ti1_5 2.694372 1_555
Tc0_0 Tc2_4 2.669995 1_555
Tc0_0 Tc1_6 2.671226 1_555
Tc0_0 Ti1_1 2.738800 1_554
Tc0_0 Ti1_0 2.738800 1_555
Tc0_0 Ti0_3 2.744656 1_554
Tc0_0 Ti0_2 2.744656 1_555
Tc0_0 Te2_0 2.767659 1_555
Tc0_0 Te1_2 2.772108 1_555
Tc0_0 Te3_0 2.862458 1_555
Tc0_0 Te3_1 2.862458 1_554
Tc0_1 Tc2_5 2.669995 1_555
Tc0_1 Tc1_7 2.671226 1_555
Tc0_1 Ti1_1 2.738800 1_555
Tc0_1 Ti1_0 2.738800 1_555
Tc0_1 Ti0_2 2.744656 1_555
Tc0_1 Ti0_3 2.744656 1_555
Tc0_1 Te2_1 2.767659 1_555
Tc0_1 Te1_3 2.772108 1_555
Tc0_1 Te3_0 2.862458 1_555
Tc0_1 Te3_1 2.862458 1_555
Tc0_2 Tc2_6 2.669995 1_555
Tc0_2 Tc1_4 2.671226 1_565
Tc0_2 Ti1_3 2.738800 1_554
Tc0_2 Ti1_2 2.738800 1_555
Tc0_2 Ti0_0 2.744656 1_565
Tc0_2 Ti0_1 2.744656 1_564
Tc0_2 Te2_2 2.767659 1_555
Tc0_2 Te1_0 2.772108 1_565
Tc0_2 Te3_2 2.862458 1_555
Tc0_2 Te3_3 2.862458 1_554
Tc0_3 Tc2_7 2.669995 1_555
Tc0_3 Tc1_5 2.671226 1_565
Tc0_3 Ti1_2 2.738800 1_555
Tc0_3 Ti1_3 2.738800 1_555
Tc0_3 Ti0_1 2.744656 1_565
Tc0_3 Ti0_0 2.744656 1_565
Tc0_3 Te2_3 2.767659 1_555
Tc0_3 Te1_1 2.772108 1_565
Tc0_3 Te3_3 2.862458 1_555
Tc0_3 Te3_2 2.862458 1_555
Tc0_4 Tc2_0 2.669995 1_655
Tc0_4 Tc1_2 2.671226 1_655
Tc0_4 Ti1_5 2.738800 1_554
Tc0_4 Ti1_4 2.738800 1_555
Tc0_4 Ti0_6 2.744656 1_555
Tc0_4 Ti0_7 2.744656 1_554
Tc0_4 Te2_4 2.767659 1_555
Tc0_4 Te1_6 2.772108 1_555
Tc0_4 Te3_5 2.862458 1_554
Tc0_4 Te3_4 2.862458 1_555
Tc0_5 Tc2_1 2.669995 1_655
Tc0_5 Tc1_3 2.671226 1_655
Tc0_5 Ti1_5 2.738800 1_555
Tc0_5 Ti1_4 2.738800 1_555
Tc0_5 Ti0_6 2.744656 1_555
Tc0_5 Ti0_7 2.744656 1_555
Tc0_5 Te2_5 2.767659 1_555
Tc0_5 Te1_7 2.772108 1_555
Tc0_5 Te3_4 2.862458 1_555
Tc0_5 Te3_5 2.862458 1_555
Tc0_6 Tc2_2 2.669995 1_655
Tc0_6 Tc1_0 2.671226 1_665
Tc0_6 Ti1_6 2.738800 1_555
Tc0_6 Ti1_7 2.738800 1_554
Tc0_6 Ti0_4 2.744656 1_565
Tc0_6 Ti0_5 2.744656 1_564
Tc0_6 Te2_6 2.767659 1_555
Tc0_6 Te1_4 2.772108 1_565
Tc0_6 Te3_7 2.862458 1_554
Tc0_6 Te3_6 2.862458 1_555
Tc0_7 Tc2_3 2.669995 1_655
Tc0_7 Tc1_1 2.671226 1_665
Tc0_7 Ti1_6 2.738800 1_555
Tc0_7 Ti1_7 2.738800 1_555
Tc0_7 Ti0_4 2.744656 1_565
Tc0_7 Ti0_5 2.744656 1_565
Tc0_7 Te2_7 2.767659 1_555
Tc0_7 Te1_5 2.772108 1_565
Tc0_7 Te3_7 2.862458 1_555
Tc0_7 Te3_6 2.862458 1_555
Tc1_0 Tc2_2 2.571035 1_545
Tc1_0 Tc3_1 2.697106 1_554
Tc1_0 Tc3_0 2.697106 1_555
Tc1_0 Te0_0 2.748947 1_555
Tc1_0 Ti0_4 2.751150 1_455
Tc1_0 Ti0_5 2.751150 1_454
Tc1_0 Te1_4 2.764972 1_455
Tc1_0 Te4_1 2.858895 1_554
Tc1_0 Te4_0 2.858895 1_555
Tc1_1 Tc2_3 2.571035 1_545
Tc1_1 Tc3_0 2.697106 1_555
Tc1_1 Tc3_1 2.697106 1_555
Tc1_1 Te0_1 2.748947 1_555
Tc1_1 Ti0_4 2.751150 1_455
Tc1_1 Ti0_5 2.751150 1_455
Tc1_1 Te1_5 2.764972 1_455
Tc1_1 Te4_1 2.858895 1_555
Tc1_1 Te4_0 2.858895 1_555
Tc1_2 Tc2_0 2.571035 1_555
Tc1_2 Tc3_2 2.697106 1_555
Tc1_2 Tc3_3 2.697106 1_554
Tc1_2 Te0_2 2.748947 1_555
Tc1_2 Ti0_6 2.751150 1_455
Tc1_2 Ti0_7 2.751150 1_454
Tc1_2 Te1_6 2.764972 1_455
Tc1_2 Te4_3 2.858895 1_554
Tc1_2 Te4_2 2.858895 1_555
Tc1_3 Tc2_1 2.571035 1_555
Tc1_3 Tc3_2 2.697106 1_555
Tc1_3 Tc3_3 2.697106 1_555
Tc1_3 Te0_3 2.748947 1_555
Tc1_3 Ti0_6 2.751150 1_455
Tc1_3 Ti0_7 2.751150 1_455
Tc1_3 Te1_7 2.764972 1_455
Tc1_3 Te4_2 2.858895 1_555
Tc1_3 Te4_3 2.858895 1_555
Tc1_4 Tc2_6 2.571035 1_545
Tc1_4 Tc3_5 2.697106 1_554
Tc1_4 Tc3_4 2.697106 1_555
Tc1_4 Te0_4 2.748947 1_555
Tc1_4 Ti0_0 2.751150 1_555
Tc1_4 Ti0_1 2.751150 1_554
Tc1_4 Te1_0 2.764972 1_555
Tc1_4 Te4_5 2.858895 1_554
Tc1_4 Te4_4 2.858895 1_555
Tc1_5 Tc2_7 2.571035 1_545
Tc1_5 Tc3_5 2.697106 1_555
Tc1_5 Tc3_4 2.697106 1_555
Tc1_5 Te0_5 2.748947 1_555
Tc1_5 Ti0_0 2.751150 1_555
Tc1_5 Ti0_1 2.751150 1_555
Tc1_5 Te1_1 2.764972 1_555
Tc1_5 Te4_5 2.858895 1_555
Tc1_5 Te4_4 2.858895 1_555
Tc1_6 Tc2_4 2.571035 1_555
Tc1_6 Tc3_6 2.697106 1_555
Tc1_6 Tc3_7 2.697106 1_554
Tc1_6 Te0_6 2.748947 1_555
Tc1_6 Ti0_2 2.751150 1_555
Tc1_6 Ti0_3 2.751150 1_554
Tc1_6 Te1_2 2.764972 1_555
Tc1_6 Te4_7 2.858895 1_554
Tc1_6 Te4_6 2.858895 1_555
Tc1_7 Tc2_5 2.571035 1_555
Tc1_7 Tc3_7 2.697106 1_555
Tc1_7 Tc3_6 2.697106 1_555
Tc1_7 Te0_7 2.748947 1_555
Tc1_7 Ti0_2 2.751150 1_555
Tc1_7 Ti0_3 2.751150 1_555
Tc1_7 Te1_3 2.764972 1_555
Tc1_7 Te4_7 2.858895 1_555
Tc1_7 Te4_6 2.858895 1_555
Tc2_0 Tc3_2 2.694318 1_555
Tc2_0 Tc3_3 2.694318 1_554
Tc2_0 Te0_2 2.750694 1_555
Tc2_0 Ti1_4 2.756436 1_455
Tc2_0 Ti1_5 2.756436 1_454
Tc2_0 Te2_4 2.759911 1_455
Tc2_0 Te5_0 2.854191 1_555
Tc2_0 Te5_1 2.854191 1_554
Tc2_1 Tc3_2 2.694318 1_555
Tc2_1 Tc3_3 2.694318 1_555
Tc2_1 Te0_3 2.750694 1_555
Tc2_1 Ti1_5 2.756436 1_455
Tc2_1 Ti1_4 2.756436 1_455
Tc2_1 Te2_5 2.759911 1_455
Tc2_1 Te5_0 2.854191 1_555
Tc2_1 Te5_1 2.854191 1_555
Tc2_2 Tc3_1 2.694318 1_564
Tc2_2 Tc3_0 2.694318 1_565
Tc2_2 Te0_0 2.750694 1_565
Tc2_2 Ti1_6 2.756436 1_455
Tc2_2 Ti1_7 2.756436 1_454
Tc2_2 Te2_6 2.759911 1_455
Tc2_2 Te5_3 2.854191 1_554
Tc2_2 Te5_2 2.854191 1_555
Tc2_3 Tc3_1 2.694318 1_565
Tc2_3 Tc3_0 2.694318 1_565
Tc2_3 Te0_1 2.750694 1_565
Tc2_3 Ti1_6 2.756436 1_455
Tc2_3 Ti1_7 2.756436 1_455
Tc2_3 Te2_7 2.759911 1_455
Tc2_3 Te5_3 2.854191 1_555
Tc2_3 Te5_2 2.854191 1_555
Tc2_4 Tc3_6 2.694318 1_555
Tc2_4 Tc3_7 2.694318 1_554
Tc2_4 Te0_6 2.750694 1_555
Tc2_4 Ti1_1 2.756436 1_554
Tc2_4 Ti1_0 2.756436 1_555
Tc2_4 Te2_0 2.759911 1_555
Tc2_4 Te5_5 2.854191 1_554
Tc2_4 Te5_4 2.854191 1_555
Tc2_5 Tc3_7 2.694318 1_555
Tc2_5 Tc3_6 2.694318 1_555
Tc2_5 Te0_7 2.750694 1_555
Tc2_5 Ti1_1 2.756436 1_555
Tc2_5 Ti1_0 2.756436 1_555
Tc2_5 Te2_1 2.759911 1_555
Tc2_5 Te5_5 2.854191 1_555
Tc2_5 Te5_4 2.854191 1_555
Tc2_6 Tc3_4 2.694318 1_565
Tc2_6 Tc3_5 2.694318 1_564
Tc2_6 Te0_4 2.750694 1_565
Tc2_6 Ti1_2 2.756436 1_555
Tc2_6 Ti1_3 2.756436 1_554
Tc2_6 Te2_2 2.759911 1_555
Tc2_6 Te5_6 2.854191 1_555
Tc2_6 Te5_7 2.854191 1_554
Tc2_7 Tc3_5 2.694318 1_565
Tc2_7 Tc3_4 2.694318 1_565
Tc2_7 Te0_5 2.750694 1_565
Tc2_7 Ti1_2 2.756436 1_555
Tc2_7 Ti1_3 2.756436 1_555
Tc2_7 Te2_3 2.759911 1_555
Tc2_7 Te5_6 2.854191 1_555
Tc2_7 Te5_7 2.854191 1_555
Tc3_0 Ti0_4 2.647978 1_455
Tc3_0 Ti1_6 2.651092 1_445
Tc3_0 Te4_0 2.740819 1_555
Tc3_0 Te5_2 2.747156 1_545
Tc3_0 Te0_1 2.841007 1_555
Tc3_0 Te0_0 2.841007 1_555
Tc3_1 Ti0_5 2.647978 1_455
Tc3_1 Ti1_7 2.651092 1_445
Tc3_1 Te4_1 2.740819 1_555
Tc3_1 Te5_3 2.747156 1_545
Tc3_1 Te0_1 2.841007 1_555
Tc3_1 Te0_0 2.841007 1_556
Tc3_2 Ti0_6 2.647978 1_455
Tc3_2 Ti1_4 2.651092 1_455
Tc3_2 Te4_2 2.740819 1_555
Tc3_2 Te5_0 2.747156 1_555
Tc3_2 Te0_2 2.841007 1_555
Tc3_2 Te0_3 2.841007 1_555
Tc3_3 Ti0_7 2.647978 1_455
Tc3_3 Ti1_5 2.651092 1_455
Tc3_3 Te4_3 2.740819 1_555
Tc3_3 Te5_1 2.747156 1_555
Tc3_3 Te0_3 2.841007 1_555
Tc3_3 Te0_2 2.841007 1_556
Tc3_4 Ti0_0 2.647978 1_555
Tc3_4 Ti1_2 2.651092 1_545
Tc3_4 Te4_4 2.740819 1_555
Tc3_4 Te5_6 2.747156 1_545
Tc3_4 Te0_4 2.841007 1_555
Tc3_4 Te0_5 2.841007 1_555
Tc3_5 Ti0_1 2.647978 1_555
Tc3_5 Ti1_3 2.651092 1_545
Tc3_5 Te4_5 2.740819 1_555
Tc3_5 Te5_7 2.747156 1_545
Tc3_5 Te0_4 2.841007 1_556
Tc3_5 Te0_5 2.841007 1_555
Tc3_6 Ti0_2 2.647978 1_555
Tc3_6 Ti1_0 2.651092 1_555
Tc3_6 Te4_6 2.740819 1_555
Tc3_6 Te5_4 2.747156 1_555
Tc3_6 Te0_6 2.841007 1_555
Tc3_6 Te0_7 2.841007 1_555
Tc3_7 Ti0_3 2.647978 1_555
Tc3_7 Ti1_1 2.651092 1_555
Tc3_7 Te4_7 2.740819 1_555
Tc3_7 Te5_5 2.747156 1_555
Tc3_7 Te0_6 2.841007 1_556
Tc3_7 Te0_7 2.841007 1_555
Te1_0 Ti0_1 2.777971 1_554
Te1_0 Ti0_0 2.777971 1_555
Te1_1 Ti0_0 2.777971 1_555
Te1_1 Ti0_1 2.777971 1_555
Te1_2 Ti0_3 2.777971 1_554
Te1_2 Ti0_2 2.777971 1_555
Te1_3 Ti0_2 2.777971 1_555
Te1_3 Ti0_3 2.777971 1_555
Te1_4 Ti0_4 2.777971 1_555
Te1_4 Ti0_5 2.777971 1_554
Te1_5 Ti0_4 2.777971 1_555
Te1_5 Ti0_5 2.777971 1_555
Te1_6 Ti0_7 2.777971 1_554
Te1_6 Ti0_6 2.777971 1_555
Te1_7 Ti0_6 2.777971 1_555
Te1_7 Ti0_7 2.777971 1_555
Te2_0 Ti1_1 2.775152 1_554
Te2_0 Ti1_0 2.775152 1_555
Te2_1 Ti1_0 2.775152 1_555
Te2_1 Ti1_1 2.775152 1_555
Te2_2 Ti1_2 2.775152 1_555
Te2_2 Ti1_3 2.775152 1_554
Te2_3 Ti1_2 2.775152 1_555
Te2_3 Ti1_3 2.775152 1_555
Te2_4 Ti1_5 2.775152 1_554
Te2_4 Ti1_4 2.775152 1_555
Te2_5 Ti1_4 2.775152 1_555
Te2_5 Ti1_5 2.775152 1_555
Te2_6 Ti1_6 2.775152 1_555
Te2_6 Ti1_7 2.775152 1_554
Te2_7 Ti1_6 2.775152 1_555
Te2_7 Ti1_7 2.775152 1_555
Te3_0 Ti0_2 2.859093 1_555
Te3_0 Ti1_0 2.865365 1_555
Te3_1 Ti0_3 2.859093 1_555
Te3_1 Ti1_1 2.865365 1_555
Te3_2 Ti0_0 2.859093 1_565
Te3_2 Ti1_2 2.865365 1_555
Te3_3 Ti0_1 2.859093 1_565
Te3_3 Ti1_3 2.865365 1_555
Te3_4 Ti0_6 2.859093 1_555
Te3_4 Ti1_4 2.865365 1_555
Te3_5 Ti0_7 2.859093 1_555
Te3_5 Ti1_5 2.865365 1_555
Te3_6 Ti0_4 2.859093 1_565
Te3_6 Ti1_6 2.865365 1_555
Te3_7 Ti0_5 2.859093 1_565
Te3_7 Ti1_7 2.865365 1_555
Te4_0 Ti0_4 2.910143 1_455
Te4_1 Ti0_5 2.910143 1_455
Te4_2 Ti0_6 2.910143 1_455
Te4_3 Ti0_7 2.910143 1_455
Te4_4 Ti0_0 2.910143 1_555
Te4_5 Ti0_1 2.910143 1_555
Te4_6 Ti0_2 2.910143 1_555
Te4_7 Ti0_3 2.910143 1_555
Te5_0 Ti1_4 2.895252 1_455
Te5_1 Ti1_5 2.895252 1_455
Te5_2 Ti1_6 2.895252 1_455
Te5_3 Ti1_7 2.895252 1_455
Te5_4 Ti1_0 2.895252 1_555
Te5_5 Ti1_1 2.895252 1_555
Te5_6 Ti1_2 2.895252 1_555
Te5_7 Ti1_3 2.895252 1_555
