# generated using pymatgen
data_Ca2NiRhI
_symmetry_space_group_name_H-M   'P 1'
_cell_length_a   8.29206466
_cell_length_b   8.29206536
_cell_length_c   33.61618283
_cell_angle_alpha   90.00000000
_cell_angle_beta   90.00000000
_cell_angle_gamma   119.99998939
_symmetry_Int_Tables_number   1
_chemical_formula_structural   Ca2NiRhI
_chemical_formula_sum   'Ca32 Ni16 Rh16 I16'
_cell_volume   2001.72527005
_cell_formula_units_Z   16
loop_
 _symmetry_equiv_pos_site_id
 _symmetry_equiv_pos_as_xyz
  1  'x, y, z'
loop_
 _atom_site_type_symbol
 _atom_site_label
 _atom_site_symmetry_multiplicity
 _atom_site_fract_x
 _atom_site_fract_y
 _atom_site_fract_z
 _atom_site_occupancy
  Ca  Ca0_0  1  0.00000000  0.00000000  0.30373480  1
  Ca  Ca0_1  1  0.00000000  0.00000000  0.80373480  1
  Ca  Ca0_2  1  0.00000000  0.50000000  0.30373480  1
  Ca  Ca0_3  1  0.00000000  0.50000000  0.80373480  1
  Ca  Ca0_4  1  0.50000000  0.00000000  0.30373480  1
  Ca  Ca0_5  1  0.50000000  0.00000000  0.80373480  1
  Ca  Ca0_6  1  0.50000000  0.50000000  0.30373480  1
  Ca  Ca0_7  1  0.50000000  0.50000000  0.80373480  1
  Ca  Ca1_0  1  0.00000000  0.00000000  0.19640070  1
  Ca  Ca1_1  1  0.00000000  0.00000000  0.69640070  1
  Ca  Ca1_2  1  0.00000000  0.50000000  0.19640070  1
  Ca  Ca1_3  1  0.00000000  0.50000000  0.69640070  1
  Ca  Ca1_4  1  0.50000000  0.00000000  0.19640070  1
  Ca  Ca1_5  1  0.50000000  0.00000000  0.69640070  1
  Ca  Ca1_6  1  0.50000000  0.50000000  0.19640070  1
  Ca  Ca1_7  1  0.50000000  0.50000000  0.69640070  1
  Ca  Ca2_0  1  0.00000000  0.00000000  0.05373480  1
  Ca  Ca2_1  1  0.00000000  0.00000000  0.55373480  1
  Ca  Ca2_2  1  0.00000000  0.50000000  0.05373480  1
  Ca  Ca2_3  1  0.00000000  0.50000000  0.55373480  1
  Ca  Ca2_4  1  0.50000000  0.00000000  0.05373480  1
  Ca  Ca2_5  1  0.50000000  0.00000000  0.55373480  1
  Ca  Ca2_6  1  0.50000000  0.50000000  0.05373480  1
  Ca  Ca2_7  1  0.50000000  0.50000000  0.55373480  1
  Ca  Ca3_0  1  0.00000000  0.00000000  0.44640070  1
  Ca  Ca3_1  1  0.00000000  0.00000000  0.94640070  1
  Ca  Ca3_2  1  0.00000000  0.50000000  0.44640070  1
  Ca  Ca3_3  1  0.00000000  0.50000000  0.94640070  1
  Ca  Ca3_4  1  0.50000000  0.00000000  0.44640070  1
  Ca  Ca3_5  1  0.50000000  0.00000000  0.94640070  1
  Ca  Ca3_6  1  0.50000000  0.50000000  0.44640070  1
  Ca  Ca3_7  1  0.50000000  0.50000000  0.94640070  1
  Ni  Ni0_0  1  0.33333350  0.16666650  0.49938340  1
  Ni  Ni0_1  1  0.33333350  0.16666650  0.99938340  1
  Ni  Ni0_2  1  0.33333350  0.66666650  0.49938340  1
  Ni  Ni0_3  1  0.33333350  0.66666650  0.99938340  1
  Ni  Ni0_4  1  0.83333350  0.16666650  0.49938340  1
  Ni  Ni0_5  1  0.83333350  0.16666650  0.99938340  1
  Ni  Ni0_6  1  0.83333350  0.66666650  0.49938340  1
  Ni  Ni0_7  1  0.83333350  0.66666650  0.99938340  1
  Ni  Ni1_0  1  0.16666650  0.33333350  0.24938340  1
  Ni  Ni1_1  1  0.16666650  0.33333350  0.74938340  1
  Ni  Ni1_2  1  0.16666650  0.83333350  0.24938340  1
  Ni  Ni1_3  1  0.16666650  0.83333350  0.74938340  1
  Ni  Ni1_4  1  0.66666650  0.33333350  0.24938340  1
  Ni  Ni1_5  1  0.66666650  0.33333350  0.74938340  1
  Ni  Ni1_6  1  0.66666650  0.83333350  0.24938340  1
  Ni  Ni1_7  1  0.66666650  0.83333350  0.74938340  1
  Rh  Rh0_0  1  0.33333350  0.16666650  0.25043016  1
  Rh  Rh0_1  1  0.33333350  0.16666650  0.75043016  1
  Rh  Rh0_2  1  0.33333350  0.66666650  0.25043016  1
  Rh  Rh0_3  1  0.33333350  0.66666650  0.75043016  1
  Rh  Rh0_4  1  0.83333350  0.16666650  0.25043016  1
  Rh  Rh0_5  1  0.83333350  0.16666650  0.75043016  1
  Rh  Rh0_6  1  0.83333350  0.66666650  0.25043016  1
  Rh  Rh0_7  1  0.83333350  0.66666650  0.75043016  1
  Rh  Rh1_0  1  0.16666650  0.33333350  0.00043016  1
  Rh  Rh1_1  1  0.16666650  0.33333350  0.50043016  1
  Rh  Rh1_2  1  0.16666650  0.83333350  0.00043016  1
  Rh  Rh1_3  1  0.16666650  0.83333350  0.50043016  1
  Rh  Rh1_4  1  0.66666650  0.33333350  0.00043016  1
  Rh  Rh1_5  1  0.66666650  0.33333350  0.50043016  1
  Rh  Rh1_6  1  0.66666650  0.83333350  0.00043016  1
  Rh  Rh1_7  1  0.66666650  0.83333350  0.50043016  1
  I  I0_0  1  0.33333350  0.16666650  0.12505144  1
  I  I0_1  1  0.33333350  0.16666650  0.62505144  1
  I  I0_2  1  0.33333350  0.66666650  0.12505144  1
  I  I0_3  1  0.33333350  0.66666650  0.62505144  1
  I  I0_4  1  0.83333350  0.16666650  0.12505144  1
  I  I0_5  1  0.83333350  0.16666650  0.62505144  1
  I  I0_6  1  0.83333350  0.66666650  0.12505144  1
  I  I0_7  1  0.83333350  0.66666650  0.62505144  1
  I  I1_0  1  0.16666650  0.33333350  0.37505144  1
  I  I1_1  1  0.16666650  0.33333350  0.87505144  1
  I  I1_2  1  0.16666650  0.83333350  0.37505144  1
  I  I1_3  1  0.16666650  0.83333350  0.87505144  1
  I  I1_4  1  0.66666650  0.33333350  0.37505144  1
  I  I1_5  1  0.66666650  0.33333350  0.87505144  1
  I  I1_6  1  0.66666650  0.83333350  0.37505144  1
  I  I1_7  1  0.66666650  0.83333350  0.87505144  1
loop_
_geom_bond_atom_site_label_1
_geom_bond_atom_site_label_2
_geom_bond_distance
_geom_bond_site_symmetry_2
Ca0_0 Rh0_4 2.990109 1_455
Ca0_0 Rh0_0 2.990112 1_555
Ca0_0 Rh0_6 2.990112 1_445
Ca0_0 Ni1_2 3.011328 1_545
Ca0_0 Ni1_6 3.011331 1_445
Ca0_0 Ni1_0 3.011331 1_555
Ca0_0 I1_2 3.387823 1_545
Ca0_0 I1_6 3.387826 1_445
Ca0_0 I1_0 3.387826 1_555
Ca0_1 Rh0_5 2.990109 1_455
Ca0_1 Rh0_1 2.990112 1_555
Ca0_1 Rh0_7 2.990112 1_445
Ca0_1 Ni1_3 3.011328 1_545
Ca0_1 Ni1_7 3.011331 1_445
Ca0_1 Ni1_1 3.011331 1_555
Ca0_1 I1_3 3.387823 1_545
Ca0_1 I1_7 3.387826 1_445
Ca0_1 I1_1 3.387826 1_555
Ca0_2 Rh0_6 2.990109 1_455
Ca0_2 Rh0_2 2.990112 1_555
Ca0_2 Rh0_4 2.990112 1_455
Ca0_2 Ni1_0 3.011328 1_555
Ca0_2 Ni1_4 3.011331 1_455
Ca0_2 Ni1_2 3.011331 1_555
Ca0_2 I1_0 3.387823 1_555
Ca0_2 I1_4 3.387826 1_455
Ca0_2 I1_2 3.387826 1_555
Ca0_3 Rh0_7 2.990109 1_455
Ca0_3 Rh0_3 2.990112 1_555
Ca0_3 Rh0_5 2.990112 1_455
Ca0_3 Ni1_1 3.011328 1_555
Ca0_3 Ni1_5 3.011331 1_455
Ca0_3 Ni1_3 3.011331 1_555
Ca0_3 I1_1 3.387823 1_555
Ca0_3 I1_5 3.387826 1_455
Ca0_3 I1_3 3.387826 1_555
Ca0_4 Rh0_0 2.990109 1_555
Ca0_4 Rh0_4 2.990112 1_555
Ca0_4 Rh0_2 2.990112 1_545
Ca0_4 Ni1_6 3.011328 1_545
Ca0_4 Ni1_2 3.011331 1_545
Ca0_4 Ni1_4 3.011331 1_555
Ca0_4 I1_6 3.387823 1_545
Ca0_4 I1_2 3.387826 1_545
Ca0_4 I1_4 3.387826 1_555
Ca0_5 Rh0_1 2.990109 1_555
Ca0_5 Rh0_5 2.990112 1_555
Ca0_5 Rh0_3 2.990112 1_545
Ca0_5 Ni1_7 3.011328 1_545
Ca0_5 Ni1_3 3.011331 1_545
Ca0_5 Ni1_5 3.011331 1_555
Ca0_5 I1_7 3.387823 1_545
Ca0_5 I1_3 3.387826 1_545
Ca0_5 I1_5 3.387826 1_555
Ca0_6 Rh0_2 2.990109 1_555
Ca0_6 Rh0_6 2.990112 1_555
Ca0_6 Rh0_0 2.990112 1_555
Ca0_6 Ni1_4 3.011328 1_555
Ca0_6 Ni1_0 3.011331 1_555
Ca0_6 Ni1_6 3.011331 1_555
Ca0_6 I1_4 3.387823 1_555
Ca0_6 I1_0 3.387826 1_555
Ca0_6 I1_6 3.387826 1_555
Ca0_7 Rh0_3 2.990109 1_555
Ca0_7 Rh0_7 2.990112 1_555
Ca0_7 Rh0_1 2.990112 1_555
Ca0_7 Ni1_5 3.011328 1_555
Ca0_7 Ni1_1 3.011331 1_555
Ca0_7 Ni1_7 3.011331 1_555
Ca0_7 I1_5 3.387823 1_555
Ca0_7 I1_1 3.387826 1_555
Ca0_7 I1_7 3.387826 1_555
Ca1_0 Ni1_2 2.983636 1_545
Ca1_0 Ni1_6 2.983639 1_445
Ca1_0 Ni1_0 2.983639 1_555
Ca1_0 Rh0_4 3.004774 1_455
Ca1_0 Rh0_0 3.004777 1_555
Ca1_0 Rh0_6 3.004777 1_445
Ca1_0 I0_4 3.388599 1_455
Ca1_0 I0_0 3.388602 1_555
Ca1_0 I0_6 3.388602 1_445
Ca1_1 Ni1_3 2.983636 1_545
Ca1_1 Ni1_7 2.983639 1_445
Ca1_1 Ni1_1 2.983639 1_555
Ca1_1 Rh0_5 3.004774 1_455
Ca1_1 Rh0_1 3.004777 1_555
Ca1_1 Rh0_7 3.004777 1_445
Ca1_1 I0_5 3.388599 1_455
Ca1_1 I0_1 3.388602 1_555
Ca1_1 I0_7 3.388602 1_445
Ca1_2 Ni1_0 2.983636 1_555
Ca1_2 Ni1_4 2.983639 1_455
Ca1_2 Ni1_2 2.983639 1_555
Ca1_2 Rh0_6 3.004774 1_455
Ca1_2 Rh0_2 3.004777 1_555
Ca1_2 Rh0_4 3.004777 1_455
Ca1_2 I0_6 3.388599 1_455
Ca1_2 I0_2 3.388602 1_555
Ca1_2 I0_4 3.388602 1_455
Ca1_3 Ni1_1 2.983636 1_555
Ca1_3 Ni1_5 2.983639 1_455
Ca1_3 Ni1_3 2.983639 1_555
Ca1_3 Rh0_7 3.004774 1_455
Ca1_3 Rh0_3 3.004777 1_555
Ca1_3 Rh0_5 3.004777 1_455
Ca1_3 I0_7 3.388599 1_455
Ca1_3 I0_3 3.388602 1_555
Ca1_3 I0_5 3.388602 1_455
Ca1_4 Ni1_6 2.983636 1_545
Ca1_4 Ni1_2 2.983639 1_545
Ca1_4 Ni1_4 2.983639 1_555
Ca1_4 Rh0_0 3.004774 1_555
Ca1_4 Rh0_4 3.004777 1_555
Ca1_4 Rh0_2 3.004777 1_545
Ca1_4 I0_0 3.388599 1_555
Ca1_4 I0_4 3.388602 1_555
Ca1_4 I0_2 3.388602 1_545
Ca1_5 Ni1_7 2.983636 1_545
Ca1_5 Ni1_3 2.983639 1_545
Ca1_5 Ni1_5 2.983639 1_555
Ca1_5 Rh0_1 3.004774 1_555
Ca1_5 Rh0_5 3.004777 1_555
Ca1_5 Rh0_3 3.004777 1_545
Ca1_5 I0_1 3.388599 1_555
Ca1_5 I0_5 3.388602 1_555
Ca1_5 I0_3 3.388602 1_545
Ca1_6 Ni1_4 2.983636 1_555
Ca1_6 Ni1_0 2.983639 1_555
Ca1_6 Ni1_6 2.983639 1_555
Ca1_6 Rh0_2 3.004774 1_555
Ca1_6 Rh0_6 3.004777 1_555
Ca1_6 Rh0_0 3.004777 1_555
Ca1_6 I0_2 3.388599 1_555
Ca1_6 I0_6 3.388602 1_555
Ca1_6 I0_0 3.388602 1_555
Ca1_7 Ni1_5 2.983636 1_555
Ca1_7 Ni1_1 2.983639 1_555
Ca1_7 Ni1_7 2.983639 1_555
Ca1_7 Rh0_3 3.004774 1_555
Ca1_7 Rh0_7 3.004777 1_555
Ca1_7 Rh0_1 3.004777 1_555
Ca1_7 I0_3 3.388599 1_555
Ca1_7 I0_7 3.388602 1_555
Ca1_7 I0_1 3.388602 1_555
Ca2_0 Rh1_2 2.990109 1_545
Ca2_0 Rh1_6 2.990112 1_445
Ca2_0 Rh1_0 2.990112 1_555
Ca2_0 Ni0_5 3.011328 1_454
Ca2_0 Ni0_1 3.011331 1_554
Ca2_0 Ni0_7 3.011331 1_444
Ca2_0 I0_4 3.387823 1_455
Ca2_0 I0_0 3.387826 1_555
Ca2_0 I0_6 3.387826 1_445
Ca2_1 Rh1_3 2.990109 1_545
Ca2_1 Rh1_7 2.990112 1_445
Ca2_1 Rh1_1 2.990112 1_555
Ca2_1 Ni0_4 3.011328 1_455
Ca2_1 Ni0_0 3.011331 1_555
Ca2_1 Ni0_6 3.011331 1_445
Ca2_1 I0_5 3.387823 1_455
Ca2_1 I0_1 3.387826 1_555
Ca2_1 I0_7 3.387826 1_445
Ca2_2 Rh1_0 2.990109 1_555
Ca2_2 Rh1_4 2.990112 1_455
Ca2_2 Rh1_2 2.990112 1_555
Ca2_2 Ni0_7 3.011328 1_454
Ca2_2 Ni0_3 3.011331 1_554
Ca2_2 Ni0_5 3.011331 1_454
Ca2_2 I0_6 3.387823 1_455
Ca2_2 I0_2 3.387826 1_555
Ca2_2 I0_4 3.387826 1_455
Ca2_3 Rh1_1 2.990109 1_555
Ca2_3 Rh1_5 2.990112 1_455
Ca2_3 Rh1_3 2.990112 1_555
Ca2_3 Ni0_6 3.011328 1_455
Ca2_3 Ni0_2 3.011331 1_555
Ca2_3 Ni0_4 3.011331 1_455
Ca2_3 I0_7 3.387823 1_455
Ca2_3 I0_3 3.387826 1_555
Ca2_3 I0_5 3.387826 1_455
Ca2_4 Rh1_6 2.990109 1_545
Ca2_4 Rh1_2 2.990112 1_545
Ca2_4 Rh1_4 2.990112 1_555
Ca2_4 Ni0_1 3.011328 1_554
Ca2_4 Ni0_5 3.011331 1_554
Ca2_4 Ni0_3 3.011331 1_544
Ca2_4 I0_0 3.387823 1_555
Ca2_4 I0_4 3.387826 1_555
Ca2_4 I0_2 3.387826 1_545
Ca2_5 Rh1_7 2.990109 1_545
Ca2_5 Rh1_3 2.990112 1_545
Ca2_5 Rh1_5 2.990112 1_555
Ca2_5 Ni0_0 3.011328 1_555
Ca2_5 Ni0_4 3.011331 1_555
Ca2_5 Ni0_2 3.011331 1_545
Ca2_5 I0_1 3.387823 1_555
Ca2_5 I0_5 3.387826 1_555
Ca2_5 I0_3 3.387826 1_545
Ca2_6 Rh1_4 2.990109 1_555
Ca2_6 Rh1_0 2.990112 1_555
Ca2_6 Rh1_6 2.990112 1_555
Ca2_6 Ni0_3 3.011328 1_554
Ca2_6 Ni0_7 3.011331 1_554
Ca2_6 Ni0_1 3.011331 1_554
Ca2_6 I0_2 3.387823 1_555
Ca2_6 I0_6 3.387826 1_555
Ca2_6 I0_0 3.387826 1_555
Ca2_7 Rh1_5 2.990109 1_555
Ca2_7 Rh1_1 2.990112 1_555
Ca2_7 Rh1_7 2.990112 1_555
Ca2_7 Ni0_2 3.011328 1_555
Ca2_7 Ni0_6 3.011331 1_555
Ca2_7 Ni0_0 3.011331 1_555
Ca2_7 I0_3 3.387823 1_555
Ca2_7 I0_7 3.387826 1_555
Ca2_7 I0_1 3.387826 1_555
Ca3_0 Ni0_4 2.983636 1_455
Ca3_0 Ni0_0 2.983639 1_555
Ca3_0 Ni0_6 2.983639 1_445
Ca3_0 Rh1_3 3.004774 1_545
Ca3_0 Rh1_7 3.004777 1_445
Ca3_0 Rh1_1 3.004777 1_555
Ca3_0 I1_2 3.388599 1_545
Ca3_0 I1_6 3.388602 1_445
Ca3_0 I1_0 3.388602 1_555
Ca3_1 Ni0_5 2.983636 1_455
Ca3_1 Ni0_1 2.983639 1_555
Ca3_1 Ni0_7 2.983639 1_445
Ca3_1 Rh1_2 3.004774 1_546
Ca3_1 Rh1_6 3.004777 1_446
Ca3_1 Rh1_0 3.004777 1_556
Ca3_1 I1_3 3.388599 1_545
Ca3_1 I1_7 3.388602 1_445
Ca3_1 I1_1 3.388602 1_555
Ca3_2 Ni0_6 2.983636 1_455
Ca3_2 Ni0_2 2.983639 1_555
Ca3_2 Ni0_4 2.983639 1_455
Ca3_2 Rh1_1 3.004774 1_555
Ca3_2 Rh1_5 3.004777 1_455
Ca3_2 Rh1_3 3.004777 1_555
Ca3_2 I1_0 3.388599 1_555
Ca3_2 I1_4 3.388602 1_455
Ca3_2 I1_2 3.388602 1_555
Ca3_3 Ni0_7 2.983636 1_455
Ca3_3 Ni0_3 2.983639 1_555
Ca3_3 Ni0_5 2.983639 1_455
Ca3_3 Rh1_0 3.004774 1_556
Ca3_3 Rh1_4 3.004777 1_456
Ca3_3 Rh1_2 3.004777 1_556
Ca3_3 I1_1 3.388599 1_555
Ca3_3 I1_5 3.388602 1_455
Ca3_3 I1_3 3.388602 1_555
Ca3_4 Ni0_0 2.983636 1_555
Ca3_4 Ni0_4 2.983639 1_555
Ca3_4 Ni0_2 2.983639 1_545
Ca3_4 Rh1_7 3.004774 1_545
Ca3_4 Rh1_3 3.004777 1_545
Ca3_4 Rh1_5 3.004777 1_555
Ca3_4 I1_6 3.388599 1_545
Ca3_4 I1_2 3.388602 1_545
Ca3_4 I1_4 3.388602 1_555
Ca3_5 Ni0_1 2.983636 1_555
Ca3_5 Ni0_5 2.983639 1_555
Ca3_5 Ni0_3 2.983639 1_545
Ca3_5 Rh1_6 3.004774 1_546
Ca3_5 Rh1_2 3.004777 1_546
Ca3_5 Rh1_4 3.004777 1_556
Ca3_5 I1_7 3.388599 1_545
Ca3_5 I1_3 3.388602 1_545
Ca3_5 I1_5 3.388602 1_555
Ca3_6 Ni0_2 2.983636 1_555
Ca3_6 Ni0_6 2.983639 1_555
Ca3_6 Ni0_0 2.983639 1_555
Ca3_6 Rh1_5 3.004774 1_555
Ca3_6 Rh1_1 3.004777 1_555
Ca3_6 Rh1_7 3.004777 1_555
Ca3_6 I1_4 3.388599 1_555
Ca3_6 I1_0 3.388602 1_555
Ca3_6 I1_6 3.388602 1_555
Ca3_7 Ni0_3 2.983636 1_555
Ca3_7 Ni0_7 2.983639 1_555
Ca3_7 Ni0_1 2.983639 1_555
Ca3_7 Rh1_4 3.004774 1_556
Ca3_7 Rh1_0 3.004777 1_556
Ca3_7 Rh1_6 3.004777 1_556
Ca3_7 I1_5 3.388599 1_555
Ca3_7 I1_1 3.388602 1_555
Ca3_7 I1_7 3.388602 1_555
Ni0_0 Rh1_5 2.393969 1_555
Ni0_0 Rh1_3 2.393970 1_545
Ni0_0 Rh1_1 2.393976 1_555
Ni0_1 Rh1_4 2.393969 1_556
Ni0_1 Rh1_2 2.393970 1_546
Ni0_1 Rh1_0 2.393976 1_556
Ni0_2 Rh1_7 2.393969 1_555
Ni0_2 Rh1_1 2.393970 1_555
Ni0_2 Rh1_3 2.393976 1_555
Ni0_3 Rh1_6 2.393969 1_556
Ni0_3 Rh1_0 2.393970 1_556
Ni0_3 Rh1_2 2.393976 1_556
Ni0_4 Rh1_1 2.393969 1_655
Ni0_4 Rh1_7 2.393970 1_545
Ni0_4 Rh1_5 2.393976 1_555
Ni0_5 Rh1_0 2.393969 1_656
Ni0_5 Rh1_6 2.393970 1_546
Ni0_5 Rh1_4 2.393976 1_556
Ni0_6 Rh1_3 2.393969 1_655
Ni0_6 Rh1_5 2.393970 1_555
Ni0_6 Rh1_7 2.393976 1_555
Ni0_7 Rh1_2 2.393969 1_656
Ni0_7 Rh1_4 2.393970 1_556
Ni0_7 Rh1_6 2.393976 1_556
Ni1_0 Rh0_4 2.393969 1_455
Ni1_0 Rh0_2 2.393970 1_555
Ni1_0 Rh0_0 2.393976 1_555
Ni1_1 Rh0_5 2.393969 1_455
Ni1_1 Rh0_3 2.393970 1_555
Ni1_1 Rh0_1 2.393976 1_555
Ni1_2 Rh0_6 2.393969 1_455
Ni1_2 Rh0_0 2.393970 1_565
Ni1_2 Rh0_2 2.393976 1_555
Ni1_3 Rh0_7 2.393969 1_455
Ni1_3 Rh0_1 2.393970 1_565
Ni1_3 Rh0_3 2.393976 1_555
Ni1_4 Rh0_0 2.393969 1_555
Ni1_4 Rh0_6 2.393970 1_555
Ni1_4 Rh0_4 2.393976 1_555
Ni1_5 Rh0_1 2.393969 1_555
Ni1_5 Rh0_7 2.393970 1_555
Ni1_5 Rh0_5 2.393976 1_555
Ni1_6 Rh0_2 2.393969 1_555
Ni1_6 Rh0_4 2.393970 1_565
Ni1_6 Rh0_6 2.393976 1_555
Ni1_7 Rh0_3 2.393969 1_555
Ni1_7 Rh0_5 2.393970 1_565
Ni1_7 Rh0_7 2.393976 1_555
I0_0 I0_4 4.146032 1_555
I0_0 I0_4 4.146032 1_455
I0_0 I0_2 4.146033 1_555
I0_0 I0_2 4.146033 1_545
I0_0 I0_6 4.146033 1_555
I0_0 I0_6 4.146033 1_445
I0_1 I0_5 4.146032 1_555
I0_1 I0_5 4.146032 1_455
I0_1 I0_3 4.146033 1_545
I0_1 I0_3 4.146033 1_555
I0_1 I0_7 4.146033 1_555
I0_1 I0_7 4.146033 1_445
I0_2 I0_6 4.146032 1_555
I0_2 I0_6 4.146032 1_455
I0_2 I0_4 4.146033 1_565
I0_2 I0_4 4.146033 1_455
I0_3 I0_7 4.146032 1_555
I0_3 I0_7 4.146032 1_455
I0_3 I0_5 4.146033 1_565
I0_3 I0_5 4.146033 1_455
I0_4 I0_6 4.146033 1_555
I0_4 I0_6 4.146033 1_545
I0_5 I0_7 4.146033 1_545
I0_5 I0_7 4.146033 1_555
I1_0 I1_4 4.146032 1_555
I1_0 I1_4 4.146032 1_455
I1_0 I1_2 4.146033 1_555
I1_0 I1_2 4.146033 1_545
I1_0 I1_6 4.146033 1_555
I1_0 I1_6 4.146033 1_445
I1_1 I1_5 4.146032 1_555
I1_1 I1_5 4.146032 1_455
I1_1 I1_3 4.146033 1_545
I1_1 I1_3 4.146033 1_555
I1_1 I1_7 4.146033 1_555
I1_1 I1_7 4.146033 1_445
I1_2 I1_6 4.146032 1_555
I1_2 I1_6 4.146032 1_455
I1_2 I1_4 4.146033 1_565
I1_2 I1_4 4.146033 1_455
I1_3 I1_7 4.146032 1_555
I1_3 I1_7 4.146032 1_455
I1_3 I1_5 4.146033 1_565
I1_3 I1_5 4.146033 1_455
I1_4 I1_6 4.146033 1_545
I1_4 I1_6 4.146033 1_555
I1_5 I1_7 4.146033 1_545
I1_5 I1_7 4.146033 1_555
