# generated using pymatgen
data_Hf3TiReOs
_symmetry_space_group_name_H-M   'P 1'
_cell_length_a   8.55900483
_cell_length_b   8.55900481
_cell_length_c   8.55900407
_cell_angle_alpha   59.99999906
_cell_angle_beta   59.99999913
_cell_angle_gamma   60.00000155
_symmetry_Int_Tables_number   1
_chemical_formula_structural   Hf3TiReOs
_chemical_formula_sum   'Hf12 Ti4 Re4 Os4'
_cell_volume   443.35823165
_cell_formula_units_Z   4
loop_
 _symmetry_equiv_pos_site_id
 _symmetry_equiv_pos_as_xyz
  1  'x, y, z'
loop_
 _atom_site_type_symbol
 _atom_site_label
 _atom_site_symmetry_multiplicity
 _atom_site_fract_x
 _atom_site_fract_y
 _atom_site_fract_z
 _atom_site_occupancy
  Hf  Hf0  1  0.80693032  0.80693032  0.19306968  1
  Hf  Hf1  1  0.19306968  0.19306968  0.80693032  1
  Hf  Hf2  1  0.80693032  0.19306968  0.80693032  1
  Hf  Hf3  1  0.19306968  0.80693032  0.19306968  1
  Hf  Hf4  1  0.19306968  0.80693032  0.80693032  1
  Hf  Hf5  1  0.80693032  0.19306968  0.19306968  1
  Hf  Hf6  1  0.44355480  0.44355480  0.05644520  1
  Hf  Hf7  1  0.05644520  0.05644520  0.44355480  1
  Hf  Hf8  1  0.44355480  0.05644520  0.44355480  1
  Hf  Hf9  1  0.05644520  0.44355480  0.05644520  1
  Hf  Hf10  1  0.05644520  0.44355480  0.44355480  1
  Hf  Hf11  1  0.44355480  0.05644520  0.05644520  1
  Ti  Ti0  1  0.12158770  0.62613743  0.62613743  1
  Ti  Ti1  1  0.62613743  0.12158770  0.62613743  1
  Ti  Ti2  1  0.62613743  0.62613743  0.12158770  1
  Ti  Ti3  1  0.62613743  0.62613743  0.62613743  1
  Re  Re0  1  0.75541799  0.41486000  0.41486000  1
  Re  Re1  1  0.41486000  0.75541799  0.41486000  1
  Re  Re2  1  0.41486000  0.41486000  0.75541799  1
  Re  Re3  1  0.41486000  0.41486000  0.41486000  1
  Os  Os0  1  0.49365725  0.83544858  0.83544858  1
  Os  Os1  1  0.83544858  0.49365725  0.83544858  1
  Os  Os2  1  0.83544858  0.83544858  0.49365725  1
  Os  Os3  1  0.83544858  0.83544858  0.83544858  1
loop_
_geom_bond_atom_site_label_1
_geom_bond_atom_site_label_2
_geom_bond_distance
_geom_bond_site_symmetry_2
Hf0 Os3 2.837865 1_554
Hf0 Os2 2.837891 1_555
Hf0 Re0 3.054710 1_555
Hf0 Re1 3.054710 1_555
Hf0 Ti3 3.074276 1_555
Hf0 Ti2 3.074277 1_555
Hf0 Hf10 3.177850 1_655
Hf0 Hf8 3.177850 1_565
Hf0 Hf9 3.177850 1_655
Hf0 Hf11 3.177850 1_565
Hf0 Hf2 3.304968 1_564
Hf0 Hf4 3.304968 1_654
Hf0 Hf5 3.304969 1_565
Hf0 Hf3 3.304969 1_655
Hf1 Os0 2.837876 1_545
Hf1 Os1 2.837876 1_455
Hf1 Re2 3.054695 1_555
Hf1 Re3 3.054703 1_555
Hf1 Ti0 3.074277 1_555
Hf1 Ti1 3.074277 1_555
Hf1 Hf10 3.177849 1_555
Hf1 Hf8 3.177849 1_555
Hf1 Hf9 3.177849 1_556
Hf1 Hf11 3.177849 1_556
Hf1 Hf3 3.304968 1_546
Hf1 Hf5 3.304968 1_456
Hf1 Hf4 3.304969 1_545
Hf1 Hf2 3.304969 1_455
Hf2 Os3 2.837865 1_545
Hf2 Os1 2.837891 1_555
Hf2 Re0 3.054710 1_555
Hf2 Re2 3.054710 1_555
Hf2 Ti1 3.074277 1_555
Hf2 Ti3 3.074277 1_555
Hf2 Hf7 3.177849 1_655
Hf2 Hf6 3.177850 1_556
Hf2 Hf5 3.304968 1_556
Hf2 Hf4 3.304969 1_645
Hf3 Os0 2.837876 1_554
Hf3 Os2 2.837876 1_455
Hf3 Re1 3.054695 1_555
Hf3 Re3 3.054704 1_555
Hf3 Ti0 3.074276 1_555
Hf3 Ti2 3.074277 1_555
Hf3 Hf7 3.177849 1_565
Hf3 Hf6 3.177850 1_555
Hf3 Hf4 3.304968 1_554
Hf3 Hf5 3.304969 1_465
Hf4 Os3 2.837865 1_455
Hf4 Os0 2.837891 1_555
Hf4 Re1 3.054710 1_555
Hf4 Re2 3.054710 1_555
Hf4 Ti0 3.074277 1_555
Hf4 Ti3 3.074277 1_555
Hf4 Hf7 3.177849 1_565
Hf4 Hf8 3.177849 1_565
Hf4 Hf9 3.177850 1_556
Hf4 Hf6 3.177850 1_556
Hf5 Os1 2.837876 1_554
Hf5 Os2 2.837876 1_545
Hf5 Re0 3.054695 1_555
Hf5 Re3 3.054704 1_555
Hf5 Ti1 3.074276 1_555
Hf5 Ti2 3.074277 1_555
Hf5 Hf7 3.177849 1_655
Hf5 Hf8 3.177850 1_555
Hf5 Hf9 3.177850 1_655
Hf5 Hf6 3.177850 1_555
Hf6 Re3 2.843368 1_555
Hf6 Re2 2.843385 1_554
Hf6 Os0 3.048804 1_554
Hf6 Os1 3.048804 1_554
Hf6 Ti3 3.062648 1_554
Hf6 Ti2 3.062648 1_555
Hf6 Hf8 3.313273 1_555
Hf6 Hf9 3.313273 1_555
Hf7 Re0 2.843376 1_455
Hf7 Re1 2.843376 1_545
Hf7 Os2 3.048782 1_445
Hf7 Os3 3.048794 1_445
Hf7 Ti0 3.062648 1_545
Hf7 Ti1 3.062648 1_455
Hf7 Hf9 3.313273 1_555
Hf7 Hf8 3.313273 1_555
Hf8 Re3 2.843369 1_555
Hf8 Re1 2.843386 1_545
Hf8 Os0 3.048804 1_545
Hf8 Os2 3.048804 1_545
Hf8 Ti1 3.062648 1_555
Hf8 Ti3 3.062648 1_545
Hf9 Re0 2.843376 1_455
Hf9 Re2 2.843376 1_554
Hf9 Os1 3.048782 1_454
Hf9 Os3 3.048795 1_454
Hf9 Ti0 3.062648 1_554
Hf9 Ti2 3.062648 1_455
Hf10 Re3 2.843369 1_555
Hf10 Re0 2.843386 1_455
Hf10 Os1 3.048804 1_455
Hf10 Os2 3.048804 1_455
Hf10 Ti0 3.062648 1_555
Hf10 Ti3 3.062648 1_455
Hf10 Hf2 3.177849 1_455
Hf10 Hf3 3.177850 1_555
Hf10 Hf9 3.313273 1_555
Hf10 Hf6 3.313273 1_555
Hf10 Hf7 3.313273 1_555
Hf10 Hf8 3.313273 1_555
Hf11 Re1 2.843376 1_545
Hf11 Re2 2.843376 1_554
Hf11 Os0 3.048782 1_544
Hf11 Os3 3.048795 1_544
Hf11 Ti1 3.062648 1_554
Hf11 Ti2 3.062648 1_545
Hf11 Hf2 3.177850 1_554
Hf11 Hf3 3.177850 1_545
Hf11 Hf8 3.313273 1_555
Hf11 Hf7 3.313273 1_555
Hf11 Hf6 3.313273 1_555
Hf11 Hf9 3.313273 1_555
Re0 Ti2 2.651894 1_555
Re0 Ti1 2.651894 1_555
Re0 Ti3 2.651908 1_555
Re0 Re2 2.914837 1_555
Re0 Re3 2.914837 1_555
Re0 Re1 2.914838 1_555
Re1 Ti2 2.651894 1_555
Re1 Ti0 2.651894 1_555
Re1 Ti3 2.651908 1_555
Re1 Re2 2.914837 1_555
Re1 Re3 2.914837 1_555
Re2 Ti1 2.651894 1_555
Re2 Ti0 2.651894 1_555
Re2 Ti3 2.651908 1_555
Re2 Re3 2.914837 1_555
Re3 Ti2 2.651903 1_555
Re3 Ti1 2.651903 1_555
Re3 Ti0 2.651903 1_555
Os0 Ti2 2.617486 1_556
Os0 Ti1 2.617486 1_565
Os0 Ti3 2.617507 1_555
Os0 Os2 2.925393 1_555
Os0 Os3 2.925394 1_555
Os0 Os1 2.925394 1_555
Os1 Ti2 2.617486 1_556
Os1 Ti0 2.617486 1_655
Os1 Ti3 2.617507 1_555
Os1 Os2 2.925393 1_555
Os1 Os3 2.925394 1_555
Os2 Ti1 2.617486 1_565
Os2 Ti0 2.617486 1_655
Os2 Ti3 2.617507 1_555
Os2 Os3 2.925393 1_555
Os3 Ti2 2.617500 1_556
Os3 Ti1 2.617500 1_565
Os3 Ti0 2.617500 1_655
