# generated using pymatgen
data_Rb6ScTe4Cl
_symmetry_space_group_name_H-M   'P 1'
_cell_length_a   11.71342296
_cell_length_b   11.71155572
_cell_length_c   8.57947060
_cell_angle_alpha   90.00000000
_cell_angle_beta   90.00000000
_cell_angle_gamma   120.00745107
_symmetry_Int_Tables_number   1
_chemical_formula_structural   Rb6ScTe4Cl
_chemical_formula_sum   'Rb12 Sc2 Te8 Cl2'
_cell_volume   1019.19415362
_cell_formula_units_Z   2
loop_
 _symmetry_equiv_pos_site_id
 _symmetry_equiv_pos_as_xyz
  1  'x, y, z'
loop_
 _atom_site_type_symbol
 _atom_site_label
 _atom_site_symmetry_multiplicity
 _atom_site_fract_x
 _atom_site_fract_y
 _atom_site_fract_z
 _atom_site_occupancy
  Rb  Rb0  1  0.12369171  0.87631621  0.50987791  1
  Rb  Rb1  1  0.75265180  0.87633093  0.50986842  1
  Rb  Rb2  1  0.94679599  0.47339480  0.31931562  1
  Rb  Rb3  1  0.52663205  0.47336490  0.31925788  1
  Rb  Rb4  1  0.87632499  0.75264831  0.00987656  1
  Rb  Rb5  1  0.24734820  0.12366907  0.00986842  1
  Rb  Rb6  1  0.52660128  0.05320008  0.31931744  1
  Rb  Rb7  1  0.12367501  0.24735169  0.50987656  1
  Rb  Rb8  1  0.87630829  0.12368379  0.00987791  1
  Rb  Rb9  1  0.05320401  0.52660520  0.81931562  1
  Rb  Rb10  1  0.47339872  0.94679992  0.81931744  1
  Rb  Rb11  1  0.47336795  0.52663510  0.81925788  1
  Sc  Sc0  1  0.66668763  0.33331610  0.71514117  1
  Sc  Sc1  1  0.33331237  0.66668390  0.21514117  1
  Te  Te0  1  0.40650186  0.20324882  0.60972183  1
  Te  Te1  1  0.59349814  0.79675118  0.10972183  1
  Te  Te2  1  0.66667671  0.33336085  0.04026176  1
  Te  Te3  1  0.79672318  0.59347531  0.60970913  1
  Te  Te4  1  0.20327682  0.40652469  0.10970913  1
  Te  Te5  1  0.33332329  0.66663915  0.54026176  1
  Te  Te6  1  0.20326431  0.79668784  0.10965323  1
  Te  Te7  1  0.79673569  0.20331216  0.60965323  1
  Cl  Cl0  1  0.99999890  0.99999707  0.26859905  1
  Cl  Cl1  1  0.00000110  0.00000293  0.76859905  1
loop_
_geom_bond_atom_site_label_1
_geom_bond_atom_site_label_2
_geom_bond_distance
_geom_bond_site_symmetry_2
Rb0 Te0 3.698819 1_565
Rb0 Te3 3.699336 1_455
Rb0 Te6 3.794504 1_555
Rb0 Te5 4.261319 1_555
Rb0 Rb2 4.410659 1_455
Rb0 Rb6 4.411197 1_565
Rb0 Rb9 4.595847 1_555
Rb0 Rb10 4.596389 1_555
Rb1 Te3 3.699263 1_555
Rb1 Te7 3.699518 1_565
Rb1 Te1 3.793671 1_555
Rb1 Te5 4.261386 1_555
Rb1 Rb3 4.411190 1_555
Rb1 Rb6 4.411390 1_565
Rb1 Rb11 4.595629 1_555
Rb1 Rb10 4.596667 1_555
Rb2 Te7 3.706538 1_555
Rb2 Te3 3.707794 1_555
Rb2 Te2 3.715529 1_555
Rb2 Te6 3.901184 1_655
Rb2 Te4 3.902079 1_655
Rb2 Sc1 4.021159 1_655
Rb2 Te5 4.354891 1_655
Rb2 Rb7 4.411340 1_655
Rb2 Rb9 4.423437 1_654
Rb2 Rb9 4.423437 1_655
Rb2 Rb8 4.595847 1_555
Rb2 Rb4 4.596286 1_555
Rb3 Te0 3.707477 1_555
Rb3 Te3 3.707566 1_555
Rb3 Te2 3.714734 1_555
Rb3 Te1 3.901568 1_555
Rb3 Te4 3.901949 1_555
Rb3 Sc1 4.022384 1_555
Rb3 Te5 4.355732 1_555
Rb3 Rb7 4.411682 1_555
Rb3 Rb5 4.595629 1_555
Rb3 Rb4 4.595780 1_555
Rb4 Te1 3.699624 1_555
Rb4 Te6 3.699845 1_655
Rb4 Te3 3.793807 1_554
Rb4 Te2 4.260289 1_555
Rb4 Rb9 4.411340 1_654
Rb5 Te4 3.699263 1_555
Rb5 Te6 3.699518 1_545
Rb5 Te0 3.793671 1_554
Rb5 Te2 4.261386 1_555
Rb5 Rb6 4.596667 1_555
Rb6 Te7 3.707228 1_555
Rb6 Te0 3.707759 1_555
Rb6 Te2 3.715514 1_555
Rb6 Te1 3.901550 1_545
Rb6 Te6 3.901856 1_545
Rb6 Sc1 4.020551 1_545
Rb6 Te5 4.354629 1_545
Rb6 Rb8 4.596389 1_555
Rb7 Te0 3.699624 1_555
Rb7 Te7 3.699845 1_455
Rb7 Te4 3.793807 1_555
Rb7 Te5 4.260289 1_555
Rb7 Rb9 4.596286 1_555
Rb8 Te1 3.698819 1_545
Rb8 Te4 3.699336 1_655
Rb8 Te7 3.794504 1_554
Rb8 Te2 4.261319 1_555
Rb8 Rb9 4.410659 1_654
Rb9 Te6 3.706538 1_556
Rb9 Te4 3.707794 1_556
Rb9 Te5 3.715529 1_555
Rb9 Te7 3.901184 1_455
Rb9 Te3 3.902079 1_455
Rb9 Sc0 4.021159 1_455
Rb9 Te2 4.354891 1_456
Rb10 Te6 3.707228 1_556
Rb10 Te1 3.707759 1_556
Rb10 Te5 3.715514 1_555
Rb10 Te0 3.901550 1_565
Rb10 Te7 3.901856 1_565
Rb10 Sc0 4.020551 1_565
Rb10 Te2 4.354629 1_566
Rb10 Rb8 4.411197 1_566
Rb10 Rb5 4.411390 1_566
Rb10 Rb6 4.423375 1_566
Rb10 Rb6 4.423375 1_565
Rb11 Te1 3.707477 1_556
Rb11 Te4 3.707566 1_556
Rb11 Te5 3.714734 1_555
Rb11 Te0 3.901568 1_555
Rb11 Te3 3.901949 1_555
Rb11 Sc0 4.022384 1_555
Rb11 Te2 4.355732 1_556
Rb11 Rb5 4.411190 1_556
Rb11 Rb4 4.411682 1_556
Rb11 Rb3 4.423758 1_556
Rb11 Rb3 4.423758 1_555
Rb11 Rb7 4.595780 1_555
Sc0 Te7 2.788823 1_555
Sc0 Te3 2.789216 1_555
Sc0 Te2 2.789363 1_556
Sc0 Te0 2.789833 1_555
Sc1 Te6 2.788823 1_555
Sc1 Te4 2.789216 1_555
Sc1 Te5 2.789363 1_555
Sc1 Te1 2.789833 1_555
Cl0 Rb7 3.252406 1_665
Cl0 Rb1 3.252612 1_555
Cl0 Rb0 3.252935 1_655
Cl0 Rb4 3.349610 1_555
Cl0 Rb5 3.349960 1_665
Cl0 Rb8 3.350181 1_565
Cl1 Rb4 3.252406 1_446
Cl1 Rb5 3.252612 1_556
Cl1 Rb8 3.252935 1_456
Cl1 Rb7 3.349610 1_555
Cl1 Rb1 3.349960 1_445
Cl1 Rb0 3.350181 1_545
