# generated using pymatgen
data_Er3InN
_symmetry_space_group_name_H-M   'P 1'
_cell_length_a   4.73048637
_cell_length_b   4.73048637
_cell_length_c   4.73048637
_cell_angle_alpha   90.00000000
_cell_angle_beta   90.00000000
_cell_angle_gamma   90.00000000
_symmetry_Int_Tables_number   1
_chemical_formula_structural   Er3InN
_chemical_formula_sum   'Er3 In1 N1'
_cell_volume   105.85646488
_cell_formula_units_Z   1
loop_
 _symmetry_equiv_pos_site_id
 _symmetry_equiv_pos_as_xyz
  1  'x, y, z'
loop_
 _atom_site_type_symbol
 _atom_site_label
 _atom_site_symmetry_multiplicity
 _atom_site_fract_x
 _atom_site_fract_y
 _atom_site_fract_z
 _atom_site_occupancy
  Er  Er0  1  0.50000000  0.50000000  -0.00000000  1
  Er  Er1  1  0.00000000  0.50000000  0.50000000  1
  Er  Er2  1  0.50000000  -0.00000000  0.50000000  1
  In  In0  1  -0.00000000  -0.00000000  -0.00000000  1
  N  N0  1  0.50000000  0.50000000  0.50000000  1
loop_
_geom_bond_atom_site_label_1
_geom_bond_atom_site_label_2
_geom_bond_distance
_geom_bond_site_symmetry_2
Er0 N0 2.365243 1_555
Er0 N0 2.365243 1_554
Er0 In0 3.344959 1_665
Er0 In0 3.344959 1_655
Er0 In0 3.344959 1_555
Er0 In0 3.344959 1_565
Er1 N0 2.365243 1_555
Er1 N0 2.365243 1_455
Er1 In0 3.344959 1_555
Er1 In0 3.344959 1_556
Er1 In0 3.344959 1_565
Er1 In0 3.344959 1_566
Er2 N0 2.365243 1_555
Er2 N0 2.365243 1_545
Er2 In0 3.344959 1_655
Er2 In0 3.344959 1_656
Er2 In0 3.344959 1_555
Er2 In0 3.344959 1_556
