# generated using pymatgen
data_Rb3CoO2
_symmetry_space_group_name_H-M   'P 1'
_cell_length_a   6.18357472
_cell_length_b   7.66950849
_cell_length_c   12.31869315
_cell_angle_alpha   90.00000000
_cell_angle_beta   90.00000000
_cell_angle_gamma   90.00000000
_symmetry_Int_Tables_number   1
_chemical_formula_structural   Rb3CoO2
_chemical_formula_sum   'Rb12 Co4 O8'
_cell_volume   584.21376165
_cell_formula_units_Z   4
loop_
 _symmetry_equiv_pos_site_id
 _symmetry_equiv_pos_as_xyz
  1  'x, y, z'
loop_
 _atom_site_type_symbol
 _atom_site_label
 _atom_site_symmetry_multiplicity
 _atom_site_fract_x
 _atom_site_fract_y
 _atom_site_fract_z
 _atom_site_occupancy
  Rb  Rb0  1  0.78055080  0.75000000  0.89934805  1
  Rb  Rb1  1  0.28055080  0.25000000  0.60065195  1
  Rb  Rb2  1  0.21946636  0.25000000  0.10064051  1
  Rb  Rb3  1  0.71946636  0.75000000  0.39935949  1
  Rb  Rb4  1  0.31774709  0.50086868  0.86237091  1
  Rb  Rb5  1  0.81774709  0.49913132  0.63762909  1
  Rb  Rb6  1  0.68225627  0.00086298  0.13761500  1
  Rb  Rb7  1  0.18225627  0.99913702  0.36238500  1
  Rb  Rb8  1  0.68225627  0.49913702  0.13761500  1
  Rb  Rb9  1  0.18225627  0.50086298  0.36238500  1
  Rb  Rb10  1  0.31774709  0.99913132  0.86237091  1
  Rb  Rb11  1  0.81774709  0.00086868  0.63762909  1
  Co  Co0  1  0.30634667  0.75000000  0.61851300  1
  Co  Co1  1  0.19363920  0.75000000  0.11850128  1
  Co  Co2  1  0.80634667  0.25000000  0.88148700  1
  Co  Co3  1  0.69363920  0.25000000  0.38149872  1
  O  O0  1  0.58700340  0.25000000  0.97101837  1
  O  O1  1  0.08700340  0.75000000  0.52898163  1
  O  O2  1  0.41293374  0.75000000  0.02898032  1
  O  O3  1  0.91293374  0.25000000  0.47101968  1
  O  O4  1  0.01582569  0.25000000  0.78559692  1
  O  O5  1  0.48422542  0.25000000  0.28559374  1
  O  O6  1  0.51582569  0.75000000  0.71440308  1
  O  O7  1  0.98422542  0.75000000  0.21440626  1
loop_
_geom_bond_atom_site_label_1
_geom_bond_atom_site_label_2
_geom_bond_distance
_geom_bond_site_symmetry_2
Rb0 Rb4 3.471039 1_555
Rb0 Rb10 3.471039 1_555
Rb0 Rb6 3.561773 1_566
Rb0 Rb8 3.561773 1_556
Rb0 Rb11 3.761547 1_565
Rb0 Rb5 3.761547 1_555
Rb0 Rb10 3.859097 1_655
Rb0 Rb4 3.859097 1_655
Rb1 Rb11 3.471039 1_455
Rb1 Rb5 3.471039 1_455
Rb1 Rb9 3.561773 1_555
Rb1 Rb7 3.561773 1_545
Rb1 Rb4 3.761547 1_555
Rb1 Rb10 3.761547 1_545
Rb1 Rb5 3.859097 1_555
Rb1 Rb11 3.859097 1_555
Rb2 Rb6 3.470989 1_555
Rb2 Rb8 3.470989 1_555
Rb2 Rb4 3.561809 1_554
Rb2 Rb7 3.761799 1_545
Rb2 Rb9 3.761799 1_555
Rb2 Rb8 3.859189 1_455
Rb2 Rb6 3.859189 1_455
Rb3 Rb9 3.470989 1_655
Rb3 Rb7 3.470989 1_655
Rb3 Rb5 3.561809 1_555
Rb3 Rb6 3.761799 1_565
Rb3 Rb8 3.761799 1_555
Rb3 Rb7 3.859189 1_555
Rb3 Rb9 3.859189 1_555
Rb10 Rb2 3.561809 1_566
Rb11 Rb3 3.561809 1_545
Co0 O1 1.748150 1_555
Co0 O6 1.753056 1_555
Co0 Rb3 3.716727 1_555
Co0 Rb1 3.844372 1_555
Co0 Rb1 3.844372 1_565
Co1 O2 1.747835 1_555
Co1 O7 1.752882 1_455
Co1 Rb0 3.716591 1_454
Co1 Rb2 3.844380 1_565
Co1 Rb2 3.844380 1_555
Co2 O0 1.748150 1_555
Co2 O4 1.753056 1_655
Co2 Rb2 3.716727 1_656
Co2 Rb0 3.844372 1_555
Co2 Rb0 3.844372 1_545
Co3 O3 1.747835 1_555
Co3 O5 1.752882 1_555
Co3 Rb1 3.716591 1_555
Co3 Rb3 3.844380 1_545
Co3 Rb3 3.844380 1_555
O0 Rb2 2.777557 1_556
O0 Rb6 2.865251 1_556
O0 Rb8 2.865251 1_556
O0 Rb4 2.874951 1_555
O0 Rb10 2.874951 1_545
O1 Rb3 2.777557 1_455
O1 Rb7 2.865251 1_555
O1 Rb9 2.865251 1_555
O1 Rb11 2.874951 1_465
O1 Rb5 2.874951 1_455
O2 Rb0 2.778034 1_554
O2 Rb10 2.865251 1_554
O2 Rb4 2.865251 1_554
O2 Rb6 2.875085 1_565
O2 Rb8 2.875085 1_555
O3 Rb1 2.778034 1_655
O3 Rb11 2.865251 1_555
O3 Rb5 2.865251 1_555
O3 Rb9 2.875085 1_655
O3 Rb7 2.875085 1_645
O4 Rb1 2.805380 1_555
O4 Rb4 2.842868 1_555
O4 Rb10 2.842868 1_545
O4 Rb11 2.910935 1_455
O4 Rb5 2.910935 1_455
O5 Rb2 2.805585 1_555
O5 Rb7 2.843103 1_545
O5 Rb9 2.843103 1_555
O5 Rb6 2.910923 1_555
O5 Rb8 2.910923 1_555
O6 Rb0 2.805380 1_555
O6 Rb5 2.842868 1_555
O6 Rb11 2.842868 1_565
O6 Rb4 2.910935 1_555
O6 Rb10 2.910935 1_555
O7 Rb3 2.805585 1_555
O7 Rb6 2.843103 1_565
O7 Rb8 2.843103 1_555
O7 Rb7 2.910923 1_655
O7 Rb9 2.910923 1_655
