# generated using pymatgen
data_LuZn2InIr2
_symmetry_space_group_name_H-M   'P 1'
_cell_length_a   5.16678448
_cell_length_b   5.16678451
_cell_length_c   5.05259420
_cell_angle_alpha   60.72842411
_cell_angle_beta   60.72842390
_cell_angle_gamma   65.80678220
_symmetry_Int_Tables_number   1
_chemical_formula_structural   LuZn2InIr2
_chemical_formula_sum   'Lu1 Zn2 In1 Ir2'
_cell_volume   100.01854628
_cell_formula_units_Z   1
loop_
 _symmetry_equiv_pos_site_id
 _symmetry_equiv_pos_as_xyz
  1  'x, y, z'
loop_
 _atom_site_type_symbol
 _atom_site_label
 _atom_site_symmetry_multiplicity
 _atom_site_fract_x
 _atom_site_fract_y
 _atom_site_fract_z
 _atom_site_occupancy
  Lu  Lu0  1  0.24384168  0.24384168  0.25615832  1
  Zn  Zn0  1  0.62497921  0.62497921  0.61970182  1
  Zn  Zn1  1  0.62497921  0.62497921  0.13034076  1
  In  In0  1  0.00444095  0.00444095  0.99555905  1
  Ir  Ir0  1  0.63223201  0.11952794  0.62411952  1
  Ir  Ir1  1  0.11952794  0.63223201  0.62411952  1
loop_
_geom_bond_atom_site_label_1
_geom_bond_atom_site_label_2
_geom_bond_distance
_geom_bond_site_symmetry_2
Lu0 Zn0 2.981634 1_554
Lu0 Zn1 2.981636 1_555
Lu0 Zn1 3.179440 1_455
Lu0 Zn1 3.179440 1_545
Lu0 Zn0 3.179441 1_455
Lu0 Zn0 3.179441 1_545
Zn0 Zn1 2.472543 1_555
Zn0 Zn1 2.580051 1_556
In0 Zn1 2.948040 1_446
In0 Zn0 2.948042 1_446
In0 Ir0 2.988927 1_555
In0 Ir1 2.988927 1_555
In0 Ir0 3.012462 1_456
In0 Ir1 3.012462 1_546
In0 Ir0 3.012467 1_455
In0 Ir1 3.012467 1_545
In0 Lu0 3.038600 1_555
In0 Lu0 3.038601 1_556
In0 Zn0 3.203840 1_545
In0 Zn0 3.203840 1_455
In0 Zn1 3.203842 1_546
In0 Zn1 3.203842 1_456
In0 Lu0 3.354973 1_456
In0 Lu0 3.354973 1_546
Ir0 Zn0 2.581891 1_545
Ir0 Zn1 2.581896 1_546
Ir0 Zn1 2.585674 1_555
Ir0 Zn0 2.585679 1_555
Ir0 Ir1 2.735408 1_645
Ir0 Ir1 2.878036 1_555
Ir0 Lu0 2.933536 1_655
Ir0 Lu0 3.052895 1_555
Ir0 Lu0 3.052898 1_556
Ir1 Zn0 2.581891 1_455
Ir1 Zn1 2.581896 1_456
Ir1 Zn1 2.585674 1_555
Ir1 Zn0 2.585679 1_555
Ir1 Lu0 2.933536 1_565
Ir1 Lu0 3.052895 1_555
Ir1 Lu0 3.052898 1_556
