# generated using pymatgen
data_InCu(IrS2)4
_symmetry_space_group_name_H-M   'P 1'
_cell_length_a   7.13506315
_cell_length_b   7.13506342
_cell_length_c   7.13506304
_cell_angle_alpha   60.00000172
_cell_angle_beta   60.00000048
_cell_angle_gamma   59.99999367
_symmetry_Int_Tables_number   1
_chemical_formula_structural   InCu(IrS2)4
_chemical_formula_sum   'In1 Cu1 Ir4 S8'
_cell_volume   256.84934470
_cell_formula_units_Z   1
loop_
 _symmetry_equiv_pos_site_id
 _symmetry_equiv_pos_as_xyz
  1  'x, y, z'
loop_
 _atom_site_type_symbol
 _atom_site_label
 _atom_site_symmetry_multiplicity
 _atom_site_fract_x
 _atom_site_fract_y
 _atom_site_fract_z
 _atom_site_occupancy
  In  In0  1  0.00000000  0.00000000  0.00000000  1
  Cu  Cu0  1  0.25000000  0.25000000  0.25000000  1
  Ir  Ir0  1  0.62330212  0.13009365  0.62330212  1
  Ir  Ir1  1  0.13009365  0.62330212  0.62330212  1
  Ir  Ir2  1  0.62330212  0.62330212  0.13009365  1
  Ir  Ir3  1  0.62330212  0.62330212  0.62330212  1
  S  S0  1  0.38752827  0.38752827  0.38752827  1
  S  S1  1  0.85753991  0.85753991  0.42738226  1
  S  S2  1  0.42738226  0.85753991  0.85753991  1
  S  S3  1  0.85753991  0.85753991  0.85753991  1
  S  S4  1  0.38752827  0.83741419  0.38752827  1
  S  S5  1  0.38752827  0.38752827  0.83741419  1
  S  S6  1  0.85753991  0.42738226  0.85753991  1
  S  S7  1  0.83741419  0.38752827  0.38752827  1
loop_
_geom_bond_atom_site_label_1
_geom_bond_atom_site_label_2
_geom_bond_distance
_geom_bond_site_symmetry_2
In0 S3 2.489813 1_444
In0 S2 2.489824 1_544
In0 S6 2.489824 1_454
In0 S1 2.489824 1_445
Cu0 S0 2.403618 1_555
Cu0 S7 2.403624 1_455
Cu0 S4 2.403624 1_545
Cu0 S5 2.403624 1_554
Ir0 S1 2.379326 1_545
Ir0 S2 2.379327 1_545
Ir0 S3 2.379335 1_545
Ir0 S5 2.384087 1_555
Ir0 S7 2.384087 1_555
Ir0 S0 2.384091 1_555
Ir1 S1 2.379326 1_455
Ir1 S6 2.379326 1_455
Ir1 S3 2.379335 1_455
Ir1 S5 2.384087 1_555
Ir1 S4 2.384087 1_555
Ir1 S0 2.384091 1_555
Ir2 S6 2.379326 1_554
Ir2 S2 2.379326 1_554
Ir2 S3 2.379336 1_554
Ir2 S4 2.384087 1_555
Ir2 S7 2.384087 1_555
Ir2 S0 2.384092 1_555
Ir3 S6 2.379337 1_555
Ir3 S2 2.379337 1_555
Ir3 S1 2.379337 1_555
Ir3 S4 2.384092 1_555
Ir3 S7 2.384092 1_555
Ir3 S5 2.384092 1_555
