# generated using pymatgen
data_LiAlPtO4
_symmetry_space_group_name_H-M   'P 1'
_cell_length_a   5.66519560
_cell_length_b   6.07687893
_cell_length_c   8.31543352
_cell_angle_alpha   90.00008979
_cell_angle_beta   90.00003008
_cell_angle_gamma   89.99997389
_symmetry_Int_Tables_number   1
_chemical_formula_structural   LiAlPtO4
_chemical_formula_sum   'Li4 Al4 Pt4 O16'
_cell_volume   286.27299981
_cell_formula_units_Z   4
loop_
 _symmetry_equiv_pos_site_id
 _symmetry_equiv_pos_as_xyz
  1  'x, y, z'
loop_
 _atom_site_type_symbol
 _atom_site_label
 _atom_site_symmetry_multiplicity
 _atom_site_fract_x
 _atom_site_fract_y
 _atom_site_fract_z
 _atom_site_occupancy
  Li  Li0  1  0.00000100  0.25000016  0.13840376  1
  Li  Li1  1  0.50000100  0.75000019  0.63840396  1
  Li  Li2  1  1.00000000  0.75000083  0.86160061  1
  Li  Li3  1  0.50000000  0.25000053  0.36160065  1
  Al  Al0  1  0.74999764  0.24999885  0.75000188  1
  Al  Al1  1  0.25000636  0.24999885  0.74999988  1
  Al  Al2  1  0.24999414  0.74999998  0.25000201  1
  Al  Al3  1  0.75000486  0.74999798  0.24999901  1
  Pt  Pt0  1  0.00000100  0.49998934  0.49999963  1
  Pt  Pt1  1  0.50000000  0.99998623  0.00000515  1
  Pt  Pt2  1  0.00000100  0.00001345  0.50000075  1
  Pt  Pt3  1  0.49999900  0.50001728  0.00000334  1
  O  O0  1  0.00000100  0.53910437  0.25665384  1
  O  O1  1  0.50000100  0.03910322  0.75665503  1
  O  O2  1  0.00000000  0.96089366  0.25665341  1
  O  O3  1  0.50000100  0.46089718  0.75665313  1
  O  O4  1  0.00000100  0.03909380  0.74334510  1
  O  O5  1  0.49999900  0.53909599  0.24334475  1
  O  O6  1  0.00000200  0.46090452  0.74334560  1
  O  O7  1  0.50000000  0.96090354  0.24334701  1
  O  O8  1  0.23459323  0.74999847  0.48067828  1
  O  O9  1  0.73459200  0.25000097  0.98068006  1
  O  O10  1  0.76540677  0.74999847  0.48067928  1
  O  O11  1  0.26540200  0.25000197  0.98067906  1
  O  O12  1  0.76540603  0.24999876  0.51931641  1
  O  O13  1  0.26540452  0.75000183  0.01931650  1
  O  O14  1  0.23459497  0.24999876  0.51931641  1
  O  O15  1  0.73458948  0.75000083  0.01931750  1
loop_
_geom_bond_atom_site_label_1
_geom_bond_atom_site_label_2
_geom_bond_distance
_geom_bond_site_symmetry_2
Li0 O11 1.995200 1_554
Li0 O9 1.995227 1_454
Li0 O0 2.013306 1_555
Li0 O2 2.013319 1_545
Li1 O10 1.995220 1_555
Li1 O8 1.995233 1_555
Li1 O3 2.013299 1_555
Li1 O1 2.013304 1_565
Li2 O13 1.995166 1_656
Li2 O15 1.995198 1_556
Li2 O4 2.013271 1_665
Li2 O6 2.013284 1_655
Li3 O14 1.995168 1_555
Li3 O12 1.995171 1_555
Li3 O7 2.013282 1_545
Li3 O5 2.013286 1_555
Al0 O1 1.910858 1_555
Al0 O3 1.910867 1_555
Al0 O4 1.910924 1_655
Al0 O6 1.910932 1_655
Al0 O9 1.920174 1_555
Al0 O12 1.920235 1_555
Al1 O1 1.910849 1_555
Al1 O3 1.910860 1_555
Al1 O6 1.910930 1_555
Al1 O4 1.910933 1_555
Al1 O11 1.920179 1_555
Al1 O14 1.920219 1_555
Al2 O2 1.910838 1_555
Al2 O0 1.910843 1_555
Al2 O5 1.910926 1_555
Al2 O7 1.910929 1_555
Al2 O8 1.920157 1_555
Al2 O13 1.920236 1_555
Al3 O0 1.910847 1_655
Al3 O2 1.910852 1_655
Al3 O5 1.910922 1_555
Al3 O7 1.910932 1_555
Al3 O10 1.920190 1_555
Al3 O15 1.920204 1_555
O0 Pt0 2.037439 1_555
O1 Pt1 2.037476 1_546
O2 Pt2 2.037454 1_565
O3 Pt3 2.037478 1_556
O4 Pt2 2.037402 1_555
O5 Pt3 2.037376 1_555
O6 Pt0 2.037419 1_555
O7 Pt1 2.037384 1_555
O8 Pt0 2.024916 1_555
O8 Pt2 2.024942 1_565
O9 Pt1 2.024943 1_546
O9 Pt3 2.024951 1_556
O10 Pt0 2.024921 1_655
O10 Pt2 2.024949 1_665
O11 Pt3 2.024963 1_556
O11 Pt1 2.024969 1_546
O12 Pt2 2.024812 1_655
O12 Pt0 2.024838 1_655
O13 Pt3 2.024805 1_555
O13 Pt1 2.024808 1_555
O14 Pt2 2.024809 1_555
O14 Pt0 2.024833 1_555
O15 Pt3 2.024787 1_555
O15 Pt1 2.024790 1_555
