# generated using pymatgen
data_TaNb4(NiP)4
_symmetry_space_group_name_H-M   'P 1'
_cell_length_a   7.24690453
_cell_length_b   7.24690511
_cell_length_c   7.24690458
_cell_angle_alpha   93.37645482
_cell_angle_beta   93.37645548
_cell_angle_gamma   151.90985532
_symmetry_Int_Tables_number   1
_chemical_formula_structural   TaNb4(NiP)4
_chemical_formula_sum   'Ta1 Nb4 Ni4 P4'
_cell_volume   173.84745574
_cell_formula_units_Z   1
loop_
 _symmetry_equiv_pos_site_id
 _symmetry_equiv_pos_as_xyz
  1  'x, y, z'
loop_
 _atom_site_type_symbol
 _atom_site_label
 _atom_site_symmetry_multiplicity
 _atom_site_fract_x
 _atom_site_fract_y
 _atom_site_fract_z
 _atom_site_occupancy
  Ta  Ta0  1  0.50000000  0.50000000  0.00000000  1
  Nb  Nb0  1  0.80604495  0.13113350  0.93717745  1
  Nb  Nb1  1  0.13113350  0.19395505  0.32508856  1
  Nb  Nb2  1  0.86886650  0.80604495  0.67491144  1
  Nb  Nb3  1  0.19395505  0.86886650  0.06282255  1
  Ni  Ni0  1  0.91607294  0.39028722  0.30636016  1
  Ni  Ni1  1  0.08392706  0.60971278  0.69363984  1
  Ni  Ni2  1  0.60971278  0.91607294  0.52578372  1
  Ni  Ni3  1  0.39028722  0.08392706  0.47421628  1
  P  P0  1  0.55451447  0.23882930  0.79334376  1
  P  P1  1  0.23882930  0.44548553  0.68431383  1
  P  P2  1  0.76117070  0.55451447  0.31568617  1
  P  P3  1  0.44548553  0.76117070  0.20665624  1
loop_
_geom_bond_atom_site_label_1
_geom_bond_atom_site_label_2
_geom_bond_distance
_geom_bond_site_symmetry_2
Nb0 P3 2.585845 1_656
Nb0 P3 2.585848 1_546
Nb0 P1 2.635626 1_545
Nb0 P1 2.635627 1_655
Nb0 P0 2.720371 1_555
Nb0 Ni0 2.799194 1_556
Nb0 Ni1 2.831124 1_655
Nb0 Ni1 2.831125 1_545
Nb0 Ni2 2.895200 1_545
Nb0 Ta0 2.917439 1_656
Nb0 Ta0 2.917442 1_546
Nb0 Nb3 3.149873 1_656
Nb0 Nb3 3.149877 1_546
Nb1 P2 2.585840 1_555
Nb1 P2 2.585843 1_445
Nb1 P3 2.635626 1_445
Nb1 P3 2.635627 1_555
Nb1 P1 2.720367 1_555
Nb1 Ni3 2.799193 1_555
Nb1 Ni2 2.831120 1_445
Nb1 Ni2 2.831124 1_555
Nb1 Ni0 2.895193 1_455
Nb1 Ta0 2.917438 1_445
Nb1 Ta0 2.917439 1_555
Nb1 Nb2 3.149870 1_555
Nb1 Nb2 3.149871 1_445
Nb2 P1 2.585840 1_555
Nb2 P1 2.585843 1_665
Nb2 P0 2.635626 1_665
Nb2 P0 2.635627 1_555
Nb2 P2 2.720367 1_555
Nb2 Ni2 2.799193 1_555
Nb2 Ni3 2.831120 1_665
Nb2 Ni3 2.831124 1_555
Nb2 Ni1 2.895193 1_655
Nb2 Ta0 2.917438 1_666
Nb2 Ta0 2.917439 1_556
Nb3 P0 2.585845 1_454
Nb3 P0 2.585848 1_564
Nb3 P2 2.635626 1_565
Nb3 P2 2.635627 1_455
Nb3 P3 2.720371 1_555
Nb3 Ni1 2.799194 1_554
Nb3 Ni0 2.831124 1_455
Nb3 Ni0 2.831125 1_565
Nb3 Ni3 2.895200 1_565
Nb3 Ta0 2.917439 1_455
Nb3 Ta0 2.917442 1_565
Ni0 P3 2.196933 1_545
Ni0 P3 2.196934 1_655
Ni0 P2 2.244521 1_555
Ni0 Ni2 2.620160 1_545
Ni0 Ni2 2.620163 1_655
Ni0 Ni3 2.620174 1_665
Ni0 Ni3 2.620179 1_555
Ni0 Ni1 2.746710 1_655
Ni1 P0 2.196933 1_565
Ni1 P0 2.196934 1_455
Ni1 P1 2.244521 1_555
Ni1 Ni3 2.620160 1_565
Ni1 Ni3 2.620163 1_455
Ni1 Ni2 2.620174 1_445
Ni1 Ni2 2.620179 1_555
Ni2 P1 2.196935 1_665
Ni2 P1 2.196939 1_555
Ni2 P3 2.244506 1_555
Ni2 Ni3 2.746707 1_565
Ni3 P2 2.196935 1_445
Ni3 P2 2.196939 1_555
Ni3 P0 2.244506 1_555
P0 Ta0 2.652597 1_556
P1 Ta0 2.652603 1_556
P2 Ta0 2.652603 1_555
P3 Ta0 2.652597 1_555
