# generated using pymatgen
data_Ta6Be14SiNi8
_symmetry_space_group_name_H-M   'P 1'
_cell_length_a   7.55173131
_cell_length_b   7.55173169
_cell_length_c   7.55173087
_cell_angle_alpha   59.99999923
_cell_angle_beta   59.99999757
_cell_angle_gamma   59.99999752
_symmetry_Int_Tables_number   1
_chemical_formula_structural   Ta6Be14SiNi8
_chemical_formula_sum   'Ta6 Be14 Si1 Ni8'
_cell_volume   304.52613381
_cell_formula_units_Z   1
loop_
 _symmetry_equiv_pos_site_id
 _symmetry_equiv_pos_as_xyz
  1  'x, y, z'
loop_
 _atom_site_type_symbol
 _atom_site_label
 _atom_site_symmetry_multiplicity
 _atom_site_fract_x
 _atom_site_fract_y
 _atom_site_fract_z
 _atom_site_occupancy
  Ta  Ta0  1  0.70297953  0.29702047  0.29702047  1
  Ta  Ta1  1  0.29702047  0.70297953  0.70297953  1
  Ta  Ta2  1  0.29702047  0.70297953  0.29702047  1
  Ta  Ta3  1  0.70297953  0.29702047  0.70297953  1
  Ta  Ta4  1  0.29702047  0.29702047  0.70297953  1
  Ta  Ta5  1  0.70297953  0.70297953  0.29702047  1
  Be  Be0  1  0.32648170  0.32648170  0.32648170  1
  Be  Be1  1  0.67351830  0.67351830  0.67351830  1
  Be  Be2  1  0.32648170  0.32648170  0.02055291  1
  Be  Be3  1  0.32648170  0.02055291  0.32648170  1
  Be  Be4  1  0.67351830  0.67351830  0.97944709  1
  Be  Be5  1  0.67351830  0.97944709  0.67351830  1
  Be  Be6  1  0.02055291  0.32648170  0.32648170  1
  Be  Be7  1  0.97944709  0.67351830  0.67351830  1
  Be  Be8  1  0.50000000  0.00000000  0.00000000  1
  Be  Be9  1  0.00000000  0.50000000  0.50000000  1
  Be  Be10  1  0.00000000  0.50000000  0.00000000  1
  Be  Be11  1  0.50000000  0.00000000  0.50000000  1
  Be  Be12  1  0.00000000  0.00000000  0.50000000  1
  Be  Be13  1  0.50000000  0.50000000  0.00000000  1
  Si  Si0  1  0.00000000  0.00000000  0.00000000  1
  Ni  Ni0  1  0.12368171  0.12368171  0.12368171  1
  Ni  Ni1  1  0.87631829  0.87631929  0.87631829  1
  Ni  Ni2  1  0.12368171  0.12368171  0.62895588  1
  Ni  Ni3  1  0.12368171  0.62895588  0.12368071  1
  Ni  Ni4  1  0.87631829  0.87631929  0.37104412  1
  Ni  Ni5  1  0.87631829  0.37104412  0.87631829  1
  Ni  Ni6  1  0.62895588  0.12368171  0.12368171  1
  Ni  Ni7  1  0.37104412  0.87631829  0.87631829  1
loop_
_geom_bond_atom_site_label_1
_geom_bond_atom_site_label_2
_geom_bond_distance
_geom_bond_site_symmetry_2
Ta0 Ta4 3.065694 1_555
Ta0 Ta3 3.065694 1_555
Ta0 Ta2 3.065694 1_555
Ta0 Ta5 3.065694 1_555
Ta1 Ta5 3.065694 1_555
Ta1 Ta2 3.065694 1_555
Ta1 Ta3 3.065694 1_555
Ta1 Ta4 3.065694 1_555
Ta2 Ta4 3.065694 1_555
Ta2 Ta5 3.065694 1_555
Ta3 Ta5 3.065694 1_555
Ta3 Ta4 3.065694 1_555
Be0 Be9 2.183678 1_555
Be0 Be13 2.183678 1_555
Be0 Be11 2.183678 1_555
Be0 Ni6 2.292925 1_555
Be0 Ni2 2.292925 1_555
Be0 Ni3 2.292929 1_555
Be0 Be2 2.310292 1_555
Be0 Be6 2.310292 1_555
Be0 Be3 2.310292 1_555
Be0 Ta4 2.639547 1_555
Be0 Ta0 2.639547 1_555
Be0 Ta2 2.639547 1_555
Be1 Be9 2.183678 1_655
Be1 Be13 2.183678 1_556
Be1 Be11 2.183678 1_565
Be1 Ni7 2.292925 1_555
Be1 Ni5 2.292925 1_555
Be1 Ni4 2.292929 1_555
Be1 Be4 2.310292 1_555
Be1 Be7 2.310292 1_555
Be1 Be5 2.310292 1_555
Be1 Ta5 2.639547 1_555
Be1 Ta1 2.639547 1_555
Be1 Ta3 2.639547 1_555
Be2 Be8 2.183673 1_555
Be2 Ni0 2.292918 1_555
Be2 Ni3 2.292933 1_555
Be2 Ni6 2.292937 1_555
Be2 Be6 2.310292 1_555
Be2 Be3 2.310292 1_555
Be2 Ta4 2.639532 1_554
Be2 Ta3 2.639541 1_554
Be2 Ta1 2.639541 1_554
Be3 Be8 2.183673 1_555
Be3 Ni0 2.292918 1_555
Be3 Ni2 2.292936 1_555
Be3 Ni6 2.292937 1_555
Be3 Be6 2.310292 1_555
Be3 Ta2 2.639532 1_545
Be3 Ta1 2.639541 1_545
Be3 Ta5 2.639541 1_545
Be4 Be8 2.183673 1_566
Be4 Ni1 2.292924 1_555
Be4 Ni7 2.292937 1_555
Be4 Ni5 2.292937 1_555
Be4 Be7 2.310292 1_555
Be4 Be5 2.310292 1_555
Be4 Ta5 2.639532 1_556
Be4 Ta2 2.639541 1_556
Be4 Ta0 2.639541 1_556
Be5 Be8 2.183673 1_566
Be5 Ni1 2.292920 1_555
Be5 Ni4 2.292933 1_555
Be5 Ni7 2.292937 1_555
Be5 Be7 2.310292 1_555
Be5 Ta3 2.639532 1_565
Be5 Ta0 2.639541 1_565
Be5 Ta4 2.639541 1_565
Be6 Be9 2.183686 1_555
Be6 Ni0 2.292918 1_555
Be6 Ni2 2.292936 1_555
Be6 Ni3 2.292937 1_555
Be6 Ta0 2.639532 1_455
Be6 Ta3 2.639541 1_455
Be6 Ta5 2.639541 1_455
Be7 Be9 2.183686 1_655
Be7 Ni1 2.292924 1_555
Be7 Ni4 2.292936 1_555
Be7 Ni5 2.292937 1_555
Be7 Ta1 2.639532 1_655
Be7 Ta2 2.639541 1_655
Be7 Ta4 2.639541 1_655
Be8 Ni0 2.320478 1_555
Be8 Ni1 2.320478 1_544
Be8 Ni6 2.320485 1_555
Be8 Ni7 2.320485 1_544
Be8 Ta5 2.716754 1_545
Be8 Ta4 2.716754 1_554
Be8 Ta3 2.716754 1_554
Be8 Ta2 2.716754 1_545
Be9 Ni5 2.320478 1_455
Be9 Ni2 2.320479 1_555
Be9 Ni3 2.320485 1_555
Be9 Ni4 2.320485 1_455
Be9 Ta4 2.716754 1_555
Be9 Ta5 2.716754 1_455
Be9 Ta2 2.716754 1_555
Be9 Ta3 2.716754 1_455
Be10 Be6 2.183673 1_555
Be10 Be7 2.183673 1_454
Be10 Be2 2.183673 1_555
Be10 Be4 2.183673 1_454
Be10 Ni0 2.320479 1_555
Be10 Ni3 2.320479 1_555
Be10 Ni5 2.320485 1_454
Be10 Ni1 2.320485 1_454
Be10 Ta4 2.716754 1_554
Be10 Ta5 2.716754 1_455
Be10 Ta1 2.716754 1_554
Be10 Ta0 2.716754 1_455
Be11 Be5 2.183686 1_545
Be11 Be3 2.183686 1_555
Be11 Ni7 2.320478 1_545
Be11 Ni6 2.320478 1_555
Be11 Ni2 2.320478 1_555
Be11 Ni4 2.320478 1_545
Be11 Ta4 2.716754 1_555
Be11 Ta5 2.716754 1_545
Be11 Ta0 2.716754 1_555
Be11 Ta1 2.716754 1_545
Be12 Be3 2.183673 1_555
Be12 Be5 2.183673 1_445
Be12 Be6 2.183673 1_555
Be12 Be7 2.183673 1_445
Be12 Ni0 2.320478 1_555
Be12 Ni1 2.320478 1_445
Be12 Ni4 2.320479 1_445
Be12 Ni2 2.320485 1_555
Be12 Ta1 2.716754 1_545
Be12 Ta0 2.716754 1_455
Be12 Ta3 2.716754 1_455
Be12 Ta2 2.716754 1_545
Be13 Be4 2.183686 1_554
Be13 Be2 2.183686 1_555
Be13 Ni5 2.320478 1_554
Be13 Ni3 2.320478 1_555
Be13 Ni7 2.320479 1_554
Be13 Ni6 2.320479 1_555
Be13 Ta0 2.716754 1_555
Be13 Ta2 2.716754 1_555
Be13 Ta1 2.716754 1_554
Be13 Ta3 2.716754 1_554
Ni0 Si0 2.287850 1_555
Ni0 Ta4 2.629926 1_554
Ni0 Ta0 2.629926 1_455
Ni0 Ta2 2.629926 1_545
Ni0 Ni4 2.641777 1_445
Ni0 Ni5 2.641782 1_454
Ni0 Ni7 2.641782 1_544
Ni1 Si0 2.287844 1_666
Ni1 Ta3 2.629920 1_565
Ni1 Ta5 2.629927 1_556
Ni1 Ta1 2.629927 1_655
Ni1 Ni6 2.641777 1_566
Ni1 Ni3 2.641777 1_656
Ni1 Ni2 2.641777 1_665
Ni2 Si0 2.287844 1_556
Ni2 Ta4 2.629920 1_555
Ni2 Ta3 2.629927 1_455
Ni2 Ta1 2.629927 1_545
Ni2 Ni5 2.641771 1_455
Ni2 Ni7 2.641771 1_545
Ni3 Si0 2.287844 1_565
Ni3 Ta1 2.629920 1_554
Ni3 Ta5 2.629927 1_455
Ni3 Ta2 2.629927 1_555
Ni3 Ni7 2.641771 1_554
Ni3 Ni4 2.641782 1_455
Ni4 Si0 2.287844 1_665
Ni4 Ta0 2.629920 1_565
Ni4 Ta2 2.629927 1_655
Ni4 Ta5 2.629927 1_555
Ni4 Ni6 2.641771 1_565
Ni5 Si0 2.287844 1_656
Ni5 Ta3 2.629920 1_555
Ni5 Ta0 2.629927 1_556
Ni5 Ta4 2.629927 1_655
Ni5 Ni6 2.641771 1_556
Ni6 Si0 2.287844 1_655
Ni6 Ta0 2.629920 1_555
Ni6 Ta3 2.629927 1_554
Ni6 Ta5 2.629927 1_545
Ni7 Si0 2.287844 1_566
Ni7 Ta1 2.629920 1_555
Ni7 Ta2 2.629927 1_556
Ni7 Ta4 2.629927 1_565
