# generated using pymatgen
data_Y8Al2IrRh
_symmetry_space_group_name_H-M   'P 1'
_cell_length_a   9.56811401
_cell_length_b   9.58808602
_cell_length_c   9.56811363
_cell_angle_alpha   59.93092614
_cell_angle_beta   59.85967940
_cell_angle_gamma   59.93092587
_symmetry_Int_Tables_number   1
_chemical_formula_structural   Y8Al2IrRh
_chemical_formula_sum   'Y16 Al4 Ir2 Rh2'
_cell_volume   619.37498380
_cell_formula_units_Z   2
loop_
 _symmetry_equiv_pos_site_id
 _symmetry_equiv_pos_as_xyz
  1  'x, y, z'
loop_
 _atom_site_type_symbol
 _atom_site_label
 _atom_site_symmetry_multiplicity
 _atom_site_fract_x
 _atom_site_fract_y
 _atom_site_fract_z
 _atom_site_occupancy
  Y  Y0  1  0.80657666  0.19342334  0.80657666  1
  Y  Y1  1  0.93822042  0.56277469  0.56032091  1
  Y  Y2  1  0.56255099  0.93744901  0.56255099  1
  Y  Y3  1  0.80694545  0.19376907  0.19295029  1
  Y  Y4  1  0.19342447  0.80657553  0.19342447  1
  Y  Y5  1  0.35133950  0.94588930  0.35133950  1
  Y  Y6  1  0.93822042  0.93868398  0.56032091  1
  Y  Y7  1  0.56032091  0.93868398  0.93822042  1
  Y  Y8  1  0.19295029  0.80633619  0.80694545  1
  Y  Y9  1  0.35096741  0.35125453  0.94652453  1
  Y  Y10  1  0.56032091  0.56277469  0.93822042  1
  Y  Y11  1  0.35133950  0.35143269  0.35133950  1
  Y  Y12  1  0.19295029  0.19376907  0.80694545  1
  Y  Y13  1  0.80694545  0.80633619  0.19295029  1
  Y  Y14  1  0.93913291  0.56086709  0.93913291  1
  Y  Y15  1  0.94652453  0.35125453  0.35096741  1
  Al  Al0  1  0.57742932  0.57764388  0.57742932  1
  Al  Al1  1  0.57742932  0.26749949  0.57742932  1
  Al  Al2  1  0.57734512  0.57747690  0.26770208  1
  Al  Al3  1  0.26770208  0.57747690  0.57734512  1
  Ir  Ir0  1  0.14185836  0.57537276  0.14185836  1
  Ir  Ir1  1  0.14185836  0.14090952  0.14185836  1
  Rh  Rh0  1  0.14170369  0.14117534  0.57594463  1
  Rh  Rh1  1  0.57594463  0.14117534  0.14170369  1
loop_
_geom_bond_atom_site_label_1
_geom_bond_atom_site_label_2
_geom_bond_distance
_geom_bond_site_symmetry_2
Y0 Y15 3.555925 1_555
Y0 Y9 3.555925 1_555
Y0 Y6 3.578757 1_545
Y0 Y10 3.578757 1_555
Y0 Y1 3.578757 1_555
Y0 Y7 3.578757 1_545
Y0 Y13 3.700298 1_546
Y0 Y8 3.700298 1_645
Y0 Y3 3.700303 1_556
Y0 Y12 3.700303 1_655
Y1 Y11 3.438794 1_655
Y1 Y15 3.446958 1_555
Y1 Y4 3.555098 1_655
Y1 Y13 3.557447 1_555
Y1 Y12 3.576969 1_655
Y1 Y2 3.589711 1_555
Y1 Y6 3.604251 1_555
Y1 Y10 3.608114 1_555
Y1 Y14 3.619767 1_555
Y2 Y5 3.456609 1_555
Y2 Y8 3.571986 1_555
Y2 Y3 3.571991 1_565
Y2 Y7 3.589711 1_555
Y2 Y6 3.589711 1_555
Y3 Y6 3.557447 1_545
Y3 Y4 3.701311 1_645
Y4 Y6 3.555098 1_455
Y4 Y7 3.555098 1_554
Y4 Y5 3.561986 1_555
Y4 Y8 3.701306 1_554
Y5 Y7 3.438796 1_554
Y5 Y6 3.438797 1_455
Y5 Y8 3.555691 1_555
Y6 Y8 3.576973 1_655
Y6 Y7 3.608114 1_555
Y7 Y9 3.446966 1_565
Y8 Y9 3.561721 1_555
Y10 Y11 3.438794 1_556
Y10 Y9 3.446958 1_555
Y10 Y4 3.555098 1_556
Y10 Y8 3.557447 1_555
Y10 Y3 3.576969 1_556
Y10 Y2 3.589711 1_555
Y10 Y7 3.604251 1_555
Y10 Y14 3.619768 1_555
Y11 Y2 3.456615 1_545
Y11 Y12 3.555691 1_555
Y11 Y3 3.555691 1_555
Y11 Y4 3.561979 1_555
Y12 Y7 3.557447 1_545
Y12 Y9 3.561721 1_555
Y12 Y14 3.563278 1_455
Y12 Y2 3.571991 1_545
Y12 Y3 3.685502 1_456
Y12 Y4 3.701311 1_546
Y12 Y8 3.714740 1_545
Y13 Y5 3.555691 1_555
Y13 Y15 3.561721 1_555
Y13 Y14 3.563286 1_554
Y13 Y2 3.571986 1_555
Y13 Y7 3.576973 1_554
Y13 Y8 3.685502 1_654
Y13 Y4 3.701306 1_655
Y13 Y3 3.714740 1_565
Y14 Y15 3.431180 1_556
Y14 Y9 3.431180 1_655
Y14 Y3 3.563278 1_556
Y14 Y8 3.563286 1_655
Y14 Y6 3.619768 1_555
Y14 Y7 3.619768 1_555
Y15 Y6 3.446966 1_545
Y15 Y3 3.561721 1_555
Al0 Al2 2.964713 1_555
Al0 Al3 2.964713 1_555
Al0 Al1 2.973691 1_555
Al0 Y10 3.305566 1_555
Al0 Y1 3.305566 1_555
Al0 Y2 3.313310 1_555
Al0 Y5 3.349235 1_555
Al0 Y9 3.350434 1_555
Al0 Y15 3.350434 1_555
Al0 Y13 3.434079 1_555
Al0 Y8 3.434079 1_555
Al0 Y0 3.438780 1_555
Al1 Al2 2.964708 1_555
Al1 Al3 2.964708 1_555
Al1 Y7 3.305575 1_545
Al1 Y6 3.305575 1_545
Al1 Y2 3.313329 1_545
Al1 Y11 3.349239 1_555
Al1 Y9 3.350430 1_555
Al1 Y15 3.350430 1_555
Al1 Y3 3.434083 1_555
Al1 Y12 3.434083 1_555
Al1 Y0 3.438772 1_555
Al2 Al3 2.956414 1_555
Al2 Y14 3.303354 1_554
Al2 Y7 3.311912 1_554
Al2 Y10 3.311918 1_554
Al2 Y15 3.351658 1_555
Al2 Y5 3.351799 1_555
Al2 Y11 3.351800 1_555
Al2 Y4 3.434461 1_555
Al2 Y3 3.439873 1_555
Al2 Y13 3.439873 1_555
Al3 Y14 3.303354 1_455
Al3 Y6 3.311912 1_455
Al3 Y1 3.311918 1_455
Al3 Y9 3.351658 1_555
Al3 Y11 3.351799 1_555
Al3 Y5 3.351799 1_555
Al3 Y4 3.434461 1_555
Al3 Y8 3.439873 1_555
Al3 Y12 3.439873 1_555
Ir0 Y8 2.795035 1_554
Ir0 Y13 2.795036 1_455
Ir0 Y4 2.799563 1_555
Ir0 Y11 2.837994 1_555
Ir0 Y9 2.841607 1_554
Ir0 Y15 2.841607 1_455
Ir0 Y1 3.429137 1_455
Ir0 Y10 3.429137 1_554
Ir0 Y14 3.444311 1_454
Ir1 Y12 2.795030 1_554
Ir1 Y3 2.795030 1_455
Ir1 Y4 2.799554 1_545
Ir1 Y5 2.837995 1_545
Ir1 Y15 2.841621 1_455
Ir1 Y9 2.841621 1_554
Ir1 Y6 3.429134 1_445
Ir1 Y7 3.429134 1_544
Ir1 Y14 3.444317 1_454
Rh0 Y0 2.791880 1_455
Rh0 Y8 2.798721 1_545
Rh0 Y12 2.798733 1_555
Rh0 Y5 2.843860 1_545
Rh0 Y11 2.843873 1_555
Rh0 Y15 2.846242 1_455
Rh0 Y2 3.449211 1_545
Rh0 Y6 3.457374 1_445
Rh0 Y1 3.457382 1_455
Rh1 Y0 2.791880 1_554
Rh1 Y13 2.798721 1_545
Rh1 Y3 2.798733 1_555
Rh1 Y5 2.843860 1_545
Rh1 Y11 2.843873 1_555
Rh1 Y9 2.846242 1_554
Rh1 Y2 3.449211 1_545
Rh1 Y7 3.457374 1_544
Rh1 Y10 3.457382 1_554
