# generated using pymatgen
data_CsB3O5
_symmetry_space_group_name_H-M   'P 1'
_cell_length_a   5.94401032
_cell_length_b   8.45836825
_cell_length_c   9.75181942
_cell_angle_alpha   90.00000000
_cell_angle_beta   90.00000000
_cell_angle_gamma   90.00000000
_symmetry_Int_Tables_number   1
_chemical_formula_structural   CsB3O5
_chemical_formula_sum   'Cs4 B12 O20'
_cell_volume   490.28859894
_cell_formula_units_Z   4
loop_
 _symmetry_equiv_pos_site_id
 _symmetry_equiv_pos_as_xyz
  1  'x, y, z'
loop_
 _atom_site_type_symbol
 _atom_site_label
 _atom_site_symmetry_multiplicity
 _atom_site_fract_x
 _atom_site_fract_y
 _atom_site_fract_z
 _atom_site_occupancy
  Cs  Cs0  1  0.50170467  0.73141319  0.63177418  1
  Cs  Cs1  1  0.00170467  0.76858681  0.36822582  1
  Cs  Cs2  1  0.49829533  0.23141319  0.86822582  1
  Cs  Cs3  1  0.99829533  0.26858681  0.13177418  1
  B  B0  1  0.92855954  0.35290276  0.64436870  1
  B  B1  1  0.42855954  0.14709724  0.35563130  1
  B  B2  1  0.07144046  0.85290276  0.85563130  1
  B  B3  1  0.57144046  0.64709724  0.14436870  1
  B  B4  1  0.96715559  0.57352493  0.80384328  1
  B  B5  1  0.46715559  0.92647507  0.19615672  1
  B  B6  1  0.73569592  0.12585216  0.53323183  1
  B  B7  1  0.23569592  0.37414784  0.46676817  1
  B  B8  1  0.26430408  0.62585216  0.96676817  1
  B  B9  1  0.76430408  0.87414784  0.03323183  1
  B  B10  1  0.03284441  0.07352493  0.69615672  1
  B  B11  1  0.53284441  0.42647507  0.30384328  1
  O  O0  1  0.82856844  0.46912880  0.73800639  1
  O  O1  1  0.25297791  0.78280283  0.93815694  1
  O  O2  1  0.24702209  0.21719717  0.43815694  1
  O  O3  1  0.75297791  0.71719717  0.06184306  1
  O  O4  1  0.45165124  0.76985707  0.22341686  1
  O  O5  1  0.95165124  0.73014293  0.77658314  1
  O  O6  1  0.54834876  0.26985707  0.27658314  1
  O  O7  1  0.04834876  0.23014293  0.72341686  1
  O  O8  1  0.62766389  0.98211869  0.10370513  1
  O  O9  1  0.12766389  0.51788131  0.89629487  1
  O  O10  1  0.37233611  0.48211869  0.39629487  1
  O  O11  1  0.87233611  0.01788131  0.60370513  1
  O  O12  1  0.17143156  0.96912880  0.76199361  1
  O  O13  1  0.67143156  0.53087120  0.23800639  1
  O  O14  1  0.09014928  0.43992798  0.55724477  1
  O  O15  1  0.59014928  0.06007202  0.44275523  1
  O  O16  1  0.90985072  0.93992798  0.94275523  1
  O  O17  1  0.40985072  0.56007202  0.05724477  1
  O  O18  1  0.74702209  0.28280283  0.56184306  1
  O  O19  1  0.32856844  0.03087120  0.26199361  1
loop_
_geom_bond_atom_site_label_1
_geom_bond_atom_site_label_2
_geom_bond_distance
_geom_bond_site_symmetry_2
Cs0 O5 3.024428 1_555
Cs0 O12 3.083730 1_555
Cs0 O0 3.125657 1_555
Cs0 O10 3.211050 1_555
Cs0 O11 3.286257 1_565
Cs0 O1 3.361784 1_555
Cs0 O15 3.376684 1_565
Cs0 O14 3.548409 1_555
Cs0 O5 3.561470 1_455
Cs0 Cs1 3.941696 1_555
Cs0 Cs1 3.941696 1_655
Cs1 O4 3.024428 1_555
Cs1 O13 3.083730 1_455
Cs1 O19 3.125657 1_565
Cs1 O11 3.211050 1_465
Cs1 O10 3.286257 1_555
Cs1 O3 3.361784 1_455
Cs1 O14 3.376684 1_555
Cs1 O15 3.548409 1_465
Cs1 O4 3.561470 1_455
Cs2 O7 3.024428 1_555
Cs2 O0 3.083730 1_555
Cs2 O12 3.125657 1_545
Cs2 O8 3.211050 1_546
Cs2 O9 3.286257 1_555
Cs2 O18 3.361784 1_555
Cs2 O17 3.376684 1_556
Cs2 O16 3.548409 1_545
Cs2 O7 3.561470 1_655
Cs2 Cs3 3.941696 1_456
Cs2 Cs3 3.941696 1_556
Cs3 O6 3.024428 1_555
Cs3 O19 3.083730 1_655
Cs3 O13 3.125657 1_555
Cs3 O9 3.211050 1_654
Cs3 O8 3.286257 1_545
Cs3 O2 3.361784 1_655
Cs3 O16 3.376684 1_544
Cs3 O17 3.548409 1_655
Cs3 O6 3.561470 1_655
B0 O0 1.467488 1_555
B0 O18 1.470919 1_555
B0 O7 1.476273 1_655
B0 O14 1.478588 1_655
B1 O19 1.467488 1_555
B1 O2 1.470919 1_555
B1 O6 1.476273 1_555
B1 O15 1.478588 1_555
B2 O12 1.467488 1_555
B2 O1 1.470919 1_555
B2 O5 1.476273 1_455
B2 O16 1.478588 1_455
B3 O13 1.467488 1_555
B3 O3 1.470919 1_555
B3 O4 1.476273 1_555
B3 O17 1.478588 1_555
B4 O5 1.354282 1_555
B4 O0 1.367667 1_555
B4 O9 1.394483 1_655
B5 O4 1.354282 1_555
B5 O19 1.367667 1_565
B5 O8 1.394483 1_555
B6 O15 1.355174 1_555
B6 O18 1.358219 1_555
B6 O11 1.402140 1_555
B7 O14 1.355174 1_555
B7 O2 1.358219 1_555
B7 O10 1.402140 1_555
B8 O17 1.355174 1_556
B8 O1 1.358219 1_555
B8 O9 1.402140 1_555
B9 O16 1.355174 1_554
B9 O3 1.358219 1_555
B9 O8 1.402140 1_555
B10 O7 1.354282 1_555
B10 O12 1.367667 1_545
B10 O11 1.394483 1_455
B11 O6 1.354282 1_555
B11 O13 1.367667 1_555
B11 O10 1.394483 1_555
