# generated using pymatgen
data_Zr10Sn5SbSe
_symmetry_space_group_name_H-M   'P 1'
_cell_length_a   5.86086313
_cell_length_b   8.59274710
_cell_length_c   8.58771315
_cell_angle_alpha   120.01908761
_cell_angle_beta   89.96023345
_cell_angle_gamma   90.07907510
_symmetry_Int_Tables_number   1
_chemical_formula_structural   Zr10Sn5SbSe
_chemical_formula_sum   'Zr10 Sn5 Sb1 Se1'
_cell_volume   374.47065676
_cell_formula_units_Z   1
loop_
 _symmetry_equiv_pos_site_id
 _symmetry_equiv_pos_as_xyz
  1  'x, y, z'
loop_
 _atom_site_type_symbol
 _atom_site_label
 _atom_site_symmetry_multiplicity
 _atom_site_fract_x
 _atom_site_fract_y
 _atom_site_fract_z
 _atom_site_occupancy
  Zr  Zr0  1  0.49987593  0.33444415  0.66799121  1
  Zr  Zr1  1  0.49987855  0.66645319  0.33201258  1
  Zr  Zr2  1  0.00049973  0.66657141  0.33257550  1
  Zr  Zr3  1  0.00050324  0.33400051  0.66742924  1
  Zr  Zr4  1  0.76463985  0.25749047  0.00002936  1
  Zr  Zr5  1  0.76547311  0.74352874  0.74312483  1
  Zr  Zr6  1  0.76547343  0.00032885  0.25683782  1
  Zr  Zr7  1  0.23495707  0.74182898  0.00003552  1
  Zr  Zr8  1  0.23410249  0.25669536  0.25708295  1
  Zr  Zr9  1  0.23409959  0.99954799  0.74288843  1
  Sn  Sn0  1  0.74833768  0.39284389  0.39283991  1
  Sn  Sn1  1  0.74833656  0.99991923  0.60712202  1
  Sn  Sn2  1  0.25138207  0.39015342  0.00004113  1
  Sn  Sn3  1  0.25122021  0.60755245  0.60664927  1
  Sn  Sn4  1  0.25121883  0.00082091  0.39332170  1
  Sb  Sb0  1  0.75066323  0.60788948  0.00002344  1
  Se  Se0  1  0.49933442  0.99993298  0.99999709  1
loop_
_geom_bond_atom_site_label_1
_geom_bond_atom_site_label_2
_geom_bond_distance
_geom_bond_site_symmetry_2
Zr0 Zr3 2.926756 1_555
Zr0 Zr3 2.934113 1_655
Zr0 Zr7 3.580075 1_556
Zr0 Zr4 3.587684 1_556
Zr0 Zr5 3.593421 1_555
Zr0 Zr9 3.599904 1_545
Zr0 Zr8 3.601488 1_555
Zr0 Zr6 3.604779 1_555
Zr1 Zr2 2.926792 1_555
Zr1 Zr2 2.934077 1_655
Zr1 Zr7 3.579739 1_555
Zr1 Zr4 3.587395 1_555
Zr1 Zr6 3.593037 1_565
Zr1 Zr8 3.599553 1_555
Zr1 Zr9 3.601169 1_555
Zr1 Zr5 3.604360 1_555
Zr2 Zr7 3.507370 1_555
Zr2 Zr4 3.517157 1_455
Zr2 Zr9 3.519256 1_555
Zr2 Zr6 3.524738 1_465
Zr2 Zr8 3.525114 1_555
Zr2 Zr5 3.525348 1_455
Zr3 Zr7 3.507722 1_556
Zr3 Zr4 3.517435 1_456
Zr3 Zr8 3.519578 1_555
Zr3 Zr5 3.525122 1_455
Zr3 Zr9 3.525465 1_545
Zr3 Zr6 3.525804 1_455
Zr4 Zr8 3.530892 1_655
Zr4 Zr9 3.531361 1_644
Zr5 Zr9 3.517237 1_655
Zr5 Zr7 3.532682 1_656
Zr6 Zr8 3.517820 1_655
Zr6 Zr7 3.532085 1_645
Sn0 Zr6 2.968016 1_555
Sn0 Zr4 2.969088 1_555
Sn0 Zr5 3.011487 1_555
Sn0 Zr0 3.022477 1_555
Sn0 Zr1 3.026571 1_555
Sn0 Zr2 3.031757 1_655
Sn0 Zr3 3.033213 1_655
Sn0 Zr8 3.077846 1_655
Sn0 Zr8 3.231353 1_555
Sn0 Sn3 3.446996 1_555
Sn0 Sn3 3.473457 1_655
Sn1 Zr5 2.967022 1_555
Sn1 Zr4 2.969903 1_566
Sn1 Zr6 3.011508 1_565
Sn1 Zr1 3.021970 1_555
Sn1 Zr0 3.027125 1_565
Sn1 Zr3 3.032326 1_665
Sn1 Zr2 3.032692 1_655
Sn1 Zr9 3.077840 1_655
Sn1 Zr9 3.231351 1_555
Sn1 Sn4 3.446968 1_565
Sn1 Sn4 3.473405 1_665
Sn2 Zr8 2.954687 1_555
Sn2 Zr9 2.955565 1_544
Sn2 Zr1 3.018136 1_555
Sn2 Zr0 3.018592 1_554
Sn2 Zr7 3.023549 1_555
Sn2 Zr2 3.029140 1_555
Sn2 Zr3 3.029608 1_554
Sn2 Zr4 3.070576 1_455
Sn2 Zr4 3.218335 1_555
Sn3 Zr9 2.963464 1_555
Sn3 Zr7 2.975383 1_556
Sn3 Zr8 3.009157 1_555
Sn3 Zr1 3.021610 1_555
Sn3 Zr0 3.025893 1_555
Sn3 Zr2 3.026112 1_555
Sn3 Zr3 3.028826 1_555
Sn3 Zr5 3.078634 1_455
Sn3 Zr5 3.232304 1_555
Sn4 Zr8 2.964403 1_555
Sn4 Zr7 2.974553 1_545
Sn4 Zr9 3.009069 1_545
Sn4 Zr0 3.022124 1_555
Sn4 Zr1 3.025380 1_545
Sn4 Zr3 3.026607 1_555
Sn4 Zr2 3.028316 1_545
Sn4 Zr6 3.078670 1_455
Sn4 Zr6 3.232340 1_555
Sb0 Zr6 2.966634 1_565
Sb0 Zr5 2.967391 1_554
Sb0 Zr4 3.012143 1_555
Sb0 Zr1 3.017058 1_555
Sb0 Zr0 3.017342 1_554
Sb0 Zr2 3.019462 1_655
Sb0 Zr3 3.019721 1_654
Sb0 Zr7 3.061348 1_655
Sb0 Zr7 3.235657 1_555
Sb0 Sn2 3.471078 1_555
Sb0 Sn2 3.482533 1_655
Se0 Zr9 2.699832 1_555
Se0 Zr8 2.699878 1_566
Se0 Zr5 2.700939 1_555
Se0 Zr6 2.700973 1_566
Se0 Zr4 2.702885 1_566
Se0 Zr7 2.703862 1_556
