# generated using pymatgen
data_YCdBPd6
_symmetry_space_group_name_H-M   'P 1'
_cell_length_a   5.82889172
_cell_length_b   5.82889206
_cell_length_c   5.82889256
_cell_angle_alpha   60.00000269
_cell_angle_beta   60.00000075
_cell_angle_gamma   59.99999925
_symmetry_Int_Tables_number   1
_chemical_formula_structural   YCdBPd6
_chemical_formula_sum   'Y1 Cd1 B1 Pd6'
_cell_volume   140.03708514
_cell_formula_units_Z   1
loop_
 _symmetry_equiv_pos_site_id
 _symmetry_equiv_pos_as_xyz
  1  'x, y, z'
loop_
 _atom_site_type_symbol
 _atom_site_label
 _atom_site_symmetry_multiplicity
 _atom_site_fract_x
 _atom_site_fract_y
 _atom_site_fract_z
 _atom_site_occupancy
  Y  Y0  1  0.75000000  0.75000000  0.75000000  1
  Cd  Cd0  1  0.25000000  0.25000000  0.25000000  1
  B  B0  1  0.00000000  0.00000000  0.00000000  1
  Pd  Pd0  1  0.74443537  0.25556563  0.25556563  1
  Pd  Pd1  1  0.25556563  0.74443537  0.25556563  1
  Pd  Pd2  1  0.74443437  0.74443437  0.25556663  1
  Pd  Pd3  1  0.25556563  0.25556563  0.74443537  1
  Pd  Pd4  1  0.74443437  0.25556663  0.74443437  1
  Pd  Pd5  1  0.25556663  0.74443437  0.74443437  1
loop_
_geom_bond_atom_site_label_1
_geom_bond_atom_site_label_2
_geom_bond_distance
_geom_bond_site_symmetry_2
Cd0 Pd0 2.914801 1_455
Cd0 Pd1 2.914801 1_545
Cd0 Pd3 2.914802 1_554
Cd0 Pd2 2.914807 1_455
Cd0 Pd2 2.914807 1_545
Cd0 Pd4 2.914807 1_455
Cd0 Pd4 2.914807 1_554
Cd0 Pd5 2.914807 1_545
Cd0 Pd5 2.914807 1_554
Cd0 Pd0 2.914813 1_555
Cd0 Pd1 2.914813 1_555
Cd0 Pd3 2.914813 1_555
B0 Pd3 2.106704 1_554
B0 Pd2 2.106704 1_445
B0 Pd5 2.106704 1_544
B0 Pd1 2.106704 1_545
B0 Pd4 2.106704 1_454
B0 Pd0 2.106704 1_455
Pd0 Pd2 2.849563 1_555
Pd0 Pd4 2.849563 1_555
Pd0 Pd1 2.849569 1_555
Pd0 Pd3 2.849569 1_555
Pd0 Y0 2.914807 1_545
Pd0 Y0 2.914807 1_554
Pd1 Pd2 2.849563 1_555
Pd1 Pd5 2.849563 1_555
Pd1 Pd3 2.849569 1_555
Pd1 Y0 2.914807 1_455
Pd1 Y0 2.914807 1_554
Pd2 Pd5 2.849557 1_555
Pd2 Pd4 2.849558 1_555
Pd2 Y0 2.914802 1_555
Pd2 Y0 2.914813 1_554
Pd3 Pd4 2.849563 1_555
Pd3 Pd5 2.849563 1_555
Pd3 Y0 2.914807 1_455
Pd3 Y0 2.914807 1_545
Pd4 Pd5 2.849557 1_555
Pd4 Y0 2.914801 1_555
Pd4 Y0 2.914813 1_545
Pd5 Y0 2.914801 1_555
Pd5 Y0 2.914813 1_455
