# generated using pymatgen
data_Ta2OsS6
_symmetry_space_group_name_H-M   'P 1'
_cell_length_a   5.62868378
_cell_length_b   5.62868441
_cell_length_c   6.73788679
_cell_angle_alpha   81.98915923
_cell_angle_beta   81.98915604
_cell_angle_gamma   120.00332128
_symmetry_Int_Tables_number   1
_chemical_formula_structural   Ta2OsS6
_chemical_formula_sum   'Ta2 Os1 S6'
_cell_volume   177.53797562
_cell_formula_units_Z   1
loop_
 _symmetry_equiv_pos_site_id
 _symmetry_equiv_pos_as_xyz
  1  'x, y, z'
loop_
 _atom_site_type_symbol
 _atom_site_label
 _atom_site_symmetry_multiplicity
 _atom_site_fract_x
 _atom_site_fract_y
 _atom_site_fract_z
 _atom_site_occupancy
  Ta  Ta0  1  0.83331026  0.50004485  0.49992446  1
  Ta  Ta1  1  0.50004485  0.83331026  0.49992446  1
  Os  Os0  1  0.16658812  0.16658812  0.50019878  1
  S  S0  1  0.57253449  0.24664540  0.26041823  1
  S  S1  1  0.24664540  0.57253449  0.26041823  1
  S  S2  1  0.92050808  0.92050808  0.26071391  1
  S  S3  1  0.76069280  0.76069280  0.73972246  1
  S  S4  1  0.41289242  0.08668758  0.73948973  1
  S  S5  1  0.08668758  0.41289242  0.73948973  1
loop_
_geom_bond_atom_site_label_1
_geom_bond_atom_site_label_2
_geom_bond_distance
_geom_bond_site_symmetry_2
Os0 S2 2.401668 1_445
Os0 S4 2.401731 1_555
Os0 S5 2.401731 1_555
Os0 S3 2.401743 1_445
Os0 S0 2.402635 1_555
Os0 S1 2.402636 1_555
S0 Ta0 2.449709 1_555
S0 Ta1 2.450333 1_545
S0 S1 3.177200 1_555
S0 S2 3.177770 1_445
S0 S2 3.285761 1_555
S0 S1 3.286504 1_655
S0 S1 3.286505 1_545
S0 S2 3.286650 1_545
S1 Ta1 2.449709 1_555
S1 Ta0 2.450333 1_455
S1 S2 3.177771 1_445
S1 S2 3.285761 1_555
S1 S2 3.286650 1_455
S2 Ta1 2.448346 1_555
S2 Ta0 2.448346 1_555
S3 Ta1 2.450796 1_555
S3 Ta0 2.450796 1_555
S3 S4 3.178717 1_665
S3 S5 3.178717 1_665
S3 S4 3.285107 1_565
S3 S5 3.285107 1_655
S3 S5 3.286326 1_555
S3 S4 3.286326 1_555
S4 Ta1 2.449650 1_545
S4 Ta0 2.449681 1_555
S4 S5 3.180279 1_555
S4 S5 3.284916 1_655
S4 S5 3.284916 1_545
S5 Ta0 2.449650 1_455
S5 Ta1 2.449681 1_555
