# generated using pymatgen
data_KLiHfTe3
_symmetry_space_group_name_H-M   'P 1'
_cell_length_a   8.47596686
_cell_length_b   17.73762290
_cell_length_c   21.43246984
_cell_angle_alpha   70.39766763
_cell_angle_beta   90.00000000
_cell_angle_gamma   90.00000000
_symmetry_Int_Tables_number   1
_chemical_formula_structural   KLiHfTe3
_chemical_formula_sum   'K16 Li16 Hf16 Te48'
_cell_volume   3035.48424485
_cell_formula_units_Z   16
loop_
 _symmetry_equiv_pos_site_id
 _symmetry_equiv_pos_as_xyz
  1  'x, y, z'
loop_
 _atom_site_type_symbol
 _atom_site_label
 _atom_site_symmetry_multiplicity
 _atom_site_fract_x
 _atom_site_fract_y
 _atom_site_fract_z
 _atom_site_occupancy
  K  K0_0  1  0.37500000  0.37487110  0.14533875  1
  K  K0_1  1  0.37500000  0.37487110  0.64533875  1
  K  K0_2  1  0.37500000  0.87487110  0.14533875  1
  K  K0_3  1  0.37500000  0.87487110  0.64533875  1
  K  K0_4  1  0.87500000  0.37487110  0.14533875  1
  K  K0_5  1  0.87500000  0.37487110  0.64533875  1
  K  K0_6  1  0.87500000  0.87487110  0.14533875  1
  K  K0_7  1  0.87500000  0.87487110  0.64533875  1
  K  K1_0  1  0.12500000  0.12512890  0.35466125  1
  K  K1_1  1  0.12500000  0.12512890  0.85466125  1
  K  K1_2  1  0.12500000  0.62512890  0.35466125  1
  K  K1_3  1  0.12500000  0.62512890  0.85466125  1
  K  K1_4  1  0.62500000  0.12512890  0.35466125  1
  K  K1_5  1  0.62500000  0.12512890  0.85466125  1
  K  K1_6  1  0.62500000  0.62512890  0.35466125  1
  K  K1_7  1  0.62500000  0.62512890  0.85466125  1
  Li  Li0_0  1  0.12500000  0.03799716  0.20044719  1
  Li  Li0_1  1  0.12500000  0.03799716  0.70044719  1
  Li  Li0_2  1  0.12500000  0.53799716  0.20044719  1
  Li  Li0_3  1  0.12500000  0.53799716  0.70044719  1
  Li  Li0_4  1  0.62500000  0.03799716  0.20044719  1
  Li  Li0_5  1  0.62500000  0.03799716  0.70044719  1
  Li  Li0_6  1  0.62500000  0.53799716  0.20044719  1
  Li  Li0_7  1  0.62500000  0.53799716  0.70044719  1
  Li  Li1_0  1  0.37500000  0.46200284  0.29955281  1
  Li  Li1_1  1  0.37500000  0.46200284  0.79955281  1
  Li  Li1_2  1  0.37500000  0.96200284  0.29955281  1
  Li  Li1_3  1  0.37500000  0.96200284  0.79955281  1
  Li  Li1_4  1  0.87500000  0.46200284  0.29955281  1
  Li  Li1_5  1  0.87500000  0.46200284  0.79955281  1
  Li  Li1_6  1  0.87500000  0.96200284  0.29955281  1
  Li  Li1_7  1  0.87500000  0.96200284  0.79955281  1
  Hf  Hf0_0  1  0.12500000  0.34296652  0.41934142  1
  Hf  Hf0_1  1  0.12500000  0.34296652  0.91934142  1
  Hf  Hf0_2  1  0.12500000  0.84296652  0.41934142  1
  Hf  Hf0_3  1  0.12500000  0.84296652  0.91934142  1
  Hf  Hf0_4  1  0.62500000  0.34296652  0.41934142  1
  Hf  Hf0_5  1  0.62500000  0.34296652  0.91934142  1
  Hf  Hf0_6  1  0.62500000  0.84296652  0.41934142  1
  Hf  Hf0_7  1  0.62500000  0.84296652  0.91934142  1
  Hf  Hf1_0  1  0.37500000  0.15703348  0.08065858  1
  Hf  Hf1_1  1  0.37500000  0.15703348  0.58065858  1
  Hf  Hf1_2  1  0.37500000  0.65703348  0.08065858  1
  Hf  Hf1_3  1  0.37500000  0.65703348  0.58065858  1
  Hf  Hf1_4  1  0.87500000  0.15703348  0.08065858  1
  Hf  Hf1_5  1  0.87500000  0.15703348  0.58065858  1
  Hf  Hf1_6  1  0.87500000  0.65703348  0.08065858  1
  Hf  Hf1_7  1  0.87500000  0.65703348  0.58065858  1
  Te  Te0_0  1  0.12500000  0.37536106  0.28129814  1
  Te  Te0_1  1  0.12500000  0.37536106  0.78129814  1
  Te  Te0_2  1  0.12500000  0.87536106  0.28129814  1
  Te  Te0_3  1  0.12500000  0.87536106  0.78129814  1
  Te  Te0_4  1  0.62500000  0.37536106  0.28129814  1
  Te  Te0_5  1  0.62500000  0.37536106  0.78129814  1
  Te  Te0_6  1  0.62500000  0.87536106  0.28129814  1
  Te  Te0_7  1  0.62500000  0.87536106  0.78129814  1
  Te  Te1_0  1  0.37500000  0.44980351  0.42903509  1
  Te  Te1_1  1  0.37500000  0.44980351  0.92903509  1
  Te  Te1_2  1  0.37500000  0.94980351  0.42903509  1
  Te  Te1_3  1  0.37500000  0.94980351  0.92903509  1
  Te  Te1_4  1  0.87500000  0.44980351  0.42903509  1
  Te  Te1_5  1  0.87500000  0.44980351  0.92903509  1
  Te  Te1_6  1  0.87500000  0.94980351  0.42903509  1
  Te  Te1_7  1  0.87500000  0.94980351  0.92903509  1
  Te  Te2_0  1  0.37500000  0.22291954  0.43401988  1
  Te  Te2_1  1  0.37500000  0.22291954  0.93401988  1
  Te  Te2_2  1  0.37500000  0.72291954  0.43401988  1
  Te  Te2_3  1  0.37500000  0.72291954  0.93401988  1
  Te  Te2_4  1  0.87500000  0.22291954  0.43401988  1
  Te  Te2_5  1  0.87500000  0.22291954  0.93401988  1
  Te  Te2_6  1  0.87500000  0.72291954  0.43401988  1
  Te  Te2_7  1  0.87500000  0.72291954  0.93401988  1
  Te  Te3_0  1  0.37500000  0.12463894  0.21870186  1
  Te  Te3_1  1  0.37500000  0.12463894  0.71870186  1
  Te  Te3_2  1  0.37500000  0.62463894  0.21870186  1
  Te  Te3_3  1  0.37500000  0.62463894  0.71870186  1
  Te  Te3_4  1  0.87500000  0.12463894  0.21870186  1
  Te  Te3_5  1  0.87500000  0.12463894  0.71870186  1
  Te  Te3_6  1  0.87500000  0.62463894  0.21870186  1
  Te  Te3_7  1  0.87500000  0.62463894  0.71870186  1
  Te  Te4_0  1  0.12500000  0.27708046  0.06598012  1
  Te  Te4_1  1  0.12500000  0.27708046  0.56598012  1
  Te  Te4_2  1  0.12500000  0.77708046  0.06598012  1
  Te  Te4_3  1  0.12500000  0.77708046  0.56598012  1
  Te  Te4_4  1  0.62500000  0.27708046  0.06598012  1
  Te  Te4_5  1  0.62500000  0.27708046  0.56598012  1
  Te  Te4_6  1  0.62500000  0.77708046  0.06598012  1
  Te  Te4_7  1  0.62500000  0.77708046  0.56598012  1
  Te  Te5_0  1  0.12500000  0.05019649  0.07096491  1
  Te  Te5_1  1  0.12500000  0.05019649  0.57096491  1
  Te  Te5_2  1  0.12500000  0.55019649  0.07096491  1
  Te  Te5_3  1  0.12500000  0.55019649  0.57096491  1
  Te  Te5_4  1  0.62500000  0.05019649  0.07096491  1
  Te  Te5_5  1  0.62500000  0.05019649  0.57096491  1
  Te  Te5_6  1  0.62500000  0.55019649  0.07096491  1
  Te  Te5_7  1  0.62500000  0.55019649  0.57096491  1
loop_
_geom_bond_atom_site_label_1
_geom_bond_atom_site_label_2
_geom_bond_distance
_geom_bond_site_symmetry_2
K0_0 Te4_4 3.517290 1_555
K0_0 Te4_0 3.517290 1_555
K0_0 Te0_4 3.605312 1_555
K0_0 Te0_0 3.605312 1_555
K0_0 Te5_6 3.657330 1_555
K0_0 Te5_2 3.657330 1_555
K0_0 Te3_0 4.182113 1_555
K0_0 K0_4 4.237983 1_455
K0_0 K0_4 4.237983 1_555
K0_0 Te1_1 4.373094 1_554
K0_1 Te4_5 3.517290 1_555
K0_1 Te4_1 3.517290 1_555
K0_1 Te0_5 3.605312 1_555
K0_1 Te0_1 3.605312 1_555
K0_1 Te5_7 3.657330 1_555
K0_1 Te5_3 3.657330 1_555
K0_1 Te3_1 4.182113 1_555
K0_1 K0_5 4.237983 1_455
K0_1 K0_5 4.237983 1_555
K0_1 Te1_0 4.373094 1_555
K0_2 Te4_6 3.517290 1_555
K0_2 Te4_2 3.517290 1_555
K0_2 Te0_6 3.605312 1_555
K0_2 Te0_2 3.605312 1_555
K0_2 Te5_4 3.657330 1_565
K0_2 Te5_0 3.657330 1_565
K0_2 Te3_2 4.182113 1_555
K0_2 K0_6 4.237983 1_455
K0_2 K0_6 4.237983 1_555
K0_2 Te1_3 4.373094 1_554
K0_3 Te4_7 3.517290 1_555
K0_3 Te4_3 3.517290 1_555
K0_3 Te0_7 3.605312 1_555
K0_3 Te0_3 3.605312 1_555
K0_3 Te5_5 3.657330 1_565
K0_3 Te5_1 3.657330 1_565
K0_3 Te3_3 4.182113 1_555
K0_3 K0_7 4.237983 1_455
K0_3 K0_7 4.237983 1_555
K0_3 Te1_2 4.373094 1_555
K0_4 Te4_0 3.517290 1_655
K0_4 Te4_4 3.517290 1_555
K0_4 Te0_0 3.605312 1_655
K0_4 Te0_4 3.605312 1_555
K0_4 Te5_2 3.657330 1_655
K0_4 Te5_6 3.657330 1_555
K0_4 Te3_4 4.182113 1_555
K0_4 Te1_5 4.373094 1_554
K0_5 Te4_1 3.517290 1_655
K0_5 Te4_5 3.517290 1_555
K0_5 Te0_1 3.605312 1_655
K0_5 Te0_5 3.605312 1_555
K0_5 Te5_3 3.657330 1_655
K0_5 Te5_7 3.657330 1_555
K0_5 Te3_5 4.182113 1_555
K0_5 Te1_4 4.373094 1_555
K0_6 Te4_2 3.517290 1_655
K0_6 Te4_6 3.517290 1_555
K0_6 Te0_2 3.605312 1_655
K0_6 Te0_6 3.605312 1_555
K0_6 Te5_0 3.657330 1_665
K0_6 Te5_4 3.657330 1_565
K0_6 Te3_6 4.182113 1_555
K0_6 Te1_7 4.373094 1_554
K0_7 Te4_3 3.517290 1_655
K0_7 Te4_7 3.517290 1_555
K0_7 Te0_3 3.605312 1_655
K0_7 Te0_7 3.605312 1_555
K0_7 Te5_1 3.657330 1_665
K0_7 Te5_5 3.657330 1_565
K0_7 Te3_7 4.182113 1_555
K0_7 Te1_6 4.373094 1_555
K1_0 Te2_4 3.517290 1_455
K1_0 Te2_0 3.517290 1_555
K1_0 Te3_4 3.605312 1_455
K1_0 Te3_0 3.605312 1_555
K1_0 Te1_6 3.657330 1_445
K1_0 Te1_2 3.657330 1_545
K1_0 Te0_0 4.182113 1_555
K1_0 K1_4 4.237983 1_455
K1_0 K1_4 4.237983 1_555
K1_0 Te5_1 4.373094 1_555
K1_1 Te2_5 3.517290 1_455
K1_1 Te2_1 3.517290 1_555
K1_1 Te3_5 3.605312 1_455
K1_1 Te3_1 3.605312 1_555
K1_1 Te1_7 3.657330 1_445
K1_1 Te1_3 3.657330 1_545
K1_1 Te0_1 4.182113 1_555
K1_1 K1_5 4.237983 1_555
K1_1 K1_5 4.237983 1_455
K1_1 Te5_0 4.373094 1_556
K1_2 Te2_6 3.517290 1_455
K1_2 Te2_2 3.517290 1_555
K1_2 Te3_6 3.605312 1_455
K1_2 Te3_2 3.605312 1_555
K1_2 Te1_4 3.657330 1_455
K1_2 Te1_0 3.657330 1_555
K1_2 Te0_2 4.182113 1_555
K1_2 K1_6 4.237983 1_455
K1_2 K1_6 4.237983 1_555
K1_2 Te5_3 4.373094 1_555
K1_3 Te2_7 3.517290 1_455
K1_3 Te2_3 3.517290 1_555
K1_3 Te3_7 3.605312 1_455
K1_3 Te3_3 3.605312 1_555
K1_3 Te1_5 3.657330 1_455
K1_3 Te1_1 3.657330 1_555
K1_3 Te0_3 4.182113 1_555
K1_3 K1_7 4.237983 1_555
K1_3 K1_7 4.237983 1_455
K1_3 Te5_2 4.373094 1_556
K1_4 Te2_0 3.517290 1_555
K1_4 Te2_4 3.517290 1_555
K1_4 Te3_0 3.605312 1_555
K1_4 Te3_4 3.605312 1_555
K1_4 Te1_2 3.657330 1_545
K1_4 Te1_6 3.657330 1_545
K1_4 Te0_4 4.182113 1_555
K1_4 Te5_5 4.373094 1_555
K1_5 Te2_1 3.517290 1_555
K1_5 Te2_5 3.517290 1_555
K1_5 Te3_1 3.605312 1_555
K1_5 Te3_5 3.605312 1_555
K1_5 Te1_3 3.657330 1_545
K1_5 Te1_7 3.657330 1_545
K1_5 Te0_5 4.182113 1_555
K1_5 Te5_4 4.373094 1_556
K1_6 Te2_2 3.517290 1_555
K1_6 Te2_6 3.517290 1_555
K1_6 Te3_2 3.605312 1_555
K1_6 Te3_6 3.605312 1_555
K1_6 Te1_0 3.657330 1_555
K1_6 Te1_4 3.657330 1_555
K1_6 Te0_6 4.182113 1_555
K1_6 Te5_7 4.373094 1_555
K1_7 Te2_3 3.517290 1_555
K1_7 Te2_7 3.517290 1_555
K1_7 Te3_3 3.605312 1_555
K1_7 Te3_7 3.605312 1_555
K1_7 Te1_1 3.657330 1_555
K1_7 Te1_5 3.657330 1_555
K1_7 Te0_7 4.182113 1_555
K1_7 Te5_6 4.373094 1_556
Li0_0 Te5_0 2.710206 1_555
Li0_0 Te3_4 2.721847 1_455
Li0_0 Te3_0 2.721847 1_555
Li0_0 Te0_2 2.823214 1_545
Li0_0 Li1_6 2.982901 1_445
Li0_0 Li1_2 2.982901 1_545
Li0_1 Te5_1 2.710206 1_555
Li0_1 Te3_5 2.721847 1_455
Li0_1 Te3_1 2.721847 1_555
Li0_1 Te0_3 2.823214 1_545
Li0_1 Li1_7 2.982901 1_445
Li0_1 Li1_3 2.982901 1_545
Li0_2 Te5_2 2.710206 1_555
Li0_2 Te3_6 2.721847 1_455
Li0_2 Te3_2 2.721847 1_555
Li0_2 Te0_0 2.823214 1_555
Li0_2 Li1_4 2.982901 1_455
Li0_2 Li1_0 2.982901 1_555
Li0_3 Te5_3 2.710206 1_555
Li0_3 Te3_7 2.721847 1_455
Li0_3 Te3_3 2.721847 1_555
Li0_3 Te0_1 2.823214 1_555
Li0_3 Li1_5 2.982901 1_455
Li0_3 Li1_1 2.982901 1_555
Li0_4 Te5_4 2.710206 1_555
Li0_4 Te3_0 2.721847 1_555
Li0_4 Te3_4 2.721847 1_555
Li0_4 Te0_6 2.823214 1_545
Li0_4 Li1_2 2.982901 1_545
Li0_4 Li1_6 2.982901 1_545
Li0_5 Te5_5 2.710206 1_555
Li0_5 Te3_1 2.721847 1_555
Li0_5 Te3_5 2.721847 1_555
Li0_5 Te0_7 2.823214 1_545
Li0_5 Li1_3 2.982901 1_545
Li0_5 Li1_7 2.982901 1_545
Li0_6 Te5_6 2.710206 1_555
Li0_6 Te3_2 2.721847 1_555
Li0_6 Te3_6 2.721847 1_555
Li0_6 Te0_4 2.823214 1_555
Li0_6 Li1_0 2.982901 1_555
Li0_6 Li1_4 2.982901 1_555
Li0_7 Te5_7 2.710206 1_555
Li0_7 Te3_3 2.721847 1_555
Li0_7 Te3_7 2.721847 1_555
Li0_7 Te0_5 2.823214 1_555
Li0_7 Li1_1 2.982901 1_555
Li0_7 Li1_5 2.982901 1_555
Li1_0 Te1_0 2.710206 1_555
Li1_0 Te0_4 2.721847 1_555
Li1_0 Te0_0 2.721847 1_555
Li1_0 Te3_2 2.823214 1_555
Li1_1 Te1_1 2.710206 1_555
Li1_1 Te0_5 2.721847 1_555
Li1_1 Te0_1 2.721847 1_555
Li1_1 Te3_3 2.823214 1_555
Li1_2 Te1_2 2.710206 1_555
Li1_2 Te0_6 2.721847 1_555
Li1_2 Te0_2 2.721847 1_555
Li1_2 Te3_0 2.823214 1_565
Li1_3 Te1_3 2.710206 1_555
Li1_3 Te0_7 2.721847 1_555
Li1_3 Te0_3 2.721847 1_555
Li1_3 Te3_1 2.823214 1_565
Li1_4 Te1_4 2.710206 1_555
Li1_4 Te0_0 2.721847 1_655
Li1_4 Te0_4 2.721847 1_555
Li1_4 Te3_6 2.823214 1_555
Li1_5 Te1_5 2.710206 1_555
Li1_5 Te0_1 2.721847 1_655
Li1_5 Te0_5 2.721847 1_555
Li1_5 Te3_7 2.823214 1_555
Li1_6 Te1_6 2.710206 1_555
Li1_6 Te0_2 2.721847 1_655
Li1_6 Te0_6 2.721847 1_555
Li1_6 Te3_4 2.823214 1_565
Li1_7 Te1_7 2.710206 1_555
Li1_7 Te0_3 2.721847 1_655
Li1_7 Te0_7 2.721847 1_555
Li1_7 Te3_5 2.823214 1_565
Hf0_0 Te0_0 2.818306 1_555
Hf0_0 Te1_4 2.896311 1_455
Hf0_0 Te1_0 2.896311 1_555
Hf0_0 Te2_4 2.945122 1_455
Hf0_0 Te2_0 2.945122 1_555
Hf0_0 Te4_1 2.962888 1_555
Hf0_0 Li1_4 3.449979 1_455
Hf0_0 Li1_0 3.449979 1_555
Hf0_1 Te0_1 2.818306 1_555
Hf0_1 Te1_5 2.896311 1_455
Hf0_1 Te1_1 2.896311 1_555
Hf0_1 Te2_5 2.945122 1_455
Hf0_1 Te2_1 2.945122 1_555
Hf0_1 Te4_0 2.962888 1_556
Hf0_1 Li1_5 3.449979 1_455
Hf0_1 Li1_1 3.449979 1_555
Hf0_2 Te0_2 2.818306 1_555
Hf0_2 Te1_6 2.896311 1_455
Hf0_2 Te1_2 2.896311 1_555
Hf0_2 Te2_6 2.945122 1_455
Hf0_2 Te2_2 2.945122 1_555
Hf0_2 Te4_3 2.962888 1_555
Hf0_2 Li1_6 3.449979 1_455
Hf0_2 Li1_2 3.449979 1_555
Hf0_3 Te0_3 2.818306 1_555
Hf0_3 Te1_7 2.896311 1_455
Hf0_3 Te1_3 2.896311 1_555
Hf0_3 Te2_7 2.945122 1_455
Hf0_3 Te2_3 2.945122 1_555
Hf0_3 Te4_2 2.962888 1_556
Hf0_3 Li1_7 3.449979 1_455
Hf0_3 Li1_3 3.449979 1_555
Hf0_4 Te0_4 2.818306 1_555
Hf0_4 Te1_0 2.896311 1_555
Hf0_4 Te1_4 2.896311 1_555
Hf0_4 Te2_0 2.945122 1_555
Hf0_4 Te2_4 2.945122 1_555
Hf0_4 Te4_5 2.962888 1_555
Hf0_4 Li1_0 3.449979 1_555
Hf0_4 Li1_4 3.449979 1_555
Hf0_5 Te0_5 2.818306 1_555
Hf0_5 Te1_1 2.896311 1_555
Hf0_5 Te1_5 2.896311 1_555
Hf0_5 Te2_1 2.945122 1_555
Hf0_5 Te2_5 2.945122 1_555
Hf0_5 Te4_4 2.962888 1_556
Hf0_5 Li1_1 3.449979 1_555
Hf0_5 Li1_5 3.449979 1_555
Hf0_6 Te0_6 2.818306 1_555
Hf0_6 Te1_2 2.896311 1_555
Hf0_6 Te1_6 2.896311 1_555
Hf0_6 Te2_2 2.945122 1_555
Hf0_6 Te2_6 2.945122 1_555
Hf0_6 Te4_7 2.962888 1_555
Hf0_6 Li1_2 3.449979 1_555
Hf0_6 Li1_6 3.449979 1_555
Hf0_7 Te0_7 2.818306 1_555
Hf0_7 Te1_3 2.896311 1_555
Hf0_7 Te1_7 2.896311 1_555
Hf0_7 Te2_3 2.945122 1_555
Hf0_7 Te2_7 2.945122 1_555
Hf0_7 Te4_6 2.962888 1_556
Hf0_7 Li1_3 3.449979 1_555
Hf0_7 Li1_7 3.449979 1_555
Hf1_0 Te3_0 2.818306 1_555
Hf1_0 Te5_4 2.896311 1_555
Hf1_0 Te5_0 2.896311 1_555
Hf1_0 Te4_4 2.945122 1_555
Hf1_0 Te4_0 2.945122 1_555
Hf1_0 Te2_1 2.962888 1_554
Hf1_0 Li0_4 3.449979 1_555
Hf1_0 Li0_0 3.449979 1_555
Hf1_1 Te3_1 2.818306 1_555
Hf1_1 Te5_5 2.896311 1_555
Hf1_1 Te5_1 2.896311 1_555
Hf1_1 Te4_5 2.945122 1_555
Hf1_1 Te4_1 2.945122 1_555
Hf1_1 Te2_0 2.962888 1_555
Hf1_1 Li0_5 3.449979 1_555
Hf1_1 Li0_1 3.449979 1_555
Hf1_2 Te3_2 2.818306 1_555
Hf1_2 Te5_6 2.896311 1_555
Hf1_2 Te5_2 2.896311 1_555
Hf1_2 Te4_6 2.945122 1_555
Hf1_2 Te4_2 2.945122 1_555
Hf1_2 Te2_3 2.962888 1_554
Hf1_2 Li0_6 3.449979 1_555
Hf1_2 Li0_2 3.449979 1_555
Hf1_3 Te3_3 2.818306 1_555
Hf1_3 Te5_7 2.896311 1_555
Hf1_3 Te5_3 2.896311 1_555
Hf1_3 Te4_7 2.945122 1_555
Hf1_3 Te4_3 2.945122 1_555
Hf1_3 Te2_2 2.962888 1_555
Hf1_3 Li0_7 3.449979 1_555
Hf1_3 Li0_3 3.449979 1_555
Hf1_4 Te3_4 2.818306 1_555
Hf1_4 Te5_0 2.896311 1_655
Hf1_4 Te5_4 2.896311 1_555
Hf1_4 Te4_0 2.945122 1_655
Hf1_4 Te4_4 2.945122 1_555
Hf1_4 Te2_5 2.962888 1_554
Hf1_4 Li0_0 3.449979 1_655
Hf1_4 Li0_4 3.449979 1_555
Hf1_5 Te3_5 2.818306 1_555
Hf1_5 Te5_1 2.896311 1_655
Hf1_5 Te5_5 2.896311 1_555
Hf1_5 Te4_1 2.945122 1_655
Hf1_5 Te4_5 2.945122 1_555
Hf1_5 Te2_4 2.962888 1_555
Hf1_5 Li0_1 3.449979 1_655
Hf1_5 Li0_5 3.449979 1_555
Hf1_6 Te3_6 2.818306 1_555
Hf1_6 Te5_2 2.896311 1_655
Hf1_6 Te5_6 2.896311 1_555
Hf1_6 Te4_2 2.945122 1_655
Hf1_6 Te4_6 2.945122 1_555
Hf1_6 Te2_7 2.962888 1_554
Hf1_6 Li0_2 3.449979 1_655
Hf1_6 Li0_6 3.449979 1_555
Hf1_7 Te3_7 2.818306 1_555
Hf1_7 Te5_3 2.896311 1_655
Hf1_7 Te5_7 2.896311 1_555
Hf1_7 Te4_3 2.945122 1_655
Hf1_7 Te4_7 2.945122 1_555
Hf1_7 Te2_6 2.962888 1_555
Hf1_7 Li0_3 3.449979 1_655
Hf1_7 Li0_7 3.449979 1_555
Te1_0 Te4_5 4.056777 1_555
Te1_0 Te4_1 4.056777 1_555
Te1_1 Te4_4 4.056777 1_556
Te1_1 Te4_0 4.056777 1_556
Te1_2 Te4_3 4.056777 1_555
Te1_2 Te4_7 4.056777 1_555
Te1_3 Te4_6 4.056777 1_556
Te1_3 Te4_2 4.056777 1_556
Te1_4 Te4_1 4.056777 1_655
Te1_4 Te4_5 4.056777 1_555
Te1_5 Te4_0 4.056777 1_656
Te1_5 Te4_4 4.056777 1_556
Te1_6 Te4_3 4.056777 1_655
Te1_6 Te4_7 4.056777 1_555
Te1_7 Te4_2 4.056777 1_656
Te1_7 Te4_6 4.056777 1_556
Te2_0 Te5_5 4.056777 1_555
Te2_0 Te5_1 4.056777 1_555
Te2_1 Te5_0 4.056777 1_556
Te2_1 Te5_4 4.056777 1_556
Te2_2 Te5_3 4.056777 1_555
Te2_2 Te5_7 4.056777 1_555
Te2_3 Te5_2 4.056777 1_556
Te2_3 Te5_6 4.056777 1_556
Te2_4 Te5_1 4.056777 1_655
Te2_4 Te5_5 4.056777 1_555
Te2_5 Te5_0 4.056777 1_656
Te2_5 Te5_4 4.056777 1_556
Te2_6 Te5_3 4.056777 1_655
Te2_6 Te5_7 4.056777 1_555
Te2_7 Te5_2 4.056777 1_656
Te2_7 Te5_6 4.056777 1_556
