# generated using pymatgen
data_Hf12Ti4Re8O
_symmetry_space_group_name_H-M   'P 1'
_cell_length_a   8.58140039
_cell_length_b   8.58139966
_cell_length_c   8.58140084
_cell_angle_alpha   60.04049159
_cell_angle_beta   60.04048959
_cell_angle_gamma   60.04049988
_symmetry_Int_Tables_number   1
_chemical_formula_structural   Hf12Ti4Re8O
_chemical_formula_sum   'Hf12 Ti4 Re8 O1'
_cell_volume   447.25780020
_cell_formula_units_Z   1
loop_
 _symmetry_equiv_pos_site_id
 _symmetry_equiv_pos_as_xyz
  1  'x, y, z'
loop_
 _atom_site_type_symbol
 _atom_site_label
 _atom_site_symmetry_multiplicity
 _atom_site_fract_x
 _atom_site_fract_y
 _atom_site_fract_z
 _atom_site_occupancy
  Hf  Hf0  1  0.43186213  0.43186213  0.81629769  1
  Hf  Hf1  1  0.81629769  0.43186213  0.43186213  1
  Hf  Hf2  1  0.43186213  0.81629769  0.43186213  1
  Hf  Hf3  1  0.81967344  0.81967344  0.43050607  1
  Hf  Hf4  1  0.43050607  0.81967344  0.81967344  1
  Hf  Hf5  1  0.81967344  0.43050607  0.81967344  1
  Hf  Hf6  1  0.56813787  0.56813787  0.18370231  1
  Hf  Hf7  1  0.18370231  0.56813787  0.56813787  1
  Hf  Hf8  1  0.56813787  0.18370231  0.56813787  1
  Hf  Hf9  1  0.18032656  0.18032656  0.56949393  1
  Hf  Hf10  1  0.56949393  0.18032656  0.18032656  1
  Hf  Hf11  1  0.18032656  0.56949393  0.18032656  1
  Ti  Ti0  1  0.00000000  0.00000000  0.00000000  1
  Ti  Ti1  1  0.00000000  0.50000000  0.00000000  1
  Ti  Ti2  1  0.50000000  0.00000000  0.00000000  1
  Ti  Ti3  1  0.00000000  0.00000000  0.50000000  1
  Re  Re0  1  0.79113488  0.79113488  0.79113488  1
  Re  Re1  1  0.79215231  0.12562295  0.79215231  1
  Re  Re2  1  0.12562295  0.79215231  0.79215231  1
  Re  Re3  1  0.79215231  0.79215231  0.12562295  1
  Re  Re4  1  0.20886512  0.20886512  0.20886512  1
  Re  Re5  1  0.20784769  0.87437705  0.20784769  1
  Re  Re6  1  0.87437705  0.20784769  0.20784769  1
  Re  Re7  1  0.20784769  0.20784769  0.87437705  1
  O  O0  1  0.50000000  0.50000000  0.50000000  1
loop_
_geom_bond_atom_site_label_1
_geom_bond_atom_site_label_2
_geom_bond_distance
_geom_bond_site_symmetry_2
Hf0 O0 2.285231 1_555
Hf0 Re2 2.880477 1_555
Hf0 Re1 2.880477 1_555
Hf0 Re7 3.068613 1_555
Hf0 Re4 3.074524 1_556
Hf0 Ti2 3.079382 1_556
Hf0 Ti1 3.079383 1_556
Hf0 Hf11 3.196376 1_556
Hf0 Hf10 3.196376 1_556
Hf0 Hf4 3.336703 1_555
Hf0 Hf5 3.336704 1_555
Hf1 O0 2.285231 1_555
Hf1 Re3 2.880477 1_555
Hf1 Re1 2.880477 1_555
Hf1 Re6 3.068613 1_555
Hf1 Re4 3.074525 1_655
Hf1 Ti3 3.079382 1_655
Hf1 Ti1 3.079383 1_655
Hf1 Hf11 3.196376 1_655
Hf1 Hf9 3.196376 1_655
Hf1 Hf3 3.336703 1_555
Hf1 Hf5 3.336704 1_555
Hf2 O0 2.285231 1_555
Hf2 Re2 2.880477 1_555
Hf2 Re3 2.880477 1_555
Hf2 Re5 3.068613 1_555
Hf2 Re4 3.074525 1_565
Hf2 Ti2 3.079383 1_565
Hf2 Ti3 3.079383 1_565
Hf2 Hf9 3.196376 1_565
Hf2 Hf3 3.336704 1_555
Hf2 Hf4 3.336704 1_555
Hf3 Re0 2.871079 1_555
Hf3 Re3 2.871706 1_555
Hf3 Re6 3.045699 1_565
Hf3 Re5 3.045699 1_655
Hf3 Ti3 3.062672 1_665
Hf3 Ti0 3.067480 1_665
Hf3 Hf8 3.196376 1_565
Hf3 Hf7 3.196376 1_655
Hf3 Hf5 3.341645 1_555
Hf3 Hf4 3.341645 1_555
Hf4 Re0 2.871079 1_555
Hf4 Re2 2.871705 1_555
Hf4 Re7 3.045700 1_565
Hf4 Re5 3.045700 1_556
Hf4 Ti2 3.062672 1_566
Hf4 Ti0 3.067481 1_566
Hf4 Hf9 3.182396 1_565
Hf4 Hf8 3.196376 1_565
Hf4 Hf6 3.196376 1_556
Hf4 Hf5 3.341645 1_555
Hf5 Re0 2.871078 1_555
Hf5 Re1 2.871705 1_555
Hf5 Re6 3.045700 1_556
Hf5 Re7 3.045700 1_655
Hf5 Ti1 3.062672 1_656
Hf5 Ti0 3.067480 1_656
Hf5 Hf9 3.182396 1_655
Hf5 Hf7 3.196376 1_655
Hf5 Hf6 3.196376 1_556
Hf6 O0 2.285231 1_555
Hf6 Re6 2.880477 1_555
Hf6 Re5 2.880477 1_555
Hf6 Re3 3.068613 1_555
Hf6 Re0 3.074524 1_554
Hf6 Ti2 3.079382 1_565
Hf6 Ti1 3.079383 1_655
Hf7 O0 2.285231 1_555
Hf7 Re7 2.880477 1_555
Hf7 Re5 2.880477 1_555
Hf7 Re2 3.068613 1_555
Hf7 Re0 3.074525 1_455
Hf7 Ti3 3.079382 1_565
Hf7 Ti1 3.079383 1_556
Hf7 Hf9 3.336703 1_555
Hf8 O0 2.285231 1_555
Hf8 Re6 2.880477 1_555
Hf8 Re7 2.880477 1_555
Hf8 Re1 3.068613 1_555
Hf8 Re0 3.074525 1_545
Hf8 Ti2 3.079383 1_556
Hf8 Ti3 3.079383 1_655
Hf8 Hf9 3.336704 1_555
Hf9 Re4 2.871079 1_555
Hf9 Re7 2.871706 1_555
Hf9 Re2 3.045699 1_545
Hf9 Re1 3.045699 1_455
Hf9 Ti3 3.062672 1_555
Hf9 Ti0 3.067480 1_556
Hf10 Re4 2.871079 1_555
Hf10 Re6 2.871705 1_555
Hf10 Re3 3.045700 1_545
Hf10 Re1 3.045700 1_554
Hf10 Ti2 3.062672 1_555
Hf10 Ti0 3.067481 1_655
Hf10 Hf5 3.182396 1_554
Hf10 Hf3 3.182396 1_545
Hf10 Hf2 3.196376 1_545
Hf10 Hf6 3.336703 1_555
Hf10 Hf8 3.336704 1_555
Hf10 Hf9 3.341645 1_555
Hf10 Hf11 3.341645 1_555
Hf11 Re4 2.871078 1_555
Hf11 Re5 2.871705 1_555
Hf11 Re2 3.045700 1_554
Hf11 Re3 3.045700 1_455
Hf11 Ti1 3.062672 1_555
Hf11 Ti0 3.067480 1_565
Hf11 Hf4 3.182396 1_554
Hf11 Hf3 3.182396 1_455
Hf11 Hf6 3.336704 1_555
Hf11 Hf7 3.336704 1_555
Hf11 Hf9 3.341645 1_555
Re0 Ti3 2.632589 1_665
Re0 Ti2 2.632590 1_566
Re0 Ti1 2.632590 1_656
Re0 Re1 2.879123 1_565
Re0 Re2 2.879123 1_655
Re0 Re3 2.879123 1_556
Re1 Ti0 2.619412 1_656
Re1 Ti2 2.634693 1_556
Re1 Ti3 2.634693 1_655
Re1 Re3 2.863396 1_546
Re1 Re2 2.863397 1_645
Re2 Ti0 2.619412 1_566
Re2 Ti1 2.634693 1_556
Re2 Ti3 2.634693 1_565
Re2 Re3 2.863396 1_456
Re3 Ti0 2.619412 1_665
Re3 Ti1 2.634693 1_655
Re3 Ti2 2.634694 1_565
Re4 Ti3 2.632589 1_555
Re4 Ti2 2.632590 1_555
Re4 Ti1 2.632590 1_555
Re4 Re5 2.879123 1_545
Re4 Re6 2.879123 1_455
Re4 Re7 2.879123 1_554
Re5 Ti0 2.619412 1_565
Re5 Ti2 2.634693 1_565
Re5 Ti3 2.634693 1_565
Re5 Re7 2.863396 1_564
Re5 Re6 2.863397 1_465
Re6 Ti0 2.619412 1_655
Re6 Ti1 2.634693 1_655
Re6 Ti3 2.634693 1_655
Re6 Re7 2.863396 1_654
Re7 Ti0 2.619412 1_556
Re7 Ti1 2.634693 1_556
Re7 Ti2 2.634694 1_556
