# generated using pymatgen
data_Zr10Ge2BiPb5
_symmetry_space_group_name_H-M   'P 1'
_cell_length_a   8.80812617
_cell_length_b   8.80812617
_cell_length_c   5.95002379
_cell_angle_alpha   90.00000000
_cell_angle_beta   90.00000000
_cell_angle_gamma   119.93935051
_symmetry_Int_Tables_number   1
_chemical_formula_structural   Zr10Ge2BiPb5
_chemical_formula_sum   'Zr10 Ge2 Bi1 Pb5'
_cell_volume   400.01979296
_cell_formula_units_Z   1
loop_
 _symmetry_equiv_pos_site_id
 _symmetry_equiv_pos_as_xyz
  1  'x, y, z'
loop_
 _atom_site_type_symbol
 _atom_site_label
 _atom_site_symmetry_multiplicity
 _atom_site_fract_x
 _atom_site_fract_y
 _atom_site_fract_z
 _atom_site_occupancy
  Zr  Zr0  1  0.66676724  0.33309494  0.50075973  1
  Zr  Zr1  1  0.33309494  0.66676724  0.50075973  1
  Zr  Zr2  1  0.33309494  0.66676724  0.99924027  1
  Zr  Zr3  1  0.66676724  0.33309494  0.99924027  1
  Zr  Zr4  1  0.74106162  0.74106162  0.25000000  1
  Zr  Zr5  1  0.25866754  0.99805386  0.25000000  1
  Zr  Zr6  1  0.99805386  0.25866754  0.25000000  1
  Zr  Zr7  1  0.26096941  0.26096941  0.75000000  1
  Zr  Zr8  1  0.73949609  0.00007386  0.75000000  1
  Zr  Zr9  1  0.00007386  0.73949609  0.75000000  1
  Ge  Ge0  1  0.00015105  0.00015105  0.50068926  1
  Ge  Ge1  1  0.00015105  0.00015105  0.99931074  1
  Bi  Bi0  1  0.39426099  0.39426099  0.25000000  1
  Pb  Pb0  1  0.60617499  0.99956880  0.25000000  1
  Pb  Pb1  1  0.99956880  0.60617499  0.25000000  1
  Pb  Pb2  1  0.60903285  0.60903285  0.75000000  1
  Pb  Pb3  1  0.39289051  0.99972200  0.75000000  1
  Pb  Pb4  1  0.99972200  0.39289051  0.75000000  1
loop_
_geom_bond_atom_site_label_1
_geom_bond_atom_site_label_2
_geom_bond_distance
_geom_bond_site_symmetry_2
Zr0 Zr3 2.965971 1_555
Zr0 Zr3 2.984053 1_554
Zr0 Zr6 3.616650 1_555
Zr0 Zr8 3.617935 1_555
Zr0 Zr7 3.621053 1_555
Zr0 Zr9 3.625209 1_655
Zr0 Zr4 3.635912 1_555
Zr0 Zr5 3.642479 1_545
Zr1 Zr2 2.965971 1_555
Zr1 Zr2 2.984053 1_554
Zr1 Zr5 3.616650 1_555
Zr1 Zr9 3.617935 1_555
Zr1 Zr7 3.621053 1_555
Zr1 Zr8 3.625209 1_565
Zr1 Zr4 3.635912 1_555
Zr1 Zr6 3.642479 1_455
Zr2 Zr5 3.616650 1_556
Zr2 Zr9 3.617935 1_555
Zr2 Zr7 3.621053 1_555
Zr2 Zr8 3.625209 1_565
Zr2 Zr4 3.635912 1_556
Zr2 Zr6 3.642479 1_456
Zr3 Zr6 3.616650 1_556
Zr3 Zr8 3.617935 1_555
Zr3 Zr7 3.621053 1_555
Zr3 Zr9 3.625209 1_655
Zr3 Zr4 3.635912 1_556
Zr3 Zr5 3.642479 1_546
Ge0 Zr4 2.728074 1_445
Ge0 Zr6 2.729864 1_455
Ge0 Zr5 2.729864 1_545
Ge0 Zr9 2.733131 1_545
Ge0 Zr8 2.733131 1_455
Ge0 Zr7 2.736394 1_555
Ge0 Ge1 2.966810 1_555
Ge0 Ge1 2.983214 1_554
Ge1 Zr4 2.728074 1_446
Ge1 Zr6 2.729864 1_456
Ge1 Zr5 2.729864 1_546
Ge1 Zr9 2.733131 1_545
Ge1 Zr8 2.733131 1_455
Ge1 Zr7 2.736394 1_555
Bi0 Zr4 3.057464 1_555
Bi0 Zr5 3.073280 1_545
Bi0 Zr6 3.073280 1_455
Bi0 Zr1 3.093298 1_555
Bi0 Zr2 3.093298 1_554
Bi0 Zr0 3.093298 1_555
Bi0 Zr3 3.093298 1_554
Bi0 Zr7 3.198690 1_555
Bi0 Zr7 3.198690 1_554
Bi0 Pb2 3.526461 1_554
Bi0 Pb2 3.526461 1_555
Pb0 Zr6 3.042976 1_565
Pb0 Zr4 3.049006 1_555
Pb0 Zr5 3.054252 1_555
Pb0 Zr1 3.093000 1_555
Pb0 Zr2 3.093000 1_554
Pb0 Zr0 3.094558 1_565
Pb0 Zr3 3.094558 1_564
Pb0 Zr8 3.197578 1_564
Pb0 Zr8 3.197578 1_565
Pb0 Pb3 3.518878 1_554
Pb0 Pb3 3.518878 1_555
Pb1 Zr5 3.042976 1_655
Pb1 Zr4 3.049006 1_555
Pb1 Zr6 3.054252 1_555
Pb1 Zr0 3.093000 1_555
Pb1 Zr3 3.093000 1_554
Pb1 Zr1 3.094558 1_655
Pb1 Zr2 3.094558 1_654
Pb1 Zr9 3.197578 1_655
Pb1 Zr9 3.197578 1_654
Pb1 Pb4 3.518878 1_555
Pb1 Pb4 3.518878 1_554
Pb2 Zr8 3.038622 1_565
Pb2 Zr9 3.038622 1_655
Pb2 Zr7 3.068597 1_555
Pb2 Zr3 3.098206 1_555
Pb2 Zr0 3.098206 1_555
Pb2 Zr2 3.098206 1_555
Pb2 Zr1 3.098206 1_555
Pb2 Zr4 3.194616 1_555
Pb2 Zr4 3.194616 1_556
Pb3 Zr9 3.051083 1_555
Pb3 Zr8 3.051400 1_565
Pb3 Zr7 3.051914 1_565
Pb3 Zr2 3.087982 1_555
Pb3 Zr1 3.087982 1_555
Pb3 Zr3 3.093613 1_565
Pb3 Zr0 3.093613 1_565
Pb3 Zr5 3.198639 1_556
Pb3 Zr5 3.198639 1_555
Pb4 Zr8 3.051083 1_555
Pb4 Zr9 3.051400 1_655
Pb4 Zr7 3.051914 1_655
Pb4 Zr3 3.087982 1_555
Pb4 Zr0 3.087982 1_555
Pb4 Zr2 3.093613 1_655
Pb4 Zr1 3.093613 1_655
Pb4 Zr6 3.198639 1_556
Pb4 Zr6 3.198639 1_555
