# generated using pymatgen
data_VCoReB2
_symmetry_space_group_name_H-M   'P 1'
_cell_length_a   4.38491549
_cell_length_b   4.38491431
_cell_length_c   4.38491502
_cell_angle_alpha   138.80087342
_cell_angle_beta   118.83223767
_cell_angle_gamma   76.42774292
_symmetry_Int_Tables_number   1
_chemical_formula_structural   VCoReB2
_chemical_formula_sum   'V1 Co1 Re1 B2'
_cell_volume   47.43393077
_cell_formula_units_Z   1
loop_
 _symmetry_equiv_pos_site_id
 _symmetry_equiv_pos_as_xyz
  1  'x, y, z'
loop_
 _atom_site_type_symbol
 _atom_site_label
 _atom_site_symmetry_multiplicity
 _atom_site_fract_x
 _atom_site_fract_y
 _atom_site_fract_z
 _atom_site_occupancy
  V  V0  1  0.29936937  0.79936937  0.50000000  1
  Co  Co0  1  0.00467132  0.00467132  0.00000000  1
  Re  Re0  1  0.70112784  0.20112784  0.50000000  1
  B  B0  1  0.70073204  0.49741474  0.20331630  1
  B  B1  1  0.29409944  0.49741474  0.79668370  1
loop_
_geom_bond_atom_site_label_1
_geom_bond_atom_site_label_2
_geom_bond_distance
_geom_bond_site_symmetry_2
Co0 V0 2.550205 1_555
Co0 V0 2.550206 1_544
Co0 Re0 2.598998 1_444
Co0 Re0 2.598999 1_455
Co0 Re0 2.609601 1_454
Co0 Re0 2.609601 1_555
Co0 V0 2.641731 1_545
Co0 V0 2.641731 1_444
Re0 V0 2.795695 1_656
Re0 V0 2.795695 1_544
Re0 V0 2.795695 1_555
Re0 V0 2.795695 1_645
B0 B1 1.814428 1_554
B0 Co0 2.033502 1_655
B0 Co0 2.033504 1_666
B0 V0 2.250643 1_544
B0 V0 2.250646 1_555
B0 Re0 2.274531 1_554
B0 Re0 2.274533 1_565
B0 Re0 2.433215 1_555
B0 V0 2.466069 1_655
B1 Co0 2.033505 1_555
B1 Co0 2.033507 1_566
B1 V0 2.250642 1_545
B1 V0 2.250644 1_556
B1 Re0 2.274530 1_555
B1 Re0 2.274531 1_566
B1 Re0 2.433218 1_455
B1 V0 2.466071 1_555
