# generated using pymatgen
data_YSc2Fe8Co
_symmetry_space_group_name_H-M   'P 1'
_cell_length_a   5.04379790
_cell_length_b   5.04379866
_cell_length_c   15.87922935
_cell_angle_alpha   90.00000000
_cell_angle_beta   90.00000000
_cell_angle_gamma   119.99998832
_symmetry_Int_Tables_number   1
_chemical_formula_structural   YSc2Fe8Co
_chemical_formula_sum   'Y2 Sc4 Fe16 Co2'
_cell_volume   349.84488084
_cell_formula_units_Z   2
loop_
 _symmetry_equiv_pos_site_id
 _symmetry_equiv_pos_as_xyz
  1  'x, y, z'
loop_
 _atom_site_type_symbol
 _atom_site_label
 _atom_site_symmetry_multiplicity
 _atom_site_fract_x
 _atom_site_fract_y
 _atom_site_fract_z
 _atom_site_occupancy
  Y  Y0  1  0.33333300  0.66666700  0.75000000  1
  Y  Y1  1  0.66666700  0.33333300  0.25000000  1
  Sc  Sc0  1  0.33333300  0.66666700  0.96516907  1
  Sc  Sc1  1  0.66666700  0.33333300  0.03483093  1
  Sc  Sc2  1  0.66666700  0.33333300  0.46516907  1
  Sc  Sc3  1  0.33333300  0.66666700  0.53483093  1
  Fe  Fe0  1  0.16714594  0.83285406  0.37637383  1
  Fe  Fe1  1  0.16714594  0.33429087  0.37637383  1
  Fe  Fe2  1  0.66570913  0.83285406  0.37637383  1
  Fe  Fe3  1  0.83285406  0.16714594  0.62362617  1
  Fe  Fe4  1  0.83285406  0.66570913  0.62362617  1
  Fe  Fe5  1  0.33429087  0.16714594  0.62362617  1
  Fe  Fe6  1  0.83285406  0.16714594  0.87637383  1
  Fe  Fe7  1  0.83285406  0.66570913  0.87637383  1
  Fe  Fe8  1  0.33429087  0.16714594  0.87637383  1
  Fe  Fe9  1  0.16714594  0.83285406  0.12362617  1
  Fe  Fe10  1  0.16714594  0.33429087  0.12362617  1
  Fe  Fe11  1  0.66570913  0.83285406  0.12362617  1
  Fe  Fe12  1  0.33333300  0.66666700  0.25000000  1
  Fe  Fe13  1  0.66666700  0.33333300  0.75000000  1
  Fe  Fe14  1  0.00000000  0.00000000  0.25000000  1
  Fe  Fe15  1  0.00000000  0.00000000  0.75000000  1
  Co  Co0  1  0.00000000  0.00000000  0.50000000  1
  Co  Co1  1  0.00000000  0.00000000  0.00000000  1
loop_
_geom_bond_atom_site_label_1
_geom_bond_atom_site_label_2
_geom_bond_distance
_geom_bond_site_symmetry_2
Sc0 Sc1 3.115057 1_456
Sc0 Sc1 3.115057 1_566
Sc0 Sc1 3.115065 1_556
Sc0 Y0 3.416719 1_555
Sc1 Y1 3.416719 1_555
Sc2 Sc3 3.115057 1_655
Sc2 Sc3 3.115057 1_545
Sc2 Sc3 3.115065 1_555
Sc2 Y1 3.416719 1_555
Sc3 Y0 3.416719 1_555
Fe0 Fe12 2.476839 1_555
Fe0 Fe14 2.481758 1_565
Fe0 Fe2 2.514652 1_555
Fe0 Fe1 2.514652 1_555
Fe0 Fe2 2.529146 1_455
Fe0 Fe1 2.529146 1_565
Fe0 Sc2 2.889307 1_455
Fe0 Sc2 2.889307 1_565
Fe0 Sc3 2.904988 1_555
Fe0 Y1 3.222874 1_455
Fe0 Y1 3.222874 1_565
Fe1 Fe12 2.476844 1_555
Fe1 Fe14 2.481756 1_555
Fe1 Fe2 2.514653 1_555
Fe1 Fe2 2.529147 1_445
Fe1 Sc2 2.889306 1_555
Fe1 Sc2 2.889306 1_455
Fe1 Sc3 2.904992 1_555
Fe1 Y1 3.222873 1_555
Fe1 Y1 3.222873 1_455
Fe2 Sc2 2.889307 1_555
Fe2 Sc2 2.889307 1_565
Fe2 Sc3 2.904992 1_555
Fe2 Y1 3.222874 1_555
Fe2 Y1 3.222874 1_565
Fe3 Fe5 2.514652 1_555
Fe3 Fe4 2.514652 1_555
Fe3 Fe5 2.529146 1_655
Fe3 Fe4 2.529146 1_545
Fe3 Sc3 2.889307 1_655
Fe3 Sc3 2.889307 1_545
Fe3 Sc2 2.904988 1_555
Fe3 Y0 3.222874 1_655
Fe3 Y0 3.222874 1_545
Fe4 Fe5 2.514653 1_555
Fe4 Fe5 2.529147 1_665
Fe4 Sc3 2.889306 1_555
Fe4 Sc3 2.889306 1_655
Fe4 Sc2 2.904992 1_555
Fe4 Y0 3.222873 1_555
Fe4 Y0 3.222873 1_655
Fe5 Sc3 2.889307 1_555
Fe5 Sc3 2.889307 1_545
Fe5 Sc2 2.904992 1_555
Fe5 Y0 3.222874 1_555
Fe5 Y0 3.222874 1_545
Fe6 Fe8 2.514652 1_555
Fe6 Fe7 2.514652 1_555
Fe6 Fe8 2.529146 1_655
Fe6 Fe7 2.529146 1_545
Fe6 Sc0 2.889307 1_655
Fe6 Sc0 2.889307 1_545
Fe6 Sc1 2.904988 1_556
Fe6 Y0 3.222874 1_655
Fe6 Y0 3.222874 1_545
Fe7 Fe8 2.514653 1_555
Fe7 Fe8 2.529147 1_665
Fe7 Sc0 2.889306 1_555
Fe7 Sc0 2.889306 1_655
Fe7 Sc1 2.904992 1_556
Fe7 Y0 3.222873 1_555
Fe7 Y0 3.222873 1_655
Fe8 Sc0 2.889307 1_555
Fe8 Sc0 2.889307 1_545
Fe8 Sc1 2.904992 1_556
Fe8 Y0 3.222874 1_555
Fe8 Y0 3.222874 1_545
Fe9 Sc1 2.889307 1_455
Fe9 Sc1 2.889307 1_565
Fe9 Sc0 2.904988 1_554
Fe9 Y1 3.222874 1_455
Fe9 Y1 3.222874 1_565
Fe10 Fe12 2.476844 1_555
Fe10 Fe14 2.481756 1_555
Fe10 Fe9 2.514652 1_555
Fe10 Fe11 2.514653 1_555
Fe10 Fe9 2.529146 1_545
Fe10 Fe11 2.529147 1_445
Fe10 Sc1 2.889306 1_555
Fe10 Sc1 2.889306 1_455
Fe10 Sc0 2.904992 1_554
Fe10 Y1 3.222873 1_555
Fe10 Y1 3.222873 1_455
Fe11 Fe12 2.476844 1_555
Fe11 Fe14 2.481755 1_665
Fe11 Fe9 2.514652 1_555
Fe11 Fe9 2.529146 1_655
Fe11 Sc1 2.889307 1_555
Fe11 Sc1 2.889307 1_565
Fe11 Sc0 2.904992 1_554
Fe11 Y1 3.222874 1_555
Fe11 Y1 3.222874 1_565
Fe12 Fe9 2.476839 1_555
Fe12 Fe2 2.476844 1_555
Fe12 Fe14 2.912035 1_565
Fe12 Y1 2.912036 1_455
Fe12 Y1 2.912036 1_565
Fe12 Fe14 2.912040 1_665
Fe12 Fe14 2.912040 1_555
Fe12 Y1 2.912044 1_555
Fe13 Fe6 2.476839 1_555
Fe13 Fe3 2.476839 1_555
Fe13 Fe8 2.476844 1_555
Fe13 Fe5 2.476844 1_555
Fe13 Fe7 2.476844 1_555
Fe13 Fe4 2.476844 1_555
Fe13 Fe15 2.912035 1_655
Fe13 Y0 2.912036 1_655
Fe13 Y0 2.912036 1_545
Fe13 Fe15 2.912040 1_555
Fe13 Fe15 2.912040 1_665
Fe13 Y0 2.912044 1_555
Fe14 Fe2 2.481755 1_445
Fe14 Fe9 2.481758 1_545
Fe14 Y1 2.912035 1_455
Fe14 Y1 2.912040 1_555
Fe14 Y1 2.912040 1_445
Fe15 Fe8 2.481755 1_555
Fe15 Fe5 2.481755 1_555
Fe15 Fe7 2.481756 1_445
Fe15 Fe4 2.481756 1_445
Fe15 Fe6 2.481758 1_455
Fe15 Fe3 2.481758 1_455
Fe15 Y0 2.912035 1_545
Fe15 Y0 2.912040 1_445
Fe15 Y0 2.912040 1_555
Co0 Fe5 2.446611 1_555
Co0 Fe2 2.446611 1_445
Co0 Fe4 2.446611 1_445
Co0 Fe1 2.446611 1_555
Co0 Fe3 2.446613 1_455
Co0 Fe0 2.446613 1_545
Co0 Sc3 2.964094 1_545
Co0 Sc2 2.964094 1_455
Co0 Sc2 2.964099 1_555
Co0 Sc3 2.964099 1_445
Co0 Sc3 2.964099 1_555
Co0 Sc2 2.964099 1_445
Co1 Fe11 2.446611 1_445
Co1 Fe8 2.446611 1_554
Co1 Fe10 2.446611 1_555
Co1 Fe7 2.446611 1_444
Co1 Fe9 2.446613 1_545
Co1 Fe6 2.446613 1_454
Co1 Sc1 2.964094 1_455
Co1 Sc0 2.964094 1_544
Co1 Sc1 2.964099 1_555
Co1 Sc0 2.964099 1_444
Co1 Sc0 2.964099 1_554
Co1 Sc1 2.964099 1_445
