# generated using pymatgen
data_RbAlGeS4
_symmetry_space_group_name_H-M   'P 1'
_cell_length_a   16.23115706
_cell_length_b   6.90927569
_cell_length_c   7.44711083
_cell_angle_alpha   70.52415238
_cell_angle_beta   90.00000000
_cell_angle_gamma   90.00000000
_symmetry_Int_Tables_number   1
_chemical_formula_structural   RbAlGeS4
_chemical_formula_sum   'Rb4 Al4 Ge4 S16'
_cell_volume   787.37415679
_cell_formula_units_Z   4
loop_
 _symmetry_equiv_pos_site_id
 _symmetry_equiv_pos_as_xyz
  1  'x, y, z'
loop_
 _atom_site_type_symbol
 _atom_site_label
 _atom_site_symmetry_multiplicity
 _atom_site_fract_x
 _atom_site_fract_y
 _atom_site_fract_z
 _atom_site_occupancy
  Rb  Rb0  1  0.39599214  0.94215622  0.17555007  1
  Rb  Rb1  1  0.89599214  0.05784378  0.82444993  1
  Rb  Rb2  1  0.60119964  0.53086880  0.83328977  1
  Rb  Rb3  1  0.10119964  0.46913120  0.16671023  1
  Al  Al0  1  0.58404903  0.16831378  0.48115923  1
  Al  Al1  1  0.08404903  0.83168622  0.51884077  1
  Al  Al2  1  0.27218257  0.58938763  0.70240759  1
  Al  Al3  1  0.77218257  0.41061237  0.29759241  1
  Ge  Ge0  1  0.42004898  0.32276670  0.53443541  1
  Ge  Ge1  1  0.92004898  0.67723330  0.46556459  1
  Ge  Ge2  1  0.72504067  0.91396018  0.28141470  1
  Ge  Ge3  1  0.22504067  0.08603982  0.71858530  1
  S  S0  1  0.59757192  0.88930950  0.38938446  1
  S  S1  1  0.09757192  0.11069050  0.61061554  1
  S  S2  1  0.40705554  0.59600817  0.62274627  1
  S  S3  1  0.90705554  0.40399183  0.37725373  1
  S  S4  1  0.80273189  0.79616104  0.54656065  1
  S  S5  1  0.30273189  0.20383896  0.45343935  1
  S  S6  1  0.19929147  0.71262102  0.43813963  1
  S  S7  1  0.69929147  0.28737898  0.56186037  1
  S  S8  1  0.75945933  0.22773025  0.09717313  1
  S  S9  1  0.25945933  0.77226975  0.90282687  1
  S  S10  1  0.24068932  0.27167584  0.90640900  1
  S  S11  1  0.74068932  0.72832416  0.09359100  1
  S  S12  1  0.99867240  0.91066327  0.25977411  1
  S  S13  1  0.49867240  0.08933673  0.74022589  1
  S  S14  1  0.99601409  0.60908013  0.72747129  1
  S  S15  1  0.49601409  0.39091987  0.27252871  1
loop_
_geom_bond_atom_site_label_1
_geom_bond_atom_site_label_2
_geom_bond_distance
_geom_bond_site_symmetry_2
Rb0 S2 3.395885 1_555
Rb0 S9 3.464601 1_554
Rb0 S13 3.481863 1_564
Rb0 S5 3.512563 1_565
Rb0 S10 3.537245 1_564
Rb0 S0 3.603698 1_555
Rb0 S15 3.776821 1_565
Rb0 S6 3.803215 1_555
Rb0 S15 3.978547 1_555
Rb1 S3 3.395885 1_555
Rb1 S8 3.464601 1_556
Rb1 S12 3.481863 1_546
Rb1 S4 3.512563 1_545
Rb1 S11 3.537245 1_546
Rb1 S1 3.603698 1_655
Rb1 S14 3.776821 1_545
Rb1 S7 3.803215 1_555
Rb1 S14 3.978547 1_555
Rb2 S0 3.406751 1_555
Rb2 S7 3.423258 1_555
Rb2 S8 3.478862 1_556
Rb2 S2 3.481436 1_555
Rb2 S15 3.527114 1_556
Rb2 S11 3.536741 1_556
Rb2 S13 3.737123 1_555
Rb2 S4 4.001191 1_555
Rb2 S13 4.044169 1_565
Rb3 S1 3.406751 1_555
Rb3 S6 3.423258 1_555
Rb3 S9 3.478862 1_554
Rb3 S3 3.481436 1_455
Rb3 S14 3.527114 1_454
Rb3 S10 3.536741 1_554
Rb3 S12 3.737123 1_455
Rb3 S5 4.001191 1_555
Rb3 S12 4.044169 1_445
Al0 S7 2.206007 1_555
Al0 S0 2.260515 1_545
Al0 S15 2.286453 1_555
Al0 S13 2.288729 1_555
Al1 S6 2.206007 1_555
Al1 S1 2.260515 1_565
Al1 S14 2.286453 1_455
Al1 S12 2.288729 1_455
Al2 S6 2.209182 1_555
Al2 S9 2.263751 1_555
Al2 S2 2.264573 1_555
Al2 S10 2.272500 1_555
Al3 S7 2.209182 1_555
Al3 S8 2.263751 1_555
Al3 S3 2.264573 1_555
Al3 S11 2.272500 1_555
Ge0 S2 2.206601 1_555
Ge0 S13 2.220422 1_555
Ge0 S15 2.221225 1_555
Ge0 S5 2.235058 1_555
Ge1 S3 2.206601 1_555
Ge1 S12 2.220422 1_555
Ge1 S14 2.221225 1_555
Ge1 S4 2.235058 1_555
Ge2 S11 2.205083 1_555
Ge2 S0 2.205635 1_555
Ge2 S8 2.216096 1_565
Ge2 S4 2.253861 1_555
Ge3 S10 2.205083 1_555
Ge3 S1 2.205635 1_555
Ge3 S9 2.216096 1_545
Ge3 S5 2.253861 1_555
