# generated using pymatgen
data_Ba4TcSbO10
_symmetry_space_group_name_H-M   'P 1'
_cell_length_a   5.81266273
_cell_length_b   7.41926798
_cell_length_c   11.49292902
_cell_angle_alpha   89.13761054
_cell_angle_beta   90.00000000
_cell_angle_gamma   90.00000000
_symmetry_Int_Tables_number   1
_chemical_formula_structural   Ba4TcSbO10
_chemical_formula_sum   'Ba8 Tc2 Sb2 O20'
_cell_volume   495.58449481
_cell_formula_units_Z   2
loop_
 _symmetry_equiv_pos_site_id
 _symmetry_equiv_pos_as_xyz
  1  'x, y, z'
loop_
 _atom_site_type_symbol
 _atom_site_label
 _atom_site_symmetry_multiplicity
 _atom_site_fract_x
 _atom_site_fract_y
 _atom_site_fract_z
 _atom_site_occupancy
  Ba  Ba0  1  0.75000000  0.47252912  0.27651362  1
  Ba  Ba1  1  0.25000000  0.52747088  0.72348638  1
  Ba  Ba2  1  0.75000000  0.98595135  0.20774163  1
  Ba  Ba3  1  0.25000000  0.01404865  0.79225837  1
  Ba  Ba4  1  0.75000000  0.20513900  0.60684641  1
  Ba  Ba5  1  0.25000000  0.79486100  0.39315359  1
  Ba  Ba6  1  0.75000000  0.65852546  0.93837499  1
  Ba  Ba7  1  0.25000000  0.34147454  0.06162501  1
  Tc  Tc0  1  0.75000000  0.69412700  0.55931556  1
  Tc  Tc1  1  0.25000000  0.30587300  0.44068444  1
  Sb  Sb0  1  0.75000000  0.16374992  0.92478583  1
  Sb  Sb1  1  0.25000000  0.83625008  0.07521417  1
  O  O0  1  0.48290602  0.16715619  0.40193465  1
  O  O1  1  0.98290602  0.83284381  0.59806535  1
  O  O2  1  0.00348311  0.68734347  0.14335393  1
  O  O3  1  0.50348311  0.31265653  0.85664607  1
  O  O4  1  0.51709398  0.83284381  0.59806535  1
  O  O5  1  0.01709398  0.16715619  0.40193465  1
  O  O6  1  0.99651689  0.31265653  0.85664607  1
  O  O7  1  0.49651689  0.68734347  0.14335393  1
  O  O8  1  0.50000000  0.50000000  0.50000000  1
  O  O9  1  0.00000000  0.50000000  0.50000000  1
  O  O10  1  0.00000000  0.00000000  0.00000000  1
  O  O11  1  0.50000000  0.00000000  0.00000000  1
  O  O12  1  0.75000000  0.30028116  0.07291709  1
  O  O13  1  0.25000000  0.69971884  0.92708291  1
  O  O14  1  0.75000000  0.76422183  0.40476343  1
  O  O15  1  0.25000000  0.23577817  0.59523657  1
  O  O16  1  0.75000000  0.99365924  0.79614733  1
  O  O17  1  0.25000000  0.00634076  0.20385267  1
  O  O18  1  0.75000000  0.55271059  0.68586523  1
  O  O19  1  0.25000000  0.44728941  0.31413477  1
loop_
_geom_bond_atom_site_label_1
_geom_bond_atom_site_label_2
_geom_bond_distance
_geom_bond_site_symmetry_2
Ba0 O14 2.636689 1_555
Ba0 O2 2.641915 1_655
Ba0 O7 2.641915 1_555
Ba0 O12 2.682985 1_555
Ba0 O19 2.943865 1_655
Ba0 O19 2.943865 1_555
Ba0 O8 2.960785 1_555
Ba0 O9 2.960785 1_655
Ba0 O5 3.085930 1_655
Ba0 O0 3.085930 1_555
Ba1 O15 2.636689 1_555
Ba1 O3 2.641915 1_555
Ba1 O6 2.641915 1_455
Ba1 O13 2.682985 1_555
Ba1 O18 2.943865 1_455
Ba1 O18 2.943865 1_555
Ba1 O9 2.960785 1_555
Ba1 O8 2.960785 1_555
Ba1 O4 3.085930 1_555
Ba1 O1 3.085930 1_455
Ba2 O2 2.770582 1_655
Ba2 O7 2.770582 1_555
Ba2 O14 2.778748 1_555
Ba2 O12 2.780457 1_565
Ba2 O10 2.795623 1_665
Ba2 O11 2.795623 1_565
Ba2 O17 2.910574 1_665
Ba2 O17 2.910574 1_565
Ba2 O5 3.047824 1_665
Ba2 O0 3.047824 1_565
Ba3 O3 2.770582 1_555
Ba3 O6 2.770582 1_455
Ba3 O15 2.778748 1_555
Ba3 O13 2.780457 1_545
Ba3 O11 2.795623 1_556
Ba3 O10 2.795623 1_556
Ba3 O16 2.910574 1_545
Ba3 O16 2.910574 1_445
Ba3 O4 3.047824 1_545
Ba3 O1 3.047824 1_445
Ba4 O16 2.663159 1_545
Ba4 O18 2.746830 1_555
Ba4 O5 2.838297 1_655
Ba4 O0 2.838297 1_555
Ba4 O8 2.885235 1_555
Ba4 O9 2.885235 1_655
Ba4 O15 2.918103 1_655
Ba4 O15 2.918103 1_555
Ba4 O1 3.079103 1_545
Ba4 O4 3.079103 1_545
Ba4 O6 3.316740 1_555
Ba4 O3 3.316740 1_555
Ba5 O17 2.663159 1_565
Ba5 O19 2.746830 1_555
Ba5 O4 2.838297 1_555
Ba5 O1 2.838297 1_455
Ba5 O8 2.885235 1_555
Ba5 O9 2.885235 1_555
Ba5 O14 2.918103 1_455
Ba5 O14 2.918103 1_555
Ba5 O0 3.079103 1_565
Ba5 O5 3.079103 1_565
Ba5 O7 3.316740 1_555
Ba5 O2 3.316740 1_555
Ba6 O2 2.789561 1_656
Ba6 O7 2.789561 1_556
Ba6 O13 2.925033 1_655
Ba6 O13 2.925033 1_555
Ba6 O16 2.955001 1_555
Ba6 O10 3.014283 1_666
Ba6 O11 3.014283 1_566
Ba6 O18 3.017775 1_555
Ba6 O12 3.054794 1_556
Ba6 O6 3.097248 1_555
Ba6 O3 3.097248 1_555
Ba7 O3 2.789561 1_554
Ba7 O6 2.789561 1_454
Ba7 O12 2.925033 1_455
Ba7 O12 2.925033 1_555
Ba7 O17 2.955001 1_555
Ba7 O11 3.014283 1_555
Ba7 O10 3.014283 1_555
Ba7 O19 3.017775 1_555
Ba7 O13 3.054794 1_554
Ba7 O7 3.097248 1_555
Ba7 O2 3.097248 1_555
O0 Tc1 1.761852 1_555
O0 O8 2.731691 1_555
O1 Tc0 1.761852 1_555
O1 O9 2.731691 1_655
O2 Sb1 1.964952 1_555
O3 Sb0 1.964952 1_555
O4 Tc0 1.761852 1_555
O4 O8 2.731691 1_555
O5 Tc1 1.761852 1_555
O5 O9 2.731691 1_555
O6 Sb0 1.964952 1_555
O7 Sb1 1.964952 1_555
O8 Tc0 2.163419 1_555
O8 Tc1 2.163419 1_555
O8 O9 2.906331 1_555
O8 O9 2.906331 1_655
O9 Tc0 2.163419 1_455
O9 Tc1 2.163419 1_555
O10 Sb0 2.074442 1_454
O10 Sb1 2.074442 1_545
O10 O17 2.757940 1_555
O10 O16 2.757940 1_444
O10 O12 2.798853 1_455
O10 O13 2.798853 1_544
O11 Sb0 2.074442 1_554
O11 Sb1 2.074442 1_545
O11 O17 2.757940 1_555
O11 O16 2.757940 1_544
O11 O12 2.798853 1_555
O11 O13 2.798853 1_544
O12 Sb0 1.994086 1_554
O13 Sb1 1.994086 1_556
O14 Tc0 1.843295 1_555
O14 O9 2.662337 1_655
O14 O8 2.662337 1_555
O15 Tc1 1.843295 1_555
O15 O9 2.662337 1_555
O15 O8 2.662337 1_555
O16 Sb0 1.958173 1_565
O17 Sb1 1.958173 1_545
O18 Tc0 1.780521 1_555
O18 O8 2.617795 1_555
O18 O9 2.617795 1_655
O19 Tc1 1.780521 1_555
O19 O8 2.617795 1_555
O19 O9 2.617795 1_555
