# generated using pymatgen
data_TaTe2F6
_symmetry_space_group_name_H-M   'P 1'
_cell_length_a   5.62206235
_cell_length_b   7.96705760
_cell_length_c   8.53669535
_cell_angle_alpha   72.86480764
_cell_angle_beta   76.69081382
_cell_angle_gamma   77.20069194
_symmetry_Int_Tables_number   1
_chemical_formula_structural   TaTe2F6
_chemical_formula_sum   'Ta2 Te4 F12'
_cell_volume   350.69214890
_cell_formula_units_Z   2
loop_
 _symmetry_equiv_pos_site_id
 _symmetry_equiv_pos_as_xyz
  1  'x, y, z'
loop_
 _atom_site_type_symbol
 _atom_site_label
 _atom_site_symmetry_multiplicity
 _atom_site_fract_x
 _atom_site_fract_y
 _atom_site_fract_z
 _atom_site_occupancy
  Ta  Ta0  1  0.61613882  0.18003033  0.65375140  1
  Ta  Ta1  1  0.38386118  0.81996967  0.34624860  1
  Te  Te0  1  0.94057752  0.26257537  0.06210497  1
  Te  Te1  1  0.83958010  0.55140451  0.81256062  1
  Te  Te2  1  0.16041990  0.44859549  0.18743938  1
  Te  Te3  1  0.05942248  0.73742463  0.93789503  1
  F  F0  1  0.90166363  0.29184627  0.55505359  1
  F  F1  1  0.82049187  0.94894262  0.66646638  1
  F  F2  1  0.57515136  0.59510156  0.32823820  1
  F  F3  1  0.54857871  0.19877270  0.44191580  1
  F  F4  1  0.66485700  0.93150907  0.23312683  1
  F  F5  1  0.69706009  0.16183465  0.86966848  1
  F  F6  1  0.30293991  0.83816535  0.13033152  1
  F  F7  1  0.33514300  0.06849093  0.76687317  1
  F  F8  1  0.45142129  0.80122730  0.55808420  1
  F  F9  1  0.42484864  0.40489844  0.67176180  1
  F  F10  1  0.17950813  0.05105738  0.33353362  1
  F  F11  1  0.09833637  0.70815373  0.44494641  1
loop_
_geom_bond_atom_site_label_1
_geom_bond_atom_site_label_2
_geom_bond_distance
_geom_bond_site_symmetry_2
Te0 Te2 2.687683 1_655
Te0 Te1 2.691675 1_554
Te1 Te3 2.687683 1_655
Te2 Te3 2.691675 1_554
F0 Ta0 1.910210 1_555
F0 F5 2.660015 1_555
F0 F9 2.686869 1_555
F0 F1 2.719886 1_545
F0 Te2 3.149271 1_655
F0 Te1 3.352018 1_555
F1 Ta0 1.929715 1_565
F1 F5 2.650561 1_565
F1 F7 2.709273 1_565
F1 Te3 2.853487 1_655
F1 Te1 3.030115 1_555
F2 Ta1 1.903244 1_555
F2 F6 2.626009 1_555
F2 Te2 3.307273 1_655
F2 Te2 3.400962 1_555
F3 Ta0 1.889123 1_555
F3 Te2 3.339667 1_555
F3 Te0 3.444311 1_555
F4 Ta1 1.905749 1_555
F4 F6 2.709294 1_555
F4 Te0 3.160996 1_565
F4 Te3 3.444739 1_654
F5 Ta0 1.955723 1_555
F5 F9 2.626009 1_555
F5 F7 2.709294 1_555
F5 Te0 2.741627 1_556
F5 Te1 3.247031 1_555
F5 Te3 3.500919 1_645
F6 Ta1 1.955723 1_555
F6 Te3 2.741627 1_554
F6 Te2 3.247031 1_555
F6 Te0 3.500919 1_465
F7 Ta0 1.905749 1_555
F7 Te3 3.160996 1_545
F7 Te0 3.444739 1_456
F8 Ta1 1.889123 1_555
F8 Te1 3.339667 1_555
F8 Te3 3.444311 1_555
F9 Ta0 1.903244 1_555
F9 Te1 3.307273 1_455
F9 Te1 3.400962 1_555
F10 Ta1 1.929715 1_545
F10 F6 2.650561 1_545
F10 F4 2.709273 1_545
F10 F11 2.719886 1_545
F10 Te0 2.853487 1_455
F10 Te2 3.030115 1_555
F11 Ta1 1.910210 1_555
F11 F6 2.660015 1_555
F11 F2 2.686869 1_555
F11 Te1 3.149271 1_455
F11 Te2 3.352018 1_555
