# generated using pymatgen
data_Nb4CuSiH2
_symmetry_space_group_name_H-M   'P 1'
_cell_length_a   5.15292271
_cell_length_b   5.15292186
_cell_length_c   5.15292290
_cell_angle_alpha   104.52180172
_cell_angle_beta   104.52181829
_cell_angle_gamma   119.90099416
_symmetry_Int_Tables_number   1
_chemical_formula_structural   Nb4CuSiH2
_chemical_formula_sum   'Nb4 Cu1 Si1 H2'
_cell_volume   102.66861492
_cell_formula_units_Z   1
loop_
 _symmetry_equiv_pos_site_id
 _symmetry_equiv_pos_as_xyz
  1  'x, y, z'
loop_
 _atom_site_type_symbol
 _atom_site_label
 _atom_site_symmetry_multiplicity
 _atom_site_fract_x
 _atom_site_fract_y
 _atom_site_fract_z
 _atom_site_occupancy
  Nb  Nb0  1  0.16590975  0.66590975  0.83182050  1
  Nb  Nb1  1  0.83409025  0.33409025  0.16817950  1
  Nb  Nb2  1  0.33409025  0.16590975  0.50000000  1
  Nb  Nb3  1  0.66590975  0.83409025  0.50000000  1
  Cu  Cu0  1  0.25000000  0.25000000  0.00000000  1
  Si  Si0  1  0.75000000  0.75000000  0.00000000  1
  H  H0  1  0.75000000  0.25000000  0.50000000  1
  H  H1  1  0.25000000  0.75000000  0.50000000  1
loop_
_geom_bond_atom_site_label_1
_geom_bond_atom_site_label_2
_geom_bond_distance
_geom_bond_site_symmetry_2
Nb0 Si0 2.683440 1_456
Nb0 Si0 2.683443 1_556
Nb1 Si0 2.683440 1_555
Nb1 Si0 2.683442 1_545
Nb2 Si0 2.683443 1_556
Nb2 Si0 2.683443 1_445
Nb3 Si0 2.683443 1_556
Nb3 Si0 2.683443 1_555
Cu0 Si0 2.580316 1_555
Cu0 Si0 2.580316 1_445
Cu0 Nb0 2.683440 1_554
Cu0 Nb1 2.683440 1_455
Cu0 Nb0 2.683442 1_544
Cu0 Nb2 2.683443 1_555
Cu0 Nb1 2.683443 1_555
Cu0 Nb2 2.683443 1_554
Cu0 Nb3 2.683443 1_555
Cu0 Nb3 2.683443 1_444
H0 Nb3 1.963411 1_545
H0 Nb2 1.963411 1_555
H0 Nb0 1.963413 1_655
H0 Nb1 1.963416 1_555
H1 Nb2 1.963411 1_565
H1 Nb3 1.963411 1_555
H1 Nb1 1.963413 1_455
H1 Nb0 1.963416 1_555
