# generated using pymatgen
data_Zr10AlGa2Sb5
_symmetry_space_group_name_H-M   'P 1'
_cell_length_a   8.64705139
_cell_length_b   8.64705196
_cell_length_c   5.83601110
_cell_angle_alpha   90.00000000
_cell_angle_beta   90.00000000
_cell_angle_gamma   120.19790215
_symmetry_Int_Tables_number   1
_chemical_formula_structural   Zr10AlGa2Sb5
_chemical_formula_sum   'Zr10 Al1 Ga2 Sb5'
_cell_volume   377.14931539
_cell_formula_units_Z   1
loop_
 _symmetry_equiv_pos_site_id
 _symmetry_equiv_pos_as_xyz
  1  'x, y, z'
loop_
 _atom_site_type_symbol
 _atom_site_label
 _atom_site_symmetry_multiplicity
 _atom_site_fract_x
 _atom_site_fract_y
 _atom_site_fract_z
 _atom_site_occupancy
  Zr  Zr0  1  0.66466402  0.33376417  0.99721629  1
  Zr  Zr1  1  0.33376417  0.66466402  0.99721629  1
  Zr  Zr2  1  0.33376417  0.66466402  0.50278371  1
  Zr  Zr3  1  0.66466402  0.33376417  0.50278371  1
  Zr  Zr4  1  0.72719017  0.72719017  0.75000000  1
  Zr  Zr5  1  0.27275940  0.00689873  0.75000000  1
  Zr  Zr6  1  0.00689873  0.27275940  0.75000000  1
  Zr  Zr7  1  0.26361413  0.26361413  0.25000000  1
  Zr  Zr8  1  0.73540646  0.99869356  0.25000000  1
  Zr  Zr9  1  0.99869356  0.73540646  0.25000000  1
  Al  Al0  1  0.38860364  0.38860364  0.75000000  1
  Ga  Ga0  1  0.00049826  0.00049826  0.99285409  1
  Ga  Ga1  1  0.00049826  0.00049826  0.50714591  1
  Sb  Sb0  1  0.61448339  0.00128681  0.75000000  1
  Sb  Sb1  1  0.00128681  0.61448339  0.75000000  1
  Sb  Sb2  1  0.60346176  0.60346176  0.25000000  1
  Sb  Sb3  1  0.38987668  0.99987235  0.25000000  1
  Sb  Sb4  1  0.99987235  0.38987668  0.25000000  1
loop_
_geom_bond_atom_site_label_1
_geom_bond_atom_site_label_2
_geom_bond_distance
_geom_bond_site_symmetry_2
Zr0 Zr3 2.885514 1_555
Zr0 Zr3 2.950497 1_556
Zr0 Zr5 3.452366 1_555
Zr0 Zr4 3.478071 1_555
Zr0 Zr7 3.529089 1_556
Zr0 Zr9 3.534062 1_556
Zr0 Zr6 3.561994 1_655
Zr0 Zr8 3.567671 1_546
Zr1 Zr2 2.885514 1_555
Zr1 Zr2 2.950497 1_556
Zr1 Zr6 3.452366 1_555
Zr1 Zr4 3.478070 1_555
Zr1 Zr7 3.529089 1_556
Zr1 Zr8 3.534062 1_556
Zr1 Zr5 3.561994 1_565
Zr1 Zr9 3.567671 1_456
Zr2 Zr6 3.452366 1_555
Zr2 Zr4 3.478070 1_555
Zr2 Zr7 3.529089 1_555
Zr2 Zr8 3.534062 1_555
Zr2 Zr5 3.561994 1_565
Zr2 Zr9 3.567671 1_455
Zr3 Zr5 3.452366 1_555
Zr3 Zr4 3.478071 1_555
Zr3 Zr7 3.529089 1_555
Zr3 Zr9 3.534062 1_555
Zr3 Zr6 3.561994 1_655
Zr3 Zr8 3.567671 1_545
Al0 Zr4 2.919013 1_555
Al0 Zr6 2.927712 1_555
Al0 Zr5 2.927713 1_555
Al0 Zr0 3.023811 1_555
Al0 Zr3 3.023811 1_555
Al0 Zr2 3.023811 1_555
Al0 Zr1 3.023811 1_555
Al0 Zr7 3.110608 1_555
Al0 Zr7 3.110608 1_556
Al0 Sb2 3.456281 1_555
Al0 Sb2 3.456281 1_556
Ga0 Zr7 2.719855 1_556
Ga0 Zr5 2.724563 1_555
Ga0 Zr6 2.724564 1_555
Ga0 Zr8 2.733285 1_446
Ga0 Zr9 2.733285 1_446
Ga0 Zr4 2.749652 1_445
Ga0 Ga1 2.834598 1_555
Ga0 Ga1 3.001413 1_556
Ga1 Zr7 2.719855 1_555
Ga1 Zr5 2.724563 1_555
Ga1 Zr6 2.724564 1_555
Ga1 Zr8 2.733285 1_445
Ga1 Zr9 2.733285 1_445
Ga1 Zr4 2.749652 1_445
Sb0 Zr5 2.979608 1_555
Sb0 Zr4 2.981778 1_545
Sb0 Zr6 3.001915 1_655
Sb0 Zr3 3.046346 1_555
Sb0 Zr0 3.046346 1_555
Sb0 Zr1 3.055919 1_545
Sb0 Zr2 3.055919 1_545
Sb0 Zr8 3.103576 1_546
Sb0 Zr8 3.103576 1_545
Sb0 Sb3 3.501870 1_546
Sb0 Sb3 3.501870 1_545
Sb1 Zr6 2.979609 1_555
Sb1 Zr4 2.981778 1_455
Sb1 Zr5 3.001916 1_565
Sb1 Zr2 3.046346 1_555
Sb1 Zr1 3.046346 1_555
Sb1 Zr3 3.055919 1_455
Sb1 Zr0 3.055919 1_455
Sb1 Zr9 3.103576 1_456
Sb1 Zr9 3.103576 1_455
Sb1 Sb4 3.501870 1_455
Sb1 Sb4 3.501870 1_456
Sb2 Zr7 2.929885 1_555
Sb2 Zr9 3.009834 1_555
Sb2 Zr8 3.009834 1_555
Sb2 Zr2 3.022686 1_555
Sb2 Zr1 3.022686 1_554
Sb2 Zr3 3.022686 1_555
Sb2 Zr0 3.022686 1_554
Sb2 Zr4 3.106859 1_555
Sb2 Zr4 3.106859 1_554
Sb3 Zr9 2.981585 1_455
Sb3 Zr7 2.982941 1_565
Sb3 Zr8 2.992954 1_555
Sb3 Zr3 3.042497 1_565
Sb3 Zr0 3.042497 1_564
Sb3 Zr2 3.065721 1_555
Sb3 Zr1 3.065721 1_554
Sb3 Zr5 3.099346 1_564
Sb3 Zr5 3.099346 1_565
Sb4 Zr8 2.981585 1_545
Sb4 Zr7 2.982941 1_655
Sb4 Zr9 2.992954 1_555
Sb4 Zr1 3.042497 1_654
Sb4 Zr2 3.042497 1_655
Sb4 Zr3 3.065721 1_555
Sb4 Zr0 3.065721 1_554
Sb4 Zr6 3.099346 1_655
Sb4 Zr6 3.099346 1_654
