# generated using pymatgen
data_Ta2Nb3Ga2P
_symmetry_space_group_name_H-M   'P 1'
_cell_length_a   6.63303364
_cell_length_b   7.58367971
_cell_length_c   6.62784990
_cell_angle_alpha   115.92270627
_cell_angle_beta   90.03769391
_cell_angle_gamma   115.94334880
_symmetry_Int_Tables_number   1
_chemical_formula_structural   Ta2Nb3Ga2P
_chemical_formula_sum   'Ta4 Nb6 Ga4 P2'
_cell_volume   261.93609734
_cell_formula_units_Z   2
loop_
 _symmetry_equiv_pos_site_id
 _symmetry_equiv_pos_as_xyz
  1  'x, y, z'
loop_
 _atom_site_type_symbol
 _atom_site_label
 _atom_site_symmetry_multiplicity
 _atom_site_fract_x
 _atom_site_fract_y
 _atom_site_fract_z
 _atom_site_occupancy
  Ta  Ta0  1  0.49659715  0.30471496  0.31564413  1
  Ta  Ta1  1  0.81661889  0.29470708  0.98506977  1
  Ta  Ta2  1  0.30844685  0.30439151  0.81622954  1
  Ta  Ta3  1  0.97843064  0.29523855  0.48557571  1
  Nb  Nb0  1  0.99185140  0.00058474  0.99773021  1
  Nb  Nb1  1  0.50863824  0.00042439  0.49775258  1
  Nb  Nb2  1  0.52298705  0.70563367  0.68926358  1
  Nb  Nb3  1  0.19073575  0.69479884  0.01085783  1
  Nb  Nb4  1  0.68233175  0.70552888  0.18892840  1
  Nb  Nb5  1  0.00331502  0.69403843  0.51027459  1
  Ga  Ga0  1  0.74867036  0.49785670  0.75646301  1
  Ga  Ga1  1  0.24918005  0.49794333  0.25606666  1
  Ga  Ga2  1  0.13730811  0.00005770  0.36422143  1
  Ga  Ga3  1  0.36232457  0.99948946  0.86391270  1
  P  P0  1  0.87402857  0.00229503  0.63094650  1
  P  P1  1  0.62853461  0.00229874  0.13106334  1
loop_
_geom_bond_atom_site_label_1
_geom_bond_atom_site_label_2
_geom_bond_distance
_geom_bond_site_symmetry_2
Ta0 Ta1 3.051859 1_554
Ta2 Ta3 3.054029 1_455
Nb0 P0 2.560192 1_555
Nb0 P1 2.570771 1_556
Nb0 Nb2 2.960047 1_545
Nb0 Ta1 2.960615 1_555
Nb0 Nb4 3.048096 1_546
Nb0 Ta3 3.051754 1_556
Nb0 Ta2 3.059177 1_655
Nb0 Nb5 3.071874 1_645
Nb0 Ta0 3.154960 1_656
Nb0 Nb3 3.158880 1_646
Nb1 P1 2.561675 1_555
Nb1 P0 2.570940 1_555
Nb1 Nb4 2.962040 1_545
Nb1 Ta3 2.962735 1_555
Nb1 Nb2 3.047150 1_545
Nb1 Ta1 3.047280 1_555
Nb1 Ta0 3.063458 1_555
Nb1 Nb3 3.067193 1_545
Nb1 Ta2 3.156008 1_555
Nb1 Nb5 3.161504 1_545
Nb2 P0 2.609717 1_565
Nb2 P1 2.642976 1_566
Nb2 Ta0 2.891013 1_555
Nb2 Nb3 3.067198 1_556
Nb2 Ta2 3.231721 1_555
Nb2 Ta3 3.322614 1_455
Nb3 P1 2.636870 1_565
Nb3 Ta1 2.889890 1_454
Nb3 Ta2 3.118375 1_554
Nb3 Ta3 3.212798 1_454
Nb4 P1 2.607074 1_565
Nb4 P0 2.644082 1_565
Nb4 Ta2 2.885712 1_554
Nb4 Nb5 3.065201 1_655
Nb4 Ta0 3.227906 1_555
Nb4 Ta1 3.327885 1_554
Nb5 P0 2.638235 1_465
Nb5 Ta3 2.886378 1_455
Nb5 Ta0 3.108003 1_455
Nb5 Ta1 3.212177 1_454
Ga0 Ta1 2.742255 1_555
Ga0 Ta3 2.747305 1_555
Ga0 Nb4 2.747894 1_556
Ga0 Ta0 2.754344 1_555
Ga0 Ta2 2.756298 1_555
Ga0 Nb2 2.756579 1_555
Ga0 Nb3 2.762514 1_656
Ga0 Nb5 2.766994 1_655
Ga0 Nb1 2.965066 1_555
Ga0 Nb0 2.996633 1_565
Ga1 Ta3 2.744959 1_455
Ga1 Ta1 2.745434 1_454
Ga1 Nb2 2.749405 1_555
Ga1 Ta2 2.751821 1_554
Ga1 Nb4 2.754585 1_555
Ga1 Ta0 2.757862 1_555
Ga1 Nb5 2.764926 1_555
Ga1 Nb3 2.765350 1_555
Ga1 Nb0 2.964507 1_454
Ga1 Nb1 2.995026 1_565
Ga2 P0 2.485745 1_455
Ga2 Nb1 2.615120 1_555
Ga2 Nb0 2.615330 1_454
Ga2 Nb3 2.635993 1_545
Ga2 Ta0 2.637224 1_555
Ga2 Ta2 2.692263 1_555
Ga2 Ta3 2.694374 1_455
Ga2 Nb5 2.696935 1_545
Ga2 Nb4 2.697215 1_445
Ga3 P1 2.486678 1_566
Ga3 Nb0 2.615265 1_465
Ga3 Nb1 2.616041 1_565
Ga3 Ta2 2.633634 1_565
Ga3 Nb5 2.636178 1_555
Ga3 Ta0 2.692338 1_566
Ga3 Nb3 2.692794 1_556
Ga3 Ta1 2.694363 1_565
Ga3 Nb2 2.695552 1_555
P0 Ta1 2.600145 1_555
P0 Ta2 2.611371 1_655
P0 Ta3 2.620991 1_555
P1 Ta3 2.600069 1_555
P1 Ta0 2.612811 1_555
P1 Ta1 2.620534 1_554
