# generated using pymatgen
data_Ba2Hg3(PtO2)7
_symmetry_space_group_name_H-M   'P 1'
_cell_length_a   6.26529990
_cell_length_b   6.26529979
_cell_length_c   11.03802935
_cell_angle_alpha   89.68926033
_cell_angle_beta   89.68925890
_cell_angle_gamma   61.59800930
_symmetry_Int_Tables_number   1
_chemical_formula_structural   Ba2Hg3(PtO2)7
_chemical_formula_sum   'Ba2 Hg3 Pt7 O14'
_cell_volume   381.12518810
_cell_formula_units_Z   1
loop_
 _symmetry_equiv_pos_site_id
 _symmetry_equiv_pos_as_xyz
  1  'x, y, z'
loop_
 _atom_site_type_symbol
 _atom_site_label
 _atom_site_symmetry_multiplicity
 _atom_site_fract_x
 _atom_site_fract_y
 _atom_site_fract_z
 _atom_site_occupancy
  Ba  Ba0  1  0.50839256  0.50839256  0.70589765  1
  Ba  Ba1  1  0.49160744  0.49160744  0.29410235  1
  Hg  Hg0  1  0.82490133  0.82490133  0.19376938  1
  Hg  Hg1  1  0.17509867  0.17509867  0.80623062  1
  Hg  Hg2  1  0.00000000  0.00000000  0.50000000  1
  Pt  Pt0  1  0.00000000  0.00000000  0.00000000  1
  Pt  Pt1  1  0.82990317  0.82990317  0.77594977  1
  Pt  Pt2  1  0.17009683  0.17009683  0.22405023  1
  Pt  Pt3  1  0.00000000  0.50000000  0.00000000  1
  Pt  Pt4  1  0.50000000  0.00000000  0.50000000  1
  Pt  Pt5  1  0.00000000  0.50000000  0.50000000  1
  Pt  Pt6  1  0.50000000  0.00000000  0.00000000  1
  O  O0  1  0.69558402  0.11630127  0.89573256  1
  O  O1  1  0.68824414  0.68824414  0.90182834  1
  O  O2  1  0.48168859  0.03365841  0.31828069  1
  O  O3  1  0.35936739  0.35936739  0.51277479  1
  O  O4  1  0.96634159  0.51831141  0.68171931  1
  O  O5  1  0.00898061  0.00898061  0.31380206  1
  O  O6  1  0.51831141  0.96634159  0.68171931  1
  O  O7  1  0.11630127  0.69558402  0.89573256  1
  O  O8  1  0.30441598  0.88369873  0.10426744  1
  O  O9  1  0.64063261  0.64063261  0.48722521  1
  O  O10  1  0.31175586  0.31175586  0.09817166  1
  O  O11  1  0.03365841  0.48168859  0.31828069  1
  O  O12  1  0.99101939  0.99101939  0.68619794  1
  O  O13  1  0.88369873  0.30441598  0.10426744  1
loop_
_geom_bond_atom_site_label_1
_geom_bond_atom_site_label_2
_geom_bond_distance
_geom_bond_site_symmetry_2
Ba0 O3 2.675850 1_555
Ba0 O9 2.794379 1_555
Ba0 O6 2.910063 1_555
Ba0 O4 2.910063 1_555
Ba0 O1 2.911608 1_555
Ba0 O7 3.005153 1_555
Ba0 O0 3.005153 1_555
Ba0 O12 3.220882 1_545
Ba0 O12 3.220882 1_455
Ba0 O6 3.378985 1_545
Ba0 O4 3.378985 1_455
Ba1 O9 2.675850 1_555
Ba1 O3 2.794379 1_555
Ba1 O2 2.910063 1_555
Ba1 O11 2.910063 1_555
Ba1 O10 2.911608 1_555
Ba1 O13 3.005153 1_555
Ba1 O8 3.005153 1_555
Ba1 O5 3.220882 1_565
Ba1 O5 3.220882 1_655
Ba1 O2 3.378985 1_565
Ba1 O11 3.378985 1_655
Hg0 O2 2.352736 1_565
Hg0 O11 2.352736 1_655
Hg0 O5 2.390438 1_665
Hg0 Pt3 2.796275 1_655
Hg0 Pt6 2.796275 1_565
Hg0 Pt0 2.841765 1_665
Hg1 O6 2.352736 1_545
Hg1 O4 2.352736 1_455
Hg1 O12 2.390438 1_445
Hg1 Pt3 2.796275 1_556
Hg1 Pt6 2.796275 1_556
Hg1 Pt0 2.841765 1_556
Hg2 O12 2.056920 1_445
Hg2 O5 2.056920 1_555
O0 Pt6 2.045031 1_556
O0 Pt0 2.045923 1_656
O0 Pt1 2.062336 1_545
O1 Pt6 2.048900 1_566
O1 Pt3 2.048900 1_656
O1 Pt1 2.056363 1_555
O2 Pt2 2.012101 1_555
O2 Pt4 2.013914 1_555
O3 Pt4 1.995125 1_555
O3 Pt5 1.995125 1_555
O4 Pt1 2.012101 1_555
O4 Pt5 2.013914 1_655
O5 Pt2 1.991748 1_555
O6 Pt1 2.012101 1_555
O6 Pt4 2.013914 1_565
O7 Pt3 2.045031 1_556
O7 Pt0 2.045923 1_566
O7 Pt1 2.062336 1_455
O8 Pt6 2.045031 1_565
O8 Pt0 2.045923 1_565
O8 Pt2 2.062336 1_565
O9 Pt4 1.995125 1_565
O9 Pt5 1.995125 1_655
O10 Pt6 2.048900 1_555
O10 Pt3 2.048900 1_555
O10 Pt2 2.056363 1_555
O11 Pt2 2.012101 1_555
O11 Pt5 2.013914 1_555
O12 Pt1 1.991748 1_555
O13 Pt3 2.045031 1_655
O13 Pt0 2.045923 1_655
O13 Pt2 2.062336 1_655
