# generated using pymatgen
data_Zr2Ag(AsO4)3
_symmetry_space_group_name_H-M   'P 1'
_cell_length_a   9.40218864
_cell_length_b   9.40218874
_cell_length_c   9.40218864
_cell_angle_alpha   58.90268697
_cell_angle_beta   58.90268834
_cell_angle_gamma   58.90268316
_symmetry_Int_Tables_number   1
_chemical_formula_structural   Zr2Ag(AsO4)3
_chemical_formula_sum   'Zr4 Ag2 As6 O24'
_cell_volume   573.00276747
_cell_formula_units_Z   2
loop_
 _symmetry_equiv_pos_site_id
 _symmetry_equiv_pos_as_xyz
  1  'x, y, z'
loop_
 _atom_site_type_symbol
 _atom_site_label
 _atom_site_symmetry_multiplicity
 _atom_site_fract_x
 _atom_site_fract_y
 _atom_site_fract_z
 _atom_site_occupancy
  Zr  Zr0  1  0.85712259  0.85712259  0.85712259  1
  Zr  Zr1  1  0.64287741  0.64287741  0.64287741  1
  Zr  Zr2  1  0.35712259  0.35712259  0.35712259  1
  Zr  Zr3  1  0.14287741  0.14287741  0.14287741  1
  Ag  Ag0  1  0.00000000  0.00000000  0.00000000  1
  Ag  Ag1  1  0.50000000  0.50000000  0.50000000  1
  As  As0  1  0.75000000  0.03957211  0.46042789  1
  As  As1  1  0.96042789  0.53957211  0.25000000  1
  As  As2  1  0.03957211  0.46042789  0.75000000  1
  As  As3  1  0.25000000  0.96042789  0.53957211  1
  As  As4  1  0.46042789  0.75000000  0.03957211  1
  As  As5  1  0.53957211  0.25000000  0.96042789  1
  O  O0  1  0.86973594  0.49839235  0.70397529  1
  O  O1  1  0.27033823  0.92296267  0.06076605  1
  O  O2  1  0.79602471  0.00160765  0.63026406  1
  O  O3  1  0.57703733  0.22966177  0.43923395  1
  O  O4  1  0.13026406  0.50160765  0.29602471  1
  O  O5  1  0.92296267  0.06076605  0.27033823  1
  O  O6  1  0.72966177  0.07703733  0.93923395  1
  O  O7  1  0.77033823  0.56076605  0.42296267  1
  O  O8  1  0.42296267  0.77033823  0.56076605  1
  O  O9  1  0.49839235  0.70397529  0.86973594  1
  O  O10  1  0.07703733  0.93923395  0.72966177  1
  O  O11  1  0.20397529  0.99839235  0.36973594  1
  O  O12  1  0.99839235  0.36973594  0.20397529  1
  O  O13  1  0.36973594  0.20397529  0.99839235  1
  O  O14  1  0.93923395  0.72966177  0.07703733  1
  O  O15  1  0.50160765  0.29602471  0.13026406  1
  O  O16  1  0.22966177  0.43923395  0.57703733  1
  O  O17  1  0.63026406  0.79602471  0.00160765  1
  O  O18  1  0.00160765  0.63026406  0.79602471  1
  O  O19  1  0.43923395  0.57703733  0.22966177  1
  O  O20  1  0.56076605  0.42296267  0.77033823  1
  O  O21  1  0.70397529  0.86973594  0.49839235  1
  O  O22  1  0.29602471  0.13026406  0.50160765  1
  O  O23  1  0.06076605  0.27033823  0.92296267  1
loop_
_geom_bond_atom_site_label_1
_geom_bond_atom_site_label_2
_geom_bond_distance
_geom_bond_site_symmetry_2
Ag0 O1 2.546075 1_545
Ag0 O6 2.546075 1_454
Ag0 O5 2.546076 1_455
Ag0 O10 2.546076 1_544
Ag0 O23 2.546076 1_554
Ag0 O14 2.546076 1_445
Ag1 O20 2.546076 1_555
Ag1 O19 2.546076 1_555
Ag1 O8 2.546076 1_555
Ag1 O3 2.546076 1_555
Ag1 O7 2.546076 1_555
Ag1 O16 2.546076 1_555
As0 O2 1.682257 1_555
As0 O21 1.682257 1_545
As0 O3 1.686152 1_555
As0 O5 1.686152 1_555
As1 O4 1.682257 1_655
As1 O12 1.682257 1_555
As1 O14 1.686152 1_555
As1 O7 1.686152 1_555
As2 O0 1.682257 1_455
As2 O18 1.682257 1_555
As2 O23 1.686152 1_555
As2 O16 1.686152 1_555
As3 O11 1.682257 1_555
As3 O22 1.682257 1_565
As3 O8 1.686152 1_555
As3 O10 1.686152 1_555
As4 O9 1.682257 1_554
As4 O17 1.682257 1_555
As4 O1 1.686152 1_555
As4 O19 1.686152 1_555
As5 O15 1.682257 1_556
As5 O13 1.682257 1_555
As5 O6 1.686152 1_555
As5 O20 1.686152 1_555
O0 Zr1 2.047296 1_555
O1 Zr3 2.107387 1_565
O2 Zr0 2.047296 1_545
O3 Zr2 2.107387 1_555
O4 Zr2 2.047296 1_555
O5 Zr3 2.107387 1_655
O6 Zr0 2.107387 1_545
O7 Zr1 2.107387 1_555
O8 Zr1 2.107387 1_555
O9 Zr1 2.047296 1_555
O10 Zr0 2.107387 1_455
O11 Zr3 2.047296 1_565
O12 Zr3 2.047296 1_655
O13 Zr3 2.047296 1_556
O14 Zr0 2.107387 1_554
O15 Zr2 2.047296 1_555
O16 Zr2 2.107387 1_555
O17 Zr0 2.047296 1_554
O18 Zr0 2.047296 1_455
O19 Zr2 2.107387 1_555
O20 Zr1 2.107387 1_555
O21 Zr1 2.047296 1_555
O22 Zr2 2.047296 1_555
O23 Zr3 2.107387 1_556
