# generated using pymatgen
data_Rb6Zn4Sn5Se17
_symmetry_space_group_name_H-M   'P 1'
_cell_length_a   11.54968321
_cell_length_b   11.54968374
_cell_length_c   11.57270674
_cell_angle_alpha   78.37029625
_cell_angle_beta   78.37029478
_cell_angle_gamma   126.38556877
_symmetry_Int_Tables_number   1
_chemical_formula_structural   Rb6Zn4Sn5Se17
_chemical_formula_sum   'Rb6 Zn4 Sn5 Se17'
_cell_volume   1111.71838119
_cell_formula_units_Z   1
loop_
 _symmetry_equiv_pos_site_id
 _symmetry_equiv_pos_as_xyz
  1  'x, y, z'
loop_
 _atom_site_type_symbol
 _atom_site_label
 _atom_site_symmetry_multiplicity
 _atom_site_fract_x
 _atom_site_fract_y
 _atom_site_fract_z
 _atom_site_occupancy
  Rb  Rb0  1  0.24954884  0.75045116  0.50000000  1
  Rb  Rb1  1  0.58410072  0.41589928  0.00000000  1
  Rb  Rb2  1  0.51115299  0.99520301  0.97991920  1
  Rb  Rb3  1  0.00479699  0.48884701  0.02008080  1
  Rb  Rb4  1  0.98893550  0.01106450  0.50000000  1
  Rb  Rb5  1  0.50871138  0.49128862  0.50000000  1
  Zn  Zn0  1  0.02141185  0.38414144  0.36422242  1
  Zn  Zn1  1  0.74979862  0.38672319  0.63511358  1
  Zn  Zn2  1  0.61585856  0.97858815  0.63577758  1
  Zn  Zn3  1  0.61327681  0.25020138  0.36488642  1
  Sn  Sn0  1  0.99844416  0.00155584  0.00000000  1
  Sn  Sn1  1  0.97142721  0.69460180  0.27625254  1
  Sn  Sn2  1  0.96643010  0.24481102  0.72512543  1
  Sn  Sn3  1  0.75518898  0.03356990  0.27487457  1
  Sn  Sn4  1  0.30539820  0.02857279  0.72374746  1
  Se  Se0  1  0.16913927  0.66094647  0.22472302  1
  Se  Se1  1  0.87988985  0.39143408  0.78067186  1
  Se  Se2  1  0.88395932  0.66229151  0.50695223  1
  Se  Se3  1  0.16734097  0.39473440  0.49553226  1
  Se  Se4  1  0.60526560  0.83265903  0.50446774  1
  Se  Se5  1  0.33770849  0.11604068  0.49304777  1
  Se  Se6  1  0.60856592  0.12011015  0.21932814  1
  Se  Se7  1  0.33905353  0.83086073  0.77527698  1
  Se  Se8  1  0.13814328  0.99499045  0.14442562  1
  Se  Se9  1  0.13731160  0.28412128  0.85581615  1
  Se  Se10  1  0.71587872  0.86268840  0.14418385  1
  Se  Se11  1  0.00500955  0.86185672  0.85557438  1
  Se  Se12  1  0.74066260  0.52100877  0.22154997  1
  Se  Se13  1  0.74273516  0.96019529  0.77804709  1
  Se  Se14  1  0.03980471  0.25726484  0.22195291  1
  Se  Se15  1  0.47899123  0.25933740  0.77845003  1
  Se  Se16  1  0.74985531  0.25014469  0.50000000  1
loop_
_geom_bond_atom_site_label_1
_geom_bond_atom_site_label_2
_geom_bond_distance
_geom_bond_site_symmetry_2
Rb0 Se4 3.641512 1_555
Rb0 Se3 3.641512 1_555
Rb0 Se7 3.668968 1_555
Rb0 Se0 3.668968 1_555
Rb0 Se2 3.688003 1_455
Rb0 Se5 3.688004 1_565
Rb0 Se1 3.734595 1_455
Rb0 Se6 3.734595 1_565
Rb1 Se12 3.440479 1_555
Rb1 Se15 3.440480 1_554
Rb1 Se1 4.016436 1_554
Rb1 Se6 4.016436 1_555
Rb1 Se8 4.062229 1_545
Rb1 Se11 4.062229 1_654
Rb2 Se0 3.394036 1_556
Rb2 Se13 3.452535 1_555
Rb2 Se6 3.459168 1_566
Rb2 Se7 3.520851 1_555
Rb2 Se1 3.613910 1_565
Rb2 Se15 3.702246 1_565
Rb2 Se10 4.059546 1_556
Rb2 Se8 4.343196 1_556
Rb3 Se7 3.394036 1_554
Rb3 Se14 3.452535 1_555
Rb3 Se1 3.459168 1_454
Rb3 Se0 3.520851 1_555
Rb3 Se6 3.613910 1_455
Rb3 Se12 3.702246 1_455
Rb3 Se9 4.059546 1_554
Rb3 Se11 4.343196 1_554
Rb4 Se5 3.426152 1_655
Rb4 Se2 3.426153 1_545
Rb4 Se13 3.514484 1_545
Rb4 Se14 3.514484 1_655
Rb4 Se4 3.593916 1_545
Rb4 Se3 3.593916 1_655
Rb4 Se8 4.214935 1_645
Rb4 Se11 4.214935 1_645
Rb5 Se3 3.417637 1_555
Rb5 Se4 3.417637 1_555
Rb5 Se12 3.558260 1_555
Rb5 Se15 3.558260 1_555
Rb5 Se2 3.569284 1_555
Rb5 Se5 3.569285 1_555
Rb5 Se9 4.220242 1_555
Rb5 Se10 4.220242 1_555
Se0 Zn0 2.464788 1_555
Se0 Sn1 2.513698 1_455
Se1 Zn1 2.461389 1_555
Se1 Sn2 2.543236 1_555
Se2 Zn1 2.459612 1_555
Se2 Sn1 2.520198 1_555
Se3 Zn0 2.455155 1_555
Se3 Sn2 2.516902 1_455
Se4 Zn2 2.455155 1_555
Se4 Sn3 2.516902 1_565
Se5 Zn3 2.459612 1_555
Se5 Sn4 2.520198 1_555
Se6 Zn3 2.461389 1_555
Se6 Sn3 2.543236 1_555
Se7 Zn2 2.464788 1_555
Se7 Sn4 2.513698 1_565
Se8 Sn0 2.565921 1_465
Se8 Sn1 2.612978 1_455
Se9 Sn0 2.553961 1_456
Se9 Sn2 2.608836 1_455
Se10 Sn0 2.553961 1_565
Se10 Sn3 2.608836 1_565
Se11 Sn0 2.565921 1_466
Se11 Sn4 2.612977 1_565
Se12 Zn3 2.482661 1_555
Se12 Sn1 2.525116 1_555
Se13 Zn2 2.470687 1_555
Se13 Sn2 2.515963 1_565
Se14 Zn0 2.470687 1_555
Se14 Sn3 2.515963 1_455
Se15 Zn1 2.482661 1_555
Se15 Sn4 2.525116 1_555
Se16 Zn3 2.434851 1_555
Se16 Zn1 2.434851 1_555
Se16 Zn0 2.444355 1_655
Se16 Zn2 2.444355 1_545
