# generated using pymatgen
data_CsSc5Te8
_symmetry_space_group_name_H-M   'P 1'
_cell_length_a   21.94640582
_cell_length_b   21.94640755
_cell_length_c   20.85047579
_cell_angle_alpha   76.07805477
_cell_angle_beta   76.07805365
_cell_angle_gamma   22.02398458
_symmetry_Int_Tables_number   1
_chemical_formula_structural   CsSc5Te8
_chemical_formula_sum   'Cs8 Sc40 Te64'
_cell_volume   3651.01219706
_cell_formula_units_Z   8
loop_
 _symmetry_equiv_pos_site_id
 _symmetry_equiv_pos_as_xyz
  1  'x, y, z'
loop_
 _atom_site_type_symbol
 _atom_site_label
 _atom_site_symmetry_multiplicity
 _atom_site_fract_x
 _atom_site_fract_y
 _atom_site_fract_z
 _atom_site_occupancy
  Cs  Cs0_0  1  0.00000000  0.00000000  0.00000000  1
  Cs  Cs0_1  1  0.00000000  0.00000000  0.50000000  1
  Cs  Cs0_2  1  0.00000000  0.50000000  0.00000000  1
  Cs  Cs0_3  1  0.00000000  0.50000000  0.50000000  1
  Cs  Cs0_4  1  0.50000000  0.00000000  0.00000000  1
  Cs  Cs0_5  1  0.50000000  0.00000000  0.50000000  1
  Cs  Cs0_6  1  0.50000000  0.50000000  1.00000000  1
  Cs  Cs0_7  1  0.50000000  0.50000000  0.50000000  1
  Sc  Sc0_0  1  0.10273688  0.10273688  0.07820116  1
  Sc  Sc0_1  1  0.10273688  0.10273688  0.57820116  1
  Sc  Sc0_2  1  0.10273688  0.60273688  0.07820116  1
  Sc  Sc0_3  1  0.10273688  0.60273688  0.57820116  1
  Sc  Sc0_4  1  0.60273688  0.10273688  0.07820116  1
  Sc  Sc0_5  1  0.60273688  0.10273688  0.57820116  1
  Sc  Sc0_6  1  0.60273688  0.60273688  0.07820116  1
  Sc  Sc0_7  1  0.60273688  0.60273688  0.57820116  1
  Sc  Sc1_0  1  0.25000000  0.25000000  0.25000000  1
  Sc  Sc1_1  1  0.25000000  0.25000000  0.75000000  1
  Sc  Sc1_2  1  0.25000000  0.75000000  0.25000000  1
  Sc  Sc1_3  1  0.25000000  0.75000000  0.75000000  1
  Sc  Sc1_4  1  0.75000000  0.25000000  0.25000000  1
  Sc  Sc1_5  1  0.75000000  0.25000000  0.75000000  1
  Sc  Sc1_6  1  0.75000000  0.75000000  0.25000000  1
  Sc  Sc1_7  1  0.75000000  0.75000000  0.75000000  1
  Sc  Sc2_0  1  0.42160214  0.42160214  0.24005333  1
  Sc  Sc2_1  1  0.42160214  0.42160214  0.74005333  1
  Sc  Sc2_2  1  0.42160214  0.92160214  0.24005333  1
  Sc  Sc2_3  1  0.42160214  0.92160214  0.74005333  1
  Sc  Sc2_4  1  0.92160214  0.42160214  0.24005333  1
  Sc  Sc2_5  1  0.92160214  0.42160214  0.74005333  1
  Sc  Sc2_6  1  0.92160214  0.92160214  0.24005333  1
  Sc  Sc2_7  1  0.92160214  0.92160214  0.74005333  1
  Sc  Sc3_0  1  0.07839786  0.07839786  0.25994667  1
  Sc  Sc3_1  1  0.07839786  0.07839786  0.75994667  1
  Sc  Sc3_2  1  0.07839786  0.57839786  0.25994667  1
  Sc  Sc3_3  1  0.07839786  0.57839786  0.75994667  1
  Sc  Sc3_4  1  0.57839786  0.07839786  0.25994667  1
  Sc  Sc3_5  1  0.57839786  0.07839786  0.75994667  1
  Sc  Sc3_6  1  0.57839786  0.57839786  0.25994667  1
  Sc  Sc3_7  1  0.57839786  0.57839786  0.75994667  1
  Sc  Sc4_0  1  0.39726312  0.39726312  0.42179884  1
  Sc  Sc4_1  1  0.39726312  0.39726312  0.92179884  1
  Sc  Sc4_2  1  0.39726312  0.89726312  0.42179884  1
  Sc  Sc4_3  1  0.39726312  0.89726312  0.92179884  1
  Sc  Sc4_4  1  0.89726312  0.39726312  0.42179884  1
  Sc  Sc4_5  1  0.89726312  0.39726312  0.92179884  1
  Sc  Sc4_6  1  0.89726312  0.89726312  0.42179884  1
  Sc  Sc4_7  1  0.89726312  0.89726312  0.92179884  1
  Te  Te0_0  1  0.46253431  0.46253431  0.33216856  1
  Te  Te0_1  1  0.46253431  0.46253431  0.83216856  1
  Te  Te0_2  1  0.46253431  0.96253431  0.33216856  1
  Te  Te0_3  1  0.46253431  0.96253431  0.83216856  1
  Te  Te0_4  1  0.96253431  0.46253431  0.33216856  1
  Te  Te0_5  1  0.96253431  0.46253431  0.83216856  1
  Te  Te0_6  1  0.96253431  0.96253431  0.33216856  1
  Te  Te0_7  1  0.96253431  0.96253431  0.83216856  1
  Te  Te1_0  1  0.03746569  0.03746569  0.16783144  1
  Te  Te1_1  1  0.03746569  0.03746569  0.66783144  1
  Te  Te1_2  1  0.03746569  0.53746569  0.16783144  1
  Te  Te1_3  1  0.03746569  0.53746569  0.66783144  1
  Te  Te1_4  1  0.53746569  0.03746569  0.16783144  1
  Te  Te1_5  1  0.53746569  0.03746569  0.66783144  1
  Te  Te1_6  1  0.53746569  0.53746569  0.16783144  1
  Te  Te1_7  1  0.53746569  0.53746569  0.66783144  1
  Te  Te2_0  1  0.29323883  0.29323883  0.33900592  1
  Te  Te2_1  1  0.29323883  0.29323883  0.83900592  1
  Te  Te2_2  1  0.29323883  0.79323883  0.33900592  1
  Te  Te2_3  1  0.29323883  0.79323883  0.83900592  1
  Te  Te2_4  1  0.79323883  0.29323883  0.33900592  1
  Te  Te2_5  1  0.79323883  0.29323883  0.83900592  1
  Te  Te2_6  1  0.79323883  0.79323883  0.33900592  1
  Te  Te2_7  1  0.79323883  0.79323883  0.83900592  1
  Te  Te3_0  1  0.20676117  0.20676117  0.16099408  1
  Te  Te3_1  1  0.20676117  0.20676117  0.66099408  1
  Te  Te3_2  1  0.20676117  0.70676117  0.16099408  1
  Te  Te3_3  1  0.20676117  0.70676117  0.66099408  1
  Te  Te3_4  1  0.70676117  0.20676117  0.16099408  1
  Te  Te3_5  1  0.70676117  0.20676117  0.66099408  1
  Te  Te3_6  1  0.70676117  0.70676117  0.16099408  1
  Te  Te3_7  1  0.70676117  0.70676117  0.66099408  1
  Te  Te4_0  1  0.33282045  0.33282045  0.00230458  1
  Te  Te4_1  1  0.33282045  0.33282045  0.50230458  1
  Te  Te4_2  1  0.33282045  0.83282045  0.00230458  1
  Te  Te4_3  1  0.33282045  0.83282045  0.50230458  1
  Te  Te4_4  1  0.83282045  0.33282045  0.00230458  1
  Te  Te4_5  1  0.83282045  0.33282045  0.50230458  1
  Te  Te4_6  1  0.83282045  0.83282045  0.00230458  1
  Te  Te4_7  1  0.83282045  0.83282045  0.50230458  1
  Te  Te5_0  1  0.16717955  0.16717955  0.49769542  1
  Te  Te5_1  1  0.16717955  0.16717955  0.99769542  1
  Te  Te5_2  1  0.16717955  0.66717955  0.49769542  1
  Te  Te5_3  1  0.16717955  0.66717955  0.99769542  1
  Te  Te5_4  1  0.66717955  0.16717955  0.49769542  1
  Te  Te5_5  1  0.66717955  0.16717955  0.99769542  1
  Te  Te5_6  1  0.66717955  0.66717955  0.49769542  1
  Te  Te5_7  1  0.66717955  0.66717955  0.99769542  1
  Te  Te6_0  1  0.36920405  0.36920405  0.17038486  1
  Te  Te6_1  1  0.36920405  0.36920405  0.67038486  1
  Te  Te6_2  1  0.36920405  0.86920405  0.17038486  1
  Te  Te6_3  1  0.36920405  0.86920405  0.67038486  1
  Te  Te6_4  1  0.86920405  0.36920405  0.17038486  1
  Te  Te6_5  1  0.86920405  0.36920405  0.67038486  1
  Te  Te6_6  1  0.86920405  0.86920405  0.17038486  1
  Te  Te6_7  1  0.86920405  0.86920405  0.67038486  1
  Te  Te7_0  1  0.13079595  0.13079595  0.32961514  1
  Te  Te7_1  1  0.13079595  0.13079595  0.82961514  1
  Te  Te7_2  1  0.13079595  0.63079595  0.32961514  1
  Te  Te7_3  1  0.13079595  0.63079595  0.82961514  1
  Te  Te7_4  1  0.63079595  0.13079595  0.32961514  1
  Te  Te7_5  1  0.63079595  0.13079595  0.82961514  1
  Te  Te7_6  1  0.63079595  0.63079595  0.32961514  1
  Te  Te7_7  1  0.63079595  0.63079595  0.82961514  1
loop_
_geom_bond_atom_site_label_1
_geom_bond_atom_site_label_2
_geom_bond_distance
_geom_bond_site_symmetry_2
Cs0_0 Te3_4 4.008291 1_455
Cs0_0 Te2_3 4.008291 1_544
Cs0_0 Te3_2 4.008291 1_545
Cs0_0 Te2_5 4.008291 1_454
Cs0_0 Te4_2 4.148786 1_545
Cs0_0 Te5_5 4.148786 1_454
Cs0_0 Te4_4 4.148787 1_455
Cs0_0 Te5_3 4.148787 1_544
Cs0_0 Cs0_6 4.192081 1_544
Cs0_0 Cs0_6 4.192081 1_454
Cs0_0 Te1_0 4.197655 1_555
Cs0_0 Te0_7 4.197655 1_444
Cs0_1 Te3_5 4.008291 1_455
Cs0_1 Te2_2 4.008291 1_545
Cs0_1 Te3_3 4.008291 1_545
Cs0_1 Te2_4 4.008291 1_455
Cs0_1 Te4_3 4.148786 1_545
Cs0_1 Te5_4 4.148786 1_455
Cs0_1 Te4_5 4.148787 1_455
Cs0_1 Te5_2 4.148787 1_545
Cs0_1 Cs0_7 4.192081 1_545
Cs0_1 Cs0_7 4.192081 1_455
Cs0_1 Te1_1 4.197655 1_555
Cs0_1 Te0_6 4.197655 1_445
Cs0_2 Te3_6 4.008291 1_455
Cs0_2 Te2_1 4.008291 1_554
Cs0_2 Te3_0 4.008291 1_555
Cs0_2 Te2_7 4.008291 1_454
Cs0_2 Te4_0 4.148786 1_555
Cs0_2 Te5_7 4.148786 1_454
Cs0_2 Te4_6 4.148787 1_455
Cs0_2 Te5_1 4.148787 1_554
Cs0_2 Cs0_4 4.192081 1_465
Cs0_2 Cs0_4 4.192081 1_555
Cs0_2 Te1_2 4.197655 1_555
Cs0_2 Te0_5 4.197655 1_454
Cs0_3 Te3_7 4.008291 1_455
Cs0_3 Te2_0 4.008291 1_555
Cs0_3 Te3_1 4.008291 1_555
Cs0_3 Te2_6 4.008291 1_455
Cs0_3 Te4_1 4.148786 1_555
Cs0_3 Te5_6 4.148786 1_455
Cs0_3 Te4_7 4.148787 1_455
Cs0_3 Te5_0 4.148787 1_555
Cs0_3 Cs0_5 4.192081 1_465
Cs0_3 Cs0_5 4.192081 1_555
Cs0_3 Te1_3 4.197655 1_555
Cs0_3 Te0_4 4.197655 1_455
Cs0_4 Te3_0 4.008291 1_555
Cs0_4 Te2_7 4.008291 1_544
Cs0_4 Te3_6 4.008291 1_545
Cs0_4 Te2_1 4.008291 1_554
Cs0_4 Te4_6 4.148786 1_545
Cs0_4 Te5_1 4.148786 1_554
Cs0_4 Te4_0 4.148787 1_555
Cs0_4 Te5_7 4.148787 1_544
Cs0_4 Te1_4 4.197655 1_555
Cs0_4 Te0_3 4.197655 1_544
Cs0_5 Te3_1 4.008291 1_555
Cs0_5 Te2_6 4.008291 1_545
Cs0_5 Te3_7 4.008291 1_545
Cs0_5 Te2_0 4.008291 1_555
Cs0_5 Te4_7 4.148786 1_545
Cs0_5 Te5_0 4.148786 1_555
Cs0_5 Te4_1 4.148787 1_555
Cs0_5 Te5_6 4.148787 1_545
Cs0_5 Te1_5 4.197655 1_555
Cs0_5 Te0_2 4.197655 1_545
Cs0_6 Te3_2 4.008291 1_556
Cs0_6 Te2_5 4.008291 1_555
Cs0_6 Te3_4 4.008291 1_556
Cs0_6 Te2_3 4.008291 1_555
Cs0_6 Te4_4 4.148786 1_556
Cs0_6 Te5_3 4.148786 1_555
Cs0_6 Te4_2 4.148787 1_556
Cs0_6 Te5_5 4.148787 1_555
Cs0_6 Te1_6 4.197655 1_556
Cs0_6 Te0_1 4.197655 1_555
Cs0_7 Te3_3 4.008291 1_555
Cs0_7 Te2_4 4.008291 1_555
Cs0_7 Te2_2 4.008291 1_555
Cs0_7 Te3_5 4.008291 1_555
Cs0_7 Te4_5 4.148786 1_555
Cs0_7 Te5_2 4.148786 1_555
Cs0_7 Te4_3 4.148787 1_555
Cs0_7 Te5_4 4.148787 1_555
Cs0_7 Te1_7 4.197655 1_555
Cs0_7 Te0_0 4.197655 1_555
Sc0_0 Te5_1 2.870853 1_554
Sc0_0 Te4_4 2.880908 1_455
Sc0_0 Te4_2 2.880909 1_545
Sc0_0 Te1_0 2.970612 1_555
Sc0_0 Te6_2 3.042964 1_545
Sc0_0 Te6_4 3.042964 1_455
Sc0_1 Te5_0 2.870853 1_555
Sc0_1 Te4_5 2.880908 1_455
Sc0_1 Te4_3 2.880909 1_545
Sc0_1 Te1_1 2.970612 1_555
Sc0_1 Te6_3 3.042964 1_545
Sc0_1 Te6_5 3.042964 1_455
Sc0_2 Te5_3 2.870853 1_554
Sc0_2 Te4_6 2.880908 1_455
Sc0_2 Te4_0 2.880909 1_555
Sc0_2 Te1_2 2.970612 1_555
Sc0_2 Te6_0 3.042964 1_555
Sc0_2 Te6_6 3.042964 1_455
Sc0_3 Te5_2 2.870853 1_555
Sc0_3 Te4_7 2.880908 1_455
Sc0_3 Te4_1 2.880909 1_555
Sc0_3 Te1_3 2.970612 1_555
Sc0_3 Te6_1 3.042964 1_555
Sc0_3 Te6_7 3.042964 1_455
Sc0_4 Te5_5 2.870853 1_554
Sc0_4 Te4_0 2.880908 1_555
Sc0_4 Te4_6 2.880909 1_545
Sc0_4 Te1_4 2.970612 1_555
Sc0_4 Te6_6 3.042964 1_545
Sc0_4 Te6_0 3.042964 1_555
Sc0_5 Te5_4 2.870853 1_555
Sc0_5 Te4_1 2.880908 1_555
Sc0_5 Te4_7 2.880909 1_545
Sc0_5 Te1_5 2.970612 1_555
Sc0_5 Te6_7 3.042964 1_545
Sc0_5 Te6_1 3.042964 1_555
Sc0_6 Te5_7 2.870853 1_554
Sc0_6 Te4_2 2.880908 1_555
Sc0_6 Te4_4 2.880909 1_555
Sc0_6 Te1_6 2.970612 1_555
Sc0_6 Te6_4 3.042964 1_555
Sc0_6 Te6_2 3.042964 1_555
Sc0_7 Te5_6 2.870853 1_555
Sc0_7 Te4_3 2.880908 1_555
Sc0_7 Te4_5 2.880909 1_555
Sc0_7 Te1_7 2.970612 1_555
Sc0_7 Te6_5 3.042964 1_555
Sc0_7 Te6_3 3.042964 1_555
Sc1_0 Te1_4 2.928910 1_555
Sc1_0 Te0_4 2.928910 1_455
Sc1_0 Te1_2 2.928911 1_555
Sc1_0 Te0_2 2.928911 1_545
Sc1_0 Te2_0 2.934176 1_555
Sc1_0 Te3_0 2.934176 1_555
Sc1_1 Te1_5 2.928910 1_555
Sc1_1 Te0_5 2.928910 1_455
Sc1_1 Te1_3 2.928911 1_555
Sc1_1 Te0_3 2.928911 1_545
Sc1_1 Te2_1 2.934176 1_555
Sc1_1 Te3_1 2.934176 1_555
Sc1_2 Te0_6 2.928910 1_455
Sc1_2 Te1_6 2.928910 1_555
Sc1_2 Te1_0 2.928911 1_565
Sc1_2 Te0_0 2.928911 1_555
Sc1_2 Te2_2 2.934176 1_555
Sc1_2 Te3_2 2.934176 1_555
Sc1_3 Te0_7 2.928910 1_455
Sc1_3 Te1_7 2.928910 1_555
Sc1_3 Te1_1 2.928911 1_565
Sc1_3 Te0_1 2.928911 1_555
Sc1_3 Te2_3 2.934176 1_555
Sc1_3 Te3_3 2.934176 1_555
Sc1_4 Te1_0 2.928910 1_655
Sc1_4 Te0_0 2.928910 1_555
Sc1_4 Te0_6 2.928911 1_545
Sc1_4 Te1_6 2.928911 1_555
Sc1_4 Te2_4 2.934176 1_555
Sc1_4 Te3_4 2.934176 1_555
Sc1_5 Te0_1 2.928910 1_555
Sc1_5 Te1_1 2.928910 1_655
Sc1_5 Te0_7 2.928911 1_545
Sc1_5 Te1_7 2.928911 1_555
Sc1_5 Te2_5 2.934176 1_555
Sc1_5 Te3_5 2.934176 1_555
Sc1_6 Te1_2 2.928910 1_655
Sc1_6 Te0_2 2.928910 1_555
Sc1_6 Te1_4 2.928911 1_565
Sc1_6 Te0_4 2.928911 1_555
Sc1_6 Te2_6 2.934176 1_555
Sc1_6 Te3_6 2.934176 1_555
Sc1_7 Te1_3 2.928910 1_655
Sc1_7 Te0_3 2.928910 1_555
Sc1_7 Te1_5 2.928911 1_565
Sc1_7 Te0_5 2.928911 1_555
Sc1_7 Te2_7 2.934176 1_555
Sc1_7 Te3_7 2.934176 1_555
Sc2_0 Te3_4 2.860284 1_555
Sc2_0 Te3_2 2.860284 1_555
Sc2_0 Te0_0 2.908513 1_555
Sc2_0 Te6_0 2.968885 1_555
Sc2_0 Te7_2 3.059755 1_555
Sc2_0 Te7_4 3.059756 1_555
Sc2_1 Te3_5 2.860284 1_555
Sc2_1 Te3_3 2.860284 1_555
Sc2_1 Te0_1 2.908513 1_555
Sc2_1 Te6_1 2.968885 1_555
Sc2_1 Te7_3 3.059755 1_555
Sc2_1 Te7_5 3.059756 1_555
Sc2_2 Te3_6 2.860284 1_555
Sc2_2 Te3_0 2.860284 1_565
Sc2_2 Te0_2 2.908513 1_555
Sc2_2 Te6_2 2.968885 1_555
Sc2_2 Te7_0 3.059755 1_565
Sc2_2 Te7_6 3.059756 1_555
Sc2_3 Te3_7 2.860284 1_555
Sc2_3 Te3_1 2.860284 1_565
Sc2_3 Te0_3 2.908513 1_555
Sc2_3 Te6_3 2.968885 1_555
Sc2_3 Te7_1 3.059755 1_565
Sc2_3 Te7_7 3.059756 1_555
Sc2_4 Te3_0 2.860284 1_655
Sc2_4 Te3_6 2.860284 1_555
Sc2_4 Te0_4 2.908513 1_555
Sc2_4 Te6_4 2.968885 1_555
Sc2_4 Te7_6 3.059755 1_555
Sc2_4 Te7_0 3.059756 1_655
Sc2_5 Te3_1 2.860284 1_655
Sc2_5 Te3_7 2.860284 1_555
Sc2_5 Te0_5 2.908513 1_555
Sc2_5 Te6_5 2.968885 1_555
Sc2_5 Te7_7 3.059755 1_555
Sc2_5 Te7_1 3.059756 1_655
Sc2_6 Te3_2 2.860284 1_655
Sc2_6 Te3_4 2.860284 1_565
Sc2_6 Te0_6 2.908513 1_555
Sc2_6 Te6_6 2.968885 1_555
Sc2_6 Te7_4 3.059755 1_565
Sc2_6 Te7_2 3.059756 1_655
Sc2_7 Te3_3 2.860284 1_655
Sc2_7 Te3_5 2.860284 1_565
Sc2_7 Te0_7 2.908513 1_555
Sc2_7 Te6_7 2.968885 1_555
Sc2_7 Te7_5 3.059755 1_565
Sc2_7 Te7_3 3.059756 1_655
Sc3_0 Te2_4 2.860284 1_455
Sc3_0 Te2_2 2.860284 1_545
Sc3_0 Te1_0 2.908513 1_555
Sc3_0 Te7_0 2.968885 1_555
Sc3_0 Te6_2 3.059755 1_545
Sc3_0 Te6_4 3.059756 1_455
Sc3_1 Te2_5 2.860284 1_455
Sc3_1 Te2_3 2.860284 1_545
Sc3_1 Te1_1 2.908513 1_555
Sc3_1 Te7_1 2.968885 1_555
Sc3_1 Te6_3 3.059755 1_545
Sc3_1 Te6_5 3.059756 1_455
Sc3_2 Te2_6 2.860284 1_455
Sc3_2 Te2_0 2.860284 1_555
Sc3_2 Te1_2 2.908513 1_555
Sc3_2 Te7_2 2.968885 1_555
Sc3_2 Te6_0 3.059755 1_555
Sc3_2 Te6_6 3.059756 1_455
Sc3_3 Te2_7 2.860284 1_455
Sc3_3 Te2_1 2.860284 1_555
Sc3_3 Te1_3 2.908513 1_555
Sc3_3 Te7_3 2.968885 1_555
Sc3_3 Te6_1 3.059755 1_555
Sc3_3 Te6_7 3.059756 1_455
Sc3_4 Te2_0 2.860284 1_555
Sc3_4 Te2_6 2.860284 1_545
Sc3_4 Te1_4 2.908513 1_555
Sc3_4 Te7_4 2.968885 1_555
Sc3_4 Te6_6 3.059755 1_545
Sc3_4 Te6_0 3.059756 1_555
Sc3_5 Te2_1 2.860284 1_555
Sc3_5 Te2_7 2.860284 1_545
Sc3_5 Te1_5 2.908513 1_555
Sc3_5 Te7_5 2.968885 1_555
Sc3_5 Te6_7 3.059755 1_545
Sc3_5 Te6_1 3.059756 1_555
Sc3_6 Te2_2 2.860284 1_555
Sc3_6 Te2_4 2.860284 1_555
Sc3_6 Te1_6 2.908513 1_555
Sc3_6 Te7_6 2.968885 1_555
Sc3_6 Te6_4 3.059755 1_555
Sc3_6 Te6_2 3.059756 1_555
Sc3_7 Te2_3 2.860284 1_555
Sc3_7 Te2_5 2.860284 1_555
Sc3_7 Te1_7 2.908513 1_555
Sc3_7 Te7_7 2.968885 1_555
Sc3_7 Te6_5 3.059755 1_555
Sc3_7 Te6_3 3.059756 1_555
Sc4_0 Te4_1 2.870853 1_555
Sc4_0 Te5_4 2.880908 1_555
Sc4_0 Te5_2 2.880909 1_555
Sc4_0 Te0_0 2.970612 1_555
Sc4_0 Te7_2 3.042964 1_555
Sc4_0 Te7_4 3.042964 1_555
Sc4_1 Te4_0 2.870853 1_556
Sc4_1 Te5_5 2.880908 1_555
Sc4_1 Te5_3 2.880909 1_555
Sc4_1 Te0_1 2.970612 1_555
Sc4_1 Te7_3 3.042964 1_555
Sc4_1 Te7_5 3.042964 1_555
Sc4_2 Te4_3 2.870853 1_555
Sc4_2 Te5_6 2.880908 1_555
Sc4_2 Te5_0 2.880909 1_565
Sc4_2 Te0_2 2.970612 1_555
Sc4_2 Te7_0 3.042964 1_565
Sc4_2 Te7_6 3.042964 1_555
Sc4_3 Te4_2 2.870853 1_556
Sc4_3 Te5_7 2.880908 1_555
Sc4_3 Te5_1 2.880909 1_565
Sc4_3 Te0_3 2.970612 1_555
Sc4_3 Te7_1 3.042964 1_565
Sc4_3 Te7_7 3.042964 1_555
Sc4_4 Te4_5 2.870853 1_555
Sc4_4 Te5_0 2.880908 1_655
Sc4_4 Te5_6 2.880909 1_555
Sc4_4 Te0_4 2.970612 1_555
Sc4_4 Te7_6 3.042964 1_555
Sc4_4 Te7_0 3.042964 1_655
Sc4_5 Te4_4 2.870853 1_556
Sc4_5 Te5_1 2.880908 1_655
Sc4_5 Te5_7 2.880909 1_555
Sc4_5 Te0_5 2.970612 1_555
Sc4_5 Te7_7 3.042964 1_555
Sc4_5 Te7_1 3.042964 1_655
Sc4_6 Te4_7 2.870853 1_555
Sc4_6 Te5_2 2.880908 1_655
Sc4_6 Te5_4 2.880909 1_565
Sc4_6 Te0_6 2.970612 1_555
Sc4_6 Te7_4 3.042964 1_565
Sc4_6 Te7_2 3.042964 1_655
Sc4_7 Te4_6 2.870853 1_556
Sc4_7 Te5_3 2.880908 1_655
Sc4_7 Te5_5 2.880909 1_565
Sc4_7 Te0_7 2.970612 1_555
Sc4_7 Te7_5 3.042964 1_565
Sc4_7 Te7_3 3.042964 1_655
