# generated using pymatgen
data_Na4LiSb2Au
_symmetry_space_group_name_H-M   'P 1'
_cell_length_a   6.10032315
_cell_length_b   6.10032241
_cell_length_c   5.61997551
_cell_angle_alpha   88.16708373
_cell_angle_beta   88.16707770
_cell_angle_gamma   97.79152992
_symmetry_Int_Tables_number   1
_chemical_formula_structural   Na4LiSb2Au
_chemical_formula_sum   'Na4 Li1 Sb2 Au1'
_cell_volume   206.96522833
_cell_formula_units_Z   1
loop_
 _symmetry_equiv_pos_site_id
 _symmetry_equiv_pos_as_xyz
  1  'x, y, z'
loop_
 _atom_site_type_symbol
 _atom_site_label
 _atom_site_symmetry_multiplicity
 _atom_site_fract_x
 _atom_site_fract_y
 _atom_site_fract_z
 _atom_site_occupancy
  Na  Na0  1  0.03185507  0.67947000  0.23421299  1
  Na  Na1  1  0.96814493  0.32053000  0.76578701  1
  Na  Na2  1  0.67947000  0.03185507  0.23421299  1
  Na  Na3  1  0.32053000  0.96814493  0.76578701  1
  Li  Li0  1  0.50000000  0.50000000  0.50000000  1
  Sb  Sb0  1  0.78548958  0.78548958  0.73741700  1
  Sb  Sb1  1  0.21451042  0.21451042  0.26258300  1
  Au  Au0  1  0.50000000  0.50000000  0.00000000  1
loop_
_geom_bond_atom_site_label_1
_geom_bond_atom_site_label_2
_geom_bond_distance
_geom_bond_site_symmetry_2
Na0 Sb1 3.186147 1_555
Na0 Na2 3.239605 1_465
Na0 Sb0 3.283785 1_455
Na0 Sb0 3.299795 1_454
Na0 Sb1 3.313416 1_565
Na0 Na3 3.420326 1_554
Na0 Na1 3.475536 1_454
Na0 Na1 3.625866 1_455
Na0 Na3 3.867726 1_555
Na1 Sb0 3.186147 1_555
Na1 Na3 3.239605 1_645
Na1 Sb1 3.283785 1_655
Na1 Sb1 3.299795 1_656
Na1 Sb0 3.313416 1_545
Na1 Na2 3.420326 1_556
Na1 Na2 3.867726 1_555
Na2 Sb1 3.186148 1_555
Na2 Sb0 3.283785 1_545
Na2 Sb0 3.299795 1_544
Na2 Sb1 3.313416 1_655
Na2 Na3 3.475536 1_544
Na2 Na3 3.625866 1_545
Na3 Sb0 3.186148 1_555
Na3 Sb1 3.283785 1_565
Na3 Sb1 3.299795 1_566
Na3 Sb0 3.313416 1_455
Li0 Sb0 2.705809 1_555
Li0 Sb1 2.705809 1_555
Li0 Na2 3.546656 1_565
Li0 Na3 3.546656 1_545
Li0 Na0 3.546657 1_655
Li0 Na1 3.546657 1_455
Li0 Na3 3.549880 1_555
Li0 Na2 3.549880 1_555
Li0 Na1 3.549880 1_555
Li0 Na0 3.549880 1_555
Au0 Sb0 2.663214 1_554
Au0 Sb1 2.663214 1_555
Au0 Li0 2.809988 1_554
Au0 Li0 2.809988 1_555
Au0 Na2 3.433144 1_555
Au0 Na3 3.433144 1_554
Au0 Na1 3.433144 1_554
Au0 Na0 3.433144 1_555
Au0 Na2 3.586107 1_565
Au0 Na3 3.586107 1_544
Au0 Na0 3.586108 1_655
Au0 Na1 3.586108 1_454
