# generated using pymatgen
data_Ti8Al5Ga10Ir7
_symmetry_space_group_name_H-M   'P 1'
_cell_length_a   8.60052196
_cell_length_b   8.62204995
_cell_length_c   8.62205054
_cell_angle_alpha   120.36823300
_cell_angle_beta   119.78345925
_cell_angle_gamma   89.94034143
_symmetry_Int_Tables_number   1
_chemical_formula_structural   Ti8Al5Ga10Ir7
_chemical_formula_sum   'Ti8 Al5 Ga10 Ir7'
_cell_volume   451.28236969
_cell_formula_units_Z   1
loop_
 _symmetry_equiv_pos_site_id
 _symmetry_equiv_pos_as_xyz
  1  'x, y, z'
loop_
 _atom_site_type_symbol
 _atom_site_label
 _atom_site_symmetry_multiplicity
 _atom_site_fract_x
 _atom_site_fract_y
 _atom_site_fract_z
 _atom_site_occupancy
  Ti  Ti0  1  0.79451274  0.29191202  0.07816623  1
  Ti  Ti1  1  0.21575456  0.28865971  0.49301208  1
  Ti  Ti2  1  0.20454340  0.70526837  0.49927503  1
  Ti  Ti3  1  0.21575456  0.72274449  0.92709486  1
  Ti  Ti4  1  0.79451274  0.71634751  0.50259972  1
  Ti  Ti5  1  0.77951592  0.28285300  0.49666292  1
  Ti  Ti6  1  0.37758012  0.12480512  0.74679789  1
  Ti  Ti7  1  0.37758012  0.63078223  0.25277500  1
  Al  Al0  1  0.86534396  0.12218902  0.74315494  1
  Al  Al1  1  0.62360438  0.87580901  0.25592666  1
  Al  Al2  1  0.62360438  0.36767872  0.74779637  1
  Al  Al3  1  0.62272785  0.87692554  0.74580230  1
  Al  Al4  1  0.13122355  0.87553922  0.25568633  1
  Ga  Ga0  1  0.99695599  0.49468170  0.50227428  1
  Ga  Ga1  1  0.15120630  0.34864293  0.19453628  1
  Ga  Ga2  1  0.15120630  0.95667002  0.80256537  1
  Ga  Ga3  1  0.14757344  0.35210447  0.79546897  1
  Ga  Ga4  1  0.55225874  0.35146365  0.20079609  1
  Ga  Ga5  1  0.84909070  0.64878946  0.79978412  1
  Ga  Ga6  1  0.84909070  0.04930757  0.20030024  1
  Ga  Ga7  1  0.84715243  0.65116060  0.19599083  1
  Ga  Ga8  1  0.45502010  0.65102713  0.80399297  1
  Ga  Ga9  1  0.37990370  0.12088745  0.25901825  1
  Ir  Ir0  1  0.00023679  0.00099841  0.50134584  1
  Ir  Ir1  1  0.49895974  0.00050725  0.99923049  1
  Ir  Ir2  1  0.49790616  0.49828577  0.99962139  1
  Ir  Ir3  1  0.49895974  0.49972825  0.49845250  1
  Ir  Ir4  1  0.00023679  0.49888995  0.99923837  1
  Ir  Ir5  1  0.99904198  0.99919846  0.99984352  1
  Ir  Ir6  1  0.49893513  0.99614199  0.50279313  1
loop_
_geom_bond_atom_site_label_1
_geom_bond_atom_site_label_2
_geom_bond_distance
_geom_bond_site_symmetry_2
Ti0 Ti6 2.961029 1_554
Ti1 Ti6 2.969359 1_555
Ti2 Ti6 2.984020 1_565
Ti2 Ti7 2.984020 1_555
Ti3 Ti7 2.969372 1_556
Ti4 Ti7 2.961028 1_555
Al0 Ir6 2.578480 1_545
Al0 Ir4 2.642384 1_655
Al0 Ir0 2.642391 1_655
Al0 Ir5 2.680887 1_545
Al0 Ga2 2.797195 1_645
Al0 Ga1 2.797196 1_656
Al0 Ga3 2.836068 1_655
Al0 Ti4 2.885863 1_545
Al0 Ti0 2.885871 1_556
Al0 Ti5 2.897700 1_555
Al0 Al1 2.965150 1_545
Al0 Al2 2.965156 1_555
Al0 Al3 2.988592 1_545
Al1 Ir6 2.605503 1_555
Al1 Ir2 2.647315 1_554
Al1 Ir0 2.650244 1_665
Al1 Ir1 2.692615 1_564
Al1 Ga7 2.771728 1_555
Al1 Ga8 2.792702 1_554
Al1 Ga6 2.807875 1_565
Al1 Ti5 2.881420 1_565
Al1 Ti4 2.901896 1_555
Al1 Ti3 2.903551 1_554
Al1 Ti7 2.972421 1_555
Al1 Ga9 2.974586 1_565
Al2 Ir6 2.605510 1_545
Al2 Ir2 2.647315 1_555
Al2 Ir4 2.650244 1_655
Al2 Ir3 2.692607 1_555
Al2 Ga7 2.771715 1_556
Al2 Ga8 2.792695 1_555
Al2 Ga5 2.807862 1_555
Al2 Ti5 2.881426 1_555
Al2 Ti0 2.901908 1_556
Al2 Ti1 2.903549 1_555
Al2 Ti6 2.972421 1_555
Al2 Ga9 2.974580 1_555
Al3 Ir6 2.557207 1_555
Al3 Ir1 2.645221 1_565
Al3 Ir3 2.645228 1_555
Al3 Ir5 2.648332 1_555
Al3 Ga8 2.799746 1_555
Al3 Ga6 2.809515 1_566
Al3 Ga5 2.809523 1_555
Al3 Ti0 2.938490 1_566
Al3 Ti4 2.938495 1_555
Al3 Ti2 2.979865 1_555
Al3 Ti6 3.000536 1_565
Al3 Ti7 3.000536 1_555
Al4 Ir6 2.587481 1_555
Al4 Ir0 2.641377 1_565
Al4 Ir4 2.641398 1_554
Al4 Ir5 2.679428 1_454
Al4 Ga7 2.780365 1_455
Al4 Ga6 2.815193 1_465
Al4 Ga5 2.815199 1_454
Al4 Ti1 2.925923 1_565
Al4 Ti3 2.925938 1_554
Al4 Ti2 2.960378 1_555
Al4 Ti6 2.988848 1_565
Al4 Ti7 2.988860 1_555
Al4 Ga9 2.989494 1_565
Ga0 Ti2 2.566125 1_655
Ga0 Ti5 2.581321 1_555
Ga0 Ti0 2.583932 1_555
Ga0 Ti4 2.583938 1_555
Ga0 Ti1 2.588771 1_655
Ga0 Ti3 2.588772 1_655
Ga0 Ga3 3.076578 1_655
Ga0 Ga6 3.123092 1_555
Ga0 Ga5 3.123100 1_555
Ga1 Ir4 2.495897 1_554
Ga1 Ir3 2.505884 1_555
Ga1 Ir5 2.514001 1_444
Ga1 Ti0 2.665727 1_455
Ga1 Ti1 2.669132 1_555
Ga1 Ti2 2.684290 1_555
Ga1 Ti7 2.786375 1_555
Ga1 Ga9 2.836112 1_555
Ga2 Ir0 2.495919 1_565
Ga2 Ir1 2.505884 1_565
Ga2 Ir5 2.513986 1_455
Ga2 Ti4 2.665725 1_455
Ga2 Ti3 2.669104 1_555
Ga2 Ti2 2.684301 1_555
Ga2 Ti6 2.786389 1_565
Ga2 Ga9 2.836108 1_566
Ga3 Ir4 2.500864 1_555
Ga3 Ir0 2.500866 1_555
Ga3 Ir2 2.502243 1_555
Ga3 Ti5 2.713104 1_455
Ga3 Ti1 2.742232 1_555
Ga3 Ti3 2.742248 1_555
Ga3 Ti6 2.813382 1_555
Ga3 Ti7 2.813382 1_556
Ga4 Ir2 2.498616 1_554
Ga4 Ir3 2.506202 1_555
Ga4 Ir1 2.506210 1_554
Ga4 Ti5 2.692168 1_555
Ga4 Ti0 2.712920 1_555
Ga4 Ti4 2.712921 1_555
Ga4 Ti7 2.797817 1_555
Ga4 Ti6 2.797824 1_554
Ga4 Ga9 2.855889 1_555
Ga5 Ir5 2.509045 1_555
Ga5 Ir3 2.515812 1_555
Ga5 Ir4 2.518050 1_655
Ga5 Ti5 2.693707 1_555
Ga5 Ti3 2.722809 1_655
Ga5 Ti4 2.727431 1_555
Ga6 Ir5 2.509037 1_544
Ga6 Ir1 2.515810 1_554
Ga6 Ir0 2.518056 1_655
Ga6 Ti5 2.693711 1_555
Ga6 Ti1 2.722806 1_655
Ga6 Ti0 2.727403 1_555
Ga7 Ir4 2.509632 1_654
Ga7 Ir0 2.509637 1_665
Ga7 Ir2 2.515097 1_554
Ga7 Ti4 2.682461 1_555
Ga7 Ti0 2.682466 1_555
Ga7 Ti2 2.699627 1_655
Ga8 Ir1 2.509536 1_565
Ga8 Ir3 2.509536 1_555
Ga8 Ir2 2.518398 1_555
Ga8 Ti1 2.692035 1_555
Ga8 Ti3 2.692036 1_555
Ga8 Ti2 2.716551 1_555
Ga9 Ir6 2.601625 1_545
Ga9 Ir3 2.658649 1_555
Ga9 Ir1 2.658670 1_554
Ga9 Ir5 2.681181 1_444
Ga9 Ti1 2.833797 1_555
Ga9 Ti3 2.833799 1_544
Ga9 Ti5 2.842793 1_555
Ir0 Ti6 2.655261 1_555
Ir0 Ti4 3.034633 1_445
Ir0 Ti5 3.086161 1_455
Ir0 Ti2 3.092758 1_545
Ir0 Ti1 3.148728 1_555
Ir1 Ti6 2.659766 1_555
Ir1 Ti3 3.009335 1_545
Ir1 Ti5 3.052455 1_556
Ir1 Ti2 3.090004 1_545
Ir2 Ti7 2.619263 1_556
Ir2 Ti6 2.619270 1_555
Ir2 Ti4 3.102395 1_556
Ir2 Ti0 3.102407 1_556
Ir2 Ti1 3.119510 1_555
Ir2 Ti3 3.119517 1_555
Ir3 Ti7 2.659773 1_555
Ir3 Ti1 3.009342 1_555
Ir3 Ti5 3.052449 1_555
Ir3 Ti2 3.090009 1_555
Ir4 Ti7 2.655262 1_556
Ir4 Ti0 3.034640 1_456
Ir4 Ti5 3.086162 1_455
Ir4 Ti2 3.092757 1_556
Ir4 Ti3 3.148747 1_555
Ir5 Ti3 3.031394 1_655
Ir5 Ti1 3.031405 1_666
Ir5 Ti0 3.060629 1_566
Ir5 Ti4 3.060634 1_555
Ir6 Ti7 2.562274 1_555
Ir6 Ti6 2.562275 1_565
