# generated using pymatgen
data_Sm(GaPd)2
_symmetry_space_group_name_H-M   'P 1'
_cell_length_a   4.20820535
_cell_length_b   4.20820556
_cell_length_c   6.05060469
_cell_angle_alpha   110.34979474
_cell_angle_beta   110.34979147
_cell_angle_gamma   90.00000965
_symmetry_Int_Tables_number   1
_chemical_formula_structural   Sm(GaPd)2
_chemical_formula_sum   'Sm1 Ga2 Pd2'
_cell_volume   93.29686911
_cell_formula_units_Z   1
loop_
 _symmetry_equiv_pos_site_id
 _symmetry_equiv_pos_as_xyz
  1  'x, y, z'
loop_
 _atom_site_type_symbol
 _atom_site_label
 _atom_site_symmetry_multiplicity
 _atom_site_fract_x
 _atom_site_fract_y
 _atom_site_fract_z
 _atom_site_occupancy
  Sm  Sm0  1  -0.00000000  0.00000000  0.00000000  1
  Ga  Ga0  1  0.62044465  0.62044465  0.24088930  1
  Ga  Ga1  1  0.37955535  0.37955535  0.75911070  1
  Pd  Pd0  1  0.25000000  0.75000000  0.50000000  1
  Pd  Pd1  1  0.75000000  0.25000000  0.50000000  1
loop_
_geom_bond_atom_site_label_1
_geom_bond_atom_site_label_2
_geom_bond_distance
_geom_bond_site_symmetry_2
Ga0 Pd0 2.508126 1_555
Ga0 Pd1 2.508126 1_555
Ga0 Pd0 2.508126 1_655
Ga0 Pd1 2.508126 1_565
Ga0 Ga1 2.538170 1_554
Ga0 Sm0 3.234976 1_665
Ga0 Sm0 3.234977 1_555
Ga0 Sm0 3.234977 1_655
Ga0 Sm0 3.234977 1_565
Ga1 Pd1 2.508126 1_555
Ga1 Pd0 2.508126 1_555
Ga1 Pd1 2.508126 1_455
Ga1 Pd0 2.508126 1_545
Ga1 Sm0 3.234976 1_556
Ga1 Sm0 3.234977 1_666
Ga1 Sm0 3.234977 1_566
Ga1 Sm0 3.234977 1_656
Pd0 Pd1 2.975650 1_565
Pd0 Pd1 2.975650 1_455
Pd0 Pd1 2.975651 1_465
Pd0 Pd1 2.975651 1_555
Pd0 Sm0 3.371361 1_566
Pd0 Sm0 3.371362 1_565
Pd0 Sm0 3.371362 1_555
Pd0 Sm0 3.371362 1_666
Pd1 Sm0 3.371361 1_655
Pd1 Sm0 3.371362 1_656
Pd1 Sm0 3.371362 1_666
Pd1 Sm0 3.371362 1_555
