# generated using pymatgen
data_LiZr6Zn22P
_symmetry_space_group_name_H-M   'P 1'
_cell_length_a   8.65651813
_cell_length_b   8.65651737
_cell_length_c   8.65651873
_cell_angle_alpha   60.00000221
_cell_angle_beta   60.00000511
_cell_angle_gamma   59.99999837
_symmetry_Int_Tables_number   1
_chemical_formula_structural   LiZr6Zn22P
_chemical_formula_sum   'Li1 Zr6 Zn22 P1'
_cell_volume   458.68521497
_cell_formula_units_Z   1
loop_
 _symmetry_equiv_pos_site_id
 _symmetry_equiv_pos_as_xyz
  1  'x, y, z'
loop_
 _atom_site_type_symbol
 _atom_site_label
 _atom_site_symmetry_multiplicity
 _atom_site_fract_x
 _atom_site_fract_y
 _atom_site_fract_z
 _atom_site_occupancy
  Li  Li0  1  0.00000000  0.00000000  0.00000000  1
  Zr  Zr0  1  0.70717952  0.29282048  0.29282048  1
  Zr  Zr1  1  0.29282048  0.70717952  0.70717952  1
  Zr  Zr2  1  0.29282048  0.70717952  0.29282048  1
  Zr  Zr3  1  0.70717952  0.29282048  0.70717952  1
  Zr  Zr4  1  0.29282048  0.29282048  0.70717952  1
  Zr  Zr5  1  0.70717952  0.70717952  0.29282048  1
  Zn  Zn0  1  0.12061622  0.12061622  0.12061622  1
  Zn  Zn1  1  0.87938378  0.87938378  0.87938378  1
  Zn  Zn2  1  0.12061622  0.12061622  0.63815235  1
  Zn  Zn3  1  0.12061622  0.63815235  0.12061622  1
  Zn  Zn4  1  0.87938378  0.87938378  0.36184765  1
  Zn  Zn5  1  0.87938378  0.36184765  0.87938378  1
  Zn  Zn6  1  0.63815235  0.12061622  0.12061622  1
  Zn  Zn7  1  0.36184765  0.87938378  0.87938378  1
  Zn  Zn8  1  0.50000000  0.00000000  0.00000000  1
  Zn  Zn9  1  0.00000000  0.50000000  0.50000000  1
  Zn  Zn10  1  0.00000000  0.50000000  0.00000000  1
  Zn  Zn11  1  0.50000000  0.00000000  0.50000000  1
  Zn  Zn12  1  0.00000000  0.00000000  0.50000000  1
  Zn  Zn13  1  0.50000000  0.50000000  0.00000000  1
  Zn  Zn14  1  0.33099049  0.33099049  0.33099049  1
  Zn  Zn15  1  0.66900951  0.66900951  0.66900951  1
  Zn  Zn16  1  0.33099049  0.33099049  0.00703054  1
  Zn  Zn17  1  0.33099049  0.00703054  0.33099049  1
  Zn  Zn18  1  0.66900951  0.66900951  0.99296946  1
  Zn  Zn19  1  0.66900951  0.99296946  0.66900951  1
  Zn  Zn20  1  0.00703054  0.33099049  0.33099049  1
  Zn  Zn21  1  0.99296946  0.66900951  0.66900951  1
  P  P0  1  0.50000000  0.50000000  0.50000000  1
loop_
_geom_bond_atom_site_label_1
_geom_bond_atom_site_label_2
_geom_bond_distance
_geom_bond_site_symmetry_2
Li0 Zn5 2.557545 1_454
Li0 Zn3 2.557545 1_545
Li0 Zn7 2.557546 1_544
Li0 Zn6 2.557546 1_455
Li0 Zn4 2.557546 1_445
Li0 Zn2 2.557546 1_554
Li0 Zn0 2.557553 1_555
Li0 Zn1 2.557553 1_444
Zn0 Zn10 2.682923 1_555
Zn0 Zn8 2.682923 1_555
Zn0 Zn12 2.682923 1_555
Zn0 Zn16 2.708296 1_555
Zn0 Zn20 2.708296 1_555
Zn0 Zn17 2.708297 1_555
Zn0 Zn7 2.953207 1_544
Zn0 Zn5 2.953207 1_454
Zn0 Zn4 2.953207 1_445
Zn0 Zr2 2.967326 1_545
Zn0 Zr0 2.967327 1_455
Zn0 Zr4 2.967327 1_554
Zn1 Zn10 2.682923 1_656
Zn1 Zn8 2.682923 1_566
Zn1 Zn12 2.682923 1_665
Zn1 Zn18 2.708296 1_555
Zn1 Zn21 2.708296 1_555
Zn1 Zn19 2.708297 1_555
Zn1 Zn6 2.953207 1_566
Zn1 Zn3 2.953207 1_656
Zn1 Zn2 2.953207 1_665
Zn1 Zr3 2.967326 1_565
Zn1 Zr1 2.967327 1_655
Zn1 Zr5 2.967327 1_556
Zn2 Zn9 2.682923 1_555
Zn2 Zn20 2.708289 1_555
Zn2 Zn7 2.953195 1_545
Zn2 Zn5 2.953195 1_455
Zn2 Zr4 2.967320 1_555
Zn2 Zr1 2.967327 1_545
Zn2 Zr3 2.967328 1_455
Zn3 Zn9 2.682924 1_555
Zn3 Zn4 2.953195 1_455
Zn3 Zn7 2.953195 1_554
Zn3 Zr2 2.967320 1_555
Zn3 Zr5 2.967328 1_455
Zn3 Zr1 2.967328 1_554
Zn4 Zn9 2.682923 1_655
Zn4 Zn6 2.953195 1_565
Zn4 Zr5 2.967320 1_555
Zn4 Zr0 2.967327 1_565
Zn4 Zr2 2.967328 1_655
Zn5 Zn9 2.682924 1_655
Zn5 Zn6 2.953195 1_556
Zn5 Zr3 2.967320 1_555
Zn5 Zr4 2.967328 1_655
Zn5 Zr0 2.967328 1_556
Zn6 Zn8 2.682930 1_555
Zn6 Zr0 2.967320 1_555
Zn6 Zr5 2.967328 1_545
Zn6 Zr3 2.967328 1_554
Zn7 Zn8 2.682930 1_566
Zn7 Zr1 2.967320 1_555
Zn7 Zr4 2.967328 1_565
Zn7 Zr2 2.967328 1_556
Zn8 Zr5 3.105111 1_545
Zn8 Zr4 3.105111 1_554
Zn8 Zr3 3.105111 1_554
Zn8 Zr2 3.105111 1_545
Zn9 Zr4 3.105111 1_555
Zn9 Zr5 3.105111 1_455
Zn9 Zr2 3.105111 1_555
Zn9 Zr3 3.105111 1_455
Zn10 Zn16 2.499421 1_555
Zn10 Zn18 2.499421 1_454
Zn10 Zn20 2.499421 1_555
Zn10 Zn21 2.499421 1_454
Zn10 Zn3 2.682930 1_555
Zn10 Zn5 2.682930 1_454
Zn10 Zr5 3.105111 1_455
Zn10 Zr4 3.105111 1_554
Zn10 Zr1 3.105111 1_554
Zn10 Zr0 3.105111 1_455
Zn11 Zn19 2.499406 1_545
Zn11 Zn17 2.499406 1_555
Zn11 Zn15 2.499415 1_545
Zn11 Zn14 2.499415 1_555
Zn11 Zn2 2.682923 1_555
Zn11 Zn4 2.682923 1_545
Zn11 Zn6 2.682924 1_555
Zn11 Zn7 2.682924 1_545
Zn11 Zr4 3.105111 1_555
Zn11 Zr5 3.105111 1_545
Zn11 Zr0 3.105111 1_555
Zn11 Zr1 3.105111 1_545
Zn12 Zn20 2.499420 1_555
Zn12 Zn21 2.499420 1_445
Zn12 Zn17 2.499421 1_555
Zn12 Zn19 2.499421 1_445
Zn12 Zn2 2.682930 1_555
Zn12 Zn4 2.682930 1_445
Zn12 Zr1 3.105111 1_545
Zn12 Zr0 3.105111 1_455
Zn12 Zr3 3.105111 1_455
Zn12 Zr2 3.105111 1_545
Zn13 Zn18 2.499405 1_554
Zn13 Zn16 2.499405 1_555
Zn13 Zn15 2.499416 1_554
Zn13 Zn14 2.499416 1_555
Zn13 Zn7 2.682923 1_554
Zn13 Zn6 2.682923 1_555
Zn13 Zn5 2.682923 1_554
Zn13 Zn3 2.682923 1_555
Zn13 Zr2 3.105111 1_555
Zn13 Zr3 3.105111 1_554
Zn13 Zr0 3.105111 1_555
Zn13 Zr1 3.105111 1_554
Zn14 Zn9 2.499415 1_555
Zn14 Zn3 2.708294 1_555
Zn14 Zn6 2.708294 1_555
Zn14 Zn2 2.708294 1_555
Zn14 Zn17 2.804365 1_555
Zn14 Zn20 2.804365 1_555
Zn14 Zn16 2.804365 1_555
Zn14 Zr2 2.963144 1_555
Zn14 Zr0 2.963145 1_555
Zn14 Zr4 2.963145 1_555
Zn15 Zn9 2.499415 1_655
Zn15 Zn5 2.708294 1_555
Zn15 Zn7 2.708294 1_555
Zn15 Zn4 2.708294 1_555
Zn15 Zn19 2.804365 1_555
Zn15 Zn21 2.804365 1_555
Zn15 Zn18 2.804365 1_555
Zn15 Zr3 2.963144 1_555
Zn15 Zr1 2.963145 1_555
Zn15 Zr5 2.963145 1_555
Zn16 Zn8 2.499420 1_555
Zn16 Zn3 2.708289 1_555
Zn16 Zn6 2.708289 1_555
Zn16 Zn17 2.804365 1_555
Zn16 Zn20 2.804365 1_555
Zn16 Zr1 2.963151 1_554
Zn16 Zr3 2.963152 1_554
Zn16 Zr4 2.963162 1_554
Zn17 Zn8 2.499421 1_555
Zn17 Zn6 2.708289 1_555
Zn17 Zn2 2.708290 1_555
Zn17 Zn20 2.804365 1_555
Zn17 Zr5 2.963151 1_545
Zn17 Zr1 2.963152 1_545
Zn17 Zr2 2.963162 1_545
Zn18 Zn8 2.499420 1_566
Zn18 Zn5 2.708289 1_555
Zn18 Zn7 2.708289 1_555
Zn18 Zn19 2.804365 1_555
Zn18 Zn21 2.804365 1_555
Zn18 Zr0 2.963151 1_556
Zn18 Zr2 2.963152 1_556
Zn18 Zr5 2.963162 1_556
Zn19 Zn8 2.499421 1_566
Zn19 Zn7 2.708289 1_555
Zn19 Zn4 2.708290 1_555
Zn19 Zn21 2.804365 1_555
Zn19 Zr4 2.963151 1_565
Zn19 Zr0 2.963152 1_565
Zn19 Zr3 2.963162 1_565
Zn20 Zn9 2.499406 1_555
Zn20 Zn3 2.708289 1_555
Zn20 Zr5 2.963151 1_455
Zn20 Zr3 2.963152 1_455
Zn20 Zr0 2.963162 1_455
Zn21 Zn9 2.499406 1_655
Zn21 Zn5 2.708289 1_555
Zn21 Zn4 2.708289 1_555
Zn21 Zr4 2.963151 1_655
Zn21 Zr2 2.963152 1_655
Zn21 Zr1 2.963162 1_655
P0 Zr1 2.536326 1_555
P0 Zr3 2.536326 1_555
P0 Zr0 2.536326 1_555
P0 Zr2 2.536326 1_555
P0 Zr5 2.536326 1_555
P0 Zr4 2.536326 1_555
