# generated using pymatgen
data_Rb4ScMoCl12
_symmetry_space_group_name_H-M   'P 1'
_cell_length_a   7.13858027
_cell_length_b   7.13858027
_cell_length_c   10.26864265
_cell_angle_alpha   90.00000000
_cell_angle_beta   90.00000000
_cell_angle_gamma   92.57836235
_symmetry_Int_Tables_number   1
_chemical_formula_structural   Rb4ScMoCl12
_chemical_formula_sum   'Rb4 Sc1 Mo1 Cl12'
_cell_volume   522.75337460
_cell_formula_units_Z   1
loop_
 _symmetry_equiv_pos_site_id
 _symmetry_equiv_pos_as_xyz
  1  'x, y, z'
loop_
 _atom_site_type_symbol
 _atom_site_label
 _atom_site_symmetry_multiplicity
 _atom_site_fract_x
 _atom_site_fract_y
 _atom_site_fract_z
 _atom_site_occupancy
  Rb  Rb0  1  0.50000000  0.00000000  0.78112078  1
  Rb  Rb1  1  0.00000000  0.50000000  0.21887922  1
  Rb  Rb2  1  0.50000000  0.00000000  0.21887922  1
  Rb  Rb3  1  0.00000000  0.50000000  0.78112078  1
  Sc  Sc0  1  0.00000000  0.00000000  0.00000000  1
  Mo  Mo0  1  0.50000000  0.50000000  0.50000000  1
  Cl  Cl0  1  0.00000000  0.00000000  0.75545129  1
  Cl  Cl1  1  0.50000000  0.50000000  0.27080689  1
  Cl  Cl2  1  0.73420917  0.73420917  0.50000000  1
  Cl  Cl3  1  0.25157966  0.25157966  0.00000000  1
  Cl  Cl4  1  0.72828261  0.27171739  0.50000000  1
  Cl  Cl5  1  0.24110250  0.75889750  0.00000000  1
  Cl  Cl6  1  0.00000000  0.00000000  0.24454871  1
  Cl  Cl7  1  0.50000000  0.50000000  0.72919311  1
  Cl  Cl8  1  0.26579083  0.26579083  0.50000000  1
  Cl  Cl9  1  0.74842034  0.74842034  0.00000000  1
  Cl  Cl10  1  0.27171739  0.72828261  0.50000000  1
  Cl  Cl11  1  0.75889750  0.24110250  0.00000000  1
loop_
_geom_bond_atom_site_label_1
_geom_bond_atom_site_label_2
_geom_bond_distance
_geom_bond_site_symmetry_2
Cl0 Sc0 2.511183 1_556
Cl0 Rb3 3.579010 1_545
Cl0 Rb3 3.579010 1_555
Cl0 Rb0 3.579010 1_455
Cl0 Rb0 3.579010 1_555
Cl1 Mo0 2.353502 1_555
Cl1 Rb2 3.608900 1_565
Cl1 Rb2 3.608900 1_555
Cl1 Rb1 3.608900 1_555
Cl1 Rb1 3.608900 1_655
Cl2 Mo0 2.310658 1_555
Cl2 Rb0 3.874783 1_565
Cl2 Rb3 3.874783 1_655
Cl2 Rb2 3.874783 1_565
Cl2 Rb1 3.874783 1_655
Cl3 Sc0 2.482032 1_555
Cl3 Rb1 3.421752 1_555
Cl3 Rb2 3.421752 1_555
Cl3 Rb0 3.421752 1_554
Cl3 Rb3 3.421752 1_554
Cl4 Mo0 2.355889 1_555
Cl4 Rb0 3.803524 1_555
Cl4 Rb3 3.803524 1_655
Cl4 Rb2 3.803524 1_555
Cl4 Rb1 3.803524 1_655
Cl5 Sc0 2.488191 1_565
Cl5 Rb1 3.338183 1_555
Cl5 Rb3 3.338183 1_554
Cl5 Rb2 3.338183 1_565
Cl5 Rb0 3.338183 1_564
Cl6 Sc0 2.511183 1_555
Cl6 Rb1 3.579010 1_555
Cl6 Rb1 3.579010 1_545
Cl6 Rb2 3.579010 1_455
Cl6 Rb2 3.579010 1_555
Cl7 Mo0 2.353502 1_555
Cl7 Rb0 3.608900 1_565
Cl7 Rb0 3.608900 1_555
Cl7 Rb3 3.608900 1_655
Cl7 Rb3 3.608900 1_555
Cl8 Mo0 2.310658 1_555
Cl8 Rb3 3.874783 1_555
Cl8 Rb0 3.874783 1_555
Cl8 Rb1 3.874783 1_555
Cl8 Rb2 3.874783 1_555
Cl9 Sc0 2.482032 1_665
Cl9 Rb2 3.421752 1_565
Cl9 Rb1 3.421752 1_655
Cl9 Rb3 3.421752 1_654
Cl9 Rb0 3.421752 1_564
Cl10 Mo0 2.355889 1_555
Cl10 Rb3 3.803524 1_555
Cl10 Rb0 3.803524 1_565
Cl10 Rb1 3.803524 1_555
Cl10 Rb2 3.803524 1_565
Cl11 Sc0 2.488191 1_655
Cl11 Rb2 3.338183 1_555
Cl11 Rb0 3.338183 1_554
Cl11 Rb1 3.338183 1_655
Cl11 Rb3 3.338183 1_654
