# generated using pymatgen
data_SrCd2(H6Ir)2
_symmetry_space_group_name_H-M   'P 1'
_cell_length_a   4.86711236
_cell_length_b   4.86711386
_cell_length_c   8.03817156
_cell_angle_alpha   90.00000000
_cell_angle_beta   90.00000000
_cell_angle_gamma   119.99998984
_symmetry_Int_Tables_number   1
_chemical_formula_structural   SrCd2(H6Ir)2
_chemical_formula_sum   'Sr1 Cd2 H12 Ir2'
_cell_volume   164.90386159
_cell_formula_units_Z   1
loop_
 _symmetry_equiv_pos_site_id
 _symmetry_equiv_pos_as_xyz
  1  'x, y, z'
loop_
 _atom_site_type_symbol
 _atom_site_label
 _atom_site_symmetry_multiplicity
 _atom_site_fract_x
 _atom_site_fract_y
 _atom_site_fract_z
 _atom_site_occupancy
  Sr  Sr0  1  0.00000000  0.00000000  0.00000000  1
  Cd  Cd0  1  0.66666700  0.33333300  0.36693798  1
  Cd  Cd1  1  0.33333300  0.66666700  0.63306202  1
  H  H0  1  0.16529644  0.83470356  0.36991235  1
  H  H1  1  0.66940711  0.83470356  0.36991235  1
  H  H2  1  0.16529644  0.33059289  0.36991235  1
  H  H3  1  0.83470356  0.16529644  0.63008765  1
  H  H4  1  0.33059289  0.16529644  0.63008765  1
  H  H5  1  0.83470356  0.66940711  0.63008765  1
  H  H6  1  0.51167484  0.02334769  0.86397621  1
  H  H7  1  0.51167484  0.48832516  0.86397621  1
  H  H8  1  0.97665231  0.48832516  0.86397621  1
  H  H9  1  0.48832516  0.97665231  0.13602379  1
  H  H10  1  0.48832516  0.51167484  0.13602379  1
  H  H11  1  0.02334769  0.51167484  0.13602379  1
  Ir  Ir0  1  0.66666700  0.33333300  0.73547465  1
  Ir  Ir1  1  0.33333300  0.66666700  0.26452535  1
loop_
_geom_bond_atom_site_label_1
_geom_bond_atom_site_label_2
_geom_bond_distance
_geom_bond_site_symmetry_2
Cd0 H11 2.388618 1_655
Cd0 H9 2.388618 1_545
Cd0 H10 2.388626 1_555
Cd0 H2 2.433699 1_655
Cd0 H1 2.433699 1_545
Cd0 H0 2.433702 1_545
Cd0 H0 2.433702 1_655
Cd0 H2 2.433703 1_555
Cd0 H1 2.433704 1_555
Cd0 H3 2.545761 1_555
Cd0 H4 2.545763 1_555
Cd0 H5 2.545764 1_555
Cd1 H8 2.388618 1_455
Cd1 H6 2.388618 1_565
Cd1 H7 2.388626 1_555
Cd1 H5 2.433699 1_455
Cd1 H4 2.433699 1_565
Cd1 H3 2.433702 1_565
Cd1 H3 2.433702 1_455
Cd1 H5 2.433703 1_555
Cd1 H4 2.433704 1_555
Cd1 H0 2.545761 1_555
Cd1 H1 2.545763 1_555
Cd1 H2 2.545764 1_555
H0 Ir1 1.650533 1_555
H0 H9 2.323253 1_555
H0 H11 2.323253 1_555
H1 Ir1 1.650537 1_555
H1 H10 2.323254 1_555
H1 H9 2.323258 1_555
H2 Ir1 1.650537 1_555
H3 Ir0 1.650533 1_555
H3 H6 2.323253 1_555
H3 H8 2.323253 1_555
H4 Ir0 1.650537 1_555
H4 H7 2.323254 1_555
H4 H6 2.323258 1_555
H5 Ir0 1.650537 1_555
H5 H7 2.323254 1_555
H5 H8 2.323258 1_555
H6 Ir0 1.665571 1_555
H6 H9 2.195605 1_546
H6 H7 2.263098 1_555
H6 H8 2.263098 1_555
H6 Sr0 2.669708 1_656
H6 Sr0 2.669717 1_556
H7 Ir0 1.665568 1_555
H7 H8 2.263098 1_555
H7 Sr0 2.669714 1_556
H7 Sr0 2.669714 1_666
H8 Ir0 1.665571 1_555
H8 Sr0 2.669709 1_656
H8 Sr0 2.669718 1_666
H9 Ir1 1.665571 1_555
H9 Sr0 2.669708 1_565
H9 Sr0 2.669717 1_665
H10 Ir1 1.665568 1_555
H10 H7 2.195606 1_554
H10 H11 2.263098 1_555
H10 H9 2.263098 1_555
H10 H2 2.323254 1_555
H10 Sr0 2.669714 1_665
H10 Sr0 2.669714 1_555
H11 Ir1 1.665571 1_555
H11 H8 2.195605 1_454
H11 H9 2.263098 1_555
H11 H2 2.323258 1_555
H11 Sr0 2.669709 1_565
H11 Sr0 2.669718 1_555
