# generated using pymatgen
data_Ni2Mo3AsH
_symmetry_space_group_name_H-M   'P 1'
_cell_length_a   7.75620558
_cell_length_b   7.75620418
_cell_length_c   7.75620572
_cell_angle_alpha   60.00000180
_cell_angle_beta   60.00000775
_cell_angle_gamma   59.99999922
_symmetry_Int_Tables_number   1
_chemical_formula_structural   Ni2Mo3AsH
_chemical_formula_sum   'Ni8 Mo12 As4 H4'
_cell_volume   329.93842350
_cell_formula_units_Z   4
loop_
 _symmetry_equiv_pos_site_id
 _symmetry_equiv_pos_as_xyz
  1  'x, y, z'
loop_
 _atom_site_type_symbol
 _atom_site_label
 _atom_site_symmetry_multiplicity
 _atom_site_fract_x
 _atom_site_fract_y
 _atom_site_fract_z
 _atom_site_occupancy
  Ni  Ni0  1  0.91908902  0.91908902  0.24273194  1
  Ni  Ni1  1  0.33091098  0.33091098  0.33091098  1
  Ni  Ni2  1  0.24273194  0.91908902  0.91908902  1
  Ni  Ni3  1  0.33091098  0.00726806  0.33091098  1
  Ni  Ni4  1  0.00726806  0.33091098  0.33091098  1
  Ni  Ni5  1  0.33091098  0.33091098  0.00726806  1
  Ni  Ni6  1  0.91908902  0.91908902  0.91908902  1
  Ni  Ni7  1  0.91908902  0.24273194  0.91908902  1
  Mo  Mo0  1  0.67955945  0.32044055  0.32044055  1
  Mo  Mo1  1  0.92955945  0.92955945  0.57044055  1
  Mo  Mo2  1  0.67955945  0.67955945  0.32044055  1
  Mo  Mo3  1  0.67955945  0.32044055  0.67955945  1
  Mo  Mo4  1  0.32044055  0.67955945  0.32044055  1
  Mo  Mo5  1  0.57044055  0.92955945  0.57044055  1
  Mo  Mo6  1  0.57044055  0.92955945  0.92955945  1
  Mo  Mo7  1  0.92955945  0.57044055  0.57044055  1
  Mo  Mo8  1  0.92955945  0.57044055  0.92955945  1
  Mo  Mo9  1  0.32044055  0.32044055  0.67955945  1
  Mo  Mo10  1  0.57044055  0.57044055  0.92955945  1
  Mo  Mo11  1  0.32044055  0.67955945  0.67955945  1
  As  As0  1  0.12500000  0.12500000  0.12500000  1
  As  As1  1  0.62500000  0.12500000  0.12500000  1
  As  As2  1  0.12500000  0.12500000  0.62500000  1
  As  As3  1  0.12500000  0.62500000  0.12500000  1
  H  H0  1  0.62500000  0.62500000  0.62500000  1
  H  H1  1  0.62500000  0.62500000  0.12500000  1
  H  H2  1  0.12500000  0.62500000  0.62500000  1
  H  H3  1  0.62500000  0.12500000  0.62500000  1
loop_
_geom_bond_atom_site_label_1
_geom_bond_atom_site_label_2
_geom_bond_distance
_geom_bond_site_symmetry_2
Ni0 Ni7 2.510241 1_564
Ni0 Ni6 2.510241 1_554
Ni0 Ni2 2.510241 1_654
Ni1 Ni3 2.510241 1_555
Ni1 Ni4 2.510241 1_555
Ni1 Ni5 2.510241 1_555
Ni2 Ni7 2.510241 1_465
Ni2 Ni6 2.510241 1_455
Ni3 Ni4 2.510241 1_555
Ni3 Ni5 2.510241 1_555
Ni4 Ni5 2.510241 1_555
Ni6 Ni7 2.510241 1_565
Mo0 Ni1 2.625492 1_555
Mo0 Ni4 2.625499 1_655
Mo0 Ni0 2.911786 1_545
Mo0 Ni7 2.911787 1_554
Mo1 Ni6 2.625492 1_555
Mo1 Ni0 2.625499 1_555
Mo1 Ni4 2.911786 1_665
Mo1 Ni3 2.911787 1_665
Mo2 Ni4 2.625495 1_655
Mo2 Ni3 2.625495 1_565
Mo2 Ni0 2.911779 1_555
Mo2 Ni6 2.911783 1_554
Mo3 Ni5 2.625496 1_556
Mo3 Ni4 2.625496 1_655
Mo3 Ni7 2.911780 1_555
Mo3 Ni6 2.911783 1_545
Mo4 Ni1 2.625491 1_555
Mo4 Ni3 2.625499 1_565
Mo4 Ni0 2.911786 1_455
Mo4 Ni2 2.911786 1_554
Mo5 Ni0 2.625496 1_555
Mo5 Ni2 2.625496 1_555
Mo5 Ni3 2.911780 1_565
Mo5 Ni1 2.911783 1_565
Mo6 Ni6 2.625492 1_555
Mo6 Ni2 2.625499 1_555
Mo6 Ni5 2.911786 1_566
Mo6 Ni3 2.911787 1_566
Mo7 Ni0 2.625495 1_555
Mo7 Ni7 2.625495 1_555
Mo7 Ni4 2.911779 1_655
Mo7 Ni1 2.911783 1_655
Mo8 Ni6 2.625491 1_555
Mo8 Ni7 2.625499 1_555
Mo8 Ni5 2.911786 1_656
Mo8 Ni4 2.911786 1_656
Mo9 Ni1 2.625492 1_555
Mo9 Ni5 2.625499 1_556
Mo9 Ni2 2.911786 1_545
Mo9 Ni7 2.911787 1_455
Mo10 Ni2 2.625495 1_555
Mo10 Ni7 2.625495 1_555
Mo10 Ni5 2.911779 1_556
Mo10 Ni1 2.911783 1_556
Mo11 Ni5 2.625495 1_556
Mo11 Ni3 2.625495 1_565
Mo11 Ni2 2.911779 1_555
Mo11 Ni6 2.911783 1_455
As0 Ni4 2.359904 1_555
As0 Ni2 2.359904 1_544
As0 Ni5 2.359904 1_555
As0 Ni0 2.359904 1_445
As0 Ni3 2.359904 1_555
As0 Ni7 2.359904 1_454
As0 Mo8 2.890620 1_454
As0 Mo4 2.890620 1_545
As0 Mo6 2.890621 1_544
As0 Mo0 2.890621 1_455
As0 Mo1 2.890621 1_445
As0 Mo9 2.890621 1_554
As1 Ni0 2.359897 1_545
As1 Ni5 2.359897 1_555
As1 Ni7 2.359898 1_554
As1 Ni3 2.359898 1_555
As1 Ni1 2.359902 1_555
As1 Ni6 2.359902 1_544
As1 Mo10 2.890620 1_554
As1 Mo2 2.890620 1_545
As1 Mo0 2.890620 1_555
As1 Mo6 2.890620 1_544
As1 Mo5 2.890621 1_545
As1 Mo3 2.890621 1_554
As2 Ni2 2.359897 1_545
As2 Ni4 2.359897 1_555
As2 Ni7 2.359898 1_455
As2 Ni3 2.359898 1_555
As2 Ni1 2.359902 1_555
As2 Ni6 2.359902 1_445
As2 Mo7 2.890620 1_455
As2 Mo11 2.890620 1_545
As2 Mo9 2.890620 1_555
As2 Mo1 2.890620 1_445
As2 Mo5 2.890621 1_545
As2 Mo3 2.890621 1_455
As3 Ni0 2.359897 1_455
As3 Ni5 2.359897 1_555
As3 Ni2 2.359897 1_554
As3 Ni4 2.359897 1_555
As3 Ni1 2.359901 1_555
As3 Ni6 2.359901 1_454
As3 Mo4 2.890620 1_555
As3 Mo8 2.890620 1_454
As3 Mo10 2.890621 1_554
As3 Mo2 2.890621 1_455
As3 Mo7 2.890621 1_455
As3 Mo11 2.890621 1_554
H0 Mo5 2.029303 1_555
H0 Mo3 2.029303 1_555
H0 Mo7 2.029304 1_555
H0 Mo11 2.029304 1_555
H0 Mo10 2.029304 1_555
H0 Mo2 2.029304 1_555
H1 Mo6 2.029303 1_554
H1 Mo0 2.029303 1_555
H1 Mo2 2.029304 1_555
H1 Mo10 2.029304 1_554
H1 Mo8 2.029304 1_554
H1 Mo4 2.029304 1_555
H2 Mo1 2.029303 1_455
H2 Mo9 2.029303 1_555
H2 Mo11 2.029304 1_555
H2 Mo7 2.029304 1_455
H2 Mo8 2.029304 1_455
H2 Mo4 2.029304 1_555
H3 Mo3 2.029303 1_555
H3 Mo5 2.029303 1_545
H3 Mo1 2.029304 1_545
H3 Mo9 2.029304 1_555
H3 Mo6 2.029304 1_545
H3 Mo0 2.029304 1_555
