# generated using pymatgen
data_V9Ga4Tc2Ir
_symmetry_space_group_name_H-M   'P 1'
_cell_length_a   4.72561339
_cell_length_b   4.74470809
_cell_length_c   9.60489264
_cell_angle_alpha   89.82689275
_cell_angle_beta   90.00000000
_cell_angle_gamma   90.00000000
_symmetry_Int_Tables_number   1
_chemical_formula_structural   V9Ga4Tc2Ir
_chemical_formula_sum   'V9 Ga4 Tc2 Ir1'
_cell_volume   215.35661666
_cell_formula_units_Z   1
loop_
 _symmetry_equiv_pos_site_id
 _symmetry_equiv_pos_as_xyz
  1  'x, y, z'
loop_
 _atom_site_type_symbol
 _atom_site_label
 _atom_site_symmetry_multiplicity
 _atom_site_fract_x
 _atom_site_fract_y
 _atom_site_fract_z
 _atom_site_occupancy
  V  V0  1  0.50000000  0.75362313  0.49803233  1
  V  V1  1  0.74642140  0.00003299  0.25093081  1
  V  V2  1  0.75049822  0.99855278  0.75001843  1
  V  V3  1  0.00000000  0.50386803  0.11910873  1
  V  V4  1  0.00000000  0.49737345  0.63135753  1
  V  V5  1  0.50000000  0.25053766  0.00048769  1
  V  V6  1  0.50000000  0.24256842  0.49977212  1
  V  V7  1  0.25357860  0.00003299  0.25093081  1
  V  V8  1  0.24950178  0.99855278  0.75001843  1
  Ga  Ga0  1  0.50000000  0.49705260  0.24722121  1
  Ga  Ga1  1  0.50000000  0.49679368  0.74552042  1
  Ga  Ga2  1  0.00000000  0.00634840  0.00349964  1
  Ga  Ga3  1  0.00000000  0.99897677  0.50481129  1
  Tc  Tc0  1  0.00000000  0.50293693  0.87455932  1
  Tc  Tc1  1  0.50000000  0.75309080  0.99959153  1
  Ir  Ir0  1  0.00000000  0.49965759  0.37413472  1
loop_
_geom_bond_atom_site_label_1
_geom_bond_atom_site_label_2
_geom_bond_distance
_geom_bond_site_symmetry_2
V0 V6 2.320013 1_565
V0 V6 2.424813 1_555
V0 V1 2.887753 1_565
V0 V7 2.887753 1_565
V0 V2 2.937116 1_555
V0 V8 2.937116 1_555
V0 V4 2.948145 1_555
V0 V4 2.948145 1_655
V1 V7 2.328985 1_555
V1 V7 2.396629 1_655
V1 V6 2.899907 1_555
V1 V5 2.921951 1_555
V1 V3 2.932427 1_645
V1 V3 2.955588 1_655
V2 V8 2.358098 1_655
V2 V8 2.367515 1_555
V2 V4 2.876522 1_665
V2 V4 2.891393 1_655
V2 V6 2.915848 1_565
V2 V5 2.938647 1_566
V3 V5 2.886864 1_555
V3 V5 2.886864 1_455
V3 V7 2.932427 1_565
V3 V7 2.955588 1_555
V4 V8 2.876522 1_545
V4 V8 2.891393 1_555
V4 V6 2.941269 1_455
V4 V6 2.941269 1_555
V5 V7 2.921951 1_555
V5 V8 2.938647 1_544
V6 V7 2.899907 1_555
V6 V8 2.915848 1_545
Ga0 V1 2.630204 1_555
Ga0 V7 2.630204 1_555
Ga0 V5 2.645939 1_555
Ga0 V1 2.655783 1_565
Ga0 V7 2.655783 1_565
Ga0 Ir0 2.658766 1_555
Ga0 Ir0 2.658766 1_655
Ga0 V3 2.664171 1_555
Ga0 V3 2.664171 1_655
Ga0 Tc1 2.667471 1_554
Ga0 V0 2.702409 1_555
Ga0 V6 2.706360 1_555
Ga1 V4 2.604843 1_555
Ga1 V4 2.604843 1_655
Ga1 V2 2.644062 1_545
Ga1 V8 2.644062 1_545
Ga1 V6 2.653979 1_555
Ga1 V2 2.659230 1_555
Ga1 V8 2.659230 1_555
Ga1 V0 2.667962 1_555
Ga1 Tc0 2.668342 1_555
Ga1 Tc0 2.668342 1_655
Ga1 V5 2.710198 1_556
Ga1 Tc1 2.729819 1_555
Ga2 V3 2.611746 1_555
Ga2 V3 2.626987 1_545
Ga2 V5 2.631703 1_455
Ga2 V5 2.631703 1_555
Ga2 Tc1 2.651124 1_444
Ga2 Tc1 2.651124 1_544
Ga2 Tc0 2.658509 1_554
Ga2 V7 2.661656 1_555
Ga2 V1 2.661656 1_455
Ga2 Tc0 2.693841 1_544
Ga2 V8 2.705483 1_544
Ga2 V2 2.705483 1_444
Ga3 V6 2.630716 1_565
Ga3 V6 2.630716 1_465
Ga3 V8 2.633827 1_555
Ga3 V2 2.633827 1_455
Ga3 V0 2.634911 1_555
Ga3 V0 2.634911 1_455
Ga3 V4 2.662094 1_565
Ga3 V4 2.669098 1_555
Ga3 Ir0 2.683421 1_565
Ga3 Ir0 2.684414 1_555
Ga3 V7 2.717014 1_565
Ga3 V1 2.717014 1_465
Tc0 V4 2.336156 1_555
Tc0 V3 2.348888 1_556
Tc0 V8 2.886842 1_555
Tc0 V2 2.886842 1_455
Tc0 Tc1 2.905586 1_555
Tc0 Tc1 2.905586 1_455
Tc0 V5 2.910535 1_556
Tc0 V5 2.910535 1_456
Tc0 V8 2.926696 1_545
Tc0 V2 2.926696 1_445
Tc1 V5 2.360282 1_566
Tc1 V5 2.384457 1_556
Tc1 V3 2.879362 1_656
Tc1 V3 2.879362 1_556
Tc1 V2 2.913247 1_555
Tc1 V8 2.913247 1_555
Tc1 V1 2.928098 1_566
Tc1 V7 2.928098 1_566
Ir0 V3 2.449518 1_555
Ir0 V4 2.470588 1_555
Ir0 V7 2.907893 1_565
Ir0 V1 2.907893 1_465
Ir0 V0 2.908553 1_555
Ir0 V0 2.908553 1_455
Ir0 V7 2.910819 1_555
Ir0 V1 2.910819 1_455
Ir0 V6 2.918580 1_555
Ir0 V6 2.918580 1_455
