# generated using pymatgen
data_KCr2(Sb6Rh)2
_symmetry_space_group_name_H-M   'P 1'
_cell_length_a   8.17006574
_cell_length_b   8.22818455
_cell_length_c   8.22818551
_cell_angle_alpha   109.89535136
_cell_angle_beta   109.42713638
_cell_angle_gamma   109.37695478
_symmetry_Int_Tables_number   1
_chemical_formula_structural   KCr2(Sb6Rh)2
_chemical_formula_sum   'K1 Cr2 Sb12 Rh2'
_cell_volume   424.28963131
_cell_formula_units_Z   1
loop_
 _symmetry_equiv_pos_site_id
 _symmetry_equiv_pos_as_xyz
  1  'x, y, z'
loop_
 _atom_site_type_symbol
 _atom_site_label
 _atom_site_symmetry_multiplicity
 _atom_site_fract_x
 _atom_site_fract_y
 _atom_site_fract_z
 _atom_site_occupancy
  K  K0  1  0.00000000  0.00000000  0.00000000  1
  Cr  Cr0  1  0.50000000  0.00000000  0.00000000  1
  Cr  Cr1  1  0.50000000  0.50000000  0.50000000  1
  Sb  Sb0  1  0.33981138  0.18996045  0.84204946  1
  Sb  Sb1  1  0.66018862  0.81003955  0.15795054  1
  Sb  Sb2  1  0.66018862  0.50223808  0.85014907  1
  Sb  Sb3  1  0.33981138  0.49776192  0.14985093  1
  Sb  Sb4  1  0.18728367  0.84588550  0.34139717  1
  Sb  Sb5  1  0.81271633  0.15411450  0.65860283  1
  Sb  Sb6  1  0.50066143  0.84587959  0.65478184  1
  Sb  Sb7  1  0.49933857  0.15412041  0.34521816  1
  Sb  Sb8  1  0.85087546  0.34870838  0.18948845  1
  Sb  Sb9  1  0.14912454  0.65129162  0.81051155  1
  Sb  Sb10  1  0.85087546  0.66138901  0.50216708  1
  Sb  Sb11  1  0.14912454  0.33861099  0.49783292  1
  Rh  Rh0  1  0.00000000  0.00000000  0.50000000  1
  Rh  Rh1  1  0.00000000  0.50000000  0.00000000  1
loop_
_geom_bond_atom_site_label_1
_geom_bond_atom_site_label_2
_geom_bond_distance
_geom_bond_site_symmetry_2
K0 Sb11 3.561795 1_555
K0 Sb10 3.561795 1_444
K0 Sb8 3.561799 1_455
K0 Sb9 3.561799 1_544
K0 Sb5 3.562713 1_454
K0 Sb4 3.562713 1_545
K0 Sb6 3.567462 1_444
K0 Sb7 3.567462 1_555
K0 Sb3 3.569762 1_555
K0 Sb2 3.569762 1_444
K0 Sb0 3.569762 1_554
K0 Sb1 3.569762 1_445
Cr0 Sb7 2.690696 1_555
Cr0 Sb6 2.690696 1_544
Cr0 Sb8 2.721287 1_555
Cr0 Sb9 2.721287 1_544
Cr0 Sb1 2.730104 1_545
Cr0 Sb0 2.730104 1_554
Cr1 Sb6 2.690696 1_555
Cr1 Sb7 2.690696 1_555
Cr1 Sb10 2.721289 1_555
Cr1 Sb11 2.721289 1_555
Cr1 Sb2 2.730105 1_555
Cr1 Sb3 2.730105 1_555
Sb0 Sb3 2.909122 1_556
Sb0 Sb2 2.960155 1_555
Sb0 Sb11 3.554142 1_555
Sb0 Sb4 3.583912 1_545
Sb0 Sb6 3.600489 1_545
Sb0 Sb8 3.634836 1_556
Sb1 Sb2 2.909122 1_554
Sb1 Sb3 2.960155 1_555
Sb1 Sb10 3.554142 1_555
Sb1 Sb5 3.583912 1_565
Sb1 Sb7 3.600489 1_565
Sb1 Sb9 3.634836 1_554
Sb2 Sb8 3.554155 1_556
Sb2 Sb5 3.583903 1_555
Sb2 Sb7 3.600489 1_555
Sb3 Sb9 3.554155 1_554
Sb3 Sb4 3.583903 1_555
Sb3 Sb6 3.600489 1_555
Sb4 Sb7 2.921490 1_565
Sb4 Sb6 2.968627 1_555
Sb4 Sb8 3.553213 1_455
Sb5 Sb6 2.921490 1_545
Sb5 Sb7 2.968627 1_555
Sb5 Sb9 3.553213 1_655
Sb6 Sb9 3.639694 1_555
Sb7 Sb8 3.639694 1_555
Sb10 Sb9 2.923478 1_655
Sb10 Sb8 2.955227 1_555
Sb10 Sb4 3.553212 1_655
Sb10 Sb3 3.634832 1_555
Sb10 Sb7 3.639706 1_555
Sb11 Sb8 2.923478 1_455
Sb11 Sb9 2.955227 1_555
Sb11 Sb5 3.553212 1_455
Sb11 Sb2 3.634832 1_555
Sb11 Sb6 3.639706 1_555
Rh0 Sb0 2.645867 1_555
Rh0 Sb1 2.645867 1_445
Rh0 Sb10 2.653892 1_445
Rh0 Sb11 2.653892 1_555
Rh0 Sb4 2.672432 1_545
Rh0 Sb5 2.672432 1_455
Rh1 Sb2 2.645867 1_454
Rh1 Sb3 2.645867 1_555
Rh1 Sb9 2.653907 1_554
Rh1 Sb8 2.653907 1_455
Rh1 Sb4 2.672424 1_555
Rh1 Sb5 2.672424 1_454
