# generated using pymatgen
data_K2VCoS4
_symmetry_space_group_name_H-M   'P 1'
_cell_length_a   13.12530735
_cell_length_b   11.74831753
_cell_length_c   6.99128863
_cell_angle_alpha   84.89139639
_cell_angle_beta   63.06657123
_cell_angle_gamma   32.04203711
_symmetry_Int_Tables_number   1
_chemical_formula_structural   K2VCoS4
_chemical_formula_sum   'K4 V2 Co2 S8'
_cell_volume   398.66913542
_cell_formula_units_Z   2
loop_
 _symmetry_equiv_pos_site_id
 _symmetry_equiv_pos_as_xyz
  1  'x, y, z'
loop_
 _atom_site_type_symbol
 _atom_site_label
 _atom_site_symmetry_multiplicity
 _atom_site_fract_x
 _atom_site_fract_y
 _atom_site_fract_z
 _atom_site_occupancy
  K  K0  1  0.57226543  0.57226543  0.92773457  1
  K  K1  1  0.92773457  0.92773457  0.57226543  1
  K  K2  1  0.32226543  0.32226543  0.67773457  1
  K  K3  1  0.67773457  0.67773457  0.32226543  1
  V  V0  1  0.75000000  0.75000000  0.75000000  1
  V  V1  1  0.50000000  0.50000000  0.50000000  1
  Co  Co0  1  0.00000000  0.00000000  0.00000000  1
  Co  Co1  1  0.25000000  0.25000000  0.25000000  1
  S  S0  1  0.21450915  0.89263366  0.59216503  1
  S  S1  1  0.30069315  0.59216503  0.89263366  1
  S  S2  1  0.59216503  0.30069315  0.21450915  1
  S  S3  1  0.89263366  0.21450915  0.30069315  1
  S  S4  1  0.35736634  0.03549085  0.94930685  1
  S  S5  1  0.94930685  0.65783497  0.35736634  1
  S  S6  1  0.65783497  0.94930685  0.03549085  1
  S  S7  1  0.03549085  0.35736634  0.65783497  1
loop_
_geom_bond_atom_site_label_1
_geom_bond_atom_site_label_2
_geom_bond_distance
_geom_bond_site_symmetry_2
K0 S3 3.344369 1_555
K0 S0 3.344375 1_556
K0 S7 3.366410 1_655
K0 S4 3.366411 1_565
K0 S3 3.410212 1_466
K0 S0 3.410213 1_645
K0 S1 3.491385 1_555
K0 S2 3.491389 1_556
K1 S1 3.344373 1_565
K1 S2 3.344374 1_655
K1 S6 3.366418 1_556
K1 S5 3.366422 1_555
K1 S1 3.410211 1_654
K1 S2 3.410216 1_566
K1 S3 3.491395 1_565
K1 S0 3.491398 1_655
K2 S5 3.344373 1_545
K2 S6 3.344374 1_456
K2 S2 3.366418 1_555
K2 S1 3.366422 1_555
K2 S5 3.410211 1_456
K2 S6 3.410216 1_545
K2 S4 3.491395 1_555
K2 S7 3.491398 1_555
K3 S4 3.344369 1_565
K3 S7 3.344375 1_654
K3 S0 3.366410 1_555
K3 S3 3.366411 1_555
K3 S4 3.410212 1_654
K3 S7 3.410213 1_565
K3 S5 3.491385 1_555
K3 S6 3.491389 1_555
Co0 S2 2.235000 1_455
Co0 S1 2.235002 1_544
Co0 S0 2.235004 1_544
Co0 S3 2.235010 1_455
Co0 V1 2.704385 1_455
Co0 V1 2.704385 1_544
Co1 S6 2.235000 1_545
Co1 S5 2.235002 1_455
Co1 S7 2.235004 1_555
Co1 S4 2.235010 1_554
Co1 V0 2.704385 1_544
Co1 V0 2.704385 1_455
S0 V1 2.184695 1_555
S1 V1 2.184692 1_555
S2 V1 2.184686 1_555
S3 V1 2.184697 1_555
S4 V0 2.184697 1_545
S5 V0 2.184692 1_555
S6 V0 2.184686 1_554
S7 V0 2.184695 1_455
