# generated using pymatgen
data_HfZr(AsRh)2
_symmetry_space_group_name_H-M   'P 1'
_cell_length_a   6.61287177
_cell_length_b   3.91250117
_cell_length_c   7.57755773
_cell_angle_alpha   90.00000000
_cell_angle_beta   90.00000000
_cell_angle_gamma   90.00000000
_symmetry_Int_Tables_number   1
_chemical_formula_structural   HfZr(AsRh)2
_chemical_formula_sum   'Hf2 Zr2 As4 Rh4'
_cell_volume   196.05315513
_cell_formula_units_Z   2
loop_
 _symmetry_equiv_pos_site_id
 _symmetry_equiv_pos_as_xyz
  1  'x, y, z'
loop_
 _atom_site_type_symbol
 _atom_site_label
 _atom_site_symmetry_multiplicity
 _atom_site_fract_x
 _atom_site_fract_y
 _atom_site_fract_z
 _atom_site_occupancy
  Hf  Hf0  1  0.47050089  0.25000000  0.68504792  1
  Hf  Hf1  1  0.97050089  0.25000000  0.81495308  1
  Zr  Zr0  1  0.02852784  0.74999900  0.18446431  1
  Zr  Zr1  1  0.52852784  0.74999900  0.31553669  1
  As  As0  1  0.74498811  0.25000000  0.12157198  1
  As  As1  1  0.24498811  0.25000000  0.37842902  1
  As  As2  1  0.75373593  0.74999900  0.62075318  1
  As  As3  1  0.25373593  0.74999900  0.87924782  1
  Rh  Rh0  1  0.35871342  0.25000000  0.05981537  1
  Rh  Rh1  1  0.85871342  0.25000000  0.44018563  1
  Rh  Rh2  1  0.14353380  0.74999900  0.56773820  1
  Rh  Rh3  1  0.64353280  0.74999900  0.93226280  1
loop_
_geom_bond_atom_site_label_1
_geom_bond_atom_site_label_2
_geom_bond_distance
_geom_bond_site_symmetry_2
Hf0 Rh0 2.934461 1_556
Hf0 Rh3 2.940302 1_555
Hf0 Rh3 2.940308 1_545
Hf0 Rh2 3.048303 1_555
Hf0 Rh2 3.048308 1_545
Hf0 Rh1 3.167529 1_555
Hf1 Rh1 2.934461 1_555
Hf1 Rh2 2.940305 1_655
Hf1 Rh2 2.940310 1_645
Hf1 Rh3 3.048308 1_555
Hf1 Rh3 3.048313 1_545
Hf1 Rh0 3.167529 1_656
As0 Rh3 2.516906 1_554
As0 Rh3 2.516912 1_544
As0 Rh1 2.528733 1_555
As0 Rh0 2.596897 1_555
As0 Zr0 2.751307 1_655
As0 Zr0 2.751312 1_645
As0 Hf1 2.760838 1_554
As0 Zr1 2.834806 1_555
As0 Zr1 2.834811 1_545
As1 Rh2 2.516904 1_555
As1 Rh2 2.516910 1_545
As1 Rh0 2.528733 1_555
As1 Rh1 2.596897 1_455
As1 Zr1 2.751307 1_555
As1 Zr1 2.751312 1_545
As1 Hf0 2.760838 1_555
As1 Zr0 2.834806 1_555
As1 Zr0 2.834811 1_545
As2 Rh3 2.470418 1_555
As2 Rh1 2.486153 1_555
As2 Rh1 2.486159 1_565
As2 Rh2 2.608799 1_655
As2 Zr1 2.750810 1_555
As2 Hf0 2.751796 1_555
As2 Hf0 2.751801 1_565
As2 Hf1 2.836748 1_555
As2 Hf1 2.836754 1_565
As3 Rh2 2.470416 1_555
As3 Rh0 2.486153 1_556
As3 Rh0 2.486159 1_566
As3 Rh3 2.608793 1_555
As3 Zr0 2.750810 1_556
As3 Hf1 2.751796 1_455
As3 Hf1 2.751801 1_465
As3 Hf0 2.836748 1_555
As3 Hf0 2.836754 1_565
Rh0 Rh3 2.882459 1_554
Rh0 Rh3 2.882464 1_544
Rh0 Zr1 2.973683 1_555
Rh0 Zr1 2.973688 1_545
Rh0 Zr0 3.080034 1_555
Rh0 Zr0 3.080039 1_545
Rh1 Rh2 2.882463 1_655
Rh1 Rh2 2.882469 1_645
Rh1 Zr0 2.973683 1_655
Rh1 Zr0 2.973688 1_645
Rh1 Zr1 3.080034 1_555
Rh1 Zr1 3.080039 1_545
Rh2 Zr0 3.002205 1_555
Rh2 Zr1 3.183376 1_555
Rh3 Zr1 3.002203 1_556
Rh3 Zr0 3.183381 1_656
