# generated using pymatgen
data_Ba4BeCr3N8
_symmetry_space_group_name_H-M   'P 1'
_cell_length_a   6.35051861
_cell_length_b   6.35051854
_cell_length_c   7.75957827
_cell_angle_alpha   91.98317539
_cell_angle_beta   88.01682729
_cell_angle_gamma   126.01722424
_symmetry_Int_Tables_number   1
_chemical_formula_structural   Ba4BeCr3N8
_chemical_formula_sum   'Ba4 Be1 Cr3 N8'
_cell_volume   252.92484813
_cell_formula_units_Z   1
loop_
 _symmetry_equiv_pos_site_id
 _symmetry_equiv_pos_as_xyz
  1  'x, y, z'
loop_
 _atom_site_type_symbol
 _atom_site_label
 _atom_site_symmetry_multiplicity
 _atom_site_fract_x
 _atom_site_fract_y
 _atom_site_fract_z
 _atom_site_occupancy
  Ba  Ba0  1  0.83058459  0.16941541  0.56733696  1
  Ba  Ba1  1  0.15182664  0.84817336  0.43414982  1
  Ba  Ba2  1  0.66003159  0.33996841  0.04782750  1
  Ba  Ba3  1  0.34757132  0.65242868  0.93764252  1
  Be  Be0  1  0.55088028  0.44911972  0.64058140  1
  Cr  Cr0  1  0.45654108  0.54345892  0.38115930  1
  Cr  Cr1  1  0.95154131  0.04845869  0.13949376  1
  Cr  Cr2  1  0.05012803  0.94987197  0.85360340  1
  N  N0  1  0.89150411  0.10849589  0.91469947  1
  N  N1  1  0.10891363  0.89108637  0.07601770  1
  N  N2  1  0.60579742  0.39420258  0.41571600  1
  N  N3  1  0.39159396  0.60840604  0.58443183  1
  N  N4  1  0.34125979  0.16202427  0.74475004  1
  N  N5  1  0.15973852  0.33589101  0.25892013  1
  N  N6  1  0.66410899  0.84026148  0.25892013  1
  N  N7  1  0.83797573  0.65874021  0.74475004  1
loop_
_geom_bond_atom_site_label_1
_geom_bond_atom_site_label_2
_geom_bond_distance
_geom_bond_site_symmetry_2
Ba0 N0 2.807990 1_555
Ba0 N2 2.844088 1_555
Ba0 N6 2.905909 1_545
Ba0 N5 2.905909 1_655
Ba0 N3 2.967943 1_545
Ba0 N3 2.967943 1_655
Ba0 N7 3.330251 1_555
Ba0 N4 3.330251 1_555
Ba1 N1 2.839594 1_555
Ba1 N4 2.876939 1_565
Ba1 N7 2.876939 1_455
Ba1 N2 2.933401 1_455
Ba1 N2 2.933401 1_565
Ba1 N3 2.994858 1_555
Ba1 N6 3.398247 1_455
Ba1 N5 3.398247 1_565
Ba1 N5 3.509469 1_555
Ba1 N6 3.509469 1_555
Ba2 N0 2.778452 1_554
Ba2 N4 2.891539 1_554
Ba2 N7 2.891539 1_554
Ba2 N2 2.896504 1_555
Ba2 N1 2.946173 1_655
Ba2 N1 2.946173 1_545
Ba2 N6 3.510523 1_555
Ba2 N5 3.510523 1_555
Ba2 N5 3.635034 1_655
Ba2 N6 3.635034 1_545
Ba2 Ba3 3.670315 1_554
Ba3 N3 2.766580 1_555
Ba3 N1 2.867609 1_556
Ba3 N0 2.929037 1_455
Ba3 N0 2.929037 1_565
Ba3 N6 2.999947 1_556
Ba3 N5 2.999947 1_556
Ba3 N4 3.387571 1_555
Ba3 N7 3.387571 1_555
Ba3 N7 3.634120 1_455
Ba3 N4 3.634120 1_565
Be0 N7 1.709591 1_555
Be0 N4 1.709591 1_555
Be0 N2 1.829372 1_555
Be0 N3 1.871014 1_555
Cr0 N3 1.714101 1_555
Cr0 N2 1.720624 1_555
Cr0 N5 1.818009 1_555
Cr0 N6 1.818009 1_555
Cr1 N5 1.751626 1_655
Cr1 N6 1.751626 1_545
Cr1 N1 1.829395 1_645
Cr1 N0 1.896407 1_554
Cr2 N7 1.728596 1_455
Cr2 N4 1.728596 1_565
Cr2 N0 1.838892 1_465
Cr2 N1 1.873593 1_556
