# generated using pymatgen
data_AgBi3(Ru2O7)2
_symmetry_space_group_name_H-M   'P 1'
_cell_length_a   7.33690861
_cell_length_b   7.33690914
_cell_length_c   7.18205747
_cell_angle_alpha   59.28416970
_cell_angle_beta   59.28417201
_cell_angle_gamma   60.00000166
_symmetry_Int_Tables_number   1
_chemical_formula_structural   AgBi3(Ru2O7)2
_chemical_formula_sum   'Ag1 Bi3 Ru4 O14'
_cell_volume   270.38054646
_cell_formula_units_Z   1
loop_
 _symmetry_equiv_pos_site_id
 _symmetry_equiv_pos_as_xyz
  1  'x, y, z'
loop_
 _atom_site_type_symbol
 _atom_site_label
 _atom_site_symmetry_multiplicity
 _atom_site_fract_x
 _atom_site_fract_y
 _atom_site_fract_z
 _atom_site_occupancy
  Ag  Ag0  1  0.12500000  0.12500000  0.62500000  1
  Bi  Bi0  1  0.12500000  0.62500000  0.12500000  1
  Bi  Bi1  1  0.62500000  0.12500000  0.12500000  1
  Bi  Bi2  1  0.12500000  0.12500000  0.12500000  1
  Ru  Ru0  1  0.62500000  0.62500000  0.12500000  1
  Ru  Ru1  1  0.62500000  0.12500000  0.62500000  1
  Ru  Ru2  1  0.12500000  0.62500000  0.62500000  1
  Ru  Ru3  1  0.62500000  0.62500000  0.62500000  1
  O  O0  1  0.24608283  0.24608283  0.26175151  1
  O  O1  1  0.00391717  0.00391717  0.98824849  1
  O  O2  1  0.56494432  0.94618865  0.54267839  1
  O  O3  1  0.29974939  0.70308210  0.29408640  1
  O  O4  1  0.54691790  0.54691790  0.95591360  1
  O  O5  1  0.94618865  0.56494432  0.54267839  1
  O  O6  1  0.54691790  0.95025061  0.95591360  1
  O  O7  1  0.94618865  0.94618865  0.54267839  1
  O  O8  1  0.95025061  0.54691790  0.95591360  1
  O  O9  1  0.70308210  0.29974939  0.29408640  1
  O  O10  1  0.30381135  0.68505568  0.70732161  1
  O  O11  1  0.68505568  0.30381135  0.70732161  1
  O  O12  1  0.30381135  0.30381135  0.70732161  1
  O  O13  1  0.70308210  0.70308210  0.29408640  1
loop_
_geom_bond_atom_site_label_1
_geom_bond_atom_site_label_2
_geom_bond_distance
_geom_bond_site_symmetry_2
Ag0 O1 2.106795 1_555
Ag0 O0 2.106795 1_555
Ag0 O2 2.664161 1_545
Ag0 O11 2.664161 1_455
Ag0 O12 2.664161 1_555
Ag0 O7 2.664161 1_445
Ag0 O5 2.664161 1_455
Ag0 O10 2.664161 1_545
Bi0 O1 2.261620 1_564
Bi0 O0 2.261620 1_555
Bi0 O5 2.474161 1_455
Bi0 O10 2.474161 1_554
Bi0 O4 2.546081 1_554
Bi0 O13 2.546081 1_455
Bi0 O3 2.546081 1_555
Bi0 O8 2.546081 1_454
Bi1 O1 2.261620 1_654
Bi1 O0 2.261620 1_555
Bi1 O2 2.474161 1_545
Bi1 O11 2.474161 1_554
Bi1 O9 2.546081 1_555
Bi1 O6 2.546081 1_544
Bi1 O4 2.546081 1_554
Bi1 O13 2.546081 1_545
Bi2 O0 2.261620 1_555
Bi2 O1 2.261620 1_554
Bi2 O12 2.474161 1_554
Bi2 O7 2.474161 1_445
Bi2 O6 2.546081 1_544
Bi2 O9 2.546081 1_455
Bi2 O8 2.546081 1_454
Bi2 O3 2.546081 1_545
O2 Ru1 1.975204 1_565
O2 Ru3 1.975204 1_555
O2 O9 2.644464 1_565
O3 Ru2 1.962453 1_555
O3 Ru0 1.969954 1_555
O3 O6 2.601138 1_554
O3 O4 2.601138 1_554
O3 O5 2.644464 1_455
O3 O7 2.644464 1_455
O4 Ru3 1.962453 1_555
O4 Ru0 1.969954 1_556
O4 O9 2.601138 1_556
O5 Ru3 1.975204 1_555
O5 Ru2 1.975204 1_655
O6 Ru1 1.962453 1_565
O6 Ru0 1.969954 1_556
O7 Ru1 1.975204 1_565
O7 Ru2 1.975204 1_655
O7 O9 2.644464 1_565
O8 Ru2 1.962453 1_655
O8 Ru0 1.969954 1_556
O8 O9 2.601138 1_556
O9 Ru1 1.962453 1_555
O9 Ru0 1.969954 1_555
O10 Ru3 1.975204 1_555
O10 Ru2 1.975204 1_555
O10 O8 2.644464 1_455
O10 O4 2.644464 1_555
O11 Ru1 1.975204 1_555
O11 Ru3 1.975204 1_555
O11 O6 2.644464 1_545
O11 O4 2.644464 1_555
O12 Ru1 1.975204 1_555
O12 Ru2 1.975204 1_555
O12 O6 2.644464 1_545
O12 O8 2.644464 1_455
O13 Ru3 1.962453 1_555
O13 Ru0 1.969954 1_555
O13 O6 2.601138 1_554
O13 O8 2.601138 1_554
O13 O5 2.644464 1_555
O13 O2 2.644464 1_555
