# generated using pymatgen
data_Cs3K9(AlSe3)4
_symmetry_space_group_name_H-M   'P 1'
_cell_length_a   13.67482188
_cell_length_b   8.20919890
_cell_length_c   10.43335736
_cell_angle_alpha   53.42659486
_cell_angle_beta   89.46488569
_cell_angle_gamma   90.03894596
_symmetry_Int_Tables_number   1
_chemical_formula_structural   Cs3K9(AlSe3)4
_chemical_formula_sum   'Cs3 K9 Al4 Se12'
_cell_volume   940.54791053
_cell_formula_units_Z   1
loop_
 _symmetry_equiv_pos_site_id
 _symmetry_equiv_pos_as_xyz
  1  'x, y, z'
loop_
 _atom_site_type_symbol
 _atom_site_label
 _atom_site_symmetry_multiplicity
 _atom_site_fract_x
 _atom_site_fract_y
 _atom_site_fract_z
 _atom_site_occupancy
  Cs  Cs0  1  0.31554722  0.18617631  0.05083525  1
  Cs  Cs1  1  0.68040355  0.82120175  0.94995475  1
  Cs  Cs2  1  0.81795547  0.82044667  0.45537056  1
  K  K0  1  0.89878370  0.30623125  0.40492988  1
  K  K1  1  0.61676218  0.37619086  0.47186597  1
  K  K2  1  0.11554997  0.63192250  0.02245787  1
  K  K3  1  0.38108148  0.63017541  0.52677419  1
  K  K4  1  0.88826435  0.35864387  0.98027094  1
  K  K5  1  0.61036549  0.30552089  0.90581891  1
  K  K6  1  0.10532762  0.68524331  0.59649779  1
  K  K7  1  0.38661852  0.70475773  0.09042054  1
  K  K8  1  0.18306299  0.17245036  0.55103308  1
  Al  Al0  1  0.06679604  0.94560301  0.15456659  1
  Al  Al1  1  0.56293872  0.04751672  0.34806823  1
  Al  Al2  1  0.43165744  0.96837778  0.64729521  1
  Al  Al3  1  0.93836351  0.03914004  0.84853853  1
  Se  Se0  1  0.41408272  0.20569826  0.35809671  1
  Se  Se1  1  0.91206200  0.81137938  0.13832205  1
  Se  Se2  1  0.58047949  0.81076661  0.63797928  1
  Se  Se3  1  0.09368047  0.17382791  0.86240999  1
  Se  Se4  1  0.69222517  0.28970996  0.21765552  1
  Se  Se5  1  0.18584320  0.68487352  0.29423803  1
  Se  Se6  1  0.30061107  0.73056924  0.77276705  1
  Se  Se7  1  0.81526479  0.29013115  0.71649092  1
  Se  Se8  1  0.54431210  0.86447017  0.24107634  1
  Se  Se9  1  0.05576272  0.13675725  0.25681419  1
  Se  Se10  1  0.45270065  0.14663132  0.75775694  1
  Se  Se11  1  0.95349835  0.85558374  0.74169370  1
loop_
_geom_bond_atom_site_label_1
_geom_bond_atom_site_label_2
_geom_bond_distance
_geom_bond_site_symmetry_2
Cs0 Se0 3.579233 1_555
Cs0 Se6 3.604457 1_554
Cs0 Se3 3.664510 1_554
Cs0 Se5 3.739297 1_545
Cs0 Se10 3.748308 1_554
Cs0 Se8 3.818515 1_545
Cs0 K7 3.847273 1_545
Cs0 Se9 4.027377 1_555
Cs0 K5 4.197254 1_554
Cs1 Se4 3.514380 1_556
Cs1 Se2 3.589488 1_555
Cs1 Se7 3.589613 1_565
Cs1 Se1 3.719170 1_556
Cs1 Se8 3.741156 1_556
Cs1 Se10 3.820691 1_565
Cs1 K5 3.842982 1_565
Cs1 K7 4.173349 1_556
Cs1 Se11 4.226558 1_555
Cs2 Se7 3.498566 1_555
Cs2 Se4 3.556705 1_565
Cs2 Se1 3.580187 1_555
Cs2 Se11 3.684068 1_555
Cs2 Se2 3.726355 1_555
Cs2 K0 3.857998 1_565
Cs2 Se9 3.880942 1_665
Cs2 K6 4.124250 1_655
Cs2 Se8 4.281050 1_555
K0 Se11 3.339720 1_545
K0 Se1 3.348146 1_555
K0 Se7 3.362575 1_555
K0 Se9 3.381717 1_655
K0 Se4 3.497592 1_555
K0 K1 4.015164 1_555
K0 K8 4.094342 1_655
K1 Se10 3.263798 1_555
K1 Se4 3.285915 1_555
K1 Se8 3.375584 1_555
K1 Se7 3.516364 1_555
K1 Se0 3.617409 1_555
K1 Se2 3.897321 1_545
K1 K3 4.057163 1_555
K2 Se11 3.252706 1_454
K2 Se5 3.266907 1_555
K2 Se6 3.347646 1_554
K2 Se9 3.359182 1_555
K2 Se1 3.666042 1_455
K2 Se3 3.718405 1_564
K2 K7 3.892570 1_555
K2 K4 4.009938 1_454
K3 Se8 3.256470 1_555
K3 Se6 3.308538 1_555
K3 Se10 3.342633 1_555
K3 Se5 3.469901 1_555
K3 Se2 3.616971 1_555
K3 K6 3.911022 1_555
K3 Se0 3.961834 1_565
K4 Se9 3.279511 1_656
K4 Se7 3.283616 1_555
K4 Se11 3.389142 1_555
K4 Se4 3.441619 1_556
K4 Se3 3.724142 1_655
K4 Se1 3.767238 1_546
K4 K5 3.961289 1_555
K5 Se8 3.317267 1_546
K5 Se10 3.346014 1_555
K5 Se2 3.374960 1_555
K5 Se4 3.379379 1_556
K5 Se7 3.458809 1_555
K6 Se11 3.321246 1_455
K6 Se5 3.332257 1_555
K6 Se9 3.339469 1_565
K6 Se3 3.385050 1_555
K6 Se6 3.399695 1_555
K6 K8 3.882725 1_565
K7 Se10 3.309773 1_564
K7 Se0 3.333415 1_555
K7 Se8 3.369766 1_555
K7 Se5 3.400509 1_555
K7 Se6 3.412966 1_554
K8 Se6 3.342335 1_545
K8 Se5 3.382596 1_555
K8 Se3 3.466676 1_555
K8 Se0 3.651317 1_555
K8 Se9 3.702739 1_555
K8 Se11 3.779442 1_445
K8 Se10 4.230535 1_555
Al0 Se9 2.369708 1_565
Al0 Se5 2.384756 1_555
Al0 Se1 2.438485 1_455
Al0 Se3 2.471666 1_564
Al0 Cs0 3.744013 1_565
Al1 Se8 2.360664 1_545
Al1 Se4 2.378337 1_555
Al1 Se2 2.447951 1_545
Al1 Se0 2.449954 1_555
Al2 Se10 2.359600 1_565
Al2 Se6 2.375318 1_555
Al2 Se0 2.442615 1_565
Al2 Se2 2.444375 1_555
Al2 K8 3.665809 1_565
Al3 Se11 2.356692 1_545
Al3 Se7 2.375356 1_555
Al3 Se3 2.438812 1_655
Al3 Se1 2.451203 1_546
Al3 Cs1 3.798665 1_545
