# generated using pymatgen
data_Cs2LiGaSb2
_symmetry_space_group_name_H-M   'P 1'
_cell_length_a   11.18670938
_cell_length_b   11.18670883
_cell_length_c   6.91323112
_cell_angle_alpha   90.00000000
_cell_angle_beta   90.00000000
_cell_angle_gamma   104.15495460
_symmetry_Int_Tables_number   1
_chemical_formula_structural   Cs2LiGaSb2
_chemical_formula_sum   'Cs8 Li4 Ga4 Sb8'
_cell_volume   838.87133135
_cell_formula_units_Z   4
loop_
 _symmetry_equiv_pos_site_id
 _symmetry_equiv_pos_as_xyz
  1  'x, y, z'
loop_
 _atom_site_type_symbol
 _atom_site_label
 _atom_site_symmetry_multiplicity
 _atom_site_fract_x
 _atom_site_fract_y
 _atom_site_fract_z
 _atom_site_occupancy
  Cs  Cs0  1  0.07877808  0.42122192  0.75000000  1
  Cs  Cs1  1  0.67303147  0.32696853  0.78194277  1
  Cs  Cs2  1  0.32696853  0.67303147  0.21805723  1
  Cs  Cs3  1  0.57877808  0.92122192  0.75000000  1
  Cs  Cs4  1  0.42122192  0.07877808  0.25000000  1
  Cs  Cs5  1  0.92122192  0.57877808  0.25000000  1
  Cs  Cs6  1  0.82696853  0.17303147  0.28194277  1
  Cs  Cs7  1  0.17303147  0.82696853  0.71805723  1
  Li  Li0  1  0.11962247  0.11962247  0.50000000  1
  Li  Li1  1  0.88037753  0.88037753  0.50000000  1
  Li  Li2  1  0.38037753  0.38037753  0.00000000  1
  Li  Li3  1  0.61962247  0.61962247  0.00000000  1
  Ga  Ga0  1  0.86695147  0.86695147  0.00000000  1
  Ga  Ga1  1  0.36695147  0.36695147  0.50000000  1
  Ga  Ga2  1  0.63304853  0.63304853  0.50000000  1
  Ga  Ga3  1  0.13304853  0.13304853  0.00000000  1
  Sb  Sb0  1  0.83476074  0.66523926  0.75000000  1
  Sb  Sb1  1  0.08359535  0.91640465  0.20709648  1
  Sb  Sb2  1  0.41640465  0.58359535  0.70709648  1
  Sb  Sb3  1  0.58359535  0.41640465  0.29290352  1
  Sb  Sb4  1  0.66523926  0.83476074  0.25000000  1
  Sb  Sb5  1  0.16523926  0.33476074  0.25000000  1
  Sb  Sb6  1  0.33476074  0.16523926  0.75000000  1
  Sb  Sb7  1  0.91640465  0.08359535  0.79290352  1
loop_
_geom_bond_atom_site_label_1
_geom_bond_atom_site_label_2
_geom_bond_distance
_geom_bond_site_symmetry_2
Cs0 Sb5 3.778459 1_555
Cs0 Sb5 3.778459 1_556
Cs0 Sb7 3.781159 1_455
Cs0 Sb2 3.781159 1_555
Cs0 Ga3 3.834731 1_556
Cs0 Ga1 3.834731 1_555
Cs0 Li0 3.915741 1_555
Cs0 Li2 3.915741 1_556
Cs0 Sb0 4.306687 1_455
Cs0 Cs7 4.407044 1_555
Cs0 Cs1 4.407044 1_455
Cs0 Cs5 4.436285 1_455
Cs0 Cs5 4.436285 1_456
Cs0 Cs2 4.721099 1_556
Cs0 Cs6 4.721099 1_455
Cs1 Sb3 3.731172 1_555
Cs1 Sb0 3.780641 1_555
Cs1 Sb6 3.780642 1_555
Cs1 Li3 3.782080 1_556
Cs1 Li2 3.782080 1_556
Cs1 Sb3 3.869023 1_556
Cs1 Ga2 4.058595 1_555
Cs1 Ga1 4.058595 1_555
Cs1 Sb7 4.295987 1_555
Cs1 Cs6 4.396529 1_556
Cs1 Cs6 4.396529 1_555
Cs1 Cs3 4.407044 1_545
Cs1 Cs5 4.721099 1_556
Cs1 Cs4 4.721099 1_556
Cs2 Sb2 3.731172 1_555
Cs2 Sb5 3.780641 1_555
Cs2 Sb4 3.780642 1_555
Cs2 Li2 3.782080 1_555
Cs2 Li3 3.782080 1_555
Cs2 Sb2 3.869023 1_554
Cs2 Ga1 4.058595 1_555
Cs2 Ga2 4.058595 1_555
Cs2 Sb1 4.295987 1_555
Cs2 Cs7 4.396529 1_554
Cs2 Cs7 4.396529 1_555
Cs2 Cs4 4.407044 1_565
Cs2 Cs5 4.407044 1_455
Cs2 Cs3 4.721099 1_554
Cs3 Sb4 3.778459 1_556
Cs3 Sb4 3.778459 1_555
Cs3 Sb2 3.781159 1_555
Cs3 Sb7 3.781159 1_565
Cs3 Ga2 3.834731 1_555
Cs3 Ga0 3.834731 1_556
Cs3 Li3 3.915741 1_556
Cs3 Li1 3.915741 1_555
Cs3 Sb6 4.306687 1_565
Cs3 Cs7 4.407044 1_555
Cs3 Cs4 4.436285 1_566
Cs3 Cs4 4.436285 1_565
Cs3 Cs6 4.721099 1_565
Cs4 Sb6 3.778459 1_555
Cs4 Sb6 3.778459 1_554
Cs4 Sb3 3.781159 1_555
Cs4 Sb1 3.781159 1_545
Cs4 Ga1 3.834731 1_555
Cs4 Ga3 3.834731 1_555
Cs4 Li2 3.915741 1_555
Cs4 Li0 3.915741 1_555
Cs4 Sb4 4.306687 1_545
Cs4 Cs6 4.407044 1_555
Cs4 Cs7 4.721099 1_545
Cs5 Sb0 3.778459 1_555
Cs5 Sb0 3.778459 1_554
Cs5 Sb1 3.781159 1_655
Cs5 Sb3 3.781159 1_555
Cs5 Ga0 3.834731 1_555
Cs5 Ga2 3.834731 1_555
Cs5 Li1 3.915741 1_555
Cs5 Li3 3.915741 1_555
Cs5 Sb5 4.306687 1_655
Cs5 Cs6 4.407044 1_555
Cs5 Cs7 4.721099 1_655
Cs6 Sb7 3.731172 1_554
Cs6 Sb4 3.780641 1_545
Cs6 Sb5 3.780642 1_655
Cs6 Li1 3.782080 1_545
Cs6 Li0 3.782080 1_655
Cs6 Sb7 3.869023 1_555
Cs6 Ga0 4.058595 1_545
Cs6 Ga3 4.058595 1_655
Cs6 Sb3 4.295987 1_555
Cs7 Sb1 3.731172 1_556
Cs7 Sb6 3.780641 1_565
Cs7 Sb0 3.780642 1_455
Cs7 Li0 3.782080 1_565
Cs7 Li1 3.782080 1_455
Cs7 Sb1 3.869023 1_555
Cs7 Ga3 4.058595 1_566
Cs7 Ga0 4.058595 1_456
Cs7 Sb2 4.295987 1_555
Li0 Sb5 2.904985 1_555
Li0 Sb6 2.904985 1_555
Li0 Sb1 2.997106 1_545
Li0 Sb7 2.997106 1_455
Li0 Li1 3.289761 1_445
Li1 Sb0 2.904985 1_555
Li1 Sb4 2.904985 1_555
Li1 Sb7 2.997106 1_565
Li1 Sb1 2.997106 1_655
Li2 Sb6 2.904985 1_554
Li2 Sb5 2.904985 1_555
Li2 Sb2 2.997106 1_554
Li2 Sb3 2.997106 1_555
Li2 Li3 3.289761 1_555
Li3 Sb4 2.904985 1_555
Li3 Sb0 2.904985 1_554
Li3 Sb3 2.997106 1_555
Li3 Sb2 2.997106 1_554
Ga0 Sb7 2.752017 1_564
Ga0 Sb1 2.752017 1_655
Ga0 Sb0 2.794830 1_554
Ga0 Sb4 2.794830 1_555
Ga0 Li3 3.400922 1_555
Ga0 Li1 3.461542 1_555
Ga0 Li1 3.461542 1_554
Ga1 Sb2 2.752017 1_555
Ga1 Sb3 2.752017 1_555
Ga1 Sb6 2.794830 1_555
Ga1 Sb5 2.794830 1_555
Ga1 Li0 3.400922 1_555
Ga1 Li2 3.461542 1_556
Ga1 Li2 3.461542 1_555
Ga2 Sb3 2.752017 1_555
Ga2 Sb2 2.752017 1_555
Ga2 Sb4 2.794830 1_555
Ga2 Sb0 2.794830 1_555
Ga2 Li1 3.400922 1_555
Ga2 Li3 3.461542 1_556
Ga2 Li3 3.461542 1_555
Ga3 Sb1 2.752017 1_545
Ga3 Sb7 2.752017 1_454
Ga3 Sb5 2.794830 1_555
Ga3 Sb6 2.794830 1_554
Ga3 Li2 3.400922 1_555
Ga3 Li0 3.461542 1_554
Ga3 Li0 3.461542 1_555
