# generated using pymatgen
data_K2(NbBr3)3
_symmetry_space_group_name_H-M   'P 1'
_cell_length_a   10.26177042
_cell_length_b   10.26350349
_cell_length_c   10.12557814
_cell_angle_alpha   77.42342230
_cell_angle_beta   77.43330213
_cell_angle_gamma   117.64800288
_symmetry_Int_Tables_number   1
_chemical_formula_structural   K2(NbBr3)3
_chemical_formula_sum   'K4 Nb6 Br18'
_cell_volume   857.10998947
_cell_formula_units_Z   2
loop_
 _symmetry_equiv_pos_site_id
 _symmetry_equiv_pos_as_xyz
  1  'x, y, z'
loop_
 _atom_site_type_symbol
 _atom_site_label
 _atom_site_symmetry_multiplicity
 _atom_site_fract_x
 _atom_site_fract_y
 _atom_site_fract_z
 _atom_site_occupancy
  K  K0  1  0.72962197  0.05247925  0.82908889  1
  K  K1  1  0.94802107  0.27109069  0.16924268  1
  K  K2  1  0.27039466  0.94885288  0.16911252  1
  K  K3  1  0.05141821  0.72950193  0.82964603  1
  Nb  Nb0  1  0.45460111  0.28593048  0.63557342  1
  Nb  Nb1  1  0.71415843  0.54589983  0.36372333  1
  Nb  Nb2  1  0.54498176  0.71480051  0.36406741  1
  Nb  Nb3  1  0.28529325  0.45480545  0.63594711  1
  Nb  Nb4  1  0.61710126  0.61752936  0.62430680  1
  Nb  Nb5  1  0.38225792  0.38307914  0.37545841  1
  Br  Br0  1  0.00664170  0.60841101  0.17542109  1
  Br  Br1  1  0.39237160  0.99301865  0.82304240  1
  Br  Br2  1  0.82067915  0.82171101  0.16735100  1
  Br  Br3  1  0.17892715  0.17911829  0.83254860  1
  Br  Br4  1  0.62010441  0.41442275  0.18149254  1
  Br  Br5  1  0.58665574  0.37974028  0.81765377  1
  Br  Br6  1  0.37928847  0.58602212  0.81833618  1
  Br  Br7  1  0.41306167  0.62085176  0.18210891  1
  Br  Br8  1  0.30219009  0.09349673  0.51382073  1
  Br  Br9  1  0.90680722  0.69789241  0.48555882  1
  Br  Br10  1  0.69719971  0.90724433  0.48592598  1
  Br  Br11  1  0.09242699  0.30245525  0.51440051  1
  Br  Br12  1  0.29174053  0.70834819  0.50028514  1
  Br  Br13  1  0.70800676  0.29258705  0.49910044  1
  Br  Br14  1  0.77386411  0.77438708  0.79011763  1
  Br  Br15  1  0.22508260  0.22601718  0.20993225  1
  Br  Br16  1  0.60714940  0.00740882  0.17606845  1
  Br  Br17  1  0.99248908  0.39243057  0.82365196  1
loop_
_geom_bond_atom_site_label_1
_geom_bond_atom_site_label_2
_geom_bond_distance
_geom_bond_site_symmetry_2
Nb0 Nb1 2.967506 1_555
Nb0 Nb3 2.969423 1_555
Nb0 Nb4 2.976185 1_555
Nb0 Nb5 2.979333 1_555
Nb1 Nb2 2.968496 1_555
Nb1 Nb5 2.976904 1_555
Nb1 Nb4 2.979125 1_555
Nb2 Nb3 2.968116 1_555
Nb2 Nb5 2.976916 1_555
Nb2 Nb4 2.979377 1_555
Nb3 Nb4 2.976370 1_555
Nb3 Nb5 2.978641 1_555
Br0 Nb1 2.871461 1_455
Br0 K1 3.244949 1_455
Br0 K2 3.254102 1_555
Br0 K3 3.299841 1_554
Br0 Br4 3.494655 1_455
Br0 Br2 3.508287 1_455
Br0 Br13 3.524746 1_455
Br0 Br9 3.533248 1_455
Br1 Nb0 2.873074 1_565
Br1 K0 3.240613 1_565
Br1 K3 3.255467 1_555
Br1 K2 3.305208 1_556
Br1 Br5 3.499426 1_565
Br1 Br3 3.510840 1_565
Br1 Br13 3.527874 1_565
Br1 Br8 3.530408 1_565
Br2 Nb2 2.624978 1_555
Br2 Nb1 2.625471 1_555
Br2 Br9 3.643635 1_555
Br2 Br4 3.654723 1_555
Br2 Br7 3.655081 1_555
Br2 K1 4.175677 1_565
Br2 K2 4.178189 1_655
Br3 Nb3 2.625953 1_555
Br3 Nb0 2.626191 1_555
Br3 Br8 3.643902 1_555
Br3 Br6 3.650984 1_555
Br3 Br5 3.655562 1_555
Br3 K0 4.180577 1_455
Br3 K3 4.180887 1_545
Br4 Nb1 2.609169 1_555
Br4 Nb5 2.613081 1_555
Br4 Br7 3.630501 1_555
Br4 Br8 3.638533 1_555
Br4 K3 4.192543 1_654
Br5 Nb0 2.609942 1_555
Br5 Nb4 2.613830 1_555
Br5 Br6 3.632060 1_555
Br5 Br9 3.635668 1_555
Br5 K2 4.189880 1_546
Br6 Nb3 2.609107 1_555
Br6 Nb4 2.612374 1_555
Br6 K1 4.187856 1_456
Br7 Nb2 2.608542 1_555
Br7 Nb5 2.611972 1_555
Br7 K0 4.201210 1_564
Br8 Nb5 2.625034 1_555
Br8 Nb0 2.626657 1_555
Br8 K3 3.619314 1_545
Br8 K2 4.098244 1_545
Br9 Nb4 2.625712 1_555
Br9 Nb1 2.626946 1_555
Br9 K2 3.620309 1_655
Br9 K3 4.091639 1_655
Br10 Nb4 2.626157 1_555
Br10 Nb2 2.626845 1_555
Br10 Br14 3.490899 1_555
Br10 Br16 3.534577 1_565
Br10 K1 3.622947 1_565
Br10 Br12 3.636591 1_555
Br10 Br6 3.639843 1_555
Br10 Br2 3.642620 1_555
Br10 Br9 3.678683 1_555
Br10 K0 4.087144 1_565
Br11 Nb5 2.626385 1_555
Br11 Nb3 2.627283 1_555
Br11 Br15 3.491584 1_555
Br11 Br17 3.528552 1_455
Br11 K0 3.606828 1_455
Br11 Br7 3.638841 1_555
Br11 Br12 3.641992 1_555
Br11 Br3 3.644067 1_555
Br11 Br8 3.676597 1_555
Br11 K1 4.100597 1_455
Br12 Nb2 2.626944 1_555
Br12 Nb3 2.628103 1_555
Br12 Br17 3.524866 1_455
Br12 Br16 3.527392 1_565
Br12 Br7 3.645275 1_555
Br12 Br6 3.646875 1_555
Br12 K3 3.805825 1_555
Br12 K2 3.821326 1_555
Br13 Nb1 2.626856 1_555
Br13 Nb0 2.628039 1_555
Br13 Br9 3.638532 1_555
Br13 Br8 3.638635 1_555
Br13 Br4 3.643846 1_555
Br13 Br5 3.646550 1_555
Br13 K1 3.809992 1_555
Br13 K0 3.811899 1_555
Br14 Nb4 2.819086 1_555
Br14 K3 3.180904 1_655
Br14 K0 3.181734 1_565
Br14 Br6 3.493572 1_555
Br14 Br9 3.493600 1_555
Br14 Br5 3.496856 1_555
Br15 Nb5 2.819412 1_555
Br15 K1 3.180348 1_455
Br15 K2 3.183587 1_545
Br15 Br8 3.489977 1_555
Br15 Br4 3.496970 1_555
Br15 Br7 3.497678 1_555
Br16 Nb2 2.872914 1_545
Br16 K2 3.241125 1_545
Br16 K1 3.254563 1_555
Br16 K0 3.311873 1_554
Br16 Br7 3.495543 1_545
Br16 Br2 3.508071 1_545
Br17 Nb3 2.872318 1_655
Br17 K3 3.240922 1_655
Br17 K0 3.251168 1_555
Br17 K1 3.299124 1_556
Br17 Br6 3.499540 1_655
Br17 Br3 3.512550 1_655
