# generated using pymatgen
data_CsNb(CuS2)2
_symmetry_space_group_name_H-M   'P 1'
_cell_length_a   10.15001808
_cell_length_b   10.15001839
_cell_length_c   7.59879219
_cell_angle_alpha   90.00000000
_cell_angle_beta   90.00000000
_cell_angle_gamma   148.23046089
_symmetry_Int_Tables_number   1
_chemical_formula_structural   CsNb(CuS2)2
_chemical_formula_sum   'Cs2 Nb2 Cu4 S8'
_cell_volume   412.17323810
_cell_formula_units_Z   2
loop_
 _symmetry_equiv_pos_site_id
 _symmetry_equiv_pos_as_xyz
  1  'x, y, z'
loop_
 _atom_site_type_symbol
 _atom_site_label
 _atom_site_symmetry_multiplicity
 _atom_site_fract_x
 _atom_site_fract_y
 _atom_site_fract_z
 _atom_site_occupancy
  Cs  Cs0  1  0.16581551  0.52901147  0.75000000  1
  Cs  Cs1  1  0.52901147  0.16581551  0.25000000  1
  Nb  Nb0  1  0.70939671  0.50102761  0.75000000  1
  Nb  Nb1  1  0.50102761  0.70939671  0.25000000  1
  Cu  Cu0  1  0.61944645  0.61944645  0.50000000  1
  Cu  Cu1  1  0.00866283  0.20136718  0.25000000  1
  Cu  Cu2  1  0.20136718  0.00866283  0.75000000  1
  Cu  Cu3  1  0.61944645  0.61944645  0.00000000  1
  S  S0  1  0.75340974  0.94994018  0.00552920  1
  S  S1  1  0.37641820  0.36729027  0.75000000  1
  S  S2  1  0.36729027  0.37641820  0.25000000  1
  S  S3  1  0.94994018  0.75340974  0.50552920  1
  S  S4  1  0.53871374  0.14850473  0.75000000  1
  S  S5  1  0.94994018  0.75340974  0.99447080  1
  S  S6  1  0.14850473  0.53871374  0.25000000  1
  S  S7  1  0.75340974  0.94994018  0.49447080  1
loop_
_geom_bond_atom_site_label_1
_geom_bond_atom_site_label_2
_geom_bond_distance
_geom_bond_site_symmetry_2
Cs0 S1 3.637322 1_555
Cs0 S4 3.660087 1_565
Cs0 S4 3.692035 1_455
Cs0 S0 3.742245 1_446
Cs0 S7 3.742245 1_445
Cs0 S0 3.777236 1_556
Cs0 S7 3.777236 1_555
Cs0 S6 3.808596 1_555
Cs0 S6 3.808596 1_556
Cs1 S2 3.637322 1_555
Cs1 S6 3.660087 1_655
Cs1 S6 3.692035 1_545
Cs1 S3 3.742245 1_445
Cs1 S5 3.742245 1_444
Cs1 S3 3.777236 1_555
Cs1 S5 3.777236 1_554
Cs1 S4 3.808596 1_555
Cs1 S4 3.808596 1_554
Nb0 S4 2.294350 1_555
Nb0 S5 2.310754 1_555
Nb0 S3 2.310754 1_555
Nb0 S1 2.337617 1_555
Nb1 S6 2.294350 1_555
Nb1 S7 2.310754 1_555
Nb1 S0 2.310754 1_555
Nb1 S2 2.337617 1_555
Cu0 S3 2.312518 1_555
Cu0 S7 2.312518 1_555
Cu0 S2 2.347182 1_555
Cu0 S1 2.347182 1_555
Cu0 Nb1 2.784427 1_555
Cu0 Nb0 2.784427 1_555
Cu1 S2 2.325928 1_555
Cu1 S7 2.331037 1_445
Cu1 S0 2.331037 1_445
Cu1 S6 2.339890 1_555
Cu1 Nb1 2.781208 1_445
Cu1 Nb1 2.783396 1_555
Cu2 S1 2.325928 1_555
Cu2 S5 2.331037 1_445
Cu2 S3 2.331037 1_445
Cu2 S4 2.339890 1_555
Cu2 Nb0 2.781208 1_445
Cu2 Nb0 2.783396 1_555
Cu3 S5 2.312518 1_554
Cu3 S0 2.312518 1_555
Cu3 S2 2.347182 1_555
Cu3 S1 2.347182 1_554
Cu3 Nb1 2.784427 1_555
Cu3 Nb0 2.784427 1_554
