# generated using pymatgen
data_KTcS2O9
_symmetry_space_group_name_H-M   'P 1'
_cell_length_a   5.10942604
_cell_length_b   8.13848747
_cell_length_c   8.69776484
_cell_angle_alpha   79.13711933
_cell_angle_beta   90.00000000
_cell_angle_gamma   90.00000000
_symmetry_Int_Tables_number   1
_chemical_formula_structural   KTcS2O9
_chemical_formula_sum   'K2 Tc2 S4 O18'
_cell_volume   355.19822959
_cell_formula_units_Z   2
loop_
 _symmetry_equiv_pos_site_id
 _symmetry_equiv_pos_as_xyz
  1  'x, y, z'
loop_
 _atom_site_type_symbol
 _atom_site_label
 _atom_site_symmetry_multiplicity
 _atom_site_fract_x
 _atom_site_fract_y
 _atom_site_fract_z
 _atom_site_occupancy
  K  K0  1  0.25000000  0.43182493  0.22506783  1
  K  K1  1  0.75000000  0.56817507  0.77493217  1
  Tc  Tc0  1  0.25000000  0.92227886  0.26111264  1
  Tc  Tc1  1  0.75000000  0.07772114  0.73888736  1
  S  S0  1  0.25000000  0.31980862  0.65129727  1
  S  S1  1  0.75000000  0.68019138  0.34870273  1
  S  S2  1  0.25000000  0.83818999  0.88933108  1
  S  S3  1  0.75000000  0.16181001  0.11066892  1
  O  O0  1  0.25000000  0.24460686  0.51483091  1
  O  O1  1  0.75000000  0.75539314  0.48516909  1
  O  O2  1  0.25000000  0.49974355  0.62780058  1
  O  O3  1  0.75000000  0.50025645  0.37219942  1
  O  O4  1  0.01077511  0.26183269  0.75279219  1
  O  O5  1  0.51077511  0.73816731  0.24720781  1
  O  O6  1  0.98922489  0.73816731  0.24720781  1
  O  O7  1  0.48922489  0.26183269  0.75279219  1
  O  O8  1  0.25000000  0.93818744  0.01336504  1
  O  O9  1  0.75000000  0.06181256  0.98663496  1
  O  O10  1  0.25000000  0.66052055  0.94350845  1
  O  O11  1  0.75000000  0.33947945  0.05649155  1
  O  O12  1  0.01016866  0.88253980  0.79076160  1
  O  O13  1  0.51016866  0.11746020  0.20923840  1
  O  O14  1  0.98983134  0.11746020  0.20923840  1
  O  O15  1  0.48983134  0.88253980  0.79076160  1
  O  O16  1  0.25000000  0.89524985  0.44889721  1
  O  O17  1  0.75000000  0.10475015  0.55110279  1
loop_
_geom_bond_atom_site_label_1
_geom_bond_atom_site_label_2
_geom_bond_distance
_geom_bond_site_symmetry_2
K0 O0 2.688129 1_555
K0 O10 2.782711 1_554
K0 O5 2.865175 1_555
K0 O6 2.865175 1_455
K0 O13 2.909378 1_555
K0 O14 2.909378 1_455
K0 O3 2.956862 1_555
K0 O3 2.956862 1_455
K0 O11 3.107505 1_455
K0 O11 3.107505 1_555
K1 O1 2.688129 1_555
K1 O11 2.782711 1_556
K1 O4 2.865175 1_655
K1 O7 2.865175 1_555
K1 O12 2.909378 1_655
K1 O15 2.909378 1_555
K1 O2 2.956862 1_555
K1 O2 2.956862 1_655
K1 O10 3.107505 1_655
K1 O10 3.107505 1_555
O0 S0 1.434310 1_555
O1 S1 1.434310 1_555
O2 S0 1.439939 1_555
O3 S1 1.439939 1_555
O4 S0 1.529364 1_555
O4 Tc1 2.025690 1_455
O5 S1 1.529364 1_555
O5 Tc0 2.025690 1_555
O6 S1 1.529364 1_555
O6 Tc0 2.025690 1_655
O7 S0 1.529364 1_555
O7 Tc1 2.025690 1_555
O8 S2 1.468703 1_554
O8 Tc0 2.134241 1_555
O9 S3 1.468703 1_556
O9 Tc1 2.134241 1_555
O10 S2 1.433887 1_555
O11 S3 1.433887 1_555
O12 S2 1.500090 1_555
O12 Tc1 2.055183 1_465
O13 S3 1.500090 1_555
O13 Tc0 2.055183 1_545
O14 S3 1.500090 1_555
O14 Tc0 2.055183 1_645
O15 S2 1.500090 1_555
O15 Tc1 2.055183 1_565
O16 Tc0 1.606442 1_555
O17 Tc1 1.606442 1_555
