# generated using pymatgen
data_LiTa3N4
_symmetry_space_group_name_H-M   'P 1'
_cell_length_a   5.19108157
_cell_length_b   9.00025221
_cell_length_c   10.38062492
_cell_angle_alpha   90.00000000
_cell_angle_beta   90.00000000
_cell_angle_gamma   90.00000000
_symmetry_Int_Tables_number   1
_chemical_formula_structural   LiTa3N4
_chemical_formula_sum   'Li6 Ta18 N24'
_cell_volume   484.99362712
_cell_formula_units_Z   6
loop_
 _symmetry_equiv_pos_site_id
 _symmetry_equiv_pos_as_xyz
  1  'x, y, z'
loop_
 _atom_site_type_symbol
 _atom_site_label
 _atom_site_symmetry_multiplicity
 _atom_site_fract_x
 _atom_site_fract_y
 _atom_site_fract_z
 _atom_site_occupancy
  Li  Li0  1  -0.00000000  0.00694722  0.50000000  1
  Li  Li1  1  -0.00000000  0.67193558  0.00000000  1
  Li  Li2  1  -0.00000000  0.98749414  0.00000000  1
  Li  Li3  1  0.50000000  0.50694722  0.00000000  1
  Li  Li4  1  0.50000000  0.48749414  0.50000000  1
  Li  Li5  1  0.50000000  0.17193558  0.50000000  1
  Ta  Ta0  1  0.15974362  0.83460086  0.75279893  1
  Ta  Ta1  1  0.32908268  0.00169899  0.25221053  1
  Ta  Ta2  1  0.50000000  0.81743062  0.00000000  1
  Ta  Ta3  1  0.50000000  0.85118422  0.50000000  1
  Ta  Ta4  1  0.66619721  0.66381393  0.75085637  1
  Ta  Ta5  1  0.65974362  0.33460086  0.74720107  1
  Ta  Ta6  1  0.67091732  0.00169899  0.74778947  1
  Ta  Ta7  1  0.82908268  0.50169899  0.24778947  1
  Ta  Ta8  1  0.84025638  0.83460086  0.24720107  1
  Ta  Ta9  1  -0.00000000  0.66305384  0.50000000  1
  Ta  Ta10  1  -0.00000000  0.35118422  0.00000000  1
  Ta  Ta11  1  -0.00000000  0.31743062  0.50000000  1
  Ta  Ta12  1  0.16619721  0.16381393  0.74914363  1
  Ta  Ta13  1  0.17091732  0.50169899  0.75221053  1
  Ta  Ta14  1  0.33380279  0.66381393  0.24914363  1
  Ta  Ta15  1  0.34025638  0.33460086  0.25279893  1
  Ta  Ta16  1  0.50000000  0.16305384  0.00000000  1
  Ta  Ta17  1  0.83380279  0.16381393  0.25085637  1
  N  N0  1  0.17755579  0.83234341  0.12247691  1
  N  N1  1  0.33492981  0.66910750  0.87884813  1
  N  N2  1  0.33458844  0.99851169  0.62110392  1
  N  N3  1  0.66312444  0.99824517  0.11896262  1
  N  N4  1  0.66833192  0.66989736  0.38072526  1
  N  N5  1  0.66507019  0.66910750  0.12115187  1
  N  N6  1  0.83150829  0.83275829  0.61844675  1
  N  N7  1  0.82244421  0.83234341  0.87752309  1
  N  N8  1  0.83492981  0.16910750  0.62115187  1
  N  N9  1  0.83166808  0.16989736  0.88072526  1
  N  N10  1  0.83458844  0.49851169  0.87889608  1
  N  N11  1  0.83687556  0.49824517  0.61896262  1
  N  N12  1  0.16312444  0.49824517  0.38103738  1
  N  N13  1  0.16541156  0.49851169  0.12110392  1
  N  N14  1  0.16849171  0.83275829  0.38155325  1
  N  N15  1  0.16833192  0.16989736  0.11927474  1
  N  N16  1  0.16507019  0.16910750  0.37884813  1
  N  N17  1  0.33166808  0.66989736  0.61927474  1
  N  N18  1  0.32244421  0.33234341  0.62247691  1
  N  N19  1  0.33150829  0.33275829  0.88155325  1
  N  N20  1  0.33687556  0.99824517  0.88103738  1
  N  N21  1  0.66541156  0.99851169  0.37889608  1
  N  N22  1  0.67755579  0.33234341  0.37752309  1
  N  N23  1  0.66849171  0.33275829  0.11844675  1
loop_
_geom_bond_atom_site_label_1
_geom_bond_atom_site_label_2
_geom_bond_distance
_geom_bond_site_symmetry_2
Li0 N16 2.108553 1_555
Li0 N8 2.108553 1_455
Li0 N21 2.145434 1_445
Li0 N2 2.145434 1_545
Li0 N14 2.175922 1_545
Li0 N6 2.175922 1_445
Li1 N7 2.133136 1_454
Li1 N0 2.133136 1_555
Li1 N1 2.145969 1_554
Li1 N5 2.145969 1_455
Li1 N10 2.180361 1_454
Li1 N13 2.180361 1_555
Li2 N7 2.101402 1_454
Li2 N0 2.101402 1_555
Li2 N3 2.143007 1_455
Li2 N20 2.143007 1_554
Li2 N9 2.234205 1_464
Li2 N15 2.234205 1_565
Li3 N1 2.108553 1_554
Li3 N5 2.108553 1_555
Li3 N10 2.145434 1_554
Li3 N13 2.145434 1_555
Li3 N23 2.175922 1_555
Li3 N19 2.175922 1_554
Li4 N22 2.101402 1_555
Li4 N18 2.101402 1_555
Li4 N12 2.143007 1_555
Li4 N11 2.143007 1_555
Li4 N4 2.234205 1_555
Li4 N17 2.234205 1_555
Li5 N22 2.133136 1_555
Li5 N18 2.133136 1_555
Li5 N16 2.145969 1_555
Li5 N8 2.145969 1_555
Li5 N21 2.180361 1_545
Li5 N2 2.180361 1_545
N0 Ta2 2.106219 1_555
N0 Ta14 2.165060 1_555
N0 Ta8 2.177733 1_455
N0 Ta1 2.180753 1_565
N1 Ta2 2.024348 1_556
N1 Ta13 2.173293 1_555
N1 Ta4 2.173635 1_555
N1 Ta0 2.181208 1_555
N2 Ta3 2.018892 1_555
N2 Ta12 2.178104 1_565
N2 Ta6 2.185967 1_565
N2 Ta0 2.206587 1_555
N3 Ta16 2.107674 1_565
N3 Ta8 2.187883 1_555
N3 Ta17 2.209101 1_565
N3 Ta2 2.211426 1_555
N3 Ta1 2.218352 1_565
N4 Ta9 2.121581 1_655
N4 Ta14 2.210056 1_555
N4 Ta7 2.211853 1_555
N4 Ta8 2.217006 1_555
N4 Ta3 2.226833 1_555
N5 Ta2 2.024348 1_555
N5 Ta7 2.173293 1_555
N5 Ta14 2.173635 1_555
N5 Ta8 2.181208 1_555
N6 Ta3 2.121497 1_555
N6 Ta9 2.147025 1_655
N6 Ta6 2.193088 1_565
N6 Ta0 2.201957 1_655
N6 Ta4 2.222092 1_555
N7 Ta2 2.106219 1_556
N7 Ta4 2.165060 1_555
N7 Ta0 2.177733 1_655
N7 Ta6 2.180753 1_565
N8 Ta11 2.024348 1_655
N8 Ta6 2.173293 1_555
N8 Ta12 2.173635 1_655
N8 Ta5 2.181208 1_555
N9 Ta16 2.121581 1_556
N9 Ta12 2.210056 1_655
N9 Ta6 2.211853 1_555
N9 Ta5 2.217006 1_555
N9 Ta10 2.226833 1_656
N10 Ta10 2.018892 1_656
N10 Ta4 2.178104 1_555
N10 Ta13 2.185967 1_655
N10 Ta5 2.206587 1_555
N11 Ta9 2.107674 1_655
N11 Ta5 2.187883 1_555
N11 Ta4 2.209101 1_555
N11 Ta11 2.211426 1_655
N11 Ta13 2.218352 1_655
N12 Ta9 2.107674 1_555
N12 Ta15 2.187883 1_555
N12 Ta14 2.209101 1_555
N12 Ta11 2.211426 1_555
N12 Ta7 2.218352 1_455
N13 Ta10 2.018892 1_555
N13 Ta14 2.178104 1_555
N13 Ta7 2.185967 1_455
N13 Ta15 2.206587 1_555
N14 Ta3 2.121497 1_555
N14 Ta9 2.147025 1_555
N14 Ta1 2.193088 1_565
N14 Ta8 2.201957 1_455
N14 Ta14 2.222092 1_555
N15 Ta16 2.121581 1_555
N15 Ta17 2.210056 1_455
N15 Ta1 2.211853 1_555
N15 Ta15 2.217006 1_555
N15 Ta10 2.226833 1_555
N16 Ta11 2.024348 1_555
N16 Ta1 2.173293 1_555
N16 Ta17 2.173635 1_455
N16 Ta15 2.181208 1_555
N17 Ta9 2.121581 1_555
N17 Ta4 2.210056 1_555
N17 Ta13 2.211853 1_555
N17 Ta0 2.217006 1_555
N17 Ta3 2.226833 1_555
N18 Ta11 2.106219 1_555
N18 Ta12 2.165060 1_555
N18 Ta5 2.177733 1_555
N18 Ta13 2.180753 1_555
N19 Ta10 2.121497 1_556
N19 Ta16 2.147025 1_556
N19 Ta13 2.193088 1_555
N19 Ta5 2.201957 1_555
N19 Ta12 2.222092 1_555
N20 Ta16 2.107674 1_566
N20 Ta0 2.187883 1_555
N20 Ta12 2.209101 1_565
N20 Ta2 2.211426 1_556
N20 Ta6 2.218352 1_565
N21 Ta3 2.018892 1_555
N21 Ta17 2.178104 1_565
N21 Ta1 2.185967 1_565
N21 Ta8 2.206587 1_555
N22 Ta11 2.106219 1_655
N22 Ta17 2.165060 1_555
N22 Ta15 2.177733 1_555
N22 Ta7 2.180753 1_555
N23 Ta10 2.121497 1_655
N23 Ta16 2.147025 1_555
N23 Ta7 2.193088 1_555
N23 Ta15 2.201957 1_555
N23 Ta17 2.222092 1_555
