# generated using pymatgen
data_RbTcAs2Rh
_symmetry_space_group_name_H-M   'P 1'
_cell_length_a   15.02073807
_cell_length_b   15.02073726
_cell_length_c   15.02073753
_cell_angle_alpha   148.24467733
_cell_angle_beta   148.24467224
_cell_angle_gamma   45.52430599
_symmetry_Int_Tables_number   1
_chemical_formula_structural   RbTcAs2Rh
_chemical_formula_sum   'Rb8 Tc8 As16 Rh8'
_cell_volume   935.62732809
_cell_formula_units_Z   8
loop_
 _symmetry_equiv_pos_site_id
 _symmetry_equiv_pos_as_xyz
  1  'x, y, z'
loop_
 _atom_site_type_symbol
 _atom_site_label
 _atom_site_symmetry_multiplicity
 _atom_site_fract_x
 _atom_site_fract_y
 _atom_site_fract_z
 _atom_site_occupancy
  Rb  Rb0_0  1  0.00000000  0.00000000  0.00000000  1
  Rb  Rb0_1  1  0.00000000  0.00000000  0.50000000  1
  Rb  Rb0_2  1  0.00000000  0.50000000  0.00000000  1
  Rb  Rb0_3  1  0.00000000  0.50000000  0.50000000  1
  Rb  Rb0_4  1  0.50000000  0.00000000  0.00000000  1
  Rb  Rb0_5  1  0.50000000  0.00000000  0.50000000  1
  Rb  Rb0_6  1  0.50000000  0.50000000  1.00000000  1
  Rb  Rb0_7  1  0.50000000  0.50000000  0.50000000  1
  Tc  Tc0_0  1  0.37500000  0.12500000  0.25000000  1
  Tc  Tc0_1  1  0.37500000  0.12500000  0.75000000  1
  Tc  Tc0_2  1  0.37500000  0.62500000  0.25000000  1
  Tc  Tc0_3  1  0.37500000  0.62500000  0.75000000  1
  Tc  Tc0_4  1  0.87500000  0.12500000  0.25000000  1
  Tc  Tc0_5  1  0.87500000  0.12500000  0.75000000  1
  Tc  Tc0_6  1  0.87500000  0.62500000  0.25000000  1
  Tc  Tc0_7  1  0.87500000  0.62500000  0.75000000  1
  As  As0_0  1  0.17176234  0.17176234  0.00000000  1
  As  As0_1  1  0.17176234  0.17176234  0.50000000  1
  As  As0_2  1  0.17176234  0.67176234  0.00000000  1
  As  As0_3  1  0.17176234  0.67176234  0.50000000  1
  As  As0_4  1  0.67176234  0.17176234  0.00000000  1
  As  As0_5  1  0.67176234  0.17176234  0.50000000  1
  As  As0_6  1  0.67176234  0.67176234  0.00000000  1
  As  As0_7  1  0.67176234  0.67176234  0.50000000  1
  As  As1_0  1  0.32823766  0.32823766  0.50000000  1
  As  As1_1  1  0.32823766  0.32823766  1.00000000  1
  As  As1_2  1  0.32823766  0.82823766  0.50000000  1
  As  As1_3  1  0.32823766  0.82823766  1.00000000  1
  As  As1_4  1  0.82823766  0.32823766  0.50000000  1
  As  As1_5  1  0.82823766  0.32823766  1.00000000  1
  As  As1_6  1  0.82823766  0.82823766  0.50000000  1
  As  As1_7  1  0.82823766  0.82823766  1.00000000  1
  Rh  Rh0_0  1  0.12500000  0.37500000  0.25000000  1
  Rh  Rh0_1  1  0.12500000  0.37500000  0.75000000  1
  Rh  Rh0_2  1  0.12500000  0.87500000  0.25000000  1
  Rh  Rh0_3  1  0.12500000  0.87500000  0.75000000  1
  Rh  Rh0_4  1  0.62500000  0.37500000  0.25000000  1
  Rh  Rh0_5  1  0.62500000  0.37500000  0.75000000  1
  Rh  Rh0_6  1  0.62500000  0.87500000  0.25000000  1
  Rh  Rh0_7  1  0.62500000  0.87500000  0.75000000  1
loop_
_geom_bond_atom_site_label_1
_geom_bond_atom_site_label_2
_geom_bond_distance
_geom_bond_site_symmetry_2
Rb0_0 Rb0_3 4.109437 1_555
Rb0_0 Rb0_3 4.109437 1_544
Rb0_0 Rb0_5 4.109438 1_454
Rb0_0 Rb0_5 4.109438 1_555
Rb0_1 Rb0_2 4.109437 1_556
Rb0_1 Rb0_2 4.109437 1_545
Rb0_1 Rb0_4 4.109438 1_556
Rb0_1 Rb0_4 4.109438 1_455
Rb0_2 Rb0_7 4.109438 1_555
Rb0_2 Rb0_7 4.109438 1_454
Rb0_3 Rb0_6 4.109438 1_555
Rb0_3 Rb0_6 4.109438 1_454
Rb0_4 Rb0_7 4.109437 1_555
Rb0_4 Rb0_7 4.109437 1_544
Rb0_5 Rb0_6 4.109437 1_555
Rb0_5 Rb0_6 4.109437 1_544
As0_0 Rh0_3 2.428978 1_544
As0_0 Rh0_0 2.428978 1_555
As0_0 Tc0_0 2.428978 1_555
As0_0 Tc0_5 2.428978 1_454
As0_0 Rb0_2 3.625056 1_555
As0_0 Rb0_1 3.625057 1_554
As0_0 Rb0_7 3.625057 1_555
As0_0 Rb0_4 3.625057 1_555
As0_1 Rh0_2 2.428978 1_545
As0_1 Rh0_1 2.428978 1_555
As0_1 Tc0_1 2.428978 1_555
As0_1 Tc0_4 2.428978 1_455
As0_1 Rb0_3 3.625056 1_555
As0_1 Rb0_0 3.625057 1_555
As0_1 Rb0_6 3.625057 1_555
As0_1 Rb0_5 3.625057 1_555
As0_2 Rh0_1 2.428978 1_554
As0_2 Rh0_2 2.428978 1_555
As0_2 Tc0_2 2.428978 1_555
As0_2 Tc0_7 2.428978 1_454
As0_2 Rb0_0 3.625056 1_565
As0_2 Rb0_3 3.625057 1_554
As0_2 Rb0_5 3.625057 1_565
As0_2 Rb0_6 3.625057 1_554
As0_3 Rh0_0 2.428978 1_555
As0_3 Rh0_3 2.428978 1_555
As0_3 Tc0_3 2.428978 1_555
As0_3 Tc0_6 2.428978 1_455
As0_3 Rb0_1 3.625056 1_565
As0_3 Rb0_2 3.625057 1_555
As0_3 Rb0_4 3.625057 1_566
As0_3 Rb0_7 3.625057 1_555
As0_4 Rh0_7 2.428978 1_544
As0_4 Rh0_4 2.428978 1_555
As0_4 Tc0_4 2.428978 1_555
As0_4 Tc0_1 2.428978 1_554
As0_4 Rb0_6 3.625056 1_554
As0_4 Rb0_5 3.625057 1_554
As0_4 Rb0_3 3.625057 1_655
As0_4 Rb0_0 3.625057 1_655
As0_5 Rh0_6 2.428978 1_545
As0_5 Rh0_5 2.428978 1_555
As0_5 Tc0_5 2.428978 1_555
As0_5 Tc0_0 2.428978 1_555
As0_5 Rb0_7 3.625056 1_555
As0_5 Rb0_4 3.625057 1_555
As0_5 Rb0_2 3.625057 1_656
As0_5 Rb0_1 3.625057 1_655
As0_6 Rh0_5 2.428978 1_554
As0_6 Rh0_6 2.428978 1_555
As0_6 Tc0_6 2.428978 1_555
As0_6 Tc0_3 2.428978 1_554
As0_6 Rb0_4 3.625056 1_565
As0_6 Rb0_7 3.625057 1_554
As0_6 Rb0_1 3.625057 1_665
As0_6 Rb0_2 3.625057 1_655
As0_7 Rh0_4 2.428978 1_555
As0_7 Rh0_7 2.428978 1_555
As0_7 Tc0_7 2.428978 1_555
As0_7 Tc0_2 2.428978 1_555
As0_7 Rb0_5 3.625056 1_565
As0_7 Rb0_6 3.625057 1_554
As0_7 Rb0_0 3.625057 1_666
As0_7 Rb0_3 3.625057 1_655
As1_0 Tc0_3 2.428978 1_555
As1_0 Tc0_0 2.428978 1_555
As1_0 Rh0_0 2.428978 1_555
As1_0 Rh0_5 2.428978 1_555
As1_0 Rb0_5 3.625056 1_555
As1_0 Rb0_6 3.625057 1_555
As1_0 Rb0_0 3.625057 1_555
As1_0 Rb0_3 3.625057 1_555
As1_1 Tc0_2 2.428978 1_556
As1_1 Tc0_1 2.428978 1_555
As1_1 Rh0_1 2.428978 1_555
As1_1 Rh0_4 2.428978 1_556
As1_1 Rb0_4 3.625056 1_556
As1_1 Rb0_7 3.625057 1_556
As1_1 Rb0_1 3.625057 1_555
As1_1 Rb0_2 3.625057 1_556
As1_2 Tc0_1 2.428978 1_565
As1_2 Tc0_2 2.428978 1_555
As1_2 Rh0_2 2.428978 1_555
As1_2 Rh0_7 2.428978 1_555
As1_2 Rb0_7 3.625056 1_555
As1_2 Rb0_4 3.625057 1_566
As1_2 Rb0_2 3.625057 1_555
As1_2 Rb0_1 3.625057 1_565
As1_3 Tc0_0 2.428978 1_566
As1_3 Tc0_3 2.428978 1_555
As1_3 Rh0_3 2.428978 1_555
As1_3 Rh0_6 2.428978 1_556
As1_3 Rb0_6 3.625056 1_555
As1_3 Rb0_5 3.625057 1_566
As1_3 Rb0_3 3.625057 1_555
As1_3 Rb0_0 3.625057 1_566
As1_4 Tc0_7 2.428978 1_555
As1_4 Tc0_4 2.428978 1_555
As1_4 Rh0_4 2.428978 1_555
As1_4 Rh0_1 2.428978 1_655
As1_4 Rb0_1 3.625056 1_655
As1_4 Rb0_2 3.625057 1_656
As1_4 Rb0_4 3.625057 1_555
As1_4 Rb0_7 3.625057 1_555
As1_5 Tc0_6 2.428978 1_556
As1_5 Tc0_5 2.428978 1_555
As1_5 Rh0_5 2.428978 1_555
As1_5 Rh0_0 2.428978 1_656
As1_5 Rb0_0 3.625056 1_656
As1_5 Rb0_3 3.625057 1_656
As1_5 Rb0_5 3.625057 1_555
As1_5 Rb0_6 3.625057 1_555
As1_6 Tc0_5 2.428978 1_565
As1_6 Tc0_6 2.428978 1_555
As1_6 Rh0_6 2.428978 1_555
As1_6 Rh0_3 2.428978 1_655
As1_6 Rb0_3 3.625056 1_655
As1_6 Rb0_0 3.625057 1_666
As1_6 Rb0_6 3.625057 1_554
As1_6 Rb0_5 3.625057 1_565
As1_7 Tc0_4 2.428978 1_566
As1_7 Tc0_7 2.428978 1_555
As1_7 Rh0_7 2.428978 1_555
As1_7 Rh0_2 2.428978 1_656
As1_7 Rb0_2 3.625056 1_656
As1_7 Rb0_1 3.625057 1_666
As1_7 Rb0_7 3.625057 1_555
As1_7 Rb0_4 3.625057 1_566
Rh0_0 Tc0_5 2.905811 1_454
Rh0_0 Tc0_3 2.905811 1_555
Rh0_0 Tc0_0 2.905811 1_555
Rh0_0 Tc0_6 2.905811 1_455
Rh0_1 Tc0_2 2.905811 1_556
Rh0_1 Tc0_4 2.905811 1_455
Rh0_1 Tc0_1 2.905811 1_555
Rh0_1 Tc0_7 2.905811 1_455
Rh0_2 Tc0_7 2.905811 1_454
Rh0_2 Tc0_1 2.905811 1_565
Rh0_2 Tc0_2 2.905811 1_555
Rh0_2 Tc0_4 2.905811 1_465
Rh0_3 Tc0_0 2.905811 1_566
Rh0_3 Tc0_6 2.905811 1_455
Rh0_3 Tc0_3 2.905811 1_555
Rh0_3 Tc0_5 2.905811 1_465
Rh0_4 Tc0_1 2.905811 1_554
Rh0_4 Tc0_7 2.905811 1_555
Rh0_4 Tc0_2 2.905811 1_555
Rh0_4 Tc0_4 2.905811 1_555
Rh0_5 Tc0_6 2.905811 1_556
Rh0_5 Tc0_0 2.905811 1_555
Rh0_5 Tc0_3 2.905811 1_555
Rh0_5 Tc0_5 2.905811 1_555
Rh0_6 Tc0_3 2.905811 1_554
Rh0_6 Tc0_5 2.905811 1_565
Rh0_6 Tc0_6 2.905811 1_555
Rh0_6 Tc0_0 2.905811 1_565
Rh0_7 Tc0_4 2.905811 1_566
Rh0_7 Tc0_2 2.905811 1_555
Rh0_7 Tc0_7 2.905811 1_555
Rh0_7 Tc0_1 2.905811 1_565
