# generated using pymatgen
data_Hf3Al2PdC
_symmetry_space_group_name_H-M   'P 1'
_cell_length_a   8.56801861
_cell_length_b   8.56800256
_cell_length_c   8.56802647
_cell_angle_alpha   59.99997554
_cell_angle_beta   60.00002264
_cell_angle_gamma   59.99993276
_symmetry_Int_Tables_number   1
_chemical_formula_structural   Hf3Al2PdC
_chemical_formula_sum   'Hf12 Al8 Pd4 C4'
_cell_volume   444.75983831
_cell_formula_units_Z   4
loop_
 _symmetry_equiv_pos_site_id
 _symmetry_equiv_pos_as_xyz
  1  'x, y, z'
loop_
 _atom_site_type_symbol
 _atom_site_label
 _atom_site_symmetry_multiplicity
 _atom_site_fract_x
 _atom_site_fract_y
 _atom_site_fract_z
 _atom_site_occupancy
  Hf  Hf0  1  0.56138865  0.93861235  0.56138865  1
  Hf  Hf1  1  0.31138765  0.68861235  0.68861135  1
  Hf  Hf2  1  0.68861335  0.31138765  0.31138765  1
  Hf  Hf3  1  0.31138765  0.68861335  0.31138765  1
  Hf  Hf4  1  0.68861135  0.68861235  0.31138865  1
  Hf  Hf5  1  0.31138765  0.31138765  0.68861335  1
  Hf  Hf6  1  0.56138865  0.56138765  0.93861135  1
  Hf  Hf7  1  0.93861235  0.56138765  0.56138865  1
  Hf  Hf8  1  0.56138665  0.93861235  0.93861235  1
  Hf  Hf9  1  0.93861235  0.93861235  0.56138665  1
  Hf  Hf10  1  0.68861135  0.31138765  0.68861135  1
  Hf  Hf11  1  0.93861235  0.56138665  0.93861235  1
  Al  Al0  1  0.91903081  0.91903181  0.91902981  1
  Al  Al1  1  0.00709143  0.33096819  0.33097019  1
  Al  Al2  1  0.33096819  0.00709243  0.33096919  1
  Al  Al3  1  0.33096919  0.33096819  0.00709143  1
  Al  Al4  1  0.91903181  0.24290757  0.91903081  1
  Al  Al5  1  0.91903081  0.91903181  0.24290857  1
  Al  Al6  1  0.24290857  0.91903181  0.91902981  1
  Al  Al7  1  0.33096919  0.33096819  0.33097019  1
  Pd  Pd0  1  0.12500000  0.12500000  0.12500000  1
  Pd  Pd1  1  0.62500000  0.12500000  0.12500000  1
  Pd  Pd2  1  0.12500000  0.62500000  0.12500000  1
  Pd  Pd3  1  0.12500000  0.12500000  0.62500000  1
  C  C0  1  0.62500000  0.62500000  0.62500000  1
  C  C1  1  0.12500000  0.62500000  0.62500000  1
  C  C2  1  0.62500000  0.12500000  0.62500000  1
  C  C3  1  0.62500000  0.62500000  0.12500000  1
loop_
_geom_bond_atom_site_label_1
_geom_bond_atom_site_label_2
_geom_bond_distance
_geom_bond_site_symmetry_2
Hf0 Pd3 3.112695 1_565
Hf0 Pd1 3.112700 1_565
Hf1 Pd3 3.112681 1_565
Hf1 Pd2 3.112699 1_556
Hf2 Pd0 3.112681 1_655
Hf2 Pd1 3.112693 1_555
Hf3 Pd0 3.112675 1_565
Hf3 Pd2 3.112695 1_555
Hf4 Pd1 3.112682 1_565
Hf4 Pd2 3.112696 1_655
Hf5 Pd0 3.112685 1_556
Hf5 Pd3 3.112693 1_555
Hf6 Pd1 3.112682 1_556
Hf6 Pd2 3.112696 1_556
Hf7 Pd3 3.112681 1_655
Hf7 Pd2 3.112699 1_655
Hf8 Pd0 3.112681 1_566
Hf8 Pd1 3.112693 1_566
Hf9 Pd0 3.112685 1_665
Hf9 Pd3 3.112693 1_665
Hf10 Pd3 3.112695 1_655
Hf10 Pd1 3.112700 1_556
Hf11 Pd0 3.112675 1_656
Hf11 Pd2 3.112695 1_656
Al0 Pd3 2.607283 1_665
Al0 Pd1 2.607288 1_566
Al0 Pd2 2.607294 1_656
Al0 Al4 2.774977 1_565
Al0 Al6 2.774991 1_655
Al0 Al5 2.775002 1_556
Al0 Hf9 2.906227 1_555
Al0 Hf11 2.906227 1_555
Al0 Hf8 2.906229 1_555
Al0 Hf10 3.117733 1_565
Al0 Hf1 3.117741 1_655
Al0 Hf4 3.117755 1_556
Al1 Pd0 2.607286 1_555
Al1 Pd3 2.607288 1_555
Al1 Pd2 2.607298 1_555
Al1 Al2 2.774972 1_555
Al1 Al7 2.774991 1_555
Al1 Al3 2.774997 1_555
Al1 Hf2 2.906203 1_455
Al1 Hf10 2.906213 1_455
Al1 Hf4 2.906219 1_455
Al1 Hf9 3.117723 1_445
Al1 Hf11 3.117744 1_454
Al1 Hf7 3.117749 1_455
Al2 Pd0 2.607283 1_555
Al2 Pd3 2.607291 1_555
Al2 Pd1 2.607297 1_555
Al2 Al7 2.774977 1_555
Al2 Al3 2.774980 1_555
Al2 Hf3 2.906202 1_545
Al2 Hf1 2.906214 1_545
Al2 Hf4 2.906215 1_545
Al2 Hf9 3.117733 1_445
Al2 Hf8 3.117742 1_544
Al2 Hf0 3.117762 1_545
Al3 Pd0 2.607279 1_555
Al3 Pd1 2.607293 1_555
Al3 Pd2 2.607297 1_555
Al3 Al7 2.775002 1_555
Al3 Hf5 2.906201 1_554
Al3 Hf10 2.906217 1_554
Al3 Hf1 2.906221 1_554
Al3 Hf8 3.117721 1_544
Al3 Hf11 3.117733 1_454
Al3 Hf6 3.117752 1_554
Al4 Pd0 2.607283 1_656
Al4 Pd3 2.607291 1_655
Al4 Pd1 2.607297 1_556
Al4 Al6 2.774972 1_645
Al4 Al5 2.774980 1_546
Al4 Hf11 2.906202 1_555
Al4 Hf7 2.906214 1_555
Al4 Hf6 2.906215 1_555
Al4 Hf5 3.117733 1_655
Al4 Hf2 3.117742 1_556
Al4 Hf10 3.117762 1_555
Al5 Pd0 2.607279 1_665
Al5 Pd1 2.607293 1_565
Al5 Pd2 2.607297 1_655
Al5 Al6 2.774997 1_654
Al5 Hf9 2.906201 1_555
Al5 Hf0 2.906217 1_555
Al5 Hf7 2.906221 1_555
Al5 Hf2 3.117721 1_565
Al5 Hf3 3.117733 1_655
Al5 Hf4 3.117752 1_555
Al6 Pd0 2.607286 1_566
Al6 Pd3 2.607288 1_565
Al6 Pd2 2.607298 1_556
Al6 Hf8 2.906203 1_555
Al6 Hf0 2.906213 1_555
Al6 Hf6 2.906219 1_555
Al6 Hf5 3.117723 1_565
Al6 Hf3 3.117744 1_556
Al6 Hf1 3.117749 1_555
Al7 Pd3 2.607283 1_555
Al7 Pd1 2.607288 1_555
Al7 Pd2 2.607294 1_555
Al7 Hf5 2.906227 1_555
Al7 Hf3 2.906227 1_555
Al7 Hf2 2.906229 1_555
Al7 Hf0 3.117733 1_545
Al7 Hf7 3.117741 1_455
Al7 Hf6 3.117755 1_554
C0 Hf6 2.276464 1_555
C0 Hf4 2.276464 1_555
C0 Hf0 2.276465 1_555
C0 Hf10 2.276465 1_555
C0 Hf7 2.276469 1_555
C0 Hf1 2.276469 1_555
C1 Hf1 2.276461 1_555
C1 Hf7 2.276461 1_455
C1 Hf9 2.276461 1_455
C1 Hf5 2.276461 1_555
C1 Hf11 2.276470 1_455
C1 Hf3 2.276470 1_555
C2 Hf10 2.276453 1_555
C2 Hf0 2.276453 1_545
C2 Hf9 2.276465 1_545
C2 Hf5 2.276465 1_555
C2 Hf8 2.276468 1_545
C2 Hf2 2.276468 1_555
C3 Hf2 2.276463 1_555
C3 Hf8 2.276463 1_554
C3 Hf11 2.276468 1_554
C3 Hf3 2.276468 1_555
C3 Hf4 2.276470 1_555
C3 Hf6 2.276470 1_554
