# generated using pymatgen
data_Nb6AsAuC2
_symmetry_space_group_name_H-M   'P 1'
_cell_length_a   11.46954784
_cell_length_b   11.46954814
_cell_length_c   16.90650488
_cell_angle_alpha   90.00000000
_cell_angle_beta   90.00000000
_cell_angle_gamma   146.43600005
_symmetry_Int_Tables_number   1
_chemical_formula_structural   Nb6AsAuC2
_chemical_formula_sum   'Nb48 As8 Au8 C16'
_cell_volume   1229.61165620
_cell_formula_units_Z   8
loop_
 _symmetry_equiv_pos_site_id
 _symmetry_equiv_pos_as_xyz
  1  'x, y, z'
loop_
 _atom_site_type_symbol
 _atom_site_label
 _atom_site_symmetry_multiplicity
 _atom_site_fract_x
 _atom_site_fract_y
 _atom_site_fract_z
 _atom_site_occupancy
  Nb  Nb0_0  1  0.43694318  0.06305582  0.01950574  1
  Nb  Nb0_1  1  0.43694318  0.06305582  0.51950574  1
  Nb  Nb0_2  1  0.43694318  0.56305582  0.01950574  1
  Nb  Nb0_3  1  0.43694318  0.56305582  0.51950574  1
  Nb  Nb0_4  1  0.93694318  0.06305582  0.01950574  1
  Nb  Nb0_5  1  0.93694318  0.06305582  0.51950574  1
  Nb  Nb0_6  1  0.93694318  0.56305582  0.01950574  1
  Nb  Nb0_7  1  0.93694318  0.56305582  0.51950574  1
  Nb  Nb1_0  1  0.27072190  0.22927710  0.12500000  1
  Nb  Nb1_1  1  0.27072190  0.22927710  0.62500000  1
  Nb  Nb1_2  1  0.27072190  0.72927710  0.12500000  1
  Nb  Nb1_3  1  0.27072190  0.72927710  0.62500000  1
  Nb  Nb1_4  1  0.77072190  0.22927710  0.12500000  1
  Nb  Nb1_5  1  0.77072190  0.22927710  0.62500000  1
  Nb  Nb1_6  1  0.77072190  0.72927710  0.12500000  1
  Nb  Nb1_7  1  0.77072190  0.72927710  0.62500000  1
  Nb  Nb2_0  1  0.43694318  0.06305582  0.23049426  1
  Nb  Nb2_1  1  0.43694318  0.06305582  0.73049426  1
  Nb  Nb2_2  1  0.43694318  0.56305582  0.23049426  1
  Nb  Nb2_3  1  0.43694318  0.56305582  0.73049426  1
  Nb  Nb2_4  1  0.93694318  0.06305582  0.23049426  1
  Nb  Nb2_5  1  0.93694318  0.06305582  0.73049426  1
  Nb  Nb2_6  1  0.93694318  0.56305582  0.23049426  1
  Nb  Nb2_7  1  0.93694318  0.56305582  0.73049426  1
  Nb  Nb3_0  1  0.06519591  0.43480309  0.28075499  1
  Nb  Nb3_1  1  0.06519591  0.43480309  0.78075499  1
  Nb  Nb3_2  1  0.06519591  0.93480309  0.28075499  1
  Nb  Nb3_3  1  0.06519591  0.93480309  0.78075499  1
  Nb  Nb3_4  1  0.56519591  0.43480309  0.28075499  1
  Nb  Nb3_5  1  0.56519591  0.43480309  0.78075499  1
  Nb  Nb3_6  1  0.56519591  0.93480309  0.28075499  1
  Nb  Nb3_7  1  0.56519591  0.93480309  0.78075499  1
  Nb  Nb4_0  1  0.22143918  0.27855982  0.37500000  1
  Nb  Nb4_1  1  0.22143918  0.27855982  0.87500000  1
  Nb  Nb4_2  1  0.22143918  0.77855982  0.37500000  1
  Nb  Nb4_3  1  0.22143918  0.77855982  0.87500000  1
  Nb  Nb4_4  1  0.72143918  0.27855982  0.37500000  1
  Nb  Nb4_5  1  0.72143918  0.27855982  0.87500000  1
  Nb  Nb4_6  1  0.72143918  0.77855982  0.37500000  1
  Nb  Nb4_7  1  0.72143918  0.77855982  0.87500000  1
  Nb  Nb5_0  1  0.06519591  0.43480309  0.46924501  1
  Nb  Nb5_1  1  0.06519591  0.43480309  0.96924501  1
  Nb  Nb5_2  1  0.06519591  0.93480309  0.46924501  1
  Nb  Nb5_3  1  0.06519591  0.93480309  0.96924501  1
  Nb  Nb5_4  1  0.56519591  0.43480309  0.46924501  1
  Nb  Nb5_5  1  0.56519591  0.43480309  0.96924501  1
  Nb  Nb5_6  1  0.56519591  0.93480309  0.46924501  1
  Nb  Nb5_7  1  0.56519591  0.93480309  0.96924501  1
  As  As0_0  1  0.37877854  0.12122046  0.37500000  1
  As  As0_1  1  0.37877854  0.12122046  0.87500000  1
  As  As0_2  1  0.37877854  0.62122046  0.37500000  1
  As  As0_3  1  0.37877854  0.62122046  0.87500000  1
  As  As0_4  1  0.87877854  0.12122046  0.37500000  1
  As  As0_5  1  0.87877854  0.12122046  0.87500000  1
  As  As0_6  1  0.87877854  0.62122046  0.37500000  1
  As  As0_7  1  0.87877854  0.62122046  0.87500000  1
  Au  Au0_0  1  0.12238927  0.37760973  0.12500000  1
  Au  Au0_1  1  0.12238927  0.37760973  0.62500000  1
  Au  Au0_2  1  0.12238927  0.87760973  0.12500000  1
  Au  Au0_3  1  0.12238927  0.87760973  0.62500000  1
  Au  Au0_4  1  0.62238927  0.37760973  0.12500000  1
  Au  Au0_5  1  0.62238927  0.37760973  0.62500000  1
  Au  Au0_6  1  0.62238927  0.87760973  0.12500000  1
  Au  Au0_7  1  0.62238927  0.87760973  0.62500000  1
  C  C0_0  1  0.25119347  0.24880553  0.49855380  1
  C  C0_1  1  0.25119347  0.24880553  0.99855380  1
  C  C0_2  1  0.25119347  0.74880553  0.49855380  1
  C  C0_3  1  0.25119347  0.74880553  0.99855380  1
  C  C0_4  1  0.75119347  0.24880553  0.49855380  1
  C  C0_5  1  0.75119347  0.24880553  0.99855380  1
  C  C0_6  1  0.75119347  0.74880553  0.49855380  1
  C  C0_7  1  0.75119347  0.74880553  0.99855380  1
  C  C1_0  1  0.25119347  0.24880553  0.25144620  1
  C  C1_1  1  0.25119347  0.24880553  0.75144620  1
  C  C1_2  1  0.25119347  0.74880553  0.25144620  1
  C  C1_3  1  0.25119347  0.74880553  0.75144620  1
  C  C1_4  1  0.75119347  0.24880553  0.25144620  1
  C  C1_5  1  0.75119347  0.24880553  0.75144620  1
  C  C1_6  1  0.75119347  0.74880553  0.25144620  1
  C  C1_7  1  0.75119347  0.74880553  0.75144620  1
loop_
_geom_bond_atom_site_label_1
_geom_bond_atom_site_label_2
_geom_bond_distance
_geom_bond_site_symmetry_2
As0_0 Nb4_4 2.623551 1_555
As0_0 Nb4_2 2.623552 1_545
As0_0 Nb5_2 2.688946 1_545
As0_0 Nb3_2 2.688946 1_545
As0_0 Nb5_4 2.688947 1_555
As0_0 Nb3_4 2.688947 1_555
As0_0 Nb0_1 2.756896 1_555
As0_0 Nb2_0 2.756896 1_555
As0_1 Nb4_5 2.623551 1_555
As0_1 Nb4_3 2.623552 1_545
As0_1 Nb5_3 2.688946 1_545
As0_1 Nb3_3 2.688946 1_545
As0_1 Nb5_5 2.688947 1_555
As0_1 Nb3_5 2.688947 1_555
As0_1 Nb0_0 2.756896 1_556
As0_1 Nb2_1 2.756896 1_555
As0_2 Nb4_6 2.623551 1_555
As0_2 Nb4_0 2.623552 1_555
As0_2 Nb5_0 2.688946 1_555
As0_2 Nb3_0 2.688946 1_555
As0_2 Nb5_6 2.688947 1_555
As0_2 Nb3_6 2.688947 1_555
As0_2 Nb0_3 2.756896 1_555
As0_2 Nb2_2 2.756896 1_555
As0_3 Nb4_7 2.623551 1_555
As0_3 Nb4_1 2.623552 1_555
As0_3 Nb5_1 2.688946 1_555
As0_3 Nb3_1 2.688946 1_555
As0_3 Nb5_7 2.688947 1_555
As0_3 Nb3_7 2.688947 1_555
As0_3 Nb0_2 2.756896 1_556
As0_3 Nb2_3 2.756896 1_555
As0_4 Nb4_0 2.623551 1_655
As0_4 Nb4_6 2.623552 1_545
As0_4 Nb5_6 2.688946 1_545
As0_4 Nb3_6 2.688946 1_545
As0_4 Nb5_0 2.688947 1_655
As0_4 Nb3_0 2.688947 1_655
As0_4 Nb0_5 2.756896 1_555
As0_4 Nb2_4 2.756896 1_555
As0_5 Nb4_1 2.623551 1_655
As0_5 Nb4_7 2.623552 1_545
As0_5 Nb5_7 2.688946 1_545
As0_5 Nb3_7 2.688946 1_545
As0_5 Nb5_1 2.688947 1_655
As0_5 Nb3_1 2.688947 1_655
As0_5 Nb0_4 2.756896 1_556
As0_5 Nb2_5 2.756896 1_555
As0_6 Nb4_2 2.623551 1_655
As0_6 Nb4_4 2.623552 1_555
As0_6 Nb5_4 2.688946 1_555
As0_6 Nb3_4 2.688946 1_555
As0_6 Nb5_2 2.688947 1_655
As0_6 Nb3_2 2.688947 1_655
As0_6 Nb0_7 2.756896 1_555
As0_6 Nb2_6 2.756896 1_555
As0_7 Nb4_3 2.623551 1_655
As0_7 Nb4_5 2.623552 1_555
As0_7 Nb5_5 2.688946 1_555
As0_7 Nb3_5 2.688946 1_555
As0_7 Nb5_3 2.688947 1_655
As0_7 Nb3_3 2.688947 1_655
As0_7 Nb0_6 2.756896 1_556
As0_7 Nb2_7 2.756896 1_555
Au0_0 Nb1_4 2.779790 1_455
Au0_0 Nb1_2 2.779790 1_555
Au0_0 Nb2_2 2.816505 1_555
Au0_0 Nb0_2 2.816505 1_555
Au0_0 Nb2_4 2.816505 1_455
Au0_0 Nb0_4 2.816505 1_455
Au0_0 Nb3_0 2.917513 1_555
Au0_0 Nb5_1 2.917513 1_554
Au0_0 Nb1_0 3.257700 1_555
Au0_0 Au0_6 3.311614 1_445
Au0_0 Au0_6 3.311614 1_555
Au0_1 Nb1_5 2.779790 1_455
Au0_1 Nb1_3 2.779790 1_555
Au0_1 Nb2_3 2.816505 1_555
Au0_1 Nb0_3 2.816505 1_555
Au0_1 Nb2_5 2.816505 1_455
Au0_1 Nb0_5 2.816505 1_455
Au0_1 Nb3_1 2.917513 1_555
Au0_1 Nb5_0 2.917513 1_555
Au0_1 Nb1_1 3.257700 1_555
Au0_1 Au0_7 3.311614 1_445
Au0_1 Au0_7 3.311614 1_555
Au0_2 Nb1_6 2.779790 1_455
Au0_2 Nb1_0 2.779790 1_565
Au0_2 Nb2_0 2.816505 1_565
Au0_2 Nb0_0 2.816505 1_565
Au0_2 Nb2_6 2.816505 1_455
Au0_2 Nb0_6 2.816505 1_455
Au0_2 Nb3_2 2.917513 1_555
Au0_2 Nb5_3 2.917513 1_554
Au0_2 Nb1_2 3.257700 1_555
Au0_2 Au0_4 3.311614 1_455
Au0_2 Au0_4 3.311614 1_565
Au0_3 Nb1_7 2.779790 1_455
Au0_3 Nb1_1 2.779790 1_565
Au0_3 Nb2_1 2.816505 1_565
Au0_3 Nb0_1 2.816505 1_565
Au0_3 Nb2_7 2.816505 1_455
Au0_3 Nb0_7 2.816505 1_455
Au0_3 Nb3_3 2.917513 1_555
Au0_3 Nb5_2 2.917513 1_555
Au0_3 Nb1_3 3.257700 1_555
Au0_3 Au0_5 3.311614 1_455
Au0_3 Au0_5 3.311614 1_565
Au0_4 Nb1_0 2.779790 1_555
Au0_4 Nb1_6 2.779790 1_555
Au0_4 Nb2_6 2.816505 1_555
Au0_4 Nb0_6 2.816505 1_555
Au0_4 Nb2_0 2.816505 1_555
Au0_4 Nb0_0 2.816505 1_555
Au0_4 Nb3_4 2.917513 1_555
Au0_4 Nb5_5 2.917513 1_554
Au0_4 Nb1_4 3.257700 1_555
Au0_5 Nb1_1 2.779790 1_555
Au0_5 Nb1_7 2.779790 1_555
Au0_5 Nb2_7 2.816505 1_555
Au0_5 Nb0_7 2.816505 1_555
Au0_5 Nb2_1 2.816505 1_555
Au0_5 Nb0_1 2.816505 1_555
Au0_5 Nb3_5 2.917513 1_555
Au0_5 Nb5_4 2.917513 1_555
Au0_5 Nb1_5 3.257700 1_555
Au0_6 Nb1_2 2.779790 1_555
Au0_6 Nb1_4 2.779790 1_565
Au0_6 Nb2_4 2.816505 1_565
Au0_6 Nb0_4 2.816505 1_565
Au0_6 Nb2_2 2.816505 1_555
Au0_6 Nb0_2 2.816505 1_555
Au0_6 Nb3_6 2.917513 1_555
Au0_6 Nb5_7 2.917513 1_554
Au0_6 Nb1_6 3.257700 1_555
Au0_7 Nb1_3 2.779790 1_555
Au0_7 Nb1_5 2.779790 1_565
Au0_7 Nb2_5 2.816505 1_565
Au0_7 Nb0_5 2.816505 1_565
Au0_7 Nb2_3 2.816505 1_555
Au0_7 Nb0_3 2.816505 1_555
Au0_7 Nb3_7 2.917513 1_555
Au0_7 Nb5_6 2.917513 1_555
Au0_7 Nb1_7 3.257700 1_555
C0_0 Nb1_1 2.180361 1_555
C0_0 Nb4_0 2.188691 1_555
C0_0 Nb0_5 2.204155 1_455
C0_0 Nb0_3 2.204155 1_555
C0_0 Nb5_4 2.227784 1_555
C0_0 Nb5_2 2.227784 1_545
C0_1 Nb1_0 2.180361 1_556
C0_1 Nb4_1 2.188691 1_555
C0_1 Nb0_4 2.204155 1_456
C0_1 Nb0_2 2.204155 1_556
C0_1 Nb5_5 2.227784 1_555
C0_1 Nb5_3 2.227784 1_545
C0_2 Nb1_3 2.180361 1_555
C0_2 Nb4_2 2.188691 1_555
C0_2 Nb0_7 2.204155 1_455
C0_2 Nb0_1 2.204155 1_565
C0_2 Nb5_6 2.227784 1_555
C0_2 Nb5_0 2.227784 1_555
C0_3 Nb1_2 2.180361 1_556
C0_3 Nb4_3 2.188691 1_555
C0_3 Nb0_6 2.204155 1_456
C0_3 Nb0_0 2.204155 1_566
C0_3 Nb5_7 2.227784 1_555
C0_3 Nb5_1 2.227784 1_555
C0_4 Nb1_5 2.180361 1_555
C0_4 Nb4_4 2.188691 1_555
C0_4 Nb0_1 2.204155 1_555
C0_4 Nb0_7 2.204155 1_555
C0_4 Nb5_0 2.227784 1_655
C0_4 Nb5_6 2.227784 1_545
C0_5 Nb1_4 2.180361 1_556
C0_5 Nb4_5 2.188691 1_555
C0_5 Nb0_0 2.204155 1_556
C0_5 Nb0_6 2.204155 1_556
C0_5 Nb5_1 2.227784 1_655
C0_5 Nb5_7 2.227784 1_545
C0_6 Nb1_7 2.180361 1_555
C0_6 Nb4_6 2.188691 1_555
C0_6 Nb0_3 2.204155 1_555
C0_6 Nb0_5 2.204155 1_565
C0_6 Nb5_2 2.227784 1_655
C0_6 Nb5_4 2.227784 1_555
C0_7 Nb1_6 2.180361 1_556
C0_7 Nb4_7 2.188691 1_555
C0_7 Nb0_2 2.204155 1_556
C0_7 Nb0_4 2.204155 1_566
C0_7 Nb5_3 2.227784 1_655
C0_7 Nb5_5 2.227784 1_555
C1_0 Nb1_0 2.180361 1_555
C1_0 Nb4_0 2.188691 1_555
C1_0 Nb2_4 2.204155 1_455
C1_0 Nb2_2 2.204155 1_555
C1_0 Nb3_4 2.227784 1_555
C1_0 Nb3_2 2.227784 1_545
C1_1 Nb1_1 2.180361 1_555
C1_1 Nb4_1 2.188691 1_555
C1_1 Nb2_5 2.204155 1_455
C1_1 Nb2_3 2.204155 1_555
C1_1 Nb3_5 2.227784 1_555
C1_1 Nb3_3 2.227784 1_545
C1_2 Nb1_2 2.180361 1_555
C1_2 Nb4_2 2.188691 1_555
C1_2 Nb2_6 2.204155 1_455
C1_2 Nb2_0 2.204155 1_565
C1_2 Nb3_6 2.227784 1_555
C1_2 Nb3_0 2.227784 1_555
C1_3 Nb1_3 2.180361 1_555
C1_3 Nb4_3 2.188691 1_555
C1_3 Nb2_7 2.204155 1_455
C1_3 Nb2_1 2.204155 1_565
C1_3 Nb3_7 2.227784 1_555
C1_3 Nb3_1 2.227784 1_555
C1_4 Nb1_4 2.180361 1_555
C1_4 Nb4_4 2.188691 1_555
C1_4 Nb2_0 2.204155 1_555
C1_4 Nb2_6 2.204155 1_555
C1_4 Nb3_0 2.227784 1_655
C1_4 Nb3_6 2.227784 1_545
C1_5 Nb1_5 2.180361 1_555
C1_5 Nb4_5 2.188691 1_555
C1_5 Nb2_1 2.204155 1_555
C1_5 Nb2_7 2.204155 1_555
C1_5 Nb3_1 2.227784 1_655
C1_5 Nb3_7 2.227784 1_545
C1_6 Nb1_6 2.180361 1_555
C1_6 Nb4_6 2.188691 1_555
C1_6 Nb2_2 2.204155 1_555
C1_6 Nb2_4 2.204155 1_565
C1_6 Nb3_2 2.227784 1_655
C1_6 Nb3_4 2.227784 1_555
C1_7 Nb1_7 2.180361 1_555
C1_7 Nb4_7 2.188691 1_555
C1_7 Nb2_3 2.204155 1_555
C1_7 Nb2_5 2.204155 1_565
C1_7 Nb3_3 2.227784 1_655
C1_7 Nb3_5 2.227784 1_555
