# generated using pymatgen
data_Mg3(HO2)2
_symmetry_space_group_name_H-M   'P 1'
_cell_length_a   3.03029746
_cell_length_b   3.03029719
_cell_length_c   19.20246522
_cell_angle_alpha   89.99962087
_cell_angle_beta   90.00038431
_cell_angle_gamma   119.99899451
_symmetry_Int_Tables_number   1
_chemical_formula_structural   Mg3(HO2)2
_chemical_formula_sum   'Mg6 H4 O8'
_cell_volume   152.70825135
_cell_formula_units_Z   2
loop_
 _symmetry_equiv_pos_site_id
 _symmetry_equiv_pos_as_xyz
  1  'x, y, z'
loop_
 _atom_site_type_symbol
 _atom_site_label
 _atom_site_symmetry_multiplicity
 _atom_site_fract_x
 _atom_site_fract_y
 _atom_site_fract_z
 _atom_site_occupancy
  Mg  Mg0  1  0.66666476  0.33333509  0.24905600  1
  Mg  Mg1  1  0.33336668  0.66663297  0.37487615  1
  Mg  Mg2  1  0.66664004  0.33335968  0.62510935  1
  Mg  Mg3  1  0.33332791  0.66667175  0.75094443  1
  Mg  Mg4  1  -0.00000132  0.00000125  0.87725328  1
  Mg  Mg5  1  -0.00000201  0.00000251  0.12275873  1
  H  H0  1  0.33333981  0.66666037  0.98255956  1
  H  H1  1  0.66666878  0.33333147  0.01745801  1
  H  H2  1  0.66667348  0.33332648  0.47977449  1
  H  H3  1  0.33332060  0.66667924  0.52020358  1
  O  O0  1  0.33333347  0.66666665  0.93245579  1
  O  O1  1  0.99999024  0.00001002  0.68816597  1
  O  O2  1  0.66672159  0.33327831  0.42977178  1
  O  O3  1  0.33328822  0.66671087  0.57020893  1
  O  O4  1  0.66666661  0.33333436  0.06756412  1
  O  O5  1  0.33332796  0.66667214  0.18607555  1
  O  O6  1  0.00001745  -0.00001827  0.31182830  1
  O  O7  1  0.66665572  0.33334411  0.81393497  1
loop_
_geom_bond_atom_site_label_1
_geom_bond_atom_site_label_2
_geom_bond_distance
_geom_bond_site_symmetry_2
Mg0 O6 2.124557 1_665
Mg0 O6 2.124559 1_555
Mg0 O6 2.124652 1_655
Mg0 O5 2.126853 1_555
Mg0 O5 2.126862 1_545
Mg0 O5 2.126863 1_655
Mg1 O2 2.042541 1_455
Mg1 O2 2.042541 1_565
Mg1 O2 2.042652 1_555
Mg1 O6 2.127573 1_665
Mg1 O6 2.127573 1_555
Mg1 O6 2.127641 1_565
Mg2 O3 2.042595 1_655
Mg2 O3 2.042596 1_545
Mg2 O3 2.042685 1_555
Mg2 O1 2.127666 1_455
Mg2 O1 2.127667 1_565
Mg2 O1 2.127741 1_555
Mg3 O1 2.124654 1_465
Mg3 O1 2.124657 1_455
Mg3 O1 2.124658 1_565
Mg3 O7 2.126923 1_555
Mg3 O7 2.126993 1_455
Mg3 O7 2.126993 1_565
Mg4 O0 2.045609 1_545
Mg4 O0 2.045633 1_445
Mg4 O0 2.045633 1_555
Mg4 O7 2.130546 1_445
Mg4 O7 2.130546 1_555
Mg4 O7 2.130574 1_455
Mg5 O4 2.045517 1_455
Mg5 O4 2.045561 1_445
Mg5 O4 2.045562 1_555
Mg5 O5 2.130503 1_545
Mg5 O5 2.130556 1_555
Mg5 O5 2.130557 1_445
H0 O0 0.962116 1_555
H1 O4 0.962161 1_555
H2 O2 0.960175 1_555
H3 O3 0.960226 1_555
