# generated using pymatgen
data_Cs2Ni(PtS2)2
_symmetry_space_group_name_H-M   'P 1'
_cell_length_a   6.08369681
_cell_length_b   6.08369706
_cell_length_c   7.86818319
_cell_angle_alpha   102.69222345
_cell_angle_beta   102.69222782
_cell_angle_gamma   115.57410602
_symmetry_Int_Tables_number   1
_chemical_formula_structural   Cs2Ni(PtS2)2
_chemical_formula_sum   'Cs2 Ni1 Pt2 S4'
_cell_volume   239.33107180
_cell_formula_units_Z   1
loop_
 _symmetry_equiv_pos_site_id
 _symmetry_equiv_pos_as_xyz
  1  'x, y, z'
loop_
 _atom_site_type_symbol
 _atom_site_label
 _atom_site_symmetry_multiplicity
 _atom_site_fract_x
 _atom_site_fract_y
 _atom_site_fract_z
 _atom_site_occupancy
  Cs  Cs0  1  0.65876995  0.65876995  0.31753990  1
  Cs  Cs1  1  0.34123005  0.34123005  0.68246010  1
  Ni  Ni0  1  0.00000000  0.00000000  0.00000000  1
  Pt  Pt0  1  0.00000000  0.50000000  0.00000000  1
  Pt  Pt1  1  0.50000000  0.00000000  0.00000000  1
  S  S0  1  0.73565290  0.06107522  0.79672812  1
  S  S1  1  0.93892478  0.26434710  0.20327188  1
  S  S2  1  0.06107522  0.73565290  0.79672812  1
  S  S3  1  0.26434710  0.93892478  0.20327188  1
loop_
_geom_bond_atom_site_label_1
_geom_bond_atom_site_label_2
_geom_bond_distance
_geom_bond_site_symmetry_2
Cs0 S3 3.567539 1_555
Cs0 S1 3.567539 1_555
Cs0 S3 3.740847 1_655
Cs0 S1 3.740847 1_455
Cs0 S1 3.740847 1_565
Cs0 S3 3.740847 1_545
Cs0 Pt1 3.799301 1_565
Cs0 Pt0 3.799301 1_555
Cs0 Pt0 3.799301 1_655
Cs0 Pt1 3.799302 1_555
Cs0 S2 3.821809 1_655
Cs0 S0 3.821809 1_565
Cs0 Ni0 3.962200 1_665
Cs0 Ni0 3.962201 1_555
Cs0 Cs1 4.166626 1_555
Cs0 Cs1 4.166626 1_665
Cs1 S0 3.567539 1_555
Cs1 S2 3.567539 1_555
Cs1 S0 3.740847 1_455
Cs1 S2 3.740847 1_655
Cs1 S2 3.740847 1_545
Cs1 S0 3.740847 1_565
Cs1 Pt1 3.799301 1_556
Cs1 Pt0 3.799301 1_656
Cs1 Pt0 3.799301 1_556
Cs1 Pt1 3.799302 1_566
Cs1 S1 3.821809 1_455
Cs1 S3 3.821809 1_545
Cs1 Ni0 3.962200 1_556
Cs1 Ni0 3.962201 1_666
Ni0 S3 2.220175 1_545
Ni0 S0 2.220175 1_454
Ni0 S1 2.220176 1_455
Ni0 S2 2.220176 1_544
Pt0 S1 2.358012 1_455
Pt0 S2 2.358012 1_554
Pt0 S3 2.358013 1_555
Pt0 S0 2.358013 1_454
Pt1 S3 2.358012 1_545
Pt1 S0 2.358012 1_554
Pt1 S1 2.358012 1_555
Pt1 S2 2.358012 1_544
