# generated using pymatgen
data_CsSc3CI6
_symmetry_space_group_name_H-M   'P 1'
_cell_length_a   9.17103994
_cell_length_b   9.34837998
_cell_length_c   9.44411496
_cell_angle_alpha   71.57679113
_cell_angle_beta   83.83968961
_cell_angle_gamma   88.86980185
_symmetry_Int_Tables_number   1
_chemical_formula_structural   CsSc3CI6
_chemical_formula_sum   'Cs2 Sc6 C2 I12'
_cell_volume   763.66499749
_cell_formula_units_Z   2
loop_
 _symmetry_equiv_pos_site_id
 _symmetry_equiv_pos_as_xyz
  1  'x, y, z'
loop_
 _atom_site_type_symbol
 _atom_site_label
 _atom_site_symmetry_multiplicity
 _atom_site_fract_x
 _atom_site_fract_y
 _atom_site_fract_z
 _atom_site_occupancy
  Cs  Cs0  1  0.45925282  0.37290133  0.32678945  1
  Cs  Cs1  1  0.54068097  0.62695333  0.67321347  1
  Sc  Sc0  1  0.92727431  0.77498402  0.00502897  1
  Sc  Sc1  1  0.07269965  0.22491703  0.99505193  1
  Sc  Sc2  1  0.76902948  0.07546417  0.00041949  1
  Sc  Sc3  1  0.23097843  0.92454664  0.99958681  1
  Sc  Sc4  1  0.97065728  0.90215983  0.30934869  1
  Sc  Sc5  1  0.02938485  0.09776287  0.69071110  1
  C  C0  1  0.00740802  0.02400214  0.92088516  1
  C  C1  1  0.99258118  0.97589806  0.07917925  1
  I  I0  1  0.06413643  0.19732554  0.32981208  1
  I  I1  1  0.93583277  0.80283266  0.67005172  1
  I  I2  1  0.20065994  0.61251620  0.99840590  1
  I  I3  1  0.79958579  0.38803736  0.00119069  1
  I  I4  1  0.38787519  0.19421732  0.00117698  1
  I  I5  1  0.61211790  0.80579091  0.99884942  1
  I  I6  1  0.66581233  0.99897872  0.32753886  1
  I  I7  1  0.33411940  0.00092930  0.67253459  1
  I  I8  1  0.27068622  0.79178338  0.32539644  1
  I  I9  1  0.72933613  0.20811645  0.67469611  1
  I  I10  1  0.86365618  0.60332059  0.32937754  1
  I  I11  1  0.13623173  0.39656317  0.67075334  1
loop_
_geom_bond_atom_site_label_1
_geom_bond_atom_site_label_2
_geom_bond_distance
_geom_bond_site_symmetry_2
Cs0 I6 3.941281 1_545
Cs0 I0 4.001042 1_555
Cs0 I7 4.030784 1_555
Cs0 I4 4.049327 1_555
Cs0 I3 4.110970 1_555
Cs0 I2 4.151869 1_554
Cs0 I9 4.207244 1_555
Cs0 I11 4.211919 1_555
Cs0 I8 4.246179 1_555
Cs0 I10 4.331697 1_555
Cs0 I5 4.393651 1_554
Cs0 Cs1 4.733664 1_555
Cs1 I7 3.941879 1_565
Cs1 I1 4.002259 1_555
Cs1 I6 4.030748 1_555
Cs1 I5 4.050606 1_555
Cs1 I2 4.107736 1_555
Cs1 I3 4.149351 1_556
Cs1 I8 4.206132 1_555
Cs1 I10 4.210721 1_555
Cs1 I9 4.245903 1_555
Cs1 I11 4.331613 1_555
Cs1 I4 4.392582 1_556
C0 C1 1.410478 1_446
C0 Sc5 2.050729 1_555
C0 Sc1 2.311457 1_555
C0 Sc0 2.315957 1_446
C0 Sc2 2.325834 1_456
C0 Sc3 2.331521 1_545
C1 Sc4 2.050691 1_555
C1 Sc0 2.311401 1_555
C1 Sc1 2.315924 1_664
C1 Sc3 2.325846 1_654
C1 Sc2 2.331814 1_565
I0 Sc4 2.975248 1_445
I0 Sc1 3.082198 1_554
I0 Sc5 3.218431 1_555
I0 I4 4.065043 1_555
I0 I3 4.079837 1_455
I0 I6 4.134313 1_445
I0 I10 4.183543 1_455
I1 Sc5 2.974079 1_665
I1 Sc0 3.083669 1_556
I1 Sc4 3.216751 1_555
I1 I5 4.065629 1_555
I1 I2 4.079118 1_655
I1 I7 4.133392 1_665
I1 I11 4.184932 1_655
I2 Sc0 2.910854 1_456
I2 Sc3 2.939290 1_555
I2 Sc1 3.841307 1_555
I2 I7 4.056796 1_565
I2 I8 4.061619 1_556
I3 Sc1 2.911437 1_654
I3 Sc2 2.943326 1_555
I3 Sc0 3.836245 1_555
I3 I9 4.061889 1_554
I3 I6 4.063469 1_545
I4 Sc1 2.904014 1_554
I4 Sc3 2.932184 1_544
I4 Sc2 3.646661 1_555
I5 Sc0 2.903962 1_556
I5 Sc2 2.932212 1_566
I5 Sc3 3.646540 1_555
I6 Sc4 2.925797 1_555
I6 Sc2 2.992371 1_565
I7 Sc5 2.924877 1_555
I7 Sc3 2.991717 1_545
I8 Sc4 2.921900 1_455
I8 Sc3 2.991601 1_554
I9 Sc5 2.921989 1_655
I9 Sc2 2.990739 1_556
I10 Sc4 2.921918 1_555
I10 Sc0 2.974074 1_555
I10 I5 4.035718 1_554
I10 I6 4.083471 1_555
I11 Sc5 2.921267 1_555
I11 Sc1 2.973567 1_555
I11 I4 4.035415 1_556
I11 I7 4.083566 1_555
