# generated using pymatgen
data_Cs2BeSiSe4
_symmetry_space_group_name_H-M   'P 1'
_cell_length_a   14.63241966
_cell_length_b   13.13844719
_cell_length_c   7.63665355
_cell_angle_alpha   85.18906444
_cell_angle_beta   63.47461613
_cell_angle_gamma   31.33632718
_symmetry_Int_Tables_number   1
_chemical_formula_structural   Cs2BeSiSe4
_chemical_formula_sum   'Cs4 Be2 Si2 Se8'
_cell_volume   525.18230317
_cell_formula_units_Z   2
loop_
 _symmetry_equiv_pos_site_id
 _symmetry_equiv_pos_as_xyz
  1  'x, y, z'
loop_
 _atom_site_type_symbol
 _atom_site_label
 _atom_site_symmetry_multiplicity
 _atom_site_fract_x
 _atom_site_fract_y
 _atom_site_fract_z
 _atom_site_occupancy
  Cs  Cs0  1  0.67847321  0.67847321  0.32152679  1
  Cs  Cs1  1  0.32152679  0.32152679  0.67847321  1
  Cs  Cs2  1  0.57152679  0.57152679  0.92847321  1
  Cs  Cs3  1  0.92847321  0.92847321  0.57152679  1
  Be  Be0  1  0.50000000  0.50000000  0.50000000  1
  Be  Be1  1  0.75000000  0.75000000  0.75000000  1
  Si  Si0  1  0.00000000  0.00000000  0.00000000  1
  Si  Si1  1  0.25000000  0.25000000  0.25000000  1
  Se  Se0  1  0.36407466  0.03894181  0.96181937  1
  Se  Se1  1  0.63516316  0.96181937  0.03894181  1
  Se  Se2  1  0.96181937  0.63516316  0.36407466  1
  Se  Se3  1  0.03894181  0.36407466  0.63516316  1
  Se  Se4  1  0.88592534  0.21105819  0.28818063  1
  Se  Se5  1  0.61483684  0.28818063  0.21105819  1
  Se  Se6  1  0.28818063  0.61483684  0.88592534  1
  Se  Se7  1  0.21105819  0.88592534  0.61483684  1
loop_
_geom_bond_atom_site_label_1
_geom_bond_atom_site_label_2
_geom_bond_distance
_geom_bond_site_symmetry_2
Cs0 Se0 3.748416 1_654
Cs0 Se3 3.748418 1_565
Cs0 Se0 3.751833 1_565
Cs0 Se3 3.751840 1_654
Cs0 Se4 3.836646 1_555
Cs0 Se7 3.836646 1_555
Cs0 Se2 3.842020 1_555
Cs0 Se1 3.842024 1_555
Cs0 Cs2 4.700210 1_554
Cs0 Cs2 4.700211 1_555
Cs1 Se2 3.748417 1_456
Cs1 Se1 3.748423 1_545
Cs1 Se2 3.751836 1_545
Cs1 Se1 3.751839 1_456
Cs1 Se5 3.836656 1_555
Cs1 Se6 3.836659 1_555
Cs1 Se0 3.842030 1_555
Cs1 Se3 3.842035 1_555
Cs1 Cs3 4.700209 1_455
Cs1 Cs3 4.700210 1_545
Cs2 Se4 3.748416 1_466
Cs2 Se7 3.748418 1_645
Cs2 Se4 3.751833 1_555
Cs2 Se7 3.751840 1_556
Cs2 Se0 3.836646 1_565
Cs2 Se3 3.836646 1_655
Cs2 Se6 3.842020 1_555
Cs2 Se5 3.842024 1_556
Cs3 Se6 3.748417 1_654
Cs3 Se5 3.748423 1_566
Cs3 Se6 3.751836 1_565
Cs3 Se5 3.751839 1_655
Cs3 Se1 3.836656 1_556
Cs3 Se2 3.836659 1_555
Cs3 Se4 3.842030 1_565
Cs3 Se7 3.842035 1_655
Be0 Se5 2.273160 1_555
Be0 Se6 2.273166 1_555
Be0 Se7 2.273168 1_555
Be0 Se4 2.273171 1_555
Be1 Se1 2.273160 1_556
Be1 Se2 2.273166 1_555
Be1 Se3 2.273168 1_655
Be1 Se0 2.273171 1_565
Se0 Si1 2.270351 1_556
Se1 Si1 2.270341 1_565
Se2 Si1 2.270342 1_655
Se3 Si1 2.270346 1_555
Se4 Si0 2.270351 1_655
Se5 Si0 2.270341 1_655
Se6 Si0 2.270342 1_566
Se7 Si0 2.270346 1_566
