# generated using pymatgen
data_Cs2Cd(PSe3)2
_symmetry_space_group_name_H-M   'P 1'
_cell_length_a   13.11886985
_cell_length_b   6.64372402
_cell_length_c   10.25545459
_cell_angle_alpha   52.40953384
_cell_angle_beta   90.00000000
_cell_angle_gamma   90.00000000
_symmetry_Int_Tables_number   1
_chemical_formula_structural   Cs2Cd(PSe3)2
_chemical_formula_sum   'Cs4 Cd2 P4 Se12'
_cell_volume   708.27602999
_cell_formula_units_Z   2
loop_
 _symmetry_equiv_pos_site_id
 _symmetry_equiv_pos_as_xyz
  1  'x, y, z'
loop_
 _atom_site_type_symbol
 _atom_site_label
 _atom_site_symmetry_multiplicity
 _atom_site_fract_x
 _atom_site_fract_y
 _atom_site_fract_z
 _atom_site_occupancy
  Cs  Cs0  1  0.67171071  0.22964990  0.52362306  1
  Cs  Cs1  1  0.17171071  0.77035010  0.97637694  1
  Cs  Cs2  1  0.32828929  0.77035010  0.47637694  1
  Cs  Cs3  1  0.82828929  0.22964990  0.02362306  1
  Cd  Cd0  1  0.00000000  0.50000000  0.50000000  1
  Cd  Cd1  1  0.50000000  0.50000000  0.00000000  1
  P  P0  1  0.03923679  0.15950877  0.38155015  1
  P  P1  1  0.53923679  0.84049123  0.11844985  1
  P  P2  1  0.96076321  0.84049123  0.61844985  1
  P  P3  1  0.46076321  0.15950877  0.88155015  1
  Se  Se0  1  0.17065302  0.26695268  0.45778550  1
  Se  Se1  1  0.67065302  0.73304732  0.04221450  1
  Se  Se2  1  0.82934698  0.73304732  0.54221450  1
  Se  Se3  1  0.32934698  0.26695268  0.95778550  1
  Se  Se4  1  0.92761261  0.46795544  0.25234167  1
  Se  Se5  1  0.42761261  0.53204456  0.24765833  1
  Se  Se6  1  0.07238739  0.53204456  0.74765833  1
  Se  Se7  1  0.57238739  0.46795544  0.75234167  1
  Se  Se8  1  0.07794890  0.00071337  0.25505808  1
  Se  Se9  1  0.57794890  0.99928663  0.24494192  1
  Se  Se10  1  0.92205110  0.99928663  0.74494192  1
  Se  Se11  1  0.42205110  0.00071337  0.75505808  1
loop_
_geom_bond_atom_site_label_1
_geom_bond_atom_site_label_2
_geom_bond_distance
_geom_bond_site_symmetry_2
Cs0 Se10 3.747237 1_545
Cs0 Se7 3.773213 1_555
Cs0 Se11 3.777529 1_555
Cs0 Se2 3.798799 1_545
Cs0 Se5 3.919656 1_555
Cs0 Se1 3.926237 1_555
Cs0 Se4 4.017873 1_555
Cs0 Se2 4.034379 1_555
Cs0 Se9 4.166537 1_545
Cs0 Se1 4.214628 1_546
Cs0 Se9 4.242343 1_555
Cs0 Se7 4.280960 1_545
Cs1 Se11 3.747237 1_565
Cs1 Se6 3.773213 1_555
Cs1 Se10 3.777529 1_455
Cs1 Se3 3.798799 1_565
Cs1 Se4 3.919656 1_456
Cs1 Se0 3.926237 1_556
Cs1 Se5 4.017873 1_556
Cs1 Se3 4.034379 1_555
Cs1 Se8 4.166537 1_566
Cs1 Se0 4.214628 1_565
Cs1 Se8 4.242343 1_556
Cs1 Se6 4.280960 1_565
Cs2 Se8 3.747237 1_565
Cs2 Se5 3.773213 1_555
Cs2 Se9 3.777529 1_555
Cs2 Se0 3.798799 1_565
Cs2 Se7 3.919656 1_555
Cs2 Se3 3.926237 1_555
Cs2 Se6 4.017873 1_555
Cs2 Se0 4.034379 1_555
Cs2 Se11 4.166537 1_565
Cs2 Se3 4.214628 1_564
Cs2 Se11 4.242343 1_555
Cs2 Se5 4.280960 1_565
Cs3 Se9 3.747237 1_545
Cs3 Se4 3.773213 1_555
Cs3 Se8 3.777529 1_655
Cs3 Se1 3.798799 1_545
Cs3 Se6 3.919656 1_654
Cs3 Se2 3.926237 1_554
Cs3 Se7 4.017873 1_554
Cs3 Se1 4.034379 1_555
Cs3 Se10 4.166537 1_544
Cs3 Se2 4.214628 1_545
Cs3 Se10 4.242343 1_554
Cs3 Se4 4.280960 1_545
Cd0 Se6 2.838603 1_555
Cd0 Se4 2.838603 1_455
Cd0 Se8 2.868287 1_565
Cd0 Se10 2.868287 1_445
Cd0 Se0 2.900788 1_555
Cd0 Se2 2.900788 1_455
Cd1 Se5 2.838603 1_555
Cd1 Se7 2.838603 1_554
Cd1 Se9 2.868287 1_545
Cd1 Se11 2.868287 1_564
Cd1 Se1 2.900788 1_555
Cd1 Se3 2.900788 1_554
P0 Se8 2.173348 1_555
P0 Se0 2.184944 1_555
P0 Se4 2.187866 1_455
P0 P2 2.274261 1_445
P1 Se9 2.173348 1_555
P1 Se1 2.184944 1_555
P1 Se5 2.187866 1_555
P1 P3 2.274261 1_564
P2 Se10 2.173348 1_555
P2 Se2 2.184944 1_555
P2 Se6 2.187866 1_655
P3 Se11 2.173348 1_555
P3 Se3 2.184944 1_555
P3 Se7 2.187866 1_555
