# generated using pymatgen
data_Rb3Ba3AlAs4
_symmetry_space_group_name_H-M   'P 1'
_cell_length_a   10.65568762
_cell_length_b   10.65568873
_cell_length_c   7.99137783
_cell_angle_alpha   90.00000000
_cell_angle_beta   90.00000000
_cell_angle_gamma   119.99999960
_symmetry_Int_Tables_number   1
_chemical_formula_structural   Rb3Ba3AlAs4
_chemical_formula_sum   'Rb6 Ba6 Al2 As8'
_cell_volume   785.80593334
_cell_formula_units_Z   2
loop_
 _symmetry_equiv_pos_site_id
 _symmetry_equiv_pos_as_xyz
  1  'x, y, z'
loop_
 _atom_site_type_symbol
 _atom_site_label
 _atom_site_symmetry_multiplicity
 _atom_site_fract_x
 _atom_site_fract_y
 _atom_site_fract_z
 _atom_site_occupancy
  Rb  Rb0  1  0.73089234  0.86544667  0.17618743  1
  Rb  Rb1  1  0.86544667  0.13455333  0.67618743  1
  Rb  Rb2  1  0.86544667  0.73089234  0.67618743  1
  Rb  Rb3  1  0.13455333  0.26910766  0.17618743  1
  Rb  Rb4  1  0.13455333  0.86544667  0.17618743  1
  Rb  Rb5  1  0.26910766  0.13455333  0.67618743  1
  Ba  Ba0  1  0.05093814  0.52547007  0.49751133  1
  Ba  Ba1  1  0.47452993  0.94906186  0.49751133  1
  Ba  Ba2  1  0.47452993  0.52547007  0.49751133  1
  Ba  Ba3  1  0.52547007  0.47452993  0.99751133  1
  Ba  Ba4  1  0.52547007  0.05093814  0.99751133  1
  Ba  Ba5  1  0.94906186  0.47452993  0.99751133  1
  Al  Al0  1  0.33333300  0.66666700  0.87753217  1
  Al  Al1  1  0.66666700  0.33333300  0.37753217  1
  As  As0  1  0.66666700  0.33333300  0.70472895  1
  As  As1  1  0.59263044  0.79631622  0.77527986  1
  As  As2  1  0.79631622  0.20368378  0.27527986  1
  As  As3  1  0.79631622  0.59263044  0.27527986  1
  As  As4  1  0.33333300  0.66666700  0.20472895  1
  As  As5  1  0.20368378  0.40736956  0.77527986  1
  As  As6  1  0.20368378  0.79631622  0.77527986  1
  As  As7  1  0.40736956  0.20368378  0.27527986  1
loop_
_geom_bond_atom_site_label_1
_geom_bond_atom_site_label_2
_geom_bond_distance
_geom_bond_site_symmetry_2
Rb0 Rb4 4.301285 1_655
Rb0 Rb3 4.301286 1_665
Rb1 Rb5 4.301285 1_655
Rb1 Rb2 4.301286 1_545
Rb2 Rb5 4.301286 1_665
Rb3 Rb4 4.301286 1_545
Ba0 Rb2 3.881153 1_455
Ba0 Rb1 3.881179 1_455
Ba0 Ba5 4.104798 1_455
Ba0 Ba5 4.104798 1_454
Ba0 Rb4 4.157362 1_555
Ba0 Rb3 4.157370 1_555
Ba1 Rb5 3.881152 1_565
Ba1 Rb1 3.881179 1_565
Ba1 Ba4 4.104798 1_564
Ba1 Ba4 4.104798 1_565
Ba1 Rb4 4.157362 1_555
Ba1 Rb0 4.157370 1_555
Ba2 Rb2 3.881178 1_555
Ba2 Rb5 3.881178 1_555
Ba2 Ba3 4.104806 1_555
Ba2 Ba3 4.104806 1_554
Ba2 Rb3 4.157364 1_555
Ba2 Rb0 4.157364 1_555
Ba3 Rb3 3.881178 1_556
Ba3 Rb0 3.881178 1_556
Ba3 Rb2 4.157364 1_555
Ba3 Rb5 4.157364 1_555
Ba4 Rb0 3.881152 1_546
Ba4 Rb4 3.881179 1_546
Ba4 Rb1 4.157362 1_555
Ba4 Rb5 4.157370 1_555
Ba5 Rb3 3.881153 1_656
Ba5 Rb4 3.881179 1_656
Ba5 Rb1 4.157362 1_555
Ba5 Rb2 4.157370 1_555
Al0 As1 2.528499 1_555
Al0 As5 2.528500 1_555
Al0 As6 2.528508 1_555
Al0 As4 2.614753 1_556
Al0 Ba5 3.673426 1_455
Al0 Ba4 3.673426 1_565
Al0 Ba3 3.673453 1_555
Al1 As7 2.528499 1_555
Al1 As3 2.528500 1_555
Al1 As2 2.528508 1_555
Al1 As0 2.614753 1_555
Al1 Ba0 3.673426 1_655
Al1 Ba1 3.673426 1_545
Al1 Ba2 3.673453 1_555
As0 Ba3 3.502196 1_555
As0 Ba5 3.502202 1_555
As0 Ba4 3.502203 1_555
As0 Rb5 3.675799 1_555
As0 Rb1 3.675799 1_555
As0 Rb2 3.675800 1_555
As0 Ba0 3.913687 1_655
As0 Ba1 3.913687 1_545
As0 Ba2 3.913712 1_555
As1 Ba1 3.347887 1_555
As1 Ba2 3.347887 1_555
As1 Rb1 3.404476 1_565
As1 Rb2 3.404496 1_555
As1 Rb0 3.448516 1_556
As1 Ba4 3.601256 1_565
As1 Ba3 3.601292 1_555
As2 Ba4 3.347887 1_554
As2 Ba5 3.347887 1_554
As2 Rb3 3.404466 1_655
As2 Rb0 3.404466 1_545
As2 Rb1 3.448513 1_555
As2 Ba1 3.601280 1_545
As2 Ba0 3.601280 1_655
As3 Ba3 3.347887 1_554
As3 Ba5 3.347887 1_554
As3 Rb4 3.404476 1_655
As3 Rb0 3.404497 1_555
As3 Rb2 3.448516 1_555
As3 Ba0 3.601256 1_655
As3 Ba2 3.601292 1_555
As4 Ba2 3.502196 1_555
As4 Ba0 3.502202 1_555
As4 Ba1 3.502203 1_555
As4 Rb0 3.675799 1_555
As4 Rb4 3.675799 1_555
As4 Rb3 3.675800 1_555
As4 Ba5 3.913687 1_454
As4 Ba4 3.913687 1_564
As4 Ba3 3.913712 1_554
As5 Ba2 3.347887 1_555
As5 Ba0 3.347887 1_555
As5 Rb1 3.404476 1_455
As5 Rb5 3.404497 1_555
As5 Rb3 3.448516 1_556
As5 Ba5 3.601256 1_455
As5 Ba3 3.601292 1_555
As6 Ba1 3.347887 1_555
As6 Ba0 3.347887 1_555
As6 Rb2 3.404466 1_455
As6 Rb5 3.404466 1_565
As6 Rb4 3.448513 1_556
As6 Ba4 3.601280 1_565
As6 Ba5 3.601280 1_455
As7 Ba4 3.347887 1_554
As7 Ba3 3.347887 1_554
As7 Rb4 3.404476 1_545
As7 Rb3 3.404496 1_555
As7 Rb5 3.448516 1_555
As7 Ba1 3.601256 1_545
As7 Ba2 3.601292 1_555
