# generated using pymatgen
data_Pt(SeO3)2
_symmetry_space_group_name_H-M   'P 1'
_cell_length_a   8.29443665
_cell_length_b   4.68406636
_cell_length_c   6.88938084
_cell_angle_alpha   68.49356207
_cell_angle_beta   90.00000000
_cell_angle_gamma   90.00000000
_symmetry_Int_Tables_number   1
_chemical_formula_structural   Pt(SeO3)2
_chemical_formula_sum   'Pt2 Se4 O12'
_cell_volume   249.02835743
_cell_formula_units_Z   2
loop_
 _symmetry_equiv_pos_site_id
 _symmetry_equiv_pos_as_xyz
  1  'x, y, z'
loop_
 _atom_site_type_symbol
 _atom_site_label
 _atom_site_symmetry_multiplicity
 _atom_site_fract_x
 _atom_site_fract_y
 _atom_site_fract_z
 _atom_site_occupancy
  Pt  Pt0  1  0.50000000  0.50000000  0.50000000  1
  Pt  Pt1  1  0.00000000  0.50000000  0.00000000  1
  Se  Se0  1  0.65694316  0.12937008  0.19403537  1
  Se  Se1  1  0.15694316  0.87062992  0.30596463  1
  Se  Se2  1  0.34305684  0.87062992  0.80596463  1
  Se  Se3  1  0.84305684  0.12937008  0.69403537  1
  O  O0  1  0.16362431  0.16367850  0.06329880  1
  O  O1  1  0.66362431  0.83632150  0.43670120  1
  O  O2  1  0.83637569  0.83632150  0.93670120  1
  O  O3  1  0.33637569  0.16367850  0.56329880  1
  O  O4  1  0.06728094  0.57218895  0.25969984  1
  O  O5  1  0.56728094  0.42781105  0.24030016  1
  O  O6  1  0.63925072  0.19789514  0.71764080  1
  O  O7  1  0.13925072  0.80210486  0.78235920  1
  O  O8  1  0.36074928  0.80210486  0.28235920  1
  O  O9  1  0.86074928  0.19789514  0.21764080  1
  O  O10  1  0.43271906  0.57218895  0.75969984  1
  O  O11  1  0.93271906  0.42781105  0.74030016  1
loop_
_geom_bond_atom_site_label_1
_geom_bond_atom_site_label_2
_geom_bond_distance
_geom_bond_site_symmetry_2
O0 Se1 1.731946 1_545
O0 Pt1 2.002526 1_555
O1 Se0 1.731946 1_565
O1 Pt0 2.002526 1_555
O2 Se3 1.731946 1_565
O2 Pt1 2.002526 1_656
O3 Se2 1.731946 1_545
O3 Pt0 2.002526 1_555
O4 Se1 1.713343 1_555
O4 Pt1 2.017544 1_555
O5 Se0 1.713343 1_555
O5 Pt0 2.017544 1_555
O6 Se3 1.739365 1_555
O6 Pt0 2.007238 1_555
O7 Se2 1.739365 1_555
O7 Pt1 2.007238 1_556
O8 Se1 1.739365 1_555
O8 Pt0 2.007238 1_555
O9 Se0 1.739365 1_555
O9 Pt1 2.007238 1_655
O10 Se2 1.713343 1_555
O10 Pt0 2.017544 1_555
O11 Se3 1.713343 1_555
O11 Pt1 2.017544 1_656
