# generated using pymatgen
data_Ba6ScMn4O15
_symmetry_space_group_name_H-M   'P 1'
_cell_length_a   7.24562755
_cell_length_b   7.24556222
_cell_length_c   7.24531168
_cell_angle_alpha   89.13474226
_cell_angle_beta   89.13575354
_cell_angle_gamma   89.13180669
_symmetry_Int_Tables_number   1
_chemical_formula_structural   Ba6ScMn4O15
_chemical_formula_sum   'Ba6 Sc1 Mn4 O15'
_cell_volume   380.24003522
_cell_formula_units_Z   1
loop_
 _symmetry_equiv_pos_site_id
 _symmetry_equiv_pos_as_xyz
  1  'x, y, z'
loop_
 _atom_site_type_symbol
 _atom_site_label
 _atom_site_symmetry_multiplicity
 _atom_site_fract_x
 _atom_site_fract_y
 _atom_site_fract_z
 _atom_site_occupancy
  Ba  Ba0  1  0.32702488  0.67294042  0.99995482  1
  Ba  Ba1  1  0.99998588  0.32709643  0.67292156  1
  Ba  Ba2  1  0.67285874  0.99997688  0.32709625  1
  Ba  Ba3  1  0.14185048  0.85806379  0.49998097  1
  Ba  Ba4  1  0.49998033  0.14192830  0.85816529  1
  Ba  Ba5  1  0.85808699  0.50000910  0.14184462  1
  Sc  Sc0  1  0.50007858  0.49995056  0.49998135  1
  Mn  Mn0  1  0.29022660  0.29018111  0.29015629  1
  Mn  Mn1  1  0.70981255  0.70981551  0.70985856  1
  Mn  Mn2  1  0.09399589  0.09405329  0.09403769  1
  Mn  Mn3  1  0.90592476  0.90600338  0.90598107  1
  O  O0  1  0.14714151  0.00007360  0.85275207  1
  O  O1  1  0.85272879  0.14724347  0.00006846  1
  O  O2  1  0.99998141  0.85281660  0.14723728  1
  O  O3  1  0.03721559  0.19747376  0.33218832  1
  O  O4  1  0.33213048  0.03713779  0.19738951  1
  O  O5  1  0.19740788  0.33217506  0.03714156  1
  O  O6  1  0.80249779  0.96286825  0.66784330  1
  O  O7  1  0.66780113  0.80256992  0.96287846  1
  O  O8  1  0.96285597  0.66787604  0.80258358  1
  O  O9  1  0.37118284  0.23769026  0.53208245  1
  O  O10  1  0.53218600  0.37098143  0.23765178  1
  O  O11  1  0.23787326  0.53215051  0.37101001  1
  O  O12  1  0.76230476  0.62891686  0.46788788  1
  O  O13  1  0.46783626  0.76216475  0.62898736  1
  O  O14  1  0.62903066  0.46784293  0.76231851  1
loop_
_geom_bond_atom_site_label_1
_geom_bond_atom_site_label_2
_geom_bond_distance
_geom_bond_site_symmetry_2
Ba0 O5 2.663324 1_556
Ba0 O7 2.663386 1_555
Ba0 O2 2.885242 1_456
Ba0 O0 2.885545 1_565
Ba0 O13 2.927080 1_555
Ba0 O11 2.927486 1_556
Ba0 O8 3.021096 1_455
Ba0 O4 3.021512 1_566
Ba0 O14 3.134668 1_555
Ba0 O10 3.134851 1_556
Ba1 O3 2.663020 1_655
Ba1 O8 2.663434 1_555
Ba1 O0 2.884605 1_655
Ba1 O1 2.885719 1_556
Ba1 O14 2.927140 1_555
Ba1 O9 2.928990 1_655
Ba1 O5 3.021532 1_656
Ba1 O6 3.021983 1_545
Ba1 O12 3.133670 1_555
Ba1 O11 3.135118 1_655
Ba2 O6 2.663067 1_555
Ba2 O4 2.663228 1_565
Ba2 O1 2.885107 1_565
Ba2 O2 2.885335 1_555
Ba2 O10 2.927324 1_565
Ba2 O12 2.927992 1_555
Ba2 O7 3.021476 1_554
Ba2 O3 3.022853 1_665
Ba2 O9 3.132958 1_565
Ba2 O13 3.134606 1_555
Ba3 O11 2.632641 1_555
Ba3 O13 2.632985 1_555
Ba3 O2 2.770064 1_455
Ba3 O0 2.770664 1_565
Ba3 O3 2.825153 1_565
Ba3 O6 2.825372 1_455
Ba3 O8 2.874878 1_455
Ba3 O4 2.875394 1_565
Ba3 O12 3.246958 1_455
Ba3 O9 3.248158 1_565
Ba4 O14 2.632630 1_555
Ba4 O9 2.632765 1_555
Ba4 O1 2.770295 1_556
Ba4 O0 2.770868 1_555
Ba4 O4 2.824488 1_556
Ba4 O7 2.825059 1_545
Ba4 O5 2.874819 1_556
Ba4 O6 2.875053 1_545
Ba4 O10 3.246141 1_556
Ba4 O13 3.248349 1_545
Ba5 O10 2.632433 1_555
Ba5 O12 2.632858 1_555
Ba5 O1 2.770061 1_555
Ba5 O2 2.770745 1_555
Ba5 O8 2.824719 1_554
Ba5 O5 2.824878 1_655
Ba5 O7 2.874821 1_554
Ba5 O3 2.875407 1_655
Ba5 O14 3.246359 1_554
Ba5 O11 3.248439 1_655
Mn0 O11 1.888109 1_555
Mn0 O10 1.888185 1_555
Mn0 O9 1.888189 1_555
Mn0 O3 1.979634 1_555
Mn0 O5 1.979782 1_555
Mn0 O4 1.979807 1_555
Mn1 O14 1.888155 1_555
Mn1 O13 1.888193 1_555
Mn1 O12 1.888372 1_555
Mn1 O7 1.979684 1_555
Mn1 O8 1.979738 1_555
Mn1 O6 1.979826 1_555
Mn2 O2 1.917172 1_445
Mn2 O1 1.917183 1_455
Mn2 O0 1.917243 1_554
Mn2 O4 1.927692 1_555
Mn2 O3 1.927777 1_555
Mn2 O5 1.927820 1_555
Mn3 O0 1.917242 1_665
Mn3 O2 1.917291 1_556
Mn3 O1 1.917325 1_566
Mn3 O8 1.927801 1_555
Mn3 O6 1.927815 1_555
Mn3 O7 1.927911 1_555
O9 Sc0 2.138001 1_555
O10 Sc0 2.138585 1_555
O11 Sc0 2.137883 1_555
O12 Sc0 2.138018 1_555
O13 Sc0 2.138082 1_555
O14 Sc0 2.138564 1_555
