# generated using pymatgen
data_B2PdPtRh2
_symmetry_space_group_name_H-M   'P 1'
_cell_length_a   6.67583339
_cell_length_b   6.06412196
_cell_length_c   5.46746873
_cell_angle_alpha   70.53204710
_cell_angle_beta   58.91875221
_cell_angle_gamma   50.47935895
_symmetry_Int_Tables_number   1
_chemical_formula_structural   B2PdPtRh2
_chemical_formula_sum   'B4 Pd2 Pt2 Rh4'
_cell_volume   146.22460430
_cell_formula_units_Z   2
loop_
 _symmetry_equiv_pos_site_id
 _symmetry_equiv_pos_as_xyz
  1  'x, y, z'
loop_
 _atom_site_type_symbol
 _atom_site_label
 _atom_site_symmetry_multiplicity
 _atom_site_fract_x
 _atom_site_fract_y
 _atom_site_fract_z
 _atom_site_occupancy
  B  B0  1  0.04663201  0.99153553  0.55960781  1
  B  B1  1  0.68555655  0.86083914  0.20712565  1
  B  B2  1  0.38916086  0.56444345  0.00351934  1
  B  B3  1  0.25846447  0.20336799  0.84777635  1
  Pd  Pd0  1  0.86889847  0.36818150  0.28946104  1
  Pd  Pd1  1  0.88181850  0.38110153  0.77653901  1
  Pt  Pt0  1  0.96556628  0.77219276  0.37920379  1
  Pt  Pt1  1  0.47780724  0.28443372  0.36696384  1
  Rh  Rh0  1  0.08981215  0.64756216  0.86090340  1
  Rh  Rh1  1  0.39054748  0.85150086  0.15668636  1
  Rh  Rh2  1  0.60243784  0.16018785  0.84827771  1
  Rh  Rh3  1  0.39849914  0.85945252  0.64873470  1
loop_
_geom_bond_atom_site_label_1
_geom_bond_atom_site_label_2
_geom_bond_distance
_geom_bond_site_symmetry_2
B0 Rh1 2.094937 1_555
B0 Rh0 2.140648 1_555
B0 Rh2 2.171204 1_465
B0 Pd0 2.217633 1_465
B0 Rh3 2.219002 1_555
B0 Pt0 2.318791 1_455
B0 Pd1 2.326007 1_465
B1 Rh0 2.110497 1_654
B1 Rh1 2.161260 1_555
B1 Rh3 2.175263 1_555
B1 Pt0 2.206413 1_555
B1 Rh2 2.218257 1_564
B1 Pt1 2.235251 1_565
B1 Pd0 2.375861 1_555
B2 Rh2 2.110492 1_554
B2 Rh3 2.161253 1_554
B2 Rh1 2.175270 1_555
B2 Pt1 2.206426 1_555
B2 Rh0 2.218249 1_554
B2 Pt0 2.235254 1_455
B2 Pd1 2.375861 1_554
B3 Rh3 2.094940 1_545
B3 Rh2 2.140645 1_555
B3 Rh0 2.171203 1_555
B3 Pd1 2.217643 1_455
B3 Rh1 2.218999 1_546
B3 Pt1 2.318791 1_555
B3 Pd0 2.326011 1_456
Pd0 Pd1 2.736865 1_555
Pd0 Rh1 2.736867 1_645
Pd0 Pd1 2.736887 1_554
Pd0 Rh0 2.738889 1_654
Pd0 Pt1 2.766924 1_555
Pd0 Rh3 2.867083 1_555
Pd0 Rh1 2.894533 1_555
Pd0 Rh2 2.960632 1_555
Pd1 Rh3 2.736867 1_645
Pd1 Rh2 2.738885 1_555
Pd1 Pt0 2.766922 1_555
Pd1 Rh1 2.867089 1_556
Pd1 Rh3 2.894527 1_555
Pd1 Rh0 2.960638 1_655
Pt0 Pt1 2.733071 1_565
Pt0 Pt1 2.733074 1_655
Pt0 Rh0 2.737228 1_654
Pt0 Rh1 2.746507 1_655
Pt0 Rh0 2.885539 1_655
Pt0 Rh2 2.886808 1_565
Pt1 Rh2 2.737233 1_554
Pt1 Rh3 2.746507 1_545
Pt1 Rh2 2.885534 1_555
Pt1 Rh0 2.886804 1_555
Rh0 Rh3 2.674253 1_555
Rh0 Rh2 2.733253 1_465
Rh0 Rh2 2.733253 1_555
Rh1 Rh2 2.674253 1_564
