# generated using pymatgen
data_Rb5Ba(MoH9)3
_symmetry_space_group_name_H-M   'P 1'
_cell_length_a   10.21384961
_cell_length_b   9.84138865
_cell_length_c   5.82768826
_cell_angle_alpha   90.00000000
_cell_angle_beta   90.00000000
_cell_angle_gamma   118.80087154
_symmetry_Int_Tables_number   1
_chemical_formula_structural   Rb5Ba(MoH9)3
_chemical_formula_sum   'Rb5 Ba1 Mo3 H27'
_cell_volume   513.32763429
_cell_formula_units_Z   1
loop_
 _symmetry_equiv_pos_site_id
 _symmetry_equiv_pos_as_xyz
  1  'x, y, z'
loop_
 _atom_site_type_symbol
 _atom_site_label
 _atom_site_symmetry_multiplicity
 _atom_site_fract_x
 _atom_site_fract_y
 _atom_site_fract_z
 _atom_site_occupancy
  Rb  Rb0  1  0.75209545  0.75518028  0.50000000  1
  Rb  Rb1  1  0.24790455  0.00308484  0.50000000  1
  Rb  Rb2  1  1.00000000  0.60867951  0.00000000  1
  Rb  Rb3  1  0.36698637  0.39150338  0.00000000  1
  Rb  Rb4  1  0.63301363  0.02451801  0.00000000  1
  Ba  Ba0  1  0.00000000  0.25794477  0.50000000  1
  Mo  Mo0  1  0.67159394  0.31110113  0.50000000  1
  Mo  Mo1  1  0.32840606  0.63950820  0.50000000  1
  Mo  Mo2  1  0.00000000  0.01498732  0.00000000  1
  H  H0  1  0.80013333  0.32184348  0.71446285  1
  H  H1  1  0.60934187  0.42104405  0.67521409  1
  H  H2  1  0.54284736  0.18725691  0.70304384  1
  H  H3  1  0.19986667  0.52171115  0.28553715  1
  H  H4  1  0.54284736  0.18725691  0.29695616  1
  H  H5  1  0.80013333  0.32184348  0.28553715  1
  H  H6  1  0.60934187  0.42104405  0.32478591  1
  H  H7  1  0.39065813  0.81170318  0.67521409  1
  H  H8  1  0.45715264  0.64440955  0.70304384  1
  H  H9  1  0.16699101  0.01069765  0.00000000  1
  H  H10  1  0.83300899  0.84370665  0.00000000  1
  H  H11  1  1.00000000  0.19489380  0.00000000  1
  H  H12  1  0.87873198  0.01392090  0.21774031  1
  H  H13  1  0.12126802  0.13518892  0.78225969  1
  H  H14  1  0.00000000  0.88444124  0.79529415  1
  H  H15  1  0.00000000  0.88444124  0.20470585  1
  H  H16  1  0.12126802  0.13518892  0.21774031  1
  H  H17  1  0.87873198  0.01392090  0.78225969  1
  H  H18  1  0.18280422  0.68575310  0.50000000  1
  H  H19  1  0.41859015  0.84778331  0.50000000  1
  H  H20  1  0.32725111  0.46136569  0.50000000  1
  H  H21  1  0.58140985  0.42919316  0.50000000  1
  H  H22  1  0.81719578  0.50294888  0.50000000  1
  H  H23  1  0.67274889  0.13411359  0.50000000  1
  H  H24  1  0.19986667  0.52171115  0.71446285  1
  H  H25  1  0.39065813  0.81170318  0.32478591  1
  H  H26  1  0.45715264  0.64440955  0.29695616  1
loop_
_geom_bond_atom_site_label_1
_geom_bond_atom_site_label_2
_geom_bond_distance
_geom_bond_site_symmetry_2
Ba0 H17 2.672301 1_455
Ba0 H12 2.672301 1_455
Ba0 H13 2.672301 1_555
Ba0 H16 2.672301 1_555
Ba0 H0 2.713262 1_455
Ba0 H5 2.713262 1_455
Ba0 H24 2.713267 1_555
Ba0 H3 2.713267 1_555
Ba0 H23 2.955091 1_455
Ba0 H20 2.955092 1_555
Ba0 H11 2.979181 1_455
Ba0 H11 2.979181 1_456
H0 Mo0 1.778527 1_555
H0 H23 2.086167 1_555
H0 H22 2.114199 1_555
H0 H2 2.304514 1_555
H0 Rb2 3.058170 1_556
H0 Rb4 3.071174 1_556
H1 H21 1.073546 1_555
H1 Mo0 1.811214 1_555
H1 H2 2.067745 1_555
H1 H22 2.133212 1_555
H1 Rb3 3.016810 1_556
H1 Rb0 3.059758 1_555
H2 Mo0 1.752301 1_555
H2 H23 2.025506 1_555
H2 H4 2.366552 1_555
H2 Rb4 2.798076 1_556
H2 Rb1 2.915377 1_555
H3 Mo1 1.778526 1_555
H3 Rb2 3.058164 1_455
H3 Rb3 3.071188 1_555
H4 Mo0 1.752301 1_555
H4 H6 2.067745 1_555
H4 H5 2.304514 1_555
H4 Rb4 2.798076 1_555
H4 Rb1 2.915377 1_555
H5 Mo0 1.778527 1_555
H5 Rb2 3.058170 1_555
H5 Rb4 3.071174 1_555
H6 Mo0 1.811214 1_555
H6 Rb3 3.016810 1_555
H6 Rb0 3.059758 1_555
H7 Mo1 1.811214 1_555
H7 H8 2.067755 1_555
H7 Rb4 3.016810 1_566
H7 Rb1 3.059750 1_565
H8 Mo1 1.752305 1_555
H8 Rb3 2.798083 1_556
H8 Rb0 2.915377 1_555
H9 Mo2 1.726356 1_555
H9 Rb1 3.039533 1_555
H9 Rb1 3.039533 1_554
H9 Rb3 3.292626 1_555
H9 Rb2 3.472795 1_445
H10 Mo2 1.726356 1_665
H10 H15 1.958108 1_655
H10 H14 1.958108 1_654
H10 H12 1.969922 1_565
H10 H17 1.969922 1_564
H10 Rb0 3.039533 1_555
H10 Rb0 3.039533 1_554
H10 Rb4 3.292635 1_565
H10 Rb2 3.472796 1_555
H11 Mo2 1.770530 1_655
H11 H12 2.047149 1_555
H11 H17 2.047149 1_554
H11 H16 2.047149 1_655
H11 H13 2.047149 1_654
H12 Mo2 1.769721 1_655
H12 H15 2.164355 1_645
H12 H16 2.170792 1_655
H12 Rb0 2.772953 1_545
H12 Rb4 2.858668 1_555
H13 Mo2 1.769721 1_556
H13 H9 1.969922 1_556
H13 H14 2.164354 1_545
H13 H17 2.170792 1_455
H13 Rb1 2.772953 1_555
H13 Rb3 2.858663 1_556
H14 Mo2 1.753212 1_566
H14 H9 1.958108 1_566
H14 H17 2.164355 1_465
H14 H15 2.385924 1_556
H14 Rb0 2.808456 1_455
H14 Rb1 2.808456 1_565
H14 Rb2 2.964506 1_456
H15 Mo2 1.753212 1_565
H15 H9 1.958108 1_565
H15 H16 2.164354 1_565
H15 Rb0 2.808456 1_455
H15 Rb1 2.808456 1_565
H15 Rb2 2.964506 1_455
H16 Mo2 1.769721 1_555
H16 H9 1.969922 1_555
H16 Rb1 2.772953 1_555
H16 Rb3 2.858663 1_555
H17 Mo2 1.769721 1_656
H17 Rb0 2.772953 1_545
H17 Rb4 2.858668 1_556
H18 Mo1 1.752399 1_555
H18 H24 2.114191 1_555
H18 H3 2.114191 1_555
H18 H7 2.133213 1_555
H18 H25 2.133213 1_555
H18 H19 2.154615 1_555
H18 Rb1 2.862575 1_565
H18 Rb2 3.344760 1_455
H18 Rb2 3.344760 1_456
H19 H7 1.073544 1_555
H19 H25 1.073544 1_555
H19 Mo1 1.797390 1_555
H19 Rb1 2.818262 1_565
H20 Mo1 1.747517 1_555
H20 H8 2.025500 1_555
H20 H26 2.025500 1_555
H20 H24 2.086167 1_555
H20 H3 2.086167 1_555
H20 Rb3 3.065417 1_556
H20 Rb3 3.065417 1_555
H21 H6 1.073546 1_555
H21 Mo0 1.797399 1_555
H21 H22 2.154615 1_555
H21 Rb0 2.818261 1_555
H22 Mo0 1.752406 1_555
H22 H5 2.114199 1_555
H22 H6 2.133212 1_555
H22 Rb0 2.862575 1_555
H22 Rb2 3.344760 1_556
H22 Rb2 3.344760 1_555
H23 Mo0 1.747517 1_555
H23 H4 2.025506 1_555
H23 H5 2.086167 1_555
H23 Rb4 3.065411 1_555
H23 Rb4 3.065411 1_556
H24 Mo1 1.778526 1_555
H24 H8 2.304514 1_555
H24 Rb2 3.058164 1_456
H24 Rb3 3.071188 1_556
H25 Mo1 1.811214 1_555
H25 H26 2.067755 1_555
H25 Rb4 3.016810 1_565
H25 Rb1 3.059750 1_565
H26 Mo1 1.752305 1_555
H26 H3 2.304514 1_555
H26 H8 2.366552 1_555
H26 Rb3 2.798083 1_555
H26 Rb0 2.915377 1_555
