# generated using pymatgen
data_Ca4Al17SiIr6
_symmetry_space_group_name_H-M   'P 1'
_cell_length_a   7.50270490
_cell_length_b   7.50269617
_cell_length_c   9.53584564
_cell_angle_alpha   90.00000000
_cell_angle_beta   90.00000000
_cell_angle_gamma   119.52101086
_symmetry_Int_Tables_number   1
_chemical_formula_structural   Ca4Al17SiIr6
_chemical_formula_sum   'Ca4 Al17 Si1 Ir6'
_cell_volume   467.09053761
_cell_formula_units_Z   1
loop_
 _symmetry_equiv_pos_site_id
 _symmetry_equiv_pos_as_xyz
  1  'x, y, z'
loop_
 _atom_site_type_symbol
 _atom_site_label
 _atom_site_symmetry_multiplicity
 _atom_site_fract_x
 _atom_site_fract_y
 _atom_site_fract_z
 _atom_site_occupancy
  Ca  Ca0  1  0.99179572  0.67647405  0.25000000  1
  Ca  Ca1  1  0.00289669  0.33151283  0.75000000  1
  Ca  Ca2  1  0.67647405  0.99179572  0.25000000  1
  Ca  Ca3  1  0.33151283  0.00289569  0.75000000  1
  Al  Al0  1  0.87325987  0.87325987  0.75000000  1
  Al  Al1  1  0.00236823  0.33674699  0.07033647  1
  Al  Al2  1  0.99905009  0.66647341  0.92947714  1
  Al  Al3  1  0.99905009  0.66647341  0.57052286  1
  Al  Al4  1  0.33674599  0.00236823  0.42966353  1
  Al  Al5  1  0.00236823  0.33674699  0.42966353  1
  Al  Al6  1  0.66647441  0.99905109  0.57052286  1
  Al  Al7  1  0.66647441  0.99905109  0.92947714  1
  Al  Al8  1  0.33674599  0.00236823  0.07033647  1
  Al  Al9  1  0.33246118  0.33246118  0.55488841  1
  Al  Al10  1  0.66193012  0.66193012  0.46043184  1
  Al  Al11  1  0.66193012  0.66193012  0.03956816  1
  Al  Al12  1  0.33246118  0.33246118  0.94511159  1
  Al  Al13  1  0.33006330  0.54301922  0.25000000  1
  Al  Al14  1  0.66519703  0.45564520  0.75000000  1
  Al  Al15  1  0.54302022  0.33006430  0.25000000  1
  Al  Al16  1  0.45564620  0.66519703  0.75000000  1
  Si  Si0  1  0.13611653  0.13611653  0.25000000  1
  Ir  Ir0  1  0.66953258  0.32803084  0.00068324  1
  Ir  Ir1  1  0.32803084  0.66953158  0.00068224  1
  Ir  Ir2  1  0.32803084  0.66953158  0.49931776  1
  Ir  Ir3  1  0.66953258  0.32803084  0.49931676  1
  Ir  Ir4  1  0.00041283  0.00041283  0.00729569  1
  Ir  Ir5  1  0.00041283  0.00041283  0.49270431  1
loop_
_geom_bond_atom_site_label_1
_geom_bond_atom_site_label_2
_geom_bond_distance
_geom_bond_site_symmetry_2
Ca0 Si0 3.063513 1_665
Ca0 Ir5 3.333564 1_665
Ca0 Ir4 3.333564 1_665
Ca2 Si0 3.063517 1_665
Ca2 Ir5 3.333566 1_665
Ca2 Ir4 3.333566 1_665
Al0 Ir4 2.634981 1_666
Al0 Ir5 2.634981 1_665
Al0 Al16 2.726514 1_555
Al0 Al14 2.726518 1_555
Al0 Al7 2.769438 1_555
Al0 Al6 2.769438 1_555
Al0 Al2 2.769438 1_555
Al0 Al3 2.769438 1_555
Al0 Ca1 3.077544 1_665
Al0 Ca3 3.077550 1_665
Al0 Al11 3.189842 1_556
Al0 Al10 3.189842 1_555
Al1 Ir0 2.553499 1_455
Al1 Ir1 2.575479 1_555
Al1 Ir4 2.587030 1_555
Al1 Al13 2.761391 1_555
Al1 Al12 2.763864 1_554
Al1 Si0 2.774270 1_555
Al1 Al2 2.825846 1_454
Al1 Al7 2.877866 1_444
Al1 Ca1 3.054959 1_554
Al1 Ca2 3.061950 1_445
Al1 Ca0 3.104429 1_455
Al2 Ir1 2.549116 1_656
Al2 Ir4 2.608214 1_666
Al2 Ir0 2.614255 1_556
Al2 Al8 2.877869 1_666
Al2 Ca1 3.052398 1_655
Al2 Ca3 3.052435 1_665
Al2 Ca0 3.058520 1_556
Al3 Ir2 2.549116 1_655
Al3 Ir5 2.608214 1_665
Al3 Ir3 2.614255 1_555
Al3 Al5 2.825846 1_655
Al3 Al4 2.877869 1_665
Al3 Ca1 3.052398 1_655
Al3 Ca3 3.052435 1_665
Al3 Ca0 3.058520 1_555
Al4 Ir2 2.553509 1_545
Al4 Ir3 2.575484 1_555
Al4 Ir5 2.587025 1_555
Al4 Al9 2.763858 1_555
Al4 Si0 2.774265 1_555
Al4 Al6 2.825858 1_545
Al4 Ca3 3.054959 1_555
Al4 Ca0 3.061947 1_445
Al4 Ca2 3.104437 1_545
Al5 Ir3 2.553499 1_455
Al5 Ir2 2.575479 1_555
Al5 Ir5 2.587030 1_555
Al5 Al9 2.763864 1_555
Al5 Si0 2.774270 1_555
Al5 Al6 2.877866 1_445
Al5 Ca1 3.054959 1_555
Al5 Ca2 3.061950 1_445
Al5 Ca0 3.104429 1_455
Al6 Ir3 2.549109 1_565
Al6 Ir5 2.608213 1_665
Al6 Ir2 2.614264 1_555
Al6 Ca3 3.052400 1_565
Al6 Ca1 3.052432 1_665
Al6 Ca2 3.058520 1_555
Al7 Ir0 2.549109 1_566
Al7 Ir4 2.608213 1_666
Al7 Ir1 2.614264 1_556
Al7 Al8 2.825858 1_566
Al7 Ca3 3.052400 1_565
Al7 Ca1 3.052432 1_665
Al7 Ca2 3.058520 1_556
Al8 Ir1 2.553509 1_545
Al8 Ir0 2.575484 1_555
Al8 Ir4 2.587025 1_555
Al8 Si0 2.774265 1_555
Al8 Ca3 3.054959 1_554
Al8 Ca0 3.061947 1_445
Al8 Ca2 3.104437 1_545
Al9 Ir5 2.578387 1_555
Al9 Ir2 2.600053 1_555
Al9 Ir3 2.600065 1_555
Al9 Ca1 3.091642 1_555
Al9 Ca3 3.091645 1_555
Al10 Ir3 2.560725 1_555
Al10 Ir2 2.560726 1_555
Al10 Ir5 2.576344 1_665
Al10 Al9 2.647700 1_555
Al10 Al3 2.723181 1_555
Al10 Al6 2.723182 1_555
Al10 Al15 2.972035 1_555
Al10 Al13 2.972042 1_555
Al10 Ca2 3.146019 1_555
Al10 Ca0 3.146021 1_555
Al10 Al16 3.171431 1_555
Al10 Al14 3.171434 1_555
Al11 Ir0 2.560725 1_555
Al11 Ir1 2.560726 1_555
Al11 Ir4 2.576344 1_665
Al11 Al12 2.647700 1_554
Al11 Al2 2.723181 1_554
Al11 Al7 2.723182 1_554
Al11 Al15 2.972035 1_555
Al11 Al13 2.972042 1_555
Al11 Ca2 3.146019 1_555
Al11 Ca0 3.146021 1_555
Al11 Al16 3.171431 1_554
Al11 Al14 3.171434 1_554
Al12 Ir4 2.578387 1_556
Al12 Ir1 2.600053 1_556
Al12 Ir0 2.600065 1_556
Al12 Al8 2.763858 1_556
Al12 Al16 2.876489 1_555
Al12 Al14 2.876492 1_555
Al12 Ca1 3.091642 1_555
Al12 Ca3 3.091645 1_555
Al13 Ir2 2.562761 1_555
Al13 Ir1 2.562761 1_555
Al13 Si0 2.656984 1_555
Al13 Al15 2.760672 1_555
Al13 Al5 2.761391 1_555
Al13 Ca2 3.076986 1_555
Al13 Ca0 3.154022 1_455
Al14 Ir0 2.581248 1_556
Al14 Ir3 2.581248 1_555
Al14 Al16 2.716536 1_555
Al14 Al2 2.792962 1_555
Al14 Al3 2.792962 1_555
Al14 Al9 2.876492 1_555
Al14 Ca3 3.070105 1_555
Al14 Ca1 3.100359 1_655
Al15 Ir3 2.562754 1_555
Al15 Ir0 2.562754 1_555
Al15 Si0 2.656993 1_555
Al15 Al4 2.761396 1_555
Al15 Al8 2.761396 1_555
Al15 Ca0 3.076981 1_555
Al15 Ca2 3.154022 1_545
Al16 Ir1 2.581241 1_556
Al16 Ir2 2.581241 1_555
Al16 Al7 2.792965 1_555
Al16 Al6 2.792965 1_555
Al16 Al9 2.876489 1_555
Al16 Ca1 3.070107 1_555
Al16 Ca3 3.100355 1_565
Ir4 Si0 2.531416 1_555
Ir5 Si0 2.531416 1_555
