# generated using pymatgen
data_Ta6Ti(NbSi2)3
_symmetry_space_group_name_H-M   'P 1'
_cell_length_a   7.52677947
_cell_length_b   7.52761128
_cell_length_c   7.52609788
_cell_angle_alpha   128.61232422
_cell_angle_beta   128.61065402
_cell_angle_gamma   75.62218198
_symmetry_Int_Tables_number   1
_chemical_formula_structural   Ta6Ti(NbSi2)3
_chemical_formula_sum   'Ta6 Ti1 Nb3 Si6'
_cell_volume   253.31399976
_cell_formula_units_Z   1
loop_
 _symmetry_equiv_pos_site_id
 _symmetry_equiv_pos_as_xyz
  1  'x, y, z'
loop_
 _atom_site_type_symbol
 _atom_site_label
 _atom_site_symmetry_multiplicity
 _atom_site_fract_x
 _atom_site_fract_y
 _atom_site_fract_z
 _atom_site_occupancy
  Ta  Ta0  1  0.18487082  0.68392744  0.16789378  1
  Ta  Ta1  1  0.98312051  0.81418924  0.49901556  1
  Ta  Ta2  1  0.31469737  0.48378781  0.50003577  1
  Ta  Ta3  1  0.48366224  0.98315315  0.16851412  1
  Ta  Ta4  1  0.81430799  0.31492397  0.83186242  1
  Ta  Ta5  1  0.50054309  0.50079132  0.99982458  1
  Ti  Ti0  1  0.00032490  0.00023946  0.99982042  1
  Nb  Nb0  1  0.01786541  0.18505643  0.50075116  1
  Nb  Nb1  1  0.68480972  0.51751742  0.50020278  1
  Nb  Nb2  1  0.51704482  0.01746459  0.83227256  1
  Si  Si0  1  0.74995004  0.74919034  0.00007493  1
  Si  Si1  1  0.24823033  0.24890615  0.99986221  1
  Si  Si2  1  0.36692198  0.12655180  0.49312161  1
  Si  Si3  1  0.63270842  0.87317005  0.50550773  1
  Si  Si4  1  0.87345771  0.36750435  0.24069723  1
  Si  Si5  1  0.12748666  0.63362848  0.76054313  1
loop_
_geom_bond_atom_site_label_1
_geom_bond_atom_site_label_2
_geom_bond_distance
_geom_bond_site_symmetry_2
Ta0 Ta4 2.857862 1_454
Ta0 Ta5 3.015563 1_554
Ta0 Ti0 3.020384 1_564
Ta0 Ta2 3.223965 1_555
Ta0 Ta1 3.226665 1_455
Ta1 Ta5 3.005974 1_554
Ta1 Ti0 3.012805 1_665
Ta1 Ta2 3.054783 1_655
Ta2 Ta5 3.007147 1_555
Ta2 Ti0 3.012948 1_554
Ta3 Ta5 3.005164 1_554
Ta3 Ti0 3.011684 1_564
Ta3 Ta4 3.061649 1_565
Ta4 Ta5 3.001716 1_555
Ta4 Ti0 3.008449 1_655
Nb0 Si2 2.584937 1_555
Nb0 Si4 2.618539 1_455
Nb0 Si5 2.652498 1_555
Nb0 Si1 2.716510 1_555
Nb0 Si0 2.720702 1_445
Nb0 Ta1 2.859231 1_445
Nb0 Ta5 3.011854 1_555
Nb0 Ti0 3.014963 1_554
Nb0 Nb1 3.071109 1_455
Nb0 Ta3 3.236248 1_445
Nb0 Ta4 3.239409 1_455
Nb1 Si3 2.586037 1_555
Nb1 Si5 2.620278 1_655
Nb1 Si4 2.649133 1_555
Nb1 Si0 2.714591 1_556
Nb1 Si1 2.723926 1_554
Nb1 Ta2 2.858566 1_555
Nb1 Ti0 3.011694 1_665
Nb1 Ta5 3.016242 1_554
Nb1 Ta3 3.237149 1_545
Nb1 Ta4 3.237706 1_555
Nb2 Si4 2.588101 1_556
Nb2 Si3 2.618045 1_545
Nb2 Si2 2.649886 1_555
Nb2 Si0 2.721793 1_546
Nb2 Si1 2.722442 1_555
Nb2 Ta3 2.859243 1_546
Nb2 Ti0 3.013932 1_655
Nb2 Ta5 3.014572 1_555
Nb2 Ta0 3.066419 1_545
Nb2 Ta2 3.234062 1_545
Nb2 Ta1 3.235207 1_445
Si0 Ta1 2.707115 1_555
Si0 Ta4 2.708758 1_554
Si0 Ta3 2.712460 1_555
Si0 Ta2 2.714061 1_554
Si0 Ta0 2.714465 1_655
Si0 Ta5 2.958847 1_554
Si0 Ti0 2.983362 1_664
Si1 Ta2 2.707162 1_556
Si1 Ta4 2.708680 1_455
Si1 Ta3 2.711946 1_546
Si1 Ta0 2.712682 1_556
Si1 Ta1 2.712758 1_445
Si1 Ti0 2.952748 1_555
Si1 Ta5 2.998567 1_555
Si2 Si3 2.396446 1_545
Si2 Ti0 2.532427 1_554
Si2 Ta5 2.588901 1_555
Si2 Ta2 2.591250 1_555
Si2 Ta3 2.611962 1_545
Si2 Ta0 2.621650 1_545
Si2 Ta4 2.644728 1_555
Si3 Ti0 2.537156 1_665
Si3 Ta5 2.583841 1_554
Si3 Ta1 2.589978 1_555
Si3 Ta4 2.613882 1_565
Si3 Ta3 2.642906 1_555
Si3 Ta0 2.650547 1_555
Si4 Si5 2.399968 1_655
Si4 Ti0 2.536845 1_654
Si4 Ta4 2.584610 1_554
Si4 Ta5 2.586974 1_554
Si4 Ta2 2.612830 1_655
Si4 Ta1 2.642698 1_555
Si5 Ti0 2.532126 1_565
Si5 Ta5 2.582539 1_555
Si5 Ta3 2.585373 1_556
Si5 Ta0 2.590102 1_556
Si5 Ta1 2.615052 1_455
Si5 Ta2 2.645807 1_555
