# generated using pymatgen
data_Hg3SO6
_symmetry_space_group_name_H-M   'P 1'
_cell_length_a   7.09741116
_cell_length_b   7.09738600
_cell_length_c   10.11514364
_cell_angle_alpha   89.99730550
_cell_angle_beta   90.00205308
_cell_angle_gamma   119.99968444
_symmetry_Int_Tables_number   1
_chemical_formula_structural   Hg3SO6
_chemical_formula_sum   'Hg9 S3 O18'
_cell_volume   441.26802297
_cell_formula_units_Z   3
loop_
 _symmetry_equiv_pos_site_id
 _symmetry_equiv_pos_as_xyz
  1  'x, y, z'
loop_
 _atom_site_type_symbol
 _atom_site_label
 _atom_site_symmetry_multiplicity
 _atom_site_fract_x
 _atom_site_fract_y
 _atom_site_fract_z
 _atom_site_occupancy
  Hg  Hg0  1  0.50471525  0.19000961  0.67745016  1
  Hg  Hg1  1  0.68529392  0.49526389  0.34411170  1
  Hg  Hg2  1  0.80998237  0.31471942  0.01076246  1
  Hg  Hg3  1  0.29609487  0.29773375  0.99486903  1
  Hg  Hg4  1  0.00162404  0.70388539  0.66155901  1
  Hg  Hg5  1  0.70225942  -0.00162678  0.32822522  1
  Hg  Hg6  1  0.49904652  0.68756607  0.64559887  1
  Hg  Hg7  1  0.18851353  0.50095302  0.31229276  1
  Hg  Hg8  1  0.31246601  0.81149398  0.97894915  1
  S  S0  1  0.77861424  0.77120373  0.99240717  1
  S  S1  1  0.99257183  0.22138427  0.65907702  1
  S  S2  1  0.22880675  0.00740738  0.32573746  1
  O  O0  1  0.13782401  0.39158830  0.56355974  1
  O  O1  1  0.25372959  0.86216276  0.23020342  1
  O  O2  1  0.60846307  0.74631977  0.89687569  1
  O  O3  1  0.79714288  0.05941948  0.58589409  1
  O  O4  1  0.26226261  0.20286238  0.25256048  1
  O  O5  1  0.94059180  0.73773517  0.91923812  1
  O  O6  1  0.32956587  0.84972912  0.71186946  1
  O  O7  1  0.52016183  0.67040824  0.37854660  1
  O  O8  1  0.15025238  0.47983910  0.04519283  1
  O  O9  1  0.92515382  0.32409472  0.76228179  1
  O  O10  1  0.39896844  0.07481966  0.42891621  1
  O  O11  1  0.67585290  0.60103378  0.09558746  1
  O  O12  1  0.48285828  0.15547399  0.94524746  1
  O  O13  1  0.84455872  0.32741266  0.27859589  1
  O  O14  1  0.67259815  0.51713780  0.61193193  1
  O  O15  1  0.88111751  0.98774208  0.05465885  1
  O  O16  1  0.01225633  0.89333778  0.38798125  1
  O  O17  1  0.10665706  0.11888849  0.72131672  1
loop_
_geom_bond_atom_site_label_1
_geom_bond_atom_site_label_2
_geom_bond_distance
_geom_bond_site_symmetry_2
Hg0 O14 2.117308 1_555
Hg0 O6 2.120612 1_545
Hg0 O10 2.634032 1_555
Hg0 O17 2.647138 1_555
Hg0 O12 2.717302 1_555
Hg0 O9 2.776062 1_555
Hg0 O3 2.819252 1_555
Hg1 O13 2.117272 1_555
Hg1 O7 2.120634 1_555
Hg1 O11 2.633936 1_555
Hg1 O16 2.647273 1_655
Hg1 O14 2.717566 1_555
Hg1 O10 2.775963 1_555
Hg1 O4 2.819238 1_555
Hg2 O12 2.117292 1_554
Hg2 O8 2.120581 1_655
Hg2 O9 2.633555 1_554
Hg2 O15 2.647482 1_545
Hg2 O13 2.717688 1_555
Hg2 O11 2.776058 1_555
Hg2 O5 2.819033 1_554
Hg3 O8 2.083019 1_556
Hg3 O12 2.089703 1_555
Hg3 O11 2.671042 1_556
Hg3 O4 2.672739 1_556
Hg3 O15 2.720481 1_446
Hg4 O6 2.082929 1_555
Hg4 O14 2.089708 1_455
Hg4 O9 2.671186 1_455
Hg4 O5 2.672677 1_455
Hg4 O17 2.720501 1_565
Hg5 O7 2.083076 1_545
Hg5 O13 2.089766 1_555
Hg5 O10 2.670854 1_555
Hg5 O3 2.672552 1_555
Hg5 O16 2.720640 1_645
Hg6 O14 2.141574 1_555
Hg6 O6 2.146031 1_555
Hg6 O3 2.494495 1_565
Hg6 O0 2.507730 1_555
Hg6 O2 2.629321 1_555
Hg6 O7 2.711544 1_555
Hg7 O13 2.141462 1_455
Hg7 O7 2.145976 1_555
Hg7 O4 2.494514 1_555
Hg7 O1 2.507830 1_555
Hg7 O0 2.629124 1_555
Hg7 O8 2.712004 1_555
Hg8 O12 2.141610 1_565
Hg8 O8 2.145961 1_556
Hg8 O5 2.494640 1_455
Hg8 O2 2.507690 1_555
Hg8 O1 2.629120 1_556
Hg8 O6 2.711782 1_555
O0 S1 1.486664 1_455
O1 S2 1.486681 1_565
O2 S0 1.486602 1_555
O3 S1 1.482853 1_555
O4 S2 1.482961 1_555
O5 S0 1.482896 1_555
O9 S1 1.482925 1_555
O10 S2 1.482852 1_555
O11 S0 1.482894 1_554
O15 S0 1.472987 1_554
O16 S2 1.473018 1_565
O17 S1 1.473128 1_455
