# generated using pymatgen
data_Rb3Li2HfP3
_symmetry_space_group_name_H-M   'P 1'
_cell_length_a   10.23048025
_cell_length_b   10.23047906
_cell_length_c   15.32097480
_cell_angle_alpha   90.00000000
_cell_angle_beta   90.00000000
_cell_angle_gamma   143.06568788
_symmetry_Int_Tables_number   1
_chemical_formula_structural   Rb3Li2HfP3
_chemical_formula_sum   'Rb12 Li8 Hf4 P12'
_cell_volume   963.56248565
_cell_formula_units_Z   4
loop_
 _symmetry_equiv_pos_site_id
 _symmetry_equiv_pos_as_xyz
  1  'x, y, z'
loop_
 _atom_site_type_symbol
 _atom_site_label
 _atom_site_symmetry_multiplicity
 _atom_site_fract_x
 _atom_site_fract_y
 _atom_site_fract_z
 _atom_site_occupancy
  Rb  Rb0  1  0.95086775  0.60591211  0.82539253  1
  Rb  Rb1  1  0.54913225  0.89408789  0.32539253  1
  Rb  Rb2  1  0.39408789  0.04913225  0.17460747  1
  Rb  Rb3  1  0.04913225  0.39408789  0.17460747  1
  Rb  Rb4  1  0.89408789  0.54913225  0.32539253  1
  Rb  Rb5  1  0.45086775  0.10591211  0.67460747  1
  Rb  Rb6  1  0.60591211  0.95086775  0.82539253  1
  Rb  Rb7  1  0.29509071  0.29509071  0.31654369  1
  Rb  Rb8  1  0.79509071  0.79509071  0.18345631  1
  Rb  Rb9  1  0.20490929  0.20490929  0.81654369  1
  Rb  Rb10  1  0.70490929  0.70490929  0.68345631  1
  Rb  Rb11  1  0.10591211  0.45086775  0.67460747  1
  Li  Li0  1  0.91661268  0.08338732  0.00000000  1
  Li  Li1  1  0.58338732  0.41661268  0.50000000  1
  Li  Li2  1  0.08338732  0.91661268  0.00000000  1
  Li  Li3  1  0.41661268  0.58338732  0.50000000  1
  Li  Li4  1  0.75133127  0.24866873  0.00000000  1
  Li  Li5  1  0.74866873  0.25133127  0.50000000  1
  Li  Li6  1  0.24866873  0.75133127  0.00000000  1
  Li  Li7  1  0.25133127  0.74866873  0.50000000  1
  Hf  Hf0  1  0.58710136  0.41289864  0.00000000  1
  Hf  Hf1  1  0.91289864  0.08710136  0.50000000  1
  Hf  Hf2  1  0.41289864  0.58710136  0.00000000  1
  Hf  Hf3  1  0.08710136  0.91289864  0.50000000  1
  P  P0  1  0.89312502  0.57054863  0.08679263  1
  P  P1  1  0.42945137  0.10687498  0.91320737  1
  P  P2  1  0.60687498  0.92945137  0.58679263  1
  P  P3  1  0.92945137  0.60687498  0.58679263  1
  P  P4  1  0.10687498  0.42945137  0.91320737  1
  P  P5  1  0.57054863  0.89312502  0.08679263  1
  P  P6  1  0.39312502  0.07054863  0.41320737  1
  P  P7  1  0.22217014  0.22217014  0.58321879  1
  P  P8  1  0.72217014  0.72217014  0.91678121  1
  P  P9  1  0.27782986  0.27782986  0.08321879  1
  P  P10  1  0.07054863  0.39312502  0.41320737  1
  P  P11  1  0.77782986  0.77782986  0.41678121  1
loop_
_geom_bond_atom_site_label_1
_geom_bond_atom_site_label_2
_geom_bond_distance
_geom_bond_site_symmetry_2
Rb0 Rb11 3.793543 1_655
Rb0 Rb5 3.979762 1_665
Rb0 Rb5 3.979762 1_555
Rb0 Rb10 4.019993 1_555
Rb0 Rb9 4.343360 1_665
Rb1 Rb2 3.793543 1_565
Rb1 Rb3 3.979762 1_665
Rb1 Rb3 3.979762 1_555
Rb1 Rb8 4.019993 1_555
Rb1 Rb7 4.343360 1_555
Rb2 Rb4 3.979762 1_555
Rb2 Rb4 3.979762 1_445
Rb2 Rb7 4.019993 1_555
Rb2 Rb8 4.343360 1_445
Rb3 Rb4 3.793543 1_455
Rb3 Rb7 4.019993 1_555
Rb3 Rb8 4.343360 1_445
Rb4 Rb8 4.019993 1_555
Rb4 Rb7 4.343360 1_555
Rb5 Rb6 3.793543 1_545
Rb5 Rb9 4.019993 1_555
Rb6 Rb9 4.343360 1_665
Rb7 Rb8 3.828738 1_445
Rb7 Rb8 3.828738 1_555
Rb10 Rb9 3.828738 1_665
Rb10 Rb9 3.828738 1_555
Rb10 Rb6 4.019993 1_555
Rb10 Rb5 4.343360 1_555
Rb10 Rb11 4.343360 1_555
Rb11 Rb6 3.979762 1_445
Rb11 Rb6 3.979762 1_555
Rb11 Rb9 4.019993 1_555
Li0 P4 2.659822 1_654
Li0 P5 2.659823 1_545
Li0 P8 2.736244 1_544
Li0 P9 2.736244 1_655
Li0 Li4 3.207671 1_555
Li0 Li2 3.236650 1_645
Li0 Rb3 3.494125 1_655
Li0 Rb6 3.494125 1_544
Li0 Rb8 3.504701 1_545
Li0 Rb9 3.504702 1_654
Li1 P6 2.659822 1_555
Li1 P3 2.659823 1_555
Li1 P11 2.736244 1_555
Li1 P7 2.736244 1_555
Li1 Li5 3.207671 1_555
Li1 Li3 3.236650 1_555
Li1 Rb5 3.494125 1_555
Li1 Rb4 3.494125 1_555
Li1 Rb10 3.504701 1_555
Li1 Rb7 3.504702 1_555
Li2 P0 2.659822 1_455
Li2 P1 2.659823 1_564
Li2 P9 2.736244 1_565
Li2 P8 2.736244 1_454
Li2 Li6 3.207671 1_555
Li2 Rb0 3.494125 1_454
Li2 Rb2 3.494125 1_565
Li2 Rb9 3.504701 1_564
Li2 Rb8 3.504702 1_455
Li3 P2 2.659822 1_555
Li3 P10 2.659823 1_555
Li3 P7 2.736244 1_555
Li3 P11 2.736244 1_555
Li3 Li7 3.207671 1_555
Li3 Rb1 3.494125 1_555
Li3 Rb11 3.494125 1_555
Li3 Rb7 3.504701 1_555
Li3 Rb10 3.504702 1_555
Li4 P0 2.660778 1_555
Li4 P1 2.660779 1_554
Li4 P5 2.768535 1_545
Li4 P4 2.768535 1_654
Li4 Li6 3.241029 1_655
Li4 Li6 3.241029 1_545
Li4 Rb6 3.377259 1_544
Li4 Rb3 3.377260 1_655
Li4 Rb0 3.571263 1_554
Li4 Rb2 3.571264 1_555
Li5 P2 2.660778 1_545
Li5 P10 2.660779 1_655
Li5 P3 2.768535 1_555
Li5 P6 2.768535 1_555
Li5 Li7 3.241029 1_545
Li5 Li7 3.241029 1_655
Li5 Rb4 3.377259 1_555
Li5 Rb5 3.377260 1_555
Li5 Rb1 3.571263 1_545
Li5 Rb11 3.571264 1_655
Li6 P4 2.660778 1_554
Li6 P5 2.660779 1_555
Li6 P1 2.768535 1_564
Li6 P0 2.768535 1_455
Li6 Rb2 3.377259 1_565
Li6 Rb0 3.377260 1_454
Li6 Rb3 3.571263 1_555
Li6 Rb6 3.571264 1_554
Li7 P6 2.660778 1_565
Li7 P3 2.660779 1_455
Li7 P10 2.768535 1_555
Li7 P2 2.768535 1_555
Li7 Rb11 3.377259 1_555
Li7 Rb1 3.377260 1_555
Li7 Rb5 3.571263 1_565
Li7 Rb4 3.571264 1_455
Hf0 P1 2.469602 1_554
Hf0 P0 2.469602 1_555
Hf0 P8 2.560565 1_554
Hf0 P9 2.560565 1_555
Hf0 Li4 3.187264 1_555
Hf0 Li2 3.241418 1_655
Hf0 Li2 3.241418 1_545
Hf0 Rb2 3.627315 1_555
Hf0 Rb0 3.627315 1_554
Hf0 Rb8 3.796778 1_555
Hf0 Rb9 3.796778 1_554
Hf1 P10 2.469602 1_655
Hf1 P2 2.469602 1_545
Hf1 P11 2.560565 1_545
Hf1 P7 2.560565 1_655
Hf1 Li5 3.187264 1_555
Hf1 Li3 3.241418 1_545
Hf1 Li3 3.241418 1_655
Hf1 Rb11 3.627315 1_655
Hf1 Rb1 3.627315 1_545
Hf1 Rb10 3.796778 1_545
Hf1 Rb7 3.796778 1_655
Hf2 P5 2.469602 1_555
Hf2 P4 2.469602 1_554
Hf2 P9 2.560565 1_555
Hf2 P8 2.560565 1_554
Hf2 Li6 3.187264 1_555
Hf2 Li0 3.241418 1_455
Hf2 Li0 3.241418 1_565
Hf2 Rb6 3.627315 1_554
Hf2 Rb3 3.627315 1_555
Hf2 Rb9 3.796778 1_554
Hf2 Rb8 3.796778 1_555
Hf3 P3 2.469602 1_455
Hf3 P6 2.469602 1_565
Hf3 P7 2.560565 1_565
Hf3 P11 2.560565 1_455
Hf3 Li7 3.187264 1_555
Hf3 Li1 3.241418 1_565
Hf3 Li1 3.241418 1_455
Hf3 Rb4 3.627315 1_455
Hf3 Rb5 3.627315 1_565
Hf3 Rb7 3.796778 1_565
Hf3 Rb10 3.796778 1_455
P0 Rb2 3.454517 1_665
P0 Rb8 3.487028 1_555
P0 Rb3 3.496085 1_655
P0 Rb2 3.576711 1_555
P0 Rb4 3.662627 1_555
P1 Rb0 3.454517 1_445
P1 Rb9 3.487028 1_555
P1 Rb6 3.496085 1_545
P1 Rb0 3.576711 1_555
P1 Rb5 3.662627 1_555
P2 Rb11 3.454517 1_555
P2 Rb10 3.487028 1_555
P2 Rb5 3.496085 1_565
P2 Rb11 3.576711 1_665
P2 Rb6 3.662627 1_555
P3 Rb5 3.454517 1_555
P3 Rb10 3.487028 1_555
P3 Rb11 3.496085 1_655
P3 Rb5 3.576711 1_665
P3 Rb0 3.662627 1_555
P4 Rb6 3.454517 1_445
P4 Rb9 3.487028 1_555
P4 Rb0 3.496085 1_455
P4 Rb6 3.576711 1_555
P4 Rb11 3.662627 1_555
P5 Rb3 3.454517 1_665
P5 Rb8 3.487028 1_555
P5 Rb2 3.496085 1_565
P5 Rb3 3.576711 1_555
P5 Rb1 3.662627 1_555
P6 Rb4 3.454517 1_555
P6 Rb7 3.487028 1_555
P6 Rb1 3.496085 1_545
P6 Rb4 3.576711 1_445
P6 Rb2 3.662627 1_555
P7 Rb10 3.485331 1_555
P7 Rb9 3.576515 1_555
P7 Rb11 3.646625 1_555
P7 Rb5 3.646625 1_555
P7 Rb10 3.687501 1_445
P8 Rb9 3.485331 1_665
P8 Rb10 3.576515 1_555
P8 Rb6 3.646625 1_555
P8 Rb0 3.646625 1_555
P8 Rb9 3.687501 1_555
P9 Rb8 3.485331 1_445
P9 Rb7 3.576515 1_555
P9 Rb2 3.646625 1_555
P9 Rb3 3.646625 1_555
P9 Rb8 3.687501 1_555
P10 Rb1 3.454517 1_555
P10 Rb7 3.487028 1_555
P10 Rb4 3.496085 1_455
P10 Rb1 3.576711 1_445
P10 Rb3 3.662627 1_555
P11 Rb7 3.485331 1_555
P11 Rb8 3.576515 1_555
P11 Rb4 3.646625 1_555
P11 Rb1 3.646625 1_555
P11 Rb7 3.687501 1_665
