# generated using pymatgen
data_TiBe4Fe
_symmetry_space_group_name_H-M   'P 1'
_cell_length_a   4.28243151
_cell_length_b   4.28243109
_cell_length_c   4.28243207
_cell_angle_alpha   60.00000772
_cell_angle_beta   60.00001096
_cell_angle_gamma   59.99999524
_symmetry_Int_Tables_number   1
_chemical_formula_structural   TiBe4Fe
_chemical_formula_sum   'Ti1 Be4 Fe1'
_cell_volume   55.53366550
_cell_formula_units_Z   1
loop_
 _symmetry_equiv_pos_site_id
 _symmetry_equiv_pos_as_xyz
  1  'x, y, z'
loop_
 _atom_site_type_symbol
 _atom_site_label
 _atom_site_symmetry_multiplicity
 _atom_site_fract_x
 _atom_site_fract_y
 _atom_site_fract_z
 _atom_site_occupancy
  Ti  Ti0  1  0.00000000  0.00000000  0.00000000  1
  Be  Be0  1  0.62414646  0.62414646  0.12756263  1
  Be  Be1  1  0.62414646  0.12756263  0.62414646  1
  Be  Be2  1  0.12756263  0.62414646  0.62414646  1
  Be  Be3  1  0.62414646  0.62414646  0.62414646  1
  Fe  Fe0  1  0.25000000  0.25000000  0.25000000  1
loop_
_geom_bond_atom_site_label_1
_geom_bond_atom_site_label_2
_geom_bond_distance
_geom_bond_site_symmetry_2
Be0 Be3 2.126587 1_555
Be0 Be1 2.126587 1_555
Be0 Be2 2.126587 1_555
Be0 Be3 2.155846 1_554
Be0 Be1 2.155846 1_564
Be0 Be2 2.155846 1_654
Be0 Fe0 2.509251 1_565
Be0 Fe0 2.509251 1_655
Be0 Fe0 2.509259 1_555
Be0 Ti0 2.512368 1_665
Be0 Ti0 2.512375 1_655
Be0 Ti0 2.512376 1_565
Be1 Be2 2.126586 1_555
Be1 Be3 2.126586 1_555
Be1 Be2 2.155845 1_645
Be1 Be3 2.155845 1_545
Be1 Fe0 2.509252 1_655
Be1 Fe0 2.509252 1_556
Be1 Fe0 2.509259 1_555
Be1 Ti0 2.512369 1_656
Be1 Ti0 2.512376 1_556
Be1 Ti0 2.512376 1_655
Be2 Be3 2.126586 1_555
Be2 Be3 2.155845 1_455
Be2 Fe0 2.509251 1_565
Be2 Fe0 2.509252 1_556
Be2 Fe0 2.509259 1_555
Be2 Ti0 2.512368 1_566
Be2 Ti0 2.512376 1_556
Be2 Ti0 2.512376 1_565
Be3 Fe0 2.509255 1_565
Be3 Fe0 2.509255 1_655
Be3 Fe0 2.509256 1_556
Be3 Ti0 2.512372 1_656
Be3 Ti0 2.512372 1_566
Be3 Ti0 2.512373 1_665
Fe0 Ti0 2.622443 1_565
Fe0 Ti0 2.622443 1_555
Fe0 Ti0 2.622443 1_655
Fe0 Ti0 2.622444 1_556
