# generated using pymatgen
data_Zr2Ni(SeS)2
_symmetry_space_group_name_H-M   'P 1'
_cell_length_a   7.07760328
_cell_length_b   7.07760307
_cell_length_c   6.41013409
_cell_angle_alpha   63.18450822
_cell_angle_beta   63.18451072
_cell_angle_gamma   30.65116032
_symmetry_Int_Tables_number   1
_chemical_formula_structural   Zr2Ni(SeS)2
_chemical_formula_sum   'Zr2 Ni1 Se2 S2'
_cell_volume   144.68748477
_cell_formula_units_Z   1
loop_
 _symmetry_equiv_pos_site_id
 _symmetry_equiv_pos_as_xyz
  1  'x, y, z'
loop_
 _atom_site_type_symbol
 _atom_site_label
 _atom_site_symmetry_multiplicity
 _atom_site_fract_x
 _atom_site_fract_y
 _atom_site_fract_z
 _atom_site_occupancy
  Zr  Zr0  1  0.50581376  0.50581376  0.49966554  1
  Zr  Zr1  1  0.00949522  0.00949522  0.98411198  1
  Ni  Ni0  1  0.66903024  0.66903024  0.66245279  1
  Se  Se0  1  0.37050221  0.37050221  0.96184342  1
  Se  Se1  1  0.87211893  0.87211893  0.46336490  1
  S  S0  1  0.62494473  0.62494473  0.04410485  1
  S  S1  1  0.13055390  0.13055390  0.53530651  1
loop_
_geom_bond_atom_site_label_1
_geom_bond_atom_site_label_2
_geom_bond_distance
_geom_bond_site_symmetry_2
Ni0 S1 2.199990 1_565
Ni0 S1 2.199990 1_655
Ni0 S0 2.229321 1_556
Ni0 Se1 2.450618 1_555
Ni0 Zr0 2.868608 1_555
Ni0 Zr1 2.879764 1_655
Ni0 Zr1 2.879764 1_565
Se0 Zr0 2.658895 1_555
Se0 Zr1 2.715436 1_565
Se0 Zr1 2.715436 1_655
Se1 Zr0 2.698522 1_565
Se1 Zr0 2.698523 1_655
Se1 Zr1 2.750458 1_664
S0 Zr1 2.588102 1_654
S0 Zr1 2.588102 1_564
S0 Zr0 2.594156 1_555
S0 Se0 3.655357 1_564
S0 Se0 3.655357 1_654
S1 Zr1 2.561244 1_555
S1 Zr0 2.610636 1_545
S1 Zr0 2.610636 1_455
S1 Se0 3.602546 1_554
