# generated using pymatgen
data_LiMnH6Ir
_symmetry_space_group_name_H-M   'P 1'
_cell_length_a   6.64186734
_cell_length_b   6.64186734
_cell_length_c   6.64186734
_cell_angle_alpha   90.00000000
_cell_angle_beta   90.00000000
_cell_angle_gamma   90.00000000
_symmetry_Int_Tables_number   1
_chemical_formula_structural   LiMnH6Ir
_chemical_formula_sum   'Li4 Mn4 H24 Ir4'
_cell_volume   293.00200384
_cell_formula_units_Z   4
loop_
 _symmetry_equiv_pos_site_id
 _symmetry_equiv_pos_as_xyz
  1  'x, y, z'
loop_
 _atom_site_type_symbol
 _atom_site_label
 _atom_site_symmetry_multiplicity
 _atom_site_fract_x
 _atom_site_fract_y
 _atom_site_fract_z
 _atom_site_occupancy
  Li  Li0  1  0.00000000  0.00000000  0.50000000  1
  Li  Li1  1  0.00000000  0.50000000  0.00000000  1
  Li  Li2  1  0.50000000  0.00000000  0.00000000  1
  Li  Li3  1  0.00000000  0.00000000  0.00000000  1
  Mn  Mn0  1  0.50000000  0.50000000  0.50000000  1
  Mn  Mn1  1  0.00000000  0.50000000  0.50000000  1
  Mn  Mn2  1  0.50000000  0.00000000  0.50000000  1
  Mn  Mn3  1  0.50000000  0.50000000  0.00000000  1
  H  H0  1  0.75296499  0.75296499  0.50629301  1
  H  H1  1  0.24703501  0.24703501  0.50629301  1
  H  H2  1  0.00748113  0.75002241  0.75002241  1
  H  H3  1  0.24997759  0.99251887  0.75002241  1
  H  H4  1  0.75002241  0.00748113  0.75002241  1
  H  H5  1  0.99251887  0.24997759  0.75002241  1
  H  H6  1  0.75296499  0.50629301  0.75296499  1
  H  H7  1  0.50629301  0.75296499  0.75296499  1
  H  H8  1  0.49370699  0.24703501  0.75296499  1
  H  H9  1  0.24703501  0.49370699  0.75296499  1
  H  H10  1  0.24997759  0.75002241  0.99251887  1
  H  H11  1  0.75002241  0.24997759  0.99251887  1
  H  H12  1  0.75002241  0.75002241  0.00748113  1
  H  H13  1  0.24997759  0.24997759  0.00748113  1
  H  H14  1  0.24703501  0.50629301  0.24703501  1
  H  H15  1  0.49370699  0.75296499  0.24703501  1
  H  H16  1  0.50629301  0.24703501  0.24703501  1
  H  H17  1  0.75296499  0.49370699  0.24703501  1
  H  H18  1  0.99251887  0.75002241  0.24997759  1
  H  H19  1  0.75002241  0.99251887  0.24997759  1
  H  H20  1  0.24997759  0.00748113  0.24997759  1
  H  H21  1  0.00748113  0.24997759  0.24997759  1
  H  H22  1  0.24703501  0.75296499  0.49370699  1
  H  H23  1  0.75296499  0.24703501  0.49370699  1
  Ir  Ir0  1  0.25663745  0.74336255  0.74336255  1
  Ir  Ir1  1  0.74336255  0.25663745  0.74336255  1
  Ir  Ir2  1  0.74336255  0.74336255  0.25663745  1
  Ir  Ir3  1  0.25663745  0.25663745  0.25663745  1
loop_
_geom_bond_atom_site_label_1
_geom_bond_atom_site_label_2
_geom_bond_distance
_geom_bond_site_symmetry_2
H0 Ir2 1.660630 1_555
H0 H6 2.316995 1_555
H0 H7 2.316995 1_555
H0 Li0 2.320781 1_665
H0 H2 2.340645 1_655
H0 H4 2.340645 1_565
H0 Mn1 2.348792 1_655
H0 Mn2 2.348792 1_565
H0 Mn0 2.376473 1_555
H1 Ir3 1.660630 1_555
H1 H8 2.316995 1_555
H1 H9 2.316995 1_555
H1 Li0 2.320781 1_555
H1 H3 2.340645 1_545
H1 H5 2.340645 1_455
H1 Mn1 2.348792 1_555
H1 Mn2 2.348792 1_555
H1 Mn0 2.376473 1_555
H2 Ir0 1.656045 1_555
H2 H3 2.277774 1_555
H2 H6 2.340645 1_455
H2 Li3 2.348570 1_566
H2 Li0 2.348780 1_565
H2 Li1 2.348780 1_556
H2 Mn1 2.348991 1_555
H3 Ir0 1.656045 1_555
H3 H8 2.340645 1_565
H3 Li3 2.348570 1_566
H3 Li0 2.348780 1_565
H3 Li2 2.348780 1_566
H3 Mn2 2.348991 1_565
H4 Ir1 1.656045 1_555
H4 H5 2.277774 1_555
H4 H7 2.340645 1_545
H4 Li3 2.348570 1_656
H4 Li0 2.348780 1_655
H4 Li2 2.348780 1_556
H4 Mn2 2.348991 1_555
H5 Ir1 1.656045 1_555
H5 H9 2.340645 1_655
H5 Li3 2.348570 1_656
H5 Li0 2.348780 1_655
H5 Li1 2.348780 1_656
H5 Mn1 2.348991 1_655
H6 Ir1 1.660630 1_555
H6 H7 2.316995 1_555
H6 Li1 2.320781 1_656
H6 Mn1 2.348792 1_655
H6 Mn3 2.348792 1_556
H6 Mn0 2.376473 1_555
H7 Ir0 1.660630 1_555
H7 Li2 2.320781 1_566
H7 Mn2 2.348792 1_565
H7 Mn3 2.348792 1_556
H7 Mn0 2.376473 1_555
H8 Ir1 1.660630 1_555
H8 H9 2.316995 1_555
H8 Li2 2.320781 1_556
H8 Mn2 2.348792 1_555
H8 Mn3 2.348792 1_556
H8 Mn0 2.376473 1_555
H9 Ir0 1.660630 1_555
H9 Li1 2.320781 1_556
H9 Mn1 2.348792 1_555
H9 Mn3 2.348792 1_556
H9 Mn0 2.376473 1_555
H10 Ir0 1.656045 1_555
H10 H2 2.277774 1_555
H10 H3 2.277774 1_555
H10 H14 2.340645 1_556
H10 H15 2.340645 1_556
H10 Li3 2.348570 1_566
H10 Li1 2.348780 1_556
H10 Li2 2.348780 1_566
H10 Mn3 2.348991 1_556
H11 Ir1 1.656045 1_555
H11 H4 2.277774 1_555
H11 H5 2.277774 1_555
H11 H17 2.340645 1_556
H11 H16 2.340645 1_556
H11 Li3 2.348570 1_656
H11 Li2 2.348780 1_556
H11 Li1 2.348780 1_656
H11 Mn3 2.348991 1_556
H12 Ir2 1.656045 1_555
H12 H19 2.277774 1_555
H12 H18 2.277774 1_555
H12 H7 2.340645 1_554
H12 H6 2.340645 1_554
H12 Li3 2.348570 1_665
H12 Li1 2.348780 1_655
H12 Li2 2.348780 1_565
H12 Mn3 2.348991 1_555
H13 Ir3 1.656045 1_555
H13 H21 2.277774 1_555
H13 H20 2.277774 1_555
H13 H8 2.340645 1_554
H13 H9 2.340645 1_554
H13 Li3 2.348570 1_555
H13 Li2 2.348780 1_555
H13 Li1 2.348780 1_555
H13 Mn3 2.348991 1_555
H14 Ir3 1.660630 1_555
H14 H15 2.316995 1_555
H14 H22 2.316995 1_555
H14 Li1 2.320781 1_555
H14 H18 2.340645 1_455
H14 Mn3 2.348792 1_555
H14 Mn1 2.348792 1_555
H14 Mn0 2.376473 1_555
H15 Ir2 1.660630 1_555
H15 H22 2.316995 1_555
H15 Li2 2.320781 1_565
H15 H20 2.340645 1_565
H15 Mn3 2.348792 1_555
H15 Mn2 2.348792 1_565
H15 Mn0 2.376473 1_555
H16 Ir3 1.660630 1_555
H16 H23 2.316995 1_555
H16 H17 2.316995 1_555
H16 Li2 2.320781 1_555
H16 H19 2.340645 1_545
H16 Mn3 2.348792 1_555
H16 Mn2 2.348792 1_555
H16 Mn0 2.376473 1_555
H17 Ir2 1.660630 1_555
H17 H23 2.316995 1_555
H17 Li1 2.320781 1_655
H17 H21 2.340645 1_655
H17 Mn3 2.348792 1_555
H17 Mn1 2.348792 1_655
H17 Mn0 2.376473 1_555
H18 Ir2 1.656045 1_555
H18 H19 2.277774 1_555
H18 H22 2.340645 1_655
H18 Li3 2.348570 1_665
H18 Li1 2.348780 1_655
H18 Li0 2.348780 1_665
H18 Mn1 2.348991 1_655
H19 Ir2 1.656045 1_555
H19 H23 2.340645 1_565
H19 Li3 2.348570 1_665
H19 Li2 2.348780 1_565
H19 Li0 2.348780 1_665
H19 Mn2 2.348991 1_565
H20 Ir3 1.656045 1_555
H20 H21 2.277774 1_555
H20 H22 2.340645 1_545
H20 Li3 2.348570 1_555
H20 Li2 2.348780 1_555
H20 Li0 2.348780 1_555
H20 Mn2 2.348991 1_555
H21 Ir3 1.656045 1_555
H21 H23 2.340645 1_455
H21 Li3 2.348570 1_555
H21 Li1 2.348780 1_555
H21 Li0 2.348780 1_555
H21 Mn1 2.348991 1_555
H22 Ir0 1.660630 1_555
H22 Li0 2.320781 1_565
H22 Mn1 2.348792 1_555
H22 Mn2 2.348792 1_565
H22 Mn0 2.376473 1_555
H23 Ir1 1.660630 1_555
H23 Li0 2.320781 1_655
H23 Mn2 2.348792 1_555
H23 Mn1 2.348792 1_655
H23 Mn0 2.376473 1_555
