# generated using pymatgen
data_CdSnPt6
_symmetry_space_group_name_H-M   'P 1'
_cell_length_a   5.68298727
_cell_length_b   5.68298683
_cell_length_c   5.68298790
_cell_angle_alpha   59.99999943
_cell_angle_beta   60.00000202
_cell_angle_gamma   59.99999876
_symmetry_Int_Tables_number   1
_chemical_formula_structural   CdSnPt6
_chemical_formula_sum   'Cd1 Sn1 Pt6'
_cell_volume   129.78218085
_cell_formula_units_Z   1
loop_
 _symmetry_equiv_pos_site_id
 _symmetry_equiv_pos_as_xyz
  1  'x, y, z'
loop_
 _atom_site_type_symbol
 _atom_site_label
 _atom_site_symmetry_multiplicity
 _atom_site_fract_x
 _atom_site_fract_y
 _atom_site_fract_z
 _atom_site_occupancy
  Cd  Cd0  1  0.00000000  0.00000000  0.00000000  1
  Sn  Sn0  1  0.50000000  0.50000000  0.50000000  1
  Pt  Pt0  1  0.50000000  0.00000000  0.00000000  1
  Pt  Pt1  1  0.00000000  0.50000000  0.50000000  1
  Pt  Pt2  1  0.00000000  0.50000000  0.00000000  1
  Pt  Pt3  1  0.50000000  0.00000000  0.50000000  1
  Pt  Pt4  1  0.00000000  0.00000000  0.50000000  1
  Pt  Pt5  1  0.50000000  0.50000000  0.00000000  1
loop_
_geom_bond_atom_site_label_1
_geom_bond_atom_site_label_2
_geom_bond_distance
_geom_bond_site_symmetry_2
Cd0 Pt2 2.841493 1_555
Cd0 Pt2 2.841493 1_545
Cd0 Pt5 2.841493 1_455
Cd0 Pt5 2.841493 1_545
Cd0 Pt0 2.841494 1_455
Cd0 Pt0 2.841494 1_555
Cd0 Pt1 2.841494 1_554
Cd0 Pt1 2.841494 1_545
Cd0 Pt3 2.841494 1_554
Cd0 Pt3 2.841494 1_455
Cd0 Pt4 2.841494 1_554
Cd0 Pt4 2.841494 1_555
Pt0 Pt5 2.841493 1_555
Pt0 Pt5 2.841493 1_545
Pt0 Pt2 2.841493 1_555
Pt0 Pt2 2.841493 1_645
Pt0 Sn0 2.841494 1_554
Pt0 Sn0 2.841494 1_545
Pt0 Pt4 2.841494 1_555
Pt0 Pt4 2.841494 1_654
Pt0 Pt3 2.841494 1_554
Pt0 Pt3 2.841494 1_555
Pt1 Pt4 2.841493 1_555
Pt1 Pt4 2.841493 1_565
Pt1 Pt3 2.841493 1_465
Pt1 Pt3 2.841493 1_555
Pt1 Sn0 2.841494 1_455
Pt1 Sn0 2.841494 1_555
Pt1 Pt5 2.841494 1_555
Pt1 Pt5 2.841494 1_456
Pt1 Pt2 2.841494 1_556
Pt1 Pt2 2.841494 1_555
Pt2 Pt5 2.841494 1_455
Pt2 Pt5 2.841494 1_555
Pt2 Pt4 2.841494 1_555
Pt2 Pt4 2.841494 1_564
Pt2 Sn0 2.841494 1_554
Pt2 Sn0 2.841494 1_455
Pt3 Sn0 2.841493 1_545
Pt3 Sn0 2.841493 1_555
Pt3 Pt4 2.841494 1_655
Pt3 Pt4 2.841494 1_555
Pt3 Pt5 2.841494 1_555
Pt3 Pt5 2.841494 1_546
Pt4 Sn0 2.841493 1_545
Pt4 Sn0 2.841493 1_455
Pt5 Sn0 2.841494 1_554
Pt5 Sn0 2.841494 1_555
