# generated using pymatgen
data_YRe2(TcGe)2
_symmetry_space_group_name_H-M   'P 1'
_cell_length_a   7.43082915
_cell_length_b   7.43082948
_cell_length_c   4.08127006
_cell_angle_alpha   90.00000000
_cell_angle_beta   90.00000000
_cell_angle_gamma   147.72684529
_symmetry_Int_Tables_number   1
_chemical_formula_structural   YRe2(TcGe)2
_chemical_formula_sum   'Y1 Re2 Tc2 Ge2'
_cell_volume   120.33046102
_cell_formula_units_Z   1
loop_
 _symmetry_equiv_pos_site_id
 _symmetry_equiv_pos_as_xyz
  1  'x, y, z'
loop_
 _atom_site_type_symbol
 _atom_site_label
 _atom_site_symmetry_multiplicity
 _atom_site_fract_x
 _atom_site_fract_y
 _atom_site_fract_z
 _atom_site_occupancy
  Y  Y0  1  0.00000000  0.00000000  0.00000000  1
  Re  Re0  1  0.69817380  0.30182420  0.00000000  1
  Re  Re1  1  0.30182420  0.69817380  0.00000000  1
  Tc  Tc0  1  0.80882652  0.19117148  0.50000000  1
  Tc  Tc1  1  0.19117148  0.80882652  0.50000000  1
  Ge  Ge0  1  0.58714159  0.41285641  0.50000000  1
  Ge  Ge1  1  0.41285641  0.58714159  0.50000000  1
loop_
_geom_bond_atom_site_label_1
_geom_bond_atom_site_label_2
_geom_bond_distance
_geom_bond_site_symmetry_2
Re0 Re1 2.540628 1_655
Re0 Re1 2.540628 1_545
Re0 Tc0 2.580625 1_555
Re0 Tc0 2.580625 1_554
Re0 Tc1 2.905061 1_544
Re0 Tc1 2.905061 1_545
Re0 Tc1 2.905061 1_655
Re0 Tc1 2.905061 1_654
Re0 Y0 3.502768 1_555
Re0 Y0 3.502773 1_665
Re1 Tc1 2.580625 1_554
Re1 Tc1 2.580625 1_555
Re1 Tc0 2.905061 1_565
Re1 Tc0 2.905061 1_564
Re1 Tc0 2.905061 1_455
Re1 Tc0 2.905061 1_454
Re1 Y0 3.502768 1_555
Re1 Y0 3.502773 1_665
Tc0 Tc1 2.662039 1_545
Tc0 Tc1 2.662039 1_655
Tc0 Y0 3.407748 1_656
Tc0 Y0 3.407748 1_655
Tc1 Y0 3.407748 1_566
Tc1 Y0 3.407748 1_565
Ge0 Ge1 2.488119 1_555
Ge0 Tc1 2.543787 1_655
Ge0 Tc1 2.543787 1_545
Ge0 Re0 2.583944 1_556
Ge0 Re0 2.583944 1_555
Ge0 Y0 3.158648 1_556
Ge0 Y0 3.158648 1_555
Ge0 Y0 3.158653 1_665
Ge0 Y0 3.158653 1_666
Ge1 Tc0 2.543787 1_455
Ge1 Tc0 2.543787 1_565
Ge1 Re1 2.583944 1_555
Ge1 Re1 2.583944 1_556
Ge1 Y0 3.158648 1_556
Ge1 Y0 3.158648 1_555
Ge1 Y0 3.158653 1_666
Ge1 Y0 3.158653 1_665
