# generated using pymatgen
data_Y8GePd23Pt
_symmetry_space_group_name_H-M   'P 1'
_cell_length_a   8.30264569
_cell_length_b   8.29298692
_cell_length_c   8.29298692
_cell_angle_alpha   90.00000000
_cell_angle_beta   90.00000000
_cell_angle_gamma   90.00000000
_symmetry_Int_Tables_number   1
_chemical_formula_structural   Y8GePd23Pt
_chemical_formula_sum   'Y8 Ge1 Pd23 Pt1'
_cell_volume   571.00310010
_cell_formula_units_Z   1
loop_
 _symmetry_equiv_pos_site_id
 _symmetry_equiv_pos_as_xyz
  1  'x, y, z'
loop_
 _atom_site_type_symbol
 _atom_site_label
 _atom_site_symmetry_multiplicity
 _atom_site_fract_x
 _atom_site_fract_y
 _atom_site_fract_z
 _atom_site_occupancy
  Y  Y0  1  0.25314448  0.25360590  0.25360590  1
  Y  Y1  1  0.74685048  0.74686726  0.74686726  1
  Y  Y2  1  0.74685048  0.74686726  0.25313274  1
  Y  Y3  1  0.74685048  0.25313274  0.74686726  1
  Y  Y4  1  0.25314448  0.25360590  0.74639410  1
  Y  Y5  1  0.25314448  0.74639410  0.25360590  1
  Y  Y6  1  0.25314448  0.74639410  0.74639410  1
  Y  Y7  1  0.74685048  0.25313274  0.25313274  1
  Ge  Ge0  1  0.00030011  0.00000000  0.00000000  1
  Pd  Pd0  1  0.25998590  0.50000000  0.00000000  1
  Pd  Pd1  1  0.73992899  0.50000000  0.00000000  1
  Pd  Pd2  1  0.99976654  0.25990373  0.50000000  1
  Pd  Pd3  1  0.50009293  0.25987074  0.00000000  1
  Pd  Pd4  1  0.99976654  0.74009627  0.50000000  1
  Pd  Pd5  1  0.50009293  0.74012926  0.00000000  1
  Pd  Pd6  1  0.50009293  0.00000000  0.25987074  1
  Pd  Pd7  1  0.25998590  0.00000000  0.50000000  1
  Pd  Pd8  1  0.50009293  0.00000000  0.74012926  1
  Pd  Pd9  1  0.73992899  0.00000000  0.50000000  1
  Pd  Pd10  1  0.99976654  0.50000000  0.25990373  1
  Pd  Pd11  1  0.99976654  0.50000000  0.74009627  1
  Pd  Pd12  1  0.74708790  0.50000000  0.50000000  1
  Pd  Pd13  1  0.50018280  0.25300570  0.50000000  1
  Pd  Pd14  1  0.50018280  0.74699430  0.50000000  1
  Pd  Pd15  1  0.50018280  0.50000000  0.25300570  1
  Pd  Pd16  1  0.50018280  0.50000000  0.74699430  1
  Pd  Pd17  1  0.28977864  0.00000000  0.00000000  1
  Pd  Pd18  1  0.71058686  0.00000000  0.00000000  1
  Pd  Pd19  1  0.99987393  0.28960477  0.00000000  1
  Pd  Pd20  1  0.99987393  0.71039523  0.00000000  1
  Pd  Pd21  1  0.99987393  0.00000000  0.28960477  1
  Pd  Pd22  1  0.99987393  0.00000000  0.71039523  1
  Pt  Pt0  1  0.25277306  0.50000000  0.50000000  1
loop_
_geom_bond_atom_site_label_1
_geom_bond_atom_site_label_2
_geom_bond_distance
_geom_bond_site_symmetry_2
Ge0 Pd19 2.401691 1_455
Ge0 Pd21 2.401691 1_455
Ge0 Pd20 2.401691 1_445
Ge0 Pd22 2.401691 1_454
Ge0 Pd17 2.403438 1_555
Ge0 Pd18 2.405386 1_455
Pd0 Pd20 2.776381 1_455
Pd0 Pd19 2.776381 1_455
Pd0 Pd5 2.817759 1_555
Pd0 Pd3 2.817759 1_555
Pd0 Pd15 2.894727 1_555
Pd0 Pd16 2.894727 1_554
Pd0 Y5 2.932869 1_555
Pd0 Y0 2.932869 1_555
Pd0 Y6 2.932869 1_554
Pd0 Y4 2.932869 1_554
Pd0 Pd10 3.051795 1_455
Pd0 Pd11 3.051795 1_454
Pd1 Pd20 2.775303 1_555
Pd1 Pd19 2.775303 1_555
Pd1 Pd5 2.816168 1_555
Pd1 Pd3 2.816168 1_555
Pd1 Pd15 2.892150 1_555
Pd1 Pd16 2.892150 1_554
Pd1 Y2 2.932807 1_555
Pd1 Y1 2.932807 1_554
Pd1 Y7 2.932807 1_555
Pd1 Y3 2.932807 1_554
Pd1 Pd10 3.049552 1_555
Pd1 Pd11 3.049552 1_554
Pd2 Pd22 2.773085 1_555
Pd2 Pd21 2.773085 1_555
Pd2 Pt0 2.894332 1_655
Pd2 Y4 2.933183 1_655
Pd2 Y0 2.933183 1_655
Pd2 Y3 2.933244 1_555
Pd2 Y7 2.933244 1_555
Pd2 Pd9 3.049552 1_555
Pd2 Pd7 3.051795 1_655
Pd3 Y7 2.933805 1_555
Pd3 Y3 2.933805 1_554
Pd3 Y0 2.937648 1_555
Pd3 Y4 2.937648 1_554
Pd3 Pd6 3.047778 1_555
Pd3 Pd8 3.047778 1_554
Pd4 Pt0 2.894332 1_655
Pd4 Y6 2.933183 1_655
Pd4 Y5 2.933183 1_655
Pd4 Y1 2.933244 1_555
Pd4 Y2 2.933244 1_555
Pd4 Pd9 3.049552 1_565
Pd4 Pd7 3.051795 1_665
Pd5 Y2 2.933805 1_555
Pd5 Y1 2.933805 1_554
Pd5 Y5 2.937648 1_555
Pd5 Y6 2.937648 1_554
Pd5 Pd6 3.047778 1_565
Pd5 Pd8 3.047778 1_564
Pd6 Pd9 2.816168 1_555
Pd6 Pd7 2.817759 1_555
Pd6 Y7 2.933805 1_555
Pd6 Y2 2.933805 1_545
Pd6 Y0 2.937648 1_555
Pd6 Y5 2.937648 1_545
Pd7 Pd8 2.817759 1_555
Pd7 Y4 2.932869 1_555
Pd7 Y0 2.932869 1_555
Pd7 Y6 2.932869 1_545
Pd7 Y5 2.932869 1_545
Pd8 Pd9 2.816168 1_555
Pd8 Y3 2.933805 1_555
Pd8 Y1 2.933805 1_545
Pd8 Y4 2.937648 1_555
Pd8 Y6 2.937648 1_545
Pd9 Y3 2.932807 1_555
Pd9 Y7 2.932807 1_555
Pd9 Y1 2.932807 1_545
Pd9 Y2 2.932807 1_545
Pd10 Pd20 2.773085 1_555
Pd10 Pd19 2.773085 1_555
Pd10 Pd4 2.815862 1_555
Pd10 Pd2 2.815862 1_555
Pd10 Pd12 2.892357 1_555
Pd10 Pt0 2.894332 1_655
Pd10 Y5 2.933183 1_655
Pd10 Y0 2.933183 1_655
Pd10 Y2 2.933244 1_555
Pd10 Y7 2.933244 1_555
Pd11 Pd20 2.773085 1_556
Pd11 Pd19 2.773085 1_556
Pd11 Pd4 2.815862 1_555
Pd11 Pd2 2.815862 1_555
Pd11 Pd12 2.892357 1_555
Pd11 Pt0 2.894332 1_655
Pd11 Y6 2.933183 1_655
Pd11 Y4 2.933183 1_655
Pd11 Y1 2.933244 1_555
Pd11 Y3 2.933244 1_555
Pd12 Pd4 2.892357 1_555
Pd12 Pd2 2.892357 1_555
Pd12 Y1 2.895273 1_555
Pd12 Y3 2.895273 1_555
Pd12 Y2 2.895273 1_555
Pd12 Y7 2.895273 1_555
Pd12 Pd16 2.897926 1_555
Pd12 Pd14 2.897926 1_555
Pd12 Pd15 2.897926 1_555
Pd12 Pd13 2.897926 1_555
Pd13 Pd9 2.892150 1_555
Pd13 Pd8 2.892743 1_555
Pd13 Pd6 2.892743 1_555
Pd13 Pd7 2.894727 1_555
Pd13 Y4 2.895198 1_555
Pd13 Y0 2.895198 1_555
Pd13 Y3 2.895787 1_555
Pd13 Y7 2.895787 1_555
Pd13 Pd16 2.896763 1_555
Pd13 Pd15 2.896763 1_555
Pd13 Pt0 2.900891 1_555
Pd14 Pd9 2.892150 1_565
Pd14 Pd8 2.892743 1_565
Pd14 Pd6 2.892743 1_565
Pd14 Pd7 2.894727 1_565
Pd14 Y6 2.895198 1_555
Pd14 Y5 2.895198 1_555
Pd14 Y1 2.895787 1_555
Pd14 Y2 2.895787 1_555
Pd14 Pd16 2.896763 1_555
Pd14 Pd15 2.896763 1_555
Pd14 Pt0 2.900891 1_555
Pd15 Pd5 2.892743 1_555
Pd15 Pd3 2.892743 1_555
Pd15 Y5 2.895198 1_555
Pd15 Y0 2.895198 1_555
Pd15 Y2 2.895787 1_555
Pd15 Y7 2.895787 1_555
Pd15 Pt0 2.900891 1_555
Pd16 Pd5 2.892743 1_556
Pd16 Pd3 2.892743 1_556
Pd16 Y6 2.895198 1_555
Pd16 Y4 2.895198 1_555
Pd16 Y1 2.895787 1_555
Pd16 Y3 2.895787 1_555
Pd16 Pt0 2.900891 1_555
Pd17 Pd3 2.773728 1_555
Pd17 Pd6 2.773728 1_555
Pd17 Pd5 2.773728 1_545
Pd17 Pd8 2.773728 1_554
Pd17 Y0 2.989816 1_555
Pd17 Y5 2.989816 1_545
Pd17 Y4 2.989816 1_554
Pd17 Y6 2.989816 1_544
Pd18 Pd3 2.774667 1_555
Pd18 Pd6 2.774667 1_555
Pd18 Pd5 2.774667 1_545
Pd18 Pd8 2.774667 1_554
Pd18 Y7 2.983983 1_555
Pd18 Y3 2.983983 1_554
Pd18 Y2 2.983983 1_545
Pd18 Y1 2.983983 1_544
Pd19 Y7 2.985204 1_555
Pd19 Y3 2.985204 1_554
Pd19 Y0 2.989013 1_655
Pd19 Y4 2.989013 1_654
Pd20 Y2 2.985204 1_555
Pd20 Y1 2.985204 1_554
Pd20 Y5 2.989013 1_655
Pd20 Y6 2.989013 1_654
Pd21 Pd4 2.773085 1_545
Pd21 Pd9 2.775303 1_555
Pd21 Pd7 2.776381 1_655
Pd21 Y7 2.985204 1_555
Pd21 Y2 2.985204 1_545
Pd21 Y0 2.989013 1_655
Pd21 Y5 2.989013 1_645
Pd22 Pd4 2.773085 1_545
Pd22 Pd9 2.775303 1_555
Pd22 Pd7 2.776381 1_655
Pd22 Y3 2.985204 1_555
Pd22 Y1 2.985204 1_545
Pd22 Y4 2.989013 1_655
Pd22 Y6 2.989013 1_645
Pt0 Y6 2.889725 1_555
Pt0 Y4 2.889725 1_555
Pt0 Y5 2.889725 1_555
Pt0 Y0 2.889725 1_555
