# generated using pymatgen
data_Na3LiSnS4
_symmetry_space_group_name_H-M   'P 1'
_cell_length_a   9.80475965
_cell_length_b   6.64059018
_cell_length_c   14.07184699
_cell_angle_alpha   61.99359043
_cell_angle_beta   90.00000000
_cell_angle_gamma   90.00000000
_symmetry_Int_Tables_number   1
_chemical_formula_structural   Na3LiSnS4
_chemical_formula_sum   'Na12 Li4 Sn4 S16'
_cell_volume   808.91674525
_cell_formula_units_Z   4
loop_
 _symmetry_equiv_pos_site_id
 _symmetry_equiv_pos_as_xyz
  1  'x, y, z'
loop_
 _atom_site_type_symbol
 _atom_site_label
 _atom_site_symmetry_multiplicity
 _atom_site_fract_x
 _atom_site_fract_y
 _atom_site_fract_z
 _atom_site_occupancy
  Na  Na0  1  0.89310479  0.74262502  0.48874250  1
  Na  Na1  1  0.35785000  0.82780810  0.61886162  1
  Na  Na2  1  0.39310479  0.25737498  0.01125750  1
  Na  Na3  1  0.64215000  0.17219190  0.38113838  1
  Na  Na4  1  0.88292132  0.40443014  0.12014804  1
  Na  Na5  1  0.61707868  0.40443014  0.62014804  1
  Na  Na6  1  0.60689521  0.74262502  0.98874250  1
  Na  Na7  1  0.38292132  0.59556986  0.37985196  1
  Na  Na8  1  0.14215000  0.82780810  0.11886162  1
  Na  Na9  1  0.85785000  0.17219190  0.88113838  1
  Na  Na10  1  0.11707868  0.59556986  0.87985196  1
  Na  Na11  1  0.10689521  0.25737498  0.51125750  1
  Li  Li0  1  0.60421717  0.61169731  0.79543150  1
  Li  Li1  1  0.10421717  0.38830269  0.70456850  1
  Li  Li2  1  0.39578283  0.38830269  0.20456850  1
  Li  Li3  1  0.89578283  0.61169731  0.29543150  1
  Sn  Sn0  1  0.86111856  0.89373847  0.69507187  1
  Sn  Sn1  1  0.63888144  0.89373847  0.19507187  1
  Sn  Sn2  1  0.36111856  0.10626153  0.80492813  1
  Sn  Sn3  1  0.13888144  0.10626153  0.30492813  1
  S  S0  1  0.16373920  0.14502390  0.89661017  1
  S  S1  1  0.93060093  0.21492616  0.35568767  1
  S  S2  1  0.89031714  0.28063934  0.65822576  1
  S  S3  1  0.67601666  0.62739296  0.38196554  1
  S  S4  1  0.56939907  0.21492616  0.85568767  1
  S  S5  1  0.66373920  0.85497610  0.60338983  1
  S  S6  1  0.10968286  0.71936066  0.34177424  1
  S  S7  1  0.06939907  0.78507384  0.64431233  1
  S  S8  1  0.32398334  0.37260704  0.61803446  1
  S  S9  1  0.43060093  0.78507384  0.14431233  1
  S  S10  1  0.60968286  0.28063934  0.15822576  1
  S  S11  1  0.39031714  0.71936066  0.84177424  1
  S  S12  1  0.33626080  0.14502390  0.39661017  1
  S  S13  1  0.17601666  0.37260704  0.11803446  1
  S  S14  1  0.83626080  0.85497610  0.10338983  1
  S  S15  1  0.82398334  0.62739296  0.88196554  1
loop_
_geom_bond_atom_site_label_1
_geom_bond_atom_site_label_2
_geom_bond_distance
_geom_bond_site_symmetry_2
Na0 S1 2.821809 1_565
Na0 S2 2.868636 1_555
Na0 S7 2.905028 1_655
Na0 S3 2.907488 1_555
Na0 S6 3.018320 1_655
Na0 S5 3.057319 1_555
Na1 S12 2.841870 1_565
Na1 S7 2.848160 1_555
Na1 S11 2.887547 1_555
Na1 S5 3.006340 1_555
Na1 S8 3.046437 1_555
Na1 S8 3.627565 1_565
Na2 S9 2.821809 1_545
Na2 S11 2.868636 1_554
Na2 S4 2.905028 1_554
Na2 S13 2.907488 1_555
Na2 S10 3.018320 1_555
Na2 S0 3.057319 1_554
Na3 S5 2.841870 1_545
Na3 S1 2.848160 1_555
Na3 S10 2.887547 1_555
Na3 S12 3.006340 1_555
Na3 S3 3.046437 1_555
Na3 S3 3.627565 1_545
Na4 S10 2.779648 1_555
Na4 S13 2.882666 1_655
Na4 S14 2.924674 1_555
Na4 S1 2.978383 1_555
Na4 S15 3.016508 1_554
Na4 S14 3.792886 1_545
Na5 S2 2.779648 1_555
Na5 S8 2.882666 1_555
Na5 S5 2.924674 1_555
Na5 S4 2.978383 1_555
Na5 S3 3.016508 1_555
Na5 S5 3.792886 1_545
Na6 S4 2.821809 1_565
Na6 S10 2.868636 1_556
Na6 S9 2.905028 1_556
Na6 S15 2.907488 1_555
Na6 S11 3.018320 1_555
Na6 S14 3.057319 1_556
Na7 S6 2.779648 1_555
Na7 S3 2.882666 1_555
Na7 S12 2.924674 1_555
Na7 S9 2.978383 1_555
Na7 S8 3.016508 1_555
Na7 S12 3.792886 1_565
Na8 S0 2.841870 1_564
Na8 S9 2.848160 1_555
Na8 S6 2.887547 1_555
Na8 S14 3.006340 1_455
Na8 S13 3.046437 1_555
Na8 S13 3.627565 1_565
Na9 S14 2.841870 1_546
Na9 S4 2.848160 1_555
Na9 S2 2.887547 1_555
Na9 S0 3.006340 1_655
Na9 S15 3.046437 1_555
Na9 S15 3.627565 1_545
Na10 S11 2.779648 1_555
Na10 S15 2.882666 1_455
Na10 S0 2.924674 1_555
Na10 S7 2.978383 1_555
Na10 S13 3.016508 1_556
Na10 S0 3.792886 1_565
Na11 S7 2.821809 1_545
Na11 S6 2.868636 1_555
Na11 S1 2.905028 1_455
Na11 S8 2.907488 1_555
Na11 S2 3.018320 1_455
Na11 S12 3.057319 1_555
Li0 S4 2.383176 1_555
Li0 S11 2.402643 1_555
Li0 S5 2.480584 1_555
Li0 S15 2.501160 1_555
Li0 Na6 3.221409 1_555
Li0 Na1 3.274037 1_555
Li1 S7 2.383176 1_555
Li1 S2 2.402643 1_455
Li1 S0 2.480584 1_555
Li1 S8 2.501160 1_555
Li1 Na11 3.221409 1_555
Li1 Na9 3.274037 1_455
Li2 S9 2.383176 1_555
Li2 S10 2.402643 1_555
Li2 S12 2.480584 1_555
Li2 S13 2.501160 1_555
Li2 Na2 3.221409 1_555
Li2 Na3 3.274037 1_555
Li3 S1 2.383176 1_555
Li3 S6 2.402643 1_655
Li3 S14 2.480584 1_555
Li3 S3 2.501160 1_555
Li3 Na0 3.221409 1_555
Li3 Na8 3.274037 1_655
S0 Sn2 2.405786 1_555
S1 Sn3 2.384385 1_655
S2 Sn0 2.387630 1_545
S3 Sn1 2.410178 1_555
S4 Sn2 2.384385 1_555
S5 Sn0 2.405786 1_555
S6 Sn3 2.387630 1_565
S7 Sn0 2.384385 1_455
S8 Sn2 2.410178 1_555
S9 Sn1 2.384385 1_555
S10 Sn1 2.387630 1_545
S11 Sn2 2.387630 1_565
S12 Sn3 2.405786 1_555
S13 Sn3 2.410178 1_555
S14 Sn1 2.405786 1_555
S15 Sn0 2.410178 1_555
