# generated using pymatgen
data_Ba3Sc2Cu2Se2O5
_symmetry_space_group_name_H-M   'P 1'
_cell_length_a   4.18804714
_cell_length_b   4.18804772
_cell_length_c   14.30977162
_cell_angle_alpha   98.41461711
_cell_angle_beta   98.41461634
_cell_angle_gamma   89.99999513
_symmetry_Int_Tables_number   1
_chemical_formula_structural   Ba3Sc2Cu2Se2O5
_chemical_formula_sum   'Ba3 Sc2 Cu2 Se2 O5'
_cell_volume   245.55617312
_cell_formula_units_Z   1
loop_
 _symmetry_equiv_pos_site_id
 _symmetry_equiv_pos_as_xyz
  1  'x, y, z'
loop_
 _atom_site_type_symbol
 _atom_site_label
 _atom_site_symmetry_multiplicity
 _atom_site_fract_x
 _atom_site_fract_y
 _atom_site_fract_z
 _atom_site_occupancy
  Ba  Ba0  1  0.50000000  0.50000000  0.00000000  1
  Ba  Ba1  1  0.64226111  0.64226111  0.28452323  1
  Ba  Ba2  1  0.35773889  0.35773889  0.71547677  1
  Sc  Sc0  1  0.07083379  0.07083379  0.14166758  1
  Sc  Sc1  1  0.92916721  0.92916721  0.85833242  1
  Cu  Cu0  1  0.75000000  0.25000000  0.50000000  1
  Cu  Cu1  1  0.25000000  0.75000000  0.50000000  1
  Se  Se0  1  0.19987536  0.19987536  0.39975272  1
  Se  Se1  1  0.80012464  0.80012464  0.60024728  1
  O  O0  1  0.00000000  0.00000000  0.00000000  1
  O  O1  1  0.58059085  0.08059085  0.16118270  1
  O  O2  1  0.08059085  0.58059085  0.16118270  1
  O  O3  1  0.91940915  0.41940915  0.83881730  1
  O  O4  1  0.41940915  0.91940915  0.83881730  1
loop_
_geom_bond_atom_site_label_1
_geom_bond_atom_site_label_2
_geom_bond_distance
_geom_bond_site_symmetry_2
Ba0 O0 2.961397 1_655
Ba0 O0 2.961397 1_565
Ba0 O0 2.961397 1_555
Ba0 O0 2.961397 1_665
Ba0 O2 3.078469 1_655
Ba0 O3 3.078469 1_454
Ba0 O1 3.078469 1_565
Ba0 O4 3.078469 1_544
Ba0 O2 3.078472 1_555
Ba0 O3 3.078472 1_554
Ba0 O1 3.078472 1_555
Ba0 O4 3.078472 1_554
Ba1 O2 2.714158 1_555
Ba1 O1 2.714158 1_555
Ba1 O2 2.714159 1_655
Ba1 O1 2.714159 1_565
Ba1 Se0 3.372285 1_665
Ba1 Se0 3.372287 1_655
Ba1 Se0 3.372287 1_565
Ba1 Se0 3.372290 1_555
Ba2 O3 2.714158 1_555
Ba2 O4 2.714158 1_555
Ba2 O3 2.714159 1_455
Ba2 O4 2.714159 1_545
Ba2 Se1 3.372285 1_445
Ba2 Se1 3.372287 1_455
Ba2 Se1 3.372287 1_545
Ba2 Se1 3.372290 1_555
Cu0 Se0 2.520837 1_655
Cu0 Se1 2.520837 1_545
Cu0 Se0 2.520844 1_555
Cu0 Se1 2.520844 1_555
Cu0 Cu1 2.961397 1_645
Cu0 Cu1 2.961397 1_555
Cu0 Cu1 2.961397 1_545
Cu0 Cu1 2.961397 1_655
Cu1 Se1 2.520837 1_455
Cu1 Se0 2.520837 1_565
Cu1 Se1 2.520844 1_555
Cu1 Se0 2.520844 1_555
O0 Sc0 1.983344 1_555
O0 Sc1 1.983344 1_444
O1 Sc0 2.111769 1_555
O1 Sc0 2.111774 1_655
O2 Sc0 2.111770 1_555
O2 Sc0 2.111774 1_565
O3 Sc1 2.111770 1_545
O3 Sc1 2.111774 1_555
O4 Sc1 2.111770 1_455
O4 Sc1 2.111774 1_555
