# generated using pymatgen
data_Cs10Si2As5P
_symmetry_space_group_name_H-M   'P 1'
_cell_length_a   6.07855095
_cell_length_b   14.48907152
_cell_length_c   16.05530178
_cell_angle_alpha   90.06170113
_cell_angle_beta   90.00000000
_cell_angle_gamma   90.00000000
_symmetry_Int_Tables_number   1
_chemical_formula_structural   Cs10Si2As5P
_chemical_formula_sum   'Cs20 Si4 As10 P2'
_cell_volume   1414.03069996
_cell_formula_units_Z   2
loop_
 _symmetry_equiv_pos_site_id
 _symmetry_equiv_pos_as_xyz
  1  'x, y, z'
loop_
 _atom_site_type_symbol
 _atom_site_label
 _atom_site_symmetry_multiplicity
 _atom_site_fract_x
 _atom_site_fract_y
 _atom_site_fract_z
 _atom_site_occupancy
  Cs  Cs0  1  0.75000000  0.64461683  0.95094027  1
  Cs  Cs1  1  0.25000000  0.77223151  0.70483654  1
  Cs  Cs2  1  0.75000000  0.93615619  0.04516756  1
  Cs  Cs3  1  0.75000000  0.95568376  0.35270200  1
  Cs  Cs4  1  0.25000000  0.35317106  0.04791426  1
  Cs  Cs5  1  0.25000000  0.85359611  0.45287257  1
  Cs  Cs6  1  0.75000000  0.14677057  0.55012620  1
  Cs  Cs7  1  0.75000000  0.43652208  0.45669927  1
  Cs  Cs8  1  0.25000000  0.04687025  0.65327077  1
  Cs  Cs9  1  0.25000000  0.27487207  0.79670684  1
  Cs  Cs10  1  0.75000000  0.37924959  0.69102603  1
  Cs  Cs11  1  0.25000000  0.56282441  0.54403577  1
  Cs  Cs12  1  0.75000000  0.22777803  0.29469686  1
  Cs  Cs13  1  0.75000000  0.72985893  0.20355105  1
  Cs  Cs14  1  0.75000000  0.45468684  0.14854011  1
  Cs  Cs15  1  0.25000000  0.06340042  0.95333408  1
  Cs  Cs16  1  0.25000000  0.62145982  0.31103985  1
  Cs  Cs17  1  0.75000000  0.88007341  0.81187432  1
  Cs  Cs18  1  0.25000000  0.54373413  0.85077501  1
  Cs  Cs19  1  0.25000000  0.11484849  0.18711742  1
  Si  Si0  1  0.75000000  0.73871190  0.56366178  1
  Si  Si1  1  0.75000000  0.24277975  0.93512458  1
  Si  Si2  1  0.25000000  0.26132810  0.43679808  1
  Si  Si3  1  0.25000000  0.76272251  0.06415862  1
  As  As0  1  0.75000000  0.63207901  0.66997902  1
  As  As1  1  0.75000000  0.69387630  0.42658302  1
  As  As2  1  0.75000000  0.89495460  0.58772479  1
  As  As3  1  0.25000000  0.60553778  0.08666611  1
  As  As4  1  0.25000000  0.80609799  0.92641762  1
  As  As5  1  0.25000000  0.30619082  0.57395925  1
  As  As6  1  0.75000000  0.13576765  0.82801712  1
  As  As7  1  0.25000000  0.10488402  0.41294800  1
  As  As8  1  0.25000000  0.36793344  0.33063640  1
  As  As9  1  0.75000000  0.19385882  0.07157276  1
  P  P0  1  0.75000000  0.39124003  0.91374141  1
  P  P1  1  0.25000000  0.86362978  0.16478269  1
loop_
_geom_bond_atom_site_label_1
_geom_bond_atom_site_label_2
_geom_bond_distance
_geom_bond_site_symmetry_2
Cs0 P0 3.718822 1_555
Cs0 Cs18 3.735632 1_655
Cs0 Cs18 3.735632 1_555
Cs0 Si3 3.932312 1_556
Cs0 Si3 3.932312 1_656
Cs0 Cs17 4.079242 1_555
Cs0 Cs14 4.201990 1_556
Cs0 Cs13 4.238358 1_556
Cs0 Cs2 4.485338 1_556
Cs1 Si0 3.822066 1_455
Cs1 Si0 3.822066 1_555
Cs1 Cs17 3.824426 1_555
Cs1 Cs17 3.824426 1_455
Cs1 Cs11 3.981731 1_555
Cs1 Cs18 4.058028 1_555
Cs1 Cs8 4.065345 1_565
Cs1 Cs5 4.214853 1_555
Cs2 P1 3.746193 1_655
Cs2 P1 3.746193 1_555
Cs2 Si3 3.955559 1_555
Cs2 Si3 3.955559 1_655
Cs2 Cs3 4.945354 1_555
Cs3 Cs5 3.743895 1_655
Cs3 Cs5 3.743895 1_555
Cs3 Cs6 4.206384 1_565
Cs3 P1 4.484461 1_655
Cs3 P1 4.484461 1_555
Cs4 P0 3.766234 1_454
Cs4 P0 3.766234 1_554
Cs4 Si1 3.881818 1_554
Cs4 Si1 3.881818 1_454
Cs4 Cs9 4.188553 1_554
Cs5 Si0 3.895936 1_455
Cs5 Si0 3.895936 1_555
Cs5 Cs8 4.263172 1_565
Cs5 P1 4.627811 1_555
Cs6 Cs8 3.752319 1_655
Cs6 Cs8 3.752319 1_555
Cs6 Si2 3.912721 1_555
Cs6 Si2 3.912721 1_655
Cs6 Cs7 4.459674 1_555
Cs7 Si2 3.972531 1_655
Cs7 Si2 3.972531 1_555
Cs8 Cs9 4.024966 1_555
Cs9 Si1 3.793998 1_555
Cs9 Si1 3.793998 1_455
Cs9 P0 3.950180 1_455
Cs9 P0 3.950180 1_555
Cs10 P0 3.579794 1_555
Cs10 Cs9 3.795891 1_655
Cs10 Cs9 3.795891 1_555
Cs10 Cs7 3.853490 1_555
Cs10 Cs6 4.055520 1_555
Cs10 Cs18 4.634879 1_555
Cs10 Cs18 4.634879 1_655
Cs11 Cs7 3.814025 1_555
Cs11 Cs7 3.814025 1_455
Cs11 Cs16 3.836972 1_555
Cs11 Si0 3.978610 1_555
Cs11 Si0 3.978610 1_455
Cs11 Cs5 4.461505 1_555
Cs11 Cs18 4.932850 1_555
Cs12 Si2 3.830960 1_555
Cs12 Si2 3.830960 1_655
Cs12 Cs19 3.858976 1_655
Cs12 Cs19 3.858976 1_555
Cs12 Cs7 3.986965 1_555
Cs12 Cs14 4.041295 1_555
Cs12 Cs3 4.051873 1_545
Cs12 Cs6 4.266867 1_555
Cs13 P1 3.658401 1_655
Cs13 P1 3.658401 1_555
Cs13 Si3 3.804577 1_555
Cs13 Si3 3.804577 1_655
Cs13 Cs16 3.832504 1_655
Cs13 Cs16 3.832504 1_555
Cs13 Cs2 3.926466 1_555
Cs13 Cs3 4.052588 1_555
Cs13 Cs14 4.082715 1_555
Cs14 Cs4 3.742409 1_655
Cs14 Cs4 3.742409 1_555
Cs14 P0 3.879271 1_554
Cs14 Cs16 4.676465 1_655
Cs14 Cs16 4.676465 1_555
Cs14 Cs7 4.954867 1_555
Cs15 Cs19 3.825980 1_556
Cs15 Cs2 3.849155 1_446
Cs15 Cs2 3.849155 1_546
Cs15 Cs9 3.965926 1_555
Cs15 Si1 4.009902 1_455
Cs15 Si1 4.009902 1_555
Cs15 Cs4 4.463140 1_556
Cs15 Cs8 4.823299 1_555
Cs16 Cs5 4.059768 1_555
Cs16 P1 4.224169 1_555
Cs17 Cs2 3.831868 1_556
Cs17 Cs8 4.644926 1_565
Cs17 Cs8 4.644926 1_665
Cs18 P0 3.891773 1_555
Cs18 P0 3.891773 1_455
Cs18 Cs9 3.990198 1_555
Cs18 Cs4 4.202433 1_556
Cs19 P1 3.657162 1_545
Cs19 Cs4 4.115256 1_555
Cs19 Cs2 4.595858 1_545
Cs19 Cs2 4.595858 1_445
Cs19 Cs3 4.651495 1_545
Cs19 Cs3 4.651495 1_445
As0 Si0 2.303571 1_555
As0 Cs10 3.679178 1_555
As0 Cs1 3.697515 1_655
As0 Cs1 3.697515 1_555
As0 Cs11 3.785290 1_555
As0 Cs11 3.785290 1_655
As0 Cs17 4.252480 1_555
As0 Cs18 4.394264 1_655
As0 Cs18 4.394264 1_555
As0 Cs7 4.442196 1_555
As0 Cs0 4.514379 1_555
As1 Si0 2.294043 1_555
As1 Cs13 3.619156 1_555
As1 Cs16 3.711502 1_555
As1 Cs16 3.711502 1_655
As1 Cs7 3.760559 1_555
As1 Cs5 3.843011 1_655
As1 Cs5 3.843011 1_555
As1 Cs3 3.975701 1_555
As1 Cs11 4.050486 1_655
As1 Cs11 4.050486 1_555
As2 Si0 2.296131 1_555
As2 Cs17 3.605473 1_555
As2 Cs6 3.698821 1_565
As2 Cs5 3.779038 1_555
As2 Cs5 3.779038 1_655
As2 Cs3 3.875519 1_555
As2 Cs8 3.896740 1_565
As2 Cs8 3.896740 1_665
As2 Cs1 3.992692 1_555
As2 Cs1 3.992692 1_655
As3 Si3 2.306336 1_555
As3 Cs16 3.609519 1_555
As3 Cs4 3.708453 1_555
As3 Cs0 3.782726 1_454
As3 Cs0 3.782726 1_554
As3 Cs14 3.873754 1_555
As3 Cs14 3.873754 1_455
As3 Cs18 3.890789 1_554
As3 Cs13 3.999538 1_555
As3 Cs13 3.999538 1_455
As4 Si3 2.299692 1_556
As4 Cs1 3.590709 1_555
As4 Cs17 3.711104 1_555
As4 Cs17 3.711104 1_455
As4 Cs15 3.752575 1_565
As4 Cs0 3.855962 1_555
As4 Cs0 3.855962 1_455
As4 Cs18 3.989447 1_555
As4 Cs2 4.051605 1_556
As4 Cs2 4.051605 1_456
As5 Si2 2.295423 1_555
As5 Cs9 3.605439 1_555
As5 Cs10 3.726409 1_455
As5 Cs10 3.726409 1_555
As5 Cs11 3.749804 1_555
As5 Cs6 3.836290 1_455
As5 Cs6 3.836290 1_555
As5 Cs8 3.968525 1_555
As5 Cs7 4.044154 1_555
As5 Cs7 4.044154 1_455
As6 Si1 2.314195 1_555
As6 Cs9 3.681616 1_655
As6 Cs9 3.681616 1_555
As6 Cs17 3.713548 1_545
As6 Cs15 3.793325 1_655
As6 Cs15 3.793325 1_555
As6 Cs10 4.159301 1_555
As6 Cs8 4.331268 1_655
As6 Cs8 4.331268 1_555
As6 Cs6 4.464642 1_555
As7 Si2 2.298439 1_555
As7 Cs19 3.628807 1_555
As7 Cs5 3.697603 1_545
As7 Cs6 3.801759 1_455
As7 Cs6 3.801759 1_555
As7 Cs3 3.852475 1_545
As7 Cs3 3.852475 1_445
As7 Cs8 3.949837 1_555
As7 Cs12 4.002450 1_455
As7 Cs12 4.002450 1_555
As8 Si2 2.301451 1_555
As8 Cs16 3.687149 1_555
As8 Cs12 3.700197 1_455
As8 Cs12 3.700197 1_555
As8 Cs7 3.783776 1_555
As8 Cs7 3.783776 1_455
As8 Cs19 4.328737 1_555
As8 Cs14 4.401432 1_555
As8 Cs14 4.401432 1_455
As8 Cs11 4.437537 1_555
As8 Cs4 4.543996 1_555
As9 Si1 2.303260 1_554
As9 Cs12 3.615355 1_555
As9 Cs19 3.740818 1_655
As9 Cs19 3.740818 1_555
As9 Cs2 3.757408 1_545
As9 Cs4 3.835564 1_555
As9 Cs4 3.835564 1_655
As9 Cs14 3.974795 1_555
As9 Cs15 4.050452 1_654
As9 Cs15 4.050452 1_554
P0 Si1 2.178641 1_555
P1 Si3 2.177731 1_555
