# generated using pymatgen
data_Hf13Ga3(Rh2N)4
_symmetry_space_group_name_H-M   'P 1'
_cell_length_a   8.45204486
_cell_length_b   8.45204353
_cell_length_c   8.45204573
_cell_angle_alpha   60.43929350
_cell_angle_beta   60.43929659
_cell_angle_gamma   60.43929928
_symmetry_Int_Tables_number   1
_chemical_formula_structural   Hf13Ga3(Rh2N)4
_chemical_formula_sum   'Hf13 Ga3 Rh8 N4'
_cell_volume   431.18384828
_cell_formula_units_Z   1
loop_
 _symmetry_equiv_pos_site_id
 _symmetry_equiv_pos_as_xyz
  1  'x, y, z'
loop_
 _atom_site_type_symbol
 _atom_site_label
 _atom_site_symmetry_multiplicity
 _atom_site_fract_x
 _atom_site_fract_y
 _atom_site_fract_z
 _atom_site_occupancy
  Hf  Hf0  1  0.62500000  0.62500000  0.62500000  1
  Hf  Hf1  1  0.81162074  0.81162074  0.18325015  1
  Hf  Hf2  1  0.18832768  0.18832768  0.81048404  1
  Hf  Hf3  1  0.81162074  0.18325015  0.81162074  1
  Hf  Hf4  1  0.18832768  0.81048404  0.18832768  1
  Hf  Hf5  1  0.18325015  0.81162074  0.81162074  1
  Hf  Hf6  1  0.81048404  0.18832768  0.18832768  1
  Hf  Hf7  1  0.43837926  0.43837926  0.06674985  1
  Hf  Hf8  1  0.06167232  0.06167232  0.43951596  1
  Hf  Hf9  1  0.43837926  0.06674985  0.43837926  1
  Hf  Hf10  1  0.06167232  0.43951596  0.06167232  1
  Hf  Hf11  1  0.06674985  0.43837926  0.43837926  1
  Hf  Hf12  1  0.43951596  0.06167232  0.06167232  1
  Ga  Ga0  1  0.12500000  0.62500000  0.62500000  1
  Ga  Ga1  1  0.62500000  0.12500000  0.62500000  1
  Ga  Ga2  1  0.62500000  0.62500000  0.12500000  1
  Rh  Rh0  1  0.76279032  0.41159788  0.41159788  1
  Rh  Rh1  1  0.41159788  0.76279032  0.41159788  1
  Rh  Rh2  1  0.41159788  0.41159788  0.76279032  1
  Rh  Rh3  1  0.41534630  0.41534630  0.41534630  1
  Rh  Rh4  1  0.48720968  0.83840212  0.83840212  1
  Rh  Rh5  1  0.83840212  0.48720968  0.83840212  1
  Rh  Rh6  1  0.83840212  0.83840212  0.48720968  1
  Rh  Rh7  1  0.83465370  0.83465370  0.83465370  1
  N  N0  1  0.62500000  0.12500000  0.12500000  1
  N  N1  1  0.12500000  0.62500000  0.12500000  1
  N  N2  1  0.12500000  0.12500000  0.62500000  1
  N  N3  1  0.12500000  0.12500000  0.12500000  1
loop_
_geom_bond_atom_site_label_1
_geom_bond_atom_site_label_2
_geom_bond_distance
_geom_bond_site_symmetry_2
Hf0 Rh6 2.632030 1_555
Hf0 Rh2 2.632030 1_555
Hf0 Rh4 2.632031 1_555
Hf0 Rh0 2.632031 1_555
Hf0 Rh5 2.632031 1_555
Hf0 Rh1 2.632031 1_555
Hf0 Hf9 3.122414 1_565
Hf0 Hf3 3.122414 1_555
Hf0 Hf11 3.122414 1_655
Hf0 Hf5 3.122414 1_555
Hf0 Hf1 3.122414 1_555
Hf0 Hf7 3.122414 1_556
Hf1 N0 2.259034 1_565
Hf1 N1 2.259034 1_655
Hf1 Rh7 2.768084 1_554
Hf1 Rh6 2.810833 1_555
Hf1 Rh0 3.078774 1_555
Hf1 Rh1 3.078775 1_555
Hf2 N2 2.229194 1_555
Hf2 N3 2.261505 1_556
Hf2 Rh4 2.777075 1_545
Hf2 Rh5 2.777075 1_455
Hf2 Rh2 3.049142 1_555
Hf2 Rh3 3.082863 1_555
Hf3 N2 2.259034 1_655
Hf3 N0 2.259034 1_556
Hf3 Rh7 2.768083 1_545
Hf3 Rh5 2.810833 1_555
Hf3 Rh2 3.078775 1_555
Hf3 Rh0 3.078775 1_555
Hf4 N1 2.229194 1_555
Hf4 N3 2.261504 1_565
Hf4 Rh6 2.777075 1_455
Hf4 Rh4 2.777075 1_554
Hf4 Rh1 3.049142 1_555
Hf4 Rh3 3.082863 1_555
Hf5 N2 2.259034 1_565
Hf5 N1 2.259034 1_556
Hf5 Rh7 2.768084 1_455
Hf5 Rh4 2.810833 1_555
Hf5 Rh2 3.078774 1_555
Hf5 Rh1 3.078775 1_555
Hf6 N0 2.229194 1_555
Hf6 N3 2.261505 1_655
Hf6 Rh6 2.777075 1_545
Hf6 Rh5 2.777075 1_554
Hf6 Rh0 3.049142 1_555
Hf6 Rh3 3.082863 1_555
Hf7 N0 2.259034 1_555
Hf7 N1 2.259034 1_555
Hf7 Rh3 2.768084 1_555
Hf7 Rh2 2.810833 1_554
Hf7 Rh4 3.078774 1_554
Hf7 Rh5 3.078775 1_554
Hf8 N2 2.229194 1_555
Hf8 N3 2.261505 1_555
Hf8 Rh0 2.777075 1_455
Hf8 Rh1 2.777075 1_545
Hf8 Rh6 3.049142 1_445
Hf8 Rh7 3.082863 1_445
Hf9 N2 2.259034 1_555
Hf9 N0 2.259034 1_555
Hf9 Rh3 2.768083 1_555
Hf9 Rh1 2.810833 1_545
Hf9 Rh6 3.078775 1_545
Hf9 Rh4 3.078775 1_545
Hf10 N1 2.229194 1_555
Hf10 N3 2.261504 1_555
Hf10 Rh2 2.777075 1_554
Hf10 Rh0 2.777075 1_455
Hf10 Rh5 3.049142 1_454
Hf10 Rh7 3.082863 1_454
Hf11 N2 2.259034 1_555
Hf11 N1 2.259034 1_555
Hf11 Rh3 2.768084 1_555
Hf11 Rh0 2.810833 1_455
Hf11 Rh6 3.078774 1_455
Hf11 Rh5 3.078775 1_455
Hf12 N0 2.229194 1_555
Hf12 N3 2.261505 1_555
Hf12 Rh2 2.777075 1_554
Hf12 Rh1 2.777075 1_545
Hf12 Rh4 3.049142 1_544
Hf12 Rh7 3.082863 1_544
Ga0 Rh7 2.611339 1_455
Ga0 Rh3 2.611339 1_555
Ga0 Rh1 2.622448 1_555
Ga0 Rh5 2.622448 1_455
Ga0 Rh2 2.622448 1_555
Ga0 Rh6 2.622448 1_455
Ga0 Hf5 3.034078 1_555
Ga0 Hf11 3.034078 1_555
Ga0 Hf8 3.087996 1_565
Ga0 Hf2 3.087996 1_555
Ga0 Hf10 3.087996 1_556
Ga0 Hf4 3.087996 1_555
Ga1 Rh7 2.611339 1_545
Ga1 Rh3 2.611339 1_555
Ga1 Rh0 2.622448 1_555
Ga1 Rh4 2.622448 1_545
Ga1 Rh2 2.622448 1_555
Ga1 Rh6 2.622448 1_545
Ga1 Hf3 3.034078 1_555
Ga1 Hf9 3.034078 1_555
Ga1 Hf8 3.087996 1_655
Ga1 Hf2 3.087996 1_555
Ga1 Hf12 3.087997 1_556
Ga1 Hf6 3.087997 1_555
Ga2 Rh7 2.611339 1_554
Ga2 Rh3 2.611339 1_555
Ga2 Rh0 2.622448 1_555
Ga2 Rh4 2.622448 1_554
Ga2 Rh1 2.622448 1_555
Ga2 Rh5 2.622448 1_554
Ga2 Hf1 3.034078 1_555
Ga2 Hf7 3.034078 1_555
Ga2 Hf12 3.087996 1_565
Ga2 Hf6 3.087996 1_555
Ga2 Hf10 3.087996 1_655
Ga2 Hf4 3.087996 1_555
Rh0 Rh3 2.905700 1_555
Rh0 Rh1 2.987982 1_555
Rh0 Rh2 2.987982 1_555
Rh1 Rh3 2.905700 1_555
Rh1 Rh2 2.987982 1_555
Rh2 Rh3 2.905700 1_555
Rh4 Rh7 2.905700 1_555
Rh4 Rh5 2.987982 1_555
Rh4 Rh6 2.987982 1_555
Rh5 Rh7 2.905700 1_555
Rh5 Rh6 2.987982 1_555
Rh6 Rh7 2.905700 1_555
