# generated using pymatgen
data_Sr3TiGeS7
_symmetry_space_group_name_H-M   'P 1'
_cell_length_a   10.61202823
_cell_length_b   10.61194269
_cell_length_c   6.17006908
_cell_angle_alpha   89.99983412
_cell_angle_beta   90.00029084
_cell_angle_gamma   119.99910487
_symmetry_Int_Tables_number   1
_chemical_formula_structural   Sr3TiGeS7
_chemical_formula_sum   'Sr6 Ti2 Ge2 S14'
_cell_volume   601.75245090
_cell_formula_units_Z   2
loop_
 _symmetry_equiv_pos_site_id
 _symmetry_equiv_pos_as_xyz
  1  'x, y, z'
loop_
 _atom_site_type_symbol
 _atom_site_label
 _atom_site_symmetry_multiplicity
 _atom_site_fract_x
 _atom_site_fract_y
 _atom_site_fract_z
 _atom_site_occupancy
  Sr  Sr0  1  0.13389854  0.38706519  0.23678084  1
  Sr  Sr1  1  0.25317022  0.86610407  0.23679622  1
  Sr  Sr2  1  0.61293365  0.74683260  0.23678419  1
  Sr  Sr3  1  0.86610319  0.61293399  0.73678136  1
  Sr  Sr4  1  0.74682925  0.13389534  0.73679586  1
  Sr  Sr5  1  0.38706713  0.25316860  0.73678462  1
  Ti  Ti0  1  0.00001629  0.99999708  0.99890907  1
  Ti  Ti1  1  0.99998214  0.00000477  0.49890151  1
  Ge  Ge0  1  0.66666301  0.33333394  0.15864276  1
  Ge  Ge1  1  0.33333574  0.66666567  0.65864137  1
  S  S0  1  0.33333167  0.66666624  0.01344556  1
  S  S1  1  0.51711164  0.11437519  0.02353795  1
  S  S2  1  0.59726333  0.48288602  0.02353389  1
  S  S3  1  0.88562633  0.40273740  0.02353425  1
  S  S4  1  0.20784904  0.13546489  0.29334974  1
  S  S5  1  0.86451706  0.07238391  0.29334255  1
  S  S6  1  0.92761163  0.79214953  0.29334913  1
  S  S7  1  0.66666772  0.33333394  0.51344666  1
  S  S8  1  0.48288926  0.88562596  0.52353746  1
  S  S9  1  0.40273843  0.51711298  0.52353444  1
  S  S10  1  0.11437253  0.59726432  0.52353713  1
  S  S11  1  0.79214998  0.86453309  0.79334748  1
  S  S12  1  0.07238696  0.20784938  0.79334857  1
  S  S13  1  0.13548526  0.92761589  0.79333939  1
loop_
_geom_bond_atom_site_label_1
_geom_bond_atom_site_label_2
_geom_bond_distance
_geom_bond_site_symmetry_2
Ge0 S7 2.189165 1_555
Ge0 S2 2.219185 1_555
Ge0 S1 2.219256 1_555
Ge0 S3 2.219322 1_555
Ge1 S0 2.189166 1_556
Ge1 S9 2.219215 1_555
Ge1 S8 2.219271 1_555
Ge1 S10 2.219308 1_555
S0 Sr0 2.983677 1_555
S0 Sr1 2.983688 1_555
S0 Sr2 2.983692 1_555
S1 Sr4 2.934424 1_554
S1 Sr1 3.023038 1_545
S1 Sr5 3.039199 1_554
S2 Sr5 2.934449 1_554
S2 Sr2 3.023023 1_555
S2 Sr3 3.039259 1_554
S3 Sr3 2.934440 1_554
S3 Sr0 3.022991 1_655
S3 Sr4 3.039204 1_554
S4 Ti1 2.317325 1_455
S4 Ti0 2.657234 1_544
S4 Sr1 3.146188 1_545
S4 Sr0 3.156207 1_555
S4 Sr5 3.207423 1_555
S4 Sr5 3.820272 1_554
S5 Ti1 2.317166 1_555
S5 Ti0 2.657549 1_644
S5 Sr0 3.146324 1_655
S5 Sr2 3.156201 1_545
S5 Sr4 3.207423 1_555
S5 Sr4 3.820065 1_554
S6 Ti1 2.317262 1_565
S6 Ti0 2.657271 1_654
S6 Sr2 3.146204 1_555
S6 Sr1 3.156310 1_655
S6 Sr3 3.207394 1_555
S6 Sr3 3.820268 1_554
S7 Sr3 2.983672 1_555
S7 Sr4 2.983681 1_555
S7 Sr5 2.983691 1_555
S8 Sr1 2.934412 1_555
S8 Sr4 3.023017 1_565
S8 Sr2 3.039211 1_555
S9 Sr2 2.934465 1_555
S9 Sr5 3.022991 1_555
S9 Sr0 3.039251 1_555
S10 Sr0 2.934497 1_555
S10 Sr3 3.022956 1_455
S10 Sr1 3.039195 1_555
S11 Ti0 2.317352 1_655
S11 Ti1 2.657267 1_565
S11 Sr4 3.146196 1_565
S11 Sr3 3.156214 1_555
S11 Sr2 3.207433 1_556
S11 Sr2 3.820242 1_555
S12 Ti0 2.317262 1_545
S12 Ti1 2.657282 1_455
S12 Sr5 3.146221 1_555
S12 Sr4 3.156299 1_455
S12 Sr0 3.207396 1_556
S12 Sr0 3.820262 1_555
S13 Ti0 2.317259 1_555
S13 Ti1 2.657596 1_465
S13 Sr3 3.146327 1_455
S13 Sr5 3.156205 1_565
S13 Sr1 3.207414 1_556
S13 Sr1 3.820049 1_555
