# generated using pymatgen
data_Ti3Si2RhN
_symmetry_space_group_name_H-M   'P 1'
_cell_length_a   7.95565634
_cell_length_b   7.95565719
_cell_length_c   7.95565595
_cell_angle_alpha   60.00000514
_cell_angle_beta   60.00000161
_cell_angle_gamma   60.00000460
_symmetry_Int_Tables_number   1
_chemical_formula_structural   Ti3Si2RhN
_chemical_formula_sum   'Ti12 Si8 Rh4 N4'
_cell_volume   356.05173641
_cell_formula_units_Z   4
loop_
 _symmetry_equiv_pos_site_id
 _symmetry_equiv_pos_as_xyz
  1  'x, y, z'
loop_
 _atom_site_type_symbol
 _atom_site_label
 _atom_site_symmetry_multiplicity
 _atom_site_fract_x
 _atom_site_fract_y
 _atom_site_fract_z
 _atom_site_occupancy
  Ti  Ti0  1  0.81542768  0.81542768  0.18457232  1
  Ti  Ti1  1  0.06542768  0.43457232  0.43457232  1
  Ti  Ti2  1  0.43457232  0.06542768  0.06542768  1
  Ti  Ti3  1  0.06542768  0.06542768  0.43457232  1
  Ti  Ti4  1  0.06542768  0.43457232  0.06542768  1
  Ti  Ti5  1  0.43457232  0.06542768  0.43457232  1
  Ti  Ti6  1  0.18457232  0.81542768  0.18457232  1
  Ti  Ti7  1  0.18457232  0.81542768  0.81542768  1
  Ti  Ti8  1  0.81542768  0.18457232  0.18457232  1
  Ti  Ti9  1  0.81542768  0.18457232  0.81542768  1
  Ti  Ti10  1  0.43457232  0.43457232  0.06542768  1
  Ti  Ti11  1  0.18457232  0.18457232  0.81542768  1
  Si  Si0  1  0.41432855  0.75701335  0.41432855  1
  Si  Si1  1  0.83567145  0.83567145  0.49298665  1
  Si  Si2  1  0.49298665  0.83567145  0.83567145  1
  Si  Si3  1  0.83567145  0.83567145  0.83567145  1
  Si  Si4  1  0.75701335  0.41432855  0.41432855  1
  Si  Si5  1  0.41432855  0.41432855  0.41432855  1
  Si  Si6  1  0.41432855  0.41432855  0.75701335  1
  Si  Si7  1  0.83567145  0.49298665  0.83567145  1
  Rh  Rh0  1  0.62500000  0.12500000  0.62500000  1
  Rh  Rh1  1  0.62500000  0.62500000  0.12500000  1
  Rh  Rh2  1  0.12500000  0.62500000  0.62500000  1
  Rh  Rh3  1  0.62500000  0.62500000  0.62500000  1
  N  N0  1  0.12500000  0.62500000  0.12500000  1
  N  N1  1  0.12500000  0.12500000  0.62500000  1
  N  N2  1  0.62500000  0.12500000  0.12500000  1
  N  N3  1  0.12500000  0.12500000  0.12500000  1
loop_
_geom_bond_atom_site_label_1
_geom_bond_atom_site_label_2
_geom_bond_distance
_geom_bond_site_symmetry_2
Si0 Ti2 2.624588 1_565
Si0 Ti3 2.624588 1_565
Si0 Ti5 2.624592 1_565
Si0 Si5 2.726283 1_555
Si0 Si6 2.726283 1_555
Si0 Si4 2.726283 1_555
Si0 Ti6 2.922379 1_555
Si0 Ti7 2.922386 1_555
Si0 Ti0 2.922386 1_555
Si1 Ti6 2.624588 1_655
Si1 Ti8 2.624588 1_565
Si1 Ti0 2.624592 1_555
Si1 Si3 2.726282 1_555
Si1 Si2 2.726283 1_555
Si1 Si7 2.726283 1_555
Si1 Ti3 2.922379 1_665
Si1 Ti5 2.922386 1_565
Si1 Ti1 2.922386 1_655
Si2 Ti6 2.624588 1_556
Si2 Ti11 2.624588 1_565
Si2 Ti7 2.624592 1_555
Si2 Si3 2.726283 1_555
Si2 Si7 2.726283 1_555
Si2 Ti2 2.922379 1_566
Si2 Ti5 2.922386 1_565
Si2 Ti10 2.922386 1_556
Si3 Ti0 2.624584 1_556
Si3 Ti7 2.624584 1_655
Si3 Ti9 2.624585 1_565
Si3 Si7 2.726283 1_555
Si3 Ti3 2.922383 1_665
Si3 Ti2 2.922383 1_566
Si3 Ti4 2.922383 1_656
Si4 Ti4 2.624588 1_655
Si4 Ti3 2.624588 1_655
Si4 Ti1 2.624592 1_655
Si4 Si5 2.726283 1_555
Si4 Si6 2.726283 1_555
Si4 Ti8 2.922379 1_555
Si4 Ti9 2.922386 1_555
Si4 Ti0 2.922386 1_555
Si5 Ti10 2.624584 1_555
Si5 Ti1 2.624584 1_555
Si5 Ti5 2.624585 1_555
Si5 Si6 2.726282 1_555
Si5 Ti11 2.922383 1_555
Si5 Ti8 2.922383 1_555
Si5 Ti6 2.922383 1_555
Si6 Ti4 2.624588 1_556
Si6 Ti2 2.624588 1_556
Si6 Ti10 2.624592 1_556
Si6 Ti11 2.922379 1_555
Si6 Ti9 2.922386 1_555
Si6 Ti7 2.922386 1_555
Si7 Ti8 2.624588 1_556
Si7 Ti11 2.624588 1_655
Si7 Ti9 2.624592 1_555
Si7 Ti4 2.922379 1_656
Si7 Ti1 2.922386 1_655
Si7 Ti10 2.922386 1_556
Rh0 Si6 2.451472 1_555
Rh0 Si1 2.451472 1_545
Rh0 Si4 2.451472 1_555
Rh0 Si2 2.451472 1_545
Rh0 Si3 2.451477 1_545
Rh0 Si5 2.451477 1_555
Rh0 Ti9 2.923370 1_555
Rh0 Ti5 2.923370 1_555
Rh0 Ti2 2.923370 1_556
Rh0 Ti8 2.923370 1_555
Rh0 Ti3 2.923370 1_655
Rh0 Ti11 2.923370 1_555
Rh1 Si0 2.451472 1_555
Rh1 Si7 2.451472 1_554
Rh1 Si4 2.451472 1_555
Rh1 Si2 2.451472 1_554
Rh1 Si3 2.451477 1_554
Rh1 Si5 2.451477 1_555
Rh1 Ti0 2.923370 1_555
Rh1 Ti10 2.923370 1_555
Rh1 Ti4 2.923370 1_655
Rh1 Ti6 2.923370 1_555
Rh1 Ti2 2.923370 1_565
Rh1 Ti8 2.923370 1_555
Rh2 Si0 2.451472 1_555
Rh2 Si7 2.451472 1_455
Rh2 Si6 2.451472 1_555
Rh2 Si1 2.451472 1_455
Rh2 Si3 2.451477 1_455
Rh2 Si5 2.451477 1_555
Rh2 Ti4 2.923370 1_556
Rh2 Ti6 2.923370 1_555
Rh2 Ti7 2.923370 1_555
Rh2 Ti1 2.923370 1_555
Rh2 Ti3 2.923370 1_565
Rh2 Ti11 2.923370 1_555
Rh3 Si7 2.451479 1_555
Rh3 Si0 2.451479 1_555
Rh3 Si2 2.451479 1_555
Rh3 Si4 2.451479 1_555
Rh3 Si1 2.451479 1_555
Rh3 Si6 2.451479 1_555
Rh3 Ti10 2.923370 1_556
Rh3 Ti0 2.923370 1_555
Rh3 Ti1 2.923370 1_655
Rh3 Ti7 2.923370 1_555
Rh3 Ti5 2.923370 1_565
Rh3 Ti9 2.923370 1_555
N0 Ti1 2.098812 1_555
N0 Ti7 2.098812 1_554
N0 Ti6 2.098812 1_555
N0 Ti4 2.098812 1_555
N0 Ti10 2.098812 1_555
N0 Ti0 2.098812 1_455
N1 Ti11 2.098812 1_555
N1 Ti3 2.098812 1_555
N1 Ti5 2.098812 1_555
N1 Ti9 2.098812 1_455
N1 Ti1 2.098812 1_555
N1 Ti7 2.098812 1_545
N2 Ti8 2.098812 1_555
N2 Ti2 2.098812 1_555
N2 Ti5 2.098812 1_555
N2 Ti9 2.098812 1_554
N2 Ti10 2.098812 1_555
N2 Ti0 2.098812 1_545
N3 Ti3 2.098812 1_555
N3 Ti11 2.098812 1_554
N3 Ti2 2.098812 1_555
N3 Ti8 2.098812 1_455
N3 Ti4 2.098812 1_555
N3 Ti6 2.098812 1_545
