# generated using pymatgen
data_Nb3Ga2RuC
_symmetry_space_group_name_H-M   'P 1'
_cell_length_a   8.29914566
_cell_length_b   8.29914590
_cell_length_c   8.29914450
_cell_angle_alpha   60.00000559
_cell_angle_beta   60.00000463
_cell_angle_gamma   59.99999949
_symmetry_Int_Tables_number   1
_chemical_formula_structural   Nb3Ga2RuC
_chemical_formula_sum   'Nb12 Ga8 Ru4 C4'
_cell_volume   404.18961200
_cell_formula_units_Z   4
loop_
 _symmetry_equiv_pos_site_id
 _symmetry_equiv_pos_as_xyz
  1  'x, y, z'
loop_
 _atom_site_type_symbol
 _atom_site_label
 _atom_site_symmetry_multiplicity
 _atom_site_fract_x
 _atom_site_fract_y
 _atom_site_fract_z
 _atom_site_occupancy
  Nb  Nb0  1  0.69382408  0.30617592  0.69382408  1
  Nb  Nb1  1  0.94382408  0.55617592  0.55617592  1
  Nb  Nb2  1  0.55617592  0.94382408  0.94382408  1
  Nb  Nb3  1  0.94382408  0.55617592  0.94382408  1
  Nb  Nb4  1  0.55617592  0.55617592  0.94382408  1
  Nb  Nb5  1  0.94382408  0.94382408  0.55617592  1
  Nb  Nb6  1  0.69382408  0.69382408  0.30617592  1
  Nb  Nb7  1  0.30617592  0.69382408  0.69382408  1
  Nb  Nb8  1  0.69382408  0.30617592  0.30617592  1
  Nb  Nb9  1  0.30617592  0.30617592  0.69382408  1
  Nb  Nb10  1  0.55617592  0.94382408  0.55617592  1
  Nb  Nb11  1  0.30617592  0.69382408  0.30617592  1
  Ga  Ga0  1  0.33532475  0.33532475  0.33532475  1
  Ga  Ga1  1  0.25597224  0.91467525  0.91467525  1
  Ga  Ga2  1  0.91467525  0.25597224  0.91467525  1
  Ga  Ga3  1  0.91467525  0.91467525  0.25597224  1
  Ga  Ga4  1  0.33532475  0.99402776  0.33532475  1
  Ga  Ga5  1  0.33532475  0.33532475  0.99402776  1
  Ga  Ga6  1  0.99402776  0.33532475  0.33532475  1
  Ga  Ga7  1  0.91467525  0.91467525  0.91467525  1
  Ru  Ru0  1  0.12500000  0.12500000  0.12500000  1
  Ru  Ru1  1  0.62500000  0.12500000  0.12500000  1
  Ru  Ru2  1  0.12500000  0.62500000  0.12500000  1
  Ru  Ru3  1  0.12500000  0.12500000  0.62500000  1
  C  C0  1  0.62500000  0.62500000  0.62500000  1
  C  C1  1  0.12500000  0.62500000  0.62500000  1
  C  C2  1  0.62500000  0.12500000  0.62500000  1
  C  C3  1  0.62500000  0.62500000  0.12500000  1
loop_
_geom_bond_atom_site_label_1
_geom_bond_atom_site_label_2
_geom_bond_distance
_geom_bond_site_symmetry_2
Nb0 Ru1 2.970925 1_556
Nb0 Ru3 2.970925 1_655
Nb1 Ru2 2.970925 1_655
Nb1 Ru3 2.970925 1_655
Nb2 Ru1 2.970925 1_566
Nb2 Ru0 2.970925 1_566
Nb3 Ru2 2.970925 1_656
Nb3 Ru0 2.970925 1_656
Nb4 Ru2 2.970925 1_556
Nb4 Ru1 2.970925 1_556
Nb5 Ru0 2.970925 1_665
Nb5 Ru3 2.970925 1_665
Nb6 Ru2 2.970925 1_655
Nb6 Ru1 2.970925 1_565
Nb7 Ru2 2.970925 1_556
Nb7 Ru3 2.970925 1_565
Nb8 Ru1 2.970925 1_555
Nb8 Ru0 2.970925 1_655
Nb9 Ru0 2.970925 1_556
Nb9 Ru3 2.970925 1_555
Nb10 Ru1 2.970925 1_565
Nb10 Ru3 2.970925 1_565
Nb11 Ru2 2.970925 1_555
Nb11 Ru0 2.970925 1_565
Ga0 Ru1 2.554863 1_555
Ga0 Ru2 2.554863 1_555
Ga0 Ru3 2.554864 1_555
Ga0 Nb9 2.754654 1_555
Ga0 Nb8 2.754655 1_555
Ga0 Nb11 2.754655 1_555
Ga0 Ga5 2.832473 1_554
Ga0 Ga6 2.832473 1_455
Ga0 Ga4 2.832473 1_545
Ga0 Nb1 2.953747 1_455
Ga0 Nb10 2.953747 1_545
Ga0 Nb4 2.953747 1_554
Ga1 Ru3 2.554854 1_565
Ga1 Ru2 2.554854 1_556
Ga1 Ru0 2.554867 1_566
Ga1 Nb10 2.754661 1_555
Ga1 Nb4 2.754661 1_555
Ga1 Nb2 2.754671 1_555
Ga1 Ga3 2.832473 1_456
Ga1 Ga7 2.832473 1_455
Ga1 Ga2 2.832473 1_465
Ga1 Nb7 2.953738 1_555
Ga1 Nb11 2.953753 1_556
Ga1 Nb9 2.953753 1_565
Ga2 Ru3 2.554854 1_655
Ga2 Ru1 2.554854 1_556
Ga2 Ru0 2.554867 1_656
Ga2 Nb4 2.754661 1_555
Ga2 Nb1 2.754661 1_555
Ga2 Nb3 2.754671 1_555
Ga2 Ga7 2.832473 1_545
Ga2 Ga3 2.832473 1_546
Ga2 Nb0 2.953738 1_555
Ga2 Nb8 2.953753 1_556
Ga2 Nb9 2.953753 1_655
Ga3 Ru1 2.554854 1_565
Ga3 Ru2 2.554854 1_655
Ga3 Ru0 2.554868 1_665
Ga3 Nb10 2.754661 1_555
Ga3 Nb1 2.754662 1_555
Ga3 Nb5 2.754671 1_555
Ga3 Ga7 2.832473 1_554
Ga3 Nb6 2.953739 1_555
Ga3 Nb11 2.953753 1_655
Ga3 Nb8 2.953753 1_565
Ga4 Ru3 2.554854 1_565
Ga4 Ru1 2.554854 1_565
Ga4 Ru0 2.554867 1_565
Ga4 Nb6 2.754661 1_555
Ga4 Nb7 2.754661 1_555
Ga4 Nb11 2.754671 1_555
Ga4 Ga6 2.832473 1_465
Ga4 Ga5 2.832473 1_564
Ga4 Nb10 2.953738 1_555
Ga4 Nb2 2.953753 1_554
Ga4 Nb5 2.953753 1_455
Ga5 Ru1 2.554854 1_556
Ga5 Ru2 2.554854 1_556
Ga5 Ru0 2.554868 1_556
Ga5 Nb0 2.754661 1_555
Ga5 Nb7 2.754662 1_555
Ga5 Nb9 2.754671 1_555
Ga5 Ga6 2.832473 1_456
Ga5 Nb4 2.953739 1_555
Ga5 Nb3 2.953753 1_455
Ga5 Nb2 2.953753 1_545
Ga6 Ru3 2.554854 1_655
Ga6 Ru2 2.554854 1_655
Ga6 Ru0 2.554867 1_655
Ga6 Nb0 2.754661 1_555
Ga6 Nb6 2.754661 1_555
Ga6 Nb8 2.754671 1_555
Ga6 Nb1 2.953738 1_555
Ga6 Nb3 2.953753 1_554
Ga6 Nb5 2.953753 1_545
Ga7 Ru1 2.554863 1_566
Ga7 Ru2 2.554863 1_656
Ga7 Ru3 2.554864 1_665
Ga7 Nb5 2.754654 1_555
Ga7 Nb2 2.754655 1_555
Ga7 Nb3 2.754655 1_555
Ga7 Nb7 2.953747 1_655
Ga7 Nb0 2.953747 1_565
Ga7 Nb6 2.953747 1_556
C0 Nb4 2.226484 1_555
C0 Nb6 2.226484 1_555
C0 Nb1 2.226485 1_555
C0 Nb7 2.226485 1_555
C0 Nb10 2.226485 1_555
C0 Nb0 2.226485 1_555
C1 Nb3 2.226485 1_455
C1 Nb11 2.226485 1_555
C1 Nb7 2.226485 1_555
C1 Nb1 2.226485 1_455
C1 Nb9 2.226485 1_555
C1 Nb5 2.226485 1_455
C2 Nb0 2.226485 1_555
C2 Nb10 2.226485 1_545
C2 Nb2 2.226485 1_545
C2 Nb8 2.226485 1_555
C2 Nb5 2.226485 1_545
C2 Nb9 2.226485 1_555
C3 Nb6 2.226484 1_555
C3 Nb4 2.226484 1_554
C3 Nb11 2.226485 1_555
C3 Nb3 2.226485 1_554
C3 Nb2 2.226485 1_554
C3 Nb8 2.226485 1_555
