# generated using pymatgen
data_Cs2Te(WO4)3
_symmetry_space_group_name_H-M   'P 1'
_cell_length_a   7.32618485
_cell_length_b   7.32618539
_cell_length_c   12.57736914
_cell_angle_alpha   90.00000000
_cell_angle_beta   90.00000000
_cell_angle_gamma   119.99999756
_symmetry_Int_Tables_number   1
_chemical_formula_structural   Cs2Te(WO4)3
_chemical_formula_sum   'Cs4 Te2 W6 O24'
_cell_volume   584.62344265
_cell_formula_units_Z   2
loop_
 _symmetry_equiv_pos_site_id
 _symmetry_equiv_pos_as_xyz
  1  'x, y, z'
loop_
 _atom_site_type_symbol
 _atom_site_label
 _atom_site_symmetry_multiplicity
 _atom_site_fract_x
 _atom_site_fract_y
 _atom_site_fract_z
 _atom_site_occupancy
  Cs  Cs0  1  0.33333300  0.66666700  0.86473301  1
  Cs  Cs1  1  0.66666700  0.33333300  0.36473301  1
  Cs  Cs2  1  0.66666700  0.33333300  0.00633951  1
  Cs  Cs3  1  0.33333300  0.66666700  0.50633951  1
  Te  Te0  1  0.00000000  0.00000000  0.43425482  1
  Te  Te1  1  0.00000000  0.00000000  0.93425482  1
  W  W0  1  0.66170884  0.82934138  0.17100787  1
  W  W1  1  0.33829116  0.16763354  0.67100787  1
  W  W2  1  0.17065862  0.83236646  0.17100787  1
  W  W3  1  0.16763354  0.33829116  0.17100787  1
  W  W4  1  0.83236646  0.17065862  0.67100787  1
  W  W5  1  0.82934138  0.66170884  0.67100787  1
  O  O0  1  0.19525719  0.80568818  0.30790709  1
  O  O1  1  0.13068341  0.86979950  0.00604176  1
  O  O2  1  0.90921226  0.45490060  0.63391868  1
  O  O3  1  0.24629354  0.12340364  0.17977083  1
  O  O4  1  0.13020050  0.26088491  0.00604176  1
  O  O5  1  0.12340364  0.24629354  0.67977083  1
  O  O6  1  0.80568818  0.19525719  0.80790709  1
  O  O7  1  0.80474281  0.61043099  0.80790709  1
  O  O8  1  0.87659636  0.12289090  0.17977083  1
  O  O9  1  0.12289090  0.87659636  0.67977083  1
  O  O10  1  0.38956901  0.19431182  0.80790709  1
  O  O11  1  0.45431166  0.54509940  0.13391868  1
  O  O12  1  0.19431182  0.38956901  0.30790709  1
  O  O13  1  0.09078774  0.54568834  0.13391868  1
  O  O14  1  0.54568834  0.09078774  0.63391868  1
  O  O15  1  0.54509940  0.45431166  0.63391868  1
  O  O16  1  0.61043099  0.80474281  0.30790709  1
  O  O17  1  0.86979950  0.13068341  0.50604176  1
  O  O18  1  0.86931659  0.73911509  0.50604176  1
  O  O19  1  0.26088491  0.13020050  0.50604176  1
  O  O20  1  0.73911509  0.86931659  0.00604176  1
  O  O21  1  0.87710910  0.75370646  0.17977083  1
  O  O22  1  0.75370646  0.87710910  0.67977083  1
  O  O23  1  0.45490060  0.90921226  0.13391868  1
loop_
_geom_bond_atom_site_label_1
_geom_bond_atom_site_label_2
_geom_bond_distance
_geom_bond_site_symmetry_2
Cs0 O20 3.128431 1_556
Cs0 O1 3.128431 1_556
Cs0 O4 3.128431 1_556
Cs0 O9 3.539117 1_555
Cs0 O22 3.539127 1_555
Cs0 O5 3.539127 1_555
Cs0 O10 3.745797 1_565
Cs0 O6 3.745800 1_455
Cs0 O7 3.745804 1_555
Cs0 O7 3.752563 1_455
Cs0 O6 3.752567 1_565
Cs0 O10 3.752571 1_555
Cs1 O17 3.128431 1_555
Cs1 O19 3.128431 1_555
Cs1 O18 3.128431 1_555
Cs1 O8 3.539117 1_555
Cs1 O3 3.539127 1_555
Cs1 O21 3.539127 1_555
Cs1 O12 3.745797 1_655
Cs1 O0 3.745800 1_545
Cs1 O16 3.745804 1_555
Cs1 O16 3.752564 1_545
Cs1 O0 3.752567 1_655
Cs1 O12 3.752571 1_555
Cs2 O6 3.052816 1_554
Cs2 O10 3.052820 1_554
Cs2 O7 3.052820 1_554
Cs2 O13 3.133008 1_655
Cs2 O23 3.133008 1_545
Cs2 O11 3.133013 1_555
Cs2 O8 3.445521 1_555
Cs2 O3 3.445531 1_555
Cs2 O21 3.445531 1_555
Cs2 O4 3.690059 1_655
Cs2 O1 3.690068 1_545
Cs2 O20 3.690074 1_555
Cs2 O20 3.693570 1_545
Cs2 O1 3.693579 1_655
Cs2 O4 3.693584 1_555
Cs3 O0 3.052816 1_555
Cs3 O16 3.052820 1_555
Cs3 O12 3.052820 1_555
Cs3 O2 3.133008 1_455
Cs3 O14 3.133008 1_565
Cs3 O15 3.133013 1_555
Cs3 O9 3.445521 1_555
Cs3 O22 3.445531 1_555
Cs3 O5 3.445531 1_555
Cs3 O19 3.690059 1_565
Cs3 O17 3.690068 1_455
Cs3 O18 3.690074 1_555
Cs3 O18 3.693569 1_455
Cs3 O17 3.693579 1_565
Cs3 O19 3.693584 1_555
O0 W2 1.752315 1_555
O1 Te1 1.885463 1_564
O1 W2 2.132195 1_555
O2 W4 1.923180 1_555
O2 W5 1.934464 1_555
O3 W2 1.919363 1_545
O3 W3 1.931300 1_555
O4 Te1 1.885468 1_554
O4 W3 2.132192 1_555
O5 W4 1.919363 1_455
O5 W1 1.931300 1_555
O6 W4 1.752315 1_555
O7 W5 1.752316 1_555
O8 W3 1.919359 1_655
O8 W0 1.931310 1_545
O9 W1 1.919359 1_565
O9 W5 1.931310 1_455
O10 W1 1.752316 1_555
O11 W0 1.923182 1_555
O11 W3 1.934459 1_555
O11 O13 2.665403 1_555
O11 O23 2.665404 1_555
O12 W3 1.752316 1_555
O13 W3 1.923187 1_555
O13 W2 1.934457 1_555
O13 O23 2.665404 1_555
O14 W1 1.923187 1_555
O14 W4 1.934457 1_555
O14 O15 2.665404 1_555
O14 O2 2.665404 1_555
O15 W5 1.923182 1_555
O15 W1 1.934459 1_555
O15 O2 2.665403 1_555
O16 W0 1.752316 1_555
O17 Te0 1.885463 1_655
O17 W4 2.132195 1_555
O18 Te0 1.885468 1_665
O18 W5 2.132192 1_555
O19 Te0 1.885468 1_555
O19 W1 2.132192 1_555
O20 Te1 1.885468 1_664
O20 W0 2.132192 1_555
O21 W0 1.919349 1_555
O21 W2 1.931314 1_655
O22 W5 1.919349 1_555
O22 W4 1.931314 1_565
O23 W2 1.923180 1_555
O23 W0 1.934464 1_555
