# generated using pymatgen
data_Ba2Hg(BrO)2
_symmetry_space_group_name_H-M   'P 1'
_cell_length_a   6.50290440
_cell_length_b   6.50290395
_cell_length_c   8.40175856
_cell_angle_alpha   119.71072784
_cell_angle_beta   119.71072352
_cell_angle_gamma   38.75304094
_symmetry_Int_Tables_number   1
_chemical_formula_structural   Ba2Hg(BrO)2
_chemical_formula_sum   'Ba2 Hg1 Br2 O2'
_cell_volume   189.23308898
_cell_formula_units_Z   1
loop_
 _symmetry_equiv_pos_site_id
 _symmetry_equiv_pos_as_xyz
  1  'x, y, z'
loop_
 _atom_site_type_symbol
 _atom_site_label
 _atom_site_symmetry_multiplicity
 _atom_site_fract_x
 _atom_site_fract_y
 _atom_site_fract_z
 _atom_site_occupancy
  Ba  Ba0  1  0.80655066  0.80655066  0.24285542  1
  Ba  Ba1  1  0.19344934  0.19344934  0.75714458  1
  Hg  Hg0  1  0.00000000  0.00000000  0.00000000  1
  Br  Br0  1  0.57476840  0.57476840  0.36259986  1
  Br  Br1  1  0.42523260  0.42523260  0.63740014  1
  O  O0  1  0.18302946  0.18302946  0.06515460  1
  O  O1  1  0.81696954  0.81696954  0.93484540  1
loop_
_geom_bond_atom_site_label_1
_geom_bond_atom_site_label_2
_geom_bond_distance
_geom_bond_site_symmetry_2
Ba0 O0 2.608274 1_655
Ba0 O0 2.608275 1_565
Ba0 O1 2.657212 1_554
Ba0 Br0 3.479285 1_555
Ba0 Br1 3.562525 1_565
Ba0 Br1 3.562526 1_655
Ba0 Br0 3.607981 1_565
Ba0 Br0 3.607982 1_655
Ba1 O1 2.608271 1_455
Ba1 O1 2.608271 1_545
Ba1 O0 2.657219 1_556
Ba1 Br1 3.479297 1_555
Ba1 Br0 3.562526 1_545
Ba1 Br0 3.562527 1_455
Ba1 Br1 3.607972 1_545
Ba1 Br1 3.607973 1_455
Hg0 O0 2.012652 1_555
Hg0 O1 2.012664 1_444
Br0 Hg0 3.441049 1_655
Br0 Hg0 3.441049 1_565
Br0 Br1 3.625954 1_555
Br0 Br1 4.247698 1_565
Br0 Br1 4.247699 1_655
Br1 Hg0 3.441051 1_566
Br1 Hg0 3.441051 1_656
