# generated using pymatgen
data_RbAlPd3O8
_symmetry_space_group_name_H-M   'P 1'
_cell_length_a   6.08755641
_cell_length_b   14.52527369
_cell_length_c   14.39763803
_cell_angle_alpha   87.51451320
_cell_angle_beta   102.19980819
_cell_angle_gamma   102.08991311
_symmetry_Int_Tables_number   1
_chemical_formula_structural   RbAlPd3O8
_chemical_formula_sum   'Rb8 Al8 Pd24 O64'
_cell_volume   1216.73798586
_cell_formula_units_Z   8
loop_
 _symmetry_equiv_pos_site_id
 _symmetry_equiv_pos_as_xyz
  1  'x, y, z'
loop_
 _atom_site_type_symbol
 _atom_site_label
 _atom_site_symmetry_multiplicity
 _atom_site_fract_x
 _atom_site_fract_y
 _atom_site_fract_z
 _atom_site_occupancy
  Rb  Rb0_0  1  0.01466447  0.00455071  0.00392846  1
  Rb  Rb0_1  1  0.01466447  0.00455071  0.50392846  1
  Rb  Rb0_2  1  0.01466447  0.50455071  0.00392846  1
  Rb  Rb0_3  1  0.01466447  0.50455071  0.50392846  1
  Rb  Rb0_4  1  0.51466447  0.00455071  0.00392846  1
  Rb  Rb0_5  1  0.51466447  0.00455071  0.50392846  1
  Rb  Rb0_6  1  0.51466447  0.50455071  0.00392846  1
  Rb  Rb0_7  1  0.51466447  0.50455071  0.50392846  1
  Al  Al0_0  1  0.08366609  0.24314147  0.40589373  1
  Al  Al0_1  1  0.08366609  0.24314147  0.90589373  1
  Al  Al0_2  1  0.08366609  0.74314147  0.40589373  1
  Al  Al0_3  1  0.08366609  0.74314147  0.90589373  1
  Al  Al0_4  1  0.58366609  0.24314147  0.40589373  1
  Al  Al0_5  1  0.58366609  0.24314147  0.90589373  1
  Al  Al0_6  1  0.58366609  0.74314147  0.40589373  1
  Al  Al0_7  1  0.58366609  0.74314147  0.90589373  1
  Pd  Pd0_0  1  0.43175472  0.25737560  0.08775760  1
  Pd  Pd0_1  1  0.43175472  0.25737560  0.58775760  1
  Pd  Pd0_2  1  0.43175472  0.75737560  0.08775760  1
  Pd  Pd0_3  1  0.43175472  0.75737560  0.58775760  1
  Pd  Pd0_4  1  0.93175472  0.25737560  0.08775760  1
  Pd  Pd0_5  1  0.93175472  0.25737560  0.58775760  1
  Pd  Pd0_6  1  0.93175472  0.75737560  0.08775760  1
  Pd  Pd0_7  1  0.93175472  0.75737560  0.58775760  1
  Pd  Pd1_0  1  0.34416530  0.40712173  0.26289018  1
  Pd  Pd1_1  1  0.34416530  0.40712173  0.76289018  1
  Pd  Pd1_2  1  0.34416530  0.90712173  0.26289018  1
  Pd  Pd1_3  1  0.34416530  0.90712173  0.76289018  1
  Pd  Pd1_4  1  0.84416530  0.40712173  0.26289018  1
  Pd  Pd1_5  1  0.84416530  0.40712173  0.76289018  1
  Pd  Pd1_6  1  0.84416530  0.90712173  0.26289018  1
  Pd  Pd1_7  1  0.84416530  0.90712173  0.76289018  1
  Pd  Pd2_0  1  0.17743897  0.09194342  0.24486387  1
  Pd  Pd2_1  1  0.17743897  0.09194342  0.74486387  1
  Pd  Pd2_2  1  0.17743897  0.59194342  0.24486387  1
  Pd  Pd2_3  1  0.17743897  0.59194342  0.74486387  1
  Pd  Pd2_4  1  0.67743897  0.09194342  0.24486387  1
  Pd  Pd2_5  1  0.67743897  0.09194342  0.74486387  1
  Pd  Pd2_6  1  0.67743897  0.59194342  0.24486387  1
  Pd  Pd2_7  1  0.67743897  0.59194342  0.74486387  1
  O  O0_0  1  0.16937592  0.18228012  0.13821346  1
  O  O0_1  1  0.16937592  0.18228012  0.63821346  1
  O  O0_2  1  0.16937592  0.68228012  0.13821346  1
  O  O0_3  1  0.16937592  0.68228012  0.63821346  1
  O  O0_4  1  0.66937592  0.18228012  0.13821346  1
  O  O0_5  1  0.66937592  0.18228012  0.63821346  1
  O  O0_6  1  0.66937592  0.68228012  0.13821346  1
  O  O0_7  1  0.66937592  0.68228012  0.63821346  1
  O  O1_0  1  0.33936405  0.30481560  0.35571024  1
  O  O1_1  1  0.33936405  0.30481560  0.85571024  1
  O  O1_2  1  0.33936405  0.80481560  0.35571024  1
  O  O1_3  1  0.33936405  0.80481560  0.85571024  1
  O  O1_4  1  0.83936405  0.30481560  0.35571024  1
  O  O1_5  1  0.83936405  0.30481560  0.85571024  1
  O  O1_6  1  0.83936405  0.80481560  0.35571024  1
  O  O1_7  1  0.83936405  0.80481560  0.85571024  1
  O  O2_0  1  0.49040346  0.14758442  0.31512822  1
  O  O2_1  1  0.49040346  0.14758442  0.81512822  1
  O  O2_2  1  0.49040346  0.64758442  0.31512822  1
  O  O2_3  1  0.49040346  0.64758442  0.81512822  1
  O  O2_4  1  0.99040346  0.14758442  0.31512822  1
  O  O2_5  1  0.99040346  0.14758442  0.81512822  1
  O  O2_6  1  0.99040346  0.64758442  0.31512822  1
  O  O2_7  1  0.99040346  0.64758442  0.81512822  1
  O  O3_0  1  0.03239295  0.35890126  0.18758931  1
  O  O3_1  1  0.03239295  0.35890126  0.68758931  1
  O  O3_2  1  0.03239295  0.85890126  0.18758931  1
  O  O3_3  1  0.03239295  0.85890126  0.68758931  1
  O  O3_4  1  0.53239295  0.35890126  0.18758931  1
  O  O3_5  1  0.53239295  0.35890126  0.68758931  1
  O  O3_6  1  0.53239295  0.85890126  0.18758931  1
  O  O3_7  1  0.53239295  0.85890126  0.68758931  1
  O  O4_0  1  0.17935789  0.32096887  0.01942632  1
  O  O4_1  1  0.17935789  0.32096887  0.51942632  1
  O  O4_2  1  0.17935789  0.82096887  0.01942632  1
  O  O4_3  1  0.17935789  0.82096887  0.51942632  1
  O  O4_4  1  0.67935789  0.32096887  0.01942632  1
  O  O4_5  1  0.67935789  0.32096887  0.51942632  1
  O  O4_6  1  0.67935789  0.82096887  0.01942632  1
  O  O4_7  1  0.67935789  0.82096887  0.51942632  1
  O  O5_0  1  0.33461030  0.18062092  0.47019995  1
  O  O5_1  1  0.33461030  0.18062092  0.97019995  1
  O  O5_2  1  0.33461030  0.68062092  0.47019995  1
  O  O5_3  1  0.33461030  0.68062092  0.97019995  1
  O  O5_4  1  0.83461030  0.18062092  0.47019995  1
  O  O5_5  1  0.83461030  0.18062092  0.97019995  1
  O  O5_6  1  0.83461030  0.68062092  0.47019995  1
  O  O5_7  1  0.83461030  0.68062092  0.97019995  1
  O  O6_0  1  0.36094315  0.02500931  0.17855833  1
  O  O6_1  1  0.36094315  0.02500931  0.67855833  1
  O  O6_2  1  0.36094315  0.52500931  0.17855833  1
  O  O6_3  1  0.36094315  0.52500931  0.67855833  1
  O  O6_4  1  0.86094315  0.02500931  0.17855833  1
  O  O6_5  1  0.86094315  0.02500931  0.67855833  1
  O  O6_6  1  0.86094315  0.52500931  0.17855833  1
  O  O6_7  1  0.86094315  0.52500931  0.67855833  1
  O  O7_0  1  0.16186122  0.47568657  0.32983935  1
  O  O7_1  1  0.16186122  0.47568657  0.82983935  1
  O  O7_2  1  0.16186122  0.97568657  0.32983935  1
  O  O7_3  1  0.16186122  0.97568657  0.82983935  1
  O  O7_4  1  0.66186122  0.47568657  0.32983935  1
  O  O7_5  1  0.66186122  0.47568657  0.82983935  1
  O  O7_6  1  0.66186122  0.97568657  0.32983935  1
  O  O7_7  1  0.66186122  0.97568657  0.82983935  1
loop_
_geom_bond_atom_site_label_1
_geom_bond_atom_site_label_2
_geom_bond_distance
_geom_bond_site_symmetry_2
Rb0_0 Rb0_4 3.043778 1_455
Rb0_0 Rb0_4 3.043778 1_555
Rb0_1 Rb0_5 3.043778 1_455
Rb0_1 Rb0_5 3.043778 1_555
Rb0_2 Rb0_6 3.043778 1_455
Rb0_2 Rb0_6 3.043778 1_555
Rb0_3 Rb0_7 3.043778 1_455
Rb0_3 Rb0_7 3.043778 1_555
Al0_0 O2_4 1.862862 1_455
Al0_0 O1_0 1.892765 1_555
Al0_0 O1_4 1.893180 1_455
Al0_0 O4_1 1.941954 1_555
Al0_0 O5_4 1.980958 1_455
Al0_0 O5_0 1.981416 1_555
Al0_1 O2_5 1.862862 1_455
Al0_1 O1_1 1.892765 1_555
Al0_1 O1_5 1.893180 1_455
Al0_1 O4_0 1.941954 1_556
Al0_1 O5_5 1.980958 1_455
Al0_1 O5_1 1.981416 1_555
Al0_2 O2_6 1.862862 1_455
Al0_2 O1_2 1.892765 1_555
Al0_2 O1_6 1.893180 1_455
Al0_2 O4_3 1.941954 1_555
Al0_2 O5_6 1.980958 1_455
Al0_2 O5_2 1.981416 1_555
Al0_3 O2_7 1.862862 1_455
Al0_3 O1_3 1.892765 1_555
Al0_3 O1_7 1.893180 1_455
Al0_3 O4_2 1.941954 1_556
Al0_3 O5_7 1.980958 1_455
Al0_3 O5_3 1.981416 1_555
Al0_4 O2_0 1.862862 1_555
Al0_4 O1_4 1.892765 1_555
Al0_4 O1_0 1.893180 1_555
Al0_4 O4_5 1.941954 1_555
Al0_4 O5_0 1.980958 1_555
Al0_4 O5_4 1.981416 1_555
Al0_5 O2_1 1.862862 1_555
Al0_5 O1_5 1.892765 1_555
Al0_5 O1_1 1.893180 1_555
Al0_5 O4_4 1.941954 1_556
Al0_5 O5_1 1.980958 1_555
Al0_5 O5_5 1.981416 1_555
Al0_6 O2_2 1.862862 1_555
Al0_6 O1_6 1.892765 1_555
Al0_6 O1_2 1.893180 1_555
Al0_6 O4_7 1.941954 1_555
Al0_6 O5_2 1.980958 1_555
Al0_6 O5_6 1.981416 1_555
Al0_7 O2_3 1.862862 1_555
Al0_7 O1_7 1.892765 1_555
Al0_7 O1_3 1.893180 1_555
Al0_7 O4_6 1.941954 1_556
Al0_7 O5_3 1.980958 1_555
Al0_7 O5_7 1.981416 1_555
O0_0 Pd2_0 1.975440 1_555
O0_0 Pd0_4 1.989494 1_455
O0_0 Pd0_0 1.990120 1_555
O0_0 O6_0 2.762321 1_555
O0_0 O6_4 2.762325 1_455
O0_0 Rb0_0 3.151877 1_555
O0_1 Pd2_1 1.975440 1_555
O0_1 Pd0_5 1.989494 1_455
O0_1 Pd0_1 1.990120 1_555
O0_1 O6_1 2.762321 1_555
O0_1 O6_5 2.762325 1_455
O0_1 Rb0_1 3.151877 1_555
O0_2 Pd2_2 1.975440 1_555
O0_2 Pd0_6 1.989494 1_455
O0_2 Pd0_2 1.990120 1_555
O0_2 O6_2 2.762321 1_555
O0_2 O6_6 2.762325 1_455
O0_2 Rb0_2 3.151877 1_555
O0_3 Pd2_3 1.975440 1_555
O0_3 Pd0_7 1.989494 1_455
O0_3 Pd0_3 1.990120 1_555
O0_3 O6_3 2.762321 1_555
O0_3 O6_7 2.762325 1_455
O0_3 Rb0_3 3.151877 1_555
O0_4 Pd2_4 1.975440 1_555
O0_4 Pd0_0 1.989494 1_555
O0_4 Pd0_4 1.990120 1_555
O0_4 O6_4 2.762321 1_555
O0_4 O6_0 2.762325 1_555
O0_4 Rb0_4 3.151877 1_555
O0_5 Pd2_5 1.975440 1_555
O0_5 Pd0_1 1.989494 1_555
O0_5 Pd0_5 1.990120 1_555
O0_5 O6_5 2.762321 1_555
O0_5 O6_1 2.762325 1_555
O0_5 Rb0_5 3.151877 1_555
O0_6 Pd2_6 1.975440 1_555
O0_6 Pd0_2 1.989494 1_555
O0_6 Pd0_6 1.990120 1_555
O0_6 O6_6 2.762321 1_555
O0_6 O6_2 2.762325 1_555
O0_6 Rb0_6 3.151877 1_555
O0_7 Pd2_7 1.975440 1_555
O0_7 Pd0_3 1.989494 1_555
O0_7 Pd0_7 1.990120 1_555
O0_7 O6_7 2.762321 1_555
O0_7 O6_3 2.762325 1_555
O0_7 Rb0_7 3.151877 1_555
O1_0 Pd1_0 1.954772 1_555
O1_0 O5_0 2.390117 1_555
O1_1 Pd1_1 1.954772 1_555
O1_1 O5_1 2.390117 1_555
O1_2 Pd1_2 1.954772 1_555
O1_2 O5_2 2.390117 1_555
O1_3 Pd1_3 1.954772 1_555
O1_3 O5_3 2.390117 1_555
O1_4 Pd1_4 1.954772 1_555
O1_4 O5_4 2.390117 1_555
O1_5 Pd1_5 1.954772 1_555
O1_5 O5_5 2.390117 1_555
O1_6 Pd1_6 1.954772 1_555
O1_6 O5_6 2.390117 1_555
O1_7 Pd1_7 1.954772 1_555
O1_7 O5_7 2.390117 1_555
O2_0 Pd2_4 1.978937 1_555
O2_0 Pd2_0 1.979312 1_555
O2_0 O5_0 2.700560 1_555
O2_0 O5_4 2.701882 1_555
O2_0 Rb0_5 3.346090 1_555
O2_1 Pd2_5 1.978937 1_555
O2_1 Pd2_1 1.979312 1_555
O2_1 O5_1 2.700560 1_555
O2_1 O5_5 2.701882 1_555
O2_1 Rb0_4 3.346090 1_556
O2_2 Pd2_6 1.978937 1_555
O2_2 Pd2_2 1.979312 1_555
O2_2 O5_2 2.700560 1_555
O2_2 O5_6 2.701882 1_555
O2_2 Rb0_7 3.346090 1_555
O2_3 Pd2_7 1.978937 1_555
O2_3 Pd2_3 1.979312 1_555
O2_3 O5_3 2.700560 1_555
O2_3 O5_7 2.701882 1_555
O2_3 Rb0_6 3.346090 1_556
O2_4 Pd2_0 1.978937 1_655
O2_4 Pd2_4 1.979312 1_555
O2_4 O5_4 2.700560 1_555
O2_4 O5_0 2.701882 1_655
O2_4 Rb0_1 3.346090 1_655
O2_5 Pd2_1 1.978937 1_655
O2_5 Pd2_5 1.979312 1_555
O2_5 O5_5 2.700560 1_555
O2_5 O5_1 2.701882 1_655
O2_5 Rb0_0 3.346090 1_656
O2_6 Pd2_2 1.978937 1_655
O2_6 Pd2_6 1.979312 1_555
O2_6 O5_6 2.700560 1_555
O2_6 O5_2 2.701882 1_655
O2_6 Rb0_3 3.346090 1_655
O2_7 Pd2_3 1.978937 1_655
O2_7 Pd2_7 1.979312 1_555
O2_7 O5_7 2.700560 1_555
O2_7 O5_3 2.701882 1_655
O2_7 Rb0_2 3.346090 1_656
O3_0 Pd1_4 1.976367 1_455
O3_0 Pd1_0 1.976734 1_555
O3_0 Pd0_4 2.012264 1_455
O3_0 O6_6 2.810333 1_455
O3_0 O6_2 2.810670 1_555
O3_0 Rb0_2 3.312017 1_555
O3_1 Pd1_5 1.976367 1_455
O3_1 Pd1_1 1.976734 1_555
O3_1 Pd0_5 2.012264 1_455
O3_1 O6_7 2.810333 1_455
O3_1 O6_3 2.810670 1_555
O3_1 Rb0_3 3.312017 1_555
O3_2 Pd1_6 1.976367 1_455
O3_2 Pd1_2 1.976734 1_555
O3_2 Pd0_6 2.012264 1_455
O3_2 O6_4 2.810333 1_465
O3_2 O6_0 2.810670 1_565
O3_2 Rb0_0 3.312017 1_565
O3_3 Pd1_7 1.976367 1_455
O3_3 Pd1_3 1.976734 1_555
O3_3 Pd0_7 2.012264 1_455
O3_3 O6_5 2.810333 1_465
O3_3 O6_1 2.810670 1_565
O3_3 Rb0_1 3.312017 1_565
O3_4 Pd1_0 1.976367 1_555
O3_4 Pd1_4 1.976734 1_555
O3_4 Pd0_0 2.012264 1_555
O3_4 O6_2 2.810333 1_555
O3_4 O6_6 2.810670 1_555
O3_4 Rb0_6 3.312017 1_555
O3_5 Pd1_1 1.976367 1_555
O3_5 Pd1_5 1.976734 1_555
O3_5 Pd0_1 2.012264 1_555
O3_5 O6_3 2.810333 1_555
O3_5 O6_7 2.810670 1_555
O3_5 Rb0_7 3.312017 1_555
O3_6 Pd1_2 1.976367 1_555
O3_6 Pd1_6 1.976734 1_555
O3_6 Pd0_2 2.012264 1_555
O3_6 O6_0 2.810333 1_565
O3_6 O6_4 2.810670 1_565
O3_6 Rb0_4 3.312017 1_565
O3_7 Pd1_3 1.976367 1_555
O3_7 Pd1_7 1.976734 1_555
O3_7 Pd0_3 2.012264 1_555
O3_7 O6_1 2.810333 1_565
O3_7 O6_5 2.810670 1_565
O3_7 Rb0_5 3.312017 1_565
O4_0 Pd0_4 2.014387 1_455
O4_0 Pd0_0 2.014627 1_555
O4_0 Rb0_2 3.023131 1_555
O4_0 Rb0_6 3.031132 1_555
O4_1 Pd0_5 2.014387 1_455
O4_1 Pd0_1 2.014627 1_555
O4_1 Rb0_3 3.023131 1_555
O4_1 Rb0_7 3.031132 1_555
O4_2 Pd0_6 2.014387 1_455
O4_2 Pd0_2 2.014627 1_555
O4_2 Rb0_0 3.023131 1_565
O4_2 Rb0_4 3.031132 1_565
O4_3 Pd0_7 2.014387 1_455
O4_3 Pd0_3 2.014627 1_555
O4_3 Rb0_1 3.023131 1_565
O4_3 Rb0_5 3.031132 1_565
O4_4 Pd0_0 2.014387 1_555
O4_4 Pd0_4 2.014627 1_555
O4_4 Rb0_6 3.023131 1_555
O4_4 Rb0_2 3.031132 1_655
O4_5 Pd0_1 2.014387 1_555
O4_5 Pd0_5 2.014627 1_555
O4_5 Rb0_7 3.023131 1_555
O4_5 Rb0_3 3.031132 1_655
O4_6 Pd0_2 2.014387 1_555
O4_6 Pd0_6 2.014627 1_555
O4_6 Rb0_4 3.023131 1_565
O4_6 Rb0_0 3.031132 1_665
O4_7 Pd0_3 2.014387 1_555
O4_7 Pd0_7 2.014627 1_555
O4_7 Rb0_5 3.023131 1_565
O4_7 Rb0_1 3.031132 1_665
O5_0 Pd0_1 1.980370 1_555
O5_0 Rb0_1 2.962332 1_555
O5_0 Rb0_5 2.969755 1_555
O5_1 Pd0_0 1.980370 1_556
O5_1 Rb0_0 2.962332 1_556
O5_1 Rb0_4 2.969755 1_556
O5_2 Pd0_3 1.980370 1_555
O5_2 Rb0_3 2.962332 1_555
O5_2 Rb0_7 2.969755 1_555
O5_3 Pd0_2 1.980370 1_556
O5_3 Rb0_2 2.962332 1_556
O5_3 Rb0_6 2.969755 1_556
O5_4 Pd0_5 1.980370 1_555
O5_4 Rb0_5 2.962332 1_555
O5_4 Rb0_1 2.969755 1_655
O5_5 Pd0_4 1.980370 1_556
O5_5 Rb0_4 2.962332 1_556
O5_5 Rb0_0 2.969755 1_656
O5_6 Pd0_7 1.980370 1_555
O5_6 Rb0_7 2.962332 1_555
O5_6 Rb0_3 2.969755 1_655
O5_7 Pd0_6 1.980370 1_556
O5_7 Rb0_6 2.962332 1_556
O5_7 Rb0_2 2.969755 1_656
O6_0 Pd2_4 2.021676 1_555
O6_0 Pd2_0 2.022535 1_555
O6_0 Pd1_2 2.053200 1_545
O6_0 Rb0_0 2.901000 1_555
O6_0 Rb0_4 2.908812 1_555
O6_1 Pd2_5 2.021676 1_555
O6_1 Pd2_1 2.022535 1_555
O6_1 Pd1_3 2.053200 1_545
O6_1 Rb0_1 2.901000 1_555
O6_1 Rb0_5 2.908812 1_555
O6_2 Pd2_6 2.021676 1_555
O6_2 Pd2_2 2.022535 1_555
O6_2 Pd1_0 2.053200 1_555
O6_2 Rb0_2 2.901000 1_555
O6_2 Rb0_6 2.908812 1_555
O6_3 Pd2_7 2.021676 1_555
O6_3 Pd2_3 2.022535 1_555
O6_3 Pd1_1 2.053200 1_555
O6_3 Rb0_3 2.901000 1_555
O6_3 Rb0_7 2.908812 1_555
O6_4 Pd2_0 2.021676 1_655
O6_4 Pd2_4 2.022535 1_555
O6_4 Pd1_6 2.053200 1_545
O6_4 Rb0_4 2.901000 1_555
O6_4 Rb0_0 2.908812 1_655
O6_5 Pd2_1 2.021676 1_655
O6_5 Pd2_5 2.022535 1_555
O6_5 Pd1_7 2.053200 1_545
O6_5 Rb0_5 2.901000 1_555
O6_5 Rb0_1 2.908812 1_655
O6_6 Pd2_2 2.021676 1_655
O6_6 Pd2_6 2.022535 1_555
O6_6 Pd1_4 2.053200 1_555
O6_6 Rb0_6 2.901000 1_555
O6_6 Rb0_2 2.908812 1_655
O6_7 Pd2_3 2.021676 1_655
O6_7 Pd2_7 2.022535 1_555
O6_7 Pd1_5 2.053200 1_555
O6_7 Rb0_7 2.901000 1_555
O6_7 Rb0_3 2.908812 1_655
O7_0 Pd1_4 2.037118 1_455
O7_0 Pd1_0 2.037394 1_555
O7_0 Pd2_2 2.039647 1_555
O7_0 Rb0_3 2.908415 1_555
O7_0 Rb0_7 2.917127 1_555
O7_1 Pd1_5 2.037118 1_455
O7_1 Pd1_1 2.037394 1_555
O7_1 Pd2_3 2.039647 1_555
O7_1 Rb0_2 2.908415 1_556
O7_1 Rb0_6 2.917127 1_556
O7_2 Pd1_6 2.037118 1_455
O7_2 Pd1_2 2.037394 1_555
O7_2 Pd2_0 2.039647 1_565
O7_2 Rb0_1 2.908415 1_565
O7_2 Rb0_5 2.917127 1_565
O7_3 Pd1_7 2.037118 1_455
O7_3 Pd1_3 2.037394 1_555
O7_3 Pd2_1 2.039647 1_565
O7_3 Rb0_0 2.908415 1_566
O7_3 Rb0_4 2.917127 1_566
O7_4 Pd1_0 2.037118 1_555
O7_4 Pd1_4 2.037394 1_555
O7_4 Pd2_6 2.039647 1_555
O7_4 Rb0_7 2.908415 1_555
O7_4 Rb0_3 2.917127 1_655
O7_5 Pd1_1 2.037118 1_555
O7_5 Pd1_5 2.037394 1_555
O7_5 Pd2_7 2.039647 1_555
O7_5 Rb0_6 2.908415 1_556
O7_5 Rb0_2 2.917127 1_656
O7_6 Pd1_2 2.037118 1_555
O7_6 Pd1_6 2.037394 1_555
O7_6 Pd2_4 2.039647 1_565
O7_6 Rb0_5 2.908415 1_565
O7_6 Rb0_1 2.917127 1_665
O7_7 Pd1_3 2.037118 1_555
O7_7 Pd1_7 2.037394 1_555
O7_7 Pd2_5 2.039647 1_565
O7_7 Rb0_4 2.908415 1_566
O7_7 Rb0_0 2.917127 1_666
