# generated using pymatgen
data_Na6Al4Fe(Si4O13)2
_symmetry_space_group_name_H-M   'P 1'
_cell_length_a   8.60414738
_cell_length_b   8.60414738
_cell_length_c   10.59008016
_cell_angle_alpha   68.95860384
_cell_angle_beta   68.95860384
_cell_angle_gamma   56.18613096
_symmetry_Int_Tables_number   1
_chemical_formula_structural   Na6Al4Fe(Si4O13)2
_chemical_formula_sum   'Na6 Al4 Fe1 Si8 O26'
_cell_volume   594.99510152
_cell_formula_units_Z   1
loop_
 _symmetry_equiv_pos_site_id
 _symmetry_equiv_pos_as_xyz
  1  'x, y, z'
loop_
 _atom_site_type_symbol
 _atom_site_label
 _atom_site_symmetry_multiplicity
 _atom_site_fract_x
 _atom_site_fract_y
 _atom_site_fract_z
 _atom_site_occupancy
  Na  Na0  1  0.84816100  0.84816100  0.88520500  1
  Na  Na1  1  0.73038500  0.73038500  0.56140100  1
  Na  Na2  1  0.53299400  0.53299400  0.16334000  1
  Na  Na3  1  0.46700600  0.46700600  0.83666000  1
  Na  Na4  1  0.26961500  0.26961500  0.43859900  1
  Na  Na5  1  0.15183900  0.15183900  0.11479500  1
  Al  Al0  1  0.25563500  0.86122300  0.65722700  1
  Al  Al1  1  0.13877700  0.74436500  0.34277300  1
  Al  Al2  1  0.86122300  0.25563500  0.65722700  1
  Al  Al3  1  0.74436500  0.13877700  0.34277300  1
  Fe  Fe0  1  0.00000000  0.00000000  0.00000000  1
  Si  Si0  1  0.45259600  0.83804400  0.34586100  1
  Si  Si1  1  0.45964700  0.84622100  0.86650600  1
  Si  Si2  1  0.84622100  0.45964700  0.86650600  1
  Si  Si3  1  0.83804400  0.45259600  0.34586100  1
  Si  Si4  1  0.16195600  0.54740400  0.65413900  1
  Si  Si5  1  0.15377900  0.54035300  0.13349400  1
  Si  Si6  1  0.54035300  0.15377900  0.13349400  1
  Si  Si7  1  0.54740400  0.16195600  0.65413900  1
  O  O0  1  0.27801700  0.92178100  0.98802900  1
  O  O1  1  0.34775500  0.93573800  0.48088400  1
  O  O2  1  0.55154400  0.99251400  0.79236500  1
  O  O3  1  0.35418600  0.73925700  0.32253800  1
  O  O4  1  0.43168600  0.79570000  0.74397200  1
  O  O5  1  0.96824000  0.96824000  0.27493000  1
  O  O6  1  0.67804100  0.67804100  0.36012000  1
  O  O7  1  0.64265700  0.64265700  0.93283100  1
  O  O8  1  0.07821900  0.72198300  0.01197100  1
  O  O9  1  0.06426200  0.65224500  0.51911600  1
  O  O10  1  0.79570000  0.43168600  0.74397200  1
  O  O11  1  0.99251400  0.55154400  0.79236500  1
  O  O12  1  0.73925700  0.35418600  0.32253800  1
  O  O13  1  0.26074300  0.64581400  0.67746200  1
  O  O14  1  0.00748600  0.44845600  0.20763500  1
  O  O15  1  0.20430000  0.56831400  0.25602800  1
  O  O16  1  0.93573800  0.34775500  0.48088400  1
  O  O17  1  0.92178100  0.27801700  0.98802900  1
  O  O18  1  0.35734300  0.35734300  0.06716900  1
  O  O19  1  0.32195900  0.32195900  0.63988000  1
  O  O20  1  0.03176000  0.03176000  0.72507000  1
  O  O21  1  0.56831400  0.20430000  0.25602800  1
  O  O22  1  0.64581400  0.26074300  0.67746200  1
  O  O23  1  0.44845600  0.00748600  0.20763500  1
  O  O24  1  0.65224500  0.06426200  0.51911600  1
  O  O25  1  0.72198300  0.07821900  0.01197100  1
loop_
_geom_bond_atom_site_label_1
_geom_bond_atom_site_label_2
_geom_bond_distance
_geom_bond_site_symmetry_2
Na0 O8 2.317085 1_656
Na0 O25 2.317085 1_566
Na0 O11 2.533699 1_555
Na0 O2 2.533699 1_555
Na0 O20 2.607090 1_665
Na0 O7 2.950647 1_555
Na1 O24 2.459248 1_565
Na1 O9 2.459248 1_655
Na1 O10 2.502740 1_555
Na1 O4 2.502740 1_555
Na1 O6 2.560042 1_555
Na1 O1 3.024448 1_555
Na1 O16 3.024448 1_555
Na2 O7 2.328635 1_554
Na2 O3 2.367695 1_555
Na2 O12 2.367695 1_555
Na2 O21 2.513638 1_555
Na2 O15 2.513638 1_555
Na2 O0 3.122028 1_554
Na2 O17 3.122028 1_554
Na3 O18 2.328635 1_556
Na3 O22 2.367695 1_555
Na3 O13 2.367695 1_555
Na3 O10 2.513638 1_555
Na3 O4 2.513638 1_555
Na3 O8 3.122028 1_556
Na3 O25 3.122028 1_556
Na4 O1 2.459248 1_545
Na4 O16 2.459248 1_455
Na4 O21 2.502740 1_555
Na4 O15 2.502740 1_555
Na4 O19 2.560042 1_555
Na4 O24 3.024448 1_555
Na4 O9 3.024448 1_555
Na5 O17 2.317085 1_454
Na5 O0 2.317085 1_544
Na5 O23 2.533699 1_555
Na5 O14 2.533699 1_555
Na5 O5 2.607090 1_445
Na5 O18 2.950647 1_555
Al0 O20 1.731215 1_565
Al0 O13 1.764620 1_555
Al0 O4 1.770060 1_555
Al0 O1 1.780369 1_555
Al1 O5 1.731215 1_455
Al1 O3 1.764620 1_555
Al1 O15 1.770060 1_555
Al1 O9 1.780369 1_555
Al2 O20 1.731215 1_655
Al2 O22 1.764620 1_555
Al2 O10 1.770060 1_555
Al2 O16 1.780369 1_555
Al3 O5 1.731215 1_545
Al3 O12 1.764620 1_555
Al3 O21 1.770060 1_555
Al3 O24 1.780369 1_555
Fe0 O17 2.059816 1_454
Fe0 O0 2.059816 1_544
Fe0 O8 2.059816 1_545
Fe0 O25 2.059816 1_455
Fe0 O20 2.750785 1_554
Fe0 O5 2.750785 1_445
O0 Si1 1.595909 1_555
O1 Si0 1.630289 1_555
O2 Si7 1.648242 1_565
O2 Si1 1.666826 1_555
O3 Si0 1.613191 1_555
O4 Si1 1.635953 1_555
O6 Si0 1.664216 1_555
O6 Si3 1.664216 1_555
O7 Si1 1.697579 1_555
O7 Si2 1.697579 1_555
O8 Si5 1.595909 1_555
O9 Si4 1.630289 1_555
O10 Si2 1.635953 1_555
O11 Si4 1.648242 1_655
O11 Si2 1.666826 1_555
O12 Si3 1.613191 1_555
O13 Si4 1.613191 1_555
O14 Si3 1.648242 1_455
O14 Si5 1.666826 1_555
O15 Si5 1.635953 1_555
O16 Si3 1.630289 1_555
O17 Si2 1.595909 1_555
O18 Si5 1.697579 1_555
O18 Si6 1.697579 1_555
O19 Si4 1.664216 1_555
O19 Si7 1.664216 1_555
O21 Si6 1.635953 1_555
O22 Si7 1.613191 1_555
O23 Si0 1.648242 1_545
O23 Si6 1.666826 1_555
O24 Si7 1.630289 1_555
O25 Si6 1.595909 1_555
