# generated using pymatgen
data_Ti3Be2CuO
_symmetry_space_group_name_H-M   'P 1'
_cell_length_a   7.69397193
_cell_length_b   7.69397168
_cell_length_c   7.69397170
_cell_angle_alpha   60.00000417
_cell_angle_beta   60.00000526
_cell_angle_gamma   60.00000241
_symmetry_Int_Tables_number   1
_chemical_formula_structural   Ti3Be2CuO
_chemical_formula_sum   'Ti12 Be8 Cu4 O4'
_cell_volume   322.06001330
_cell_formula_units_Z   4
loop_
 _symmetry_equiv_pos_site_id
 _symmetry_equiv_pos_as_xyz
  1  'x, y, z'
loop_
 _atom_site_type_symbol
 _atom_site_label
 _atom_site_symmetry_multiplicity
 _atom_site_fract_x
 _atom_site_fract_y
 _atom_site_fract_z
 _atom_site_occupancy
  Ti  Ti0  1  0.80756267  0.80756267  0.19243733  1
  Ti  Ti1  1  0.19243733  0.19243733  0.80756267  1
  Ti  Ti2  1  0.80756267  0.19243733  0.80756267  1
  Ti  Ti3  1  0.19243733  0.80756267  0.19243733  1
  Ti  Ti4  1  0.19243733  0.80756267  0.80756267  1
  Ti  Ti5  1  0.80756267  0.19243733  0.19243733  1
  Ti  Ti6  1  0.44243733  0.44243733  0.05756267  1
  Ti  Ti7  1  0.05756267  0.05756267  0.44243733  1
  Ti  Ti8  1  0.44243733  0.05756267  0.44243733  1
  Ti  Ti9  1  0.05756267  0.44243733  0.05756267  1
  Ti  Ti10  1  0.05756267  0.44243733  0.44243733  1
  Ti  Ti11  1  0.44243733  0.05756267  0.05756267  1
  Be  Be0  1  0.73027910  0.42323997  0.42323997  1
  Be  Be1  1  0.42323997  0.73027910  0.42323997  1
  Be  Be2  1  0.42323997  0.42323997  0.73027910  1
  Be  Be3  1  0.42323997  0.42323997  0.42323997  1
  Be  Be4  1  0.51972090  0.82676003  0.82676003  1
  Be  Be5  1  0.82676003  0.51972090  0.82676003  1
  Be  Be6  1  0.82676003  0.82676003  0.51972090  1
  Be  Be7  1  0.82676003  0.82676003  0.82676003  1
  Cu  Cu0  1  0.12500000  0.62500000  0.62500000  1
  Cu  Cu1  1  0.62500000  0.12500000  0.62500000  1
  Cu  Cu2  1  0.62500000  0.62500000  0.12500000  1
  Cu  Cu3  1  0.62500000  0.62500000  0.62500000  1
  O  O0  1  0.62500000  0.12500000  0.12500000  1
  O  O1  1  0.12500000  0.62500000  0.12500000  1
  O  O2  1  0.12500000  0.12500000  0.62500000  1
  O  O3  1  0.12500000  0.12500000  0.12500000  1
loop_
_geom_bond_atom_site_label_1
_geom_bond_atom_site_label_2
_geom_bond_distance
_geom_bond_site_symmetry_2
Be0 Cu2 2.317435 1_555
Be0 Cu1 2.317435 1_555
Be0 Cu3 2.317442 1_555
Be0 Be3 2.362351 1_555
Be0 Be1 2.362351 1_555
Be0 Be2 2.362351 1_555
Be0 Ti7 2.673982 1_655
Be0 Ti9 2.673982 1_655
Be0 Ti10 2.673986 1_655
Be0 Ti5 2.775251 1_555
Be0 Ti2 2.775258 1_555
Be0 Ti0 2.775258 1_555
Be1 Cu2 2.317435 1_555
Be1 Cu0 2.317435 1_555
Be1 Cu3 2.317442 1_555
Be1 Be3 2.362350 1_555
Be1 Be2 2.362351 1_555
Be1 Ti7 2.673982 1_565
Be1 Ti11 2.673982 1_565
Be1 Ti8 2.673986 1_565
Be1 Ti3 2.775251 1_555
Be1 Ti4 2.775258 1_555
Be1 Ti0 2.775258 1_555
Be2 Cu1 2.317435 1_555
Be2 Cu0 2.317435 1_555
Be2 Cu3 2.317442 1_555
Be2 Be3 2.362350 1_555
Be2 Ti11 2.673982 1_556
Be2 Ti9 2.673982 1_556
Be2 Ti6 2.673986 1_556
Be2 Ti1 2.775251 1_555
Be2 Ti4 2.775258 1_555
Be2 Ti2 2.775258 1_555
Be3 Cu1 2.317439 1_555
Be3 Cu0 2.317439 1_555
Be3 Cu2 2.317439 1_555
Be3 Ti8 2.673978 1_555
Be3 Ti6 2.673978 1_555
Be3 Ti10 2.673978 1_555
Be3 Ti3 2.775255 1_555
Be3 Ti5 2.775255 1_555
Be3 Ti1 2.775255 1_555
Be4 Cu2 2.317435 1_556
Be4 Cu1 2.317435 1_565
Be4 Cu3 2.317442 1_555
Be4 Be7 2.362351 1_555
Be4 Be5 2.362351 1_555
Be4 Be6 2.362351 1_555
Be4 Ti1 2.673982 1_565
Be4 Ti3 2.673982 1_556
Be4 Ti4 2.673986 1_555
Be4 Ti11 2.775251 1_566
Be4 Ti8 2.775258 1_565
Be4 Ti6 2.775258 1_556
Be5 Cu2 2.317435 1_556
Be5 Cu0 2.317435 1_655
Be5 Cu3 2.317442 1_555
Be5 Be7 2.362350 1_555
Be5 Be6 2.362351 1_555
Be5 Ti1 2.673982 1_655
Be5 Ti5 2.673982 1_556
Be5 Ti2 2.673986 1_555
Be5 Ti9 2.775251 1_656
Be5 Ti10 2.775258 1_655
Be5 Ti6 2.775258 1_556
Be6 Cu1 2.317435 1_565
Be6 Cu0 2.317435 1_655
Be6 Cu3 2.317442 1_555
Be6 Be7 2.362350 1_555
Be6 Ti5 2.673982 1_565
Be6 Ti3 2.673982 1_655
Be6 Ti0 2.673986 1_555
Be6 Ti7 2.775251 1_665
Be6 Ti10 2.775258 1_655
Be6 Ti8 2.775258 1_565
Be7 Cu1 2.317439 1_565
Be7 Cu0 2.317439 1_655
Be7 Cu2 2.317439 1_556
Be7 Ti2 2.673978 1_565
Be7 Ti0 2.673978 1_556
Be7 Ti4 2.673978 1_655
Be7 Ti9 2.775255 1_656
Be7 Ti11 2.775255 1_566
Be7 Ti7 2.775255 1_665
Cu0 Ti4 2.765105 1_555
Cu0 Ti10 2.765105 1_555
Cu0 Ti7 2.765105 1_565
Cu0 Ti1 2.765105 1_555
Cu0 Ti9 2.765105 1_556
Cu0 Ti3 2.765105 1_555
Cu1 Ti2 2.765105 1_555
Cu1 Ti8 2.765105 1_555
Cu1 Ti11 2.765105 1_556
Cu1 Ti5 2.765105 1_555
Cu1 Ti7 2.765106 1_655
Cu1 Ti1 2.765106 1_555
Cu2 Ti0 2.765105 1_555
Cu2 Ti6 2.765105 1_555
Cu2 Ti11 2.765105 1_565
Cu2 Ti5 2.765105 1_555
Cu2 Ti9 2.765105 1_655
Cu2 Ti3 2.765105 1_555
Cu3 Ti8 2.765105 1_565
Cu3 Ti2 2.765105 1_555
Cu3 Ti10 2.765106 1_655
Cu3 Ti4 2.765106 1_555
Cu3 Ti6 2.765106 1_556
Cu3 Ti0 2.765106 1_555
O0 Ti5 2.058703 1_555
O0 Ti11 2.058703 1_555
O0 Ti6 2.058703 1_555
O0 Ti0 2.058703 1_545
O0 Ti8 2.058703 1_555
O0 Ti2 2.058703 1_554
O1 Ti3 2.058703 1_555
O1 Ti9 2.058703 1_555
O1 Ti6 2.058703 1_555
O1 Ti0 2.058703 1_455
O1 Ti10 2.058703 1_555
O1 Ti4 2.058703 1_554
O2 Ti1 2.058703 1_555
O2 Ti7 2.058703 1_555
O2 Ti10 2.058703 1_555
O2 Ti4 2.058703 1_545
O2 Ti8 2.058703 1_555
O2 Ti2 2.058703 1_455
O3 Ti9 2.058703 1_555
O3 Ti3 2.058703 1_545
O3 Ti7 2.058703 1_555
O3 Ti1 2.058703 1_554
O3 Ti11 2.058703 1_555
O3 Ti5 2.058703 1_455
