# generated using pymatgen
data_Rb4MnZnTe4
_symmetry_space_group_name_H-M   'P 1'
_cell_length_a   9.00645857
_cell_length_b   9.00645934
_cell_length_c   9.00645793
_cell_angle_alpha   133.78775401
_cell_angle_beta   129.81085505
_cell_angle_gamma   70.59495751
_symmetry_Int_Tables_number   1
_chemical_formula_structural   Rb4MnZnTe4
_chemical_formula_sum   'Rb4 Mn1 Zn1 Te4'
_cell_volume   396.96252048
_cell_formula_units_Z   1
loop_
 _symmetry_equiv_pos_site_id
 _symmetry_equiv_pos_as_xyz
  1  'x, y, z'
loop_
 _atom_site_type_symbol
 _atom_site_label
 _atom_site_symmetry_multiplicity
 _atom_site_fract_x
 _atom_site_fract_y
 _atom_site_fract_z
 _atom_site_occupancy
  Rb  Rb0  1  0.46587460  0.14155826  0.32142661  1
  Rb  Rb1  1  0.82013165  0.64444799  0.17857339  1
  Rb  Rb2  1  0.53412540  0.85555201  0.67568366  1
  Rb  Rb3  1  0.17986835  0.35844174  0.82431634  1
  Mn  Mn0  1  0.00000000  0.25000000  0.25000000  1
  Zn  Zn0  1  0.00000000  0.75000000  0.75000000  1
  Te  Te0  1  0.08415679  0.89124955  0.18240115  1
  Te  Te1  1  0.91584321  0.09824436  0.80709175  1
  Te  Te2  1  0.29115161  0.60875045  0.69290825  1
  Te  Te3  1  0.70884839  0.40175564  0.31759885  1
loop_
_geom_bond_atom_site_label_1
_geom_bond_atom_site_label_2
_geom_bond_distance
_geom_bond_site_symmetry_2
Rb0 Te2 3.682973 1_544
Rb0 Zn0 3.686603 1_544
Rb0 Te3 3.727985 1_555
Rb0 Te0 3.768370 1_545
Rb0 Te2 3.772760 1_555
Rb0 Te1 3.784277 1_555
Rb0 Te1 3.943275 1_454
Rb0 Rb1 4.435396 1_545
Rb0 Rb1 4.467833 1_556
Rb1 Te1 3.682970 1_565
Rb1 Zn0 3.686602 1_655
Rb1 Te0 3.727985 1_655
Rb1 Te3 3.768370 1_555
Rb1 Te1 3.772758 1_554
Rb1 Te2 3.784279 1_554
Rb1 Te2 3.943277 1_655
Rb2 Te3 3.682976 1_555
Rb2 Zn0 3.686603 1_655
Rb2 Te2 3.727992 1_555
Rb2 Te1 3.768376 1_565
Rb2 Te3 3.772757 1_566
Rb2 Te0 3.784282 1_555
Rb2 Te0 3.943272 1_656
Rb2 Rb3 4.435396 1_554
Rb2 Rb3 4.467833 1_565
Rb3 Te0 3.682976 1_556
Rb3 Zn0 3.686603 1_555
Rb3 Te1 3.727978 1_455
Rb3 Te2 3.768362 1_555
Rb3 Te0 3.772756 1_545
Rb3 Te3 3.784282 1_556
Rb3 Te3 3.943272 1_455
Mn0 Te3 2.761530 1_455
Mn0 Te0 2.761531 1_545
Mn0 Te2 2.761531 1_555
Mn0 Te1 2.761539 1_454
Mn0 Rb3 3.696381 1_555
Mn0 Rb0 3.696382 1_555
Mn0 Rb2 3.696382 1_444
Mn0 Rb1 3.696382 1_455
Te0 Zn0 2.713588 1_554
Te1 Zn0 2.713592 1_645
Te2 Zn0 2.713583 1_555
Te3 Zn0 2.713588 1_655
