# generated using pymatgen
data_Ti2Cd
_symmetry_space_group_name_H-M   'P 1'
_cell_length_a   5.69552413
_cell_length_b   5.69552357
_cell_length_c   14.06400835
_cell_angle_alpha   101.68235335
_cell_angle_beta   101.68234550
_cell_angle_gamma   90.00001148
_symmetry_Int_Tables_number   1
_chemical_formula_structural   Ti2Cd
_chemical_formula_sum   'Ti16 Cd8'
_cell_volume   437.11690122
_cell_formula_units_Z   8
loop_
 _symmetry_equiv_pos_site_id
 _symmetry_equiv_pos_as_xyz
  1  'x, y, z'
loop_
 _atom_site_type_symbol
 _atom_site_label
 _atom_site_symmetry_multiplicity
 _atom_site_fract_x
 _atom_site_fract_y
 _atom_site_fract_z
 _atom_site_occupancy
  Ti  Ti0_0  1  0.33869407  0.33869407  0.17738814  1
  Ti  Ti0_1  1  0.33869407  0.33869407  0.67738813  1
  Ti  Ti0_2  1  0.33869407  0.83869407  0.17738814  1
  Ti  Ti0_3  1  0.33869407  0.83869407  0.67738813  1
  Ti  Ti0_4  1  0.83869407  0.33869407  0.17738813  1
  Ti  Ti0_5  1  0.83869407  0.33869407  0.67738813  1
  Ti  Ti0_6  1  0.83869407  0.83869407  0.17738814  1
  Ti  Ti0_7  1  0.83869407  0.83869407  0.67738813  1
  Ti  Ti1_0  1  0.16130593  0.16130593  0.32261186  1
  Ti  Ti1_1  1  0.16130593  0.16130593  0.82261186  1
  Ti  Ti1_2  1  0.16130593  0.66130593  0.32261186  1
  Ti  Ti1_3  1  0.16130593  0.66130593  0.82261187  1
  Ti  Ti1_4  1  0.66130593  0.16130593  0.32261186  1
  Ti  Ti1_5  1  0.66130593  0.16130593  0.82261186  1
  Ti  Ti1_6  1  0.66130593  0.66130593  0.32261186  1
  Ti  Ti1_7  1  0.66130593  0.66130593  0.82261187  1
  Cd  Cd0_0  1  0.00000000  0.00000000  0.00000000  1
  Cd  Cd0_1  1  0.00000000  0.00000000  0.50000000  1
  Cd  Cd0_2  1  0.00000000  0.50000000  0.00000000  1
  Cd  Cd0_3  1  0.00000000  0.50000000  0.50000000  1
  Cd  Cd0_4  1  0.50000000  0.00000000  0.00000000  1
  Cd  Cd0_5  1  0.50000000  0.00000000  0.50000000  1
  Cd  Cd0_6  1  0.50000000  0.50000000  0.00000000  1
  Cd  Cd0_7  1  0.50000000  0.50000000  0.50000000  1
loop_
_geom_bond_atom_site_label_1
_geom_bond_atom_site_label_2
_geom_bond_distance
_geom_bond_site_symmetry_2
Ti0_0 Ti1_0 2.807902 1_555
Ti0_0 Ti1_2 2.807903 1_555
Ti0_0 Ti1_6 2.807903 1_555
Ti0_0 Ti1_4 2.807903 1_555
Ti0_0 Ti0_2 2.847762 1_545
Ti0_0 Ti0_2 2.847762 1_555
Ti0_0 Ti0_4 2.847762 1_555
Ti0_0 Ti0_4 2.847762 1_455
Ti0_1 Ti1_1 2.807902 1_555
Ti0_1 Ti1_3 2.807903 1_555
Ti0_1 Ti1_7 2.807903 1_555
Ti0_1 Ti1_5 2.807903 1_555
Ti0_1 Ti0_3 2.847762 1_555
Ti0_1 Ti0_3 2.847762 1_545
Ti0_1 Ti0_5 2.847762 1_555
Ti0_1 Ti0_5 2.847762 1_455
Ti0_2 Ti1_2 2.807902 1_555
Ti0_2 Ti1_0 2.807903 1_565
Ti0_2 Ti1_4 2.807903 1_565
Ti0_2 Ti1_6 2.807903 1_555
Ti0_2 Ti0_6 2.847762 1_455
Ti0_2 Ti0_6 2.847762 1_555
Ti0_3 Ti1_3 2.807902 1_555
Ti0_3 Ti1_1 2.807903 1_565
Ti0_3 Ti1_5 2.807903 1_565
Ti0_3 Ti1_7 2.807903 1_555
Ti0_3 Ti0_7 2.847762 1_555
Ti0_3 Ti0_7 2.847762 1_455
Ti0_4 Ti1_4 2.807902 1_555
Ti0_4 Ti1_6 2.807903 1_555
Ti0_4 Ti1_2 2.807903 1_655
Ti0_4 Ti1_0 2.807903 1_655
Ti0_4 Ti0_6 2.847762 1_555
Ti0_4 Ti0_6 2.847762 1_545
Ti0_5 Ti1_5 2.807902 1_555
Ti0_5 Ti1_7 2.807903 1_555
Ti0_5 Ti1_3 2.807903 1_655
Ti0_5 Ti1_1 2.807903 1_655
Ti0_5 Ti0_7 2.847762 1_555
Ti0_5 Ti0_7 2.847762 1_545
Ti0_6 Ti1_6 2.807902 1_555
Ti0_6 Ti1_4 2.807903 1_565
Ti0_6 Ti1_0 2.807903 1_665
Ti0_6 Ti1_2 2.807903 1_655
Ti0_7 Ti1_7 2.807902 1_555
Ti0_7 Ti1_5 2.807903 1_565
Ti0_7 Ti1_1 2.807903 1_665
Ti0_7 Ti1_3 2.807903 1_655
Ti1_0 Ti1_2 2.847762 1_545
Ti1_0 Ti1_2 2.847762 1_555
Ti1_0 Ti1_4 2.847762 1_455
Ti1_0 Ti1_4 2.847762 1_555
Ti1_1 Ti1_3 2.847762 1_555
Ti1_1 Ti1_3 2.847762 1_545
Ti1_1 Ti1_5 2.847762 1_455
Ti1_1 Ti1_5 2.847762 1_555
Ti1_2 Ti1_6 2.847762 1_455
Ti1_2 Ti1_6 2.847762 1_555
Ti1_3 Ti1_7 2.847762 1_555
Ti1_3 Ti1_7 2.847762 1_455
Ti1_4 Ti1_6 2.847762 1_555
Ti1_4 Ti1_6 2.847762 1_545
Ti1_5 Ti1_7 2.847762 1_555
Ti1_5 Ti1_7 2.847762 1_545
Cd0_0 Cd0_2 2.847762 1_555
Cd0_0 Cd0_2 2.847762 1_545
Cd0_0 Cd0_4 2.847762 1_455
Cd0_0 Cd0_4 2.847762 1_555
Cd0_0 Ti0_6 3.125455 1_445
Cd0_0 Ti1_1 3.125455 1_554
Cd0_0 Ti1_3 3.125455 1_544
Cd0_0 Ti0_4 3.125455 1_455
Cd0_0 Ti1_7 3.125456 1_444
Cd0_0 Ti0_0 3.125456 1_555
Cd0_0 Ti0_2 3.125456 1_545
Cd0_0 Ti1_5 3.125456 1_454
Cd0_1 Cd0_3 2.847762 1_555
Cd0_1 Cd0_3 2.847762 1_545
Cd0_1 Cd0_5 2.847762 1_455
Cd0_1 Cd0_5 2.847762 1_555
Cd0_1 Ti0_7 3.125455 1_445
Cd0_1 Ti1_0 3.125455 1_555
Cd0_1 Ti0_5 3.125455 1_455
Cd0_1 Ti1_2 3.125455 1_545
Cd0_1 Ti0_1 3.125456 1_555
Cd0_1 Ti1_6 3.125456 1_445
Cd0_1 Ti0_3 3.125456 1_545
Cd0_1 Ti1_4 3.125456 1_455
Cd0_2 Cd0_6 2.847762 1_455
Cd0_2 Cd0_6 2.847762 1_555
Cd0_2 Ti1_3 3.125455 1_554
Cd0_2 Ti0_4 3.125455 1_455
Cd0_2 Ti0_6 3.125455 1_455
Cd0_2 Ti1_1 3.125455 1_554
Cd0_2 Ti0_2 3.125456 1_555
Cd0_2 Ti1_5 3.125456 1_454
Cd0_2 Ti1_7 3.125456 1_454
Cd0_2 Ti0_0 3.125456 1_555
Cd0_3 Cd0_7 2.847762 1_555
Cd0_3 Cd0_7 2.847762 1_455
Cd0_3 Ti0_5 3.125455 1_455
Cd0_3 Ti1_2 3.125455 1_555
Cd0_3 Ti0_7 3.125455 1_455
Cd0_3 Ti1_0 3.125455 1_555
Cd0_3 Ti0_3 3.125456 1_555
Cd0_3 Ti1_4 3.125456 1_455
Cd0_3 Ti0_1 3.125456 1_555
Cd0_3 Ti1_6 3.125456 1_455
Cd0_4 Cd0_6 2.847762 1_555
Cd0_4 Cd0_6 2.847762 1_545
Cd0_4 Ti0_2 3.125455 1_545
Cd0_4 Ti1_5 3.125455 1_554
Cd0_4 Ti1_7 3.125455 1_544
Cd0_4 Ti0_0 3.125455 1_555
Cd0_4 Ti0_4 3.125456 1_555
Cd0_4 Ti1_3 3.125456 1_544
Cd0_4 Ti0_6 3.125456 1_545
Cd0_4 Ti1_1 3.125456 1_554
Cd0_5 Cd0_7 2.847762 1_555
Cd0_5 Cd0_7 2.847762 1_545
Cd0_5 Ti0_3 3.125455 1_545
Cd0_5 Ti1_4 3.125455 1_555
Cd0_5 Ti0_1 3.125455 1_555
Cd0_5 Ti1_6 3.125455 1_545
Cd0_5 Ti0_5 3.125456 1_555
Cd0_5 Ti1_2 3.125456 1_545
Cd0_5 Ti0_7 3.125456 1_545
Cd0_5 Ti1_0 3.125456 1_555
Cd0_6 Ti1_7 3.125455 1_554
Cd0_6 Ti0_0 3.125455 1_555
Cd0_6 Ti0_2 3.125455 1_555
Cd0_6 Ti1_5 3.125455 1_554
Cd0_6 Ti0_6 3.125456 1_555
Cd0_6 Ti1_1 3.125456 1_554
Cd0_6 Ti0_4 3.125456 1_555
Cd0_6 Ti1_3 3.125456 1_554
Cd0_7 Ti0_1 3.125455 1_555
Cd0_7 Ti1_6 3.125455 1_555
Cd0_7 Ti0_3 3.125455 1_555
Cd0_7 Ti1_4 3.125455 1_555
Cd0_7 Ti0_7 3.125456 1_555
Cd0_7 Ti1_0 3.125456 1_555
Cd0_7 Ti0_5 3.125456 1_555
Cd0_7 Ti1_2 3.125456 1_555
