# generated using pymatgen
data_Sc(TaRe6)4
_symmetry_space_group_name_H-M   'P 1'
_cell_length_a   8.37733216
_cell_length_b   8.37733251
_cell_length_c   8.37733201
_cell_angle_alpha   109.47121229
_cell_angle_beta   109.47121312
_cell_angle_gamma   109.47123406
_symmetry_Int_Tables_number   1
_chemical_formula_structural   Sc(TaRe6)4
_chemical_formula_sum   'Sc1 Ta4 Re24'
_cell_volume   452.57998014
_cell_formula_units_Z   1
loop_
 _symmetry_equiv_pos_site_id
 _symmetry_equiv_pos_as_xyz
  1  'x, y, z'
loop_
 _atom_site_type_symbol
 _atom_site_label
 _atom_site_symmetry_multiplicity
 _atom_site_fract_x
 _atom_site_fract_y
 _atom_site_fract_z
 _atom_site_occupancy
  Sc  Sc0  1  0.00000000  0.00000000  0.00000000  1
  Ta  Ta0  1  0.63103683  1.00000000  0.00000000  1
  Ta  Ta1  1  1.00000000  0.63103683  0.00000000  1
  Ta  Ta2  1  0.00000000  0.00000000  0.63103683  1
  Ta  Ta3  1  0.36896317  0.36896317  0.36896317  1
  Re  Re0  1  0.39967072  0.68165088  0.00000000  1
  Re  Re1  1  0.71801884  0.31834912  0.31834912  1
  Re  Re2  1  0.39967072  1.00000000  0.68165088  1
  Re  Re3  1  0.68165088  0.39967072  0.00000000  1
  Re  Re4  1  0.00000000  0.39967072  0.68165088  1
  Re  Re5  1  0.31834912  0.71801884  0.31834912  1
  Re  Re6  1  0.31834912  0.31834912  0.71801884  1
  Re  Re7  1  0.00000000  0.68165088  0.39967072  1
  Re  Re8  1  0.68165088  0.00000000  0.39967072  1
  Re  Re9  1  0.60032928  0.60032928  0.28198116  1
  Re  Re10  1  0.28198116  0.60032928  0.60032928  1
  Re  Re11  1  0.60032928  0.28198116  0.60032928  1
  Re  Re12  1  0.37619005  0.19435841  1.00000000  1
  Re  Re13  1  0.18183164  0.80564159  0.80564159  1
  Re  Re14  1  0.37619005  1.00000000  0.19435841  1
  Re  Re15  1  0.19435841  0.37619005  1.00000000  1
  Re  Re16  1  1.00000000  0.37619005  0.19435841  1
  Re  Re17  1  0.80564159  0.18183164  0.80564159  1
  Re  Re18  1  0.80564159  0.80564159  0.18183164  1
  Re  Re19  1  0.00000000  0.19435841  0.37619005  1
  Re  Re20  1  0.19435841  0.00000000  0.37619005  1
  Re  Re21  1  0.62380995  0.62380995  0.81816836  1
  Re  Re22  1  0.81816836  0.62380995  0.62380995  1
  Re  Re23  1  0.62380995  0.81816836  0.62380995  1
loop_
_geom_bond_atom_site_label_1
_geom_bond_atom_site_label_2
_geom_bond_distance
_geom_bond_site_symmetry_2
Sc0 Ta2 3.090927 1_554
Sc0 Ta0 3.090927 1_445
Sc0 Ta1 3.090927 1_445
Sc0 Ta3 3.090927 1_555
Re0 Re15 2.563649 1_554
Re0 Ta0 2.724539 1_555
Re0 Re13 2.733236 1_554
Re0 Re14 2.733236 1_555
Re0 Re6 2.838853 1_554
Re0 Re9 2.838855 1_555
Re0 Re21 2.846426 1_554
Re0 Re18 2.846426 1_555
Re0 Re4 2.911581 1_554
Re0 Re8 2.911581 1_565
Re0 Re5 2.911581 1_555
Re0 Re10 2.911582 1_554
Re0 Ta1 3.231658 1_455
Re1 Re22 2.563647 1_555
Re1 Ta0 2.724543 1_545
Re1 Re14 2.733231 1_545
Re1 Re12 2.733231 1_554
Re1 Re7 2.838852 1_655
Re1 Re4 2.838852 1_655
Re1 Re16 2.846433 1_555
Re1 Re19 2.846434 1_655
Re1 Re11 2.911573 1_555
Re1 Re9 2.911574 1_555
Re1 Re3 2.911581 1_555
Re1 Re8 2.911581 1_555
Re1 Ta3 3.231650 1_555
Re2 Re20 2.563649 1_565
Re2 Ta0 2.724540 1_556
Re2 Re5 2.838853 1_555
Re2 Re23 2.846426 1_555
Re2 Re7 2.911580 1_555
Re2 Re3 2.911581 1_566
Re2 Re6 2.911582 1_565
Re2 Ta2 3.231658 1_565
Re3 Ta1 2.724539 1_555
Re3 Re6 2.838852 1_554
Re3 Re9 2.838855 1_555
Re3 Re7 2.911581 1_655
Re3 Ta0 3.231658 1_545
Re4 Ta1 2.724540 1_456
Re4 Re8 2.911580 1_455
Re4 Re6 2.911582 1_555
Re4 Ta2 3.231659 1_555
Re5 Ta1 2.724543 1_455
Re5 Re8 2.838852 1_565
Re5 Re9 2.911574 1_555
Re5 Re7 2.911581 1_555
Re5 Ta3 3.231650 1_555
Re6 Ta2 2.724542 1_555
Re6 Ta3 3.231650 1_555
Re7 Ta2 2.724540 1_565
Re7 Re9 2.911581 1_455
Re7 Ta1 3.231658 1_455
Re8 Ta2 2.724540 1_655
Re8 Re9 2.911582 1_545
Re8 Ta0 3.231658 1_545
Re9 Ta3 2.724533 1_555
Re9 Ta2 3.231657 1_665
Re10 Re13 2.563656 1_555
Re10 Ta3 2.724533 1_555
Re10 Re23 2.733229 1_555
Re10 Re21 2.733229 1_555
Re10 Re4 2.838854 1_555
Re10 Re7 2.838855 1_555
Re10 Re19 2.846428 1_555
Re10 Re16 2.846428 1_455
Re10 Re5 2.911573 1_555
Re10 Re6 2.911573 1_555
Re10 Re2 2.911581 1_555
Re10 Ta0 3.231657 1_556
Re11 Re17 2.563656 1_555
Re11 Ta3 2.724533 1_555
Re11 Re22 2.733229 1_555
Re11 Re21 2.733230 1_555
Re11 Re2 2.838854 1_545
Re11 Re8 2.838855 1_555
Re11 Re20 2.846428 1_555
Re11 Re14 2.846428 1_545
Re11 Re6 2.911573 1_555
Re11 Re4 2.911581 1_655
Re11 Re3 2.911582 1_556
Re11 Ta1 3.231657 1_556
Re12 Re15 2.487480 1_555
Re12 Re3 2.563649 1_556
Re12 Re14 2.658847 1_546
Re12 Re13 2.658848 1_545
Re12 Re2 2.733236 1_545
Re12 Re9 2.846428 1_556
Re12 Re6 2.846434 1_555
Re12 Ta3 2.977706 1_556
Re12 Ta2 2.977706 1_555
Re12 Sc0 3.026876 1_556
Re12 Ta0 3.086489 1_546
Re13 Re22 2.487480 1_455
Re13 Re14 2.658848 1_556
Re13 Re2 2.733236 1_555
Re13 Re4 2.846426 1_555
Re13 Re7 2.846426 1_555
Re13 Ta1 2.977705 1_456
Re13 Ta2 2.977706 1_565
Re13 Sc0 3.026877 1_566
Re13 Ta0 3.086489 1_556
Re14 Re20 2.487480 1_565
Re14 Re8 2.563649 1_565
Re14 Re5 2.846434 1_555
Re14 Ta1 2.977705 1_455
Re14 Ta3 2.977706 1_565
Re14 Sc0 3.026877 1_565
Re14 Ta0 3.086489 1_555
Re15 Re16 2.658847 1_456
Re15 Re17 2.658847 1_455
Re15 Re5 2.733231 1_556
Re15 Re4 2.733236 1_555
Re15 Re9 2.846428 1_556
Re15 Re6 2.846434 1_555
Re15 Ta3 2.977706 1_556
Re15 Ta2 2.977706 1_555
Re15 Sc0 3.026877 1_556
Re15 Ta1 3.086489 1_456
Re16 Re19 2.487480 1_655
Re16 Re7 2.563649 1_655
Re16 Re17 2.658848 1_554
Re16 Re5 2.733231 1_655
Re16 Re3 2.733236 1_555
Re16 Ta0 2.977705 1_545
Re16 Ta3 2.977706 1_655
Re16 Sc0 3.026877 1_655
Re16 Ta1 3.086489 1_555
Re17 Re23 2.487480 1_545
Re17 Re4 2.733236 1_655
Re17 Re3 2.733236 1_556
Re17 Re2 2.846426 1_545
Re17 Re8 2.846426 1_555
Re17 Ta0 2.977705 1_546
Re17 Ta2 2.977706 1_655
Re17 Sc0 3.026877 1_656
Re17 Ta1 3.086489 1_556
Re18 Re21 2.487480 1_554
Re18 Re9 2.563655 1_555
Re18 Re20 2.658847 1_665
Re18 Re19 2.658848 1_665
Re18 Re7 2.733236 1_655
Re18 Re8 2.733236 1_565
Re18 Re3 2.846426 1_555
Re18 Ta1 2.977706 1_555
Re18 Ta0 2.977706 1_555
Re18 Sc0 3.026876 1_665
Re18 Ta2 3.086489 1_665
Re19 Re4 2.563649 1_555
Re19 Re20 2.658848 1_555
Re19 Re6 2.733231 1_555
Re19 Re8 2.733236 1_455
Re19 Ta3 2.977705 1_555
Re19 Ta0 2.977706 1_445
Re19 Sc0 3.026877 1_555
Re19 Ta2 3.086489 1_555
Re20 Re6 2.733231 1_555
Re20 Re7 2.733236 1_545
Re20 Re5 2.846434 1_545
Re20 Ta3 2.977705 1_555
Re20 Ta1 2.977706 1_445
Re20 Sc0 3.026877 1_555
Re20 Ta2 3.086489 1_555
Re21 Re6 2.563646 1_555
Re21 Re22 2.658847 1_555
Re21 Re23 2.658847 1_555
Re21 Re3 2.846426 1_556
Re21 Ta1 2.977706 1_556
Re21 Ta0 2.977706 1_556
Re21 Sc0 3.026877 1_666
Re21 Ta3 3.086489 1_555
Re22 Re23 2.658848 1_555
Re22 Re9 2.733229 1_555
Re22 Re7 2.846426 1_655
Re22 Re4 2.846426 1_655
Re22 Ta2 2.977705 1_665
Re22 Ta1 2.977706 1_556
Re22 Sc0 3.026877 1_666
Re22 Ta3 3.086489 1_555
Re23 Re5 2.563647 1_555
Re23 Re9 2.733229 1_555
Re23 Re8 2.846426 1_565
Re23 Ta2 2.977705 1_665
Re23 Ta0 2.977706 1_556
Re23 Sc0 3.026877 1_666
Re23 Ta3 3.086489 1_555
