# generated using pymatgen
data_Cs18Bi5P
_symmetry_space_group_name_H-M   'P 1'
_cell_length_a   11.49181025
_cell_length_b   11.47874068
_cell_length_c   11.82650461
_cell_angle_alpha   89.11781584
_cell_angle_beta   90.44057899
_cell_angle_gamma   119.96238370
_symmetry_Int_Tables_number   1
_chemical_formula_structural   Cs18Bi5P
_chemical_formula_sum   'Cs18 Bi5 P1'
_cell_volume   1351.39634685
_cell_formula_units_Z   1
loop_
 _symmetry_equiv_pos_site_id
 _symmetry_equiv_pos_as_xyz
  1  'x, y, z'
loop_
 _atom_site_type_symbol
 _atom_site_label
 _atom_site_symmetry_multiplicity
 _atom_site_fract_x
 _atom_site_fract_y
 _atom_site_fract_z
 _atom_site_occupancy
  Cs  Cs0  1  0.63430470  0.99828997  0.50808828  1
  Cs  Cs1  1  0.63125358  0.63846146  0.00858154  1
  Cs  Cs2  1  0.00000000  0.37471353  0.99929305  1
  Cs  Cs3  1  0.00000000  0.63927073  0.51793945  1
  Cs  Cs4  1  0.36569530  0.36398527  0.50808828  1
  Cs  Cs5  1  0.36874642  0.00720788  0.00858154  1
  Cs  Cs6  1  0.70784313  0.00364107  0.18027365  1
  Cs  Cs7  1  0.70990541  0.70205440  0.68505715  1
  Cs  Cs8  1  0.00000000  0.28878797  0.67796249  1
  Cs  Cs9  1  1.00000000  0.69514609  0.16776377  1
  Cs  Cs10  1  0.29215687  0.29579695  0.18027365  1
  Cs  Cs11  1  0.29009459  0.99214799  0.68505715  1
  Cs  Cs12  1  1.00000000  0.99964382  0.41970776  1
  Cs  Cs13  1  1.00000000  0.97768897  0.91729166  1
  Cs  Cs14  1  0.66486419  0.33317517  0.29873893  1
  Cs  Cs15  1  0.31358766  0.66690207  0.80019130  1
  Cs  Cs16  1  0.68641234  0.35331341  0.80019130  1
  Cs  Cs17  1  0.33513581  0.66831098  0.29873893  1
  Bi  Bi0  1  0.00000000  0.33305892  0.34324009  1
  Bi  Bi1  1  0.67069085  0.99856577  0.84518466  1
  Bi  Bi2  1  0.32930915  0.32787392  0.84518466  1
  Bi  Bi3  1  0.67494689  0.67196220  0.34550683  1
  Bi  Bi4  1  0.32505311  0.99701531  0.34550683  1
  P  P0  1  1.00000000  0.67298314  0.84155602  1
loop_
_geom_bond_atom_site_label_1
_geom_bond_atom_site_label_2
_geom_bond_distance
_geom_bond_site_symmetry_2
Cs0 Cs6 3.967306 1_565
Cs0 Cs12 4.330772 1_555
Cs0 Cs8 4.346876 1_665
Cs0 Cs7 4.404735 1_555
Cs0 Cs14 4.404763 1_565
Cs0 Cs17 4.409895 1_555
Cs0 Cs11 4.458280 1_555
Cs0 Cs15 5.076895 1_555
Cs0 Cs16 5.183064 1_565
Cs1 Cs7 3.911198 1_554
Cs1 Cs13 4.212371 1_554
Cs1 Cs6 4.360992 1_565
Cs1 Cs9 4.368673 1_555
Cs1 Cs10 4.398314 1_555
Cs1 Cs16 4.419725 1_554
Cs1 P0 4.521419 1_554
Cs1 Cs15 4.531480 1_554
Cs1 Cs17 4.985306 1_555
Cs1 Cs14 5.016588 1_555
Cs2 P0 3.873689 1_455
Cs2 Cs8 3.940798 1_555
Cs2 Cs9 4.210021 1_456
Cs2 Cs6 4.420588 1_456
Cs3 P0 3.852690 1_455
Cs3 Cs9 4.180956 1_455
Cs3 Cs7 4.252556 1_455
Cs3 Cs8 4.419558 1_555
Cs4 Cs8 4.346876 1_555
Cs4 Cs7 4.458285 1_555
Cs5 Cs9 4.368673 1_445
Cs5 Cs6 4.398309 1_555
Cs5 P0 4.521419 1_444
Cs7 P0 3.955739 1_555
Cs9 P0 3.870183 1_554
Cs10 Cs4 3.967307 1_555
Cs10 Cs17 4.307578 1_555
Cs10 Cs14 4.310731 1_555
Cs10 Cs5 4.360982 1_555
Cs10 Cs12 4.392754 1_445
Cs10 Cs2 4.420594 1_554
Cs10 Cs13 4.714036 1_444
Cs11 Cs5 3.911197 1_566
Cs11 P0 3.955734 1_455
Cs11 Cs15 4.087777 1_555
Cs11 Cs3 4.252549 1_555
Cs11 Cs13 4.273017 1_455
Cs11 Cs4 4.404745 1_565
Cs11 Cs16 4.582829 1_565
Cs11 Cs12 4.591990 1_455
Cs12 Cs3 4.279411 1_655
Cs12 Cs4 4.330772 1_665
Cs12 Cs6 4.392759 1_565
Cs12 Cs8 4.544935 1_665
Cs12 Cs7 4.591986 1_555
Cs12 Cs9 4.627698 1_555
Cs13 P0 3.623838 1_555
Cs13 Cs5 4.212371 1_666
Cs13 Cs7 4.273012 1_555
Cs13 Cs9 4.358605 1_556
Cs13 Cs8 4.522422 1_665
Cs13 Cs2 4.673965 1_665
Cs13 Cs6 4.714041 1_566
Cs14 Cs9 4.290153 1_555
Cs14 Cs6 4.307568 1_555
Cs14 Cs4 4.409895 1_555
Cs14 Cs3 4.528659 1_655
Cs14 Cs5 4.985306 1_555
Cs14 Cs2 5.091660 1_654
Cs15 P0 3.675622 1_455
Cs15 Cs2 4.194586 1_555
Cs15 Cs8 4.289990 1_555
Cs15 Cs5 4.419715 1_566
Cs15 Cs7 4.582829 1_555
Cs15 Cs3 4.789122 1_555
Cs15 Cs4 5.183073 1_555
Cs16 P0 3.675628 1_555
Cs16 Cs7 4.087798 1_555
Cs16 Cs2 4.194582 1_655
Cs16 Cs8 4.289983 1_655
Cs16 Cs5 4.531475 1_556
Cs16 Cs3 4.789125 1_655
Cs16 Cs4 5.076899 1_555
Cs17 Cs9 4.290153 1_455
Cs17 Cs6 4.310736 1_565
Cs17 Cs4 4.404763 1_555
Cs17 Cs3 4.528659 1_555
Cs17 Cs5 5.016588 1_565
Cs17 Cs2 5.091660 1_554
Bi0 Cs14 3.883757 1_455
Bi0 Cs17 3.883757 1_555
Bi0 Cs12 3.919007 1_445
Bi0 Cs8 3.983313 1_555
Bi0 Cs2 4.088379 1_554
Bi0 Cs6 4.090108 1_455
Bi0 Cs10 4.090114 1_555
Bi0 Cs3 4.104513 1_555
Bi0 Cs4 4.471356 1_555
Bi0 Cs0 4.471357 1_445
Bi0 Cs9 4.616927 1_455
Bi1 Cs6 3.980797 1_566
Bi1 Cs13 3.994489 1_555
Bi1 Cs15 4.005133 1_555
Bi1 Cs0 4.005226 1_555
Bi1 Cs16 4.012148 1_565
Bi1 Cs5 4.029520 1_566
Bi1 Cs8 4.080443 1_665
Bi1 Cs7 4.137314 1_555
Bi1 Cs1 4.349953 1_556
Bi1 Cs2 4.483387 1_665
Bi1 Cs11 4.719787 1_555
Bi2 Cs10 3.980797 1_556
Bi2 Cs13 3.994483 1_445
Bi2 Cs16 4.005133 1_555
Bi2 Cs4 4.005226 1_555
Bi2 Cs15 4.012170 1_555
Bi2 Cs1 4.029526 1_556
Bi2 Cs8 4.080447 1_555
Bi2 Cs11 4.137314 1_545
Bi2 Cs5 4.349943 1_556
Bi2 Cs2 4.483393 1_555
Bi2 Cs7 4.719797 1_555
Bi3 Cs12 3.858544 1_555
Bi3 Cs14 3.880419 1_555
Bi3 Cs17 3.919320 1_555
Bi3 Cs1 4.012601 1_555
Bi3 Cs4 4.021321 1_555
Bi3 Cs7 4.035566 1_555
Bi3 Cs6 4.098946 1_565
Bi3 Cs9 4.189715 1_555
Bi3 Cs3 4.417293 1_655
Bi3 Cs0 4.464252 1_555
Bi4 Cs12 3.858544 1_455
Bi4 Cs17 3.880419 1_555
Bi4 Cs14 3.919320 1_565
Bi4 Cs5 4.012601 1_565
Bi4 Cs0 4.021321 1_555
Bi4 Cs11 4.035566 1_555
Bi4 Cs10 4.098936 1_565
Bi4 Cs9 4.189715 1_455
Bi4 Cs3 4.417294 1_555
Bi4 Cs4 4.464252 1_565
