# generated using pymatgen
data_YHf(InPt)2
_symmetry_space_group_name_H-M   'P 1'
_cell_length_a   7.52053447
_cell_length_b   7.52053256
_cell_length_c   7.53246355
_cell_angle_alpha   90.00000000
_cell_angle_beta   90.00000000
_cell_angle_gamma   120.00000840
_symmetry_Int_Tables_number   1
_chemical_formula_structural   YHf(InPt)2
_chemical_formula_sum   'Y3 Hf3 In6 Pt6'
_cell_volume   368.94780907
_cell_formula_units_Z   3
loop_
 _symmetry_equiv_pos_site_id
 _symmetry_equiv_pos_as_xyz
  1  'x, y, z'
loop_
 _atom_site_type_symbol
 _atom_site_label
 _atom_site_symmetry_multiplicity
 _atom_site_fract_x
 _atom_site_fract_y
 _atom_site_fract_z
 _atom_site_occupancy
  Y  Y0  1  0.59363848  0.99992489  0.75000000  1
  Y  Y1  1  0.40628640  0.40636152  0.75000000  1
  Y  Y2  1  0.00007511  0.59371360  0.75000000  1
  Hf  Hf0  1  0.39508172  0.39501390  0.25000000  1
  Hf  Hf1  1  0.99993218  0.60491828  0.25000000  1
  Hf  Hf2  1  0.60498610  0.00006782  0.25000000  1
  In  In0  1  0.26574821  0.99997068  0.00675742  1
  In  In1  1  0.26574821  0.99997068  0.49324258  1
  In  In2  1  0.00002932  0.26577753  0.49324258  1
  In  In3  1  0.00002932  0.26577753  0.00675742  1
  In  In4  1  0.73422247  0.73425179  0.00675742  1
  In  In5  1  0.73422247  0.73425179  0.49324258  1
  Pt  Pt0  1  0.66666700  0.33333300  0.45878985  1
  Pt  Pt1  1  0.00000000  0.00000000  0.75000000  1
  Pt  Pt2  1  0.66666700  0.33333300  0.04121015  1
  Pt  Pt3  1  0.33333300  0.66666700  0.04137624  1
  Pt  Pt4  1  0.33333300  0.66666700  0.45862376  1
  Pt  Pt5  1  0.00000000  0.00000000  0.25000000  1
loop_
_geom_bond_atom_site_label_1
_geom_bond_atom_site_label_2
_geom_bond_distance
_geom_bond_site_symmetry_2
Hf0 Pt4 2.794206 1_555
Hf0 Pt3 2.794206 1_555
Hf0 Pt0 2.794223 1_555
Hf0 Pt2 2.794223 1_555
Hf0 Pt5 2.970970 1_555
Hf0 In5 3.140705 1_555
Hf0 In4 3.140705 1_555
Hf0 In1 3.199974 1_545
Hf0 In0 3.199974 1_545
Hf0 In2 3.200145 1_555
Hf0 In3 3.200145 1_555
Hf1 Pt4 2.794200 1_655
Hf1 Pt3 2.794200 1_655
Hf1 Pt0 2.794219 1_555
Hf1 Pt2 2.794219 1_555
Hf1 Pt5 2.970970 1_665
Hf1 In2 3.140705 1_655
Hf1 In3 3.140705 1_655
Hf1 In5 3.199974 1_555
Hf1 In4 3.199974 1_555
Hf1 In1 3.200144 1_655
Hf1 In0 3.200144 1_655
Hf2 Pt4 2.794201 1_545
Hf2 Pt3 2.794201 1_545
Hf2 Pt0 2.794217 1_555
Hf2 Pt2 2.794217 1_555
Hf2 Pt5 2.970971 1_655
Hf2 In1 3.140705 1_545
Hf2 In0 3.140705 1_545
Hf2 In2 3.199974 1_655
Hf2 In3 3.199974 1_655
Hf2 In5 3.200145 1_545
Hf2 In4 3.200145 1_545
In0 Pt5 2.711408 1_565
In0 Pt1 2.781211 1_564
In0 Pt3 2.807764 1_555
In0 Pt2 2.807948 1_565
In0 Y0 3.134004 1_554
In0 Y2 3.310992 1_554
In0 Y1 3.311809 1_564
In1 Pt5 2.711408 1_565
In1 Pt1 2.781211 1_565
In1 Pt4 2.807764 1_555
In1 Pt0 2.807948 1_565
In1 Y0 3.134004 1_555
In1 Y2 3.310992 1_555
In1 Y1 3.311809 1_565
In2 Pt5 2.711407 1_555
In2 Pt1 2.781211 1_555
In2 Pt4 2.807769 1_555
In2 Pt0 2.807944 1_455
In2 Y2 3.134003 1_555
In2 Y1 3.310992 1_555
In2 Y0 3.311809 1_445
In3 Pt5 2.711407 1_555
In3 Pt1 2.781211 1_554
In3 Pt3 2.807769 1_555
In3 Pt2 2.807944 1_455
In3 Y2 3.134003 1_554
In3 Y1 3.310992 1_554
In3 Y0 3.311809 1_444
In4 Pt5 2.711407 1_665
In4 Pt1 2.781211 1_664
In4 Pt3 2.807772 1_555
In4 Pt2 2.807951 1_555
In4 Y1 3.134003 1_554
In4 Y0 3.310992 1_554
In4 Y2 3.311809 1_654
In5 Pt5 2.711407 1_665
In5 Pt1 2.781211 1_665
In5 Pt4 2.807772 1_555
In5 Pt0 2.807951 1_555
In5 Y1 3.134003 1_555
In5 Y0 3.310992 1_555
In5 Y2 3.311809 1_655
Pt0 Pt2 3.145404 1_555
Pt0 Y0 3.165943 1_545
Pt0 Y2 3.165945 1_655
Pt0 Y1 3.165949 1_555
Pt1 Y1 3.055773 1_555
Pt1 Y2 3.055773 1_545
Pt1 Y0 3.055773 1_445
Pt2 Y0 3.165943 1_544
Pt2 Y2 3.165945 1_654
Pt2 Y1 3.165949 1_554
Pt3 Pt4 3.142902 1_555
Pt3 Y2 3.166140 1_554
Pt3 Y0 3.166141 1_554
Pt3 Y1 3.166145 1_554
Pt4 Y2 3.166140 1_555
Pt4 Y0 3.166141 1_555
Pt4 Y1 3.166145 1_555
