# generated using pymatgen
data_HfBe8ReTc2
_symmetry_space_group_name_H-M   'P 1'
_cell_length_a   4.42493038
_cell_length_b   4.42492992
_cell_length_c   7.34469200
_cell_angle_alpha   90.00000000
_cell_angle_beta   90.00000000
_cell_angle_gamma   120.00000342
_symmetry_Int_Tables_number   1
_chemical_formula_structural   HfBe8ReTc2
_chemical_formula_sum   'Hf1 Be8 Re1 Tc2'
_cell_volume   124.54234641
_cell_formula_units_Z   1
loop_
 _symmetry_equiv_pos_site_id
 _symmetry_equiv_pos_as_xyz
  1  'x, y, z'
loop_
 _atom_site_type_symbol
 _atom_site_label
 _atom_site_symmetry_multiplicity
 _atom_site_fract_x
 _atom_site_fract_y
 _atom_site_fract_z
 _atom_site_occupancy
  Hf  Hf0  1  0.33333300  0.66666700  0.06299461  1
  Be  Be0  1  0.00000000  0.00000000  0.99435801  1
  Be  Be1  1  0.00000000  0.00000000  0.50267480  1
  Be  Be2  1  0.83100523  0.66201045  0.26208155  1
  Be  Be3  1  0.16876220  0.83123780  0.74193590  1
  Be  Be4  1  0.66247460  0.83123780  0.74193590  1
  Be  Be5  1  0.33798955  0.16899477  0.26208155  1
  Be  Be6  1  0.83100523  0.16899477  0.26208155  1
  Be  Be7  1  0.16876220  0.33752540  0.74193590  1
  Re  Re0  1  0.33333300  0.66666700  0.44188158  1
  Tc  Tc0  1  0.66666700  0.33333300  0.56517778  1
  Tc  Tc1  1  0.66666700  0.33333300  0.92086089  1
loop_
_geom_bond_atom_site_label_1
_geom_bond_atom_site_label_2
_geom_bond_distance
_geom_bond_site_symmetry_2
Hf0 Tc1 2.759790 1_564
Hf0 Tc1 2.759790 1_454
Hf0 Tc1 2.759797 1_554
Hf0 Re0 2.782808 1_555
Be0 Be3 2.260560 1_545
Be0 Be7 2.260563 1_555
Be0 Be4 2.260563 1_445
Be0 Be2 2.354589 1_446
Be0 Be5 2.354589 1_556
Be0 Be6 2.354589 1_456
Be0 Hf0 2.603995 1_546
Be0 Hf0 2.603998 1_556
Be0 Hf0 2.603998 1_446
Be0 Tc1 2.611141 1_455
Be0 Tc1 2.611144 1_445
Be0 Tc1 2.611144 1_555
Be1 Be3 2.181984 1_545
Be1 Be7 2.181987 1_555
Be1 Be4 2.181987 1_445
Be1 Be2 2.190925 1_445
Be1 Be5 2.190925 1_555
Be1 Be6 2.190925 1_455
Be1 Re0 2.593458 1_545
Be1 Re0 2.593462 1_555
Be1 Re0 2.593462 1_445
Be1 Tc0 2.595650 1_455
Be1 Tc0 2.595653 1_445
Be1 Tc0 2.595653 1_555
Be2 Be6 2.181560 1_555
Be2 Be5 2.181560 1_555
Be2 Be5 2.243370 1_665
Be2 Be6 2.243370 1_565
Be2 Tc0 2.557761 1_555
Be2 Re0 2.576671 1_655
Be2 Re0 2.576674 1_555
Be2 Hf0 2.652062 1_655
Be2 Hf0 2.652066 1_555
Be2 Tc1 2.804861 1_554
Be3 Be7 2.184643 1_555
Be3 Be4 2.184643 1_555
Be3 Be7 2.240287 1_565
Be3 Be4 2.240287 1_455
Be3 Re0 2.539223 1_555
Be3 Tc0 2.565282 1_565
Be3 Tc0 2.565282 1_455
Be3 Tc1 2.573373 1_565
Be3 Tc1 2.573373 1_455
Be3 Hf0 2.674213 1_556
Be4 Be7 2.184643 1_555
Be4 Be7 2.240287 1_665
Be4 Re0 2.539223 1_555
Be4 Tc0 2.565278 1_565
Be4 Tc0 2.565286 1_555
Be4 Tc1 2.573369 1_565
Be4 Tc1 2.573376 1_555
Be4 Hf0 2.674213 1_556
Be5 Be6 2.181560 1_555
Be5 Be6 2.243370 1_455
Be5 Tc0 2.557761 1_555
Be5 Re0 2.576670 1_545
Be5 Re0 2.576674 1_555
Be5 Hf0 2.652062 1_545
Be5 Hf0 2.652066 1_555
Be5 Tc1 2.804861 1_554
Be6 Tc0 2.557759 1_555
Be6 Re0 2.576672 1_545
Be6 Re0 2.576672 1_655
Be6 Hf0 2.652064 1_545
Be6 Hf0 2.652064 1_655
Be6 Tc1 2.804859 1_554
Be7 Re0 2.539223 1_555
Be7 Tc0 2.565278 1_455
Be7 Tc0 2.565286 1_555
Be7 Tc1 2.573369 1_455
Be7 Tc1 2.573377 1_555
Be7 Hf0 2.674213 1_556
Re0 Tc0 2.710483 1_565
Re0 Tc0 2.710483 1_455
Re0 Tc0 2.710490 1_555
Tc0 Tc1 2.612383 1_555
