# generated using pymatgen
data_K2Te3IrO12
_symmetry_space_group_name_H-M   'P 1'
_cell_length_a   7.03802610
_cell_length_b   7.03802671
_cell_length_c   7.05692887
_cell_angle_alpha   61.72641784
_cell_angle_beta   61.72641250
_cell_angle_gamma   61.49028505
_symmetry_Int_Tables_number   1
_chemical_formula_structural   K2Te3IrO12
_chemical_formula_sum   'K2 Te3 Ir1 O12'
_cell_volume   256.30374559
_cell_formula_units_Z   1
loop_
 _symmetry_equiv_pos_site_id
 _symmetry_equiv_pos_as_xyz
  1  'x, y, z'
loop_
 _atom_site_type_symbol
 _atom_site_label
 _atom_site_symmetry_multiplicity
 _atom_site_fract_x
 _atom_site_fract_y
 _atom_site_fract_z
 _atom_site_occupancy
  K  K0  1  0.85565034  0.87672980  0.38454211  1
  K  K1  1  0.12327020  0.14434966  0.61545789  1
  Te  Te0  1  0.99659829  0.50359519  0.00000674  1
  Te  Te1  1  0.49640481  0.00340171  0.99999326  1
  Te  Te2  1  0.49658485  0.50341515  0.50000000  1
  Ir  Ir0  1  0.49650722  0.50349278  0.00000000  1
  O  O0  1  0.17432775  0.18108225  0.06212029  1
  O  O1  1  0.58026723  0.58492133  0.65959627  1
  O  O2  1  0.16487699  0.56741867  0.09574217  1
  O  O3  1  0.57622138  0.18366103  0.68340541  1
  O  O4  1  0.56110059  0.17168692  0.09478945  1
  O  O5  1  0.17719158  0.58222901  0.68352281  1
  O  O6  1  0.81891775  0.82567225  0.93787971  1
  O  O7  1  0.41507867  0.41973277  0.34040373  1
  O  O8  1  0.82831308  0.43889941  0.90521055  1
  O  O9  1  0.41777099  0.82280842  0.31647719  1
  O  O10  1  0.43258133  0.83512301  0.90425783  1
  O  O11  1  0.81633897  0.42377862  0.31659459  1
loop_
_geom_bond_atom_site_label_1
_geom_bond_atom_site_label_2
_geom_bond_distance
_geom_bond_site_symmetry_2
K0 O1 2.863777 1_555
K0 O4 2.945217 1_565
K0 O2 3.017872 1_655
K0 O3 3.051791 1_565
K0 O5 3.125968 1_655
K0 O0 3.151220 1_665
K0 O10 3.445594 1_555
K0 O6 3.473501 1_554
K0 O8 3.493275 1_555
K0 O11 3.534105 1_565
K0 O9 3.600776 1_655
K1 O7 2.863777 1_555
K1 O8 2.945216 1_455
K1 O10 3.017872 1_545
K1 O11 3.051791 1_455
K1 O9 3.125968 1_545
K1 O6 3.151220 1_445
K1 O2 3.445595 1_555
K1 O0 3.473501 1_556
K1 O4 3.493274 1_555
K1 O3 3.534104 1_455
K1 O5 3.600777 1_545
Ir0 O2 1.974372 1_555
Ir0 O10 1.974372 1_554
Ir0 O8 1.975428 1_554
Ir0 O4 1.975428 1_555
Ir0 O1 2.030578 1_554
Ir0 O7 2.030578 1_555
O0 Te1 1.940676 1_554
O0 Te0 1.943057 1_455
O0 O8 2.623352 1_454
O0 O10 2.626786 1_544
O0 O11 2.646094 1_455
O0 O9 2.648995 1_545
O1 Te2 1.872802 1_555
O1 O8 2.564074 1_555
O1 O10 2.568102 1_555
O1 O11 2.626341 1_555
O1 O9 2.632312 1_555
O2 Te0 1.901124 1_455
O2 O7 2.568102 1_555
O2 O6 2.626786 1_454
O3 Te1 1.929411 1_555
O3 Te2 1.943589 1_555
O3 O7 2.626341 1_555
O3 O6 2.646094 1_545
O4 Te1 1.900433 1_554
O4 O7 2.564074 1_555
O4 O9 2.593146 1_545
O4 O6 2.623352 1_544
O5 Te0 1.929018 1_456
O5 Te2 1.941719 1_555
O5 O8 2.593146 1_455
O5 O9 2.621085 1_555
O5 O7 2.632312 1_555
O5 O6 2.648995 1_455
O6 Te0 1.940676 1_556
O6 Te1 1.943057 1_565
O7 Te2 1.872802 1_555
O8 Te0 1.900433 1_556
O9 Te1 1.929018 1_564
O9 Te2 1.941719 1_555
O10 Te1 1.901124 1_565
O10 O3 2.592511 1_565
O11 Te0 1.929411 1_555
O11 Te2 1.943589 1_555
O11 O2 2.592511 1_655
O11 O3 2.617303 1_555
