# generated using pymatgen
data_Y12Ga2TcNi3
_symmetry_space_group_name_H-M   'P 1'
_cell_length_a   8.36232263
_cell_length_b   8.36232402
_cell_length_c   8.36232293
_cell_angle_alpha   112.26077234
_cell_angle_beta   109.50170705
_cell_angle_gamma   106.69891683
_symmetry_Int_Tables_number   1
_chemical_formula_structural   Y12Ga2TcNi3
_chemical_formula_sum   'Y12 Ga2 Tc1 Ni3'
_cell_volume   449.09171059
_cell_formula_units_Z   1
loop_
 _symmetry_equiv_pos_site_id
 _symmetry_equiv_pos_as_xyz
  1  'x, y, z'
loop_
 _atom_site_type_symbol
 _atom_site_label
 _atom_site_symmetry_multiplicity
 _atom_site_fract_x
 _atom_site_fract_y
 _atom_site_fract_z
 _atom_site_occupancy
  Y  Y0  1  0.05678218  0.74924839  0.30753379  1
  Y  Y1  1  0.96466514  0.27017315  0.69449199  1
  Y  Y2  1  0.55828440  0.25075161  0.30753379  1
  Y  Y3  1  0.42431984  0.72982685  0.69449199  1
  Y  Y4  1  0.67469237  0.86050884  0.19189326  1
  Y  Y5  1  0.33138542  0.51720190  0.19189326  1
  Y  Y6  1  0.33138542  0.13949116  0.81418352  1
  Y  Y7  1  0.67469237  0.48279810  0.81418352  1
  Y  Y8  1  0.17309909  0.22296360  0.39606269  1
  Y  Y9  1  0.81401811  0.22118064  0.03519875  1
  Y  Y10  1  0.17309909  0.77703640  0.95013650  1
  Y  Y11  1  0.81401811  0.77881936  0.59283747  1
  Ga  Ga0  1  0.97910148  0.50000000  0.47910148  1
  Ga  Ga1  1  0.50829963  0.00000000  0.50829963  1
  Tc  Tc0  1  0.67627272  0.50000000  0.17627272  1
  Ni  Ni0  1  0.34862140  0.50000000  0.84862140  1
  Ni  Ni1  1  0.88394367  0.88531305  0.99863062  1
  Ni  Ni2  1  0.11331758  0.11468695  0.99863062  1
loop_
_geom_bond_atom_site_label_1
_geom_bond_atom_site_label_2
_geom_bond_distance
_geom_bond_site_symmetry_2
Y0 Y10 3.502780 1_554
Y0 Y8 3.502789 1_565
Y0 Y7 3.512393 1_454
Y0 Y4 3.512394 1_455
Y0 Y6 3.548974 1_565
Y0 Y5 3.548976 1_555
Y0 Y11 3.598562 1_455
Y0 Y9 3.598563 1_455
Y0 Y3 3.740088 1_555
Y1 Y8 3.460478 1_655
Y1 Y10 3.460478 1_655
Y1 Y5 3.507918 1_656
Y1 Y6 3.507924 1_655
Y1 Y7 3.576724 1_555
Y1 Y4 3.576729 1_545
Y1 Y9 3.585576 1_556
Y1 Y11 3.585577 1_545
Y1 Y2 3.740089 1_555
Y2 Y8 3.502780 1_555
Y2 Y5 3.512391 1_555
Y2 Y6 3.512393 1_554
Y2 Y7 3.548971 1_555
Y2 Y4 3.548979 1_545
Y2 Y9 3.598569 1_555
Y3 Y8 3.460478 1_555
Y3 Y4 3.507915 1_556
Y3 Y7 3.507918 1_555
Y3 Y5 3.576729 1_555
Y3 Y6 3.576729 1_565
Y3 Y9 3.585574 1_566
Y4 Y5 3.427402 1_555
Y4 Y8 3.679821 1_665
Y4 Y9 3.763653 1_565
Y5 Y8 3.679830 1_555
Y5 Y9 3.763662 1_455
Y6 Y7 3.427402 1_555
Y6 Y9 3.556681 1_556
Y6 Y8 3.708716 1_555
Y7 Y9 3.556681 1_556
Y7 Y8 3.708716 1_555
Y8 Y9 3.466014 1_455
Y10 Y3 3.460491 1_555
Y10 Y11 3.466018 1_455
Y10 Y2 3.502785 1_566
Y10 Y7 3.679821 1_455
Y10 Y6 3.679830 1_565
Y10 Y5 3.708706 1_556
Y10 Y4 3.708715 1_556
Y11 Y5 3.556683 1_555
Y11 Y4 3.556688 1_555
Y11 Y3 3.585568 1_555
Y11 Y2 3.598563 1_555
Y11 Y6 3.763659 1_665
Y11 Y7 3.763659 1_555
Ga0 Tc0 2.923008 1_555
Ga0 Y0 2.989050 1_655
Ga0 Y2 2.989056 1_555
Ga0 Y9 3.048412 1_555
Ga0 Y11 3.048412 1_555
Ga0 Y1 3.096280 1_555
Ga0 Y3 3.096287 1_655
Ga0 Y8 3.189676 1_655
Ga0 Y10 3.189682 1_655
Ga1 Y2 3.165785 1_555
Ga1 Y0 3.165786 1_545
Ga1 Y3 3.241167 1_545
Ga1 Y1 3.241168 1_555
Ga1 Y6 3.368960 1_555
Ga1 Y7 3.368961 1_555
Ga1 Y5 3.368962 1_545
Ga1 Y4 3.368967 1_545
Ga1 Y9 3.599703 1_556
Ga1 Y11 3.599703 1_545
Ga1 Y10 3.845396 1_544
Ga1 Y8 3.845402 1_555
Tc0 Y0 2.792349 1_655
Tc0 Y2 2.792351 1_555
Tc0 Y11 2.919161 1_555
Tc0 Y9 2.919161 1_555
Tc0 Y5 2.971744 1_555
Tc0 Y7 2.971747 1_554
Tc0 Y6 2.971747 1_554
Tc0 Y4 2.971750 1_555
Ni0 Y1 2.734574 1_455
Ni0 Y3 2.734575 1_555
Ni0 Y5 2.873471 1_556
Ni0 Y4 2.873477 1_556
Ni0 Y7 2.873479 1_555
Ni0 Y6 2.873479 1_555
Ni0 Y8 3.088361 1_555
Ni0 Y10 3.088363 1_555
Ni0 Tc0 3.162604 1_556
Ni1 Ni2 2.289952 1_665
Ni1 Y4 2.765918 1_556
Ni1 Y7 2.765925 1_555
Ni1 Y10 2.909597 1_655
Ni1 Y8 2.909600 1_666
Ni1 Y11 2.955730 1_555
Ni1 Y9 2.955730 1_566
Ni1 Y0 3.276496 1_656
Ni1 Y3 3.320786 1_555
Ni2 Y6 2.765924 1_555
Ni2 Y5 2.765926 1_556
Ni2 Y8 2.909600 1_556
Ni2 Y10 2.909601 1_545
Ni2 Y9 2.955730 1_456
Ni2 Y11 2.955730 1_445
Ni2 Y2 3.276490 1_556
Ni2 Y1 3.320793 1_455
