# generated using pymatgen
data_K4Si2PbSe6
_symmetry_space_group_name_H-M   'P 1'
_cell_length_a   7.39768065
_cell_length_b   7.39768029
_cell_length_c   8.58522025
_cell_angle_alpha   81.65314396
_cell_angle_beta   81.65314209
_cell_angle_gamma   119.74520541
_symmetry_Int_Tables_number   1
_chemical_formula_structural   K4Si2PbSe6
_chemical_formula_sum   'K4 Si2 Pb1 Se6'
_cell_volume   390.49364755
_cell_formula_units_Z   1
loop_
 _symmetry_equiv_pos_site_id
 _symmetry_equiv_pos_as_xyz
  1  'x, y, z'
loop_
 _atom_site_type_symbol
 _atom_site_label
 _atom_site_symmetry_multiplicity
 _atom_site_fract_x
 _atom_site_fract_y
 _atom_site_fract_z
 _atom_site_occupancy
  K  K0  1  0.50651742  0.49348258  0.00000000  1
  K  K1  1  0.81818807  0.18181193  1.00000000  1
  K  K2  1  0.17669874  0.82330126  0.00000000  1
  K  K3  1  0.66576492  0.33423508  0.50000000  1
  Si  Si0  1  0.04645086  0.04774878  0.35706058  1
  Si  Si1  1  0.95225122  0.95354914  0.64293942  1
  Pb  Pb0  1  0.33524887  0.66475113  0.50000000  1
  Se  Se0  1  0.77523493  0.79377508  0.26850132  1
  Se  Se1  1  0.20622492  0.22476507  0.73149868  1
  Se  Se2  1  0.09409249  0.38107164  0.27179934  1
  Se  Se3  1  0.36199967  0.05760149  0.27459321  1
  Se  Se4  1  0.94239851  0.63800033  0.72540679  1
  Se  Se5  1  0.61892836  0.90590751  0.72820066  1
loop_
_geom_bond_atom_site_label_1
_geom_bond_atom_site_label_2
_geom_bond_distance
_geom_bond_site_symmetry_2
K0 Se5 3.208919 1_554
K0 Se2 3.208919 1_555
K0 Se3 3.276970 1_555
K0 Se4 3.276970 1_554
K0 Se0 3.554639 1_555
K0 Se1 3.554639 1_554
K0 K1 3.988349 1_554
K1 Se0 3.258211 1_546
K1 Se1 3.258211 1_655
K1 Se5 3.343612 1_545
K1 Se2 3.343612 1_656
K1 Se4 3.431467 1_555
K1 Se3 3.431467 1_556
K1 K2 4.131003 1_656
K1 K2 4.131003 1_546
K2 Se3 3.194961 1_565
K2 Se4 3.194961 1_454
K2 Se1 3.377012 1_564
K2 Se0 3.377012 1_455
K2 Se2 3.450637 1_555
K2 Se5 3.450637 1_554
K3 Se4 3.291143 1_555
K3 Se3 3.291144 1_555
K3 Se5 3.302989 1_545
K3 Se2 3.302989 1_655
K3 Se0 3.316921 1_555
K3 Se1 3.316921 1_555
Si0 Si1 2.349465 1_445
Pb0 Se3 3.148850 1_565
Pb0 Se4 3.148850 1_455
Pb0 Se2 3.149344 1_555
Pb0 Se5 3.149344 1_555
Pb0 Se1 3.153352 1_555
Pb0 Se0 3.153353 1_555
Se0 Si0 2.291421 1_665
Se1 Si1 2.291421 1_445
Se2 Si0 2.297605 1_555
Se3 Si0 2.300440 1_555
Se4 Si1 2.300440 1_555
Se5 Si1 2.297606 1_555
