# generated using pymatgen
data_Y8AlCdPd2
_symmetry_space_group_name_H-M   'P 1'
_cell_length_a   9.67591190
_cell_length_b   9.67590093
_cell_length_c   9.65996939
_cell_angle_alpha   60.05522566
_cell_angle_beta   60.05505919
_cell_angle_gamma   60.11385459
_symmetry_Int_Tables_number   1
_chemical_formula_structural   Y8AlCdPd2
_chemical_formula_sum   'Y16 Al2 Cd2 Pd4'
_cell_volume   640.58750607
_cell_formula_units_Z   2
loop_
 _symmetry_equiv_pos_site_id
 _symmetry_equiv_pos_as_xyz
  1  'x, y, z'
loop_
 _atom_site_type_symbol
 _atom_site_label
 _atom_site_symmetry_multiplicity
 _atom_site_fract_x
 _atom_site_fract_y
 _atom_site_fract_z
 _atom_site_occupancy
  Y  Y0  1  0.35473614  0.35472679  0.35371362  1
  Y  Y1  1  0.35473338  0.35471333  0.93682894  1
  Y  Y2  1  0.35639931  0.93361003  0.35498540  1
  Y  Y3  1  0.93360379  0.35638794  0.35500547  1
  Y  Y4  1  0.80886827  0.19259985  0.18942726  1
  Y  Y5  1  0.19258792  0.80885731  0.80910085  1
  Y  Y6  1  0.19260547  0.80887089  0.18942962  1
  Y  Y7  1  0.80885801  0.19257815  0.80911527  1
  Y  Y8  1  0.18883442  0.18882906  0.81117746  1
  Y  Y9  1  0.80709814  0.80711491  0.19287074  1
  Y  Y10  1  0.93414419  0.56547162  0.56410431  1
  Y  Y11  1  0.56547322  0.93416509  0.93629483  1
  Y  Y12  1  0.56547303  0.93415017  0.56410114  1
  Y  Y13  1  0.93414652  0.56549151  0.93627414  1
  Y  Y14  1  0.56556744  0.56556330  0.93443664  1
  Y  Y15  1  0.93601912  0.93602610  0.56399241  1
  Al  Al0  1  0.58096260  0.58097427  0.57943581  1
  Al  Al1  1  0.58096440  0.58097307  0.25863026  1
  Cd  Cd0  1  0.58181564  0.25763279  0.58029262  1
  Cd  Cd1  1  0.25762749  0.58182407  0.58028518  1
  Pd  Pd0  1  0.14440412  0.14437391  0.14587657  1
  Pd  Pd1  1  0.14438453  0.14437443  0.56535258  1
  Pd  Pd2  1  0.14351293  0.56718380  0.14464125  1
  Pd  Pd3  1  0.56718193  0.14350961  0.14462766  1
loop_
_geom_bond_atom_site_label_1
_geom_bond_atom_site_label_2
_geom_bond_distance
_geom_bond_site_symmetry_2
Y0 Y14 3.518149 1_554
Y0 Y12 3.529849 1_545
Y0 Y10 3.529959 1_455
Y0 Y4 3.597500 1_555
Y0 Y6 3.597594 1_555
Y0 Y8 3.617471 1_555
Y1 Y14 3.518230 1_555
Y1 Y11 3.529556 1_545
Y1 Y13 3.529942 1_455
Y1 Y7 3.597440 1_555
Y1 Y5 3.597590 1_555
Y1 Y8 3.617193 1_555
Y2 Y9 3.569951 1_555
Y2 Y6 3.590244 1_555
Y2 Y5 3.590499 1_555
Y3 Y9 3.570175 1_555
Y3 Y4 3.590351 1_555
Y3 Y7 3.590458 1_555
Y4 Y8 3.668404 1_654
Y4 Y7 3.673957 1_554
Y4 Y6 3.719353 1_645
Y4 Y9 3.721947 1_545
Y5 Y8 3.668612 1_565
Y5 Y6 3.674115 1_556
Y5 Y7 3.719278 1_465
Y5 Y9 3.721806 1_456
Y6 Y8 3.668384 1_564
Y6 Y9 3.722111 1_455
Y7 Y8 3.668613 1_655
Y7 Y9 3.721616 1_546
Y10 Y3 3.503348 1_555
Y10 Y12 3.573401 1_555
Y10 Y14 3.574845 1_555
Y10 Y15 3.593982 1_555
Y10 Y13 3.595256 1_555
Y10 Y9 3.606113 1_555
Y10 Y7 3.613679 1_555
Y10 Y6 3.636460 1_655
Y10 Y8 3.645431 1_655
Y11 Y2 3.503071 1_556
Y11 Y13 3.573387 1_555
Y11 Y14 3.575093 1_555
Y11 Y15 3.593902 1_555
Y11 Y12 3.595453 1_555
Y11 Y9 3.605443 1_556
Y11 Y6 3.613508 1_556
Y11 Y7 3.635940 1_565
Y11 Y8 3.645369 1_565
Y12 Y2 3.503409 1_555
Y12 Y14 3.574916 1_555
Y12 Y15 3.593925 1_555
Y12 Y9 3.606026 1_555
Y12 Y5 3.613644 1_555
Y12 Y4 3.636381 1_565
Y12 Y8 3.645368 1_565
Y13 Y3 3.503453 1_556
Y13 Y14 3.574885 1_555
Y13 Y15 3.593754 1_555
Y13 Y9 3.605596 1_556
Y13 Y4 3.613626 1_556
Y13 Y5 3.636040 1_655
Y13 Y8 3.645454 1_655
Y14 Y4 3.616778 1_556
Y14 Y6 3.616807 1_556
Y14 Y7 3.616901 1_555
Y14 Y5 3.616934 1_555
Y15 Y3 3.517746 1_565
Y15 Y2 3.517896 1_655
Y15 Y7 3.632997 1_565
Y15 Y5 3.633003 1_655
Y15 Y6 3.633385 1_655
Y15 Y4 3.633391 1_565
Al0 Al1 3.098969 1_555
Al0 Cd1 3.120391 1_555
Al0 Cd0 3.120398 1_555
Al0 Y12 3.275470 1_555
Al0 Y10 3.275485 1_555
Al0 Y14 3.287271 1_555
Al0 Y2 3.315690 1_555
Al0 Y3 3.315715 1_555
Al0 Y1 3.345015 1_555
Al0 Y9 3.460740 1_555
Al0 Y5 3.494077 1_555
Al0 Y7 3.494285 1_555
Al1 Cd1 3.120517 1_555
Al1 Cd0 3.120576 1_555
Al1 Y11 3.275519 1_554
Al1 Y13 3.275551 1_554
Al1 Y14 3.287257 1_554
Al1 Y2 3.315577 1_555
Al1 Y3 3.315695 1_555
Al1 Y0 3.344904 1_555
Al1 Y9 3.460485 1_555
Al1 Y6 3.494050 1_555
Al1 Y4 3.494171 1_555
Cd0 Cd1 3.142226 1_555
Cd0 Y15 3.282747 1_545
Cd0 Y11 3.294282 1_545
Cd0 Y12 3.294382 1_545
Cd0 Y3 3.317446 1_555
Cd0 Y1 3.345181 1_555
Cd0 Y0 3.345458 1_555
Cd0 Y7 3.491279 1_555
Cd0 Y4 3.491669 1_555
Cd0 Y8 3.528456 1_555
Cd1 Y15 3.282747 1_455
Cd1 Y13 3.294264 1_455
Cd1 Y10 3.294388 1_455
Cd1 Y2 3.317505 1_555
Cd1 Y1 3.345366 1_555
Cd1 Y0 3.345482 1_555
Cd1 Y5 3.491205 1_555
Cd1 Y6 3.491553 1_555
Cd1 Y8 3.528529 1_555
Pd0 Y8 2.869067 1_554
Pd0 Y6 2.873415 1_545
Pd0 Y4 2.873657 1_455
Pd0 Y1 2.878119 1_554
Pd0 Y2 2.881338 1_545
Pd0 Y3 2.881596 1_455
Pd0 Y15 3.497811 1_445
Pd0 Y11 3.528893 1_544
Pd0 Y13 3.529365 1_454
Pd1 Y8 2.869273 1_555
Pd1 Y5 2.873524 1_545
Pd1 Y7 2.873624 1_455
Pd1 Y0 2.878361 1_555
Pd1 Y3 2.881502 1_455
Pd1 Y2 2.881518 1_545
Pd1 Y15 3.497476 1_445
Pd1 Y12 3.529124 1_545
Pd1 Y10 3.529202 1_455
Pd2 Y5 2.864066 1_554
Pd2 Y6 2.864242 1_555
Pd2 Y9 2.870075 1_455
Pd2 Y1 2.875823 1_554
Pd2 Y0 2.875918 1_555
Pd2 Y3 2.878344 1_455
Pd2 Y13 3.506050 1_454
Pd2 Y10 3.506337 1_455
Pd2 Y14 3.534118 1_554
Pd3 Y7 2.863896 1_554
Pd3 Y4 2.864293 1_555
Pd3 Y9 2.869903 1_545
Pd3 Y1 2.875589 1_554
Pd3 Y0 2.875958 1_555
Pd3 Y2 2.878188 1_545
Pd3 Y11 3.505667 1_544
Pd3 Y12 3.506439 1_545
Pd3 Y14 3.534129 1_554
