# generated using pymatgen
data_Dy2Tl
_symmetry_space_group_name_H-M   'P 1'
_cell_length_a   5.36995459
_cell_length_b   5.36995587
_cell_length_c   6.68059790
_cell_angle_alpha   90.00000000
_cell_angle_beta   90.00000000
_cell_angle_gamma   120.00000475
_symmetry_Int_Tables_number   1
_chemical_formula_structural   Dy2Tl
_chemical_formula_sum   'Dy4 Tl2'
_cell_volume   166.83504131
_cell_formula_units_Z   2
loop_
 _symmetry_equiv_pos_site_id
 _symmetry_equiv_pos_as_xyz
  1  'x, y, z'
loop_
 _atom_site_type_symbol
 _atom_site_label
 _atom_site_symmetry_multiplicity
 _atom_site_fract_x
 _atom_site_fract_y
 _atom_site_fract_z
 _atom_site_occupancy
  Dy  Dy0  1  0.00000000  0.00000000  -0.00000000  1
  Dy  Dy1  1  0.00000000  0.00000000  0.50000000  1
  Dy  Dy2  1  0.33333300  0.66666700  0.75000000  1
  Dy  Dy3  1  0.66666700  0.33333300  0.25000000  1
  Tl  Tl0  1  0.33333300  0.66666700  0.25000000  1
  Tl  Tl1  1  0.66666700  0.33333300  0.75000000  1
loop_
_geom_bond_atom_site_label_1
_geom_bond_atom_site_label_2
_geom_bond_distance
_geom_bond_site_symmetry_2
Dy0 Dy1 3.340299 1_555
Dy0 Dy1 3.340299 1_554
Dy0 Tl0 3.521579 1_545
Dy0 Tl1 3.521579 1_454
Dy0 Dy2 3.521579 1_544
Dy0 Dy3 3.521579 1_455
Dy0 Tl1 3.521583 1_554
Dy0 Dy2 3.521583 1_444
Dy0 Tl0 3.521583 1_445
Dy0 Dy3 3.521583 1_555
Dy0 Tl0 3.521583 1_555
Dy0 Dy3 3.521583 1_445
Dy0 Dy2 3.521583 1_554
Dy0 Tl1 3.521583 1_444
Dy1 Tl0 3.521579 1_545
Dy1 Dy3 3.521579 1_455
Dy1 Dy2 3.521579 1_545
Dy1 Tl1 3.521579 1_455
Dy1 Dy2 3.521583 1_445
Dy1 Tl0 3.521583 1_445
Dy1 Tl1 3.521583 1_555
Dy1 Dy3 3.521583 1_555
Dy1 Dy2 3.521583 1_555
Dy1 Tl1 3.521583 1_445
Dy1 Dy3 3.521583 1_445
Dy1 Tl0 3.521583 1_555
Dy2 Tl1 3.100341 1_455
Dy2 Tl1 3.100342 1_565
Dy2 Tl1 3.100351 1_555
Dy2 Tl0 3.340299 1_555
Dy2 Tl0 3.340299 1_556
Dy3 Tl0 3.100341 1_655
Dy3 Tl0 3.100342 1_545
Dy3 Tl0 3.100351 1_555
Dy3 Tl1 3.340299 1_555
Dy3 Tl1 3.340299 1_554
