# generated using pymatgen
data_Zr6Zn16GaCu7
_symmetry_space_group_name_H-M   'P 1'
_cell_length_a   8.59269602
_cell_length_b   8.59269584
_cell_length_c   8.59269603
_cell_angle_alpha   59.99999924
_cell_angle_beta   59.99999995
_cell_angle_gamma   59.99999708
_symmetry_Int_Tables_number   1
_chemical_formula_structural   Zr6Zn16GaCu7
_chemical_formula_sum   'Zr6 Zn16 Ga1 Cu7'
_cell_volume   448.61452000
_cell_formula_units_Z   1
loop_
 _symmetry_equiv_pos_site_id
 _symmetry_equiv_pos_as_xyz
  1  'x, y, z'
loop_
 _atom_site_type_symbol
 _atom_site_label
 _atom_site_symmetry_multiplicity
 _atom_site_fract_x
 _atom_site_fract_y
 _atom_site_fract_z
 _atom_site_occupancy
  Zr  Zr0  1  0.71797320  0.28202680  0.28202680  1
  Zr  Zr1  1  0.28202680  0.71797320  0.71797320  1
  Zr  Zr2  1  0.28202680  0.71797320  0.28202680  1
  Zr  Zr3  1  0.71797320  0.28202680  0.71797320  1
  Zr  Zr4  1  0.28202680  0.28202680  0.71797320  1
  Zr  Zr5  1  0.71797320  0.71797320  0.28202680  1
  Zn  Zn0  1  0.12392186  0.12392186  0.12392186  1
  Zn  Zn1  1  0.87607814  0.87607814  0.87607814  1
  Zn  Zn2  1  0.12392186  0.12392186  0.62823443  1
  Zn  Zn3  1  0.12392186  0.62823443  0.12392186  1
  Zn  Zn4  1  0.87607814  0.87607814  0.37176557  1
  Zn  Zn5  1  0.87607814  0.37176557  0.87607814  1
  Zn  Zn6  1  0.62823443  0.12392186  0.12392186  1
  Zn  Zn7  1  0.37176557  0.87607814  0.87607814  1
  Zn  Zn8  1  0.33737044  0.33737044  0.33737044  1
  Zn  Zn9  1  0.66262956  0.66262956  0.66262956  1
  Zn  Zn10  1  0.33737044  0.33737044  0.98788769  1
  Zn  Zn11  1  0.33737044  0.98788769  0.33737044  1
  Zn  Zn12  1  0.66262956  0.66262956  0.01211231  1
  Zn  Zn13  1  0.66262956  0.01211231  0.66262956  1
  Zn  Zn14  1  0.98788769  0.33737044  0.33737044  1
  Zn  Zn15  1  0.01211231  0.66262956  0.66262956  1
  Ga  Ga0  1  0.50000000  0.50000000  0.50000000  1
  Cu  Cu0  1  0.50000000  0.00000000  0.00000000  1
  Cu  Cu1  1  0.00000000  0.50000000  0.50000000  1
  Cu  Cu2  1  0.00000000  0.50000000  0.00000000  1
  Cu  Cu3  1  0.50000000  0.00000000  0.50000000  1
  Cu  Cu4  1  0.00000000  0.00000000  0.50000000  1
  Cu  Cu5  1  0.50000000  0.50000000  0.00000000  1
  Cu  Cu6  1  0.00000000  0.00000000  0.00000000  1
loop_
_geom_bond_atom_site_label_1
_geom_bond_atom_site_label_2
_geom_bond_distance
_geom_bond_site_symmetry_2
Zn0 Zn14 2.677746 1_455
Zn0 Zn11 2.677746 1_545
Zn0 Zn10 2.677746 1_554
Zn0 Zr2 2.868221 1_545
Zn0 Zr0 2.868221 1_455
Zn0 Zr4 2.868222 1_554
Zn0 Zn5 3.011774 1_454
Zn0 Zn7 3.011774 1_544
Zn0 Zn4 3.011774 1_445
Zn1 Zn15 2.677746 1_655
Zn1 Zn13 2.677746 1_565
Zn1 Zn12 2.677746 1_556
Zn1 Zr3 2.868221 1_565
Zn1 Zr1 2.868221 1_655
Zn1 Zr5 2.868222 1_556
Zn1 Zn6 3.011774 1_566
Zn1 Zn3 3.011774 1_656
Zn1 Zn2 3.011774 1_665
Zn2 Zn8 2.677749 1_555
Zn2 Zr1 2.868221 1_545
Zn2 Zr3 2.868221 1_455
Zn2 Zr4 2.868222 1_555
Zn2 Zn5 3.011774 1_455
Zn2 Zn7 3.011774 1_545
Zn3 Zn8 2.677748 1_555
Zn3 Zr5 2.868221 1_455
Zn3 Zr1 2.868222 1_554
Zn3 Zr2 2.868222 1_555
Zn3 Zn4 3.011774 1_455
Zn3 Zn7 3.011774 1_554
Zn4 Zn9 2.677749 1_555
Zn4 Zr0 2.868221 1_565
Zn4 Zr2 2.868221 1_655
Zn4 Zr5 2.868222 1_555
Zn4 Zn6 3.011774 1_565
Zn5 Zn9 2.677748 1_555
Zn5 Zr4 2.868221 1_655
Zn5 Zr0 2.868222 1_556
Zn5 Zr3 2.868222 1_555
Zn5 Zn6 3.011774 1_556
Zn6 Zn8 2.677748 1_555
Zn6 Zr5 2.868221 1_545
Zn6 Zr0 2.868222 1_555
Zn6 Zr3 2.868222 1_554
Zn7 Zn9 2.677748 1_555
Zn7 Zr4 2.868221 1_565
Zn7 Zr1 2.868222 1_555
Zn7 Zr2 2.868222 1_556
Zn8 Zr2 2.874630 1_555
Zn8 Zr0 2.874630 1_555
Zn8 Zr4 2.874630 1_555
Zn9 Zr3 2.874630 1_555
Zn9 Zr1 2.874630 1_555
Zn9 Zr5 2.874630 1_555
Zn10 Zn3 2.677753 1_556
Zn10 Zn6 2.677753 1_556
Zn10 Zr4 2.874622 1_555
Zn10 Zr1 2.874628 1_555
Zn10 Zr3 2.874628 1_555
Zn10 Zn11 3.002999 1_546
Zn10 Zn14 3.002999 1_456
Zn10 Zn8 3.002999 1_556
Zn11 Zn2 2.677753 1_565
Zn11 Zn6 2.677753 1_565
Zn11 Zr2 2.874622 1_555
Zn11 Zr5 2.874627 1_555
Zn11 Zr1 2.874628 1_555
Zn11 Zn14 3.002999 1_465
Zn11 Zn8 3.002999 1_565
Zn12 Zn5 2.677753 1_554
Zn12 Zn7 2.677753 1_554
Zn12 Zr5 2.874622 1_555
Zn12 Zr0 2.874628 1_555
Zn12 Zr2 2.874628 1_555
Zn12 Zn13 3.002999 1_564
Zn12 Zn15 3.002999 1_654
Zn12 Zn9 3.002999 1_554
Zn13 Zn4 2.677753 1_545
Zn13 Zn7 2.677753 1_545
Zn13 Zr3 2.874622 1_555
Zn13 Zr4 2.874627 1_555
Zn13 Zr0 2.874628 1_555
Zn13 Zn15 3.002999 1_645
Zn13 Zn9 3.002999 1_545
Zn14 Zn2 2.677753 1_655
Zn14 Zn3 2.677753 1_655
Zn14 Zr0 2.874622 1_555
Zn14 Zr5 2.874627 1_555
Zn14 Zr3 2.874628 1_555
Zn14 Zn8 3.002999 1_655
Zn15 Zn4 2.677753 1_455
Zn15 Zn5 2.677753 1_455
Zn15 Zr1 2.874622 1_555
Zn15 Zr4 2.874627 1_555
Zn15 Zr2 2.874628 1_555
Zn15 Zn9 3.002999 1_455
Ga0 Zr3 2.648790 1_555
Ga0 Zr2 2.648790 1_555
Ga0 Zr1 2.648790 1_555
Ga0 Zr0 2.648790 1_555
Ga0 Zr5 2.648790 1_555
Ga0 Zr4 2.648790 1_555
Cu0 Zn10 2.481950 1_554
Cu0 Zn12 2.481950 1_545
Cu0 Zn11 2.481950 1_545
Cu0 Zn13 2.481950 1_554
Cu0 Zn1 2.638616 1_544
Cu0 Zn0 2.638616 1_555
Cu0 Zn6 2.638616 1_555
Cu0 Zn7 2.638616 1_544
Cu0 Zr5 3.062804 1_545
Cu0 Zr4 3.062804 1_554
Cu0 Zr3 3.062804 1_554
Cu0 Zr2 3.062804 1_545
Cu1 Zn8 2.481953 1_555
Cu1 Zn9 2.481953 1_455
Cu1 Zn15 2.481958 1_555
Cu1 Zn14 2.481958 1_455
Cu1 Zn4 2.638616 1_455
Cu1 Zn2 2.638616 1_555
Cu1 Zn5 2.638616 1_455
Cu1 Zn3 2.638616 1_555
Cu1 Zr4 3.062804 1_555
Cu1 Zr5 3.062804 1_455
Cu1 Zr2 3.062804 1_555
Cu1 Zr3 3.062804 1_455
Cu2 Zn10 2.481950 1_554
Cu2 Zn12 2.481950 1_455
Cu2 Zn14 2.481950 1_455
Cu2 Zn15 2.481950 1_554
Cu2 Zn1 2.638616 1_454
Cu2 Zn0 2.638616 1_555
Cu2 Zn3 2.638616 1_555
Cu2 Zn5 2.638616 1_454
Cu2 Zr5 3.062804 1_455
Cu2 Zr4 3.062804 1_554
Cu2 Zr1 3.062804 1_554
Cu2 Zr0 3.062804 1_455
Cu3 Zn8 2.481953 1_555
Cu3 Zn9 2.481953 1_545
Cu3 Zn13 2.481958 1_555
Cu3 Zn11 2.481958 1_545
Cu3 Zn4 2.638616 1_545
Cu3 Zn2 2.638616 1_555
Cu3 Zn7 2.638616 1_545
Cu3 Zn6 2.638616 1_555
Cu3 Zr4 3.062804 1_555
Cu3 Zr5 3.062804 1_545
Cu3 Zr0 3.062804 1_555
Cu3 Zr1 3.062804 1_545
Cu4 Zn14 2.481950 1_455
Cu4 Zn15 2.481950 1_545
Cu4 Zn11 2.481950 1_545
Cu4 Zn13 2.481950 1_455
Cu4 Zn2 2.638616 1_555
Cu4 Zn0 2.638616 1_555
Cu4 Zn1 2.638616 1_445
Cu4 Zn4 2.638616 1_445
Cu4 Zr3 3.062804 1_455
Cu4 Zr2 3.062804 1_545
Cu4 Zr1 3.062804 1_545
Cu4 Zr0 3.062804 1_455
Cu5 Zn8 2.481953 1_555
Cu5 Zn9 2.481953 1_554
Cu5 Zn12 2.481958 1_555
Cu5 Zn10 2.481958 1_554
Cu5 Zn7 2.638616 1_554
Cu5 Zn6 2.638616 1_555
Cu5 Zn5 2.638616 1_554
Cu5 Zn3 2.638616 1_555
Cu5 Zr0 3.062804 1_555
Cu5 Zr1 3.062804 1_554
Cu5 Zr2 3.062804 1_555
Cu5 Zr3 3.062804 1_554
Cu6 Zn5 2.608273 1_454
Cu6 Zn3 2.608273 1_545
Cu6 Zn7 2.608273 1_544
Cu6 Zn6 2.608273 1_455
Cu6 Zn0 2.608273 1_555
Cu6 Zn4 2.608273 1_445
Cu6 Zn2 2.608273 1_554
Cu6 Zn1 2.608273 1_444
