# generated using pymatgen
data_LuHf8(In2Co)7
_symmetry_space_group_name_H-M   'P 1'
_cell_length_a   9.35201109
_cell_length_b   9.35201070
_cell_length_c   9.35201052
_cell_angle_alpha   60.00000064
_cell_angle_beta   60.00000202
_cell_angle_gamma   59.99999796
_symmetry_Int_Tables_number   1
_chemical_formula_structural   LuHf8(In2Co)7
_chemical_formula_sum   'Lu1 Hf8 In14 Co7'
_cell_volume   578.36233102
_cell_formula_units_Z   1
loop_
 _symmetry_equiv_pos_site_id
 _symmetry_equiv_pos_as_xyz
  1  'x, y, z'
loop_
 _atom_site_type_symbol
 _atom_site_label
 _atom_site_symmetry_multiplicity
 _atom_site_fract_x
 _atom_site_fract_y
 _atom_site_fract_z
 _atom_site_occupancy
  Lu  Lu0  1  0.50000000  0.50000000  0.50000000  1
  Hf  Hf0  1  0.11942940  0.64171180  0.11942940  1
  Hf  Hf1  1  0.35828820  0.88057060  0.88057060  1
  Hf  Hf2  1  0.88057060  0.88057060  0.88057060  1
  Hf  Hf3  1  0.64171180  0.11942940  0.11942940  1
  Hf  Hf4  1  0.88057060  0.88057060  0.35828820  1
  Hf  Hf5  1  0.11942940  0.11942940  0.11942940  1
  Hf  Hf6  1  0.88057060  0.35828820  0.88057060  1
  Hf  Hf7  1  0.11942940  0.11942940  0.64171180  1
  In  In0  1  0.50000000  0.84380286  0.15619714  1
  In  In1  1  0.50000000  0.84380286  0.50000000  1
  In  In2  1  0.50000000  0.15619714  0.50000000  1
  In  In3  1  0.50000000  0.50000000  0.84380286  1
  In  In4  1  0.15619714  0.50000000  0.50000000  1
  In  In5  1  0.84380286  0.15619714  0.50000000  1
  In  In6  1  0.15619714  0.84380286  0.50000000  1
  In  In7  1  0.50000000  0.15619714  0.84380286  1
  In  In8  1  0.15619714  0.50000000  0.84380286  1
  In  In9  1  0.50000000  0.50000000  0.15619714  1
  In  In10  1  0.84380286  0.50000000  0.50000000  1
  In  In11  1  0.84380286  0.50000000  0.15619714  1
  In  In12  1  0.25000000  0.25000000  0.25000000  1
  In  In13  1  0.75000000  0.75000000  0.75000000  1
  Co  Co0  1  0.77964247  0.77964247  0.22035753  1
  Co  Co1  1  0.00000000  0.00000000  0.00000000  1
  Co  Co2  1  0.22035753  0.77964247  0.22035753  1
  Co  Co3  1  0.22035753  0.77964247  0.77964247  1
  Co  Co4  1  0.22035753  0.22035753  0.77964247  1
  Co  Co5  1  0.77964247  0.22035753  0.77964247  1
  Co  Co6  1  0.77964247  0.22035753  0.22035753  1
loop_
_geom_bond_atom_site_label_1
_geom_bond_atom_site_label_2
_geom_bond_distance
_geom_bond_site_symmetry_2
Hf0 In12 2.991066 1_555
Hf0 Hf4 3.159084 1_455
Hf0 Hf2 3.159084 1_454
Hf0 Hf1 3.159085 1_554
Hf0 In4 3.254702 1_555
Hf0 In8 3.254702 1_554
Hf0 In3 3.254702 1_554
Hf0 In9 3.254702 1_555
Hf0 In11 3.254702 1_455
Hf0 In10 3.254702 1_455
Hf1 In13 2.991066 1_555
Hf1 Hf7 3.159084 1_565
Hf1 Hf5 3.159084 1_566
Hf1 In3 3.254702 1_555
Hf1 In9 3.254702 1_556
Hf1 In1 3.254702 1_555
Hf1 In0 3.254702 1_556
Hf1 In2 3.254702 1_565
Hf1 In7 3.254702 1_565
Hf2 In13 2.991066 1_555
Hf2 Hf3 3.159084 1_566
Hf2 Hf7 3.159085 1_665
Hf2 In8 3.254702 1_655
Hf2 In5 3.254702 1_565
Hf2 In7 3.254702 1_565
Hf2 In11 3.254702 1_556
Hf2 In6 3.254702 1_655
Hf2 In0 3.254702 1_556
Hf3 In12 2.991066 1_555
Hf3 Hf4 3.159084 1_545
Hf3 Hf6 3.159085 1_554
Hf3 In9 3.254702 1_555
Hf3 In3 3.254702 1_554
Hf3 In7 3.254702 1_554
Hf3 In2 3.254702 1_555
Hf3 In1 3.254702 1_545
Hf3 In0 3.254702 1_545
Hf4 In13 2.991066 1_555
Hf4 Hf5 3.159085 1_665
Hf4 In4 3.254702 1_655
Hf4 In5 3.254702 1_565
Hf4 In2 3.254702 1_565
Hf4 In10 3.254702 1_555
Hf4 In6 3.254702 1_655
Hf4 In1 3.254702 1_555
Hf5 In12 2.991066 1_555
Hf5 Hf6 3.159084 1_454
Hf5 In11 3.254702 1_455
Hf5 In6 3.254702 1_545
Hf5 In0 3.254702 1_545
Hf5 In8 3.254702 1_554
Hf5 In5 3.254702 1_455
Hf5 In7 3.254702 1_554
Hf6 In13 2.991066 1_555
Hf6 Hf7 3.159084 1_655
Hf6 In10 3.254702 1_555
Hf6 In11 3.254702 1_556
Hf6 In9 3.254702 1_556
Hf6 In3 3.254702 1_555
Hf6 In8 3.254702 1_655
Hf6 In4 3.254702 1_655
Hf7 In12 2.991066 1_555
Hf7 In10 3.254702 1_455
Hf7 In6 3.254702 1_545
Hf7 In1 3.254702 1_545
Hf7 In4 3.254702 1_555
Hf7 In5 3.254702 1_455
Hf7 In2 3.254702 1_555
In0 In7 2.921515 1_564
In0 In1 3.215248 1_555
In0 In11 3.215248 1_555
In0 In9 3.215248 1_555
In0 Lu0 3.215248 1_555
In0 In6 3.215248 1_555
In0 In12 3.614737 1_565
In0 In13 3.614737 1_554
In1 In2 2.921515 1_565
In1 In10 3.215248 1_555
In1 Lu0 3.215248 1_555
In1 In3 3.215248 1_555
In1 In6 3.215248 1_555
In1 In12 3.614737 1_565
In1 In13 3.614737 1_555
In2 In7 3.215248 1_555
In2 In4 3.215248 1_555
In2 Lu0 3.215248 1_555
In2 In9 3.215248 1_555
In2 In5 3.215248 1_555
In3 In9 2.921515 1_556
In3 Lu0 3.215248 1_555
In3 In7 3.215248 1_555
In3 In8 3.215248 1_555
In4 In8 3.215248 1_555
In4 In6 3.215248 1_555
In4 In9 3.215248 1_555
In4 Lu0 3.215248 1_555
In5 In6 2.921515 1_645
In5 Lu0 3.215248 1_555
In5 In7 3.215248 1_555
In6 Lu0 3.215248 1_555
In6 In8 3.215248 1_555
In7 In8 3.215248 1_555
In7 Lu0 3.215248 1_555
In8 Lu0 3.215248 1_555
In9 Lu0 3.215248 1_555
In10 In4 2.921515 1_655
In10 In11 3.215248 1_555
In10 In5 3.215248 1_555
In10 In3 3.215248 1_555
In10 Lu0 3.215248 1_555
In10 In13 3.614737 1_555
In10 In12 3.614737 1_655
In11 In8 2.921515 1_654
In11 In5 3.215248 1_555
In11 In9 3.215248 1_555
In11 Lu0 3.215248 1_555
In11 In13 3.614737 1_554
In11 In12 3.614737 1_655
In12 In4 3.614737 1_555
In12 In8 3.614737 1_554
In12 In7 3.614737 1_554
In12 In2 3.614737 1_555
In12 In6 3.614737 1_545
In12 In9 3.614737 1_555
In12 In3 3.614737 1_554
In12 In5 3.614737 1_455
In13 In2 3.614737 1_565
In13 In7 3.614737 1_565
In13 In8 3.614737 1_655
In13 In4 3.614737 1_655
In13 In5 3.614737 1_565
In13 In9 3.614737 1_556
In13 In3 3.614737 1_555
In13 In6 3.614737 1_655
Co0 Hf3 2.602255 1_565
Co0 Hf4 2.602255 1_555
Co0 Hf2 2.602255 1_554
Co0 Hf0 2.602255 1_655
Co0 In11 2.683171 1_555
Co0 In10 2.683171 1_555
Co0 In1 2.683171 1_555
Co0 In0 2.683171 1_555
Co0 Co1 2.914392 1_665
Co1 Hf6 2.735847 1_454
Co1 Hf0 2.735847 1_545
Co1 Hf4 2.735847 1_445
Co1 Hf7 2.735847 1_554
Co1 Hf5 2.735847 1_555
Co1 Hf2 2.735847 1_444
Co1 Hf1 2.735848 1_544
Co1 Hf3 2.735848 1_455
Co1 Co2 2.914391 1_545
Co1 Co5 2.914391 1_454
Co1 Co6 2.914391 1_455
Co1 Co3 2.914391 1_544
Co1 Co4 2.914392 1_554
Co2 Hf5 2.602255 1_565
Co2 Hf0 2.602255 1_555
Co2 Hf1 2.602255 1_554
Co2 Hf4 2.602255 1_455
Co2 In6 2.683171 1_555
Co2 In9 2.683171 1_555
Co2 In4 2.683171 1_555
Co2 In0 2.683171 1_555
Co3 Hf7 2.602255 1_565
Co3 Hf0 2.602255 1_556
Co3 Hf1 2.602255 1_555
Co3 Hf2 2.602255 1_455
Co3 In6 2.683171 1_555
Co3 In3 2.683171 1_555
Co3 In8 2.683171 1_555
Co3 In1 2.683171 1_555
Co4 Hf1 2.602255 1_545
Co4 Hf7 2.602255 1_555
Co4 Hf5 2.602255 1_556
Co4 Hf6 2.602255 1_455
Co4 In4 2.683171 1_555
Co4 In8 2.683171 1_555
Co4 In2 2.683171 1_555
Co4 In7 2.683171 1_555
Co5 Hf2 2.602255 1_545
Co5 Hf6 2.602255 1_555
Co5 Hf3 2.602255 1_556
Co5 Hf7 2.602255 1_655
Co5 In5 2.683171 1_555
Co5 In3 2.683171 1_555
Co5 In10 2.683171 1_555
Co5 In7 2.683171 1_555
Co6 Hf4 2.602255 1_545
Co6 Hf6 2.602255 1_554
Co6 Hf3 2.602255 1_555
Co6 Hf5 2.602255 1_655
Co6 In5 2.683171 1_555
Co6 In9 2.683171 1_555
Co6 In11 2.683171 1_555
Co6 In2 2.683171 1_555
