# generated using pymatgen
data_Rb2Ca(ICl)2
_symmetry_space_group_name_H-M   'P 1'
_cell_length_a   10.05749059
_cell_length_b   10.05749005
_cell_length_c   7.62950326
_cell_angle_alpha   90.00000000
_cell_angle_beta   90.00000000
_cell_angle_gamma   135.53250349
_symmetry_Int_Tables_number   1
_chemical_formula_structural   Rb2Ca(ICl)2
_chemical_formula_sum   'Rb4 Ca2 I4 Cl4'
_cell_volume   540.61296596
_cell_formula_units_Z   2
loop_
 _symmetry_equiv_pos_site_id
 _symmetry_equiv_pos_as_xyz
  1  'x, y, z'
loop_
 _atom_site_type_symbol
 _atom_site_label
 _atom_site_symmetry_multiplicity
 _atom_site_fract_x
 _atom_site_fract_y
 _atom_site_fract_z
 _atom_site_occupancy
  Rb  Rb0  1  0.13266166  0.86733834  0.50000000  1
  Rb  Rb1  1  0.86733834  0.13266166  0.50000000  1
  Rb  Rb2  1  0.36733834  0.63266166  0.00000000  1
  Rb  Rb3  1  0.63266166  0.36733834  0.00000000  1
  Ca  Ca0  1  0.50000000  0.50000000  0.50000000  1
  Ca  Ca1  1  0.00000000  0.00000000  0.00000000  1
  I  I0  1  0.33175179  0.66824821  0.50000000  1
  I  I1  1  0.66824821  0.33175179  0.50000000  1
  I  I2  1  0.16824821  0.83175179  0.00000000  1
  I  I3  1  0.83175179  0.16824821  0.00000000  1
  Cl  Cl0  1  0.75058982  0.75058982  0.74997983  1
  Cl  Cl1  1  0.24941018  0.24941018  0.25002017  1
  Cl  Cl2  1  0.74941018  0.74941018  0.24997983  1
  Cl  Cl3  1  0.25058982  0.25058982  0.75002017  1
loop_
_geom_bond_atom_site_label_1
_geom_bond_atom_site_label_2
_geom_bond_distance
_geom_bond_site_symmetry_2
Ca0 Cl2 2.691149 1_555
Ca0 Cl3 2.691149 1_555
Ca0 Cl0 2.697272 1_555
Ca0 Cl1 2.697272 1_555
Ca0 I0 3.132679 1_555
Ca0 I1 3.132679 1_555
Ca1 Cl1 2.691149 1_555
Ca1 Cl0 2.691149 1_444
Ca1 Cl3 2.697272 1_554
Ca1 Cl2 2.697272 1_445
Ca1 I2 3.132679 1_545
Ca1 I3 3.132679 1_455
I0 Rb0 3.706937 1_555
I0 Rb1 3.862867 1_455
I0 Rb1 3.862867 1_565
I0 Rb2 3.871869 1_555
I0 Rb2 3.871869 1_556
I1 Rb1 3.706937 1_555
I1 Rb0 3.862867 1_655
I1 Rb0 3.862867 1_545
I1 Rb3 3.871869 1_555
I1 Rb3 3.871869 1_556
I2 Rb2 3.706937 1_555
I2 Rb3 3.862867 1_565
I2 Rb3 3.862867 1_455
I2 Rb0 3.871869 1_554
I2 Rb0 3.871869 1_555
I3 Rb3 3.706937 1_555
I3 Rb2 3.862867 1_545
I3 Rb2 3.862867 1_655
I3 Rb1 3.871869 1_555
I3 Rb1 3.871869 1_554
Cl0 Rb1 3.652724 1_565
Cl0 Rb0 3.652725 1_655
Cl0 Rb3 3.657559 1_556
Cl0 Rb2 3.657559 1_556
Cl1 Rb0 3.652724 1_545
Cl1 Rb1 3.652725 1_455
Cl1 Rb2 3.657559 1_555
Cl1 Rb3 3.657559 1_555
Cl2 Rb3 3.652724 1_555
Cl2 Rb2 3.652725 1_555
Cl2 Rb1 3.657559 1_565
Cl2 Rb0 3.657559 1_655
Cl3 Rb2 3.652724 1_556
Cl3 Rb3 3.652725 1_556
Cl3 Rb0 3.657559 1_545
Cl3 Rb1 3.657559 1_455
