# generated using pymatgen
data_Ti8Al15Rh6Au
_symmetry_space_group_name_H-M   'P 1'
_cell_length_a   8.61678591
_cell_length_b   8.59175422
_cell_length_c   8.62489147
_cell_angle_alpha   119.88377797
_cell_angle_beta   119.86105719
_cell_angle_gamma   90.09167931
_symmetry_Int_Tables_number   1
_chemical_formula_structural   Ti8Al15Rh6Au
_chemical_formula_sum   'Ti8 Al15 Rh6 Au1'
_cell_volume   452.88576989
_cell_formula_units_Z   1
loop_
 _symmetry_equiv_pos_site_id
 _symmetry_equiv_pos_as_xyz
  1  'x, y, z'
loop_
 _atom_site_type_symbol
 _atom_site_label
 _atom_site_symmetry_multiplicity
 _atom_site_fract_x
 _atom_site_fract_y
 _atom_site_fract_z
 _atom_site_occupancy
  Ti  Ti0  1  0.78995389  0.29145489  0.07667310  1
  Ti  Ti1  1  0.21602242  0.28939757  0.49975165  1
  Ti  Ti2  1  0.20976783  0.70997609  0.50080228  1
  Ti  Ti3  1  0.21327103  0.71479531  0.92114641  1
  Ti  Ti4  1  0.79103629  0.71517502  0.50096101  1
  Ti  Ti5  1  0.78357690  0.28386186  0.49955175  1
  Ti  Ti6  1  0.38943285  0.12697850  0.75136787  1
  Ti  Ti7  1  0.38052763  0.63600782  0.25862410  1
  Al  Al0  1  0.99713742  0.49591078  0.49906737  1
  Al  Al1  1  0.15423550  0.34424734  0.19162458  1
  Al  Al2  1  0.15898583  0.96768866  0.81902529  1
  Al  Al3  1  0.15392539  0.35273418  0.81125444  1
  Al  Al4  1  0.54038538  0.34564082  0.19626981  1
  Al  Al5  1  0.84359032  0.65249636  0.80775453  1
  Al  Al6  1  0.84086041  0.03612529  0.18284719  1
  Al  Al7  1  0.83858341  0.64801929  0.17880319  1
  Al  Al8  1  0.46855409  0.65452500  0.81182050  1
  Al  Al9  1  0.37978074  0.12278935  0.25946023  1
  Al  Al10  1  0.86088496  0.12632090  0.75222239  1
  Al  Al11  1  0.61114768  0.87463034  0.24848485  1
  Al  Al12  1  0.62079892  0.36467084  0.74139128  1
  Al  Al13  1  0.62156514  0.87622355  0.74220283  1
  Al  Al14  1  0.13748216  0.87477378  0.24769482  1
  Rh  Rh0  1  0.49878226  0.99930364  0.99850485  1
  Rh  Rh1  1  0.49786830  0.49813323  0.00147928  1
  Rh  Rh2  1  0.49778934  0.50006996  0.49809732  1
  Rh  Rh3  1  0.00255728  0.50016388  0.00257995  1
  Rh  Rh4  1  0.99985700  0.99948529  0.99930312  1
  Rh  Rh5  1  0.49980526  0.99898263  0.50098837  1
  Au  Au0  1  0.00183137  0.99941480  0.50024366  1
loop_
_geom_bond_atom_site_label_1
_geom_bond_atom_site_label_2
_geom_bond_distance
_geom_bond_site_symmetry_2
Ti0 Ti6 2.858476 1_554
Ti1 Ti6 2.947029 1_555
Ti2 Ti7 2.944915 1_555
Ti2 Ti6 2.972963 1_565
Ti3 Ti7 2.965931 1_556
Ti4 Ti7 2.925217 1_555
Al0 Ti3 2.583213 1_655
Al0 Ti2 2.583463 1_655
Al0 Ti0 2.584847 1_555
Al0 Ti5 2.590386 1_555
Al0 Ti4 2.590766 1_555
Al0 Ti1 2.591446 1_655
Al1 Rh4 2.487789 1_444
Al1 Rh2 2.492333 1_555
Al1 Rh3 2.494248 1_555
Al1 Ti1 2.721767 1_555
Al1 Ti0 2.736776 1_455
Al1 Ti2 2.754705 1_555
Al1 Al10 2.762668 1_454
Al1 Al9 2.780031 1_555
Al1 Ti7 2.799759 1_555
Al1 Al2 3.250717 1_544
Al2 Rh4 2.464422 1_455
Al2 Rh0 2.471443 1_555
Al2 Au0 2.551080 1_555
Al2 Ti3 2.686197 1_555
Al2 Al9 2.752520 1_566
Al2 Ti4 2.769647 1_455
Al2 Ti2 2.787550 1_555
Al2 Ti6 2.845622 1_565
Al3 Rh3 2.468685 1_556
Al3 Rh1 2.477819 1_556
Al3 Au0 2.549585 1_545
Al3 Ti3 2.722277 1_555
Al3 Ti5 2.761707 1_455
Al3 Ti7 2.783642 1_556
Al3 Ti1 2.788595 1_555
Al3 Ti6 2.864462 1_555
Al4 Rh2 2.486591 1_555
Al4 Rh0 2.494465 1_544
Al4 Rh1 2.501077 1_555
Al4 Ti5 2.728363 1_555
Al4 Ti0 2.763854 1_555
Al4 Al9 2.767791 1_555
Al4 Ti4 2.768204 1_555
Al4 Ti6 2.789992 1_554
Al4 Ti7 2.796816 1_555
Al5 Rh4 2.508843 1_555
Al5 Rh2 2.510810 1_555
Al5 Rh3 2.513574 1_656
Al5 Ti5 2.757019 1_555
Al5 Ti4 2.779247 1_555
Al5 Ti3 2.785815 1_655
Al5 Al7 3.241161 1_556
Al5 Al8 3.249191 1_555
Al5 Al6 3.283432 1_566
Al6 Rh0 2.478988 1_544
Al6 Rh4 2.479245 1_544
Al6 Au0 2.568666 1_645
Al6 Ti0 2.729165 1_555
Al6 Ti5 2.790663 1_555
Al6 Ti1 2.812159 1_655
Al6 Al8 3.251162 1_544
Al6 Al7 3.317195 1_545
Al7 Rh3 2.477996 1_655
Al7 Rh1 2.484114 1_555
Al7 Au0 2.557755 1_655
Al7 Ti0 2.697390 1_555
Al7 Ti4 2.785329 1_555
Al7 Ti2 2.811080 1_655
Al7 Al8 3.211702 1_554
Al8 Rh2 2.499545 1_555
Al8 Rh0 2.502472 1_555
Al8 Rh1 2.514946 1_556
Al8 Ti1 2.748229 1_555
Al8 Ti3 2.752918 1_555
Al8 Ti2 2.777695 1_555
Al9 Rh5 2.570383 1_545
Al9 Rh2 2.652295 1_555
Al9 Rh0 2.676746 1_544
Al9 Rh4 2.679496 1_444
Al9 Ti5 2.874681 1_555
Al9 Ti1 2.880580 1_555
Al9 Ti3 2.912563 1_544
Al10 Rh5 2.546758 1_545
Al10 Rh3 2.630758 1_656
Al10 Rh4 2.634385 1_545
Al10 Au0 2.767376 1_645
Al10 Ti0 2.822573 1_556
Al10 Al2 2.847380 1_645
Al10 Al3 2.852445 1_655
Al10 Al12 2.914437 1_555
Al10 Al13 2.915572 1_545
Al10 Ti5 2.919190 1_555
Al10 Ti4 2.933078 1_545
Al10 Al11 3.081571 1_545
Al11 Rh5 2.563232 1_555
Al11 Rh0 2.638051 1_554
Al11 Rh1 2.647100 1_555
Al11 Al8 2.749075 1_554
Al11 Au0 2.754414 1_655
Al11 Al7 2.830492 1_555
Al11 Al6 2.837867 1_565
Al11 Ti3 2.844916 1_554
Al11 Ti5 2.907153 1_565
Al11 Ti7 2.915229 1_555
Al11 Al9 2.920601 1_565
Al11 Ti4 2.939361 1_555
Al12 Rh5 2.569613 1_545
Al12 Rh2 2.664888 1_555
Al12 Rh3 2.691880 1_656
Al12 Rh1 2.697380 1_556
Al12 Al7 2.732096 1_556
Al12 Al8 2.754704 1_555
Al12 Al5 2.758359 1_555
Al12 Ti5 2.876369 1_555
Al12 Ti1 2.887583 1_555
Al12 Ti6 2.912976 1_555
Al12 Ti0 2.915635 1_556
Al12 Al9 2.948138 1_555
Al13 Rh5 2.560857 1_555
Al13 Rh2 2.643376 1_555
Al13 Rh4 2.667419 1_555
Al13 Rh0 2.669713 1_555
Al13 Al6 2.745797 1_566
Al13 Al8 2.765332 1_555
Al13 Al5 2.773495 1_555
Al13 Ti4 2.922246 1_555
Al13 Ti2 2.937610 1_555
Al13 Ti6 2.941134 1_565
Al13 Ti0 2.952054 1_566
Al13 Ti7 2.958265 1_555
Al14 Rh5 2.555974 1_555
Al14 Rh4 2.627868 1_454
Al14 Rh3 2.634434 1_555
Al14 Au0 2.733603 1_555
Al14 Al5 2.766384 1_454
Al14 Al7 2.844038 1_455
Al14 Al6 2.850934 1_465
Al14 Ti3 2.867915 1_554
Al14 Al9 2.910216 1_565
Al14 Ti7 2.934797 1_555
Al14 Ti1 2.946940 1_565
Al14 Ti2 2.981144 1_555
Al14 Ti6 3.081139 1_565
Rh0 Ti6 2.639666 1_565
Rh0 Ti3 3.032145 1_555
Rh0 Ti2 3.083767 1_555
Rh0 Ti5 3.093028 1_566
Rh0 Ti0 3.107908 1_566
Rh1 Ti6 2.612263 1_554
Rh1 Ti7 2.638804 1_555
Rh1 Ti0 3.073235 1_555
Rh1 Ti4 3.091989 1_555
Rh1 Ti3 3.093053 1_554
Rh1 Ti1 3.102864 1_554
Rh2 Ti7 2.642058 1_555
Rh2 Ti1 3.036027 1_555
Rh2 Ti2 3.072865 1_555
Rh2 Ti5 3.085808 1_555
Rh2 Ti4 3.111039 1_555
Rh3 Ti7 2.665272 1_555
Rh3 Ti0 3.045832 1_455
Rh3 Ti2 3.087594 1_555
Rh3 Ti5 3.104750 1_454
Rh3 Ti3 3.120953 1_554
Rh4 Ti3 3.069974 1_655
Rh4 Ti4 3.082355 1_555
Rh4 Ti0 3.091555 1_566
Rh4 Ti1 3.093548 1_666
Rh5 Ti6 2.541522 1_565
Rh5 Ti7 2.550652 1_555
Au0 Ti6 2.732489 1_565
Au0 Ti4 3.045530 1_455
Au0 Ti2 3.067911 1_555
Au0 Ti5 3.086681 1_465
Au0 Ti1 3.101192 1_565
