# generated using pymatgen
data_LiCaNi4
_symmetry_space_group_name_H-M   'P 1'
_cell_length_a   4.86287633
_cell_length_b   4.86287622
_cell_length_c   4.86287636
_cell_angle_alpha   60.00000555
_cell_angle_beta   60.00000632
_cell_angle_gamma   59.99999965
_symmetry_Int_Tables_number   1
_chemical_formula_structural   LiCaNi4
_chemical_formula_sum   'Li1 Ca1 Ni4'
_cell_volume   81.31388432
_cell_formula_units_Z   1
loop_
 _symmetry_equiv_pos_site_id
 _symmetry_equiv_pos_as_xyz
  1  'x, y, z'
loop_
 _atom_site_type_symbol
 _atom_site_label
 _atom_site_symmetry_multiplicity
 _atom_site_fract_x
 _atom_site_fract_y
 _atom_site_fract_z
 _atom_site_occupancy
  Li  Li0  1  0.50000000  0.50000000  0.50000000  1
  Ca  Ca0  1  0.75000000  0.75000000  0.75000000  1
  Ni  Ni0  1  0.12568956  0.12568956  0.12568956  1
  Ni  Ni1  1  0.62293131  0.12568956  0.12568956  1
  Ni  Ni2  1  0.12568956  0.62293131  0.12568956  1
  Ni  Ni3  1  0.12568956  0.12568956  0.62293131  1
loop_
_geom_bond_atom_site_label_1
_geom_bond_atom_site_label_2
_geom_bond_distance
_geom_bond_site_symmetry_2
Li0 Ni1 2.849696 1_555
Li0 Ni3 2.849696 1_565
Li0 Ni2 2.849696 1_555
Li0 Ni3 2.849696 1_655
Li0 Ni0 2.849696 1_565
Li0 Ni3 2.849696 1_555
Li0 Ni0 2.849696 1_655
Li0 Ni1 2.849696 1_556
Li0 Ni1 2.849696 1_565
Li0 Ni2 2.849696 1_556
Li0 Ni2 2.849696 1_655
Li0 Ni0 2.849696 1_556
Ca0 Ni1 2.852555 1_566
Ca0 Ni3 2.852555 1_655
Ca0 Ni2 2.852555 1_656
Ca0 Ni3 2.852555 1_565
Ca0 Ni0 2.852555 1_656
Ca0 Ni3 2.852555 1_665
Ca0 Ni0 2.852555 1_566
Ca0 Ni1 2.852555 1_565
Ca0 Ni2 2.852555 1_655
Ca0 Ni1 2.852555 1_556
Ca0 Ni2 2.852555 1_556
Ca0 Ni0 2.852556 1_665
Ca0 Li0 2.977891 1_555
Ca0 Li0 2.977891 1_565
Ca0 Li0 2.977892 1_655
Ca0 Li0 2.977892 1_556
Ni0 Ni2 2.418025 1_555
Ni0 Ni1 2.418025 1_555
Ni0 Ni3 2.418025 1_555
Ni0 Ni2 2.444851 1_545
Ni0 Ni1 2.444851 1_455
Ni0 Ni3 2.444851 1_554
Ni1 Ni2 2.418025 1_555
Ni1 Ni3 2.418025 1_555
Ni1 Ni2 2.444851 1_645
Ni1 Ni3 2.444851 1_654
Ni2 Ni3 2.418025 1_555
Ni2 Ni3 2.444851 1_564
