# generated using pymatgen
data_TaCuS3
_symmetry_space_group_name_H-M   'P 1'
_cell_length_a   3.51188539
_cell_length_b   9.52958893
_cell_length_c   11.89053138
_cell_angle_alpha   90.00000000
_cell_angle_beta   90.00000000
_cell_angle_gamma   90.00000000
_symmetry_Int_Tables_number   1
_chemical_formula_structural   TaCuS3
_chemical_formula_sum   'Ta4 Cu4 S12'
_cell_volume   397.93832258
_cell_formula_units_Z   4
loop_
 _symmetry_equiv_pos_site_id
 _symmetry_equiv_pos_as_xyz
  1  'x, y, z'
loop_
 _atom_site_type_symbol
 _atom_site_label
 _atom_site_symmetry_multiplicity
 _atom_site_fract_x
 _atom_site_fract_y
 _atom_site_fract_z
 _atom_site_occupancy
  Ta  Ta0  1  0.75000000  0.60659369  0.63179909  1
  Ta  Ta1  1  0.25000000  0.39340631  0.36820091  1
  Ta  Ta2  1  0.75000000  0.10659369  0.86820091  1
  Ta  Ta3  1  0.25000000  0.89340631  0.13179909  1
  Cu  Cu0  1  0.75000000  0.77133074  0.28559193  1
  Cu  Cu1  1  0.25000000  0.72866926  0.78559193  1
  Cu  Cu2  1  0.75000000  0.27133074  0.21440807  1
  Cu  Cu3  1  0.25000000  0.22866926  0.71440807  1
  S  S0  1  0.75000000  0.08066795  0.09859573  1
  S  S1  1  0.25000000  0.91604646  0.32298620  1
  S  S2  1  0.75000000  0.08395354  0.67701380  1
  S  S3  1  0.25000000  0.41604646  0.17701380  1
  S  S4  1  0.75000000  0.72261941  0.09877740  1
  S  S5  1  0.25000000  0.27738059  0.90122260  1
  S  S6  1  0.75000000  0.22261941  0.40122260  1
  S  S7  1  0.25000000  0.77738059  0.59877740  1
  S  S8  1  0.75000000  0.58066795  0.40140427  1
  S  S9  1  0.25000000  0.41933205  0.59859573  1
  S  S10  1  0.25000000  0.91933205  0.90140427  1
  S  S11  1  0.75000000  0.58395354  0.82298620  1
loop_
_geom_bond_atom_site_label_1
_geom_bond_atom_site_label_2
_geom_bond_distance
_geom_bond_site_symmetry_2
Cu0 S4 2.269309 1_555
Cu0 S1 2.276599 1_655
Cu0 S1 2.276599 1_555
Cu0 S8 2.279822 1_555
Cu0 Ta3 2.789397 1_555
Cu0 Ta3 2.789397 1_655
Cu1 S7 2.269309 1_555
Cu1 S11 2.276599 1_455
Cu1 S11 2.276599 1_555
Cu1 S10 2.279822 1_555
Cu1 Ta0 2.789397 1_455
Cu1 Ta0 2.789397 1_555
Cu2 S6 2.269309 1_555
Cu2 S3 2.276599 1_555
Cu2 S3 2.276599 1_655
Cu2 S0 2.279822 1_555
Cu2 Ta1 2.789397 1_655
Cu2 Ta1 2.789397 1_555
Cu3 S5 2.269309 1_555
Cu3 S2 2.276599 1_555
Cu3 S2 2.276599 1_455
Cu3 S9 2.279822 1_555
Cu3 Ta2 2.789397 1_455
Cu3 Ta2 2.789397 1_555
S0 Ta3 2.534510 1_545
S0 Ta3 2.534510 1_645
S0 Ta2 2.750635 1_554
S1 Ta3 2.283531 1_555
S2 Ta2 2.283531 1_555
S3 Ta1 2.283531 1_555
S4 Ta3 2.426181 1_655
S4 Ta3 2.426181 1_555
S5 Ta2 2.426181 1_455
S5 Ta2 2.426181 1_555
S6 Ta1 2.426181 1_555
S6 Ta1 2.426181 1_655
S7 Ta0 2.426181 1_455
S7 Ta0 2.426181 1_555
S8 Ta1 2.534510 1_555
S8 Ta1 2.534510 1_655
S8 Ta0 2.750635 1_555
S9 Ta0 2.534510 1_455
S9 Ta0 2.534510 1_555
S9 Ta1 2.750635 1_555
S10 Ta2 2.534510 1_465
S10 Ta2 2.534510 1_565
S10 Ta3 2.750635 1_556
S11 Ta0 2.283531 1_555
