# generated using pymatgen
data_Ga2Ge(O2F)2
_symmetry_space_group_name_H-M   'P 1'
_cell_length_a   4.85916815
_cell_length_b   8.80151017
_cell_length_c   9.23908342
_cell_angle_alpha   90.00000000
_cell_angle_beta   90.00000000
_cell_angle_gamma   90.00000000
_symmetry_Int_Tables_number   1
_chemical_formula_structural   Ga2Ge(O2F)2
_chemical_formula_sum   'Ga8 Ge4 O16 F8'
_cell_volume   395.13728498
_cell_formula_units_Z   4
loop_
 _symmetry_equiv_pos_site_id
 _symmetry_equiv_pos_as_xyz
  1  'x, y, z'
loop_
 _atom_site_type_symbol
 _atom_site_label
 _atom_site_symmetry_multiplicity
 _atom_site_fract_x
 _atom_site_fract_y
 _atom_site_fract_z
 _atom_site_occupancy
  Ga  Ga0  1  0.40275556  0.91641200  0.12907466  1
  Ga  Ga1  1  0.59724444  0.08358800  0.87092534  1
  Ga  Ga2  1  0.90275556  0.41641200  0.37092534  1
  Ga  Ga3  1  0.09724444  0.58358800  0.62907466  1
  Ga  Ga4  1  0.40275556  0.58358800  0.12907466  1
  Ga  Ga5  1  0.90275556  0.08358800  0.37092534  1
  Ga  Ga6  1  0.09724444  0.91641200  0.62907466  1
  Ga  Ga7  1  0.59724444  0.41641200  0.87092534  1
  Ge  Ge0  1  0.60245493  0.75000000  0.43832036  1
  Ge  Ge1  1  0.89754507  0.75000000  0.93832036  1
  Ge  Ge2  1  0.10245493  0.25000000  0.06167964  1
  Ge  Ge3  1  0.39754507  0.25000000  0.56167964  1
  O  O0  1  0.71345970  0.91360318  0.99171405  1
  O  O1  1  0.78654030  0.91360318  0.49171405  1
  O  O2  1  0.78654030  0.58639682  0.49171405  1
  O  O3  1  0.21669905  0.75000000  0.02854015  1
  O  O4  1  0.28654030  0.08639682  0.00828595  1
  O  O5  1  0.28654030  0.41360318  0.00828595  1
  O  O6  1  0.95417656  0.75000000  0.74912291  1
  O  O7  1  0.28330095  0.75000000  0.52854015  1
  O  O8  1  0.21345970  0.08639682  0.50828595  1
  O  O9  1  0.54582344  0.75000000  0.24912291  1
  O  O10  1  0.78330095  0.25000000  0.97145985  1
  O  O11  1  0.21345970  0.41360318  0.50828595  1
  O  O12  1  0.71345970  0.58639682  0.99171405  1
  O  O13  1  0.71669905  0.25000000  0.47145985  1
  O  O14  1  0.04582344  0.25000000  0.25087709  1
  O  O15  1  0.45417656  0.25000000  0.75087709  1
  F  F0  1  0.08518471  0.93851030  0.24968106  1
  F  F1  1  0.08518471  0.56148970  0.24968106  1
  F  F2  1  0.91481529  0.43851030  0.75031894  1
  F  F3  1  0.41481529  0.93851030  0.74968106  1
  F  F4  1  0.58518471  0.06148970  0.25031894  1
  F  F5  1  0.58518471  0.43851030  0.25031894  1
  F  F6  1  0.41481529  0.56148970  0.74968106  1
  F  F7  1  0.91481529  0.06148970  0.75031894  1
loop_
_geom_bond_atom_site_label_1
_geom_bond_atom_site_label_2
_geom_bond_distance
_geom_bond_site_symmetry_2
Ga0 O4 1.950048 1_565
Ga0 O3 1.955862 1_555
Ga0 O9 1.964370 1_555
Ga0 O0 1.972455 1_554
Ga1 O0 1.950048 1_545
Ga1 O10 1.955862 1_555
Ga1 O15 1.964370 1_555
Ga1 O4 1.972455 1_556
Ga2 O2 1.950048 1_555
Ga2 O13 1.955862 1_555
Ga2 O14 1.964370 1_655
Ga2 O11 1.972455 1_655
Ga3 O11 1.950048 1_555
Ga3 O7 1.955862 1_555
Ga3 O6 1.964370 1_455
Ga3 O2 1.972455 1_455
Ga4 O5 1.950048 1_555
Ga4 O3 1.955862 1_555
Ga4 O9 1.964370 1_555
Ga4 O12 1.972455 1_554
Ga5 O1 1.950048 1_545
Ga5 O13 1.955862 1_555
Ga5 O14 1.964370 1_655
Ga5 O8 1.972455 1_655
Ga6 O8 1.950048 1_565
Ga6 O7 1.955862 1_555
Ga6 O6 1.964370 1_455
Ga6 O1 1.972455 1_455
Ga7 O12 1.950048 1_555
Ga7 O10 1.955862 1_555
Ga7 O15 1.964370 1_555
Ga7 O5 1.972455 1_556
Ge0 O7 1.760640 1_555
Ge0 O1 1.765491 1_555
Ge0 O2 1.765491 1_555
Ge0 O9 1.769539 1_555
Ge1 O3 1.760640 1_656
Ge1 O0 1.765491 1_555
Ge1 O12 1.765491 1_555
Ge1 O6 1.769539 1_555
Ge2 O10 1.760640 1_454
Ge2 O5 1.765491 1_555
Ge2 O4 1.765491 1_555
Ge2 O14 1.769539 1_555
Ge3 O13 1.760640 1_555
Ge3 O11 1.765491 1_555
Ge3 O8 1.765491 1_555
Ge3 O15 1.769539 1_555
F0 Ga0 1.913303 1_555
F0 Ga5 1.916011 1_465
F0 F4 2.659796 1_465
F0 F4 2.659796 1_565
F0 O1 2.674763 1_455
F1 Ga4 1.913303 1_555
F1 Ga2 1.916011 1_455
F1 F5 2.659796 1_455
F1 F5 2.659796 1_555
F1 O2 2.674763 1_455
F2 Ga7 1.913303 1_555
F2 Ga3 1.916011 1_655
F2 F6 2.659796 1_655
F2 F6 2.659796 1_555
F2 O11 2.674763 1_655
F3 Ga6 1.913303 1_555
F3 Ga1 1.916011 1_565
F3 F7 2.659796 1_565
F3 F7 2.659796 1_465
F3 O0 2.674763 1_555
F4 Ga5 1.913303 1_555
F4 Ga0 1.916011 1_545
F4 O4 2.674763 1_555
F5 Ga2 1.913303 1_555
F5 Ga4 1.916011 1_555
F5 O5 2.674763 1_555
F6 Ga3 1.913303 1_555
F6 Ga7 1.916011 1_555
F6 O12 2.674763 1_555
F7 Ga1 1.913303 1_555
F7 Ga6 1.916011 1_645
F7 O8 2.674763 1_655
