# generated using pymatgen
data_Ti6In4CCl18
_symmetry_space_group_name_H-M   'P 1'
_cell_length_a   9.38313505
_cell_length_b   9.85761334
_cell_length_c   9.79884033
_cell_angle_alpha   118.49139317
_cell_angle_beta   99.94924863
_cell_angle_gamma   104.65309016
_symmetry_Int_Tables_number   1
_chemical_formula_structural   Ti6In4CCl18
_chemical_formula_sum   'Ti6 In4 C1 Cl18'
_cell_volume   723.32158270
_cell_formula_units_Z   1
loop_
 _symmetry_equiv_pos_site_id
 _symmetry_equiv_pos_as_xyz
  1  'x, y, z'
loop_
 _atom_site_type_symbol
 _atom_site_label
 _atom_site_symmetry_multiplicity
 _atom_site_fract_x
 _atom_site_fract_y
 _atom_site_fract_z
 _atom_site_occupancy
  Ti  Ti0  1  0.35018141  0.44479184  0.77460281  1
  Ti  Ti1  1  0.36237467  0.62168294  0.12952958  1
  Ti  Ti2  1  0.64702726  0.73146033  0.04460850  1
  Ti  Ti3  1  0.64981859  0.55520816  0.22539719  1
  Ti  Ti4  1  0.35297274  0.26853967  0.95539150  1
  Ti  Ti5  1  0.63762533  0.37831706  0.87047042  1
  In  In0  1  0.18632269  0.72330487  0.55761556  1
  In  In1  1  0.83852199  0.96151476  0.77097245  1
  In  In2  1  0.16147801  0.03848524  0.22902755  1
  In  In3  1  0.81367731  0.27669513  0.44238444  1
  C  C0  1  0.50000000  0.50000000  0.00000000  1
  Cl  Cl0  1  0.81727095  0.42566372  0.10813378  1
  Cl  Cl1  1  0.51534354  0.69703318  0.39733059  1
  Cl  Cl2  1  0.17241968  0.99033204  0.89832037  1
  Cl  Cl3  1  0.18272905  0.57433628  0.89186622  1
  Cl  Cl4  1  0.82972830  0.82279276  0.30401575  1
  Cl  Cl5  1  0.50153706  0.30374631  0.20354495  1
  Cl  Cl6  1  0.79680104  0.23503253  0.71804131  1
  Cl  Cl7  1  0.17027170  0.17720724  0.69598425  1
  Cl  Cl8  1  0.51078502  0.89400591  0.19152908  1
  Cl  Cl9  1  0.81675737  0.62443075  0.90685067  1
  Cl  Cl10  1  0.20319896  0.76496747  0.28195869  1
  Cl  Cl11  1  0.16523600  0.37569697  0.50404412  1
  Cl  Cl12  1  0.49846294  0.69625369  0.79645505  1
  Cl  Cl13  1  0.82758032  0.00966796  0.10167963  1
  Cl  Cl14  1  0.48465646  0.30296682  0.60266941  1
  Cl  Cl15  1  0.18324263  0.37556925  0.09314933  1
  Cl  Cl16  1  0.83476400  0.62430303  0.49595588  1
  Cl  Cl17  1  0.48921498  0.10599409  0.80847092  1
loop_
_geom_bond_atom_site_label_1
_geom_bond_atom_site_label_2
_geom_bond_distance
_geom_bond_site_symmetry_2
C0 Ti3 2.131600 1_555
C0 Ti0 2.131600 1_554
C0 Ti2 2.132556 1_555
C0 Ti4 2.132556 1_554
C0 Ti1 2.148239 1_555
C0 Ti5 2.148239 1_554
Cl0 Ti3 2.378838 1_555
Cl0 Ti5 2.385612 1_554
Cl0 Cl16 3.290172 1_555
Cl0 Cl6 3.300002 1_554
Cl0 Cl17 3.341961 1_554
Cl0 Cl5 3.364965 1_555
Cl1 Ti3 2.401040 1_555
Cl1 Ti1 2.407799 1_555
Cl1 Cl10 3.297784 1_555
Cl1 Cl16 3.343390 1_555
Cl1 Cl4 3.352351 1_555
Cl1 Cl5 3.360071 1_555
Cl1 Cl15 3.379287 1_555
Cl1 In1 3.529080 1_555
Cl1 In0 3.709035 1_555
Cl2 Ti4 2.561792 1_565
Cl2 In1 3.051912 1_455
Cl2 In2 3.067424 1_566
Cl2 In0 3.167273 1_555
Cl2 Cl7 3.288517 1_565
Cl2 Cl5 3.345538 1_566
Cl3 Ti0 2.378838 1_555
Cl3 Ti1 2.385612 1_556
Cl3 Cl8 3.341961 1_556
Cl4 Ti2 2.395962 1_555
Cl4 Ti3 2.400006 1_555
Cl4 Cl8 3.365285 1_555
Cl4 In2 3.699046 1_665
Cl5 Ti4 2.399008 1_554
Cl5 Ti3 2.402492 1_555
Cl5 In3 3.570501 1_555
Cl5 In2 3.709189 1_555
Cl6 Ti5 2.506412 1_555
Cl6 In3 2.943305 1_555
Cl6 In1 3.080579 1_545
Cl6 Cl9 3.306593 1_555
Cl7 Ti4 2.395962 1_555
Cl7 Ti0 2.400006 1_555
Cl7 In1 3.699046 1_445
Cl8 Ti2 2.397032 1_555
Cl8 Ti1 2.403126 1_555
Cl8 In3 3.415466 1_565
Cl8 In2 3.896746 1_565
Cl9 Ti2 2.388700 1_556
Cl9 Ti5 2.396432 1_555
Cl9 In2 3.819271 1_666
Cl10 Ti1 2.506412 1_555
Cl10 In0 2.943305 1_555
Cl10 In2 3.080579 1_565
Cl10 Cl8 3.291594 1_555
Cl10 Cl3 3.300002 1_554
Cl10 Cl15 3.306593 1_555
Cl11 Ti0 2.567783 1_555
Cl11 In3 3.052710 1_455
Cl11 In2 3.110401 1_555
Cl11 In0 3.156135 1_555
Cl11 Cl3 3.290172 1_555
Cl11 Cl7 3.300762 1_555
Cl11 Cl14 3.343390 1_555
Cl11 Cl12 3.352428 1_555
Cl12 Ti2 2.399008 1_556
Cl12 Ti0 2.402492 1_555
Cl12 Cl13 3.345538 1_566
Cl12 Cl9 3.357876 1_555
Cl12 Cl14 3.360071 1_555
Cl12 Cl3 3.364965 1_555
Cl12 Cl8 3.366248 1_556
Cl12 In0 3.570501 1_555
Cl12 In1 3.709189 1_555
Cl13 Ti2 2.561792 1_545
Cl13 In2 3.051912 1_655
Cl13 In1 3.067424 1_544
Cl13 In3 3.167273 1_555
Cl13 Cl4 3.288517 1_545
Cl13 Cl9 3.301103 1_544
Cl13 Cl8 3.325416 1_545
Cl14 Ti0 2.401040 1_555
Cl14 Ti5 2.407799 1_555
Cl14 Cl6 3.297784 1_555
Cl14 Cl7 3.352351 1_555
Cl14 Cl9 3.379287 1_555
Cl14 In2 3.529080 1_555
Cl14 In3 3.709035 1_555
Cl15 Ti4 2.388700 1_554
Cl15 Ti1 2.396432 1_555
Cl15 Cl2 3.301103 1_544
Cl15 Cl5 3.357876 1_555
Cl15 In1 3.819271 1_444
Cl16 Ti3 2.567783 1_555
Cl16 In0 3.052710 1_655
Cl16 In1 3.110401 1_555
Cl16 In3 3.156135 1_555
Cl16 Cl4 3.300762 1_555
Cl16 Cl5 3.352428 1_555
Cl17 Ti4 2.397032 1_555
Cl17 Ti5 2.403126 1_555
Cl17 Cl6 3.291594 1_555
Cl17 Cl2 3.325416 1_545
Cl17 Cl7 3.365285 1_555
Cl17 Cl5 3.366248 1_556
Cl17 In0 3.415466 1_545
Cl17 In1 3.896746 1_545
