# generated using pymatgen
data_K(FeAs)2
_symmetry_space_group_name_H-M   'P 1'
_cell_length_a   7.23107729
_cell_length_b   7.23107567
_cell_length_c   15.74424530
_cell_angle_alpha   103.31531214
_cell_angle_beta   103.31528991
_cell_angle_gamma   90.03943512
_symmetry_Int_Tables_number   1
_chemical_formula_structural   K(FeAs)2
_chemical_formula_sum   'K8 Fe16 As16'
_cell_volume   778.31967153
_cell_formula_units_Z   8
loop_
 _symmetry_equiv_pos_site_id
 _symmetry_equiv_pos_as_xyz
  1  'x, y, z'
loop_
 _atom_site_type_symbol
 _atom_site_label
 _atom_site_symmetry_multiplicity
 _atom_site_fract_x
 _atom_site_fract_y
 _atom_site_fract_z
 _atom_site_occupancy
  K  K0_0  1  0.00000000  0.00000000  0.00000000  1
  K  K0_1  1  0.00000000  0.00000000  0.50000000  1
  K  K0_2  1  0.00000000  0.50000000  0.00000000  1
  K  K0_3  1  0.00000000  0.50000000  0.50000000  1
  K  K0_4  1  0.50000000  0.00000000  0.00000000  1
  K  K0_5  1  0.50000000  0.00000000  0.50000000  1
  K  K0_6  1  0.50000000  0.50000000  0.00000000  1
  K  K0_7  1  0.50000000  0.50000000  0.50000000  1
  Fe  Fe0_0  1  0.12515926  0.37484074  0.25000000  1
  Fe  Fe0_1  1  0.12515926  0.37484074  0.75000000  1
  Fe  Fe0_2  1  0.12515926  0.87484074  0.25000000  1
  Fe  Fe0_3  1  0.12515926  0.87484074  0.75000000  1
  Fe  Fe0_4  1  0.62515926  0.37484074  0.25000000  1
  Fe  Fe0_5  1  0.62515926  0.37484074  0.75000000  1
  Fe  Fe0_6  1  0.62515926  0.87484074  0.25000000  1
  Fe  Fe0_7  1  0.62515926  0.87484074  0.75000000  1
  Fe  Fe1_0  1  0.37484074  0.12515926  0.25000000  1
  Fe  Fe1_1  1  0.37484074  0.12515926  0.75000000  1
  Fe  Fe1_2  1  0.37484074  0.62515926  0.25000000  1
  Fe  Fe1_3  1  0.37484074  0.62515926  0.75000000  1
  Fe  Fe1_4  1  0.87484074  0.12515926  0.25000000  1
  Fe  Fe1_5  1  0.87484074  0.12515926  0.75000000  1
  Fe  Fe1_6  1  0.87484074  0.62515926  0.25000000  1
  Fe  Fe1_7  1  0.87484074  0.62515926  0.75000000  1
  As  As0_0  1  0.32295166  0.32295166  0.14577859  1
  As  As0_1  1  0.32295166  0.32295165  0.64577859  1
  As  As0_2  1  0.32295166  0.82295166  0.14577859  1
  As  As0_3  1  0.32295166  0.82295166  0.64577859  1
  As  As0_4  1  0.82295166  0.32295166  0.14577859  1
  As  As0_5  1  0.82295166  0.32295166  0.64577859  1
  As  As0_6  1  0.82295166  0.82295166  0.14577859  1
  As  As0_7  1  0.82295166  0.82295166  0.64577859  1
  As  As1_0  1  0.17704834  0.17704835  0.35422141  1
  As  As1_1  1  0.17704835  0.17704835  0.85422141  1
  As  As1_2  1  0.17704834  0.67704834  0.35422141  1
  As  As1_3  1  0.17704835  0.67704834  0.85422141  1
  As  As1_4  1  0.67704835  0.17704835  0.35422141  1
  As  As1_5  1  0.67704834  0.17704835  0.85422141  1
  As  As1_6  1  0.67704835  0.67704834  0.35422141  1
  As  As1_7  1  0.67704835  0.67704834  0.85422141  1
loop_
_geom_bond_atom_site_label_1
_geom_bond_atom_site_label_2
_geom_bond_distance
_geom_bond_site_symmetry_2
K0_0 K0_2 3.615538 1_555
K0_0 K0_2 3.615538 1_545
K0_0 K0_4 3.615539 1_455
K0_0 K0_4 3.615539 1_555
K0_1 K0_3 3.615538 1_555
K0_1 K0_3 3.615538 1_545
K0_1 K0_5 3.615539 1_455
K0_1 K0_5 3.615539 1_555
K0_2 K0_6 3.615539 1_455
K0_2 K0_6 3.615539 1_555
K0_3 K0_7 3.615539 1_455
K0_3 K0_7 3.615539 1_555
K0_4 K0_6 3.615538 1_545
K0_4 K0_6 3.615538 1_555
K0_5 K0_7 3.615538 1_555
K0_5 K0_7 3.615538 1_545
Fe0_0 Fe1_0 2.554193 1_555
Fe0_0 Fe1_2 2.555694 1_555
Fe0_0 Fe1_4 2.555694 1_455
Fe0_0 Fe1_6 2.560710 1_455
Fe0_1 Fe1_1 2.554193 1_555
Fe0_1 Fe1_3 2.555694 1_555
Fe0_1 Fe1_5 2.555694 1_455
Fe0_1 Fe1_7 2.560710 1_455
Fe0_2 Fe1_2 2.554193 1_555
Fe0_2 Fe1_0 2.555694 1_565
Fe0_2 Fe1_6 2.555694 1_455
Fe0_2 Fe1_4 2.560710 1_465
Fe0_3 Fe1_3 2.554193 1_555
Fe0_3 Fe1_1 2.555694 1_565
Fe0_3 Fe1_7 2.555694 1_455
Fe0_3 Fe1_5 2.560710 1_465
Fe0_4 Fe1_4 2.554193 1_555
Fe0_4 Fe1_6 2.555694 1_555
Fe0_4 Fe1_0 2.555694 1_555
Fe0_4 Fe1_2 2.560710 1_555
Fe0_5 Fe1_5 2.554193 1_555
Fe0_5 Fe1_7 2.555694 1_555
Fe0_5 Fe1_1 2.555694 1_555
Fe0_5 Fe1_3 2.560710 1_555
Fe0_6 Fe1_6 2.554193 1_555
Fe0_6 Fe1_4 2.555694 1_565
Fe0_6 Fe1_2 2.555694 1_555
Fe0_6 Fe1_0 2.560710 1_565
Fe0_7 Fe1_7 2.554193 1_555
Fe0_7 Fe1_5 2.555694 1_565
Fe0_7 Fe1_3 2.555694 1_555
Fe0_7 Fe1_1 2.560710 1_565
As0_0 Fe1_2 2.381670 1_555
As0_0 Fe0_4 2.381671 1_555
As0_0 Fe0_0 2.382662 1_555
As0_0 Fe1_0 2.382662 1_555
As0_0 K0_0 3.351077 1_555
As0_0 K0_4 3.353977 1_555
As0_0 K0_2 3.353978 1_555
As0_0 K0_6 3.354193 1_555
As0_1 Fe1_3 2.381670 1_555
As0_1 Fe0_5 2.381671 1_555
As0_1 Fe0_1 2.382662 1_555
As0_1 Fe1_1 2.382662 1_555
As0_1 K0_1 3.351077 1_555
As0_1 K0_5 3.353977 1_555
As0_1 K0_3 3.353978 1_555
As0_1 K0_7 3.354193 1_555
As0_2 Fe1_0 2.381670 1_565
As0_2 Fe0_6 2.381671 1_555
As0_2 Fe0_2 2.382662 1_555
As0_2 Fe1_2 2.382662 1_555
As0_2 K0_2 3.351077 1_555
As0_2 K0_6 3.353977 1_555
As0_2 K0_0 3.353978 1_565
As0_2 K0_4 3.354193 1_565
As0_3 Fe1_1 2.381670 1_565
As0_3 Fe0_7 2.381671 1_555
As0_3 Fe0_3 2.382662 1_555
As0_3 Fe1_3 2.382662 1_555
As0_3 K0_3 3.351077 1_555
As0_3 K0_7 3.353977 1_555
As0_3 K0_1 3.353978 1_565
As0_3 K0_5 3.354193 1_565
As0_4 Fe1_6 2.381670 1_555
As0_4 Fe0_0 2.381671 1_655
As0_4 Fe0_4 2.382662 1_555
As0_4 Fe1_4 2.382662 1_555
As0_4 K0_4 3.351077 1_555
As0_4 K0_0 3.353977 1_655
As0_4 K0_6 3.353978 1_555
As0_4 K0_2 3.354193 1_655
As0_5 Fe1_7 2.381670 1_555
As0_5 Fe0_1 2.381671 1_655
As0_5 Fe0_5 2.382662 1_555
As0_5 Fe1_5 2.382662 1_555
As0_5 K0_5 3.351077 1_555
As0_5 K0_1 3.353977 1_655
As0_5 K0_7 3.353978 1_555
As0_5 K0_3 3.354193 1_655
As0_6 Fe1_4 2.381670 1_565
As0_6 Fe0_2 2.381671 1_655
As0_6 Fe0_6 2.382662 1_555
As0_6 Fe1_6 2.382662 1_555
As0_6 K0_6 3.351077 1_555
As0_6 K0_2 3.353977 1_655
As0_6 K0_4 3.353978 1_565
As0_6 K0_0 3.354193 1_665
As0_7 Fe1_5 2.381670 1_565
As0_7 Fe0_3 2.381671 1_655
As0_7 Fe0_7 2.382662 1_555
As0_7 Fe1_7 2.382662 1_555
As0_7 K0_7 3.351077 1_555
As0_7 K0_3 3.353977 1_655
As0_7 K0_5 3.353978 1_565
As0_7 K0_1 3.354193 1_665
As1_0 Fe0_2 2.381670 1_545
As1_0 Fe1_4 2.381671 1_455
As1_0 Fe1_0 2.382662 1_555
As1_0 Fe0_0 2.382662 1_555
As1_0 K0_7 3.351077 1_555
As1_0 K0_3 3.353977 1_555
As1_0 K0_5 3.353978 1_555
As1_0 K0_1 3.354193 1_555
As1_1 Fe0_3 2.381670 1_545
As1_1 Fe1_5 2.381671 1_455
As1_1 Fe1_1 2.382662 1_555
As1_1 Fe0_1 2.382662 1_555
As1_1 K0_6 3.351077 1_556
As1_1 K0_2 3.353977 1_556
As1_1 K0_4 3.353978 1_556
As1_1 K0_0 3.354193 1_556
As1_2 Fe0_0 2.381670 1_555
As1_2 Fe1_6 2.381671 1_455
As1_2 Fe1_2 2.382662 1_555
As1_2 Fe0_2 2.382662 1_555
As1_2 K0_5 3.351077 1_565
As1_2 K0_1 3.353977 1_565
As1_2 K0_7 3.353978 1_555
As1_2 K0_3 3.354193 1_555
As1_3 Fe0_1 2.381670 1_555
As1_3 Fe1_7 2.381671 1_455
As1_3 Fe1_3 2.382662 1_555
As1_3 Fe0_3 2.382662 1_555
As1_3 K0_4 3.351077 1_566
As1_3 K0_0 3.353977 1_566
As1_3 K0_6 3.353978 1_556
As1_3 K0_2 3.354193 1_556
As1_4 Fe0_6 2.381670 1_545
As1_4 Fe1_0 2.381671 1_555
As1_4 Fe1_4 2.382662 1_555
As1_4 Fe0_4 2.382662 1_555
As1_4 K0_3 3.351077 1_655
As1_4 K0_7 3.353977 1_555
As1_4 K0_1 3.353978 1_655
As1_4 K0_5 3.354193 1_555
As1_5 Fe0_7 2.381670 1_545
As1_5 Fe1_1 2.381671 1_555
As1_5 Fe1_5 2.382662 1_555
As1_5 Fe0_5 2.382662 1_555
As1_5 K0_2 3.351077 1_656
As1_5 K0_6 3.353977 1_556
As1_5 K0_0 3.353978 1_656
As1_5 K0_4 3.354193 1_556
As1_6 Fe0_4 2.381670 1_555
As1_6 Fe1_2 2.381671 1_555
As1_6 Fe1_6 2.382662 1_555
As1_6 Fe0_6 2.382662 1_555
As1_6 K0_1 3.351077 1_665
As1_6 K0_5 3.353977 1_565
As1_6 K0_3 3.353978 1_655
As1_6 K0_7 3.354193 1_555
As1_7 Fe0_5 2.381670 1_555
As1_7 Fe1_3 2.381671 1_555
As1_7 Fe1_7 2.382662 1_555
As1_7 Fe0_7 2.382662 1_555
As1_7 K0_0 3.351077 1_666
As1_7 K0_4 3.353977 1_566
As1_7 K0_2 3.353978 1_656
As1_7 K0_6 3.354193 1_556
