# generated using pymatgen
data_Ti8Al14GeOs7
_symmetry_space_group_name_H-M   'P 1'
_cell_length_a   8.62093935
_cell_length_b   8.62094600
_cell_length_c   8.62092311
_cell_angle_alpha   120.14728809
_cell_angle_beta   119.86241867
_cell_angle_gamma   89.99205075
_symmetry_Int_Tables_number   1
_chemical_formula_structural   Ti8Al14GeOs7
_chemical_formula_sum   'Ti8 Al14 Ge1 Os7'
_cell_volume   453.01440025
_cell_formula_units_Z   1
loop_
 _symmetry_equiv_pos_site_id
 _symmetry_equiv_pos_as_xyz
  1  'x, y, z'
loop_
 _atom_site_type_symbol
 _atom_site_label
 _atom_site_symmetry_multiplicity
 _atom_site_fract_x
 _atom_site_fract_y
 _atom_site_fract_z
 _atom_site_occupancy
  Ti  Ti0  1  0.79514146  0.28675226  0.07168023  1
  Ti  Ti1  1  0.21506690  0.28675079  0.49160593  1
  Ti  Ti2  1  0.21071260  0.71071210  0.50000288  1
  Ti  Ti3  1  0.21507373  0.72346584  0.92832220  1
  Ti  Ti4  1  0.79514114  0.72346023  0.50838783  1
  Ti  Ti5  1  0.77961012  0.27960907  0.49999886  1
  Ti  Ti6  1  0.37936129  0.12076078  0.74139925  1
  Ti  Ti7  1  0.37936039  0.63796261  0.25859989  1
  Al  Al0  1  0.16076685  0.33911277  0.17834226  1
  Al  Al1  1  0.16076820  0.98242587  0.82165761  1
  Al  Al2  1  0.15612247  0.34301801  0.81310808  1
  Al  Al3  1  0.52990959  0.34301303  0.18689084  1
  Al  Al4  1  0.84161177  0.65650633  0.81489883  1
  Al  Al5  1  0.84161069  0.02671255  0.18510365  1
  Al  Al6  1  0.83950346  0.65819479  0.18130411  1
  Al  Al7  1  0.47688943  0.65819617  0.81869438  1
  Al  Al8  1  0.38003749  0.12039899  0.25963594  1
  Al  Al9  1  0.86076359  0.12040074  0.74036565  1
  Al  Al10  1  0.61936415  0.87632633  0.25695934  1
  Al  Al11  1  0.61936515  0.36240335  0.74303861  1
  Al  Al12  1  0.61980985  0.87829950  0.74151034  1
  Al  Al13  1  0.13678999  0.87829947  0.25849037  1
  Ge  Ge0  1  0.99575485  0.49575561  0.50000189  1
  Os  Os0  1  0.99865032  0.99873765  0.50050854  1
  Os  Os1  1  0.49822575  0.99873558  0.00008648  1
  Os  Os2  1  0.49859273  0.49858877  0.00000081  1
  Os  Os3  1  0.49822978  0.49814143  0.49948973  1
  Os  Os4  1  0.99864883  0.49813915  0.99991069  1
  Os  Os5  1  0.99987775  0.99987706  0.00000107  1
  Os  Os6  1  0.49923868  0.99924218  0.50000371  1
loop_
_geom_bond_atom_site_label_1
_geom_bond_atom_site_label_2
_geom_bond_distance
_geom_bond_site_symmetry_2
Ti0 Ti6 2.957754 1_554
Ti1 Ti6 2.957788 1_555
Ti2 Ti6 2.922327 1_565
Ti2 Ti7 2.922344 1_555
Ti3 Ti7 2.957762 1_556
Ti4 Ti7 2.957765 1_555
Al0 Os4 2.485123 1_454
Al0 Os3 2.485144 1_555
Al0 Os5 2.490310 1_445
Al0 Ti7 2.753192 1_555
Al0 Al9 2.761579 1_454
Al0 Al8 2.761646 1_555
Al0 Ti1 2.771601 1_555
Al0 Ti0 2.771601 1_455
Al0 Ti2 2.833024 1_555
Al0 Al1 3.068122 1_544
Al0 Al2 3.146061 1_554
Al0 Al3 3.146100 1_555
Al1 Os1 2.485125 1_556
Al1 Os0 2.485142 1_455
Al1 Os5 2.490301 1_456
Al1 Ti6 2.753200 1_565
Al1 Al8 2.761595 1_566
Al1 Al9 2.761615 1_465
Al1 Ti3 2.771592 1_555
Al1 Ti4 2.771607 1_455
Al1 Ti2 2.833021 1_555
Al1 Al3 3.146051 1_566
Al1 Al2 3.146090 1_565
Al2 Os2 2.490969 1_556
Al2 Os4 2.497647 1_455
Al2 Os0 2.497670 1_445
Al2 Ti7 2.784065 1_556
Al2 Ti6 2.784111 1_555
Al2 Al9 2.786093 1_455
Al2 Ti5 2.813189 1_455
Al2 Ti1 2.868379 1_555
Al2 Ti3 2.868388 1_555
Al3 Os2 2.490951 1_555
Al3 Os1 2.497651 1_545
Al3 Os3 2.497663 1_555
Al3 Ti6 2.784064 1_554
Al3 Ti7 2.784129 1_555
Al3 Al8 2.786084 1_555
Al3 Ti5 2.813191 1_555
Al3 Ti0 2.868353 1_555
Al3 Ti4 2.868367 1_555
Al4 Os5 2.501777 1_556
Al4 Os4 2.505426 1_555
Al4 Os3 2.505440 1_555
Al4 Ti5 2.812174 1_555
Al4 Ti3 2.820216 1_655
Al4 Ti4 2.820234 1_555
Al4 Al6 3.160577 1_556
Al4 Al7 3.160625 1_555
Al4 Al5 3.184414 1_566
Al5 Os5 2.501774 1_545
Al5 Os0 2.505426 1_545
Al5 Os1 2.505462 1_545
Al5 Ti5 2.812162 1_555
Al5 Ti1 2.820172 1_655
Al5 Ti0 2.820229 1_555
Al5 Al7 3.160599 1_544
Al5 Al6 3.160609 1_545
Al6 Os4 2.490049 1_554
Al6 Os0 2.490068 1_555
Al6 Os2 2.498041 1_555
Al6 Ti0 2.809642 1_555
Al6 Ti4 2.809655 1_555
Al6 Ti2 2.826633 1_655
Al6 Al7 3.132557 1_554
Al7 Os1 2.490056 1_556
Al7 Os3 2.490084 1_555
Al7 Os2 2.498058 1_556
Al7 Ti3 2.809641 1_555
Al7 Ti1 2.809658 1_555
Al7 Ti2 2.826614 1_555
Al8 Os6 2.548348 1_545
Al8 Os1 2.656620 1_545
Al8 Os3 2.656651 1_555
Al8 Os5 2.681474 1_445
Al8 Ti3 2.833578 1_544
Al8 Ti1 2.833643 1_555
Al8 Ti5 2.842518 1_555
Al9 Os6 2.548345 1_545
Al9 Os4 2.656621 1_555
Al9 Os0 2.656664 1_545
Al9 Os5 2.681475 1_546
Al9 Ti0 2.833605 1_556
Al9 Ti4 2.833635 1_545
Al9 Ti5 2.842543 1_555
Al10 Os6 2.552614 1_555
Al10 Os2 2.655936 1_555
Al10 Os1 2.674350 1_555
Al10 Os0 2.674374 1_555
Al10 Al7 2.750042 1_554
Al10 Al6 2.750097 1_555
Al10 Al5 2.779360 1_565
Al10 Ti5 2.861429 1_565
Al10 Ti3 2.885962 1_554
Al10 Ti4 2.886004 1_555
Al10 Ti7 2.926331 1_555
Al10 Al8 2.946564 1_565
Al10 Al9 2.946586 1_565
Al11 Os6 2.552550 1_545
Al11 Os2 2.655918 1_556
Al11 Os4 2.674355 1_555
Al11 Os3 2.674385 1_555
Al11 Al6 2.750045 1_556
Al11 Al7 2.750082 1_555
Al11 Al4 2.779364 1_555
Al11 Ti5 2.861447 1_555
Al11 Ti0 2.885987 1_556
Al11 Ti1 2.886024 1_555
Al11 Ti6 2.926325 1_555
Al11 Al8 2.946564 1_555
Al11 Al9 2.946575 1_555
Al12 Os6 2.554864 1_555
Al12 Os3 2.673478 1_555
Al12 Os1 2.673496 1_556
Al12 Os5 2.680285 1_556
Al12 Al7 2.765255 1_555
Al12 Al5 2.778805 1_566
Al12 Al4 2.778834 1_555
Al12 Ti0 2.904372 1_566
Al12 Ti4 2.904387 1_555
Al12 Ti2 2.920304 1_555
Al12 Ti7 2.943593 1_555
Al12 Ti6 2.943610 1_565
Al12 Al9 2.951867 1_565
Al13 Os6 2.554853 1_555
Al13 Os0 2.673480 1_455
Al13 Os4 2.673493 1_454
Al13 Os5 2.680284 1_455
Al13 Al6 2.765236 1_455
Al13 Al4 2.778790 1_454
Al13 Al5 2.778815 1_465
Al13 Ti3 2.904370 1_554
Al13 Ti1 2.904375 1_565
Al13 Ti2 2.920328 1_555
Al13 Ti6 2.943583 1_565
Al13 Ti7 2.943595 1_555
Al13 Al8 2.951878 1_565
Ge0 Ti1 2.613577 1_655
Ge0 Ti3 2.613580 1_655
Ge0 Ti4 2.613585 1_555
Ge0 Ti0 2.613588 1_555
Ge0 Ti2 2.620902 1_655
Ge0 Ti5 2.635380 1_555
Os0 Ti6 2.685234 1_665
Os0 Ti4 2.999379 1_555
Os0 Ti5 3.070837 1_565
Os0 Ti2 3.082791 1_655
Os0 Ti1 3.160236 1_665
Os1 Ti6 2.685251 1_564
Os1 Ti3 2.999323 1_554
Os1 Ti5 3.070822 1_565
Os1 Ti2 3.082738 1_554
Os1 Ti0 3.160269 1_565
Os2 Ti6 2.657303 1_554
Os2 Ti7 2.657331 1_555
Os2 Ti4 3.132371 1_555
Os2 Ti0 3.132384 1_555
Os2 Ti1 3.132428 1_554
Os2 Ti3 3.132450 1_554
Os3 Ti7 2.685241 1_555
Os3 Ti1 2.999405 1_555
Os3 Ti5 3.070842 1_555
Os3 Ti2 3.082792 1_555
Os3 Ti4 3.160229 1_555
Os4 Ti7 2.685238 1_656
Os4 Ti0 2.999368 1_556
Os4 Ti5 3.070819 1_555
Os4 Ti2 3.082795 1_656
Os4 Ti3 3.160276 1_655
Os5 Ti1 3.027057 1_665
Os5 Ti3 3.027088 1_654
Os5 Ti4 3.027105 1_554
Os5 Ti0 3.027114 1_565
Os6 Ti6 2.539269 1_565
Os6 Ti7 2.539313 1_555
