# generated using pymatgen
data_Lu12Co4AgBi
_symmetry_space_group_name_H-M   'P 1'
_cell_length_a   8.14689348
_cell_length_b   8.14689324
_cell_length_c   8.14689312
_cell_angle_alpha   109.85935443
_cell_angle_beta   111.10344087
_cell_angle_gamma   107.47170277
_symmetry_Int_Tables_number   1
_chemical_formula_structural   Lu12Co4AgBi
_chemical_formula_sum   'Lu12 Co4 Ag1 Bi1'
_cell_volume   415.82049411
_cell_formula_units_Z   1
loop_
 _symmetry_equiv_pos_site_id
 _symmetry_equiv_pos_as_xyz
  1  'x, y, z'
loop_
 _atom_site_type_symbol
 _atom_site_label
 _atom_site_symmetry_multiplicity
 _atom_site_fract_x
 _atom_site_fract_y
 _atom_site_fract_z
 _atom_site_occupancy
  Lu  Lu0  1  0.28889034  0.18393620  0.47282554  1
  Lu  Lu1  1  0.71110966  0.81606380  0.52717446  1
  Lu  Lu2  1  0.28889034  0.81606380  0.10495514  1
  Lu  Lu3  1  0.71110966  0.18393620  0.89504486  1
  Lu  Lu4  1  0.61647047  0.31231297  0.30415750  1
  Lu  Lu5  1  0.38352953  0.68768703  0.69584250  1
  Lu  Lu6  1  0.00815547  0.31231297  0.69584250  1
  Lu  Lu7  1  0.99184453  0.68768703  0.30415750  1
  Lu  Lu8  1  0.21668447  0.42811842  0.21143595  1
  Lu  Lu9  1  0.78331553  0.57188158  0.78856405  1
  Lu  Lu10  1  0.21668447  0.00524852  0.78856405  1
  Lu  Lu11  1  0.78331553  0.99475148  0.21143595  1
  Co  Co0  1  0.00000000  0.38172199  0.38172199  1
  Co  Co1  1  1.00000000  0.61827801  0.61827801  1
  Co  Co2  1  0.38805813  0.88805813  0.50000000  1
  Co  Co3  1  0.61194187  0.11194187  0.50000000  1
  Ag  Ag0  1  0.00000000  0.00000000  0.00000000  1
  Bi  Bi0  1  0.50000000  0.50000000  0.00000000  1
loop_
_geom_bond_atom_site_label_1
_geom_bond_atom_site_label_2
_geom_bond_distance
_geom_bond_site_symmetry_2
Lu0 Lu8 3.393692 1_555
Lu0 Lu11 3.393712 1_445
Lu0 Lu2 3.444051 1_545
Lu0 Lu4 3.470667 1_555
Lu0 Lu7 3.470675 1_445
Lu0 Lu9 3.493064 1_555
Lu0 Lu10 3.493067 1_555
Lu0 Lu5 3.572599 1_555
Lu0 Lu6 3.572604 1_555
Lu1 Lu9 3.393692 1_555
Lu1 Lu10 3.393712 1_665
Lu1 Lu3 3.444051 1_565
Lu1 Lu5 3.470667 1_555
Lu1 Lu6 3.470675 1_665
Lu1 Lu8 3.493064 1_555
Lu1 Lu11 3.493067 1_555
Lu1 Lu4 3.572599 1_555
Lu1 Lu7 3.572604 1_555
Lu2 Lu9 3.393714 1_454
Lu2 Lu7 3.470666 1_455
Lu2 Lu4 3.470675 1_565
Lu2 Lu8 3.493069 1_555
Lu2 Lu6 3.572601 1_554
Lu2 Lu5 3.572606 1_554
Lu3 Lu8 3.393714 1_656
Lu3 Lu6 3.470666 1_655
Lu3 Lu5 3.470675 1_545
Lu3 Lu9 3.493069 1_555
Lu3 Lu7 3.572601 1_556
Lu3 Lu4 3.572606 1_556
Lu4 Lu9 3.261095 1_555
Lu4 Lu8 3.553383 1_555
Lu5 Lu8 3.261095 1_555
Lu5 Lu9 3.553383 1_555
Lu6 Lu9 3.261105 1_455
Lu6 Lu8 3.553398 1_556
Lu7 Lu8 3.261105 1_655
Lu7 Lu9 3.553398 1_554
Lu10 Lu7 3.261093 1_445
Lu10 Lu5 3.261093 1_545
Lu10 Lu2 3.393719 1_546
Lu10 Lu3 3.493062 1_555
Lu10 Lu4 3.553393 1_556
Lu10 Lu6 3.553393 1_555
Lu11 Lu6 3.261093 1_665
Lu11 Lu4 3.261093 1_565
Lu11 Lu3 3.393719 1_564
Lu11 Lu2 3.493062 1_555
Lu11 Lu5 3.553393 1_554
Lu11 Lu7 3.553393 1_555
Co0 Co1 2.214663 1_455
Co0 Lu8 2.627345 1_555
Co0 Lu11 2.627346 1_445
Co0 Lu6 2.785050 1_555
Co0 Lu7 2.785050 1_455
Co0 Lu5 2.785050 1_555
Co0 Lu4 2.785050 1_455
Co0 Lu0 3.243208 1_555
Co0 Lu3 3.243215 1_454
Co1 Lu9 2.627345 1_555
Co1 Lu10 2.627346 1_665
Co1 Lu7 2.785050 1_555
Co1 Lu6 2.785050 1_655
Co1 Lu4 2.785050 1_555
Co1 Lu5 2.785050 1_655
Co1 Lu1 3.243208 1_555
Co1 Lu2 3.243215 1_656
Co2 Co3 2.157773 1_565
Co2 Lu5 2.643395 1_555
Co2 Lu7 2.643395 1_455
Co2 Lu2 2.813412 1_555
Co2 Lu3 2.813415 1_565
Co2 Lu1 2.813418 1_555
Co2 Lu0 2.813422 1_565
Co2 Lu10 3.166470 1_565
Co2 Lu8 3.166483 1_555
Co3 Lu4 2.643395 1_555
Co3 Lu6 2.643395 1_655
Co3 Lu3 2.813412 1_555
Co3 Lu2 2.813415 1_545
Co3 Lu0 2.813418 1_555
Co3 Lu1 2.813422 1_545
Co3 Lu11 3.166470 1_545
Co3 Lu9 3.166483 1_555
Ag0 Lu8 2.877438 1_555
Ag0 Lu9 2.877438 1_444
Ag0 Lu11 2.877451 1_445
Ag0 Lu10 2.877451 1_554
Ag0 Lu0 3.170960 1_555
Ag0 Lu1 3.170960 1_444
Ag0 Lu2 3.170968 1_545
Ag0 Lu3 3.170968 1_454
Bi0 Lu4 3.336307 1_555
Bi0 Lu5 3.336307 1_554
Bi0 Lu7 3.336307 1_555
Bi0 Lu6 3.336307 1_554
Bi0 Lu10 3.372593 1_554
Bi0 Lu11 3.372593 1_555
Bi0 Lu9 3.372596 1_554
Bi0 Lu8 3.372596 1_555
Bi0 Lu3 3.541437 1_554
Bi0 Lu2 3.541437 1_555
Bi0 Lu1 3.541442 1_555
Bi0 Lu0 3.541442 1_554
