# generated using pymatgen
data_Hf4ZnPH2
_symmetry_space_group_name_H-M   'P 1'
_cell_length_a   5.32468621
_cell_length_b   5.32468650
_cell_length_c   5.32468652
_cell_angle_alpha   104.86884577
_cell_angle_beta   104.86885740
_cell_angle_gamma   119.12949589
_symmetry_Int_Tables_number   1
_chemical_formula_structural   Hf4ZnPH2
_chemical_formula_sum   'Hf4 Zn1 P1 H2'
_cell_volume   113.70117603
_cell_formula_units_Z   1
loop_
 _symmetry_equiv_pos_site_id
 _symmetry_equiv_pos_as_xyz
  1  'x, y, z'
loop_
 _atom_site_type_symbol
 _atom_site_label
 _atom_site_symmetry_multiplicity
 _atom_site_fract_x
 _atom_site_fract_y
 _atom_site_fract_z
 _atom_site_occupancy
  Hf  Hf0  1  0.16320038  0.66320038  0.82640177  1
  Hf  Hf1  1  0.83679962  0.33679962  0.17359823  1
  Hf  Hf2  1  0.33679962  0.16320038  0.50000000  1
  Hf  Hf3  1  0.66320038  0.83679962  0.50000000  1
  Zn  Zn0  1  0.25000000  0.25000000  0.00000000  1
  P  P0  1  0.75000000  0.75000000  0.00000000  1
  H  H0  1  0.75000000  0.25000000  0.50000000  1
  H  H1  1  0.25000000  0.75000000  0.50000000  1
loop_
_geom_bond_atom_site_label_1
_geom_bond_atom_site_label_2
_geom_bond_distance
_geom_bond_site_symmetry_2
Hf0 Zn0 2.779072 1_556
Hf0 P0 2.779073 1_456
Hf0 P0 2.779075 1_556
Hf0 Zn0 2.779075 1_566
Hf1 P0 2.779072 1_555
Hf1 Zn0 2.779073 1_655
Hf1 Zn0 2.779075 1_555
Hf1 P0 2.779075 1_545
Hf2 Zn0 2.779075 1_555
Hf2 P0 2.779075 1_445
Hf2 Zn0 2.779075 1_556
Hf2 P0 2.779076 1_556
Hf3 P0 2.779075 1_556
Hf3 Zn0 2.779075 1_666
Hf3 P0 2.779075 1_555
Hf3 Zn0 2.779076 1_555
P0 Zn0 2.697296 1_665
P0 Zn0 2.697296 1_555
H0 Hf2 2.016018 1_555
H0 Hf3 2.016018 1_545
H0 Hf0 2.016020 1_655
H0 Hf1 2.016023 1_555
H1 Hf3 2.016018 1_555
H1 Hf2 2.016018 1_565
H1 Hf1 2.016020 1_455
H1 Hf0 2.016023 1_555
