# generated using pymatgen
data_Y2Lu2ScIr3
_symmetry_space_group_name_H-M   'P 1'
_cell_length_a   10.63702418
_cell_length_b   10.63702418
_cell_length_c   6.21072314
_cell_angle_alpha   90.00000000
_cell_angle_beta   90.00000000
_cell_angle_gamma   90.00000000
_symmetry_Int_Tables_number   1
_chemical_formula_structural   Y2Lu2ScIr3
_chemical_formula_sum   'Y8 Lu8 Sc4 Ir12'
_cell_volume   702.72024062
_cell_formula_units_Z   4
loop_
 _symmetry_equiv_pos_site_id
 _symmetry_equiv_pos_as_xyz
  1  'x, y, z'
loop_
 _atom_site_type_symbol
 _atom_site_label
 _atom_site_symmetry_multiplicity
 _atom_site_fract_x
 _atom_site_fract_y
 _atom_site_fract_z
 _atom_site_occupancy
  Y  Y0  1  0.21504587  0.41135661  0.62428726  1
  Y  Y1  1  0.21504587  0.58864339  0.12428726  1
  Y  Y2  1  0.78495413  0.41135661  0.12428726  1
  Y  Y3  1  0.78495413  0.58864339  0.62428726  1
  Y  Y4  1  0.91135661  0.71504587  0.12428726  1
  Y  Y5  1  0.91135661  0.28495413  0.62428726  1
  Y  Y6  1  0.08864339  0.71504587  0.62428726  1
  Y  Y7  1  0.08864339  0.28495413  0.12428726  1
  Lu  Lu0  1  0.29133855  0.08288620  0.38164736  1
  Lu  Lu1  1  0.29133855  0.91711380  0.88164736  1
  Lu  Lu2  1  0.70866145  0.08288620  0.88164736  1
  Lu  Lu3  1  0.70866145  0.91711380  0.38164736  1
  Lu  Lu4  1  0.58288620  0.79133855  0.88164736  1
  Lu  Lu5  1  0.58288620  0.20866145  0.38164736  1
  Lu  Lu6  1  0.41711380  0.79133855  0.38164736  1
  Lu  Lu7  1  0.41711380  0.20866145  0.88164736  1
  Sc  Sc0  1  0.00000000  0.00000000  0.49133036  1
  Sc  Sc1  1  0.00000000  0.00000000  0.99133036  1
  Sc  Sc2  1  0.50000000  0.50000000  0.99133036  1
  Sc  Sc3  1  0.50000000  0.50000000  0.49133036  1
  Ir  Ir0  1  0.84706836  0.14435795  0.24699237  1
  Ir  Ir1  1  0.84706836  0.85564205  0.74699237  1
  Ir  Ir2  1  0.15293164  0.14435795  0.74699237  1
  Ir  Ir3  1  0.15293164  0.85564205  0.24699237  1
  Ir  Ir4  1  0.64435795  0.34706836  0.74699237  1
  Ir  Ir5  1  0.64435795  0.65293164  0.24699237  1
  Ir  Ir6  1  0.35564205  0.34706836  0.24699237  1
  Ir  Ir7  1  0.35564205  0.65293164  0.74699237  1
  Ir  Ir8  1  0.50000000  0.00000000  0.12885148  1
  Ir  Ir9  1  0.50000000  0.00000000  0.62885148  1
  Ir  Ir10  1  0.00000000  0.50000000  0.87678281  1
  Ir  Ir11  1  0.00000000  0.50000000  0.37678281  1
loop_
_geom_bond_atom_site_label_1
_geom_bond_atom_site_label_2
_geom_bond_distance
_geom_bond_site_symmetry_2
Y0 Y5 3.498995 1_455
Y0 Y6 3.498995 1_555
Y0 Y1 3.633115 1_556
Y0 Y1 3.633115 1_555
Y0 Y7 3.641274 1_556
Y0 Y7 3.641274 1_555
Y1 Y4 3.498995 1_455
Y1 Y7 3.498995 1_555
Y1 Y6 3.641274 1_555
Y1 Y6 3.641274 1_554
Y2 Y7 3.498995 1_655
Y2 Y4 3.498995 1_555
Y2 Y3 3.633115 1_554
Y2 Y3 3.633115 1_555
Y2 Y5 3.641274 1_554
Y2 Y5 3.641274 1_555
Y3 Y6 3.498995 1_655
Y3 Y5 3.498995 1_555
Y3 Y4 3.641274 1_556
Y3 Y4 3.641274 1_555
Y4 Y6 3.633115 1_655
Y4 Y6 3.633115 1_654
Y5 Y7 3.633115 1_656
Y5 Y7 3.633115 1_655
Lu0 Sc0 3.293178 1_555
Lu0 Lu5 3.377476 1_555
Lu0 Lu6 3.377476 1_545
Lu0 Y7 3.438522 1_555
Lu1 Sc1 3.293178 1_565
Lu1 Lu4 3.377476 1_555
Lu1 Lu7 3.377476 1_565
Lu1 Y6 3.438522 1_555
Lu2 Sc1 3.293178 1_655
Lu2 Lu7 3.377476 1_555
Lu2 Lu4 3.377476 1_545
Lu2 Y5 3.438522 1_555
Lu3 Sc0 3.293178 1_665
Lu3 Lu5 3.377476 1_565
Lu3 Lu6 3.377476 1_555
Lu3 Y4 3.438522 1_555
Lu4 Sc2 3.293178 1_555
Lu4 Y3 3.438522 1_555
Lu5 Sc3 3.293178 1_555
Lu5 Y2 3.438522 1_555
Lu6 Sc3 3.293178 1_555
Lu6 Y1 3.438522 1_555
Lu7 Sc2 3.293178 1_555
Lu7 Y0 3.438522 1_555
Sc0 Sc1 3.105362 1_555
Sc0 Sc1 3.105362 1_554
Sc0 Y5 3.279983 1_455
Sc0 Y6 3.279983 1_545
Sc1 Y7 3.279983 1_556
Sc1 Y4 3.279983 1_446
Sc2 Sc3 3.105362 1_555
Sc2 Sc3 3.105362 1_556
Sc2 Y2 3.279983 1_556
Sc2 Y1 3.279983 1_556
Sc3 Y3 3.279983 1_555
Sc3 Y0 3.279983 1_555
Ir0 Sc0 2.703148 1_655
Ir0 Sc1 2.743248 1_654
Ir0 Lu2 2.782743 1_554
Ir0 Y5 2.862719 1_555
Ir0 Lu3 2.951229 1_545
Ir0 Lu5 3.010646 1_555
Ir0 Y2 3.013855 1_555
Ir0 Y7 3.069270 1_655
Ir1 Sc1 2.703148 1_665
Ir1 Sc0 2.743248 1_665
Ir1 Lu3 2.782743 1_555
Ir1 Y4 2.862719 1_556
Ir1 Lu2 2.951229 1_565
Ir1 Lu4 3.010646 1_555
Ir1 Y3 3.013855 1_555
Ir1 Y6 3.069270 1_655
Ir2 Sc1 2.703148 1_555
Ir2 Sc0 2.743248 1_555
Ir2 Lu0 2.782743 1_555
Ir2 Y7 2.862719 1_556
Ir2 Lu1 2.951229 1_545
Ir2 Lu7 3.010646 1_555
Ir2 Y0 3.013855 1_555
Ir2 Y5 3.069270 1_455
Ir3 Sc0 2.703148 1_565
Ir3 Sc1 2.743248 1_564
Ir3 Lu1 2.782743 1_554
Ir3 Y6 2.862719 1_555
Ir3 Lu0 2.951229 1_565
Ir3 Lu6 3.010646 1_555
Ir3 Y1 3.013855 1_555
Ir3 Y4 3.069270 1_455
Ir4 Sc2 2.703148 1_555
Ir4 Sc3 2.743248 1_555
Ir4 Lu5 2.782743 1_555
Ir4 Y2 2.862719 1_556
Ir4 Lu7 2.951229 1_555
Ir4 Lu2 3.010646 1_555
Ir4 Y5 3.013855 1_555
Ir4 Y3 3.069270 1_555
Ir5 Sc3 2.703148 1_555
Ir5 Sc2 2.743248 1_554
Ir5 Lu4 2.782743 1_554
Ir5 Y3 2.862719 1_555
Ir5 Lu6 2.951229 1_555
Ir5 Lu3 3.010646 1_555
Ir5 Y4 3.013855 1_555
Ir5 Y2 3.069270 1_555
Ir6 Sc3 2.703148 1_555
Ir6 Sc2 2.743248 1_554
Ir6 Lu7 2.782743 1_554
Ir6 Y0 2.862719 1_555
Ir6 Lu5 2.951229 1_555
Ir6 Lu0 3.010646 1_555
Ir6 Y7 3.013855 1_555
Ir6 Y1 3.069270 1_555
Ir7 Sc2 2.703148 1_555
Ir7 Sc3 2.743248 1_555
Ir7 Lu6 2.782743 1_555
Ir7 Y1 2.862719 1_556
Ir7 Lu4 2.951229 1_555
Ir7 Lu1 3.010646 1_555
Ir7 Y6 3.013855 1_555
Ir7 Y0 3.069270 1_555
Ir8 Lu2 2.839167 1_554
Ir8 Lu7 2.839167 1_554
Ir8 Lu4 2.839167 1_544
Ir8 Lu1 2.839167 1_544
Ir8 Lu5 2.858096 1_555
Ir8 Lu3 2.858096 1_545
Ir8 Lu0 2.858096 1_555
Ir8 Lu6 2.858096 1_545
Ir8 Ir9 3.105362 1_554
Ir8 Ir9 3.105362 1_555
Ir9 Lu5 2.839167 1_555
Ir9 Lu3 2.839167 1_545
Ir9 Lu0 2.839167 1_555
Ir9 Lu6 2.839167 1_545
Ir9 Lu2 2.858096 1_555
Ir9 Lu7 2.858096 1_555
Ir9 Lu4 2.858096 1_545
Ir9 Lu1 2.858096 1_545
Ir10 Y1 2.912801 1_556
Ir10 Y4 2.912801 1_456
Ir10 Y7 2.912801 1_556
Ir10 Y2 2.912801 1_456
Ir10 Y6 2.929278 1_555
Ir10 Y0 2.929278 1_555
Ir10 Y3 2.929278 1_455
Ir10 Y5 2.929278 1_455
Ir10 Ir11 3.105362 1_555
Ir10 Ir11 3.105362 1_556
Ir11 Y6 2.912801 1_555
Ir11 Y0 2.912801 1_555
Ir11 Y3 2.912801 1_455
Ir11 Y5 2.912801 1_455
Ir11 Y1 2.929278 1_555
Ir11 Y4 2.929278 1_455
Ir11 Y7 2.929278 1_555
Ir11 Y2 2.929278 1_455
