# generated using pymatgen
data_Y12Co5Pb
_symmetry_space_group_name_H-M   'P 1'
_cell_length_a   8.35878803
_cell_length_b   8.35878808
_cell_length_c   8.35878699
_cell_angle_alpha   110.22322531
_cell_angle_beta   111.01273605
_cell_angle_gamma   107.20227520
_symmetry_Int_Tables_number   1
_chemical_formula_structural   Y12Co5Pb
_chemical_formula_sum   'Y12 Co5 Pb1'
_cell_volume   449.03262633
_cell_formula_units_Z   1
loop_
 _symmetry_equiv_pos_site_id
 _symmetry_equiv_pos_as_xyz
  1  'x, y, z'
loop_
 _atom_site_type_symbol
 _atom_site_label
 _atom_site_symmetry_multiplicity
 _atom_site_fract_x
 _atom_site_fract_y
 _atom_site_fract_z
 _atom_site_occupancy
  Y  Y0  1  0.28953348  0.18297454  0.47250802  1
  Y  Y1  1  0.71046652  0.81702546  0.52749198  1
  Y  Y2  1  0.28953348  0.81702546  0.10655995  1
  Y  Y3  1  0.71046652  0.18297454  0.89344005  1
  Y  Y4  1  0.61865493  0.31394705  0.30470788  1
  Y  Y5  1  0.38134507  0.68605295  0.69529212  1
  Y  Y6  1  0.00923917  0.31394705  0.69529212  1
  Y  Y7  1  0.99076083  0.68605295  0.30470788  1
  Y  Y8  1  0.21106248  0.40820810  0.19714562  1
  Y  Y9  1  0.78893752  0.59179190  0.80285438  1
  Y  Y10  1  0.21106248  0.01391787  0.80285438  1
  Y  Y11  1  0.78893752  0.98608213  0.19714562  1
  Co  Co0  1  1.00000000  0.38249108  0.38249108  1
  Co  Co1  1  0.00000000  0.61750892  0.61750892  1
  Co  Co2  1  0.39078652  0.89078652  0.50000000  1
  Co  Co3  1  0.60921348  0.10921348  0.50000000  1
  Co  Co4  1  0.00000000  0.00000000  0.00000000  1
  Pb  Pb0  1  0.50000000  0.50000000  0.00000000  1
loop_
_geom_bond_atom_site_label_1
_geom_bond_atom_site_label_2
_geom_bond_distance
_geom_bond_site_symmetry_2
Y0 Y11 3.451975 1_445
Y0 Y8 3.451976 1_555
Y0 Y2 3.499241 1_545
Y0 Y4 3.575127 1_555
Y0 Y7 3.575127 1_445
Y0 Y6 3.659540 1_555
Y0 Y5 3.659540 1_555
Y0 Y10 3.674261 1_555
Y0 Y9 3.674266 1_555
Y1 Y10 3.451975 1_665
Y1 Y9 3.451976 1_555
Y1 Y3 3.499241 1_565
Y1 Y5 3.575127 1_555
Y1 Y6 3.575127 1_665
Y1 Y7 3.659540 1_555
Y1 Y4 3.659540 1_555
Y1 Y11 3.674261 1_555
Y1 Y8 3.674266 1_555
Y2 Y9 3.451977 1_454
Y2 Y7 3.575120 1_455
Y2 Y4 3.575128 1_565
Y2 Y6 3.659542 1_554
Y2 Y5 3.659547 1_554
Y2 Y8 3.674262 1_555
Y3 Y8 3.451977 1_656
Y3 Y6 3.575120 1_655
Y3 Y5 3.575128 1_545
Y3 Y7 3.659542 1_556
Y3 Y4 3.659547 1_556
Y3 Y9 3.674262 1_555
Y4 Y9 3.444767 1_555
Y4 Y8 3.594086 1_555
Y5 Y8 3.444767 1_555
Y5 Y9 3.594086 1_555
Y6 Y9 3.444767 1_455
Y6 Y8 3.594086 1_556
Y7 Y8 3.444767 1_655
Y7 Y9 3.594086 1_554
Y10 Y7 3.444769 1_445
Y10 Y5 3.444774 1_545
Y10 Y2 3.451989 1_546
Y10 Y6 3.594078 1_555
Y10 Y4 3.594086 1_556
Y10 Y3 3.674269 1_555
Y11 Y6 3.444769 1_665
Y11 Y4 3.444774 1_565
Y11 Y3 3.451989 1_564
Y11 Y7 3.594078 1_555
Y11 Y5 3.594086 1_554
Y11 Y2 3.674269 1_555
Co0 Co1 2.247267 1_655
Co0 Y8 2.743174 1_655
Co0 Y11 2.743181 1_545
Co0 Y6 2.843871 1_655
Co0 Y5 2.843871 1_655
Co0 Y7 2.843871 1_555
Co0 Y4 2.843872 1_555
Co0 Y0 3.339686 1_655
Co0 Y3 3.339692 1_554
Co1 Y9 2.743174 1_455
Co1 Y10 2.743181 1_565
Co1 Y7 2.843871 1_455
Co1 Y4 2.843871 1_455
Co1 Y6 2.843871 1_555
Co1 Y5 2.843872 1_555
Co1 Y1 3.339686 1_455
Co1 Y2 3.339692 1_556
Co2 Co3 2.166852 1_565
Co2 Y5 2.746538 1_555
Co2 Y7 2.746538 1_455
Co2 Y2 2.864488 1_555
Co2 Y3 2.864491 1_565
Co2 Y1 2.864496 1_555
Co2 Y0 2.864496 1_565
Co2 Y8 3.400759 1_555
Co2 Y10 3.400760 1_565
Co3 Y4 2.746538 1_555
Co3 Y6 2.746538 1_655
Co3 Y3 2.864488 1_555
Co3 Y2 2.864491 1_545
Co3 Y0 2.864496 1_555
Co3 Y1 2.864496 1_545
Co3 Y9 3.400759 1_555
Co3 Y11 3.400760 1_545
Co4 Y8 2.817390 1_555
Co4 Y9 2.817390 1_444
Co4 Y11 2.817390 1_445
Co4 Y10 2.817390 1_554
Co4 Y0 3.251920 1_555
Co4 Y1 3.251920 1_444
Co4 Y2 3.251922 1_545
Co4 Y3 3.251922 1_454
Pb0 Y4 3.424707 1_555
Pb0 Y5 3.424707 1_554
Pb0 Y7 3.424707 1_555
Pb0 Y6 3.424707 1_554
Pb0 Y11 3.430676 1_555
Pb0 Y10 3.430676 1_554
Pb0 Y9 3.430683 1_554
Pb0 Y8 3.430683 1_555
Pb0 Y1 3.627662 1_555
Pb0 Y0 3.627662 1_554
Pb0 Y2 3.627664 1_555
Pb0 Y3 3.627664 1_554
