# generated using pymatgen
data_Zr3TiNb2Sn5
_symmetry_space_group_name_H-M   'P 1'
_cell_length_a   9.60510101
_cell_length_b   9.61831999
_cell_length_c   5.79776052
_cell_angle_alpha   90.00000000
_cell_angle_beta   90.00000000
_cell_angle_gamma   120.04553434
_symmetry_Int_Tables_number   1
_chemical_formula_structural   Zr3TiNb2Sn5
_chemical_formula_sum   'Zr6 Ti2 Nb4 Sn10'
_cell_volume   463.65250443
_cell_formula_units_Z   2
loop_
 _symmetry_equiv_pos_site_id
 _symmetry_equiv_pos_as_xyz
  1  'x, y, z'
loop_
 _atom_site_type_symbol
 _atom_site_label
 _atom_site_symmetry_multiplicity
 _atom_site_fract_x
 _atom_site_fract_y
 _atom_site_fract_z
 _atom_site_occupancy
  Zr  Zr0  1  0.84445791  0.69136062  0.75000000  1
  Zr  Zr1  1  0.15554209  0.84690271  0.25000000  1
  Zr  Zr2  1  0.69082413  0.84541206  0.25000000  1
  Zr  Zr3  1  0.30917587  0.15458794  0.75000000  1
  Zr  Zr4  1  0.84445791  0.15309729  0.75000000  1
  Zr  Zr5  1  0.15554209  0.30863938  0.25000000  1
  Ti  Ti0  1  0.00000000  0.50000000  0.00000000  1
  Ti  Ti1  1  0.00000000  0.50000000  0.50000000  1
  Nb  Nb0  1  0.50000000  0.00000000  0.50000000  1
  Nb  Nb1  1  0.50000000  0.50000000  0.00000000  1
  Nb  Nb2  1  0.50000000  0.00000000  0.00000000  1
  Nb  Nb3  1  0.50000000  0.50000000  0.50000000  1
  Sn  Sn0  1  0.20689794  0.42228273  0.75000000  1
  Sn  Sn1  1  0.79310206  0.21538479  0.25000000  1
  Sn  Sn2  1  0.41897152  0.20948626  0.25000000  1
  Sn  Sn3  1  0.58102848  0.79051374  0.75000000  1
  Sn  Sn4  1  0.20689794  0.78461521  0.75000000  1
  Sn  Sn5  1  0.79310206  0.57771727  0.25000000  1
  Sn  Sn6  1  0.66971038  0.33485419  0.75000000  1
  Sn  Sn7  1  0.33028962  0.66514581  0.25000000  1
  Sn  Sn8  1  0.00000000  0.00000000  0.50000000  1
  Sn  Sn9  1  0.00000000  0.00000000  0.00000000  1
loop_
_geom_bond_atom_site_label_1
_geom_bond_atom_site_label_2
_geom_bond_distance
_geom_bond_site_symmetry_2
Ti0 Ti1 2.898880 1_554
Ti0 Ti1 2.898880 1_555
Ti0 Zr0 3.236384 1_454
Ti0 Zr5 3.236384 1_555
Ti0 Zr1 3.236384 1_555
Ti0 Zr4 3.236384 1_454
Ti1 Zr0 3.236384 1_455
Ti1 Zr5 3.236384 1_555
Ti1 Zr1 3.236384 1_555
Ti1 Zr4 3.236384 1_455
Nb0 Sn3 2.887349 1_545
Nb0 Sn2 2.887349 1_555
Nb0 Nb2 2.898880 1_555
Nb0 Nb2 2.898880 1_556
Nb0 Sn4 2.911714 1_545
Nb0 Sn1 2.911714 1_555
Nb0 Sn6 3.142275 1_555
Nb0 Sn7 3.142275 1_545
Nb0 Zr4 3.215135 1_555
Nb0 Zr1 3.215135 1_545
Nb0 Zr2 3.224929 1_545
Nb0 Zr3 3.224929 1_555
Nb1 Sn2 2.887341 1_555
Nb1 Sn3 2.887341 1_554
Nb1 Nb3 2.898880 1_555
Nb1 Nb3 2.898880 1_554
Nb1 Sn5 2.911714 1_555
Nb1 Sn0 2.911714 1_554
Nb1 Sn7 3.142289 1_555
Nb1 Sn6 3.142289 1_554
Nb1 Zr0 3.215135 1_554
Nb1 Zr5 3.215135 1_555
Nb1 Zr2 3.224929 1_555
Nb1 Zr3 3.224929 1_554
Nb2 Sn3 2.887349 1_544
Nb2 Sn2 2.887349 1_555
Nb2 Sn4 2.911714 1_544
Nb2 Sn1 2.911714 1_555
Nb2 Sn6 3.142275 1_554
Nb2 Sn7 3.142275 1_545
Nb2 Zr4 3.215135 1_554
Nb2 Zr1 3.215135 1_545
Nb2 Zr2 3.224929 1_545
Nb2 Zr3 3.224929 1_554
Nb3 Sn2 2.887341 1_555
Nb3 Sn3 2.887341 1_555
Nb3 Sn5 2.911714 1_555
Nb3 Sn0 2.911714 1_555
Nb3 Sn7 3.142289 1_555
Nb3 Sn6 3.142289 1_555
Nb3 Zr0 3.215135 1_555
Nb3 Zr5 3.215135 1_555
Nb3 Zr2 3.224929 1_555
Nb3 Zr3 3.224929 1_555
Sn0 Ti0 2.845429 1_556
Sn0 Ti1 2.845429 1_555
Sn0 Zr5 3.049866 1_556
Sn0 Zr5 3.049866 1_555
Sn0 Zr4 3.130008 1_455
Sn0 Zr3 3.182368 1_555
Sn0 Sn4 3.485030 1_555
Sn0 Sn7 3.534464 1_555
Sn0 Sn7 3.534464 1_556
Sn0 Sn3 3.565489 1_555
Sn1 Ti1 2.845429 1_655
Sn1 Ti0 2.845429 1_655
Sn1 Zr4 3.049866 1_555
Sn1 Zr4 3.049866 1_554
Sn1 Zr5 3.130008 1_655
Sn1 Zr2 3.182368 1_545
Sn1 Sn5 3.485030 1_555
Sn1 Sn6 3.534455 1_554
Sn1 Sn6 3.534455 1_555
Sn1 Sn2 3.565494 1_555
Sn2 Zr3 3.039223 1_554
Sn2 Zr3 3.039223 1_555
Sn2 Zr5 3.119001 1_555
Sn2 Zr1 3.119008 1_545
Sn2 Sn5 3.565489 1_555
Sn2 Sn6 3.570673 1_554
Sn2 Sn6 3.570673 1_555
Sn3 Zr2 3.039223 1_555
Sn3 Zr2 3.039223 1_556
Sn3 Zr0 3.119001 1_555
Sn3 Zr4 3.119008 1_565
Sn3 Sn4 3.565494 1_555
Sn3 Sn7 3.570673 1_556
Sn3 Sn7 3.570673 1_555
Sn4 Ti0 2.845429 1_556
Sn4 Ti1 2.845429 1_555
Sn4 Zr1 3.049866 1_555
Sn4 Zr1 3.049866 1_556
Sn4 Zr0 3.130008 1_455
Sn4 Zr3 3.182368 1_565
Sn4 Sn7 3.534455 1_556
Sn4 Sn7 3.534455 1_555
Sn5 Ti0 2.845429 1_655
Sn5 Ti1 2.845429 1_655
Sn5 Zr0 3.049866 1_555
Sn5 Zr0 3.049866 1_554
Sn5 Zr1 3.130008 1_655
Sn5 Zr2 3.182368 1_555
Sn5 Sn6 3.534464 1_555
Sn5 Sn6 3.534464 1_554
Sn6 Zr4 2.968463 1_555
Sn6 Zr0 2.968480 1_555
Sn6 Zr3 2.997643 1_555
Sn6 Ti0 3.105213 1_656
Sn6 Ti1 3.105213 1_655
Sn7 Zr1 2.968463 1_555
Sn7 Zr5 2.968480 1_555
Sn7 Zr2 2.997643 1_555
Sn7 Ti0 3.105213 1_555
Sn7 Ti1 3.105213 1_555
Sn8 Sn9 2.898880 1_555
Sn8 Sn9 2.898880 1_556
Sn8 Zr1 2.950300 1_545
Sn8 Zr4 2.950300 1_455
Sn8 Zr5 2.950300 1_555
Sn8 Zr0 2.950300 1_445
Sn8 Zr3 2.951100 1_555
Sn8 Zr2 2.951100 1_445
Sn9 Zr1 2.950300 1_545
Sn9 Zr4 2.950300 1_454
Sn9 Zr5 2.950300 1_555
Sn9 Zr0 2.950300 1_444
Sn9 Zr3 2.951100 1_554
Sn9 Zr2 2.951100 1_445
