# generated using pymatgen
data_Li12Ca6Ge4N
_symmetry_space_group_name_H-M   'P 1'
_cell_length_a   8.43064375
_cell_length_b   8.43064412
_cell_length_c   8.43064293
_cell_angle_alpha   109.47121059
_cell_angle_beta   109.47121148
_cell_angle_gamma   109.47122889
_symmetry_Int_Tables_number   1
_chemical_formula_structural   Li12Ca6Ge4N
_chemical_formula_sum   'Li12 Ca6 Ge4 N1'
_cell_volume   461.27546848
_cell_formula_units_Z   1
loop_
 _symmetry_equiv_pos_site_id
 _symmetry_equiv_pos_as_xyz
  1  'x, y, z'
loop_
 _atom_site_type_symbol
 _atom_site_label
 _atom_site_symmetry_multiplicity
 _atom_site_fract_x
 _atom_site_fract_y
 _atom_site_fract_z
 _atom_site_occupancy
  Li  Li0  1  0.65527478  0.32763789  0.32763789  1
  Li  Li1  1  0.32763789  1.00000000  0.67236211  1
  Li  Li2  1  0.32763789  0.65527478  0.32763789  1
  Li  Li3  1  0.32763789  0.32763789  0.65527478  1
  Li  Li4  1  0.32763789  0.67236211  1.00000000  1
  Li  Li5  1  1.00000000  0.32763789  0.67236211  1
  Li  Li6  1  0.00000000  0.67236211  0.32763789  1
  Li  Li7  1  0.67236211  0.67236211  0.34472522  1
  Li  Li8  1  0.67236211  0.00000000  0.32763789  1
  Li  Li9  1  0.67236211  0.32763789  0.00000000  1
  Li  Li10  1  0.67236211  0.34472522  0.67236211  1
  Li  Li11  1  0.34472522  0.67236211  0.67236211  1
  Ca  Ca0  1  1.00000000  0.24668123  0.24668123  1
  Ca  Ca1  1  0.24668123  1.00000000  0.24668123  1
  Ca  Ca2  1  0.75331877  0.00000000  0.75331877  1
  Ca  Ca3  1  0.75331877  0.75331877  0.00000000  1
  Ca  Ca4  1  0.24668123  0.24668123  1.00000000  1
  Ca  Ca5  1  0.00000000  0.75331877  0.75331877  1
  Ge  Ge0  1  0.50000000  0.50000000  0.50000000  1
  Ge  Ge1  1  0.50000000  0.00000000  0.00000000  1
  Ge  Ge2  1  0.00000000  0.50000000  0.00000000  1
  Ge  Ge3  1  0.00000000  0.00000000  0.50000000  1
  N  N0  1  0.00000000  0.00000000  0.00000000  1
loop_
_geom_bond_atom_site_label_1
_geom_bond_atom_site_label_2
_geom_bond_distance
_geom_bond_site_symmetry_2
Li0 Li10 2.813489 1_555
Li0 Li7 2.813489 1_555
Li0 Li9 2.813497 1_555
Li0 Li8 2.813498 1_555
Li0 Li6 3.355850 1_655
Li0 Li5 3.355850 1_555
Li1 Li9 2.813495 1_566
Li1 Li6 2.813495 1_555
Li1 Li3 2.813498 1_565
Li1 Li11 2.813498 1_555
Li1 Li10 3.355850 1_565
Li1 Li2 3.355850 1_555
Li2 Li7 2.813489 1_555
Li2 Li4 2.813497 1_554
Li2 Li6 2.813498 1_555
Li2 Li8 3.355850 1_565
Li3 Li5 2.813498 1_455
Li3 Li9 3.355850 1_556
Li3 Li4 3.355850 1_555
Li4 Li8 2.813495 1_566
Li4 Li5 2.813495 1_455
Li4 Li7 3.355850 1_556
Li5 Li8 2.813495 1_555
Li6 Li9 2.813495 1_455
Li6 Li7 2.813498 1_455
Li7 Li8 2.813498 1_565
Li7 Li9 3.355850 1_555
Li10 Li3 2.813489 1_555
Li10 Li9 2.813497 1_556
Li10 Li5 2.813498 1_555
Li10 Li8 3.355850 1_555
Li11 Li2 2.813489 1_555
Li11 Li3 2.813489 1_555
Li11 Li4 2.813497 1_555
Li11 Li5 3.355850 1_455
Li11 Li6 3.355850 1_555
Ca0 N0 2.401410 1_655
Ca0 Li2 3.285430 1_655
Ca0 Li3 3.285431 1_655
Ca0 Li8 3.285436 1_555
Ca0 Li9 3.285437 1_555
Ca0 Li5 3.422298 1_555
Ca0 Li6 3.422299 1_655
Ca0 Li11 3.422300 1_655
Ca0 Li0 3.422307 1_555
Ca0 Ge3 3.441947 1_655
Ca0 Ge2 3.441947 1_655
Ca0 Ge1 3.441948 1_555
Ca0 Ge0 3.441948 1_655
Ca1 N0 2.401410 1_565
Ca1 Li0 3.285430 1_565
Ca1 Li3 3.285431 1_565
Ca1 Li6 3.285436 1_555
Ca1 Li4 3.285437 1_554
Ca1 Li1 3.422298 1_555
Ca1 Li8 3.422299 1_565
Ca1 Li10 3.422300 1_565
Ca1 Li2 3.422307 1_555
Ca1 Ge3 3.441947 1_565
Ca1 Ge1 3.441947 1_565
Ca1 Ge2 3.441948 1_555
Ca1 Ge0 3.441948 1_565
Ca2 N0 2.401410 1_656
Ca2 Li11 3.285430 1_545
Ca2 Li7 3.285431 1_545
Ca2 Li5 3.285436 1_555
Ca2 Li9 3.285437 1_556
Ca2 Li8 3.422298 1_555
Ca2 Li1 3.422299 1_545
Ca2 Li2 3.422300 1_545
Ca2 Li10 3.422307 1_555
Ca2 Ge3 3.441947 1_655
Ca2 Ge1 3.441947 1_556
Ca2 Ge2 3.441948 1_656
Ca2 Ge0 3.441948 1_545
Ca3 N0 2.401409 1_665
Ca3 Li11 3.285431 1_554
Ca3 Li10 3.285431 1_554
Ca3 Li6 3.285436 1_655
Ca3 Li8 3.285436 1_565
Ca3 Li4 3.422298 1_554
Ca3 Li9 3.422299 1_555
Ca3 Li3 3.422300 1_554
Ca3 Li7 3.422306 1_555
Ca3 Ge1 3.441948 1_565
Ca3 Ge2 3.441948 1_655
Ca3 Ge3 3.441948 1_665
Ca3 Ge0 3.441948 1_554
Ca4 N0 2.401409 1_556
Ca4 Li0 3.285431 1_556
Ca4 Li2 3.285431 1_556
Ca4 Li5 3.285436 1_455
Ca4 Li1 3.285436 1_545
Ca4 Li9 3.422298 1_556
Ca4 Li4 3.422299 1_555
Ca4 Li7 3.422300 1_556
Ca4 Li3 3.422306 1_555
Ca4 Ge1 3.441948 1_556
Ca4 Ge2 3.441948 1_556
Ca4 Ge3 3.441948 1_555
Ca4 Ge0 3.441948 1_556
Ca5 N0 2.401410 1_566
Ca5 Li10 3.285430 1_455
Ca5 Li7 3.285431 1_455
Ca5 Li1 3.285436 1_555
Ca5 Li4 3.285437 1_555
Ca5 Li6 3.422298 1_555
Ca5 Li5 3.422299 1_455
Ca5 Li0 3.422300 1_455
Ca5 Li11 3.422307 1_555
Ca5 Ge3 3.441947 1_565
Ca5 Ge2 3.441947 1_556
Ca5 Ge1 3.441948 1_566
Ca5 Ge0 3.441948 1_455
Ge0 Li7 2.658080 1_555
Ge0 Li3 2.658080 1_555
Ge0 Li10 2.658081 1_555
Ge0 Li2 2.658081 1_555
Ge0 Li11 2.658081 1_555
Ge0 Li0 2.658081 1_555
Ge1 Li9 2.658088 1_555
Ge1 Li4 2.658088 1_544
Ge1 Li8 2.658088 1_555
Ge1 Li1 2.658088 1_544
Ge1 Li0 2.658090 1_555
Ge1 Li11 2.658090 1_544
Ge2 Li4 2.658088 1_554
Ge2 Li9 2.658088 1_455
Ge2 Li6 2.658088 1_555
Ge2 Li5 2.658088 1_454
Ge2 Li2 2.658090 1_555
Ge2 Li10 2.658090 1_454
Ge3 Li1 2.658088 1_545
Ge3 Li8 2.658088 1_455
Ge3 Li5 2.658088 1_455
Ge3 Li6 2.658088 1_545
Ge3 Li3 2.658090 1_555
Ge3 Li7 2.658090 1_445
