# generated using pymatgen
data_TiAl(MoC)2
_symmetry_space_group_name_H-M   'P 1'
_cell_length_a   5.97714096
_cell_length_b   5.97714222
_cell_length_c   37.52678961
_cell_angle_alpha   90.00000000
_cell_angle_beta   90.00000000
_cell_angle_gamma   120.00001499
_symmetry_Int_Tables_number   1
_chemical_formula_structural   TiAl(MoC)2
_chemical_formula_sum   'Ti16 Al16 Mo32 C32'
_cell_volume   1161.07177049
_cell_formula_units_Z   16
loop_
 _symmetry_equiv_pos_site_id
 _symmetry_equiv_pos_as_xyz
  1  'x, y, z'
loop_
 _atom_site_type_symbol
 _atom_site_label
 _atom_site_symmetry_multiplicity
 _atom_site_fract_x
 _atom_site_fract_y
 _atom_site_fract_z
 _atom_site_occupancy
  Ti  Ti0_0  1  0.00000000  0.00000000  0.25000000  1
  Ti  Ti0_1  1  0.00000000  0.00000000  0.75000000  1
  Ti  Ti0_2  1  0.00000000  0.50000000  0.25000000  1
  Ti  Ti0_3  1  0.00000000  0.50000000  0.75000000  1
  Ti  Ti0_4  1  0.50000000  0.00000000  0.25000000  1
  Ti  Ti0_5  1  0.50000000  0.00000000  0.75000000  1
  Ti  Ti0_6  1  0.50000000  0.50000000  0.25000000  1
  Ti  Ti0_7  1  0.50000000  0.50000000  0.75000000  1
  Ti  Ti1_0  1  0.00000000  0.00000000  0.00000000  1
  Ti  Ti1_1  1  0.00000000  0.00000000  0.50000000  1
  Ti  Ti1_2  1  0.00000000  0.50000000  0.00000000  1
  Ti  Ti1_3  1  0.00000000  0.50000000  0.50000000  1
  Ti  Ti1_4  1  0.50000000  0.00000000  0.00000000  1
  Ti  Ti1_5  1  0.50000000  0.00000000  0.50000000  1
  Ti  Ti1_6  1  0.50000000  0.50000000  0.00000000  1
  Ti  Ti1_7  1  0.50000000  0.50000000  0.50000000  1
  Al  Al0_0  1  0.00000000  0.00000000  0.37500000  1
  Al  Al0_1  1  0.00000000  0.00000000  0.87500000  1
  Al  Al0_2  1  0.00000000  0.50000000  0.37500000  1
  Al  Al0_3  1  0.00000000  0.50000000  0.87500000  1
  Al  Al0_4  1  0.50000000  0.00000000  0.37500000  1
  Al  Al0_5  1  0.50000000  0.00000000  0.87500000  1
  Al  Al0_6  1  0.50000000  0.50000000  0.37500000  1
  Al  Al0_7  1  0.50000000  0.50000000  0.87500000  1
  Al  Al1_0  1  0.00000000  0.00000000  0.12500000  1
  Al  Al1_1  1  0.00000000  0.00000000  0.62500000  1
  Al  Al1_2  1  0.00000000  0.50000000  0.12500000  1
  Al  Al1_3  1  0.00000000  0.50000000  0.62500000  1
  Al  Al1_4  1  0.50000000  0.00000000  0.12500000  1
  Al  Al1_5  1  0.50000000  0.00000000  0.62500000  1
  Al  Al1_6  1  0.50000000  0.50000000  0.12500000  1
  Al  Al1_7  1  0.50000000  0.50000000  0.62500000  1
  Mo  Mo0_0  1  0.33333350  0.16666650  0.18321515  1
  Mo  Mo0_1  1  0.33333350  0.16666650  0.68321515  1
  Mo  Mo0_2  1  0.33333350  0.66666650  0.18321515  1
  Mo  Mo0_3  1  0.33333350  0.66666650  0.68321515  1
  Mo  Mo0_4  1  0.83333350  0.16666650  0.18321515  1
  Mo  Mo0_5  1  0.83333350  0.16666650  0.68321515  1
  Mo  Mo0_6  1  0.83333350  0.66666650  0.18321515  1
  Mo  Mo0_7  1  0.83333350  0.66666650  0.68321515  1
  Mo  Mo1_0  1  0.16666650  0.33333350  0.43321515  1
  Mo  Mo1_1  1  0.16666650  0.33333350  0.93321515  1
  Mo  Mo1_2  1  0.16666650  0.83333350  0.43321515  1
  Mo  Mo1_3  1  0.16666650  0.83333350  0.93321515  1
  Mo  Mo1_4  1  0.66666650  0.33333350  0.43321515  1
  Mo  Mo1_5  1  0.66666650  0.33333350  0.93321515  1
  Mo  Mo1_6  1  0.66666650  0.83333350  0.43321515  1
  Mo  Mo1_7  1  0.66666650  0.83333350  0.93321515  1
  Mo  Mo2_0  1  0.16666650  0.33333350  0.31678485  1
  Mo  Mo2_1  1  0.16666650  0.33333350  0.81678485  1
  Mo  Mo2_2  1  0.16666650  0.83333350  0.31678485  1
  Mo  Mo2_3  1  0.16666650  0.83333350  0.81678485  1
  Mo  Mo2_4  1  0.66666650  0.33333350  0.31678485  1
  Mo  Mo2_5  1  0.66666650  0.33333350  0.81678485  1
  Mo  Mo2_6  1  0.66666650  0.83333350  0.31678485  1
  Mo  Mo2_7  1  0.66666650  0.83333350  0.81678485  1
  Mo  Mo3_0  1  0.33333350  0.16666650  0.06678485  1
  Mo  Mo3_1  1  0.33333350  0.16666650  0.56678485  1
  Mo  Mo3_2  1  0.33333350  0.66666650  0.06678485  1
  Mo  Mo3_3  1  0.33333350  0.66666650  0.56678485  1
  Mo  Mo3_4  1  0.83333350  0.16666650  0.06678485  1
  Mo  Mo3_5  1  0.83333350  0.16666650  0.56678485  1
  Mo  Mo3_6  1  0.83333350  0.66666650  0.06678485  1
  Mo  Mo3_7  1  0.83333350  0.66666650  0.56678485  1
  C  C0_0  1  0.16666650  0.33333350  0.21580480  1
  C  C0_1  1  0.16666650  0.33333350  0.71580480  1
  C  C0_2  1  0.16666650  0.83333350  0.21580480  1
  C  C0_3  1  0.16666650  0.83333350  0.71580480  1
  C  C0_4  1  0.66666650  0.33333350  0.21580480  1
  C  C0_5  1  0.66666650  0.33333350  0.71580480  1
  C  C0_6  1  0.66666650  0.83333350  0.21580480  1
  C  C0_7  1  0.66666650  0.83333350  0.71580480  1
  C  C1_0  1  0.33333350  0.16666650  0.46580480  1
  C  C1_1  1  0.33333350  0.16666650  0.96580480  1
  C  C1_2  1  0.33333350  0.66666650  0.46580480  1
  C  C1_3  1  0.33333350  0.66666650  0.96580480  1
  C  C1_4  1  0.83333350  0.16666650  0.46580480  1
  C  C1_5  1  0.83333350  0.16666650  0.96580480  1
  C  C1_6  1  0.83333350  0.66666650  0.46580480  1
  C  C1_7  1  0.83333350  0.66666650  0.96580480  1
  C  C2_0  1  0.16666650  0.33333350  0.03419520  1
  C  C2_1  1  0.16666650  0.33333350  0.53419520  1
  C  C2_2  1  0.16666650  0.83333350  0.03419520  1
  C  C2_3  1  0.16666650  0.83333350  0.53419520  1
  C  C2_4  1  0.66666650  0.33333350  0.03419520  1
  C  C2_5  1  0.66666650  0.33333350  0.53419520  1
  C  C2_6  1  0.66666650  0.83333350  0.03419520  1
  C  C2_7  1  0.66666650  0.83333350  0.53419520  1
  C  C3_0  1  0.33333350  0.16666650  0.28419520  1
  C  C3_1  1  0.33333350  0.16666650  0.78419520  1
  C  C3_2  1  0.33333350  0.66666650  0.28419520  1
  C  C3_3  1  0.33333350  0.66666650  0.78419520  1
  C  C3_4  1  0.83333350  0.16666650  0.28419520  1
  C  C3_5  1  0.83333350  0.16666650  0.78419520  1
  C  C3_6  1  0.83333350  0.66666650  0.28419520  1
  C  C3_7  1  0.83333350  0.66666650  0.78419520  1
loop_
_geom_bond_atom_site_label_1
_geom_bond_atom_site_label_2
_geom_bond_distance
_geom_bond_site_symmetry_2
Al0_0 Mo1_2 2.783842 1_545
Al0_0 Mo2_2 2.783842 1_545
Al0_0 Mo1_6 2.783844 1_445
Al0_0 Mo2_6 2.783844 1_445
Al0_0 Mo1_0 2.783844 1_555
Al0_0 Mo2_0 2.783844 1_555
Al0_0 Al0_6 2.988570 1_555
Al0_0 Al0_6 2.988570 1_445
Al0_0 Al0_4 2.988570 1_555
Al0_0 Al0_4 2.988570 1_455
Al0_0 Al0_2 2.988571 1_555
Al0_0 Al0_2 2.988571 1_545
Al0_1 Mo1_3 2.783842 1_545
Al0_1 Mo2_3 2.783842 1_545
Al0_1 Mo1_7 2.783844 1_445
Al0_1 Mo2_7 2.783844 1_445
Al0_1 Mo1_1 2.783844 1_555
Al0_1 Mo2_1 2.783844 1_555
Al0_1 Al0_7 2.988570 1_555
Al0_1 Al0_7 2.988570 1_445
Al0_1 Al0_5 2.988570 1_555
Al0_1 Al0_5 2.988570 1_455
Al0_1 Al0_3 2.988571 1_555
Al0_1 Al0_3 2.988571 1_545
Al0_2 Mo1_0 2.783842 1_555
Al0_2 Mo2_0 2.783842 1_555
Al0_2 Mo1_4 2.783844 1_455
Al0_2 Mo2_4 2.783844 1_455
Al0_2 Mo1_2 2.783844 1_555
Al0_2 Mo2_2 2.783844 1_555
Al0_2 Al0_4 2.988570 1_455
Al0_2 Al0_4 2.988570 1_565
Al0_2 Al0_6 2.988570 1_555
Al0_2 Al0_6 2.988570 1_455
Al0_3 Mo1_1 2.783842 1_555
Al0_3 Mo2_1 2.783842 1_555
Al0_3 Mo1_5 2.783844 1_455
Al0_3 Mo2_5 2.783844 1_455
Al0_3 Mo1_3 2.783844 1_555
Al0_3 Mo2_3 2.783844 1_555
Al0_3 Al0_5 2.988570 1_565
Al0_3 Al0_5 2.988570 1_455
Al0_3 Al0_7 2.988570 1_555
Al0_3 Al0_7 2.988570 1_455
Al0_4 Mo1_6 2.783842 1_545
Al0_4 Mo2_6 2.783842 1_545
Al0_4 Mo1_2 2.783844 1_545
Al0_4 Mo2_2 2.783844 1_545
Al0_4 Mo1_4 2.783844 1_555
Al0_4 Mo2_4 2.783844 1_555
Al0_4 Al0_6 2.988571 1_555
Al0_4 Al0_6 2.988571 1_545
Al0_5 Mo1_7 2.783842 1_545
Al0_5 Mo2_7 2.783842 1_545
Al0_5 Mo1_3 2.783844 1_545
Al0_5 Mo2_3 2.783844 1_545
Al0_5 Mo1_5 2.783844 1_555
Al0_5 Mo2_5 2.783844 1_555
Al0_5 Al0_7 2.988571 1_545
Al0_5 Al0_7 2.988571 1_555
Al0_6 Mo1_4 2.783842 1_555
Al0_6 Mo2_4 2.783842 1_555
Al0_6 Mo1_0 2.783844 1_555
Al0_6 Mo2_0 2.783844 1_555
Al0_6 Mo1_6 2.783844 1_555
Al0_6 Mo2_6 2.783844 1_555
Al0_7 Mo1_5 2.783842 1_555
Al0_7 Mo2_5 2.783842 1_555
Al0_7 Mo1_1 2.783844 1_555
Al0_7 Mo2_1 2.783844 1_555
Al0_7 Mo1_7 2.783844 1_555
Al0_7 Mo2_7 2.783844 1_555
Al1_0 Mo0_4 2.783842 1_455
Al1_0 Mo3_4 2.783842 1_455
Al1_0 Mo0_0 2.783844 1_555
Al1_0 Mo3_0 2.783844 1_555
Al1_0 Mo0_6 2.783844 1_445
Al1_0 Mo3_6 2.783844 1_445
Al1_0 Al1_6 2.988570 1_555
Al1_0 Al1_6 2.988570 1_445
Al1_0 Al1_4 2.988570 1_555
Al1_0 Al1_4 2.988570 1_455
Al1_0 Al1_2 2.988571 1_555
Al1_0 Al1_2 2.988571 1_545
Al1_1 Mo0_5 2.783842 1_455
Al1_1 Mo3_5 2.783842 1_455
Al1_1 Mo0_1 2.783844 1_555
Al1_1 Mo3_1 2.783844 1_555
Al1_1 Mo0_7 2.783844 1_445
Al1_1 Mo3_7 2.783844 1_445
Al1_1 Al1_7 2.988570 1_555
Al1_1 Al1_7 2.988570 1_445
Al1_1 Al1_5 2.988570 1_555
Al1_1 Al1_5 2.988570 1_455
Al1_1 Al1_3 2.988571 1_545
Al1_1 Al1_3 2.988571 1_555
Al1_2 Mo0_6 2.783842 1_455
Al1_2 Mo3_6 2.783842 1_455
Al1_2 Mo0_2 2.783844 1_555
Al1_2 Mo3_2 2.783844 1_555
Al1_2 Mo0_4 2.783844 1_455
Al1_2 Mo3_4 2.783844 1_455
Al1_2 Al1_4 2.988570 1_565
Al1_2 Al1_4 2.988570 1_455
Al1_2 Al1_6 2.988570 1_555
Al1_2 Al1_6 2.988570 1_455
Al1_3 Mo0_7 2.783842 1_455
Al1_3 Mo3_7 2.783842 1_455
Al1_3 Mo0_3 2.783844 1_555
Al1_3 Mo3_3 2.783844 1_555
Al1_3 Mo0_5 2.783844 1_455
Al1_3 Mo3_5 2.783844 1_455
Al1_3 Al1_5 2.988570 1_455
Al1_3 Al1_5 2.988570 1_565
Al1_3 Al1_7 2.988570 1_555
Al1_3 Al1_7 2.988570 1_455
Al1_4 Mo0_0 2.783842 1_555
Al1_4 Mo3_0 2.783842 1_555
Al1_4 Mo0_4 2.783844 1_555
Al1_4 Mo3_4 2.783844 1_555
Al1_4 Mo0_2 2.783844 1_545
Al1_4 Mo3_2 2.783844 1_545
Al1_4 Al1_6 2.988571 1_555
Al1_4 Al1_6 2.988571 1_545
Al1_5 Mo0_1 2.783842 1_555
Al1_5 Mo3_1 2.783842 1_555
Al1_5 Mo0_5 2.783844 1_555
Al1_5 Mo3_5 2.783844 1_555
Al1_5 Mo0_3 2.783844 1_545
Al1_5 Mo3_3 2.783844 1_545
Al1_5 Al1_7 2.988571 1_545
Al1_5 Al1_7 2.988571 1_555
Al1_6 Mo0_2 2.783842 1_555
Al1_6 Mo3_2 2.783842 1_555
Al1_6 Mo0_6 2.783844 1_555
Al1_6 Mo3_6 2.783844 1_555
Al1_6 Mo0_0 2.783844 1_555
Al1_6 Mo3_0 2.783844 1_555
Al1_7 Mo0_3 2.783842 1_555
Al1_7 Mo3_3 2.783842 1_555
Al1_7 Mo0_7 2.783844 1_555
Al1_7 Mo3_7 2.783844 1_555
Al1_7 Mo0_1 2.783844 1_555
Al1_7 Mo3_1 2.783844 1_555
C0_0 Mo0_4 2.114916 1_455
C0_0 Mo0_2 2.114916 1_555
C0_0 Mo0_0 2.114921 1_555
C0_0 Ti0_2 2.150320 1_555
C0_0 Ti0_6 2.150321 1_555
C0_0 Ti0_0 2.150322 1_555
C0_1 Mo0_5 2.114916 1_455
C0_1 Mo0_3 2.114916 1_555
C0_1 Mo0_1 2.114921 1_555
C0_1 Ti0_3 2.150320 1_555
C0_1 Ti0_7 2.150321 1_555
C0_1 Ti0_1 2.150322 1_555
C0_2 Mo0_6 2.114916 1_455
C0_2 Mo0_0 2.114916 1_565
C0_2 Mo0_2 2.114921 1_555
C0_2 Ti0_0 2.150320 1_565
C0_2 Ti0_4 2.150321 1_565
C0_2 Ti0_2 2.150322 1_555
C0_3 Mo0_7 2.114916 1_455
C0_3 Mo0_1 2.114916 1_565
C0_3 Mo0_3 2.114921 1_555
C0_3 Ti0_1 2.150320 1_565
C0_3 Ti0_5 2.150321 1_565
C0_3 Ti0_3 2.150322 1_555
C0_4 Mo0_0 2.114916 1_555
C0_4 Mo0_6 2.114916 1_555
C0_4 Mo0_4 2.114921 1_555
C0_4 Ti0_6 2.150320 1_555
C0_4 Ti0_2 2.150321 1_655
C0_4 Ti0_4 2.150322 1_555
C0_5 Mo0_1 2.114916 1_555
C0_5 Mo0_7 2.114916 1_555
C0_5 Mo0_5 2.114921 1_555
C0_5 Ti0_7 2.150320 1_555
C0_5 Ti0_3 2.150321 1_655
C0_5 Ti0_5 2.150322 1_555
C0_6 Mo0_2 2.114916 1_555
C0_6 Mo0_4 2.114916 1_565
C0_6 Mo0_6 2.114921 1_555
C0_6 Ti0_4 2.150320 1_565
C0_6 Ti0_0 2.150321 1_665
C0_6 Ti0_6 2.150322 1_555
C0_7 Mo0_3 2.114916 1_555
C0_7 Mo0_5 2.114916 1_565
C0_7 Mo0_7 2.114921 1_555
C0_7 Ti0_5 2.150320 1_565
C0_7 Ti0_1 2.150321 1_665
C0_7 Ti0_7 2.150322 1_555
C1_0 Mo1_4 2.114916 1_555
C1_0 Mo1_2 2.114916 1_545
C1_0 Mo1_0 2.114921 1_555
C1_0 Ti1_5 2.150320 1_555
C1_0 Ti1_1 2.150321 1_555
C1_0 Ti1_7 2.150322 1_555
C1_1 Mo1_5 2.114916 1_555
C1_1 Mo1_3 2.114916 1_545
C1_1 Mo1_1 2.114921 1_555
C1_1 Ti1_4 2.150320 1_556
C1_1 Ti1_0 2.150321 1_556
C1_1 Ti1_6 2.150322 1_556
C1_2 Mo1_6 2.114916 1_555
C1_2 Mo1_0 2.114916 1_555
C1_2 Mo1_2 2.114921 1_555
C1_2 Ti1_7 2.150320 1_555
C1_2 Ti1_3 2.150321 1_555
C1_2 Ti1_5 2.150322 1_565
C1_3 Mo1_7 2.114916 1_555
C1_3 Mo1_1 2.114916 1_555
C1_3 Mo1_3 2.114921 1_555
C1_3 Ti1_6 2.150320 1_556
C1_3 Ti1_2 2.150321 1_556
C1_3 Ti1_4 2.150322 1_566
C1_4 Mo1_0 2.114916 1_655
C1_4 Mo1_6 2.114916 1_545
C1_4 Mo1_4 2.114921 1_555
C1_4 Ti1_1 2.150320 1_655
C1_4 Ti1_5 2.150321 1_555
C1_4 Ti1_3 2.150322 1_655
C1_5 Mo1_1 2.114916 1_655
C1_5 Mo1_7 2.114916 1_545
C1_5 Mo1_5 2.114921 1_555
C1_5 Ti1_0 2.150320 1_656
C1_5 Ti1_4 2.150321 1_556
C1_5 Ti1_2 2.150322 1_656
C1_6 Mo1_2 2.114916 1_655
C1_6 Mo1_4 2.114916 1_555
C1_6 Mo1_6 2.114921 1_555
C1_6 Ti1_3 2.150320 1_655
C1_6 Ti1_7 2.150321 1_555
C1_6 Ti1_1 2.150322 1_665
C1_7 Mo1_3 2.114916 1_655
C1_7 Mo1_5 2.114916 1_555
C1_7 Mo1_7 2.114921 1_555
C1_7 Ti1_2 2.150320 1_656
C1_7 Ti1_6 2.150321 1_556
C1_7 Ti1_0 2.150322 1_666
C2_0 Mo3_4 2.114916 1_455
C2_0 Mo3_2 2.114916 1_555
C2_0 Mo3_0 2.114921 1_555
C2_0 Ti1_2 2.150320 1_555
C2_0 Ti1_6 2.150321 1_555
C2_0 Ti1_0 2.150322 1_555
C2_1 Mo3_5 2.114916 1_455
C2_1 Mo3_3 2.114916 1_555
C2_1 Mo3_1 2.114921 1_555
C2_1 Ti1_3 2.150320 1_555
C2_1 Ti1_7 2.150321 1_555
C2_1 Ti1_1 2.150322 1_555
C2_2 Mo3_6 2.114916 1_455
C2_2 Mo3_0 2.114916 1_565
C2_2 Mo3_2 2.114921 1_555
C2_2 Ti1_0 2.150320 1_565
C2_2 Ti1_4 2.150321 1_565
C2_2 Ti1_2 2.150322 1_555
C2_3 Mo3_7 2.114916 1_455
C2_3 Mo3_1 2.114916 1_565
C2_3 Mo3_3 2.114921 1_555
C2_3 Ti1_1 2.150320 1_565
C2_3 Ti1_5 2.150321 1_565
C2_3 Ti1_3 2.150322 1_555
C2_4 Mo3_0 2.114916 1_555
C2_4 Mo3_6 2.114916 1_555
C2_4 Mo3_4 2.114921 1_555
C2_4 Ti1_6 2.150320 1_555
C2_4 Ti1_2 2.150321 1_655
C2_4 Ti1_4 2.150322 1_555
C2_5 Mo3_1 2.114916 1_555
C2_5 Mo3_7 2.114916 1_555
C2_5 Mo3_5 2.114921 1_555
C2_5 Ti1_7 2.150320 1_555
C2_5 Ti1_3 2.150321 1_655
C2_5 Ti1_5 2.150322 1_555
C2_6 Mo3_2 2.114916 1_555
C2_6 Mo3_4 2.114916 1_565
C2_6 Mo3_6 2.114921 1_555
C2_6 Ti1_4 2.150320 1_565
C2_6 Ti1_0 2.150321 1_665
C2_6 Ti1_6 2.150322 1_555
C2_7 Mo3_3 2.114916 1_555
C2_7 Mo3_5 2.114916 1_565
C2_7 Mo3_7 2.114921 1_555
C2_7 Ti1_5 2.150320 1_565
C2_7 Ti1_1 2.150321 1_665
C2_7 Ti1_7 2.150322 1_555
C3_0 Mo2_4 2.114916 1_555
C3_0 Mo2_2 2.114916 1_545
C3_0 Mo2_0 2.114921 1_555
C3_0 Ti0_4 2.150320 1_555
C3_0 Ti0_0 2.150321 1_555
C3_0 Ti0_6 2.150322 1_555
C3_1 Mo2_5 2.114916 1_555
C3_1 Mo2_3 2.114916 1_545
C3_1 Mo2_1 2.114921 1_555
C3_1 Ti0_5 2.150320 1_555
C3_1 Ti0_1 2.150321 1_555
C3_1 Ti0_7 2.150322 1_555
C3_2 Mo2_6 2.114916 1_555
C3_2 Mo2_0 2.114916 1_555
C3_2 Mo2_2 2.114921 1_555
C3_2 Ti0_6 2.150320 1_555
C3_2 Ti0_2 2.150321 1_555
C3_2 Ti0_4 2.150322 1_565
C3_3 Mo2_7 2.114916 1_555
C3_3 Mo2_1 2.114916 1_555
C3_3 Mo2_3 2.114921 1_555
C3_3 Ti0_7 2.150320 1_555
C3_3 Ti0_3 2.150321 1_555
C3_3 Ti0_5 2.150322 1_565
C3_4 Mo2_0 2.114916 1_655
C3_4 Mo2_6 2.114916 1_545
C3_4 Mo2_4 2.114921 1_555
C3_4 Ti0_0 2.150320 1_655
C3_4 Ti0_4 2.150321 1_555
C3_4 Ti0_2 2.150322 1_655
C3_5 Mo2_1 2.114916 1_655
C3_5 Mo2_7 2.114916 1_545
C3_5 Mo2_5 2.114921 1_555
C3_5 Ti0_1 2.150320 1_655
C3_5 Ti0_5 2.150321 1_555
C3_5 Ti0_3 2.150322 1_655
C3_6 Mo2_2 2.114916 1_655
C3_6 Mo2_4 2.114916 1_555
C3_6 Mo2_6 2.114921 1_555
C3_6 Ti0_2 2.150320 1_655
C3_6 Ti0_6 2.150321 1_555
C3_6 Ti0_0 2.150322 1_665
C3_7 Mo2_3 2.114916 1_655
C3_7 Mo2_5 2.114916 1_555
C3_7 Mo2_7 2.114921 1_555
C3_7 Ti0_3 2.150320 1_655
C3_7 Ti0_7 2.150321 1_555
C3_7 Ti0_1 2.150322 1_665
