# generated using pymatgen
data_LiTa5NbH16
_symmetry_space_group_name_H-M   'P 1'
_cell_length_a   6.38003782
_cell_length_b   6.19101325
_cell_length_c   6.38003852
_cell_angle_alpha   60.97532442
_cell_angle_beta   58.10150854
_cell_angle_gamma   60.97532589
_symmetry_Int_Tables_number   1
_chemical_formula_structural   LiTa5NbH16
_chemical_formula_sum   'Li1 Ta5 Nb1 H16'
_cell_volume   177.97110420
_cell_formula_units_Z   1
loop_
 _symmetry_equiv_pos_site_id
 _symmetry_equiv_pos_as_xyz
  1  'x, y, z'
loop_
 _atom_site_type_symbol
 _atom_site_label
 _atom_site_symmetry_multiplicity
 _atom_site_fract_x
 _atom_site_fract_y
 _atom_site_fract_z
 _atom_site_occupancy
  Li  Li0  1  0.00000000  0.50000000  0.00000000  1
  Ta  Ta0  1  0.00000000  0.00000000  0.50000000  1
  Ta  Ta1  1  0.50000000  0.00000000  0.50000000  1
  Ta  Ta2  1  0.00000000  0.50000000  0.50000000  1
  Ta  Ta3  1  0.50000000  0.50000000  0.00000000  1
  Ta  Ta4  1  0.50000000  0.00000000  0.00000000  1
  Nb  Nb0  1  0.00000000  0.00000000  0.00000000  1
  H  H0  1  0.87134797  0.87606178  0.37652647  1
  H  H1  1  0.87612275  0.38110687  0.87612275  1
  H  H2  1  0.37652647  0.87606178  0.87134797  1
  H  H3  1  0.87612275  0.86664462  0.87612275  1
  H  H4  1  0.12865203  0.12393822  0.62347353  1
  H  H5  1  0.12387725  0.61889313  0.12387725  1
  H  H6  1  0.62347353  0.12393822  0.12865203  1
  H  H7  1  0.12387725  0.13335538  0.12387725  1
  H  H8  1  0.61706417  0.62933506  0.12426472  1
  H  H9  1  0.61886607  0.14394894  0.61886607  1
  H  H10  1  0.12426472  0.62933506  0.61706417  1
  H  H11  1  0.61886607  0.61831892  0.61886607  1
  H  H12  1  0.38293583  0.37066494  0.87573528  1
  H  H13  1  0.38113393  0.85605106  0.38113393  1
  H  H14  1  0.87573528  0.37066494  0.38293583  1
  H  H15  1  0.38113393  0.38168108  0.38113393  1
loop_
_geom_bond_atom_site_label_1
_geom_bond_atom_site_label_2
_geom_bond_distance
_geom_bond_site_symmetry_2
H0 Ta1 1.916390 1_565
H0 Ta2 1.940117 1_655
H0 Ta0 1.940127 1_665
H0 Nb0 1.942152 1_665
H0 H5 2.232825 1_655
H0 H7 2.232847 1_665
H0 H11 2.235989 1_555
H0 H9 2.235998 1_565
H0 H10 2.289697 1_655
H0 H6 2.300020 1_565
H1 Li0 1.892151 1_656
H1 Ta3 1.941920 1_556
H1 Ta2 1.941920 1_655
H1 Nb0 1.964011 1_656
H1 H10 2.175001 1_655
H1 H8 2.175001 1_556
H1 H6 2.232825 1_556
H1 H4 2.232825 1_655
H1 H7 2.298907 1_656
H1 H11 2.390301 1_555
H2 Ta1 1.916390 1_565
H2 Ta3 1.940117 1_556
H2 Ta4 1.940127 1_566
H2 Nb0 1.942152 1_566
H2 H5 2.232825 1_556
H2 H7 2.232847 1_566
H2 H9 2.235998 1_565
H2 H8 2.289697 1_556
H2 H4 2.300020 1_565
H3 Li0 1.892137 1_656
H3 Ta4 1.941920 1_566
H3 Ta0 1.941920 1_665
H3 Nb0 1.964026 1_666
H3 H8 2.174992 1_556
H3 H4 2.232847 1_665
H3 H6 2.232847 1_566
H3 H5 2.298907 1_656
H3 H9 2.390302 1_565
H4 Ta1 1.916390 1_555
H4 Ta2 1.940117 1_555
H4 Ta0 1.940127 1_555
H4 Nb0 1.942152 1_556
H5 Li0 1.892151 1_555
H5 Ta3 1.941920 1_555
H5 Ta2 1.941920 1_555
H5 Nb0 1.964011 1_565
H6 Ta1 1.916390 1_555
H6 Ta3 1.940117 1_555
H6 Ta4 1.940127 1_555
H6 Nb0 1.942152 1_655
H7 Li0 1.892137 1_555
H7 Ta4 1.941920 1_555
H7 Ta0 1.941920 1_555
H7 Nb0 1.964026 1_555
H8 Ta3 1.910400 1_555
H8 Ta4 1.910405 1_565
H8 Li0 1.977201 1_655
H9 Ta1 1.965690 1_555
H9 Ta0 1.971380 1_655
H9 Ta4 1.971380 1_556
H10 Ta2 1.910400 1_555
H10 Ta0 1.910405 1_565
H10 Li0 1.977201 1_556
H10 H15 2.120503 1_555
H10 H13 2.120507 1_555
H10 H3 2.174992 1_455
H10 H12 2.400202 1_555
H11 Ta1 1.965690 1_565
H11 Ta2 1.971380 1_655
H11 Ta3 1.971380 1_556
H11 H12 2.120503 1_555
H11 H14 2.120503 1_555
H11 H13 2.205910 1_555
H11 H2 2.235989 1_555
H12 Ta3 1.910400 1_556
H12 Ta4 1.910405 1_556
H12 Li0 1.977201 1_556
H12 H9 2.120507 1_555
H12 H7 2.174992 1_556
H12 H5 2.175001 1_556
H12 H6 2.289697 1_556
H13 Ta1 1.965690 1_565
H13 Ta0 1.971380 1_565
H13 Ta4 1.971380 1_565
H13 H8 2.120507 1_555
H13 H6 2.235998 1_565
H13 H4 2.235998 1_565
H13 H7 2.390302 1_565
H14 Ta2 1.910400 1_655
H14 Ta0 1.910405 1_655
H14 Li0 1.977201 1_655
H14 H9 2.120507 1_555
H14 H7 2.174992 1_655
H14 H5 2.175001 1_655
H14 H4 2.289697 1_655
H14 H8 2.400202 1_555
H15 Ta1 1.965690 1_555
H15 Ta2 1.971380 1_555
H15 Ta3 1.971380 1_555
H15 H8 2.120503 1_555
H15 H9 2.205910 1_555
H15 H4 2.235989 1_555
H15 H6 2.235989 1_555
H15 H5 2.390301 1_555
