# generated using pymatgen
data_Hf6Nb3Al13Ir7
_symmetry_space_group_name_H-M   'P 1'
_cell_length_a   8.75620535
_cell_length_b   8.75620426
_cell_length_c   8.75620592
_cell_angle_alpha   59.88292741
_cell_angle_beta   59.88292550
_cell_angle_gamma   59.88292589
_symmetry_Int_Tables_number   1
_chemical_formula_structural   Hf6Nb3Al13Ir7
_chemical_formula_sum   'Hf6 Nb3 Al13 Ir7'
_cell_volume   473.45383425
_cell_formula_units_Z   1
loop_
 _symmetry_equiv_pos_site_id
 _symmetry_equiv_pos_as_xyz
  1  'x, y, z'
loop_
 _atom_site_type_symbol
 _atom_site_label
 _atom_site_symmetry_multiplicity
 _atom_site_fract_x
 _atom_site_fract_y
 _atom_site_fract_z
 _atom_site_occupancy
  Hf  Hf0  1  0.68614364  0.68614364  0.31110127  1
  Hf  Hf1  1  0.31673420  0.68170185  0.31673420  1
  Hf  Hf2  1  0.68170185  0.31673420  0.31673420  1
  Hf  Hf3  1  0.31673420  0.31673420  0.68170185  1
  Hf  Hf4  1  0.68614364  0.31110127  0.68614364  1
  Hf  Hf5  1  0.31110127  0.68614364  0.68614364  1
  Nb  Nb0  1  0.87859697  0.87859697  0.36130854  1
  Nb  Nb1  1  0.87859697  0.36130854  0.87859697  1
  Nb  Nb2  1  0.36130854  0.87859697  0.87859697  1
  Al  Al0  1  0.88128930  0.88128930  0.88128930  1
  Al  Al1  1  0.11914313  0.11914313  0.63578999  1
  Al  Al2  1  0.11914313  0.63578999  0.11914313  1
  Al  Al3  1  0.63578999  0.11914313  0.11914313  1
  Al  Al4  1  0.12298391  0.12298391  0.12298391  1
  Al  Al5  1  0.66458874  0.66458874  0.01546365  1
  Al  Al6  1  0.66458874  0.01546365  0.66458874  1
  Al  Al7  1  0.01546365  0.66458874  0.66458874  1
  Al  Al8  1  0.65727873  0.65727873  0.65727873  1
  Al  Al9  1  0.33832214  0.33832214  0.98707971  1
  Al  Al10  1  0.33832214  0.98707971  0.33832214  1
  Al  Al11  1  0.98707971  0.33832214  0.33832214  1
  Al  Al12  1  0.33722068  0.33722068  0.33722068  1
  Ir  Ir0  1  0.00209243  0.00209243  0.00209243  1
  Ir  Ir1  1  0.99937222  0.99937222  0.49709819  1
  Ir  Ir2  1  0.50291507  0.99795452  0.50291507  1
  Ir  Ir3  1  0.99795452  0.50291507  0.50291507  1
  Ir  Ir4  1  0.50291507  0.50291507  0.99795452  1
  Ir  Ir5  1  0.99937222  0.49709819  0.99937222  1
  Ir  Ir6  1  0.49709819  0.99937222  0.99937222  1
loop_
_geom_bond_atom_site_label_1
_geom_bond_atom_site_label_2
_geom_bond_distance
_geom_bond_site_symmetry_2
Hf0 Ir5 3.190349 1_554
Hf0 Ir6 3.190349 1_554
Hf0 Nb0 3.195236 1_555
Hf0 Ir2 3.217326 1_555
Hf0 Ir3 3.217326 1_555
Hf0 Hf2 3.229700 1_555
Hf0 Hf1 3.229700 1_555
Hf0 Hf4 3.278135 1_555
Hf0 Hf5 3.278135 1_555
Hf1 Ir3 3.187050 1_455
Hf1 Ir4 3.187050 1_554
Hf1 Hf2 3.190075 1_555
Hf1 Hf3 3.190075 1_555
Hf1 Ir1 3.193879 1_455
Hf1 Ir6 3.193879 1_554
Hf1 Nb0 3.221467 1_455
Hf1 Nb2 3.221467 1_554
Hf1 Hf5 3.229700 1_555
Hf2 Ir2 3.187050 1_545
Hf2 Ir4 3.187051 1_554
Hf2 Hf3 3.190075 1_555
Hf2 Ir5 3.193879 1_554
Hf2 Ir1 3.193879 1_545
Hf2 Nb0 3.221466 1_545
Hf2 Nb1 3.221467 1_554
Hf2 Hf4 3.229700 1_555
Hf3 Ir2 3.187050 1_545
Hf3 Ir3 3.187051 1_455
Hf3 Ir5 3.193879 1_455
Hf3 Ir6 3.193879 1_545
Hf3 Nb2 3.221466 1_545
Hf3 Nb1 3.221467 1_455
Hf3 Hf5 3.229700 1_555
Hf3 Hf4 3.229700 1_555
Hf4 Ir1 3.190348 1_545
Hf4 Ir6 3.190349 1_545
Hf4 Nb1 3.195236 1_555
Hf4 Ir3 3.217326 1_555
Hf4 Ir4 3.217326 1_555
Hf4 Hf5 3.278135 1_555
Hf5 Ir5 3.190349 1_455
Hf5 Ir1 3.190349 1_455
Hf5 Nb2 3.195236 1_555
Hf5 Ir2 3.217326 1_555
Hf5 Ir4 3.217326 1_555
Al0 Ir0 2.593304 1_666
Al0 Ir5 2.747120 1_555
Al0 Ir6 2.747121 1_555
Al0 Ir1 2.747121 1_555
Al0 Al5 2.778481 1_556
Al0 Al7 2.778481 1_655
Al0 Al6 2.778482 1_565
Al0 Al1 2.943366 1_665
Al0 Al3 2.943366 1_566
Al0 Al2 2.943367 1_656
Al0 Hf4 3.166470 1_565
Al0 Hf5 3.166470 1_655
Al0 Hf0 3.166471 1_556
Al1 Ir0 2.616235 1_556
Al1 Ir1 2.708222 1_445
Al1 Ir3 2.740229 1_455
Al1 Ir2 2.740229 1_545
Al1 Al10 2.753874 1_545
Al1 Al11 2.753874 1_455
Al1 Al12 2.786925 1_555
Al1 Nb1 3.000177 1_455
Al1 Nb2 3.000177 1_545
Al1 Hf5 3.172598 1_545
Al1 Hf4 3.172599 1_455
Al1 Hf3 3.247837 1_555
Al2 Ir0 2.616235 1_565
Al2 Ir5 2.708222 1_454
Al2 Ir4 2.740229 1_554
Al2 Ir3 2.740229 1_455
Al2 Al9 2.753874 1_554
Al2 Nb2 3.000177 1_554
Al2 Nb0 3.000177 1_455
Al2 Hf0 3.172599 1_455
Al2 Hf5 3.172599 1_554
Al2 Hf1 3.247837 1_555
Al3 Ir0 2.616235 1_655
Al3 Ir6 2.708222 1_544
Al3 Ir4 2.740229 1_554
Al3 Ir2 2.740229 1_545
Al3 Al9 2.753874 1_554
Al3 Nb1 3.000177 1_554
Al3 Nb0 3.000177 1_545
Al3 Hf0 3.172598 1_545
Al3 Hf4 3.172599 1_554
Al3 Hf2 3.247837 1_555
Al4 Ir0 2.595201 1_555
Al4 Ir5 2.670831 1_454
Al4 Ir6 2.670831 1_544
Al4 Ir1 2.670832 1_445
Al4 Al9 2.755185 1_554
Al4 Nb0 3.024200 1_445
Al4 Nb2 3.024200 1_544
Al4 Nb1 3.024200 1_454
Al4 Hf1 3.227683 1_545
Al4 Hf2 3.227684 1_455
Al4 Hf3 3.227684 1_554
Al5 Ir6 2.498498 1_554
Al5 Ir5 2.498498 1_554
Al5 Ir4 2.545266 1_554
Al5 Hf0 2.790841 1_555
Al5 Nb1 2.818878 1_554
Al5 Nb2 2.818879 1_554
Al5 Hf2 2.852031 1_555
Al5 Hf1 2.852032 1_555
Al5 Al6 3.066894 1_564
Al5 Al7 3.066895 1_654
Al5 Al8 3.201853 1_554
Al6 Ir1 2.498498 1_545
Al6 Ir6 2.498498 1_545
Al6 Ir2 2.545267 1_545
Al6 Hf4 2.790841 1_555
Al6 Nb2 2.818878 1_545
Al6 Nb0 2.818879 1_545
Al6 Hf3 2.852031 1_555
Al6 Hf2 2.852031 1_555
Al6 Al7 3.066894 1_645
Al6 Al8 3.201852 1_545
Al7 Ir1 2.498498 1_455
Al7 Ir5 2.498499 1_455
Al7 Ir3 2.545266 1_455
Al7 Hf5 2.790841 1_555
Al7 Nb1 2.818878 1_455
Al7 Nb0 2.818879 1_455
Al7 Hf3 2.852031 1_555
Al7 Hf1 2.852032 1_555
Al7 Al8 3.201853 1_455
Al8 Ir2 2.508630 1_555
Al8 Ir3 2.508630 1_555
Al8 Ir4 2.508630 1_555
Al8 Hf4 2.800424 1_555
Al8 Hf5 2.800424 1_555
Al8 Hf0 2.800424 1_555
Al8 Nb2 2.813541 1_555
Al8 Nb0 2.813541 1_555
Al8 Nb1 2.813541 1_555
Al9 Ir6 2.538059 1_545
Al9 Ir5 2.538060 1_455
Al9 Ir4 2.554038 1_555
Al9 Hf5 2.850279 1_555
Al9 Hf4 2.850279 1_555
Al9 Hf3 2.876077 1_555
Al10 Ir1 2.538060 1_455
Al10 Ir6 2.538060 1_554
Al10 Ir2 2.554038 1_555
Al10 Al3 2.753874 1_565
Al10 Al4 2.755185 1_565
Al10 Hf0 2.850279 1_555
Al10 Hf5 2.850279 1_555
Al10 Hf1 2.876077 1_555
Al10 Al12 3.056257 1_565
Al10 Al11 3.070107 1_465
Al10 Al9 3.070107 1_564
Al11 Ir1 2.538059 1_545
Al11 Ir5 2.538060 1_554
Al11 Ir3 2.554038 1_555
Al11 Al2 2.753874 1_655
Al11 Al4 2.755185 1_655
Al11 Hf0 2.850279 1_555
Al11 Hf4 2.850279 1_555
Al11 Hf2 2.876077 1_555
Al11 Al12 3.056258 1_655
Al11 Al9 3.070107 1_654
Al12 Ir2 2.548881 1_545
Al12 Ir3 2.548881 1_455
Al12 Ir4 2.548881 1_554
Al12 Al3 2.786925 1_555
Al12 Al2 2.786925 1_555
Al12 Hf1 2.847632 1_555
Al12 Hf2 2.847632 1_555
Al12 Hf3 2.847632 1_555
Al12 Al9 3.056258 1_554
Ir0 Nb1 2.564934 1_454
Ir0 Nb2 2.564935 1_544
Ir0 Nb0 2.564935 1_445
Ir1 Nb0 2.701207 1_555
Ir2 Nb0 2.684757 1_555
Ir2 Nb2 2.684757 1_555
Ir3 Nb0 2.684757 1_555
Ir3 Nb1 2.684757 1_555
Ir4 Nb2 2.684757 1_555
Ir4 Nb1 2.684757 1_555
Ir5 Nb1 2.701207 1_555
Ir6 Nb2 2.701207 1_555
