# generated using pymatgen
data_Hf6BAs5Ru6
_symmetry_space_group_name_H-M   'P 1'
_cell_length_a   7.56214789
_cell_length_b   7.55954958
_cell_length_c   7.56214924
_cell_angle_alpha   127.59702062
_cell_angle_beta   121.76013272
_cell_angle_gamma   82.16588585
_symmetry_Int_Tables_number   1
_chemical_formula_structural   Hf6BAs5Ru6
_chemical_formula_sum   'Hf6 B1 As5 Ru6'
_cell_volume   280.05638764
_cell_formula_units_Z   1
loop_
 _symmetry_equiv_pos_site_id
 _symmetry_equiv_pos_as_xyz
  1  'x, y, z'
loop_
 _atom_site_type_symbol
 _atom_site_label
 _atom_site_symmetry_multiplicity
 _atom_site_fract_x
 _atom_site_fract_y
 _atom_site_fract_z
 _atom_site_occupancy
  Hf  Hf0  1  0.45248411  0.66160371  0.70911960  1
  Hf  Hf1  1  0.55804762  0.26218483  0.20413721  1
  Hf  Hf2  1  0.74999498  0.82711958  0.57712461  1
  Hf  Hf3  1  0.25022662  0.85795345  0.10772583  1
  Hf  Hf4  1  0.04759315  0.25674429  0.70915114  1
  Hf  Hf5  1  0.94156038  0.64576757  0.20420718  1
  B  B0  1  0.25059843  0.25511043  0.50451300  1
  As  As0  1  0.74944921  0.21789945  0.96845124  1
  As  As1  1  0.33103141  0.59049475  0.25579649  1
  As  As2  1  0.66545581  0.92486346  0.25603018  1
  As  As3  1  0.16883228  0.92486346  0.75940765  1
  As  As4  1  0.83469926  0.59049475  0.75946334  1
  Ru  Ru0  1  0.46394885  0.49567776  0.95949210  1
  Ru  Ru1  1  0.03618566  0.49567776  0.53172891  1
  Ru  Ru2  1  0.15363143  0.25961880  0.17043401  1
  Ru  Ru3  1  0.91268898  0.01695359  0.17256555  1
  Ru  Ru4  1  0.34438804  0.01695359  0.60426461  1
  Ru  Ru5  1  0.58918479  0.25961880  0.60598736  1
loop_
_geom_bond_atom_site_label_1
_geom_bond_atom_site_label_2
_geom_bond_distance
_geom_bond_site_symmetry_2
Hf0 Ru1 2.803754 1_555
Hf0 Ru0 2.803754 1_555
Hf0 Ru5 2.830517 1_555
Hf0 Ru2 2.830518 1_555
Hf0 Ru3 3.135472 1_566
Hf0 Ru4 3.135472 1_565
Hf1 Ru2 2.933913 1_555
Hf1 Ru5 2.933914 1_555
Hf1 Ru1 3.049739 1_655
Hf1 Ru0 3.049740 1_554
Hf1 Ru3 3.076472 1_555
Hf1 Ru4 3.076472 1_554
Hf1 Hf2 3.314012 1_555
Hf2 Ru1 3.055128 1_655
Hf2 Ru0 3.055129 1_554
Hf2 Hf5 3.312486 1_555
Hf3 Ru3 2.821789 1_465
Hf3 Ru4 2.821794 1_565
Hf3 Ru2 2.825116 1_565
Hf3 Ru5 2.825120 1_565
Hf3 Ru1 2.885040 1_554
Hf3 Ru0 2.885044 1_554
Hf4 Ru0 2.804066 1_555
Hf4 Ru1 2.804066 1_555
Hf4 Ru4 2.821870 1_555
Hf4 Ru3 2.821871 1_455
Hf4 Ru5 3.127176 1_455
Hf4 Ru2 3.127176 1_556
Hf5 Ru4 2.928449 1_665
Hf5 Ru3 2.928449 1_565
Hf5 Ru0 3.045598 1_554
Hf5 Ru1 3.045599 1_655
Hf5 Ru2 3.066529 1_655
Hf5 Ru5 3.066529 1_554
B0 Ru4 2.249258 1_555
B0 Ru3 2.249263 1_455
B0 Ru0 2.251518 1_555
B0 Ru5 2.251522 1_555
B0 Ru1 2.251523 1_555
B0 Ru2 2.251527 1_555
B0 Hf3 2.649212 1_545
B0 Hf0 2.675468 1_555
B0 Hf4 2.687761 1_555
As0 Ru2 2.556338 1_656
As0 Ru5 2.556345 1_555
As0 Ru3 2.560839 1_556
As0 Ru4 2.560845 1_555
As0 Hf2 2.612767 1_545
As0 Hf1 2.690576 1_556
As0 Hf5 2.696102 1_556
As0 Ru1 2.803393 1_656
As0 Ru0 2.803398 1_555
As1 Ru2 2.550622 1_555
As1 Ru0 2.599928 1_554
As1 Ru4 2.605746 1_565
As1 Hf2 2.697924 1_555
As1 Hf3 2.724064 1_555
As1 Hf0 2.730538 1_555
As1 Hf4 2.732842 1_554
As1 Hf1 2.760600 1_555
As1 Hf5 2.766773 1_455
As2 Ru3 2.551806 1_565
As2 Ru0 2.598062 1_554
As2 Ru5 2.603337 1_565
As2 Hf2 2.697586 1_555
As2 Hf3 2.721568 1_555
As2 Hf4 2.729290 1_665
As2 Hf0 2.734558 1_554
As2 Hf5 2.759726 1_555
As2 Hf1 2.763524 1_565
As3 Ru4 2.551812 1_565
As3 Ru1 2.598060 1_555
As3 Ru2 2.603333 1_566
As3 Hf2 2.697578 1_455
As3 Hf3 2.721561 1_556
As3 Hf4 2.729289 1_565
As3 Hf0 2.734563 1_555
As3 Hf5 2.759727 1_455
As3 Hf1 2.763528 1_566
As4 Ru5 2.550627 1_555
As4 Ru1 2.599921 1_655
As4 Ru3 2.605747 1_566
As4 Hf2 2.697924 1_555
As4 Hf3 2.724053 1_656
As4 Hf0 2.730544 1_555
As4 Hf4 2.732838 1_655
As4 Hf1 2.760601 1_555
As4 Hf5 2.766776 1_556
Ru0 Ru4 2.757392 1_555
Ru0 Ru5 2.758845 1_555
Ru1 Ru3 2.757392 1_455
Ru1 Ru2 2.758845 1_555
Ru2 Ru3 2.768293 1_455
Ru4 Ru5 2.768293 1_555
