# generated using pymatgen
data_BaY3(ZnSn)4
_symmetry_space_group_name_H-M   'P 1'
_cell_length_a   8.99629246
_cell_length_b   8.99629197
_cell_length_c   34.43397484
_cell_angle_alpha   90.00000000
_cell_angle_beta   90.00000000
_cell_angle_gamma   120.00000181
_symmetry_Int_Tables_number   1
_chemical_formula_structural   BaY3(ZnSn)4
_chemical_formula_sum   'Ba8 Y24 Zn32 Sn32'
_cell_volume   2413.48658077
_cell_formula_units_Z   8
loop_
 _symmetry_equiv_pos_site_id
 _symmetry_equiv_pos_as_xyz
  1  'x, y, z'
loop_
 _atom_site_type_symbol
 _atom_site_label
 _atom_site_symmetry_multiplicity
 _atom_site_fract_x
 _atom_site_fract_y
 _atom_site_fract_z
 _atom_site_occupancy
  Ba  Ba0_0  1  0.00000000  0.00000000  0.00000000  1
  Ba  Ba0_1  1  0.00000000  0.00000000  0.50000000  1
  Ba  Ba0_2  1  0.00000000  0.50000000  0.00000000  1
  Ba  Ba0_3  1  0.00000000  0.50000000  0.50000000  1
  Ba  Ba0_4  1  0.50000000  0.00000000  0.00000000  1
  Ba  Ba0_5  1  0.50000000  0.00000000  0.50000000  1
  Ba  Ba0_6  1  0.50000000  0.50000000  0.00000000  1
  Ba  Ba0_7  1  0.50000000  0.50000000  0.50000000  1
  Y  Y0_0  1  0.00000000  0.00000000  0.13264410  1
  Y  Y0_1  1  0.00000000  0.00000000  0.63264410  1
  Y  Y0_2  1  0.00000000  0.50000000  0.13264410  1
  Y  Y0_3  1  0.00000000  0.50000000  0.63264410  1
  Y  Y0_4  1  0.50000000  0.00000000  0.13264410  1
  Y  Y0_5  1  0.50000000  0.00000000  0.63264410  1
  Y  Y0_6  1  0.50000000  0.50000000  0.13264410  1
  Y  Y0_7  1  0.50000000  0.50000000  0.63264410  1
  Y  Y1_0  1  0.00000000  0.00000000  0.25000000  1
  Y  Y1_1  1  0.00000000  0.00000000  0.75000000  1
  Y  Y1_2  1  0.00000000  0.50000000  0.25000000  1
  Y  Y1_3  1  0.00000000  0.50000000  0.75000000  1
  Y  Y1_4  1  0.50000000  0.00000000  0.25000000  1
  Y  Y1_5  1  0.50000000  0.00000000  0.75000000  1
  Y  Y1_6  1  0.50000000  0.50000000  0.25000000  1
  Y  Y1_7  1  0.50000000  0.50000000  0.75000000  1
  Y  Y2_0  1  0.00000000  0.00000000  0.36735590  1
  Y  Y2_1  1  0.00000000  0.00000000  0.86735590  1
  Y  Y2_2  1  0.00000000  0.50000000  0.36735590  1
  Y  Y2_3  1  0.00000000  0.50000000  0.86735590  1
  Y  Y2_4  1  0.50000000  0.00000000  0.36735590  1
  Y  Y2_5  1  0.50000000  0.00000000  0.86735590  1
  Y  Y2_6  1  0.50000000  0.50000000  0.36735590  1
  Y  Y2_7  1  0.50000000  0.50000000  0.86735590  1
  Zn  Zn0_0  1  0.33333350  0.16666650  0.40873719  1
  Zn  Zn0_1  1  0.33333350  0.16666650  0.90873719  1
  Zn  Zn0_2  1  0.33333350  0.66666650  0.40873719  1
  Zn  Zn0_3  1  0.33333350  0.66666650  0.90873719  1
  Zn  Zn0_4  1  0.83333350  0.16666650  0.40873719  1
  Zn  Zn0_5  1  0.83333350  0.16666650  0.90873719  1
  Zn  Zn0_6  1  0.83333350  0.66666650  0.40873719  1
  Zn  Zn0_7  1  0.83333350  0.66666650  0.90873719  1
  Zn  Zn1_0  1  0.16666650  0.33333350  0.17454195  1
  Zn  Zn1_1  1  0.16666650  0.33333350  0.67454195  1
  Zn  Zn1_2  1  0.16666650  0.83333350  0.17454195  1
  Zn  Zn1_3  1  0.16666650  0.83333350  0.67454195  1
  Zn  Zn1_4  1  0.66666650  0.33333350  0.17454195  1
  Zn  Zn1_5  1  0.66666650  0.33333350  0.67454195  1
  Zn  Zn1_6  1  0.66666650  0.83333350  0.17454195  1
  Zn  Zn1_7  1  0.66666650  0.83333350  0.67454195  1
  Zn  Zn2_0  1  0.33333350  0.16666650  0.32545805  1
  Zn  Zn2_1  1  0.33333350  0.16666650  0.82545805  1
  Zn  Zn2_2  1  0.33333350  0.66666650  0.32545805  1
  Zn  Zn2_3  1  0.33333350  0.66666650  0.82545805  1
  Zn  Zn2_4  1  0.83333350  0.16666650  0.32545805  1
  Zn  Zn2_5  1  0.83333350  0.16666650  0.82545805  1
  Zn  Zn2_6  1  0.83333350  0.66666650  0.32545805  1
  Zn  Zn2_7  1  0.83333350  0.66666650  0.82545805  1
  Zn  Zn3_0  1  0.16666650  0.33333350  0.09126281  1
  Zn  Zn3_1  1  0.16666650  0.33333350  0.59126281  1
  Zn  Zn3_2  1  0.16666650  0.83333350  0.09126281  1
  Zn  Zn3_3  1  0.16666650  0.83333350  0.59126281  1
  Zn  Zn3_4  1  0.66666650  0.33333350  0.09126281  1
  Zn  Zn3_5  1  0.66666650  0.33333350  0.59126281  1
  Zn  Zn3_6  1  0.66666650  0.83333350  0.09126281  1
  Zn  Zn3_7  1  0.66666650  0.83333350  0.59126281  1
  Sn  Sn0_0  1  0.16666650  0.33333350  0.30313001  1
  Sn  Sn0_1  1  0.16666650  0.33333350  0.80313001  1
  Sn  Sn0_2  1  0.16666650  0.83333350  0.30313001  1
  Sn  Sn0_3  1  0.16666650  0.83333350  0.80313001  1
  Sn  Sn0_4  1  0.66666650  0.33333350  0.30313001  1
  Sn  Sn0_5  1  0.66666650  0.33333350  0.80313001  1
  Sn  Sn0_6  1  0.66666650  0.83333350  0.30313001  1
  Sn  Sn0_7  1  0.66666650  0.83333350  0.80313001  1
  Sn  Sn1_0  1  0.33333350  0.16666650  0.07098805  1
  Sn  Sn1_1  1  0.33333350  0.16666650  0.57098805  1
  Sn  Sn1_2  1  0.33333350  0.66666650  0.07098805  1
  Sn  Sn1_3  1  0.33333350  0.66666650  0.57098805  1
  Sn  Sn1_4  1  0.83333350  0.16666650  0.07098805  1
  Sn  Sn1_5  1  0.83333350  0.16666650  0.57098805  1
  Sn  Sn1_6  1  0.83333350  0.66666650  0.07098805  1
  Sn  Sn1_7  1  0.83333350  0.66666650  0.57098805  1
  Sn  Sn2_0  1  0.33333350  0.16666650  0.19686999  1
  Sn  Sn2_1  1  0.33333350  0.16666650  0.69686999  1
  Sn  Sn2_2  1  0.33333350  0.66666650  0.19686999  1
  Sn  Sn2_3  1  0.33333350  0.66666650  0.69686999  1
  Sn  Sn2_4  1  0.83333350  0.16666650  0.19686999  1
  Sn  Sn2_5  1  0.83333350  0.16666650  0.69686999  1
  Sn  Sn2_6  1  0.83333350  0.66666650  0.19686999  1
  Sn  Sn2_7  1  0.83333350  0.66666650  0.69686999  1
  Sn  Sn3_0  1  0.16666650  0.33333350  0.42901195  1
  Sn  Sn3_1  1  0.16666650  0.33333350  0.92901195  1
  Sn  Sn3_2  1  0.16666650  0.83333350  0.42901195  1
  Sn  Sn3_3  1  0.16666650  0.83333350  0.92901195  1
  Sn  Sn3_4  1  0.66666650  0.33333350  0.42901195  1
  Sn  Sn3_5  1  0.66666650  0.33333350  0.92901195  1
  Sn  Sn3_6  1  0.66666650  0.83333350  0.42901195  1
  Sn  Sn3_7  1  0.66666650  0.83333350  0.92901195  1
loop_
_geom_bond_atom_site_label_1
_geom_bond_atom_site_label_2
_geom_bond_distance
_geom_bond_site_symmetry_2
Ba0_0 Sn1_4 3.566444 1_455
Ba0_0 Sn3_3 3.566444 1_544
Ba0_0 Sn1_6 3.566447 1_445
Ba0_0 Sn3_1 3.566447 1_554
Ba0_0 Sn1_0 3.566447 1_555
Ba0_0 Sn3_7 3.566447 1_444
Ba0_0 Zn0_5 4.076762 1_454
Ba0_0 Zn3_2 4.076762 1_545
Ba0_0 Zn0_7 4.076765 1_444
Ba0_0 Zn3_0 4.076765 1_555
Ba0_0 Zn0_1 4.076765 1_554
Ba0_0 Zn3_6 4.076765 1_445
Ba0_0 Ba0_6 4.498146 1_445
Ba0_0 Ba0_2 4.498146 1_555
Ba0_0 Ba0_6 4.498146 1_555
Ba0_0 Ba0_2 4.498146 1_545
Ba0_0 Ba0_4 4.498146 1_455
Ba0_0 Ba0_4 4.498146 1_555
Ba0_1 Sn1_5 3.566444 1_455
Ba0_1 Sn3_2 3.566444 1_545
Ba0_1 Sn1_7 3.566447 1_445
Ba0_1 Sn3_0 3.566447 1_555
Ba0_1 Sn1_1 3.566447 1_555
Ba0_1 Sn3_6 3.566447 1_445
Ba0_1 Zn0_4 4.076762 1_455
Ba0_1 Zn3_3 4.076762 1_545
Ba0_1 Zn0_6 4.076765 1_445
Ba0_1 Zn3_1 4.076765 1_555
Ba0_1 Zn0_0 4.076765 1_555
Ba0_1 Zn3_7 4.076765 1_445
Ba0_1 Ba0_7 4.498146 1_445
Ba0_1 Ba0_3 4.498146 1_545
Ba0_1 Ba0_3 4.498146 1_555
Ba0_1 Ba0_7 4.498146 1_555
Ba0_1 Ba0_5 4.498146 1_455
Ba0_1 Ba0_5 4.498146 1_555
Ba0_2 Sn1_6 3.566444 1_455
Ba0_2 Sn3_1 3.566444 1_554
Ba0_2 Sn1_4 3.566447 1_455
Ba0_2 Sn3_3 3.566447 1_554
Ba0_2 Sn1_2 3.566447 1_555
Ba0_2 Sn3_5 3.566447 1_454
Ba0_2 Zn0_7 4.076762 1_454
Ba0_2 Zn3_0 4.076762 1_555
Ba0_2 Zn0_5 4.076765 1_454
Ba0_2 Zn3_2 4.076765 1_555
Ba0_2 Zn0_3 4.076765 1_554
Ba0_2 Zn3_4 4.076765 1_455
Ba0_2 Ba0_4 4.498146 1_565
Ba0_2 Ba0_4 4.498146 1_455
Ba0_2 Ba0_6 4.498146 1_455
Ba0_2 Ba0_6 4.498146 1_555
Ba0_3 Sn1_7 3.566444 1_455
Ba0_3 Sn3_0 3.566444 1_555
Ba0_3 Sn1_5 3.566447 1_455
Ba0_3 Sn3_2 3.566447 1_555
Ba0_3 Sn1_3 3.566447 1_555
Ba0_3 Sn3_4 3.566447 1_455
Ba0_3 Zn0_6 4.076762 1_455
Ba0_3 Zn3_1 4.076762 1_555
Ba0_3 Zn0_4 4.076765 1_455
Ba0_3 Zn3_3 4.076765 1_555
Ba0_3 Zn0_2 4.076765 1_555
Ba0_3 Zn3_5 4.076765 1_455
Ba0_3 Ba0_5 4.498146 1_565
Ba0_3 Ba0_5 4.498146 1_455
Ba0_3 Ba0_7 4.498146 1_555
Ba0_3 Ba0_7 4.498146 1_455
Ba0_4 Sn1_0 3.566444 1_555
Ba0_4 Sn3_7 3.566444 1_544
Ba0_4 Sn1_2 3.566447 1_545
Ba0_4 Sn3_5 3.566447 1_554
Ba0_4 Sn1_4 3.566447 1_555
Ba0_4 Sn3_3 3.566447 1_544
Ba0_4 Zn0_1 4.076762 1_554
Ba0_4 Zn3_6 4.076762 1_545
Ba0_4 Zn0_3 4.076765 1_544
Ba0_4 Zn3_4 4.076765 1_555
Ba0_4 Zn0_5 4.076765 1_554
Ba0_4 Zn3_2 4.076765 1_545
Ba0_4 Ba0_6 4.498146 1_555
Ba0_4 Ba0_6 4.498146 1_545
Ba0_5 Sn1_1 3.566444 1_555
Ba0_5 Sn3_6 3.566444 1_545
Ba0_5 Sn1_3 3.566447 1_545
Ba0_5 Sn3_4 3.566447 1_555
Ba0_5 Sn1_5 3.566447 1_555
Ba0_5 Sn3_2 3.566447 1_545
Ba0_5 Zn0_0 4.076762 1_555
Ba0_5 Zn3_7 4.076762 1_545
Ba0_5 Zn0_2 4.076765 1_545
Ba0_5 Zn3_5 4.076765 1_555
Ba0_5 Zn0_4 4.076765 1_555
Ba0_5 Zn3_3 4.076765 1_545
Ba0_5 Ba0_7 4.498146 1_545
Ba0_5 Ba0_7 4.498146 1_555
Ba0_6 Sn1_2 3.566444 1_555
Ba0_6 Sn3_5 3.566444 1_554
Ba0_6 Sn1_0 3.566447 1_555
Ba0_6 Sn3_7 3.566447 1_554
Ba0_6 Sn1_6 3.566447 1_555
Ba0_6 Sn3_1 3.566447 1_554
Ba0_6 Zn0_3 4.076762 1_554
Ba0_6 Zn3_4 4.076762 1_555
Ba0_6 Zn0_1 4.076765 1_554
Ba0_6 Zn3_6 4.076765 1_555
Ba0_6 Zn0_7 4.076765 1_554
Ba0_6 Zn3_0 4.076765 1_555
Ba0_7 Sn1_3 3.566444 1_555
Ba0_7 Sn3_4 3.566444 1_555
Ba0_7 Sn1_1 3.566447 1_555
Ba0_7 Sn3_6 3.566447 1_555
Ba0_7 Sn1_7 3.566447 1_555
Ba0_7 Sn3_0 3.566447 1_555
Ba0_7 Zn0_2 4.076762 1_555
Ba0_7 Zn3_5 4.076762 1_555
Ba0_7 Zn0_0 4.076765 1_555
Ba0_7 Zn3_7 4.076765 1_555
Ba0_7 Zn0_6 4.076765 1_555
Ba0_7 Zn3_1 4.076765 1_555
Y0_0 Zn3_2 2.962234 1_545
Y0_0 Zn3_0 2.962237 1_555
Y0_0 Zn3_6 2.962237 1_445
Y0_0 Zn1_2 2.970831 1_545
Y0_0 Zn1_0 2.970834 1_555
Y0_0 Zn1_6 2.970834 1_445
Y0_1 Zn3_3 2.962234 1_545
Y0_1 Zn3_1 2.962237 1_555
Y0_1 Zn3_7 2.962237 1_445
Y0_1 Zn1_3 2.970831 1_545
Y0_1 Zn1_1 2.970834 1_555
Y0_1 Zn1_7 2.970834 1_445
Y0_2 Zn3_0 2.962234 1_555
Y0_2 Zn3_2 2.962237 1_555
Y0_2 Zn3_4 2.962237 1_455
Y0_2 Zn1_0 2.970831 1_555
Y0_2 Zn1_2 2.970834 1_555
Y0_2 Zn1_4 2.970834 1_455
Y0_3 Zn3_1 2.962234 1_555
Y0_3 Zn3_3 2.962237 1_555
Y0_3 Zn3_5 2.962237 1_455
Y0_3 Zn1_1 2.970831 1_555
Y0_3 Zn1_3 2.970834 1_555
Y0_3 Zn1_5 2.970834 1_455
Y0_4 Zn3_6 2.962234 1_545
Y0_4 Zn3_4 2.962237 1_555
Y0_4 Zn3_2 2.962237 1_545
Y0_4 Zn1_6 2.970831 1_545
Y0_4 Zn1_4 2.970834 1_555
Y0_4 Zn1_2 2.970834 1_545
Y0_5 Zn3_7 2.962234 1_545
Y0_5 Zn3_5 2.962237 1_555
Y0_5 Zn3_3 2.962237 1_545
Y0_5 Zn1_7 2.970831 1_545
Y0_5 Zn1_5 2.970834 1_555
Y0_5 Zn1_3 2.970834 1_545
Y0_6 Zn3_4 2.962234 1_555
Y0_6 Zn3_6 2.962237 1_555
Y0_6 Zn3_0 2.962237 1_555
Y0_6 Zn1_4 2.970831 1_555
Y0_6 Zn1_6 2.970834 1_555
Y0_6 Zn1_0 2.970834 1_555
Y0_7 Zn3_5 2.962234 1_555
Y0_7 Zn3_7 2.962237 1_555
Y0_7 Zn3_1 2.962237 1_555
Y0_7 Zn1_5 2.970831 1_555
Y0_7 Zn1_7 2.970834 1_555
Y0_7 Zn1_1 2.970834 1_555
Y1_0 Zn2_4 3.673649 1_455
Y1_0 Zn1_2 3.673649 1_545
Y1_0 Zn2_6 3.673651 1_445
Y1_0 Zn1_0 3.673651 1_555
Y1_0 Zn2_0 3.673652 1_555
Y1_0 Zn1_6 3.673652 1_445
Y1_1 Zn2_5 3.673649 1_455
Y1_1 Zn1_3 3.673649 1_545
Y1_1 Zn2_7 3.673651 1_445
Y1_1 Zn1_1 3.673651 1_555
Y1_1 Zn2_1 3.673652 1_555
Y1_1 Zn1_7 3.673652 1_445
Y1_2 Zn2_6 3.673649 1_455
Y1_2 Zn1_0 3.673649 1_555
Y1_2 Zn2_4 3.673651 1_455
Y1_2 Zn1_2 3.673651 1_555
Y1_2 Zn2_2 3.673652 1_555
Y1_2 Zn1_4 3.673652 1_455
Y1_3 Zn2_7 3.673649 1_455
Y1_3 Zn1_1 3.673649 1_555
Y1_3 Zn2_5 3.673651 1_455
Y1_3 Zn1_3 3.673651 1_555
Y1_3 Zn2_3 3.673652 1_555
Y1_3 Zn1_5 3.673652 1_455
Y1_4 Zn2_0 3.673649 1_555
Y1_4 Zn1_6 3.673649 1_545
Y1_4 Zn2_2 3.673651 1_545
Y1_4 Zn1_4 3.673651 1_555
Y1_4 Zn2_4 3.673652 1_555
Y1_4 Zn1_2 3.673652 1_545
Y1_5 Zn2_1 3.673649 1_555
Y1_5 Zn1_7 3.673649 1_545
Y1_5 Zn2_3 3.673651 1_545
Y1_5 Zn1_5 3.673651 1_555
Y1_5 Zn2_5 3.673652 1_555
Y1_5 Zn1_3 3.673652 1_545
Y1_6 Zn2_2 3.673649 1_555
Y1_6 Zn1_4 3.673649 1_555
Y1_6 Zn2_0 3.673651 1_555
Y1_6 Zn1_6 3.673651 1_555
Y1_6 Zn2_6 3.673652 1_555
Y1_6 Zn1_0 3.673652 1_555
Y1_7 Zn2_3 3.673649 1_555
Y1_7 Zn1_5 3.673649 1_555
Y1_7 Zn2_1 3.673651 1_555
Y1_7 Zn1_7 3.673651 1_555
Y1_7 Zn2_7 3.673652 1_555
Y1_7 Zn1_1 3.673652 1_555
Y2_0 Zn0_4 2.962234 1_455
Y2_0 Zn0_6 2.962237 1_445
Y2_0 Zn0_0 2.962237 1_555
Y2_0 Zn2_4 2.970831 1_455
Y2_0 Zn2_6 2.970834 1_445
Y2_0 Zn2_0 2.970834 1_555
Y2_1 Zn0_5 2.962234 1_455
Y2_1 Zn0_7 2.962237 1_445
Y2_1 Zn0_1 2.962237 1_555
Y2_1 Zn2_5 2.970831 1_455
Y2_1 Zn2_7 2.970834 1_445
Y2_1 Zn2_1 2.970834 1_555
Y2_2 Zn0_6 2.962234 1_455
Y2_2 Zn0_4 2.962237 1_455
Y2_2 Zn0_2 2.962237 1_555
Y2_2 Zn2_6 2.970831 1_455
Y2_2 Zn2_4 2.970834 1_455
Y2_2 Zn2_2 2.970834 1_555
Y2_3 Zn0_7 2.962234 1_455
Y2_3 Zn0_5 2.962237 1_455
Y2_3 Zn0_3 2.962237 1_555
Y2_3 Zn2_7 2.970831 1_455
Y2_3 Zn2_5 2.970834 1_455
Y2_3 Zn2_3 2.970834 1_555
Y2_4 Zn0_0 2.962234 1_555
Y2_4 Zn0_2 2.962237 1_545
Y2_4 Zn0_4 2.962237 1_555
Y2_4 Zn2_0 2.970831 1_555
Y2_4 Zn2_2 2.970834 1_545
Y2_4 Zn2_4 2.970834 1_555
Y2_5 Zn0_1 2.962234 1_555
Y2_5 Zn0_3 2.962237 1_545
Y2_5 Zn0_5 2.962237 1_555
Y2_5 Zn2_1 2.970831 1_555
Y2_5 Zn2_3 2.970834 1_545
Y2_5 Zn2_5 2.970834 1_555
Y2_6 Zn0_2 2.962234 1_555
Y2_6 Zn0_0 2.962237 1_555
Y2_6 Zn0_6 2.962237 1_555
Y2_6 Zn2_2 2.970831 1_555
Y2_6 Zn2_0 2.970834 1_555
Y2_6 Zn2_6 2.970834 1_555
Y2_7 Zn0_3 2.962234 1_555
Y2_7 Zn0_1 2.962237 1_555
Y2_7 Zn0_7 2.962237 1_555
Y2_7 Zn2_3 2.970831 1_555
Y2_7 Zn2_1 2.970834 1_555
Y2_7 Zn2_7 2.970834 1_555
Zn0_0 Zn2_0 2.867632 1_555
Zn0_1 Zn2_1 2.867632 1_555
Zn0_2 Zn2_2 2.867632 1_555
Zn0_3 Zn2_3 2.867632 1_555
Zn0_4 Zn2_4 2.867632 1_555
Zn0_5 Zn2_5 2.867632 1_555
Zn0_6 Zn2_6 2.867632 1_555
Zn0_7 Zn2_7 2.867632 1_555
Zn1_0 Zn3_0 2.867632 1_555
Zn1_1 Zn3_1 2.867632 1_555
Zn1_2 Zn3_2 2.867632 1_555
Zn1_3 Zn3_3 2.867632 1_555
Zn1_4 Zn3_4 2.867632 1_555
Zn1_5 Zn3_5 2.867632 1_555
Zn1_6 Zn3_6 2.867632 1_555
Zn1_7 Zn3_7 2.867632 1_555
Sn0_0 Zn2_2 2.708421 1_555
Sn0_0 Zn2_4 2.708421 1_455
Sn0_0 Zn2_0 2.708429 1_555
Sn0_0 Y1_2 3.176699 1_555
Sn0_0 Y1_0 3.176702 1_555
Sn0_0 Y1_6 3.176702 1_555
Sn0_0 Y2_2 3.411069 1_555
Sn0_0 Y2_0 3.411072 1_555
Sn0_0 Y2_6 3.411072 1_555
Sn0_1 Zn2_3 2.708421 1_555
Sn0_1 Zn2_5 2.708421 1_455
Sn0_1 Zn2_1 2.708429 1_555
Sn0_1 Y1_3 3.176699 1_555
Sn0_1 Y1_1 3.176702 1_555
Sn0_1 Y1_7 3.176702 1_555
Sn0_1 Y2_3 3.411069 1_555
Sn0_1 Y2_1 3.411072 1_555
Sn0_1 Y2_7 3.411072 1_555
Sn0_2 Zn2_0 2.708421 1_565
Sn0_2 Zn2_6 2.708421 1_455
Sn0_2 Zn2_2 2.708429 1_555
Sn0_2 Y1_0 3.176699 1_565
Sn0_2 Y1_2 3.176702 1_555
Sn0_2 Y1_4 3.176702 1_565
Sn0_2 Y2_0 3.411069 1_565
Sn0_2 Y2_2 3.411072 1_555
Sn0_2 Y2_4 3.411072 1_565
Sn0_3 Zn2_1 2.708421 1_565
Sn0_3 Zn2_7 2.708421 1_455
Sn0_3 Zn2_3 2.708429 1_555
Sn0_3 Y1_1 3.176699 1_565
Sn0_3 Y1_3 3.176702 1_555
Sn0_3 Y1_5 3.176702 1_565
Sn0_3 Y2_1 3.411069 1_565
Sn0_3 Y2_3 3.411072 1_555
Sn0_3 Y2_5 3.411072 1_565
Sn0_4 Zn2_6 2.708421 1_555
Sn0_4 Zn2_0 2.708421 1_555
Sn0_4 Zn2_4 2.708429 1_555
Sn0_4 Y1_6 3.176699 1_555
Sn0_4 Y1_4 3.176702 1_555
Sn0_4 Y1_2 3.176702 1_655
Sn0_4 Y2_6 3.411069 1_555
Sn0_4 Y2_4 3.411072 1_555
Sn0_4 Y2_2 3.411072 1_655
Sn0_5 Zn2_7 2.708421 1_555
Sn0_5 Zn2_1 2.708421 1_555
Sn0_5 Zn2_5 2.708429 1_555
Sn0_5 Y1_7 3.176699 1_555
Sn0_5 Y1_5 3.176702 1_555
Sn0_5 Y1_3 3.176702 1_655
Sn0_5 Y2_7 3.411069 1_555
Sn0_5 Y2_5 3.411072 1_555
Sn0_5 Y2_3 3.411072 1_655
Sn0_6 Zn2_4 2.708421 1_565
Sn0_6 Zn2_2 2.708421 1_555
Sn0_6 Zn2_6 2.708429 1_555
Sn0_6 Y1_4 3.176699 1_565
Sn0_6 Y1_6 3.176702 1_555
Sn0_6 Y1_0 3.176702 1_665
Sn0_6 Y2_4 3.411069 1_565
Sn0_6 Y2_6 3.411072 1_555
Sn0_6 Y2_0 3.411072 1_665
Sn0_7 Zn2_5 2.708421 1_565
Sn0_7 Zn2_3 2.708421 1_555
Sn0_7 Zn2_7 2.708429 1_555
Sn0_7 Y1_5 3.176699 1_565
Sn0_7 Y1_7 3.176702 1_555
Sn0_7 Y1_1 3.176702 1_665
Sn0_7 Y2_5 3.411069 1_565
Sn0_7 Y2_7 3.411072 1_555
Sn0_7 Y2_1 3.411072 1_665
Sn1_0 Zn3_2 2.689205 1_545
Sn1_0 Zn3_4 2.689205 1_555
Sn1_0 Zn3_0 2.689213 1_555
Sn1_0 Y0_4 3.354374 1_555
Sn1_0 Y0_6 3.354376 1_555
Sn1_0 Y0_0 3.354377 1_555
Sn1_1 Zn3_3 2.689205 1_545
Sn1_1 Zn3_5 2.689205 1_555
Sn1_1 Zn3_1 2.689213 1_555
Sn1_1 Y0_5 3.354374 1_555
Sn1_1 Y0_7 3.354376 1_555
Sn1_1 Y0_1 3.354377 1_555
Sn1_2 Zn3_0 2.689205 1_555
Sn1_2 Zn3_6 2.689205 1_555
Sn1_2 Zn3_2 2.689213 1_555
Sn1_2 Y0_6 3.354374 1_555
Sn1_2 Y0_4 3.354376 1_565
Sn1_2 Y0_2 3.354377 1_555
Sn1_3 Zn3_1 2.689205 1_555
Sn1_3 Zn3_7 2.689205 1_555
Sn1_3 Zn3_3 2.689213 1_555
Sn1_3 Y0_7 3.354374 1_555
Sn1_3 Y0_5 3.354376 1_565
Sn1_3 Y0_3 3.354377 1_555
Sn1_4 Zn3_6 2.689205 1_545
Sn1_4 Zn3_0 2.689205 1_655
Sn1_4 Zn3_4 2.689213 1_555
Sn1_4 Y0_0 3.354374 1_655
Sn1_4 Y0_2 3.354376 1_655
Sn1_4 Y0_4 3.354377 1_555
Sn1_5 Zn3_7 2.689205 1_545
Sn1_5 Zn3_1 2.689205 1_655
Sn1_5 Zn3_5 2.689213 1_555
Sn1_5 Y0_1 3.354374 1_655
Sn1_5 Y0_3 3.354376 1_655
Sn1_5 Y0_5 3.354377 1_555
Sn1_6 Zn3_4 2.689205 1_555
Sn1_6 Zn3_2 2.689205 1_655
Sn1_6 Zn3_6 2.689213 1_555
Sn1_6 Y0_2 3.354374 1_655
Sn1_6 Y0_0 3.354376 1_665
Sn1_6 Y0_6 3.354377 1_555
Sn1_7 Zn3_5 2.689205 1_555
Sn1_7 Zn3_3 2.689205 1_655
Sn1_7 Zn3_7 2.689213 1_555
Sn1_7 Y0_3 3.354374 1_655
Sn1_7 Y0_1 3.354376 1_665
Sn1_7 Y0_7 3.354377 1_555
Sn2_0 Zn1_2 2.708421 1_545
Sn2_0 Zn1_4 2.708421 1_555
Sn2_0 Zn1_0 2.708429 1_555
Sn2_0 Y1_4 3.176699 1_555
Sn2_0 Y1_6 3.176702 1_555
Sn2_0 Y1_0 3.176702 1_555
Sn2_0 Y0_4 3.411069 1_555
Sn2_0 Y0_6 3.411072 1_555
Sn2_0 Y0_0 3.411072 1_555
Sn2_1 Zn1_3 2.708421 1_545
Sn2_1 Zn1_5 2.708421 1_555
Sn2_1 Zn1_1 2.708429 1_555
Sn2_1 Y1_5 3.176699 1_555
Sn2_1 Y1_7 3.176702 1_555
Sn2_1 Y1_1 3.176702 1_555
Sn2_1 Y0_5 3.411069 1_555
Sn2_1 Y0_7 3.411072 1_555
Sn2_1 Y0_1 3.411072 1_555
Sn2_2 Zn1_0 2.708421 1_555
Sn2_2 Zn1_6 2.708421 1_555
Sn2_2 Zn1_2 2.708429 1_555
Sn2_2 Y1_6 3.176699 1_555
Sn2_2 Y1_4 3.176702 1_565
Sn2_2 Y1_2 3.176702 1_555
Sn2_2 Y0_6 3.411069 1_555
Sn2_2 Y0_4 3.411072 1_565
Sn2_2 Y0_2 3.411072 1_555
Sn2_3 Zn1_1 2.708421 1_555
Sn2_3 Zn1_7 2.708421 1_555
Sn2_3 Zn1_3 2.708429 1_555
Sn2_3 Y1_7 3.176699 1_555
Sn2_3 Y1_5 3.176702 1_565
Sn2_3 Y1_3 3.176702 1_555
Sn2_3 Y0_7 3.411069 1_555
Sn2_3 Y0_5 3.411072 1_565
Sn2_3 Y0_3 3.411072 1_555
Sn2_4 Zn1_6 2.708421 1_545
Sn2_4 Zn1_0 2.708421 1_655
Sn2_4 Zn1_4 2.708429 1_555
Sn2_4 Y1_0 3.176699 1_655
Sn2_4 Y1_2 3.176702 1_655
Sn2_4 Y1_4 3.176702 1_555
Sn2_4 Y0_0 3.411069 1_655
Sn2_4 Y0_2 3.411072 1_655
Sn2_4 Y0_4 3.411072 1_555
Sn2_5 Zn1_7 2.708421 1_545
Sn2_5 Zn1_1 2.708421 1_655
Sn2_5 Zn1_5 2.708429 1_555
Sn2_5 Y1_1 3.176699 1_655
Sn2_5 Y1_3 3.176702 1_655
Sn2_5 Y1_5 3.176702 1_555
Sn2_5 Y0_1 3.411069 1_655
Sn2_5 Y0_3 3.411072 1_655
Sn2_5 Y0_5 3.411072 1_555
Sn2_6 Zn1_4 2.708421 1_555
Sn2_6 Zn1_2 2.708421 1_655
Sn2_6 Zn1_6 2.708429 1_555
Sn2_6 Y1_2 3.176699 1_655
Sn2_6 Y1_0 3.176702 1_665
Sn2_6 Y1_6 3.176702 1_555
Sn2_6 Y0_2 3.411069 1_655
Sn2_6 Y0_0 3.411072 1_665
Sn2_6 Y0_6 3.411072 1_555
Sn2_7 Zn1_5 2.708421 1_555
Sn2_7 Zn1_3 2.708421 1_655
Sn2_7 Zn1_7 2.708429 1_555
Sn2_7 Y1_3 3.176699 1_655
Sn2_7 Y1_1 3.176702 1_665
Sn2_7 Y1_7 3.176702 1_555
Sn2_7 Y0_3 3.411069 1_655
Sn2_7 Y0_1 3.411072 1_665
Sn2_7 Y0_7 3.411072 1_555
Sn3_0 Zn0_2 2.689205 1_555
Sn3_0 Zn0_4 2.689205 1_455
Sn3_0 Zn0_0 2.689213 1_555
Sn3_0 Y2_2 3.354374 1_555
Sn3_0 Y2_0 3.354376 1_555
Sn3_0 Y2_6 3.354377 1_555
Sn3_1 Zn0_3 2.689205 1_555
Sn3_1 Zn0_5 2.689205 1_455
Sn3_1 Zn0_1 2.689213 1_555
Sn3_1 Y2_3 3.354374 1_555
Sn3_1 Y2_1 3.354376 1_555
Sn3_1 Y2_7 3.354377 1_555
Sn3_2 Zn0_0 2.689205 1_565
Sn3_2 Zn0_6 2.689205 1_455
Sn3_2 Zn0_2 2.689213 1_555
Sn3_2 Y2_0 3.354374 1_565
Sn3_2 Y2_2 3.354376 1_555
Sn3_2 Y2_4 3.354377 1_565
Sn3_3 Zn0_1 2.689205 1_565
Sn3_3 Zn0_7 2.689205 1_455
Sn3_3 Zn0_3 2.689213 1_555
Sn3_3 Y2_1 3.354374 1_565
Sn3_3 Y2_3 3.354376 1_555
Sn3_3 Y2_5 3.354377 1_565
Sn3_4 Zn0_6 2.689205 1_555
Sn3_4 Zn0_0 2.689205 1_555
Sn3_4 Zn0_4 2.689213 1_555
Sn3_4 Y2_6 3.354374 1_555
Sn3_4 Y2_4 3.354376 1_555
Sn3_4 Y2_2 3.354377 1_655
Sn3_5 Zn0_7 2.689205 1_555
Sn3_5 Zn0_1 2.689205 1_555
Sn3_5 Zn0_5 2.689213 1_555
Sn3_5 Y2_7 3.354374 1_555
Sn3_5 Y2_5 3.354376 1_555
Sn3_5 Y2_3 3.354377 1_655
Sn3_6 Zn0_4 2.689205 1_565
Sn3_6 Zn0_2 2.689205 1_555
Sn3_6 Zn0_6 2.689213 1_555
Sn3_6 Y2_4 3.354374 1_565
Sn3_6 Y2_6 3.354376 1_555
Sn3_6 Y2_0 3.354377 1_665
Sn3_7 Zn0_5 2.689205 1_565
Sn3_7 Zn0_3 2.689205 1_555
Sn3_7 Zn0_7 2.689213 1_555
Sn3_7 Y2_5 3.354374 1_565
Sn3_7 Y2_7 3.354376 1_555
Sn3_7 Y2_1 3.354377 1_665
