# generated using pymatgen
data_Zr4SnHgC2
_symmetry_space_group_name_H-M   'P 1'
_cell_length_a   6.72574055
_cell_length_b   6.72574156
_cell_length_c   29.55543895
_cell_angle_alpha   90.00000000
_cell_angle_beta   90.00000000
_cell_angle_gamma   119.99999501
_symmetry_Int_Tables_number   1
_chemical_formula_structural   Zr4SnHgC2
_chemical_formula_sum   'Zr32 Sn8 Hg8 C16'
_cell_volume   1157.83947580
_cell_formula_units_Z   8
loop_
 _symmetry_equiv_pos_site_id
 _symmetry_equiv_pos_as_xyz
  1  'x, y, z'
loop_
 _atom_site_type_symbol
 _atom_site_label
 _atom_site_symmetry_multiplicity
 _atom_site_fract_x
 _atom_site_fract_y
 _atom_site_fract_z
 _atom_site_occupancy
  Zr  Zr0_0  1  0.16666650  0.33333350  0.04285019  1
  Zr  Zr0_1  1  0.16666650  0.33333350  0.54285019  1
  Zr  Zr0_2  1  0.16666650  0.83333350  0.04285019  1
  Zr  Zr0_3  1  0.16666650  0.83333350  0.54285019  1
  Zr  Zr0_4  1  0.66666650  0.33333350  0.04285019  1
  Zr  Zr0_5  1  0.66666650  0.33333350  0.54285019  1
  Zr  Zr0_6  1  0.66666650  0.83333350  0.04285019  1
  Zr  Zr0_7  1  0.66666650  0.83333350  0.54285019  1
  Zr  Zr1_0  1  0.16666650  0.33333350  0.20714981  1
  Zr  Zr1_1  1  0.16666650  0.33333350  0.70714981  1
  Zr  Zr1_2  1  0.16666650  0.83333350  0.20714981  1
  Zr  Zr1_3  1  0.16666650  0.83333350  0.70714981  1
  Zr  Zr1_4  1  0.66666650  0.33333350  0.20714981  1
  Zr  Zr1_5  1  0.66666650  0.33333350  0.70714981  1
  Zr  Zr1_6  1  0.66666650  0.83333350  0.20714981  1
  Zr  Zr1_7  1  0.66666650  0.83333350  0.70714981  1
  Zr  Zr2_0  1  0.33333350  0.16666650  0.29148697  1
  Zr  Zr2_1  1  0.33333350  0.16666650  0.79148697  1
  Zr  Zr2_2  1  0.33333350  0.66666650  0.29148697  1
  Zr  Zr2_3  1  0.33333350  0.66666650  0.79148697  1
  Zr  Zr2_4  1  0.83333350  0.16666650  0.29148697  1
  Zr  Zr2_5  1  0.83333350  0.16666650  0.79148697  1
  Zr  Zr2_6  1  0.83333350  0.66666650  0.29148697  1
  Zr  Zr2_7  1  0.83333350  0.66666650  0.79148697  1
  Zr  Zr3_0  1  0.33333350  0.16666650  0.45851303  1
  Zr  Zr3_1  1  0.33333350  0.16666650  0.95851303  1
  Zr  Zr3_2  1  0.33333350  0.66666650  0.45851303  1
  Zr  Zr3_3  1  0.33333350  0.66666650  0.95851303  1
  Zr  Zr3_4  1  0.83333350  0.16666650  0.45851303  1
  Zr  Zr3_5  1  0.83333350  0.16666650  0.95851303  1
  Zr  Zr3_6  1  0.83333350  0.66666650  0.45851303  1
  Zr  Zr3_7  1  0.83333350  0.66666650  0.95851303  1
  Sn  Sn0_0  1  0.33333350  0.16666650  0.12500000  1
  Sn  Sn0_1  1  0.33333350  0.16666650  0.62500000  1
  Sn  Sn0_2  1  0.33333350  0.66666650  0.12500000  1
  Sn  Sn0_3  1  0.33333350  0.66666650  0.62500000  1
  Sn  Sn0_4  1  0.83333350  0.16666650  0.12500000  1
  Sn  Sn0_5  1  0.83333350  0.16666650  0.62500000  1
  Sn  Sn0_6  1  0.83333350  0.66666650  0.12500000  1
  Sn  Sn0_7  1  0.83333350  0.66666650  0.62500000  1
  Hg  Hg0_0  1  0.16666650  0.33333350  0.37500000  1
  Hg  Hg0_1  1  0.16666650  0.33333350  0.87500000  1
  Hg  Hg0_2  1  0.16666650  0.83333350  0.37500000  1
  Hg  Hg0_3  1  0.16666650  0.83333350  0.87500000  1
  Hg  Hg0_4  1  0.66666650  0.33333350  0.37500000  1
  Hg  Hg0_5  1  0.66666650  0.33333350  0.87500000  1
  Hg  Hg0_6  1  0.66666650  0.83333350  0.37500000  1
  Hg  Hg0_7  1  0.66666650  0.83333350  0.87500000  1
  C  C0_0  1  0.00000000  0.00000000  0.00031794  1
  C  C0_1  1  0.00000000  0.00000000  0.50031794  1
  C  C0_2  1  0.00000000  0.50000000  0.00031794  1
  C  C0_3  1  0.00000000  0.50000000  0.50031794  1
  C  C0_4  1  0.50000000  0.00000000  0.00031794  1
  C  C0_5  1  0.50000000  0.00000000  0.50031794  1
  C  C0_6  1  0.50000000  0.50000000  0.00031794  1
  C  C0_7  1  0.50000000  0.50000000  0.50031794  1
  C  C1_0  1  0.00000000  0.00000000  0.24968206  1
  C  C1_1  1  0.00000000  0.00000000  0.74968206  1
  C  C1_2  1  0.00000000  0.50000000  0.24968206  1
  C  C1_3  1  0.00000000  0.50000000  0.74968206  1
  C  C1_4  1  0.50000000  0.00000000  0.24968206  1
  C  C1_5  1  0.50000000  0.00000000  0.74968206  1
  C  C1_6  1  0.50000000  0.50000000  0.24968206  1
  C  C1_7  1  0.50000000  0.50000000  0.74968206  1
loop_
_geom_bond_atom_site_label_1
_geom_bond_atom_site_label_2
_geom_bond_distance
_geom_bond_site_symmetry_2
Sn0_0 Zr1_4 3.108807 1_555
Sn0_0 Zr0_4 3.108807 1_555
Sn0_0 Zr1_2 3.108807 1_545
Sn0_0 Zr0_2 3.108807 1_545
Sn0_0 Zr1_0 3.108811 1_555
Sn0_0 Zr0_0 3.108811 1_555
Sn0_0 Sn0_4 3.362870 1_455
Sn0_0 Sn0_4 3.362870 1_555
Sn0_0 Sn0_2 3.362871 1_545
Sn0_0 Sn0_6 3.362871 1_445
Sn0_0 Sn0_6 3.362871 1_555
Sn0_0 Sn0_2 3.362871 1_555
Sn0_1 Zr1_5 3.108807 1_555
Sn0_1 Zr0_5 3.108807 1_555
Sn0_1 Zr1_3 3.108807 1_545
Sn0_1 Zr0_3 3.108807 1_545
Sn0_1 Zr1_1 3.108811 1_555
Sn0_1 Zr0_1 3.108811 1_555
Sn0_1 Sn0_5 3.362870 1_455
Sn0_1 Sn0_5 3.362870 1_555
Sn0_1 Sn0_3 3.362871 1_545
Sn0_1 Sn0_7 3.362871 1_445
Sn0_1 Sn0_7 3.362871 1_555
Sn0_1 Sn0_3 3.362871 1_555
Sn0_2 Zr1_6 3.108807 1_555
Sn0_2 Zr0_6 3.108807 1_555
Sn0_2 Zr1_0 3.108807 1_555
Sn0_2 Zr0_0 3.108807 1_555
Sn0_2 Zr1_2 3.108811 1_555
Sn0_2 Zr0_2 3.108811 1_555
Sn0_2 Sn0_6 3.362870 1_455
Sn0_2 Sn0_6 3.362870 1_555
Sn0_2 Sn0_4 3.362871 1_455
Sn0_2 Sn0_4 3.362871 1_565
Sn0_3 Zr1_7 3.108807 1_555
Sn0_3 Zr0_7 3.108807 1_555
Sn0_3 Zr1_1 3.108807 1_555
Sn0_3 Zr0_1 3.108807 1_555
Sn0_3 Zr1_3 3.108811 1_555
Sn0_3 Zr0_3 3.108811 1_555
Sn0_3 Sn0_7 3.362870 1_555
Sn0_3 Sn0_7 3.362870 1_455
Sn0_3 Sn0_5 3.362871 1_565
Sn0_3 Sn0_5 3.362871 1_455
Sn0_4 Zr1_0 3.108807 1_655
Sn0_4 Zr0_0 3.108807 1_655
Sn0_4 Zr1_6 3.108807 1_545
Sn0_4 Zr0_6 3.108807 1_545
Sn0_4 Zr1_4 3.108811 1_555
Sn0_4 Zr0_4 3.108811 1_555
Sn0_4 Sn0_6 3.362871 1_545
Sn0_4 Sn0_6 3.362871 1_555
Sn0_5 Zr1_1 3.108807 1_655
Sn0_5 Zr0_1 3.108807 1_655
Sn0_5 Zr1_7 3.108807 1_545
Sn0_5 Zr0_7 3.108807 1_545
Sn0_5 Zr1_5 3.108811 1_555
Sn0_5 Zr0_5 3.108811 1_555
Sn0_5 Sn0_7 3.362871 1_545
Sn0_5 Sn0_7 3.362871 1_555
Sn0_6 Zr1_2 3.108807 1_655
Sn0_6 Zr0_2 3.108807 1_655
Sn0_6 Zr1_4 3.108807 1_555
Sn0_6 Zr0_4 3.108807 1_555
Sn0_6 Zr1_6 3.108811 1_555
Sn0_6 Zr0_6 3.108811 1_555
Sn0_7 Zr1_3 3.108807 1_655
Sn0_7 Zr0_3 3.108807 1_655
Sn0_7 Zr1_5 3.108807 1_555
Sn0_7 Zr0_5 3.108807 1_555
Sn0_7 Zr1_7 3.108811 1_555
Sn0_7 Zr0_7 3.108811 1_555
Hg0_0 Zr3_4 3.140375 1_455
Hg0_0 Zr2_4 3.140375 1_455
Hg0_0 Zr3_2 3.140375 1_555
Hg0_0 Zr2_2 3.140375 1_555
Hg0_0 Zr3_0 3.140378 1_555
Hg0_0 Zr2_0 3.140378 1_555
Hg0_0 Hg0_4 3.362870 1_455
Hg0_0 Hg0_4 3.362870 1_555
Hg0_0 Hg0_2 3.362871 1_545
Hg0_0 Hg0_6 3.362871 1_445
Hg0_0 Hg0_6 3.362871 1_555
Hg0_0 Hg0_2 3.362871 1_555
Hg0_1 Zr3_5 3.140375 1_455
Hg0_1 Zr2_5 3.140375 1_455
Hg0_1 Zr3_3 3.140375 1_555
Hg0_1 Zr2_3 3.140375 1_555
Hg0_1 Zr3_1 3.140378 1_555
Hg0_1 Zr2_1 3.140378 1_555
Hg0_1 Hg0_5 3.362870 1_455
Hg0_1 Hg0_5 3.362870 1_555
Hg0_1 Hg0_3 3.362871 1_545
Hg0_1 Hg0_7 3.362871 1_445
Hg0_1 Hg0_3 3.362871 1_555
Hg0_1 Hg0_7 3.362871 1_555
Hg0_2 Zr3_6 3.140375 1_455
Hg0_2 Zr2_6 3.140375 1_455
Hg0_2 Zr3_0 3.140375 1_565
Hg0_2 Zr2_0 3.140375 1_565
Hg0_2 Zr3_2 3.140378 1_555
Hg0_2 Zr2_2 3.140378 1_555
Hg0_2 Hg0_6 3.362870 1_555
Hg0_2 Hg0_6 3.362870 1_455
Hg0_2 Hg0_4 3.362871 1_565
Hg0_2 Hg0_4 3.362871 1_455
Hg0_3 Zr3_7 3.140375 1_455
Hg0_3 Zr2_7 3.140375 1_455
Hg0_3 Zr3_1 3.140375 1_565
Hg0_3 Zr2_1 3.140375 1_565
Hg0_3 Zr3_3 3.140378 1_555
Hg0_3 Zr2_3 3.140378 1_555
Hg0_3 Hg0_7 3.362870 1_455
Hg0_3 Hg0_7 3.362870 1_555
Hg0_3 Hg0_5 3.362871 1_565
Hg0_3 Hg0_5 3.362871 1_455
Hg0_4 Zr3_0 3.140375 1_555
Hg0_4 Zr2_0 3.140375 1_555
Hg0_4 Zr3_6 3.140375 1_555
Hg0_4 Zr2_6 3.140375 1_555
Hg0_4 Zr3_4 3.140378 1_555
Hg0_4 Zr2_4 3.140378 1_555
Hg0_4 Hg0_6 3.362871 1_545
Hg0_4 Hg0_6 3.362871 1_555
Hg0_5 Zr3_1 3.140375 1_555
Hg0_5 Zr2_1 3.140375 1_555
Hg0_5 Zr3_7 3.140375 1_555
Hg0_5 Zr2_7 3.140375 1_555
Hg0_5 Zr3_5 3.140378 1_555
Hg0_5 Zr2_5 3.140378 1_555
Hg0_5 Hg0_7 3.362871 1_545
Hg0_5 Hg0_7 3.362871 1_555
Hg0_6 Zr3_2 3.140375 1_555
Hg0_6 Zr2_2 3.140375 1_555
Hg0_6 Zr3_4 3.140375 1_565
Hg0_6 Zr2_4 3.140375 1_565
Hg0_6 Zr3_6 3.140378 1_555
Hg0_6 Zr2_6 3.140378 1_555
Hg0_7 Zr3_3 3.140375 1_555
Hg0_7 Zr2_3 3.140375 1_555
Hg0_7 Zr3_5 3.140375 1_565
Hg0_7 Zr2_5 3.140375 1_565
Hg0_7 Zr3_7 3.140378 1_555
Hg0_7 Zr2_7 3.140378 1_555
C0_0 Zr3_5 2.301356 1_454
C0_0 Zr3_1 2.301358 1_554
C0_0 Zr3_7 2.301359 1_444
C0_0 Zr0_2 2.312968 1_545
C0_0 Zr0_6 2.312971 1_445
C0_0 Zr0_0 2.312971 1_555
C0_1 Zr3_4 2.301356 1_455
C0_1 Zr3_0 2.301358 1_555
C0_1 Zr3_6 2.301359 1_445
C0_1 Zr0_3 2.312968 1_545
C0_1 Zr0_7 2.312971 1_445
C0_1 Zr0_1 2.312971 1_555
C0_2 Zr3_7 2.301356 1_454
C0_2 Zr3_3 2.301358 1_554
C0_2 Zr3_5 2.301359 1_454
C0_2 Zr0_0 2.312968 1_555
C0_2 Zr0_4 2.312971 1_455
C0_2 Zr0_2 2.312971 1_555
C0_3 Zr3_6 2.301356 1_455
C0_3 Zr3_2 2.301358 1_555
C0_3 Zr3_4 2.301359 1_455
C0_3 Zr0_1 2.312968 1_555
C0_3 Zr0_5 2.312971 1_455
C0_3 Zr0_3 2.312971 1_555
C0_4 Zr3_1 2.301356 1_554
C0_4 Zr3_5 2.301358 1_554
C0_4 Zr3_3 2.301359 1_544
C0_4 Zr0_6 2.312968 1_545
C0_4 Zr0_2 2.312971 1_545
C0_4 Zr0_4 2.312971 1_555
C0_5 Zr3_0 2.301356 1_555
C0_5 Zr3_4 2.301358 1_555
C0_5 Zr3_2 2.301359 1_545
C0_5 Zr0_7 2.312968 1_545
C0_5 Zr0_3 2.312971 1_545
C0_5 Zr0_5 2.312971 1_555
C0_6 Zr3_3 2.301356 1_554
C0_6 Zr3_7 2.301358 1_554
C0_6 Zr3_1 2.301359 1_554
C0_6 Zr0_4 2.312968 1_555
C0_6 Zr0_0 2.312971 1_555
C0_6 Zr0_6 2.312971 1_555
C0_7 Zr3_2 2.301356 1_555
C0_7 Zr3_6 2.301358 1_555
C0_7 Zr3_0 2.301359 1_555
C0_7 Zr0_5 2.312968 1_555
C0_7 Zr0_1 2.312971 1_555
C0_7 Zr0_7 2.312971 1_555
C1_0 Zr2_4 2.301356 1_455
C1_0 Zr2_0 2.301358 1_555
C1_0 Zr2_6 2.301359 1_445
C1_0 Zr1_2 2.312968 1_545
C1_0 Zr1_6 2.312971 1_445
C1_0 Zr1_0 2.312971 1_555
C1_1 Zr2_5 2.301356 1_455
C1_1 Zr2_1 2.301358 1_555
C1_1 Zr2_7 2.301359 1_445
C1_1 Zr1_3 2.312968 1_545
C1_1 Zr1_7 2.312971 1_445
C1_1 Zr1_1 2.312971 1_555
C1_2 Zr2_6 2.301356 1_455
C1_2 Zr2_2 2.301358 1_555
C1_2 Zr2_4 2.301359 1_455
C1_2 Zr1_0 2.312968 1_555
C1_2 Zr1_4 2.312971 1_455
C1_2 Zr1_2 2.312971 1_555
C1_3 Zr2_7 2.301356 1_455
C1_3 Zr2_3 2.301358 1_555
C1_3 Zr2_5 2.301359 1_455
C1_3 Zr1_1 2.312968 1_555
C1_3 Zr1_5 2.312971 1_455
C1_3 Zr1_3 2.312971 1_555
C1_4 Zr2_0 2.301356 1_555
C1_4 Zr2_4 2.301358 1_555
C1_4 Zr2_2 2.301359 1_545
C1_4 Zr1_6 2.312968 1_545
C1_4 Zr1_2 2.312971 1_545
C1_4 Zr1_4 2.312971 1_555
C1_5 Zr2_1 2.301356 1_555
C1_5 Zr2_5 2.301358 1_555
C1_5 Zr2_3 2.301359 1_545
C1_5 Zr1_7 2.312968 1_545
C1_5 Zr1_3 2.312971 1_545
C1_5 Zr1_5 2.312971 1_555
C1_6 Zr2_2 2.301356 1_555
C1_6 Zr2_6 2.301358 1_555
C1_6 Zr2_0 2.301359 1_555
C1_6 Zr1_4 2.312968 1_555
C1_6 Zr1_0 2.312971 1_555
C1_6 Zr1_6 2.312971 1_555
C1_7 Zr2_3 2.301356 1_555
C1_7 Zr2_7 2.301358 1_555
C1_7 Zr2_1 2.301359 1_555
C1_7 Zr1_5 2.312968 1_555
C1_7 Zr1_1 2.312971 1_555
C1_7 Zr1_7 2.312971 1_555
