# generated using pymatgen
data_CsAl5(ZnTe3)4
_symmetry_space_group_name_H-M   'P 1'
_cell_length_a   9.51530711
_cell_length_b   9.47979941
_cell_length_c   9.53425017
_cell_angle_alpha   107.44754280
_cell_angle_beta   107.52055679
_cell_angle_gamma   107.38534588
_symmetry_Int_Tables_number   1
_chemical_formula_structural   CsAl5(ZnTe3)4
_chemical_formula_sum   'Cs1 Al5 Zn4 Te12'
_cell_volume   707.23236867
_cell_formula_units_Z   1
loop_
 _symmetry_equiv_pos_site_id
 _symmetry_equiv_pos_as_xyz
  1  'x, y, z'
loop_
 _atom_site_type_symbol
 _atom_site_label
 _atom_site_symmetry_multiplicity
 _atom_site_fract_x
 _atom_site_fract_y
 _atom_site_fract_z
 _atom_site_occupancy
  Cs  Cs0  1  0.00052817  0.99948971  0.99792941  1
  Al  Al0  1  0.48640384  0.34110467  0.94153966  1
  Al  Al1  1  0.94032988  0.49171862  0.34131886  1
  Al  Al2  1  0.33515574  0.93324914  0.48306804  1
  Al  Al3  1  0.01777270  0.18727808  0.56179760  1
  Al  Al4  1  0.55924035  0.01856754  0.18313294  1
  Zn  Zn0  1  0.62842993  0.70456059  0.39739840  1
  Zn  Zn1  1  0.40189586  0.63552614  0.71496083  1
  Zn  Zn2  1  0.71167604  0.39573640  0.63156842  1
  Zn  Zn3  1  0.18725751  0.56203455  0.01812322  1
  Te  Te0  1  0.78207295  0.92368106  0.30146612  1
  Te  Te1  1  0.30374480  0.78567472  0.92399958  1
  Te  Te2  1  0.92360246  0.30032510  0.78125968  1
  Te  Te3  1  0.07215238  0.69570191  0.22907659  1
  Te  Te4  1  0.22908707  0.07532316  0.69455124  1
  Te  Te5  1  0.69837937  0.23028437  0.07576210  1
  Te  Te6  1  0.37783944  0.44378251  0.15217774  1
  Te  Te7  1  0.15368325  0.38038557  0.44681986  1
  Te  Te8  1  0.44373976  0.15128939  0.37747051  1
  Te  Te9  1  0.85490859  0.63142770  0.55764753  1
  Te  Te10  1  0.55490838  0.85424217  0.62973072  1
  Te  Te11  1  0.63183150  0.55325789  0.85384093  1
loop_
_geom_bond_atom_site_label_1
_geom_bond_atom_site_label_2
_geom_bond_distance
_geom_bond_site_symmetry_2
Cs0 Te9 4.067064 1_455
Cs0 Te1 4.097819 1_555
Cs0 Te2 4.099537 1_465
Cs0 Te11 4.102964 1_455
Cs0 Te10 4.104747 1_455
Cs0 Te6 4.106342 1_566
Cs0 Te8 4.124692 1_566
Cs0 Te0 4.145961 1_456
Cs0 Te7 4.160744 1_566
Cs0 Te5 4.203969 1_466
Cs0 Te3 4.205857 1_556
Cs0 Te4 4.208707 1_565
Al0 Te11 2.588580 1_555
Al0 Te6 2.593362 1_556
Al0 Te4 2.678130 1_555
Al0 Te5 2.707031 1_556
Al1 Te9 2.585224 1_555
Al1 Te7 2.633363 1_655
Al1 Te3 2.656593 1_655
Al1 Te5 2.677829 1_555
Al2 Te10 2.586899 1_555
Al2 Te3 2.628950 1_555
Al2 Te8 2.636580 1_565
Al2 Te4 2.703206 1_565
Al3 Te2 2.586043 1_455
Al3 Te7 2.620600 1_555
Al3 Te0 2.648542 1_445
Al3 Te4 2.705525 1_555
Al4 Te1 2.606491 1_544
Al4 Te8 2.622672 1_555
Al4 Te0 2.624069 1_545
Al4 Te5 2.699846 1_555
Te0 Zn0 2.723669 1_555
Te1 Zn3 2.619937 1_556
Te1 Zn1 2.661651 1_555
Te2 Zn2 2.655681 1_555
Te2 Zn3 2.656783 1_656
Te3 Zn3 2.734578 1_555
Te6 Zn3 2.618643 1_555
Te6 Zn0 2.630222 1_555
Te7 Zn1 2.684551 1_555
Te8 Zn2 2.668910 1_555
Te9 Zn0 2.646631 1_555
Te9 Zn2 2.655036 1_555
Te10 Zn1 2.645330 1_555
Te10 Zn0 2.655370 1_555
Te11 Zn1 2.653882 1_555
Te11 Zn2 2.654770 1_555
