# generated using pymatgen
data_TaTcBC
_symmetry_space_group_name_H-M   'P 1'
_cell_length_a   8.80778653
_cell_length_b   8.80778679
_cell_length_c   3.10498564
_cell_angle_alpha   90.00000000
_cell_angle_beta   90.00000000
_cell_angle_gamma   159.62543037
_symmetry_Int_Tables_number   1
_chemical_formula_structural   TaTcBC
_chemical_formula_sum   'Ta2 Tc2 B2 C2'
_cell_volume   83.86235647
_cell_formula_units_Z   2
loop_
 _symmetry_equiv_pos_site_id
 _symmetry_equiv_pos_as_xyz
  1  'x, y, z'
loop_
 _atom_site_type_symbol
 _atom_site_label
 _atom_site_symmetry_multiplicity
 _atom_site_fract_x
 _atom_site_fract_y
 _atom_site_fract_z
 _atom_site_occupancy
  Ta  Ta0  1  0.68387515  0.31612485  0.75000000  1
  Ta  Ta1  1  0.31612485  0.68387515  0.25000000  1
  Tc  Tc0  1  0.93195779  0.06804221  0.75000000  1
  Tc  Tc1  1  0.06804221  0.93195779  0.25000000  1
  B  B0  1  0.52940975  0.47059025  0.75000000  1
  B  B1  1  0.47059025  0.52940975  0.25000000  1
  C  C0  1  0.81038446  0.18961554  0.75000000  1
  C  C1  1  0.18961554  0.81038446  0.25000000  1
loop_
_geom_bond_atom_site_label_1
_geom_bond_atom_site_label_2
_geom_bond_distance
_geom_bond_site_symmetry_2
B0 B1 1.857481 1_556
B0 B1 1.857481 1_555
B0 Tc0 2.298156 1_455
B0 Tc0 2.298156 1_565
B0 Tc1 2.299047 1_655
B0 Tc1 2.299047 1_656
B0 Tc1 2.299047 1_545
B0 Tc1 2.299047 1_546
B0 Ta0 2.678100 1_555
B1 Tc1 2.298156 1_655
B1 Tc1 2.298156 1_545
B1 Tc0 2.299047 1_455
B1 Tc0 2.299047 1_454
B1 Tc0 2.299047 1_565
B1 Tc0 2.299047 1_564
B1 Ta1 2.678100 1_555
C0 Tc0 2.107822 1_555
C0 Ta0 2.193401 1_555
C0 Ta1 2.201564 1_656
C0 Ta1 2.201564 1_655
C0 Ta1 2.201564 1_546
C0 Ta1 2.201564 1_545
C1 Tc1 2.107822 1_555
C1 Ta1 2.193401 1_555
C1 Ta0 2.201564 1_455
C1 Ta0 2.201564 1_454
C1 Ta0 2.201564 1_565
C1 Ta0 2.201564 1_564
