# generated using pymatgen
data_K5CaNbP4
_symmetry_space_group_name_H-M   'P 1'
_cell_length_a   10.10320788
_cell_length_b   10.10320701
_cell_length_c   7.57729799
_cell_angle_alpha   87.95211949
_cell_angle_beta   87.95212015
_cell_angle_gamma   120.20709988
_symmetry_Int_Tables_number   1
_chemical_formula_structural   K5CaNbP4
_chemical_formula_sum   'K10 Ca2 Nb2 P8'
_cell_volume   666.70608072
_cell_formula_units_Z   2
loop_
 _symmetry_equiv_pos_site_id
 _symmetry_equiv_pos_as_xyz
  1  'x, y, z'
loop_
 _atom_site_type_symbol
 _atom_site_label
 _atom_site_symmetry_multiplicity
 _atom_site_fract_x
 _atom_site_fract_y
 _atom_site_fract_z
 _atom_site_occupancy
  K  K0  1  0.46678767  0.52452024  0.60461732  1
  K  K1  1  0.05814194  0.52903598  0.60787240  1
  K  K2  1  0.52452024  0.46678767  0.10461732  1
  K  K3  1  0.52903598  0.05814194  0.10787240  1
  K  K4  1  0.86299583  0.14147282  0.79221137  1
  K  K5  1  0.29715091  0.15546487  0.83942781  1
  K  K6  1  0.85563955  0.71936864  0.76107730  1
  K  K7  1  0.14147282  0.86299583  0.29221137  1
  K  K8  1  0.71936864  0.85563955  0.26107730  1
  K  K9  1  0.15546487  0.29715091  0.33942781  1
  Ca  Ca0  1  0.45974818  0.93053194  0.59938702  1
  Ca  Ca1  1  0.93053194  0.45974818  0.09938702  1
  Nb  Nb0  1  0.67135828  0.32781266  0.50090916  1
  Nb  Nb1  1  0.32781266  0.67135828  0.00090916  1
  P  P0  1  0.69429198  0.34632110  0.81638060  1
  P  P1  1  0.34632110  0.69429198  0.31638060  1
  P  P2  1  0.19406181  0.79476020  0.88915764  1
  P  P3  1  0.58280717  0.80149428  0.86048301  1
  P  P4  1  0.18240365  0.40383129  0.93567637  1
  P  P5  1  0.79476020  0.19406181  0.38915764  1
  P  P6  1  0.40383129  0.18240365  0.43567637  1
  P  P7  1  0.80149428  0.58280717  0.36048301  1
loop_
_geom_bond_atom_site_label_1
_geom_bond_atom_site_label_2
_geom_bond_distance
_geom_bond_site_symmetry_2
K0 P3 3.195775 1_555
K0 P1 3.349088 1_555
K0 P4 3.431577 1_555
K0 P6 3.486062 1_555
K0 P7 3.560246 1_555
K0 K9 3.566374 1_555
K0 K5 3.589336 1_555
K0 Nb0 3.601071 1_555
K0 K6 3.665046 1_555
K0 K8 3.846066 1_555
K0 K2 3.921307 1_556
K0 K2 3.921307 1_555
K1 P1 3.244747 1_555
K1 P2 3.247214 1_555
K1 P4 3.307902 1_555
K1 P0 3.459087 1_455
K1 P7 3.496367 1_455
K1 Nb0 3.522855 1_455
K1 K4 3.579713 1_455
K1 P5 3.596538 1_455
K1 K9 3.620580 1_555
K1 K6 3.630415 1_455
K1 K7 3.772929 1_555
K2 P7 3.195775 1_555
K2 P0 3.349088 1_554
K2 P6 3.431577 1_555
K2 P4 3.486063 1_554
K2 P3 3.560246 1_554
K2 K5 3.566374 1_554
K2 K9 3.589336 1_555
K2 Nb1 3.601071 1_555
K2 K8 3.665046 1_555
K2 K6 3.846066 1_554
K3 P0 3.244747 1_554
K3 P5 3.247214 1_555
K3 P6 3.307902 1_555
K3 P1 3.459087 1_545
K3 P3 3.496367 1_544
K3 Nb1 3.522855 1_545
K3 K7 3.579714 1_545
K3 P2 3.596538 1_544
K3 K5 3.620580 1_554
K3 K8 3.630415 1_545
K3 K4 3.772929 1_554
K4 P3 3.172302 1_545
K4 P4 3.235879 1_655
K4 P5 3.238507 1_555
K4 P0 3.282750 1_555
K4 K9 4.145987 1_655
K4 K8 4.212928 1_546
K4 K6 4.242907 1_545
K4 K5 4.345106 1_655
K5 P6 3.163068 1_555
K5 P2 3.249916 1_545
K5 P4 3.342169 1_555
K5 P0 3.462448 1_555
K5 K7 4.145987 1_546
K5 K6 4.501376 1_445
K6 P0 3.270178 1_555
K6 P2 3.298786 1_655
K6 P3 3.324414 1_555
K6 P7 3.327935 1_555
K6 K7 4.212928 1_655
K7 P7 3.172302 1_455
K7 P6 3.235879 1_565
K7 P2 3.238507 1_554
K7 P1 3.282750 1_555
K7 K8 4.242908 1_455
K7 K9 4.345106 1_565
K8 P1 3.270179 1_555
K8 P5 3.298786 1_565
K8 P7 3.324413 1_555
K8 P3 3.327935 1_554
K8 K9 4.501376 1_665
K9 P4 3.163068 1_554
K9 P5 3.249917 1_455
K9 P6 3.342169 1_555
K9 P1 3.462448 1_555
Ca0 P3 2.963432 1_555
Ca0 P1 3.065562 1_555
Ca0 P2 3.092960 1_555
Ca0 P6 3.099129 1_565
Ca0 P5 3.365419 1_565
Ca0 Nb0 3.503603 1_565
Ca0 K3 3.819082 1_565
Ca0 K7 3.829335 1_555
Ca0 K5 3.874248 1_565
Ca0 K4 3.896921 1_565
Ca0 K8 3.959701 1_555
Ca1 P7 2.963432 1_555
Ca1 P0 3.065562 1_554
Ca1 P5 3.092960 1_555
Ca1 P4 3.099129 1_654
Ca1 P2 3.365419 1_654
Ca1 Nb1 3.503604 1_655
Ca1 K1 3.819082 1_654
Ca1 K4 3.829335 1_554
Ca1 K9 3.874248 1_655
Ca1 K7 3.896921 1_655
Ca1 K6 3.959700 1_554
Nb0 P7 2.407005 1_555
Nb0 P5 2.408130 1_555
Nb0 P0 2.414684 1_555
Nb0 P6 2.420720 1_555
Nb1 P3 2.407005 1_554
Nb1 P2 2.408130 1_554
Nb1 P1 2.414684 1_555
Nb1 P4 2.420720 1_554
