# generated using pymatgen
data_K3Bi(AsS2)6
_symmetry_space_group_name_H-M   'P 1'
_cell_length_a   9.45920205
_cell_length_b   9.45920257
_cell_length_c   7.76412975
_cell_angle_alpha   90.00000000
_cell_angle_beta   90.00000000
_cell_angle_gamma   120.00000163
_symmetry_Int_Tables_number   1
_chemical_formula_structural   K3Bi(AsS2)6
_chemical_formula_sum   'K3 Bi1 As6 S12'
_cell_volume   601.63409085
_cell_formula_units_Z   1
loop_
 _symmetry_equiv_pos_site_id
 _symmetry_equiv_pos_as_xyz
  1  'x, y, z'
loop_
 _atom_site_type_symbol
 _atom_site_label
 _atom_site_symmetry_multiplicity
 _atom_site_fract_x
 _atom_site_fract_y
 _atom_site_fract_z
 _atom_site_occupancy
  K  K0  1  0.00000000  0.00000000  0.00000000  1
  K  K1  1  0.33333300  0.66666700  0.85270519  1
  K  K2  1  0.66666700  0.33333300  0.14729481  1
  Bi  Bi0  1  0.00000000  0.00000000  0.50000000  1
  As  As0  1  0.29377021  0.84062826  0.37287848  1
  As  As1  1  0.15937174  0.45314094  0.37287848  1
  As  As2  1  0.54685906  0.70622979  0.37287848  1
  As  As3  1  0.70622979  0.15937174  0.62712152  1
  As  As4  1  0.84062826  0.54685906  0.62712152  1
  As  As5  1  0.45314094  0.29377021  0.62712152  1
  S  S0  1  0.26265263  0.04362267  0.28350465  1
  S  S1  1  0.95637733  0.21902995  0.28350465  1
  S  S2  1  0.78097005  0.73734737  0.28350465  1
  S  S3  1  0.73734737  0.95637733  0.71649535  1
  S  S4  1  0.04362267  0.78097005  0.71649535  1
  S  S5  1  0.21902995  0.26265263  0.71649535  1
  S  S6  1  0.52352343  0.90051959  0.21437553  1
  S  S7  1  0.09948041  0.62300283  0.21437553  1
  S  S8  1  0.37699717  0.47647657  0.21437553  1
  S  S9  1  0.47647657  0.09948041  0.78562447  1
  S  S10  1  0.90051959  0.37699717  0.78562447  1
  S  S11  1  0.62300283  0.52352343  0.78562447  1
loop_
_geom_bond_atom_site_label_1
_geom_bond_atom_site_label_2
_geom_bond_distance
_geom_bond_site_symmetry_2
K0 S0 3.187927 1_555
K0 S3 3.187927 1_444
K0 S2 3.187927 1_445
K0 S5 3.187927 1_554
K0 S1 3.187927 1_455
K0 S4 3.187927 1_544
K1 S7 3.469197 1_556
K1 S6 3.469201 1_556
K1 S8 3.469208 1_556
K1 S4 3.572168 1_555
K1 S3 3.572174 1_555
K1 S5 3.572177 1_555
K1 S10 3.650010 1_455
K1 S11 3.650010 1_555
K1 S9 3.650010 1_565
K2 S10 3.469197 1_554
K2 S9 3.469201 1_554
K2 S11 3.469208 1_554
K2 S1 3.572168 1_555
K2 S0 3.572174 1_555
K2 S2 3.572177 1_555
K2 S7 3.650010 1_655
K2 S8 3.650010 1_555
K2 S6 3.650010 1_545
Bi0 S3 2.853622 1_445
Bi0 S0 2.853622 1_555
Bi0 S5 2.853623 1_555
Bi0 S2 2.853623 1_445
Bi0 S4 2.853623 1_545
Bi0 S1 2.853623 1_455
As0 S0 2.195537 1_565
As0 S6 2.308107 1_555
As0 S7 2.312245 1_555
As0 K1 4.164436 1_555
As1 S1 2.195531 1_455
As1 S7 2.308107 1_555
As1 S8 2.312245 1_555
As1 K1 4.164441 1_555
As2 S2 2.195528 1_555
As2 S8 2.308107 1_555
As2 S6 2.312245 1_555
As2 K1 4.164444 1_555
As3 S3 2.195537 1_545
As3 S9 2.308107 1_555
As3 S10 2.312245 1_555
As3 K2 4.164436 1_555
As4 S4 2.195531 1_655
As4 S10 2.308107 1_555
As4 S11 2.312245 1_555
As4 K2 4.164441 1_555
As5 S5 2.195528 1_555
As5 S11 2.308107 1_555
As5 S9 2.312245 1_555
As5 K2 4.164444 1_555
