# generated using pymatgen
data_Sr4Hf(TcO4)3
_symmetry_space_group_name_H-M   'P 1'
_cell_length_a   5.62297797
_cell_length_b   5.64496175
_cell_length_c   7.99388909
_cell_angle_alpha   90.00056226
_cell_angle_beta   90.24141859
_cell_angle_gamma   90.04571036
_symmetry_Int_Tables_number   1
_chemical_formula_structural   Sr4Hf(TcO4)3
_chemical_formula_sum   'Sr4 Hf1 Tc3 O12'
_cell_volume   253.73566156
_cell_formula_units_Z   1
loop_
 _symmetry_equiv_pos_site_id
 _symmetry_equiv_pos_as_xyz
  1  'x, y, z'
loop_
 _atom_site_type_symbol
 _atom_site_label
 _atom_site_symmetry_multiplicity
 _atom_site_fract_x
 _atom_site_fract_y
 _atom_site_fract_z
 _atom_site_occupancy
  Sr  Sr0  1  0.48669624  0.00069664  0.75503090  1
  Sr  Sr1  1  0.98848304  0.50014625  0.75581163  1
  Sr  Sr2  1  0.51330376  0.99930336  0.24496910  1
  Sr  Sr3  1  0.01151696  0.49985375  0.24418837  1
  Hf  Hf0  1  0.50000000  0.50000000  0.50000000  1
  Tc  Tc0  1  0.00000000  0.00000000  0.00000000  1
  Tc  Tc1  1  0.50000000  0.50000000  0.00000000  1
  Tc  Tc2  1  0.00000000  0.00000000  0.50000000  1
  O  O0  1  0.00217494  0.95774474  0.75027309  1
  O  O1  1  0.50737618  0.54462224  0.75303638  1
  O  O2  1  0.99782506  0.04225526  0.24972691  1
  O  O3  1  0.49262382  0.45537776  0.24696362  1
  O  O4  1  0.71204913  0.20632760  0.52037970  1
  O  O5  1  0.24105880  0.25898380  0.97663602  1
  O  O6  1  0.25877758  0.75853455  0.02080615  1
  O  O7  1  0.79377024  0.71228570  0.47713767  1
  O  O8  1  0.28795087  0.79367240  0.47962030  1
  O  O9  1  0.75894120  0.74101620  0.02336398  1
  O  O10  1  0.74122242  0.24146545  0.97919385  1
  O  O11  1  0.20622976  0.28771430  0.52286233  1
loop_
_geom_bond_atom_site_label_1
_geom_bond_atom_site_label_2
_geom_bond_distance
_geom_bond_site_symmetry_2
Hf0 O1 2.038610 1_555
Hf0 O3 2.038610 1_555
Hf0 O7 2.048774 1_555
Hf0 O11 2.048774 1_555
Hf0 O8 2.048891 1_555
Hf0 O4 2.048891 1_555
O0 Tc0 2.010576 1_566
O0 Tc2 2.014814 1_565
O0 Sr1 2.584597 1_455
O0 Sr0 2.735132 1_565
O0 Sr0 2.909250 1_465
O0 Sr1 3.063189 1_465
O1 Tc1 1.990808 1_556
O1 Sr0 2.577292 1_565
O1 Sr1 2.717076 1_555
O1 Sr1 2.928484 1_455
O1 Sr0 3.072592 1_555
O2 Tc0 2.010576 1_655
O2 Tc2 2.014814 1_655
O2 Sr3 2.584597 1_655
O2 Sr2 2.735132 1_545
O2 Sr2 2.909250 1_645
O2 Sr3 3.063189 1_645
O3 Tc1 1.990808 1_555
O3 Sr2 2.577292 1_545
O3 Sr3 2.717076 1_555
O3 Sr3 2.928484 1_655
O3 Sr2 3.072592 1_555
O4 Tc2 2.002484 1_655
O4 Sr0 2.547420 1_555
O4 Sr2 2.727418 1_545
O4 Sr1 2.946218 1_555
O5 Tc1 2.000114 1_556
O5 Tc0 2.002114 1_556
O5 Sr1 2.639778 1_455
O5 Sr0 2.682448 1_555
O5 Sr3 2.848705 1_556
O5 Sr2 3.011537 1_546
O6 Tc1 2.000602 1_555
O6 Tc0 2.001013 1_565
O6 Sr2 2.661169 1_555
O6 Sr3 2.696626 1_555
O6 Sr0 2.836400 1_564
O6 Sr1 2.982296 1_454
O7 Tc2 2.002786 1_665
O7 Sr3 2.535019 1_655
O7 Sr1 2.752630 1_555
O7 Sr2 2.921663 1_555
O8 Tc2 2.002484 1_565
O8 Sr2 2.547420 1_555
O8 Sr0 2.727418 1_565
O8 Sr3 2.946218 1_555
O9 Tc1 2.000114 1_555
O9 Tc0 2.002114 1_665
O9 Sr3 2.639778 1_655
O9 Sr2 2.682448 1_555
O9 Sr1 2.848705 1_554
O9 Sr0 3.011537 1_564
O10 Tc1 2.000602 1_556
O10 Tc0 2.001013 1_656
O10 Sr0 2.661169 1_555
O10 Sr1 2.696626 1_555
O10 Sr2 2.836400 1_546
O10 Sr3 2.982296 1_656
O11 Tc2 2.002786 1_555
O11 Sr1 2.535019 1_455
O11 Sr3 2.752630 1_555
O11 Sr0 2.921663 1_555
