# generated using pymatgen
data_Zr6ZnAsN2
_symmetry_space_group_name_H-M   'P 1'
_cell_length_a   5.90503969
_cell_length_b   5.90503960
_cell_length_c   8.70032614
_cell_angle_alpha   90.00000000
_cell_angle_beta   90.00000000
_cell_angle_gamma   146.04489587
_symmetry_Int_Tables_number   1
_chemical_formula_structural   Zr6ZnAsN2
_chemical_formula_sum   'Zr6 Zn1 As1 N2'
_cell_volume   169.44855512
_cell_formula_units_Z   1
loop_
 _symmetry_equiv_pos_site_id
 _symmetry_equiv_pos_as_xyz
  1  'x, y, z'
loop_
 _atom_site_type_symbol
 _atom_site_label
 _atom_site_symmetry_multiplicity
 _atom_site_fract_x
 _atom_site_fract_y
 _atom_site_fract_z
 _atom_site_occupancy
  Zr  Zr0  1  0.62935364  0.37064636  0.94540744  1
  Zr  Zr1  1  0.37357554  0.62642446  0.45096829  1
  Zr  Zr2  1  0.37357554  0.62642446  0.04903171  1
  Zr  Zr3  1  0.62935364  0.37064636  0.55459256  1
  Zr  Zr4  1  0.93895728  0.06104272  0.75000000  1
  Zr  Zr5  1  0.05332980  0.94667020  0.25000000  1
  Zn  Zn0  1  0.74826856  0.25173144  0.25000000  1
  As  As0  1  0.25264821  0.74735179  0.75000000  1
  N  N0  1  0.00046889  0.99953111  0.99750490  1
  N  N1  1  0.00046889  0.99953111  0.50249510  1
loop_
_geom_bond_atom_site_label_1
_geom_bond_atom_site_label_2
_geom_bond_distance
_geom_bond_site_symmetry_2
Zn0 Zr5 2.796686 1_655
Zn0 Zr5 2.796686 1_545
Zn0 Zr1 2.834360 1_545
Zn0 Zr2 2.834360 1_545
Zn0 Zr1 2.834360 1_655
Zn0 Zr2 2.834360 1_655
Zn0 Zr3 2.971018 1_555
Zn0 Zr0 2.971018 1_554
Zn0 Zr5 3.445785 1_645
As0 Zr4 2.720605 1_455
As0 Zr4 2.720605 1_565
As0 Zr0 2.793371 1_565
As0 Zr3 2.793371 1_565
As0 Zr0 2.793371 1_455
As0 Zr3 2.793371 1_455
As0 Zr2 2.938443 1_556
As0 Zr1 2.938443 1_555
N0 Zr4 2.262689 1_465
N0 Zr5 2.276487 1_556
N0 Zr2 2.286570 1_566
N0 Zr2 2.286570 1_456
N0 Zr0 2.301709 1_455
N0 Zr0 2.301709 1_565
N1 Zr4 2.262689 1_465
N1 Zr5 2.276487 1_555
N1 Zr1 2.286570 1_565
N1 Zr1 2.286570 1_455
N1 Zr3 2.301709 1_455
N1 Zr3 2.301709 1_565
