# generated using pymatgen
data_TaP3WO12
_symmetry_space_group_name_H-M   'P 1'
_cell_length_a   8.69593603
_cell_length_b   8.69514210
_cell_length_c   8.88749432
_cell_angle_alpha   89.45595536
_cell_angle_beta   60.88039995
_cell_angle_gamma   119.53121920
_symmetry_Int_Tables_number   1
_chemical_formula_structural   TaP3WO12
_chemical_formula_sum   'Ta2 P6 W2 O24'
_cell_volume   482.53204496
_cell_formula_units_Z   2
loop_
 _symmetry_equiv_pos_site_id
 _symmetry_equiv_pos_as_xyz
  1  'x, y, z'
loop_
 _atom_site_type_symbol
 _atom_site_label
 _atom_site_symmetry_multiplicity
 _atom_site_fract_x
 _atom_site_fract_y
 _atom_site_fract_z
 _atom_site_occupancy
  Ta  Ta0  1  0.78253626  0.13935230  0.07721733  1
  Ta  Ta1  1  0.78356099  0.64037555  0.57713920  1
  P  P0  1  0.28333453  0.03406068  0.24932898  1
  P  P1  1  0.71612159  0.74695525  0.24575099  1
  P  P2  1  0.28487192  0.25261582  0.75450042  1
  P  P3  1  0.71665992  0.96751719  0.74916379  1
  P  P4  1  0.00716108  0.53814501  0.74580674  1
  P  P5  1  0.99297423  0.46061727  0.25441754  1
  W  W0  1  0.21133577  0.35730819  0.42874709  1
  W  W1  1  0.21386302  0.85981884  0.92870431  1
  O  O0  1  0.48432442  0.05725985  0.22075884  1
  O  O1  1  0.87041155  0.36190506  0.91042975  1
  O  O2  1  0.89906009  0.13566654  0.58050007  1
  O  O3  1  0.84845171  0.55811131  0.72986788  1
  O  O4  1  0.12089516  0.62848433  0.08998012  1
  O  O5  1  0.08797084  0.85629090  0.41387043  1
  O  O6  1  0.14634806  0.43446246  0.26727431  1
  O  O7  1  0.15096248  0.70968086  0.76800172  1
  O  O8  1  0.14406732  0.51561674  0.57049007  1
  O  O9  1  0.29097945  0.20672787  0.28474067  1
  O  O10  1  0.28371005  0.01982984  0.08079171  1
  O  O11  1  0.71154495  0.92129608  0.22973630  1
  O  O12  1  0.52239989  0.58045907  0.26842549  1
  O  O13  1  0.28054761  0.28825753  0.59041711  1
  O  O14  1  0.85309022  0.48622803  0.42768923  1
  O  O15  1  0.08609930  0.21916909  0.92792418  1
  O  O16  1  0.91390285  0.78550526  0.07027498  1
  O  O17  1  0.50834159  0.92393609  0.78479917  1
  O  O18  1  0.72846359  0.71983685  0.41007545  1
  O  O19  1  0.48255320  0.42732733  0.73056489  1
  O  O20  1  0.29878884  0.08674791  0.76742661  1
  O  O21  1  0.73010586  0.99876986  0.91355117  1
  O  O22  1  0.72244623  0.79525337  0.72063967  1
  O  O23  1  0.84211642  0.28641668  0.23099679  1
loop_
_geom_bond_atom_site_label_1
_geom_bond_atom_site_label_2
_geom_bond_distance
_geom_bond_site_symmetry_2
O0 P0 1.542560 1_555
O0 Ta0 1.949349 1_555
O1 P4 1.539718 1_655
O1 Ta0 1.977695 1_556
O2 P3 1.502901 1_545
O2 W0 2.033292 1_655
O3 P4 1.543038 1_655
O3 Ta1 1.948710 1_555
O4 P5 1.510089 1_455
O4 W1 1.992108 1_554
O5 P0 1.537653 1_565
O5 Ta1 1.987004 1_455
O6 P5 1.513423 1_455
O6 W0 1.993414 1_555
O7 P4 1.494759 1_555
O7 W1 2.033505 1_555
O8 P4 1.521108 1_555
O8 W0 1.983285 1_555
O9 P0 1.512783 1_555
O9 W0 1.973587 1_555
O10 P0 1.502700 1_555
O10 W1 2.033078 1_544
O11 P1 1.542965 1_555
O11 Ta0 1.948420 1_565
O12 P1 1.494730 1_555
O12 W0 2.033312 1_555
O13 P2 1.510081 1_555
O13 W0 1.992171 1_555
O14 P5 1.533335 1_555
O14 Ta1 1.994331 1_555
O15 P2 1.533278 1_555
O15 Ta0 1.994517 1_456
O16 P1 1.521109 1_555
O16 W1 1.983266 1_654
O17 P3 1.512658 1_555
O17 W1 1.973727 1_555
O18 P1 1.539786 1_555
O18 Ta1 1.977558 1_555
O19 P2 1.540031 1_555
O19 Ta1 1.959774 1_555
O20 P2 1.513394 1_555
O20 W1 1.993206 1_545
O21 P3 1.537690 1_555
O21 Ta0 1.986889 1_566
O22 P3 1.542554 1_555
O22 Ta1 1.949619 1_555
O23 P5 1.539971 1_555
O23 Ta0 1.959791 1_555
