# generated using pymatgen
data_Rb2V5CoSe6
_symmetry_space_group_name_H-M   'P 1'
_cell_length_a   9.33380119
_cell_length_b   9.25292297
_cell_length_c   4.36596404
_cell_angle_alpha   90.00000000
_cell_angle_beta   90.00000000
_cell_angle_gamma   119.81028528
_symmetry_Int_Tables_number   1
_chemical_formula_structural   Rb2V5CoSe6
_chemical_formula_sum   'Rb2 V5 Co1 Se6'
_cell_volume   327.17141006
_cell_formula_units_Z   1
loop_
 _symmetry_equiv_pos_site_id
 _symmetry_equiv_pos_as_xyz
  1  'x, y, z'
loop_
 _atom_site_type_symbol
 _atom_site_label
 _atom_site_symmetry_multiplicity
 _atom_site_fract_x
 _atom_site_fract_y
 _atom_site_fract_z
 _atom_site_occupancy
  Rb  Rb0  1  0.32563246  0.66239685  0.25000000  1
  Rb  Rb1  1  0.66910280  0.32974108  0.75000000  1
  V  V0  1  0.15520055  0.17680910  0.25000000  1
  V  V1  1  0.84695519  0.81563035  0.75000000  1
  V  V2  1  0.80313315  0.97535075  0.25000000  1
  V  V3  1  0.03207278  0.87457445  0.25000000  1
  V  V4  1  0.97243004  0.12692188  0.75000000  1
  Co  Co0  1  0.18315245  0.03184137  0.75000000  1
  Se  Se0  1  0.95074422  0.28745495  0.25000000  1
  Se  Se1  1  0.06268290  0.73384050  0.75000000  1
  Se  Se2  1  0.71857222  0.66408492  0.25000000  1
  Se  Se3  1  0.34270373  0.05467560  0.25000000  1
  Se  Se4  1  0.65481556  0.94081251  0.75000000  1
  Se  Se5  1  0.28280194  0.32586369  0.75000000  1
loop_
_geom_bond_atom_site_label_1
_geom_bond_atom_site_label_2
_geom_bond_distance
_geom_bond_site_symmetry_2
Rb0 Se0 3.494302 1_455
Rb0 Se3 3.553203 1_565
Rb0 Se1 3.583189 1_554
Rb0 Se1 3.583189 1_555
Rb0 Se4 3.601744 1_554
Rb0 Se4 3.601744 1_555
Rb0 Se5 3.658413 1_554
Rb0 Se5 3.658413 1_555
Rb0 Se2 3.659882 1_555
Rb1 Se4 3.534326 1_545
Rb1 Se3 3.579839 1_555
Rb1 Se3 3.579839 1_556
Rb1 Se0 3.584923 1_555
Rb1 Se0 3.584923 1_556
Rb1 Se5 3.587955 1_555
Rb1 Se2 3.623406 1_556
Rb1 Se2 3.623406 1_555
Rb1 Se1 3.717405 1_655
V0 V3 2.438442 1_545
V0 V4 2.665668 1_455
V0 V4 2.665668 1_454
V0 V2 2.860592 1_445
V1 V4 2.512783 1_565
V1 V3 2.666716 1_655
V1 V3 2.666716 1_656
V1 V2 2.778105 1_556
V1 V2 2.778105 1_555
V2 V4 2.650638 1_565
V2 V4 2.650638 1_564
V2 V3 2.723399 1_655
Co0 Se5 2.398059 1_555
Co0 Se1 2.405160 1_545
Co0 V4 2.522480 1_455
Co0 Se3 2.591329 1_556
Co0 Se3 2.591329 1_555
Co0 V3 2.613663 1_545
Co0 V3 2.613663 1_546
Co0 V0 2.642105 1_555
Co0 V0 2.642105 1_556
Co0 V1 2.758184 1_445
Se0 V2 2.506410 1_545
Se0 V0 2.575370 1_655
Se0 V4 2.704021 1_555
Se0 V4 2.704021 1_554
Se1 V1 2.478359 1_455
Se1 V3 2.629198 1_556
Se1 V3 2.629198 1_555
Se2 V1 2.548912 1_554
Se2 V1 2.548912 1_555
Se2 V2 2.580287 1_555
Se2 V3 2.586367 1_655
Se3 V0 2.511266 1_555
Se3 V3 2.525763 1_545
Se4 V2 2.518757 1_556
Se4 V2 2.518757 1_555
Se4 V1 2.573574 1_555
Se4 V4 2.584225 1_565
Se5 V0 2.540252 1_556
Se5 V0 2.540252 1_555
Se5 V4 2.545342 1_455
