# generated using pymatgen
data_TiBe3CoIr
_symmetry_space_group_name_H-M   'P 1'
_cell_length_a   4.50517694
_cell_length_b   4.50517686
_cell_length_c   4.38842751
_cell_angle_alpha   59.11598807
_cell_angle_beta   59.11598537
_cell_angle_gamma   59.99999834
_symmetry_Int_Tables_number   1
_chemical_formula_structural   TiBe3CoIr
_chemical_formula_sum   'Ti1 Be3 Co1 Ir1'
_cell_volume   62.12744981
_cell_formula_units_Z   1
loop_
 _symmetry_equiv_pos_site_id
 _symmetry_equiv_pos_as_xyz
  1  'x, y, z'
loop_
 _atom_site_type_symbol
 _atom_site_label
 _atom_site_symmetry_multiplicity
 _atom_site_fract_x
 _atom_site_fract_y
 _atom_site_fract_z
 _atom_site_occupancy
  Ti  Ti0  1  0.00322816  0.00322816  0.99031553  1
  Be  Be0  1  0.62349363  0.12805999  0.62495275  1
  Be  Be1  1  0.12805999  0.62349363  0.62495275  1
  Be  Be2  1  0.62349363  0.62349363  0.62495275  1
  Co  Co0  1  0.62578987  0.62578987  0.12263140  1
  Ir  Ir0  1  0.24593473  0.24593473  0.26219481  1
loop_
_geom_bond_atom_site_label_1
_geom_bond_atom_site_label_2
_geom_bond_distance
_geom_bond_site_symmetry_2
Be0 Co0 2.193831 1_555
Be0 Co0 2.194692 1_546
Be0 Be1 2.232016 1_555
Be0 Be2 2.232016 1_555
Be0 Be1 2.273161 1_645
Be0 Be2 2.273161 1_545
Be0 Ir0 2.591959 1_655
Be0 Ir0 2.591962 1_555
Be0 Ir0 2.594929 1_556
Be0 Ti0 2.596527 1_655
Be0 Ti0 2.596527 1_555
Be0 Ti0 2.598857 1_654
Be1 Co0 2.193831 1_555
Be1 Co0 2.194692 1_456
Be1 Be2 2.232016 1_555
Be1 Be2 2.273161 1_455
Be1 Ir0 2.591959 1_565
Be1 Ir0 2.591962 1_555
Be1 Ir0 2.594929 1_556
Be1 Ti0 2.596527 1_565
Be1 Ti0 2.596528 1_555
Be1 Ti0 2.598857 1_564
Be2 Co0 2.193828 1_555
Be2 Co0 2.194694 1_556
Be2 Ir0 2.591960 1_655
Be2 Ir0 2.591961 1_565
Be2 Ir0 2.594931 1_556
Be2 Ti0 2.596527 1_565
Be2 Ti0 2.596527 1_655
Be2 Ti0 2.598858 1_664
Co0 Ti0 2.642772 1_664
Co0 Ti0 2.642776 1_654
Co0 Ti0 2.642776 1_564
Co0 Ir0 2.647425 1_565
Co0 Ir0 2.647425 1_655
Co0 Ir0 2.647433 1_555
Ir0 Ti0 2.573550 1_555
Ir0 Ti0 2.772899 1_554
Ir0 Ti0 2.772903 1_654
Ir0 Ti0 2.772903 1_564
