# generated using pymatgen
data_LiGa2AgS4
_symmetry_space_group_name_H-M   'P 1'
_cell_length_a   6.54987470
_cell_length_b   6.54987422
_cell_length_c   6.54987429
_cell_angle_alpha   128.85312941
_cell_angle_beta   128.85312718
_cell_angle_gamma   75.24701193
_symmetry_Int_Tables_number   1
_chemical_formula_structural   LiGa2AgS4
_chemical_formula_sum   'Li1 Ga2 Ag1 S4'
_cell_volume   165.88399689
_cell_formula_units_Z   1
loop_
 _symmetry_equiv_pos_site_id
 _symmetry_equiv_pos_as_xyz
  1  'x, y, z'
loop_
 _atom_site_type_symbol
 _atom_site_label
 _atom_site_symmetry_multiplicity
 _atom_site_fract_x
 _atom_site_fract_y
 _atom_site_fract_z
 _atom_site_occupancy
  Li  Li0  1  0.00000000  0.00000000  0.00000000  1
  Ga  Ga0  1  0.25000000  0.75000000  0.50000000  1
  Ga  Ga1  1  0.50000000  0.50000000  0.00000000  1
  Ag  Ag0  1  0.75000000  0.25000000  0.50000000  1
  S  S0  1  0.59881388  0.63685270  0.47716106  1
  S  S1  1  0.36314730  0.84030736  0.96196118  1
  S  S2  1  0.15969264  0.12165282  0.52283894  1
  S  S3  1  0.87834718  0.40118612  0.03803882  1
loop_
_geom_bond_atom_site_label_1
_geom_bond_atom_site_label_2
_geom_bond_distance
_geom_bond_site_symmetry_2
Li0 S2 2.441959 1_555
Li0 S3 2.441961 1_455
Li0 S0 2.441961 1_444
Li0 S1 2.441962 1_544
Ga0 S2 2.284462 1_565
Ga0 S3 2.284462 1_455
Ga0 S0 2.284462 1_555
Ga0 S1 2.284465 1_555
Ga1 S1 2.287542 1_554
Ga1 S2 2.287545 1_554
Ga1 S0 2.287548 1_555
Ga1 S3 2.287548 1_555
Ag0 S3 2.536749 1_556
Ag0 S0 2.536749 1_555
Ag0 S1 2.536752 1_544
Ag0 S2 2.536756 1_655
