# generated using pymatgen
data_K4Zr6CuBr18
_symmetry_space_group_name_H-M   'P 1'
_cell_length_a   10.40973576
_cell_length_b   10.58690080
_cell_length_c   10.62359885
_cell_angle_alpha   118.51633031
_cell_angle_beta   100.73532354
_cell_angle_gamma   103.76746950
_symmetry_Int_Tables_number   1
_chemical_formula_structural   K4Zr6CuBr18
_chemical_formula_sum   'K4 Zr6 Cu1 Br18'
_cell_volume   935.47845266
_cell_formula_units_Z   1
loop_
 _symmetry_equiv_pos_site_id
 _symmetry_equiv_pos_as_xyz
  1  'x, y, z'
loop_
 _atom_site_type_symbol
 _atom_site_label
 _atom_site_symmetry_multiplicity
 _atom_site_fract_x
 _atom_site_fract_y
 _atom_site_fract_z
 _atom_site_occupancy
  K  K0  1  0.65602370  0.54158295  0.23291808  1
  K  K1  1  0.34397630  0.45841705  0.76708192  1
  K  K2  1  0.69200700  0.23006633  0.57142606  1
  K  K3  1  0.30799300  0.76993367  0.42857394  1
  Zr  Zr0  1  0.16389412  0.05911458  0.24474702  1
  Zr  Zr1  1  0.83610588  0.94088542  0.75525298  1
  Zr  Zr2  1  0.85826065  0.13822879  0.14493744  1
  Zr  Zr3  1  0.14173935  0.86177121  0.85506256  1
  Zr  Zr4  1  0.15581739  0.25103900  0.04622848  1
  Zr  Zr5  1  0.84418261  0.74896100  0.95377152  1
  Cu  Cu0  1  0.00000000  0.00000000  0.00000000  1
  Br  Br0  1  0.01520059  0.41943489  0.20370383  1
  Br  Br1  1  0.98479941  0.58056511  0.79629617  1
  Br  Br2  1  0.34086694  0.33739368  0.31624892  1
  Br  Br3  1  0.65913306  0.66260632  0.68375108  1
  Br  Br4  1  0.33168825  0.52770149  0.09886218  1
  Br  Br5  1  0.66831175  0.47229851  0.90113782  1
  Br  Br6  1  0.00736435  0.79349059  0.21516677  1
  Br  Br7  1  0.99263565  0.20650941  0.78483323  1
  Br  Br8  1  0.70737136  0.29046603  0.30382243  1
  Br  Br9  1  0.29262864  0.70953397  0.69617757  1
  Br  Br10  1  0.31864491  0.12274072  0.89515083  1
  Br  Br11  1  0.68135509  0.87725928  0.10484917  1
  Br  Br12  1  0.02516519  0.21240539  0.42102585  1
  Br  Br13  1  0.97483481  0.78759461  0.57897415  1
  Br  Br14  1  0.32559679  0.91567195  0.10826972  1
  Br  Br15  1  0.67440321  0.08432805  0.89173028  1
  Br  Br16  1  0.34728158  0.12242304  0.51343994  1
  Br  Br17  1  0.65271842  0.87757696  0.48656006  1
loop_
_geom_bond_atom_site_label_1
_geom_bond_atom_site_label_2
_geom_bond_distance
_geom_bond_site_symmetry_2
Cu0 Zr4 2.518090 1_555
Cu0 Zr5 2.518090 1_444
Cu0 Zr1 2.519600 1_444
Cu0 Zr0 2.519600 1_555
Cu0 Zr3 2.532199 1_544
Cu0 Zr2 2.532199 1_455
Br0 Zr4 2.725142 1_555
Br0 Zr2 2.729891 1_455
Br0 K3 3.493735 1_555
Br0 Br8 3.719915 1_455
Br0 Br4 3.767898 1_555
Br0 Br15 3.815591 1_454
Br0 Br2 3.815721 1_555
Br0 Br7 3.836550 1_454
Br0 K0 4.254254 1_455
Br1 Zr5 2.725142 1_555
Br1 Zr3 2.729891 1_655
Br1 K2 3.493735 1_555
Br1 Br9 3.719915 1_655
Br1 Br5 3.767898 1_555
Br1 Br14 3.815591 1_656
Br1 Br3 3.815721 1_555
Br1 Br6 3.836550 1_656
Br1 K1 4.254254 1_655
Br2 Zr4 2.715590 1_555
Br2 Zr0 2.721958 1_555
Br2 Br4 3.722103 1_555
Br2 K0 3.969067 1_555
Br3 Zr5 2.715590 1_555
Br3 Zr1 2.721958 1_555
Br3 Br5 3.722103 1_555
Br3 K1 3.969067 1_555
Br4 Zr4 2.783161 1_555
Br4 K1 3.274439 1_554
Br4 K3 3.309476 1_555
Br4 K0 3.349858 1_555
Br4 Br7 3.770807 1_454
Br5 Zr5 2.783161 1_555
Br5 K0 3.274439 1_556
Br5 K2 3.309476 1_555
Br5 K1 3.349858 1_555
Br5 Br6 3.770807 1_656
Br6 Zr5 2.725940 1_454
Br6 Zr0 2.728811 1_565
Br6 K3 3.641961 1_555
Br6 K0 4.076640 1_455
Br7 Zr4 2.725940 1_656
Br7 Zr1 2.728811 1_545
Br7 K2 3.641961 1_555
Br7 K1 4.076640 1_655
Br8 Zr2 2.740254 1_555
Br8 K0 3.218611 1_555
Br8 K2 3.220729 1_555
Br9 Zr3 2.740254 1_555
Br9 K1 3.218611 1_555
Br9 K3 3.220729 1_555
Br10 Zr4 2.705858 1_556
Br10 Zr3 2.714535 1_545
Br10 Br4 3.719826 1_556
Br10 Br9 3.751278 1_545
Br10 Br7 3.823637 1_455
Br10 Br13 3.844300 1_445
Br10 K0 4.192025 1_556
Br11 Zr5 2.705858 1_554
Br11 Zr2 2.714535 1_565
Br11 Br5 3.719826 1_554
Br11 Br8 3.751278 1_565
Br11 Br6 3.823637 1_655
Br11 Br12 3.844300 1_665
Br11 K1 4.192025 1_554
Br12 Zr0 2.729002 1_555
Br12 Zr2 2.736972 1_455
Br12 K1 3.675755 1_555
Br12 Br8 3.731806 1_455
Br12 Br16 3.781791 1_555
Br12 Br2 3.806516 1_555
Br12 Br6 3.831886 1_545
Br12 K2 4.086967 1_455
Br13 Zr1 2.729002 1_555
Br13 Zr3 2.736972 1_655
Br13 K0 3.675755 1_555
Br13 Br9 3.731806 1_655
Br13 Br17 3.781791 1_555
Br13 Br3 3.806516 1_555
Br13 Br7 3.831886 1_565
Br13 K3 4.086967 1_655
Br14 Zr0 2.695432 1_565
Br14 Zr3 2.705761 1_554
Br14 Br16 3.711672 1_565
Br14 Br9 3.742700 1_554
Br14 Br6 3.834256 1_555
Br15 Zr1 2.695432 1_545
Br15 Zr2 2.705761 1_556
Br15 Br17 3.711672 1_545
Br15 Br8 3.742700 1_556
Br15 Br7 3.834256 1_555
Br16 Zr0 2.788514 1_555
Br16 K3 3.290887 1_545
Br16 K1 3.294852 1_555
Br16 K2 3.333951 1_555
Br16 Br6 3.756358 1_545
Br16 Br2 3.760991 1_555
Br17 Zr1 2.788514 1_555
Br17 K2 3.290887 1_565
Br17 K0 3.294852 1_555
Br17 K3 3.333951 1_555
Br17 Br7 3.756358 1_565
Br17 Br3 3.760991 1_555
