# generated using pymatgen
data_Dy2S3
_symmetry_space_group_name_H-M   'P 1'
_cell_length_a   21.58614464
_cell_length_b   8.31998302
_cell_length_c   8.32001958
_cell_angle_alpha   90.00251388
_cell_angle_beta   54.68446196
_cell_angle_gamma   54.68458485
_symmetry_Int_Tables_number   1
_chemical_formula_structural   Dy2S3
_chemical_formula_sum   'Dy16 S24'
_cell_volume   860.48571722
_cell_formula_units_Z   8
loop_
 _symmetry_equiv_pos_site_id
 _symmetry_equiv_pos_as_xyz
  1  'x, y, z'
loop_
 _atom_site_type_symbol
 _atom_site_label
 _atom_site_symmetry_multiplicity
 _atom_site_fract_x
 _atom_site_fract_y
 _atom_site_fract_z
 _atom_site_occupancy
  Dy  Dy0  1  0.99293235  0.11918522  0.77187608  1
  Dy  Dy1  1  0.08866245  0.61696501  0.36699548  1
  Dy  Dy2  1  0.16665078  0.25003689  0.63203715  1
  Dy  Dy3  1  0.34038502  0.38085159  0.25067194  1
  Dy  Dy4  1  0.24471277  0.88294396  0.13297298  1
  Dy  Dy5  1  0.16666798  0.75003056  0.86801109  1
  Dy  Dy6  1  0.34040716  0.09795793  0.72812743  1
  Dy  Dy7  1  0.49292436  0.27188792  0.61919711  1
  Dy  Dy8  1  0.66665111  0.36803768  0.25005580  1
  Dy  Dy9  1  0.58864896  0.86701554  0.11698716  1
  Dy  Dy10  1  0.66663700  0.13205794  0.75005613  1
  Dy  Dy11  1  0.49294559  0.74932919  0.90199826  1
  Dy  Dy12  1  0.74469776  0.63299620  0.38296655  1
  Dy  Dy13  1  0.84039999  0.22813914  0.59796727  1
  Dy  Dy14  1  0.99295056  0.40199229  0.24932290  1
  Dy  Dy15  1  0.84037507  0.75068399  0.88086762  1
  S  S0  1  0.04721796  0.99687951  0.36547304  1
  S  S1  1  0.13052744  0.48504226  0.98881983  1
  S  S2  1  0.04726748  0.36131915  0.49290212  1
  S  S3  1  0.28614844  0.13849624  0.13442596  1
  S  S4  1  0.28608547  0.50318187  0.00714425  1
  S  S5  1  0.20279753  0.01495782  0.88064990  1
  S  S6  1  0.13052127  0.62338144  0.61944214  1
  S  S7  1  0.38150837  0.00199853  0.34969039  1
  S  S8  1  0.20283324  0.87657290  0.51108832  1
  S  S9  1  0.45179538  0.49431392  0.99803370  1
  S  S10  1  0.38152900  0.35338998  0.50572690  1
  S  S11  1  0.63050668  0.11946219  0.12340795  1
  S  S12  1  0.63051325  0.48884134  0.98506063  1
  S  S13  1  0.54725619  0.99291061  0.86134459  1
  S  S14  1  0.45182728  0.65026771  0.64654480  1
  S  S15  1  0.70281911  0.01110938  0.37659409  1
  S  S16  1  0.54720837  0.86548530  0.49689054  1
  S  S17  1  0.78607574  0.50716097  0.00319436  1
  S  S18  1  0.70278406  0.38066983  0.51497228  1
  S  S19  1  0.95183032  0.14654192  0.15025818  1
  S  S20  1  0.95179792  0.49802963  0.99431152  1
  S  S21  1  0.78613833  0.63444198  0.63851733  1
  S  S22  1  0.88152577  0.00573336  0.85338976  1
  S  S23  1  0.88150249  0.84969909  0.50200749  1
loop_
_geom_bond_atom_site_label_1
_geom_bond_atom_site_label_2
_geom_bond_distance
_geom_bond_site_symmetry_2
Dy0 S19 2.699438 1_556
Dy0 S8 2.714987 1_645
Dy0 S17 2.731573 1_556
Dy0 S22 2.805892 1_555
Dy0 S0 2.807452 1_645
Dy0 S6 2.987584 1_645
Dy0 S20 3.002031 1_555
Dy0 S2 3.225862 1_655
Dy1 S6 2.735096 1_555
Dy1 S1 2.736211 1_554
Dy1 S2 2.745019 1_555
Dy1 S0 2.745071 1_555
Dy1 S4 2.933458 1_555
Dy1 S3 2.933675 1_555
Dy1 S22 3.031369 1_465
Dy1 S23 3.031384 1_455
Dy2 S6 2.749822 1_555
Dy2 S8 2.750027 1_545
Dy2 S7 2.761338 1_555
Dy2 S20 2.761466 1_455
Dy2 S1 2.967032 1_555
Dy2 S5 2.968951 1_555
Dy2 S2 3.086891 1_555
Dy2 S3 3.088791 1_555
Dy3 S10 2.699736 1_555
Dy3 S6 2.714547 1_555
Dy3 S13 2.731825 1_544
Dy3 S9 2.805980 1_554
Dy3 S4 2.807442 1_555
Dy3 S8 2.987324 1_555
Dy3 S7 3.002147 1_555
Dy3 S3 3.226491 1_555
Dy4 S5 2.734873 1_564
Dy4 S8 2.735736 1_555
Dy4 S3 2.744459 1_565
Dy4 S4 2.744645 1_555
Dy4 S2 2.933311 1_565
Dy4 S0 2.933956 1_555
Dy4 S9 3.030508 1_554
Dy4 S14 3.031225 1_554
Dy5 S5 2.749551 1_565
Dy5 S1 2.749862 1_555
Dy5 S19 2.761281 1_466
Dy5 S10 2.761765 1_555
Dy5 S8 2.967605 1_555
Dy5 S6 2.968537 1_555
Dy5 S4 3.087426 1_556
Dy5 S0 3.087903 1_556
Dy6 S7 2.699886 1_555
Dy6 S1 2.714968 1_555
Dy6 S16 2.730889 1_545
Dy6 S14 2.806093 1_545
Dy6 S3 2.806846 1_556
Dy6 S5 2.987374 1_555
Dy6 S10 3.001774 1_555
Dy6 S4 3.226789 1_556
Dy7 S14 2.699457 1_555
Dy7 S15 2.714913 1_555
Dy7 S4 2.731359 1_556
Dy7 S10 2.805830 1_555
Dy7 S16 2.807455 1_545
Dy7 S11 2.987514 1_555
Dy7 S9 3.002025 1_555
Dy7 S13 3.225953 1_545
Dy8 S18 2.749520 1_555
Dy8 S12 2.749888 1_554
Dy8 S14 2.761110 1_555
Dy8 S22 2.761939 1_554
Dy8 S15 2.967614 1_555
Dy8 S11 2.968529 1_555
Dy8 S17 3.087471 1_555
Dy8 S16 3.087819 1_555
Dy9 S11 2.735075 1_565
Dy9 S12 2.736204 1_554
Dy9 S13 2.744958 1_554
Dy9 S16 2.745034 1_555
Dy9 S17 2.933477 1_555
Dy9 S21 2.933700 1_554
Dy9 S7 3.031181 1_565
Dy9 S10 3.031204 1_565
Dy10 S11 2.749887 1_556
Dy10 S15 2.750026 1_555
Dy10 S9 2.761325 1_555
Dy10 S23 2.761436 1_545
Dy10 S12 2.967021 1_555
Dy10 S18 2.968962 1_555
Dy10 S13 3.086914 1_545
Dy10 S21 3.088808 1_545
Dy11 S9 2.699576 1_555
Dy11 S18 2.714231 1_555
Dy11 S3 2.731041 1_566
Dy11 S7 2.805974 1_566
Dy11 S13 2.807918 1_555
Dy11 S12 2.987455 1_555
Dy11 S14 3.001831 1_555
Dy11 S16 3.226584 1_555
Dy12 S18 2.734857 1_555
Dy12 S15 2.735716 1_565
Dy12 S21 2.744528 1_555
Dy12 S17 2.744684 1_555
Dy12 S13 2.933299 1_555
Dy12 S16 2.933921 1_555
Dy12 S20 3.030687 1_554
Dy12 S19 3.031398 1_555
Dy13 S23 2.699884 1_545
Dy13 S12 2.715051 1_555
Dy13 S0 2.731097 1_645
Dy13 S19 2.806191 1_555
Dy13 S21 2.806834 1_555
Dy13 S18 2.987456 1_555
Dy13 S22 3.001760 1_555
Dy13 S17 3.226802 1_556
Dy14 S20 2.699588 1_554
Dy14 S5 2.714325 1_654
Dy14 S21 2.731230 1_555
Dy14 S23 2.806019 1_555
Dy14 S2 2.807995 1_655
Dy14 S1 2.987526 1_654
Dy14 S19 3.001849 1_555
Dy14 S0 3.226579 1_645
Dy15 S22 2.699772 1_565
Dy15 S11 2.714596 1_566
Dy15 S2 2.732070 1_655
Dy15 S20 2.806059 1_555
Dy15 S17 2.807388 1_556
Dy15 S15 2.987359 1_566
Dy15 S23 3.002181 1_555
Dy15 S21 3.226448 1_555
S0 S4 3.175886 1_555
S0 S19 3.208581 1_465
S0 S2 3.212888 1_565
S1 S5 3.140473 1_555
S1 S6 3.281783 1_555
S1 S23 3.307342 1_456
S2 S3 3.176180 1_555
S2 S20 3.208412 1_455
S3 S7 3.208503 1_555
S3 S4 3.213233 1_555
S5 S8 3.282636 1_545
S6 S8 3.140329 1_555
S8 S9 3.306494 1_554
S10 S7 3.199141 1_555
S10 S4 3.208673 1_556
S10 S11 3.306299 1_555
S11 S15 3.140305 1_555
S11 S12 3.281810 1_554
S12 S18 3.140512 1_555
S12 S7 3.307103 1_566
S13 S21 3.176186 1_555
S13 S9 3.208413 1_565
S13 S16 3.212975 1_555
S14 S9 3.199174 1_555
S14 S16 3.208486 1_555
S14 S5 3.306603 1_565
S15 S18 3.282607 1_555
S15 S20 3.306685 1_544
S16 S17 3.175884 1_555
S17 S22 3.208693 1_554
S17 S21 3.213178 1_554
S18 S19 3.306800 1_555
S19 S20 3.199128 1_554
S21 S23 3.208503 1_555
S22 S23 3.199116 1_545
S22 S6 3.306528 1_645
