# generated using pymatgen
data_LuTeClO3
_symmetry_space_group_name_H-M   'P 1'
_cell_length_a   6.98755157
_cell_length_b   7.35438806
_cell_length_c   8.20324038
_cell_angle_alpha   75.96668671
_cell_angle_beta   90.00000000
_cell_angle_gamma   90.00000000
_symmetry_Int_Tables_number   1
_chemical_formula_structural   LuTeClO3
_chemical_formula_sum   'Lu4 Te4 Cl4 O12'
_cell_volume   408.97625007
_cell_formula_units_Z   4
loop_
 _symmetry_equiv_pos_site_id
 _symmetry_equiv_pos_as_xyz
  1  'x, y, z'
loop_
 _atom_site_type_symbol
 _atom_site_label
 _atom_site_symmetry_multiplicity
 _atom_site_fract_x
 _atom_site_fract_y
 _atom_site_fract_z
 _atom_site_occupancy
  Lu  Lu0  1  0.74940115  0.79217364  0.34545099  1
  Lu  Lu1  1  0.25059885  0.20782636  0.65454901  1
  Lu  Lu2  1  0.24940115  0.70782636  0.65454901  1
  Lu  Lu3  1  0.75059885  0.29217364  0.34545099  1
  Te  Te0  1  0.72178510  0.93948114  0.71894438  1
  Te  Te1  1  0.22178510  0.56051886  0.28105562  1
  Te  Te2  1  0.77821490  0.43948114  0.71894438  1
  Te  Te3  1  0.27821490  0.06051886  0.28105562  1
  Cl  Cl0  1  0.70735999  0.60850735  0.10183191  1
  Cl  Cl1  1  0.29264001  0.39149265  0.89816809  1
  Cl  Cl2  1  0.79264001  0.10850735  0.10183191  1
  Cl  Cl3  1  0.20735999  0.89149265  0.89816809  1
  O  O0  1  0.79013160  0.00413435  0.48596370  1
  O  O1  1  0.44677899  0.24522603  0.32061618  1
  O  O2  1  0.05322101  0.74522603  0.32061618  1
  O  O3  1  0.55340348  0.14547604  0.68499084  1
  O  O4  1  0.94659652  0.64547604  0.68499084  1
  O  O5  1  0.05340348  0.35452396  0.31500916  1
  O  O6  1  0.44659652  0.85452396  0.31500916  1
  O  O7  1  0.55322101  0.75477397  0.67938382  1
  O  O8  1  0.70986840  0.50413435  0.48596370  1
  O  O9  1  0.20986840  0.99586565  0.51403630  1
  O  O10  1  0.29013160  0.49586565  0.51403630  1
  O  O11  1  0.94677899  0.25477397  0.67938382  1
loop_
_geom_bond_atom_site_label_1
_geom_bond_atom_site_label_2
_geom_bond_distance
_geom_bond_site_symmetry_2
Lu0 O6 2.166557 1_555
Lu0 O2 2.168358 1_655
Lu0 O8 2.169833 1_555
Lu0 O0 2.170487 1_565
Lu1 O3 2.166557 1_555
Lu1 O11 2.168358 1_455
Lu1 O10 2.169833 1_555
Lu1 O9 2.170487 1_545
Lu2 O4 2.166557 1_455
Lu2 O7 2.168358 1_555
Lu2 O9 2.169833 1_555
Lu2 O10 2.170487 1_555
Lu3 O5 2.166557 1_655
Lu3 O1 2.168358 1_555
Lu3 O0 2.169833 1_555
Lu3 O8 2.170487 1_555
Cl0 Lu0 2.685861 1_555
Cl0 Lu3 2.691225 1_555
Cl0 O8 3.057132 1_555
Cl0 O5 3.287810 1_655
Cl0 O2 3.308746 1_655
Cl0 O6 3.344574 1_555
Cl0 O1 3.368839 1_555
Cl0 Te0 3.477448 1_554
Cl0 O7 3.538164 1_554
Cl0 Te1 3.680592 1_555
Cl0 Te2 3.680936 1_554
Cl0 Cl2 3.725165 1_565
Cl0 Cl2 3.725165 1_555
Cl0 O4 3.756351 1_554
Cl1 Lu1 2.685861 1_555
Cl1 Lu2 2.691225 1_555
Cl1 O10 3.057132 1_555
Cl1 O4 3.287810 1_455
Cl1 O11 3.308746 1_455
Cl1 O3 3.344574 1_555
Cl1 O7 3.368839 1_555
Cl1 Te3 3.477448 1_556
Cl1 O1 3.538164 1_556
Cl1 Te2 3.680592 1_555
Cl1 Te1 3.680936 1_556
Cl1 Cl3 3.725165 1_555
Cl1 Cl3 3.725165 1_545
Cl1 O5 3.756351 1_556
Cl2 Lu3 2.685861 1_555
Cl2 Lu0 2.691225 1_545
Cl2 O0 3.057132 1_555
Cl2 O6 3.287810 1_545
Cl2 O1 3.308746 1_555
Cl2 O5 3.344574 1_655
Cl2 O2 3.368839 1_645
Cl2 Te2 3.477448 1_554
Cl2 O11 3.538164 1_554
Cl2 Te3 3.680592 1_655
Cl2 Te0 3.680936 1_544
Cl2 O3 3.756351 1_554
Cl3 Lu2 2.685861 1_555
Cl3 Lu1 2.691225 1_565
Cl3 O9 3.057132 1_555
Cl3 O3 3.287810 1_565
Cl3 O7 3.308746 1_555
Cl3 O4 3.344574 1_455
Cl3 O11 3.368839 1_465
Cl3 Te1 3.477448 1_556
Cl3 O2 3.538164 1_556
Cl3 Te0 3.680592 1_455
Cl3 Te3 3.680936 1_566
Cl3 O6 3.756351 1_556
O0 Te0 1.914711 1_545
O1 Te3 1.884599 1_555
O2 Te1 1.884599 1_555
O3 Te0 1.884779 1_545
O4 Te2 1.884779 1_555
O5 Te1 1.884779 1_555
O6 Te3 1.884779 1_565
O7 Te0 1.884599 1_555
O8 Te2 1.914711 1_555
O9 Te3 1.914711 1_565
O10 Te1 1.914711 1_555
O11 Te2 1.884599 1_555
