# generated using pymatgen
data_Lu5AlGaTe2
_symmetry_space_group_name_H-M   'P 1'
_cell_length_a   8.42709403
_cell_length_b   8.42709475
_cell_length_c   7.74666774
_cell_angle_alpha   89.98441689
_cell_angle_beta   89.98442472
_cell_angle_gamma   125.45924146
_symmetry_Int_Tables_number   1
_chemical_formula_structural   Lu5AlGaTe2
_chemical_formula_sum   'Lu10 Al2 Ga2 Te4'
_cell_volume   448.10192011
_cell_formula_units_Z   2
loop_
 _symmetry_equiv_pos_site_id
 _symmetry_equiv_pos_as_xyz
  1  'x, y, z'
loop_
 _atom_site_type_symbol
 _atom_site_label
 _atom_site_symmetry_multiplicity
 _atom_site_fract_x
 _atom_site_fract_y
 _atom_site_fract_z
 _atom_site_occupancy
  Lu  Lu0  1  0.00000000  0.00000000  0.00000000  1
  Lu  Lu1  1  0.50000000  0.50000000  0.50000000  1
  Lu  Lu2  1  0.79726176  0.54083461  0.16995980  1
  Lu  Lu3  1  0.45916539  0.20273824  0.83004020  1
  Lu  Lu4  1  0.95905592  0.71181252  0.66570118  1
  Lu  Lu5  1  0.28818748  0.04094408  0.33429882  1
  Lu  Lu6  1  0.20273824  0.45916539  0.83004020  1
  Lu  Lu7  1  0.54083461  0.79726176  0.16995980  1
  Lu  Lu8  1  0.04094408  0.28818748  0.33429882  1
  Lu  Lu9  1  0.71181252  0.95905592  0.66570118  1
  Al  Al0  1  0.62489132  0.62489132  0.87660962  1
  Al  Al1  1  0.37510868  0.37510868  0.12339038  1
  Ga  Ga0  1  0.86781072  0.86781072  0.36991126  1
  Ga  Ga1  1  0.13218928  0.13218928  0.63008874  1
  Te  Te0  1  0.20648627  0.79351373  1.00000000  1
  Te  Te1  1  0.70753161  0.29246839  0.50000000  1
  Te  Te2  1  0.79351373  0.20648627  0.00000000  1
  Te  Te3  1  0.29246839  0.70753161  0.50000000  1
loop_
_geom_bond_atom_site_label_1
_geom_bond_atom_site_label_2
_geom_bond_distance
_geom_bond_site_symmetry_2
Lu0 Te0 3.093354 1_544
Lu0 Te2 3.093354 1_455
Lu0 Lu5 3.428599 1_555
Lu0 Lu9 3.428599 1_444
Lu0 Lu8 3.428599 1_555
Lu0 Lu4 3.428599 1_444
Lu0 Lu3 3.456973 1_554
Lu0 Lu7 3.456973 1_445
Lu0 Lu6 3.456973 1_554
Lu0 Lu2 3.456973 1_445
Lu1 Te1 3.109014 1_555
Lu1 Te3 3.109014 1_555
Lu1 Lu4 3.433864 1_555
Lu1 Lu8 3.433864 1_555
Lu1 Lu9 3.433865 1_555
Lu1 Lu5 3.433865 1_555
Lu1 Lu3 3.453455 1_555
Lu1 Lu7 3.453455 1_555
Lu1 Lu2 3.453455 1_555
Lu1 Lu6 3.453455 1_555
Lu2 Te2 3.093875 1_555
Lu2 Te0 3.104245 1_654
Lu2 Te1 3.106284 1_555
Lu3 Te2 3.093875 1_556
Lu3 Te0 3.104245 1_545
Lu3 Te1 3.106284 1_555
Lu4 Te3 3.107907 1_655
Lu4 Te0 3.141107 1_655
Lu4 Te1 3.153065 1_555
Lu5 Te3 3.107907 1_545
Lu5 Te0 3.141107 1_544
Lu5 Te1 3.153064 1_555
Lu6 Te0 3.093875 1_555
Lu6 Te2 3.104245 1_456
Lu6 Te3 3.106284 1_555
Lu7 Te0 3.093875 1_554
Lu7 Te2 3.104245 1_565
Lu7 Te3 3.106284 1_555
Lu8 Te1 3.107907 1_455
Lu8 Te2 3.141107 1_455
Lu8 Te3 3.153065 1_555
Lu9 Te1 3.107907 1_565
Lu9 Te2 3.141107 1_566
Lu9 Te3 3.153064 1_555
Al0 Al1 2.714975 1_556
Al0 Lu4 2.956283 1_555
Al0 Lu9 2.956283 1_555
Al0 Lu2 2.995113 1_556
Al0 Lu7 2.995113 1_556
Al0 Lu6 2.995494 1_555
Al0 Lu3 2.995494 1_555
Al0 Lu0 3.050920 1_666
Al0 Lu1 3.073298 1_555
Al1 Lu8 2.956283 1_555
Al1 Lu5 2.956283 1_555
Al1 Lu6 2.995113 1_554
Al1 Lu3 2.995113 1_554
Al1 Lu2 2.995494 1_555
Al1 Lu7 2.995494 1_555
Al1 Lu0 3.050920 1_555
Al1 Lu1 3.073298 1_555
Ga0 Ga1 2.869750 1_665
Ga0 Lu7 2.906441 1_555
Ga0 Lu2 2.906442 1_555
Ga0 Lu4 2.956698 1_555
Ga0 Lu9 2.956698 1_555
Ga0 Lu5 2.959202 1_665
Ga0 Lu8 2.959203 1_665
Ga0 Lu1 3.013301 1_555
Ga0 Lu0 3.041406 1_665
Ga1 Lu3 2.906441 1_555
Ga1 Lu6 2.906442 1_555
Ga1 Lu8 2.956698 1_555
Ga1 Lu5 2.956698 1_555
Ga1 Lu9 2.959202 1_445
Ga1 Lu4 2.959203 1_445
Ga1 Lu1 3.013301 1_555
Ga1 Lu0 3.041406 1_556
