# generated using pymatgen
data_Th(CoGe)2
_symmetry_space_group_name_H-M   'P 1'
_cell_length_a   4.15921606
_cell_length_b   4.15921675
_cell_length_c   5.64350083
_cell_angle_alpha   111.62289377
_cell_angle_beta   111.62290715
_cell_angle_gamma   89.99999365
_symmetry_Int_Tables_number   1
_chemical_formula_structural   Th(CoGe)2
_chemical_formula_sum   'Th1 Co2 Ge2'
_cell_volume   83.32262056
_cell_formula_units_Z   1
loop_
 _symmetry_equiv_pos_site_id
 _symmetry_equiv_pos_as_xyz
  1  'x, y, z'
loop_
 _atom_site_type_symbol
 _atom_site_label
 _atom_site_symmetry_multiplicity
 _atom_site_fract_x
 _atom_site_fract_y
 _atom_site_fract_z
 _atom_site_occupancy
  Th  Th0  1  -0.00000000  -0.00000000  -0.00000000  1
  Co  Co0  1  0.75000000  0.25000000  0.50000000  1
  Co  Co1  1  0.25000000  0.75000000  0.50000000  1
  Ge  Ge0  1  0.63599358  0.63599358  0.27198616  1
  Ge  Ge1  1  0.36400642  0.36400642  0.72801384  1
loop_
_geom_bond_atom_site_label_1
_geom_bond_atom_site_label_2
_geom_bond_distance
_geom_bond_site_symmetry_2
Co0 Ge1 2.351789 1_655
Co0 Ge0 2.351790 1_545
Co0 Ge0 2.351793 1_555
Co0 Ge1 2.351793 1_555
Co0 Th0 3.181927 1_555
Co0 Th0 3.181927 1_656
Co0 Th0 3.181927 1_655
Co0 Th0 3.181928 1_666
Co1 Ge0 2.351789 1_455
Co1 Ge1 2.351790 1_565
Co1 Ge1 2.351793 1_555
Co1 Ge0 2.351793 1_555
Co1 Th0 3.181927 1_666
Co1 Th0 3.181927 1_565
Co1 Th0 3.181927 1_566
Co1 Th0 3.181928 1_555
Ge0 Ge1 2.620093 1_554
Ge0 Th0 3.219588 1_665
Ge0 Th0 3.219590 1_565
Ge0 Th0 3.219591 1_655
Ge0 Th0 3.219593 1_555
Ge1 Th0 3.219588 1_556
Ge1 Th0 3.219590 1_656
Ge1 Th0 3.219591 1_566
Ge1 Th0 3.219593 1_666
