# generated using pymatgen
data_Hf10Be2Sn5Sb
_symmetry_space_group_name_H-M   'P 1'
_cell_length_a   8.48145134
_cell_length_b   8.48145168
_cell_length_c   5.73896950
_cell_angle_alpha   90.00000000
_cell_angle_beta   90.00000000
_cell_angle_gamma   120.00102631
_symmetry_Int_Tables_number   1
_chemical_formula_structural   Hf10Be2Sn5Sb
_chemical_formula_sum   'Hf10 Be2 Sn5 Sb1'
_cell_volume   357.52006787
_cell_formula_units_Z   1
loop_
 _symmetry_equiv_pos_site_id
 _symmetry_equiv_pos_as_xyz
  1  'x, y, z'
loop_
 _atom_site_type_symbol
 _atom_site_label
 _atom_site_symmetry_multiplicity
 _atom_site_fract_x
 _atom_site_fract_y
 _atom_site_fract_z
 _atom_site_occupancy
  Hf  Hf0  1  0.75884152  0.75884152  0.75000000  1
  Hf  Hf1  1  0.24087835  0.99954280  0.75000000  1
  Hf  Hf2  1  0.99954280  0.24087835  0.75000000  1
  Hf  Hf3  1  0.25763039  0.25763039  0.25000000  1
  Hf  Hf4  1  0.74379833  0.00048894  0.25000000  1
  Hf  Hf5  1  0.00048894  0.74379833  0.25000000  1
  Hf  Hf6  1  0.66558357  0.33346078  0.00120814  1
  Hf  Hf7  1  0.33346078  0.66558357  0.00120814  1
  Hf  Hf8  1  0.33346078  0.66558357  0.49879186  1
  Hf  Hf9  1  0.66558357  0.33346078  0.49879186  1
  Be  Be0  1  0.00011325  0.00011325  0.02461999  1
  Be  Be1  1  0.00011325  0.00011325  0.47538001  1
  Sn  Sn0  1  0.60412502  0.00006446  0.75000000  1
  Sn  Sn1  1  0.00006446  0.60412502  0.75000000  1
  Sn  Sn2  1  0.61408064  0.61408064  0.25000000  1
  Sn  Sn3  1  0.38810993  0.99930303  0.25000000  1
  Sn  Sn4  1  0.99930303  0.38810993  0.25000000  1
  Sb  Sb0  1  0.39482238  0.39482238  0.75000000  1
loop_
_geom_bond_atom_site_label_1
_geom_bond_atom_site_label_2
_geom_bond_distance
_geom_bond_site_symmetry_2
Hf0 Sn1 2.931296 1_655
Hf0 Sn0 2.931296 1_565
Hf0 Sb0 3.087363 1_555
Hf0 Sn2 3.121113 1_556
Hf0 Sn2 3.121113 1_555
Hf0 Hf7 3.587038 1_556
Hf0 Hf8 3.587038 1_555
Hf0 Hf6 3.587038 1_556
Hf0 Hf9 3.587038 1_555
Hf1 Sb0 2.926923 1_565
Hf1 Sn1 2.927287 1_555
Hf1 Sn0 3.078649 1_565
Hf1 Sn3 3.129829 1_555
Hf1 Sn3 3.129829 1_556
Hf1 Hf6 3.587842 1_566
Hf1 Hf9 3.587842 1_565
Hf1 Hf7 3.597507 1_556
Hf1 Hf8 3.597507 1_555
Hf2 Sb0 2.926923 1_655
Hf2 Sn0 2.927287 1_555
Hf2 Sn1 3.078649 1_655
Hf2 Sn4 3.129829 1_555
Hf2 Sn4 3.129829 1_556
Hf2 Hf7 3.587842 1_656
Hf2 Hf8 3.587842 1_655
Hf2 Hf6 3.597507 1_556
Hf2 Hf9 3.597507 1_555
Hf3 Sn4 2.906867 1_455
Hf3 Sn3 2.906867 1_545
Hf3 Sn2 3.023169 1_555
Hf3 Sb0 3.096423 1_554
Hf3 Sb0 3.096423 1_555
Hf3 Hf9 3.492668 1_555
Hf3 Hf6 3.492668 1_555
Hf3 Hf8 3.492668 1_555
Hf3 Hf7 3.492668 1_555
Hf4 Sn2 2.888834 1_545
Hf4 Sn4 2.894781 1_555
Hf4 Sn3 3.011737 1_545
Hf4 Sn0 3.103715 1_555
Hf4 Sn0 3.103715 1_554
Hf4 Hf9 3.511074 1_555
Hf4 Hf6 3.511074 1_555
Hf4 Hf8 3.511874 1_545
Hf4 Hf7 3.511874 1_545
Hf5 Sn2 2.888834 1_455
Hf5 Sn3 2.894781 1_555
Hf5 Sn4 3.011737 1_455
Hf5 Sn1 3.103715 1_555
Hf5 Sn1 3.103715 1_554
Hf5 Hf8 3.511074 1_555
Hf5 Hf7 3.511074 1_555
Hf5 Hf9 3.511874 1_455
Hf5 Hf6 3.511874 1_455
Hf6 Hf9 2.855618 1_555
Hf6 Hf9 2.883352 1_554
Hf6 Sb0 2.969536 1_554
Hf6 Sn0 2.978581 1_554
Hf6 Sn1 2.980538 1_654
Hf6 Sn2 2.988954 1_555
Hf6 Sn3 2.989879 1_545
Hf6 Sn4 2.992128 1_555
Hf7 Hf8 2.855618 1_555
Hf7 Hf8 2.883352 1_554
Hf7 Sb0 2.969536 1_554
Hf7 Sn1 2.978580 1_554
Hf7 Sn0 2.980538 1_564
Hf7 Sn2 2.988954 1_555
Hf7 Sn4 2.989879 1_455
Hf7 Sn3 2.992128 1_555
Hf8 Sb0 2.969536 1_555
Hf8 Sn1 2.978580 1_555
Hf8 Sn0 2.980538 1_565
Hf8 Sn2 2.988954 1_555
Hf8 Sn4 2.989879 1_455
Hf8 Sn3 2.992128 1_555
Hf9 Sb0 2.969536 1_555
Hf9 Sn0 2.978581 1_555
Hf9 Sn1 2.980538 1_655
Hf9 Sn2 2.988954 1_555
Hf9 Sn3 2.989879 1_545
Hf9 Sn4 2.992128 1_555
Be0 Hf4 2.530985 1_455
Be0 Hf5 2.530985 1_545
Be0 Hf3 2.538353 1_555
Be0 Hf1 2.581416 1_544
Be0 Hf2 2.581416 1_454
Be0 Hf0 2.582875 1_444
Be0 Be1 2.586898 1_555
Be1 Hf4 2.530985 1_455
Be1 Hf5 2.530985 1_545
Be1 Hf3 2.538353 1_555
Be1 Hf1 2.581416 1_545
Be1 Hf2 2.581416 1_455
Be1 Hf0 2.582875 1_445
Sn0 Sn3 3.402767 1_546
Sn0 Sn3 3.402767 1_545
Sn1 Sn4 3.402767 1_456
Sn1 Sn4 3.402767 1_455
Sb0 Sn2 3.419364 1_555
Sb0 Sn2 3.419364 1_556
