# generated using pymatgen
data_BeNb(BW)3
_symmetry_space_group_name_H-M   'P 1'
_cell_length_a   4.58377954
_cell_length_b   4.58377811
_cell_length_c   6.30409374
_cell_angle_alpha   90.00000000
_cell_angle_beta   90.00000000
_cell_angle_gamma   138.98872369
_symmetry_Int_Tables_number   1
_chemical_formula_structural   BeNb(BW)3
_chemical_formula_sum   'Be1 Nb1 B3 W3'
_cell_volume   86.91829403
_cell_formula_units_Z   1
loop_
 _symmetry_equiv_pos_site_id
 _symmetry_equiv_pos_as_xyz
  1  'x, y, z'
loop_
 _atom_site_type_symbol
 _atom_site_label
 _atom_site_symmetry_multiplicity
 _atom_site_fract_x
 _atom_site_fract_y
 _atom_site_fract_z
 _atom_site_occupancy
  Be  Be0  1  0.56650090  0.43349910  0.50000000  1
  Nb  Nb0  1  0.85168852  0.14831148  0.00000000  1
  B  B0  1  0.56014098  0.43985902  0.00000000  1
  B  B1  1  0.43762802  0.56237198  0.24995428  1
  B  B2  1  0.43762802  0.56237198  0.75004572  1
  W  W0  1  0.85490204  0.14509796  0.50000000  1
  W  W1  1  0.14575476  0.85424524  0.24610218  1
  W  W2  1  0.14575476  0.85424524  0.75389782  1
loop_
_geom_bond_atom_site_label_1
_geom_bond_atom_site_label_2
_geom_bond_distance
_geom_bond_site_symmetry_2
Be0 W2 2.367125 1_545
Be0 W1 2.367125 1_545
Be0 W2 2.367126 1_655
Be0 W1 2.367126 1_655
Be0 W0 2.424767 1_565
Be0 W0 2.424768 1_455
Be0 W0 2.476408 1_555
Nb0 W1 2.848174 1_655
Nb0 W2 2.848174 1_654
Nb0 W1 2.848175 1_545
Nb0 W2 2.848175 1_544
B0 B1 1.894625 1_555
B0 B2 1.894625 1_554
B0 W1 2.350678 1_545
B0 W2 2.350678 1_544
B0 W1 2.350678 1_655
B0 W2 2.350678 1_654
B0 Nb0 2.404589 1_565
B0 Nb0 2.404591 1_455
B0 Nb0 2.503425 1_555
B1 Be0 1.925954 1_555
B1 W0 2.359576 1_565
B1 W0 2.359577 1_455
B1 Nb0 2.367646 1_565
B1 Nb0 2.367646 1_455
B1 W1 2.402631 1_545
B1 W1 2.402632 1_655
B1 W1 2.506340 1_555
B2 Be0 1.925954 1_555
B2 W0 2.359576 1_565
B2 W0 2.359577 1_455
B2 Nb0 2.367646 1_566
B2 Nb0 2.367646 1_456
B2 W2 2.402631 1_545
B2 W2 2.402632 1_655
B2 W2 2.506340 1_555
W0 W2 2.892292 1_655
W0 W1 2.892292 1_655
W0 W2 2.892292 1_545
W0 W1 2.892292 1_545
