# generated using pymatgen
data_Sc4Mo(AsRh)6
_symmetry_space_group_name_H-M   'P 1'
_cell_length_a   7.05488001
_cell_length_b   7.05487922
_cell_length_c   7.05488025
_cell_angle_alpha   109.47122076
_cell_angle_beta   109.47121850
_cell_angle_gamma   109.47122502
_symmetry_Int_Tables_number   1
_chemical_formula_structural   Sc4Mo(AsRh)6
_chemical_formula_sum   'Sc4 Mo1 As6 Rh6'
_cell_volume   270.30056758
_cell_formula_units_Z   1
loop_
 _symmetry_equiv_pos_site_id
 _symmetry_equiv_pos_as_xyz
  1  'x, y, z'
loop_
 _atom_site_type_symbol
 _atom_site_label
 _atom_site_symmetry_multiplicity
 _atom_site_fract_x
 _atom_site_fract_y
 _atom_site_fract_z
 _atom_site_occupancy
  Sc  Sc0  1  0.00000000  0.00000000  0.50000000  1
  Sc  Sc1  1  0.50000000  0.00000000  0.00000000  1
  Sc  Sc2  1  0.00000000  0.50000000  0.00000000  1
  Sc  Sc3  1  0.50000000  0.50000000  0.50000000  1
  Mo  Mo0  1  0.00000000  0.00000000  0.00000000  1
  As  As0  1  0.68543118  0.68543118  1.00000000  1
  As  As1  1  0.31456882  0.31456882  0.00000000  1
  As  As2  1  1.00000000  0.68543118  0.68543118  1
  As  As3  1  0.00000000  0.31456882  0.31456882  1
  As  As4  1  0.68543118  0.00000000  0.68543118  1
  As  As5  1  0.31456882  1.00000000  0.31456882  1
  Rh  Rh0  1  0.25000000  0.50000000  0.75000000  1
  Rh  Rh1  1  0.75000000  0.25000000  0.50000000  1
  Rh  Rh2  1  0.50000000  0.25000000  0.75000000  1
  Rh  Rh3  1  0.50000000  0.75000000  0.25000000  1
  Rh  Rh4  1  0.75000000  0.50000000  0.25000000  1
  Rh  Rh5  1  0.25000000  0.75000000  0.50000000  1
loop_
_geom_bond_atom_site_label_1
_geom_bond_atom_site_label_2
_geom_bond_distance
_geom_bond_site_symmetry_2
As0 Rh2 2.535634 1_555
As0 Rh4 2.535634 1_556
As0 Rh0 2.535634 1_555
As0 Rh3 2.535635 1_556
As0 Mo0 2.562563 1_666
As0 Sc1 2.927779 1_566
As0 Sc2 2.927780 1_656
As0 Sc0 2.927780 1_666
As0 Sc3 2.927780 1_555
As1 Rh3 2.535634 1_555
As1 Rh0 2.535634 1_554
As1 Rh4 2.535634 1_555
As1 Rh2 2.535635 1_554
As1 Mo0 2.562563 1_555
As1 Sc1 2.927779 1_555
As1 Sc2 2.927780 1_555
As1 Sc0 2.927780 1_554
As1 Sc3 2.927780 1_555
As2 Rh1 2.535634 1_555
As2 Rh0 2.535634 1_655
As2 Rh5 2.535634 1_655
As2 Rh4 2.535635 1_555
As2 Mo0 2.562564 1_666
As2 Sc0 2.927779 1_665
As2 Sc1 2.927779 1_666
As2 Sc3 2.927779 1_555
As2 Sc2 2.927780 1_656
As3 Rh5 2.535634 1_555
As3 Rh4 2.535634 1_455
As3 Rh1 2.535634 1_455
As3 Rh0 2.535635 1_555
As3 Mo0 2.562564 1_555
As3 Sc0 2.927779 1_555
As3 Sc1 2.927779 1_455
As3 Sc3 2.927779 1_555
As3 Sc2 2.927780 1_555
As4 Rh1 2.535634 1_555
As4 Rh5 2.535634 1_545
As4 Rh2 2.535634 1_555
As4 Rh3 2.535635 1_545
As4 Mo0 2.562564 1_656
As4 Sc3 2.927779 1_545
As4 Sc2 2.927779 1_656
As4 Sc0 2.927780 1_655
As4 Sc1 2.927780 1_556
As5 Rh5 2.535634 1_555
As5 Rh1 2.535634 1_565
As5 Rh3 2.535634 1_555
As5 Rh2 2.535635 1_565
As5 Mo0 2.562564 1_565
As5 Sc3 2.927779 1_565
As5 Sc2 2.927779 1_555
As5 Sc0 2.927780 1_565
As5 Sc1 2.927780 1_565
Rh0 Sc1 2.880142 1_566
Rh0 Sc0 2.880142 1_555
Rh0 Rh5 2.880143 1_555
Rh0 Rh2 2.880143 1_555
Rh0 Rh1 2.880143 1_455
Rh0 Sc3 2.880143 1_555
Rh0 Sc2 2.880143 1_556
Rh0 Rh3 2.880143 1_556
Rh1 Rh3 2.880142 1_545
Rh1 Rh4 2.880143 1_555
Rh1 Sc0 2.880143 1_655
Rh1 Sc3 2.880143 1_555
Rh1 Rh2 2.880143 1_555
Rh1 Sc2 2.880143 1_656
Rh1 Sc1 2.880143 1_555
Rh2 Rh5 2.880142 1_545
Rh2 Sc3 2.880143 1_555
Rh2 Sc1 2.880143 1_556
Rh2 Sc2 2.880143 1_656
Rh2 Sc0 2.880143 1_555
Rh2 Rh4 2.880143 1_556
Rh3 Sc3 2.880143 1_555
Rh3 Sc1 2.880143 1_565
Rh3 Rh4 2.880143 1_555
Rh3 Sc0 2.880143 1_665
Rh3 Sc2 2.880143 1_555
Rh3 Rh5 2.880143 1_555
Rh4 Sc1 2.880142 1_555
Rh4 Sc0 2.880142 1_665
Rh4 Rh5 2.880143 1_655
Rh4 Sc2 2.880143 1_655
Rh4 Sc3 2.880143 1_555
Rh5 Sc3 2.880143 1_555
Rh5 Sc0 2.880143 1_565
Rh5 Sc1 2.880143 1_566
Rh5 Sc2 2.880143 1_555
