# generated using pymatgen
data_Cs6Rb3GaSb4
_symmetry_space_group_name_H-M   'P 1'
_cell_length_a   11.19603887
_cell_length_b   11.19604477
_cell_length_c   11.82493925
_cell_angle_alpha   90.00000000
_cell_angle_beta   90.00000000
_cell_angle_gamma   120.00004898
_symmetry_Int_Tables_number   1
_chemical_formula_structural   Cs6Rb3GaSb4
_chemical_formula_sum   'Cs12 Rb6 Ga2 Sb8'
_cell_volume   1283.68468402
_cell_formula_units_Z   2
loop_
 _symmetry_equiv_pos_site_id
 _symmetry_equiv_pos_as_xyz
  1  'x, y, z'
loop_
 _atom_site_type_symbol
 _atom_site_label
 _atom_site_symmetry_multiplicity
 _atom_site_fract_x
 _atom_site_fract_y
 _atom_site_fract_z
 _atom_site_occupancy
  Cs  Cs0  1  0.20911337  0.41822673  0.54140680  1
  Cs  Cs1  1  0.79088663  0.20911337  0.04140780  1
  Cs  Cs2  1  0.41822673  0.20911337  0.04140780  1
  Cs  Cs3  1  0.58177327  0.79088663  0.54140780  1
  Cs  Cs4  1  0.20911337  0.79088663  0.54140780  1
  Cs  Cs5  1  0.79088663  0.58177327  0.45859320  1
  Cs  Cs6  1  0.79088663  0.20911337  0.45859220  1
  Cs  Cs7  1  0.79088663  0.58177327  0.04140680  1
  Cs  Cs8  1  0.41822673  0.20911337  0.45859220  1
  Cs  Cs9  1  0.58177327  0.79088663  0.95859220  1
  Cs  Cs10  1  0.20911337  0.41822673  0.95859320  1
  Cs  Cs11  1  0.20911337  0.79088663  0.95859220  1
  Rb  Rb0  1  0.11894630  0.23788960  0.25000000  1
  Rb  Rb1  1  0.88105470  0.11894430  0.75000000  1
  Rb  Rb2  1  0.23788960  0.11894530  0.75000000  1
  Rb  Rb3  1  0.76211040  0.88105470  0.25000000  1
  Rb  Rb4  1  0.11894530  0.88105570  0.25000000  1
  Rb  Rb5  1  0.88105370  0.76211040  0.75000000  1
  Ga  Ga0  1  0.33333300  0.66666700  0.25000000  1
  Ga  Ga1  1  0.66666700  0.33333300  0.75000000  1
  Sb  Sb0  1  0.47150850  0.52849150  0.25000000  1
  Sb  Sb1  1  0.94301700  0.47150950  0.75000000  1
  Sb  Sb2  1  0.52849150  0.05698300  0.75000000  1
  Sb  Sb3  1  0.47150850  0.94301700  0.25000000  1
  Sb  Sb4  1  0.05698300  0.52849050  0.25000000  1
  Sb  Sb5  1  0.52849150  0.47150850  0.75000000  1
  Sb  Sb6  1  0.00000000  0.00000000  0.00000000  1
  Sb  Sb7  1  0.00000000  0.00000000  0.50000000  1
loop_
_geom_bond_atom_site_label_1
_geom_bond_atom_site_label_2
_geom_bond_distance
_geom_bond_site_symmetry_2
Cs0 Rb0 3.864125 1_555
Cs0 Sb7 4.084602 1_555
Cs0 Sb5 4.134369 1_555
Cs0 Sb1 4.134376 1_455
Cs0 Cs6 4.171715 1_455
Cs0 Cs8 4.171718 1_555
Cs0 Cs3 4.172313 1_555
Cs0 Cs4 4.172317 1_555
Cs0 Ga0 4.204374 1_555
Cs0 Sb4 4.289736 1_555
Cs0 Sb0 4.289740 1_555
Cs0 Rb2 4.300596 1_555
Cs0 Rb1 4.300602 1_455
Cs0 Cs10 4.933204 1_555
Cs1 Rb1 3.864136 1_554
Cs1 Sb6 4.084606 1_655
Cs1 Sb4 4.134356 1_655
Cs1 Sb3 4.134361 1_545
Cs1 Cs10 4.171715 1_654
Cs1 Cs9 4.171719 1_544
Cs1 Cs2 4.172315 1_555
Cs1 Cs7 4.172317 1_555
Cs1 Ga1 4.204378 1_554
Cs1 Sb2 4.289749 1_554
Cs1 Sb1 4.289755 1_554
Cs1 Rb3 4.300598 1_545
Cs1 Rb0 4.300605 1_655
Cs1 Cs6 4.933180 1_555
Cs2 Rb2 3.864135 1_554
Cs2 Sb6 4.084601 1_555
Cs2 Sb0 4.134364 1_555
Cs2 Sb3 4.134364 1_545
Cs2 Cs7 4.172313 1_555
Cs2 Ga1 4.204383 1_554
Cs2 Sb5 4.289750 1_554
Cs2 Sb2 4.289751 1_554
Cs2 Rb0 4.300579 1_555
Cs2 Rb4 4.300586 1_545
Cs2 Cs8 4.933180 1_555
Cs3 Rb3 3.864135 1_555
Cs3 Sb7 4.084601 1_665
Cs3 Sb5 4.134364 1_555
Cs3 Sb2 4.134364 1_565
Cs3 Cs5 4.171718 1_555
Cs3 Cs6 4.171719 1_565
Cs3 Cs4 4.172315 1_555
Cs3 Ga0 4.204383 1_555
Cs3 Sb0 4.289750 1_555
Cs3 Sb3 4.289751 1_555
Cs3 Rb5 4.300579 1_555
Cs3 Rb1 4.300586 1_565
Cs3 Cs9 4.933180 1_555
Cs4 Rb4 3.864136 1_555
Cs4 Sb7 4.084606 1_565
Cs4 Sb1 4.134356 1_455
Cs4 Sb2 4.134361 1_565
Cs4 Cs5 4.171715 1_455
Cs4 Cs8 4.171719 1_565
Cs4 Ga0 4.204378 1_555
Cs4 Sb3 4.289749 1_555
Cs4 Sb4 4.289755 1_555
Cs4 Rb2 4.300598 1_565
Cs4 Rb5 4.300605 1_455
Cs5 Rb5 3.864125 1_555
Cs5 Sb7 4.084602 1_665
Cs5 Sb0 4.134369 1_555
Cs5 Sb4 4.134376 1_655
Cs5 Cs8 4.172313 1_555
Cs5 Cs6 4.172317 1_555
Cs5 Ga1 4.204374 1_555
Cs5 Sb1 4.289736 1_555
Cs5 Sb5 4.289740 1_555
Cs5 Rb3 4.300596 1_555
Cs5 Rb4 4.300602 1_655
Cs5 Cs7 4.933204 1_555
Cs6 Rb1 3.864136 1_555
Cs6 Sb7 4.084606 1_655
Cs6 Sb4 4.134356 1_655
Cs6 Sb3 4.134361 1_545
Cs6 Cs8 4.172315 1_555
Cs6 Ga1 4.204378 1_555
Cs6 Sb2 4.289749 1_555
Cs6 Sb1 4.289755 1_555
Cs6 Rb3 4.300598 1_545
Cs6 Rb0 4.300605 1_655
Cs7 Rb5 3.864125 1_554
Cs7 Sb6 4.084602 1_665
Cs7 Sb0 4.134369 1_555
Cs7 Sb4 4.134376 1_655
Cs7 Cs9 4.171718 1_554
Cs7 Ga1 4.204374 1_554
Cs7 Sb1 4.289736 1_554
Cs7 Sb5 4.289740 1_554
Cs7 Rb3 4.300596 1_555
Cs7 Rb4 4.300602 1_655
Cs8 Rb2 3.864135 1_555
Cs8 Sb7 4.084601 1_555
Cs8 Sb0 4.134364 1_555
Cs8 Sb3 4.134364 1_545
Cs8 Ga1 4.204383 1_555
Cs8 Sb5 4.289750 1_555
Cs8 Sb2 4.289751 1_555
Cs8 Rb0 4.300579 1_555
Cs8 Rb4 4.300586 1_545
Cs9 Rb3 3.864135 1_556
Cs9 Sb6 4.084601 1_666
Cs9 Sb5 4.134364 1_555
Cs9 Sb2 4.134364 1_565
Cs9 Ga0 4.204383 1_556
Cs9 Sb0 4.289750 1_556
Cs9 Sb3 4.289751 1_556
Cs9 Rb5 4.300579 1_555
Cs9 Rb1 4.300586 1_565
Cs10 Rb0 3.864125 1_556
Cs10 Sb6 4.084602 1_556
Cs10 Sb5 4.134369 1_555
Cs10 Sb1 4.134376 1_455
Cs10 Cs2 4.171718 1_556
Cs10 Cs9 4.172313 1_555
Cs10 Cs11 4.172317 1_555
Cs10 Ga0 4.204374 1_556
Cs10 Sb4 4.289736 1_556
Cs10 Sb0 4.289740 1_556
Cs10 Rb2 4.300596 1_555
Cs10 Rb1 4.300602 1_455
Cs11 Rb4 3.864136 1_556
Cs11 Sb6 4.084606 1_566
Cs11 Sb1 4.134356 1_455
Cs11 Sb2 4.134361 1_565
Cs11 Cs7 4.171715 1_456
Cs11 Cs2 4.171719 1_566
Cs11 Cs9 4.172315 1_555
Cs11 Ga0 4.204378 1_556
Cs11 Sb3 4.289749 1_556
Cs11 Sb4 4.289755 1_556
Cs11 Rb2 4.300598 1_565
Cs11 Rb5 4.300605 1_455
Cs11 Cs4 4.933180 1_555
Rb0 Sb0 3.650221 1_555
Rb0 Sb4 3.650236 1_555
Rb0 Sb7 3.749625 1_555
Rb0 Sb6 3.749625 1_555
Rb0 Rb4 3.995123 1_545
Rb0 Rb3 3.995141 1_445
Rb1 Sb2 3.650230 1_555
Rb1 Sb1 3.650250 1_555
Rb1 Sb6 3.749625 1_656
Rb1 Sb7 3.749625 1_655
Rb1 Rb5 3.995123 1_545
Rb1 Rb2 3.995132 1_655
Rb2 Sb5 3.650229 1_555
Rb2 Sb2 3.650238 1_555
Rb2 Sb7 3.749624 1_555
Rb2 Sb6 3.749624 1_556
Rb2 Rb5 3.995141 1_445
Rb3 Sb0 3.650229 1_555
Rb3 Sb3 3.650238 1_555
Rb3 Sb7 3.749624 1_665
Rb3 Sb6 3.749624 1_665
Rb3 Rb4 3.995132 1_655
Rb4 Sb3 3.650230 1_555
Rb4 Sb4 3.650250 1_555
Rb4 Sb7 3.749625 1_565
Rb4 Sb6 3.749625 1_565
Rb5 Sb5 3.650221 1_555
Rb5 Sb1 3.650236 1_555
Rb5 Sb6 3.749625 1_666
Rb5 Sb7 3.749625 1_665
Ga0 Sb4 2.679503 1_555
Ga0 Sb3 2.679505 1_555
Ga0 Sb0 2.679516 1_555
Ga1 Sb1 2.679503 1_555
Ga1 Sb2 2.679505 1_555
Ga1 Sb5 2.679516 1_555
