# generated using pymatgen
data_CuTe2Br
_symmetry_space_group_name_H-M   'P 1'
_cell_length_a   5.13149878
_cell_length_b   8.37108674
_cell_length_c   12.57469974
_cell_angle_alpha   64.34078197
_cell_angle_beta   90.00000000
_cell_angle_gamma   90.00000000
_symmetry_Int_Tables_number   1
_chemical_formula_structural   CuTe2Br
_chemical_formula_sum   'Cu4 Te8 Br4'
_cell_volume   486.89380095
_cell_formula_units_Z   4
loop_
 _symmetry_equiv_pos_site_id
 _symmetry_equiv_pos_as_xyz
  1  'x, y, z'
loop_
 _atom_site_type_symbol
 _atom_site_label
 _atom_site_symmetry_multiplicity
 _atom_site_fract_x
 _atom_site_fract_y
 _atom_site_fract_z
 _atom_site_occupancy
  Cu  Cu0  1  0.13311631  0.18040488  0.25016213  1
  Cu  Cu1  1  0.63311631  0.81959512  0.24983787  1
  Cu  Cu2  1  0.86688369  0.81959512  0.74983787  1
  Cu  Cu3  1  0.36688369  0.18040488  0.75016213  1
  Te  Te0  1  0.02383492  0.27775305  0.85508342  1
  Te  Te1  1  0.79054173  0.41417589  0.14688131  1
  Te  Te2  1  0.70945827  0.41417589  0.64688131  1
  Te  Te3  1  0.20945827  0.58582411  0.85311869  1
  Te  Te4  1  0.52383492  0.72224695  0.64491658  1
  Te  Te5  1  0.97616508  0.72224695  0.14491658  1
  Te  Te6  1  0.47616508  0.27775305  0.35508342  1
  Te  Te7  1  0.29054173  0.58582411  0.35311869  1
  Br  Br0  1  0.11399176  0.08614719  0.62054046  1
  Br  Br1  1  0.38600824  0.08614719  0.12054046  1
  Br  Br2  1  0.88600824  0.91385281  0.37945954  1
  Br  Br3  1  0.61399176  0.91385281  0.87945954  1
loop_
_geom_bond_atom_site_label_1
_geom_bond_atom_site_label_2
_geom_bond_distance
_geom_bond_site_symmetry_2
Cu0 Te1 2.530904 1_455
Cu0 Te6 2.536679 1_555
Cu1 Te7 2.530904 1_555
Cu1 Te5 2.536679 1_555
Cu2 Te3 2.530904 1_655
Cu2 Te4 2.536679 1_555
Cu3 Te2 2.530904 1_555
Cu3 Te0 2.536679 1_555
Te0 Te3 2.739235 1_555
Te0 Te2 2.858615 1_455
Te1 Te5 2.739235 1_555
Te1 Te6 2.858615 1_555
Te2 Te4 2.739235 1_555
Te3 Te4 2.858615 1_555
Te5 Te7 2.858615 1_655
Te6 Te7 2.739235 1_555
Br0 Cu3 2.465198 1_555
Br0 Cu2 2.467460 1_445
Br0 Te6 3.540110 1_555
Br1 Cu0 2.465198 1_555
Br1 Cu1 2.467460 1_545
Br1 Te0 3.540110 1_554
Br2 Cu1 2.465198 1_555
Br2 Cu0 2.467460 1_665
Br2 Te4 3.540110 1_555
Br3 Cu2 2.465198 1_555
Br3 Cu3 2.467460 1_565
Br3 Te5 3.540110 1_556
