# generated using pymatgen
data_Li7RuO6
_symmetry_space_group_name_H-M   'P 1'
_cell_length_a   5.25922949
_cell_length_b   5.33445253
_cell_length_c   5.85453242
_cell_angle_alpha   117.23289258
_cell_angle_beta   91.26012887
_cell_angle_gamma   119.30890324
_symmetry_Int_Tables_number   1
_chemical_formula_structural   Li7RuO6
_chemical_formula_sum   'Li7 Ru1 O6'
_cell_volume   120.76871593
_cell_formula_units_Z   1
loop_
 _symmetry_equiv_pos_site_id
 _symmetry_equiv_pos_as_xyz
  1  'x, y, z'
loop_
 _atom_site_type_symbol
 _atom_site_label
 _atom_site_symmetry_multiplicity
 _atom_site_fract_x
 _atom_site_fract_y
 _atom_site_fract_z
 _atom_site_occupancy
  Li  Li0  1  0.23717954  0.76754779  0.62640049  1
  Li  Li1  1  0.30035426  0.68227217  0.04079518  1
  Li  Li2  1  0.49169645  0.58460846  0.34514472  1
  Li  Li3  1  0.47917079  0.37577504  0.63151063  1
  Li  Li4  1  0.70528281  0.36400473  0.99822372  1
  Li  Li5  1  0.76347537  0.25684859  0.36057466  1
  Li  Li6  1  0.91597498  0.11013581  0.61760483  1
  Ru  Ru0  1  0.99829550  0.99519790  0.00442242  1
  O  O0  1  0.07713367  0.45028992  0.23100975  1
  O  O1  1  0.24909577  0.16775824  0.80126968  1
  O  O2  1  0.62603192  0.84368615  0.74394212  1
  O  O3  1  0.37814720  0.14625936  0.23825706  1
  O  O4  1  0.75483957  0.85194347  0.22228498  1
  O  O5  1  0.91832118  0.52767236  0.76055976  1
loop_
_geom_bond_atom_site_label_1
_geom_bond_atom_site_label_2
_geom_bond_distance
_geom_bond_site_symmetry_2
Li0 O1 1.864320 1_565
Li0 O2 1.920911 1_555
Li0 O0 1.966039 1_555
Li0 O5 1.985797 1_455
Li0 Li5 2.314051 1_455
Li0 Li2 2.315302 1_555
Li1 O3 1.999765 1_565
Li1 O0 2.011512 1_555
Li1 O5 2.098372 1_454
Li1 O4 2.133429 1_555
Li1 O1 2.304061 1_554
Li1 Li2 2.396455 1_555
Li1 O2 2.598494 1_554
Li2 O3 1.869039 1_555
Li2 O4 1.875289 1_555
Li2 O0 1.918801 1_555
Li2 O2 1.969434 1_555
Li2 Li6 2.238086 1_565
Li2 Li3 2.387151 1_555
Li2 Li4 2.445178 1_554
Li3 O1 1.852273 1_555
Li3 O3 1.952296 1_555
Li3 O2 1.961270 1_555
Li3 O5 2.022958 1_555
Li3 Li5 2.294828 1_555
Li3 Li4 2.472162 1_555
Li3 Li6 2.561737 1_455
Li4 O5 2.043601 1_555
Li4 O0 2.078742 1_656
Li4 O1 2.120425 1_555
Li4 O4 2.181645 1_556
Li4 O2 2.269878 1_545
Li4 O3 2.434708 1_556
Li4 Li5 2.484607 1_556
Li5 O3 1.829408 1_555
Li5 O0 1.861791 1_655
Li5 O4 1.903887 1_545
Li5 O5 1.975358 1_555
Li5 Li6 2.271446 1_555
Li6 O1 1.845932 1_655
Li6 O2 1.944842 1_545
Li6 O4 1.955827 1_545
Li6 O5 1.981959 1_555
O0 Ru0 1.966766 1_445
O1 Ru0 1.970793 1_446
O2 Ru0 2.000831 1_556
O3 Ru0 1.951513 1_445
O4 Ru0 1.963718 1_555
O5 Ru0 2.030528 1_556
