# generated using pymatgen
data_Mn4Pd8PbAu3
_symmetry_space_group_name_H-M   'P 1'
_cell_length_a   6.92801837
_cell_length_b   6.92801881
_cell_length_c   6.92801899
_cell_angle_alpha   107.34370306
_cell_angle_beta   107.34369807
_cell_angle_gamma   113.81557286
_symmetry_Int_Tables_number   1
_chemical_formula_structural   Mn4Pd8PbAu3
_chemical_formula_sum   'Mn4 Pd8 Pb1 Au3'
_cell_volume   254.86706931
_cell_formula_units_Z   1
loop_
 _symmetry_equiv_pos_site_id
 _symmetry_equiv_pos_as_xyz
  1  'x, y, z'
loop_
 _atom_site_type_symbol
 _atom_site_label
 _atom_site_symmetry_multiplicity
 _atom_site_fract_x
 _atom_site_fract_y
 _atom_site_fract_z
 _atom_site_occupancy
  Mn  Mn0  1  0.26048429  0.26048429  0.52096958  1
  Mn  Mn1  1  0.73951571  0.73951571  0.47903042  1
  Mn  Mn2  1  0.26048429  0.73951571  1.00000000  1
  Mn  Mn3  1  0.73951571  0.26048429  0.00000000  1
  Pd  Pd0  1  0.49860599  0.24676018  0.25184480  1
  Pd  Pd1  1  0.50139401  0.75323982  0.74815520  1
  Pd  Pd2  1  0.99491538  0.24676018  0.74815520  1
  Pd  Pd3  1  0.24676018  0.99491538  0.74815520  1
  Pd  Pd4  1  0.00508462  0.75323982  0.25184480  1
  Pd  Pd5  1  0.75323982  0.00508462  0.25184480  1
  Pd  Pd6  1  0.24676018  0.49860599  0.25184480  1
  Pd  Pd7  1  0.75323982  0.50139401  0.74815520  1
  Pb  Pb0  1  0.00000000  0.00000000  0.00000000  1
  Au  Au0  1  0.50000000  0.00000000  0.50000000  1
  Au  Au1  1  0.00000000  0.50000000  0.50000000  1
  Au  Au2  1  0.50000000  0.50000000  0.00000000  1
loop_
_geom_bond_atom_site_label_1
_geom_bond_atom_site_label_2
_geom_bond_distance
_geom_bond_site_symmetry_2
Mn0 Pd2 2.746985 1_455
Mn0 Pd3 2.746985 1_545
Mn0 Pd7 2.746991 1_555
Mn0 Pd1 2.746991 1_555
Mn0 Pd5 2.839320 1_455
Mn0 Pd4 2.839320 1_545
Mn0 Pd0 2.839331 1_555
Mn0 Pd6 2.839331 1_555
Mn0 Pb0 3.023835 1_555
Mn1 Pd4 2.746985 1_655
Mn1 Pd5 2.746985 1_565
Mn1 Pd6 2.746991 1_555
Mn1 Pd0 2.746991 1_555
Mn1 Pd3 2.839320 1_655
Mn1 Pd2 2.839320 1_565
Mn1 Pd1 2.839331 1_555
Mn1 Pd7 2.839331 1_555
Mn1 Pb0 3.023835 1_666
Mn2 Pd1 2.746985 1_555
Mn2 Pd6 2.746985 1_556
Mn2 Pd5 2.746990 1_566
Mn2 Pd2 2.746990 1_455
Mn2 Pd7 2.839319 1_455
Mn2 Pd0 2.839319 1_566
Mn2 Pd4 2.839319 1_556
Mn2 Pd3 2.839320 1_555
Mn2 Pb0 3.023829 1_566
Mn3 Pd0 2.746985 1_555
Mn3 Pd7 2.746985 1_554
Mn3 Pd3 2.746990 1_544
Mn3 Pd4 2.746990 1_655
Mn3 Pd6 2.839319 1_655
Mn3 Pd1 2.839319 1_544
Mn3 Pd2 2.839319 1_554
Mn3 Pd5 2.839320 1_555
Mn3 Pb0 3.023829 1_655
Pd0 Pd5 2.881118 1_555
Pd0 Pd7 2.881124 1_555
Pd0 Pd3 2.923538 1_544
Pd0 Pd6 2.923549 1_555
Pd1 Pd3 2.881118 1_555
Pd1 Pd6 2.881124 1_555
Pd1 Pd5 2.923538 1_566
Pd1 Pd7 2.923549 1_555
Pd2 Pd7 2.881118 1_555
Pd2 Pd5 2.881124 1_555
Pd2 Pd3 2.923538 1_645
Pd2 Pd6 2.923538 1_656
Pd3 Pd4 2.881124 1_555
Pd4 Pd6 2.881118 1_555
Pd4 Pd5 2.923538 1_465
Pd4 Pd7 2.923538 1_454
Pb0 Pd3 2.785403 1_544
Pb0 Pd5 2.785403 1_455
Pb0 Pd4 2.785403 1_545
Pb0 Pd2 2.785403 1_454
Pb0 Pd0 2.785409 1_555
Pb0 Pd1 2.785409 1_444
Pb0 Pd6 2.785409 1_555
Pb0 Pd7 2.785409 1_444
Au0 Pd1 2.763000 1_545
Au0 Pd0 2.763000 1_555
Au0 Pd2 2.763000 1_555
Au0 Pd4 2.763000 1_545
Au0 Pd7 2.796348 1_555
Au0 Pd6 2.796348 1_545
Au0 Pd3 2.796354 1_545
Au0 Pd5 2.796354 1_555
Au0 Mn3 2.904674 1_556
Au0 Mn2 2.904674 1_544
Au0 Mn0 2.904674 1_555
Au0 Mn1 2.904674 1_545
Au1 Pd7 2.763000 1_455
Au1 Pd6 2.763000 1_555
Au1 Pd3 2.763000 1_555
Au1 Pd5 2.763000 1_455
Au1 Pd1 2.796348 1_555
Au1 Pd0 2.796348 1_455
Au1 Pd2 2.796354 1_455
Au1 Pd4 2.796354 1_555
Au1 Mn2 2.904674 1_555
Au1 Mn3 2.904674 1_455
Au1 Mn0 2.904674 1_555
Au1 Mn1 2.904674 1_455
Au2 Mn1 2.780410 1_555
Au2 Mn0 2.780410 1_554
Au2 Mn2 2.780416 1_554
Au2 Mn3 2.780416 1_555
Au2 Pd4 2.818492 1_655
Au2 Pd2 2.818492 1_454
Au2 Pd5 2.818492 1_565
Au2 Pd3 2.818492 1_544
Au2 Pd6 2.818492 1_555
Au2 Pd7 2.818492 1_554
Au2 Pd0 2.818492 1_555
Au2 Pd1 2.818492 1_554
