# generated using pymatgen
data_Sm2GeRh3
_symmetry_space_group_name_H-M   'P 1'
_cell_length_a   5.12695494
_cell_length_b   5.12695668
_cell_length_c   5.12695664
_cell_angle_alpha   66.57949004
_cell_angle_beta   66.57948381
_cell_angle_gamma   66.57949885
_symmetry_Int_Tables_number   1
_chemical_formula_structural   Sm2GeRh3
_chemical_formula_sum   'Sm2 Ge1 Rh3'
_cell_volume   108.78759677
_cell_formula_units_Z   1
loop_
 _symmetry_equiv_pos_site_id
 _symmetry_equiv_pos_as_xyz
  1  'x, y, z'
loop_
 _atom_site_type_symbol
 _atom_site_label
 _atom_site_symmetry_multiplicity
 _atom_site_fract_x
 _atom_site_fract_y
 _atom_site_fract_z
 _atom_site_occupancy
  Sm  Sm0  1  0.87122336  0.87122336  0.87122336  1
  Sm  Sm1  1  0.12877664  0.12877664  0.12877664  1
  Ge  Ge0  1  0.50000000  0.50000000  0.50000000  1
  Rh  Rh0  1  0.50000000  0.00000000  0.50000000  1
  Rh  Rh1  1  0.50000000  0.50000000  -0.00000000  1
  Rh  Rh2  1  0.00000000  0.50000000  0.50000000  1
loop_
_geom_bond_atom_site_label_1
_geom_bond_atom_site_label_2
_geom_bond_distance
_geom_bond_site_symmetry_2
Sm0 Sm1 3.064177 1_666
Sm0 Sm1 3.372140 1_566
Sm0 Sm1 3.372141 1_665
Sm0 Sm1 3.372141 1_656
Ge0 Rh2 2.563477 1_655
Ge0 Rh2 2.563477 1_555
Ge0 Rh1 2.563478 1_556
Ge0 Rh1 2.563478 1_555
Ge0 Rh0 2.563478 1_565
Ge0 Rh0 2.563478 1_555
Ge0 Sm0 3.280503 1_554
Ge0 Sm1 3.280503 1_556
Ge0 Sm1 3.280503 1_655
Ge0 Sm0 3.280503 1_455
Ge0 Sm1 3.280504 1_565
Ge0 Sm0 3.280504 1_545
Rh0 Rh2 2.814049 1_555
Rh0 Rh2 2.814049 1_645
Rh0 Rh1 2.814049 1_555
Rh0 Rh1 2.814049 1_546
Rh0 Sm0 2.926147 1_545
Rh0 Sm1 2.926147 1_555
Rh0 Sm1 3.204085 1_655
Rh0 Sm0 3.204085 1_445
Rh0 Sm1 3.204086 1_556
Rh0 Sm0 3.204086 1_544
Rh1 Rh2 2.814048 1_555
Rh1 Rh2 2.814048 1_654
Rh1 Sm0 2.926147 1_554
Rh1 Sm1 2.926147 1_555
Rh1 Sm1 3.204086 1_655
Rh1 Sm0 3.204086 1_454
Rh1 Sm1 3.204086 1_565
Rh1 Sm0 3.204086 1_544
Rh2 Sm0 2.926148 1_455
Rh2 Sm1 2.926148 1_555
Rh2 Sm0 3.204086 1_445
Rh2 Sm1 3.204086 1_565
Rh2 Sm1 3.204086 1_556
Rh2 Sm0 3.204086 1_454
