# generated using pymatgen
data_HfTa2Nb7Si6
_symmetry_space_group_name_H-M   'P 1'
_cell_length_a   7.59865748
_cell_length_b   7.59865737
_cell_length_c   7.57335218
_cell_angle_alpha   128.41456647
_cell_angle_beta   128.41456297
_cell_angle_gamma   75.86453915
_symmetry_Int_Tables_number   1
_chemical_formula_structural   HfTa2Nb7Si6
_chemical_formula_sum   'Hf1 Ta2 Nb7 Si6'
_cell_volume   261.19487852
_cell_formula_units_Z   1
loop_
 _symmetry_equiv_pos_site_id
 _symmetry_equiv_pos_as_xyz
  1  'x, y, z'
loop_
 _atom_site_type_symbol
 _atom_site_label
 _atom_site_symmetry_multiplicity
 _atom_site_fract_x
 _atom_site_fract_y
 _atom_site_fract_z
 _atom_site_occupancy
  Hf  Hf0  1  0.81656161  0.31656161  0.82803910  1
  Ta  Ta0  1  0.99967102  0.99863330  0.00098128  1
  Ta  Ta1  1  0.49863330  0.49967102  0.00098128  1
  Nb  Nb0  1  0.01871282  0.18423831  0.50010922  1
  Nb  Nb1  1  0.68423831  0.51871282  0.50010922  1
  Nb  Nb2  1  0.51980950  0.01980950  0.83593836  1
  Nb  Nb3  1  0.18914894  0.68914894  0.17058028  1
  Nb  Nb4  1  0.98110077  0.81386831  0.49964572  1
  Nb  Nb5  1  0.31386831  0.48110077  0.49964572  1
  Nb  Nb6  1  0.47716580  0.97716580  0.16093998  1
  Si  Si0  1  0.74998129  0.75347872  0.00179421  1
  Si  Si1  1  0.25347872  0.24998129  0.00179421  1
  Si  Si2  1  0.37102757  0.12909954  0.50072115  1
  Si  Si3  1  0.62909954  0.87102757  0.50072115  1
  Si  Si4  1  0.87082486  0.37082486  0.24234154  1
  Si  Si5  1  0.12667565  0.62667565  0.75565458  1
loop_
_geom_bond_atom_site_label_1
_geom_bond_atom_site_label_2
_geom_bond_distance
_geom_bond_site_symmetry_2
Hf0 Si4 2.655657 1_556
Hf0 Si3 2.678392 1_545
Hf0 Si2 2.678392 1_555
Hf0 Si0 2.754580 1_556
Hf0 Si1 2.754580 1_656
Hf0 Nb3 2.902015 1_656
Hf0 Ta1 3.084356 1_556
Hf0 Ta0 3.084356 1_546
Hf0 Nb6 3.113215 1_545
Hf0 Nb0 3.228254 1_655
Hf0 Nb1 3.228254 1_555
Nb0 Si2 2.604165 1_555
Nb0 Si5 2.647575 1_555
Nb0 Si4 2.649361 1_455
Nb0 Si0 2.731902 1_445
Nb0 Si1 2.742519 1_556
Nb0 Nb4 2.895065 1_445
Nb0 Ta0 3.015605 1_445
Nb0 Ta1 3.035304 1_556
Nb0 Nb1 3.124741 1_455
Nb0 Nb6 3.318407 1_445
Nb1 Si3 2.604165 1_555
Nb1 Si5 2.647575 1_655
Nb1 Si4 2.649360 1_555
Nb1 Si1 2.731902 1_555
Nb1 Si0 2.742519 1_556
Nb1 Nb5 2.895065 1_555
Nb1 Ta1 3.015605 1_555
Nb1 Ta0 3.035304 1_556
Nb1 Nb6 3.318407 1_545
Nb2 Si4 2.602472 1_556
Nb2 Si3 2.647184 1_545
Nb2 Si2 2.647184 1_555
Nb2 Si1 2.726240 1_556
Nb2 Si0 2.726241 1_546
Nb2 Nb6 2.881283 1_546
Nb2 Ta1 3.030409 1_556
Nb2 Ta0 3.030409 1_546
Nb2 Nb3 3.103847 1_545
Nb2 Nb5 3.303343 1_545
Nb2 Nb4 3.303344 1_445
Nb3 Si5 2.593799 1_554
Nb3 Si2 2.629213 1_565
Nb3 Si3 2.629213 1_555
Nb3 Si1 2.772695 1_555
Nb3 Si0 2.772695 1_455
Nb3 Ta1 3.009121 1_555
Nb3 Ta0 3.009121 1_455
Nb3 Nb4 3.291994 1_455
Nb3 Nb5 3.291994 1_555
Nb4 Si3 2.607332 1_555
Nb4 Si5 2.645644 1_655
Nb4 Si4 2.651288 1_555
Nb4 Si0 2.743304 1_555
Nb4 Si1 2.763261 1_666
Nb4 Ta0 3.035353 1_556
Nb4 Ta1 3.044301 1_555
Nb4 Nb5 3.108794 1_655
Nb5 Si2 2.607332 1_555
Nb5 Si5 2.645644 1_555
Nb5 Si4 2.651288 1_455
Nb5 Si1 2.743304 1_555
Nb5 Si0 2.763261 1_556
Nb5 Ta1 3.035353 1_556
Nb5 Ta0 3.044301 1_445
Nb6 Si5 2.598932 1_554
Nb6 Si2 2.652833 1_565
Nb6 Si3 2.652833 1_555
Nb6 Si0 2.734464 1_555
Nb6 Si1 2.734464 1_565
Nb6 Ta1 3.025420 1_555
Nb6 Ta0 3.025420 1_455
Si0 Ta0 2.970703 1_555
Si0 Ta1 3.022749 1_555
Si1 Ta1 2.970703 1_555
Si1 Ta0 3.022749 1_445
Si2 Si3 2.410970 1_545
Si2 Ta0 2.588731 1_445
Si2 Ta1 2.595010 1_556
Si3 Ta1 2.588730 1_555
Si3 Ta0 2.595010 1_556
Si4 Si5 2.394568 1_655
Si4 Ta0 2.597221 1_545
Si4 Ta1 2.597221 1_555
Si5 Ta0 2.596528 1_456
Si5 Ta1 2.596528 1_556
