# generated using pymatgen
data_Cs2FeMoS4
_symmetry_space_group_name_H-M   'P 1'
_cell_length_a   7.58907507
_cell_length_b   7.58906000
_cell_length_c   7.58907454
_cell_angle_alpha   137.00566786
_cell_angle_beta   122.90142186
_cell_angle_gamma   74.06089771
_symmetry_Int_Tables_number   1
_chemical_formula_structural   Cs2FeMoS4
_chemical_formula_sum   'Cs2 Fe1 Mo1 S4'
_cell_volume   244.43952611
_cell_formula_units_Z   1
loop_
 _symmetry_equiv_pos_site_id
 _symmetry_equiv_pos_as_xyz
  1  'x, y, z'
loop_
 _atom_site_type_symbol
 _atom_site_label
 _atom_site_symmetry_multiplicity
 _atom_site_fract_x
 _atom_site_fract_y
 _atom_site_fract_z
 _atom_site_occupancy
  Cs  Cs0  1  0.32850174  0.82761079  0.49910906  1
  Cs  Cs1  1  0.67149826  0.17060632  0.49910806  1
  Fe  Fe0  1  1.00000000  0.25102454  0.25102454  1
  Mo  Mo0  1  0.00000000  0.74881772  0.74881772  1
  S  S0  1  0.24727575  0.49811370  0.74538944  1
  S  S1  1  0.75272425  0.49811370  0.25083795  1
  S  S2  1  0.14819456  0.15105168  0.00285712  1
  S  S3  1  0.85180544  0.85466256  0.00285612  1
loop_
_geom_bond_atom_site_label_1
_geom_bond_atom_site_label_2
_geom_bond_distance
_geom_bond_site_symmetry_2
Cs0 S2 3.520216 1_555
Cs0 S2 3.553015 1_566
Cs0 S3 3.637961 1_556
Cs0 S3 3.637969 1_455
Cs0 S1 3.922040 1_566
Cs0 S0 3.922040 1_565
Cs0 S0 3.929894 1_554
Cs0 S1 3.929894 1_555
Cs0 Cs1 4.156069 1_565
Cs1 S3 3.520230 1_545
Cs1 S3 3.553009 1_556
Cs1 S2 3.637964 1_656
Cs1 S2 3.637965 1_555
Cs1 S1 3.922054 1_556
Cs1 S0 3.922054 1_555
Cs1 S0 3.929880 1_544
Cs1 S1 3.929880 1_545
Fe0 S0 2.259684 1_655
Fe0 S1 2.259684 1_555
Fe0 S3 2.264885 1_545
Fe0 S2 2.264895 1_655
Fe0 Mo0 2.768779 1_655
Fe0 Mo0 2.793328 1_644
Mo0 S1 2.271969 1_455
Mo0 S0 2.271969 1_555
Mo0 S2 2.284939 1_566
Mo0 S3 2.284940 1_456
