# generated using pymatgen
data_Ag4TeSe11I4
_symmetry_space_group_name_H-M   'P 1'
_cell_length_a   4.87601889
_cell_length_b   8.32171157
_cell_length_c   15.10127425
_cell_angle_alpha   90.00000000
_cell_angle_beta   90.00000000
_cell_angle_gamma   90.19062133
_symmetry_Int_Tables_number   1
_chemical_formula_structural   Ag4TeSe11I4
_chemical_formula_sum   'Ag4 Te1 Se11 I4'
_cell_volume   612.75833856
_cell_formula_units_Z   1
loop_
 _symmetry_equiv_pos_site_id
 _symmetry_equiv_pos_as_xyz
  1  'x, y, z'
loop_
 _atom_site_type_symbol
 _atom_site_label
 _atom_site_symmetry_multiplicity
 _atom_site_fract_x
 _atom_site_fract_y
 _atom_site_fract_z
 _atom_site_occupancy
  Ag  Ag0  1  0.69994192  0.24239502  0.74474373  1
  Ag  Ag1  1  0.30575302  0.75195160  0.25076284  1
  Ag  Ag2  1  0.30575302  0.75195160  0.74923716  1
  Ag  Ag3  1  0.69994192  0.24239502  0.25525627  1
  Te  Te0  1  0.63389096  0.28057813  0.00000000  1
  Se  Se0  1  0.37989366  0.37041373  0.61896415  1
  Se  Se1  1  0.61231662  0.87390533  0.88005437  1
  Se  Se2  1  0.61231662  0.87390533  0.11994563  1
  Se  Se3  1  0.38729689  0.74819901  0.00000000  1
  Se  Se4  1  0.61479536  0.62623134  0.61904950  1
  Se  Se5  1  0.37989366  0.37041373  0.38103585  1
  Se  Se6  1  0.60262114  0.24134508  0.50000000  1
  Se  Se7  1  0.39169654  0.75570947  0.50000000  1
  Se  Se8  1  0.61479536  0.62623134  0.38095050  1
  Se  Se9  1  0.38297199  0.13014000  0.12434487  1
  Se  Se10  1  0.38297199  0.13014000  0.87565513  1
  I  I0  1  0.99777359  0.49786461  0.17099099  1
  I  I1  1  0.99880207  0.99418202  0.33806336  1
  I  I2  1  0.99880207  0.99418202  0.66193664  1
  I  I3  1  0.99777359  0.49786461  0.82900901  1
loop_
_geom_bond_atom_site_label_1
_geom_bond_atom_site_label_2
_geom_bond_distance
_geom_bond_site_symmetry_2
Ag0 Se10 2.675820 1_555
Ag0 Se0 2.681267 1_555
Ag0 I2 2.823802 1_545
Ag0 I3 2.868338 1_555
Ag1 Se2 2.675245 1_555
Ag1 Se8 2.690898 1_555
Ag1 I1 2.839289 1_455
Ag1 I0 2.855882 1_455
Ag2 Se1 2.675245 1_555
Ag2 Se4 2.690898 1_555
Ag2 I2 2.839289 1_455
Ag2 I3 2.855882 1_455
Ag3 Se9 2.675820 1_555
Ag3 Se5 2.681267 1_555
Ag3 I1 2.823802 1_545
Ag3 I0 2.868338 1_555
Se0 Se6 2.359722 1_555
Se0 Se4 2.414052 1_555
Se1 Se3 2.360390 1_556
Se1 Se10 2.411970 1_565
Se2 Se3 2.360390 1_555
Se2 Se9 2.411970 1_565
Se4 Se7 2.363097 1_555
Se5 Se6 2.359722 1_555
Se5 Se8 2.414052 1_555
Se7 Se8 2.363097 1_555
Se9 Te0 2.565149 1_555
Se10 Te0 2.565149 1_556
I0 Te0 3.614419 1_555
I0 Se9 3.664207 1_655
I0 Se2 3.736092 1_555
I0 Se3 3.819493 1_655
I0 Se5 3.830259 1_655
I0 Se8 3.833362 1_555
I1 Se8 3.641839 1_555
I1 Se7 3.689702 1_655
I1 Se5 3.692944 1_665
I1 Se6 3.737508 1_565
I2 Se4 3.641839 1_555
I2 Se7 3.689702 1_655
I2 Se0 3.692944 1_665
I2 Se6 3.737508 1_565
I3 Te0 3.614419 1_556
I3 Se10 3.664207 1_655
I3 Se1 3.736092 1_555
I3 Se3 3.819493 1_656
I3 Se0 3.830259 1_655
I3 Se4 3.833362 1_555
