# generated using pymatgen
data_Rb4TaVBr12
_symmetry_space_group_name_H-M   'P 1'
_cell_length_a   7.42667190
_cell_length_b   7.42667190
_cell_length_c   10.91985480
_cell_angle_alpha   90.00000000
_cell_angle_beta   90.00000000
_cell_angle_gamma   90.00000000
_symmetry_Int_Tables_number   1
_chemical_formula_structural   Rb4TaVBr12
_chemical_formula_sum   'Rb4 Ta1 V1 Br12'
_cell_volume   602.28956630
_cell_formula_units_Z   1
loop_
 _symmetry_equiv_pos_site_id
 _symmetry_equiv_pos_as_xyz
  1  'x, y, z'
loop_
 _atom_site_type_symbol
 _atom_site_label
 _atom_site_symmetry_multiplicity
 _atom_site_fract_x
 _atom_site_fract_y
 _atom_site_fract_z
 _atom_site_occupancy
  Rb  Rb0  1  0.50000000  0.00000000  0.78107286  1
  Rb  Rb1  1  0.00000000  0.50000000  0.21892714  1
  Rb  Rb2  1  0.50000000  0.00000000  0.21892714  1
  Rb  Rb3  1  0.00000000  0.50000000  0.78107286  1
  Ta  Ta0  1  0.50000000  0.50000000  0.50000000  1
  V  V0  1  0.00000000  0.00000000  0.00000000  1
  Br  Br0  1  0.00000000  0.00000000  0.76170915  1
  Br  Br1  1  0.50000000  0.50000000  0.26741087  1
  Br  Br2  1  0.73962216  0.73962216  0.50000000  1
  Br  Br3  1  0.24168563  0.24168563  0.00000000  1
  Br  Br4  1  0.73962216  0.26037784  0.50000000  1
  Br  Br5  1  0.24168563  0.75831437  0.00000000  1
  Br  Br6  1  0.00000000  0.00000000  0.23829085  1
  Br  Br7  1  0.50000000  0.50000000  0.73258913  1
  Br  Br8  1  0.26037784  0.26037784  0.50000000  1
  Br  Br9  1  0.75831437  0.75831437  0.00000000  1
  Br  Br10  1  0.26037784  0.73962216  0.50000000  1
  Br  Br11  1  0.75831437  0.24168563  0.00000000  1
loop_
_geom_bond_atom_site_label_1
_geom_bond_atom_site_label_2
_geom_bond_distance
_geom_bond_site_symmetry_2
Br0 V0 2.602102 1_556
Br0 Rb0 3.719351 1_455
Br0 Rb0 3.719351 1_555
Br0 Rb3 3.719351 1_545
Br0 Rb3 3.719351 1_555
Br1 Ta0 2.539840 1_555
Br1 Rb1 3.750889 1_655
Br1 Rb2 3.750889 1_565
Br1 Rb1 3.750889 1_555
Br1 Rb2 3.750889 1_555
Br2 Ta0 2.516728 1_555
Br2 Rb0 4.040639 1_565
Br2 Rb3 4.040639 1_655
Br2 Rb2 4.040639 1_565
Br2 Rb1 4.040639 1_655
Br3 V0 2.538400 1_555
Br3 Rb1 3.552081 1_555
Br3 Rb2 3.552081 1_555
Br3 Rb0 3.552081 1_554
Br3 Rb3 3.552081 1_554
Br4 Ta0 2.516728 1_555
Br4 Rb0 4.040639 1_555
Br4 Rb3 4.040639 1_655
Br4 Rb2 4.040639 1_555
Br4 Rb1 4.040639 1_655
Br5 V0 2.538400 1_565
Br5 Rb1 3.552081 1_555
Br5 Rb3 3.552081 1_554
Br5 Rb2 3.552081 1_565
Br5 Rb0 3.552081 1_564
Br6 V0 2.602102 1_555
Br6 Rb1 3.719351 1_555
Br6 Rb2 3.719351 1_555
Br6 Rb2 3.719351 1_455
Br6 Rb1 3.719351 1_545
Br7 Ta0 2.539840 1_555
Br7 Rb0 3.750889 1_565
Br7 Rb3 3.750889 1_655
Br7 Rb3 3.750889 1_555
Br7 Rb0 3.750889 1_555
Br8 Ta0 2.516728 1_555
Br8 Rb0 4.040639 1_555
Br8 Rb3 4.040639 1_555
Br8 Rb1 4.040639 1_555
Br8 Rb2 4.040639 1_555
Br9 V0 2.538400 1_665
Br9 Rb1 3.552081 1_655
Br9 Rb2 3.552081 1_565
Br9 Rb0 3.552081 1_564
Br9 Rb3 3.552081 1_654
Br10 Ta0 2.516728 1_555
Br10 Rb3 4.040639 1_555
Br10 Rb0 4.040639 1_565
Br10 Rb1 4.040639 1_555
Br10 Rb2 4.040639 1_565
Br11 V0 2.538400 1_655
Br11 Rb2 3.552081 1_555
Br11 Rb1 3.552081 1_655
Br11 Rb0 3.552081 1_554
Br11 Rb3 3.552081 1_654
