# generated using pymatgen
data_Ba4Li3Cu3P8
_symmetry_space_group_name_H-M   'P 1'
_cell_length_a   8.49385664
_cell_length_b   8.49385676
_cell_length_c   8.51099468
_cell_angle_alpha   136.85504716
_cell_angle_beta   112.16673872
_cell_angle_gamma   83.73294786
_symmetry_Int_Tables_number   1
_chemical_formula_structural   Ba4Li3Cu3P8
_chemical_formula_sum   'Ba4 Li3 Cu3 P8'
_cell_volume   375.24999562
_cell_formula_units_Z   1
loop_
 _symmetry_equiv_pos_site_id
 _symmetry_equiv_pos_as_xyz
  1  'x, y, z'
loop_
 _atom_site_type_symbol
 _atom_site_label
 _atom_site_symmetry_multiplicity
 _atom_site_fract_x
 _atom_site_fract_y
 _atom_site_fract_z
 _atom_site_occupancy
  Ba  Ba0  1  0.09206558  0.89407177  0.20224718  1
  Ba  Ba1  1  0.90884681  0.10287796  0.79325078  1
  Ba  Ba2  1  0.30962918  0.61559604  0.70674922  1
  Ba  Ba3  1  0.69182459  0.38981939  0.29775282  1
  Li  Li0  1  0.50120495  0.75120495  0.25000000  1
  Li  Li1  1  0.50202868  0.25202868  0.75000000  1
  Li  Li2  1  0.27535626  0.02535626  0.75000000  1
  Cu  Cu0  1  0.72275119  0.47275119  0.75000000  1
  Cu  Cu1  1  0.27781563  0.52781563  0.25000000  1
  Cu  Cu2  1  0.72090687  0.97090687  0.25000000  1
  P  P0  1  0.49394497  0.13476581  0.36777042  1
  P  P1  1  0.51774909  0.86023130  0.63045220  1
  P  P2  1  0.22977810  0.38729589  0.86954780  1
  P  P3  1  0.76699540  0.62617455  0.13222958  1
  P  P4  1  0.96414739  0.33815644  0.62983436  1
  P  P5  1  0.02401535  0.64776022  0.35514234  1
  P  P6  1  0.70832208  0.83431303  0.87016564  1
  P  P7  1  0.29261788  0.16887301  0.14485766  1
loop_
_geom_bond_atom_site_label_1
_geom_bond_atom_site_label_2
_geom_bond_distance
_geom_bond_site_symmetry_2
Ba0 P6 3.191553 1_454
Ba0 Cu2 3.265027 1_455
Ba0 Cu0 3.271305 1_454
Ba0 P4 3.272612 1_465
Ba0 P4 3.281479 1_454
Ba0 P5 3.347962 1_555
Ba0 P3 3.362727 1_455
Ba0 P0 3.392393 1_565
Ba0 P2 3.395387 1_554
Ba0 P7 3.427550 1_565
Ba0 Li0 3.528136 1_555
Ba0 Li1 3.532835 1_565
Ba0 P2 3.537129 1_565
Ba0 Cu1 3.552723 1_555
Ba0 Li2 3.566078 1_565
Ba1 Li2 3.213073 1_655
Ba1 P5 3.226043 1_656
Ba1 P7 3.238078 1_656
Ba1 P5 3.270626 1_645
Ba1 Cu1 3.280635 1_656
Ba1 P4 3.301913 1_555
Ba1 P1 3.325220 1_545
Ba1 P2 3.391368 1_655
Ba1 P3 3.493768 1_545
Ba1 P3 3.503239 1_556
Ba1 Li0 3.508939 1_545
Ba1 P6 3.521632 1_545
Ba1 Cu2 3.527118 1_545
Ba1 Li1 3.527825 1_555
Ba1 Cu0 3.559256 1_555
Ba2 Li2 3.213073 1_565
Ba2 P7 3.226036 1_555
Ba2 P5 3.238085 1_555
Ba2 P7 3.270631 1_566
Ba2 Cu1 3.280629 1_555
Ba2 P6 3.301897 1_555
Ba2 P2 3.325238 1_555
Ba2 P1 3.391369 1_555
Ba2 P0 3.493769 1_566
Ba2 P0 3.503228 1_555
Ba2 Li0 3.508939 1_556
Ba2 P4 3.521646 1_455
Ba2 Cu2 3.527109 1_556
Ba2 Li1 3.527819 1_555
Ba2 Cu0 3.559240 1_555
Ba3 P4 3.191559 1_555
Ba3 Cu2 3.265036 1_545
Ba3 Cu0 3.271310 1_555
Ba3 P6 3.272617 1_544
Ba3 P6 3.281478 1_555
Ba3 P7 3.347966 1_555
Ba3 P0 3.362734 1_555
Ba3 P3 3.392385 1_555
Ba3 P1 3.395382 1_555
Ba3 P5 3.427545 1_655
Ba3 Li0 3.528129 1_555
Ba3 Li1 3.532830 1_554
Ba3 P1 3.537130 1_544
Ba3 Cu1 3.552721 1_555
Ba3 Li2 3.566078 1_554
Li0 P1 2.582924 1_555
Li0 P2 2.582932 1_554
Li0 P3 2.619161 1_555
Li0 P0 2.619161 1_565
Li0 Li1 3.126181 1_554
Li0 Li1 3.126181 1_565
Li1 P0 2.588029 1_555
Li1 P3 2.588030 1_556
Li1 P1 2.681839 1_545
Li1 P2 2.681847 1_555
Li1 Li2 2.867585 1_555
Li2 P2 2.471662 1_555
Li2 P1 2.471668 1_545
Li2 P7 2.547645 1_556
Li2 P5 2.547645 1_545
Cu0 P3 2.328203 1_556
Cu0 P0 2.328203 1_555
Cu0 P4 2.433409 1_555
Cu0 P6 2.433409 1_555
Cu0 Li1 2.792314 1_555
Cu1 P2 2.354900 1_554
Cu1 P1 2.354907 1_555
Cu1 P5 2.476245 1_555
Cu1 P7 2.476245 1_555
Cu1 Li0 2.826051 1_555
Cu2 P0 2.344084 1_565
Cu2 P3 2.344084 1_555
Cu2 P6 2.470105 1_554
Cu2 P4 2.470105 1_565
Cu2 Li0 2.779402 1_555
P0 P7 2.203017 1_555
P1 P6 2.217344 1_555
P2 P4 2.217341 1_455
P3 P5 2.203017 1_655
