# generated using pymatgen
data_LiSc2B2RuRh4
_symmetry_space_group_name_H-M   'P 1'
_cell_length_a   18.50088513
_cell_length_b   18.50088513
_cell_length_c   6.02274645
_cell_angle_alpha   90.00000000
_cell_angle_beta   90.00000000
_cell_angle_gamma   90.00000000
_symmetry_Int_Tables_number   1
_chemical_formula_structural   LiSc2B2RuRh4
_chemical_formula_sum   'Li16 Sc32 B32 Ru16 Rh64'
_cell_volume   2061.48222077
_cell_formula_units_Z   16
loop_
 _symmetry_equiv_pos_site_id
 _symmetry_equiv_pos_as_xyz
  1  'x, y, z'
loop_
 _atom_site_type_symbol
 _atom_site_label
 _atom_site_symmetry_multiplicity
 _atom_site_fract_x
 _atom_site_fract_y
 _atom_site_fract_z
 _atom_site_occupancy
  Li  Li0_0  1  0.25000000  0.25000000  0.00000000  1
  Li  Li0_1  1  0.25000000  0.25000000  0.50000000  1
  Li  Li0_2  1  0.25000000  0.75000000  0.00000000  1
  Li  Li0_3  1  0.25000000  0.75000000  0.50000000  1
  Li  Li0_4  1  0.75000000  0.25000000  0.00000000  1
  Li  Li0_5  1  0.75000000  0.25000000  0.50000000  1
  Li  Li0_6  1  0.75000000  0.75000000  0.00000000  1
  Li  Li0_7  1  0.75000000  0.75000000  0.50000000  1
  Li  Li1_0  1  0.00000000  0.00000000  0.00000000  1
  Li  Li1_1  1  0.00000000  0.00000000  0.50000000  1
  Li  Li1_2  1  0.00000000  0.50000000  0.00000000  1
  Li  Li1_3  1  0.00000000  0.50000000  0.50000000  1
  Li  Li1_4  1  0.50000000  0.00000000  0.00000000  1
  Li  Li1_5  1  0.50000000  0.00000000  0.50000000  1
  Li  Li1_6  1  0.50000000  0.50000000  0.00000000  1
  Li  Li1_7  1  0.50000000  0.50000000  0.50000000  1
  Sc  Sc0_0  1  0.33673636  0.08673636  0.00000000  1
  Sc  Sc0_1  1  0.33673636  0.08673636  0.50000000  1
  Sc  Sc0_2  1  0.33673636  0.58673636  0.00000000  1
  Sc  Sc0_3  1  0.33673636  0.58673636  0.50000000  1
  Sc  Sc0_4  1  0.83673636  0.08673636  0.00000000  1
  Sc  Sc0_5  1  0.83673636  0.08673636  0.50000000  1
  Sc  Sc0_6  1  0.83673636  0.58673636  0.00000000  1
  Sc  Sc0_7  1  0.83673636  0.58673636  0.50000000  1
  Sc  Sc1_0  1  0.16326364  0.41326364  0.00000000  1
  Sc  Sc1_1  1  0.16326364  0.41326364  0.50000000  1
  Sc  Sc1_2  1  0.16326364  0.91326364  0.00000000  1
  Sc  Sc1_3  1  0.16326364  0.91326364  0.50000000  1
  Sc  Sc1_4  1  0.66326364  0.41326364  0.00000000  1
  Sc  Sc1_5  1  0.66326364  0.41326364  0.50000000  1
  Sc  Sc1_6  1  0.66326364  0.91326364  0.00000000  1
  Sc  Sc1_7  1  0.66326364  0.91326364  0.50000000  1
  Sc  Sc2_0  1  0.08673636  0.16326364  0.00000000  1
  Sc  Sc2_1  1  0.08673636  0.16326364  0.50000000  1
  Sc  Sc2_2  1  0.08673636  0.66326364  0.00000000  1
  Sc  Sc2_3  1  0.08673636  0.66326364  0.50000000  1
  Sc  Sc2_4  1  0.58673636  0.16326364  0.00000000  1
  Sc  Sc2_5  1  0.58673636  0.16326364  0.50000000  1
  Sc  Sc2_6  1  0.58673636  0.66326364  0.00000000  1
  Sc  Sc2_7  1  0.58673636  0.66326364  0.50000000  1
  Sc  Sc3_0  1  0.41326364  0.33673636  0.00000000  1
  Sc  Sc3_1  1  0.41326364  0.33673636  0.50000000  1
  Sc  Sc3_2  1  0.41326364  0.83673636  0.00000000  1
  Sc  Sc3_3  1  0.41326364  0.83673636  0.50000000  1
  Sc  Sc3_4  1  0.91326364  0.33673636  0.00000000  1
  Sc  Sc3_5  1  0.91326364  0.33673636  0.50000000  1
  Sc  Sc3_6  1  0.91326364  0.83673636  0.00000000  1
  Sc  Sc3_7  1  0.91326364  0.83673636  0.50000000  1
  B  B0_0  1  0.06263669  0.31263669  0.00000000  1
  B  B0_1  1  0.06263669  0.31263669  0.50000000  1
  B  B0_2  1  0.06263669  0.81263669  0.00000000  1
  B  B0_3  1  0.06263669  0.81263669  0.50000000  1
  B  B0_4  1  0.56263669  0.31263669  0.00000000  1
  B  B0_5  1  0.56263669  0.31263669  0.50000000  1
  B  B0_6  1  0.56263669  0.81263669  0.00000000  1
  B  B0_7  1  0.56263669  0.81263669  0.50000000  1
  B  B1_0  1  0.43736331  0.18736331  0.00000000  1
  B  B1_1  1  0.43736331  0.18736331  0.50000000  1
  B  B1_2  1  0.43736331  0.68736331  0.00000000  1
  B  B1_3  1  0.43736331  0.68736331  0.50000000  1
  B  B1_4  1  0.93736331  0.18736331  0.00000000  1
  B  B1_5  1  0.93736331  0.18736331  0.50000000  1
  B  B1_6  1  0.93736331  0.68736331  0.00000000  1
  B  B1_7  1  0.93736331  0.68736331  0.50000000  1
  B  B2_0  1  0.31263669  0.43736331  0.00000000  1
  B  B2_1  1  0.31263669  0.43736331  0.50000000  1
  B  B2_2  1  0.31263669  0.93736331  0.00000000  1
  B  B2_3  1  0.31263669  0.93736331  0.50000000  1
  B  B2_4  1  0.81263669  0.43736331  0.00000000  1
  B  B2_5  1  0.81263669  0.43736331  0.50000000  1
  B  B2_6  1  0.81263669  0.93736331  0.00000000  1
  B  B2_7  1  0.81263669  0.93736331  0.50000000  1
  B  B3_0  1  0.18736331  0.06263669  0.00000000  1
  B  B3_1  1  0.18736331  0.06263669  0.50000000  1
  B  B3_2  1  0.18736331  0.56263669  0.00000000  1
  B  B3_3  1  0.18736331  0.56263669  0.50000000  1
  B  B3_4  1  0.68736331  0.06263669  0.00000000  1
  B  B3_5  1  0.68736331  0.06263669  0.50000000  1
  B  B3_6  1  0.68736331  0.56263669  0.00000000  1
  B  B3_7  1  0.68736331  0.56263669  0.50000000  1
  Ru  Ru0_0  1  0.25000000  0.00000000  0.25000000  1
  Ru  Ru0_1  1  0.25000000  0.00000000  0.75000000  1
  Ru  Ru0_2  1  0.25000000  0.50000000  0.25000000  1
  Ru  Ru0_3  1  0.25000000  0.50000000  0.75000000  1
  Ru  Ru0_4  1  0.75000000  0.00000000  0.25000000  1
  Ru  Ru0_5  1  0.75000000  0.00000000  0.75000000  1
  Ru  Ru0_6  1  0.75000000  0.50000000  0.25000000  1
  Ru  Ru0_7  1  0.75000000  0.50000000  0.75000000  1
  Ru  Ru1_0  1  0.00000000  0.25000000  0.25000000  1
  Ru  Ru1_1  1  0.00000000  0.25000000  0.75000000  1
  Ru  Ru1_2  1  0.00000000  0.75000000  0.25000000  1
  Ru  Ru1_3  1  0.00000000  0.75000000  0.75000000  1
  Ru  Ru1_4  1  0.50000000  0.25000000  0.25000000  1
  Ru  Ru1_5  1  0.50000000  0.25000000  0.75000000  1
  Ru  Ru1_6  1  0.50000000  0.75000000  0.25000000  1
  Ru  Ru1_7  1  0.50000000  0.75000000  0.75000000  1
  Rh  Rh0_0  1  0.28602210  0.35653143  0.25000000  1
  Rh  Rh0_1  1  0.28602210  0.35653143  0.75000000  1
  Rh  Rh0_2  1  0.28602210  0.85653143  0.25000000  1
  Rh  Rh0_3  1  0.28602210  0.85653143  0.75000000  1
  Rh  Rh0_4  1  0.78602210  0.35653143  0.25000000  1
  Rh  Rh0_5  1  0.78602210  0.35653143  0.75000000  1
  Rh  Rh0_6  1  0.78602210  0.85653143  0.25000000  1
  Rh  Rh0_7  1  0.78602210  0.85653143  0.75000000  1
  Rh  Rh1_0  1  0.21397790  0.14346857  0.25000000  1
  Rh  Rh1_1  1  0.21397790  0.14346857  0.75000000  1
  Rh  Rh1_2  1  0.21397790  0.64346857  0.25000000  1
  Rh  Rh1_3  1  0.21397790  0.64346857  0.75000000  1
  Rh  Rh1_4  1  0.71397790  0.14346857  0.25000000  1
  Rh  Rh1_5  1  0.71397790  0.14346857  0.75000000  1
  Rh  Rh1_6  1  0.71397790  0.64346857  0.25000000  1
  Rh  Rh1_7  1  0.71397790  0.64346857  0.75000000  1
  Rh  Rh2_0  1  0.03602210  0.39346857  0.25000000  1
  Rh  Rh2_1  1  0.03602210  0.39346857  0.75000000  1
  Rh  Rh2_2  1  0.03602210  0.89346857  0.25000000  1
  Rh  Rh2_3  1  0.03602210  0.89346857  0.75000000  1
  Rh  Rh2_4  1  0.53602210  0.39346857  0.25000000  1
  Rh  Rh2_5  1  0.53602210  0.39346857  0.75000000  1
  Rh  Rh2_6  1  0.53602210  0.89346857  0.25000000  1
  Rh  Rh2_7  1  0.53602210  0.89346857  0.75000000  1
  Rh  Rh3_0  1  0.46397790  0.10653143  0.25000000  1
  Rh  Rh3_1  1  0.46397790  0.10653143  0.75000000  1
  Rh  Rh3_2  1  0.46397790  0.60653143  0.25000000  1
  Rh  Rh3_3  1  0.46397790  0.60653143  0.75000000  1
  Rh  Rh3_4  1  0.96397790  0.10653143  0.25000000  1
  Rh  Rh3_5  1  0.96397790  0.10653143  0.75000000  1
  Rh  Rh3_6  1  0.96397790  0.60653143  0.25000000  1
  Rh  Rh3_7  1  0.96397790  0.60653143  0.75000000  1
  Rh  Rh4_0  1  0.14346857  0.28602210  0.25000000  1
  Rh  Rh4_1  1  0.14346857  0.28602210  0.75000000  1
  Rh  Rh4_2  1  0.14346857  0.78602210  0.25000000  1
  Rh  Rh4_3  1  0.14346857  0.78602210  0.75000000  1
  Rh  Rh4_4  1  0.64346857  0.28602210  0.25000000  1
  Rh  Rh4_5  1  0.64346857  0.28602210  0.75000000  1
  Rh  Rh4_6  1  0.64346857  0.78602210  0.25000000  1
  Rh  Rh4_7  1  0.64346857  0.78602210  0.75000000  1
  Rh  Rh5_0  1  0.35653143  0.21397790  0.25000000  1
  Rh  Rh5_1  1  0.35653143  0.21397790  0.75000000  1
  Rh  Rh5_2  1  0.35653143  0.71397790  0.25000000  1
  Rh  Rh5_3  1  0.35653143  0.71397790  0.75000000  1
  Rh  Rh5_4  1  0.85653143  0.21397790  0.25000000  1
  Rh  Rh5_5  1  0.85653143  0.21397790  0.75000000  1
  Rh  Rh5_6  1  0.85653143  0.71397790  0.25000000  1
  Rh  Rh5_7  1  0.85653143  0.71397790  0.75000000  1
  Rh  Rh6_0  1  0.10653143  0.03602210  0.25000000  1
  Rh  Rh6_1  1  0.10653143  0.03602210  0.75000000  1
  Rh  Rh6_2  1  0.10653143  0.53602210  0.25000000  1
  Rh  Rh6_3  1  0.10653143  0.53602210  0.75000000  1
  Rh  Rh6_4  1  0.60653143  0.03602210  0.25000000  1
  Rh  Rh6_5  1  0.60653143  0.03602210  0.75000000  1
  Rh  Rh6_6  1  0.60653143  0.53602210  0.25000000  1
  Rh  Rh6_7  1  0.60653143  0.53602210  0.75000000  1
  Rh  Rh7_0  1  0.39346857  0.46397790  0.25000000  1
  Rh  Rh7_1  1  0.39346857  0.46397790  0.75000000  1
  Rh  Rh7_2  1  0.39346857  0.96397790  0.25000000  1
  Rh  Rh7_3  1  0.39346857  0.96397790  0.75000000  1
  Rh  Rh7_4  1  0.89346857  0.46397790  0.25000000  1
  Rh  Rh7_5  1  0.89346857  0.46397790  0.75000000  1
  Rh  Rh7_6  1  0.89346857  0.96397790  0.25000000  1
  Rh  Rh7_7  1  0.89346857  0.96397790  0.75000000  1
loop_
_geom_bond_atom_site_label_1
_geom_bond_atom_site_label_2
_geom_bond_distance
_geom_bond_site_symmetry_2
Li0_0 Rh0_0 2.568226 1_555
Li0_0 Rh0_1 2.568226 1_554
Li0_0 Rh5_0 2.568226 1_555
Li0_0 Rh5_1 2.568226 1_554
Li0_0 Rh4_0 2.568226 1_555
Li0_0 Rh4_1 2.568226 1_554
Li0_0 Rh1_0 2.568226 1_555
Li0_0 Rh1_1 2.568226 1_554
Li0_1 Rh0_1 2.568226 1_555
Li0_1 Rh0_0 2.568226 1_555
Li0_1 Rh5_0 2.568226 1_555
Li0_1 Rh5_1 2.568226 1_555
Li0_1 Rh4_1 2.568226 1_555
Li0_1 Rh4_0 2.568226 1_555
Li0_1 Rh1_1 2.568226 1_555
Li0_1 Rh1_0 2.568226 1_555
Li0_2 Rh0_2 2.568226 1_555
Li0_2 Rh0_3 2.568226 1_554
Li0_2 Rh5_2 2.568226 1_555
Li0_2 Rh5_3 2.568226 1_554
Li0_2 Rh4_2 2.568226 1_555
Li0_2 Rh4_3 2.568226 1_554
Li0_2 Rh1_2 2.568226 1_555
Li0_2 Rh1_3 2.568226 1_554
Li0_3 Rh0_3 2.568226 1_555
Li0_3 Rh0_2 2.568226 1_555
Li0_3 Rh5_2 2.568226 1_555
Li0_3 Rh5_3 2.568226 1_555
Li0_3 Rh4_3 2.568226 1_555
Li0_3 Rh4_2 2.568226 1_555
Li0_3 Rh1_3 2.568226 1_555
Li0_3 Rh1_2 2.568226 1_555
Li0_4 Rh0_4 2.568226 1_555
Li0_4 Rh0_5 2.568226 1_554
Li0_4 Rh5_4 2.568226 1_555
Li0_4 Rh5_5 2.568226 1_554
Li0_4 Rh4_4 2.568226 1_555
Li0_4 Rh4_5 2.568226 1_554
Li0_4 Rh1_4 2.568226 1_555
Li0_4 Rh1_5 2.568226 1_554
Li0_5 Rh0_5 2.568226 1_555
Li0_5 Rh0_4 2.568226 1_555
Li0_5 Rh5_4 2.568226 1_555
Li0_5 Rh5_5 2.568226 1_555
Li0_5 Rh4_5 2.568226 1_555
Li0_5 Rh4_4 2.568226 1_555
Li0_5 Rh1_5 2.568226 1_555
Li0_5 Rh1_4 2.568226 1_555
Li0_6 Rh0_6 2.568226 1_555
Li0_6 Rh0_7 2.568226 1_554
Li0_6 Rh5_6 2.568226 1_555
Li0_6 Rh5_7 2.568226 1_554
Li0_6 Rh4_6 2.568226 1_555
Li0_6 Rh4_7 2.568226 1_554
Li0_6 Rh1_6 2.568226 1_555
Li0_6 Rh1_7 2.568226 1_554
Li0_7 Rh0_7 2.568226 1_555
Li0_7 Rh0_6 2.568226 1_555
Li0_7 Rh5_7 2.568226 1_555
Li0_7 Rh5_6 2.568226 1_555
Li0_7 Rh4_7 2.568226 1_555
Li0_7 Rh4_6 2.568226 1_555
Li0_7 Rh1_7 2.568226 1_555
Li0_7 Rh1_6 2.568226 1_555
Li1_0 Rh6_0 2.568226 1_555
Li1_0 Rh6_1 2.568226 1_554
Li1_0 Rh3_4 2.568226 1_455
Li1_0 Rh3_5 2.568226 1_454
Li1_0 Rh2_2 2.568226 1_545
Li1_0 Rh2_3 2.568226 1_544
Li1_0 Rh7_6 2.568226 1_445
Li1_0 Rh7_7 2.568226 1_444
Li1_1 Rh6_1 2.568226 1_555
Li1_1 Rh6_0 2.568226 1_555
Li1_1 Rh3_5 2.568226 1_455
Li1_1 Rh3_4 2.568226 1_455
Li1_1 Rh2_3 2.568226 1_545
Li1_1 Rh2_2 2.568226 1_545
Li1_1 Rh7_6 2.568226 1_445
Li1_1 Rh7_7 2.568226 1_445
Li1_2 Rh6_2 2.568226 1_555
Li1_2 Rh6_3 2.568226 1_554
Li1_2 Rh3_6 2.568226 1_455
Li1_2 Rh3_7 2.568226 1_454
Li1_2 Rh2_0 2.568226 1_555
Li1_2 Rh2_1 2.568226 1_554
Li1_2 Rh7_4 2.568226 1_455
Li1_2 Rh7_5 2.568226 1_454
Li1_3 Rh6_3 2.568226 1_555
Li1_3 Rh6_2 2.568226 1_555
Li1_3 Rh3_6 2.568226 1_455
Li1_3 Rh3_7 2.568226 1_455
Li1_3 Rh2_0 2.568226 1_555
Li1_3 Rh2_1 2.568226 1_555
Li1_3 Rh7_4 2.568226 1_455
Li1_3 Rh7_5 2.568226 1_455
Li1_4 Rh6_4 2.568226 1_555
Li1_4 Rh6_5 2.568226 1_554
Li1_4 Rh3_0 2.568226 1_555
Li1_4 Rh3_1 2.568226 1_554
Li1_4 Rh2_6 2.568226 1_545
Li1_4 Rh2_7 2.568226 1_544
Li1_4 Rh7_2 2.568226 1_545
Li1_4 Rh7_3 2.568226 1_544
Li1_5 Rh6_4 2.568226 1_555
Li1_5 Rh6_5 2.568226 1_555
Li1_5 Rh3_0 2.568226 1_555
Li1_5 Rh3_1 2.568226 1_555
Li1_5 Rh2_7 2.568226 1_545
Li1_5 Rh2_6 2.568226 1_545
Li1_5 Rh7_3 2.568226 1_545
Li1_5 Rh7_2 2.568226 1_545
Li1_6 Rh6_6 2.568226 1_555
Li1_6 Rh6_7 2.568226 1_554
Li1_6 Rh3_2 2.568226 1_555
Li1_6 Rh3_3 2.568226 1_554
Li1_6 Rh2_4 2.568226 1_555
Li1_6 Rh2_5 2.568226 1_554
Li1_6 Rh7_0 2.568226 1_555
Li1_6 Rh7_1 2.568226 1_554
Li1_7 Rh6_7 2.568226 1_555
Li1_7 Rh6_6 2.568226 1_555
Li1_7 Rh3_2 2.568226 1_555
Li1_7 Rh3_3 2.568226 1_555
Li1_7 Rh2_4 2.568226 1_555
Li1_7 Rh2_5 2.568226 1_555
Li1_7 Rh7_0 2.568226 1_555
Li1_7 Rh7_1 2.568226 1_555
Sc0_0 Sc0_1 3.011373 1_555
Sc0_0 Sc0_1 3.011373 1_554
Sc0_2 Sc0_3 3.011373 1_555
Sc0_2 Sc0_3 3.011373 1_554
Sc0_4 Sc0_5 3.011373 1_555
Sc0_4 Sc0_5 3.011373 1_554
Sc0_6 Sc0_7 3.011373 1_555
Sc0_6 Sc0_7 3.011373 1_554
Sc1_0 Sc1_1 3.011373 1_555
Sc1_0 Sc1_1 3.011373 1_554
Sc1_2 Sc1_3 3.011373 1_555
Sc1_2 Sc1_3 3.011373 1_554
Sc1_4 Sc1_5 3.011373 1_555
Sc1_4 Sc1_5 3.011373 1_554
Sc1_6 Sc1_7 3.011373 1_555
Sc1_6 Sc1_7 3.011373 1_554
Sc2_0 Sc2_1 3.011373 1_555
Sc2_0 Sc2_1 3.011373 1_554
Sc2_2 Sc2_3 3.011373 1_555
Sc2_2 Sc2_3 3.011373 1_554
Sc2_4 Sc2_5 3.011373 1_555
Sc2_4 Sc2_5 3.011373 1_554
Sc2_6 Sc2_7 3.011373 1_555
Sc2_6 Sc2_7 3.011373 1_554
Sc3_0 Sc3_1 3.011373 1_555
Sc3_0 Sc3_1 3.011373 1_554
Sc3_2 Sc3_3 3.011373 1_555
Sc3_2 Sc3_3 3.011373 1_554
Sc3_4 Sc3_5 3.011373 1_555
Sc3_4 Sc3_5 3.011373 1_554
Sc3_6 Sc3_7 3.011373 1_555
Sc3_6 Sc3_7 3.011373 1_554
B0_0 Rh2_0 2.178520 1_555
B0_0 Rh4_0 2.178520 1_555
B0_0 Rh2_1 2.178520 1_554
B0_0 Rh4_1 2.178520 1_554
B0_0 Ru1_0 2.225508 1_555
B0_0 Ru1_1 2.225508 1_554
B0_0 Sc1_0 2.632824 1_555
B0_0 Sc3_4 2.799270 1_455
B0_0 Sc2_0 2.799270 1_555
B0_1 Rh2_0 2.178520 1_555
B0_1 Rh2_1 2.178520 1_555
B0_1 Rh4_1 2.178520 1_555
B0_1 Rh4_0 2.178520 1_555
B0_1 Ru1_1 2.225508 1_555
B0_1 Ru1_0 2.225508 1_555
B0_1 Sc1_1 2.632824 1_555
B0_1 Sc3_5 2.799270 1_455
B0_1 Sc2_1 2.799270 1_555
B0_2 Rh2_2 2.178520 1_555
B0_2 Rh4_2 2.178520 1_555
B0_2 Rh4_3 2.178520 1_554
B0_2 Rh2_3 2.178520 1_554
B0_2 Ru1_2 2.225508 1_555
B0_2 Ru1_3 2.225508 1_554
B0_2 Sc1_2 2.632824 1_555
B0_2 Sc3_6 2.799270 1_455
B0_2 Sc2_2 2.799270 1_555
B0_3 Rh2_3 2.178520 1_555
B0_3 Rh2_2 2.178520 1_555
B0_3 Rh4_3 2.178520 1_555
B0_3 Rh4_2 2.178520 1_555
B0_3 Ru1_3 2.225508 1_555
B0_3 Ru1_2 2.225508 1_555
B0_3 Sc1_3 2.632824 1_555
B0_3 Sc3_7 2.799270 1_455
B0_3 Sc2_3 2.799270 1_555
B0_4 Rh2_4 2.178520 1_555
B0_4 Rh4_4 2.178520 1_555
B0_4 Rh2_5 2.178520 1_554
B0_4 Rh4_5 2.178520 1_554
B0_4 Ru1_4 2.225508 1_555
B0_4 Ru1_5 2.225508 1_554
B0_4 Sc1_4 2.632824 1_555
B0_4 Sc3_0 2.799270 1_555
B0_4 Sc2_4 2.799270 1_555
B0_5 Rh2_4 2.178520 1_555
B0_5 Rh4_5 2.178520 1_555
B0_5 Rh2_5 2.178520 1_555
B0_5 Rh4_4 2.178520 1_555
B0_5 Ru1_4 2.225508 1_555
B0_5 Ru1_5 2.225508 1_555
B0_5 Sc1_5 2.632824 1_555
B0_5 Sc3_1 2.799270 1_555
B0_5 Sc2_5 2.799270 1_555
B0_6 Rh4_6 2.178520 1_555
B0_6 Rh2_6 2.178520 1_555
B0_6 Rh4_7 2.178520 1_554
B0_6 Rh2_7 2.178520 1_554
B0_6 Ru1_6 2.225508 1_555
B0_6 Ru1_7 2.225508 1_554
B0_6 Sc1_6 2.632824 1_555
B0_6 Sc3_2 2.799270 1_555
B0_6 Sc2_6 2.799270 1_555
B0_7 Rh4_6 2.178520 1_555
B0_7 Rh2_7 2.178520 1_555
B0_7 Rh4_7 2.178520 1_555
B0_7 Rh2_6 2.178520 1_555
B0_7 Ru1_7 2.225508 1_555
B0_7 Ru1_6 2.225508 1_555
B0_7 Sc1_7 2.632824 1_555
B0_7 Sc3_3 2.799270 1_555
B0_7 Sc2_7 2.799270 1_555
B1_0 Rh5_0 2.178520 1_555
B1_0 Rh5_1 2.178520 1_554
B1_0 Rh3_0 2.178520 1_555
B1_0 Rh3_1 2.178520 1_554
B1_0 Ru1_4 2.225508 1_555
B1_0 Ru1_5 2.225508 1_554
B1_0 Sc0_0 2.632824 1_555
B1_0 Sc3_0 2.799270 1_555
B1_0 Sc2_4 2.799270 1_555
B1_1 Rh5_1 2.178520 1_555
B1_1 Rh5_0 2.178520 1_555
B1_1 Rh3_1 2.178520 1_555
B1_1 Rh3_0 2.178520 1_555
B1_1 Ru1_5 2.225508 1_555
B1_1 Ru1_4 2.225508 1_555
B1_1 Sc0_1 2.632824 1_555
B1_1 Sc3_1 2.799270 1_555
B1_1 Sc2_5 2.799270 1_555
B1_2 Rh5_2 2.178520 1_555
B1_2 Rh5_3 2.178520 1_554
B1_2 Rh3_2 2.178520 1_555
B1_2 Rh3_3 2.178520 1_554
B1_2 Ru1_6 2.225508 1_555
B1_2 Ru1_7 2.225508 1_554
B1_2 Sc0_2 2.632824 1_555
B1_2 Sc3_2 2.799270 1_555
B1_2 Sc2_6 2.799270 1_555
B1_3 Rh5_2 2.178520 1_555
B1_3 Rh5_3 2.178520 1_555
B1_3 Rh3_3 2.178520 1_555
B1_3 Rh3_2 2.178520 1_555
B1_3 Ru1_6 2.225508 1_555
B1_3 Ru1_7 2.225508 1_555
B1_3 Sc0_3 2.632824 1_555
B1_3 Sc3_3 2.799270 1_555
B1_3 Sc2_7 2.799270 1_555
B1_4 Rh5_4 2.178520 1_555
B1_4 Rh3_4 2.178520 1_555
B1_4 Rh5_5 2.178520 1_554
B1_4 Rh3_5 2.178520 1_554
B1_4 Ru1_0 2.225508 1_655
B1_4 Ru1_1 2.225508 1_654
B1_4 Sc0_4 2.632824 1_555
B1_4 Sc3_4 2.799270 1_555
B1_4 Sc2_0 2.799270 1_655
B1_5 Rh3_5 2.178520 1_555
B1_5 Rh5_5 2.178520 1_555
B1_5 Rh5_4 2.178520 1_555
B1_5 Rh3_4 2.178520 1_555
B1_5 Ru1_1 2.225508 1_655
B1_5 Ru1_0 2.225508 1_655
B1_5 Sc0_5 2.632824 1_555
B1_5 Sc3_5 2.799270 1_555
B1_5 Sc2_1 2.799270 1_655
B1_6 Rh5_6 2.178520 1_555
B1_6 Rh3_6 2.178520 1_555
B1_6 Rh5_7 2.178520 1_554
B1_6 Rh3_7 2.178520 1_554
B1_6 Ru1_2 2.225508 1_655
B1_6 Ru1_3 2.225508 1_654
B1_6 Sc0_6 2.632824 1_555
B1_6 Sc3_6 2.799270 1_555
B1_6 Sc2_2 2.799270 1_655
B1_7 Rh5_6 2.178520 1_555
B1_7 Rh3_6 2.178520 1_555
B1_7 Rh5_7 2.178520 1_555
B1_7 Rh3_7 2.178520 1_555
B1_7 Ru1_3 2.225508 1_655
B1_7 Ru1_2 2.225508 1_655
B1_7 Sc0_7 2.632824 1_555
B1_7 Sc3_7 2.799270 1_555
B1_7 Sc2_3 2.799270 1_655
B2_0 Rh0_0 2.178520 1_555
B2_0 Rh0_1 2.178520 1_554
B2_0 Rh7_0 2.178520 1_555
B2_0 Rh7_1 2.178520 1_554
B2_0 Ru0_2 2.225508 1_555
B2_0 Ru0_3 2.225508 1_554
B2_0 Sc3_0 2.632824 1_555
B2_0 Sc1_0 2.799270 1_555
B2_0 Sc0_2 2.799270 1_555
B2_1 Rh0_1 2.178520 1_555
B2_1 Rh0_0 2.178520 1_555
B2_1 Rh7_1 2.178520 1_555
B2_1 Rh7_0 2.178520 1_555
B2_1 Ru0_3 2.225508 1_555
B2_1 Ru0_2 2.225508 1_555
B2_1 Sc3_1 2.632824 1_555
B2_1 Sc1_1 2.799270 1_555
B2_1 Sc0_3 2.799270 1_555
B2_2 Rh7_2 2.178520 1_555
B2_2 Rh7_3 2.178520 1_554
B2_2 Rh0_2 2.178520 1_555
B2_2 Rh0_3 2.178520 1_554
B2_2 Ru0_0 2.225508 1_565
B2_2 Ru0_1 2.225508 1_564
B2_2 Sc3_2 2.632824 1_555
B2_2 Sc1_2 2.799270 1_555
B2_2 Sc0_0 2.799270 1_565
B2_3 Rh7_2 2.178520 1_555
B2_3 Rh7_3 2.178520 1_555
B2_3 Rh0_3 2.178520 1_555
B2_3 Rh0_2 2.178520 1_555
B2_3 Ru0_1 2.225508 1_565
B2_3 Ru0_0 2.225508 1_565
B2_3 Sc3_3 2.632824 1_555
B2_3 Sc1_3 2.799270 1_555
B2_3 Sc0_1 2.799270 1_565
B2_4 Rh0_4 2.178520 1_555
B2_4 Rh0_5 2.178520 1_554
B2_4 Rh7_4 2.178520 1_555
B2_4 Rh7_5 2.178520 1_554
B2_4 Ru0_6 2.225508 1_555
B2_4 Ru0_7 2.225508 1_554
B2_4 Sc3_4 2.632824 1_555
B2_4 Sc1_4 2.799270 1_555
B2_4 Sc0_6 2.799270 1_555
B2_5 Rh0_4 2.178520 1_555
B2_5 Rh0_5 2.178520 1_555
B2_5 Rh7_5 2.178520 1_555
B2_5 Rh7_4 2.178520 1_555
B2_5 Ru0_7 2.225508 1_555
B2_5 Ru0_6 2.225508 1_555
B2_5 Sc3_5 2.632824 1_555
B2_5 Sc1_5 2.799270 1_555
B2_5 Sc0_7 2.799270 1_555
B2_6 Rh7_6 2.178520 1_555
B2_6 Rh0_6 2.178520 1_555
B2_6 Rh7_7 2.178520 1_554
B2_6 Rh0_7 2.178520 1_554
B2_6 Ru0_4 2.225508 1_565
B2_6 Ru0_5 2.225508 1_564
B2_6 Sc3_6 2.632824 1_555
B2_6 Sc1_6 2.799270 1_555
B2_6 Sc0_4 2.799270 1_565
B2_7 Rh7_7 2.178520 1_555
B2_7 Rh0_7 2.178520 1_555
B2_7 Rh7_6 2.178520 1_555
B2_7 Rh0_6 2.178520 1_555
B2_7 Ru0_5 2.225508 1_565
B2_7 Ru0_4 2.225508 1_565
B2_7 Sc3_7 2.632824 1_555
B2_7 Sc1_7 2.799270 1_555
B2_7 Sc0_5 2.799270 1_565
B3_0 Rh6_0 2.178520 1_555
B3_0 Rh1_0 2.178520 1_555
B3_0 Rh6_1 2.178520 1_554
B3_0 Rh1_1 2.178520 1_554
B3_0 Ru0_0 2.225508 1_555
B3_0 Ru0_1 2.225508 1_554
B3_0 Sc2_0 2.632824 1_555
B3_0 Sc1_2 2.799270 1_545
B3_0 Sc0_0 2.799270 1_555
B3_1 Rh6_0 2.178520 1_555
B3_1 Rh6_1 2.178520 1_555
B3_1 Rh1_0 2.178520 1_555
B3_1 Rh1_1 2.178520 1_555
B3_1 Ru0_1 2.225508 1_555
B3_1 Ru0_0 2.225508 1_555
B3_1 Sc2_1 2.632824 1_555
B3_1 Sc1_3 2.799270 1_545
B3_1 Sc0_1 2.799270 1_555
B3_2 Rh1_2 2.178520 1_555
B3_2 Rh6_2 2.178520 1_555
B3_2 Rh6_3 2.178520 1_554
B3_2 Rh1_3 2.178520 1_554
B3_2 Ru0_2 2.225508 1_555
B3_2 Ru0_3 2.225508 1_554
B3_2 Sc2_2 2.632824 1_555
B3_2 Sc1_0 2.799270 1_555
B3_2 Sc0_2 2.799270 1_555
B3_3 Rh6_3 2.178520 1_555
B3_3 Rh1_3 2.178520 1_555
B3_3 Rh1_2 2.178520 1_555
B3_3 Rh6_2 2.178520 1_555
B3_3 Ru0_3 2.225508 1_555
B3_3 Ru0_2 2.225508 1_555
B3_3 Sc2_3 2.632824 1_555
B3_3 Sc1_1 2.799270 1_555
B3_3 Sc0_3 2.799270 1_555
B3_4 Rh6_4 2.178520 1_555
B3_4 Rh1_4 2.178520 1_555
B3_4 Rh6_5 2.178520 1_554
B3_4 Rh1_5 2.178520 1_554
B3_4 Ru0_4 2.225508 1_555
B3_4 Ru0_5 2.225508 1_554
B3_4 Sc2_4 2.632824 1_555
B3_4 Sc0_4 2.799270 1_555
B3_4 Sc1_6 2.799270 1_545
B3_5 Rh6_5 2.178520 1_555
B3_5 Rh6_4 2.178520 1_555
B3_5 Rh1_5 2.178520 1_555
B3_5 Rh1_4 2.178520 1_555
B3_5 Ru0_4 2.225508 1_555
B3_5 Ru0_5 2.225508 1_555
B3_5 Sc2_5 2.632824 1_555
B3_5 Sc0_5 2.799270 1_555
B3_5 Sc1_7 2.799270 1_545
B3_6 Rh6_6 2.178520 1_555
B3_6 Rh1_6 2.178520 1_555
B3_6 Rh6_7 2.178520 1_554
B3_6 Rh1_7 2.178520 1_554
B3_6 Ru0_6 2.225508 1_555
B3_6 Ru0_7 2.225508 1_554
B3_6 Sc2_6 2.632824 1_555
B3_6 Sc0_6 2.799270 1_555
B3_6 Sc1_4 2.799270 1_555
B3_7 Rh6_6 2.178520 1_555
B3_7 Rh6_7 2.178520 1_555
B3_7 Rh1_7 2.178520 1_555
B3_7 Rh1_6 2.178520 1_555
B3_7 Ru0_7 2.225508 1_555
B3_7 Ru0_6 2.225508 1_555
B3_7 Sc2_7 2.632824 1_555
B3_7 Sc0_7 2.799270 1_555
B3_7 Sc1_5 2.799270 1_555
Ru0_0 Sc0_0 2.723456 1_555
Ru0_0 Sc0_1 2.723456 1_555
Ru0_0 Sc1_2 2.723456 1_545
Ru0_0 Sc1_3 2.723456 1_545
Ru0_1 Sc0_1 2.723456 1_555
Ru0_1 Sc0_0 2.723456 1_556
Ru0_1 Sc1_3 2.723456 1_545
Ru0_1 Sc1_2 2.723456 1_546
Ru0_2 Sc0_2 2.723456 1_555
Ru0_2 Sc0_3 2.723456 1_555
Ru0_2 Sc1_1 2.723456 1_555
Ru0_2 Sc1_0 2.723456 1_555
Ru0_3 Sc0_3 2.723456 1_555
Ru0_3 Sc0_2 2.723456 1_556
Ru0_3 Sc1_1 2.723456 1_555
Ru0_3 Sc1_0 2.723456 1_556
Ru0_4 Sc0_4 2.723456 1_555
Ru0_4 Sc0_5 2.723456 1_555
Ru0_4 Sc1_7 2.723456 1_545
Ru0_4 Sc1_6 2.723456 1_545
Ru0_5 Sc0_5 2.723456 1_555
Ru0_5 Sc0_4 2.723456 1_556
Ru0_5 Sc1_7 2.723456 1_545
Ru0_5 Sc1_6 2.723456 1_546
Ru0_6 Sc0_7 2.723456 1_555
Ru0_6 Sc0_6 2.723456 1_555
Ru0_6 Sc1_5 2.723456 1_555
Ru0_6 Sc1_4 2.723456 1_555
Ru0_7 Sc0_7 2.723456 1_555
Ru0_7 Sc0_6 2.723456 1_556
Ru0_7 Sc1_5 2.723456 1_555
Ru0_7 Sc1_4 2.723456 1_556
Ru1_0 Sc3_5 2.723456 1_455
Ru1_0 Sc3_4 2.723456 1_455
Ru1_0 Sc2_0 2.723456 1_555
Ru1_0 Sc2_1 2.723456 1_555
Ru1_1 Sc3_5 2.723456 1_455
Ru1_1 Sc2_1 2.723456 1_555
Ru1_1 Sc3_4 2.723456 1_456
Ru1_1 Sc2_0 2.723456 1_556
Ru1_2 Sc3_6 2.723456 1_455
Ru1_2 Sc3_7 2.723456 1_455
Ru1_2 Sc2_3 2.723456 1_555
Ru1_2 Sc2_2 2.723456 1_555
Ru1_3 Sc3_7 2.723456 1_455
Ru1_3 Sc3_6 2.723456 1_456
Ru1_3 Sc2_3 2.723456 1_555
Ru1_3 Sc2_2 2.723456 1_556
Ru1_4 Sc2_4 2.723456 1_555
Ru1_4 Sc2_5 2.723456 1_555
Ru1_4 Sc3_1 2.723456 1_555
Ru1_4 Sc3_0 2.723456 1_555
Ru1_5 Sc2_5 2.723456 1_555
Ru1_5 Sc2_4 2.723456 1_556
Ru1_5 Sc3_1 2.723456 1_555
Ru1_5 Sc3_0 2.723456 1_556
Ru1_6 Sc3_3 2.723456 1_555
Ru1_6 Sc3_2 2.723456 1_555
Ru1_6 Sc2_6 2.723456 1_555
Ru1_6 Sc2_7 2.723456 1_555
Ru1_7 Sc3_3 2.723456 1_555
Ru1_7 Sc3_2 2.723456 1_556
Ru1_7 Sc2_7 2.723456 1_555
Ru1_7 Sc2_6 2.723456 1_556
Rh0_0 Ru0_2 2.736682 1_555
Rh0_0 Sc3_1 2.818317 1_555
Rh0_0 Sc3_0 2.818317 1_555
Rh0_0 Sc1_1 2.920072 1_555
Rh0_0 Sc1_0 2.920072 1_555
Rh0_0 Rh5_0 2.942343 1_555
Rh0_0 Rh4_0 2.942343 1_555
Rh0_1 Ru0_3 2.736682 1_555
Rh0_1 Sc3_1 2.818317 1_555
Rh0_1 Sc3_0 2.818317 1_556
Rh0_1 Sc1_1 2.920072 1_555
Rh0_1 Sc1_0 2.920072 1_556
Rh0_1 Rh5_1 2.942343 1_555
Rh0_1 Rh4_1 2.942343 1_555
Rh0_2 Ru0_0 2.736682 1_565
Rh0_2 Sc3_2 2.818317 1_555
Rh0_2 Sc3_3 2.818317 1_555
Rh0_2 Sc1_2 2.920072 1_555
Rh0_2 Sc1_3 2.920072 1_555
Rh0_2 Rh5_2 2.942343 1_555
Rh0_2 Rh4_2 2.942343 1_555
Rh0_3 Ru0_1 2.736682 1_565
Rh0_3 Sc3_3 2.818317 1_555
Rh0_3 Sc3_2 2.818317 1_556
Rh0_3 Sc1_3 2.920072 1_555
Rh0_3 Sc1_2 2.920072 1_556
Rh0_3 Rh5_3 2.942343 1_555
Rh0_3 Rh4_3 2.942343 1_555
Rh0_4 Ru0_6 2.736682 1_555
Rh0_4 Sc3_4 2.818317 1_555
Rh0_4 Sc3_5 2.818317 1_555
Rh0_4 Sc1_5 2.920072 1_555
Rh0_4 Sc1_4 2.920072 1_555
Rh0_4 Rh4_4 2.942343 1_555
Rh0_4 Rh5_4 2.942343 1_555
Rh0_5 Ru0_7 2.736682 1_555
Rh0_5 Sc3_5 2.818317 1_555
Rh0_5 Sc3_4 2.818317 1_556
Rh0_5 Sc1_5 2.920072 1_555
Rh0_5 Sc1_4 2.920072 1_556
Rh0_5 Rh5_5 2.942343 1_555
Rh0_5 Rh4_5 2.942343 1_555
Rh0_6 Ru0_4 2.736682 1_565
Rh0_6 Sc3_6 2.818317 1_555
Rh0_6 Sc3_7 2.818317 1_555
Rh0_6 Sc1_7 2.920072 1_555
Rh0_6 Sc1_6 2.920072 1_555
Rh0_6 Rh5_6 2.942343 1_555
Rh0_6 Rh4_6 2.942343 1_555
Rh0_7 Ru0_5 2.736682 1_565
Rh0_7 Sc3_7 2.818317 1_555
Rh0_7 Sc3_6 2.818317 1_556
Rh0_7 Sc1_7 2.920072 1_555
Rh0_7 Sc1_6 2.920072 1_556
Rh0_7 Rh5_7 2.942343 1_555
Rh0_7 Rh4_7 2.942343 1_555
Rh1_0 Ru0_0 2.736682 1_555
Rh1_0 Sc2_0 2.818317 1_555
Rh1_0 Sc2_1 2.818317 1_555
Rh1_0 Sc0_0 2.920072 1_555
Rh1_0 Sc0_1 2.920072 1_555
Rh1_0 Rh4_0 2.942343 1_555
Rh1_0 Rh5_0 2.942343 1_555
Rh1_1 Ru0_1 2.736682 1_555
Rh1_1 Sc2_1 2.818317 1_555
Rh1_1 Sc2_0 2.818317 1_556
Rh1_1 Sc0_1 2.920072 1_555
Rh1_1 Sc0_0 2.920072 1_556
Rh1_1 Rh4_1 2.942343 1_555
Rh1_1 Rh5_1 2.942343 1_555
Rh1_2 Ru0_2 2.736682 1_555
Rh1_2 Sc2_3 2.818317 1_555
Rh1_2 Sc2_2 2.818317 1_555
Rh1_2 Sc0_2 2.920072 1_555
Rh1_2 Sc0_3 2.920072 1_555
Rh1_2 Rh4_2 2.942343 1_555
Rh1_2 Rh5_2 2.942343 1_555
Rh1_3 Ru0_3 2.736682 1_555
Rh1_3 Sc2_3 2.818317 1_555
Rh1_3 Sc2_2 2.818317 1_556
Rh1_3 Sc0_3 2.920072 1_555
Rh1_3 Sc0_2 2.920072 1_556
Rh1_3 Rh4_3 2.942343 1_555
Rh1_3 Rh5_3 2.942343 1_555
Rh1_4 Ru0_4 2.736682 1_555
Rh1_4 Sc2_4 2.818317 1_555
Rh1_4 Sc2_5 2.818317 1_555
Rh1_4 Sc0_4 2.920072 1_555
Rh1_4 Sc0_5 2.920072 1_555
Rh1_4 Rh5_4 2.942343 1_555
Rh1_4 Rh4_4 2.942343 1_555
Rh1_5 Ru0_5 2.736682 1_555
Rh1_5 Sc2_5 2.818317 1_555
Rh1_5 Sc2_4 2.818317 1_556
Rh1_5 Sc0_5 2.920072 1_555
Rh1_5 Sc0_4 2.920072 1_556
Rh1_5 Rh5_5 2.942343 1_555
Rh1_5 Rh4_5 2.942343 1_555
Rh1_6 Ru0_6 2.736682 1_555
Rh1_6 Sc2_6 2.818317 1_555
Rh1_6 Sc2_7 2.818317 1_555
Rh1_6 Sc0_6 2.920072 1_555
Rh1_6 Sc0_7 2.920072 1_555
Rh1_6 Rh5_6 2.942343 1_555
Rh1_6 Rh4_6 2.942343 1_555
Rh1_7 Ru0_7 2.736682 1_555
Rh1_7 Sc2_7 2.818317 1_555
Rh1_7 Sc2_6 2.818317 1_556
Rh1_7 Sc0_7 2.920072 1_555
Rh1_7 Sc0_6 2.920072 1_556
Rh1_7 Rh5_7 2.942343 1_555
Rh1_7 Rh4_7 2.942343 1_555
Rh2_0 Ru1_0 2.736682 1_555
Rh2_0 Sc1_1 2.818317 1_555
Rh2_0 Sc1_0 2.818317 1_555
Rh2_0 Sc3_4 2.920072 1_455
Rh2_0 Sc3_5 2.920072 1_455
Rh2_0 Rh6_2 2.942343 1_555
Rh2_0 Rh7_4 2.942343 1_455
Rh2_1 Ru1_1 2.736682 1_555
Rh2_1 Sc1_1 2.818317 1_555
Rh2_1 Sc1_0 2.818317 1_556
Rh2_1 Sc3_5 2.920072 1_455
Rh2_1 Sc3_4 2.920072 1_456
Rh2_1 Rh6_3 2.942343 1_555
Rh2_1 Rh7_5 2.942343 1_455
Rh2_2 Ru1_2 2.736682 1_555
Rh2_2 Sc1_2 2.818317 1_555
Rh2_2 Sc1_3 2.818317 1_555
Rh2_2 Sc3_6 2.920072 1_455
Rh2_2 Sc3_7 2.920072 1_455
Rh2_2 Rh7_6 2.942343 1_455
Rh2_2 Rh6_0 2.942343 1_565
Rh2_3 Ru1_3 2.736682 1_555
Rh2_3 Sc1_3 2.818317 1_555
Rh2_3 Sc1_2 2.818317 1_556
Rh2_3 Sc3_7 2.920072 1_455
Rh2_3 Sc3_6 2.920072 1_456
Rh2_3 Rh7_7 2.942343 1_455
Rh2_3 Rh6_1 2.942343 1_565
Rh2_4 Ru1_4 2.736682 1_555
Rh2_4 Sc1_4 2.818317 1_555
Rh2_4 Sc1_5 2.818317 1_555
Rh2_4 Sc3_1 2.920072 1_555
Rh2_4 Sc3_0 2.920072 1_555
Rh2_4 Rh7_0 2.942343 1_555
Rh2_4 Rh6_6 2.942343 1_555
Rh2_5 Ru1_5 2.736682 1_555
Rh2_5 Sc1_5 2.818317 1_555
Rh2_5 Sc1_4 2.818317 1_556
Rh2_5 Sc3_1 2.920072 1_555
Rh2_5 Sc3_0 2.920072 1_556
Rh2_5 Rh7_1 2.942343 1_555
Rh2_5 Rh6_7 2.942343 1_555
Rh2_6 Ru1_6 2.736682 1_555
Rh2_6 Sc1_7 2.818317 1_555
Rh2_6 Sc1_6 2.818317 1_555
Rh2_6 Sc3_2 2.920072 1_555
Rh2_6 Sc3_3 2.920072 1_555
Rh2_6 Rh7_2 2.942343 1_555
Rh2_6 Rh6_4 2.942343 1_565
Rh2_7 Ru1_7 2.736682 1_555
Rh2_7 Sc1_7 2.818317 1_555
Rh2_7 Sc1_6 2.818317 1_556
Rh2_7 Sc3_3 2.920072 1_555
Rh2_7 Sc3_2 2.920072 1_556
Rh2_7 Rh7_3 2.942343 1_555
Rh2_7 Rh6_5 2.942343 1_565
Rh3_0 Ru1_4 2.736682 1_555
Rh3_0 Sc0_1 2.818317 1_555
Rh3_0 Sc0_0 2.818317 1_555
Rh3_0 Sc2_5 2.920072 1_555
Rh3_0 Sc2_4 2.920072 1_555
Rh3_0 Rh6_4 2.942343 1_555
Rh3_0 Rh7_2 2.942343 1_545
Rh3_1 Ru1_5 2.736682 1_555
Rh3_1 Sc0_1 2.818317 1_555
Rh3_1 Sc0_0 2.818317 1_556
Rh3_1 Sc2_5 2.920072 1_555
Rh3_1 Sc2_4 2.920072 1_556
Rh3_1 Rh6_5 2.942343 1_555
Rh3_1 Rh7_3 2.942343 1_545
Rh3_2 Ru1_6 2.736682 1_555
Rh3_2 Sc0_2 2.818317 1_555
Rh3_2 Sc0_3 2.818317 1_555
Rh3_2 Sc2_7 2.920072 1_555
Rh3_2 Sc2_6 2.920072 1_555
Rh3_2 Rh7_0 2.942343 1_555
Rh3_2 Rh6_6 2.942343 1_555
Rh3_3 Ru1_7 2.736682 1_555
Rh3_3 Sc0_3 2.818317 1_555
Rh3_3 Sc0_2 2.818317 1_556
Rh3_3 Sc2_7 2.920072 1_555
Rh3_3 Sc2_6 2.920072 1_556
Rh3_3 Rh7_1 2.942343 1_555
Rh3_3 Rh6_7 2.942343 1_555
Rh3_4 Ru1_0 2.736682 1_655
Rh3_4 Sc0_4 2.818317 1_555
Rh3_4 Sc0_5 2.818317 1_555
Rh3_4 Sc2_1 2.920072 1_655
Rh3_4 Sc2_0 2.920072 1_655
Rh3_4 Rh7_6 2.942343 1_545
Rh3_4 Rh6_0 2.942343 1_655
Rh3_5 Ru1_1 2.736682 1_655
Rh3_5 Sc0_5 2.818317 1_555
Rh3_5 Sc0_4 2.818317 1_556
Rh3_5 Sc2_1 2.920072 1_655
Rh3_5 Sc2_0 2.920072 1_656
Rh3_5 Rh7_7 2.942343 1_545
Rh3_5 Rh6_1 2.942343 1_655
Rh3_6 Ru1_2 2.736682 1_655
Rh3_6 Sc0_7 2.818317 1_555
Rh3_6 Sc0_6 2.818317 1_555
Rh3_6 Sc2_2 2.920072 1_655
Rh3_6 Sc2_3 2.920072 1_655
Rh3_6 Rh7_4 2.942343 1_555
Rh3_6 Rh6_2 2.942343 1_655
Rh3_7 Ru1_3 2.736682 1_655
Rh3_7 Sc0_7 2.818317 1_555
Rh3_7 Sc0_6 2.818317 1_556
Rh3_7 Sc2_3 2.920072 1_655
Rh3_7 Sc2_2 2.920072 1_656
Rh3_7 Rh7_5 2.942343 1_555
Rh3_7 Rh6_3 2.942343 1_655
Rh4_0 Ru1_0 2.736682 1_555
Rh4_0 Sc1_1 2.818317 1_555
Rh4_0 Sc1_0 2.818317 1_555
Rh4_0 Sc2_0 2.920072 1_555
Rh4_0 Sc2_1 2.920072 1_555
Rh4_1 Ru1_1 2.736682 1_555
Rh4_1 Sc1_1 2.818317 1_555
Rh4_1 Sc1_0 2.818317 1_556
Rh4_1 Sc2_1 2.920072 1_555
Rh4_1 Sc2_0 2.920072 1_556
Rh4_2 Ru1_2 2.736682 1_555
Rh4_2 Sc1_2 2.818317 1_555
Rh4_2 Sc1_3 2.818317 1_555
Rh4_2 Sc2_2 2.920072 1_555
Rh4_2 Sc2_3 2.920072 1_555
Rh4_3 Ru1_3 2.736682 1_555
Rh4_3 Sc1_3 2.818317 1_555
Rh4_3 Sc1_2 2.818317 1_556
Rh4_3 Sc2_3 2.920072 1_555
Rh4_3 Sc2_2 2.920072 1_556
Rh4_4 Ru1_4 2.736682 1_555
Rh4_4 Sc1_5 2.818317 1_555
Rh4_4 Sc1_4 2.818317 1_555
Rh4_4 Sc2_4 2.920072 1_555
Rh4_4 Sc2_5 2.920072 1_555
Rh4_5 Ru1_5 2.736682 1_555
Rh4_5 Sc1_5 2.818317 1_555
Rh4_5 Sc1_4 2.818317 1_556
Rh4_5 Sc2_5 2.920072 1_555
Rh4_5 Sc2_4 2.920072 1_556
Rh4_6 Ru1_6 2.736682 1_555
Rh4_6 Sc1_7 2.818317 1_555
Rh4_6 Sc1_6 2.818317 1_555
Rh4_6 Sc2_6 2.920072 1_555
Rh4_6 Sc2_7 2.920072 1_555
Rh4_7 Ru1_7 2.736682 1_555
Rh4_7 Sc1_7 2.818317 1_555
Rh4_7 Sc1_6 2.818317 1_556
Rh4_7 Sc2_7 2.920072 1_555
Rh4_7 Sc2_6 2.920072 1_556
Rh5_0 Ru1_4 2.736682 1_555
Rh5_0 Sc0_0 2.818317 1_555
Rh5_0 Sc0_1 2.818317 1_555
Rh5_0 Sc3_1 2.920072 1_555
Rh5_0 Sc3_0 2.920072 1_555
Rh5_1 Ru1_5 2.736682 1_555
Rh5_1 Sc0_1 2.818317 1_555
Rh5_1 Sc0_0 2.818317 1_556
Rh5_1 Sc3_1 2.920072 1_555
Rh5_1 Sc3_0 2.920072 1_556
Rh5_2 Ru1_6 2.736682 1_555
Rh5_2 Sc0_3 2.818317 1_555
Rh5_2 Sc0_2 2.818317 1_555
Rh5_2 Sc3_2 2.920072 1_555
Rh5_2 Sc3_3 2.920072 1_555
Rh5_3 Ru1_7 2.736682 1_555
Rh5_3 Sc0_3 2.818317 1_555
Rh5_3 Sc0_2 2.818317 1_556
Rh5_3 Sc3_3 2.920072 1_555
Rh5_3 Sc3_2 2.920072 1_556
Rh5_4 Ru1_0 2.736682 1_655
Rh5_4 Sc0_4 2.818317 1_555
Rh5_4 Sc0_5 2.818317 1_555
Rh5_4 Sc3_4 2.920072 1_555
Rh5_4 Sc3_5 2.920072 1_555
Rh5_5 Ru1_1 2.736682 1_655
Rh5_5 Sc0_5 2.818317 1_555
Rh5_5 Sc0_4 2.818317 1_556
Rh5_5 Sc3_5 2.920072 1_555
Rh5_5 Sc3_4 2.920072 1_556
Rh5_6 Ru1_2 2.736682 1_655
Rh5_6 Sc0_6 2.818317 1_555
Rh5_6 Sc0_7 2.818317 1_555
Rh5_6 Sc3_6 2.920072 1_555
Rh5_6 Sc3_7 2.920072 1_555
Rh5_7 Ru1_3 2.736682 1_655
Rh5_7 Sc0_7 2.818317 1_555
Rh5_7 Sc0_6 2.818317 1_556
Rh5_7 Sc3_7 2.920072 1_555
Rh5_7 Sc3_6 2.920072 1_556
Rh6_0 Ru0_0 2.736682 1_555
Rh6_0 Sc2_0 2.818317 1_555
Rh6_0 Sc2_1 2.818317 1_555
Rh6_0 Sc1_2 2.920072 1_545
Rh6_0 Sc1_3 2.920072 1_545
Rh6_1 Ru0_1 2.736682 1_555
Rh6_1 Sc2_1 2.818317 1_555
Rh6_1 Sc2_0 2.818317 1_556
Rh6_1 Sc1_3 2.920072 1_545
Rh6_1 Sc1_2 2.920072 1_546
Rh6_2 Ru0_2 2.736682 1_555
Rh6_2 Sc2_3 2.818317 1_555
Rh6_2 Sc2_2 2.818317 1_555
Rh6_2 Sc1_1 2.920072 1_555
Rh6_2 Sc1_0 2.920072 1_555
Rh6_3 Ru0_3 2.736682 1_555
Rh6_3 Sc2_3 2.818317 1_555
Rh6_3 Sc2_2 2.818317 1_556
Rh6_3 Sc1_1 2.920072 1_555
Rh6_3 Sc1_0 2.920072 1_556
Rh6_4 Ru0_4 2.736682 1_555
Rh6_4 Sc2_4 2.818317 1_555
Rh6_4 Sc2_5 2.818317 1_555
Rh6_4 Sc1_6 2.920072 1_545
Rh6_4 Sc1_7 2.920072 1_545
Rh6_5 Ru0_5 2.736682 1_555
Rh6_5 Sc2_5 2.818317 1_555
Rh6_5 Sc2_4 2.818317 1_556
Rh6_5 Sc1_6 2.920072 1_546
Rh6_5 Sc1_7 2.920072 1_545
Rh6_6 Ru0_6 2.736682 1_555
Rh6_6 Sc2_6 2.818317 1_555
Rh6_6 Sc2_7 2.818317 1_555
Rh6_6 Sc1_5 2.920072 1_555
Rh6_6 Sc1_4 2.920072 1_555
Rh6_7 Ru0_7 2.736682 1_555
Rh6_7 Sc2_7 2.818317 1_555
Rh6_7 Sc2_6 2.818317 1_556
Rh6_7 Sc1_5 2.920072 1_555
Rh6_7 Sc1_4 2.920072 1_556
Rh7_0 Ru0_2 2.736682 1_555
Rh7_0 Sc3_1 2.818317 1_555
Rh7_0 Sc3_0 2.818317 1_555
Rh7_0 Sc0_2 2.920072 1_555
Rh7_0 Sc0_3 2.920072 1_555
Rh7_1 Ru0_3 2.736682 1_555
Rh7_1 Sc3_1 2.818317 1_555
Rh7_1 Sc3_0 2.818317 1_556
Rh7_1 Sc0_3 2.920072 1_555
Rh7_1 Sc0_2 2.920072 1_556
Rh7_2 Ru0_0 2.736682 1_565
Rh7_2 Sc3_2 2.818317 1_555
Rh7_2 Sc3_3 2.818317 1_555
Rh7_2 Sc0_0 2.920072 1_565
Rh7_2 Sc0_1 2.920072 1_565
Rh7_3 Ru0_1 2.736682 1_565
Rh7_3 Sc3_3 2.818317 1_555
Rh7_3 Sc3_2 2.818317 1_556
Rh7_3 Sc0_1 2.920072 1_565
Rh7_3 Sc0_0 2.920072 1_566
Rh7_4 Ru0_6 2.736682 1_555
Rh7_4 Sc3_4 2.818317 1_555
Rh7_4 Sc3_5 2.818317 1_555
Rh7_4 Sc0_6 2.920072 1_555
Rh7_4 Sc0_7 2.920072 1_555
Rh7_5 Ru0_7 2.736682 1_555
Rh7_5 Sc3_5 2.818317 1_555
Rh7_5 Sc3_4 2.818317 1_556
Rh7_5 Sc0_6 2.920072 1_556
Rh7_5 Sc0_7 2.920072 1_555
Rh7_6 Ru0_4 2.736682 1_565
Rh7_6 Sc3_7 2.818317 1_555
Rh7_6 Sc3_6 2.818317 1_555
Rh7_6 Sc0_5 2.920072 1_565
Rh7_6 Sc0_4 2.920072 1_565
Rh7_7 Ru0_5 2.736682 1_565
Rh7_7 Sc3_7 2.818317 1_555
Rh7_7 Sc3_6 2.818317 1_556
Rh7_7 Sc0_5 2.920072 1_565
Rh7_7 Sc0_4 2.920072 1_566
