# generated using pymatgen
data_CsZrCuS3
_symmetry_space_group_name_H-M   'P 1'
_cell_length_a   16.00122907
_cell_length_b   16.00122859
_cell_length_c   19.72139259
_cell_angle_alpha   90.00000000
_cell_angle_beta   90.00000000
_cell_angle_gamma   152.63251033
_symmetry_Int_Tables_number   1
_chemical_formula_structural   CsZrCuS3
_chemical_formula_sum   'Cs16 Zr16 Cu16 S48'
_cell_volume   2321.21266307
_cell_formula_units_Z   16
loop_
 _symmetry_equiv_pos_site_id
 _symmetry_equiv_pos_as_xyz
  1  'x, y, z'
loop_
 _atom_site_type_symbol
 _atom_site_label
 _atom_site_symmetry_multiplicity
 _atom_site_fract_x
 _atom_site_fract_y
 _atom_site_fract_z
 _atom_site_occupancy
  Cs  Cs0_0  1  0.37131372  0.12868628  0.12500000  1
  Cs  Cs0_1  1  0.37131372  0.12868628  0.62500000  1
  Cs  Cs0_2  1  0.37131372  0.62868628  0.12500000  1
  Cs  Cs0_3  1  0.37131372  0.62868628  0.62500000  1
  Cs  Cs0_4  1  0.87131372  0.12868628  0.12500000  1
  Cs  Cs0_5  1  0.87131372  0.12868628  0.62500000  1
  Cs  Cs0_6  1  0.87131372  0.62868628  0.12500000  1
  Cs  Cs0_7  1  0.87131372  0.62868628  0.62500000  1
  Cs  Cs1_0  1  0.12868628  0.37131372  0.37500000  1
  Cs  Cs1_1  1  0.12868628  0.37131372  0.87500000  1
  Cs  Cs1_2  1  0.12868628  0.87131372  0.37500000  1
  Cs  Cs1_3  1  0.12868628  0.87131372  0.87500000  1
  Cs  Cs1_4  1  0.62868628  0.37131372  0.37500000  1
  Cs  Cs1_5  1  0.62868628  0.37131372  0.87500000  1
  Cs  Cs1_6  1  0.62868628  0.87131372  0.37500000  1
  Cs  Cs1_7  1  0.62868628  0.87131372  0.87500000  1
  Zr  Zr0_0  1  0.00000000  0.00000000  0.25000000  1
  Zr  Zr0_1  1  0.00000000  0.00000000  0.75000000  1
  Zr  Zr0_2  1  0.00000000  0.50000000  0.25000000  1
  Zr  Zr0_3  1  0.00000000  0.50000000  0.75000000  1
  Zr  Zr0_4  1  0.50000000  0.00000000  0.25000000  1
  Zr  Zr0_5  1  0.50000000  0.00000000  0.75000000  1
  Zr  Zr0_6  1  0.50000000  0.50000000  0.25000000  1
  Zr  Zr0_7  1  0.50000000  0.50000000  0.75000000  1
  Zr  Zr1_0  1  0.00000000  0.00000000  0.00000000  1
  Zr  Zr1_1  1  0.00000000  0.00000000  0.50000000  1
  Zr  Zr1_2  1  0.00000000  0.50000000  0.00000000  1
  Zr  Zr1_3  1  0.00000000  0.50000000  0.50000000  1
  Zr  Zr1_4  1  0.50000000  0.00000000  0.00000000  1
  Zr  Zr1_5  1  0.50000000  0.00000000  0.50000000  1
  Zr  Zr1_6  1  0.50000000  0.50000000  0.00000000  1
  Zr  Zr1_7  1  0.50000000  0.50000000  0.50000000  1
  Cu  Cu0_0  1  0.26644004  0.23355996  0.37500000  1
  Cu  Cu0_1  1  0.26644004  0.23355996  0.87500000  1
  Cu  Cu0_2  1  0.26644004  0.73355996  0.37500000  1
  Cu  Cu0_3  1  0.26644004  0.73355996  0.87500000  1
  Cu  Cu0_4  1  0.76644004  0.23355996  0.37500000  1
  Cu  Cu0_5  1  0.76644004  0.23355996  0.87500000  1
  Cu  Cu0_6  1  0.76644004  0.73355996  0.37500000  1
  Cu  Cu0_7  1  0.76644004  0.73355996  0.87500000  1
  Cu  Cu1_0  1  0.23355996  0.26644004  0.12500000  1
  Cu  Cu1_1  1  0.23355996  0.26644004  0.62500000  1
  Cu  Cu1_2  1  0.23355996  0.76644004  0.12500000  1
  Cu  Cu1_3  1  0.23355996  0.76644004  0.62500000  1
  Cu  Cu1_4  1  0.73355996  0.26644004  0.12500000  1
  Cu  Cu1_5  1  0.73355996  0.26644004  0.62500000  1
  Cu  Cu1_6  1  0.73355996  0.76644004  0.12500000  1
  Cu  Cu1_7  1  0.73355996  0.76644004  0.62500000  1
  S  S0_0  1  0.30476376  0.19523624  0.27642521  1
  S  S0_1  1  0.30476376  0.19523624  0.77642521  1
  S  S0_2  1  0.30476376  0.69523624  0.27642521  1
  S  S0_3  1  0.30476376  0.69523624  0.77642521  1
  S  S0_4  1  0.80476376  0.19523624  0.27642521  1
  S  S0_5  1  0.80476376  0.19523624  0.77642521  1
  S  S0_6  1  0.80476376  0.69523624  0.27642521  1
  S  S0_7  1  0.80476376  0.69523624  0.77642521  1
  S  S1_0  1  0.19523624  0.30476376  0.22357479  1
  S  S1_1  1  0.19523624  0.30476376  0.72357479  1
  S  S1_2  1  0.19523624  0.80476376  0.22357479  1
  S  S1_3  1  0.19523624  0.80476376  0.72357479  1
  S  S1_4  1  0.69523624  0.30476376  0.22357479  1
  S  S1_5  1  0.69523624  0.30476376  0.72357479  1
  S  S1_6  1  0.69523624  0.80476376  0.22357479  1
  S  S1_7  1  0.69523624  0.80476376  0.72357479  1
  S  S2_0  1  0.02726110  0.47273890  0.12500000  1
  S  S2_1  1  0.02726110  0.47273890  0.62500000  1
  S  S2_2  1  0.02726110  0.97273890  0.12500000  1
  S  S2_3  1  0.02726110  0.97273890  0.62500000  1
  S  S2_4  1  0.52726110  0.47273890  0.12500000  1
  S  S2_5  1  0.52726110  0.47273890  0.62500000  1
  S  S2_6  1  0.52726110  0.97273890  0.12500000  1
  S  S2_7  1  0.52726110  0.97273890  0.62500000  1
  S  S3_0  1  0.47273890  0.02726110  0.37500000  1
  S  S3_1  1  0.47273890  0.02726110  0.87500000  1
  S  S3_2  1  0.47273890  0.52726110  0.37500000  1
  S  S3_3  1  0.47273890  0.52726110  0.87500000  1
  S  S3_4  1  0.97273890  0.02726110  0.37500000  1
  S  S3_5  1  0.97273890  0.02726110  0.87500000  1
  S  S3_6  1  0.97273890  0.52726110  0.37500000  1
  S  S3_7  1  0.97273890  0.52726110  0.87500000  1
  S  S4_0  1  0.30476376  0.19523624  0.47357479  1
  S  S4_1  1  0.30476376  0.19523624  0.97357479  1
  S  S4_2  1  0.30476376  0.69523624  0.47357479  1
  S  S4_3  1  0.30476376  0.69523624  0.97357479  1
  S  S4_4  1  0.80476376  0.19523624  0.47357479  1
  S  S4_5  1  0.80476376  0.19523624  0.97357479  1
  S  S4_6  1  0.80476376  0.69523624  0.47357479  1
  S  S4_7  1  0.80476376  0.69523624  0.97357479  1
  S  S5_0  1  0.19523624  0.30476376  0.02642521  1
  S  S5_1  1  0.19523624  0.30476376  0.52642521  1
  S  S5_2  1  0.19523624  0.80476376  0.02642521  1
  S  S5_3  1  0.19523624  0.80476376  0.52642521  1
  S  S5_4  1  0.69523624  0.30476376  0.02642521  1
  S  S5_5  1  0.69523624  0.30476376  0.52642521  1
  S  S5_6  1  0.69523624  0.80476376  0.02642521  1
  S  S5_7  1  0.69523624  0.80476376  0.52642521  1
loop_
_geom_bond_atom_site_label_1
_geom_bond_atom_site_label_2
_geom_bond_distance
_geom_bond_site_symmetry_2
Cs0_0 S2_4 3.483490 1_555
Cs0_0 S2_2 3.483490 1_545
Cs0_0 S1_2 3.555942 1_545
Cs0_0 S5_2 3.555942 1_545
Cs0_0 S1_4 3.555942 1_555
Cs0_0 S5_4 3.555942 1_555
Cs0_0 S0_0 3.633199 1_555
Cs0_0 S4_1 3.633199 1_554
Cs0_0 Cs0_6 3.785291 1_445
Cs0_0 Cs0_6 3.785291 1_555
Cs0_1 S2_5 3.483490 1_555
Cs0_1 S2_3 3.483490 1_545
Cs0_1 S1_3 3.555942 1_545
Cs0_1 S5_3 3.555942 1_545
Cs0_1 S1_5 3.555942 1_555
Cs0_1 S5_5 3.555942 1_555
Cs0_1 S0_1 3.633199 1_555
Cs0_1 S4_0 3.633199 1_555
Cs0_1 Cs0_7 3.785291 1_445
Cs0_1 Cs0_7 3.785291 1_555
Cs0_2 S2_6 3.483490 1_555
Cs0_2 S2_0 3.483490 1_555
Cs0_2 S1_0 3.555942 1_555
Cs0_2 S5_0 3.555942 1_555
Cs0_2 S1_6 3.555942 1_555
Cs0_2 S5_6 3.555942 1_555
Cs0_2 S0_2 3.633199 1_555
Cs0_2 S4_3 3.633199 1_554
Cs0_2 Cs0_4 3.785291 1_565
Cs0_2 Cs0_4 3.785291 1_455
Cs0_3 S2_7 3.483490 1_555
Cs0_3 S2_1 3.483490 1_555
Cs0_3 S1_1 3.555942 1_555
Cs0_3 S5_1 3.555942 1_555
Cs0_3 S1_7 3.555942 1_555
Cs0_3 S5_7 3.555942 1_555
Cs0_3 S0_3 3.633199 1_555
Cs0_3 S4_2 3.633199 1_555
Cs0_3 Cs0_5 3.785291 1_565
Cs0_3 Cs0_5 3.785291 1_455
Cs0_4 S2_0 3.483490 1_655
Cs0_4 S2_6 3.483490 1_545
Cs0_4 S1_6 3.555942 1_545
Cs0_4 S5_6 3.555942 1_545
Cs0_4 S1_0 3.555942 1_655
Cs0_4 S5_0 3.555942 1_655
Cs0_4 S0_4 3.633199 1_555
Cs0_4 S4_5 3.633199 1_554
Cs0_5 S2_1 3.483490 1_655
Cs0_5 S2_7 3.483490 1_545
Cs0_5 S1_7 3.555942 1_545
Cs0_5 S5_7 3.555942 1_545
Cs0_5 S1_1 3.555942 1_655
Cs0_5 S5_1 3.555942 1_655
Cs0_5 S0_5 3.633199 1_555
Cs0_5 S4_4 3.633199 1_555
Cs0_6 S2_2 3.483490 1_655
Cs0_6 S2_4 3.483490 1_555
Cs0_6 S1_4 3.555942 1_555
Cs0_6 S5_4 3.555942 1_555
Cs0_6 S1_2 3.555942 1_655
Cs0_6 S5_2 3.555942 1_655
Cs0_6 S0_6 3.633199 1_555
Cs0_6 S4_7 3.633199 1_554
Cs0_7 S2_3 3.483490 1_655
Cs0_7 S2_5 3.483490 1_555
Cs0_7 S1_5 3.555942 1_555
Cs0_7 S5_5 3.555942 1_555
Cs0_7 S1_3 3.555942 1_655
Cs0_7 S5_3 3.555942 1_655
Cs0_7 S0_7 3.633199 1_555
Cs0_7 S4_6 3.633199 1_555
Cs1_0 S3_4 3.483490 1_455
Cs1_0 S3_2 3.483490 1_555
Cs1_0 S4_2 3.555942 1_555
Cs1_0 S0_2 3.555942 1_555
Cs1_0 S4_4 3.555942 1_455
Cs1_0 S0_4 3.555942 1_455
Cs1_0 S5_1 3.633199 1_555
Cs1_0 S1_0 3.633199 1_555
Cs1_0 Cs1_6 3.785291 1_445
Cs1_0 Cs1_6 3.785291 1_555
Cs1_1 S3_5 3.483490 1_455
Cs1_1 S3_3 3.483490 1_555
Cs1_1 S4_3 3.555942 1_555
Cs1_1 S0_3 3.555942 1_555
Cs1_1 S4_5 3.555942 1_455
Cs1_1 S0_5 3.555942 1_455
Cs1_1 S5_0 3.633199 1_556
Cs1_1 S1_1 3.633199 1_555
Cs1_1 Cs1_7 3.785291 1_445
Cs1_1 Cs1_7 3.785291 1_555
Cs1_2 S3_6 3.483490 1_455
Cs1_2 S3_0 3.483490 1_565
Cs1_2 S4_0 3.555942 1_565
Cs1_2 S0_0 3.555942 1_565
Cs1_2 S4_6 3.555942 1_455
Cs1_2 S0_6 3.555942 1_455
Cs1_2 S5_3 3.633199 1_555
Cs1_2 S1_2 3.633199 1_555
Cs1_2 Cs1_4 3.785291 1_565
Cs1_2 Cs1_4 3.785291 1_455
Cs1_3 S3_7 3.483490 1_455
Cs1_3 S3_1 3.483490 1_565
Cs1_3 S4_1 3.555942 1_565
Cs1_3 S0_1 3.555942 1_565
Cs1_3 S4_7 3.555942 1_455
Cs1_3 S0_7 3.555942 1_455
Cs1_3 S5_2 3.633199 1_556
Cs1_3 S1_3 3.633199 1_555
Cs1_3 Cs1_5 3.785291 1_565
Cs1_3 Cs1_5 3.785291 1_455
Cs1_4 S3_0 3.483490 1_555
Cs1_4 S3_6 3.483490 1_555
Cs1_4 S4_6 3.555942 1_555
Cs1_4 S0_6 3.555942 1_555
Cs1_4 S4_0 3.555942 1_555
Cs1_4 S0_0 3.555942 1_555
Cs1_4 S5_5 3.633199 1_555
Cs1_4 S1_4 3.633199 1_555
Cs1_5 S3_1 3.483490 1_555
Cs1_5 S3_7 3.483490 1_555
Cs1_5 S4_7 3.555942 1_555
Cs1_5 S0_7 3.555942 1_555
Cs1_5 S4_1 3.555942 1_555
Cs1_5 S0_1 3.555942 1_555
Cs1_5 S5_4 3.633199 1_556
Cs1_5 S1_5 3.633199 1_555
Cs1_6 S3_2 3.483490 1_555
Cs1_6 S3_4 3.483490 1_565
Cs1_6 S4_4 3.555942 1_565
Cs1_6 S0_4 3.555942 1_565
Cs1_6 S4_2 3.555942 1_555
Cs1_6 S0_2 3.555942 1_555
Cs1_6 S5_7 3.633199 1_555
Cs1_6 S1_6 3.633199 1_555
Cs1_7 S3_3 3.483490 1_555
Cs1_7 S3_5 3.483490 1_565
Cs1_7 S4_5 3.555942 1_565
Cs1_7 S0_5 3.555942 1_565
Cs1_7 S4_3 3.555942 1_555
Cs1_7 S0_3 3.555942 1_555
Cs1_7 S5_6 3.633199 1_556
Cs1_7 S1_7 3.633199 1_555
Cu0_0 S4_0 2.280191 1_555
Cu0_0 S0_0 2.280191 1_555
Cu0_0 S3_2 2.329930 1_555
Cu0_0 S3_4 2.329930 1_455
Cu0_1 S4_1 2.280191 1_555
Cu0_1 S0_1 2.280191 1_555
Cu0_1 S3_3 2.329930 1_555
Cu0_1 S3_5 2.329930 1_455
Cu0_2 S4_2 2.280191 1_555
Cu0_2 S0_2 2.280191 1_555
Cu0_2 S3_0 2.329930 1_565
Cu0_2 S3_6 2.329930 1_455
Cu0_3 S4_3 2.280191 1_555
Cu0_3 S0_3 2.280191 1_555
Cu0_3 S3_1 2.329930 1_565
Cu0_3 S3_7 2.329930 1_455
Cu0_4 S4_4 2.280191 1_555
Cu0_4 S0_4 2.280191 1_555
Cu0_4 S3_6 2.329930 1_555
Cu0_4 S3_0 2.329930 1_555
Cu0_5 S4_5 2.280191 1_555
Cu0_5 S0_5 2.280191 1_555
Cu0_5 S3_7 2.329930 1_555
Cu0_5 S3_1 2.329930 1_555
Cu0_6 S4_6 2.280191 1_555
Cu0_6 S0_6 2.280191 1_555
Cu0_6 S3_4 2.329930 1_565
Cu0_6 S3_2 2.329930 1_555
Cu0_7 S4_7 2.280191 1_555
Cu0_7 S0_7 2.280191 1_555
Cu0_7 S3_5 2.329930 1_565
Cu0_7 S3_3 2.329930 1_555
Cu1_0 S1_0 2.280191 1_555
Cu1_0 S5_0 2.280191 1_555
Cu1_0 S2_2 2.329930 1_545
Cu1_0 S2_4 2.329930 1_555
Cu1_1 S1_1 2.280191 1_555
Cu1_1 S5_1 2.280191 1_555
Cu1_1 S2_3 2.329930 1_545
Cu1_1 S2_5 2.329930 1_555
Cu1_2 S1_2 2.280191 1_555
Cu1_2 S5_2 2.280191 1_555
Cu1_2 S2_0 2.329930 1_555
Cu1_2 S2_6 2.329930 1_555
Cu1_3 S1_3 2.280191 1_555
Cu1_3 S5_3 2.280191 1_555
Cu1_3 S2_1 2.329930 1_555
Cu1_3 S2_7 2.329930 1_555
Cu1_4 S1_4 2.280191 1_555
Cu1_4 S5_4 2.280191 1_555
Cu1_4 S2_6 2.329930 1_545
Cu1_4 S2_0 2.329930 1_655
Cu1_5 S1_5 2.280191 1_555
Cu1_5 S5_5 2.280191 1_555
Cu1_5 S2_7 2.329930 1_545
Cu1_5 S2_1 2.329930 1_655
Cu1_6 S1_6 2.280191 1_555
Cu1_6 S5_6 2.280191 1_555
Cu1_6 S2_4 2.329930 1_555
Cu1_6 S2_2 2.329930 1_655
Cu1_7 S1_7 2.280191 1_555
Cu1_7 S5_7 2.280191 1_555
Cu1_7 S2_5 2.329930 1_555
Cu1_7 S2_3 2.329930 1_655
S0_0 Zr0_6 2.598716 1_555
S0_0 Zr0_0 2.598716 1_555
S0_1 Zr0_7 2.598716 1_555
S0_1 Zr0_1 2.598716 1_555
S0_2 Zr0_4 2.598716 1_565
S0_2 Zr0_2 2.598716 1_555
S0_3 Zr0_5 2.598716 1_565
S0_3 Zr0_3 2.598716 1_555
S0_4 Zr0_2 2.598716 1_655
S0_4 Zr0_4 2.598716 1_555
S0_5 Zr0_3 2.598716 1_655
S0_5 Zr0_5 2.598716 1_555
S0_6 Zr0_0 2.598716 1_665
S0_6 Zr0_6 2.598716 1_555
S0_7 Zr0_1 2.598716 1_665
S0_7 Zr0_7 2.598716 1_555
S1_0 Zr0_0 2.598716 1_555
S1_0 Zr0_6 2.598716 1_555
S1_1 Zr0_1 2.598716 1_555
S1_1 Zr0_7 2.598716 1_555
S1_2 Zr0_2 2.598716 1_555
S1_2 Zr0_4 2.598716 1_565
S1_3 Zr0_3 2.598716 1_555
S1_3 Zr0_5 2.598716 1_565
S1_4 Zr0_4 2.598716 1_555
S1_4 Zr0_2 2.598716 1_655
S1_5 Zr0_5 2.598716 1_555
S1_5 Zr0_3 2.598716 1_655
S1_6 Zr0_6 2.598716 1_555
S1_6 Zr0_0 2.598716 1_665
S1_7 Zr0_7 2.598716 1_555
S1_7 Zr0_1 2.598716 1_665
S2_0 Zr0_2 2.606839 1_555
S2_0 Zr1_2 2.606839 1_555
S2_1 Zr0_3 2.606839 1_555
S2_1 Zr1_3 2.606839 1_555
S2_2 Zr1_0 2.606839 1_565
S2_2 Zr0_0 2.606839 1_565
S2_3 Zr0_1 2.606839 1_565
S2_3 Zr1_1 2.606839 1_565
S2_4 Zr1_6 2.606839 1_555
S2_4 Zr0_6 2.606839 1_555
S2_5 Zr0_7 2.606839 1_555
S2_5 Zr1_7 2.606839 1_555
S2_6 Zr1_4 2.606839 1_565
S2_6 Zr0_4 2.606839 1_565
S2_7 Zr0_5 2.606839 1_565
S2_7 Zr1_5 2.606839 1_565
S3_0 Zr0_4 2.606839 1_555
S3_0 Zr1_5 2.606839 1_555
S3_1 Zr1_4 2.606839 1_556
S3_1 Zr0_5 2.606839 1_555
S3_2 Zr1_7 2.606839 1_555
S3_2 Zr0_6 2.606839 1_555
S3_3 Zr1_6 2.606839 1_556
S3_3 Zr0_7 2.606839 1_555
S3_4 Zr0_0 2.606839 1_655
S3_4 Zr1_1 2.606839 1_655
S3_5 Zr0_1 2.606839 1_655
S3_5 Zr1_0 2.606839 1_656
S3_6 Zr0_2 2.606839 1_655
S3_6 Zr1_3 2.606839 1_655
S3_7 Zr0_3 2.606839 1_655
S3_7 Zr1_2 2.606839 1_656
S4_0 Zr1_7 2.598716 1_555
S4_0 Zr1_1 2.598716 1_555
S4_1 Zr1_6 2.598716 1_556
S4_1 Zr1_0 2.598716 1_556
S4_2 Zr1_5 2.598716 1_565
S4_2 Zr1_3 2.598716 1_555
S4_3 Zr1_4 2.598716 1_566
S4_3 Zr1_2 2.598716 1_556
S4_4 Zr1_3 2.598716 1_655
S4_4 Zr1_5 2.598716 1_555
S4_5 Zr1_2 2.598716 1_656
S4_5 Zr1_4 2.598716 1_556
S4_6 Zr1_1 2.598716 1_665
S4_6 Zr1_7 2.598716 1_555
S4_7 Zr1_0 2.598716 1_666
S4_7 Zr1_6 2.598716 1_556
S5_0 Zr1_0 2.598716 1_555
S5_0 Zr1_6 2.598716 1_555
S5_1 Zr1_1 2.598716 1_555
S5_1 Zr1_7 2.598716 1_555
S5_2 Zr1_2 2.598716 1_555
S5_2 Zr1_4 2.598716 1_565
S5_3 Zr1_3 2.598716 1_555
S5_3 Zr1_5 2.598716 1_565
S5_4 Zr1_4 2.598716 1_555
S5_4 Zr1_2 2.598716 1_655
S5_5 Zr1_5 2.598716 1_555
S5_5 Zr1_3 2.598716 1_655
S5_6 Zr1_6 2.598716 1_555
S5_6 Zr1_0 2.598716 1_665
S5_7 Zr1_7 2.598716 1_555
S5_7 Zr1_1 2.598716 1_665
