# generated using pymatgen
data_K3NaCdCl6
_symmetry_space_group_name_H-M   'P 1'
_cell_length_a   8.43668652
_cell_length_b   8.43668577
_cell_length_c   8.43668558
_cell_angle_alpha   92.18131365
_cell_angle_beta   92.18131293
_cell_angle_gamma   92.18131494
_symmetry_Int_Tables_number   1
_chemical_formula_structural   K3NaCdCl6
_chemical_formula_sum   'K6 Na2 Cd2 Cl12'
_cell_volume   599.16410984
_cell_formula_units_Z   2
loop_
 _symmetry_equiv_pos_site_id
 _symmetry_equiv_pos_as_xyz
  1  'x, y, z'
loop_
 _atom_site_type_symbol
 _atom_site_label
 _atom_site_symmetry_multiplicity
 _atom_site_fract_x
 _atom_site_fract_y
 _atom_site_fract_z
 _atom_site_occupancy
  K  K0  1  0.12885324  0.37114676  0.75000000  1
  K  K1  1  0.75000000  0.12885324  0.37114676  1
  K  K2  1  0.37114676  0.75000000  0.12885324  1
  K  K3  1  0.25000000  0.87114676  0.62885324  1
  K  K4  1  0.62885324  0.25000000  0.87114676  1
  K  K5  1  0.87114676  0.62885324  0.25000000  1
  Na  Na0  1  0.25000000  0.25000000  0.25000000  1
  Na  Na1  1  0.75000000  0.75000000  0.75000000  1
  Cd  Cd0  1  0.50000000  0.50000000  0.50000000  1
  Cd  Cd1  1  0.00000000  0.00000000  0.00000000  1
  Cl  Cl0  1  0.20159099  0.54469100  0.41513344  1
  Cl  Cl1  1  0.41513344  0.20159099  0.54469100  1
  Cl  Cl2  1  0.54469100  0.41513344  0.20159099  1
  Cl  Cl3  1  0.91513344  0.04469100  0.70159099  1
  Cl  Cl4  1  0.70159099  0.91513344  0.04469100  1
  Cl  Cl5  1  0.04469100  0.70159099  0.91513344  1
  Cl  Cl6  1  0.79840901  0.45530900  0.58486656  1
  Cl  Cl7  1  0.58486656  0.79840901  0.45530900  1
  Cl  Cl8  1  0.45530900  0.58486656  0.79840901  1
  Cl  Cl9  1  0.08486656  0.95530900  0.29840901  1
  Cl  Cl10  1  0.29840901  0.08486656  0.95530900  1
  Cl  Cl11  1  0.95530900  0.29840901  0.08486656  1
loop_
_geom_bond_atom_site_label_1
_geom_bond_atom_site_label_2
_geom_bond_distance
_geom_bond_site_symmetry_2
Cd0 Cl8 2.636024 1_555
Cd0 Cl2 2.636024 1_555
Cd0 Cl1 2.636024 1_555
Cd0 Cl7 2.636024 1_555
Cd0 Cl6 2.636024 1_555
Cd0 Cl0 2.636024 1_555
Cd1 Cl9 2.636024 1_545
Cd1 Cl3 2.636024 1_454
Cd1 Cl11 2.636024 1_455
Cd1 Cl5 2.636024 1_544
Cd1 Cl10 2.636024 1_554
Cd1 Cl4 2.636024 1_445
Cl0 Na0 2.854111 1_555
Cl0 K5 3.185527 1_455
Cl0 K3 3.237876 1_555
Cl0 K0 3.298530 1_555
Cl0 K2 3.357511 1_555
Cl1 Na0 2.854111 1_555
Cl1 K3 3.185526 1_545
Cl1 K4 3.237876 1_555
Cl1 K1 3.298530 1_555
Cl1 K0 3.357511 1_555
Cl2 Na0 2.854111 1_555
Cl2 K4 3.185526 1_554
Cl2 K5 3.237877 1_555
Cl2 K2 3.298530 1_555
Cl2 K1 3.357511 1_555
Cl3 Na1 2.854111 1_545
Cl3 K1 3.185526 1_555
Cl3 K0 3.237876 1_655
Cl3 K3 3.298530 1_645
Cl3 K4 3.357511 1_555
Cl4 Na1 2.854111 1_554
Cl4 K2 3.185527 1_555
Cl4 K1 3.237876 1_565
Cl4 K4 3.298530 1_564
Cl4 K5 3.357511 1_555
Cl5 Na1 2.854111 1_455
Cl5 K0 3.185526 1_555
Cl5 K2 3.237877 1_556
Cl5 K5 3.298530 1_456
Cl5 K3 3.357511 1_555
Cl6 Na1 2.854111 1_555
Cl6 K0 3.185527 1_655
Cl6 K1 3.237876 1_555
Cl6 K5 3.298530 1_555
Cl6 K4 3.357511 1_555
Cl7 Na1 2.854111 1_555
Cl7 K1 3.185526 1_565
Cl7 K2 3.237876 1_555
Cl7 K3 3.298530 1_555
Cl7 K5 3.357511 1_555
Cl8 Na1 2.854111 1_555
Cl8 K2 3.185526 1_556
Cl8 K0 3.237877 1_555
Cl8 K4 3.298530 1_555
Cl8 K3 3.357511 1_555
Cl9 Na0 2.854111 1_565
Cl9 K3 3.185526 1_555
Cl9 K5 3.237876 1_455
Cl9 K1 3.298530 1_465
Cl9 K2 3.357511 1_555
Cl10 Na0 2.854111 1_556
Cl10 K4 3.185527 1_555
Cl10 K3 3.237876 1_545
Cl10 K2 3.298530 1_546
Cl10 K0 3.357511 1_555
Cl11 Na0 2.854111 1_655
Cl11 K5 3.185526 1_555
Cl11 K4 3.237877 1_554
Cl11 K0 3.298530 1_654
Cl11 K1 3.357511 1_555
