# generated using pymatgen
data_Y2Ga2(SiPt)3
_symmetry_space_group_name_H-M   'P 1'
_cell_length_a   8.25936240
_cell_length_b   8.25936302
_cell_length_c   8.25936240
_cell_angle_alpha   137.66276160
_cell_angle_beta   104.86424737
_cell_angle_gamma   90.24504265
_symmetry_Int_Tables_number   1
_chemical_formula_structural   Y2Ga2(SiPt)3
_chemical_formula_sum   'Y4 Ga4 Si6 Pt6'
_cell_volume   350.11837363
_cell_formula_units_Z   2
loop_
 _symmetry_equiv_pos_site_id
 _symmetry_equiv_pos_as_xyz
  1  'x, y, z'
loop_
 _atom_site_type_symbol
 _atom_site_label
 _atom_site_symmetry_multiplicity
 _atom_site_fract_x
 _atom_site_fract_y
 _atom_site_fract_z
 _atom_site_occupancy
  Y  Y0  1  0.63478398  0.36823591  0.26654907  1
  Y  Y1  1  0.36521602  0.63176409  0.73345093  1
  Y  Y2  1  0.10168585  0.86823591  0.23345093  1
  Y  Y3  1  0.89831415  0.13176409  0.76654907  1
  Ga  Ga0  1  0.26801796  0.51801796  0.25000000  1
  Ga  Ga1  1  0.73198204  0.48198204  0.75000000  1
  Ga  Ga2  1  0.73198204  0.98198204  0.25000000  1
  Ga  Ga3  1  0.26801796  0.01801796  0.75000000  1
  Si  Si0  1  0.45765781  0.10723727  0.35041954  1
  Si  Si1  1  0.54234219  0.89276273  0.64958046  1
  Si  Si2  1  0.75681774  0.60723727  0.14958046  1
  Si  Si3  1  0.24318226  0.39276273  0.85041954  1
  Si  Si4  1  0.00000000  0.25000000  0.25000000  1
  Si  Si5  1  0.00000000  0.75000000  0.75000000  1
  Pt  Pt0  1  0.24799182  0.12768808  0.12030274  1
  Pt  Pt1  1  0.75200818  0.87231192  0.87969726  1
  Pt  Pt2  1  0.00738534  0.62768808  0.37969726  1
  Pt  Pt3  1  0.99261466  0.37231192  0.62030274  1
  Pt  Pt4  1  0.50000000  0.25000000  0.75000000  1
  Pt  Pt5  1  0.50000000  0.75000000  0.25000000  1
loop_
_geom_bond_atom_site_label_1
_geom_bond_atom_site_label_2
_geom_bond_distance
_geom_bond_site_symmetry_2
Ga0 Pt2 2.523332 1_555
Ga0 Pt0 2.523333 1_555
Ga0 Si1 2.570496 1_555
Ga0 Si3 2.570500 1_554
Ga0 Pt5 2.703866 1_555
Ga0 Ga3 2.982571 1_554
Ga0 Ga3 2.982571 1_565
Ga0 Y3 3.205325 1_454
Ga0 Y1 3.205329 1_555
Ga0 Y0 3.285589 1_555
Ga0 Y2 3.285600 1_555
Ga1 Pt3 2.523332 1_555
Ga1 Pt1 2.523333 1_555
Ga1 Si0 2.570496 1_555
Ga1 Si2 2.570500 1_556
Ga1 Pt4 2.703866 1_555
Ga1 Ga2 2.982571 1_545
Ga1 Ga2 2.982571 1_556
Ga1 Y2 3.205325 1_656
Ga1 Y0 3.205329 1_555
Ga1 Y1 3.285589 1_555
Ga1 Y3 3.285600 1_555
Ga2 Pt1 2.523329 1_554
Ga2 Pt3 2.523332 1_565
Ga2 Si0 2.570492 1_565
Ga2 Si2 2.570500 1_555
Ga2 Pt5 2.703866 1_555
Ga2 Y2 3.205322 1_655
Ga2 Y0 3.205332 1_565
Ga2 Y1 3.285591 1_554
Ga2 Y3 3.285597 1_565
Ga3 Pt0 2.523329 1_556
Ga3 Pt2 2.523332 1_545
Ga3 Si1 2.570492 1_545
Ga3 Si3 2.570500 1_555
Ga3 Pt4 2.703866 1_555
Ga3 Y3 3.205322 1_455
Ga3 Y1 3.205332 1_545
Ga3 Y0 3.285591 1_556
Ga3 Y2 3.285597 1_545
Si0 Y2 3.024549 1_545
Si0 Y0 3.157158 1_555
Si0 Y1 3.219510 1_544
Si0 Y1 3.219510 1_555
Si1 Y3 3.024549 1_565
Si1 Y1 3.157158 1_555
Si1 Y0 3.219510 1_566
Si1 Y0 3.219510 1_555
Si2 Y0 3.024538 1_555
Si2 Y2 3.157160 1_655
Si2 Y3 3.219510 1_565
Si2 Y3 3.219515 1_554
Si3 Y1 3.024538 1_555
Si3 Y3 3.157160 1_455
Si3 Y2 3.219510 1_545
Si3 Y2 3.219515 1_556
Si4 Y2 3.179725 1_545
Si4 Y3 3.179728 1_454
Si4 Y1 3.179732 1_555
Si4 Y0 3.179735 1_455
Si5 Y3 3.179725 1_465
Si5 Y2 3.179728 1_556
Si5 Y0 3.179732 1_455
Si5 Y1 3.179735 1_555
Pt0 Si0 2.329842 1_555
Pt0 Si5 2.430418 1_544
Pt0 Si4 2.430422 1_555
Pt0 Y0 3.167041 1_555
Pt0 Y1 3.193212 1_555
Pt0 Y1 3.193212 1_544
Pt0 Y2 3.231642 1_545
Pt1 Si1 2.329842 1_555
Pt1 Si4 2.430418 1_666
Pt1 Si5 2.430422 1_655
Pt1 Y1 3.167041 1_555
Pt1 Y0 3.193212 1_555
Pt1 Y0 3.193212 1_566
Pt1 Y3 3.231642 1_565
Pt2 Si2 2.329842 1_455
Pt2 Si5 2.430414 1_555
Pt2 Si4 2.430414 1_555
Pt2 Y2 3.167054 1_555
Pt2 Y3 3.193208 1_465
Pt2 Y3 3.193213 1_454
Pt2 Y0 3.231642 1_455
Pt3 Si3 2.329842 1_655
Pt3 Si4 2.430414 1_655
Pt3 Si5 2.430414 1_655
Pt3 Y3 3.167054 1_555
Pt3 Y2 3.193208 1_645
Pt3 Y2 3.193213 1_656
Pt3 Y1 3.231642 1_655
Pt4 Si1 2.460836 1_545
Pt4 Si2 2.460838 1_556
Pt4 Si3 2.460838 1_555
Pt4 Si0 2.460840 1_555
Pt4 Pt5 2.982571 1_556
Pt4 Pt5 2.982571 1_545
Pt4 Y1 3.433555 1_555
Pt4 Y0 3.433557 1_556
Pt4 Y2 3.433562 1_545
Pt4 Y3 3.433565 1_555
Pt5 Si0 2.460836 1_565
Pt5 Si3 2.460838 1_554
Pt5 Si2 2.460838 1_555
Pt5 Si1 2.460840 1_555
Pt5 Y0 3.433555 1_555
Pt5 Y1 3.433557 1_554
Pt5 Y3 3.433562 1_565
Pt5 Y2 3.433565 1_555
