# generated using pymatgen
data_Rb2VNiSe4
_symmetry_space_group_name_H-M   'P 1'
_cell_length_a   14.09900928
_cell_length_b   12.63356502
_cell_length_c   7.41473119
_cell_angle_alpha   85.16128511
_cell_angle_beta   63.23574319
_cell_angle_gamma   31.60296728
_symmetry_Int_Tables_number   1
_chemical_formula_structural   Rb2VNiSe4
_chemical_formula_sum   'Rb4 V2 Ni2 Se8'
_cell_volume   475.10490545
_cell_formula_units_Z   2
loop_
 _symmetry_equiv_pos_site_id
 _symmetry_equiv_pos_as_xyz
  1  'x, y, z'
loop_
 _atom_site_type_symbol
 _atom_site_label
 _atom_site_symmetry_multiplicity
 _atom_site_fract_x
 _atom_site_fract_y
 _atom_site_fract_z
 _atom_site_occupancy
  Rb  Rb0  1  0.57179437  0.57179437  0.92820563  1
  Rb  Rb1  1  0.92820563  0.92820563  0.57179437  1
  Rb  Rb2  1  0.32179437  0.32179437  0.67820563  1
  Rb  Rb3  1  0.67820563  0.67820563  0.32179437  1
  V  V0  1  0.75000000  0.75000000  0.75000000  1
  V  V1  1  0.50000000  0.50000000  0.50000000  1
  Ni  Ni0  1  0.00000000  0.00000000  0.00000000  1
  Ni  Ni1  1  0.25000000  0.25000000  0.25000000  1
  Se  Se0  1  0.21839528  0.89018129  0.59234880  1
  Se  Se1  1  0.29907363  0.59234880  0.89018129  1
  Se  Se2  1  0.59234880  0.29907363  0.21839528  1
  Se  Se3  1  0.89018129  0.21839528  0.29907363  1
  Se  Se4  1  0.35981871  0.03160472  0.95092637  1
  Se  Se5  1  0.95092637  0.65765120  0.35981871  1
  Se  Se6  1  0.65765120  0.95092637  0.03160472  1
  Se  Se7  1  0.03160472  0.35981871  0.65765120  1
loop_
_geom_bond_atom_site_label_1
_geom_bond_atom_site_label_2
_geom_bond_distance
_geom_bond_site_symmetry_2
Rb0 Se0 3.515632 1_556
Rb0 Se3 3.515638 1_555
Rb0 Se4 3.583851 1_565
Rb0 Se7 3.583852 1_655
Rb0 Se0 3.593302 1_645
Rb0 Se3 3.593303 1_466
Rb0 Se2 3.767605 1_556
Rb0 Se1 3.767608 1_555
Rb1 Se2 3.515631 1_655
Rb1 Se1 3.515633 1_565
Rb1 Se5 3.583840 1_555
Rb1 Se6 3.583843 1_556
Rb1 Se2 3.593299 1_566
Rb1 Se1 3.593305 1_654
Rb1 Se0 3.767594 1_655
Rb1 Se3 3.767598 1_565
Rb2 Se6 3.515631 1_456
Rb2 Se5 3.515633 1_545
Rb2 Se1 3.583840 1_555
Rb2 Se2 3.583843 1_555
Rb2 Se6 3.593299 1_545
Rb2 Se5 3.593305 1_456
Rb2 Se7 3.767594 1_555
Rb2 Se4 3.767598 1_555
Rb3 Se7 3.515632 1_654
Rb3 Se4 3.515638 1_565
Rb3 Se3 3.583851 1_555
Rb3 Se0 3.583852 1_555
Rb3 Se7 3.593302 1_565
Rb3 Se4 3.593303 1_654
Rb3 Se6 3.767605 1_555
Rb3 Se5 3.767608 1_555
Ni0 Se3 2.364410 1_455
Ni0 Se0 2.364415 1_544
Ni0 Se1 2.364418 1_544
Ni0 Se2 2.364419 1_455
Ni0 V1 2.810969 1_544
Ni0 V1 2.810969 1_455
Ni1 Se4 2.364410 1_554
Ni1 Se7 2.364415 1_555
Ni1 Se5 2.364418 1_455
Ni1 Se6 2.364419 1_545
Ni1 V0 2.810969 1_544
Ni1 V0 2.810969 1_455
Se0 V1 2.305293 1_555
Se1 V1 2.305297 1_555
Se2 V1 2.305303 1_555
Se3 V1 2.305291 1_555
Se4 V0 2.305291 1_545
Se5 V0 2.305297 1_555
Se6 V0 2.305303 1_554
Se7 V0 2.305293 1_455
