# generated using pymatgen
data_Ba3LuScO6
_symmetry_space_group_name_H-M   'P 1'
_cell_length_a   7.18145721
_cell_length_b   7.18145738
_cell_length_c   7.18145711
_cell_angle_alpha   93.55816583
_cell_angle_beta   93.55816512
_cell_angle_gamma   93.55816746
_symmetry_Int_Tables_number   1
_chemical_formula_structural   Ba3LuScO6
_chemical_formula_sum   'Ba6 Lu2 Sc2 O12'
_cell_volume   368.13654827
_cell_formula_units_Z   2
loop_
 _symmetry_equiv_pos_site_id
 _symmetry_equiv_pos_as_xyz
  1  'x, y, z'
loop_
 _atom_site_type_symbol
 _atom_site_label
 _atom_site_symmetry_multiplicity
 _atom_site_fract_x
 _atom_site_fract_y
 _atom_site_fract_z
 _atom_site_occupancy
  Ba  Ba0  1  0.61104239  0.25000000  0.88895761  1
  Ba  Ba1  1  0.88895761  0.61104239  0.25000000  1
  Ba  Ba2  1  0.75000000  0.11104239  0.38895761  1
  Ba  Ba3  1  0.38895761  0.75000000  0.11104239  1
  Ba  Ba4  1  0.11104239  0.38895761  0.75000000  1
  Ba  Ba5  1  0.25000000  0.88895761  0.61104239  1
  Lu  Lu0  1  0.25000000  0.25000000  0.25000000  1
  Lu  Lu1  1  0.75000000  0.75000000  0.75000000  1
  Sc  Sc0  1  0.00000000  0.00000000  0.00000000  1
  Sc  Sc1  1  0.50000000  0.50000000  0.50000000  1
  O  O0  1  0.59903937  0.78285910  0.47209695  1
  O  O1  1  0.47209695  0.59903937  0.78285910  1
  O  O2  1  0.78285910  0.47209695  0.59903937  1
  O  O3  1  0.90096063  0.02790305  0.71714090  1
  O  O4  1  0.71714090  0.90096063  0.02790305  1
  O  O5  1  0.02790305  0.71714090  0.90096063  1
  O  O6  1  0.40096063  0.21714090  0.52790305  1
  O  O7  1  0.52790305  0.40096063  0.21714090  1
  O  O8  1  0.21714090  0.52790305  0.40096063  1
  O  O9  1  0.09903937  0.97209695  0.28285910  1
  O  O10  1  0.97209695  0.28285910  0.09903937  1
  O  O11  1  0.28285910  0.09903937  0.97209695  1
loop_
_geom_bond_atom_site_label_1
_geom_bond_atom_site_label_2
_geom_bond_distance
_geom_bond_site_symmetry_2
Ba0 O11 2.650344 1_555
Ba0 O7 2.650344 1_556
Ba0 O4 2.883135 1_546
Ba0 O1 2.883135 1_555
Ba0 O6 2.906762 1_555
Ba0 O10 2.906762 1_556
Ba0 O2 2.981294 1_555
Ba0 O3 2.981294 1_555
Ba1 O8 2.650344 1_655
Ba1 O10 2.650344 1_555
Ba1 O5 2.883135 1_654
Ba1 O2 2.883135 1_555
Ba1 O7 2.906762 1_555
Ba1 O9 2.906762 1_655
Ba1 O0 2.981294 1_555
Ba1 O4 2.981294 1_555
Ba2 O3 2.650344 1_555
Ba2 O0 2.650344 1_545
Ba2 O6 2.883135 1_555
Ba2 O9 2.883135 1_645
Ba2 O4 2.906762 1_545
Ba2 O2 2.906762 1_555
Ba2 O10 2.981294 1_555
Ba2 O7 2.981294 1_555
Ba3 O4 2.650344 1_555
Ba3 O1 2.650344 1_554
Ba3 O11 2.883135 1_564
Ba3 O7 2.883135 1_555
Ba3 O0 2.906762 1_555
Ba3 O5 2.906762 1_554
Ba3 O8 2.981294 1_555
Ba3 O9 2.981294 1_555
Ba4 O2 2.650344 1_455
Ba4 O5 2.650344 1_555
Ba4 O10 2.883135 1_456
Ba4 O8 2.883135 1_555
Ba4 O1 2.906762 1_555
Ba4 O3 2.906762 1_455
Ba4 O6 2.981294 1_555
Ba4 O11 2.981294 1_555
Ba5 O9 2.650344 1_555
Ba5 O6 2.650344 1_565
Ba5 O0 2.883135 1_555
Ba5 O3 2.883135 1_465
Ba5 O11 2.906762 1_565
Ba5 O8 2.906762 1_555
Ba5 O5 2.981294 1_555
Ba5 O1 2.981294 1_555
Lu0 O7 2.244028 1_555
Lu0 O11 2.244028 1_554
Lu0 O6 2.244028 1_555
Lu0 O9 2.244028 1_545
Lu0 O10 2.244028 1_455
Lu0 O8 2.244028 1_555
Lu1 O1 2.244028 1_555
Lu1 O4 2.244028 1_556
Lu1 O0 2.244028 1_555
Lu1 O3 2.244028 1_565
Lu1 O5 2.244028 1_655
Lu1 O2 2.244028 1_555
O0 Sc1 2.135709 1_555
O1 Sc1 2.135709 1_555
O2 Sc1 2.135709 1_555
O3 Sc0 2.135709 1_656
O4 Sc0 2.135709 1_665
O5 Sc0 2.135709 1_566
O6 Sc1 2.135709 1_555
O7 Sc1 2.135709 1_555
O8 Sc1 2.135709 1_555
O9 Sc0 2.135709 1_565
O10 Sc0 2.135709 1_655
O11 Sc0 2.135709 1_556
