# generated using pymatgen
data_Hf4CdPbC2
_symmetry_space_group_name_H-M   'P 1'
_cell_length_a   6.64380660
_cell_length_b   6.64380487
_cell_length_c   29.57537547
_cell_angle_alpha   90.00000000
_cell_angle_beta   90.00000000
_cell_angle_gamma   119.99998893
_symmetry_Int_Tables_number   1
_chemical_formula_structural   Hf4CdPbC2
_chemical_formula_sum   'Hf32 Cd8 Pb8 C16'
_cell_volume   1130.56307603
_cell_formula_units_Z   8
loop_
 _symmetry_equiv_pos_site_id
 _symmetry_equiv_pos_as_xyz
  1  'x, y, z'
loop_
 _atom_site_type_symbol
 _atom_site_label
 _atom_site_symmetry_multiplicity
 _atom_site_fract_x
 _atom_site_fract_y
 _atom_site_fract_z
 _atom_site_occupancy
  Hf  Hf0_0  1  0.16666650  0.33333350  0.20889529  1
  Hf  Hf0_1  1  0.16666650  0.33333350  0.70889529  1
  Hf  Hf0_2  1  0.16666650  0.83333350  0.20889529  1
  Hf  Hf0_3  1  0.16666650  0.83333350  0.70889529  1
  Hf  Hf0_4  1  0.66666650  0.33333350  0.20889529  1
  Hf  Hf0_5  1  0.66666650  0.33333350  0.70889529  1
  Hf  Hf0_6  1  0.66666650  0.83333350  0.20889529  1
  Hf  Hf0_7  1  0.66666650  0.83333350  0.70889529  1
  Hf  Hf1_0  1  0.33333350  0.16666650  0.29066422  1
  Hf  Hf1_1  1  0.33333350  0.16666650  0.79066422  1
  Hf  Hf1_2  1  0.33333350  0.66666650  0.29066422  1
  Hf  Hf1_3  1  0.33333350  0.66666650  0.79066422  1
  Hf  Hf1_4  1  0.83333350  0.16666650  0.29066422  1
  Hf  Hf1_5  1  0.83333350  0.16666650  0.79066422  1
  Hf  Hf1_6  1  0.83333350  0.66666650  0.29066422  1
  Hf  Hf1_7  1  0.83333350  0.66666650  0.79066422  1
  Hf  Hf2_0  1  0.33333350  0.16666650  0.45933578  1
  Hf  Hf2_1  1  0.33333350  0.16666650  0.95933578  1
  Hf  Hf2_2  1  0.33333350  0.66666650  0.45933578  1
  Hf  Hf2_3  1  0.33333350  0.66666650  0.95933578  1
  Hf  Hf2_4  1  0.83333350  0.16666650  0.45933578  1
  Hf  Hf2_5  1  0.83333350  0.16666650  0.95933578  1
  Hf  Hf2_6  1  0.83333350  0.66666650  0.45933578  1
  Hf  Hf2_7  1  0.83333350  0.66666650  0.95933578  1
  Hf  Hf3_0  1  0.16666650  0.33333350  0.04110471  1
  Hf  Hf3_1  1  0.16666650  0.33333350  0.54110471  1
  Hf  Hf3_2  1  0.16666650  0.83333350  0.04110471  1
  Hf  Hf3_3  1  0.16666650  0.83333350  0.54110471  1
  Hf  Hf3_4  1  0.66666650  0.33333350  0.04110471  1
  Hf  Hf3_5  1  0.66666650  0.33333350  0.54110471  1
  Hf  Hf3_6  1  0.66666650  0.83333350  0.04110471  1
  Hf  Hf3_7  1  0.66666650  0.83333350  0.54110471  1
  Cd  Cd0_0  1  0.16666650  0.33333350  0.37500000  1
  Cd  Cd0_1  1  0.16666650  0.33333350  0.87500000  1
  Cd  Cd0_2  1  0.16666650  0.83333350  0.37500000  1
  Cd  Cd0_3  1  0.16666650  0.83333350  0.87500000  1
  Cd  Cd0_4  1  0.66666650  0.33333350  0.37500000  1
  Cd  Cd0_5  1  0.66666650  0.33333350  0.87500000  1
  Cd  Cd0_6  1  0.66666650  0.83333350  0.37500000  1
  Cd  Cd0_7  1  0.66666650  0.83333350  0.87500000  1
  Pb  Pb0_0  1  0.33333350  0.16666650  0.12500000  1
  Pb  Pb0_1  1  0.33333350  0.16666650  0.62500000  1
  Pb  Pb0_2  1  0.33333350  0.66666650  0.12500000  1
  Pb  Pb0_3  1  0.33333350  0.66666650  0.62500000  1
  Pb  Pb0_4  1  0.83333350  0.16666650  0.12500000  1
  Pb  Pb0_5  1  0.83333350  0.16666650  0.62500000  1
  Pb  Pb0_6  1  0.83333350  0.66666650  0.12500000  1
  Pb  Pb0_7  1  0.83333350  0.66666650  0.62500000  1
  C  C0_0  1  0.00000000  0.00000000  0.24956675  1
  C  C0_1  1  0.00000000  0.00000000  0.74956675  1
  C  C0_2  1  0.00000000  0.50000000  0.24956675  1
  C  C0_3  1  0.00000000  0.50000000  0.74956675  1
  C  C0_4  1  0.50000000  0.00000000  0.24956675  1
  C  C0_5  1  0.50000000  0.00000000  0.74956675  1
  C  C0_6  1  0.50000000  0.50000000  0.24956675  1
  C  C0_7  1  0.50000000  0.50000000  0.74956675  1
  C  C1_0  1  0.00000000  0.00000000  0.00043325  1
  C  C1_1  1  0.00000000  0.00000000  0.50043325  1
  C  C1_2  1  0.00000000  0.50000000  0.00043325  1
  C  C1_3  1  0.00000000  0.50000000  0.50043325  1
  C  C1_4  1  0.50000000  0.00000000  0.00043325  1
  C  C1_5  1  0.50000000  0.00000000  0.50043325  1
  C  C1_6  1  0.50000000  0.50000000  0.00043325  1
  C  C1_7  1  0.50000000  0.50000000  0.50043325  1
loop_
_geom_bond_atom_site_label_1
_geom_bond_atom_site_label_2
_geom_bond_distance
_geom_bond_site_symmetry_2
Hf0_0 Pb0_2 3.136059 1_555
Hf0_0 Pb0_4 3.136059 1_455
Hf0_0 Pb0_0 3.136062 1_555
Hf0_1 Pb0_3 3.136059 1_555
Hf0_1 Pb0_5 3.136059 1_455
Hf0_1 Pb0_1 3.136062 1_555
Hf0_2 Pb0_0 3.136059 1_565
Hf0_2 Pb0_6 3.136059 1_455
Hf0_2 Pb0_2 3.136062 1_555
Hf0_3 Pb0_1 3.136059 1_565
Hf0_3 Pb0_7 3.136059 1_455
Hf0_3 Pb0_3 3.136062 1_555
Hf0_4 Pb0_6 3.136059 1_555
Hf0_4 Pb0_0 3.136059 1_555
Hf0_4 Pb0_4 3.136062 1_555
Hf0_5 Pb0_7 3.136059 1_555
Hf0_5 Pb0_1 3.136059 1_555
Hf0_5 Pb0_5 3.136062 1_555
Hf0_6 Pb0_4 3.136059 1_565
Hf0_6 Pb0_2 3.136059 1_555
Hf0_6 Pb0_6 3.136062 1_555
Hf0_7 Pb0_5 3.136059 1_565
Hf0_7 Pb0_3 3.136059 1_555
Hf0_7 Pb0_7 3.136062 1_555
Hf3_0 Pb0_2 3.136059 1_555
Hf3_0 Pb0_4 3.136059 1_455
Hf3_0 Pb0_0 3.136062 1_555
Hf3_1 Pb0_3 3.136059 1_555
Hf3_1 Pb0_5 3.136059 1_455
Hf3_1 Pb0_1 3.136062 1_555
Hf3_2 Pb0_0 3.136059 1_565
Hf3_2 Pb0_6 3.136059 1_455
Hf3_2 Pb0_2 3.136062 1_555
Hf3_3 Pb0_1 3.136059 1_565
Hf3_3 Pb0_7 3.136059 1_455
Hf3_3 Pb0_3 3.136062 1_555
Hf3_4 Pb0_6 3.136059 1_555
Hf3_4 Pb0_0 3.136059 1_555
Hf3_4 Pb0_4 3.136062 1_555
Hf3_5 Pb0_7 3.136059 1_555
Hf3_5 Pb0_1 3.136059 1_555
Hf3_5 Pb0_5 3.136062 1_555
Hf3_6 Pb0_4 3.136059 1_565
Hf3_6 Pb0_2 3.136059 1_555
Hf3_6 Pb0_6 3.136062 1_555
Hf3_7 Pb0_5 3.136059 1_565
Hf3_7 Pb0_3 3.136059 1_555
Hf3_7 Pb0_7 3.136062 1_555
Cd0_0 Hf2_2 3.146376 1_555
Cd0_0 Hf1_2 3.146376 1_555
Cd0_0 Hf2_4 3.146376 1_455
Cd0_0 Hf1_4 3.146376 1_455
Cd0_0 Hf2_0 3.146380 1_555
Cd0_0 Hf1_0 3.146380 1_555
Cd0_0 Cd0_2 3.321902 1_545
Cd0_0 Cd0_2 3.321902 1_555
Cd0_0 Cd0_4 3.321903 1_555
Cd0_0 Cd0_4 3.321903 1_455
Cd0_0 Cd0_6 3.321903 1_445
Cd0_0 Cd0_6 3.321903 1_555
Cd0_1 Hf2_3 3.146376 1_555
Cd0_1 Hf1_3 3.146376 1_555
Cd0_1 Hf2_5 3.146376 1_455
Cd0_1 Hf1_5 3.146376 1_455
Cd0_1 Hf2_1 3.146380 1_555
Cd0_1 Hf1_1 3.146380 1_555
Cd0_1 Cd0_3 3.321902 1_555
Cd0_1 Cd0_3 3.321902 1_545
Cd0_1 Cd0_5 3.321903 1_455
Cd0_1 Cd0_5 3.321903 1_555
Cd0_1 Cd0_7 3.321903 1_555
Cd0_1 Cd0_7 3.321903 1_445
Cd0_2 Hf2_0 3.146376 1_565
Cd0_2 Hf1_0 3.146376 1_565
Cd0_2 Hf2_6 3.146376 1_455
Cd0_2 Hf1_6 3.146376 1_455
Cd0_2 Hf2_2 3.146380 1_555
Cd0_2 Hf1_2 3.146380 1_555
Cd0_2 Cd0_6 3.321903 1_555
Cd0_2 Cd0_6 3.321903 1_455
Cd0_2 Cd0_4 3.321903 1_455
Cd0_2 Cd0_4 3.321903 1_565
Cd0_3 Hf2_1 3.146376 1_565
Cd0_3 Hf1_1 3.146376 1_565
Cd0_3 Hf2_7 3.146376 1_455
Cd0_3 Hf1_7 3.146376 1_455
Cd0_3 Hf2_3 3.146380 1_555
Cd0_3 Hf1_3 3.146380 1_555
Cd0_3 Cd0_7 3.321903 1_455
Cd0_3 Cd0_7 3.321903 1_555
Cd0_3 Cd0_5 3.321903 1_455
Cd0_3 Cd0_5 3.321903 1_565
Cd0_4 Hf2_6 3.146376 1_555
Cd0_4 Hf1_6 3.146376 1_555
Cd0_4 Hf2_0 3.146376 1_555
Cd0_4 Hf1_0 3.146376 1_555
Cd0_4 Hf2_4 3.146380 1_555
Cd0_4 Hf1_4 3.146380 1_555
Cd0_4 Cd0_6 3.321902 1_555
Cd0_4 Cd0_6 3.321902 1_545
Cd0_5 Hf2_7 3.146376 1_555
Cd0_5 Hf1_7 3.146376 1_555
Cd0_5 Hf2_1 3.146376 1_555
Cd0_5 Hf1_1 3.146376 1_555
Cd0_5 Hf2_5 3.146380 1_555
Cd0_5 Hf1_5 3.146380 1_555
Cd0_5 Cd0_7 3.321902 1_555
Cd0_5 Cd0_7 3.321902 1_545
Cd0_6 Hf2_4 3.146376 1_565
Cd0_6 Hf1_4 3.146376 1_565
Cd0_6 Hf2_2 3.146376 1_555
Cd0_6 Hf1_2 3.146376 1_555
Cd0_6 Hf2_6 3.146380 1_555
Cd0_6 Hf1_6 3.146380 1_555
Cd0_7 Hf2_5 3.146376 1_565
Cd0_7 Hf1_5 3.146376 1_565
Cd0_7 Hf2_3 3.146376 1_555
Cd0_7 Hf1_3 3.146376 1_555
Cd0_7 Hf2_7 3.146380 1_555
Cd0_7 Hf1_7 3.146380 1_555
Pb0_0 Pb0_2 3.321902 1_555
Pb0_0 Pb0_2 3.321902 1_545
Pb0_0 Pb0_4 3.321903 1_555
Pb0_0 Pb0_4 3.321903 1_455
Pb0_0 Pb0_6 3.321903 1_445
Pb0_0 Pb0_6 3.321903 1_555
Pb0_1 Pb0_3 3.321902 1_555
Pb0_1 Pb0_3 3.321902 1_545
Pb0_1 Pb0_5 3.321903 1_455
Pb0_1 Pb0_5 3.321903 1_555
Pb0_1 Pb0_7 3.321903 1_445
Pb0_1 Pb0_7 3.321903 1_555
Pb0_2 Pb0_6 3.321903 1_455
Pb0_2 Pb0_6 3.321903 1_555
Pb0_2 Pb0_4 3.321903 1_565
Pb0_2 Pb0_4 3.321903 1_455
Pb0_3 Pb0_7 3.321903 1_455
Pb0_3 Pb0_7 3.321903 1_555
Pb0_3 Pb0_5 3.321903 1_565
Pb0_3 Pb0_5 3.321903 1_455
Pb0_4 Pb0_6 3.321902 1_555
Pb0_4 Pb0_6 3.321902 1_545
Pb0_5 Pb0_7 3.321902 1_555
Pb0_5 Pb0_7 3.321902 1_545
C0_0 Hf0_2 2.263900 1_545
C0_0 Hf0_0 2.263903 1_555
C0_0 Hf0_6 2.263903 1_445
C0_0 Hf1_4 2.270620 1_455
C0_0 Hf1_6 2.270622 1_445
C0_0 Hf1_0 2.270623 1_555
C0_1 Hf0_3 2.263900 1_545
C0_1 Hf0_1 2.263903 1_555
C0_1 Hf0_7 2.263903 1_445
C0_1 Hf1_5 2.270620 1_455
C0_1 Hf1_7 2.270622 1_445
C0_1 Hf1_1 2.270623 1_555
C0_2 Hf0_0 2.263900 1_555
C0_2 Hf0_2 2.263903 1_555
C0_2 Hf0_4 2.263903 1_455
C0_2 Hf1_6 2.270620 1_455
C0_2 Hf1_4 2.270622 1_455
C0_2 Hf1_2 2.270623 1_555
C0_3 Hf0_1 2.263900 1_555
C0_3 Hf0_3 2.263903 1_555
C0_3 Hf0_5 2.263903 1_455
C0_3 Hf1_7 2.270620 1_455
C0_3 Hf1_5 2.270622 1_455
C0_3 Hf1_3 2.270623 1_555
C0_4 Hf0_6 2.263900 1_545
C0_4 Hf0_4 2.263903 1_555
C0_4 Hf0_2 2.263903 1_545
C0_4 Hf1_0 2.270620 1_555
C0_4 Hf1_2 2.270622 1_545
C0_4 Hf1_4 2.270623 1_555
C0_5 Hf0_7 2.263900 1_545
C0_5 Hf0_5 2.263903 1_555
C0_5 Hf0_3 2.263903 1_545
C0_5 Hf1_1 2.270620 1_555
C0_5 Hf1_3 2.270622 1_545
C0_5 Hf1_5 2.270623 1_555
C0_6 Hf0_4 2.263900 1_555
C0_6 Hf0_6 2.263903 1_555
C0_6 Hf0_0 2.263903 1_555
C0_6 Hf1_2 2.270620 1_555
C0_6 Hf1_0 2.270622 1_555
C0_6 Hf1_6 2.270623 1_555
C0_7 Hf0_5 2.263900 1_555
C0_7 Hf0_7 2.263903 1_555
C0_7 Hf0_1 2.263903 1_555
C0_7 Hf1_3 2.270620 1_555
C0_7 Hf1_1 2.270622 1_555
C0_7 Hf1_7 2.270623 1_555
C1_0 Hf3_2 2.263900 1_545
C1_0 Hf3_0 2.263903 1_555
C1_0 Hf3_6 2.263903 1_445
C1_0 Hf2_5 2.270620 1_454
C1_0 Hf2_7 2.270622 1_444
C1_0 Hf2_1 2.270623 1_554
C1_1 Hf3_3 2.263900 1_545
C1_1 Hf3_1 2.263903 1_555
C1_1 Hf3_7 2.263903 1_445
C1_1 Hf2_4 2.270620 1_455
C1_1 Hf2_6 2.270622 1_445
C1_1 Hf2_0 2.270623 1_555
C1_2 Hf3_0 2.263900 1_555
C1_2 Hf3_2 2.263903 1_555
C1_2 Hf3_4 2.263903 1_455
C1_2 Hf2_7 2.270620 1_454
C1_2 Hf2_5 2.270622 1_454
C1_2 Hf2_3 2.270623 1_554
C1_3 Hf3_1 2.263900 1_555
C1_3 Hf3_3 2.263903 1_555
C1_3 Hf3_5 2.263903 1_455
C1_3 Hf2_6 2.270620 1_455
C1_3 Hf2_4 2.270622 1_455
C1_3 Hf2_2 2.270623 1_555
C1_4 Hf3_6 2.263900 1_545
C1_4 Hf3_4 2.263903 1_555
C1_4 Hf3_2 2.263903 1_545
C1_4 Hf2_1 2.270620 1_554
C1_4 Hf2_3 2.270622 1_544
C1_4 Hf2_5 2.270623 1_554
C1_5 Hf3_7 2.263900 1_545
C1_5 Hf3_5 2.263903 1_555
C1_5 Hf3_3 2.263903 1_545
C1_5 Hf2_0 2.270620 1_555
C1_5 Hf2_2 2.270622 1_545
C1_5 Hf2_4 2.270623 1_555
C1_6 Hf3_4 2.263900 1_555
C1_6 Hf3_6 2.263903 1_555
C1_6 Hf3_0 2.263903 1_555
C1_6 Hf2_3 2.270620 1_554
C1_6 Hf2_1 2.270622 1_554
C1_6 Hf2_7 2.270623 1_554
C1_7 Hf3_5 2.263900 1_555
C1_7 Hf3_7 2.263903 1_555
C1_7 Hf3_1 2.263903 1_555
C1_7 Hf2_2 2.270620 1_555
C1_7 Hf2_0 2.270622 1_555
C1_7 Hf2_6 2.270623 1_555
