# generated using pymatgen
data_SnHg3(OF3)2
_symmetry_space_group_name_H-M   'P 1'
_cell_length_a   6.88102942
_cell_length_b   6.88102887
_cell_length_c   5.23029496
_cell_angle_alpha   90.00000000
_cell_angle_beta   90.00000000
_cell_angle_gamma   119.99999796
_symmetry_Int_Tables_number   1
_chemical_formula_structural   SnHg3(OF3)2
_chemical_formula_sum   'Sn1 Hg3 O2 F6'
_cell_volume   214.46855055
_cell_formula_units_Z   1
loop_
 _symmetry_equiv_pos_site_id
 _symmetry_equiv_pos_as_xyz
  1  'x, y, z'
loop_
 _atom_site_type_symbol
 _atom_site_label
 _atom_site_symmetry_multiplicity
 _atom_site_fract_x
 _atom_site_fract_y
 _atom_site_fract_z
 _atom_site_occupancy
  Sn  Sn0  1  0.00000000  0.00000000  0.49999900  1
  Hg  Hg0  1  0.50000000  0.00000000  0.00000000  1
  Hg  Hg1  1  0.00000000  0.49999900  0.00000000  1
  Hg  Hg2  1  0.49999900  0.49999900  0.00000000  1
  O  O0  1  0.66666700  0.33333400  0.11205925  1
  O  O1  1  0.33333300  0.66666600  0.88794175  1
  F  F0  1  0.13637462  0.27274923  0.28240146  1
  F  F1  1  0.13637462  0.86362538  0.28240146  1
  F  F2  1  0.72725077  0.86362538  0.28240146  1
  F  F3  1  0.27274923  0.13637362  0.71759854  1
  F  F4  1  0.86362538  0.13637362  0.71759854  1
  F  F5  1  0.86362638  0.72725077  0.71759854  1
loop_
_geom_bond_atom_site_label_1
_geom_bond_atom_site_label_2
_geom_bond_distance
_geom_bond_site_symmetry_2
Hg0 O1 2.071048 1_544
Hg0 O0 2.071049 1_555
Hg1 O1 2.071042 1_554
Hg1 O0 2.071044 1_455
Hg2 O1 2.071042 1_554
Hg2 O0 2.071044 1_555
F0 Sn0 1.984198 1_555
F0 Hg1 2.640990 1_555
F0 Hg2 2.640990 1_555
F1 Sn0 1.984198 1_565
F1 Hg0 2.640995 1_565
F1 Hg1 2.641000 1_555
F2 Sn0 1.984198 1_665
F2 Hg0 2.640995 1_565
F2 Hg2 2.641000 1_555
F3 Sn0 1.984204 1_555
F3 Hg0 2.640990 1_556
F3 Hg2 2.640994 1_556
F4 Sn0 1.984199 1_655
F4 Hg1 2.640995 1_656
F4 Hg0 2.640996 1_556
F5 Sn0 1.984204 1_665
F5 Hg1 2.640996 1_656
F5 Hg2 2.641005 1_556
