# generated using pymatgen
data_Hf6Ti4Ga12Ir7
_symmetry_space_group_name_H-M   'P 1'
_cell_length_a   8.70128865
_cell_length_b   8.70128866
_cell_length_c   8.70128957
_cell_angle_alpha   60.00000024
_cell_angle_beta   60.00000022
_cell_angle_gamma   60.00000017
_symmetry_Int_Tables_number   1
_chemical_formula_structural   Hf6Ti4Ga12Ir7
_chemical_formula_sum   'Hf6 Ti4 Ga12 Ir7'
_cell_volume   465.83892867
_cell_formula_units_Z   1
loop_
 _symmetry_equiv_pos_site_id
 _symmetry_equiv_pos_as_xyz
  1  'x, y, z'
loop_
 _atom_site_type_symbol
 _atom_site_label
 _atom_site_symmetry_multiplicity
 _atom_site_fract_x
 _atom_site_fract_y
 _atom_site_fract_z
 _atom_site_occupancy
  Hf  Hf0  1  0.69064520  0.69064520  0.30935480  1
  Hf  Hf1  1  0.30935480  0.69064520  0.30935480  1
  Hf  Hf2  1  0.69064520  0.30935480  0.30935480  1
  Hf  Hf3  1  0.30935480  0.30935480  0.69064520  1
  Hf  Hf4  1  0.69064520  0.30935480  0.69064520  1
  Hf  Hf5  1  0.30935480  0.69064520  0.69064520  1
  Ti  Ti0  1  0.87858833  0.87858833  0.36423502  1
  Ti  Ti1  1  0.87858833  0.36423502  0.87858833  1
  Ti  Ti2  1  0.36423502  0.87858833  0.87858833  1
  Ti  Ti3  1  0.87858833  0.87858833  0.87858833  1
  Ga  Ga0  1  0.11990453  0.11990453  0.64028641  1
  Ga  Ga1  1  0.11990453  0.64028641  0.11990453  1
  Ga  Ga2  1  0.64028641  0.11990453  0.11990453  1
  Ga  Ga3  1  0.11990453  0.11990453  0.11990453  1
  Ga  Ga4  1  0.65777467  0.65777467  0.02667598  1
  Ga  Ga5  1  0.65777467  0.02667598  0.65777467  1
  Ga  Ga6  1  0.02667598  0.65777467  0.65777467  1
  Ga  Ga7  1  0.65777467  0.65777467  0.65777467  1
  Ga  Ga8  1  0.34125010  0.34125010  0.97624871  1
  Ga  Ga9  1  0.34125010  0.97624871  0.34125010  1
  Ga  Ga10  1  0.97624871  0.34125010  0.34125010  1
  Ga  Ga11  1  0.34125010  0.34125010  0.34125010  1
  Ir  Ir0  1  0.00000000  0.00000000  0.00000000  1
  Ir  Ir1  1  0.99775277  0.99775277  0.50224723  1
  Ir  Ir2  1  0.50224723  0.99775277  0.50224723  1
  Ir  Ir3  1  0.99775277  0.50224723  0.50224723  1
  Ir  Ir4  1  0.50224723  0.50224723  0.99775277  1
  Ir  Ir5  1  0.99775277  0.50224723  0.99775277  1
  Ir  Ir6  1  0.50224723  0.99775277  0.99775277  1
loop_
_geom_bond_atom_site_label_1
_geom_bond_atom_site_label_2
_geom_bond_distance
_geom_bond_site_symmetry_2
Hf0 Ti0 3.132566 1_555
Hf0 Ti3 3.132566 1_554
Hf0 Ir3 3.162007 1_555
Hf0 Ir2 3.162007 1_555
Hf0 Ir5 3.162007 1_554
Hf0 Ir6 3.162007 1_554
Hf0 Hf1 3.317718 1_555
Hf0 Hf2 3.317718 1_555
Hf0 Hf5 3.317718 1_555
Hf0 Hf4 3.317718 1_555
Hf1 Ti0 3.132566 1_455
Hf1 Ti2 3.132566 1_554
Hf1 Ir3 3.162007 1_455
Hf1 Ir6 3.162007 1_554
Hf1 Ir1 3.162007 1_455
Hf1 Ir4 3.162007 1_554
Hf1 Hf2 3.317718 1_555
Hf1 Hf3 3.317718 1_555
Hf1 Hf5 3.317718 1_555
Hf2 Ti0 3.132566 1_545
Hf2 Ti1 3.132566 1_554
Hf2 Ir2 3.162007 1_545
Hf2 Ir5 3.162007 1_554
Hf2 Ir1 3.162007 1_545
Hf2 Ir4 3.162007 1_554
Hf2 Hf3 3.317718 1_555
Hf2 Hf4 3.317718 1_555
Hf3 Ti1 3.132566 1_455
Hf3 Ti2 3.132566 1_545
Hf3 Ir3 3.162007 1_455
Hf3 Ir2 3.162007 1_545
Hf3 Ir5 3.162007 1_455
Hf3 Ir6 3.162007 1_545
Hf3 Hf4 3.317718 1_555
Hf3 Hf5 3.317718 1_555
Hf4 Ti3 3.132566 1_545
Hf4 Ti1 3.132566 1_555
Hf4 Ir3 3.162007 1_555
Hf4 Ir6 3.162007 1_545
Hf4 Ir1 3.162007 1_545
Hf4 Ir4 3.162007 1_555
Hf4 Hf5 3.317718 1_555
Hf5 Ti3 3.132566 1_455
Hf5 Ti2 3.132566 1_555
Hf5 Ir2 3.162007 1_555
Hf5 Ir5 3.162007 1_455
Hf5 Ir1 3.162007 1_455
Hf5 Ir4 3.162007 1_555
Ga0 Ir0 2.555612 1_556
Ga0 Ir2 2.717554 1_545
Ga0 Ir3 2.717554 1_455
Ga0 Ir1 2.717554 1_445
Ga0 Ga11 2.806399 1_555
Ga0 Ga9 2.806404 1_545
Ga0 Ga10 2.806404 1_455
Ga0 Ti3 2.969628 1_445
Ga0 Ti2 2.969628 1_545
Ga0 Ti1 2.969628 1_455
Ga0 Hf4 3.128730 1_455
Ga0 Hf5 3.128730 1_545
Ga0 Hf3 3.128730 1_555
Ga1 Ir0 2.555611 1_565
Ga1 Ir4 2.717554 1_554
Ga1 Ir5 2.717554 1_454
Ga1 Ir3 2.717554 1_455
Ga1 Ga11 2.806399 1_555
Ga1 Ga10 2.806404 1_455
Ga1 Ga8 2.806404 1_554
Ga1 Ti2 2.969628 1_554
Ga1 Ti3 2.969628 1_454
Ga1 Ti0 2.969628 1_455
Ga1 Hf0 3.128730 1_455
Ga1 Hf1 3.128730 1_555
Ga1 Hf5 3.128730 1_554
Ga2 Ir0 2.555611 1_655
Ga2 Ir4 2.717554 1_554
Ga2 Ir6 2.717554 1_544
Ga2 Ir2 2.717554 1_545
Ga2 Ga9 2.806404 1_545
Ga2 Ga8 2.806404 1_554
Ga2 Ti1 2.969628 1_554
Ga2 Ti3 2.969628 1_544
Ga2 Ti0 2.969628 1_545
Ga2 Hf0 3.128730 1_545
Ga2 Hf2 3.128730 1_555
Ga2 Hf4 3.128730 1_554
Ga3 Ir0 2.555611 1_555
Ga3 Ir6 2.717554 1_544
Ga3 Ir5 2.717554 1_454
Ga3 Ir1 2.717554 1_445
Ga3 Ga8 2.806397 1_554
Ga3 Ga9 2.806397 1_545
Ga3 Ti0 2.969628 1_445
Ga3 Ti2 2.969628 1_544
Ga3 Ti1 2.969628 1_454
Ga3 Hf2 3.128730 1_455
Ga3 Hf1 3.128730 1_545
Ga3 Hf3 3.128730 1_554
Ga4 Ir5 2.497734 1_554
Ga4 Ir6 2.497734 1_554
Ga4 Ir4 2.497734 1_554
Ga4 Hf1 2.775320 1_555
Ga4 Hf2 2.775320 1_555
Ga4 Hf0 2.775320 1_555
Ga4 Ti3 2.789932 1_554
Ga4 Ti2 2.789932 1_554
Ga4 Ti1 2.789932 1_554
Ga4 Ga6 3.209917 1_654
Ga4 Ga5 3.209917 1_564
Ga4 Ga7 3.209917 1_554
Ga5 Ir1 2.497734 1_545
Ga5 Ir2 2.497734 1_545
Ga5 Ir6 2.497734 1_545
Ga5 Hf3 2.775320 1_555
Ga5 Hf4 2.775320 1_555
Ga5 Hf2 2.775320 1_555
Ga5 Ti2 2.789932 1_545
Ga5 Ti3 2.789932 1_545
Ga5 Ti0 2.789933 1_545
Ga5 Ga7 3.209917 1_545
Ga5 Ga6 3.209917 1_645
Ga6 Ir1 2.497734 1_455
Ga6 Ir3 2.497734 1_455
Ga6 Ir5 2.497734 1_455
Ga6 Hf3 2.775320 1_555
Ga6 Hf5 2.775320 1_555
Ga6 Hf1 2.775320 1_555
Ga6 Ti1 2.789932 1_455
Ga6 Ti3 2.789932 1_455
Ga6 Ti0 2.789933 1_455
Ga6 Ga7 3.209917 1_455
Ga7 Ir3 2.497734 1_555
Ga7 Ir2 2.497734 1_555
Ga7 Ir4 2.497734 1_555
Ga7 Hf5 2.775320 1_555
Ga7 Hf4 2.775320 1_555
Ga7 Hf0 2.775320 1_555
Ga7 Ti0 2.789932 1_555
Ga7 Ti2 2.789932 1_555
Ga7 Ti1 2.789932 1_555
Ga8 Ir5 2.539023 1_455
Ga8 Ir6 2.539023 1_545
Ga8 Ir4 2.539030 1_555
Ga8 Hf3 2.790390 1_555
Ga8 Hf4 2.790395 1_555
Ga8 Hf5 2.790395 1_555
Ga8 Ga9 3.175983 1_546
Ga9 Ir1 2.539023 1_455
Ga9 Ir6 2.539023 1_554
Ga9 Ir2 2.539030 1_555
Ga9 Hf1 2.790390 1_555
Ga9 Hf0 2.790395 1_555
Ga9 Hf5 2.790395 1_555
Ga10 Ir1 2.539023 1_545
Ga10 Ir5 2.539023 1_554
Ga10 Ir3 2.539030 1_555
Ga10 Hf2 2.790390 1_555
Ga10 Hf0 2.790395 1_555
Ga10 Hf4 2.790395 1_555
Ga10 Ga3 2.806397 1_655
Ga10 Ga11 3.175982 1_655
Ga10 Ga9 3.175982 1_645
Ga10 Ga8 3.175983 1_654
Ga11 Ir3 2.539025 1_455
Ga11 Ir2 2.539025 1_545
Ga11 Ir4 2.539025 1_554
Ga11 Hf2 2.790398 1_555
Ga11 Hf1 2.790398 1_555
Ga11 Hf3 2.790399 1_555
Ga11 Ga2 2.806399 1_555
Ga11 Ga9 3.175982 1_545
Ga11 Ga8 3.175983 1_554
Ir0 Ti2 2.587734 1_544
Ir0 Ti1 2.587734 1_454
Ir0 Ti3 2.587734 1_444
Ir0 Ti0 2.587734 1_445
Ir1 Ti0 2.675419 1_555
Ir1 Ti3 2.675419 1_555
Ir2 Ti0 2.675419 1_555
Ir2 Ti2 2.675419 1_555
Ir3 Ti0 2.675419 1_555
Ir3 Ti1 2.675419 1_555
Ir4 Ti1 2.675419 1_555
Ir4 Ti2 2.675419 1_555
Ir5 Ti3 2.675419 1_555
Ir5 Ti1 2.675419 1_555
Ir6 Ti3 2.675419 1_555
Ir6 Ti2 2.675419 1_555
