# generated using pymatgen
data_Hf6TaSi6Tc5
_symmetry_space_group_name_H-M   'P 1'
_cell_length_a   7.74695907
_cell_length_b   7.74659799
_cell_length_c   7.74659710
_cell_angle_alpha   126.46676426
_cell_angle_beta   127.84204593
_cell_angle_gamma   78.00291172
_symmetry_Int_Tables_number   1
_chemical_formula_structural   Hf6TaSi6Tc5
_chemical_formula_sum   'Hf6 Ta1 Si6 Tc5'
_cell_volume   286.10893634
_cell_formula_units_Z   1
loop_
 _symmetry_equiv_pos_site_id
 _symmetry_equiv_pos_as_xyz
  1  'x, y, z'
loop_
 _atom_site_type_symbol
 _atom_site_label
 _atom_site_symmetry_multiplicity
 _atom_site_fract_x
 _atom_site_fract_y
 _atom_site_fract_z
 _atom_site_occupancy
  Hf  Hf0  1  0.54591223  0.09359475  0.04248327  1
  Hf  Hf1  1  0.45408777  0.49657204  0.54768252  1
  Hf  Hf2  1  0.94912349  0.49650102  0.04236355  1
  Hf  Hf3  1  0.05087651  0.09324007  0.54737853  1
  Hf  Hf4  1  0.74883214  0.89580264  0.64437992  1
  Hf  Hf5  1  0.25116786  0.89554778  0.14696850  1
  Ta  Ta0  1  1.00000000  0.24045975  0.24045975  1
  Si  Si0  1  0.33349686  0.83002241  0.49675932  1
  Si  Si1  1  0.66650314  0.16326245  0.49652455  1
  Si  Si2  1  0.83267109  0.82973012  0.99687678  1
  Si  Si3  1  0.16732891  0.16420569  0.99705703  1
  Si  Si4  1  0.74463782  0.50198826  0.24640610  1
  Si  Si5  1  0.25536218  0.50176928  0.75735043  1
  Tc  Tc0  1  0.12779989  0.75226412  0.62478886  1
  Tc  Tc1  1  0.87220011  0.49698897  0.62446523  1
  Tc  Tc2  1  0.62770270  0.75251479  0.12461632  1
  Tc  Tc3  1  0.37229730  0.49691261  0.12481209  1
  Tc  Tc4  1  0.50000000  0.24262726  0.74262726  1
loop_
_geom_bond_atom_site_label_1
_geom_bond_atom_site_label_2
_geom_bond_distance
_geom_bond_site_symmetry_2
Hf0 Si3 2.705608 1_554
Hf0 Si0 2.710936 1_544
Hf0 Si2 2.730362 1_544
Hf0 Si1 2.730696 1_555
Hf0 Si4 2.823891 1_555
Hf0 Tc0 2.912685 1_544
Hf0 Tc2 2.931771 1_545
Hf0 Tc4 2.976314 1_554
Hf0 Tc3 2.985656 1_555
Hf0 Ta0 2.998578 1_555
Hf0 Tc1 3.005716 1_555
Hf1 Si2 2.705611 1_555
Hf1 Si1 2.710942 1_555
Hf1 Si3 2.730370 1_554
Hf1 Si0 2.730696 1_555
Hf1 Si5 2.823891 1_555
Hf1 Tc1 2.912680 1_555
Hf1 Tc3 2.931761 1_555
Hf1 Tc4 2.976321 1_555
Hf1 Tc2 2.985663 1_556
Hf1 Ta0 2.998582 1_455
Hf1 Tc0 3.005710 1_555
Hf2 Si2 2.706417 1_554
Hf2 Si1 2.711486 1_554
Hf2 Si3 2.729841 1_654
Hf2 Si0 2.731213 1_655
Hf2 Si4 2.823852 1_555
Hf2 Tc1 2.912344 1_554
Hf2 Tc3 2.930545 1_655
Hf2 Tc4 2.978074 1_554
Hf2 Tc2 2.988490 1_555
Hf2 Ta0 2.999225 1_555
Hf2 Tc0 3.008188 1_655
Hf3 Si3 2.706394 1_555
Hf3 Si0 2.711484 1_545
Hf3 Si2 2.729847 1_444
Hf3 Si1 2.731206 1_455
Hf3 Si5 2.823863 1_555
Hf3 Tc0 2.912347 1_545
Hf3 Tc2 2.930545 1_445
Hf3 Tc4 2.978077 1_555
Hf3 Tc3 2.988484 1_556
Hf3 Ta0 2.999233 1_455
Hf3 Tc1 3.008188 1_455
Hf4 Si1 2.717851 1_565
Hf4 Si0 2.719288 1_555
Hf4 Si3 2.735001 1_665
Hf4 Si2 2.736308 1_555
Hf4 Si4 2.747856 1_555
Hf4 Ta0 2.952473 1_566
Hf4 Tc4 2.954658 1_565
Hf4 Tc2 2.967994 1_555
Hf4 Tc3 2.968947 1_555
Hf4 Tc0 2.977852 1_655
Hf4 Tc1 2.978047 1_555
Hf5 Si0 2.717860 1_555
Hf5 Si1 2.719287 1_565
Hf5 Si2 2.735005 1_454
Hf5 Si3 2.736308 1_564
Hf5 Si5 2.747845 1_554
Hf5 Ta0 2.952475 1_465
Hf5 Tc4 2.954667 1_565
Hf5 Tc3 2.968007 1_555
Hf5 Tc2 2.968937 1_555
Hf5 Tc1 2.977848 1_454
Hf5 Tc0 2.978029 1_554
Ta0 Tc0 3.089819 1_655
Ta0 Tc1 3.089824 1_555
Si0 Tc0 2.633285 1_555
Si0 Tc3 2.636879 1_555
Si0 Tc4 2.640202 1_565
Si1 Tc1 2.633277 1_555
Si1 Tc2 2.636874 1_545
Si1 Tc4 2.640208 1_555
Si2 Tc2 2.623879 1_556
Si2 Ta0 2.634608 1_566
Si2 Tc1 2.641390 1_555
Si3 Tc3 2.623864 1_556
Si3 Ta0 2.634621 1_456
Si3 Tc0 2.641389 1_545
Si4 Tc2 2.423667 1_555
Si4 Tc3 2.424577 1_555
Si4 Tc4 2.458882 1_554
Si4 Tc1 2.474477 1_555
Si4 Tc0 2.474528 1_655
Si4 Ta0 2.520894 1_555
Si5 Tc3 2.423677 1_556
Si5 Tc2 2.424574 1_556
Si5 Tc4 2.458887 1_555
Si5 Tc0 2.474463 1_555
Si5 Tc1 2.474530 1_455
Si5 Ta0 2.520894 1_455
