# generated using pymatgen
data_Ta7Ti7As8
_symmetry_space_group_name_H-M   'P 1'
_cell_length_a   15.64805330
_cell_length_b   15.64805523
_cell_length_c   28.25377393
_cell_angle_alpha   75.90746878
_cell_angle_beta   75.90746790
_cell_angle_gamma   25.72687362
_symmetry_Int_Tables_number   1
_chemical_formula_structural   Ta7Ti7As8
_chemical_formula_sum   'Ta56 Ti56 As64'
_cell_volume   2907.91971107
_cell_formula_units_Z   8
loop_
 _symmetry_equiv_pos_site_id
 _symmetry_equiv_pos_as_xyz
  1  'x, y, z'
loop_
 _atom_site_type_symbol
 _atom_site_label
 _atom_site_symmetry_multiplicity
 _atom_site_fract_x
 _atom_site_fract_y
 _atom_site_fract_z
 _atom_site_occupancy
  Ta  Ta0_0  1  0.00053689  0.00053689  0.49941781  1
  Ta  Ta0_1  1  0.00053689  0.00053689  0.99941781  1
  Ta  Ta0_2  1  0.00053689  0.50053689  0.49941781  1
  Ta  Ta0_3  1  0.00053689  0.50053689  0.99941781  1
  Ta  Ta0_4  1  0.50053689  0.00053689  0.49941781  1
  Ta  Ta0_5  1  0.50053689  0.00053689  0.99941781  1
  Ta  Ta0_6  1  0.50053689  0.50053689  0.49941781  1
  Ta  Ta0_7  1  0.50053689  0.50053689  0.99941781  1
  Ta  Ta1_0  1  0.24975488  0.24975488  0.25030159  1
  Ta  Ta1_1  1  0.24975488  0.24975488  0.75030159  1
  Ta  Ta1_2  1  0.24975488  0.74975488  0.25030159  1
  Ta  Ta1_3  1  0.24975488  0.74975488  0.75030159  1
  Ta  Ta1_4  1  0.74975488  0.24975488  0.25030159  1
  Ta  Ta1_5  1  0.74975488  0.24975488  0.75030159  1
  Ta  Ta1_6  1  0.74975488  0.74975488  0.25030159  1
  Ta  Ta1_7  1  0.74975488  0.74975488  0.75030159  1
  Ta  Ta2_0  1  0.21387117  0.21387117  0.08436047  1
  Ta  Ta2_1  1  0.21387117  0.21387117  0.58436047  1
  Ta  Ta2_2  1  0.21387117  0.71387117  0.08436047  1
  Ta  Ta2_3  1  0.21387117  0.71387117  0.58436047  1
  Ta  Ta2_4  1  0.71387117  0.21387117  0.08436047  1
  Ta  Ta2_5  1  0.71387117  0.21387117  0.58436047  1
  Ta  Ta2_6  1  0.71387117  0.71387117  0.08436047  1
  Ta  Ta2_7  1  0.71387117  0.71387117  0.58436047  1
  Ta  Ta3_0  1  0.28640616  0.28640616  0.41591807  1
  Ta  Ta3_1  1  0.28640616  0.28640616  0.91591807  1
  Ta  Ta3_2  1  0.28640616  0.78640616  0.41591807  1
  Ta  Ta3_3  1  0.28640616  0.78640616  0.91591807  1
  Ta  Ta3_4  1  0.78640616  0.28640616  0.41591807  1
  Ta  Ta3_5  1  0.78640616  0.28640616  0.91591807  1
  Ta  Ta3_6  1  0.78640616  0.78640616  0.41591807  1
  Ta  Ta3_7  1  0.78640616  0.78640616  0.91591807  1
  Ta  Ta4_0  1  0.09786751  0.09786751  0.34688105  1
  Ta  Ta4_1  1  0.09786751  0.09786751  0.84688105  1
  Ta  Ta4_2  1  0.09786751  0.59786751  0.34688105  1
  Ta  Ta4_3  1  0.09786751  0.59786751  0.84688105  1
  Ta  Ta4_4  1  0.59786751  0.09786751  0.34688105  1
  Ta  Ta4_5  1  0.59786751  0.09786751  0.84688105  1
  Ta  Ta4_6  1  0.59786751  0.59786751  0.34688105  1
  Ta  Ta4_7  1  0.59786751  0.59786751  0.84688105  1
  Ta  Ta5_0  1  0.40211781  0.40211781  0.15325660  1
  Ta  Ta5_1  1  0.40211781  0.40211781  0.65325660  1
  Ta  Ta5_2  1  0.40211781  0.90211781  0.15325660  1
  Ta  Ta5_3  1  0.40211781  0.90211781  0.65325660  1
  Ta  Ta5_4  1  0.90211781  0.40211781  0.15325660  1
  Ta  Ta5_5  1  0.90211781  0.40211781  0.65325660  1
  Ta  Ta5_6  1  0.90211781  0.90211781  0.15325660  1
  Ta  Ta5_7  1  0.90211781  0.90211781  0.65325660  1
  Ta  Ta6_0  1  0.10542705  0.10542705  0.10166288  1
  Ta  Ta6_1  1  0.10542705  0.10542705  0.60166288  1
  Ta  Ta6_2  1  0.10542705  0.60542705  0.10166288  1
  Ta  Ta6_3  1  0.10542705  0.60542705  0.60166288  1
  Ta  Ta6_4  1  0.60542705  0.10542705  0.10166288  1
  Ta  Ta6_5  1  0.60542705  0.10542705  0.60166288  1
  Ta  Ta6_6  1  0.60542705  0.60542705  0.10166288  1
  Ta  Ta6_7  1  0.60542705  0.60542705  0.60166288  1
  Ti  Ti0_0  1  0.39520552  0.39520552  0.39798904  1
  Ti  Ti0_1  1  0.39520552  0.39520552  0.89798904  1
  Ti  Ti0_2  1  0.39520552  0.89520552  0.39798904  1
  Ti  Ti0_3  1  0.39520552  0.89520552  0.89798904  1
  Ti  Ti0_4  1  0.89520552  0.39520552  0.39798904  1
  Ti  Ti0_5  1  0.89520552  0.39520552  0.89798904  1
  Ti  Ti0_6  1  0.89520552  0.89520552  0.39798904  1
  Ti  Ti0_7  1  0.89520552  0.89520552  0.89798904  1
  Ti  Ti1_0  1  0.16907986  0.16907986  0.48307441  1
  Ti  Ti1_1  1  0.16907986  0.16907986  0.98307441  1
  Ti  Ti1_2  1  0.16907986  0.66907986  0.48307441  1
  Ti  Ti1_3  1  0.16907986  0.66907986  0.98307441  1
  Ti  Ti1_4  1  0.66907986  0.16907986  0.48307441  1
  Ti  Ti1_5  1  0.66907986  0.16907986  0.98307441  1
  Ti  Ti1_6  1  0.66907986  0.66907986  0.48307441  1
  Ti  Ti1_7  1  0.66907986  0.66907986  0.98307441  1
  Ti  Ti2_0  1  0.33106945  0.33106945  0.01723771  1
  Ti  Ti2_1  1  0.33106945  0.33106945  0.51723771  1
  Ti  Ti2_2  1  0.33106945  0.83106945  0.01723771  1
  Ti  Ti2_3  1  0.33106945  0.83106945  0.51723771  1
  Ti  Ti2_4  1  0.83106945  0.33106945  0.01723771  1
  Ti  Ti2_5  1  0.83106945  0.33106945  0.51723771  1
  Ti  Ti2_6  1  0.83106945  0.83106945  0.01723771  1
  Ti  Ti2_7  1  0.83106945  0.83106945  0.51723771  1
  Ti  Ti3_0  1  0.49952572  0.49952572  0.16927532  1
  Ti  Ti3_1  1  0.49952572  0.49952572  0.66927532  1
  Ti  Ti3_2  1  0.49952572  0.99952572  0.16927532  1
  Ti  Ti3_3  1  0.49952572  0.99952572  0.66927532  1
  Ti  Ti3_4  1  0.99952572  0.49952572  0.16927532  1
  Ti  Ti3_5  1  0.99952572  0.49952572  0.66927532  1
  Ti  Ti3_6  1  0.99952572  0.99952572  0.16927532  1
  Ti  Ti3_7  1  0.99952572  0.99952572  0.66927532  1
  Ti  Ti4_0  1  0.49966440  0.49966440  0.33048364  1
  Ti  Ti4_1  1  0.49966440  0.49966440  0.83048364  1
  Ti  Ti4_2  1  0.49966440  0.99966440  0.33048364  1
  Ti  Ti4_3  1  0.49966440  0.99966440  0.83048364  1
  Ti  Ti4_4  1  0.99966440  0.49966440  0.33048364  1
  Ti  Ti4_5  1  0.99966440  0.49966440  0.83048364  1
  Ti  Ti4_6  1  0.99966440  0.99966440  0.33048364  1
  Ti  Ti4_7  1  0.99966440  0.99966440  0.83048364  1
  Ti  Ti5_0  1  0.09027864  0.09027864  0.22596433  1
  Ti  Ti5_1  1  0.09027864  0.09027864  0.72596433  1
  Ti  Ti5_2  1  0.09027864  0.59027864  0.22596433  1
  Ti  Ti5_3  1  0.09027864  0.59027864  0.72596433  1
  Ti  Ti5_4  1  0.59027864  0.09027864  0.22596433  1
  Ti  Ti5_5  1  0.59027864  0.09027864  0.72596433  1
  Ti  Ti5_6  1  0.59027864  0.59027864  0.22596433  1
  Ti  Ti5_7  1  0.59027864  0.59027864  0.72596433  1
  Ti  Ti6_0  1  0.40938272  0.40938272  0.27416911  1
  Ti  Ti6_1  1  0.40938272  0.40938272  0.77416911  1
  Ti  Ti6_2  1  0.40938272  0.90938272  0.27416911  1
  Ti  Ti6_3  1  0.40938272  0.90938272  0.77416911  1
  Ti  Ti6_4  1  0.90938272  0.40938272  0.27416911  1
  Ti  Ti6_5  1  0.90938272  0.40938272  0.77416911  1
  Ti  Ti6_6  1  0.90938272  0.90938272  0.27416911  1
  Ti  Ti6_7  1  0.90938272  0.90938272  0.77416911  1
  As  As0_0  1  0.09101274  0.09101274  0.44753015  1
  As  As0_1  1  0.09101274  0.09101274  0.94753015  1
  As  As0_2  1  0.09101274  0.59101274  0.44753015  1
  As  As0_3  1  0.09101274  0.59101274  0.94753015  1
  As  As0_4  1  0.59101274  0.09101274  0.44753015  1
  As  As0_5  1  0.59101274  0.09101274  0.94753015  1
  As  As0_6  1  0.59101274  0.59101274  0.44753015  1
  As  As0_7  1  0.59101274  0.59101274  0.94753015  1
  As  As1_0  1  0.41126569  0.41126569  0.05083434  1
  As  As1_1  1  0.41126569  0.41126569  0.55083434  1
  As  As1_2  1  0.41126569  0.91126569  0.05083434  1
  As  As1_3  1  0.41126569  0.91126569  0.55083434  1
  As  As1_4  1  0.91126569  0.41126569  0.05083434  1
  As  As1_5  1  0.91126569  0.41126569  0.55083434  1
  As  As1_6  1  0.91126569  0.91126569  0.05083434  1
  As  As1_7  1  0.91126569  0.91126569  0.55083434  1
  As  As2_0  1  0.18510231  0.18510231  0.20295605  1
  As  As2_1  1  0.18510231  0.18510231  0.70295605  1
  As  As2_2  1  0.18510231  0.68510231  0.20295605  1
  As  As2_3  1  0.18510231  0.68510231  0.70295605  1
  As  As2_4  1  0.68510231  0.18510231  0.20295605  1
  As  As2_5  1  0.68510231  0.18510231  0.70295605  1
  As  As2_6  1  0.68510231  0.68510231  0.20295605  1
  As  As2_7  1  0.68510231  0.68510231  0.70295605  1
  As  As3_0  1  0.31451023  0.31451023  0.29816597  1
  As  As3_1  1  0.31451023  0.31451023  0.79816597  1
  As  As3_2  1  0.31451023  0.81451023  0.29816597  1
  As  As3_3  1  0.31451023  0.81451023  0.79816597  1
  As  As3_4  1  0.81451023  0.31451023  0.29816597  1
  As  As3_5  1  0.81451023  0.31451023  0.79816597  1
  As  As3_6  1  0.81451023  0.81451023  0.29816597  1
  As  As3_7  1  0.81451023  0.81451023  0.79816597  1
  As  As4_0  1  0.18598364  0.18598364  0.33213367  1
  As  As4_1  1  0.18598364  0.18598364  0.83213367  1
  As  As4_2  1  0.18598364  0.68598364  0.33213367  1
  As  As4_3  1  0.18598364  0.68598364  0.83213367  1
  As  As4_4  1  0.68598364  0.18598364  0.33213367  1
  As  As4_5  1  0.68598364  0.18598364  0.83213367  1
  As  As4_6  1  0.68598364  0.68598364  0.33213367  1
  As  As4_7  1  0.68598364  0.68598364  0.83213367  1
  As  As5_0  1  0.31296610  0.31296610  0.16864908  1
  As  As5_1  1  0.31296610  0.31296610  0.66864908  1
  As  As5_2  1  0.31296610  0.81296610  0.16864908  1
  As  As5_3  1  0.31296610  0.81296610  0.66864908  1
  As  As5_4  1  0.81296610  0.31296610  0.16864908  1
  As  As5_5  1  0.81296610  0.31296610  0.66864908  1
  As  As5_6  1  0.81296610  0.81296610  0.16864908  1
  As  As5_7  1  0.81296610  0.81296610  0.66864908  1
  As  As6_0  1  0.03083927  0.03083927  0.07723919  1
  As  As6_1  1  0.03083927  0.03083927  0.57723919  1
  As  As6_2  1  0.03083927  0.53083927  0.07723919  1
  As  As6_3  1  0.03083927  0.53083927  0.57723919  1
  As  As6_4  1  0.53083927  0.03083927  0.07723919  1
  As  As6_5  1  0.53083927  0.03083927  0.57723919  1
  As  As6_6  1  0.53083927  0.53083927  0.07723919  1
  As  As6_7  1  0.53083927  0.53083927  0.57723919  1
  As  As7_0  1  0.46813225  0.46813225  0.42249702  1
  As  As7_1  1  0.46813225  0.46813225  0.92249702  1
  As  As7_2  1  0.46813225  0.96813225  0.42249702  1
  As  As7_3  1  0.46813225  0.96813225  0.92249702  1
  As  As7_4  1  0.96813225  0.46813225  0.42249702  1
  As  As7_5  1  0.96813225  0.46813225  0.92249702  1
  As  As7_6  1  0.96813225  0.96813225  0.42249702  1
  As  As7_7  1  0.96813225  0.96813225  0.92249702  1
loop_
_geom_bond_atom_site_label_1
_geom_bond_atom_site_label_2
_geom_bond_distance
_geom_bond_site_symmetry_2
Ta0_0 Ta3_2 2.916812 1_545
Ta0_0 Ta3_4 2.916813 1_455
Ta0_0 Ta2_5 2.950284 1_455
Ta0_0 Ta2_3 2.950284 1_545
Ta0_0 Ti2_3 3.153225 1_545
Ta0_0 Ti2_5 3.153226 1_455
Ta0_0 Ti1_4 3.161847 1_455
Ta0_0 Ti1_2 3.161848 1_545
Ta0_0 Ta0_6 3.483695 1_455
Ta0_0 Ta0_6 3.483695 1_545
Ta0_1 Ta3_3 2.916812 1_545
Ta0_1 Ta3_5 2.916813 1_455
Ta0_1 Ta2_4 2.950284 1_456
Ta0_1 Ta2_2 2.950284 1_546
Ta0_1 Ti2_2 3.153225 1_546
Ta0_1 Ti2_4 3.153226 1_456
Ta0_1 Ti1_5 3.161847 1_455
Ta0_1 Ti1_3 3.161848 1_545
Ta0_1 Ta0_7 3.483695 1_545
Ta0_1 Ta0_7 3.483695 1_455
Ta0_2 Ta3_0 2.916812 1_555
Ta0_2 Ta3_6 2.916813 1_455
Ta0_2 Ta2_7 2.950284 1_455
Ta0_2 Ta2_1 2.950284 1_555
Ta0_2 Ti2_1 3.153225 1_555
Ta0_2 Ti2_7 3.153226 1_455
Ta0_2 Ti1_6 3.161847 1_455
Ta0_2 Ti1_0 3.161848 1_555
Ta0_2 Ta0_4 3.483695 1_555
Ta0_2 Ta0_4 3.483695 1_465
Ta0_3 Ta3_1 2.916812 1_555
Ta0_3 Ta3_7 2.916813 1_455
Ta0_3 Ta2_6 2.950284 1_456
Ta0_3 Ta2_0 2.950284 1_556
Ta0_3 Ti2_0 3.153225 1_556
Ta0_3 Ti2_6 3.153226 1_456
Ta0_3 Ti1_7 3.161847 1_455
Ta0_3 Ti1_1 3.161848 1_555
Ta0_3 Ta0_5 3.483695 1_465
Ta0_3 Ta0_5 3.483695 1_555
Ta0_4 Ta3_6 2.916812 1_545
Ta0_4 Ta3_0 2.916813 1_555
Ta0_4 Ta2_1 2.950284 1_555
Ta0_4 Ta2_7 2.950284 1_545
Ta0_4 Ti2_7 3.153225 1_545
Ta0_4 Ti2_1 3.153226 1_555
Ta0_4 Ti1_0 3.161847 1_555
Ta0_4 Ti1_6 3.161848 1_545
Ta0_5 Ta3_7 2.916812 1_545
Ta0_5 Ta3_1 2.916813 1_555
Ta0_5 Ta2_0 2.950284 1_556
Ta0_5 Ta2_6 2.950284 1_546
Ta0_5 Ti2_6 3.153225 1_546
Ta0_5 Ti2_0 3.153226 1_556
Ta0_5 Ti1_1 3.161847 1_555
Ta0_5 Ti1_7 3.161848 1_545
Ta0_6 Ta3_4 2.916812 1_555
Ta0_6 Ta3_2 2.916813 1_555
Ta0_6 Ta2_3 2.950284 1_555
Ta0_6 Ta2_5 2.950284 1_555
Ta0_6 Ti2_5 3.153225 1_555
Ta0_6 Ti2_3 3.153226 1_555
Ta0_6 Ti1_2 3.161847 1_555
Ta0_6 Ti1_4 3.161848 1_555
Ta0_7 Ta3_5 2.916812 1_555
Ta0_7 Ta3_3 2.916813 1_555
Ta0_7 Ta2_2 2.950284 1_556
Ta0_7 Ta2_4 2.950284 1_556
Ta0_7 Ti2_4 3.153225 1_556
Ta0_7 Ti2_2 3.153226 1_556
Ta0_7 Ti1_3 3.161847 1_555
Ta0_7 Ti1_5 3.161848 1_555
Ta1_0 Ti4_2 2.857125 1_545
Ta1_0 Ti4_4 2.857125 1_455
Ta1_0 Ti3_4 2.878014 1_455
Ta1_0 Ti3_2 2.878014 1_545
Ta1_0 Ti6_4 3.187912 1_455
Ta1_0 Ti6_2 3.187912 1_545
Ta1_0 Ti5_4 3.191632 1_555
Ta1_0 Ti5_2 3.191633 1_555
Ta1_0 Ta1_6 3.483695 1_545
Ta1_0 Ta1_6 3.483695 1_455
Ta1_1 Ti4_3 2.857125 1_545
Ta1_1 Ti4_5 2.857125 1_455
Ta1_1 Ti3_5 2.878014 1_455
Ta1_1 Ti3_3 2.878014 1_545
Ta1_1 Ti6_5 3.187912 1_455
Ta1_1 Ti6_3 3.187912 1_545
Ta1_1 Ti5_5 3.191632 1_555
Ta1_1 Ti5_3 3.191633 1_555
Ta1_1 Ta1_7 3.483695 1_545
Ta1_1 Ta1_7 3.483695 1_455
Ta1_2 Ti4_0 2.857125 1_555
Ta1_2 Ti4_6 2.857125 1_455
Ta1_2 Ti3_6 2.878014 1_455
Ta1_2 Ti3_0 2.878014 1_555
Ta1_2 Ti6_6 3.187912 1_455
Ta1_2 Ti6_0 3.187912 1_555
Ta1_2 Ti5_6 3.191632 1_555
Ta1_2 Ti5_0 3.191633 1_565
Ta1_2 Ta1_4 3.483695 1_555
Ta1_2 Ta1_4 3.483695 1_465
Ta1_3 Ti4_1 2.857125 1_555
Ta1_3 Ti4_7 2.857125 1_455
Ta1_3 Ti3_7 2.878014 1_455
Ta1_3 Ti3_1 2.878014 1_555
Ta1_3 Ti6_7 3.187912 1_455
Ta1_3 Ti6_1 3.187912 1_555
Ta1_3 Ti5_7 3.191632 1_555
Ta1_3 Ti5_1 3.191633 1_565
Ta1_3 Ta1_5 3.483695 1_465
Ta1_3 Ta1_5 3.483695 1_555
Ta1_4 Ti4_6 2.857125 1_545
Ta1_4 Ti4_0 2.857125 1_555
Ta1_4 Ti3_0 2.878014 1_555
Ta1_4 Ti3_6 2.878014 1_545
Ta1_4 Ti6_0 3.187912 1_555
Ta1_4 Ti6_6 3.187912 1_545
Ta1_4 Ti5_0 3.191632 1_655
Ta1_4 Ti5_6 3.191633 1_555
Ta1_5 Ti4_7 2.857125 1_545
Ta1_5 Ti4_1 2.857125 1_555
Ta1_5 Ti3_1 2.878014 1_555
Ta1_5 Ti3_7 2.878014 1_545
Ta1_5 Ti6_1 3.187912 1_555
Ta1_5 Ti6_7 3.187912 1_545
Ta1_5 Ti5_1 3.191632 1_655
Ta1_5 Ti5_7 3.191633 1_555
Ta1_6 Ti4_4 2.857125 1_555
Ta1_6 Ti4_2 2.857125 1_555
Ta1_6 Ti3_2 2.878014 1_555
Ta1_6 Ti3_4 2.878014 1_555
Ta1_6 Ti6_2 3.187912 1_555
Ta1_6 Ti6_4 3.187912 1_555
Ta1_6 Ti5_2 3.191632 1_655
Ta1_6 Ti5_4 3.191633 1_565
Ta1_7 Ti4_5 2.857125 1_555
Ta1_7 Ti4_3 2.857125 1_555
Ta1_7 Ti3_3 2.878014 1_555
Ta1_7 Ti3_5 2.878014 1_555
Ta1_7 Ti6_3 3.187912 1_555
Ta1_7 Ti6_5 3.187912 1_555
Ta1_7 Ti5_3 3.191632 1_655
Ta1_7 Ti5_5 3.191633 1_565
Ta2_0 Ta5_4 2.922523 1_455
Ta2_0 Ta5_2 2.922523 1_545
Ta2_0 Ti3_2 3.358142 1_545
Ta2_0 Ti3_4 3.358143 1_455
Ta2_1 Ta5_5 2.922523 1_455
Ta2_1 Ta5_3 2.922523 1_545
Ta2_1 Ti3_3 3.358142 1_545
Ta2_1 Ti3_5 3.358143 1_455
Ta2_2 Ta5_6 2.922523 1_455
Ta2_2 Ta5_0 2.922523 1_555
Ta2_2 Ti3_0 3.358142 1_555
Ta2_2 Ti3_6 3.358143 1_455
Ta2_3 Ta5_7 2.922523 1_455
Ta2_3 Ta5_1 2.922523 1_555
Ta2_3 Ti3_1 3.358142 1_555
Ta2_3 Ti3_7 3.358143 1_455
Ta2_4 Ta5_0 2.922523 1_555
Ta2_4 Ta5_6 2.922523 1_545
Ta2_4 Ti3_6 3.358142 1_545
Ta2_4 Ti3_0 3.358143 1_555
Ta2_5 Ta5_1 2.922523 1_555
Ta2_5 Ta5_7 2.922523 1_545
Ta2_5 Ti3_7 3.358142 1_545
Ta2_5 Ti3_1 3.358143 1_555
Ta2_6 Ta5_2 2.922523 1_555
Ta2_6 Ta5_4 2.922523 1_555
Ta2_6 Ti3_4 3.358142 1_555
Ta2_6 Ti3_2 3.358143 1_555
Ta2_7 Ta5_3 2.922523 1_555
Ta2_7 Ta5_5 2.922523 1_555
Ta2_7 Ti3_5 3.358142 1_555
Ta2_7 Ti3_3 3.358143 1_555
Ta3_0 Ta4_4 2.920290 1_555
Ta3_0 Ta4_2 2.920291 1_555
Ta3_0 Ti4_4 3.386594 1_455
Ta3_0 Ti4_2 3.386595 1_545
Ta3_1 Ta4_5 2.920290 1_555
Ta3_1 Ta4_3 2.920291 1_555
Ta3_1 Ti4_5 3.386594 1_455
Ta3_1 Ti4_3 3.386595 1_545
Ta3_2 Ta4_6 2.920290 1_555
Ta3_2 Ta4_0 2.920291 1_565
Ta3_2 Ti4_6 3.386594 1_455
Ta3_2 Ti4_0 3.386595 1_555
Ta3_3 Ta4_7 2.920290 1_555
Ta3_3 Ta4_1 2.920291 1_565
Ta3_3 Ti4_7 3.386594 1_455
Ta3_3 Ti4_1 3.386595 1_555
Ta3_4 Ta4_0 2.920290 1_655
Ta3_4 Ta4_6 2.920291 1_555
Ta3_4 Ti4_0 3.386594 1_555
Ta3_4 Ti4_6 3.386595 1_545
Ta3_5 Ta4_1 2.920290 1_655
Ta3_5 Ta4_7 2.920291 1_555
Ta3_5 Ti4_1 3.386594 1_555
Ta3_5 Ti4_7 3.386595 1_545
Ta3_6 Ta4_2 2.920290 1_655
Ta3_6 Ta4_4 2.920291 1_565
Ta3_6 Ti4_2 3.386594 1_555
Ta3_6 Ti4_4 3.386595 1_555
Ta3_7 Ta4_3 2.920290 1_655
Ta3_7 Ta4_5 2.920291 1_565
Ta3_7 Ti4_3 3.386594 1_555
Ta3_7 Ti4_5 3.386595 1_555
Ta4_0 Ti0_2 2.871754 1_545
Ta4_0 Ti0_4 2.871755 1_455
Ta4_0 Ti6_2 2.975088 1_545
Ta4_0 Ti6_4 2.975089 1_455
Ta4_0 Ti4_6 3.144122 1_445
Ta4_1 Ti0_3 2.871754 1_545
Ta4_1 Ti0_5 2.871755 1_455
Ta4_1 Ti6_3 2.975088 1_545
Ta4_1 Ti6_5 2.975089 1_455
Ta4_1 Ti4_7 3.144122 1_445
Ta4_2 Ti0_0 2.871754 1_555
Ta4_2 Ti0_6 2.871755 1_455
Ta4_2 Ti6_0 2.975088 1_555
Ta4_2 Ti6_6 2.975089 1_455
Ta4_2 Ti4_4 3.144122 1_455
Ta4_3 Ti0_1 2.871754 1_555
Ta4_3 Ti0_7 2.871755 1_455
Ta4_3 Ti6_1 2.975088 1_555
Ta4_3 Ti6_7 2.975089 1_455
Ta4_3 Ti4_5 3.144122 1_455
Ta4_4 Ti0_6 2.871754 1_545
Ta4_4 Ti0_0 2.871755 1_555
Ta4_4 Ti6_6 2.975088 1_545
Ta4_4 Ti6_0 2.975089 1_555
Ta4_4 Ti4_2 3.144122 1_545
Ta4_5 Ti0_7 2.871754 1_545
Ta4_5 Ti0_1 2.871755 1_555
Ta4_5 Ti6_7 2.975088 1_545
Ta4_5 Ti6_1 2.975089 1_555
Ta4_5 Ti4_3 3.144122 1_545
Ta4_6 Ti0_4 2.871754 1_555
Ta4_6 Ti0_2 2.871755 1_555
Ta4_6 Ti6_4 2.975088 1_555
Ta4_6 Ti6_2 2.975089 1_555
Ta4_6 Ti4_0 3.144122 1_555
Ta4_7 Ti0_5 2.871754 1_555
Ta4_7 Ti0_3 2.871755 1_555
Ta4_7 Ti6_5 2.975088 1_555
Ta4_7 Ti6_3 2.975089 1_555
Ta4_7 Ti4_1 3.144122 1_555
Ta5_0 Ta6_2 2.868041 1_555
Ta5_0 Ta6_4 2.868042 1_555
Ta5_0 Ti5_2 2.979569 1_555
Ta5_0 Ti5_4 2.979569 1_555
Ta5_0 Ti3_0 3.115991 1_555
Ta5_1 Ta6_3 2.868041 1_555
Ta5_1 Ta6_5 2.868042 1_555
Ta5_1 Ti5_3 2.979569 1_555
Ta5_1 Ti5_5 2.979569 1_555
Ta5_1 Ti3_1 3.115991 1_555
Ta5_2 Ta6_0 2.868041 1_565
Ta5_2 Ta6_6 2.868042 1_555
Ta5_2 Ti5_0 2.979569 1_565
Ta5_2 Ti5_6 2.979569 1_555
Ta5_2 Ti3_2 3.115991 1_555
Ta5_3 Ta6_1 2.868041 1_565
Ta5_3 Ta6_7 2.868042 1_555
Ta5_3 Ti5_1 2.979569 1_565
Ta5_3 Ti5_7 2.979569 1_555
Ta5_3 Ti3_3 3.115991 1_555
Ta5_4 Ta6_6 2.868041 1_555
Ta5_4 Ta6_0 2.868042 1_655
Ta5_4 Ti5_6 2.979569 1_555
Ta5_4 Ti5_0 2.979569 1_655
Ta5_4 Ti3_4 3.115991 1_555
Ta5_5 Ta6_7 2.868041 1_555
Ta5_5 Ta6_1 2.868042 1_655
Ta5_5 Ti5_7 2.979569 1_555
Ta5_5 Ti5_1 2.979569 1_655
Ta5_5 Ti3_5 3.115991 1_555
Ta5_6 Ta6_4 2.868041 1_565
Ta5_6 Ta6_2 2.868042 1_655
Ta5_6 Ti5_4 2.979569 1_565
Ta5_6 Ti5_2 2.979569 1_655
Ta5_6 Ti3_6 3.115991 1_555
Ta5_7 Ta6_5 2.868041 1_565
Ta5_7 Ta6_3 2.868042 1_655
Ta5_7 Ti5_5 2.979569 1_565
Ta5_7 Ti5_3 2.979569 1_655
Ta5_7 Ti3_7 3.115991 1_555
Ta6_0 Ti2_4 3.187729 1_455
Ta6_0 Ti2_2 3.187729 1_545
Ta6_1 Ti2_5 3.187729 1_455
Ta6_1 Ti2_3 3.187729 1_545
Ta6_2 Ti2_6 3.187729 1_455
Ta6_2 Ti2_0 3.187729 1_555
Ta6_3 Ti2_7 3.187729 1_455
Ta6_3 Ti2_1 3.187729 1_555
Ta6_4 Ti2_0 3.187729 1_555
Ta6_4 Ti2_6 3.187729 1_545
Ta6_5 Ti2_1 3.187729 1_555
Ta6_5 Ti2_7 3.187729 1_545
Ta6_6 Ti2_2 3.187729 1_555
Ta6_6 Ti2_4 3.187729 1_555
Ta6_7 Ti2_3 3.187729 1_555
Ta6_7 Ti2_5 3.187729 1_555
Ti0_0 Ti1_4 3.196634 1_555
Ti0_0 Ti1_2 3.196635 1_555
Ti0_1 Ti1_5 3.196634 1_555
Ti0_1 Ti1_3 3.196635 1_555
Ti0_2 Ti1_6 3.196634 1_555
Ti0_2 Ti1_0 3.196635 1_565
Ti0_3 Ti1_7 3.196634 1_555
Ti0_3 Ti1_1 3.196635 1_565
Ti0_4 Ti1_0 3.196634 1_655
Ti0_4 Ti1_6 3.196635 1_555
Ti0_5 Ti1_1 3.196634 1_655
Ti0_5 Ti1_7 3.196635 1_555
Ti0_6 Ti1_2 3.196634 1_655
Ti0_6 Ti1_4 3.196635 1_565
Ti0_7 Ti1_3 3.196634 1_655
Ti0_7 Ti1_5 3.196635 1_565
Ti1_0 Ti2_5 3.143506 1_455
Ti1_0 Ti2_3 3.143507 1_545
Ti1_1 Ti2_4 3.143506 1_456
Ti1_1 Ti2_2 3.143507 1_546
Ti1_2 Ti2_7 3.143506 1_455
Ti1_2 Ti2_1 3.143507 1_555
Ti1_3 Ti2_6 3.143506 1_456
Ti1_3 Ti2_0 3.143507 1_556
Ti1_4 Ti2_1 3.143506 1_555
Ti1_4 Ti2_7 3.143507 1_545
Ti1_5 Ti2_0 3.143506 1_556
Ti1_5 Ti2_6 3.143507 1_546
Ti1_6 Ti2_3 3.143506 1_555
Ti1_6 Ti2_5 3.143507 1_555
Ti1_7 Ti2_2 3.143506 1_556
Ti1_7 Ti2_4 3.143507 1_556
Ti5_0 Ti6_2 3.281583 1_545
Ti5_0 Ti6_4 3.281583 1_455
Ti5_1 Ti6_3 3.281583 1_545
Ti5_1 Ti6_5 3.281583 1_455
Ti5_2 Ti6_0 3.281583 1_555
Ti5_2 Ti6_6 3.281583 1_455
Ti5_3 Ti6_1 3.281583 1_555
Ti5_3 Ti6_7 3.281583 1_455
Ti5_4 Ti6_6 3.281583 1_545
Ti5_4 Ti6_0 3.281583 1_555
Ti5_5 Ti6_7 3.281583 1_545
Ti5_5 Ti6_1 3.281583 1_555
Ti5_6 Ti6_4 3.281583 1_555
Ti5_6 Ti6_2 3.281583 1_555
Ti5_7 Ti6_5 3.281583 1_555
Ti5_7 Ti6_3 3.281583 1_555
As0_0 Ti0_2 2.563419 1_545
As0_0 Ti0_4 2.563420 1_455
As0_0 Ti2_5 2.589700 1_455
As0_0 Ti2_3 2.589700 1_545
As0_0 Ta3_4 2.711258 1_455
As0_0 Ta3_2 2.711259 1_545
As0_0 Ta0_0 2.783519 1_555
As0_0 Ta4_0 2.798818 1_555
As0_0 Ti1_0 2.806554 1_555
As0_1 Ti0_3 2.563419 1_545
As0_1 Ti0_5 2.563420 1_455
As0_1 Ti2_4 2.589700 1_456
As0_1 Ti2_2 2.589700 1_546
As0_1 Ta3_5 2.711258 1_455
As0_1 Ta3_3 2.711259 1_545
As0_1 Ta0_1 2.783519 1_555
As0_1 Ta4_1 2.798818 1_555
As0_1 Ti1_1 2.806554 1_555
As0_2 Ti0_0 2.563419 1_555
As0_2 Ti0_6 2.563420 1_455
As0_2 Ti2_7 2.589700 1_455
As0_2 Ti2_1 2.589700 1_555
As0_2 Ta3_6 2.711258 1_455
As0_2 Ta3_0 2.711259 1_555
As0_2 Ta0_2 2.783519 1_555
As0_2 Ta4_2 2.798818 1_555
As0_2 Ti1_2 2.806554 1_555
As0_3 Ti0_1 2.563419 1_555
As0_3 Ti0_7 2.563420 1_455
As0_3 Ti2_6 2.589700 1_456
As0_3 Ti2_0 2.589700 1_556
As0_3 Ta3_7 2.711258 1_455
As0_3 Ta3_1 2.711259 1_555
As0_3 Ta0_3 2.783519 1_555
As0_3 Ta4_3 2.798818 1_555
As0_3 Ti1_3 2.806554 1_555
As0_4 Ti0_6 2.563419 1_545
As0_4 Ti0_0 2.563420 1_555
As0_4 Ti2_1 2.589700 1_555
As0_4 Ti2_7 2.589700 1_545
As0_4 Ta3_0 2.711258 1_555
As0_4 Ta3_6 2.711259 1_545
As0_4 Ta0_4 2.783519 1_555
As0_4 Ta4_4 2.798818 1_555
As0_4 Ti1_4 2.806554 1_555
As0_5 Ti0_7 2.563419 1_545
As0_5 Ti0_1 2.563420 1_555
As0_5 Ti2_0 2.589700 1_556
As0_5 Ti2_6 2.589700 1_546
As0_5 Ta3_1 2.711258 1_555
As0_5 Ta3_7 2.711259 1_545
As0_5 Ta0_5 2.783519 1_555
As0_5 Ta4_5 2.798818 1_555
As0_5 Ti1_5 2.806554 1_555
As0_6 Ti0_4 2.563419 1_555
As0_6 Ti0_2 2.563420 1_555
As0_6 Ti2_3 2.589700 1_555
As0_6 Ti2_5 2.589700 1_555
As0_6 Ta3_2 2.711258 1_555
As0_6 Ta3_4 2.711259 1_555
As0_6 Ta0_6 2.783519 1_555
As0_6 Ta4_6 2.798818 1_555
As0_6 Ti1_6 2.806554 1_555
As0_7 Ti0_5 2.563419 1_555
As0_7 Ti0_3 2.563420 1_555
As0_7 Ti2_2 2.589700 1_556
As0_7 Ti2_4 2.589700 1_556
As0_7 Ta3_3 2.711258 1_555
As0_7 Ta3_5 2.711259 1_555
As0_7 Ta0_7 2.783519 1_555
As0_7 Ta4_7 2.798818 1_555
As0_7 Ti1_7 2.806554 1_555
As1_0 Ti1_5 2.555012 1_554
As1_0 Ti1_3 2.555012 1_554
As1_0 Ta6_2 2.603226 1_555
As1_0 Ta6_4 2.603227 1_555
As1_0 Ta2_4 2.695709 1_555
As1_0 Ta2_2 2.695710 1_555
As1_0 Ta0_7 2.748196 1_554
As1_0 Ti2_0 2.836945 1_555
As1_0 Ta5_0 2.837009 1_555
As1_1 Ti1_4 2.555012 1_555
As1_1 Ti1_2 2.555012 1_555
As1_1 Ta6_3 2.603226 1_555
As1_1 Ta6_5 2.603227 1_555
As1_1 Ta2_5 2.695709 1_555
As1_1 Ta2_3 2.695710 1_555
As1_1 Ta0_6 2.748196 1_555
As1_1 Ti2_1 2.836945 1_555
As1_1 Ta5_1 2.837009 1_555
As1_2 Ti1_7 2.555012 1_554
As1_2 Ti1_1 2.555012 1_564
As1_2 Ta6_0 2.603226 1_565
As1_2 Ta6_6 2.603227 1_555
As1_2 Ta2_6 2.695709 1_555
As1_2 Ta2_0 2.695710 1_565
As1_2 Ta0_5 2.748196 1_564
As1_2 Ti2_2 2.836945 1_555
As1_2 Ta5_2 2.837009 1_555
As1_3 Ti1_6 2.555012 1_555
As1_3 Ti1_0 2.555012 1_565
As1_3 Ta6_1 2.603226 1_565
As1_3 Ta6_7 2.603227 1_555
As1_3 Ta2_7 2.695709 1_555
As1_3 Ta2_1 2.695710 1_565
As1_3 Ta0_4 2.748196 1_565
As1_3 Ti2_3 2.836945 1_555
As1_3 Ta5_3 2.837009 1_555
As1_4 Ti1_1 2.555012 1_654
As1_4 Ti1_7 2.555012 1_554
As1_4 Ta6_6 2.603226 1_555
As1_4 Ta6_0 2.603227 1_655
As1_4 Ta2_0 2.695709 1_655
As1_4 Ta2_6 2.695710 1_555
As1_4 Ta0_3 2.748196 1_654
As1_4 Ti2_4 2.836945 1_555
As1_4 Ta5_4 2.837009 1_555
As1_5 Ti1_0 2.555012 1_655
As1_5 Ti1_6 2.555012 1_555
As1_5 Ta6_7 2.603226 1_555
As1_5 Ta6_1 2.603227 1_655
As1_5 Ta2_1 2.695709 1_655
As1_5 Ta2_7 2.695710 1_555
As1_5 Ta0_2 2.748196 1_655
As1_5 Ti2_5 2.836945 1_555
As1_5 Ta5_5 2.837009 1_555
As1_6 Ti1_3 2.555012 1_654
As1_6 Ti1_5 2.555012 1_564
As1_6 Ta6_4 2.603226 1_565
As1_6 Ta6_2 2.603227 1_655
As1_6 Ta2_2 2.695709 1_655
As1_6 Ta2_4 2.695710 1_565
As1_6 Ta0_1 2.748196 1_664
As1_6 Ti2_6 2.836945 1_555
As1_6 Ta5_6 2.837009 1_555
As1_7 Ti1_2 2.555012 1_655
As1_7 Ti1_4 2.555012 1_565
As1_7 Ta6_5 2.603226 1_565
As1_7 Ta6_3 2.603227 1_655
As1_7 Ta2_3 2.695709 1_655
As1_7 Ta2_5 2.695710 1_565
As1_7 Ta0_0 2.748196 1_665
As1_7 Ti2_7 2.836945 1_555
As1_7 Ta5_7 2.837009 1_555
As2_0 Ta5_4 2.593162 1_455
As2_0 Ta5_2 2.593163 1_545
As2_0 Ti3_2 2.620849 1_545
As2_0 Ti3_4 2.620850 1_455
As2_0 Ti6_4 2.628582 1_455
As2_0 Ti6_2 2.628582 1_545
As2_0 Ta1_0 2.645490 1_555
As2_0 Ti5_0 2.802386 1_555
As2_0 Ta2_0 3.244840 1_555
As2_1 Ta5_5 2.593162 1_455
As2_1 Ta5_3 2.593163 1_545
As2_1 Ti3_3 2.620849 1_545
As2_1 Ti3_5 2.620850 1_455
As2_1 Ti6_5 2.628582 1_455
As2_1 Ti6_3 2.628582 1_545
As2_1 Ta1_1 2.645490 1_555
As2_1 Ti5_1 2.802386 1_555
As2_1 Ta2_1 3.244840 1_555
As2_2 Ta5_6 2.593162 1_455
As2_2 Ta5_0 2.593163 1_555
As2_2 Ti3_0 2.620849 1_555
As2_2 Ti3_6 2.620850 1_455
As2_2 Ti6_6 2.628582 1_455
As2_2 Ti6_0 2.628582 1_555
As2_2 Ta1_2 2.645490 1_555
As2_2 Ti5_2 2.802386 1_555
As2_2 Ta2_2 3.244840 1_555
As2_3 Ta5_7 2.593162 1_455
As2_3 Ta5_1 2.593163 1_555
As2_3 Ti3_1 2.620849 1_555
As2_3 Ti3_7 2.620850 1_455
As2_3 Ti6_7 2.628582 1_455
As2_3 Ti6_1 2.628582 1_555
As2_3 Ta1_3 2.645490 1_555
As2_3 Ti5_3 2.802386 1_555
As2_3 Ta2_3 3.244840 1_555
As2_4 Ta5_0 2.593162 1_555
As2_4 Ta5_6 2.593163 1_545
As2_4 Ti3_6 2.620849 1_545
As2_4 Ti3_0 2.620850 1_555
As2_4 Ti6_0 2.628582 1_555
As2_4 Ti6_6 2.628582 1_545
As2_4 Ta1_4 2.645490 1_555
As2_4 Ti5_4 2.802386 1_555
As2_4 Ta2_4 3.244840 1_555
As2_5 Ta5_1 2.593162 1_555
As2_5 Ta5_7 2.593163 1_545
As2_5 Ti3_7 2.620849 1_545
As2_5 Ti3_1 2.620850 1_555
As2_5 Ti6_1 2.628582 1_555
As2_5 Ti6_7 2.628582 1_545
As2_5 Ta1_5 2.645490 1_555
As2_5 Ti5_5 2.802386 1_555
As2_5 Ta2_5 3.244840 1_555
As2_6 Ta5_2 2.593162 1_555
As2_6 Ta5_4 2.593163 1_555
As2_6 Ti3_4 2.620849 1_555
As2_6 Ti3_2 2.620850 1_555
As2_6 Ti6_2 2.628582 1_555
As2_6 Ti6_4 2.628582 1_555
As2_6 Ta1_6 2.645490 1_555
As2_6 Ti5_6 2.802386 1_555
As2_6 Ta2_6 3.244840 1_555
As2_7 Ta5_3 2.593162 1_555
As2_7 Ta5_5 2.593163 1_555
As2_7 Ti3_5 2.620849 1_555
As2_7 Ti3_3 2.620850 1_555
As2_7 Ti6_3 2.628582 1_555
As2_7 Ti6_5 2.628582 1_555
As2_7 Ta1_7 2.645490 1_555
As2_7 Ti5_7 2.802386 1_555
As2_7 Ta2_7 3.244840 1_555
As3_0 Ta4_4 2.581476 1_555
As3_0 Ta4_2 2.581476 1_555
As3_0 Ti4_4 2.622938 1_455
As3_0 Ti4_2 2.622939 1_545
As3_0 Ti5_4 2.648111 1_555
As3_0 Ti5_2 2.648111 1_555
As3_0 Ta1_0 2.658382 1_555
As3_0 Ti6_0 2.803250 1_555
As3_0 Ta3_0 3.221615 1_555
As3_1 Ta4_5 2.581476 1_555
As3_1 Ta4_3 2.581476 1_555
As3_1 Ti4_5 2.622938 1_455
As3_1 Ti4_3 2.622939 1_545
As3_1 Ti5_5 2.648111 1_555
As3_1 Ti5_3 2.648111 1_555
As3_1 Ta1_1 2.658382 1_555
As3_1 Ti6_1 2.803250 1_555
As3_1 Ta3_1 3.221615 1_555
As3_2 Ta4_6 2.581476 1_555
As3_2 Ta4_0 2.581476 1_565
As3_2 Ti4_6 2.622938 1_455
As3_2 Ti4_0 2.622939 1_555
As3_2 Ti5_6 2.648111 1_555
As3_2 Ti5_0 2.648111 1_565
As3_2 Ta1_2 2.658382 1_555
As3_2 Ti6_2 2.803250 1_555
As3_2 Ta3_2 3.221615 1_555
As3_3 Ta4_7 2.581476 1_555
As3_3 Ta4_1 2.581476 1_565
As3_3 Ti4_7 2.622938 1_455
As3_3 Ti4_1 2.622939 1_555
As3_3 Ti5_7 2.648111 1_555
As3_3 Ti5_1 2.648111 1_565
As3_3 Ta1_3 2.658382 1_555
As3_3 Ti6_3 2.803250 1_555
As3_3 Ta3_3 3.221615 1_555
As3_4 Ta4_0 2.581476 1_655
As3_4 Ta4_6 2.581476 1_555
As3_4 Ti4_0 2.622938 1_555
As3_4 Ti4_6 2.622939 1_545
As3_4 Ti5_0 2.648111 1_655
As3_4 Ti5_6 2.648111 1_555
As3_4 Ta1_4 2.658382 1_555
As3_4 Ti6_4 2.803250 1_555
As3_4 Ta3_4 3.221615 1_555
As3_5 Ta4_1 2.581476 1_655
As3_5 Ta4_7 2.581476 1_555
As3_5 Ti4_1 2.622938 1_555
As3_5 Ti4_7 2.622939 1_545
As3_5 Ti5_1 2.648111 1_655
As3_5 Ti5_7 2.648111 1_555
As3_5 Ta1_5 2.658382 1_555
As3_5 Ti6_5 2.803250 1_555
As3_5 Ta3_5 3.221615 1_555
As3_6 Ta4_2 2.581476 1_655
As3_6 Ta4_4 2.581476 1_565
As3_6 Ti4_2 2.622938 1_555
As3_6 Ti4_4 2.622939 1_555
As3_6 Ti5_2 2.648111 1_655
As3_6 Ti5_4 2.648111 1_565
As3_6 Ta1_6 2.658382 1_555
As3_6 Ti6_6 2.803250 1_555
As3_6 Ta3_6 3.221615 1_555
As3_7 Ta4_3 2.581476 1_655
As3_7 Ta4_5 2.581476 1_565
As3_7 Ti4_3 2.622938 1_555
As3_7 Ti4_5 2.622939 1_555
As3_7 Ti5_3 2.648111 1_655
As3_7 Ti5_5 2.648111 1_565
As3_7 Ta1_7 2.658382 1_555
As3_7 Ti6_7 2.803250 1_555
As3_7 Ta3_7 3.221615 1_555
As4_0 Ti4_2 2.601152 1_545
As4_0 Ti4_4 2.601152 1_455
As4_0 Ta4_0 2.615721 1_555
As4_0 Ta1_0 2.623795 1_555
As4_0 Ti0_4 2.624441 1_455
As4_0 Ti0_2 2.624441 1_545
As4_0 Ti6_4 2.653076 1_455
As4_0 Ti6_2 2.653077 1_545
As4_1 Ti4_3 2.601152 1_545
As4_1 Ti4_5 2.601152 1_455
As4_1 Ta4_1 2.615721 1_555
As4_1 Ta1_1 2.623795 1_555
As4_1 Ti0_5 2.624441 1_455
As4_1 Ti0_3 2.624441 1_545
As4_1 Ti6_5 2.653076 1_455
As4_1 Ti6_3 2.653077 1_545
As4_2 Ti4_0 2.601152 1_555
As4_2 Ti4_6 2.601152 1_455
As4_2 Ta4_2 2.615721 1_555
As4_2 Ta1_2 2.623795 1_555
As4_2 Ti0_6 2.624441 1_455
As4_2 Ti0_0 2.624441 1_555
As4_2 Ti6_6 2.653076 1_455
As4_2 Ti6_0 2.653077 1_555
As4_3 Ti4_1 2.601152 1_555
As4_3 Ti4_7 2.601152 1_455
As4_3 Ta4_3 2.615721 1_555
As4_3 Ta1_3 2.623795 1_555
As4_3 Ti0_7 2.624441 1_455
As4_3 Ti0_1 2.624441 1_555
As4_3 Ti6_7 2.653076 1_455
As4_3 Ti6_1 2.653077 1_555
As4_4 Ti4_6 2.601152 1_545
As4_4 Ti4_0 2.601152 1_555
As4_4 Ta4_4 2.615721 1_555
As4_4 Ta1_4 2.623795 1_555
As4_4 Ti0_0 2.624441 1_555
As4_4 Ti0_6 2.624441 1_545
As4_4 Ti6_0 2.653076 1_555
As4_4 Ti6_6 2.653077 1_545
As4_5 Ti4_7 2.601152 1_545
As4_5 Ti4_1 2.601152 1_555
As4_5 Ta4_5 2.615721 1_555
As4_5 Ta1_5 2.623795 1_555
As4_5 Ti0_1 2.624441 1_555
As4_5 Ti0_7 2.624441 1_545
As4_5 Ti6_1 2.653076 1_555
As4_5 Ti6_7 2.653077 1_545
As4_6 Ti4_4 2.601152 1_555
As4_6 Ti4_2 2.601152 1_555
As4_6 Ta4_6 2.615721 1_555
As4_6 Ta1_6 2.623795 1_555
As4_6 Ti0_2 2.624441 1_555
As4_6 Ti0_4 2.624441 1_555
As4_6 Ti6_2 2.653076 1_555
As4_6 Ti6_4 2.653077 1_555
As4_7 Ti4_5 2.601152 1_555
As4_7 Ti4_3 2.601152 1_555
As4_7 Ta4_7 2.615721 1_555
As4_7 Ta1_7 2.623795 1_555
As4_7 Ti0_3 2.624441 1_555
As4_7 Ti0_5 2.624441 1_555
As4_7 Ti6_3 2.653076 1_555
As4_7 Ti6_5 2.653077 1_555
As5_0 Ti3_4 2.600735 1_455
As5_0 Ti3_2 2.600736 1_545
As5_0 Ta1_0 2.611377 1_555
As5_0 Ta5_0 2.645197 1_555
As5_0 Ti5_4 2.650453 1_555
As5_0 Ti5_2 2.650454 1_555
As5_0 Ta6_4 2.658874 1_555
As5_0 Ta6_2 2.658874 1_555
As5_1 Ti3_5 2.600735 1_455
As5_1 Ti3_3 2.600736 1_545
As5_1 Ta1_1 2.611377 1_555
As5_1 Ta5_1 2.645197 1_555
As5_1 Ti5_5 2.650453 1_555
As5_1 Ti5_3 2.650454 1_555
As5_1 Ta6_5 2.658874 1_555
As5_1 Ta6_3 2.658874 1_555
As5_2 Ti3_6 2.600735 1_455
As5_2 Ti3_0 2.600736 1_555
As5_2 Ta1_2 2.611377 1_555
As5_2 Ta5_2 2.645197 1_555
As5_2 Ti5_6 2.650453 1_555
As5_2 Ti5_0 2.650454 1_565
As5_2 Ta6_6 2.658874 1_555
As5_2 Ta6_0 2.658874 1_565
As5_3 Ti3_7 2.600735 1_455
As5_3 Ti3_1 2.600736 1_555
As5_3 Ta1_3 2.611377 1_555
As5_3 Ta5_3 2.645197 1_555
As5_3 Ti5_7 2.650453 1_555
As5_3 Ti5_1 2.650454 1_565
As5_3 Ta6_7 2.658874 1_555
As5_3 Ta6_1 2.658874 1_565
As5_4 Ti3_0 2.600735 1_555
As5_4 Ti3_6 2.600736 1_545
As5_4 Ta1_4 2.611377 1_555
As5_4 Ta5_4 2.645197 1_555
As5_4 Ti5_0 2.650453 1_655
As5_4 Ti5_6 2.650454 1_555
As5_4 Ta6_0 2.658874 1_655
As5_4 Ta6_6 2.658874 1_555
As5_5 Ti3_1 2.600735 1_555
As5_5 Ti3_7 2.600736 1_545
As5_5 Ta1_5 2.611377 1_555
As5_5 Ta5_5 2.645197 1_555
As5_5 Ti5_1 2.650453 1_655
As5_5 Ti5_7 2.650454 1_555
As5_5 Ta6_1 2.658874 1_655
As5_5 Ta6_7 2.658874 1_555
As5_6 Ti3_2 2.600735 1_555
As5_6 Ti3_4 2.600736 1_555
As5_6 Ta1_6 2.611377 1_555
As5_6 Ta5_6 2.645197 1_555
As5_6 Ti5_2 2.650453 1_655
As5_6 Ti5_4 2.650454 1_565
As5_6 Ta6_2 2.658874 1_655
As5_6 Ta6_4 2.658874 1_565
As5_7 Ti3_3 2.600735 1_555
As5_7 Ti3_5 2.600736 1_555
As5_7 Ta1_7 2.611377 1_555
As5_7 Ta5_7 2.645197 1_555
As5_7 Ti5_3 2.650453 1_655
As5_7 Ti5_5 2.650454 1_565
As5_7 Ta6_3 2.658874 1_655
As5_7 Ta6_5 2.658874 1_565
As6_0 Ti3_6 2.536477 1_445
As6_0 Ta6_0 2.537624 1_555
As6_0 Ta0_1 2.589345 1_554
As6_0 Ti2_2 2.637976 1_545
As6_0 Ti2_4 2.637976 1_455
As6_0 Ta2_4 2.654054 1_455
As6_0 Ta2_2 2.654054 1_545
As6_1 Ti3_7 2.536477 1_445
As6_1 Ta6_1 2.537624 1_555
As6_1 Ta0_0 2.589345 1_555
As6_1 Ti2_3 2.637976 1_545
As6_1 Ti2_5 2.637976 1_455
As6_1 Ta2_5 2.654054 1_455
As6_1 Ta2_3 2.654054 1_545
As6_2 Ti3_4 2.536477 1_455
As6_2 Ta6_2 2.537624 1_555
As6_2 Ta0_3 2.589345 1_554
As6_2 Ti2_0 2.637976 1_555
As6_2 Ti2_6 2.637976 1_455
As6_2 Ta2_6 2.654054 1_455
As6_2 Ta2_0 2.654054 1_555
As6_3 Ti3_5 2.536477 1_455
As6_3 Ta6_3 2.537624 1_555
As6_3 Ta0_2 2.589345 1_555
As6_3 Ti2_1 2.637976 1_555
As6_3 Ti2_7 2.637976 1_455
As6_3 Ta2_7 2.654054 1_455
As6_3 Ta2_1 2.654054 1_555
As6_4 Ti3_2 2.536477 1_545
As6_4 Ta6_4 2.537624 1_555
As6_4 Ta0_5 2.589345 1_554
As6_4 Ti2_6 2.637976 1_545
As6_4 Ti2_0 2.637976 1_555
As6_4 Ta2_0 2.654054 1_555
As6_4 Ta2_6 2.654054 1_545
As6_5 Ti3_3 2.536477 1_545
As6_5 Ta6_5 2.537624 1_555
As6_5 Ta0_4 2.589345 1_555
As6_5 Ti2_7 2.637976 1_545
As6_5 Ti2_1 2.637976 1_555
As6_5 Ta2_1 2.654054 1_555
As6_5 Ta2_7 2.654054 1_545
As6_6 Ti3_0 2.536477 1_555
As6_6 Ta6_6 2.537624 1_555
As6_6 Ta0_7 2.589345 1_554
As6_6 Ti2_4 2.637976 1_555
As6_6 Ti2_2 2.637976 1_555
As6_6 Ta2_2 2.654054 1_555
As6_6 Ta2_4 2.654054 1_555
As6_7 Ti3_1 2.536477 1_555
As6_7 Ta6_7 2.537624 1_555
As6_7 Ta0_6 2.589345 1_555
As6_7 Ti2_5 2.637976 1_555
As6_7 Ti2_3 2.637976 1_555
As6_7 Ta2_3 2.654054 1_555
As6_7 Ta2_5 2.654054 1_555
As7_0 Ti0_0 2.489962 1_555
As7_0 Ti4_0 2.536692 1_555
As7_0 Ta0_6 2.602703 1_555
As7_0 Ti1_2 2.631304 1_555
As7_0 Ti1_4 2.631305 1_555
As7_0 Ta3_4 2.685965 1_555
As7_0 Ta3_2 2.685966 1_555
As7_1 Ti0_1 2.489962 1_555
As7_1 Ti4_1 2.536692 1_555
As7_1 Ta0_7 2.602703 1_555
As7_1 Ti1_3 2.631304 1_555
As7_1 Ti1_5 2.631305 1_555
As7_1 Ta3_5 2.685965 1_555
As7_1 Ta3_3 2.685966 1_555
As7_2 Ti0_2 2.489962 1_555
As7_2 Ti4_2 2.536692 1_555
As7_2 Ta0_4 2.602703 1_565
As7_2 Ti1_0 2.631304 1_565
As7_2 Ti1_6 2.631305 1_555
As7_2 Ta3_6 2.685965 1_555
As7_2 Ta3_0 2.685966 1_565
As7_3 Ti0_3 2.489962 1_555
As7_3 Ti4_3 2.536692 1_555
As7_3 Ta0_5 2.602703 1_565
As7_3 Ti1_1 2.631304 1_565
As7_3 Ti1_7 2.631305 1_555
As7_3 Ta3_7 2.685965 1_555
As7_3 Ta3_1 2.685966 1_565
As7_4 Ti0_4 2.489962 1_555
As7_4 Ti4_4 2.536692 1_555
As7_4 Ta0_2 2.602703 1_655
As7_4 Ti1_6 2.631304 1_555
As7_4 Ti1_0 2.631305 1_655
As7_4 Ta3_0 2.685965 1_655
As7_4 Ta3_6 2.685966 1_555
As7_5 Ti0_5 2.489962 1_555
As7_5 Ti4_5 2.536692 1_555
As7_5 Ta0_3 2.602703 1_655
As7_5 Ti1_7 2.631304 1_555
As7_5 Ti1_1 2.631305 1_655
As7_5 Ta3_1 2.685965 1_655
As7_5 Ta3_7 2.685966 1_555
As7_6 Ti0_6 2.489962 1_555
As7_6 Ti4_6 2.536692 1_555
As7_6 Ta0_0 2.602703 1_665
As7_6 Ti1_4 2.631304 1_565
As7_6 Ti1_2 2.631305 1_655
As7_6 Ta3_2 2.685965 1_655
As7_6 Ta3_4 2.685966 1_565
As7_7 Ti0_7 2.489962 1_555
As7_7 Ti4_7 2.536692 1_555
As7_7 Ta0_1 2.602703 1_665
As7_7 Ti1_5 2.631304 1_565
As7_7 Ti1_3 2.631305 1_655
As7_7 Ta3_3 2.685965 1_655
As7_7 Ta3_5 2.685966 1_565
