# generated using pymatgen
data_SrLuCuTe3
_symmetry_space_group_name_H-M   'P 1'
_cell_length_a   7.55109359
_cell_length_b   7.55109449
_cell_length_c   11.19942180
_cell_angle_alpha   90.00000000
_cell_angle_beta   90.00000000
_cell_angle_gamma   146.77555553
_symmetry_Int_Tables_number   1
_chemical_formula_structural   SrLuCuTe3
_chemical_formula_sum   'Sr2 Lu2 Cu2 Te6'
_cell_volume   349.89089859
_cell_formula_units_Z   2
loop_
 _symmetry_equiv_pos_site_id
 _symmetry_equiv_pos_as_xyz
  1  'x, y, z'
loop_
 _atom_site_type_symbol
 _atom_site_label
 _atom_site_symmetry_multiplicity
 _atom_site_fract_x
 _atom_site_fract_y
 _atom_site_fract_z
 _atom_site_occupancy
  Sr  Sr0  1  0.75599521  0.24400479  0.25000000  1
  Sr  Sr1  1  0.24400479  0.75599521  0.75000000  1
  Lu  Lu0  1  0.00000000  0.00000000  0.50000000  1
  Lu  Lu1  1  0.00000000  0.00000000  0.00000000  1
  Cu  Cu0  1  0.52929372  0.47070628  0.75000000  1
  Cu  Cu1  1  0.47070628  0.52929372  0.25000000  1
  Te  Te0  1  0.63780737  0.36219263  0.93808376  1
  Te  Te1  1  0.07775788  0.92224212  0.25000000  1
  Te  Te2  1  0.36219263  0.63780737  0.43808376  1
  Te  Te3  1  0.36219263  0.63780737  0.06191624  1
  Te  Te4  1  0.63780737  0.36219263  0.56191624  1
  Te  Te5  1  0.92224212  0.07775788  0.75000000  1
loop_
_geom_bond_atom_site_label_1
_geom_bond_atom_site_label_2
_geom_bond_distance
_geom_bond_site_symmetry_2
Sr0 Te1 3.363607 1_545
Sr0 Te1 3.363608 1_655
Sr0 Te2 3.385181 1_655
Sr0 Te3 3.385181 1_655
Sr0 Te2 3.385182 1_545
Sr0 Te3 3.385182 1_545
Sr0 Te4 3.889534 1_555
Sr0 Te0 3.889534 1_554
Sr1 Te5 3.363607 1_565
Sr1 Te5 3.363608 1_455
Sr1 Te0 3.385181 1_455
Sr1 Te4 3.385181 1_455
Sr1 Te0 3.385182 1_565
Sr1 Te4 3.385182 1_565
Sr1 Te3 3.889534 1_556
Sr1 Te2 3.889534 1_555
Lu0 Te5 3.017531 1_455
Lu0 Te1 3.017531 1_545
Lu0 Te4 3.019704 1_555
Lu0 Te2 3.019704 1_445
Lu0 Te2 3.019704 1_555
Lu0 Te4 3.019704 1_445
Lu1 Te1 3.017531 1_545
Lu1 Te5 3.017531 1_454
Lu1 Te0 3.019704 1_554
Lu1 Te3 3.019704 1_445
Lu1 Te3 3.019704 1_555
Lu1 Te0 3.019704 1_444
Cu0 Te0 2.627390 1_555
Cu0 Te4 2.627390 1_555
Cu0 Te5 2.657171 1_455
Cu0 Te5 2.657171 1_565
Cu0 Sr1 3.783587 1_655
Cu0 Sr1 3.783588 1_545
Cu1 Te2 2.627390 1_555
Cu1 Te3 2.627390 1_555
Cu1 Te1 2.657171 1_655
Cu1 Te1 2.657171 1_545
Cu1 Sr0 3.783587 1_455
Cu1 Sr0 3.783588 1_565
