# generated using pymatgen
data_LiMnP2O7
_symmetry_space_group_name_H-M   'P 1'
_cell_length_a   5.25142097
_cell_length_b   7.02679723
_cell_length_c   8.10844188
_cell_angle_alpha   67.45244204
_cell_angle_beta   91.00449580
_cell_angle_gamma   94.92721598
_symmetry_Int_Tables_number   1
_chemical_formula_structural   LiMnP2O7
_chemical_formula_sum   'Li2 Mn2 P4 O14'
_cell_volume   275.27628245
_cell_formula_units_Z   2
loop_
 _symmetry_equiv_pos_site_id
 _symmetry_equiv_pos_as_xyz
  1  'x, y, z'
loop_
 _atom_site_type_symbol
 _atom_site_label
 _atom_site_symmetry_multiplicity
 _atom_site_fract_x
 _atom_site_fract_y
 _atom_site_fract_z
 _atom_site_occupancy
  Li  Li0  1  0.29423100  0.84940800  0.98967300  1
  Li  Li1  1  0.72912400  0.05829500  0.44408000  1
  Mn  Mn0  1  0.21163500  0.24645200  0.73057400  1
  Mn  Mn1  1  0.77433900  0.77679000  0.26788900  1
  P  P0  1  0.76538900  0.88233400  0.82926500  1
  P  P1  1  0.71702000  0.54643400  0.69361300  1
  P  P2  1  0.25244500  0.12414800  0.17347900  1
  P  P3  1  0.27754500  0.46668700  0.30356000  1
  O  O0  1  0.26490100  0.36116500  0.15736200  1
  O  O1  1  0.87078800  0.36209700  0.75555500  1
  O  O2  1  0.05215500  0.95840100  0.79506700  1
  O  O3  1  0.13267600  0.65874000  0.21631800  1
  O  O4  1  0.15482500  0.30259200  0.47566800  1
  O  O5  1  0.97235900  0.04141700  0.23366200  1
  O  O6  1  0.30350700  0.13962100  0.98191200  1
  O  O7  1  0.45463100  0.00906700  0.29681400  1
  O  O8  1  0.42714800  0.49615000  0.68292000  1
  O  O9  1  0.81361200  0.72810700  0.51905700  1
  O  O10  1  0.59076200  0.00704300  0.68713100  1
  O  O11  1  0.67292400  0.85485100  0.01791400  1
  O  O12  1  0.75280800  0.64575700  0.84373300  1
  O  O13  1  0.56472700  0.51694900  0.32641200  1
loop_
_geom_bond_atom_site_label_1
_geom_bond_atom_site_label_2
_geom_bond_distance
_geom_bond_site_symmetry_2
Li0 O2 1.965365 1_555
Li0 O3 1.965513 1_556
Li0 O11 1.996601 1_556
Li0 O6 2.012355 1_565
Li0 O10 2.724612 1_565
Li1 O7 1.947859 1_555
Li1 O10 2.000627 1_555
Li1 O5 2.194138 1_555
Li1 O9 2.243936 1_545
Mn0 O8 1.913894 1_555
Mn0 O6 1.950400 1_555
Mn0 O4 1.972297 1_555
Mn0 O2 1.996039 1_545
Mn0 O1 2.072203 1_455
Mn1 O9 1.941732 1_555
Mn1 O13 1.944014 1_555
Mn1 O11 1.962793 1_555
Mn1 O5 1.974397 1_565
Mn1 O3 2.228405 1_655
Mn1 O7 2.513134 1_565
O0 P2 1.615493 1_555
O0 P3 1.619364 1_555
O1 P1 1.499549 1_555
O2 P0 1.546970 1_455
O3 P3 1.525041 1_555
O4 P3 1.536949 1_555
O5 P2 1.549260 1_655
O6 P2 1.541614 1_556
O7 P2 1.507130 1_555
O8 P1 1.541444 1_555
O9 P1 1.555158 1_555
O10 P0 1.504516 1_545
O11 P0 1.547996 1_554
O12 P0 1.616625 1_555
O12 P1 1.620200 1_555
O13 P3 1.543493 1_555
