# generated using pymatgen
data_Hf5Zr(AuN)2
_symmetry_space_group_name_H-M   'P 1'
_cell_length_a   11.81338341
_cell_length_b   11.81338427
_cell_length_c   17.90065249
_cell_angle_alpha   90.00000000
_cell_angle_beta   90.00000000
_cell_angle_gamma   147.33846457
_symmetry_Int_Tables_number   1
_chemical_formula_structural   Hf5Zr(AuN)2
_chemical_formula_sum   'Hf40 Zr8 Au16 N16'
_cell_volume   1348.18659612
_cell_formula_units_Z   8
loop_
 _symmetry_equiv_pos_site_id
 _symmetry_equiv_pos_as_xyz
  1  'x, y, z'
loop_
 _atom_site_type_symbol
 _atom_site_label
 _atom_site_symmetry_multiplicity
 _atom_site_fract_x
 _atom_site_fract_y
 _atom_site_fract_z
 _atom_site_occupancy
  Hf  Hf0_0  1  0.31382826  0.18617074  0.02275876  1
  Hf  Hf0_1  1  0.31382826  0.18617074  0.52275876  1
  Hf  Hf0_2  1  0.31382826  0.68617074  0.02275876  1
  Hf  Hf0_3  1  0.31382826  0.68617074  0.52275876  1
  Hf  Hf0_4  1  0.81382826  0.18617074  0.02275876  1
  Hf  Hf0_5  1  0.81382826  0.18617074  0.52275876  1
  Hf  Hf0_6  1  0.81382826  0.68617074  0.02275876  1
  Hf  Hf0_7  1  0.81382826  0.68617074  0.52275876  1
  Hf  Hf1_0  1  0.31382826  0.18617074  0.22724174  1
  Hf  Hf1_1  1  0.31382826  0.18617074  0.72724174  1
  Hf  Hf1_2  1  0.31382826  0.68617074  0.22724174  1
  Hf  Hf1_3  1  0.31382826  0.68617074  0.72724174  1
  Hf  Hf1_4  1  0.81382826  0.18617074  0.22724174  1
  Hf  Hf1_5  1  0.81382826  0.18617074  0.72724174  1
  Hf  Hf1_6  1  0.81382826  0.68617074  0.22724174  1
  Hf  Hf1_7  1  0.81382826  0.68617074  0.72724174  1
  Hf  Hf2_0  1  0.18669941  0.31329959  0.27386678  1
  Hf  Hf2_1  1  0.18669941  0.31329959  0.77386678  1
  Hf  Hf2_2  1  0.18669941  0.81329959  0.27386678  1
  Hf  Hf2_3  1  0.18669941  0.81329959  0.77386678  1
  Hf  Hf2_4  1  0.68669941  0.31329959  0.27386678  1
  Hf  Hf2_5  1  0.68669941  0.31329959  0.77386678  1
  Hf  Hf2_6  1  0.68669941  0.81329959  0.27386678  1
  Hf  Hf2_7  1  0.68669941  0.81329959  0.77386678  1
  Hf  Hf3_0  1  0.02280880  0.47719070  0.37500000  1
  Hf  Hf3_1  1  0.02280880  0.47719070  0.87500000  1
  Hf  Hf3_2  1  0.02280880  0.97719070  0.37500000  1
  Hf  Hf3_3  1  0.02280880  0.97719070  0.87500000  1
  Hf  Hf3_4  1  0.52280880  0.47719070  0.37500000  1
  Hf  Hf3_5  1  0.52280880  0.47719070  0.87500000  1
  Hf  Hf3_6  1  0.52280880  0.97719070  0.37500000  1
  Hf  Hf3_7  1  0.52280880  0.97719070  0.87500000  1
  Hf  Hf4_0  1  0.18669941  0.31329959  0.47613322  1
  Hf  Hf4_1  1  0.18669941  0.31329959  0.97613322  1
  Hf  Hf4_2  1  0.18669941  0.81329959  0.47613322  1
  Hf  Hf4_3  1  0.18669941  0.81329959  0.97613322  1
  Hf  Hf4_4  1  0.68669941  0.31329959  0.47613322  1
  Hf  Hf4_5  1  0.68669941  0.31329959  0.97613322  1
  Hf  Hf4_6  1  0.68669941  0.81329959  0.47613322  1
  Hf  Hf4_7  1  0.68669941  0.81329959  0.97613322  1
  Zr  Zr0_0  1  0.47695397  0.02304553  0.12500000  1
  Zr  Zr0_1  1  0.47695397  0.02304553  0.62500000  1
  Zr  Zr0_2  1  0.47695397  0.52304553  0.12500000  1
  Zr  Zr0_3  1  0.47695397  0.52304553  0.62500000  1
  Zr  Zr0_4  1  0.97695397  0.02304553  0.12500000  1
  Zr  Zr0_5  1  0.97695397  0.02304553  0.62500000  1
  Zr  Zr0_6  1  0.97695397  0.52304553  0.12500000  1
  Zr  Zr0_7  1  0.97695397  0.52304553  0.62500000  1
  Au  Au0_0  1  0.12281402  0.37718498  0.12500000  1
  Au  Au0_1  1  0.12281402  0.37718498  0.62500000  1
  Au  Au0_2  1  0.12281402  0.87718498  0.12500000  1
  Au  Au0_3  1  0.12281402  0.87718498  0.62500000  1
  Au  Au0_4  1  0.62281402  0.37718498  0.12500000  1
  Au  Au0_5  1  0.62281402  0.37718498  0.62500000  1
  Au  Au0_6  1  0.62281402  0.87718498  0.12500000  1
  Au  Au0_7  1  0.62281402  0.87718498  0.62500000  1
  Au  Au1_0  1  0.37543918  0.12455982  0.37500000  1
  Au  Au1_1  1  0.37543918  0.12455982  0.87500000  1
  Au  Au1_2  1  0.37543918  0.62455982  0.37500000  1
  Au  Au1_3  1  0.37543918  0.62455982  0.87500000  1
  Au  Au1_4  1  0.87543918  0.12455982  0.37500000  1
  Au  Au1_5  1  0.87543918  0.12455982  0.87500000  1
  Au  Au1_6  1  0.87543918  0.62455982  0.37500000  1
  Au  Au1_7  1  0.87543918  0.62455982  0.87500000  1
  N  N0_0  1  0.00046285  0.49953715  0.49831804  1
  N  N0_1  1  0.00046285  0.49953715  0.99831804  1
  N  N0_2  1  0.00046285  0.99953715  0.49831804  1
  N  N0_3  1  0.00046285  0.99953715  0.99831804  1
  N  N0_4  1  0.50046285  0.49953715  0.49831804  1
  N  N0_5  1  0.50046285  0.49953715  0.99831804  1
  N  N0_6  1  0.50046285  0.99953715  0.49831804  1
  N  N0_7  1  0.50046285  0.99953715  0.99831804  1
  N  N1_0  1  0.00046285  0.49953715  0.25168196  1
  N  N1_1  1  0.00046285  0.49953715  0.75168196  1
  N  N1_2  1  0.00046285  0.99953715  0.25168196  1
  N  N1_3  1  0.00046285  0.99953715  0.75168196  1
  N  N1_4  1  0.50046285  0.49953715  0.25168196  1
  N  N1_5  1  0.50046285  0.49953715  0.75168196  1
  N  N1_6  1  0.50046285  0.99953715  0.25168196  1
  N  N1_7  1  0.50046285  0.99953715  0.75168196  1
loop_
_geom_bond_atom_site_label_1
_geom_bond_atom_site_label_2
_geom_bond_distance
_geom_bond_site_symmetry_2
Hf0_0 N0_3 2.239203 1_544
Hf0_0 N0_5 2.239208 1_554
Hf0_0 Zr0_4 3.160370 1_455
Hf0_0 Zr0_2 3.160372 1_555
Hf0_1 N0_2 2.239203 1_545
Hf0_1 N0_4 2.239208 1_555
Hf0_1 Zr0_5 3.160370 1_455
Hf0_1 Zr0_3 3.160372 1_555
Hf0_2 N0_1 2.239203 1_554
Hf0_2 N0_7 2.239208 1_554
Hf0_2 Zr0_6 3.160370 1_455
Hf0_2 Zr0_0 3.160372 1_565
Hf0_3 N0_0 2.239203 1_555
Hf0_3 N0_6 2.239208 1_555
Hf0_3 Zr0_7 3.160370 1_455
Hf0_3 Zr0_1 3.160372 1_565
Hf0_4 N0_7 2.239203 1_544
Hf0_4 N0_1 2.239208 1_654
Hf0_4 Zr0_0 3.160370 1_555
Hf0_4 Zr0_6 3.160372 1_555
Hf0_5 N0_6 2.239203 1_545
Hf0_5 N0_0 2.239208 1_655
Hf0_5 Zr0_1 3.160370 1_555
Hf0_5 Zr0_7 3.160372 1_555
Hf0_6 N0_5 2.239203 1_554
Hf0_6 N0_3 2.239208 1_654
Hf0_6 Zr0_2 3.160370 1_555
Hf0_6 Zr0_4 3.160372 1_565
Hf0_7 N0_4 2.239203 1_555
Hf0_7 N0_2 2.239208 1_655
Hf0_7 Zr0_3 3.160370 1_555
Hf0_7 Zr0_5 3.160372 1_565
Hf1_0 N1_2 2.239201 1_545
Hf1_0 N1_4 2.239207 1_555
Hf1_0 Zr0_4 3.160375 1_455
Hf1_0 Zr0_2 3.160377 1_555
Hf1_1 N1_3 2.239201 1_545
Hf1_1 N1_5 2.239207 1_555
Hf1_1 Zr0_5 3.160375 1_455
Hf1_1 Zr0_3 3.160377 1_555
Hf1_2 N1_0 2.239201 1_555
Hf1_2 N1_6 2.239207 1_555
Hf1_2 Zr0_6 3.160375 1_455
Hf1_2 Zr0_0 3.160377 1_565
Hf1_3 N1_1 2.239201 1_555
Hf1_3 N1_7 2.239207 1_555
Hf1_3 Zr0_7 3.160375 1_455
Hf1_3 Zr0_1 3.160377 1_565
Hf1_4 N1_6 2.239201 1_545
Hf1_4 N1_0 2.239207 1_655
Hf1_4 Zr0_0 3.160375 1_555
Hf1_4 Zr0_6 3.160377 1_555
Hf1_5 N1_7 2.239201 1_545
Hf1_5 N1_1 2.239207 1_655
Hf1_5 Zr0_1 3.160375 1_555
Hf1_5 Zr0_7 3.160377 1_555
Hf1_6 N1_4 2.239201 1_555
Hf1_6 N1_2 2.239207 1_655
Hf1_6 Zr0_2 3.160375 1_555
Hf1_6 Zr0_4 3.160377 1_565
Hf1_7 N1_5 2.239201 1_555
Hf1_7 N1_3 2.239207 1_655
Hf1_7 Zr0_3 3.160375 1_555
Hf1_7 Zr0_5 3.160377 1_565
Hf2_0 N1_2 2.237471 1_545
Hf2_0 N1_4 2.237476 1_555
Hf2_1 N1_3 2.237471 1_545
Hf2_1 N1_5 2.237476 1_555
Hf2_2 N1_0 2.237471 1_555
Hf2_2 N1_6 2.237476 1_555
Hf2_3 N1_1 2.237471 1_555
Hf2_3 N1_7 2.237476 1_555
Hf2_4 N1_6 2.237471 1_545
Hf2_4 N1_0 2.237476 1_655
Hf2_5 N1_7 2.237471 1_545
Hf2_5 N1_1 2.237476 1_655
Hf2_6 N1_4 2.237471 1_555
Hf2_6 N1_2 2.237476 1_655
Hf2_7 N1_5 2.237471 1_555
Hf2_7 N1_3 2.237476 1_655
Hf3_0 N0_0 2.264873 1_555
Hf3_0 N1_0 2.264873 1_555
Hf3_1 N0_1 2.264873 1_555
Hf3_1 N1_1 2.264873 1_555
Hf3_2 N0_2 2.264873 1_555
Hf3_2 N1_2 2.264873 1_555
Hf3_3 N0_3 2.264873 1_555
Hf3_3 N1_3 2.264873 1_555
Hf3_4 N0_4 2.264873 1_555
Hf3_4 N1_4 2.264873 1_555
Hf3_5 N0_5 2.264873 1_555
Hf3_5 N1_5 2.264873 1_555
Hf3_6 N0_6 2.264873 1_555
Hf3_6 N1_6 2.264873 1_555
Hf3_7 N0_7 2.264873 1_555
Hf3_7 N1_7 2.264873 1_555
Hf4_0 N0_2 2.237471 1_545
Hf4_0 N0_4 2.237476 1_555
Hf4_1 N0_3 2.237471 1_545
Hf4_1 N0_5 2.237476 1_555
Hf4_2 N0_0 2.237471 1_555
Hf4_2 N0_6 2.237476 1_555
Hf4_3 N0_1 2.237471 1_555
Hf4_3 N0_7 2.237476 1_555
Hf4_4 N0_6 2.237471 1_545
Hf4_4 N0_0 2.237476 1_655
Hf4_5 N0_7 2.237471 1_545
Hf4_5 N0_1 2.237476 1_655
Hf4_6 N0_4 2.237471 1_555
Hf4_6 N0_2 2.237476 1_655
Hf4_7 N0_5 2.237471 1_555
Hf4_7 N0_3 2.237476 1_655
Au0_0 Hf0_4 2.810107 1_455
Au0_0 Hf0_2 2.810107 1_555
Au0_0 Hf1_4 2.810112 1_455
Au0_0 Hf1_2 2.810113 1_555
Au0_0 Zr0_4 2.886828 1_455
Au0_0 Zr0_2 2.886829 1_555
Au0_0 Hf4_1 3.033051 1_554
Au0_0 Hf2_0 3.033051 1_555
Au0_0 Zr0_6 3.307168 1_455
Au0_0 Au0_6 3.321712 1_555
Au0_0 Au0_6 3.321712 1_445
Au0_1 Hf0_5 2.810107 1_455
Au0_1 Hf0_3 2.810107 1_555
Au0_1 Hf1_5 2.810112 1_455
Au0_1 Hf1_3 2.810113 1_555
Au0_1 Zr0_5 2.886828 1_455
Au0_1 Zr0_3 2.886829 1_555
Au0_1 Hf4_0 3.033051 1_555
Au0_1 Hf2_1 3.033051 1_555
Au0_1 Zr0_7 3.307168 1_455
Au0_1 Au0_7 3.321712 1_445
Au0_1 Au0_7 3.321712 1_555
Au0_2 Hf0_6 2.810107 1_455
Au0_2 Hf0_0 2.810107 1_565
Au0_2 Hf1_6 2.810112 1_455
Au0_2 Hf1_0 2.810113 1_565
Au0_2 Zr0_6 2.886828 1_455
Au0_2 Zr0_0 2.886829 1_565
Au0_2 Hf2_2 3.033051 1_555
Au0_2 Hf4_3 3.033051 1_554
Au0_2 Zr0_4 3.307168 1_465
Au0_2 Au0_4 3.321712 1_455
Au0_2 Au0_4 3.321712 1_565
Au0_3 Hf0_7 2.810107 1_455
Au0_3 Hf0_1 2.810107 1_565
Au0_3 Hf1_7 2.810112 1_455
Au0_3 Hf1_1 2.810113 1_565
Au0_3 Zr0_7 2.886828 1_455
Au0_3 Zr0_1 2.886829 1_565
Au0_3 Hf4_2 3.033051 1_555
Au0_3 Hf2_3 3.033051 1_555
Au0_3 Zr0_5 3.307168 1_465
Au0_3 Au0_5 3.321712 1_455
Au0_3 Au0_5 3.321712 1_565
Au0_4 Hf0_0 2.810107 1_555
Au0_4 Hf0_6 2.810107 1_555
Au0_4 Hf1_0 2.810112 1_555
Au0_4 Hf1_6 2.810113 1_555
Au0_4 Zr0_0 2.886828 1_555
Au0_4 Zr0_6 2.886829 1_555
Au0_4 Hf4_5 3.033051 1_554
Au0_4 Hf2_4 3.033051 1_555
Au0_4 Zr0_2 3.307168 1_555
Au0_5 Hf0_1 2.810107 1_555
Au0_5 Hf0_7 2.810107 1_555
Au0_5 Hf1_1 2.810112 1_555
Au0_5 Hf1_7 2.810113 1_555
Au0_5 Zr0_1 2.886828 1_555
Au0_5 Zr0_7 2.886829 1_555
Au0_5 Hf4_4 3.033051 1_555
Au0_5 Hf2_5 3.033051 1_555
Au0_5 Zr0_3 3.307168 1_555
Au0_6 Hf0_2 2.810107 1_555
Au0_6 Hf0_4 2.810107 1_565
Au0_6 Hf1_2 2.810112 1_555
Au0_6 Hf1_4 2.810113 1_565
Au0_6 Zr0_2 2.886828 1_555
Au0_6 Zr0_4 2.886829 1_565
Au0_6 Hf4_7 3.033051 1_554
Au0_6 Hf2_6 3.033051 1_555
Au0_6 Zr0_0 3.307168 1_565
Au0_7 Hf0_3 2.810107 1_555
Au0_7 Hf0_5 2.810107 1_565
Au0_7 Hf1_3 2.810112 1_555
Au0_7 Hf1_5 2.810113 1_565
Au0_7 Zr0_3 2.886828 1_555
Au0_7 Zr0_5 2.886829 1_565
Au0_7 Hf4_6 3.033051 1_555
Au0_7 Hf2_7 3.033051 1_555
Au0_7 Zr0_1 3.307168 1_565
Au1_0 Hf2_4 2.822250 1_555
Au1_0 Hf4_4 2.822250 1_555
Au1_0 Hf2_2 2.822250 1_545
Au1_0 Hf4_2 2.822250 1_545
Au1_0 Hf3_2 2.858909 1_545
Au1_0 Hf3_4 2.858911 1_555
Au1_0 Hf1_0 2.991203 1_555
Au1_0 Hf0_1 2.991211 1_555
Au1_0 Au1_6 3.321712 1_555
Au1_0 Au1_6 3.321712 1_445
Au1_0 Hf3_6 3.341384 1_545
Au1_1 Hf2_5 2.822250 1_555
Au1_1 Hf4_5 2.822250 1_555
Au1_1 Hf4_3 2.822250 1_545
Au1_1 Hf2_3 2.822250 1_545
Au1_1 Hf3_3 2.858909 1_545
Au1_1 Hf3_5 2.858911 1_555
Au1_1 Hf1_1 2.991203 1_555
Au1_1 Hf0_0 2.991211 1_556
Au1_1 Au1_7 3.321712 1_445
Au1_1 Au1_7 3.321712 1_555
Au1_1 Hf3_7 3.341384 1_545
Au1_2 Hf2_6 2.822250 1_555
Au1_2 Hf4_6 2.822250 1_555
Au1_2 Hf2_0 2.822250 1_555
Au1_2 Hf4_0 2.822250 1_555
Au1_2 Hf3_0 2.858909 1_555
Au1_2 Hf3_6 2.858911 1_555
Au1_2 Hf1_2 2.991203 1_555
Au1_2 Hf0_3 2.991211 1_555
Au1_2 Au1_4 3.321712 1_565
Au1_2 Au1_4 3.321712 1_455
Au1_2 Hf3_4 3.341384 1_555
Au1_3 Hf4_7 2.822250 1_555
Au1_3 Hf2_7 2.822250 1_555
Au1_3 Hf2_1 2.822250 1_555
Au1_3 Hf4_1 2.822250 1_555
Au1_3 Hf3_1 2.858909 1_555
Au1_3 Hf3_7 2.858911 1_555
Au1_3 Hf1_3 2.991203 1_555
Au1_3 Hf0_2 2.991211 1_556
Au1_3 Au1_5 3.321712 1_565
Au1_3 Au1_5 3.321712 1_455
Au1_3 Hf3_5 3.341384 1_555
Au1_4 Hf2_0 2.822250 1_655
Au1_4 Hf4_0 2.822250 1_655
Au1_4 Hf2_6 2.822250 1_545
Au1_4 Hf4_6 2.822250 1_545
Au1_4 Hf3_6 2.858909 1_545
Au1_4 Hf3_0 2.858911 1_655
Au1_4 Hf1_4 2.991203 1_555
Au1_4 Hf0_5 2.991211 1_555
Au1_4 Hf3_2 3.341384 1_645
Au1_5 Hf4_1 2.822250 1_655
Au1_5 Hf2_1 2.822250 1_655
Au1_5 Hf4_7 2.822250 1_545
Au1_5 Hf2_7 2.822250 1_545
Au1_5 Hf3_7 2.858909 1_545
Au1_5 Hf3_1 2.858911 1_655
Au1_5 Hf1_5 2.991203 1_555
Au1_5 Hf0_4 2.991211 1_556
Au1_5 Hf3_3 3.341384 1_645
Au1_6 Hf2_2 2.822250 1_655
Au1_6 Hf4_2 2.822250 1_655
Au1_6 Hf2_4 2.822250 1_555
Au1_6 Hf4_4 2.822250 1_555
Au1_6 Hf3_4 2.858909 1_555
Au1_6 Hf3_2 2.858911 1_655
Au1_6 Hf1_6 2.991203 1_555
Au1_6 Hf0_7 2.991211 1_555
Au1_6 Hf3_0 3.341384 1_655
Au1_7 Hf2_3 2.822250 1_655
Au1_7 Hf4_3 2.822250 1_655
Au1_7 Hf4_5 2.822250 1_555
Au1_7 Hf2_5 2.822250 1_555
Au1_7 Hf3_5 2.858909 1_555
Au1_7 Hf3_3 2.858911 1_655
Au1_7 Hf1_7 2.991203 1_555
Au1_7 Hf0_6 2.991211 1_556
Au1_7 Hf3_1 3.341384 1_655
N0_0 Zr0_7 2.329492 1_455
N0_1 Zr0_6 2.329492 1_456
N0_2 Zr0_5 2.329492 1_465
N0_3 Zr0_4 2.329492 1_466
N0_4 Zr0_3 2.329492 1_555
N0_5 Zr0_2 2.329492 1_556
N0_6 Zr0_1 2.329492 1_565
N0_7 Zr0_0 2.329492 1_566
N1_0 Zr0_6 2.329492 1_455
N1_1 Zr0_7 2.329492 1_455
N1_2 Zr0_4 2.329492 1_465
N1_3 Zr0_5 2.329492 1_465
N1_4 Zr0_2 2.329492 1_555
N1_5 Zr0_3 2.329492 1_555
N1_6 Zr0_0 2.329492 1_565
N1_7 Zr0_1 2.329492 1_565
