# generated using pymatgen
data_Sr3LiSb2H
_symmetry_space_group_name_H-M   'P 1'
_cell_length_a   4.73832038
_cell_length_b   12.72858522
_cell_length_c   13.08292905
_cell_angle_alpha   90.00000000
_cell_angle_beta   90.00000000
_cell_angle_gamma   90.00000000
_symmetry_Int_Tables_number   1
_chemical_formula_structural   Sr3LiSb2H
_chemical_formula_sum   'Sr12 Li4 Sb8 H4'
_cell_volume   789.05911846
_cell_formula_units_Z   4
loop_
 _symmetry_equiv_pos_site_id
 _symmetry_equiv_pos_as_xyz
  1  'x, y, z'
loop_
 _atom_site_type_symbol
 _atom_site_label
 _atom_site_symmetry_multiplicity
 _atom_site_fract_x
 _atom_site_fract_y
 _atom_site_fract_z
 _atom_site_occupancy
  Sr  Sr0  1  0.25000000  0.06130881  0.62370924  1
  Sr  Sr1  1  0.25000000  0.56130881  0.87629076  1
  Sr  Sr2  1  0.75000000  0.93869119  0.37629076  1
  Sr  Sr3  1  0.75000000  0.43869119  0.12370924  1
  Sr  Sr4  1  0.25000000  0.36610853  0.56216350  1
  Sr  Sr5  1  0.25000000  0.86610853  0.93783650  1
  Sr  Sr6  1  0.75000000  0.63389147  0.43783650  1
  Sr  Sr7  1  0.75000000  0.13389147  0.06216350  1
  Sr  Sr8  1  0.25000000  0.21295076  0.29239322  1
  Sr  Sr9  1  0.25000000  0.71295076  0.20760678  1
  Sr  Sr10  1  0.75000000  0.78704924  0.70760678  1
  Sr  Sr11  1  0.75000000  0.28704924  0.79239322  1
  Li  Li0  1  0.25000000  0.13594439  0.85811521  1
  Li  Li1  1  0.25000000  0.63594439  0.64188479  1
  Li  Li2  1  0.75000000  0.86405561  0.14188479  1
  Li  Li3  1  0.75000000  0.36405561  0.35811521  1
  Sb  Sb0  1  0.25000000  0.47832296  0.32300067  1
  Sb  Sb1  1  0.25000000  0.97832296  0.17699933  1
  Sb  Sb2  1  0.75000000  0.52167704  0.67699933  1
  Sb  Sb3  1  0.75000000  0.02167704  0.82300067  1
  Sb  Sb4  1  0.25000000  0.31245307  0.98702211  1
  Sb  Sb5  1  0.25000000  0.81245307  0.51297789  1
  Sb  Sb6  1  0.75000000  0.68754693  0.01297789  1
  Sb  Sb7  1  0.75000000  0.18754693  0.48702211  1
  H  H0  1  0.25000000  0.23410896  0.72390872  1
  H  H1  1  0.25000000  0.73410896  0.77609128  1
  H  H2  1  0.75000000  0.76589104  0.27609128  1
  H  H3  1  0.75000000  0.26589104  0.22390872  1
loop_
_geom_bond_atom_site_label_1
_geom_bond_atom_site_label_2
_geom_bond_distance
_geom_bond_site_symmetry_2
Li0 Sb4 2.809253 1_555
Li0 Sb3 2.817699 1_455
Li0 Sb3 2.817699 1_555
Li0 Sr11 3.170413 1_455
Li0 Sr11 3.170413 1_555
Li0 Sr0 3.210492 1_555
Li0 Sr7 3.569327 1_456
Li0 Sr7 3.569327 1_556
Li0 Sr5 3.589498 1_545
Li1 Sb5 2.809253 1_555
Li1 Sb2 2.817699 1_555
Li1 Sb2 2.817699 1_455
Li1 Sr10 3.170413 1_455
Li1 Sr10 3.170413 1_555
Li1 Sr1 3.210492 1_555
Li1 Sr6 3.569327 1_455
Li1 Sr6 3.569327 1_555
Li1 Sr4 3.589498 1_555
Li2 Sb6 2.809253 1_555
Li2 Sb1 2.817699 1_655
Li2 Sb1 2.817699 1_555
Li2 Sr9 3.170413 1_555
Li2 Sr9 3.170413 1_655
Li2 Sr2 3.210492 1_555
Li2 Sr5 3.569327 1_654
Li2 Sr5 3.569327 1_554
Li2 Sr7 3.589498 1_565
Li3 Sb7 2.809253 1_555
Li3 Sb0 2.817699 1_655
Li3 Sb0 2.817699 1_555
Li3 Sr8 3.170413 1_655
Li3 Sr8 3.170413 1_555
Li3 Sr3 3.210492 1_555
Li3 Sr4 3.569327 1_655
Li3 Sr4 3.569327 1_555
Li3 Sr6 3.589498 1_555
Sb0 Sr9 3.346375 1_555
Sb0 Sr8 3.401465 1_555
Sb0 Sr6 3.433825 1_555
Sb0 Sr6 3.433825 1_455
Sb0 Sr4 3.439544 1_555
Sb0 Sr3 3.558861 1_455
Sb0 Sr3 3.558861 1_555
Sb1 Sr8 3.346375 1_565
Sb1 Sr9 3.401465 1_555
Sb1 Sr7 3.433825 1_465
Sb1 Sr7 3.433825 1_565
Sb1 Sr5 3.439544 1_554
Sb1 Sr2 3.558861 1_555
Sb1 Sr2 3.558861 1_455
Sb2 Sr11 3.346375 1_555
Sb2 Sr10 3.401465 1_555
Sb2 Sr4 3.433825 1_555
Sb2 Sr4 3.433825 1_655
Sb2 Sr6 3.439544 1_555
Sb2 Sr1 3.558861 1_555
Sb2 Sr1 3.558861 1_655
Sb3 Sr10 3.346375 1_545
Sb3 Sr11 3.401465 1_555
Sb3 Sr5 3.433825 1_545
Sb3 Sr5 3.433825 1_645
Sb3 Sr7 3.439544 1_556
Sb3 Sr0 3.558861 1_655
Sb3 Sr0 3.558861 1_555
Sb4 Sr3 3.375312 1_556
Sb4 Sr3 3.375312 1_456
Sb4 Sr7 3.427117 1_456
Sb4 Sr7 3.427117 1_556
Sb4 Sr1 3.483142 1_555
Sb4 Sr11 3.493022 1_555
Sb4 Sr11 3.493022 1_455
Sb5 Sr2 3.375312 1_455
Sb5 Sr2 3.375312 1_555
Sb5 Sr6 3.427117 1_555
Sb5 Sr6 3.427117 1_455
Sb5 Sr0 3.483142 1_565
Sb5 Sr10 3.493022 1_555
Sb5 Sr10 3.493022 1_455
Sb6 Sr1 3.375312 1_654
Sb6 Sr1 3.375312 1_554
Sb6 Sr5 3.427117 1_654
Sb6 Sr5 3.427117 1_554
Sb6 Sr3 3.483142 1_555
Sb6 Sr9 3.493022 1_555
Sb6 Sr9 3.493022 1_655
Sb7 Sr0 3.375312 1_555
Sb7 Sr0 3.375312 1_655
Sb7 Sr4 3.427117 1_655
Sb7 Sr4 3.427117 1_555
Sb7 Sr2 3.483142 1_545
Sb7 Sr8 3.493022 1_655
Sb7 Sr8 3.493022 1_555
H0 Li0 2.155023 1_555
H0 Sr0 2.560522 1_555
H0 Sr11 2.621026 1_455
H0 Sr11 2.621026 1_555
H0 Sr4 2.702008 1_555
H1 Li1 2.155023 1_555
H1 Sr1 2.560522 1_555
H1 Sr10 2.621026 1_455
H1 Sr10 2.621026 1_555
H1 Sr5 2.702008 1_555
H2 Li2 2.155023 1_555
H2 Sr2 2.560522 1_555
H2 Sr9 2.621026 1_555
H2 Sr9 2.621026 1_655
H2 Sr6 2.702008 1_555
H3 Li3 2.155023 1_555
H3 Sr3 2.560522 1_555
H3 Sr8 2.621026 1_555
H3 Sr8 2.621026 1_655
H3 Sr7 2.702008 1_555
