# generated using pymatgen
data_TaSe6BrF6
_symmetry_space_group_name_H-M   'P 1'
_cell_length_a   7.15140341
_cell_length_b   9.07928918
_cell_length_c   11.36653618
_cell_angle_alpha   61.60820036
_cell_angle_beta   90.00000000
_cell_angle_gamma   90.00000000
_symmetry_Int_Tables_number   1
_chemical_formula_structural   TaSe6BrF6
_chemical_formula_sum   'Ta2 Se12 Br2 F12'
_cell_volume   649.25315665
_cell_formula_units_Z   2
loop_
 _symmetry_equiv_pos_site_id
 _symmetry_equiv_pos_as_xyz
  1  'x, y, z'
loop_
 _atom_site_type_symbol
 _atom_site_label
 _atom_site_symmetry_multiplicity
 _atom_site_fract_x
 _atom_site_fract_y
 _atom_site_fract_z
 _atom_site_occupancy
  Ta  Ta0  1  0.00000000  0.00000000  0.00000000  1
  Ta  Ta1  1  0.00000000  0.00000000  0.50000000  1
  Se  Se0  1  0.74354631  0.33724871  0.61485859  1
  Se  Se1  1  0.25645369  0.66275129  0.38514141  1
  Se  Se2  1  0.24410311  0.55393306  0.88857476  1
  Se  Se3  1  0.75589689  0.44606694  0.11142524  1
  Se  Se4  1  0.43481064  0.23567192  0.62147219  1
  Se  Se5  1  0.74354631  0.66275129  0.88514141  1
  Se  Se6  1  0.56518936  0.76432808  0.37852781  1
  Se  Se7  1  0.75589689  0.55393306  0.38857476  1
  Se  Se8  1  0.24410311  0.44606694  0.61142524  1
  Se  Se9  1  0.25645369  0.33724871  0.11485859  1
  Se  Se10  1  0.56518936  0.23567192  0.12147219  1
  Se  Se11  1  0.43481064  0.76432808  0.87852781  1
  Br  Br0  1  0.73052416  0.50000000  0.75000000  1
  Br  Br1  1  0.26947584  0.50000000  0.25000000  1
  F  F0  1  0.10329382  0.21578733  0.88272032  1
  F  F1  1  0.77948947  0.94697121  0.60841134  1
  F  F2  1  0.22051053  0.94697121  0.10841134  1
  F  F3  1  0.88964275  0.09019451  0.10492863  1
  F  F4  1  0.89670618  0.78421267  0.11727968  1
  F  F5  1  0.22051053  0.05302879  0.39158866  1
  F  F6  1  0.89670618  0.21578733  0.38272032  1
  F  F7  1  0.11035725  0.90980549  0.89507137  1
  F  F8  1  0.11035725  0.09019451  0.60492863  1
  F  F9  1  0.10329382  0.78421267  0.61727968  1
  F  F10  1  0.88964275  0.90980549  0.39507137  1
  F  F11  1  0.77948947  0.05302879  0.89158866  1
loop_
_geom_bond_atom_site_label_1
_geom_bond_atom_site_label_2
_geom_bond_distance
_geom_bond_site_symmetry_2
Se0 Se4 2.380136 1_555
Se0 Se7 2.383606 1_555
Se1 Se6 2.380136 1_555
Se1 Se8 2.383606 1_555
Se2 Se9 2.383606 1_556
Se3 Se5 2.383606 1_554
Se4 Se8 2.305344 1_555
Se6 Se7 2.305344 1_555
Se10 Se3 2.305344 1_555
Se10 Se9 2.380136 1_555
Se11 Se2 2.305344 1_555
Se11 Se5 2.380136 1_555
Br0 Se5 2.590432 1_555
Br0 Se0 2.590432 1_555
Br0 F9 3.512706 1_655
Br0 F0 3.512706 1_655
Br0 F1 3.601452 1_555
Br0 F11 3.601452 1_555
Br1 Se1 2.590432 1_555
Br1 Se9 2.590432 1_555
Br1 F4 3.512706 1_455
Br1 F6 3.512706 1_455
Br1 F2 3.601452 1_555
Br1 F5 3.601452 1_555
F0 Ta0 1.917662 1_556
F0 Se8 2.960257 1_555
F1 Ta1 1.916471 1_665
F1 Se5 2.983271 1_555
F2 Ta0 1.916471 1_565
F2 Se1 2.983271 1_555
F3 Ta0 1.909123 1_655
F3 Se10 2.720282 1_555
F4 Ta0 1.917662 1_665
F4 Se7 2.960257 1_555
F5 Ta1 1.916471 1_555
F5 Se9 2.983271 1_555
F6 Ta1 1.917662 1_655
F6 Se3 2.960257 1_555
F7 Ta0 1.909123 1_566
F7 Se11 2.720282 1_555
F8 Ta1 1.909123 1_555
F8 Se4 2.720282 1_555
F9 Ta1 1.917662 1_565
F9 Se2 2.960257 1_555
F10 Ta1 1.909123 1_665
F10 Se6 2.720282 1_555
F11 Ta0 1.916471 1_656
F11 Se0 2.983271 1_555
