# generated using pymatgen
data_Zr6Zn22SiRh
_symmetry_space_group_name_H-M   'P 1'
_cell_length_a   8.67175265
_cell_length_b   8.67175273
_cell_length_c   8.67175256
_cell_angle_alpha   60.00000434
_cell_angle_beta   60.00000406
_cell_angle_gamma   59.99999872
_symmetry_Int_Tables_number   1
_chemical_formula_structural   Zr6Zn22SiRh
_chemical_formula_sum   'Zr6 Zn22 Si1 Rh1'
_cell_volume   461.11119886
_cell_formula_units_Z   1
loop_
 _symmetry_equiv_pos_site_id
 _symmetry_equiv_pos_as_xyz
  1  'x, y, z'
loop_
 _atom_site_type_symbol
 _atom_site_label
 _atom_site_symmetry_multiplicity
 _atom_site_fract_x
 _atom_site_fract_y
 _atom_site_fract_z
 _atom_site_occupancy
  Zr  Zr0  1  0.71161426  0.28838574  0.28838574  1
  Zr  Zr1  1  0.28838574  0.71161426  0.71161426  1
  Zr  Zr2  1  0.28838574  0.71161426  0.28838574  1
  Zr  Zr3  1  0.71161426  0.28838574  0.71161426  1
  Zr  Zr4  1  0.28838574  0.28838574  0.71161426  1
  Zr  Zr5  1  0.71161426  0.71161426  0.28838574  1
  Zn  Zn0  1  0.12140477  0.12140477  0.12140477  1
  Zn  Zn1  1  0.87859523  0.87859523  0.87859523  1
  Zn  Zn2  1  0.12140477  0.12140477  0.63578569  1
  Zn  Zn3  1  0.12140477  0.63578569  0.12140477  1
  Zn  Zn4  1  0.87859523  0.87859523  0.36421431  1
  Zn  Zn5  1  0.87859523  0.36421431  0.87859523  1
  Zn  Zn6  1  0.63578569  0.12140477  0.12140477  1
  Zn  Zn7  1  0.36421431  0.87859523  0.87859523  1
  Zn  Zn8  1  0.50000000  0.00000000  0.00000000  1
  Zn  Zn9  1  0.00000000  0.50000000  0.50000000  1
  Zn  Zn10  1  0.00000000  0.50000000  0.00000000  1
  Zn  Zn11  1  0.50000000  0.00000000  0.50000000  1
  Zn  Zn12  1  0.00000000  0.00000000  0.50000000  1
  Zn  Zn13  1  0.50000000  0.50000000  0.00000000  1
  Zn  Zn14  1  0.33463131  0.33463131  0.33463131  1
  Zn  Zn15  1  0.66536869  0.66536869  0.66536869  1
  Zn  Zn16  1  0.33463131  0.33463131  0.99610606  1
  Zn  Zn17  1  0.33463131  0.99610606  0.33463131  1
  Zn  Zn18  1  0.66536869  0.66536869  0.00389394  1
  Zn  Zn19  1  0.66536869  0.00389394  0.66536869  1
  Zn  Zn20  1  0.99610606  0.33463131  0.33463131  1
  Zn  Zn21  1  0.00389394  0.66536869  0.66536869  1
  Si  Si0  1  0.50000000  0.50000000  0.50000000  1
  Rh  Rh0  1  0.00000000  0.00000000  0.00000000  1
loop_
_geom_bond_atom_site_label_1
_geom_bond_atom_site_label_2
_geom_bond_distance
_geom_bond_site_symmetry_2
Zn0 Zn8 2.681594 1_555
Zn0 Zn10 2.681594 1_555
Zn0 Zn12 2.681594 1_555
Zn0 Zn17 2.723847 1_545
Zn0 Zn20 2.723847 1_455
Zn0 Zn16 2.723847 1_554
Zn0 Zr0 2.937175 1_455
Zn0 Zr2 2.937175 1_545
Zn0 Zr4 2.937175 1_554
Zn0 Zn7 2.977746 1_544
Zn0 Zn5 2.977746 1_454
Zn0 Zn4 2.977746 1_445
Zn1 Zn8 2.681594 1_566
Zn1 Zn10 2.681594 1_656
Zn1 Zn12 2.681594 1_665
Zn1 Zn19 2.723847 1_565
Zn1 Zn21 2.723847 1_655
Zn1 Zn18 2.723847 1_556
Zn1 Zr1 2.937175 1_655
Zn1 Zr3 2.937175 1_565
Zn1 Zr5 2.937175 1_556
Zn1 Zn6 2.977746 1_566
Zn1 Zn3 2.977746 1_656
Zn1 Zn2 2.977746 1_665
Zn2 Zn9 2.681594 1_555
Zn2 Zn20 2.723847 1_455
Zn2 Zr4 2.937175 1_555
Zn2 Zr3 2.937175 1_455
Zn2 Zr1 2.937175 1_545
Zn2 Zn7 2.977746 1_545
Zn2 Zn5 2.977746 1_455
Zn3 Zn9 2.681594 1_555
Zn3 Zr2 2.937175 1_555
Zn3 Zr5 2.937175 1_455
Zn3 Zr1 2.937175 1_554
Zn3 Zn4 2.977746 1_455
Zn3 Zn7 2.977746 1_554
Zn4 Zn9 2.681594 1_655
Zn4 Zr5 2.937175 1_555
Zn4 Zr2 2.937175 1_655
Zn4 Zr0 2.937175 1_565
Zn4 Zn6 2.977746 1_565
Zn5 Zn9 2.681594 1_655
Zn5 Zr3 2.937175 1_555
Zn5 Zr4 2.937175 1_655
Zn5 Zr0 2.937175 1_556
Zn5 Zn6 2.977746 1_556
Zn6 Zn8 2.681594 1_555
Zn6 Zr0 2.937175 1_555
Zn6 Zr5 2.937175 1_545
Zn6 Zr3 2.937175 1_554
Zn7 Zn8 2.681594 1_566
Zn7 Zr1 2.937175 1_555
Zn7 Zr4 2.937175 1_565
Zn7 Zr2 2.937175 1_556
Zn8 Zr5 3.101857 1_545
Zn8 Zr4 3.101857 1_554
Zn8 Zr3 3.101858 1_554
Zn8 Zr2 3.101858 1_545
Zn9 Zr4 3.101857 1_555
Zn9 Zr5 3.101857 1_455
Zn9 Zr2 3.101858 1_555
Zn9 Zr3 3.101858 1_455
Zn10 Zn16 2.503471 1_554
Zn10 Zn18 2.503471 1_455
Zn10 Zn20 2.503471 1_455
Zn10 Zn21 2.503471 1_554
Zn10 Zn3 2.681594 1_555
Zn10 Zn5 2.681594 1_454
Zn10 Zr5 3.101857 1_455
Zn10 Zr4 3.101857 1_554
Zn10 Zr1 3.101858 1_554
Zn10 Zr0 3.101858 1_455
Zn11 Zn19 2.503471 1_555
Zn11 Zn17 2.503471 1_545
Zn11 Zn14 2.503471 1_555
Zn11 Zn15 2.503471 1_545
Zn11 Zn4 2.681594 1_545
Zn11 Zn2 2.681594 1_555
Zn11 Zn7 2.681594 1_545
Zn11 Zn6 2.681594 1_555
Zn11 Zr4 3.101857 1_555
Zn11 Zr5 3.101857 1_545
Zn11 Zr0 3.101858 1_555
Zn11 Zr1 3.101858 1_545
Zn12 Zn17 2.503471 1_545
Zn12 Zn19 2.503471 1_455
Zn12 Zn20 2.503471 1_455
Zn12 Zn21 2.503471 1_545
Zn12 Zn2 2.681594 1_555
Zn12 Zn4 2.681594 1_445
Zn12 Zr3 3.101857 1_455
Zn12 Zr1 3.101857 1_545
Zn12 Zr0 3.101857 1_455
Zn12 Zr2 3.101857 1_545
Zn13 Zn18 2.503471 1_555
Zn13 Zn16 2.503471 1_554
Zn13 Zn14 2.503471 1_555
Zn13 Zn15 2.503471 1_554
Zn13 Zn5 2.681594 1_554
Zn13 Zn3 2.681594 1_555
Zn13 Zn7 2.681594 1_554
Zn13 Zn6 2.681594 1_555
Zn13 Zr2 3.101857 1_555
Zn13 Zr0 3.101857 1_555
Zn13 Zr1 3.101857 1_554
Zn13 Zr3 3.101857 1_554
Zn14 Zn9 2.503471 1_555
Zn14 Zn6 2.723847 1_555
Zn14 Zn3 2.723847 1_555
Zn14 Zn2 2.723848 1_555
Zn14 Zr0 2.923609 1_555
Zn14 Zr4 2.923609 1_555
Zn14 Zr2 2.923609 1_555
Zn14 Zn16 2.935607 1_554
Zn14 Zn20 2.935607 1_455
Zn14 Zn17 2.935607 1_545
Zn15 Zn9 2.503471 1_655
Zn15 Zn7 2.723847 1_555
Zn15 Zn5 2.723847 1_555
Zn15 Zn4 2.723848 1_555
Zn15 Zr1 2.923609 1_555
Zn15 Zr5 2.923609 1_555
Zn15 Zr3 2.923609 1_555
Zn15 Zn18 2.935607 1_556
Zn15 Zn21 2.935607 1_655
Zn15 Zn19 2.935607 1_565
Zn16 Zn8 2.503471 1_556
Zn16 Zn6 2.723847 1_556
Zn16 Zn3 2.723847 1_556
Zn16 Zr4 2.923609 1_555
Zn16 Zr3 2.923609 1_555
Zn16 Zr1 2.923609 1_555
Zn16 Zn20 2.935607 1_456
Zn16 Zn17 2.935607 1_546
Zn17 Zn8 2.503471 1_565
Zn17 Zn2 2.723847 1_565
Zn17 Zn6 2.723848 1_565
Zn17 Zr5 2.923609 1_555
Zn17 Zr2 2.923609 1_555
Zn17 Zr1 2.923610 1_555
Zn17 Zn20 2.935607 1_465
Zn18 Zn8 2.503471 1_565
Zn18 Zn7 2.723847 1_554
Zn18 Zn5 2.723847 1_554
Zn18 Zr5 2.923609 1_555
Zn18 Zr2 2.923609 1_555
Zn18 Zr0 2.923609 1_555
Zn18 Zn21 2.935607 1_654
Zn18 Zn19 2.935607 1_564
Zn19 Zn8 2.503471 1_556
Zn19 Zn4 2.723847 1_545
Zn19 Zn7 2.723848 1_545
Zn19 Zr4 2.923609 1_555
Zn19 Zr3 2.923609 1_555
Zn19 Zr0 2.923610 1_555
Zn19 Zn21 2.935607 1_645
Zn20 Zn9 2.503471 1_655
Zn20 Zn3 2.723848 1_655
Zn20 Zr5 2.923609 1_555
Zn20 Zr0 2.923609 1_555
Zn20 Zr3 2.923609 1_555
Zn21 Zn9 2.503471 1_555
Zn21 Zn4 2.723847 1_455
Zn21 Zn5 2.723848 1_455
Zn21 Zr4 2.923609 1_555
Zn21 Zr1 2.923609 1_555
Zn21 Zr2 2.923609 1_555
Si0 Zr1 2.595176 1_555
Si0 Zr3 2.595176 1_555
Si0 Zr0 2.595176 1_555
Si0 Zr2 2.595176 1_555
Si0 Zr5 2.595176 1_555
Si0 Zr4 2.595176 1_555
Rh0 Zn0 2.578803 1_555
Rh0 Zn1 2.578803 1_444
Rh0 Zn7 2.578804 1_544
Rh0 Zn6 2.578804 1_455
Rh0 Zn5 2.578804 1_454
Rh0 Zn3 2.578804 1_545
Rh0 Zn4 2.578804 1_445
Rh0 Zn2 2.578804 1_554
