# generated using pymatgen
data_Rb4Pd3Pt3Se8
_symmetry_space_group_name_H-M   'P 1'
_cell_length_a   14.66494494
_cell_length_b   13.97214254
_cell_length_c   6.40080997
_cell_angle_alpha   83.21546164
_cell_angle_beta   71.10014789
_cell_angle_gamma   26.12534059
_symmetry_Int_Tables_number   1
_chemical_formula_structural   Rb4Pd3Pt3Se8
_chemical_formula_sum   'Rb4 Pd3 Pt3 Se8'
_cell_volume   497.22750259
_cell_formula_units_Z   1
loop_
 _symmetry_equiv_pos_site_id
 _symmetry_equiv_pos_as_xyz
  1  'x, y, z'
loop_
 _atom_site_type_symbol
 _atom_site_label
 _atom_site_symmetry_multiplicity
 _atom_site_fract_x
 _atom_site_fract_y
 _atom_site_fract_z
 _atom_site_occupancy
  Rb  Rb0  1  0.57262094  0.57262094  0.42737906  1
  Rb  Rb1  1  0.82379574  0.82379574  0.67620426  1
  Rb  Rb2  1  0.67639541  0.67639541  0.82360459  1
  Rb  Rb3  1  0.42712613  0.42712613  0.57287387  1
  Pd  Pd0  1  0.00010362  0.00010362  0.99989638  1
  Pd  Pd1  1  0.24982059  0.24982059  0.25017941  1
  Pd  Pd2  1  0.24934171  0.24934171  0.75065829  1
  Pt  Pt0  1  0.75054656  0.75054656  0.24945344  1
  Pt  Pt1  1  0.00068595  0.00068595  0.49931405  1
  Pt  Pt2  1  0.49957761  0.49957761  0.00042239  1
  Se  Se0  1  0.23510830  0.88361917  0.10547863  1
  Se  Se1  1  0.36761706  0.01325439  0.47176087  1
  Se  Se2  1  0.13960198  0.47904979  0.02099327  1
  Se  Se3  1  0.47904979  0.13960198  0.36035696  1
  Se  Se4  1  0.77133456  0.11040149  0.88758906  1
  Se  Se5  1  0.11040149  0.77133456  0.23067490  1
  Se  Se6  1  0.88361917  0.23510830  0.77579190  1
  Se  Se7  1  0.01325439  0.36761706  0.14736868  1
loop_
_geom_bond_atom_site_label_1
_geom_bond_atom_site_label_2
_geom_bond_distance
_geom_bond_site_symmetry_2
Rb0 Se6 3.673763 1_555
Rb0 Se0 3.673774 1_555
Rb0 Se1 3.694128 1_565
Rb0 Se7 3.694128 1_655
Rb0 Se0 3.759996 1_556
Rb0 Se6 3.760007 1_554
Rb0 Se6 3.883632 1_465
Rb0 Se0 3.883632 1_645
Rb0 Rb3 3.950510 1_555
Rb0 Rb2 4.264045 1_555
Rb0 Rb2 4.264045 1_554
Rb1 Se4 3.678624 1_565
Rb1 Se5 3.678624 1_655
Rb1 Se3 3.684147 1_565
Rb1 Se2 3.684158 1_656
Rb1 Se2 3.790982 1_655
Rb1 Se3 3.790993 1_566
Rb1 Se3 3.852410 1_655
Rb1 Se2 3.852410 1_566
Rb1 Rb2 4.002249 1_555
Rb1 Rb3 4.296362 1_565
Rb1 Rb3 4.296362 1_655
Rb2 Se6 3.680017 1_555
Rb2 Se0 3.680017 1_556
Rb2 Se1 3.682490 1_565
Rb2 Se7 3.682495 1_656
Rb2 Se7 3.747247 1_655
Rb2 Se1 3.747252 1_566
Rb2 Se1 3.894024 1_655
Rb2 Se7 3.894024 1_566
Rb3 Se4 3.673014 1_555
Rb3 Se5 3.673014 1_555
Rb3 Se3 3.700845 1_555
Rb3 Se2 3.700851 1_556
Rb3 Se5 3.799287 1_556
Rb3 Se4 3.799287 1_554
Rb3 Se4 3.849264 1_465
Rb3 Se5 3.849264 1_645
Pd0 Se0 2.481897 1_546
Pd0 Se6 2.481905 1_455
Pd0 Se4 2.482669 1_455
Pd0 Se5 2.482669 1_546
Pd0 Rb0 3.845349 1_456
Pd0 Rb0 3.845350 1_545
Pd0 Rb3 3.851762 1_545
Pd0 Rb3 3.851762 1_456
Pd1 Se7 2.479420 1_555
Pd1 Se1 2.479424 1_555
Pd1 Se2 2.480467 1_555
Pd1 Se3 2.480475 1_555
Pd1 Rb2 3.858030 1_544
Pd1 Rb2 3.858030 1_455
Pd1 Rb1 3.865768 1_455
Pd1 Rb1 3.865768 1_544
Pd2 Se3 2.473514 1_555
Pd2 Se2 2.473522 1_556
Pd2 Se1 2.487543 1_555
Pd2 Se7 2.487547 1_556
Pd2 Rb2 3.809205 1_545
Pd2 Rb2 3.809205 1_455
Pd2 Rb1 3.830651 1_455
Pd2 Rb1 3.830651 1_545
Pt0 Se7 2.465215 1_655
Pt0 Se1 2.465215 1_565
Pt0 Se2 2.474372 1_655
Pt0 Se3 2.474372 1_565
Pt0 Rb1 3.768054 1_555
Pt0 Rb1 3.768054 1_554
Pt0 Rb2 3.781038 1_554
Pt0 Rb2 3.781038 1_555
Pt1 Se5 2.462856 1_545
Pt1 Se4 2.462856 1_455
Pt1 Se6 2.472111 1_455
Pt1 Se0 2.472120 1_545
Pt1 Rb0 3.795000 1_455
Pt1 Rb0 3.795000 1_545
Pt1 Rb3 3.817893 1_545
Pt1 Rb3 3.817894 1_455
Pt2 Se0 2.465789 1_555
Pt2 Se6 2.465790 1_554
Pt2 Se4 2.474295 1_554
Pt2 Se5 2.474295 1_555
Pt2 Rb3 3.756667 1_554
Pt2 Rb3 3.756667 1_555
Pt2 Rb0 3.765107 1_555
Pt2 Rb0 3.765107 1_554
