# generated using pymatgen
data_RuPb3Br2O5
_symmetry_space_group_name_H-M   'P 1'
_cell_length_a   7.43862500
_cell_length_b   7.43862530
_cell_length_c   11.05039429
_cell_angle_alpha   90.00000000
_cell_angle_beta   90.00000000
_cell_angle_gamma   135.38426894
_symmetry_Int_Tables_number   1
_chemical_formula_structural   RuPb3Br2O5
_chemical_formula_sum   'Ru2 Pb6 Br4 O10'
_cell_volume   429.45315112
_cell_formula_units_Z   2
loop_
 _symmetry_equiv_pos_site_id
 _symmetry_equiv_pos_as_xyz
  1  'x, y, z'
loop_
 _atom_site_type_symbol
 _atom_site_label
 _atom_site_symmetry_multiplicity
 _atom_site_fract_x
 _atom_site_fract_y
 _atom_site_fract_z
 _atom_site_occupancy
  Ru  Ru0  1  0.77964274  0.22035726  0.25000000  1
  Ru  Ru1  1  0.22035726  0.77964274  0.75000000  1
  Pb  Pb0  1  0.87409897  0.12590103  0.75000000  1
  Pb  Pb1  1  0.65253102  0.34746898  0.52118410  1
  Pb  Pb2  1  0.34746898  0.65253102  0.47881590  1
  Pb  Pb3  1  0.65253102  0.34746898  0.97881590  1
  Pb  Pb4  1  0.34746898  0.65253102  0.02118410  1
  Pb  Pb5  1  0.12590103  0.87409897  0.25000000  1
  Br  Br0  1  0.51987794  0.48012206  0.25000000  1
  Br  Br1  1  0.48012206  0.51987794  0.75000000  1
  Br  Br2  1  0.00000000  0.00000000  0.50000000  1
  Br  Br3  1  0.00000000  0.00000000  0.00000000  1
  O  O0  1  0.10053347  0.89946653  0.75000000  1
  O  O1  1  0.03785052  0.50914859  0.63239365  1
  O  O2  1  0.50914859  0.03785052  0.36760635  1
  O  O3  1  0.49085141  0.96214948  0.63239365  1
  O  O4  1  0.96214948  0.49085141  0.36760635  1
  O  O5  1  0.89946653  0.10053347  0.25000000  1
  O  O6  1  0.03785052  0.50914859  0.86760635  1
  O  O7  1  0.49085141  0.96214948  0.86760635  1
  O  O8  1  0.96214948  0.49085141  0.13239365  1
  O  O9  1  0.50914859  0.03785052  0.13239365  1
loop_
_geom_bond_atom_site_label_1
_geom_bond_atom_site_label_2
_geom_bond_distance
_geom_bond_site_symmetry_2
Br0 Pb5 3.178378 1_655
Br0 Pb5 3.178378 1_545
Br0 O5 3.274033 1_455
Br0 O5 3.274033 1_565
Br0 Pb2 3.467634 1_555
Br0 Pb4 3.467634 1_555
Br0 O4 3.484953 1_555
Br0 O8 3.484953 1_555
Br0 O2 3.484953 1_555
Br0 O9 3.484953 1_555
Br0 Pb1 3.509094 1_555
Br0 Pb3 3.509094 1_554
Br1 Pb0 3.178378 1_455
Br1 Pb0 3.178378 1_565
Br1 O0 3.274033 1_655
Br1 O0 3.274033 1_545
Br1 Pb3 3.467634 1_555
Br1 Pb1 3.467634 1_555
Br1 O6 3.484953 1_555
Br1 O1 3.484953 1_555
Br1 O7 3.484953 1_555
Br1 O3 3.484953 1_555
Br1 Pb4 3.509094 1_556
Br1 Pb2 3.509094 1_555
Br2 O0 3.089764 1_545
Br2 O5 3.089764 1_455
Br2 Pb0 3.261106 1_455
Br2 Pb5 3.261106 1_545
Br2 Pb1 3.526314 1_555
Br2 Pb2 3.526314 1_445
Br2 Pb2 3.526315 1_555
Br2 Pb1 3.526315 1_445
Br3 O0 3.089764 1_544
Br3 O5 3.089764 1_455
Br3 Pb0 3.261106 1_454
Br3 Pb5 3.261106 1_545
Br3 Pb3 3.526314 1_554
Br3 Pb4 3.526314 1_445
Br3 Pb4 3.526315 1_555
Br3 Pb3 3.526315 1_444
O0 Ru1 1.649231 1_555
O0 Pb0 3.116600 1_465
O1 Ru1 1.921369 1_555
O1 Pb2 2.413496 1_555
O1 Pb1 2.502880 1_455
O1 Pb0 2.521145 1_455
O1 O3 2.558166 1_555
O1 O6 2.599193 1_555
O2 Ru0 1.921369 1_555
O2 Pb1 2.413496 1_555
O2 Pb2 2.502880 1_545
O2 Pb5 2.521145 1_545
O2 O4 2.558166 1_555
O2 O9 2.599193 1_555
O3 Ru1 1.921369 1_555
O3 Pb2 2.413496 1_555
O3 Pb1 2.502880 1_565
O3 Pb0 2.521145 1_565
O3 O7 2.599193 1_555
O4 Ru0 1.921369 1_555
O4 Pb1 2.413496 1_555
O4 Pb2 2.502880 1_655
O4 Pb5 2.521145 1_655
O4 O8 2.599193 1_555
O5 Ru0 1.649231 1_555
O5 Pb5 3.116600 1_645
O6 Ru1 1.921369 1_555
O6 Pb4 2.413496 1_556
O6 Pb3 2.502880 1_455
O6 Pb0 2.521145 1_455
O6 O7 2.558166 1_555
O7 Ru1 1.921369 1_555
O7 Pb4 2.413496 1_556
O7 Pb3 2.502880 1_565
O7 Pb0 2.521145 1_565
O8 Ru0 1.921369 1_555
O8 Pb3 2.413496 1_554
O8 Pb4 2.502880 1_655
O8 Pb5 2.521145 1_655
O8 O9 2.558166 1_555
O9 Ru0 1.921369 1_555
O9 Pb3 2.413496 1_554
O9 Pb4 2.502880 1_545
O9 Pb5 2.521145 1_545
