# generated using pymatgen
data_Y(MnSi)2
_symmetry_space_group_name_H-M   'P 1'
_cell_length_a   3.88028243
_cell_length_b   3.88028230
_cell_length_c   5.92397119
_cell_angle_alpha   109.11751785
_cell_angle_beta   109.11752651
_cell_angle_gamma   90.00001344
_symmetry_Int_Tables_number   1
_chemical_formula_structural   Y(MnSi)2
_chemical_formula_sum   'Y1 Mn2 Si2'
_cell_volume   79.05088498
_cell_formula_units_Z   1
loop_
 _symmetry_equiv_pos_site_id
 _symmetry_equiv_pos_as_xyz
  1  'x, y, z'
loop_
 _atom_site_type_symbol
 _atom_site_label
 _atom_site_symmetry_multiplicity
 _atom_site_fract_x
 _atom_site_fract_y
 _atom_site_fract_z
 _atom_site_occupancy
  Y  Y0  1  -0.00000000  0.00000000  -0.00000000  1
  Mn  Mn0  1  0.25000000  0.75000000  0.50000000  1
  Mn  Mn1  1  0.75000000  0.25000000  0.50000000  1
  Si  Si0  1  0.61769216  0.61769216  0.23538333  1
  Si  Si1  1  0.38230784  0.38230784  0.76461667  1
loop_
_geom_bond_atom_site_label_1
_geom_bond_atom_site_label_2
_geom_bond_distance
_geom_bond_site_symmetry_2
Mn0 Si0 2.386274 1_455
Mn0 Si1 2.386274 1_565
Mn0 Si1 2.386278 1_555
Mn0 Si0 2.386278 1_555
Mn0 Mn1 2.743774 1_565
Mn0 Mn1 2.743774 1_455
Mn0 Mn1 2.743774 1_465
Mn0 Mn1 2.743774 1_555
Mn0 Y0 3.264266 1_666
Mn0 Y0 3.264266 1_555
Mn0 Y0 3.264266 1_565
Mn0 Y0 3.264266 1_566
Mn1 Si1 2.386274 1_655
Mn1 Si0 2.386274 1_545
Mn1 Si0 2.386278 1_555
Mn1 Si1 2.386278 1_555
Mn1 Y0 3.264266 1_555
Mn1 Y0 3.264266 1_666
Mn1 Y0 3.264266 1_656
Mn1 Y0 3.264266 1_655
Si0 Si1 2.471643 1_554
Si0 Y0 3.009242 1_665
Si0 Y0 3.009244 1_565
Si0 Y0 3.009245 1_655
Si0 Y0 3.009246 1_555
Si1 Y0 3.009242 1_556
Si1 Y0 3.009244 1_656
Si1 Y0 3.009245 1_566
Si1 Y0 3.009246 1_666
