# generated using pymatgen
data_Th(NiGe)2
_symmetry_space_group_name_H-M   'P 1'
_cell_length_a   4.16251652
_cell_length_b   4.16251527
_cell_length_c   5.65620920
_cell_angle_alpha   111.58985614
_cell_angle_beta   111.58984457
_cell_angle_gamma   90.00000084
_symmetry_Int_Tables_number   1
_chemical_formula_structural   Th(NiGe)2
_chemical_formula_sum   'Th1 Ni2 Ge2'
_cell_volume   83.68813921
_cell_formula_units_Z   1
loop_
 _symmetry_equiv_pos_site_id
 _symmetry_equiv_pos_as_xyz
  1  'x, y, z'
loop_
 _atom_site_type_symbol
 _atom_site_label
 _atom_site_symmetry_multiplicity
 _atom_site_fract_x
 _atom_site_fract_y
 _atom_site_fract_z
 _atom_site_occupancy
  Th  Th0  1  -0.00000000  -0.00000000  -0.00000000  1
  Ni  Ni0  1  0.75000000  0.25000000  0.50000000  1
  Ni  Ni1  1  0.25000000  0.75000000  0.50000000  1
  Ge  Ge0  1  0.63298048  0.63298048  0.26596096  1
  Ge  Ge1  1  0.36701952  0.36701952  0.73403904  1
loop_
_geom_bond_atom_site_label_1
_geom_bond_atom_site_label_2
_geom_bond_distance
_geom_bond_site_symmetry_2
Ni0 Th0 3.188101 1_666
Ni0 Th0 3.188102 1_655
Ni0 Th0 3.188102 1_656
Ni0 Th0 3.188102 1_555
Ni1 Th0 3.188101 1_555
Ni1 Th0 3.188102 1_566
Ni1 Th0 3.188102 1_565
Ni1 Th0 3.188102 1_666
Ge0 Ni0 2.368435 1_565
Ge0 Ni0 2.368436 1_555
Ge0 Ni1 2.368436 1_555
Ge0 Ni1 2.368436 1_655
Ge0 Ge1 2.569212 1_554
Ge0 Th0 3.211461 1_655
Ge0 Th0 3.211461 1_665
Ge0 Th0 3.211461 1_555
Ge0 Th0 3.211461 1_565
Ge1 Ni1 2.368435 1_545
Ge1 Ni1 2.368436 1_555
Ge1 Ni0 2.368436 1_555
Ge1 Ni0 2.368436 1_455
Ge1 Th0 3.211461 1_566
Ge1 Th0 3.211461 1_556
Ge1 Th0 3.211461 1_666
Ge1 Th0 3.211461 1_656
