# generated using pymatgen
data_Lu12InGa4Hg
_symmetry_space_group_name_H-M   'P 1'
_cell_length_a   8.38532874
_cell_length_b   8.38533025
_cell_length_c   8.38532905
_cell_angle_alpha   112.12595432
_cell_angle_beta   112.43996498
_cell_angle_gamma   103.98340741
_symmetry_Int_Tables_number   1
_chemical_formula_structural   Lu12InGa4Hg
_chemical_formula_sum   'Lu12 In1 Ga4 Hg1'
_cell_volume   450.79097868
_cell_formula_units_Z   1
loop_
 _symmetry_equiv_pos_site_id
 _symmetry_equiv_pos_as_xyz
  1  'x, y, z'
loop_
 _atom_site_type_symbol
 _atom_site_label
 _atom_site_symmetry_multiplicity
 _atom_site_fract_x
 _atom_site_fract_y
 _atom_site_fract_z
 _atom_site_occupancy
  Lu  Lu0  1  0.43904127  0.23908694  0.19995433  1
  Lu  Lu1  1  0.56095873  0.76091306  0.80004567  1
  Lu  Lu2  1  0.03913262  0.23908694  0.80004567  1
  Lu  Lu3  1  0.96086738  0.76091306  0.19995433  1
  Lu  Lu4  1  0.18248790  0.27606625  0.45855415  1
  Lu  Lu5  1  0.81751210  0.72393375  0.54144585  1
  Lu  Lu6  1  0.18248790  0.72393375  0.90642365  1
  Lu  Lu7  1  0.81751210  0.27606625  0.09357635  1
  Lu  Lu8  1  0.32053453  0.61905065  0.29851512  1
  Lu  Lu9  1  0.67946547  0.38094935  0.70148488  1
  Lu  Lu10  1  0.32053453  0.02202041  0.70148488  1
  Lu  Lu11  1  0.67946547  0.97797959  0.29851512  1
  In  In0  1  0.50000000  0.50000000  0.00000000  1
  Ga  Ga0  1  0.35284716  0.00000000  0.35284716  1
  Ga  Ga1  1  0.64715284  1.00000000  0.64715284  1
  Ga  Ga2  1  0.12121406  0.62121406  0.50000000  1
  Ga  Ga3  1  0.87878594  0.37878594  0.50000000  1
  Hg  Hg0  1  0.00000000  0.00000000  0.00000000  1
loop_
_geom_bond_atom_site_label_1
_geom_bond_atom_site_label_2
_geom_bond_distance
_geom_bond_site_symmetry_2
Lu0 Lu9 3.430087 1_555
Lu0 Lu11 3.430093 1_545
Lu0 Lu10 3.463433 1_554
Lu0 Lu8 3.463441 1_555
Lu0 Lu4 3.578207 1_555
Lu0 Lu6 3.578207 1_544
Lu0 Lu5 3.585734 1_555
Lu0 Lu7 3.585744 1_555
Lu0 Lu2 3.728981 1_554
Lu1 Lu8 3.430087 1_555
Lu1 Lu10 3.430093 1_565
Lu1 Lu11 3.463433 1_556
Lu1 Lu9 3.463441 1_555
Lu1 Lu5 3.578207 1_555
Lu1 Lu7 3.578207 1_566
Lu1 Lu4 3.585734 1_555
Lu1 Lu6 3.585744 1_555
Lu1 Lu3 3.728981 1_556
Lu2 Lu9 3.430080 1_455
Lu2 Lu8 3.463436 1_556
Lu2 Lu7 3.578192 1_456
Lu2 Lu5 3.578207 1_445
Lu2 Lu6 3.585729 1_555
Lu2 Lu4 3.585733 1_555
Lu3 Lu8 3.430080 1_655
Lu3 Lu9 3.463436 1_554
Lu3 Lu6 3.578192 1_654
Lu3 Lu4 3.578207 1_665
Lu3 Lu7 3.585729 1_555
Lu3 Lu5 3.585733 1_555
Lu4 Lu7 3.403256 1_455
Lu4 Lu9 3.562024 1_555
Lu4 Lu8 3.727846 1_555
Lu5 Lu6 3.403256 1_655
Lu5 Lu8 3.562024 1_555
Lu5 Lu9 3.727846 1_555
Lu6 Lu8 3.562002 1_556
Lu6 Lu9 3.727837 1_455
Lu7 Lu9 3.562002 1_554
Lu7 Lu8 3.727837 1_655
Lu10 Lu3 3.430085 1_445
Lu10 Lu2 3.463428 1_555
Lu10 Lu4 3.562015 1_555
Lu10 Lu7 3.562018 1_556
Lu10 Lu5 3.727840 1_445
Lu10 Lu6 3.727859 1_545
Lu11 Lu2 3.430085 1_665
Lu11 Lu3 3.463428 1_555
Lu11 Lu5 3.562015 1_555
Lu11 Lu6 3.562018 1_554
Lu11 Lu4 3.727840 1_665
Lu11 Lu7 3.727859 1_565
In0 Lu3 3.276634 1_555
In0 Lu2 3.276634 1_554
In0 Lu1 3.276634 1_554
In0 Lu0 3.276634 1_555
In0 Lu11 3.353563 1_555
In0 Lu10 3.353563 1_554
In0 Lu8 3.353570 1_555
In0 Lu9 3.353570 1_554
In0 Lu7 3.627867 1_555
In0 Lu6 3.627867 1_554
In0 Lu5 3.627869 1_555
In0 Lu4 3.627869 1_554
Ga0 Ga1 2.744278 1_545
Ga0 Lu3 2.851084 1_445
Ga0 Lu0 2.851084 1_555
Ga0 Lu8 2.979305 1_545
Ga0 Lu9 2.979309 1_555
Ga0 Lu10 2.979311 1_555
Ga0 Lu11 2.979315 1_545
Ga0 Lu6 3.033845 1_544
Ga0 Lu4 3.033858 1_555
Ga0 Hg0 3.290152 1_555
Ga1 Lu2 2.851084 1_665
Ga1 Lu1 2.851084 1_555
Ga1 Lu9 2.979305 1_565
Ga1 Lu8 2.979309 1_555
Ga1 Lu11 2.979311 1_555
Ga1 Lu10 2.979315 1_565
Ga1 Lu7 3.033845 1_566
Ga1 Lu5 3.033858 1_555
Ga1 Hg0 3.290152 1_666
Ga2 Ga3 2.503546 1_455
Ga2 Lu8 2.792062 1_555
Ga2 Lu10 2.792069 1_565
Ga2 Lu5 2.976295 1_455
Ga2 Lu4 2.976296 1_555
Ga2 Lu7 2.976303 1_455
Ga2 Lu6 2.976312 1_555
Ga2 Lu1 3.147852 1_555
Ga2 Lu3 3.147852 1_455
Ga3 Lu9 2.792062 1_555
Ga3 Lu11 2.792069 1_545
Ga3 Lu4 2.976295 1_655
Ga3 Lu5 2.976296 1_555
Ga3 Lu6 2.976303 1_655
Ga3 Lu7 2.976312 1_555
Ga3 Lu0 3.147852 1_555
Ga3 Lu2 3.147852 1_655
Hg0 Lu0 3.093944 1_555
Hg0 Lu1 3.093944 1_444
Hg0 Lu2 3.093945 1_554
Hg0 Lu3 3.093945 1_445
Hg0 Lu7 3.094572 1_455
Hg0 Lu6 3.094572 1_544
Hg0 Lu4 3.094575 1_555
Hg0 Lu5 3.094575 1_444
