# generated using pymatgen
data_CsK2AuSe13
_symmetry_space_group_name_H-M   'P 1'
_cell_length_a   5.05974912
_cell_length_b   13.82217314
_cell_length_c   15.65286632
_cell_angle_alpha   85.56340045
_cell_angle_beta   90.00000000
_cell_angle_gamma   90.00000000
_symmetry_Int_Tables_number   1
_chemical_formula_structural   CsK2AuSe13
_chemical_formula_sum   'Cs2 K4 Au2 Se26'
_cell_volume   1091.43000647
_cell_formula_units_Z   2
loop_
 _symmetry_equiv_pos_site_id
 _symmetry_equiv_pos_as_xyz
  1  'x, y, z'
loop_
 _atom_site_type_symbol
 _atom_site_label
 _atom_site_symmetry_multiplicity
 _atom_site_fract_x
 _atom_site_fract_y
 _atom_site_fract_z
 _atom_site_occupancy
  Cs  Cs0  1  0.17673887  0.25000000  0.00000000  1
  Cs  Cs1  1  0.82326113  0.75000000  0.00000000  1
  K  K0  1  0.20762484  0.16411710  0.71065326  1
  K  K1  1  0.20762484  0.33588290  0.28934674  1
  K  K2  1  0.79237516  0.83588290  0.28934674  1
  K  K3  1  0.79237516  0.66411710  0.71065326  1
  Au  Au0  1  0.00000000  0.50000000  0.50000000  1
  Au  Au1  1  0.00000000  0.00000000  0.50000000  1
  Se  Se0  1  0.29787594  0.54789377  0.61635604  1
  Se  Se1  1  0.65003972  0.57774482  0.27464414  1
  Se  Se2  1  0.34996028  0.07774482  0.27464414  1
  Se  Se3  1  0.34996028  0.42225518  0.72535586  1
  Se  Se4  1  0.93432415  0.53278957  0.16294877  1
  Se  Se5  1  0.93432415  0.96721043  0.83705123  1
  Se  Se6  1  0.06567585  0.46721043  0.83705123  1
  Se  Se7  1  0.06567585  0.03278957  0.16294877  1
  Se  Se8  1  0.68396713  0.42086632  0.09010850  1
  Se  Se9  1  0.65003972  0.92225518  0.72535586  1
  Se  Se10  1  0.31603287  0.57913368  0.90989150  1
  Se  Se11  1  0.31603287  0.92086632  0.09010850  1
  Se  Se12  1  0.70014811  0.26887480  0.16798043  1
  Se  Se13  1  0.70014811  0.23112520  0.83201957  1
  Se  Se14  1  0.29985189  0.73112520  0.83201957  1
  Se  Se15  1  0.29985189  0.76887480  0.16798043  1
  Se  Se16  1  0.09817658  0.65814086  0.41688424  1
  Se  Se17  1  0.09817658  0.84185914  0.58311576  1
  Se  Se18  1  0.90182342  0.34185914  0.58311576  1
  Se  Se19  1  0.90182342  0.15814086  0.41688424  1
  Se  Se20  1  0.62503522  0.25000000  0.50000000  1
  Se  Se21  1  0.37496478  0.75000000  0.50000000  1
  Se  Se22  1  0.70212406  0.45210623  0.38364396  1
  Se  Se23  1  0.70212406  0.04789377  0.61635604  1
  Se  Se24  1  0.68396713  0.07913368  0.90989150  1
  Se  Se25  1  0.29787594  0.95210623  0.38364396  1
loop_
_geom_bond_atom_site_label_1
_geom_bond_atom_site_label_2
_geom_bond_distance
_geom_bond_site_symmetry_2
Cs0 Se12 3.592047 1_455
Cs0 Se13 3.592047 1_454
Cs0 Se12 3.755183 1_555
Cs0 Se13 3.755183 1_554
Cs0 Se8 3.781420 1_455
Cs0 Se24 3.781420 1_454
Cs0 Se6 3.827611 1_554
Cs0 Se7 3.827611 1_555
Cs0 Se8 3.830045 1_555
Cs0 Se24 3.830045 1_554
Cs1 Se15 3.592047 1_655
Cs1 Se14 3.592047 1_654
Cs1 Se15 3.755183 1_555
Cs1 Se14 3.755183 1_554
Cs1 Se11 3.781420 1_655
Cs1 Se10 3.781420 1_654
Cs1 Se5 3.827611 1_554
Cs1 Se4 3.827611 1_555
Cs1 Se11 3.830045 1_555
Cs1 Se10 3.830045 1_554
K0 Se13 3.308976 1_555
K0 Se13 3.366325 1_455
K0 Se23 3.374376 1_555
K0 Se18 3.414144 1_455
K0 Se23 3.415855 1_455
K0 Se5 3.521518 1_445
K0 Se3 3.664628 1_555
K0 Se9 4.015082 1_545
K0 Se20 4.017024 1_555
K0 Se24 4.043261 1_555
K1 Se12 3.308976 1_555
K1 Se12 3.366325 1_455
K1 Se22 3.374376 1_555
K1 Se19 3.414144 1_455
K1 Se22 3.415855 1_455
K1 Se4 3.521518 1_455
K1 Se2 3.664628 1_555
K1 Se1 4.015082 1_555
K1 Se20 4.017024 1_555
K1 Se8 4.043261 1_555
K2 Se15 3.308976 1_555
K2 Se15 3.366325 1_655
K2 Se25 3.374376 1_555
K2 Se16 3.414144 1_655
K2 Se25 3.415855 1_655
K2 Se7 3.521518 1_665
K2 Se1 3.664628 1_555
K2 Se2 4.015082 1_565
K2 Se21 4.017024 1_555
K2 Se11 4.043261 1_555
K3 Se14 3.308976 1_555
K3 Se14 3.366325 1_655
K3 Se0 3.374376 1_555
K3 Se17 3.414144 1_655
K3 Se0 3.415855 1_655
K3 Se6 3.521518 1_655
K3 Se9 3.664628 1_555
K3 Se3 4.015082 1_555
K3 Se21 4.017024 1_555
K3 Se10 4.043261 1_555
Au0 Se0 2.492692 1_555
Au0 Se22 2.492692 1_455
Au0 Se16 2.505461 1_555
Au0 Se18 2.505461 1_455
Au1 Se23 2.492692 1_455
Au1 Se25 2.492692 1_545
Au1 Se19 2.505461 1_455
Au1 Se17 2.505461 1_545
Se0 Se3 2.353255 1_555
Se0 Se21 3.238216 1_555
Se1 Se22 2.353255 1_555
Se1 Se4 2.383263 1_555
Se2 Se25 2.353255 1_545
Se2 Se7 2.383263 1_555
Se3 Se6 2.383263 1_555
Se4 Se8 2.360248 1_555
Se5 Se9 2.383263 1_555
Se10 Se14 2.347311 1_555
Se10 Se6 2.360248 1_555
Se11 Se15 2.347311 1_555
Se11 Se7 2.360248 1_565
Se12 Se8 2.347311 1_555
Se13 Se24 2.347311 1_555
Se16 Se21 2.349814 1_555
Se17 Se21 2.349814 1_555
Se18 Se20 2.349814 1_555
Se19 Se20 2.349814 1_555
Se20 Se22 3.238216 1_555
Se20 Se23 3.238216 1_555
Se21 Se25 3.238216 1_555
Se23 Se9 2.353255 1_545
Se24 Se5 2.360248 1_545
