# generated using pymatgen
data_Hf6CBr15
_symmetry_space_group_name_H-M   'P 1'
_cell_length_a   9.09980107
_cell_length_b   9.09980232
_cell_length_c   9.09980150
_cell_angle_alpha   109.47122310
_cell_angle_beta   109.47122588
_cell_angle_gamma   109.47121867
_symmetry_Int_Tables_number   1
_chemical_formula_structural   Hf6CBr15
_chemical_formula_sum   'Hf6 C1 Br15'
_cell_volume   580.06125014
_cell_formula_units_Z   1
loop_
 _symmetry_equiv_pos_site_id
 _symmetry_equiv_pos_as_xyz
  1  'x, y, z'
loop_
 _atom_site_type_symbol
 _atom_site_label
 _atom_site_symmetry_multiplicity
 _atom_site_fract_x
 _atom_site_fract_y
 _atom_site_fract_z
 _atom_site_occupancy
  Hf  Hf0  1  0.78117187  0.78117187  0.00000000  1
  Hf  Hf1  1  0.21882813  1.00000000  0.21882813  1
  Hf  Hf2  1  0.78117187  0.00000000  0.78117187  1
  Hf  Hf3  1  0.00000000  0.78117187  0.78117187  1
  Hf  Hf4  1  1.00000000  0.21882813  0.21882813  1
  Hf  Hf5  1  0.21882813  0.21882813  1.00000000  1
  C  C0  1  0.00000000  0.00000000  0.00000000  1
  Br  Br0  1  0.50000000  0.00000000  0.50000000  1
  Br  Br1  1  0.00000000  0.50000000  0.50000000  1
  Br  Br2  1  0.50000000  0.50000000  0.00000000  1
  Br  Br3  1  0.50341653  0.75170826  0.75170826  1
  Br  Br4  1  0.75170826  1.00000000  0.24829174  1
  Br  Br5  1  0.49658347  0.24829174  0.24829174  1
  Br  Br6  1  0.24829174  0.24829174  0.49658347  1
  Br  Br7  1  0.24829174  0.75170826  1.00000000  1
  Br  Br8  1  0.00000000  0.24829174  0.75170826  1
  Br  Br9  1  1.00000000  0.75170826  0.24829174  1
  Br  Br10  1  0.24829174  0.00000000  0.75170826  1
  Br  Br11  1  0.24829174  0.49658347  0.24829174  1
  Br  Br12  1  0.75170826  0.24829174  0.00000000  1
  Br  Br13  1  0.75170826  0.50341653  0.75170826  1
  Br  Br14  1  0.75170826  0.75170826  0.50341653  1
loop_
_geom_bond_atom_site_label_1
_geom_bond_atom_site_label_2
_geom_bond_distance
_geom_bond_site_symmetry_2
C0 Hf1 2.299346 1_545
C0 Hf2 2.299346 1_454
C0 Hf4 2.299347 1_455
C0 Hf3 2.299347 1_544
C0 Hf5 2.299347 1_554
C0 Hf0 2.299347 1_445
Br0 Hf2 2.954426 1_555
Br0 Hf1 2.954426 1_545
Br0 Br8 3.715065 1_655
Br0 Br9 3.715065 1_445
Br0 Br12 3.715065 1_556
Br0 Br7 3.715065 1_544
Br0 Br14 3.715065 1_545
Br0 Br6 3.715065 1_555
Br0 Br3 3.715065 1_545
Br0 Br5 3.715065 1_555
Br0 Br4 3.740363 1_545
Br0 Br10 3.740363 1_555
Br0 Br13 3.740363 1_555
Br0 Br11 3.740363 1_545
Br1 Hf3 2.954426 1_555
Br1 Hf4 2.954426 1_455
Br1 Br7 3.715065 1_555
Br1 Br12 3.715065 1_455
Br1 Br11 3.715065 1_555
Br1 Br13 3.715065 1_455
Br1 Br6 3.715065 1_555
Br1 Br14 3.715065 1_455
Br1 Br10 3.715065 1_565
Br1 Br4 3.715065 1_445
Br1 Br3 3.740363 1_555
Br1 Br5 3.740363 1_455
Br1 Br8 3.740363 1_555
Br1 Br9 3.740363 1_455
Br2 Hf0 2.954426 1_555
Br2 Hf5 2.954426 1_554
Br2 Br9 3.715065 1_555
Br2 Br8 3.715065 1_554
Br2 Br4 3.715065 1_555
Br2 Br5 3.715065 1_555
Br2 Br3 3.715065 1_554
Br2 Br6 3.740363 1_554
Br2 Br7 3.740363 1_554
Br3 Hf0 2.627241 1_556
Br3 Hf2 2.627241 1_565
Br4 Hf0 2.627241 1_555
Br4 Hf4 2.627241 1_565
Br5 Hf5 2.627241 1_554
Br5 Hf1 2.627241 1_545
Br6 Hf4 2.627241 1_455
Br6 Hf1 2.627241 1_545
Br7 Hf3 2.627241 1_555
Br7 Hf1 2.627241 1_556
Br8 Hf5 2.627241 1_555
Br8 Hf2 2.627242 1_455
Br9 Hf0 2.627241 1_555
Br9 Hf1 2.627242 1_655
Br10 Hf5 2.627241 1_555
Br10 Hf3 2.627241 1_545
Br10 Br2 3.715065 1_556
Br11 Hf5 2.627241 1_554
Br11 Hf4 2.627241 1_455
Br11 Br2 3.715065 1_555
Br12 Hf4 2.627241 1_555
Br12 Hf2 2.627241 1_554
Br12 Br2 3.740363 1_555
Br13 Hf0 2.627241 1_556
Br13 Hf3 2.627241 1_655
Br13 Br2 3.715065 1_556
Br14 Hf3 2.627241 1_655
Br14 Hf2 2.627241 1_565
Br14 Br2 3.740363 1_555
