# generated using pymatgen
data_Cs5TiHSe5
_symmetry_space_group_name_H-M   'P 1'
_cell_length_a   8.28116274
_cell_length_b   8.28116156
_cell_length_c   15.35470880
_cell_angle_alpha   81.61078063
_cell_angle_beta   81.61078282
_cell_angle_gamma   109.45002497
_symmetry_Int_Tables_number   1
_chemical_formula_structural   Cs5TiHSe5
_chemical_formula_sum   'Cs10 Ti2 H2 Se10'
_cell_volume   960.69018147
_cell_formula_units_Z   2
loop_
 _symmetry_equiv_pos_site_id
 _symmetry_equiv_pos_as_xyz
  1  'x, y, z'
loop_
 _atom_site_type_symbol
 _atom_site_label
 _atom_site_symmetry_multiplicity
 _atom_site_fract_x
 _atom_site_fract_y
 _atom_site_fract_z
 _atom_site_occupancy
  Cs  Cs0  1  0.26945749  0.26945749  0.95733682  1
  Cs  Cs1  1  0.59364214  0.07598458  0.80264628  1
  Cs  Cs2  1  0.07598458  0.59364214  0.80264628  1
  Cs  Cs3  1  0.80813605  0.80813605  0.59939312  1
  Cs  Cs4  1  0.66464726  0.33535274  0.50000000  1
  Cs  Cs5  1  0.33535274  0.66464726  0.50000000  1
  Cs  Cs6  1  0.19186395  0.19186395  0.40060688  1
  Cs  Cs7  1  0.92401542  0.40635786  0.19735372  1
  Cs  Cs8  1  0.40635786  0.92401542  0.19735372  1
  Cs  Cs9  1  0.73054251  0.73054251  0.04266318  1
  Ti  Ti0  1  0.16895930  0.16895930  0.69626847  1
  Ti  Ti1  1  0.83104070  0.83104070  0.30373153  1
  H  H0  1  0.80473745  0.19526255  0.00000000  1
  H  H1  1  0.19526255  0.80473745  1.00000000  1
  Se  Se0  1  0.69604279  0.30395721  0.00000000  1
  Se  Se1  1  0.30395721  0.69604279  1.00000000  1
  Se  Se2  1  0.99671932  0.99671932  0.83819594  1
  Se  Se3  1  0.41457215  0.41457215  0.70977772  1
  Se  Se4  1  0.27175621  0.98182305  0.61702773  1
  Se  Se5  1  0.98182305  0.27175621  0.61702773  1
  Se  Se6  1  0.01817695  0.72824379  0.38297227  1
  Se  Se7  1  0.72824379  0.01817695  0.38297227  1
  Se  Se8  1  0.58542785  0.58542785  0.29022228  1
  Se  Se9  1  0.00328068  0.00328068  0.16180406  1
loop_
_geom_bond_atom_site_label_1
_geom_bond_atom_site_label_2
_geom_bond_distance
_geom_bond_site_symmetry_2
Cs0 Se9 3.507102 1_556
Cs0 Se2 3.544442 1_445
Cs0 Se1 3.612188 1_555
Cs0 Se0 3.612188 1_556
Cs0 H1 3.631695 1_545
Cs0 H0 3.631696 1_456
Cs0 Se3 3.702675 1_555
Cs0 Cs2 4.186907 1_555
Cs0 Cs1 4.186907 1_555
Cs1 Se5 3.686827 1_555
Cs1 Se2 3.709044 1_545
Cs1 Se3 3.783338 1_555
Cs1 H0 3.805724 1_556
Cs1 Se0 3.849535 1_556
Cs1 Se1 3.860992 1_545
Cs1 H1 3.908153 1_545
Cs1 Se4 4.161449 1_545
Cs1 Cs3 4.565222 1_545
Cs2 Se4 3.686827 1_555
Cs2 Se2 3.709044 1_455
Cs2 Se3 3.783339 1_555
Cs2 H1 3.805724 1_555
Cs2 Se1 3.849536 1_555
Cs2 Se0 3.860992 1_456
Cs2 H0 3.908153 1_456
Cs2 Se5 4.161449 1_455
Cs2 Cs3 4.565222 1_455
Cs3 Se5 3.690774 1_565
Cs3 Se4 3.690775 1_655
Cs3 Se3 3.717432 1_555
Cs3 Se7 3.771913 1_565
Cs3 Se6 3.771913 1_655
Cs3 Cs6 4.138478 1_665
Cs3 Cs4 4.271331 1_555
Cs3 Cs5 4.271331 1_555
Cs3 Se2 4.476648 1_555
Cs4 Se7 3.525273 1_555
Cs4 Se5 3.525273 1_555
Cs4 Se6 3.577887 1_655
Cs4 Se4 3.577887 1_545
Cs4 Se8 3.830054 1_555
Cs4 Se3 3.830055 1_555
Cs4 Cs6 4.271331 1_555
Cs4 Cs5 4.452494 1_555
Cs5 Se4 3.525273 1_555
Cs5 Se6 3.525273 1_555
Cs5 Se5 3.577887 1_455
Cs5 Se7 3.577887 1_565
Cs5 Se3 3.830054 1_555
Cs5 Se8 3.830055 1_555
Cs5 Cs6 4.271331 1_555
Cs6 Se6 3.690774 1_545
Cs6 Se7 3.690775 1_455
Cs6 Se8 3.717432 1_555
Cs6 Se4 3.771913 1_545
Cs6 Se5 3.771913 1_455
Cs6 Se9 4.476648 1_555
Cs6 Cs8 4.565222 1_545
Cs6 Cs7 4.565222 1_455
Cs7 Se7 3.686827 1_555
Cs7 Se9 3.709044 1_655
Cs7 Se8 3.783339 1_555
Cs7 H0 3.805724 1_555
Cs7 Se0 3.849536 1_555
Cs7 Se1 3.860992 1_654
Cs7 H1 3.908153 1_654
Cs7 Se6 4.161449 1_655
Cs7 Cs9 4.186907 1_555
Cs8 Se6 3.686827 1_555
Cs8 Se9 3.709044 1_565
Cs8 Se8 3.783338 1_555
Cs8 H1 3.805724 1_554
Cs8 Se1 3.849535 1_554
Cs8 Se0 3.860992 1_565
Cs8 H0 3.908153 1_565
Cs8 Se7 4.161449 1_565
Cs8 Cs9 4.186907 1_555
Cs9 Se2 3.507102 1_554
Cs9 Se9 3.544442 1_665
Cs9 Se0 3.612188 1_555
Cs9 Se1 3.612188 1_554
Cs9 H0 3.631695 1_565
Cs9 H1 3.631696 1_654
Cs9 Se8 3.702675 1_555
H0 Se0 1.469694 1_555
H1 Se1 1.469694 1_555
Se2 Ti0 2.376801 1_665
Se3 Ti0 2.410005 1_555
Se4 Ti0 2.394409 1_565
Se5 Ti0 2.394409 1_655
Se6 Ti1 2.394409 1_455
Se7 Ti1 2.394409 1_545
Se8 Ti1 2.410005 1_555
Se9 Ti1 2.376801 1_445
