# generated using pymatgen
data_RbCrNiP2
_symmetry_space_group_name_H-M   'P 1'
_cell_length_a   15.00659961
_cell_length_b   15.00659924
_cell_length_c   15.00659900
_cell_angle_alpha   150.58625737
_cell_angle_beta   150.58625740
_cell_angle_gamma   42.08151215
_symmetry_Int_Tables_number   1
_chemical_formula_structural   RbCrNiP2
_chemical_formula_sum   'Rb8 Cr8 Ni8 P16'
_cell_volume   813.16024010
_cell_formula_units_Z   8
loop_
 _symmetry_equiv_pos_site_id
 _symmetry_equiv_pos_as_xyz
  1  'x, y, z'
loop_
 _atom_site_type_symbol
 _atom_site_label
 _atom_site_symmetry_multiplicity
 _atom_site_fract_x
 _atom_site_fract_y
 _atom_site_fract_z
 _atom_site_occupancy
  Rb  Rb0_0  1  0.00000000  0.00000000  0.00000000  1
  Rb  Rb0_1  1  0.00000000  0.00000000  0.50000000  1
  Rb  Rb0_2  1  0.00000000  0.50000000  0.00000000  1
  Rb  Rb0_3  1  0.00000000  0.50000000  0.50000000  1
  Rb  Rb0_4  1  0.50000000  0.00000000  0.00000000  1
  Rb  Rb0_5  1  0.50000000  0.00000000  0.50000000  1
  Rb  Rb0_6  1  0.50000000  0.50000000  0.00000000  1
  Rb  Rb0_7  1  0.50000000  0.50000000  0.50000000  1
  Cr  Cr0_0  1  0.37500000  0.12500000  0.25000000  1
  Cr  Cr0_1  1  0.37500000  0.12500000  0.75000000  1
  Cr  Cr0_2  1  0.37500000  0.62500000  0.25000000  1
  Cr  Cr0_3  1  0.37500000  0.62500000  0.75000000  1
  Cr  Cr0_4  1  0.87500000  0.12500000  0.25000000  1
  Cr  Cr0_5  1  0.87500000  0.12500000  0.75000000  1
  Cr  Cr0_6  1  0.87500000  0.62500000  0.25000000  1
  Cr  Cr0_7  1  0.87500000  0.62500000  0.75000000  1
  Ni  Ni0_0  1  0.12500000  0.37500000  0.25000000  1
  Ni  Ni0_1  1  0.12500000  0.37500000  0.75000000  1
  Ni  Ni0_2  1  0.12500000  0.87500000  0.25000000  1
  Ni  Ni0_3  1  0.12500000  0.87500000  0.75000000  1
  Ni  Ni0_4  1  0.62500000  0.37500000  0.25000000  1
  Ni  Ni0_5  1  0.62500000  0.37500000  0.75000000  1
  Ni  Ni0_6  1  0.62500000  0.87500000  0.25000000  1
  Ni  Ni0_7  1  0.62500000  0.87500000  0.75000000  1
  P  P0_0  1  0.16906842  0.16906842  0.00000000  1
  P  P0_1  1  0.16906842  0.16906842  0.50000000  1
  P  P0_2  1  0.16906842  0.66906842  0.00000000  1
  P  P0_3  1  0.16906842  0.66906842  0.50000000  1
  P  P0_4  1  0.66906842  0.16906842  0.00000000  1
  P  P0_5  1  0.66906842  0.16906842  0.50000000  1
  P  P0_6  1  0.66906842  0.66906842  0.00000000  1
  P  P0_7  1  0.66906842  0.66906842  0.50000000  1
  P  P1_0  1  0.33093158  0.33093158  0.50000000  1
  P  P1_1  1  0.33093158  0.33093158  1.00000000  1
  P  P1_2  1  0.33093158  0.83093158  0.50000000  1
  P  P1_3  1  0.33093158  0.83093158  1.00000000  1
  P  P1_4  1  0.83093158  0.33093158  0.50000000  1
  P  P1_5  1  0.83093158  0.33093158  1.00000000  1
  P  P1_6  1  0.83093158  0.83093158  0.50000000  1
  P  P1_7  1  0.83093158  0.83093158  1.00000000  1
loop_
_geom_bond_atom_site_label_1
_geom_bond_atom_site_label_2
_geom_bond_distance
_geom_bond_site_symmetry_2
Rb0_0 Rb0_3 3.809785 1_555
Rb0_0 Rb0_3 3.809785 1_544
Rb0_0 Rb0_5 3.809785 1_454
Rb0_0 Rb0_5 3.809785 1_555
Rb0_1 Rb0_2 3.809785 1_556
Rb0_1 Rb0_2 3.809785 1_545
Rb0_1 Rb0_4 3.809785 1_455
Rb0_1 Rb0_4 3.809785 1_556
Rb0_2 Rb0_7 3.809785 1_454
Rb0_2 Rb0_7 3.809785 1_555
Rb0_3 Rb0_6 3.809785 1_556
Rb0_3 Rb0_6 3.809785 1_455
Rb0_4 Rb0_7 3.809785 1_544
Rb0_4 Rb0_7 3.809785 1_555
Rb0_5 Rb0_6 3.809785 1_545
Rb0_5 Rb0_6 3.809785 1_556
Cr0_0 P0_0 2.269907 1_555
Cr0_0 P1_0 2.269907 1_555
Cr0_0 P1_3 2.269907 1_544
Cr0_0 P0_5 2.269907 1_555
Cr0_0 Ni0_6 2.693924 1_545
Cr0_0 Ni0_0 2.693924 1_555
Cr0_0 Ni0_3 2.693925 1_544
Cr0_0 Ni0_5 2.693925 1_555
Cr0_1 P0_1 2.269907 1_555
Cr0_1 P1_1 2.269907 1_555
Cr0_1 P1_2 2.269907 1_545
Cr0_1 P0_4 2.269907 1_556
Cr0_1 Ni0_7 2.693924 1_545
Cr0_1 Ni0_1 2.693924 1_555
Cr0_1 Ni0_4 2.693925 1_556
Cr0_1 Ni0_2 2.693925 1_545
Cr0_2 P0_2 2.269907 1_555
Cr0_2 P1_2 2.269907 1_555
Cr0_2 P1_1 2.269907 1_554
Cr0_2 P0_7 2.269907 1_555
Cr0_2 Ni0_2 2.693924 1_555
Cr0_2 Ni0_4 2.693924 1_555
Cr0_2 Ni0_1 2.693925 1_554
Cr0_2 Ni0_7 2.693925 1_555
Cr0_3 P0_3 2.269907 1_555
Cr0_3 P1_3 2.269907 1_555
Cr0_3 P1_0 2.269907 1_555
Cr0_3 P0_6 2.269907 1_556
Cr0_3 Ni0_3 2.693924 1_555
Cr0_3 Ni0_5 2.693924 1_555
Cr0_3 Ni0_0 2.693925 1_555
Cr0_3 Ni0_6 2.693925 1_556
Cr0_4 P0_4 2.269907 1_555
Cr0_4 P1_4 2.269907 1_555
Cr0_4 P1_7 2.269907 1_544
Cr0_4 P0_1 2.269907 1_655
Cr0_4 Ni0_2 2.693924 1_645
Cr0_4 Ni0_4 2.693924 1_555
Cr0_4 Ni0_7 2.693925 1_544
Cr0_4 Ni0_1 2.693925 1_655
Cr0_5 P0_5 2.269907 1_555
Cr0_5 P1_5 2.269907 1_555
Cr0_5 P1_6 2.269907 1_545
Cr0_5 P0_0 2.269907 1_656
Cr0_5 Ni0_3 2.693924 1_645
Cr0_5 Ni0_5 2.693924 1_555
Cr0_5 Ni0_0 2.693925 1_656
Cr0_5 Ni0_6 2.693925 1_545
Cr0_6 P0_6 2.269907 1_555
Cr0_6 P1_6 2.269907 1_555
Cr0_6 P1_5 2.269907 1_554
Cr0_6 P0_3 2.269907 1_655
Cr0_6 Ni0_0 2.693924 1_655
Cr0_6 Ni0_6 2.693924 1_555
Cr0_6 Ni0_3 2.693925 1_655
Cr0_6 Ni0_5 2.693925 1_554
Cr0_7 P0_7 2.269907 1_555
Cr0_7 P1_7 2.269907 1_555
Cr0_7 P1_4 2.269907 1_555
Cr0_7 P0_2 2.269907 1_656
Cr0_7 Ni0_1 2.693924 1_655
Cr0_7 Ni0_7 2.693924 1_555
Cr0_7 Ni0_4 2.693925 1_555
Cr0_7 Ni0_2 2.693925 1_656
Ni0_0 P1_0 2.269907 1_555
Ni0_0 P0_0 2.269907 1_555
Ni0_0 P0_3 2.269907 1_555
Ni0_0 P1_5 2.269907 1_454
Ni0_1 P1_1 2.269907 1_555
Ni0_1 P0_1 2.269907 1_555
Ni0_1 P0_2 2.269907 1_556
Ni0_1 P1_4 2.269907 1_455
Ni0_2 P1_2 2.269907 1_555
Ni0_2 P0_2 2.269907 1_555
Ni0_2 P0_1 2.269907 1_565
Ni0_2 P1_7 2.269907 1_454
Ni0_3 P1_3 2.269907 1_555
Ni0_3 P0_3 2.269907 1_555
Ni0_3 P0_0 2.269907 1_566
Ni0_3 P1_6 2.269907 1_455
Ni0_4 P1_4 2.269907 1_555
Ni0_4 P0_4 2.269907 1_555
Ni0_4 P0_7 2.269907 1_555
Ni0_4 P1_1 2.269907 1_554
Ni0_5 P1_5 2.269907 1_555
Ni0_5 P0_5 2.269907 1_555
Ni0_5 P0_6 2.269907 1_556
Ni0_5 P1_0 2.269907 1_555
Ni0_6 P1_6 2.269907 1_555
Ni0_6 P0_6 2.269907 1_555
Ni0_6 P0_5 2.269907 1_565
Ni0_6 P1_3 2.269907 1_554
Ni0_7 P1_7 2.269907 1_555
Ni0_7 P0_7 2.269907 1_555
Ni0_7 P0_4 2.269907 1_566
Ni0_7 P1_2 2.269907 1_555
P0_0 Rb0_2 3.520908 1_555
P0_0 Rb0_4 3.520908 1_555
P0_0 Rb0_1 3.520908 1_554
P0_0 Rb0_7 3.520909 1_555
P0_1 Rb0_3 3.520908 1_555
P0_1 Rb0_5 3.520908 1_555
P0_1 Rb0_0 3.520908 1_555
P0_1 Rb0_6 3.520909 1_556
P0_2 Rb0_0 3.520908 1_565
P0_2 Rb0_6 3.520908 1_555
P0_2 Rb0_3 3.520908 1_554
P0_2 Rb0_5 3.520909 1_565
P0_3 Rb0_1 3.520908 1_565
P0_3 Rb0_7 3.520908 1_555
P0_3 Rb0_2 3.520908 1_555
P0_3 Rb0_4 3.520909 1_566
P0_4 Rb0_6 3.520908 1_555
P0_4 Rb0_0 3.520908 1_655
P0_4 Rb0_5 3.520908 1_554
P0_4 Rb0_3 3.520909 1_655
P0_5 Rb0_7 3.520908 1_555
P0_5 Rb0_1 3.520908 1_655
P0_5 Rb0_4 3.520908 1_555
P0_5 Rb0_2 3.520909 1_656
P0_6 Rb0_4 3.520908 1_565
P0_6 Rb0_2 3.520908 1_655
P0_6 Rb0_7 3.520908 1_554
P0_6 Rb0_1 3.520909 1_665
P0_7 Rb0_5 3.520908 1_565
P0_7 Rb0_3 3.520908 1_655
P0_7 Rb0_6 3.520908 1_555
P0_7 Rb0_0 3.520909 1_666
P1_0 Rb0_5 3.520908 1_555
P1_0 Rb0_3 3.520908 1_555
P1_0 Rb0_6 3.520908 1_556
P1_0 Rb0_0 3.520909 1_555
P1_1 Rb0_4 3.520908 1_556
P1_1 Rb0_2 3.520908 1_556
P1_1 Rb0_7 3.520908 1_556
P1_1 Rb0_1 3.520909 1_555
P1_2 Rb0_7 3.520908 1_555
P1_2 Rb0_1 3.520908 1_565
P1_2 Rb0_4 3.520908 1_566
P1_2 Rb0_2 3.520909 1_555
P1_3 Rb0_6 3.520908 1_556
P1_3 Rb0_0 3.520908 1_566
P1_3 Rb0_5 3.520908 1_566
P1_3 Rb0_3 3.520909 1_555
P1_4 Rb0_1 3.520908 1_655
P1_4 Rb0_7 3.520908 1_555
P1_4 Rb0_2 3.520908 1_656
P1_4 Rb0_4 3.520909 1_555
P1_5 Rb0_0 3.520908 1_656
P1_5 Rb0_6 3.520908 1_556
P1_5 Rb0_3 3.520908 1_656
P1_5 Rb0_5 3.520909 1_555
P1_6 Rb0_3 3.520908 1_655
P1_6 Rb0_5 3.520908 1_565
P1_6 Rb0_0 3.520908 1_666
P1_6 Rb0_6 3.520909 1_555
P1_7 Rb0_2 3.520908 1_656
P1_7 Rb0_4 3.520908 1_566
P1_7 Rb0_1 3.520908 1_666
P1_7 Rb0_7 3.520909 1_555
