# generated using pymatgen
data_KAs2IrRh
_symmetry_space_group_name_H-M   'P 1'
_cell_length_a   14.58604597
_cell_length_b   14.58604542
_cell_length_c   14.58604521
_cell_angle_alpha   148.06460904
_cell_angle_beta   148.06460549
_cell_angle_gamma   45.79000407
_symmetry_Int_Tables_number   1
_chemical_formula_structural   KAs2IrRh
_chemical_formula_sum   'K8 As16 Ir8 Rh8'
_cell_volume   865.37078413
_cell_formula_units_Z   8
loop_
 _symmetry_equiv_pos_site_id
 _symmetry_equiv_pos_as_xyz
  1  'x, y, z'
loop_
 _atom_site_type_symbol
 _atom_site_label
 _atom_site_symmetry_multiplicity
 _atom_site_fract_x
 _atom_site_fract_y
 _atom_site_fract_z
 _atom_site_occupancy
  K  K0_0  1  0.00000000  0.00000000  0.00000000  1
  K  K0_1  1  0.00000000  0.00000000  0.50000000  1
  K  K0_2  1  0.00000000  0.50000000  0.00000000  1
  K  K0_3  1  0.00000000  0.50000000  0.50000000  1
  K  K0_4  1  0.50000000  0.00000000  0.00000000  1
  K  K0_5  1  0.50000000  0.00000000  0.50000000  1
  K  K0_6  1  0.50000000  0.50000000  0.00000000  1
  K  K0_7  1  0.50000000  0.50000000  0.50000000  1
  As  As0_0  1  0.32352250  0.32352250  0.50000000  1
  As  As0_1  1  0.32352250  0.32352250  1.00000000  1
  As  As0_2  1  0.32352250  0.82352250  0.50000000  1
  As  As0_3  1  0.32352250  0.82352250  1.00000000  1
  As  As0_4  1  0.82352250  0.32352250  0.50000000  1
  As  As0_5  1  0.82352250  0.32352250  1.00000000  1
  As  As0_6  1  0.82352250  0.82352250  0.50000000  1
  As  As0_7  1  0.82352250  0.82352250  1.00000000  1
  As  As1_0  1  0.17647750  0.17647750  0.00000000  1
  As  As1_1  1  0.17647750  0.17647750  0.50000000  1
  As  As1_2  1  0.17647750  0.67647750  0.00000000  1
  As  As1_3  1  0.17647750  0.67647750  0.50000000  1
  As  As1_4  1  0.67647750  0.17647750  0.00000000  1
  As  As1_5  1  0.67647750  0.17647750  0.50000000  1
  As  As1_6  1  0.67647750  0.67647750  0.00000000  1
  As  As1_7  1  0.67647750  0.67647750  0.50000000  1
  Ir  Ir0_0  1  0.37500000  0.12500000  0.25000000  1
  Ir  Ir0_1  1  0.37500000  0.12500000  0.75000000  1
  Ir  Ir0_2  1  0.37500000  0.62500000  0.25000000  1
  Ir  Ir0_3  1  0.37500000  0.62500000  0.75000000  1
  Ir  Ir0_4  1  0.87500000  0.12500000  0.25000000  1
  Ir  Ir0_5  1  0.87500000  0.12500000  0.75000000  1
  Ir  Ir0_6  1  0.87500000  0.62500000  0.25000000  1
  Ir  Ir0_7  1  0.87500000  0.62500000  0.75000000  1
  Rh  Rh0_0  1  0.12500000  0.37500000  0.25000000  1
  Rh  Rh0_1  1  0.12500000  0.37500000  0.75000000  1
  Rh  Rh0_2  1  0.12500000  0.87500000  0.25000000  1
  Rh  Rh0_3  1  0.12500000  0.87500000  0.75000000  1
  Rh  Rh0_4  1  0.62500000  0.37500000  0.25000000  1
  Rh  Rh0_5  1  0.62500000  0.37500000  0.75000000  1
  Rh  Rh0_6  1  0.62500000  0.87500000  0.25000000  1
  Rh  Rh0_7  1  0.62500000  0.87500000  0.75000000  1
loop_
_geom_bond_atom_site_label_1
_geom_bond_atom_site_label_2
_geom_bond_distance
_geom_bond_site_symmetry_2
K0_0 K0_3 4.012553 1_544
K0_0 K0_3 4.012553 1_555
K0_0 K0_5 4.012554 1_555
K0_0 K0_5 4.012554 1_454
K0_1 K0_2 4.012553 1_556
K0_1 K0_2 4.012553 1_545
K0_1 K0_4 4.012554 1_455
K0_1 K0_4 4.012554 1_556
K0_2 K0_7 4.012554 1_454
K0_2 K0_7 4.012554 1_555
K0_3 K0_6 4.012554 1_455
K0_3 K0_6 4.012554 1_556
K0_4 K0_7 4.012553 1_544
K0_4 K0_7 4.012553 1_555
K0_5 K0_6 4.012553 1_556
K0_5 K0_6 4.012553 1_545
As0_0 Ir0_3 2.436995 1_555
As0_0 Ir0_0 2.436995 1_555
As0_0 Rh0_0 2.436995 1_555
As0_0 Rh0_5 2.436995 1_555
As0_0 K0_6 3.457487 1_556
As0_0 K0_0 3.457487 1_555
As0_0 K0_5 3.457488 1_555
As0_0 K0_3 3.457488 1_555
As0_1 Ir0_2 2.436995 1_556
As0_1 Ir0_1 2.436995 1_555
As0_1 Rh0_1 2.436995 1_555
As0_1 Rh0_4 2.436995 1_556
As0_1 K0_7 3.457487 1_556
As0_1 K0_1 3.457487 1_555
As0_1 K0_4 3.457488 1_556
As0_1 K0_2 3.457488 1_556
As0_2 Ir0_1 2.436995 1_565
As0_2 Ir0_2 2.436995 1_555
As0_2 Rh0_2 2.436995 1_555
As0_2 Rh0_7 2.436995 1_555
As0_2 K0_4 3.457487 1_566
As0_2 K0_2 3.457487 1_555
As0_2 K0_7 3.457488 1_555
As0_2 K0_1 3.457488 1_565
As0_3 Ir0_0 2.436995 1_566
As0_3 Ir0_3 2.436995 1_555
As0_3 Rh0_3 2.436995 1_555
As0_3 Rh0_6 2.436995 1_556
As0_3 K0_5 3.457487 1_566
As0_3 K0_3 3.457487 1_555
As0_3 K0_6 3.457488 1_556
As0_3 K0_0 3.457488 1_566
As0_4 Ir0_7 2.436995 1_555
As0_4 Ir0_4 2.436995 1_555
As0_4 Rh0_4 2.436995 1_555
As0_4 Rh0_1 2.436995 1_655
As0_4 K0_2 3.457487 1_656
As0_4 K0_4 3.457487 1_555
As0_4 K0_1 3.457488 1_655
As0_4 K0_7 3.457488 1_555
As0_5 Ir0_6 2.436995 1_556
As0_5 Ir0_5 2.436995 1_555
As0_5 Rh0_5 2.436995 1_555
As0_5 Rh0_0 2.436995 1_656
As0_5 K0_3 3.457487 1_656
As0_5 K0_5 3.457487 1_555
As0_5 K0_0 3.457488 1_656
As0_5 K0_6 3.457488 1_556
As0_6 Ir0_5 2.436995 1_565
As0_6 Ir0_6 2.436995 1_555
As0_6 Rh0_6 2.436995 1_555
As0_6 Rh0_3 2.436995 1_655
As0_6 K0_0 3.457487 1_666
As0_6 K0_6 3.457487 1_555
As0_6 K0_3 3.457488 1_655
As0_6 K0_5 3.457488 1_565
As0_7 Ir0_4 2.436995 1_566
As0_7 Ir0_7 2.436995 1_555
As0_7 Rh0_7 2.436995 1_555
As0_7 Rh0_2 2.436995 1_656
As0_7 K0_1 3.457487 1_666
As0_7 K0_7 3.457487 1_555
As0_7 K0_2 3.457488 1_656
As0_7 K0_4 3.457488 1_566
As1_0 Rh0_3 2.436995 1_544
As1_0 Rh0_0 2.436995 1_555
As1_0 Ir0_0 2.436995 1_555
As1_0 Ir0_5 2.436995 1_454
As1_0 K0_1 3.457487 1_554
As1_0 K0_7 3.457487 1_555
As1_0 K0_2 3.457488 1_555
As1_0 K0_4 3.457488 1_555
As1_1 Rh0_2 2.436995 1_545
As1_1 Rh0_1 2.436995 1_555
As1_1 Ir0_1 2.436995 1_555
As1_1 Ir0_4 2.436995 1_455
As1_1 K0_0 3.457487 1_555
As1_1 K0_6 3.457487 1_556
As1_1 K0_3 3.457488 1_555
As1_1 K0_5 3.457488 1_555
As1_2 Rh0_1 2.436995 1_554
As1_2 Rh0_2 2.436995 1_555
As1_2 Ir0_2 2.436995 1_555
As1_2 Ir0_7 2.436995 1_454
As1_2 K0_3 3.457487 1_554
As1_2 K0_5 3.457487 1_565
As1_2 K0_0 3.457488 1_565
As1_2 K0_6 3.457488 1_555
As1_3 Rh0_0 2.436995 1_555
As1_3 Rh0_3 2.436995 1_555
As1_3 Ir0_3 2.436995 1_555
As1_3 Ir0_6 2.436995 1_455
As1_3 K0_2 3.457487 1_555
As1_3 K0_4 3.457487 1_566
As1_3 K0_1 3.457488 1_565
As1_3 K0_7 3.457488 1_555
As1_4 Rh0_7 2.436995 1_544
As1_4 Rh0_4 2.436995 1_555
As1_4 Ir0_4 2.436995 1_555
As1_4 Ir0_1 2.436995 1_554
As1_4 K0_5 3.457487 1_554
As1_4 K0_3 3.457487 1_655
As1_4 K0_6 3.457488 1_555
As1_4 K0_0 3.457488 1_655
As1_5 Rh0_6 2.436995 1_545
As1_5 Rh0_5 2.436995 1_555
As1_5 Ir0_5 2.436995 1_555
As1_5 Ir0_0 2.436995 1_555
As1_5 K0_4 3.457487 1_555
As1_5 K0_2 3.457487 1_656
As1_5 K0_7 3.457488 1_555
As1_5 K0_1 3.457488 1_655
As1_6 Rh0_5 2.436995 1_554
As1_6 Rh0_6 2.436995 1_555
As1_6 Ir0_6 2.436995 1_555
As1_6 Ir0_3 2.436995 1_554
As1_6 K0_7 3.457487 1_554
As1_6 K0_1 3.457487 1_665
As1_6 K0_4 3.457488 1_565
As1_6 K0_2 3.457488 1_655
As1_7 Rh0_4 2.436995 1_555
As1_7 Rh0_7 2.436995 1_555
As1_7 Ir0_7 2.436995 1_555
As1_7 Ir0_2 2.436995 1_555
As1_7 K0_6 3.457487 1_555
As1_7 K0_0 3.457487 1_666
As1_7 K0_5 3.457488 1_565
As1_7 K0_3 3.457488 1_655
Ir0_0 Rh0_3 2.837303 1_544
Ir0_0 Rh0_5 2.837303 1_555
Ir0_0 Rh0_0 2.837304 1_555
Ir0_0 Rh0_6 2.837304 1_545
Ir0_1 Rh0_4 2.837303 1_556
Ir0_1 Rh0_2 2.837303 1_545
Ir0_1 Rh0_1 2.837304 1_555
Ir0_1 Rh0_7 2.837304 1_545
Ir0_2 Rh0_1 2.837303 1_554
Ir0_2 Rh0_7 2.837303 1_555
Ir0_2 Rh0_4 2.837304 1_555
Ir0_2 Rh0_2 2.837304 1_555
Ir0_3 Rh0_6 2.837303 1_556
Ir0_3 Rh0_0 2.837303 1_555
Ir0_3 Rh0_3 2.837304 1_555
Ir0_3 Rh0_5 2.837304 1_555
Ir0_4 Rh0_7 2.837303 1_544
Ir0_4 Rh0_1 2.837303 1_655
Ir0_4 Rh0_4 2.837304 1_555
Ir0_4 Rh0_2 2.837304 1_645
Ir0_5 Rh0_6 2.837303 1_545
Ir0_5 Rh0_0 2.837303 1_656
Ir0_5 Rh0_5 2.837304 1_555
Ir0_5 Rh0_3 2.837304 1_645
Ir0_6 Rh0_5 2.837303 1_554
Ir0_6 Rh0_3 2.837303 1_655
Ir0_6 Rh0_6 2.837304 1_555
Ir0_6 Rh0_0 2.837304 1_655
Ir0_7 Rh0_4 2.837303 1_555
Ir0_7 Rh0_2 2.837303 1_656
Ir0_7 Rh0_7 2.837304 1_555
Ir0_7 Rh0_1 2.837304 1_655
