# generated using pymatgen
data_Ta3Ti9(CrP4)2
_symmetry_space_group_name_H-M   'P 1'
_cell_length_a   14.75543420
_cell_length_b   14.75543178
_cell_length_c   26.97571123
_cell_angle_alpha   76.57758189
_cell_angle_beta   76.57758338
_cell_angle_gamma   26.36800306
_symmetry_Int_Tables_number   1
_chemical_formula_structural   Ta3Ti9(CrP4)2
_chemical_formula_sum   'Ta24 Ti72 Cr16 P64'
_cell_volume   2533.28642530
_cell_formula_units_Z   8
loop_
 _symmetry_equiv_pos_site_id
 _symmetry_equiv_pos_as_xyz
  1  'x, y, z'
loop_
 _atom_site_type_symbol
 _atom_site_label
 _atom_site_symmetry_multiplicity
 _atom_site_fract_x
 _atom_site_fract_y
 _atom_site_fract_z
 _atom_site_occupancy
  Ta  Ta0_0  1  0.25000000  0.25000000  0.25000000  1
  Ta  Ta0_1  1  0.25000000  0.25000000  0.75000000  1
  Ta  Ta0_2  1  0.25000000  0.75000000  0.25000000  1
  Ta  Ta0_3  1  0.25000000  0.75000000  0.75000000  1
  Ta  Ta0_4  1  0.75000000  0.25000000  0.25000000  1
  Ta  Ta0_5  1  0.75000000  0.25000000  0.75000000  1
  Ta  Ta0_6  1  0.75000000  0.75000000  0.25000000  1
  Ta  Ta0_7  1  0.75000000  0.75000000  0.75000000  1
  Ta  Ta1_0  1  0.21219134  0.21219134  0.08955173  1
  Ta  Ta1_1  1  0.21219134  0.21219134  0.58955173  1
  Ta  Ta1_2  1  0.21219134  0.71219134  0.08955173  1
  Ta  Ta1_3  1  0.21219134  0.71219134  0.58955173  1
  Ta  Ta1_4  1  0.71219134  0.21219134  0.08955173  1
  Ta  Ta1_5  1  0.71219134  0.21219134  0.58955173  1
  Ta  Ta1_6  1  0.71219134  0.71219134  0.08955173  1
  Ta  Ta1_7  1  0.71219134  0.71219134  0.58955173  1
  Ta  Ta2_0  1  0.28780866  0.28780866  0.41044827  1
  Ta  Ta2_1  1  0.28780866  0.28780866  0.91044827  1
  Ta  Ta2_2  1  0.28780866  0.78780866  0.41044827  1
  Ta  Ta2_3  1  0.28780866  0.78780866  0.91044827  1
  Ta  Ta2_4  1  0.78780866  0.28780866  0.41044827  1
  Ta  Ta2_5  1  0.78780866  0.28780866  0.91044827  1
  Ta  Ta2_6  1  0.78780866  0.78780866  0.41044827  1
  Ta  Ta2_7  1  0.78780866  0.78780866  0.91044827  1
  Ti  Ti0_0  1  0.00000000  0.00000000  0.00000000  1
  Ti  Ti0_1  1  0.00000000  0.00000000  0.50000000  1
  Ti  Ti0_2  1  0.00000000  0.50000000  0.00000000  1
  Ti  Ti0_3  1  0.00000000  0.50000000  0.50000000  1
  Ti  Ti0_4  1  0.50000000  0.00000000  0.00000000  1
  Ti  Ti0_5  1  0.50000000  0.00000000  0.50000000  1
  Ti  Ti0_6  1  0.50000000  0.50000000  0.00000000  1
  Ti  Ti0_7  1  0.50000000  0.50000000  0.50000000  1
  Ti  Ti1_0  1  0.10472763  0.10472763  0.10562683  1
  Ti  Ti1_1  1  0.10472763  0.10472763  0.60562683  1
  Ti  Ti1_2  1  0.10472763  0.60472763  0.10562683  1
  Ti  Ti1_3  1  0.10472763  0.60472763  0.60562683  1
  Ti  Ti1_4  1  0.60472763  0.10472763  0.10562683  1
  Ti  Ti1_5  1  0.60472763  0.10472763  0.60562683  1
  Ti  Ti1_6  1  0.60472763  0.60472763  0.10562683  1
  Ti  Ti1_7  1  0.60472763  0.60472763  0.60562683  1
  Ti  Ti2_0  1  0.39527237  0.39527237  0.39437317  1
  Ti  Ti2_1  1  0.39527237  0.39527237  0.89437317  1
  Ti  Ti2_2  1  0.39527237  0.89527237  0.39437317  1
  Ti  Ti2_3  1  0.39527237  0.89527237  0.89437317  1
  Ti  Ti2_4  1  0.89527237  0.39527237  0.39437317  1
  Ti  Ti2_5  1  0.89527237  0.39527237  0.89437317  1
  Ti  Ti2_6  1  0.89527237  0.89527237  0.39437317  1
  Ti  Ti2_7  1  0.89527237  0.89527237  0.89437317  1
  Ti  Ti3_0  1  0.16941024  0.16941024  0.48500655  1
  Ti  Ti3_1  1  0.16941024  0.16941024  0.98500655  1
  Ti  Ti3_2  1  0.16941024  0.66941024  0.48500655  1
  Ti  Ti3_3  1  0.16941024  0.66941024  0.98500655  1
  Ti  Ti3_4  1  0.66941024  0.16941024  0.48500655  1
  Ti  Ti3_5  1  0.66941024  0.16941024  0.98500655  1
  Ti  Ti3_6  1  0.66941024  0.66941024  0.48500655  1
  Ti  Ti3_7  1  0.66941024  0.66941024  0.98500655  1
  Ti  Ti4_0  1  0.33058976  0.33058976  0.01499345  1
  Ti  Ti4_1  1  0.33058976  0.33058976  0.51499345  1
  Ti  Ti4_2  1  0.33058976  0.83058976  0.01499345  1
  Ti  Ti4_3  1  0.33058976  0.83058976  0.51499345  1
  Ti  Ti4_4  1  0.83058976  0.33058976  0.01499345  1
  Ti  Ti4_5  1  0.83058976  0.33058976  0.51499345  1
  Ti  Ti4_6  1  0.83058976  0.83058976  0.01499345  1
  Ti  Ti4_7  1  0.83058976  0.83058976  0.51499345  1
  Ti  Ti5_0  1  0.00175365  0.00175365  0.16765529  1
  Ti  Ti5_1  1  0.00175365  0.00175365  0.66765529  1
  Ti  Ti5_2  1  0.00175365  0.50175365  0.16765529  1
  Ti  Ti5_3  1  0.00175365  0.50175365  0.66765529  1
  Ti  Ti5_4  1  0.50175365  0.00175365  0.16765529  1
  Ti  Ti5_5  1  0.50175365  0.00175365  0.66765529  1
  Ti  Ti5_6  1  0.50175365  0.50175365  0.16765529  1
  Ti  Ti5_7  1  0.50175365  0.50175365  0.66765529  1
  Ti  Ti6_0  1  0.49824635  0.49824635  0.33234471  1
  Ti  Ti6_1  1  0.49824635  0.49824635  0.83234471  1
  Ti  Ti6_2  1  0.49824635  0.99824635  0.33234471  1
  Ti  Ti6_3  1  0.49824635  0.99824635  0.83234471  1
  Ti  Ti6_4  1  0.99824635  0.49824635  0.33234471  1
  Ti  Ti6_5  1  0.99824635  0.49824635  0.83234471  1
  Ti  Ti6_6  1  0.99824635  0.99824635  0.33234471  1
  Ti  Ti6_7  1  0.99824635  0.99824635  0.83234471  1
  Ti  Ti7_0  1  0.08963788  0.08963788  0.23137602  1
  Ti  Ti7_1  1  0.08963788  0.08963788  0.73137602  1
  Ti  Ti7_2  1  0.08963788  0.58963788  0.23137602  1
  Ti  Ti7_3  1  0.08963788  0.58963788  0.73137602  1
  Ti  Ti7_4  1  0.58963788  0.08963788  0.23137602  1
  Ti  Ti7_5  1  0.58963788  0.08963788  0.73137602  1
  Ti  Ti7_6  1  0.58963788  0.58963788  0.23137602  1
  Ti  Ti7_7  1  0.58963788  0.58963788  0.73137602  1
  Ti  Ti8_0  1  0.41036212  0.41036212  0.26862398  1
  Ti  Ti8_1  1  0.41036212  0.41036212  0.76862398  1
  Ti  Ti8_2  1  0.41036212  0.91036212  0.26862398  1
  Ti  Ti8_3  1  0.41036212  0.91036212  0.76862398  1
  Ti  Ti8_4  1  0.91036212  0.41036212  0.26862398  1
  Ti  Ti8_5  1  0.91036212  0.41036212  0.76862398  1
  Ti  Ti8_6  1  0.91036212  0.91036212  0.26862398  1
  Ti  Ti8_7  1  0.91036212  0.91036212  0.76862398  1
  Cr  Cr0_0  1  0.09911813  0.09911813  0.34458917  1
  Cr  Cr0_1  1  0.09911813  0.09911813  0.84458917  1
  Cr  Cr0_2  1  0.09911813  0.59911813  0.34458917  1
  Cr  Cr0_3  1  0.09911813  0.59911813  0.84458917  1
  Cr  Cr0_4  1  0.59911813  0.09911813  0.34458917  1
  Cr  Cr0_5  1  0.59911813  0.09911813  0.84458917  1
  Cr  Cr0_6  1  0.59911813  0.59911813  0.34458917  1
  Cr  Cr0_7  1  0.59911813  0.59911813  0.84458917  1
  Cr  Cr1_0  1  0.40088187  0.40088187  0.15541083  1
  Cr  Cr1_1  1  0.40088187  0.40088187  0.65541083  1
  Cr  Cr1_2  1  0.40088187  0.90088187  0.15541083  1
  Cr  Cr1_3  1  0.40088187  0.90088187  0.65541083  1
  Cr  Cr1_4  1  0.90088187  0.40088187  0.15541083  1
  Cr  Cr1_5  1  0.90088187  0.40088187  0.65541083  1
  Cr  Cr1_6  1  0.90088187  0.90088187  0.15541083  1
  Cr  Cr1_7  1  0.90088187  0.90088187  0.65541083  1
  P  P0_0  1  0.08997517  0.08997517  0.44470352  1
  P  P0_1  1  0.08997517  0.08997517  0.94470352  1
  P  P0_2  1  0.08997517  0.58997517  0.44470352  1
  P  P0_3  1  0.08997517  0.58997517  0.94470352  1
  P  P0_4  1  0.58997517  0.08997517  0.44470352  1
  P  P0_5  1  0.58997517  0.08997517  0.94470352  1
  P  P0_6  1  0.58997517  0.58997517  0.44470352  1
  P  P0_7  1  0.58997517  0.58997517  0.94470352  1
  P  P1_0  1  0.41002483  0.41002483  0.05529648  1
  P  P1_1  1  0.41002483  0.41002483  0.55529648  1
  P  P1_2  1  0.41002483  0.91002483  0.05529648  1
  P  P1_3  1  0.41002483  0.91002483  0.55529648  1
  P  P1_4  1  0.91002483  0.41002483  0.05529648  1
  P  P1_5  1  0.91002483  0.41002483  0.55529648  1
  P  P1_6  1  0.91002483  0.91002483  0.05529648  1
  P  P1_7  1  0.91002483  0.91002483  0.55529648  1
  P  P2_0  1  0.18501825  0.18501825  0.19512326  1
  P  P2_1  1  0.18501825  0.18501825  0.69512326  1
  P  P2_2  1  0.18501825  0.68501825  0.19512326  1
  P  P2_3  1  0.18501825  0.68501825  0.69512326  1
  P  P2_4  1  0.68501825  0.18501825  0.19512326  1
  P  P2_5  1  0.68501825  0.18501825  0.69512326  1
  P  P2_6  1  0.68501825  0.68501825  0.19512326  1
  P  P2_7  1  0.68501825  0.68501825  0.69512326  1
  P  P3_0  1  0.31498175  0.31498175  0.30487674  1
  P  P3_1  1  0.31498175  0.31498175  0.80487674  1
  P  P3_2  1  0.31498175  0.81498175  0.30487674  1
  P  P3_3  1  0.31498175  0.81498175  0.80487674  1
  P  P3_4  1  0.81498175  0.31498175  0.30487674  1
  P  P3_5  1  0.81498175  0.31498175  0.80487674  1
  P  P3_6  1  0.81498175  0.81498175  0.30487674  1
  P  P3_7  1  0.81498175  0.81498175  0.80487674  1
  P  P4_0  1  0.18273551  0.18273551  0.32897189  1
  P  P4_1  1  0.18273551  0.18273551  0.82897189  1
  P  P4_2  1  0.18273551  0.68273551  0.32897189  1
  P  P4_3  1  0.18273551  0.68273551  0.82897189  1
  P  P4_4  1  0.68273551  0.18273551  0.32897189  1
  P  P4_5  1  0.68273551  0.18273551  0.82897189  1
  P  P4_6  1  0.68273551  0.68273551  0.32897189  1
  P  P4_7  1  0.68273551  0.68273551  0.82897189  1
  P  P5_0  1  0.31726449  0.31726449  0.17102811  1
  P  P5_1  1  0.31726449  0.31726449  0.67102811  1
  P  P5_2  1  0.31726449  0.81726449  0.17102811  1
  P  P5_3  1  0.31726449  0.81726449  0.67102811  1
  P  P5_4  1  0.81726449  0.31726449  0.17102811  1
  P  P5_5  1  0.81726449  0.31726449  0.67102811  1
  P  P5_6  1  0.81726449  0.81726449  0.17102811  1
  P  P5_7  1  0.81726449  0.81726449  0.67102811  1
  P  P6_0  1  0.03180373  0.03180373  0.07578466  1
  P  P6_1  1  0.03180373  0.03180373  0.57578466  1
  P  P6_2  1  0.03180373  0.53180373  0.07578466  1
  P  P6_3  1  0.03180373  0.53180373  0.57578466  1
  P  P6_4  1  0.53180373  0.03180373  0.07578466  1
  P  P6_5  1  0.53180373  0.03180373  0.57578466  1
  P  P6_6  1  0.53180373  0.53180373  0.07578466  1
  P  P6_7  1  0.53180373  0.53180373  0.57578466  1
  P  P7_0  1  0.46819627  0.46819627  0.42421534  1
  P  P7_1  1  0.46819627  0.46819627  0.92421534  1
  P  P7_2  1  0.46819627  0.96819627  0.42421534  1
  P  P7_3  1  0.46819627  0.96819627  0.92421534  1
  P  P7_4  1  0.96819627  0.46819627  0.42421534  1
  P  P7_5  1  0.96819627  0.46819627  0.92421534  1
  P  P7_6  1  0.96819627  0.96819627  0.42421534  1
  P  P7_7  1  0.96819627  0.96819627  0.92421534  1
loop_
_geom_bond_atom_site_label_1
_geom_bond_atom_site_label_2
_geom_bond_distance
_geom_bond_site_symmetry_2
Ta0_0 Ti6_4 2.777564 1_455
Ta0_0 Ti5_4 2.777564 1_555
Ta0_0 Ti6_2 2.777564 1_545
Ta0_0 Ti5_2 2.777564 1_555
Ta0_0 Ti7_2 3.016695 1_555
Ta0_0 Ti8_2 3.016695 1_545
Ta0_0 Ti7_4 3.016696 1_555
Ta0_0 Ti8_4 3.016696 1_455
Ta0_1 Ti6_5 2.777564 1_455
Ta0_1 Ti5_5 2.777564 1_555
Ta0_1 Ti6_3 2.777564 1_545
Ta0_1 Ti5_3 2.777564 1_555
Ta0_1 Ti7_3 3.016695 1_555
Ta0_1 Ti8_3 3.016695 1_545
Ta0_1 Ti7_5 3.016696 1_555
Ta0_1 Ti8_5 3.016696 1_455
Ta0_2 Ti6_6 2.777564 1_455
Ta0_2 Ti5_6 2.777564 1_555
Ta0_2 Ti6_0 2.777564 1_555
Ta0_2 Ti5_0 2.777564 1_565
Ta0_2 Ti7_0 3.016695 1_565
Ta0_2 Ti8_0 3.016695 1_555
Ta0_2 Ti7_6 3.016696 1_555
Ta0_2 Ti8_6 3.016696 1_455
Ta0_3 Ti6_7 2.777564 1_455
Ta0_3 Ti5_7 2.777564 1_555
Ta0_3 Ti6_1 2.777564 1_555
Ta0_3 Ti5_1 2.777564 1_565
Ta0_3 Ti7_1 3.016695 1_565
Ta0_3 Ti8_1 3.016695 1_555
Ta0_3 Ti7_7 3.016696 1_555
Ta0_3 Ti8_7 3.016696 1_455
Ta0_4 Ti6_0 2.777564 1_555
Ta0_4 Ti5_0 2.777564 1_655
Ta0_4 Ti6_6 2.777564 1_545
Ta0_4 Ti5_6 2.777564 1_555
Ta0_4 Ti7_6 3.016695 1_555
Ta0_4 Ti8_6 3.016695 1_545
Ta0_4 Ti7_0 3.016696 1_655
Ta0_4 Ti8_0 3.016696 1_555
Ta0_5 Ti6_1 2.777564 1_555
Ta0_5 Ti5_1 2.777564 1_655
Ta0_5 Ti6_7 2.777564 1_545
Ta0_5 Ti5_7 2.777564 1_555
Ta0_5 Ti7_7 3.016695 1_555
Ta0_5 Ti8_7 3.016695 1_545
Ta0_5 Ti7_1 3.016696 1_655
Ta0_5 Ti8_1 3.016696 1_555
Ta0_6 Ti6_2 2.777564 1_555
Ta0_6 Ti5_2 2.777564 1_655
Ta0_6 Ti6_4 2.777564 1_555
Ta0_6 Ti5_4 2.777564 1_565
Ta0_6 Ti7_4 3.016695 1_565
Ta0_6 Ti8_4 3.016695 1_555
Ta0_6 Ti7_2 3.016696 1_655
Ta0_6 Ti8_2 3.016696 1_555
Ta0_7 Ti6_3 2.777564 1_555
Ta0_7 Ti5_3 2.777564 1_655
Ta0_7 Ti6_5 2.777564 1_555
Ta0_7 Ti5_5 2.777564 1_565
Ta0_7 Ti7_5 3.016695 1_565
Ta0_7 Ti8_5 3.016695 1_555
Ta0_7 Ti7_3 3.016696 1_655
Ta0_7 Ti8_3 3.016696 1_555
Ta1_0 Ti0_2 2.931897 1_555
Ta1_0 Ti0_4 2.931897 1_555
Ta1_0 Ti1_0 3.013941 1_555
Ta1_0 Ti5_2 3.115237 1_555
Ta1_0 Ti5_4 3.115237 1_555
Ta1_1 Ti0_3 2.931897 1_555
Ta1_1 Ti0_5 2.931897 1_555
Ta1_1 Ti1_1 3.013941 1_555
Ta1_1 Ti5_3 3.115237 1_555
Ta1_1 Ti5_5 3.115237 1_555
Ta1_2 Ti0_0 2.931897 1_565
Ta1_2 Ti0_6 2.931897 1_555
Ta1_2 Ti1_2 3.013941 1_555
Ta1_2 Ti5_0 3.115237 1_565
Ta1_2 Ti5_6 3.115237 1_555
Ta1_3 Ti0_1 2.931897 1_565
Ta1_3 Ti0_7 2.931897 1_555
Ta1_3 Ti1_3 3.013941 1_555
Ta1_3 Ti5_1 3.115237 1_565
Ta1_3 Ti5_7 3.115237 1_555
Ta1_4 Ti0_6 2.931897 1_555
Ta1_4 Ti0_0 2.931897 1_655
Ta1_4 Ti1_4 3.013941 1_555
Ta1_4 Ti5_6 3.115237 1_555
Ta1_4 Ti5_0 3.115237 1_655
Ta1_5 Ti0_7 2.931897 1_555
Ta1_5 Ti0_1 2.931897 1_655
Ta1_5 Ti1_5 3.013941 1_555
Ta1_5 Ti5_7 3.115237 1_555
Ta1_5 Ti5_1 3.115237 1_655
Ta1_6 Ti0_4 2.931897 1_565
Ta1_6 Ti0_2 2.931897 1_655
Ta1_6 Ti1_6 3.013941 1_555
Ta1_6 Ti5_4 3.115237 1_565
Ta1_6 Ti5_2 3.115237 1_655
Ta1_7 Ti0_5 2.931897 1_565
Ta1_7 Ti0_3 2.931897 1_655
Ta1_7 Ti1_7 3.013941 1_555
Ta1_7 Ti5_5 3.115237 1_565
Ta1_7 Ti5_3 3.115237 1_655
Ta2_0 Ti0_5 2.931897 1_555
Ta2_0 Ti0_3 2.931897 1_555
Ta2_0 Ti2_0 3.013941 1_555
Ta2_0 Ti6_2 3.115237 1_545
Ta2_0 Ti6_4 3.115237 1_455
Ta2_1 Ti0_4 2.931897 1_556
Ta2_1 Ti0_2 2.931897 1_556
Ta2_1 Ti2_1 3.013941 1_555
Ta2_1 Ti6_3 3.115237 1_545
Ta2_1 Ti6_5 3.115237 1_455
Ta2_2 Ti0_7 2.931897 1_555
Ta2_2 Ti0_1 2.931897 1_565
Ta2_2 Ti2_2 3.013941 1_555
Ta2_2 Ti6_0 3.115237 1_555
Ta2_2 Ti6_6 3.115237 1_455
Ta2_3 Ti0_6 2.931897 1_556
Ta2_3 Ti0_0 2.931897 1_566
Ta2_3 Ti2_3 3.013941 1_555
Ta2_3 Ti6_1 3.115237 1_555
Ta2_3 Ti6_7 3.115237 1_455
Ta2_4 Ti0_1 2.931897 1_655
Ta2_4 Ti0_7 2.931897 1_555
Ta2_4 Ti2_4 3.013941 1_555
Ta2_4 Ti6_6 3.115237 1_545
Ta2_4 Ti6_0 3.115237 1_555
Ta2_5 Ti0_0 2.931897 1_656
Ta2_5 Ti0_6 2.931897 1_556
Ta2_5 Ti2_5 3.013941 1_555
Ta2_5 Ti6_7 3.115237 1_545
Ta2_5 Ti6_1 3.115237 1_555
Ta2_6 Ti0_3 2.931897 1_655
Ta2_6 Ti0_5 2.931897 1_565
Ta2_6 Ti2_6 3.013941 1_555
Ta2_6 Ti6_4 3.115237 1_555
Ta2_6 Ti6_2 3.115237 1_555
Ta2_7 Ti0_2 2.931897 1_656
Ta2_7 Ti0_4 2.931897 1_566
Ta2_7 Ti2_7 3.013941 1_555
Ta2_7 Ti6_5 3.115237 1_555
Ta2_7 Ti6_3 3.115237 1_555
Ti0_0 Ti4_4 2.967086 1_455
Ti0_0 Ti3_3 2.967086 1_544
Ti0_0 Ti4_2 2.967087 1_545
Ti0_0 Ti3_5 2.967087 1_454
Ti0_0 Ti0_6 3.365405 1_455
Ti0_0 Ti0_6 3.365405 1_545
Ti0_1 Ti4_5 2.967086 1_455
Ti0_1 Ti3_2 2.967086 1_545
Ti0_1 Ti4_3 2.967087 1_545
Ti0_1 Ti3_4 2.967087 1_455
Ti0_1 Ti0_7 3.365405 1_455
Ti0_1 Ti0_7 3.365405 1_545
Ti0_2 Ti4_6 2.967086 1_455
Ti0_2 Ti3_1 2.967086 1_554
Ti0_2 Ti4_0 2.967087 1_555
Ti0_2 Ti3_7 2.967087 1_454
Ti0_2 Ti0_4 3.365405 1_555
Ti0_2 Ti0_4 3.365405 1_465
Ti0_3 Ti4_7 2.967086 1_455
Ti0_3 Ti3_0 2.967086 1_555
Ti0_3 Ti4_1 2.967087 1_555
Ti0_3 Ti3_6 2.967087 1_455
Ti0_3 Ti0_5 3.365405 1_555
Ti0_3 Ti0_5 3.365405 1_465
Ti0_4 Ti4_0 2.967086 1_555
Ti0_4 Ti3_7 2.967086 1_544
Ti0_4 Ti4_6 2.967087 1_545
Ti0_4 Ti3_1 2.967087 1_554
Ti0_5 Ti4_1 2.967086 1_555
Ti0_5 Ti3_6 2.967086 1_545
Ti0_5 Ti4_7 2.967087 1_545
Ti0_5 Ti3_0 2.967087 1_555
Ti0_6 Ti4_2 2.967086 1_555
Ti0_6 Ti3_5 2.967086 1_554
Ti0_6 Ti4_4 2.967087 1_555
Ti0_6 Ti3_3 2.967087 1_554
Ti0_7 Ti4_3 2.967086 1_555
Ti0_7 Ti3_4 2.967086 1_555
Ti0_7 Ti4_5 2.967087 1_555
Ti0_7 Ti3_2 2.967087 1_555
Ti3_0 Ti4_3 3.002430 1_545
Ti3_0 Ti4_5 3.002431 1_455
Ti3_1 Ti4_2 3.002430 1_546
Ti3_1 Ti4_4 3.002431 1_456
Ti3_2 Ti4_1 3.002430 1_555
Ti3_2 Ti4_7 3.002431 1_455
Ti3_3 Ti4_0 3.002430 1_556
Ti3_3 Ti4_6 3.002431 1_456
Ti3_4 Ti4_7 3.002430 1_545
Ti3_4 Ti4_1 3.002431 1_555
Ti3_5 Ti4_6 3.002430 1_546
Ti3_5 Ti4_0 3.002431 1_556
Ti3_6 Ti4_5 3.002430 1_555
Ti3_6 Ti4_3 3.002431 1_555
Ti3_7 Ti4_4 3.002430 1_556
Ti3_7 Ti4_2 3.002431 1_556
Ti7_0 Ti8_4 2.990689 1_455
Ti7_0 Ti8_2 2.990689 1_545
Ti7_1 Ti8_5 2.990689 1_455
Ti7_1 Ti8_3 2.990689 1_545
Ti7_2 Ti8_6 2.990689 1_455
Ti7_2 Ti8_0 2.990689 1_555
Ti7_3 Ti8_7 2.990689 1_455
Ti7_3 Ti8_1 2.990689 1_555
Ti7_4 Ti8_0 2.990689 1_555
Ti7_4 Ti8_6 2.990689 1_545
Ti7_5 Ti8_1 2.990689 1_555
Ti7_5 Ti8_7 2.990689 1_545
Ti7_6 Ti8_2 2.990689 1_555
Ti7_6 Ti8_4 2.990689 1_555
Ti7_7 Ti8_3 2.990689 1_555
Ti7_7 Ti8_5 2.990689 1_555
Cr0_0 P3_2 2.332848 1_545
Cr0_0 P3_4 2.332849 1_455
Cr0_0 P4_0 2.338215 1_555
Cr0_0 P0_0 2.650332 1_555
Cr0_0 Ti2_4 2.691265 1_455
Cr0_0 Ti2_2 2.691266 1_545
Cr0_0 Ta2_2 2.756581 1_545
Cr0_0 Ta2_4 2.756581 1_455
Cr0_0 Ti8_4 2.899646 1_455
Cr0_0 Ti8_2 2.899646 1_545
Cr0_1 P3_3 2.332848 1_545
Cr0_1 P3_5 2.332849 1_455
Cr0_1 P4_1 2.338215 1_555
Cr0_1 P0_1 2.650332 1_555
Cr0_1 Ti2_5 2.691265 1_455
Cr0_1 Ti2_3 2.691266 1_545
Cr0_1 Ta2_3 2.756581 1_545
Cr0_1 Ta2_5 2.756581 1_455
Cr0_1 Ti8_5 2.899646 1_455
Cr0_1 Ti8_3 2.899646 1_545
Cr0_2 P3_0 2.332848 1_555
Cr0_2 P3_6 2.332849 1_455
Cr0_2 P4_2 2.338215 1_555
Cr0_2 P0_2 2.650332 1_555
Cr0_2 Ti2_6 2.691265 1_455
Cr0_2 Ti2_0 2.691266 1_555
Cr0_2 Ta2_0 2.756581 1_555
Cr0_2 Ta2_6 2.756581 1_455
Cr0_2 Ti8_6 2.899646 1_455
Cr0_2 Ti8_0 2.899646 1_555
Cr0_3 P3_1 2.332848 1_555
Cr0_3 P3_7 2.332849 1_455
Cr0_3 P4_3 2.338215 1_555
Cr0_3 P0_3 2.650332 1_555
Cr0_3 Ti2_7 2.691265 1_455
Cr0_3 Ti2_1 2.691266 1_555
Cr0_3 Ta2_1 2.756581 1_555
Cr0_3 Ta2_7 2.756581 1_455
Cr0_3 Ti8_7 2.899646 1_455
Cr0_3 Ti8_1 2.899646 1_555
Cr0_4 P3_6 2.332848 1_545
Cr0_4 P3_0 2.332849 1_555
Cr0_4 P4_4 2.338215 1_555
Cr0_4 P0_4 2.650332 1_555
Cr0_4 Ti2_0 2.691265 1_555
Cr0_4 Ti2_6 2.691266 1_545
Cr0_4 Ta2_6 2.756581 1_545
Cr0_4 Ta2_0 2.756581 1_555
Cr0_4 Ti8_0 2.899646 1_555
Cr0_4 Ti8_6 2.899646 1_545
Cr0_5 P3_7 2.332848 1_545
Cr0_5 P3_1 2.332849 1_555
Cr0_5 P4_5 2.338215 1_555
Cr0_5 P0_5 2.650332 1_555
Cr0_5 Ti2_1 2.691265 1_555
Cr0_5 Ti2_7 2.691266 1_545
Cr0_5 Ta2_7 2.756581 1_545
Cr0_5 Ta2_1 2.756581 1_555
Cr0_5 Ti8_1 2.899646 1_555
Cr0_5 Ti8_7 2.899646 1_545
Cr0_6 P3_4 2.332848 1_555
Cr0_6 P3_2 2.332849 1_555
Cr0_6 P4_6 2.338215 1_555
Cr0_6 P0_6 2.650332 1_555
Cr0_6 Ti2_2 2.691265 1_555
Cr0_6 Ti2_4 2.691266 1_555
Cr0_6 Ta2_4 2.756581 1_555
Cr0_6 Ta2_2 2.756581 1_555
Cr0_6 Ti8_2 2.899646 1_555
Cr0_6 Ti8_4 2.899646 1_555
Cr0_7 P3_5 2.332848 1_555
Cr0_7 P3_3 2.332849 1_555
Cr0_7 P4_7 2.338215 1_555
Cr0_7 P0_7 2.650332 1_555
Cr0_7 Ti2_3 2.691265 1_555
Cr0_7 Ti2_5 2.691266 1_555
Cr0_7 Ta2_5 2.756581 1_555
Cr0_7 Ta2_3 2.756581 1_555
Cr0_7 Ti8_3 2.899646 1_555
Cr0_7 Ti8_5 2.899646 1_555
Cr1_0 P2_2 2.332848 1_555
Cr1_0 P2_4 2.332849 1_555
Cr1_0 P5_0 2.338215 1_555
Cr1_0 P1_0 2.650332 1_555
Cr1_0 Ti1_4 2.691265 1_555
Cr1_0 Ti1_2 2.691266 1_555
Cr1_0 Ta1_2 2.756581 1_555
Cr1_0 Ta1_4 2.756581 1_555
Cr1_0 Ti7_4 2.899646 1_555
Cr1_0 Ti7_2 2.899646 1_555
Cr1_1 P2_3 2.332848 1_555
Cr1_1 P2_5 2.332849 1_555
Cr1_1 P5_1 2.338215 1_555
Cr1_1 P1_1 2.650332 1_555
Cr1_1 Ti1_5 2.691265 1_555
Cr1_1 Ti1_3 2.691266 1_555
Cr1_1 Ta1_3 2.756581 1_555
Cr1_1 Ta1_5 2.756581 1_555
Cr1_1 Ti7_5 2.899646 1_555
Cr1_1 Ti7_3 2.899646 1_555
Cr1_2 P2_0 2.332848 1_565
Cr1_2 P2_6 2.332849 1_555
Cr1_2 P5_2 2.338215 1_555
Cr1_2 P1_2 2.650332 1_555
Cr1_2 Ti1_6 2.691265 1_555
Cr1_2 Ti1_0 2.691266 1_565
Cr1_2 Ta1_0 2.756581 1_565
Cr1_2 Ta1_6 2.756581 1_555
Cr1_2 Ti7_6 2.899646 1_555
Cr1_2 Ti7_0 2.899646 1_565
Cr1_3 P2_1 2.332848 1_565
Cr1_3 P2_7 2.332849 1_555
Cr1_3 P5_3 2.338215 1_555
Cr1_3 P1_3 2.650332 1_555
Cr1_3 Ti1_7 2.691265 1_555
Cr1_3 Ti1_1 2.691266 1_565
Cr1_3 Ta1_1 2.756581 1_565
Cr1_3 Ta1_7 2.756581 1_555
Cr1_3 Ti7_7 2.899646 1_555
Cr1_3 Ti7_1 2.899646 1_565
Cr1_4 P2_6 2.332848 1_555
Cr1_4 P2_0 2.332849 1_655
Cr1_4 P5_4 2.338215 1_555
Cr1_4 P1_4 2.650332 1_555
Cr1_4 Ti1_0 2.691265 1_655
Cr1_4 Ti1_6 2.691266 1_555
Cr1_4 Ta1_6 2.756581 1_555
Cr1_4 Ta1_0 2.756581 1_655
Cr1_4 Ti7_0 2.899646 1_655
Cr1_4 Ti7_6 2.899646 1_555
Cr1_5 P2_7 2.332848 1_555
Cr1_5 P2_1 2.332849 1_655
Cr1_5 P5_5 2.338215 1_555
Cr1_5 P1_5 2.650332 1_555
Cr1_5 Ti1_1 2.691265 1_655
Cr1_5 Ti1_7 2.691266 1_555
Cr1_5 Ta1_7 2.756581 1_555
Cr1_5 Ta1_1 2.756581 1_655
Cr1_5 Ti7_1 2.899646 1_655
Cr1_5 Ti7_7 2.899646 1_555
Cr1_6 P2_4 2.332848 1_565
Cr1_6 P2_2 2.332849 1_655
Cr1_6 P5_6 2.338215 1_555
Cr1_6 P1_6 2.650332 1_555
Cr1_6 Ti1_2 2.691265 1_655
Cr1_6 Ti1_4 2.691266 1_565
Cr1_6 Ta1_4 2.756581 1_565
Cr1_6 Ta1_2 2.756581 1_655
Cr1_6 Ti7_2 2.899646 1_655
Cr1_6 Ti7_4 2.899646 1_565
Cr1_7 P2_5 2.332848 1_565
Cr1_7 P2_3 2.332849 1_655
Cr1_7 P5_7 2.338215 1_555
Cr1_7 P1_7 2.650332 1_555
Cr1_7 Ti1_3 2.691265 1_655
Cr1_7 Ti1_5 2.691266 1_565
Cr1_7 Ta1_5 2.756581 1_565
Cr1_7 Ta1_3 2.756581 1_655
Cr1_7 Ti7_3 2.899646 1_655
Cr1_7 Ti7_5 2.899646 1_565
P0_0 Ti2_4 2.484088 1_455
P0_0 Ti2_2 2.484088 1_545
P0_0 Ti4_3 2.501134 1_545
P0_0 Ti4_5 2.501134 1_455
P0_0 Ta2_2 2.567590 1_545
P0_0 Ta2_4 2.567591 1_455
P0_0 Ti0_1 2.658915 1_555
P0_0 Ti3_0 2.752203 1_555
P0_1 Ti2_5 2.484088 1_455
P0_1 Ti2_3 2.484088 1_545
P0_1 Ti4_2 2.501134 1_546
P0_1 Ti4_4 2.501134 1_456
P0_1 Ta2_3 2.567590 1_545
P0_1 Ta2_5 2.567591 1_455
P0_1 Ti0_0 2.658915 1_556
P0_1 Ti3_1 2.752203 1_555
P0_2 Ti2_6 2.484088 1_455
P0_2 Ti2_0 2.484088 1_555
P0_2 Ti4_1 2.501134 1_555
P0_2 Ti4_7 2.501134 1_455
P0_2 Ta2_0 2.567590 1_555
P0_2 Ta2_6 2.567591 1_455
P0_2 Ti0_3 2.658915 1_555
P0_2 Ti3_2 2.752203 1_555
P0_3 Ti2_7 2.484088 1_455
P0_3 Ti2_1 2.484088 1_555
P0_3 Ti4_0 2.501134 1_556
P0_3 Ti4_6 2.501134 1_456
P0_3 Ta2_1 2.567590 1_555
P0_3 Ta2_7 2.567591 1_455
P0_3 Ti0_2 2.658915 1_556
P0_3 Ti3_3 2.752203 1_555
P0_4 Ti2_0 2.484088 1_555
P0_4 Ti2_6 2.484088 1_545
P0_4 Ti4_7 2.501134 1_545
P0_4 Ti4_1 2.501134 1_555
P0_4 Ta2_6 2.567590 1_545
P0_4 Ta2_0 2.567591 1_555
P0_4 Ti0_5 2.658915 1_555
P0_4 Ti3_4 2.752203 1_555
P0_5 Ti2_1 2.484088 1_555
P0_5 Ti2_7 2.484088 1_545
P0_5 Ti4_6 2.501134 1_546
P0_5 Ti4_0 2.501134 1_556
P0_5 Ta2_7 2.567590 1_545
P0_5 Ta2_1 2.567591 1_555
P0_5 Ti0_4 2.658915 1_556
P0_5 Ti3_5 2.752203 1_555
P0_6 Ti2_2 2.484088 1_555
P0_6 Ti2_4 2.484088 1_555
P0_6 Ti4_5 2.501134 1_555
P0_6 Ti4_3 2.501134 1_555
P0_6 Ta2_4 2.567590 1_555
P0_6 Ta2_2 2.567591 1_555
P0_6 Ti0_7 2.658915 1_555
P0_6 Ti3_6 2.752203 1_555
P0_7 Ti2_3 2.484088 1_555
P0_7 Ti2_5 2.484088 1_555
P0_7 Ti4_4 2.501134 1_556
P0_7 Ti4_2 2.501134 1_556
P0_7 Ta2_5 2.567590 1_555
P0_7 Ta2_3 2.567591 1_555
P0_7 Ti0_6 2.658915 1_556
P0_7 Ti3_7 2.752203 1_555
P1_0 Ti1_4 2.484088 1_555
P1_0 Ti1_2 2.484088 1_555
P1_0 Ti3_3 2.501134 1_554
P1_0 Ti3_5 2.501134 1_554
P1_0 Ta1_2 2.567590 1_555
P1_0 Ta1_4 2.567591 1_555
P1_0 Ti0_6 2.658915 1_555
P1_0 Ti4_0 2.752203 1_555
P1_1 Ti1_5 2.484088 1_555
P1_1 Ti1_3 2.484088 1_555
P1_1 Ti3_2 2.501134 1_555
P1_1 Ti3_4 2.501134 1_555
P1_1 Ta1_3 2.567590 1_555
P1_1 Ta1_5 2.567591 1_555
P1_1 Ti0_7 2.658915 1_555
P1_1 Ti4_1 2.752203 1_555
P1_2 Ti1_6 2.484088 1_555
P1_2 Ti1_0 2.484088 1_565
P1_2 Ti3_1 2.501134 1_564
P1_2 Ti3_7 2.501134 1_554
P1_2 Ta1_0 2.567590 1_565
P1_2 Ta1_6 2.567591 1_555
P1_2 Ti0_4 2.658915 1_565
P1_2 Ti4_2 2.752203 1_555
P1_3 Ti1_7 2.484088 1_555
P1_3 Ti1_1 2.484088 1_565
P1_3 Ti3_0 2.501134 1_565
P1_3 Ti3_6 2.501134 1_555
P1_3 Ta1_1 2.567590 1_565
P1_3 Ta1_7 2.567591 1_555
P1_3 Ti0_5 2.658915 1_565
P1_3 Ti4_3 2.752203 1_555
P1_4 Ti1_0 2.484088 1_655
P1_4 Ti1_6 2.484088 1_555
P1_4 Ti3_7 2.501134 1_554
P1_4 Ti3_1 2.501134 1_654
P1_4 Ta1_6 2.567590 1_555
P1_4 Ta1_0 2.567591 1_655
P1_4 Ti0_2 2.658915 1_655
P1_4 Ti4_4 2.752203 1_555
P1_5 Ti1_1 2.484088 1_655
P1_5 Ti1_7 2.484088 1_555
P1_5 Ti3_6 2.501134 1_555
P1_5 Ti3_0 2.501134 1_655
P1_5 Ta1_7 2.567590 1_555
P1_5 Ta1_1 2.567591 1_655
P1_5 Ti0_3 2.658915 1_655
P1_5 Ti4_5 2.752203 1_555
P1_6 Ti1_2 2.484088 1_655
P1_6 Ti1_4 2.484088 1_565
P1_6 Ti3_5 2.501134 1_564
P1_6 Ti3_3 2.501134 1_654
P1_6 Ta1_4 2.567590 1_565
P1_6 Ta1_2 2.567591 1_655
P1_6 Ti0_0 2.658915 1_665
P1_6 Ti4_6 2.752203 1_555
P1_7 Ti1_3 2.484088 1_655
P1_7 Ti1_5 2.484088 1_565
P1_7 Ti3_4 2.501134 1_565
P1_7 Ti3_2 2.501134 1_655
P1_7 Ta1_5 2.567590 1_565
P1_7 Ta1_3 2.567591 1_655
P1_7 Ti0_1 2.658915 1_665
P1_7 Ti4_7 2.752203 1_555
P2_0 Ti5_2 2.525844 1_555
P2_0 Ti5_4 2.525845 1_555
P2_0 Ti8_2 2.568042 1_545
P2_0 Ti8_4 2.568042 1_455
P2_0 Ta0_0 2.644898 1_555
P2_0 Ti7_0 2.681257 1_555
P2_0 Ta1_0 2.767619 1_555
P2_1 Ti5_3 2.525844 1_555
P2_1 Ti5_5 2.525845 1_555
P2_1 Ti8_3 2.568042 1_545
P2_1 Ti8_5 2.568042 1_455
P2_1 Ta0_1 2.644898 1_555
P2_1 Ti7_1 2.681257 1_555
P2_1 Ta1_1 2.767619 1_555
P2_2 Ti5_0 2.525844 1_565
P2_2 Ti5_6 2.525845 1_555
P2_2 Ti8_0 2.568042 1_555
P2_2 Ti8_6 2.568042 1_455
P2_2 Ta0_2 2.644898 1_555
P2_2 Ti7_2 2.681257 1_555
P2_2 Ta1_2 2.767619 1_555
P2_3 Ti5_1 2.525844 1_565
P2_3 Ti5_7 2.525845 1_555
P2_3 Ti8_1 2.568042 1_555
P2_3 Ti8_7 2.568042 1_455
P2_3 Ta0_3 2.644898 1_555
P2_3 Ti7_3 2.681257 1_555
P2_3 Ta1_3 2.767619 1_555
P2_4 Ti5_6 2.525844 1_555
P2_4 Ti5_0 2.525845 1_655
P2_4 Ti8_6 2.568042 1_545
P2_4 Ti8_0 2.568042 1_555
P2_4 Ta0_4 2.644898 1_555
P2_4 Ti7_4 2.681257 1_555
P2_4 Ta1_4 2.767619 1_555
P2_5 Ti5_7 2.525844 1_555
P2_5 Ti5_1 2.525845 1_655
P2_5 Ti8_7 2.568042 1_545
P2_5 Ti8_1 2.568042 1_555
P2_5 Ta0_5 2.644898 1_555
P2_5 Ti7_5 2.681257 1_555
P2_5 Ta1_5 2.767619 1_555
P2_6 Ti5_4 2.525844 1_565
P2_6 Ti5_2 2.525845 1_655
P2_6 Ti8_4 2.568042 1_555
P2_6 Ti8_2 2.568042 1_555
P2_6 Ta0_6 2.644898 1_555
P2_6 Ti7_6 2.681257 1_555
P2_6 Ta1_6 2.767619 1_555
P2_7 Ti5_5 2.525844 1_565
P2_7 Ti5_3 2.525845 1_655
P2_7 Ti8_5 2.568042 1_555
P2_7 Ti8_3 2.568042 1_555
P2_7 Ta0_7 2.644898 1_555
P2_7 Ti7_7 2.681257 1_555
P2_7 Ta1_7 2.767619 1_555
P3_0 Ti6_2 2.525844 1_545
P3_0 Ti6_4 2.525845 1_455
P3_0 Ti7_2 2.568042 1_555
P3_0 Ti7_4 2.568042 1_555
P3_0 Ta0_0 2.644898 1_555
P3_0 Ti8_0 2.681257 1_555
P3_0 Ta2_0 2.767619 1_555
P3_1 Ti6_3 2.525844 1_545
P3_1 Ti6_5 2.525845 1_455
P3_1 Ti7_3 2.568042 1_555
P3_1 Ti7_5 2.568042 1_555
P3_1 Ta0_1 2.644898 1_555
P3_1 Ti8_1 2.681257 1_555
P3_1 Ta2_1 2.767619 1_555
P3_2 Ti6_0 2.525844 1_555
P3_2 Ti6_6 2.525845 1_455
P3_2 Ti7_0 2.568042 1_565
P3_2 Ti7_6 2.568042 1_555
P3_2 Ta0_2 2.644898 1_555
P3_2 Ti8_2 2.681257 1_555
P3_2 Ta2_2 2.767619 1_555
P3_3 Ti6_1 2.525844 1_555
P3_3 Ti6_7 2.525845 1_455
P3_3 Ti7_1 2.568042 1_565
P3_3 Ti7_7 2.568042 1_555
P3_3 Ta0_3 2.644898 1_555
P3_3 Ti8_3 2.681257 1_555
P3_3 Ta2_3 2.767619 1_555
P3_4 Ti6_6 2.525844 1_545
P3_4 Ti6_0 2.525845 1_555
P3_4 Ti7_6 2.568042 1_555
P3_4 Ti7_0 2.568042 1_655
P3_4 Ta0_4 2.644898 1_555
P3_4 Ti8_4 2.681257 1_555
P3_4 Ta2_4 2.767619 1_555
P3_5 Ti6_7 2.525844 1_545
P3_5 Ti6_1 2.525845 1_555
P3_5 Ti7_7 2.568042 1_555
P3_5 Ti7_1 2.568042 1_655
P3_5 Ta0_5 2.644898 1_555
P3_5 Ti8_5 2.681257 1_555
P3_5 Ta2_5 2.767619 1_555
P3_6 Ti6_4 2.525844 1_555
P3_6 Ti6_2 2.525845 1_555
P3_6 Ti7_4 2.568042 1_565
P3_6 Ti7_2 2.568042 1_655
P3_6 Ta0_6 2.644898 1_555
P3_6 Ti8_6 2.681257 1_555
P3_6 Ta2_6 2.767619 1_555
P3_7 Ti6_5 2.525844 1_555
P3_7 Ti6_3 2.525845 1_555
P3_7 Ti7_5 2.568042 1_565
P3_7 Ti7_3 2.568042 1_655
P3_7 Ta0_7 2.644898 1_555
P3_7 Ti8_7 2.681257 1_555
P3_7 Ta2_7 2.767619 1_555
P4_0 Ti2_2 2.489421 1_545
P4_0 Ti2_4 2.489422 1_455
P4_0 Ta0_0 2.512056 1_555
P4_0 Ti8_2 2.528617 1_545
P4_0 Ti8_4 2.528618 1_455
P4_0 Ti6_4 2.542552 1_455
P4_0 Ti6_2 2.542553 1_545
P4_1 Ti2_3 2.489421 1_545
P4_1 Ti2_5 2.489422 1_455
P4_1 Ta0_1 2.512056 1_555
P4_1 Ti8_3 2.528617 1_545
P4_1 Ti8_5 2.528618 1_455
P4_1 Ti6_5 2.542552 1_455
P4_1 Ti6_3 2.542553 1_545
P4_2 Ti2_0 2.489421 1_555
P4_2 Ti2_6 2.489422 1_455
P4_2 Ta0_2 2.512056 1_555
P4_2 Ti8_0 2.528617 1_555
P4_2 Ti8_6 2.528618 1_455
P4_2 Ti6_6 2.542552 1_455
P4_2 Ti6_0 2.542553 1_555
P4_3 Ti2_1 2.489421 1_555
P4_3 Ti2_7 2.489422 1_455
P4_3 Ta0_3 2.512056 1_555
P4_3 Ti8_1 2.528617 1_555
P4_3 Ti8_7 2.528618 1_455
P4_3 Ti6_7 2.542552 1_455
P4_3 Ti6_1 2.542553 1_555
P4_4 Ti2_6 2.489421 1_545
P4_4 Ti2_0 2.489422 1_555
P4_4 Ta0_4 2.512056 1_555
P4_4 Ti8_6 2.528617 1_545
P4_4 Ti8_0 2.528618 1_555
P4_4 Ti6_0 2.542552 1_555
P4_4 Ti6_6 2.542553 1_545
P4_5 Ti2_7 2.489421 1_545
P4_5 Ti2_1 2.489422 1_555
P4_5 Ta0_5 2.512056 1_555
P4_5 Ti8_7 2.528617 1_545
P4_5 Ti8_1 2.528618 1_555
P4_5 Ti6_1 2.542552 1_555
P4_5 Ti6_7 2.542553 1_545
P4_6 Ti2_4 2.489421 1_555
P4_6 Ti2_2 2.489422 1_555
P4_6 Ta0_6 2.512056 1_555
P4_6 Ti8_4 2.528617 1_555
P4_6 Ti8_2 2.528618 1_555
P4_6 Ti6_2 2.542552 1_555
P4_6 Ti6_4 2.542553 1_555
P4_7 Ti2_5 2.489421 1_555
P4_7 Ti2_3 2.489422 1_555
P4_7 Ta0_7 2.512056 1_555
P4_7 Ti8_5 2.528617 1_555
P4_7 Ti8_3 2.528618 1_555
P4_7 Ti6_3 2.542552 1_555
P4_7 Ti6_5 2.542553 1_555
P5_0 Ti1_2 2.489421 1_555
P5_0 Ti1_4 2.489422 1_555
P5_0 Ta0_0 2.512056 1_555
P5_0 Ti7_2 2.528617 1_555
P5_0 Ti7_4 2.528618 1_555
P5_0 Ti5_4 2.542552 1_555
P5_0 Ti5_2 2.542553 1_555
P5_1 Ti1_3 2.489421 1_555
P5_1 Ti1_5 2.489422 1_555
P5_1 Ta0_1 2.512056 1_555
P5_1 Ti7_3 2.528617 1_555
P5_1 Ti7_5 2.528618 1_555
P5_1 Ti5_5 2.542552 1_555
P5_1 Ti5_3 2.542553 1_555
P5_2 Ti1_0 2.489421 1_565
P5_2 Ti1_6 2.489422 1_555
P5_2 Ta0_2 2.512056 1_555
P5_2 Ti7_0 2.528617 1_565
P5_2 Ti7_6 2.528618 1_555
P5_2 Ti5_6 2.542552 1_555
P5_2 Ti5_0 2.542553 1_565
P5_3 Ti1_1 2.489421 1_565
P5_3 Ti1_7 2.489422 1_555
P5_3 Ta0_3 2.512056 1_555
P5_3 Ti7_1 2.528617 1_565
P5_3 Ti7_7 2.528618 1_555
P5_3 Ti5_7 2.542552 1_555
P5_3 Ti5_1 2.542553 1_565
P5_4 Ti1_6 2.489421 1_555
P5_4 Ti1_0 2.489422 1_655
P5_4 Ta0_4 2.512056 1_555
P5_4 Ti7_6 2.528617 1_555
P5_4 Ti7_0 2.528618 1_655
P5_4 Ti5_0 2.542552 1_655
P5_4 Ti5_6 2.542553 1_555
P5_5 Ti1_7 2.489421 1_555
P5_5 Ti1_1 2.489422 1_655
P5_5 Ta0_5 2.512056 1_555
P5_5 Ti7_7 2.528617 1_555
P5_5 Ti7_1 2.528618 1_655
P5_5 Ti5_1 2.542552 1_655
P5_5 Ti5_7 2.542553 1_555
P5_6 Ti1_4 2.489421 1_565
P5_6 Ti1_2 2.489422 1_655
P5_6 Ta0_6 2.512056 1_555
P5_6 Ti7_4 2.528617 1_565
P5_6 Ti7_2 2.528618 1_655
P5_6 Ti5_2 2.542552 1_655
P5_6 Ti5_4 2.542553 1_565
P5_7 Ti1_5 2.489421 1_565
P5_7 Ti1_3 2.489422 1_655
P5_7 Ta0_7 2.512056 1_555
P5_7 Ti7_5 2.528617 1_565
P5_7 Ti7_3 2.528618 1_655
P5_7 Ti5_3 2.542552 1_655
P5_7 Ti5_5 2.542553 1_565
P6_0 Ti1_0 2.417173 1_555
P6_0 Ti5_0 2.422198 1_555
P6_0 Ti0_0 2.430061 1_555
P6_0 Ti4_4 2.527761 1_455
P6_0 Ti4_2 2.527762 1_545
P6_0 Ta1_2 2.572142 1_545
P6_0 Ta1_4 2.572143 1_455
P6_1 Ti1_1 2.417173 1_555
P6_1 Ti5_1 2.422198 1_555
P6_1 Ti0_1 2.430061 1_555
P6_1 Ti4_5 2.527761 1_455
P6_1 Ti4_3 2.527762 1_545
P6_1 Ta1_3 2.572142 1_545
P6_1 Ta1_5 2.572143 1_455
P6_2 Ti1_2 2.417173 1_555
P6_2 Ti5_2 2.422198 1_555
P6_2 Ti0_2 2.430061 1_555
P6_2 Ti4_6 2.527761 1_455
P6_2 Ti4_0 2.527762 1_555
P6_2 Ta1_0 2.572142 1_555
P6_2 Ta1_6 2.572143 1_455
P6_3 Ti1_3 2.417173 1_555
P6_3 Ti5_3 2.422198 1_555
P6_3 Ti0_3 2.430061 1_555
P6_3 Ti4_7 2.527761 1_455
P6_3 Ti4_1 2.527762 1_555
P6_3 Ta1_1 2.572142 1_555
P6_3 Ta1_7 2.572143 1_455
P6_4 Ti1_4 2.417173 1_555
P6_4 Ti5_4 2.422198 1_555
P6_4 Ti0_4 2.430061 1_555
P6_4 Ti4_0 2.527761 1_555
P6_4 Ti4_6 2.527762 1_545
P6_4 Ta1_6 2.572142 1_545
P6_4 Ta1_0 2.572143 1_555
P6_5 Ti1_5 2.417173 1_555
P6_5 Ti5_5 2.422198 1_555
P6_5 Ti0_5 2.430061 1_555
P6_5 Ti4_1 2.527761 1_555
P6_5 Ti4_7 2.527762 1_545
P6_5 Ta1_7 2.572142 1_545
P6_5 Ta1_1 2.572143 1_555
P6_6 Ti1_6 2.417173 1_555
P6_6 Ti5_6 2.422198 1_555
P6_6 Ti0_6 2.430061 1_555
P6_6 Ti4_2 2.527761 1_555
P6_6 Ti4_4 2.527762 1_555
P6_6 Ta1_4 2.572142 1_555
P6_6 Ta1_2 2.572143 1_555
P6_7 Ti1_7 2.417173 1_555
P6_7 Ti5_7 2.422198 1_555
P6_7 Ti0_7 2.430061 1_555
P6_7 Ti4_3 2.527761 1_555
P6_7 Ti4_5 2.527762 1_555
P6_7 Ta1_5 2.572142 1_555
P6_7 Ta1_3 2.572143 1_555
P7_0 Ti2_0 2.417173 1_555
P7_0 Ti6_0 2.422198 1_555
P7_0 Ti0_7 2.430061 1_555
P7_0 Ti3_4 2.527761 1_555
P7_0 Ti3_2 2.527762 1_555
P7_0 Ta2_2 2.572142 1_555
P7_0 Ta2_4 2.572143 1_555
P7_1 Ti2_1 2.417173 1_555
P7_1 Ti6_1 2.422198 1_555
P7_1 Ti0_6 2.430061 1_556
P7_1 Ti3_5 2.527761 1_555
P7_1 Ti3_3 2.527762 1_555
P7_1 Ta2_3 2.572142 1_555
P7_1 Ta2_5 2.572143 1_555
P7_2 Ti2_2 2.417173 1_555
P7_2 Ti6_2 2.422198 1_555
P7_2 Ti0_5 2.430061 1_565
P7_2 Ti3_6 2.527761 1_555
P7_2 Ti3_0 2.527762 1_565
P7_2 Ta2_0 2.572142 1_565
P7_2 Ta2_6 2.572143 1_555
P7_3 Ti2_3 2.417173 1_555
P7_3 Ti6_3 2.422198 1_555
P7_3 Ti0_4 2.430061 1_566
P7_3 Ti3_7 2.527761 1_555
P7_3 Ti3_1 2.527762 1_565
P7_3 Ta2_1 2.572142 1_565
P7_3 Ta2_7 2.572143 1_555
P7_4 Ti2_4 2.417173 1_555
P7_4 Ti6_4 2.422198 1_555
P7_4 Ti0_3 2.430061 1_655
P7_4 Ti3_0 2.527761 1_655
P7_4 Ti3_6 2.527762 1_555
P7_4 Ta2_6 2.572142 1_555
P7_4 Ta2_0 2.572143 1_655
P7_5 Ti2_5 2.417173 1_555
P7_5 Ti6_5 2.422198 1_555
P7_5 Ti0_2 2.430061 1_656
P7_5 Ti3_1 2.527761 1_655
P7_5 Ti3_7 2.527762 1_555
P7_5 Ta2_7 2.572142 1_555
P7_5 Ta2_1 2.572143 1_655
P7_6 Ti2_6 2.417173 1_555
P7_6 Ti6_6 2.422198 1_555
P7_6 Ti0_1 2.430061 1_665
P7_6 Ti3_2 2.527761 1_655
P7_6 Ti3_4 2.527762 1_565
P7_6 Ta2_4 2.572142 1_565
P7_6 Ta2_2 2.572143 1_655
P7_7 Ti2_7 2.417173 1_555
P7_7 Ti6_7 2.422198 1_555
P7_7 Ti0_0 2.430061 1_666
P7_7 Ti3_3 2.527761 1_655
P7_7 Ti3_5 2.527762 1_565
P7_7 Ta2_5 2.572142 1_565
P7_7 Ta2_3 2.572143 1_655
