# generated using pymatgen
data_PbWSeO6
_symmetry_space_group_name_H-M   'P 1'
_cell_length_a   6.88814503
_cell_length_b   7.26603207
_cell_length_c   10.97830350
_cell_angle_alpha   99.62035823
_cell_angle_beta   100.55454562
_cell_angle_gamma   90.06886724
_symmetry_Int_Tables_number   1
_chemical_formula_structural   PbWSeO6
_chemical_formula_sum   'Pb4 W4 Se4 O24'
_cell_volume   532.27870940
_cell_formula_units_Z   4
loop_
 _symmetry_equiv_pos_site_id
 _symmetry_equiv_pos_as_xyz
  1  'x, y, z'
loop_
 _atom_site_type_symbol
 _atom_site_label
 _atom_site_symmetry_multiplicity
 _atom_site_fract_x
 _atom_site_fract_y
 _atom_site_fract_z
 _atom_site_occupancy
  Pb  Pb0  1  0.75580533  0.86114659  0.51523164  1
  Pb  Pb1  1  0.24419467  0.13885341  0.48476836  1
  Pb  Pb2  1  0.67772098  0.70907754  0.84942545  1
  Pb  Pb3  1  0.32227902  0.29092246  0.15057455  1
  W  W0  1  0.17117662  0.95476415  0.79970992  1
  W  W1  1  0.82882338  0.04523585  0.20029008  1
  W  W2  1  0.17247852  0.45227545  0.79694470  1
  W  W3  1  0.82752148  0.54772455  0.20305530  1
  Se  Se0  1  0.29048298  0.64158497  0.53239224  1
  Se  Se1  1  0.70951702  0.35841503  0.46760776  1
  Se  Se2  1  0.61912551  0.19227875  0.78165992  1
  Se  Se3  1  0.38087449  0.80772125  0.21834008  1
  O  O0  1  0.17943709  0.04656449  0.95745225  1
  O  O1  1  0.82056291  0.95343551  0.04254775  1
  O  O2  1  0.91358882  0.88872471  0.75293714  1
  O  O3  1  0.08641118  0.11127529  0.24706286  1
  O  O4  1  0.14424196  0.18579646  0.73087953  1
  O  O5  1  0.85575804  0.81420354  0.26912047  1
  O  O6  1  0.26903093  0.71133182  0.82213787  1
  O  O7  1  0.73096907  0.28866818  0.17786213  1
  O  O8  1  0.18857339  0.84283862  0.59994896  1
  O  O9  1  0.81142661  0.15716138  0.40005104  1
  O  O10  1  0.47876893  0.02210292  0.82034076  1
  O  O11  1  0.52123107  0.97789708  0.17965924  1
  O  O12  1  0.20315261  0.44068437  0.95689818  1
  O  O13  1  0.79684739  0.55931563  0.04310182  1
  O  O14  1  0.91831108  0.49616541  0.76035217  1
  O  O15  1  0.08168892  0.50383459  0.23964783  1
  O  O16  1  0.20604229  0.46971411  0.60469563  1
  O  O17  1  0.79395771  0.53028589  0.39530437  1
  O  O18  1  0.48520643  0.38982302  0.80354791  1
  O  O19  1  0.51479357  0.61017698  0.19645209  1
  O  O20  1  0.53166973  0.67423121  0.60529646  1
  O  O21  1  0.46833027  0.32576879  0.39470354  1
  O  O22  1  0.57337269  0.13166051  0.62132131  1
  O  O23  1  0.42662731  0.86833949  0.37867869  1
loop_
_geom_bond_atom_site_label_1
_geom_bond_atom_site_label_2
_geom_bond_distance
_geom_bond_site_symmetry_2
O0 W0 1.739201 1_545
O0 Pb3 2.566903 1_556
O1 W1 1.739201 1_565
O1 Pb2 2.566903 1_554
O2 W0 1.795522 1_655
O2 Pb2 2.559900 1_555
O2 Pb0 2.610951 1_555
O3 W1 1.795522 1_455
O3 Pb3 2.559900 1_555
O3 Pb1 2.610951 1_555
O4 W2 1.947035 1_555
O4 W0 1.948531 1_545
O4 O8 2.708237 1_545
O4 Pb1 2.874812 1_555
O5 W3 1.947035 1_555
O5 W1 1.948531 1_565
O5 O9 2.708237 1_565
O5 Pb0 2.874812 1_555
O6 W0 1.931628 1_555
O6 W2 1.953844 1_555
O6 Pb2 2.776274 1_555
O7 W1 1.931628 1_555
O7 W3 1.953844 1_555
O7 Pb3 2.776274 1_555
O8 Se0 1.735477 1_555
O8 W0 2.232834 1_555
O8 Pb1 2.730644 1_565
O8 Pb0 2.965722 1_455
O9 Se1 1.735477 1_555
O9 W1 2.232834 1_555
O9 Pb0 2.730644 1_545
O9 Pb1 2.965722 1_655
O10 Se2 1.722496 1_555
O10 W0 2.136452 1_545
O10 O6 2.684017 1_545
O10 Pb2 2.691289 1_545
O10 O4 2.693860 1_555
O11 Se3 1.722496 1_555
O11 W1 2.136452 1_565
O11 O7 2.684017 1_565
O11 Pb3 2.691289 1_565
O11 O5 2.693860 1_555
O12 W2 1.746106 1_555
O12 Pb3 2.552381 1_556
O13 W3 1.746106 1_555
O13 Pb2 2.552381 1_554
O14 W2 1.764848 1_655
O14 Pb2 2.487993 1_555
O15 W3 1.764848 1_455
O15 Pb3 2.487993 1_555
O16 Se0 1.739722 1_555
O16 W2 2.189081 1_555
O16 Pb1 2.579201 1_555
O16 O6 2.680829 1_555
O16 O4 2.743193 1_555
O17 Se1 1.739722 1_555
O17 W3 2.189081 1_555
O17 Pb0 2.579201 1_555
O17 O7 2.680829 1_555
O17 O5 2.743193 1_555
O18 Se2 1.714069 1_555
O18 W2 2.192606 1_555
O18 Pb2 2.598197 1_555
O18 O4 2.694449 1_555
O19 Se3 1.714069 1_555
O19 W3 2.192606 1_555
O19 Pb3 2.598197 1_555
O19 O5 2.694449 1_555
O20 Se0 1.704508 1_555
O20 Pb0 2.491738 1_555
O20 Pb2 2.654065 1_555
O21 Se1 1.704508 1_555
O21 Pb1 2.491738 1_555
O21 Pb3 2.654065 1_555
O22 Se2 1.711458 1_555
O22 Pb1 2.484458 1_555
O22 Pb0 2.564366 1_545
O23 Se3 1.711458 1_555
O23 Pb0 2.484458 1_555
O23 Pb1 2.564366 1_565
