# generated using pymatgen
data_Ca10TcSnN10
_symmetry_space_group_name_H-M   'P 1'
_cell_length_a   6.92663285
_cell_length_b   6.92663210
_cell_length_c   8.91333977
_cell_angle_alpha   80.39666261
_cell_angle_beta   80.39665382
_cell_angle_gamma   59.87108277
_symmetry_Int_Tables_number   1
_chemical_formula_structural   Ca10TcSnN10
_chemical_formula_sum   'Ca10 Tc1 Sn1 N10'
_cell_volume   362.95215737
_cell_formula_units_Z   1
loop_
 _symmetry_equiv_pos_site_id
 _symmetry_equiv_pos_as_xyz
  1  'x, y, z'
loop_
 _atom_site_type_symbol
 _atom_site_label
 _atom_site_symmetry_multiplicity
 _atom_site_fract_x
 _atom_site_fract_y
 _atom_site_fract_z
 _atom_site_occupancy
  Ca  Ca0  1  0.87794322  0.35339416  0.82889329  1
  Ca  Ca1  1  0.87402004  0.87402004  0.81955792  1
  Ca  Ca2  1  0.73896973  0.73896973  0.53167116  1
  Ca  Ca3  1  0.74930241  0.25069179  0.51304585  1
  Ca  Ca4  1  0.63123480  0.13656981  0.14964642  1
  Ca  Ca5  1  0.35339416  0.87794322  0.82889329  1
  Ca  Ca6  1  0.25069179  0.74930241  0.51304585  1
  Ca  Ca7  1  0.24235373  0.24235373  0.50335855  1
  Ca  Ca8  1  0.13939103  0.13939103  0.15928036  1
  Ca  Ca9  1  0.13656981  0.63123480  0.14964642  1
  Tc  Tc0  1  0.63126616  0.63126616  0.22861814  1
  Sn  Sn0  1  0.37053468  0.37053468  0.77621155  1
  N  N0  1  0.90151567  0.47439129  0.31416529  1
  N  N1  1  0.99524148  0.99524148  0.01717267  1
  N  N2  1  0.67332295  0.67332295  0.02599584  1
  N  N3  1  0.54762337  0.54762337  0.68494086  1
  N  N4  1  0.47439129  0.90151567  0.31416529  1
  N  N5  1  0.54963377  0.06803067  0.66773799  1
  N  N6  1  0.47649254  0.47649254  0.29715307  1
  N  N7  1  0.31830851  0.31830851  0.00727578  1
  N  N8  1  0.06205620  0.06205620  0.64759339  1
  N  N9  1  0.06803067  0.54963377  0.66773799  1
loop_
_geom_bond_atom_site_label_1
_geom_bond_atom_site_label_2
_geom_bond_distance
_geom_bond_site_symmetry_2
Ca0 N3 2.450443 1_555
Ca0 N8 2.475271 1_655
Ca0 N9 2.481688 1_655
Ca0 N1 2.583256 1_546
Ca0 N2 2.705772 1_556
Ca1 N9 2.462153 1_655
Ca1 N5 2.462153 1_565
Ca1 N8 2.472450 1_665
Ca1 N1 2.491445 1_556
Ca1 N2 2.735685 1_556
Ca2 N5 2.403492 1_565
Ca2 N9 2.403493 1_655
Ca2 N3 2.436159 1_555
Ca2 N0 2.602025 1_555
Ca2 N4 2.602026 1_555
Ca3 N8 2.311038 1_655
Ca3 N5 2.439890 1_555
Ca3 N3 2.445830 1_555
Ca3 N0 2.599019 1_555
Ca3 N6 2.638579 1_555
Ca4 N7 2.353455 1_555
Ca4 N1 2.371543 1_545
Ca4 N4 2.535545 1_545
Ca4 N6 2.539769 1_555
Ca5 N3 2.450443 1_555
Ca5 N8 2.475272 1_565
Ca5 N5 2.481688 1_565
Ca5 N1 2.583256 1_456
Ca5 N2 2.705773 1_556
Ca6 N8 2.311038 1_565
Ca6 N9 2.439890 1_555
Ca6 N3 2.445830 1_555
Ca6 N4 2.599019 1_555
Ca6 N6 2.638579 1_555
Ca7 N8 2.294865 1_555
Ca7 N9 2.450523 1_555
Ca7 N5 2.450523 1_555
Ca7 N4 2.759604 1_545
Ca7 N0 2.759604 1_455
Ca7 N6 3.047940 1_555
Ca8 N7 2.308409 1_555
Ca8 N1 2.333041 1_445
Ca8 N0 2.544952 1_455
Ca8 N4 2.544953 1_545
Ca9 N7 2.353454 1_555
Ca9 N1 2.371543 1_455
Ca9 N0 2.535545 1_455
Ca9 N6 2.539769 1_555
N0 Tc0 1.850419 1_555
N2 Tc0 1.779219 1_555
N3 Sn0 2.125003 1_555
N4 Tc0 1.850419 1_555
N5 Sn0 2.128490 1_555
N6 Tc0 1.840806 1_555
N7 Sn0 2.034132 1_554
N9 Sn0 2.128490 1_555
