# generated using pymatgen
data_Rb2Zn3(SeO3)4
_symmetry_space_group_name_H-M   'P 1'
_cell_length_a   5.54848045
_cell_length_b   7.23015347
_cell_length_c   8.82919480
_cell_angle_alpha   91.38633561
_cell_angle_beta   108.35500820
_cell_angle_gamma   90.00828280
_symmetry_Int_Tables_number   1
_chemical_formula_structural   Rb2Zn3(SeO3)4
_chemical_formula_sum   'Rb2 Zn3 Se4 O12'
_cell_volume   336.06536910
_cell_formula_units_Z   1
loop_
 _symmetry_equiv_pos_site_id
 _symmetry_equiv_pos_as_xyz
  1  'x, y, z'
loop_
 _atom_site_type_symbol
 _atom_site_label
 _atom_site_symmetry_multiplicity
 _atom_site_fract_x
 _atom_site_fract_y
 _atom_site_fract_z
 _atom_site_occupancy
  Rb  Rb0  1  0.82848502  0.38478410  0.65705795  1
  Rb  Rb1  1  0.17151498  0.61521590  0.34294205  1
  Zn  Zn0  1  0.60045491  0.31267585  0.20020494  1
  Zn  Zn1  1  0.39954509  0.68732415  0.79979506  1
  Zn  Zn2  1  0.00000000  0.00000000  0.00000000  1
  Se  Se0  1  0.43445601  0.19860118  0.86946510  1
  Se  Se1  1  0.19751370  0.13119528  0.39415674  1
  Se  Se2  1  0.80248630  0.86880472  0.60584326  1
  Se  Se3  1  0.56554399  0.80139882  0.13053490  1
  O  O0  1  0.57702624  0.72785726  0.63725964  1
  O  O1  1  0.73076946  0.21925343  0.01000634  1
  O  O2  1  0.94059148  0.27200781  0.36288640  1
  O  O3  1  0.38845862  0.40564663  0.77707886  1
  O  O4  1  0.88097636  0.02189982  0.76268648  1
  O  O5  1  0.61154138  0.59435337  0.22292114  1
  O  O6  1  0.05940852  0.72799219  0.63711360  1
  O  O7  1  0.26923054  0.78074657  0.98999366  1
  O  O8  1  0.72090862  0.78047322  0.99007375  1
  O  O9  1  0.27909138  0.21952678  0.00992625  1
  O  O10  1  0.42297376  0.27214274  0.36274036  1
  O  O11  1  0.11902364  0.97810018  0.23731352  1
loop_
_geom_bond_atom_site_label_1
_geom_bond_atom_site_label_2
_geom_bond_distance
_geom_bond_site_symmetry_2
O0 Se2 1.706517 1_555
O0 Zn1 2.006315 1_555
O0 Rb0 2.828126 1_555
O0 Rb1 2.948396 1_555
O1 Se0 1.723708 1_554
O1 Zn0 2.123457 1_555
O1 Zn2 2.197568 1_655
O2 Se1 1.706171 1_655
O2 Zn0 2.006136 1_555
O2 Rb1 2.827115 1_655
O2 Rb0 2.951762 1_555
O3 Se0 1.702791 1_555
O3 Zn1 2.040604 1_555
O3 Rb0 2.952571 1_455
O3 Rb0 2.954373 1_555
O4 Se2 1.696592 1_545
O4 Zn2 1.999007 1_656
O4 Rb0 2.790340 1_555
O5 Se3 1.702791 1_555
O5 Zn0 2.040604 1_555
O5 Rb1 2.952571 1_655
O5 Rb1 2.954373 1_555
O6 Se2 1.706171 1_455
O6 Zn1 2.006136 1_555
O6 Rb0 2.827115 1_455
O6 Rb1 2.951762 1_555
O7 Se3 1.723708 1_556
O7 Zn1 2.123457 1_555
O7 Zn2 2.197568 1_566
O8 Se3 1.722863 1_556
O8 Zn1 2.124532 1_555
O8 Zn2 2.198173 1_666
O9 Se0 1.722863 1_554
O9 Zn0 2.124532 1_555
O9 Zn2 2.198173 1_555
O10 Se1 1.706517 1_555
O10 Zn0 2.006315 1_555
O10 Rb1 2.828126 1_555
O10 Rb0 2.948396 1_555
O11 Se1 1.696592 1_565
O11 Zn2 1.999007 1_565
O11 Rb1 2.790340 1_555
