# generated using pymatgen
data_Lu3BeP2Ru3
_symmetry_space_group_name_H-M   'P 1'
_cell_length_a   6.78959933
_cell_length_b   6.78960014
_cell_length_c   3.53569536
_cell_angle_alpha   90.00000000
_cell_angle_beta   90.00000000
_cell_angle_gamma   120.00000097
_symmetry_Int_Tables_number   1
_chemical_formula_structural   Lu3BeP2Ru3
_chemical_formula_sum   'Lu3 Be1 P2 Ru3'
_cell_volume   141.15420191
_cell_formula_units_Z   1
loop_
 _symmetry_equiv_pos_site_id
 _symmetry_equiv_pos_as_xyz
  1  'x, y, z'
loop_
 _atom_site_type_symbol
 _atom_site_label
 _atom_site_symmetry_multiplicity
 _atom_site_fract_x
 _atom_site_fract_y
 _atom_site_fract_z
 _atom_site_occupancy
  Lu  Lu0  1  0.39847142  0.39847142  0.50000000  1
  Lu  Lu1  1  0.60152858  1.00000000  0.50000000  1
  Lu  Lu2  1  0.00000000  0.60152858  0.50000000  1
  Be  Be0  1  0.00000000  0.00000000  0.50000000  1
  P  P0  1  0.66666700  0.33333300  0.00000000  1
  P  P1  1  0.33333300  0.66666700  0.00000000  1
  Ru  Ru0  1  0.00000000  0.24208241  0.00000000  1
  Ru  Ru1  1  0.24208241  1.00000000  0.00000000  1
  Ru  Ru2  1  0.75791759  0.75791759  0.00000000  1
loop_
_geom_bond_atom_site_label_1
_geom_bond_atom_site_label_2
_geom_bond_distance
_geom_bond_site_symmetry_2
Lu0 P0 2.728011 1_555
Lu0 P0 2.728011 1_556
Lu0 P1 2.728011 1_555
Lu0 P1 2.728011 1_556
Lu0 Ru0 2.949501 1_555
Lu0 Ru0 2.949501 1_556
Lu0 Ru1 2.949501 1_545
Lu0 Ru1 2.949501 1_546
Lu0 Ru2 3.013520 1_555
Lu0 Ru2 3.013520 1_556
Lu1 P0 2.728006 1_565
Lu1 P0 2.728006 1_566
Lu1 P1 2.728008 1_556
Lu1 P1 2.728008 1_555
Lu1 Ru0 2.949501 1_666
Lu1 Ru0 2.949501 1_665
Lu1 Ru2 2.949501 1_555
Lu1 Ru2 2.949501 1_556
Lu1 Ru1 3.013520 1_556
Lu1 Ru1 3.013520 1_555
Lu2 P1 2.728006 1_555
Lu2 P1 2.728006 1_556
Lu2 P0 2.728007 1_456
Lu2 P0 2.728007 1_455
Lu2 Ru2 2.949501 1_456
Lu2 Ru2 2.949501 1_455
Lu2 Ru1 2.949501 1_555
Lu2 Ru1 2.949501 1_556
Lu2 Ru0 3.013520 1_555
Lu2 Ru0 3.013520 1_556
Be0 Ru1 2.413886 1_545
Be0 Ru1 2.413886 1_546
Be0 Ru2 2.413886 1_446
Be0 Ru2 2.413886 1_445
Be0 Ru0 2.413886 1_555
Be0 Ru0 2.413886 1_556
Be0 Lu1 2.705461 1_445
Be0 Lu0 2.705461 1_555
Be0 Lu2 2.705462 1_545
P0 Ru0 2.628324 1_655
P0 Ru1 2.628328 1_545
P0 Ru2 2.628331 1_555
P1 Ru1 2.628324 1_555
P1 Ru0 2.628329 1_555
P1 Ru2 2.628331 1_555
Ru0 Ru1 2.846873 1_545
Ru0 Ru2 2.846873 1_445
Ru1 Ru2 2.846872 1_455
