# generated using pymatgen
data_K3Ag(SbAu)2
_symmetry_space_group_name_H-M   'P 1'
_cell_length_a   8.27370388
_cell_length_b   8.01501990
_cell_length_c   8.27370325
_cell_angle_alpha   44.30365620
_cell_angle_beta   45.19822086
_cell_angle_gamma   44.30365314
_symmetry_Int_Tables_number   1
_chemical_formula_structural   K3Ag(SbAu)2
_chemical_formula_sum   'K3 Ag1 Sb2 Au2'
_cell_volume   245.94337051
_cell_formula_units_Z   1
loop_
 _symmetry_equiv_pos_site_id
 _symmetry_equiv_pos_as_xyz
  1  'x, y, z'
loop_
 _atom_site_type_symbol
 _atom_site_label
 _atom_site_symmetry_multiplicity
 _atom_site_fract_x
 _atom_site_fract_y
 _atom_site_fract_z
 _atom_site_occupancy
  K  K0  1  0.50000000  0.50000000  0.50000000  1
  K  K1  1  0.91561609  0.92154210  0.91561609  1
  K  K2  1  0.08438391  0.07845790  0.08438391  1
  Ag  Ag0  1  0.50000000  0.00000000  0.50000000  1
  Sb  Sb0  1  0.24241702  0.24188946  0.24241702  1
  Sb  Sb1  1  0.75758298  0.75811054  0.75758298  1
  Au  Au0  1  0.00000000  0.50000000  0.50000000  1
  Au  Au1  1  0.50000000  0.50000000  0.00000000  1
loop_
_geom_bond_atom_site_label_1
_geom_bond_atom_site_label_2
_geom_bond_distance
_geom_bond_site_symmetry_2
K0 Sb0 3.816614 1_565
K0 Sb1 3.816614 1_545
K0 K1 4.021339 1_545
K0 K2 4.021339 1_565
K0 Sb0 4.028116 1_556
K0 Sb1 4.028116 1_554
K0 Sb0 4.028116 1_655
K0 Sb1 4.028116 1_455
K0 K1 4.053823 1_455
K0 K2 4.053823 1_655
K0 K1 4.053823 1_554
K0 K2 4.053823 1_556
K1 Sb0 3.526485 1_656
K1 Sb1 3.528071 1_555
K1 Sb0 3.629016 1_566
K1 Sb0 3.629016 1_665
K1 K2 3.640908 1_666
K2 Sb1 3.526485 1_454
K2 Sb0 3.528071 1_555
K2 Sb1 3.629016 1_544
K2 Sb1 3.629016 1_445
Ag0 Sb1 2.723186 1_545
Ag0 Sb0 2.723186 1_555
Ag0 Au0 3.073267 1_555
Ag0 Au0 3.073267 1_645
Ag0 Au1 3.073267 1_546
Ag0 Au1 3.073267 1_555
Ag0 K2 3.663715 1_556
Ag0 K1 3.663715 1_544
Ag0 K2 3.663715 1_655
Ag0 K1 3.663715 1_445
Ag0 K0 4.007510 1_555
Ag0 K0 4.007510 1_545
Au0 Sb1 2.681776 1_455
Au0 Sb0 2.681776 1_555
Au0 Au1 3.179427 1_555
Au0 Au1 3.179427 1_456
Au0 K2 3.498321 1_565
Au0 K1 3.498321 1_445
Au0 K2 3.644145 1_556
Au0 K1 3.644145 1_454
Au0 K0 4.136852 1_555
Au0 K0 4.136852 1_455
Au1 Sb1 2.681777 1_554
Au1 Sb0 2.681777 1_555
Au1 K2 3.498320 1_565
Au1 K1 3.498320 1_544
Au1 K2 3.644145 1_655
Au1 K1 3.644145 1_454
Au1 K0 4.136852 1_554
Au1 K0 4.136852 1_555
