# generated using pymatgen
data_Zr4HgPbC2
_symmetry_space_group_name_H-M   'P 1'
_cell_length_a   6.75944252
_cell_length_b   6.75944429
_cell_length_c   29.70933857
_cell_angle_alpha   90.00000000
_cell_angle_beta   90.00000000
_cell_angle_gamma   119.99999137
_symmetry_Int_Tables_number   1
_chemical_formula_structural   Zr4HgPbC2
_chemical_formula_sum   'Zr32 Hg8 Pb8 C16'
_cell_volume   1175.56196153
_cell_formula_units_Z   8
loop_
 _symmetry_equiv_pos_site_id
 _symmetry_equiv_pos_as_xyz
  1  'x, y, z'
loop_
 _atom_site_type_symbol
 _atom_site_label
 _atom_site_symmetry_multiplicity
 _atom_site_fract_x
 _atom_site_fract_y
 _atom_site_fract_z
 _atom_site_occupancy
  Zr  Zr0_0  1  0.16666700  0.33333400  0.04050754  1
  Zr  Zr0_1  1  0.16666700  0.33333400  0.54050754  1
  Zr  Zr0_2  1  0.16666700  0.83333400  0.04050754  1
  Zr  Zr0_3  1  0.16666700  0.83333400  0.54050754  1
  Zr  Zr0_4  1  0.66666700  0.33333400  0.04050754  1
  Zr  Zr0_5  1  0.66666700  0.33333400  0.54050754  1
  Zr  Zr0_6  1  0.66666700  0.83333400  0.04050754  1
  Zr  Zr0_7  1  0.66666700  0.83333400  0.54050754  1
  Zr  Zr1_0  1  0.16666700  0.33333400  0.20949246  1
  Zr  Zr1_1  1  0.16666700  0.33333400  0.70949246  1
  Zr  Zr1_2  1  0.16666700  0.83333400  0.20949246  1
  Zr  Zr1_3  1  0.16666700  0.83333400  0.70949246  1
  Zr  Zr1_4  1  0.66666700  0.33333400  0.20949246  1
  Zr  Zr1_5  1  0.66666700  0.33333400  0.70949246  1
  Zr  Zr1_6  1  0.66666700  0.83333400  0.20949246  1
  Zr  Zr1_7  1  0.66666700  0.83333400  0.70949246  1
  Zr  Zr2_0  1  0.33333400  0.16666700  0.29279500  1
  Zr  Zr2_1  1  0.33333400  0.16666700  0.79279500  1
  Zr  Zr2_2  1  0.33333400  0.66666700  0.29279500  1
  Zr  Zr2_3  1  0.33333400  0.66666700  0.79279500  1
  Zr  Zr2_4  1  0.83333400  0.16666700  0.29279500  1
  Zr  Zr2_5  1  0.83333400  0.16666700  0.79279500  1
  Zr  Zr2_6  1  0.83333400  0.66666700  0.29279500  1
  Zr  Zr2_7  1  0.83333400  0.66666700  0.79279500  1
  Zr  Zr3_0  1  0.33333400  0.16666700  0.45720500  1
  Zr  Zr3_1  1  0.33333400  0.16666700  0.95720500  1
  Zr  Zr3_2  1  0.33333400  0.66666700  0.45720500  1
  Zr  Zr3_3  1  0.33333400  0.66666700  0.95720500  1
  Zr  Zr3_4  1  0.83333400  0.16666700  0.45720500  1
  Zr  Zr3_5  1  0.83333400  0.16666700  0.95720500  1
  Zr  Zr3_6  1  0.83333400  0.66666700  0.45720500  1
  Zr  Zr3_7  1  0.83333400  0.66666700  0.95720500  1
  Hg  Hg0_0  1  0.16666700  0.33333400  0.37500000  1
  Hg  Hg0_1  1  0.16666700  0.33333400  0.87500000  1
  Hg  Hg0_2  1  0.16666700  0.83333400  0.37500000  1
  Hg  Hg0_3  1  0.16666700  0.83333400  0.87500000  1
  Hg  Hg0_4  1  0.66666700  0.33333400  0.37500000  1
  Hg  Hg0_5  1  0.66666700  0.33333400  0.87500000  1
  Hg  Hg0_6  1  0.66666700  0.83333400  0.37500000  1
  Hg  Hg0_7  1  0.66666700  0.83333400  0.87500000  1
  Pb  Pb0_0  1  0.33333400  0.16666700  0.12500000  1
  Pb  Pb0_1  1  0.33333400  0.16666700  0.62500000  1
  Pb  Pb0_2  1  0.33333400  0.66666700  0.12500000  1
  Pb  Pb0_3  1  0.33333400  0.66666700  0.62500000  1
  Pb  Pb0_4  1  0.83333400  0.16666700  0.12500000  1
  Pb  Pb0_5  1  0.83333400  0.16666700  0.62500000  1
  Pb  Pb0_6  1  0.83333400  0.66666700  0.12500000  1
  Pb  Pb0_7  1  0.83333400  0.66666700  0.62500000  1
  C  C0_0  1  0.00000000  0.00000000  0.49884051  1
  C  C0_1  1  0.00000000  0.00000000  0.99884051  1
  C  C0_2  1  0.00000000  0.50000000  0.49884051  1
  C  C0_3  1  0.00000000  0.50000000  0.99884051  1
  C  C0_4  1  0.50000000  0.00000000  0.49884051  1
  C  C0_5  1  0.50000000  0.00000000  0.99884051  1
  C  C0_6  1  0.50000000  0.50000000  0.49884051  1
  C  C0_7  1  0.50000000  0.50000000  0.99884051  1
  C  C1_0  1  0.00000000  0.00000000  0.25115949  1
  C  C1_1  1  0.00000000  0.00000000  0.75115949  1
  C  C1_2  1  0.00000000  0.50000000  0.25115949  1
  C  C1_3  1  0.00000000  0.50000000  0.75115949  1
  C  C1_4  1  0.50000000  0.00000000  0.25115949  1
  C  C1_5  1  0.50000000  0.00000000  0.75115949  1
  C  C1_6  1  0.50000000  0.50000000  0.25115949  1
  C  C1_7  1  0.50000000  0.50000000  0.75115949  1
loop_
_geom_bond_atom_site_label_1
_geom_bond_atom_site_label_2
_geom_bond_distance
_geom_bond_site_symmetry_2
Hg0_0 Zr3_4 3.126038 1_455
Hg0_0 Zr2_4 3.126038 1_455
Hg0_0 Zr3_2 3.126038 1_555
Hg0_0 Zr2_2 3.126038 1_555
Hg0_0 Zr3_0 3.126042 1_555
Hg0_0 Zr2_0 3.126042 1_555
Hg0_0 Hg0_4 3.379721 1_455
Hg0_0 Hg0_4 3.379721 1_555
Hg0_0 Hg0_2 3.379722 1_555
Hg0_0 Hg0_6 3.379722 1_555
Hg0_0 Hg0_2 3.379722 1_545
Hg0_0 Hg0_6 3.379722 1_445
Hg0_1 Zr3_5 3.126038 1_455
Hg0_1 Zr2_5 3.126038 1_455
Hg0_1 Zr3_3 3.126038 1_555
Hg0_1 Zr2_3 3.126038 1_555
Hg0_1 Zr3_1 3.126042 1_555
Hg0_1 Zr2_1 3.126042 1_555
Hg0_1 Hg0_5 3.379721 1_555
Hg0_1 Hg0_5 3.379721 1_455
Hg0_1 Hg0_3 3.379722 1_555
Hg0_1 Hg0_3 3.379722 1_545
Hg0_1 Hg0_7 3.379722 1_445
Hg0_1 Hg0_7 3.379722 1_555
Hg0_2 Zr3_6 3.126038 1_455
Hg0_2 Zr2_6 3.126038 1_455
Hg0_2 Zr3_0 3.126038 1_565
Hg0_2 Zr2_0 3.126038 1_565
Hg0_2 Zr3_2 3.126042 1_555
Hg0_2 Zr2_2 3.126042 1_555
Hg0_2 Hg0_6 3.379721 1_455
Hg0_2 Hg0_6 3.379721 1_555
Hg0_2 Hg0_4 3.379722 1_565
Hg0_2 Hg0_4 3.379722 1_455
Hg0_3 Zr3_7 3.126038 1_455
Hg0_3 Zr2_7 3.126038 1_455
Hg0_3 Zr3_1 3.126038 1_565
Hg0_3 Zr2_1 3.126038 1_565
Hg0_3 Zr3_3 3.126042 1_555
Hg0_3 Zr2_3 3.126042 1_555
Hg0_3 Hg0_7 3.379721 1_555
Hg0_3 Hg0_7 3.379721 1_455
Hg0_3 Hg0_5 3.379722 1_455
Hg0_3 Hg0_5 3.379722 1_565
Hg0_4 Zr3_0 3.126038 1_555
Hg0_4 Zr2_0 3.126038 1_555
Hg0_4 Zr3_6 3.126038 1_555
Hg0_4 Zr2_6 3.126038 1_555
Hg0_4 Zr3_4 3.126042 1_555
Hg0_4 Zr2_4 3.126042 1_555
Hg0_4 Hg0_6 3.379722 1_555
Hg0_4 Hg0_6 3.379722 1_545
Hg0_5 Zr3_1 3.126038 1_555
Hg0_5 Zr2_1 3.126038 1_555
Hg0_5 Zr3_7 3.126038 1_555
Hg0_5 Zr2_7 3.126038 1_555
Hg0_5 Zr3_5 3.126042 1_555
Hg0_5 Zr2_5 3.126042 1_555
Hg0_5 Hg0_7 3.379722 1_555
Hg0_5 Hg0_7 3.379722 1_545
Hg0_6 Zr3_2 3.126038 1_555
Hg0_6 Zr2_2 3.126038 1_555
Hg0_6 Zr3_4 3.126038 1_565
Hg0_6 Zr2_4 3.126038 1_565
Hg0_6 Zr3_6 3.126042 1_555
Hg0_6 Zr2_6 3.126042 1_555
Hg0_7 Zr3_3 3.126038 1_555
Hg0_7 Zr2_3 3.126038 1_555
Hg0_7 Zr3_5 3.126038 1_565
Hg0_7 Zr2_5 3.126038 1_565
Hg0_7 Zr3_7 3.126042 1_555
Hg0_7 Zr2_7 3.126042 1_555
Pb0_0 Zr1_4 3.179415 1_555
Pb0_0 Zr0_4 3.179415 1_555
Pb0_0 Zr1_2 3.179415 1_545
Pb0_0 Zr0_2 3.179415 1_545
Pb0_0 Zr1_0 3.179418 1_555
Pb0_0 Zr0_0 3.179418 1_555
Pb0_0 Pb0_4 3.379721 1_455
Pb0_0 Pb0_4 3.379721 1_555
Pb0_0 Pb0_2 3.379722 1_545
Pb0_0 Pb0_6 3.379722 1_445
Pb0_0 Pb0_2 3.379722 1_555
Pb0_0 Pb0_6 3.379722 1_555
Pb0_1 Zr1_5 3.179415 1_555
Pb0_1 Zr0_5 3.179415 1_555
Pb0_1 Zr1_3 3.179415 1_545
Pb0_1 Zr0_3 3.179415 1_545
Pb0_1 Zr1_1 3.179418 1_555
Pb0_1 Zr0_1 3.179418 1_555
Pb0_1 Pb0_5 3.379721 1_455
Pb0_1 Pb0_5 3.379721 1_555
Pb0_1 Pb0_3 3.379722 1_545
Pb0_1 Pb0_7 3.379722 1_445
Pb0_1 Pb0_3 3.379722 1_555
Pb0_1 Pb0_7 3.379722 1_555
Pb0_2 Zr1_6 3.179415 1_555
Pb0_2 Zr0_6 3.179415 1_555
Pb0_2 Zr1_0 3.179415 1_555
Pb0_2 Zr0_0 3.179415 1_555
Pb0_2 Zr1_2 3.179418 1_555
Pb0_2 Zr0_2 3.179418 1_555
Pb0_2 Pb0_6 3.379721 1_455
Pb0_2 Pb0_6 3.379721 1_555
Pb0_2 Pb0_4 3.379722 1_565
Pb0_2 Pb0_4 3.379722 1_455
Pb0_3 Zr1_7 3.179415 1_555
Pb0_3 Zr0_7 3.179415 1_555
Pb0_3 Zr1_1 3.179415 1_555
Pb0_3 Zr0_1 3.179415 1_555
Pb0_3 Zr1_3 3.179418 1_555
Pb0_3 Zr0_3 3.179418 1_555
Pb0_3 Pb0_7 3.379721 1_455
Pb0_3 Pb0_7 3.379721 1_555
Pb0_3 Pb0_5 3.379722 1_455
Pb0_3 Pb0_5 3.379722 1_565
Pb0_4 Zr1_0 3.179415 1_655
Pb0_4 Zr0_0 3.179415 1_655
Pb0_4 Zr1_6 3.179415 1_545
Pb0_4 Zr0_6 3.179415 1_545
Pb0_4 Zr1_4 3.179418 1_555
Pb0_4 Zr0_4 3.179418 1_555
Pb0_4 Pb0_6 3.379722 1_545
Pb0_4 Pb0_6 3.379722 1_555
Pb0_5 Zr1_1 3.179415 1_655
Pb0_5 Zr0_1 3.179415 1_655
Pb0_5 Zr1_7 3.179415 1_545
Pb0_5 Zr0_7 3.179415 1_545
Pb0_5 Zr1_5 3.179418 1_555
Pb0_5 Zr0_5 3.179418 1_555
Pb0_5 Pb0_7 3.379722 1_545
Pb0_5 Pb0_7 3.379722 1_555
Pb0_6 Zr1_2 3.179415 1_655
Pb0_6 Zr0_2 3.179415 1_655
Pb0_6 Zr1_4 3.179415 1_555
Pb0_6 Zr0_4 3.179415 1_555
Pb0_6 Zr1_6 3.179418 1_555
Pb0_6 Zr0_6 3.179418 1_555
Pb0_7 Zr1_3 3.179415 1_655
Pb0_7 Zr0_3 3.179415 1_655
Pb0_7 Zr1_5 3.179415 1_555
Pb0_7 Zr0_5 3.179415 1_555
Pb0_7 Zr1_7 3.179418 1_555
Pb0_7 Zr0_7 3.179418 1_555
C0_0 Zr3_4 2.310320 1_455
C0_0 Zr3_6 2.310320 1_445
C0_0 Zr3_0 2.310325 1_555
C0_0 Zr0_3 2.310821 1_545
C0_0 Zr0_7 2.310821 1_445
C0_0 Zr0_1 2.310827 1_555
C0_1 Zr3_5 2.310320 1_455
C0_1 Zr3_7 2.310320 1_445
C0_1 Zr3_1 2.310325 1_555
C0_1 Zr0_2 2.310821 1_546
C0_1 Zr0_6 2.310821 1_446
C0_1 Zr0_0 2.310827 1_556
C0_2 Zr3_6 2.310320 1_455
C0_2 Zr3_4 2.310320 1_455
C0_2 Zr3_2 2.310325 1_555
C0_2 Zr0_1 2.310821 1_555
C0_2 Zr0_5 2.310821 1_455
C0_2 Zr0_3 2.310827 1_555
C0_3 Zr3_7 2.310320 1_455
C0_3 Zr3_5 2.310320 1_455
C0_3 Zr3_3 2.310325 1_555
C0_3 Zr0_0 2.310821 1_556
C0_3 Zr0_4 2.310821 1_456
C0_3 Zr0_2 2.310827 1_556
C0_4 Zr3_0 2.310320 1_555
C0_4 Zr3_2 2.310320 1_545
C0_4 Zr3_4 2.310325 1_555
C0_4 Zr0_7 2.310821 1_545
C0_4 Zr0_3 2.310821 1_545
C0_4 Zr0_5 2.310827 1_555
C0_5 Zr3_1 2.310320 1_555
C0_5 Zr3_3 2.310320 1_545
C0_5 Zr3_5 2.310325 1_555
C0_5 Zr0_6 2.310821 1_546
C0_5 Zr0_2 2.310821 1_546
C0_5 Zr0_4 2.310827 1_556
C0_6 Zr3_2 2.310320 1_555
C0_6 Zr3_0 2.310320 1_555
C0_6 Zr3_6 2.310325 1_555
C0_6 Zr0_5 2.310821 1_555
C0_6 Zr0_1 2.310821 1_555
C0_6 Zr0_7 2.310827 1_555
C0_7 Zr3_3 2.310320 1_555
C0_7 Zr3_1 2.310320 1_555
C0_7 Zr3_7 2.310325 1_555
C0_7 Zr0_4 2.310821 1_556
C0_7 Zr0_0 2.310821 1_556
C0_7 Zr0_6 2.310827 1_556
C1_0 Zr2_4 2.310320 1_455
C1_0 Zr2_6 2.310320 1_445
C1_0 Zr2_0 2.310325 1_555
C1_0 Zr1_2 2.310821 1_545
C1_0 Zr1_6 2.310821 1_445
C1_0 Zr1_0 2.310827 1_555
C1_1 Zr2_5 2.310320 1_455
C1_1 Zr2_7 2.310320 1_445
C1_1 Zr2_1 2.310325 1_555
C1_1 Zr1_3 2.310821 1_545
C1_1 Zr1_7 2.310821 1_445
C1_1 Zr1_1 2.310827 1_555
C1_2 Zr2_6 2.310320 1_455
C1_2 Zr2_4 2.310320 1_455
C1_2 Zr2_2 2.310325 1_555
C1_2 Zr1_0 2.310821 1_555
C1_2 Zr1_4 2.310821 1_455
C1_2 Zr1_2 2.310827 1_555
C1_3 Zr2_7 2.310320 1_455
C1_3 Zr2_5 2.310320 1_455
C1_3 Zr2_3 2.310325 1_555
C1_3 Zr1_1 2.310821 1_555
C1_3 Zr1_5 2.310821 1_455
C1_3 Zr1_3 2.310827 1_555
C1_4 Zr2_0 2.310320 1_555
C1_4 Zr2_2 2.310320 1_545
C1_4 Zr2_4 2.310325 1_555
C1_4 Zr1_6 2.310821 1_545
C1_4 Zr1_2 2.310821 1_545
C1_4 Zr1_4 2.310827 1_555
C1_5 Zr2_1 2.310320 1_555
C1_5 Zr2_3 2.310320 1_545
C1_5 Zr2_5 2.310325 1_555
C1_5 Zr1_7 2.310821 1_545
C1_5 Zr1_3 2.310821 1_545
C1_5 Zr1_5 2.310827 1_555
C1_6 Zr2_2 2.310320 1_555
C1_6 Zr2_0 2.310320 1_555
C1_6 Zr2_6 2.310325 1_555
C1_6 Zr1_4 2.310821 1_555
C1_6 Zr1_0 2.310821 1_555
C1_6 Zr1_6 2.310827 1_555
C1_7 Zr2_3 2.310320 1_555
C1_7 Zr2_1 2.310320 1_555
C1_7 Zr2_7 2.310325 1_555
C1_7 Zr1_5 2.310821 1_555
C1_7 Zr1_1 2.310821 1_555
C1_7 Zr1_7 2.310827 1_555
