# generated using pymatgen
data_Y5MoRhO12
_symmetry_space_group_name_H-M   'P 1'
_cell_length_a   6.78947388
_cell_length_b   6.78947386
_cell_length_c   7.41331936
_cell_angle_alpha   73.88614363
_cell_angle_beta   73.88614372
_cell_angle_gamma   49.85865666
_symmetry_Int_Tables_number   1
_chemical_formula_structural   Y5MoRhO12
_chemical_formula_sum   'Y5 Mo1 Rh1 O12'
_cell_volume   248.70224495
_cell_formula_units_Z   1
loop_
 _symmetry_equiv_pos_site_id
 _symmetry_equiv_pos_as_xyz
  1  'x, y, z'
loop_
 _atom_site_type_symbol
 _atom_site_label
 _atom_site_symmetry_multiplicity
 _atom_site_fract_x
 _atom_site_fract_y
 _atom_site_fract_z
 _atom_site_occupancy
  Y  Y0  1  0.48976599  0.51023401  0.50000000  1
  Y  Y1  1  0.18057859  0.19429743  0.17234300  1
  Y  Y2  1  0.80570257  0.81942141  0.82765700  1
  Y  Y3  1  0.78729177  0.82050973  0.35845494  1
  Y  Y4  1  0.17949027  0.21270823  0.64154506  1
  Mo  Mo0  1  0.30176894  0.69823106  0.00000000  1
  Rh  Rh0  1  0.74902586  0.25097414  0.00000000  1
  O  O0  1  0.01366816  0.98541239  0.17845578  1
  O  O1  1  0.01458761  0.98633184  0.82154422  1
  O  O2  1  0.50081201  0.49648288  0.80242700  1
  O  O3  1  0.50351712  0.49918799  0.19757300  1
  O  O4  1  0.58507648  0.10376782  0.57764547  1
  O  O5  1  0.89623218  0.41492352  0.42235453  1
  O  O6  1  0.38885647  0.91120283  0.43141378  1
  O  O7  1  0.40200261  0.91097352  0.91728470  1
  O  O8  1  0.08902648  0.59799739  0.08271530  1
  O  O9  1  0.58860162  0.06480089  0.08462313  1
  O  O10  1  0.93519911  0.41139838  0.91537687  1
  O  O11  1  0.08879717  0.61114353  0.56858622  1
loop_
_geom_bond_atom_site_label_1
_geom_bond_atom_site_label_2
_geom_bond_distance
_geom_bond_site_symmetry_2
Mo0 O7 1.862674 1_554
Mo0 O8 1.862674 1_555
Mo0 O3 1.864407 1_555
Mo0 O2 1.864407 1_554
Mo0 O1 2.110928 1_554
Mo0 O0 2.110928 1_555
O0 Rh0 2.011939 1_465
O0 Y1 2.303400 1_565
O0 Y3 2.376418 1_455
O0 O8 2.604565 1_555
O0 O3 2.797319 1_555
O1 Rh0 2.011939 1_466
O1 Y2 2.303400 1_455
O1 Y4 2.376418 1_565
O1 O7 2.604566 1_555
O1 O2 2.797319 1_555
O2 Rh0 2.038825 1_556
O2 Y0 2.238072 1_555
O3 Rh0 2.038825 1_555
O3 Y0 2.238072 1_555
O4 Y4 2.280067 1_555
O4 Y2 2.287425 1_545
O4 Y3 2.305615 1_545
O4 Y0 2.321297 1_555
O4 O7 2.851152 1_545
O5 Y3 2.280067 1_555
O5 Y1 2.287425 1_655
O5 Y4 2.305615 1_655
O5 Y0 2.321297 1_555
O5 O8 2.851152 1_655
O5 O6 2.852420 1_645
O6 Y0 2.271425 1_555
O6 Y3 2.283551 1_555
O6 Y1 2.310114 1_565
O6 Y4 2.329557 1_565
O6 O9 2.817094 1_565
O7 Y2 2.315618 1_555
O7 Y4 2.461084 1_565
O7 Y1 2.499616 1_566
O7 O9 2.744521 1_566
O8 Y1 2.315618 1_555
O8 Y3 2.461084 1_455
O8 Y2 2.499616 1_454
O8 O9 2.775422 1_465
O9 Rh0 2.033055 1_555
O9 Y1 2.246602 1_555
O9 Y3 2.336224 1_545
O9 Y2 2.369374 1_544
O10 Rh0 2.033055 1_556
O10 Y2 2.246602 1_555
O10 Y4 2.336224 1_655
O10 Y1 2.369374 1_656
O10 O8 2.744521 1_656
O10 O7 2.775422 1_645
O10 O11 2.817094 1_655
O11 Y0 2.271425 1_555
O11 Y4 2.283551 1_555
O11 Y2 2.310114 1_455
O11 Y3 2.329557 1_455
O11 O4 2.852420 1_465
