# generated using pymatgen
data_SrTePdO6
_symmetry_space_group_name_H-M   'P 1'
_cell_length_a   5.19372306
_cell_length_b   5.19372241
_cell_length_c   5.41215719
_cell_angle_alpha   90.00000000
_cell_angle_beta   90.00000000
_cell_angle_gamma   120.00000417
_symmetry_Int_Tables_number   1
_chemical_formula_structural   SrTePdO6
_chemical_formula_sum   'Sr1 Te1 Pd1 O6'
_cell_volume   126.43244516
_cell_formula_units_Z   1
loop_
 _symmetry_equiv_pos_site_id
 _symmetry_equiv_pos_as_xyz
  1  'x, y, z'
loop_
 _atom_site_type_symbol
 _atom_site_label
 _atom_site_symmetry_multiplicity
 _atom_site_fract_x
 _atom_site_fract_y
 _atom_site_fract_z
 _atom_site_occupancy
  Sr  Sr0  1  0.33333300  0.66666700  0.00000000  1
  Te  Te0  1  0.66666700  0.33333300  0.50000000  1
  Pd  Pd0  1  0.00000000  0.00000000  0.50000000  1
  O  O0  1  0.69948100  0.04290652  0.70087861  1
  O  O1  1  0.95709348  0.65657448  0.70087861  1
  O  O2  1  0.34342552  0.30051900  0.70087861  1
  O  O3  1  0.69948100  0.65657448  0.29912139  1
  O  O4  1  0.34342552  0.04290652  0.29912139  1
  O  O5  1  0.95709348  0.30051900  0.29912139  1
loop_
_geom_bond_atom_site_label_1
_geom_bond_atom_site_label_2
_geom_bond_distance
_geom_bond_site_symmetry_2
O0 Te0 1.934773 1_555
O0 Pd0 2.003893 1_655
O0 Sr0 2.517853 1_546
O1 Te0 1.934775 1_555
O1 Pd0 2.003893 1_665
O1 Sr0 2.517851 1_656
O2 Te0 1.934777 1_555
O2 Pd0 2.003893 1_555
O2 Sr0 2.517855 1_556
O3 Te0 1.934777 1_555
O3 Pd0 2.003893 1_665
O3 Sr0 2.517855 1_555
O4 Te0 1.934775 1_555
O4 Pd0 2.003893 1_555
O4 Sr0 2.517851 1_545
O5 Te0 1.934773 1_555
O5 Pd0 2.003893 1_655
O5 Sr0 2.517853 1_655
