# generated using pymatgen
data_Ni4SnSbTe4
_symmetry_space_group_name_H-M   'P 1'
_cell_length_a   3.88659949
_cell_length_b   3.88659954
_cell_length_c   16.34468238
_cell_angle_alpha   90.00000000
_cell_angle_beta   90.00000000
_cell_angle_gamma   120.00000790
_symmetry_Int_Tables_number   1
_chemical_formula_structural   Ni4SnSbTe4
_chemical_formula_sum   'Ni4 Sn1 Sb1 Te4'
_cell_volume   213.81918378
_cell_formula_units_Z   1
loop_
 _symmetry_equiv_pos_site_id
 _symmetry_equiv_pos_as_xyz
  1  'x, y, z'
loop_
 _atom_site_type_symbol
 _atom_site_label
 _atom_site_symmetry_multiplicity
 _atom_site_fract_x
 _atom_site_fract_y
 _atom_site_fract_z
 _atom_site_occupancy
  Ni  Ni0  1  0.00000000  0.00000000  0.16782937  1
  Ni  Ni1  1  0.00000000  0.00000000  0.66923493  1
  Ni  Ni2  1  0.00000000  0.00000000  0.83076507  1
  Ni  Ni3  1  0.00000000  0.00000000  0.33217063  1
  Sn  Sn0  1  0.33333300  0.66666700  0.25000000  1
  Sb  Sb0  1  0.66666700  0.33333300  0.75000000  1
  Te  Te0  1  0.33333300  0.66666700  0.59415627  1
  Te  Te1  1  0.66666700  0.33333300  0.09411207  1
  Te  Te2  1  0.66666700  0.33333300  0.40588793  1
  Te  Te3  1  0.33333300  0.66666700  0.90584373  1
loop_
_geom_bond_atom_site_label_1
_geom_bond_atom_site_label_2
_geom_bond_distance
_geom_bond_site_symmetry_2
Ni0 Te1 2.546951 1_455
Ni0 Te1 2.546954 1_555
Ni0 Te1 2.546954 1_445
Ni0 Sn0 2.615148 1_545
Ni0 Sn0 2.615151 1_445
Ni0 Sn0 2.615151 1_555
Ni0 Ni3 2.686106 1_555
Ni1 Te0 2.557552 1_545
Ni1 Te0 2.557555 1_445
Ni1 Te0 2.557555 1_555
Ni1 Sb0 2.603424 1_455
Ni1 Sb0 2.603427 1_555
Ni1 Sb0 2.603427 1_445
Ni1 Ni2 2.640159 1_555
Ni2 Te3 2.557552 1_545
Ni2 Te3 2.557555 1_445
Ni2 Te3 2.557555 1_555
Ni2 Sb0 2.603424 1_455
Ni2 Sb0 2.603427 1_555
Ni2 Sb0 2.603427 1_445
Ni3 Te2 2.546951 1_455
Ni3 Te2 2.546954 1_555
Ni3 Te2 2.546954 1_445
Ni3 Sn0 2.615148 1_545
Ni3 Sn0 2.615151 1_445
Ni3 Sn0 2.615151 1_555
