# generated using pymatgen
data_Cs2Hf(GeO3)3
_symmetry_space_group_name_H-M   'P 1'
_cell_length_a   7.36387152
_cell_length_b   7.36387232
_cell_length_c   10.65927623
_cell_angle_alpha   90.00000000
_cell_angle_beta   90.00000000
_cell_angle_gamma   120.00000507
_symmetry_Int_Tables_number   1
_chemical_formula_structural   Cs2Hf(GeO3)3
_chemical_formula_sum   'Cs4 Hf2 Ge6 O18'
_cell_volume   500.57687033
_cell_formula_units_Z   2
loop_
 _symmetry_equiv_pos_site_id
 _symmetry_equiv_pos_as_xyz
  1  'x, y, z'
loop_
 _atom_site_type_symbol
 _atom_site_label
 _atom_site_symmetry_multiplicity
 _atom_site_fract_x
 _atom_site_fract_y
 _atom_site_fract_z
 _atom_site_occupancy
  Cs  Cs0  1  0.33333300  0.66666700  0.05967125  1
  Cs  Cs1  1  0.66666700  0.33333300  0.55967125  1
  Cs  Cs2  1  0.66666700  0.33333300  0.94032875  1
  Cs  Cs3  1  0.33333300  0.66666700  0.44032875  1
  Hf  Hf0  1  0.00000000  0.00000000  0.00000000  1
  Hf  Hf1  1  0.00000000  0.00000000  0.50000000  1
  Ge  Ge0  1  0.37677240  0.23590579  0.25000000  1
  Ge  Ge1  1  0.14086761  0.37677240  0.75000000  1
  Ge  Ge2  1  0.23590579  0.85913239  0.75000000  1
  Ge  Ge3  1  0.76409421  0.14086761  0.25000000  1
  Ge  Ge4  1  0.85913239  0.62322760  0.25000000  1
  Ge  Ge5  1  0.62322760  0.76409421  0.75000000  1
  O  O0  1  0.49472897  0.07656927  0.25000000  1
  O  O1  1  0.41816071  0.49472897  0.75000000  1
  O  O2  1  0.07656927  0.58183929  0.75000000  1
  O  O3  1  0.92343073  0.41816071  0.25000000  1
  O  O4  1  0.58183929  0.50527103  0.25000000  1
  O  O5  1  0.50527103  0.92343073  0.75000000  1
  O  O6  1  0.24670028  0.20810915  0.11080544  1
  O  O7  1  0.03859012  0.24670028  0.61080544  1
  O  O8  1  0.20810915  0.96140988  0.61080544  1
  O  O9  1  0.79189085  0.03859012  0.11080544  1
  O  O10  1  0.96140988  0.75329972  0.11080544  1
  O  O11  1  0.75329972  0.79189085  0.61080544  1
  O  O12  1  0.75329972  0.79189085  0.88919456  1
  O  O13  1  0.96140988  0.75329972  0.38919456  1
  O  O14  1  0.79189085  0.03859012  0.38919456  1
  O  O15  1  0.20810915  0.96140988  0.88919456  1
  O  O16  1  0.03859012  0.24670028  0.88919456  1
  O  O17  1  0.24670028  0.20810915  0.38919456  1
loop_
_geom_bond_atom_site_label_1
_geom_bond_atom_site_label_2
_geom_bond_distance
_geom_bond_site_symmetry_2
Cs0 O10 3.154723 1_455
Cs0 O9 3.154733 1_565
Cs0 O6 3.154738 1_555
Cs0 O12 3.296161 1_554
Cs0 O16 3.296161 1_554
Cs0 O15 3.296162 1_554
Cs0 O3 3.324474 1_455
Cs0 O4 3.324474 1_555
Cs0 O0 3.324474 1_565
Cs0 O2 3.698634 1_554
Cs0 O5 3.698635 1_554
Cs0 O1 3.698640 1_554
Cs1 O7 3.154723 1_655
Cs1 O8 3.154733 1_545
Cs1 O11 3.154738 1_555
Cs1 O17 3.296161 1_555
Cs1 O13 3.296161 1_555
Cs1 O14 3.296162 1_555
Cs1 O2 3.324474 1_655
Cs1 O1 3.324474 1_555
Cs1 O5 3.324474 1_545
Cs1 O3 3.698634 1_555
Cs1 O0 3.698635 1_555
Cs1 O4 3.698640 1_555
Cs2 O16 3.154723 1_655
Cs2 O15 3.154733 1_545
Cs2 O12 3.154738 1_555
Cs2 O6 3.296161 1_556
Cs2 O10 3.296161 1_556
Cs2 O9 3.296162 1_556
Cs2 O2 3.324474 1_655
Cs2 O1 3.324474 1_555
Cs2 O5 3.324474 1_545
Cs2 O3 3.698634 1_556
Cs2 O0 3.698635 1_556
Cs2 O4 3.698640 1_556
Cs3 O13 3.154723 1_455
Cs3 O14 3.154733 1_565
Cs3 O17 3.154738 1_555
Cs3 O11 3.296161 1_555
Cs3 O7 3.296161 1_555
Cs3 O8 3.296162 1_555
Cs3 O3 3.324474 1_455
Cs3 O4 3.324474 1_555
Cs3 O0 3.324474 1_565
Cs3 O2 3.698634 1_555
Cs3 O5 3.698635 1_555
Cs3 O1 3.698640 1_555
Hf0 O9 2.063923 1_455
Hf0 O15 2.063923 1_544
Hf0 O6 2.063927 1_555
Hf0 O12 2.063927 1_444
Hf0 O10 2.063929 1_445
Hf0 O16 2.063929 1_554
Hf1 O8 2.063923 1_545
Hf1 O14 2.063923 1_455
Hf1 O11 2.063927 1_445
Hf1 O17 2.063927 1_555
Hf1 O7 2.063929 1_555
Hf1 O13 2.063929 1_445
Ge0 O17 1.721828 1_555
Ge0 O6 1.721828 1_555
Ge0 O0 1.774933 1_555
Ge0 O4 1.794311 1_555
Ge1 O16 1.721830 1_555
Ge1 O7 1.721830 1_555
Ge1 O1 1.774932 1_555
Ge1 O2 1.794311 1_555
Ge2 O15 1.721835 1_555
Ge2 O8 1.721835 1_555
Ge2 O2 1.774933 1_555
Ge2 O5 1.794311 1_555
Ge3 O14 1.721835 1_555
Ge3 O9 1.721835 1_555
Ge3 O3 1.774933 1_555
Ge3 O0 1.794311 1_555
Ge4 O13 1.721830 1_555
Ge4 O10 1.721830 1_555
Ge4 O4 1.774932 1_555
Ge4 O3 1.794311 1_555
Ge5 O12 1.721828 1_555
Ge5 O11 1.721828 1_555
Ge5 O5 1.774933 1_555
Ge5 O1 1.794311 1_555
