# generated using pymatgen
data_LiMn5(AsRu)6
_symmetry_space_group_name_H-M   'P 1'
_cell_length_a   7.40177010
_cell_length_b   7.44468257
_cell_length_c   7.40177074
_cell_angle_alpha   127.70766117
_cell_angle_beta   122.06189260
_cell_angle_gamma   81.65275380
_symmetry_Int_Tables_number   1
_chemical_formula_structural   LiMn5(AsRu)6
_chemical_formula_sum   'Li1 Mn5 As6 Ru6'
_cell_volume   263.48022102
_cell_formula_units_Z   1
loop_
 _symmetry_equiv_pos_site_id
 _symmetry_equiv_pos_as_xyz
  1  'x, y, z'
loop_
 _atom_site_type_symbol
 _atom_site_label
 _atom_site_symmetry_multiplicity
 _atom_site_fract_x
 _atom_site_fract_y
 _atom_site_fract_z
 _atom_site_occupancy
  Li  Li0  1  0.46650645  0.24318182  0.27667437  1
  Mn  Mn0  1  0.53771018  0.82070960  0.78299842  1
  Mn  Mn1  1  0.74245601  0.64560085  0.40314385  1
  Mn  Mn2  1  0.25583062  0.65767810  0.90184748  1
  Mn  Mn3  1  0.05668332  0.85139546  0.29471214  1
  Mn  Mn4  1  0.94356116  0.24068071  0.79711854  1
  As  As0  1  0.83463721  0.57860310  0.74907094  1
  As  As1  1  0.16385626  0.91551522  0.74503095  1
  As  As2  1  0.67048427  0.91551522  0.25166096  1
  As  As3  1  0.32953315  0.57860310  0.24396689  1
  As  As4  1  0.27847235  0.27355322  0.49508187  1
  As  As5  1  0.72664891  0.22780982  0.00116192  1
  Ru  Ru0  1  0.65749652  0.50757668  0.91119776  1
  Ru  Ru1  1  0.33584998  0.24909078  0.84086984  1
  Ru  Ru2  1  0.90822294  0.24909078  0.41324180  1
  Ru  Ru3  1  0.09637892  0.50757668  0.35008116  1
  Ru  Ru4  1  0.99765074  0.98910693  0.99108591  1
  Ru  Ru5  1  0.49802002  0.98910693  0.49145519  1
loop_
_geom_bond_atom_site_label_1
_geom_bond_atom_site_label_2
_geom_bond_distance
_geom_bond_site_symmetry_2
Li0 Ru1 2.862129 1_554
Li0 Ru2 2.862146 1_555
Li0 Ru4 3.052237 1_444
Li0 Ru5 3.052238 1_545
Li0 Mn1 3.215530 1_555
Mn0 Ru3 2.886778 1_555
Mn0 Ru0 2.886784 1_555
Mn0 Ru4 2.973890 1_555
Mn0 Ru5 2.973890 1_555
Mn0 Mn2 3.254225 1_555
Mn1 Ru0 2.808881 1_554
Mn1 Ru3 2.808881 1_655
Mn1 Ru4 2.847426 1_555
Mn1 Ru5 2.847426 1_555
Mn1 Ru1 3.057052 1_554
Mn1 Ru2 3.057064 1_555
Mn2 Ru2 2.808619 1_455
Mn2 Ru1 2.808626 1_555
Mn2 Ru5 2.855445 1_556
Mn2 Ru4 2.855449 1_455
Mn2 Ru3 3.000663 1_555
Mn2 Ru0 3.000670 1_555
Mn3 Ru2 2.764870 1_465
Mn3 Ru1 2.764876 1_565
Mn3 Ru0 2.782614 1_454
Mn3 Ru3 2.782619 1_555
Mn3 Ru5 2.817535 1_555
Mn3 Ru4 2.817540 1_454
Mn4 Ru2 2.751278 1_555
Mn4 Ru1 2.751283 1_655
Mn4 Ru0 2.787218 1_555
Mn4 Ru3 2.787229 1_656
Mn4 Ru5 2.861910 1_545
Mn4 Ru4 2.861910 1_545
As0 Ru4 2.466479 1_555
As0 Ru2 2.466481 1_555
As0 Ru0 2.467132 1_555
As0 Mn1 2.622787 1_555
As0 Mn0 2.650306 1_555
As0 Mn3 2.650564 1_656
As0 Li0 2.658183 1_555
As0 Mn4 2.703053 1_555
As0 Mn2 2.705606 1_655
As1 Ru3 2.459383 1_555
As1 Ru4 2.468388 1_455
As1 Ru1 2.468841 1_565
As1 Li0 2.634244 1_566
As1 Mn2 2.646204 1_555
As1 Mn4 2.654648 1_465
As1 Mn0 2.661649 1_555
As1 Mn3 2.706205 1_555
As1 Mn1 2.718454 1_455
As2 Ru0 2.459389 1_554
As2 Ru5 2.468376 1_555
As2 Ru2 2.468854 1_565
As2 Li0 2.634252 1_565
As2 Mn2 2.646203 1_554
As2 Mn4 2.654635 1_565
As2 Mn0 2.661668 1_554
As2 Mn3 2.706209 1_655
As2 Mn1 2.718438 1_555
As3 Ru1 2.466476 1_554
As3 Ru5 2.466479 1_555
As3 Ru3 2.467138 1_555
As3 Mn1 2.622776 1_555
As3 Mn0 2.650296 1_555
As3 Mn3 2.650569 1_555
As3 Li0 2.658174 1_555
As3 Mn4 2.703062 1_454
As3 Mn2 2.705611 1_554
As4 Ru0 2.464477 1_555
As4 Ru3 2.464478 1_555
As4 Ru5 2.470507 1_545
As4 Ru4 2.470517 1_444
As4 Ru2 2.481522 1_455
As4 Ru1 2.481529 1_555
As4 Li0 2.540042 1_555
As4 Mn2 2.671155 1_555
As4 Mn3 2.825471 1_545
As5 Ru3 2.463434 1_655
As5 Ru0 2.463439 1_554
As5 Ru4 2.479693 1_544
As5 Ru5 2.479703 1_544
As5 Ru2 2.500644 1_555
As5 Ru1 2.500645 1_554
As5 Mn0 2.568082 1_544
As5 Mn1 2.637454 1_555
As5 Mn4 2.768378 1_554
Ru0 Ru1 2.903644 1_555
Ru0 Ru5 2.950299 1_545
Ru1 Ru5 2.893758 1_545
Ru1 Ru2 3.066049 1_455
Ru2 Ru4 2.893754 1_544
Ru2 Ru3 2.903634 1_655
Ru3 Ru4 2.950299 1_444
