# generated using pymatgen
data_GaAsBr6
_symmetry_space_group_name_H-M   'P 1'
_cell_length_a   9.57901440
_cell_length_b   9.57901501
_cell_length_c   6.83122543
_cell_angle_alpha   72.52672304
_cell_angle_beta   72.52671644
_cell_angle_gamma   79.53180813
_symmetry_Int_Tables_number   1
_chemical_formula_structural   GaAsBr6
_chemical_formula_sum   'Ga2 As2 Br12'
_cell_volume   567.41129400
_cell_formula_units_Z   2
loop_
 _symmetry_equiv_pos_site_id
 _symmetry_equiv_pos_as_xyz
  1  'x, y, z'
loop_
 _atom_site_type_symbol
 _atom_site_label
 _atom_site_symmetry_multiplicity
 _atom_site_fract_x
 _atom_site_fract_y
 _atom_site_fract_z
 _atom_site_occupancy
  Ga  Ga0  1  0.19787459  0.19787459  0.66415425  1
  Ga  Ga1  1  0.80212541  0.80212541  0.33584575  1
  As  As0  1  0.80078277  0.19921723  0.00000000  1
  As  As1  1  0.19921723  0.80078277  1.00000000  1
  Br  Br0  1  0.22079158  0.57749033  0.91882962  1
  Br  Br1  1  0.42250967  0.77920842  0.08117038  1
  Br  Br2  1  0.77920842  0.42250967  0.08117038  1
  Br  Br3  1  0.57749033  0.22079158  0.91882962  1
  Br  Br4  1  0.03311944  0.71968159  0.42236569  1
  Br  Br5  1  0.28031841  0.96688056  0.57763431  1
  Br  Br6  1  0.96688056  0.28031841  0.57763431  1
  Br  Br7  1  0.71968159  0.03311944  0.42236569  1
  Br  Br8  1  0.85102800  0.85102800  0.96607119  1
  Br  Br9  1  0.14897200  0.14897200  0.03392881  1
  Br  Br10  1  0.63588894  0.63588894  0.52470760  1
  Br  Br11  1  0.36411106  0.36411106  0.47529240  1
loop_
_geom_bond_atom_site_label_1
_geom_bond_atom_site_label_2
_geom_bond_distance
_geom_bond_site_symmetry_2
As0 Br3 2.325499 1_554
As0 Br2 2.325499 1_555
As0 Br6 2.793942 1_554
As0 Br7 2.793942 1_555
As1 Br1 2.325499 1_556
As1 Br0 2.325499 1_555
As1 Br4 2.793942 1_556
As1 Br5 2.793942 1_555
Br4 Ga1 2.395640 1_455
Br5 Ga0 2.395640 1_565
Br6 Ga0 2.395640 1_655
Br7 Ga1 2.395640 1_545
Br8 Ga1 2.340551 1_556
Br9 Ga0 2.340551 1_554
Br10 Ga1 2.278119 1_555
Br11 Ga0 2.278119 1_555
