# generated using pymatgen
data_AgSbS2
_symmetry_space_group_name_H-M   'P 1'
_cell_length_a   4.62089793
_cell_length_b   6.80179510
_cell_length_c   13.24677991
_cell_angle_alpha   97.94880065
_cell_angle_beta   90.00000000
_cell_angle_gamma   109.85751529
_symmetry_Int_Tables_number   1
_chemical_formula_structural   AgSbS2
_chemical_formula_sum   'Ag4 Sb4 S8'
_cell_volume   387.33956675
_cell_formula_units_Z   4
loop_
 _symmetry_equiv_pos_site_id
 _symmetry_equiv_pos_as_xyz
  1  'x, y, z'
loop_
 _atom_site_type_symbol
 _atom_site_label
 _atom_site_symmetry_multiplicity
 _atom_site_fract_x
 _atom_site_fract_y
 _atom_site_fract_z
 _atom_site_occupancy
  Ag  Ag0  1  0.50000000  -0.00000000  -0.00000000  1
  Ag  Ag1  1  0.00590752  -0.00000000  0.75000000  1
  Ag  Ag2  1  0.50000000  -0.00000000  0.50000000  1
  Ag  Ag3  1  -0.00590752  -0.00000000  0.25000000  1
  Sb  Sb0  1  0.28028120  0.50904988  0.62717444  1
  Sb  Sb1  1  0.77123132  0.49095012  0.87282556  1
  Sb  Sb2  1  0.71971880  0.49095012  0.37282556  1
  Sb  Sb3  1  0.22876868  0.50904988  0.12717444  1
  S  S0  1  0.30062157  0.21722793  0.91423609  1
  S  S1  1  0.08339363  0.78277207  0.58576391  1
  S  S2  1  0.69937843  0.78277207  0.08576391  1
  S  S3  1  0.91660637  0.21722793  0.41423609  1
  S  S4  1  0.49223281  0.28841207  0.19935602  1
  S  S5  1  0.79617925  0.28841207  0.69935602  1
  S  S6  1  0.50776719  0.71158793  0.80064398  1
  S  S7  1  0.20382075  0.71158793  0.30064398  1
loop_
_geom_bond_atom_site_label_1
_geom_bond_atom_site_label_2
_geom_bond_distance
_geom_bond_site_symmetry_2
Ag0 S0 2.389918 1_554
Ag0 S2 2.389918 1_545
Ag0 S6 3.072231 1_544
Ag0 S4 3.072231 1_555
Ag1 S1 2.552432 1_545
Ag1 S0 2.552432 1_555
Ag1 S6 2.625491 1_445
Ag1 S5 2.625491 1_455
Ag2 S3 2.389919 1_555
Ag2 S1 2.389919 1_545
Ag2 S5 3.072231 1_555
Ag2 S7 3.072231 1_545
Ag3 S3 2.552432 1_455
Ag3 S2 2.552432 1_445
Ag3 S4 2.625491 1_555
Ag3 S7 2.625491 1_545
S0 Sb1 2.455233 1_555
S0 Sb3 3.302413 1_556
S1 Sb0 2.455233 1_555
S1 Sb2 3.302413 1_455
S2 Sb3 2.455233 1_555
S2 Sb1 3.302413 1_554
S3 Sb2 2.455233 1_555
S3 Sb0 3.302413 1_655
S4 Sb3 2.507338 1_555
S4 Sb2 2.534538 1_555
S4 Sb3 3.417146 1_655
S5 Sb0 2.507338 1_655
S5 Sb1 2.534538 1_555
S5 Sb0 3.417146 1_555
S6 Sb1 2.507338 1_555
S6 Sb0 2.534538 1_555
S6 Sb1 3.417146 1_455
S7 Sb2 2.507338 1_455
S7 Sb3 2.534538 1_555
S7 Sb2 3.417146 1_555
