# generated using pymatgen
data_Hf6AlHgC2
_symmetry_space_group_name_H-M   'P 1'
_cell_length_a   12.06196694
_cell_length_b   12.06196733
_cell_length_c   18.07815826
_cell_angle_alpha   90.00000000
_cell_angle_beta   90.00000000
_cell_angle_gamma   147.77732548
_symmetry_Int_Tables_number   1
_chemical_formula_structural   Hf6AlHgC2
_chemical_formula_sum   'Hf48 Al8 Hg8 C16'
_cell_volume   1402.45732828
_cell_formula_units_Z   8
loop_
 _symmetry_equiv_pos_site_id
 _symmetry_equiv_pos_as_xyz
  1  'x, y, z'
loop_
 _atom_site_type_symbol
 _atom_site_label
 _atom_site_symmetry_multiplicity
 _atom_site_fract_x
 _atom_site_fract_y
 _atom_site_fract_z
 _atom_site_occupancy
  Hf  Hf0_0  1  0.31359859  0.18640141  0.23159753  1
  Hf  Hf0_1  1  0.31359859  0.18640141  0.73159753  1
  Hf  Hf0_2  1  0.31359859  0.68640141  0.23159753  1
  Hf  Hf0_3  1  0.31359859  0.68640141  0.73159753  1
  Hf  Hf0_4  1  0.81359859  0.18640141  0.23159753  1
  Hf  Hf0_5  1  0.81359859  0.18640141  0.73159753  1
  Hf  Hf0_6  1  0.81359859  0.68640141  0.23159753  1
  Hf  Hf0_7  1  0.81359859  0.68640141  0.73159753  1
  Hf  Hf1_0  1  0.18642583  0.31357417  0.27187853  1
  Hf  Hf1_1  1  0.18642583  0.31357417  0.77187853  1
  Hf  Hf1_2  1  0.18642583  0.81357417  0.27187853  1
  Hf  Hf1_3  1  0.18642583  0.81357417  0.77187853  1
  Hf  Hf1_4  1  0.68642583  0.31357417  0.27187853  1
  Hf  Hf1_5  1  0.68642583  0.31357417  0.77187853  1
  Hf  Hf1_6  1  0.68642583  0.81357417  0.27187853  1
  Hf  Hf1_7  1  0.68642583  0.81357417  0.77187853  1
  Hf  Hf2_0  1  0.31359859  0.18640141  0.01840247  1
  Hf  Hf2_1  1  0.31359859  0.18640141  0.51840247  1
  Hf  Hf2_2  1  0.31359859  0.68640141  0.01840247  1
  Hf  Hf2_3  1  0.31359859  0.68640141  0.51840247  1
  Hf  Hf2_4  1  0.81359859  0.18640141  0.01840247  1
  Hf  Hf2_5  1  0.81359859  0.18640141  0.51840247  1
  Hf  Hf2_6  1  0.81359859  0.68640141  0.01840247  1
  Hf  Hf2_7  1  0.81359859  0.68640141  0.51840247  1
  Hf  Hf3_0  1  0.18642583  0.31357417  0.47812147  1
  Hf  Hf3_1  1  0.18642583  0.31357417  0.97812147  1
  Hf  Hf3_2  1  0.18642583  0.81357417  0.47812147  1
  Hf  Hf3_3  1  0.18642583  0.81357417  0.97812147  1
  Hf  Hf3_4  1  0.68642583  0.31357417  0.47812147  1
  Hf  Hf3_5  1  0.68642583  0.31357417  0.97812147  1
  Hf  Hf3_6  1  0.68642583  0.81357417  0.47812147  1
  Hf  Hf3_7  1  0.68642583  0.81357417  0.97812147  1
  Hf  Hf4_0  1  0.48175218  0.01824782  0.12500000  1
  Hf  Hf4_1  1  0.48175218  0.01824782  0.62500000  1
  Hf  Hf4_2  1  0.48175218  0.51824782  0.12500000  1
  Hf  Hf4_3  1  0.48175218  0.51824782  0.62500000  1
  Hf  Hf4_4  1  0.98175218  0.01824782  0.12500000  1
  Hf  Hf4_5  1  0.98175218  0.01824782  0.62500000  1
  Hf  Hf4_6  1  0.98175218  0.51824782  0.12500000  1
  Hf  Hf4_7  1  0.98175218  0.51824782  0.62500000  1
  Hf  Hf5_0  1  0.02055797  0.47944203  0.37500000  1
  Hf  Hf5_1  1  0.02055797  0.47944203  0.87500000  1
  Hf  Hf5_2  1  0.02055797  0.97944203  0.37500000  1
  Hf  Hf5_3  1  0.02055797  0.97944203  0.87500000  1
  Hf  Hf5_4  1  0.52055797  0.47944203  0.37500000  1
  Hf  Hf5_5  1  0.52055797  0.47944203  0.87500000  1
  Hf  Hf5_6  1  0.52055797  0.97944203  0.37500000  1
  Hf  Hf5_7  1  0.52055797  0.97944203  0.87500000  1
  Al  Al0_0  1  0.37334638  0.12665362  0.37500000  1
  Al  Al0_1  1  0.37334638  0.12665362  0.87500000  1
  Al  Al0_2  1  0.37334638  0.62665362  0.37500000  1
  Al  Al0_3  1  0.37334638  0.62665362  0.87500000  1
  Al  Al0_4  1  0.87334638  0.12665362  0.37500000  1
  Al  Al0_5  1  0.87334638  0.12665362  0.87500000  1
  Al  Al0_6  1  0.87334638  0.62665362  0.37500000  1
  Al  Al0_7  1  0.87334638  0.62665362  0.87500000  1
  Hg  Hg0_0  1  0.12594648  0.37405352  0.12500000  1
  Hg  Hg0_1  1  0.12594648  0.37405352  0.62500000  1
  Hg  Hg0_2  1  0.12594648  0.87405352  0.12500000  1
  Hg  Hg0_3  1  0.12594648  0.87405352  0.62500000  1
  Hg  Hg0_4  1  0.62594648  0.37405352  0.12500000  1
  Hg  Hg0_5  1  0.62594648  0.37405352  0.62500000  1
  Hg  Hg0_6  1  0.62594648  0.87405352  0.12500000  1
  Hg  Hg0_7  1  0.62594648  0.87405352  0.62500000  1
  C  C0_0  1  0.49917407  0.00082593  0.25005482  1
  C  C0_1  1  0.49917407  0.00082593  0.75005482  1
  C  C0_2  1  0.49917407  0.50082593  0.25005482  1
  C  C0_3  1  0.49917407  0.50082593  0.75005482  1
  C  C0_4  1  0.99917407  0.00082593  0.25005482  1
  C  C0_5  1  0.99917407  0.00082593  0.75005482  1
  C  C0_6  1  0.99917407  0.50082593  0.25005482  1
  C  C0_7  1  0.99917407  0.50082593  0.75005482  1
  C  C1_0  1  0.49917407  0.00082593  0.49994518  1
  C  C1_1  1  0.49917407  0.00082593  0.99994518  1
  C  C1_2  1  0.49917407  0.50082593  0.49994518  1
  C  C1_3  1  0.49917407  0.50082593  0.99994518  1
  C  C1_4  1  0.99917407  0.00082593  0.49994518  1
  C  C1_5  1  0.99917407  0.00082593  0.99994518  1
  C  C1_6  1  0.99917407  0.50082593  0.49994518  1
  C  C1_7  1  0.99917407  0.50082593  0.99994518  1
loop_
_geom_bond_atom_site_label_1
_geom_bond_atom_site_label_2
_geom_bond_distance
_geom_bond_site_symmetry_2
Hf0_0 Hg0_4 2.933040 1_555
Hf0_0 Hg0_2 2.933040 1_545
Hf0_1 Hg0_5 2.933040 1_555
Hf0_1 Hg0_3 2.933040 1_545
Hf0_2 Hg0_6 2.933040 1_555
Hf0_2 Hg0_0 2.933040 1_555
Hf0_3 Hg0_7 2.933040 1_555
Hf0_3 Hg0_1 2.933040 1_555
Hf0_4 Hg0_0 2.933040 1_655
Hf0_4 Hg0_6 2.933040 1_545
Hf0_5 Hg0_1 2.933040 1_655
Hf0_5 Hg0_7 2.933040 1_545
Hf0_6 Hg0_2 2.933040 1_655
Hf0_6 Hg0_4 2.933040 1_555
Hf0_7 Hg0_3 2.933040 1_655
Hf0_7 Hg0_5 2.933040 1_555
Hf1_0 Hg0_0 3.002555 1_555
Hf1_1 Hg0_1 3.002555 1_555
Hf1_2 Hg0_2 3.002555 1_555
Hf1_3 Hg0_3 3.002555 1_555
Hf1_4 Hg0_4 3.002555 1_555
Hf1_5 Hg0_5 3.002555 1_555
Hf1_6 Hg0_6 3.002555 1_555
Hf1_7 Hg0_7 3.002555 1_555
Hf2_0 Hg0_4 2.933040 1_555
Hf2_0 Hg0_2 2.933040 1_545
Hf2_1 Hg0_5 2.933040 1_555
Hf2_1 Hg0_3 2.933040 1_545
Hf2_2 Hg0_6 2.933040 1_555
Hf2_2 Hg0_0 2.933040 1_555
Hf2_3 Hg0_7 2.933040 1_555
Hf2_3 Hg0_1 2.933040 1_555
Hf2_4 Hg0_0 2.933040 1_655
Hf2_4 Hg0_6 2.933040 1_545
Hf2_5 Hg0_1 2.933040 1_655
Hf2_5 Hg0_7 2.933040 1_545
Hf2_6 Hg0_2 2.933040 1_655
Hf2_6 Hg0_4 2.933040 1_555
Hf2_7 Hg0_3 2.933040 1_655
Hf2_7 Hg0_5 2.933040 1_555
Hf3_0 Hg0_1 3.002555 1_555
Hf3_1 Hg0_0 3.002555 1_556
Hf3_2 Hg0_3 3.002555 1_555
Hf3_3 Hg0_2 3.002555 1_556
Hf3_4 Hg0_5 3.002555 1_555
Hf3_5 Hg0_4 3.002555 1_556
Hf3_6 Hg0_7 3.002555 1_555
Hf3_7 Hg0_6 3.002555 1_556
Hf4_0 Hg0_2 2.968891 1_545
Hf4_0 Hg0_4 2.968891 1_555
Hf4_0 Hg0_6 3.341912 1_545
Hf4_1 Hg0_3 2.968891 1_545
Hf4_1 Hg0_5 2.968891 1_555
Hf4_1 Hg0_7 3.341912 1_545
Hf4_2 Hg0_0 2.968891 1_555
Hf4_2 Hg0_6 2.968891 1_555
Hf4_2 Hg0_4 3.341912 1_555
Hf4_3 Hg0_1 2.968891 1_555
Hf4_3 Hg0_7 2.968891 1_555
Hf4_3 Hg0_5 3.341912 1_555
Hf4_4 Hg0_6 2.968891 1_545
Hf4_4 Hg0_0 2.968891 1_655
Hf4_4 Hg0_2 3.341912 1_645
Hf4_5 Hg0_7 2.968891 1_545
Hf4_5 Hg0_1 2.968891 1_655
Hf4_5 Hg0_3 3.341912 1_645
Hf4_6 Hg0_4 2.968891 1_555
Hf4_6 Hg0_2 2.968891 1_655
Hf4_6 Hg0_0 3.341912 1_655
Hf4_7 Hg0_5 2.968891 1_555
Hf4_7 Hg0_3 2.968891 1_655
Hf4_7 Hg0_1 3.341912 1_655
Al0_0 Hf3_4 2.900648 1_555
Al0_0 Hf1_4 2.900648 1_555
Al0_0 Hf3_2 2.900648 1_545
Al0_0 Hf1_2 2.900648 1_545
Al0_0 Hf5_2 2.911398 1_545
Al0_0 Hf5_4 2.911398 1_555
Al0_0 Hf2_1 2.939102 1_555
Al0_0 Hf0_0 2.939102 1_555
Al0_0 Al0_6 3.347253 1_445
Al0_0 Al0_6 3.347253 1_555
Al0_0 Hf5_6 3.411842 1_545
Al0_1 Hf3_5 2.900648 1_555
Al0_1 Hf1_5 2.900648 1_555
Al0_1 Hf3_3 2.900648 1_545
Al0_1 Hf1_3 2.900648 1_545
Al0_1 Hf5_3 2.911398 1_545
Al0_1 Hf5_5 2.911398 1_555
Al0_1 Hf2_0 2.939102 1_556
Al0_1 Hf0_1 2.939102 1_555
Al0_1 Al0_7 3.347253 1_555
Al0_1 Al0_7 3.347253 1_445
Al0_1 Hf5_7 3.411842 1_545
Al0_2 Hf3_6 2.900648 1_555
Al0_2 Hf1_6 2.900648 1_555
Al0_2 Hf3_0 2.900648 1_555
Al0_2 Hf1_0 2.900648 1_555
Al0_2 Hf5_0 2.911398 1_555
Al0_2 Hf5_6 2.911398 1_555
Al0_2 Hf2_3 2.939102 1_555
Al0_2 Hf0_2 2.939102 1_555
Al0_2 Al0_4 3.347253 1_455
Al0_2 Al0_4 3.347253 1_565
Al0_2 Hf5_4 3.411842 1_555
Al0_3 Hf3_7 2.900648 1_555
Al0_3 Hf1_7 2.900648 1_555
Al0_3 Hf3_1 2.900648 1_555
Al0_3 Hf1_1 2.900648 1_555
Al0_3 Hf5_1 2.911398 1_555
Al0_3 Hf5_7 2.911398 1_555
Al0_3 Hf2_2 2.939102 1_556
Al0_3 Hf0_3 2.939102 1_555
Al0_3 Al0_5 3.347253 1_455
Al0_3 Al0_5 3.347253 1_565
Al0_3 Hf5_5 3.411842 1_555
Al0_4 Hf3_0 2.900648 1_655
Al0_4 Hf1_0 2.900648 1_655
Al0_4 Hf3_6 2.900648 1_545
Al0_4 Hf1_6 2.900648 1_545
Al0_4 Hf5_6 2.911398 1_545
Al0_4 Hf5_0 2.911398 1_655
Al0_4 Hf2_5 2.939102 1_555
Al0_4 Hf0_4 2.939102 1_555
Al0_4 Hf5_2 3.411842 1_645
Al0_5 Hf3_1 2.900648 1_655
Al0_5 Hf1_1 2.900648 1_655
Al0_5 Hf3_7 2.900648 1_545
Al0_5 Hf1_7 2.900648 1_545
Al0_5 Hf5_7 2.911398 1_545
Al0_5 Hf5_1 2.911398 1_655
Al0_5 Hf2_4 2.939102 1_556
Al0_5 Hf0_5 2.939102 1_555
Al0_5 Hf5_3 3.411842 1_645
Al0_6 Hf3_2 2.900648 1_655
Al0_6 Hf1_2 2.900648 1_655
Al0_6 Hf3_4 2.900648 1_555
Al0_6 Hf1_4 2.900648 1_555
Al0_6 Hf5_4 2.911398 1_555
Al0_6 Hf5_2 2.911398 1_655
Al0_6 Hf2_7 2.939102 1_555
Al0_6 Hf0_6 2.939102 1_555
Al0_6 Hf5_0 3.411842 1_655
Al0_7 Hf3_3 2.900648 1_655
Al0_7 Hf1_3 2.900648 1_655
Al0_7 Hf3_5 2.900648 1_555
Al0_7 Hf1_5 2.900648 1_555
Al0_7 Hf5_5 2.911398 1_555
Al0_7 Hf5_3 2.911398 1_655
Al0_7 Hf2_6 2.939102 1_556
Al0_7 Hf0_7 2.939102 1_555
Al0_7 Hf5_1 3.411842 1_655
Hg0_0 Hg0_6 3.347253 1_445
Hg0_0 Hg0_6 3.347253 1_555
Hg0_1 Hg0_7 3.347253 1_555
Hg0_1 Hg0_7 3.347253 1_445
Hg0_2 Hg0_4 3.347253 1_565
Hg0_2 Hg0_4 3.347253 1_455
Hg0_3 Hg0_5 3.347253 1_455
Hg0_3 Hg0_5 3.347253 1_565
C0_0 Hf1_2 2.252025 1_545
C0_0 Hf1_4 2.252025 1_555
C0_0 Hf0_4 2.267555 1_555
C0_0 Hf0_2 2.267555 1_545
C0_0 Hf4_0 2.296536 1_555
C0_0 Hf5_6 2.312510 1_545
C0_1 Hf1_3 2.252025 1_545
C0_1 Hf1_5 2.252025 1_555
C0_1 Hf0_5 2.267555 1_555
C0_1 Hf0_3 2.267555 1_545
C0_1 Hf4_1 2.296536 1_555
C0_1 Hf5_7 2.312510 1_545
C0_2 Hf1_0 2.252025 1_555
C0_2 Hf1_6 2.252025 1_555
C0_2 Hf0_6 2.267555 1_555
C0_2 Hf0_0 2.267555 1_555
C0_2 Hf4_2 2.296536 1_555
C0_2 Hf5_4 2.312510 1_555
C0_3 Hf1_1 2.252025 1_555
C0_3 Hf1_7 2.252025 1_555
C0_3 Hf0_7 2.267555 1_555
C0_3 Hf0_1 2.267555 1_555
C0_3 Hf4_3 2.296536 1_555
C0_3 Hf5_5 2.312510 1_555
C0_4 Hf1_6 2.252025 1_545
C0_4 Hf1_0 2.252025 1_655
C0_4 Hf0_0 2.267555 1_655
C0_4 Hf0_6 2.267555 1_545
C0_4 Hf4_4 2.296536 1_555
C0_4 Hf5_2 2.312510 1_645
C0_5 Hf1_7 2.252025 1_545
C0_5 Hf1_1 2.252025 1_655
C0_5 Hf0_1 2.267555 1_655
C0_5 Hf0_7 2.267555 1_545
C0_5 Hf4_5 2.296536 1_555
C0_5 Hf5_3 2.312510 1_645
C0_6 Hf1_4 2.252025 1_555
C0_6 Hf1_2 2.252025 1_655
C0_6 Hf0_2 2.267555 1_655
C0_6 Hf0_4 2.267555 1_555
C0_6 Hf4_6 2.296536 1_555
C0_6 Hf5_0 2.312510 1_655
C0_7 Hf1_5 2.252025 1_555
C0_7 Hf1_3 2.252025 1_655
C0_7 Hf0_3 2.267555 1_655
C0_7 Hf0_5 2.267555 1_555
C0_7 Hf4_7 2.296536 1_555
C0_7 Hf5_1 2.312510 1_655
C1_0 Hf3_2 2.252025 1_545
C1_0 Hf3_4 2.252025 1_555
C1_0 Hf2_5 2.267555 1_555
C1_0 Hf2_3 2.267555 1_545
C1_0 Hf4_1 2.296536 1_555
C1_0 Hf5_6 2.312510 1_545
C1_1 Hf3_3 2.252025 1_545
C1_1 Hf3_5 2.252025 1_555
C1_1 Hf2_4 2.267555 1_556
C1_1 Hf2_2 2.267555 1_546
C1_1 Hf4_0 2.296536 1_556
C1_1 Hf5_7 2.312510 1_545
C1_2 Hf3_0 2.252025 1_555
C1_2 Hf3_6 2.252025 1_555
C1_2 Hf2_7 2.267555 1_555
C1_2 Hf2_1 2.267555 1_555
C1_2 Hf4_3 2.296536 1_555
C1_2 Hf5_4 2.312510 1_555
C1_3 Hf3_1 2.252025 1_555
C1_3 Hf3_7 2.252025 1_555
C1_3 Hf2_6 2.267555 1_556
C1_3 Hf2_0 2.267555 1_556
C1_3 Hf4_2 2.296536 1_556
C1_3 Hf5_5 2.312510 1_555
C1_4 Hf3_6 2.252025 1_545
C1_4 Hf3_0 2.252025 1_655
C1_4 Hf2_1 2.267555 1_655
C1_4 Hf2_7 2.267555 1_545
C1_4 Hf4_5 2.296536 1_555
C1_4 Hf5_2 2.312510 1_645
C1_5 Hf3_7 2.252025 1_545
C1_5 Hf3_1 2.252025 1_655
C1_5 Hf2_0 2.267555 1_656
C1_5 Hf2_6 2.267555 1_546
C1_5 Hf4_4 2.296536 1_556
C1_5 Hf5_3 2.312510 1_645
C1_6 Hf3_4 2.252025 1_555
C1_6 Hf3_2 2.252025 1_655
C1_6 Hf2_3 2.267555 1_655
C1_6 Hf2_5 2.267555 1_555
C1_6 Hf4_7 2.296536 1_555
C1_6 Hf5_0 2.312510 1_655
C1_7 Hf3_5 2.252025 1_555
C1_7 Hf3_3 2.252025 1_655
C1_7 Hf2_2 2.267555 1_656
C1_7 Hf2_4 2.267555 1_556
C1_7 Hf4_6 2.296536 1_556
C1_7 Hf5_1 2.312510 1_655
