# generated using pymatgen
data_Cs12V3SbSe16
_symmetry_space_group_name_H-M   'P 1'
_cell_length_a   10.22041793
_cell_length_b   10.26619183
_cell_length_c   11.98820921
_cell_angle_alpha   90.00000000
_cell_angle_beta   90.00000000
_cell_angle_gamma   89.63440755
_symmetry_Int_Tables_number   1
_chemical_formula_structural   Cs12V3SbSe16
_chemical_formula_sum   'Cs12 V3 Sb1 Se16'
_cell_volume   1257.83449931
_cell_formula_units_Z   1
loop_
 _symmetry_equiv_pos_site_id
 _symmetry_equiv_pos_as_xyz
  1  'x, y, z'
loop_
 _atom_site_type_symbol
 _atom_site_label
 _atom_site_symmetry_multiplicity
 _atom_site_fract_x
 _atom_site_fract_y
 _atom_site_fract_z
 _atom_site_occupancy
  Cs  Cs0  1  0.64767309  0.90980609  0.25000000  1
  Cs  Cs1  1  0.15072925  0.59153276  0.25000000  1
  Cs  Cs2  1  0.85343113  0.41100722  0.75000000  1
  Cs  Cs3  1  0.35353197  0.09215398  0.75000000  1
  Cs  Cs4  1  0.04226092  0.79881060  0.96237927  1
  Cs  Cs5  1  0.54858035  0.70621333  0.54027674  1
  Cs  Cs6  1  0.45577205  0.29044972  0.04461846  1
  Cs  Cs7  1  0.95157915  0.20200899  0.45958535  1
  Cs  Cs8  1  0.95157915  0.20200899  0.04041465  1
  Cs  Cs9  1  0.45577205  0.29044972  0.45538154  1
  Cs  Cs10  1  0.54858035  0.70621333  0.95972326  1
  Cs  Cs11  1  0.04226092  0.79881060  0.53762073  1
  V  V0  1  0.77814271  0.98015477  0.75000000  1
  V  V1  1  0.22056877  0.01976805  0.25000000  1
  V  V2  1  0.72413844  0.47964112  0.25000000  1
  Sb  Sb0  1  0.27560912  0.51975875  0.75000000  1
  Se  Se0  1  0.32925964  0.95513752  0.09337768  1
  Se  Se1  1  0.83179700  0.54387784  0.40672081  1
  Se  Se2  1  0.16023526  0.45445818  0.92293605  1
  Se  Se3  1  0.66937402  0.04336781  0.59286762  1
  Se  Se4  1  0.01396040  0.93326584  0.25000000  1
  Se  Se5  1  0.51731949  0.56691314  0.25000000  1
  Se  Se6  1  0.49922907  0.42168005  0.75000000  1
  Se  Se7  1  0.98384941  0.06774974  0.75000000  1
  Se  Se8  1  0.66937402  0.04336781  0.90713238  1
  Se  Se9  1  0.32925964  0.95513752  0.40662232  1
  Se  Se10  1  0.83179700  0.54387784  0.09327919  1
  Se  Se11  1  0.16023526  0.45445818  0.57706395  1
  Se  Se12  1  0.79533594  0.75863487  0.75000000  1
  Se  Se13  1  0.29460977  0.76010027  0.75000000  1
  Se  Se14  1  0.71002611  0.25783557  0.25000000  1
  Se  Se15  1  0.20413352  0.24135280  0.25000000  1
loop_
_geom_bond_atom_site_label_1
_geom_bond_atom_site_label_2
_geom_bond_distance
_geom_bond_site_symmetry_2
Cs0 Se14 3.633326 1_565
Cs0 Se4 3.752882 1_655
Cs0 Se5 3.771821 1_555
Cs0 Se9 3.783293 1_555
Cs0 Se0 3.783293 1_555
Cs0 Cs10 4.187006 1_554
Cs0 Cs5 4.187006 1_555
Cs0 Se3 4.339160 1_565
Cs0 Se8 4.339160 1_564
Cs1 Se15 3.632768 1_555
Cs1 Se5 3.753611 1_555
Cs1 Se4 3.768224 1_555
Cs1 Se1 3.796673 1_455
Cs1 Se10 3.796673 1_455
Cs1 Se11 4.166719 1_555
Cs1 Se2 4.166719 1_554
Cs1 Cs11 4.197161 1_555
Cs1 Cs4 4.197161 1_554
Cs1 Se9 4.569006 1_555
Cs1 Se0 4.569006 1_555
Cs2 Se12 3.614129 1_555
Cs2 Se6 3.621052 1_555
Cs2 Se7 3.759649 1_555
Cs2 Se2 3.787792 1_655
Cs2 Se11 3.787792 1_655
Cs2 Cs8 4.207569 1_556
Cs2 Cs7 4.207569 1_555
Cs2 Se10 4.340675 1_556
Cs2 Se1 4.340675 1_555
Cs3 Se13 3.465492 1_545
Cs3 Se6 3.704889 1_555
Cs3 Se8 3.768143 1_555
Cs3 Se3 3.768143 1_555
Cs3 Se7 3.788203 1_455
Cs3 Cs6 4.211643 1_556
Cs3 Cs9 4.211643 1_555
Cs3 Se0 4.357758 1_546
Cs3 Se9 4.357758 1_545
Cs4 Se12 3.610360 1_455
Cs4 Se13 3.644039 1_555
Cs4 Se0 3.702152 1_556
Cs4 Se4 3.724650 1_556
Cs4 Se10 3.743128 1_456
Cs4 Se2 3.757735 1_555
Cs4 Se7 3.800096 1_465
Cs4 Cs8 4.338097 1_466
Cs5 Se12 3.603941 1_555
Cs5 Se13 3.653291 1_555
Cs5 Se1 3.695681 1_555
Cs5 Se3 3.735869 1_565
Cs5 Se9 3.748244 1_555
Cs5 Se5 3.776604 1_555
Cs5 Se6 3.889359 1_555
Cs5 Cs9 4.495070 1_555
Cs6 Se14 3.593863 1_555
Cs6 Se15 3.598226 1_555
Cs6 Se8 3.721042 1_554
Cs6 Se0 3.730996 1_545
Cs6 Se2 3.744533 1_554
Cs6 Se6 3.807178 1_554
Cs6 Se5 3.812640 1_555
Cs7 Se14 3.566256 1_555
Cs7 Se15 3.626572 1_655
Cs7 Se11 3.649473 1_655
Cs7 Se3 3.685696 1_555
Cs7 Se7 3.758188 1_555
Cs7 Se1 3.763438 1_555
Cs7 Se4 3.782707 1_645
Cs8 Se14 3.566256 1_555
Cs8 Se15 3.626572 1_655
Cs8 Se2 3.649473 1_654
Cs8 Se8 3.685696 1_554
Cs8 Se7 3.758188 1_554
Cs8 Se10 3.763438 1_555
Cs8 Se4 3.782707 1_645
Cs9 Se14 3.593863 1_555
Cs9 Se15 3.598226 1_555
Cs9 Se3 3.721042 1_555
Cs9 Se9 3.730996 1_545
Cs9 Se11 3.744533 1_555
Cs9 Se6 3.807178 1_555
Cs9 Se5 3.812640 1_555
Cs10 Se12 3.603941 1_555
Cs10 Se13 3.653291 1_555
Cs10 Se10 3.695681 1_556
Cs10 Se8 3.735869 1_565
Cs10 Se0 3.748244 1_556
Cs10 Se5 3.776604 1_556
Cs10 Se6 3.889359 1_555
Cs10 Cs6 4.495070 1_556
Cs11 Se12 3.610360 1_455
Cs11 Se13 3.644039 1_555
Cs11 Se9 3.702152 1_555
Cs11 Se4 3.724650 1_555
Cs11 Se1 3.743128 1_455
Cs11 Se11 3.757735 1_555
Cs11 Se7 3.800096 1_465
Cs11 Cs7 4.338097 1_465
Sb0 Se13 2.476257 1_555
Sb0 Se2 2.479532 1_555
Sb0 Se11 2.479532 1_555
Sb0 Se6 2.491572 1_555
Se0 V1 2.278228 1_565
Se1 V2 2.277004 1_555
Se3 V0 2.279516 1_545
Se4 V1 2.295978 1_565
Se5 V2 2.290548 1_555
Se7 V0 2.291927 1_545
Se8 V0 2.279516 1_545
Se9 V1 2.278228 1_565
Se10 V2 2.277004 1_555
Se12 V0 2.279826 1_555
Se14 V2 2.282580 1_555
Se15 V1 2.279956 1_555
