# generated using pymatgen
data_BaSi7As5Pt4
_symmetry_space_group_name_H-M   'P 1'
_cell_length_a   7.38640252
_cell_length_b   7.37887408
_cell_length_c   7.36944483
_cell_angle_alpha   109.48476185
_cell_angle_beta   109.29806831
_cell_angle_gamma   109.47844303
_symmetry_Int_Tables_number   1
_chemical_formula_structural   BaSi7As5Pt4
_chemical_formula_sum   'Ba1 Si7 As5 Pt4'
_cell_volume   309.77682620
_cell_formula_units_Z   1
loop_
 _symmetry_equiv_pos_site_id
 _symmetry_equiv_pos_as_xyz
  1  'x, y, z'
loop_
 _atom_site_type_symbol
 _atom_site_label
 _atom_site_symmetry_multiplicity
 _atom_site_fract_x
 _atom_site_fract_y
 _atom_site_fract_z
 _atom_site_occupancy
  Ba  Ba0  1  0.00114023  0.99449842  0.99803009  1
  Si  Si0  1  0.50052447  0.85917545  0.64777556  1
  Si  Si1  1  0.14513092  0.35454504  0.50077221  1
  Si  Si2  1  0.51819415  0.15766777  0.36722092  1
  Si  Si3  1  0.84795851  0.34984527  0.20276603  1
  Si  Si4  1  0.63546873  0.48075621  0.84352300  1
  Si  Si5  1  0.36071453  0.20904648  0.84832716  1
  Si  Si6  1  0.78951542  0.15074300  0.64488693  1
  As  As0  1  0.84959960  0.63742898  0.49033059  1
  As  As1  1  0.35233225  0.49523284  0.14261320  1
  As  As2  1  0.22366297  0.86392555  0.36565313  1
  As  As3  1  0.14362543  0.63770727  0.78225538  1
  As  As4  1  0.64479719  0.78954944  0.14399860  1
  Pt  Pt0  1  0.00617111  0.01431885  0.51409241  1
  Pt  Pt1  1  0.49586408  0.50090654  0.50921109  1
  Pt  Pt2  1  0.98811489  0.49565446  0.99764075  1
  Pt  Pt3  1  0.49718551  0.00899643  0.00090494  1
loop_
_geom_bond_atom_site_label_1
_geom_bond_atom_site_label_2
_geom_bond_distance
_geom_bond_site_symmetry_2
Ba0 Si0 3.292789 1_455
Ba0 Si1 3.295544 1_566
Ba0 Si3 3.301449 1_466
Ba0 Si6 3.325676 1_465
Ba0 Si5 3.327947 1_565
Ba0 Si4 3.349866 1_455
Ba0 Si2 3.364235 1_566
Ba0 Pt3 3.622498 1_566
Ba0 Pt0 3.629541 1_565
Ba0 Pt2 3.648963 1_455
Si0 Si6 2.486670 1_565
Si1 Si3 2.520831 1_455
Si1 Si4 3.240308 1_555
Si2 Si6 2.373524 1_555
Si2 Si4 3.128130 1_555
Si2 Si3 3.194811 1_555
Si3 Si4 3.221193 1_554
Si4 Si5 2.349655 1_555
Si4 Si6 3.152482 1_555
As0 Si3 2.441319 1_555
As0 As3 2.500156 1_655
As0 Pt1 2.537617 1_555
As0 Pt0 2.549231 1_665
As0 Si2 3.155602 1_555
As0 As4 3.248713 1_555
As0 As1 3.251680 1_555
As0 Ba0 3.298821 1_655
As0 As2 3.300644 1_655
As1 As4 2.495012 1_555
As1 Si5 2.507458 1_554
As1 Pt1 2.535016 1_555
As1 Pt2 2.546951 1_454
As1 Ba0 3.266663 1_544
As1 As3 3.282004 1_554
As1 As2 3.283297 1_555
As2 Si0 2.406668 1_555
As2 Si2 2.500598 1_565
As2 Pt0 2.559216 1_565
As2 Pt2 2.564827 1_454
As2 Si5 3.165479 1_565
As2 Ba0 3.289942 1_554
As3 Si1 2.410009 1_555
As3 Pt3 2.534658 1_566
As3 Pt2 2.539608 1_455
As3 Ba0 3.275459 1_555
As3 As4 3.283957 1_556
As4 Pt3 2.545479 1_565
As4 Si4 2.555067 1_554
As4 Pt0 2.555841 1_665
As4 Ba0 3.267133 1_654
As4 Si2 3.269368 1_565
As4 Si6 3.286393 1_565
Pt0 Si5 2.419849 1_555
Pt0 Si1 2.424504 1_555
Pt0 Si6 2.439264 1_455
Pt1 Si4 2.413019 1_555
Pt1 Si1 2.421679 1_555
Pt1 Si0 2.479485 1_555
Pt1 Si2 2.482231 1_555
Pt2 Si4 2.420182 1_555
Pt2 Si3 2.427136 1_556
Pt2 Si6 2.441933 1_555
Pt3 Si5 2.410371 1_554
Pt3 Si3 2.421207 1_555
Pt3 Si0 2.477184 1_544
Pt3 Si2 2.479726 1_555
