# generated using pymatgen
data_Sr11Cd6(BiSb3)3
_symmetry_space_group_name_H-M   'P 1'
_cell_length_a   4.82487593
_cell_length_b   12.77488922
_cell_length_c   16.86183173
_cell_angle_alpha   109.68666868
_cell_angle_beta   98.22558745
_cell_angle_gamma   90.00000175
_symmetry_Int_Tables_number   1
_chemical_formula_structural   Sr11Cd6(BiSb3)3
_chemical_formula_sum   'Sr11 Cd6 Bi3 Sb9'
_cell_volume   967.20449750
_cell_formula_units_Z   1
loop_
 _symmetry_equiv_pos_site_id
 _symmetry_equiv_pos_as_xyz
  1  'x, y, z'
loop_
 _atom_site_type_symbol
 _atom_site_label
 _atom_site_symmetry_multiplicity
 _atom_site_fract_x
 _atom_site_fract_y
 _atom_site_fract_z
 _atom_site_occupancy
  Sr  Sr0  1  0.99834942  0.00026512  0.99669984  1
  Sr  Sr1  1  0.01813753  0.68053392  0.03627606  1
  Sr  Sr2  1  0.11516070  0.50740359  0.23032341  1
  Sr  Sr3  1  0.12817618  0.01535878  0.25635135  1
  Sr  Sr4  1  0.20165152  0.34494190  0.40330504  1
  Sr  Sr5  1  0.72198724  0.86625591  0.44397449  1
  Sr  Sr6  1  0.27886886  0.13369301  0.55773872  1
  Sr  Sr7  1  0.80007746  0.65661111  0.60015292  1
  Sr  Sr8  1  0.87307757  0.98324482  0.74615314  1
  Sr  Sr9  1  0.88607258  0.49433390  0.77214616  1
  Sr  Sr10  1  0.97930115  0.31794252  0.95860330  1
  Cd  Cd0  1  0.54495916  0.24082614  0.08991733  1
  Cd  Cd1  1  0.60126513  0.74763233  0.20252826  1
  Cd  Cd2  1  0.21945647  0.66819466  0.43891493  1
  Cd  Cd3  1  0.78186534  0.33211405  0.56372967  1
  Cd  Cd4  1  0.39918485  0.25620845  0.79836971  1
  Cd  Cd5  1  0.45123170  0.75245396  0.90246341  1
  Bi  Bi0  1  0.54355792  0.49921317  0.08711384  1
  Bi  Bi1  1  0.54671362  0.88794152  0.09342625  1
  Bi  Bi2  1  0.09033060  0.23134829  0.18066120  1
  Sb  Sb0  1  0.15037153  0.78254354  0.30074307  1
  Sb  Sb1  1  0.69210338  0.53255229  0.38420576  1
  Sb  Sb2  1  0.70604453  0.13662974  0.41208806  1
  Sb  Sb3  1  0.29488563  0.86413494  0.58977226  1
  Sb  Sb4  1  0.30863154  0.46789776  0.61726309  1
  Sb  Sb5  1  0.85054236  0.21743578  0.70108472  1
  Sb  Sb6  1  0.90994085  0.76689960  0.81988271  1
  Sb  Sb7  1  0.45210505  0.11625434  0.90420910  1
  Sb  Sb8  1  0.45595210  0.49913486  0.91190320  1
loop_
_geom_bond_atom_site_label_1
_geom_bond_atom_site_label_2
_geom_bond_distance
_geom_bond_site_symmetry_2
Sr3 Sr4 4.088091 1_555
Sr5 Sr6 4.084241 1_665
Sr5 Sr6 4.084244 1_565
Sr7 Sr8 4.053016 1_555
Cd0 Sb7 2.963086 1_554
Cd0 Sr10 3.614185 1_554
Cd0 Sr10 3.614192 1_454
Cd0 Sr0 3.798626 1_554
Cd0 Sr0 3.798632 1_454
Cd1 Sb0 2.864887 1_655
Cd1 Sb0 2.864895 1_555
Cd1 Sr1 3.554337 1_655
Cd1 Sr1 3.554347 1_555
Cd1 Sr5 3.791477 1_555
Cd2 Sb3 2.883358 1_555
Cd2 Sb1 2.929002 1_455
Cd2 Sb1 2.929014 1_555
Cd2 Sb0 3.121534 1_555
Cd2 Sr2 3.386640 1_555
Cd2 Sr5 3.476132 1_455
Cd2 Sr5 3.476138 1_555
Cd2 Sr7 3.654199 1_455
Cd2 Sr7 3.654211 1_555
Cd2 Sr4 3.966796 1_555
Cd3 Sb2 2.887634 1_555
Cd3 Sb4 2.927787 1_655
Cd3 Sb4 2.927791 1_555
Cd3 Sb5 3.112333 1_555
Cd3 Sr9 3.388980 1_555
Cd3 Sr6 3.475997 1_655
Cd3 Sr6 3.476003 1_555
Cd3 Sr4 3.648681 1_655
Cd3 Sr4 3.648691 1_555
Cd4 Sb5 2.855451 1_455
Cd4 Sb5 2.855451 1_555
Cd4 Sb7 2.909662 1_555
Cd4 Sb8 3.036100 1_555
Cd4 Sr10 3.486640 1_555
Cd4 Sr10 3.486643 1_455
Cd4 Sr6 3.781154 1_555
Cd5 Sb6 2.815367 1_555
Cd5 Sb6 2.815372 1_455
Cd5 Sb8 3.293078 1_555
Cd5 Sr1 3.612133 1_656
Cd5 Sr1 3.612136 1_556
Cd5 Sr0 3.863403 1_565
Cd5 Sr0 3.863406 1_465
Bi0 Sb8 2.923639 1_554
Bi0 Cd1 3.101606 1_555
Bi0 Cd0 3.317082 1_555
Bi0 Sr2 3.372285 1_655
Bi0 Sr2 3.372299 1_555
Bi0 Sr10 3.521494 1_554
Bi0 Sr10 3.521504 1_454
Bi0 Sr1 3.639081 1_655
Bi0 Sr1 3.639090 1_555
Bi1 Cd1 2.957967 1_555
Bi1 Cd5 3.065429 1_554
Bi1 Sr1 3.468370 1_655
Bi1 Sr1 3.468376 1_555
Bi1 Sr0 3.472938 1_564
Bi1 Sr0 3.472945 1_464
Bi1 Sr3 3.584585 1_665
Bi1 Sr3 3.584585 1_565
Bi2 Cd0 2.872740 1_455
Bi2 Cd0 2.872744 1_555
Bi2 Sr2 3.336754 1_555
Bi2 Sr3 3.403176 1_555
Bi2 Sr0 3.459777 1_454
Bi2 Sr4 3.498672 1_555
Sb0 Sr3 3.300692 1_565
Sb0 Sr2 3.305072 1_555
Sb0 Sr5 3.307094 1_555
Sb0 Sr5 3.307094 1_455
Sb1 Sr7 3.407495 1_555
Sb1 Sr2 3.457780 1_655
Sb1 Sr2 3.457790 1_555
Sb1 Sr4 3.490793 1_655
Sb1 Sr4 3.490803 1_555
Sb1 Sr5 4.034059 1_555
Sb2 Sr6 3.433873 1_655
Sb2 Sr6 3.433880 1_555
Sb2 Sr3 3.497670 1_555
Sb2 Sr3 3.497670 1_655
Sb2 Sr4 3.631616 1_655
Sb2 Sr4 3.631626 1_555
Sb2 Sr5 3.669396 1_545
Sb3 Sr5 3.433011 1_455
Sb3 Sr5 3.433014 1_555
Sb3 Sr8 3.498941 1_455
Sb3 Sr8 3.498951 1_555
Sb3 Sr7 3.631911 1_455
Sb3 Sr7 3.631921 1_555
Sb3 Sr6 3.660217 1_565
Sb4 Sr4 3.376161 1_555
Sb4 Sr9 3.467068 1_555
Sb4 Sr9 3.467072 1_455
Sb4 Sr7 3.490259 1_455
Sb4 Sr7 3.490265 1_555
Sb5 Sr6 3.308294 1_655
Sb5 Sr6 3.308297 1_555
Sb5 Sr8 3.323874 1_545
Sb5 Sr9 3.326173 1_555
Sb5 Sr10 4.044906 1_555
Sb6 Sr9 3.297057 1_555
Sb6 Sr8 3.386364 1_555
Sb6 Sr0 3.406794 1_565
Sb6 Sr7 3.451720 1_555
Sb7 Sr10 3.419098 1_555
Sb7 Sr10 3.419105 1_455
Sb7 Sr0 3.457576 1_555
Sb7 Sr0 3.457582 1_455
Sb7 Sr8 3.551536 1_445
Sb7 Sr8 3.551539 1_545
Sb8 Sr9 3.341544 1_555
Sb8 Sr9 3.341551 1_455
Sb8 Sr1 3.496234 1_656
Sb8 Sr1 3.496241 1_556
Sb8 Sr10 3.607377 1_555
Sb8 Sr10 3.607384 1_455
