# generated using pymatgen
data_Co(AuF4)2
_symmetry_space_group_name_H-M   'P 1'
_cell_length_a   5.42736119
_cell_length_b   5.52033390
_cell_length_c   10.79043658
_cell_angle_alpha   70.16514731
_cell_angle_beta   90.00000000
_cell_angle_gamma   90.00000000
_symmetry_Int_Tables_number   1
_chemical_formula_structural   Co(AuF4)2
_chemical_formula_sum   'Co2 Au4 F16'
_cell_volume   304.11124478
_cell_formula_units_Z   2
loop_
 _symmetry_equiv_pos_site_id
 _symmetry_equiv_pos_as_xyz
  1  'x, y, z'
loop_
 _atom_site_type_symbol
 _atom_site_label
 _atom_site_symmetry_multiplicity
 _atom_site_fract_x
 _atom_site_fract_y
 _atom_site_fract_z
 _atom_site_occupancy
  Co  Co0  1  0.50000000  0.50000000  0.00000000  1
  Co  Co1  1  0.00000000  0.50000000  0.50000000  1
  Au  Au0  1  0.71180944  0.86534670  0.66473642  1
  Au  Au1  1  0.21180944  0.13465330  0.83526358  1
  Au  Au2  1  0.28819056  0.13465330  0.33526358  1
  Au  Au3  1  0.78819056  0.86534670  0.16473642  1
  F  F0  1  0.61082244  0.56201598  0.81302231  1
  F  F1  1  0.11082244  0.43798402  0.68697769  1
  F  F2  1  0.38917756  0.43798402  0.18697769  1
  F  F3  1  0.88917756  0.56201598  0.31302231  1
  F  F4  1  0.68888265  0.17264034  0.01829081  1
  F  F5  1  0.18888265  0.82735966  0.48170919  1
  F  F6  1  0.79290776  0.65815569  0.04634994  1
  F  F7  1  0.29290776  0.34184431  0.45365006  1
  F  F8  1  0.20709224  0.34184431  0.95365006  1
  F  F9  1  0.70709224  0.65815569  0.54634994  1
  F  F10  1  0.78952999  0.06544806  0.27994606  1
  F  F11  1  0.28952999  0.93455194  0.22005394  1
  F  F12  1  0.21047001  0.93455194  0.72005394  1
  F  F13  1  0.71047001  0.06544806  0.77994606  1
  F  F14  1  0.81111735  0.17264034  0.51829081  1
  F  F15  1  0.31111735  0.82735966  0.98170919  1
loop_
_geom_bond_atom_site_label_1
_geom_bond_atom_site_label_2
_geom_bond_distance
_geom_bond_site_symmetry_2
Co0 F6 1.958548 1_555
Co0 F8 1.958548 1_554
Co0 F2 2.020107 1_555
Co0 F0 2.020107 1_554
Co0 F15 2.028188 1_554
Co0 F4 2.028188 1_555
Co1 F9 1.958548 1_455
Co1 F7 1.958548 1_555
Co1 F1 2.020107 1_555
Co1 F3 2.020107 1_455
Co1 F5 2.028188 1_555
Co1 F14 2.028188 1_455
Au0 F13 1.922916 1_565
Au0 F14 1.961147 1_565
Au0 F0 1.961201 1_555
Au0 F9 1.982986 1_555
Au1 F12 1.922916 1_545
Au1 F15 1.961147 1_545
Au1 F1 1.961201 1_555
Au1 F8 1.982986 1_555
Au2 F11 1.922916 1_545
Au2 F5 1.961147 1_545
Au2 F2 1.961201 1_555
Au2 F7 1.982986 1_555
Au3 F10 1.922916 1_565
Au3 F4 1.961147 1_565
Au3 F3 1.961201 1_555
Au3 F6 1.982986 1_555
F0 F4 2.544567 1_556
F0 F8 2.707319 1_555
F0 F13 2.733172 1_565
F1 F5 2.544567 1_555
F1 F9 2.707319 1_455
F1 F12 2.733172 1_545
F2 F6 2.707319 1_555
F3 F7 2.707319 1_655
F10 F3 2.733172 1_545
F10 F4 2.736095 1_555
F11 F2 2.733172 1_565
F11 F5 2.736095 1_555
F12 F15 2.736095 1_555
F13 F14 2.736095 1_555
F14 F3 2.544567 1_555
F15 F2 2.544567 1_556
