# generated using pymatgen
data_Cs4MnCdS4
_symmetry_space_group_name_H-M   'P 1'
_cell_length_a   8.57784657
_cell_length_b   8.57784648
_cell_length_c   8.57784755
_cell_angle_alpha   134.65682107
_cell_angle_beta   128.79440198
_cell_angle_gamma   70.76846267
_symmetry_Int_Tables_number   1
_chemical_formula_structural   Cs4MnCdS4
_chemical_formula_sum   'Cs4 Mn1 Cd1 S4'
_cell_volume   342.83575727
_cell_formula_units_Z   1
loop_
 _symmetry_equiv_pos_site_id
 _symmetry_equiv_pos_as_xyz
  1  'x, y, z'
loop_
 _atom_site_type_symbol
 _atom_site_label
 _atom_site_symmetry_multiplicity
 _atom_site_fract_x
 _atom_site_fract_y
 _atom_site_fract_z
 _atom_site_occupancy
  Cs  Cs0  1  0.80992704  0.14660804  0.65916669  1
  Cs  Cs1  1  0.19007296  0.84923965  0.33668100  1
  Cs  Cs2  1  0.48744135  0.65075935  0.84083331  1
  Cs  Cs3  1  0.51255865  0.35339096  0.16331900  1
  Mn  Mn0  1  0.00000000  0.25000000  0.25000000  1
  Cd  Cd0  1  0.00000000  0.75000000  0.75000000  1
  S  S0  1  0.08315356  0.39035048  0.66720095  1
  S  S1  1  0.91684644  0.58404739  0.30719692  1
  S  S2  1  0.72314953  0.91595261  0.83279905  1
  S  S3  1  0.27685047  0.10964952  0.19280308  1
loop_
_geom_bond_atom_site_label_1
_geom_bond_atom_site_label_2
_geom_bond_distance
_geom_bond_site_symmetry_2
Cs0 S1 3.518326 1_556
Cs0 S0 3.562610 1_655
Cs0 S2 3.631626 1_545
Cs0 S3 3.641925 1_555
Cs0 S1 3.649185 1_545
Cs0 Mn0 3.662010 1_656
Cs0 S3 3.914794 1_656
Cs0 Cs2 4.057904 1_544
Cs0 Cs2 4.102399 1_555
Cs1 S0 3.518326 1_565
Cs1 S1 3.562610 1_455
Cs1 S3 3.631626 1_565
Cs1 S2 3.641925 1_555
Cs1 S0 3.649185 1_554
Cs1 Mn0 3.662010 1_565
Cs1 S2 3.914794 1_454
Cs1 Cs3 4.057909 1_555
Cs1 Cs3 4.102404 1_566
Cs2 S3 3.518322 1_555
Cs2 S2 3.562617 1_555
Cs2 S0 3.631620 1_555
Cs2 S1 3.641920 1_556
Cs2 S3 3.649188 1_566
Cs2 Mn0 3.662007 1_555
Cs2 S1 3.914796 1_455
Cs3 S2 3.518323 1_544
Cs3 S3 3.562603 1_555
Cs3 S1 3.631631 1_555
Cs3 S0 3.641930 1_554
Cs3 S2 3.649188 1_555
Cs3 Mn0 3.662010 1_655
Cs3 S0 3.914792 1_655
Mn0 S2 2.464935 1_444
Mn0 S1 2.464936 1_455
Mn0 S3 2.464936 1_555
Mn0 S0 2.464936 1_555
Cd0 S3 2.575977 1_566
Cd0 S0 2.575977 1_555
Cd0 S2 2.575977 1_455
Cd0 S1 2.575978 1_455
Cd0 Cs2 3.649594 1_555
Cd0 Cs0 3.649594 1_465
Cd0 Cs1 3.649594 1_556
Cd0 Cs3 3.649596 1_455
