# generated using pymatgen
data_FeNi2P3PbO12
_symmetry_space_group_name_H-M   'P 1'
_cell_length_a   8.98898790
_cell_length_b   8.98898832
_cell_length_c   8.98898773
_cell_angle_alpha   137.43799310
_cell_angle_beta   109.29651254
_cell_angle_gamma   86.15814686
_symmetry_Int_Tables_number   1
_chemical_formula_structural   FeNi2P3PbO12
_chemical_formula_sum   'Fe2 Ni4 P6 Pb2 O24'
_cell_volume   445.62753089
_cell_formula_units_Z   2
loop_
 _symmetry_equiv_pos_site_id
 _symmetry_equiv_pos_as_xyz
  1  'x, y, z'
loop_
 _atom_site_type_symbol
 _atom_site_label
 _atom_site_symmetry_multiplicity
 _atom_site_fract_x
 _atom_site_fract_y
 _atom_site_fract_z
 _atom_site_occupancy
  Fe  Fe0  1  0.00000000  0.50000000  0.50000000  1
  Fe  Fe1  1  0.50000000  0.00000000  0.50000000  1
  Ni  Ni0  1  0.11686971  0.11686971  0.50000000  1
  Ni  Ni1  1  0.38313029  0.88313029  0.00000000  1
  Ni  Ni2  1  0.61686971  0.11686971  1.00000000  1
  Ni  Ni3  1  0.88313029  0.88313029  0.50000000  1
  P  P0  1  0.25000000  0.83940835  0.58940835  1
  P  P1  1  0.75000000  0.16059165  0.41059165  1
  P  P2  1  0.32168440  0.32168440  0.50000000  1
  P  P3  1  0.17831560  0.67831560  1.00000000  1
  P  P4  1  0.82168440  0.32168440  0.00000000  1
  P  P5  1  0.67831560  0.67831560  0.50000000  1
  Pb  Pb0  1  0.25000000  0.34441430  0.09441430  1
  Pb  Pb1  1  0.75000000  0.65558570  0.90558570  1
  O  O0  1  0.34496737  0.79944481  0.45447745  1
  O  O1  1  0.65503263  0.20055519  0.54552255  1
  O  O2  1  0.84496737  0.39048992  0.54552255  1
  O  O3  1  0.15503263  0.60951008  0.45447745  1
  O  O4  1  0.13103162  0.98188220  0.61291182  1
  O  O5  1  0.63103162  0.01811780  0.14914942  1
  O  O6  1  0.86896838  0.01811780  0.38708818  1
  O  O7  1  0.36896838  0.98188220  0.85085058  1
  O  O8  1  0.35013395  0.20076386  0.27895538  1
  O  O9  1  0.07819152  0.79923614  0.14937009  1
  O  O10  1  0.85013395  0.57117958  0.14937009  1
  O  O11  1  0.57819152  0.42882042  0.27895538  1
  O  O12  1  0.64986605  0.79923614  0.72104462  1
  O  O13  1  0.92180848  0.20076386  0.85062991  1
  O  O14  1  0.14986605  0.42882042  0.85062991  1
  O  O15  1  0.42180848  0.57117958  0.72104462  1
  O  O16  1  0.13242490  0.28643179  0.43006975  1
  O  O17  1  0.14363896  0.71356821  0.84599411  1
  O  O18  1  0.63242490  0.20235515  0.84599411  1
  O  O19  1  0.64363896  0.79764485  0.43006975  1
  O  O20  1  0.86757510  0.71356821  0.56993025  1
  O  O21  1  0.85636104  0.28643179  0.15400589  1
  O  O22  1  0.36757510  0.79764485  0.15400589  1
  O  O23  1  0.35636104  0.20235515  0.56993025  1
loop_
_geom_bond_atom_site_label_1
_geom_bond_atom_site_label_2
_geom_bond_distance
_geom_bond_site_symmetry_2
Fe0 O16 1.976924 1_555
Fe0 O20 1.976924 1_455
Fe0 O17 1.976931 1_555
Fe0 O21 1.976931 1_455
Fe0 O3 2.057339 1_555
Fe0 O2 2.057339 1_455
Fe1 O18 1.976930 1_555
Fe1 O22 1.976930 1_545
Fe1 O19 1.976930 1_545
Fe1 O23 1.976930 1_555
Fe1 O1 2.057339 1_555
Fe1 O0 2.057339 1_545
Ni0 O4 2.055918 1_545
Ni0 O6 2.055938 1_455
Ni0 O23 2.058118 1_555
Ni0 O16 2.058127 1_555
Ni0 O14 2.087896 1_555
Ni0 O9 2.087898 1_545
Ni1 O7 2.055935 1_554
Ni1 O5 2.055935 1_565
Ni1 O22 2.058118 1_555
Ni1 O17 2.058121 1_554
Ni1 O15 2.087894 1_554
Ni1 O8 2.087898 1_565
Ni2 O5 2.055935 1_556
Ni2 O7 2.055935 1_545
Ni2 O18 2.058118 1_555
Ni2 O21 2.058121 1_556
Ni2 O11 2.087894 1_556
Ni2 O12 2.087898 1_545
Ni3 O6 2.055918 1_565
Ni3 O4 2.055938 1_655
Ni3 O19 2.058118 1_555
Ni3 O20 2.058127 1_555
Ni3 O10 2.087896 1_555
Ni3 O13 2.087898 1_565
O0 P0 1.526521 1_555
O0 Pb0 2.659852 1_555
O1 P1 1.526521 1_555
O1 Pb1 2.659852 1_555
O2 P1 1.526521 1_555
O2 Pb1 2.659851 1_555
O3 P0 1.526521 1_555
O3 Pb0 2.659851 1_555
O4 P0 1.547790 1_555
O4 Pb0 2.669665 1_566
O5 P1 1.547786 1_555
O5 Pb1 2.669655 1_544
O6 P1 1.547790 1_555
O6 Pb1 2.669665 1_544
O7 P0 1.547786 1_555
O7 Pb0 2.669655 1_566
O8 P2 1.520524 1_555
O8 Pb0 2.691117 1_555
O9 P3 1.520524 1_554
O9 Pb1 2.691117 1_454
O10 P4 1.520532 1_555
O10 Pb1 2.691109 1_554
O11 P5 1.520529 1_555
O11 Pb0 2.691118 1_555
O12 P5 1.520524 1_555
O12 Pb1 2.691117 1_555
O13 P4 1.520524 1_556
O13 Pb0 2.691117 1_656
O14 P3 1.520532 1_555
O14 Pb0 2.691109 1_556
O15 P2 1.520529 1_555
O15 Pb1 2.691118 1_555
O16 P2 1.569024 1_555
O17 P3 1.569016 1_555
O18 P4 1.569024 1_556
O19 P5 1.569024 1_555
O20 P5 1.569024 1_555
O21 P4 1.569016 1_555
O22 P3 1.569024 1_554
O23 P2 1.569024 1_555
