# generated using pymatgen
data_KNa2Ag3P2
_symmetry_space_group_name_H-M   'P 1'
_cell_length_a   7.38086499
_cell_length_b   7.38086548
_cell_length_c   7.38086607
_cell_angle_alpha   45.25490474
_cell_angle_beta   45.25490207
_cell_angle_gamma   45.25490333
_symmetry_Int_Tables_number   1
_chemical_formula_structural   KNa2Ag3P2
_chemical_formula_sum   'K1 Na2 Ag3 P2'
_cell_volume   184.71454333
_cell_formula_units_Z   1
loop_
 _symmetry_equiv_pos_site_id
 _symmetry_equiv_pos_as_xyz
  1  'x, y, z'
loop_
 _atom_site_type_symbol
 _atom_site_label
 _atom_site_symmetry_multiplicity
 _atom_site_fract_x
 _atom_site_fract_y
 _atom_site_fract_z
 _atom_site_occupancy
  K  K0  1  0.50000000  0.50000000  0.50000000  1
  Na  Na0  1  0.90645006  0.90645006  0.90645006  1
  Na  Na1  1  0.09354994  0.09354994  0.09354994  1
  Ag  Ag0  1  0.00000000  0.50000000  0.50000000  1
  Ag  Ag1  1  0.50000000  0.50000000  0.00000000  1
  Ag  Ag2  1  0.50000000  0.00000000  0.50000000  1
  P  P0  1  0.24122340  0.24122340  0.24122340  1
  P  P1  1  0.75877660  0.75877660  0.75877660  1
loop_
_geom_bond_atom_site_label_1
_geom_bond_atom_site_label_2
_geom_bond_distance
_geom_bond_site_symmetry_2
K0 Na0 3.585479 1_554
K0 Na1 3.585479 1_556
K0 Na0 3.585479 1_455
K0 Na1 3.585479 1_655
K0 Na0 3.585479 1_545
K0 Na1 3.585479 1_565
K0 P0 3.597129 1_655
K0 P1 3.597129 1_455
K0 P0 3.597130 1_565
K0 P1 3.597130 1_545
K0 P0 3.597130 1_556
K0 P1 3.597130 1_554
Na0 P1 2.929478 1_555
Na0 P0 3.279123 1_566
Na0 P0 3.279124 1_656
Na0 P0 3.279124 1_665
Na0 Na1 3.711602 1_666
Na1 P0 2.929478 1_555
Na1 P1 3.279123 1_544
Na1 P1 3.279124 1_454
Na1 P1 3.279124 1_445
Ag0 P1 2.454943 1_455
Ag0 P0 2.454943 1_555
Ag0 Ag2 2.839696 1_555
Ag0 Ag2 2.839696 1_465
Ag0 Ag1 2.839696 1_555
Ag0 Ag1 2.839696 1_456
Ag0 Na1 3.392326 1_565
Ag0 Na0 3.392326 1_445
Ag0 Na1 3.392326 1_556
Ag0 Na0 3.392326 1_454
Ag0 K0 3.690432 1_555
Ag0 K0 3.690432 1_455
Ag1 P1 2.454943 1_554
Ag1 P0 2.454943 1_555
Ag1 Ag2 2.839697 1_564
Ag1 Ag2 2.839697 1_555
Ag1 Na1 3.392325 1_655
Ag1 Na0 3.392325 1_454
Ag1 Na1 3.392326 1_565
Ag1 Na0 3.392326 1_544
Ag1 K0 3.690433 1_554
Ag1 K0 3.690433 1_555
Ag2 P1 2.454943 1_545
Ag2 P0 2.454943 1_555
Ag2 Na1 3.392325 1_655
Ag2 Na0 3.392325 1_445
Ag2 Na1 3.392326 1_556
Ag2 Na0 3.392326 1_544
Ag2 K0 3.690433 1_555
Ag2 K0 3.690433 1_545
