# generated using pymatgen
data_Cs4MnHgSe4
_symmetry_space_group_name_H-M   'P 1'
_cell_length_a   8.92516340
_cell_length_b   8.92516359
_cell_length_c   8.92516388
_cell_angle_alpha   134.28172799
_cell_angle_beta   129.55012103
_cell_angle_gamma   70.43111274
_symmetry_Int_Tables_number   1
_chemical_formula_structural   Cs4MnHgSe4
_chemical_formula_sum   'Cs4 Mn1 Hg1 Se4'
_cell_volume   384.64883453
_cell_formula_units_Z   1
loop_
 _symmetry_equiv_pos_site_id
 _symmetry_equiv_pos_as_xyz
  1  'x, y, z'
loop_
 _atom_site_type_symbol
 _atom_site_label
 _atom_site_symmetry_multiplicity
 _atom_site_fract_x
 _atom_site_fract_y
 _atom_site_fract_z
 _atom_site_occupancy
  Cs  Cs0  1  0.52402775  0.86031081  0.67604071  1
  Cs  Cs1  1  0.47597225  0.15201296  0.33628306  1
  Cs  Cs2  1  0.81572890  0.63968919  0.16371694  1
  Cs  Cs3  1  0.18427110  0.34798704  0.82395929  1
  Mn  Mn0  1  0.00000000  0.75000000  0.75000000  1
  Hg  Hg0  1  0.00000000  0.25000000  0.25000000  1
  Se  Se0  1  0.08376081  0.88561276  0.16833282  1
  Se  Se1  1  0.71727993  0.41542799  0.33166718  1
  Se  Se2  1  0.91623919  0.08457201  0.80185094  1
  Se  Se3  1  0.28272107  0.61438724  0.69814906  1
loop_
_geom_bond_atom_site_label_1
_geom_bond_atom_site_label_2
_geom_bond_distance
_geom_bond_site_symmetry_2
Cs0 Se1 3.648285 1_555
Cs0 Hg0 3.699997 1_666
Cs0 Se3 3.715858 1_555
Cs0 Mn0 3.739821 1_655
Cs0 Se2 3.751058 1_565
Cs0 Se1 3.761787 1_566
Cs0 Se0 3.766114 1_555
Cs0 Se0 3.966122 1_656
Cs0 Cs3 4.256299 1_565
Cs0 Cs3 4.393323 1_554
Cs1 Se3 3.648282 1_544
Cs1 Hg0 3.699997 1_555
Cs1 Se1 3.715858 1_555
Cs1 Mn0 3.739821 1_544
Cs1 Se0 3.751052 1_545
Cs1 Se3 3.761785 1_555
Cs1 Se2 3.766109 1_555
Cs1 Se2 3.966125 1_454
Cs1 Cs2 4.256305 1_556
Cs1 Cs2 4.393317 1_545
Cs2 Se2 3.648276 1_565
Cs2 Hg0 3.699997 1_655
Cs2 Se0 3.715865 1_655
Cs2 Mn0 3.739818 1_655
Cs2 Se1 3.751046 1_555
Cs2 Se2 3.761791 1_554
Cs2 Se3 3.766101 1_554
Cs2 Se3 3.966132 1_655
Cs3 Se0 3.648288 1_556
Cs3 Hg0 3.699994 1_555
Cs3 Se2 3.715858 1_455
Cs3 Mn0 3.739822 1_555
Cs3 Se3 3.751044 1_555
Cs3 Se0 3.761784 1_545
Cs3 Se1 3.766109 1_556
Cs3 Se1 3.966125 1_455
Mn0 Se1 2.589477 1_455
Mn0 Se0 2.589477 1_556
Mn0 Se2 2.589481 1_465
Mn0 Se3 2.589481 1_555
Hg0 Se1 2.724373 1_455
Hg0 Se0 2.724373 1_545
Hg0 Se3 2.724377 1_555
Hg0 Se2 2.724381 1_454
