# generated using pymatgen
data_Zr10Ga3HgBi4
_symmetry_space_group_name_H-M   'P 1'
_cell_length_a   8.72782080
_cell_length_b   8.73237840
_cell_length_c   5.88906861
_cell_angle_alpha   90.00000000
_cell_angle_beta   90.00000000
_cell_angle_gamma   119.74166727
_symmetry_Int_Tables_number   1
_chemical_formula_structural   Zr10Ga3HgBi4
_chemical_formula_sum   'Zr10 Ga3 Hg1 Bi4'
_cell_volume   389.70884573
_cell_formula_units_Z   1
loop_
 _symmetry_equiv_pos_site_id
 _symmetry_equiv_pos_as_xyz
  1  'x, y, z'
loop_
 _atom_site_type_symbol
 _atom_site_label
 _atom_site_symmetry_multiplicity
 _atom_site_fract_x
 _atom_site_fract_y
 _atom_site_fract_z
 _atom_site_occupancy
  Zr  Zr0  1  0.67337350  0.33355646  0.00685452  1
  Zr  Zr1  1  0.32601318  0.66156144  0.00584641  1
  Zr  Zr2  1  0.32601318  0.66156144  0.49415359  1
  Zr  Zr3  1  0.67337350  0.33355646  0.49314548  1
  Zr  Zr4  1  0.74058897  0.73946967  0.75000000  1
  Zr  Zr5  1  0.25650896  0.99618878  0.75000000  1
  Zr  Zr6  1  0.99847686  0.25828242  0.75000000  1
  Zr  Zr7  1  0.25945033  0.27130150  0.25000000  1
  Zr  Zr8  1  0.73979153  0.02072035  0.25000000  1
  Zr  Zr9  1  0.00830673  0.72673779  0.25000000  1
  Ga  Ga0  1  0.99981955  0.99773451  0.01542171  1
  Ga  Ga1  1  0.99981955  0.99773451  0.48457829  1
  Ga  Ga2  1  0.00185626  0.38910957  0.25000000  1
  Hg  Hg0  1  0.38388446  0.00346357  0.25000000  1
  Bi  Bi0  1  0.39083269  0.38761978  0.75000000  1
  Bi  Bi1  1  0.60450601  0.99755899  0.75000000  1
  Bi  Bi2  1  0.99996348  0.60495908  0.75000000  1
  Bi  Bi3  1  0.61742328  0.61888368  0.25000000  1
loop_
_geom_bond_atom_site_label_1
_geom_bond_atom_site_label_2
_geom_bond_distance
_geom_bond_site_symmetry_2
Zr0 Zr3 2.863801 1_555
Zr0 Zr3 3.025268 1_554
Zr0 Zr8 3.379397 1_555
Zr0 Zr9 3.525019 1_655
Zr0 Zr6 3.552710 1_554
Zr0 Zr4 3.623971 1_554
Zr0 Zr7 3.667219 1_555
Zr0 Zr5 3.683710 1_544
Zr1 Zr2 2.875674 1_555
Zr1 Zr2 3.013394 1_554
Zr1 Zr9 3.412627 1_555
Zr1 Zr7 3.471932 1_555
Zr1 Zr6 3.585440 1_454
Zr1 Zr5 3.596594 1_554
Zr1 Zr4 3.658277 1_554
Zr1 Zr8 3.702440 1_565
Zr2 Zr9 3.412627 1_555
Zr2 Zr7 3.471932 1_555
Zr2 Zr6 3.585440 1_455
Zr2 Zr5 3.596594 1_555
Zr2 Zr4 3.658277 1_555
Zr2 Zr8 3.702440 1_565
Zr3 Zr8 3.379397 1_555
Zr3 Zr9 3.525019 1_655
Zr3 Zr6 3.552710 1_555
Zr3 Zr4 3.623971 1_555
Zr3 Zr7 3.667219 1_555
Zr3 Zr5 3.683710 1_545
Ga0 Zr7 2.716446 1_665
Ga0 Zr5 2.737251 1_654
Ga0 Zr8 2.747942 1_565
Ga0 Zr4 2.754228 1_554
Ga0 Ga1 2.762895 1_555
Ga0 Zr6 2.765209 1_564
Ga0 Zr9 2.772702 1_655
Ga0 Ga1 3.126173 1_554
Ga1 Zr7 2.716446 1_665
Ga1 Zr5 2.737251 1_655
Ga1 Zr8 2.747942 1_565
Ga1 Zr4 2.754228 1_555
Ga1 Zr6 2.765209 1_565
Ga1 Zr9 2.772702 1_655
Ga2 Zr8 2.877447 1_455
Ga2 Zr7 2.899595 1_555
Ga2 Zr9 2.920777 1_555
Ga2 Zr2 3.008920 1_555
Ga2 Zr1 3.008920 1_555
Ga2 Zr3 3.020778 1_455
Ga2 Zr0 3.020778 1_455
Ga2 Zr6 3.153232 1_455
Ga2 Zr6 3.153232 1_454
Hg0 Zr9 2.953856 1_545
Hg0 Zr7 3.028199 1_555
Hg0 Zr8 3.034358 1_555
Hg0 Zr3 3.084945 1_555
Hg0 Zr0 3.084945 1_555
Hg0 Zr2 3.120929 1_545
Hg0 Zr1 3.120929 1_545
Hg0 Zr5 3.136901 1_544
Hg0 Zr5 3.136901 1_545
Bi0 Zr5 3.013647 1_545
Bi0 Zr6 3.027346 1_455
Bi0 Zr4 3.074547 1_555
Bi0 Zr1 3.107310 1_556
Bi0 Zr2 3.107310 1_555
Bi0 Zr0 3.122020 1_556
Bi0 Zr3 3.122020 1_555
Bi0 Zr7 3.140265 1_555
Bi0 Zr7 3.140265 1_556
Bi0 Bi3 3.563296 1_556
Bi0 Bi3 3.563296 1_555
Bi1 Zr4 3.024204 1_555
Bi1 Zr5 3.031338 1_555
Bi1 Zr6 3.039655 1_565
Bi1 Zr0 3.083548 1_566
Bi1 Zr3 3.083548 1_565
Bi1 Zr1 3.116241 1_556
Bi1 Zr2 3.116241 1_555
Bi1 Zr8 3.141403 1_566
Bi1 Zr8 3.141403 1_565
Bi1 Hg0 3.532587 1_565
Bi1 Hg0 3.532587 1_566
Bi2 Zr5 3.015848 1_655
Bi2 Zr6 3.020896 1_555
Bi2 Zr4 3.023671 1_555
Bi2 Zr1 3.035937 1_656
Bi2 Zr2 3.035937 1_655
Bi2 Zr0 3.054040 1_556
Bi2 Zr3 3.054040 1_555
Bi2 Zr9 3.119232 1_656
Bi2 Zr9 3.119232 1_655
Bi2 Ga2 3.500603 1_655
Bi2 Ga2 3.500603 1_656
Bi3 Zr9 3.055784 1_655
Bi3 Zr7 3.092749 1_555
Bi3 Zr2 3.100882 1_555
Bi3 Zr1 3.100882 1_555
Bi3 Zr3 3.115121 1_555
Bi3 Zr0 3.115121 1_555
Bi3 Zr8 3.120148 1_565
Bi3 Zr4 3.132341 1_555
Bi3 Zr4 3.132341 1_554
