# generated using pymatgen
data_TaGa2MoCl16
_symmetry_space_group_name_H-M   'P 1'
_cell_length_a   9.54336733
_cell_length_b   9.54336721
_cell_length_c   8.34758926
_cell_angle_alpha   90.00000000
_cell_angle_beta   90.00000000
_cell_angle_gamma   130.45476972
_symmetry_Int_Tables_number   1
_chemical_formula_structural   TaGa2MoCl16
_chemical_formula_sum   'Ta1 Ga2 Mo1 Cl16'
_cell_volume   578.49877139
_cell_formula_units_Z   1
loop_
 _symmetry_equiv_pos_site_id
 _symmetry_equiv_pos_as_xyz
  1  'x, y, z'
loop_
 _atom_site_type_symbol
 _atom_site_label
 _atom_site_symmetry_multiplicity
 _atom_site_fract_x
 _atom_site_fract_y
 _atom_site_fract_z
 _atom_site_occupancy
  Ta  Ta0  1  0.11256535  0.88743465  0.75000000  1
  Ga  Ga0  1  0.31851900  0.68148100  0.75000000  1
  Ga  Ga1  1  0.68361321  0.31638679  0.25000000  1
  Mo  Mo0  1  0.88534174  0.11465826  0.25000000  1
  Cl  Cl0  1  0.38237292  0.61762708  0.53250471  1
  Cl  Cl1  1  0.61894741  0.38105259  0.46715791  1
  Cl  Cl2  1  0.43846687  0.97897337  0.75000000  1
  Cl  Cl3  1  0.98229287  0.44056509  0.25000000  1
  Cl  Cl4  1  0.55943491  0.01770713  0.25000000  1
  Cl  Cl5  1  0.02102663  0.56153313  0.75000000  1
  Cl  Cl6  1  0.24536947  0.18617740  0.75000000  1
  Cl  Cl7  1  0.17907110  0.23568073  0.25000000  1
  Cl  Cl8  1  0.76431927  0.82092890  0.25000000  1
  Cl  Cl9  1  0.81382260  0.75463053  0.75000000  1
  Cl  Cl10  1  0.13278660  0.86721340  0.47727461  1
  Cl  Cl11  1  0.86397206  0.13602794  0.51689352  1
  Cl  Cl12  1  0.86397206  0.13602794  0.98310648  1
  Cl  Cl13  1  0.13278660  0.86721340  0.02272539  1
  Cl  Cl14  1  0.38237292  0.61762708  0.96749529  1
  Cl  Cl15  1  0.61894741  0.38105259  0.03284209  1
loop_
_geom_bond_atom_site_label_1
_geom_bond_atom_site_label_2
_geom_bond_distance
_geom_bond_site_symmetry_2
Cl0 Ga0 2.126229 1_555
Cl1 Ga1 2.131189 1_555
Cl2 Ga0 2.270094 1_555
Cl2 Ta0 2.628804 1_555
Cl3 Ga1 2.268410 1_555
Cl3 Mo0 2.606780 1_555
Cl4 Ga1 2.268410 1_555
Cl4 Mo0 2.606780 1_555
Cl5 Ga0 2.270094 1_555
Cl5 Ta0 2.628804 1_555
Cl6 Ta0 2.246223 1_545
Cl7 Mo0 2.233904 1_455
Cl8 Mo0 2.233904 1_565
Cl9 Ta0 2.246223 1_655
Cl10 Ta0 2.303414 1_555
Cl11 Mo0 2.258489 1_555
Cl12 Mo0 2.258489 1_556
Cl13 Ta0 2.303414 1_554
Cl14 Ga0 2.126229 1_555
Cl15 Ga1 2.131189 1_555
