# generated using pymatgen
data_Zr10Be2Bi5Pb
_symmetry_space_group_name_H-M   'P 1'
_cell_length_a   8.73201611
_cell_length_b   8.73019241
_cell_length_c   5.88059826
_cell_angle_alpha   90.00000000
_cell_angle_beta   90.00000000
_cell_angle_gamma   119.99309372
_symmetry_Int_Tables_number   1
_chemical_formula_structural   Zr10Be2Bi5Pb
_chemical_formula_sum   'Zr10 Be2 Bi5 Pb1'
_cell_volume   388.25826182
_cell_formula_units_Z   1
loop_
 _symmetry_equiv_pos_site_id
 _symmetry_equiv_pos_as_xyz
  1  'x, y, z'
loop_
 _atom_site_type_symbol
 _atom_site_label
 _atom_site_symmetry_multiplicity
 _atom_site_fract_x
 _atom_site_fract_y
 _atom_site_fract_z
 _atom_site_occupancy
  Zr  Zr0  1  0.66667561  0.33353682  0.50124494  1
  Zr  Zr1  1  0.33332439  0.66686221  0.50124494  1
  Zr  Zr2  1  0.33332439  0.66686221  0.99875506  1
  Zr  Zr3  1  0.66667561  0.33353682  0.99875506  1
  Zr  Zr4  1  0.75454521  0.75442667  0.25000000  1
  Zr  Zr5  1  0.24545479  0.99988146  0.25000000  1
  Zr  Zr6  1  0.00000000  0.24417272  0.25000000  1
  Zr  Zr7  1  0.24759498  0.24935950  0.75000000  1
  Zr  Zr8  1  0.75240502  0.00176452  0.75000000  1
  Zr  Zr9  1  0.00000000  0.75007426  0.75000000  1
  Be  Be0  1  0.00000000  0.99979528  0.50598728  1
  Be  Be1  1  0.00000000  0.99979528  0.99401272  1
  Bi  Bi0  1  0.39141679  0.39180817  0.25000000  1
  Bi  Bi1  1  0.60858321  0.00039138  0.25000000  1
  Bi  Bi2  1  0.00000000  0.60655730  0.25000000  1
  Bi  Bi3  1  0.61032534  0.61084953  0.75000000  1
  Bi  Bi4  1  0.38967466  0.00052319  0.75000000  1
  Pb  Pb0  1  0.00000000  0.38980068  0.75000000  1
loop_
_geom_bond_atom_site_label_1
_geom_bond_atom_site_label_2
_geom_bond_distance
_geom_bond_site_symmetry_2
Zr0 Zr3 2.925657 1_555
Zr0 Zr3 2.954941 1_554
Zr0 Zr9 3.640492 1_655
Zr0 Zr8 3.641070 1_555
Zr0 Zr7 3.658221 1_555
Zr0 Zr4 3.668034 1_555
Zr0 Zr5 3.672139 1_545
Zr0 Zr6 3.678778 1_655
Zr1 Zr2 2.925657 1_555
Zr1 Zr2 2.954941 1_554
Zr1 Zr9 3.640487 1_555
Zr1 Zr7 3.641078 1_555
Zr1 Zr8 3.658218 1_565
Zr1 Zr5 3.668027 1_555
Zr1 Zr4 3.672141 1_555
Zr1 Zr6 3.678783 1_555
Zr2 Zr9 3.640487 1_555
Zr2 Zr7 3.641078 1_555
Zr2 Zr8 3.658218 1_565
Zr2 Zr5 3.668027 1_556
Zr2 Zr4 3.672141 1_556
Zr2 Zr6 3.678783 1_556
Zr3 Zr9 3.640492 1_655
Zr3 Zr8 3.641070 1_555
Zr3 Zr7 3.658221 1_555
Zr3 Zr4 3.668034 1_556
Zr3 Zr5 3.672139 1_546
Zr3 Zr6 3.678778 1_656
Be0 Zr7 2.602070 1_565
Be0 Zr8 2.602070 1_465
Be0 Zr9 2.609970 1_555
Be0 Zr6 2.611085 1_565
Be0 Zr4 2.618834 1_455
Be0 Zr5 2.618834 1_555
Be0 Be1 2.869882 1_555
Be0 Be1 3.010717 1_554
Be1 Zr7 2.602070 1_565
Be1 Zr8 2.602070 1_465
Be1 Zr9 2.609970 1_555
Be1 Zr6 2.611085 1_566
Be1 Zr4 2.618834 1_456
Be1 Zr5 2.618834 1_556
Bi0 Zr6 2.989761 1_555
Bi0 Zr5 2.995282 1_545
Bi0 Zr1 3.069883 1_555
Bi0 Zr2 3.069883 1_554
Bi0 Zr0 3.072674 1_555
Bi0 Zr3 3.072674 1_554
Bi0 Zr4 3.168620 1_555
Bi0 Zr7 3.194937 1_554
Bi0 Zr7 3.194937 1_555
Bi0 Bi3 3.507343 1_555
Bi0 Bi3 3.507343 1_554
Bi1 Zr6 2.989761 1_655
Bi1 Zr4 2.995282 1_545
Bi1 Zr0 3.069875 1_555
Bi1 Zr3 3.069875 1_554
Bi1 Zr1 3.072669 1_545
Bi1 Zr2 3.072669 1_544
Bi1 Zr5 3.168620 1_545
Bi1 Zr8 3.194937 1_554
Bi1 Zr8 3.194937 1_555
Bi1 Bi4 3.507341 1_554
Bi1 Bi4 3.507341 1_555
Bi2 Zr5 3.004427 1_555
Bi2 Zr4 3.004427 1_455
Bi2 Zr1 3.065880 1_555
Bi2 Zr2 3.065880 1_554
Bi2 Zr0 3.065883 1_455
Bi2 Zr3 3.065883 1_454
Bi2 Zr6 3.163687 1_555
Bi2 Zr9 3.196122 1_554
Bi2 Zr9 3.196122 1_555
Bi2 Pb0 3.496607 1_554
Bi2 Pb0 3.496607 1_555
Bi3 Zr9 2.986708 1_655
Bi3 Zr8 2.992158 1_565
Bi3 Zr2 3.067900 1_555
Bi3 Zr1 3.067900 1_555
Bi3 Zr3 3.071514 1_555
Bi3 Zr0 3.071514 1_555
Bi3 Zr7 3.161968 1_555
Bi3 Zr4 3.197536 1_555
Bi3 Zr4 3.197536 1_556
Bi4 Zr9 2.986706 1_545
Bi4 Zr7 2.992166 1_555
Bi4 Zr3 3.067900 1_555
Bi4 Zr0 3.067900 1_555
Bi4 Zr2 3.071498 1_545
Bi4 Zr1 3.071498 1_545
Bi4 Zr8 3.161964 1_555
Bi4 Zr5 3.197538 1_545
Bi4 Zr5 3.197538 1_546
Pb0 Zr8 2.971155 1_455
Pb0 Zr7 2.971155 1_555
Pb0 Zr3 3.069744 1_455
Pb0 Zr0 3.069744 1_455
Pb0 Zr2 3.069747 1_555
Pb0 Zr1 3.069747 1_555
Pb0 Zr9 3.145258 1_555
Pb0 Zr6 3.203391 1_556
Pb0 Zr6 3.203391 1_555
