# generated using pymatgen
data_Lu5ReRuO12
_symmetry_space_group_name_H-M   'P 1'
_cell_length_a   6.64412386
_cell_length_b   6.64412485
_cell_length_c   7.27777908
_cell_angle_alpha   73.78527719
_cell_angle_beta   73.78526310
_cell_angle_gamma   49.25727411
_symmetry_Int_Tables_number   1
_chemical_formula_structural   Lu5ReRuO12
_chemical_formula_sum   'Lu5 Re1 Ru1 O12'
_cell_volume   231.64302353
_cell_formula_units_Z   1
loop_
 _symmetry_equiv_pos_site_id
 _symmetry_equiv_pos_as_xyz
  1  'x, y, z'
loop_
 _atom_site_type_symbol
 _atom_site_label
 _atom_site_symmetry_multiplicity
 _atom_site_fract_x
 _atom_site_fract_y
 _atom_site_fract_z
 _atom_site_occupancy
  Lu  Lu0  1  0.71584899  0.68110796  0.64062819  1
  Lu  Lu1  1  0.31889204  0.28415101  0.35937181  1
  Lu  Lu2  1  0.69169306  0.67871855  0.17783235  1
  Lu  Lu3  1  0.32128145  0.30830694  0.82216765  1
  Lu  Lu4  1  0.01418352  0.98581648  0.50000000  1
  Re  Re0  1  0.19891202  0.80108798  0.00000000  1
  Ru  Ru0  1  0.76505537  0.23494463  1.00000000  1
  O  O0  1  0.00089947  0.00872491  0.20639876  1
  O  O1  1  0.99127509  0.99910053  0.79360124  1
  O  O2  1  0.55937599  0.08660749  0.08777899  1
  O  O3  1  0.40961803  0.91238759  0.90931600  1
  O  O4  1  0.91339251  0.44062401  0.91222101  1
  O  O5  1  0.08761241  0.59038197  0.09068400  1
  O  O6  1  0.48487865  0.51525029  0.18225632  1
  O  O7  1  0.48474971  0.51512135  0.81774368  1
  O  O8  1  0.41228673  0.88784891  0.43419610  1
  O  O9  1  0.60402485  0.08613099  0.57486675  1
  O  O10  1  0.11215109  0.58771327  0.56580390  1
  O  O11  1  0.91386901  0.39597515  0.42513325  1
loop_
_geom_bond_atom_site_label_1
_geom_bond_atom_site_label_2
_geom_bond_distance
_geom_bond_site_symmetry_2
Lu0 O10 2.206780 1_655
Lu0 O9 2.211825 1_565
Lu0 O11 2.243444 1_555
Lu0 O4 2.264993 1_555
Lu0 O8 2.266105 1_555
Lu0 O7 2.355107 1_555
Lu0 O3 2.387436 1_555
Lu1 O8 2.206780 1_545
Lu1 O11 2.211825 1_455
Lu1 O9 2.243444 1_555
Lu1 O2 2.264993 1_555
Lu1 O10 2.266105 1_555
Lu1 O6 2.355107 1_555
Lu1 O5 2.387437 1_555
Lu2 O2 2.183290 1_565
Lu2 O11 2.218813 1_555
Lu2 O5 2.219749 1_655
Lu2 O6 2.229947 1_555
Lu2 O8 2.237058 1_555
Lu2 O4 2.341986 1_554
Lu2 O3 2.508905 1_554
Lu3 O4 2.183290 1_455
Lu3 O9 2.218813 1_555
Lu3 O3 2.219749 1_545
Lu3 O7 2.229947 1_555
Lu3 O10 2.237058 1_555
Lu3 O2 2.341987 1_556
Lu3 O5 2.508905 1_556
Lu4 O1 2.121998 1_455
Lu4 O0 2.121998 1_565
Lu4 O8 2.206490 1_555
Lu4 O10 2.206491 1_555
Lu4 O9 2.273807 1_465
Lu4 O11 2.273808 1_465
Re0 Ru0 2.402560 1_464
O0 Re0 1.890749 1_545
O0 Ru0 1.987515 1_454
O0 O6 2.713858 1_545
O0 O6 2.838384 1_455
O0 O11 3.052843 1_455
O0 O9 3.075669 1_455
O0 O10 3.083400 1_545
O1 Re0 1.890749 1_656
O1 Ru0 1.987515 1_565
O1 O7 2.713858 1_655
O1 O7 2.838384 1_565
O1 O9 3.052843 1_565
O1 O11 3.075670 1_565
O1 O8 3.083399 1_655
O2 Ru0 2.041037 1_554
O2 O3 2.661138 1_544
O2 O5 2.708566 1_555
O2 O8 2.739419 1_545
O2 O5 2.843673 1_645
O3 Re0 1.872185 1_556
O3 O7 2.595561 1_555
O3 O4 2.708566 1_555
O3 O9 2.747152 1_565
O3 O4 2.843673 1_465
O4 Ru0 2.041037 1_555
O4 O5 2.661138 1_656
O5 Re0 1.872185 1_555
O5 O6 2.595561 1_555
O6 Ru0 2.041661 1_554
O6 Re0 2.065590 1_555
O7 Ru0 2.041661 1_555
O7 Re0 2.065590 1_556
O7 O8 3.080585 1_555
O8 O9 2.842341 1_565
O10 O4 2.739419 1_455
O10 O9 2.751705 1_555
O10 O9 2.787930 1_465
O10 O11 2.842341 1_455
O10 O6 3.080584 1_555
O11 O5 2.747152 1_655
O11 O8 2.751705 1_555
O11 O8 2.787930 1_645
