# generated using pymatgen
data_K3RbAu6Se5
_symmetry_space_group_name_H-M   'P 1'
_cell_length_a   9.90337453
_cell_length_b   9.90337423
_cell_length_c   10.53167239
_cell_angle_alpha   90.00000000
_cell_angle_beta   90.00000000
_cell_angle_gamma   119.99999479
_symmetry_Int_Tables_number   1
_chemical_formula_structural   K3RbAu6Se5
_chemical_formula_sum   'K6 Rb2 Au12 Se10'
_cell_volume   894.52892852
_cell_formula_units_Z   2
loop_
 _symmetry_equiv_pos_site_id
 _symmetry_equiv_pos_as_xyz
  1  'x, y, z'
loop_
 _atom_site_type_symbol
 _atom_site_label
 _atom_site_symmetry_multiplicity
 _atom_site_fract_x
 _atom_site_fract_y
 _atom_site_fract_z
 _atom_site_occupancy
  K  K0  1  0.58152669  0.94851767  0.75000000  1
  K  K1  1  0.05148233  0.63300803  0.75000000  1
  K  K2  1  0.36699197  0.41847331  0.75000000  1
  K  K3  1  0.41847331  0.36699197  0.25000000  1
  K  K4  1  0.63300803  0.05148233  0.25000000  1
  K  K5  1  0.94851767  0.58152669  0.25000000  1
  Rb  Rb0  1  0.00000000  0.00000000  0.00000000  1
  Rb  Rb1  1  0.00000000  0.00000000  0.50000000  1
  Au  Au0  1  0.16299864  0.44909544  0.41537615  1
  Au  Au1  1  0.28609680  0.83700136  0.41537615  1
  Au  Au2  1  0.55090456  0.71390320  0.41537615  1
  Au  Au3  1  0.71390320  0.55090456  0.58462385  1
  Au  Au4  1  0.28609680  0.83700136  0.08462385  1
  Au  Au5  1  0.16299864  0.44909544  0.08462385  1
  Au  Au6  1  0.83700136  0.28609680  0.91537615  1
  Au  Au7  1  0.44909544  0.16299864  0.91537615  1
  Au  Au8  1  0.44909544  0.16299864  0.58462385  1
  Au  Au9  1  0.83700136  0.28609680  0.58462385  1
  Au  Au10  1  0.71390320  0.55090456  0.91537615  1
  Au  Au11  1  0.55090456  0.71390320  0.08462385  1
  Se  Se0  1  0.25866638  0.02307336  0.75000000  1
  Se  Se1  1  0.33333300  0.66666700  0.55436006  1
  Se  Se2  1  0.33333300  0.66666700  0.94563994  1
  Se  Se3  1  0.66666700  0.33333300  0.05436006  1
  Se  Se4  1  0.66666700  0.33333300  0.44563994  1
  Se  Se5  1  0.02307336  0.25866638  0.25000000  1
  Se  Se6  1  0.23559302  0.97692664  0.25000000  1
  Se  Se7  1  0.74133362  0.76440698  0.25000000  1
  Se  Se8  1  0.97692664  0.23559302  0.75000000  1
  Se  Se9  1  0.76440698  0.74133362  0.75000000  1
loop_
_geom_bond_atom_site_label_1
_geom_bond_atom_site_label_2
_geom_bond_distance
_geom_bond_site_symmetry_2
K0 Se9 3.347579 1_555
K0 Se2 3.349214 1_555
K0 Se1 3.349214 1_555
K0 Se8 3.504785 1_565
K0 Se0 3.623450 1_565
K1 Se0 3.347588 1_565
K1 Se2 3.349208 1_555
K1 Se1 3.349208 1_555
K1 Se9 3.504791 1_455
K1 Se8 3.623440 1_455
K2 Se8 3.347588 1_455
K2 Se2 3.349224 1_555
K2 Se1 3.349224 1_555
K2 Se0 3.504782 1_555
K2 Se9 3.623444 1_555
K3 Se6 3.347588 1_545
K3 Se4 3.349224 1_555
K3 Se3 3.349224 1_555
K3 Se5 3.504782 1_555
K3 Se7 3.623444 1_555
K4 Se5 3.347588 1_655
K4 Se4 3.349208 1_555
K4 Se3 3.349208 1_555
K4 Se7 3.504791 1_545
K4 Se6 3.623440 1_545
K5 Se7 3.347579 1_555
K5 Se4 3.349214 1_555
K5 Se3 3.349214 1_555
K5 Se6 3.504785 1_655
K5 Se5 3.623450 1_655
Rb0 Se8 3.600177 1_454
Rb0 Se5 3.600177 1_555
Rb0 Se6 3.600177 1_545
Rb0 Se0 3.600177 1_554
Rb0 Se9 3.600177 1_444
Rb0 Se7 3.600177 1_445
Rb1 Se8 3.600177 1_455
Rb1 Se5 3.600177 1_555
Rb1 Se6 3.600177 1_545
Rb1 Se0 3.600177 1_555
Rb1 Se9 3.600177 1_445
Rb1 Se7 3.600177 1_445
Au0 Se5 2.428368 1_555
Au0 Se1 2.448689 1_555
Au0 Au9 3.315788 1_455
Au0 Au1 3.400099 1_555
Au0 Au2 3.400099 1_555
Au0 K5 3.471464 1_455
Au0 K3 3.486118 1_555
Au0 Rb1 4.000179 1_555
Au1 Se6 2.428368 1_555
Au1 Se1 2.448683 1_555
Au1 Au8 3.315788 1_565
Au1 Au2 3.400099 1_555
Au1 K4 3.471457 1_565
Au1 K5 3.486124 1_455
Au1 Rb1 4.000179 1_565
Au2 Se7 2.428368 1_555
Au2 Se1 2.448691 1_555
Au2 Au3 3.315787 1_555
Au2 K3 3.471456 1_555
Au2 K4 3.486126 1_565
Au2 Rb1 4.000179 1_665
Au3 Se9 2.428368 1_555
Au3 Se4 2.448691 1_555
Au3 Au9 3.400099 1_555
Au3 Au8 3.400099 1_555
Au3 K2 3.471456 1_555
Au3 K1 3.486126 1_655
Au3 Rb1 4.000179 1_665
Au4 Se6 2.428368 1_555
Au4 Se2 2.448683 1_554
Au4 Au7 3.315788 1_564
Au4 Au5 3.400099 1_555
Au4 K4 3.471457 1_565
Au4 K5 3.486124 1_455
Au4 Rb0 4.000179 1_565
Au5 Se5 2.428368 1_555
Au5 Se2 2.448689 1_554
Au5 Au6 3.315788 1_454
Au5 K5 3.471464 1_455
Au5 K3 3.486118 1_555
Au5 Rb0 4.000179 1_555
Au6 Se8 2.428368 1_555
Au6 Se3 2.448683 1_556
Au6 Au7 3.400099 1_555
Au6 K1 3.471457 1_655
Au6 K0 3.486124 1_545
Au6 Rb0 4.000179 1_656
Au7 Se0 2.428368 1_555
Au7 Se3 2.448689 1_556
Au7 K0 3.471464 1_545
Au7 K2 3.486117 1_555
Au7 Rb0 4.000179 1_556
Au8 Se0 2.428368 1_555
Au8 Se4 2.448689 1_555
Au8 Au9 3.400099 1_555
Au8 K0 3.471464 1_545
Au8 K2 3.486117 1_555
Au8 Rb1 4.000179 1_555
Au9 Se8 2.428368 1_555
Au9 Se4 2.448683 1_555
Au9 K1 3.471457 1_655
Au9 K0 3.486124 1_545
Au9 Rb1 4.000179 1_655
Au10 Se9 2.428368 1_555
Au10 Se3 2.448691 1_556
Au10 Au11 3.315787 1_556
Au10 Au6 3.400099 1_555
Au10 Au7 3.400099 1_555
Au10 K2 3.471456 1_555
Au10 K1 3.486126 1_655
Au10 Rb0 4.000179 1_666
Au11 Se7 2.428368 1_555
Au11 Se2 2.448691 1_554
Au11 Au4 3.400099 1_555
Au11 Au5 3.400099 1_555
Au11 K3 3.471456 1_555
Au11 K4 3.486126 1_565
Au11 Rb0 4.000179 1_665
