# generated using pymatgen
data_CsYTe3O8
_symmetry_space_group_name_H-M   'P 1'
_cell_length_a   6.04259330
_cell_length_b   7.82870714
_cell_length_c   11.64422758
_cell_angle_alpha   100.66143890
_cell_angle_beta   89.28297820
_cell_angle_gamma   111.35467517
_symmetry_Int_Tables_number   1
_chemical_formula_structural   CsYTe3O8
_chemical_formula_sum   'Cs2 Y2 Te6 O16'
_cell_volume   503.25775304
_cell_formula_units_Z   2
loop_
 _symmetry_equiv_pos_site_id
 _symmetry_equiv_pos_as_xyz
  1  'x, y, z'
loop_
 _atom_site_type_symbol
 _atom_site_label
 _atom_site_symmetry_multiplicity
 _atom_site_fract_x
 _atom_site_fract_y
 _atom_site_fract_z
 _atom_site_occupancy
  Cs  Cs0  1  0.82304196  0.11332632  0.16285500  1
  Cs  Cs1  1  0.17695804  0.88667368  0.83714500  1
  Y  Y0  1  0.50000000  0.50000000  0.00000000  1
  Y  Y1  1  0.00000000  0.50000000  0.50000000  1
  Te  Te0  1  0.21993246  0.00208647  0.42404370  1
  Te  Te1  1  0.78006754  0.99791353  0.57595630  1
  Te  Te2  1  0.09204255  0.69029119  0.15885260  1
  Te  Te3  1  0.90795745  0.30970881  0.84114740  1
  Te  Te4  1  0.50964700  0.52011709  0.33086877  1
  Te  Te5  1  0.49035300  0.47988291  0.66913123  1
  O  O0  1  0.18406327  0.75584990  0.42536389  1
  O  O1  1  0.81593673  0.24415010  0.57463611  1
  O  O2  1  0.23134431  0.94187208  0.24169726  1
  O  O3  1  0.76865569  0.05812792  0.75830274  1
  O  O4  1  0.89378548  0.96539894  0.40003998  1
  O  O5  1  0.10621452  0.03460106  0.59996002  1
  O  O6  1  0.31446476  0.70886452  0.04565373  1
  O  O7  1  0.68553524  0.29113548  0.95434627  1
  O  O8  1  0.85597727  0.72109197  0.07373582  1
  O  O9  1  0.14402273  0.27890803  0.92626418  1
  O  O10  1  0.41142898  0.41959791  0.17372115  1
  O  O11  1  0.58857102  0.58040209  0.82627885  1
  O  O12  1  0.24105107  0.37035748  0.39721144  1
  O  O13  1  0.75894893  0.62964252  0.60278856  1
  O  O14  1  0.71691874  0.39901182  0.35028311  1
  O  O15  1  0.28308126  0.60098818  0.64971689  1
loop_
_geom_bond_atom_site_label_1
_geom_bond_atom_site_label_2
_geom_bond_distance
_geom_bond_site_symmetry_2
Cs0 O14 3.062657 1_555
Cs0 O8 3.131524 1_545
Cs0 O7 3.265926 1_554
Cs0 O4 3.274929 1_545
Cs0 O2 3.414096 1_645
Cs0 O10 3.477981 1_655
Cs0 O2 3.508077 1_545
Cs0 O12 3.509284 1_655
Cs0 O9 3.519715 1_654
Cs0 O6 3.571000 1_545
Cs1 O15 3.062657 1_555
Cs1 O9 3.131524 1_565
Cs1 O6 3.265926 1_556
Cs1 O5 3.274929 1_565
Cs1 O3 3.414096 1_465
Cs1 O11 3.477981 1_455
Cs1 O3 3.508077 1_565
Cs1 O13 3.509284 1_455
Cs1 O8 3.519715 1_456
Cs1 O7 3.571000 1_565
O0 Te0 1.862763 1_565
O0 Y1 2.236451 1_555
O1 Te1 1.862763 1_545
O1 Y1 2.236451 1_655
O2 Te2 1.904778 1_555
O2 Te0 2.094031 1_565
O3 Te3 1.904778 1_555
O3 Te1 2.094031 1_545
O4 Te0 1.901687 1_665
O4 Te1 2.152250 1_555
O5 Te1 1.901687 1_445
O5 Te0 2.152250 1_555
O6 Te2 1.857195 1_555
O6 Y0 2.282915 1_555
O7 Te3 1.857195 1_555
O7 Y0 2.282915 1_556
O8 Te2 1.857289 1_655
O8 Y0 2.268227 1_555
O9 Te3 1.857289 1_455
O9 Y0 2.268227 1_556
O10 Te4 1.863903 1_555
O10 Y0 2.230076 1_555
O11 Te5 1.863903 1_555
O11 Y0 2.230076 1_556
O12 Te4 1.877086 1_555
O12 Y1 2.273274 1_555
O13 Te5 1.877086 1_555
O13 Y1 2.273274 1_655
O14 Te4 1.862750 1_555
O14 Y1 2.273763 1_655
O15 Te5 1.862750 1_555
O15 Y1 2.273763 1_555
