# generated using pymatgen
data_CaHf(Si7Ir3)2
_symmetry_space_group_name_H-M   'P 1'
_cell_length_a   7.96963207
_cell_length_b   7.96963243
_cell_length_c   7.96963236
_cell_angle_alpha   56.56896178
_cell_angle_beta   56.56896989
_cell_angle_gamma   56.56896629
_symmetry_Int_Tables_number   1
_chemical_formula_structural   CaHf(Si7Ir3)2
_chemical_formula_sum   'Ca1 Hf1 Si14 Ir6'
_cell_volume   329.55554175
_cell_formula_units_Z   1
loop_
 _symmetry_equiv_pos_site_id
 _symmetry_equiv_pos_as_xyz
  1  'x, y, z'
loop_
 _atom_site_type_symbol
 _atom_site_label
 _atom_site_symmetry_multiplicity
 _atom_site_fract_x
 _atom_site_fract_y
 _atom_site_fract_z
 _atom_site_occupancy
  Ca  Ca0  1  0.50000000  0.50000000  0.50000000  1
  Hf  Hf0  1  0.00000000  0.00000000  0.00000000  1
  Si  Si0  1  0.74872522  0.74872522  0.74872522  1
  Si  Si1  1  0.25127478  0.25127478  0.25127478  1
  Si  Si2  1  0.84886471  0.06128976  0.67398034  1
  Si  Si3  1  0.67398034  0.84886471  0.06128976  1
  Si  Si4  1  0.06128976  0.67398034  0.84886471  1
  Si  Si5  1  0.64819089  0.82675867  0.43559761  1
  Si  Si6  1  0.43559761  0.64819089  0.82675867  1
  Si  Si7  1  0.82675867  0.43559761  0.64819089  1
  Si  Si8  1  0.17324133  0.56440239  0.35180911  1
  Si  Si9  1  0.56440239  0.35180911  0.17324133  1
  Si  Si10  1  0.35180911  0.17324133  0.56440239  1
  Si  Si11  1  0.93871024  0.32601966  0.15113529  1
  Si  Si12  1  0.32601966  0.15113529  0.93871024  1
  Si  Si13  1  0.15113529  0.93871024  0.32601966  1
  Ir  Ir0  1  0.06727451  0.42172374  0.75604260  1
  Ir  Ir1  1  0.24395740  0.93272549  0.57827626  1
  Ir  Ir2  1  0.57827626  0.24395740  0.93272549  1
  Ir  Ir3  1  0.93272549  0.57827626  0.24395740  1
  Ir  Ir4  1  0.42172374  0.75604260  0.06727451  1
  Ir  Ir5  1  0.75604260  0.06727451  0.42172374  1
loop_
_geom_bond_atom_site_label_1
_geom_bond_atom_site_label_2
_geom_bond_distance
_geom_bond_site_symmetry_2
Ca0 Ir2 3.108082 1_555
Ca0 Ir4 3.108082 1_555
Ca0 Ir3 3.108082 1_555
Ca0 Ir0 3.108082 1_555
Ca0 Ir1 3.108083 1_555
Ca0 Ir5 3.108083 1_555
Ca0 Si7 3.112557 1_555
Ca0 Si8 3.112557 1_555
Ca0 Si5 3.112557 1_555
Ca0 Si10 3.112557 1_555
Ca0 Si6 3.112557 1_555
Ca0 Si9 3.112557 1_555
Ca0 Si2 3.173652 1_555
Ca0 Si13 3.173652 1_555
Ca0 Si3 3.173652 1_555
Ca0 Si12 3.173652 1_555
Ca0 Si4 3.173652 1_555
Ca0 Si11 3.173652 1_555
Hf0 Ir4 3.000082 1_545
Hf0 Ir2 3.000082 1_454
Hf0 Ir0 3.000082 1_554
Hf0 Ir3 3.000082 1_445
Hf0 Ir5 3.000083 1_455
Hf0 Ir1 3.000083 1_544
Hf0 Si13 3.137199 1_545
Hf0 Si2 3.137199 1_454
Hf0 Si12 3.137199 1_554
Hf0 Si3 3.137199 1_445
Hf0 Si11 3.137199 1_455
Hf0 Si4 3.137199 1_544
Hf0 Si8 3.174629 1_545
Hf0 Si7 3.174629 1_454
Hf0 Si10 3.174630 1_554
Hf0 Si5 3.174630 1_445
Hf0 Si9 3.174630 1_455
Hf0 Si6 3.174630 1_544
Si0 Si5 2.683346 1_555
Si0 Si6 2.683346 1_555
Si0 Si7 2.683346 1_555
Si0 Si4 2.688613 1_655
Si0 Si2 2.688614 1_565
Si0 Si3 2.688614 1_556
Si1 Si10 2.683346 1_555
Si1 Si9 2.683346 1_555
Si1 Si8 2.683346 1_555
Si1 Si11 2.688613 1_455
Si1 Si13 2.688614 1_545
Si1 Si12 2.688614 1_554
Si2 Si4 2.537328 1_645
Si2 Si3 2.537328 1_546
Si2 Si7 2.785206 1_555
Si3 Si4 2.537328 1_654
Si3 Si5 2.785206 1_555
Si4 Si6 2.785206 1_555
Si5 Si7 2.561782 1_555
Si5 Si6 2.561782 1_555
Si6 Si7 2.561782 1_555
Si6 Si9 2.742779 1_556
Si7 Si8 2.742779 1_655
Si8 Si9 2.561782 1_555
Si10 Si8 2.561782 1_555
Si10 Si9 2.561782 1_555
Si10 Si5 2.742779 1_545
Si10 Si12 2.785206 1_555
Si11 Si13 2.537328 1_645
Si11 Si12 2.537328 1_654
Si11 Si4 2.734742 1_654
Si11 Si9 2.785206 1_555
Si12 Si13 2.537328 1_546
Si12 Si3 2.734742 1_546
Si13 Si2 2.734742 1_465
Si13 Si8 2.785206 1_555
Ir0 Si7 2.429486 1_455
Ir0 Si0 2.438395 1_455
Ir0 Si10 2.442307 1_555
Ir0 Si12 2.443514 1_555
Ir0 Si4 2.466852 1_555
Ir0 Si11 2.491208 1_456
Ir0 Si8 2.531544 1_555
Ir1 Si10 2.429486 1_565
Ir1 Si1 2.438394 1_565
Ir1 Si6 2.442307 1_555
Ir1 Si4 2.443514 1_555
Ir1 Si13 2.466852 1_555
Ir1 Si2 2.491208 1_465
Ir1 Si5 2.531544 1_555
Ir2 Si9 2.429487 1_556
Ir2 Si1 2.438395 1_556
Ir2 Si7 2.442307 1_555
Ir2 Si2 2.443514 1_555
Ir2 Si12 2.466852 1_555
Ir2 Si3 2.491208 1_546
Ir2 Si6 2.531544 1_555
Ir3 Si8 2.429486 1_655
Ir3 Si1 2.438395 1_655
Ir3 Si5 2.442307 1_555
Ir3 Si3 2.443514 1_555
Ir3 Si11 2.466852 1_555
Ir3 Si4 2.491208 1_654
Ir3 Si7 2.531544 1_555
Ir4 Si6 2.429487 1_554
Ir4 Si0 2.438395 1_554
Ir4 Si8 2.442307 1_555
Ir4 Si13 2.443514 1_555
Ir4 Si3 2.466852 1_555
Ir4 Si12 2.491208 1_564
Ir4 Si9 2.531544 1_555
Ir5 Si5 2.429486 1_545
Ir5 Si0 2.438394 1_545
Ir5 Si9 2.442307 1_555
Ir5 Si11 2.443514 1_555
Ir5 Si2 2.466852 1_555
Ir5 Si13 2.491208 1_645
Ir5 Si10 2.531544 1_555
