# generated using pymatgen
data_Sr2B4Ir3Rh
_symmetry_space_group_name_H-M   'P 1'
_cell_length_a   7.13662640
_cell_length_b   6.15643566
_cell_length_c   5.58644746
_cell_angle_alpha   74.67572375
_cell_angle_beta   56.30290931
_cell_angle_gamma   49.38341148
_symmetry_Int_Tables_number   1
_chemical_formula_structural   Sr2B4Ir3Rh
_chemical_formula_sum   'Sr2 B4 Ir3 Rh1'
_cell_volume   153.17541272
_cell_formula_units_Z   1
loop_
 _symmetry_equiv_pos_site_id
 _symmetry_equiv_pos_as_xyz
  1  'x, y, z'
loop_
 _atom_site_type_symbol
 _atom_site_label
 _atom_site_symmetry_multiplicity
 _atom_site_fract_x
 _atom_site_fract_y
 _atom_site_fract_z
 _atom_site_occupancy
  Sr  Sr0  1  0.99930786  0.99930786  0.00069214  1
  Sr  Sr1  1  0.25320255  0.25320255  0.24679745  1
  B  B0  1  0.32096476  0.68206146  0.32917577  1
  B  B1  1  0.57676096  0.92085811  0.57898521  1
  B  B2  1  0.68206146  0.32096476  0.66779900  1
  B  B3  1  0.92085811  0.57676096  0.92339672  1
  Ir  Ir0  1  0.63033772  0.63033772  0.36966228  1
  Ir  Ir1  1  0.87971675  0.87971675  0.62028325  1
  Ir  Ir2  1  0.61758577  0.61758577  0.88241423  1
  Rh  Rh0  1  0.36920404  0.36920404  0.63079596  1
loop_
_geom_bond_atom_site_label_1
_geom_bond_atom_site_label_2
_geom_bond_distance
_geom_bond_site_symmetry_2
Sr0 Sr1 3.855144 1_655
Sr0 Sr1 3.855144 1_565
B0 Ir1 2.101491 1_455
B0 Ir2 2.105946 1_554
B0 Ir0 2.151265 1_555
B0 Rh0 2.175413 1_555
B0 Sr0 3.064955 1_455
B0 Sr1 3.157227 1_555
B0 Sr1 3.160221 1_565
B0 Sr0 3.411315 1_456
B0 Sr0 3.492479 1_545
B1 Ir0 2.105133 1_555
B1 Rh0 2.126014 1_565
B1 Ir1 2.145130 1_555
B1 Ir2 2.147349 1_555
B1 Sr1 3.091713 1_565
B1 Sr0 3.162869 1_456
B1 Sr0 3.166283 1_555
B1 Sr1 3.429424 1_566
B1 Sr1 3.449623 1_655
B2 Ir1 2.101492 1_545
B2 Ir2 2.105943 1_555
B2 Ir0 2.151268 1_555
B2 Rh0 2.175417 1_555
B2 Sr0 3.064950 1_546
B2 Sr1 3.157224 1_556
B2 Sr1 3.160221 1_655
B2 Sr0 3.411319 1_545
B2 Sr0 3.492479 1_456
B3 Ir0 2.105129 1_556
B3 Rh0 2.126015 1_655
B3 Ir1 2.145133 1_555
B3 Ir2 2.147353 1_555
B3 Sr1 3.091709 1_656
B3 Sr0 3.162870 1_546
B3 Sr0 3.166281 1_556
B3 Sr1 3.429429 1_655
B3 Sr1 3.449623 1_566
Ir0 Sr1 3.104935 1_565
Ir0 Sr1 3.104935 1_655
Ir0 Sr0 3.341542 1_456
Ir0 Sr0 3.341542 1_545
Ir1 Sr0 3.073172 1_555
Ir1 Sr0 3.073173 1_556
Ir1 Sr1 3.321499 1_566
Ir1 Sr1 3.321499 1_655
Ir2 Sr0 3.084414 1_546
Ir2 Sr0 3.084414 1_456
Ir2 Sr1 3.362491 1_655
Ir2 Sr1 3.362491 1_566
Rh0 Sr1 3.057332 1_556
Rh0 Sr1 3.057332 1_555
Rh0 Sr0 3.337384 1_545
Rh0 Sr0 3.337384 1_456
