# generated using pymatgen
data_CsTcP2Pd
_symmetry_space_group_name_H-M   'P 1'
_cell_length_a   15.64177636
_cell_length_b   15.64177744
_cell_length_c   15.64177495
_cell_angle_alpha   150.32754530
_cell_angle_beta   150.32755254
_cell_angle_gamma   42.46080859
_symmetry_Int_Tables_number   1
_chemical_formula_structural   CsTcP2Pd
_chemical_formula_sum   'Cs8 Tc8 P16 Pd8'
_cell_volume   935.55380080
_cell_formula_units_Z   8
loop_
 _symmetry_equiv_pos_site_id
 _symmetry_equiv_pos_as_xyz
  1  'x, y, z'
loop_
 _atom_site_type_symbol
 _atom_site_label
 _atom_site_symmetry_multiplicity
 _atom_site_fract_x
 _atom_site_fract_y
 _atom_site_fract_z
 _atom_site_occupancy
  Cs  Cs0_0  1  0.00000000  0.00000000  0.00000000  1
  Cs  Cs0_1  1  0.00000000  0.00000000  0.50000000  1
  Cs  Cs0_2  1  0.00000000  0.50000000  0.00000000  1
  Cs  Cs0_3  1  0.00000000  0.50000000  0.50000000  1
  Cs  Cs0_4  1  0.50000000  0.00000000  0.00000000  1
  Cs  Cs0_5  1  0.50000000  0.00000000  0.50000000  1
  Cs  Cs0_6  1  0.50000000  0.50000000  1.00000000  1
  Cs  Cs0_7  1  0.50000000  0.50000000  0.50000000  1
  Tc  Tc0_0  1  0.37500000  0.12500000  0.25000000  1
  Tc  Tc0_1  1  0.37500000  0.12500000  0.75000000  1
  Tc  Tc0_2  1  0.37500000  0.62500000  0.25000000  1
  Tc  Tc0_3  1  0.37500000  0.62500000  0.75000000  1
  Tc  Tc0_4  1  0.87500000  0.12500000  0.25000000  1
  Tc  Tc0_5  1  0.87500000  0.12500000  0.75000000  1
  Tc  Tc0_6  1  0.87500000  0.62500000  0.25000000  1
  Tc  Tc0_7  1  0.87500000  0.62500000  0.75000000  1
  P  P0_0  1  0.16766358  0.16766358  0.00000000  1
  P  P0_1  1  0.16766358  0.16766358  0.50000000  1
  P  P0_2  1  0.16766358  0.66766358  0.00000000  1
  P  P0_3  1  0.16766358  0.66766358  0.50000000  1
  P  P0_4  1  0.66766358  0.16766358  0.00000000  1
  P  P0_5  1  0.66766358  0.16766358  0.50000000  1
  P  P0_6  1  0.66766358  0.66766358  0.00000000  1
  P  P0_7  1  0.66766358  0.66766358  0.50000000  1
  P  P1_0  1  0.33233642  0.33233642  0.50000000  1
  P  P1_1  1  0.33233642  0.33233642  1.00000000  1
  P  P1_2  1  0.33233642  0.83233642  0.50000000  1
  P  P1_3  1  0.33233642  0.83233642  1.00000000  1
  P  P1_4  1  0.83233642  0.33233642  0.50000000  1
  P  P1_5  1  0.83233642  0.33233642  1.00000000  1
  P  P1_6  1  0.83233642  0.83233642  0.50000000  1
  P  P1_7  1  0.83233642  0.83233642  1.00000000  1
  Pd  Pd0_0  1  0.12500000  0.37500000  0.25000000  1
  Pd  Pd0_1  1  0.12500000  0.37500000  0.75000000  1
  Pd  Pd0_2  1  0.12500000  0.87500000  0.25000000  1
  Pd  Pd0_3  1  0.12500000  0.87500000  0.75000000  1
  Pd  Pd0_4  1  0.62500000  0.37500000  0.25000000  1
  Pd  Pd0_5  1  0.62500000  0.37500000  0.75000000  1
  Pd  Pd0_6  1  0.62500000  0.87500000  0.25000000  1
  Pd  Pd0_7  1  0.62500000  0.87500000  0.75000000  1
loop_
_geom_bond_atom_site_label_1
_geom_bond_atom_site_label_2
_geom_bond_distance
_geom_bond_site_symmetry_2
Cs0_0 P1_6 3.712866 1_444
Cs0_0 P0_1 3.712866 1_555
Cs0_0 P1_3 3.712867 1_544
Cs0_0 P0_4 3.712867 1_455
Cs0_0 P1_5 3.712867 1_454
Cs0_0 P0_2 3.712867 1_545
Cs0_0 P1_0 3.712867 1_555
Cs0_0 P0_7 3.712867 1_444
Cs0_0 Cs0_5 4.005185 1_555
Cs0_0 Cs0_5 4.005185 1_454
Cs0_0 Cs0_3 4.005187 1_544
Cs0_0 Cs0_3 4.005187 1_555
Cs0_1 P1_7 3.712866 1_444
Cs0_1 P0_0 3.712866 1_556
Cs0_1 P1_2 3.712867 1_545
Cs0_1 P0_5 3.712867 1_455
Cs0_1 P1_4 3.712867 1_455
Cs0_1 P0_3 3.712867 1_545
Cs0_1 P1_1 3.712867 1_555
Cs0_1 P0_6 3.712867 1_445
Cs0_1 Cs0_4 4.005185 1_556
Cs0_1 Cs0_4 4.005185 1_455
Cs0_1 Cs0_2 4.005187 1_556
Cs0_1 Cs0_2 4.005187 1_545
Cs0_2 P1_4 3.712866 1_454
Cs0_2 P0_3 3.712866 1_555
Cs0_2 P1_1 3.712867 1_554
Cs0_2 P0_6 3.712867 1_455
Cs0_2 P1_7 3.712867 1_454
Cs0_2 P0_0 3.712867 1_555
Cs0_2 P1_2 3.712867 1_555
Cs0_2 P0_5 3.712867 1_454
Cs0_2 Cs0_7 4.005185 1_555
Cs0_2 Cs0_7 4.005185 1_454
Cs0_3 P1_5 3.712866 1_454
Cs0_3 P0_2 3.712866 1_556
Cs0_3 P1_0 3.712867 1_555
Cs0_3 P0_7 3.712867 1_455
Cs0_3 P1_6 3.712867 1_455
Cs0_3 P0_1 3.712867 1_555
Cs0_3 P1_3 3.712867 1_555
Cs0_3 P0_4 3.712867 1_455
Cs0_3 Cs0_6 4.005185 1_555
Cs0_3 Cs0_6 4.005185 1_454
Cs0_4 P1_2 3.712866 1_544
Cs0_4 P0_5 3.712866 1_555
Cs0_4 P1_7 3.712867 1_544
Cs0_4 P0_0 3.712867 1_555
Cs0_4 P1_1 3.712867 1_554
Cs0_4 P0_6 3.712867 1_545
Cs0_4 P1_4 3.712867 1_555
Cs0_4 P0_3 3.712867 1_544
Cs0_4 Cs0_7 4.005187 1_555
Cs0_4 Cs0_7 4.005187 1_544
Cs0_5 P1_3 3.712866 1_544
Cs0_5 P0_4 3.712866 1_556
Cs0_5 P1_6 3.712867 1_545
Cs0_5 P0_1 3.712867 1_555
Cs0_5 P1_0 3.712867 1_555
Cs0_5 P0_7 3.712867 1_545
Cs0_5 P1_5 3.712867 1_555
Cs0_5 P0_2 3.712867 1_545
Cs0_5 Cs0_6 4.005187 1_555
Cs0_5 Cs0_6 4.005187 1_544
Cs0_6 P1_0 3.712866 1_555
Cs0_6 P0_7 3.712866 1_556
Cs0_6 P1_5 3.712867 1_555
Cs0_6 P0_2 3.712867 1_556
Cs0_6 P1_3 3.712867 1_555
Cs0_6 P0_4 3.712867 1_556
Cs0_6 P1_6 3.712867 1_556
Cs0_6 P0_1 3.712867 1_555
Cs0_7 P1_1 3.712866 1_554
Cs0_7 P0_6 3.712866 1_556
Cs0_7 P1_4 3.712867 1_555
Cs0_7 P0_3 3.712867 1_555
Cs0_7 P1_2 3.712867 1_555
Cs0_7 P0_5 3.712867 1_555
Cs0_7 P1_7 3.712867 1_555
Cs0_7 P0_0 3.712867 1_555
P0_0 Tc0_0 2.357568 1_555
P0_0 Pd0_0 2.357569 1_555
P0_0 Tc0_5 2.357569 1_454
P0_0 Pd0_3 2.357569 1_544
P0_1 Tc0_1 2.357568 1_555
P0_1 Pd0_1 2.357569 1_555
P0_1 Tc0_4 2.357569 1_455
P0_1 Pd0_2 2.357569 1_545
P0_2 Tc0_2 2.357568 1_555
P0_2 Pd0_2 2.357569 1_555
P0_2 Tc0_7 2.357569 1_454
P0_2 Pd0_1 2.357569 1_554
P0_3 Tc0_3 2.357568 1_555
P0_3 Pd0_3 2.357569 1_555
P0_3 Tc0_6 2.357569 1_455
P0_3 Pd0_0 2.357569 1_555
P0_4 Tc0_4 2.357568 1_555
P0_4 Pd0_4 2.357569 1_555
P0_4 Tc0_1 2.357569 1_554
P0_4 Pd0_7 2.357569 1_544
P0_5 Tc0_5 2.357568 1_555
P0_5 Pd0_5 2.357569 1_555
P0_5 Tc0_0 2.357569 1_555
P0_5 Pd0_6 2.357569 1_545
P0_6 Tc0_6 2.357568 1_555
P0_6 Pd0_6 2.357569 1_555
P0_6 Tc0_3 2.357569 1_554
P0_6 Pd0_5 2.357569 1_554
P0_7 Tc0_7 2.357568 1_555
P0_7 Pd0_7 2.357569 1_555
P0_7 Tc0_2 2.357569 1_555
P0_7 Pd0_4 2.357569 1_555
P1_0 Pd0_0 2.357568 1_555
P1_0 Tc0_0 2.357569 1_555
P1_0 Pd0_5 2.357569 1_555
P1_0 Tc0_3 2.357569 1_555
P1_1 Pd0_1 2.357568 1_555
P1_1 Tc0_1 2.357569 1_555
P1_1 Pd0_4 2.357569 1_556
P1_1 Tc0_2 2.357569 1_556
P1_2 Pd0_2 2.357568 1_555
P1_2 Tc0_2 2.357569 1_555
P1_2 Pd0_7 2.357569 1_555
P1_2 Tc0_1 2.357569 1_565
P1_3 Pd0_3 2.357568 1_555
P1_3 Tc0_3 2.357569 1_555
P1_3 Pd0_6 2.357569 1_556
P1_3 Tc0_0 2.357569 1_566
P1_4 Pd0_4 2.357568 1_555
P1_4 Tc0_4 2.357569 1_555
P1_4 Pd0_1 2.357569 1_655
P1_4 Tc0_7 2.357569 1_555
P1_5 Pd0_5 2.357568 1_555
P1_5 Tc0_5 2.357569 1_555
P1_5 Pd0_0 2.357569 1_656
P1_5 Tc0_6 2.357569 1_556
P1_6 Pd0_6 2.357568 1_555
P1_6 Tc0_6 2.357569 1_555
P1_6 Pd0_3 2.357569 1_655
P1_6 Tc0_5 2.357569 1_565
P1_7 Pd0_7 2.357568 1_555
P1_7 Tc0_7 2.357569 1_555
P1_7 Pd0_2 2.357569 1_656
P1_7 Tc0_4 2.357569 1_566
Pd0_0 Tc0_5 2.832094 1_454
Pd0_0 Tc0_3 2.832094 1_555
Pd0_0 Tc0_0 2.832094 1_555
Pd0_0 Tc0_6 2.832094 1_455
Pd0_1 Tc0_4 2.832094 1_455
Pd0_1 Tc0_2 2.832094 1_556
Pd0_1 Tc0_7 2.832094 1_455
Pd0_1 Tc0_1 2.832094 1_555
Pd0_2 Tc0_7 2.832094 1_454
Pd0_2 Tc0_1 2.832094 1_565
Pd0_2 Tc0_4 2.832094 1_465
Pd0_2 Tc0_2 2.832094 1_555
Pd0_3 Tc0_6 2.832094 1_455
Pd0_3 Tc0_0 2.832094 1_566
Pd0_3 Tc0_3 2.832094 1_555
Pd0_3 Tc0_5 2.832094 1_465
Pd0_4 Tc0_1 2.832094 1_554
Pd0_4 Tc0_7 2.832094 1_555
Pd0_4 Tc0_4 2.832094 1_555
Pd0_4 Tc0_2 2.832094 1_555
Pd0_5 Tc0_6 2.832094 1_556
Pd0_5 Tc0_0 2.832094 1_555
Pd0_5 Tc0_3 2.832094 1_555
Pd0_5 Tc0_5 2.832094 1_555
Pd0_6 Tc0_5 2.832094 1_565
Pd0_6 Tc0_3 2.832094 1_554
Pd0_6 Tc0_0 2.832094 1_565
Pd0_6 Tc0_6 2.832094 1_555
Pd0_7 Tc0_2 2.832094 1_555
Pd0_7 Tc0_4 2.832094 1_566
Pd0_7 Tc0_1 2.832094 1_565
Pd0_7 Tc0_7 2.832094 1_555
