# generated using pymatgen
data_Zr4CoPtN
_symmetry_space_group_name_H-M   'P 1'
_cell_length_a   8.67331676
_cell_length_b   8.67331703
_cell_length_c   8.67331744
_cell_angle_alpha   60.00000218
_cell_angle_beta   60.00000117
_cell_angle_gamma   60.00000612
_symmetry_Int_Tables_number   1
_chemical_formula_structural   Zr4CoPtN
_chemical_formula_sum   'Zr16 Co4 Pt4 N4'
_cell_volume   461.36081282
_cell_formula_units_Z   4
loop_
 _symmetry_equiv_pos_site_id
 _symmetry_equiv_pos_as_xyz
  1  'x, y, z'
loop_
 _atom_site_type_symbol
 _atom_site_label
 _atom_site_symmetry_multiplicity
 _atom_site_fract_x
 _atom_site_fract_y
 _atom_site_fract_z
 _atom_site_occupancy
  Zr  Zr0  1  0.07467684  0.64177439  0.64177439  1
  Zr  Zr1  1  0.64177439  0.07467684  0.64177439  1
  Zr  Zr2  1  0.64177439  0.64177439  0.07467684  1
  Zr  Zr3  1  0.64177439  0.64177439  0.64177439  1
  Zr  Zr4  1  0.81534629  0.81534629  0.18465371  1
  Zr  Zr5  1  0.18465371  0.18465371  0.81534629  1
  Zr  Zr6  1  0.81534629  0.18465371  0.81534629  1
  Zr  Zr7  1  0.18465371  0.81534629  0.18465371  1
  Zr  Zr8  1  0.18465371  0.81534629  0.81534629  1
  Zr  Zr9  1  0.81534629  0.18465371  0.18465371  1
  Zr  Zr10  1  0.43490995  0.43490995  0.06509005  1
  Zr  Zr11  1  0.06509005  0.06509005  0.43490995  1
  Zr  Zr12  1  0.43490995  0.06509005  0.43490995  1
  Zr  Zr13  1  0.06509005  0.43490995  0.06509005  1
  Zr  Zr14  1  0.06509005  0.43490995  0.43490995  1
  Zr  Zr15  1  0.43490995  0.06509005  0.06509005  1
  Co  Co0  1  0.44094791  0.85301736  0.85301736  1
  Co  Co1  1  0.85301736  0.44094791  0.85301736  1
  Co  Co2  1  0.85301736  0.85301736  0.44094791  1
  Co  Co3  1  0.85301736  0.85301736  0.85301736  1
  Pt  Pt0  1  0.75361947  0.41545951  0.41545951  1
  Pt  Pt1  1  0.41545951  0.75361947  0.41545951  1
  Pt  Pt2  1  0.41545951  0.41545951  0.75361947  1
  Pt  Pt3  1  0.41545951  0.41545951  0.41545951  1
  N  N0  1  0.62353913  0.12548696  0.12548696  1
  N  N1  1  0.12548696  0.62353913  0.12548696  1
  N  N2  1  0.12548696  0.12548696  0.62353913  1
  N  N3  1  0.12548696  0.12548696  0.12548696  1
loop_
_geom_bond_atom_site_label_1
_geom_bond_atom_site_label_2
_geom_bond_distance
_geom_bond_site_symmetry_2
Zr0 Zr14 3.156383 1_555
Zr0 Zr11 3.156384 1_565
Zr0 Zr13 3.156384 1_556
Zr0 Zr8 3.252833 1_555
Zr0 Zr5 3.252833 1_555
Zr0 Zr7 3.252833 1_555
Zr1 Zr11 3.156383 1_655
Zr1 Zr12 3.156383 1_555
Zr1 Zr15 3.156384 1_556
Zr1 Zr6 3.252833 1_555
Zr1 Zr5 3.252833 1_555
Zr1 Zr9 3.252833 1_555
Zr2 Zr4 3.252833 1_555
Zr2 Zr7 3.252833 1_555
Zr2 Zr9 3.252833 1_555
Zr3 Zr8 3.252833 1_555
Zr3 Zr4 3.252833 1_555
Zr3 Zr6 3.252833 1_555
Zr10 Zr2 3.156383 1_555
Zr10 Zr3 3.156384 1_554
Zr12 Zr3 3.156384 1_545
Zr13 Zr2 3.156384 1_455
Zr14 Zr3 3.156384 1_455
Zr15 Zr2 3.156384 1_545
Co0 Zr8 2.591186 1_555
Co0 Zr7 2.591186 1_556
Co0 Zr5 2.591186 1_565
Co0 Zr1 2.592665 1_565
Co0 Zr3 2.592665 1_555
Co0 Zr2 2.592665 1_556
Co0 Zr15 3.155943 1_566
Co0 Zr10 3.155943 1_556
Co0 Zr12 3.155943 1_565
Co1 Zr6 2.591186 1_555
Co1 Zr9 2.591186 1_556
Co1 Zr5 2.591186 1_655
Co1 Zr0 2.592665 1_655
Co1 Zr3 2.592665 1_555
Co1 Zr2 2.592665 1_556
Co1 Zr10 3.155943 1_556
Co1 Zr13 3.155943 1_656
Co1 Zr14 3.155943 1_655
Co2 Zr7 2.591186 1_655
Co2 Zr4 2.591186 1_555
Co2 Zr9 2.591186 1_565
Co2 Zr3 2.592665 1_555
Co2 Zr0 2.592665 1_655
Co2 Zr1 2.592665 1_565
Co2 Zr11 3.155943 1_665
Co2 Zr12 3.155943 1_565
Co2 Zr14 3.155943 1_655
Co3 Zr8 2.591186 1_655
Co3 Zr6 2.591186 1_565
Co3 Zr4 2.591186 1_556
Co3 Zr2 2.592665 1_556
Co3 Zr0 2.592665 1_655
Co3 Zr1 2.592665 1_565
Co3 Zr11 3.155943 1_665
Co3 Zr15 3.155943 1_566
Co3 Zr13 3.155943 1_656
Pt0 Zr13 2.880072 1_655
Pt0 Zr11 2.880072 1_655
Pt0 Zr14 2.880081 1_655
Pt0 Pt3 2.932968 1_555
Pt0 Pt2 2.932969 1_555
Pt0 Pt1 2.932969 1_555
Pt0 Zr1 2.948150 1_555
Pt0 Zr2 2.948150 1_555
Pt0 Zr3 2.948165 1_555
Pt0 Zr9 3.188318 1_555
Pt0 Zr4 3.188333 1_555
Pt0 Zr6 3.188333 1_555
Pt1 Zr15 2.880072 1_565
Pt1 Zr11 2.880072 1_565
Pt1 Zr12 2.880081 1_565
Pt1 Pt3 2.932969 1_555
Pt1 Pt2 2.932969 1_555
Pt1 Zr0 2.948150 1_555
Pt1 Zr2 2.948150 1_555
Pt1 Zr3 2.948165 1_555
Pt1 Zr7 3.188318 1_555
Pt1 Zr4 3.188333 1_555
Pt1 Zr8 3.188333 1_555
Pt2 Zr13 2.880072 1_556
Pt2 Zr15 2.880072 1_556
Pt2 Zr10 2.880082 1_556
Pt2 Pt3 2.932969 1_555
Pt2 Zr0 2.948150 1_555
Pt2 Zr1 2.948150 1_555
Pt2 Zr3 2.948165 1_555
Pt2 Zr5 3.188318 1_555
Pt2 Zr6 3.188333 1_555
Pt2 Zr8 3.188333 1_555
Pt3 Zr14 2.880064 1_555
Pt3 Zr12 2.880064 1_555
Pt3 Zr10 2.880064 1_555
Pt3 Zr2 2.948159 1_555
Pt3 Zr0 2.948159 1_555
Pt3 Zr1 2.948159 1_555
Pt3 Zr5 3.188326 1_555
Pt3 Zr9 3.188326 1_555
Pt3 Zr7 3.188326 1_555
N0 Zr15 2.283399 1_555
N0 Zr12 2.283399 1_555
N0 Zr10 2.283399 1_555
N0 Zr9 2.294569 1_555
N0 Zr6 2.294569 1_554
N0 Zr4 2.294569 1_545
N1 Zr13 2.283399 1_555
N1 Zr10 2.283399 1_555
N1 Zr14 2.283399 1_555
N1 Zr7 2.294569 1_555
N1 Zr4 2.294569 1_455
N1 Zr8 2.294569 1_554
N2 Zr11 2.283399 1_555
N2 Zr12 2.283399 1_555
N2 Zr14 2.283399 1_555
N2 Zr5 2.294569 1_555
N2 Zr6 2.294569 1_455
N2 Zr8 2.294569 1_545
N3 Zr15 2.283399 1_555
N3 Zr13 2.283399 1_555
N3 Zr11 2.283399 1_555
N3 Zr9 2.294569 1_455
N3 Zr7 2.294569 1_545
N3 Zr5 2.294569 1_554
