# generated using pymatgen
data_Sr2AuN
_symmetry_space_group_name_H-M   'P 1'
_cell_length_a   19.58304113
_cell_length_b   19.58304113
_cell_length_c   10.60907600
_cell_angle_alpha   90.00000000
_cell_angle_beta   90.00000000
_cell_angle_gamma   157.66972448
_symmetry_Int_Tables_number   1
_chemical_formula_structural   Sr2AuN
_chemical_formula_sum   'Sr32 Au16 N16'
_cell_volume   1545.81871093
_cell_formula_units_Z   16
loop_
 _symmetry_equiv_pos_site_id
 _symmetry_equiv_pos_as_xyz
  1  'x, y, z'
loop_
 _atom_site_type_symbol
 _atom_site_label
 _atom_site_symmetry_multiplicity
 _atom_site_fract_x
 _atom_site_fract_y
 _atom_site_fract_z
 _atom_site_occupancy
  Sr  Sr0_0  1  0.10713650  0.39286350  0.37500000  1
  Sr  Sr0_1  1  0.10713650  0.39286350  0.87500000  1
  Sr  Sr0_2  1  0.10713650  0.89286350  0.37500000  1
  Sr  Sr0_3  1  0.10713650  0.89286350  0.87500000  1
  Sr  Sr0_4  1  0.60713650  0.39286350  0.37500000  1
  Sr  Sr0_5  1  0.60713650  0.39286350  0.87500000  1
  Sr  Sr0_6  1  0.60713650  0.89286350  0.37500000  1
  Sr  Sr0_7  1  0.60713650  0.89286350  0.87500000  1
  Sr  Sr1_0  1  0.39286350  0.10713650  0.12500000  1
  Sr  Sr1_1  1  0.39286350  0.10713650  0.62500000  1
  Sr  Sr1_2  1  0.39286350  0.60713650  0.12500000  1
  Sr  Sr1_3  1  0.39286350  0.60713650  0.62500000  1
  Sr  Sr1_4  1  0.89286350  0.10713650  0.12500000  1
  Sr  Sr1_5  1  0.89286350  0.10713650  0.62500000  1
  Sr  Sr1_6  1  0.89286350  0.60713650  0.12500000  1
  Sr  Sr1_7  1  0.89286350  0.60713650  0.62500000  1
  Sr  Sr2_0  1  0.30048200  0.19951800  0.12500000  1
  Sr  Sr2_1  1  0.30048200  0.19951800  0.62500000  1
  Sr  Sr2_2  1  0.30048200  0.69951800  0.12500000  1
  Sr  Sr2_3  1  0.30048200  0.69951800  0.62500000  1
  Sr  Sr2_4  1  0.80048200  0.19951800  0.12500000  1
  Sr  Sr2_5  1  0.80048200  0.19951800  0.62500000  1
  Sr  Sr2_6  1  0.80048200  0.69951800  0.12500000  1
  Sr  Sr2_7  1  0.80048200  0.69951800  0.62500000  1
  Sr  Sr3_0  1  0.19951800  0.30048200  0.37500000  1
  Sr  Sr3_1  1  0.19951800  0.30048200  0.87500000  1
  Sr  Sr3_2  1  0.19951800  0.80048200  0.37500000  1
  Sr  Sr3_3  1  0.19951800  0.80048200  0.87500000  1
  Sr  Sr3_4  1  0.69951800  0.30048200  0.37500000  1
  Sr  Sr3_5  1  0.69951800  0.30048200  0.87500000  1
  Sr  Sr3_6  1  0.69951800  0.80048200  0.37500000  1
  Sr  Sr3_7  1  0.69951800  0.80048200  0.87500000  1
  Au  Au0_0  1  0.01992900  0.48007100  0.37500000  1
  Au  Au0_1  1  0.01992900  0.48007100  0.87500000  1
  Au  Au0_2  1  0.01992900  0.98007100  0.37500000  1
  Au  Au0_3  1  0.01992900  0.98007100  0.87500000  1
  Au  Au0_4  1  0.51992900  0.48007100  0.37500000  1
  Au  Au0_5  1  0.51992900  0.48007100  0.87500000  1
  Au  Au0_6  1  0.51992900  0.98007100  0.37500000  1
  Au  Au0_7  1  0.51992900  0.98007100  0.87500000  1
  Au  Au1_0  1  0.48007100  0.01992900  0.12500000  1
  Au  Au1_1  1  0.48007100  0.01992900  0.62500000  1
  Au  Au1_2  1  0.48007100  0.51992900  0.12500000  1
  Au  Au1_3  1  0.48007100  0.51992900  0.62500000  1
  Au  Au1_4  1  0.98007100  0.01992900  0.12500000  1
  Au  Au1_5  1  0.98007100  0.01992900  0.62500000  1
  Au  Au1_6  1  0.98007100  0.51992900  0.12500000  1
  Au  Au1_7  1  0.98007100  0.51992900  0.62500000  1
  N  N0_0  1  0.09646200  0.40353800  0.12500000  1
  N  N0_1  1  0.09646200  0.40353800  0.62500000  1
  N  N0_2  1  0.09646200  0.90353800  0.12500000  1
  N  N0_3  1  0.09646200  0.90353800  0.62500000  1
  N  N0_4  1  0.59646200  0.40353800  0.12500000  1
  N  N0_5  1  0.59646200  0.40353800  0.62500000  1
  N  N0_6  1  0.59646200  0.90353800  0.12500000  1
  N  N0_7  1  0.59646200  0.90353800  0.62500000  1
  N  N1_0  1  0.40353800  0.09646200  0.37500000  1
  N  N1_1  1  0.40353800  0.09646200  0.87500000  1
  N  N1_2  1  0.40353800  0.59646200  0.37500000  1
  N  N1_3  1  0.40353800  0.59646200  0.87500000  1
  N  N1_4  1  0.90353800  0.09646200  0.37500000  1
  N  N1_5  1  0.90353800  0.09646200  0.87500000  1
  N  N1_6  1  0.90353800  0.59646200  0.37500000  1
  N  N1_7  1  0.90353800  0.59646200  0.87500000  1
loop_
_geom_bond_atom_site_label_1
_geom_bond_atom_site_label_2
_geom_bond_distance
_geom_bond_site_symmetry_2
Au0_0 Au1_6 3.062700 1_455
Au0_0 Au1_7 3.062700 1_455
Au0_0 Sr3_2 3.303743 1_555
Au0_0 Sr3_4 3.303743 1_455
Au0_0 Sr0_0 3.350930 1_555
Au0_0 Sr2_4 3.465202 1_455
Au0_0 Sr2_2 3.465202 1_555
Au0_0 Sr2_5 3.465202 1_455
Au0_0 Sr2_3 3.465202 1_555
Au0_0 Au0_6 3.792010 1_445
Au0_0 Au0_6 3.792010 1_555
Au0_1 Au1_7 3.062700 1_455
Au0_1 Au1_6 3.062700 1_456
Au0_1 Sr3_5 3.303743 1_455
Au0_1 Sr3_3 3.303743 1_555
Au0_1 Sr0_1 3.350930 1_555
Au0_1 Sr2_3 3.465202 1_555
Au0_1 Sr2_5 3.465202 1_455
Au0_1 Sr2_2 3.465202 1_556
Au0_1 Sr2_4 3.465202 1_456
Au0_1 Au0_7 3.792010 1_445
Au0_1 Au0_7 3.792010 1_555
Au0_2 Au1_4 3.062700 1_465
Au0_2 Au1_5 3.062700 1_465
Au0_2 Sr3_0 3.303743 1_565
Au0_2 Sr3_6 3.303743 1_455
Au0_2 Sr0_2 3.350930 1_555
Au0_2 Sr2_0 3.465202 1_565
Au0_2 Sr2_1 3.465202 1_565
Au0_2 Sr2_6 3.465202 1_455
Au0_2 Sr2_7 3.465202 1_455
Au0_2 Au0_4 3.792010 1_455
Au0_2 Au0_4 3.792010 1_565
Au0_3 Au1_5 3.062700 1_465
Au0_3 Au1_4 3.062700 1_466
Au0_3 Sr3_1 3.303743 1_565
Au0_3 Sr3_7 3.303743 1_455
Au0_3 Sr0_3 3.350930 1_555
Au0_3 Sr2_1 3.465202 1_565
Au0_3 Sr2_7 3.465202 1_455
Au0_3 Sr2_0 3.465202 1_566
Au0_3 Sr2_6 3.465202 1_456
Au0_3 Au0_5 3.792010 1_455
Au0_3 Au0_5 3.792010 1_565
Au0_4 Au1_2 3.062700 1_555
Au0_4 Au1_3 3.062700 1_555
Au0_4 Sr3_0 3.303743 1_555
Au0_4 Sr3_6 3.303743 1_555
Au0_4 Sr0_4 3.350930 1_555
Au0_4 Sr2_0 3.465202 1_555
Au0_4 Sr2_6 3.465202 1_555
Au0_4 Sr2_1 3.465202 1_555
Au0_4 Sr2_7 3.465202 1_555
Au0_5 Au1_3 3.062700 1_555
Au0_5 Au1_2 3.062700 1_556
Au0_5 Sr3_1 3.303743 1_555
Au0_5 Sr3_7 3.303743 1_555
Au0_5 Sr0_5 3.350930 1_555
Au0_5 Sr2_1 3.465202 1_555
Au0_5 Sr2_7 3.465202 1_555
Au0_5 Sr2_0 3.465202 1_556
Au0_5 Sr2_6 3.465202 1_556
Au0_6 Au1_0 3.062700 1_565
Au0_6 Au1_1 3.062700 1_565
Au0_6 Sr3_2 3.303743 1_555
Au0_6 Sr3_4 3.303743 1_565
Au0_6 Sr0_6 3.350930 1_555
Au0_6 Sr2_4 3.465202 1_565
Au0_6 Sr2_2 3.465202 1_555
Au0_6 Sr2_5 3.465202 1_565
Au0_6 Sr2_3 3.465202 1_555
Au0_7 Au1_1 3.062700 1_565
Au0_7 Au1_0 3.062700 1_566
Au0_7 Sr3_3 3.303743 1_555
Au0_7 Sr3_5 3.303743 1_565
Au0_7 Sr0_7 3.350930 1_555
Au0_7 Sr2_5 3.465202 1_565
Au0_7 Sr2_3 3.465202 1_555
Au0_7 Sr2_4 3.465202 1_566
Au0_7 Sr2_2 3.465202 1_556
Au1_0 Sr2_2 3.303743 1_545
Au1_0 Sr2_4 3.303743 1_555
Au1_0 Sr1_0 3.350930 1_555
Au1_0 Sr3_2 3.465202 1_545
Au1_0 Sr3_4 3.465202 1_555
Au1_0 Sr3_3 3.465202 1_544
Au1_0 Sr3_5 3.465202 1_554
Au1_0 Au1_6 3.792010 1_445
Au1_0 Au1_6 3.792010 1_555
Au1_1 Sr2_3 3.303743 1_545
Au1_1 Sr2_5 3.303743 1_555
Au1_1 Sr1_1 3.350930 1_555
Au1_1 Sr3_3 3.465202 1_545
Au1_1 Sr3_5 3.465202 1_555
Au1_1 Sr3_2 3.465202 1_545
Au1_1 Sr3_4 3.465202 1_555
Au1_1 Au1_7 3.792010 1_445
Au1_1 Au1_7 3.792010 1_555
Au1_2 Sr2_0 3.303743 1_555
Au1_2 Sr2_6 3.303743 1_555
Au1_2 Sr1_2 3.350930 1_555
Au1_2 Sr3_0 3.465202 1_555
Au1_2 Sr3_6 3.465202 1_555
Au1_2 Sr3_1 3.465202 1_554
Au1_2 Sr3_7 3.465202 1_554
Au1_2 Au1_4 3.792010 1_455
Au1_2 Au1_4 3.792010 1_565
Au1_3 Sr2_1 3.303743 1_555
Au1_3 Sr2_7 3.303743 1_555
Au1_3 Sr1_3 3.350930 1_555
Au1_3 Sr3_1 3.465202 1_555
Au1_3 Sr3_7 3.465202 1_555
Au1_3 Sr3_0 3.465202 1_555
Au1_3 Sr3_6 3.465202 1_555
Au1_3 Au1_5 3.792010 1_455
Au1_3 Au1_5 3.792010 1_565
Au1_4 Sr2_0 3.303743 1_655
Au1_4 Sr2_6 3.303743 1_545
Au1_4 Sr1_4 3.350930 1_555
Au1_4 Sr3_0 3.465202 1_655
Au1_4 Sr3_6 3.465202 1_545
Au1_4 Sr3_1 3.465202 1_654
Au1_4 Sr3_7 3.465202 1_544
Au1_5 Sr2_1 3.303743 1_655
Au1_5 Sr2_7 3.303743 1_545
Au1_5 Sr1_5 3.350930 1_555
Au1_5 Sr3_1 3.465202 1_655
Au1_5 Sr3_7 3.465202 1_545
Au1_5 Sr3_0 3.465202 1_655
Au1_5 Sr3_6 3.465202 1_545
Au1_6 Sr2_4 3.303743 1_555
Au1_6 Sr2_2 3.303743 1_655
Au1_6 Sr1_6 3.350930 1_555
Au1_6 Sr3_2 3.465202 1_655
Au1_6 Sr3_4 3.465202 1_555
Au1_6 Sr3_3 3.465202 1_654
Au1_6 Sr3_5 3.465202 1_554
Au1_7 Sr2_5 3.303743 1_555
Au1_7 Sr2_3 3.303743 1_655
Au1_7 Sr1_7 3.350930 1_555
Au1_7 Sr3_3 3.465202 1_655
Au1_7 Sr3_5 3.465202 1_555
Au1_7 Sr3_2 3.465202 1_655
Au1_7 Sr3_4 3.465202 1_555
N0_0 Sr2_4 2.591586 1_455
N0_0 Sr2_2 2.591586 1_555
N0_0 Sr1_4 2.602654 1_455
N0_0 Sr1_2 2.602654 1_555
N0_0 Sr0_0 2.683797 1_555
N0_0 Sr0_1 2.683797 1_554
N0_1 Sr2_5 2.591586 1_455
N0_1 Sr2_3 2.591586 1_555
N0_1 Sr1_5 2.602654 1_455
N0_1 Sr1_3 2.602654 1_555
N0_1 Sr0_1 2.683797 1_555
N0_1 Sr0_0 2.683797 1_555
N0_2 Sr2_6 2.591586 1_455
N0_2 Sr2_0 2.591586 1_565
N0_2 Sr1_6 2.602654 1_455
N0_2 Sr1_0 2.602654 1_565
N0_2 Sr0_2 2.683797 1_555
N0_2 Sr0_3 2.683797 1_554
N0_3 Sr2_7 2.591586 1_455
N0_3 Sr2_1 2.591586 1_565
N0_3 Sr1_7 2.602654 1_455
N0_3 Sr1_1 2.602654 1_565
N0_3 Sr0_3 2.683797 1_555
N0_3 Sr0_2 2.683797 1_555
N0_4 Sr2_6 2.591586 1_555
N0_4 Sr2_0 2.591586 1_555
N0_4 Sr1_0 2.602654 1_555
N0_4 Sr1_6 2.602654 1_555
N0_4 Sr0_4 2.683797 1_555
N0_4 Sr0_5 2.683797 1_554
N0_5 Sr2_7 2.591586 1_555
N0_5 Sr2_1 2.591586 1_555
N0_5 Sr1_1 2.602654 1_555
N0_5 Sr1_7 2.602654 1_555
N0_5 Sr0_5 2.683797 1_555
N0_5 Sr0_4 2.683797 1_555
N0_6 Sr2_4 2.591586 1_565
N0_6 Sr2_2 2.591586 1_555
N0_6 Sr1_2 2.602654 1_555
N0_6 Sr1_4 2.602654 1_565
N0_6 Sr0_6 2.683797 1_555
N0_6 Sr0_7 2.683797 1_554
N0_7 Sr2_5 2.591586 1_565
N0_7 Sr2_3 2.591586 1_555
N0_7 Sr1_3 2.602654 1_555
N0_7 Sr1_5 2.602654 1_565
N0_7 Sr0_7 2.683797 1_555
N0_7 Sr0_6 2.683797 1_555
N1_0 Sr3_2 2.591586 1_545
N1_0 Sr3_4 2.591586 1_555
N1_0 Sr0_2 2.602654 1_545
N1_0 Sr0_4 2.602654 1_555
N1_0 Sr1_0 2.683797 1_555
N1_0 Sr1_1 2.683797 1_555
N1_1 Sr3_3 2.591586 1_545
N1_1 Sr3_5 2.591586 1_555
N1_1 Sr0_3 2.602654 1_545
N1_1 Sr0_5 2.602654 1_555
N1_1 Sr1_1 2.683797 1_555
N1_1 Sr1_0 2.683797 1_556
N1_2 Sr3_6 2.591586 1_555
N1_2 Sr3_0 2.591586 1_555
N1_2 Sr0_0 2.602654 1_555
N1_2 Sr0_6 2.602654 1_555
N1_2 Sr1_2 2.683797 1_555
N1_2 Sr1_3 2.683797 1_555
N1_3 Sr3_7 2.591586 1_555
N1_3 Sr3_1 2.591586 1_555
N1_3 Sr0_1 2.602654 1_555
N1_3 Sr0_7 2.602654 1_555
N1_3 Sr1_3 2.683797 1_555
N1_3 Sr1_2 2.683797 1_556
N1_4 Sr3_6 2.591586 1_545
N1_4 Sr3_0 2.591586 1_655
N1_4 Sr0_6 2.602654 1_545
N1_4 Sr0_0 2.602654 1_655
N1_4 Sr1_4 2.683797 1_555
N1_4 Sr1_5 2.683797 1_555
N1_5 Sr3_7 2.591586 1_545
N1_5 Sr3_1 2.591586 1_655
N1_5 Sr0_7 2.602654 1_545
N1_5 Sr0_1 2.602654 1_655
N1_5 Sr1_5 2.683797 1_555
N1_5 Sr1_4 2.683797 1_556
N1_6 Sr3_2 2.591586 1_655
N1_6 Sr3_4 2.591586 1_555
N1_6 Sr0_4 2.602654 1_555
N1_6 Sr0_2 2.602654 1_655
N1_6 Sr1_6 2.683797 1_555
N1_6 Sr1_7 2.683797 1_555
N1_7 Sr3_3 2.591586 1_655
N1_7 Sr3_5 2.591586 1_555
N1_7 Sr0_5 2.602654 1_555
N1_7 Sr0_3 2.602654 1_655
N1_7 Sr1_7 2.683797 1_555
N1_7 Sr1_6 2.683797 1_556
