# generated using pymatgen
data_NaSr3(AgO3)2
_symmetry_space_group_name_H-M   'P 1'
_cell_length_a   6.97697770
_cell_length_b   6.97697776
_cell_length_c   6.92815008
_cell_angle_alpha   75.71990388
_cell_angle_beta   75.71990174
_cell_angle_gamma   33.87489592
_symmetry_Int_Tables_number   1
_chemical_formula_structural   NaSr3(AgO3)2
_chemical_formula_sum   'Na1 Sr3 Ag2 O6'
_cell_volume   181.62058263
_cell_formula_units_Z   1
loop_
 _symmetry_equiv_pos_site_id
 _symmetry_equiv_pos_as_xyz
  1  'x, y, z'
loop_
 _atom_site_type_symbol
 _atom_site_label
 _atom_site_symmetry_multiplicity
 _atom_site_fract_x
 _atom_site_fract_y
 _atom_site_fract_z
 _atom_site_occupancy
  Na  Na0  1  0.15226792  0.15226792  0.17377937  1
  Sr  Sr0  1  0.14920519  0.14920519  0.67384918  1
  Sr  Sr1  1  0.84660661  0.84660661  0.83178962  1
  Sr  Sr2  1  0.84660831  0.84660831  0.32244330  1
  Ag  Ag0  1  0.50411253  0.50411253  0.00629561  1
  Ag  Ag1  1  0.50212001  0.50212001  0.49094950  1
  O  O0  1  0.34108421  0.34108421  0.57596411  1
  O  O1  1  0.34348161  0.34348161  0.08214725  1
  O  O2  1  0.65953339  0.65953339  0.42905110  1
  O  O3  1  0.66130320  0.66130320  0.90839349  1
  O  O4  1  0.99550671  0.99550671  0.50765930  1
  O  O5  1  0.99817032  0.99817032  0.99767516  1
loop_
_geom_bond_atom_site_label_1
_geom_bond_atom_site_label_2
_geom_bond_distance
_geom_bond_site_symmetry_2
Na0 O1 2.466251 1_555
Na0 O5 2.648409 1_444
Na0 O4 2.689491 1_445
Na0 O2 2.712392 1_455
Na0 O2 2.712392 1_545
Na0 O3 2.722529 1_544
Na0 O3 2.722529 1_454
Ag0 O3 2.031976 1_554
Ag0 O5 2.035609 1_544
Ag0 O5 2.035609 1_454
Ag0 O1 2.071887 1_555
Ag1 O2 2.033349 1_555
Ag1 O4 2.036499 1_455
Ag1 O4 2.036499 1_545
Ag1 O0 2.077218 1_555
O0 Sr0 2.474786 1_555
O0 Sr2 2.674901 1_545
O0 Sr2 2.674901 1_455
O0 Sr1 2.710278 1_455
O0 Sr1 2.710278 1_545
O1 Sr2 2.634494 1_455
O1 Sr2 2.634494 1_545
O1 Sr1 2.665403 1_544
O1 Sr1 2.665403 1_454
O2 Sr2 2.414620 1_555
O2 Sr0 2.627972 1_565
O2 Sr0 2.627972 1_655
O3 Sr1 2.392312 1_555
O3 Sr0 2.633116 1_655
O3 Sr0 2.633116 1_565
O4 Sr1 2.586829 1_555
O4 Sr0 2.598704 1_665
O4 Sr2 2.629150 1_555
O5 Sr1 2.571609 1_555
O5 Sr0 2.601058 1_665
O5 Sr2 2.609273 1_556
