# generated using pymatgen
data_KCaH6Ir
_symmetry_space_group_name_H-M   'P 1'
_cell_length_a   5.32672167
_cell_length_b   5.32672169
_cell_length_c   5.32672208
_cell_angle_alpha   59.99999756
_cell_angle_beta   59.99999745
_cell_angle_gamma   59.99999841
_symmetry_Int_Tables_number   1
_chemical_formula_structural   KCaH6Ir
_chemical_formula_sum   'K1 Ca1 H6 Ir1'
_cell_volume   106.87226883
_cell_formula_units_Z   1
loop_
 _symmetry_equiv_pos_site_id
 _symmetry_equiv_pos_as_xyz
  1  'x, y, z'
loop_
 _atom_site_type_symbol
 _atom_site_label
 _atom_site_symmetry_multiplicity
 _atom_site_fract_x
 _atom_site_fract_y
 _atom_site_fract_z
 _atom_site_occupancy
  K  K0  1  0.25000000  0.25000000  0.25000000  1
  Ca  Ca0  1  0.75000000  0.75000000  0.75000000  1
  H  H0  1  0.77738338  0.22261662  0.22261662  1
  H  H1  1  0.22261662  0.77738338  0.22261662  1
  H  H2  1  0.77738338  0.77738338  0.22261662  1
  H  H3  1  0.22261662  0.77738338  0.77738338  1
  H  H4  1  0.77738338  0.22261662  0.77738338  1
  H  H5  1  0.22261662  0.22261662  0.77738338  1
  Ir  Ir0  1  0.00000000  0.00000000  0.00000000  1
loop_
_geom_bond_atom_site_label_1
_geom_bond_atom_site_label_2
_geom_bond_distance
_geom_bond_site_symmetry_2
Ca0 H5 2.671337 1_565
Ca0 H5 2.671337 1_655
Ca0 H3 2.671337 1_555
Ca0 H1 2.671337 1_556
Ca0 H0 2.671337 1_556
Ca0 H4 2.671337 1_555
Ca0 H1 2.671337 1_655
Ca0 H3 2.671337 1_655
Ca0 H4 2.671337 1_565
Ca0 H0 2.671337 1_565
Ca0 H2 2.671338 1_555
Ca0 H2 2.671338 1_556
H0 Ir0 1.676998 1_655
H0 K0 2.671337 1_555
H0 K0 2.671337 1_655
H1 Ir0 1.676998 1_565
H1 K0 2.671337 1_555
H1 K0 2.671337 1_565
H2 Ir0 1.676998 1_665
H2 K0 2.671337 1_565
H2 K0 2.671337 1_655
H3 Ir0 1.676998 1_566
H3 K0 2.671337 1_556
H3 K0 2.671337 1_565
H4 Ir0 1.676998 1_656
H4 K0 2.671337 1_556
H4 K0 2.671337 1_655
H5 Ir0 1.676998 1_556
H5 K0 2.671338 1_555
H5 K0 2.671338 1_556
