# generated using pymatgen
data_Li2BeH4
_symmetry_space_group_name_H-M   'P 1'
_cell_length_a   4.96007800
_cell_length_b   6.61466023
_cell_length_c   12.35374116
_cell_angle_alpha   98.67938832
_cell_angle_beta   93.14327275
_cell_angle_gamma   89.89443690
_symmetry_Int_Tables_number   1
_chemical_formula_structural   Li2BeH4
_chemical_formula_sum   'Li12 Be6 H24'
_cell_volume   400.06385900
_cell_formula_units_Z   6
loop_
 _symmetry_equiv_pos_site_id
 _symmetry_equiv_pos_as_xyz
  1  'x, y, z'
loop_
 _atom_site_type_symbol
 _atom_site_label
 _atom_site_symmetry_multiplicity
 _atom_site_fract_x
 _atom_site_fract_y
 _atom_site_fract_z
 _atom_site_occupancy
  Li  Li0  1  0.41451300  0.43935400  0.15330400  1
  Li  Li1  1  0.37705500  0.01446300  0.16867200  1
  Li  Li2  1  0.42626600  0.27694200  0.36638300  1
  Li  Li3  1  0.32595100  0.74854100  0.34437100  1
  Li  Li4  1  0.39619300  0.49834700  0.78975300  1
  Li  Li5  1  0.46378800  0.06637700  0.87540000  1
  Li  Li6  1  0.63303600  0.92718800  0.66956500  1
  Li  Li7  1  0.94830400  0.48252500  0.58051700  1
  Li  Li8  1  0.94262400  0.23620200  0.19571000  1
  Li  Li9  1  0.90174100  0.70998500  0.11872100  1
  Li  Li10  1  0.89777300  0.72582200  0.85322900  1
  Li  Li11  1  0.91513600  0.30862700  0.80240600  1
  Be  Be0  1  0.79985000  0.60232900  0.31680200  1
  Be  Be1  1  0.80682700  0.94022100  0.31797000  1
  Be  Be2  1  0.89962500  0.23221700  0.41288700  1
  Be  Be3  1  0.85461800  0.77557900  0.45922900  1
  Be  Be4  1  0.05771300  0.39081500  0.98263100  1
  Be  Be5  1  0.00352400  0.04060400  0.99135600  1
  H  H0  1  0.03555700  0.50895900  0.72922600  1
  H  H1  1  0.28904300  0.26969300  0.23232800  1
  H  H2  1  0.18961200  0.91497200  0.92466700  1
  H  H3  1  0.23990900  0.34423500  0.89308600  1
  H  H4  1  0.44598500  0.57954500  0.62182100  1
  H  H5  1  0.42311000  0.01397700  0.53299000  1
  H  H6  1  0.92119600  0.99632900  0.43072200  1
  H  H7  1  0.02989500  0.61476600  0.40663800  1
  H  H8  1  0.44509300  0.21101300  0.05432100  1
  H  H9  1  0.51060200  0.74698600  0.07517400  1
  H  H10  1  0.88398300  0.79131100  0.57455300  1
  H  H11  1  0.14933200  0.30161200  0.46737000  1
  H  H12  1  0.02324400  0.98309800  0.10323800  1
  H  H13  1  0.17760600  0.54457500  0.06467200  1
  H  H14  1  0.69514600  0.28982400  0.48803100  1
  H  H15  1  0.62296600  0.62793000  0.41245300  1
  H  H16  1  0.82631100  0.48839000  0.93049900  1
  H  H17  1  0.75073900  0.96030500  0.94500700  1
  H  H18  1  0.56002200  0.75991500  0.77140800  1
  H  H19  1  0.59525100  0.18695600  0.74994700  1
  H  H20  1  0.31753200  0.94862400  0.55408300  1
  H  H21  1  0.43974300  0.49094400  0.57427800  1
  H  H22  1  0.58034000  0.81444000  0.03875700  1
  H  H23  1  0.60324500  0.23546500  0.05582800  1
loop_
_geom_bond_atom_site_label_1
_geom_bond_atom_site_label_2
_geom_bond_distance
_geom_bond_site_symmetry_2
Be0 H15 1.499159 1_555
Be0 H7 1.540889 1_655
Be1 H6 1.468959 1_555
Be2 H11 1.419577 1_655
Be2 H14 1.425024 1_555
Be2 H6 1.610945 1_545
Be3 H10 1.412204 1_555
Be3 H7 1.469490 1_655
Be3 H15 1.539149 1_555
Be3 H6 1.592153 1_555
Be4 H13 1.428392 1_556
Be4 H3 1.463239 1_555
Be4 H16 1.479994 1_455
Be5 H17 1.419156 1_445
Be5 H2 1.447484 1_545
Be5 H12 1.486049 1_546
H0 Li11 1.831318 1_455
H0 Li7 1.846346 1_455
H0 Li4 1.905905 1_555
H0 Li10 2.078336 1_455
H1 Li0 1.731954 1_555
H1 Li2 1.749488 1_555
H1 Li8 1.758427 1_455
H1 Li1 1.814784 1_555
H2 Li5 1.871522 1_565
H2 Li10 1.993230 1_455
H3 Li11 1.905064 1_455
H3 Li4 1.942637 1_555
H3 Li5 2.134655 1_555
H4 Li4 2.246410 1_555
H5 Li6 2.087563 1_545
H7 Li3 1.966011 1_555
H8 Li0 1.806003 1_555
H8 Li1 2.099525 1_555
H8 Li5 2.278913 1_554
H9 Li9 2.009167 1_555
H9 Li1 2.089508 1_565
H10 Li6 1.890113 1_555
H10 Li7 2.078345 1_555
H11 Li2 1.896189 1_555
H11 Li7 2.005916 1_455
H12 Li1 1.889818 1_565
H12 Li8 1.933458 1_465
H12 Li9 1.945342 1_455
H13 Li0 1.774824 1_555
H13 Li9 1.841038 1_455
H14 Li2 1.945849 1_555
H14 Li7 1.978867 1_555
H15 Li3 1.891177 1_555
H16 Li11 1.902291 1_555
H16 Li10 1.998762 1_555
H16 Li9 2.563826 1_556
H17 Li5 1.817058 1_565
H17 H22 1.853169 1_556
H17 Li10 1.943920 1_555
H18 Li6 1.846593 1_555
H18 Li10 1.939278 1_555
H18 Li4 1.961872 1_555
H18 H4 2.093031 1_555
H18 Li5 2.294618 1_565
H19 Li11 1.822007 1_555
H19 Li6 1.864923 1_545
H19 Li5 1.987229 1_555
H19 Li4 2.280191 1_555
H20 H5 0.760793 1_565
H20 Li6 2.078407 1_555
H21 H4 0.763922 1_555
H22 H9 0.774176 1_555
H22 Li9 2.005960 1_555
H22 Li1 2.207879 1_565
H23 H8 0.799888 1_555
H23 Li0 1.942706 1_555
H23 Li8 2.344860 1_555
