# generated using pymatgen
data_NbAlOsRu
_symmetry_space_group_name_H-M   'P 1'
_cell_length_a   4.37975989
_cell_length_b   4.37976035
_cell_length_c   4.37976028
_cell_angle_alpha   59.99999305
_cell_angle_beta   59.99998959
_cell_angle_gamma   59.99999652
_symmetry_Int_Tables_number   1
_chemical_formula_structural   NbAlOsRu
_chemical_formula_sum   'Nb1 Al1 Os1 Ru1'
_cell_volume   59.40676771
_cell_formula_units_Z   1
loop_
 _symmetry_equiv_pos_site_id
 _symmetry_equiv_pos_as_xyz
  1  'x, y, z'
loop_
 _atom_site_type_symbol
 _atom_site_label
 _atom_site_symmetry_multiplicity
 _atom_site_fract_x
 _atom_site_fract_y
 _atom_site_fract_z
 _atom_site_occupancy
  Nb  Nb0  1  0.50000000  0.50000000  0.50000000  1
  Al  Al0  1  0.00000000  0.00000000  0.00000000  1
  Os  Os0  1  0.25000000  0.25000000  0.25000000  1
  Ru  Ru0  1  0.75000000  0.75000000  0.75000000  1
loop_
_geom_bond_atom_site_label_1
_geom_bond_atom_site_label_2
_geom_bond_distance
_geom_bond_site_symmetry_2
Nb0 Os0 2.682044 1_655
Nb0 Ru0 2.682044 1_455
Nb0 Ru0 2.682044 1_554
Nb0 Os0 2.682044 1_556
Nb0 Os0 2.682044 1_565
Nb0 Ru0 2.682044 1_545
Nb0 Os0 2.682045 1_555
Nb0 Ru0 2.682045 1_555
Al0 Os0 2.682044 1_455
Al0 Ru0 2.682044 1_544
Al0 Ru0 2.682044 1_445
Al0 Os0 2.682044 1_554
Al0 Ru0 2.682044 1_454
Al0 Os0 2.682044 1_545
Al0 Os0 2.682045 1_555
Al0 Ru0 2.682045 1_444
Al0 Nb0 3.096958 1_445
Al0 Nb0 3.096958 1_554
Al0 Nb0 3.096958 1_455
Al0 Nb0 3.096958 1_544
Al0 Nb0 3.096958 1_454
Al0 Nb0 3.096958 1_545
Os0 Ru0 3.096958 1_445
Os0 Ru0 3.096958 1_554
Os0 Ru0 3.096958 1_544
Os0 Ru0 3.096958 1_455
Os0 Ru0 3.096958 1_454
Os0 Ru0 3.096958 1_545
