# generated using pymatgen
data_Sc2Ti(TcP)3
_symmetry_space_group_name_H-M   'P 1'
_cell_length_a   6.71375766
_cell_length_b   6.71375812
_cell_length_c   3.34394889
_cell_angle_alpha   90.00000000
_cell_angle_beta   90.00000000
_cell_angle_gamma   119.73369403
_symmetry_Int_Tables_number   1
_chemical_formula_structural   Sc2Ti(TcP)3
_chemical_formula_sum   'Sc2 Ti1 Tc3 P3'
_cell_volume   130.88226123
_cell_formula_units_Z   1
loop_
 _symmetry_equiv_pos_site_id
 _symmetry_equiv_pos_as_xyz
  1  'x, y, z'
loop_
 _atom_site_type_symbol
 _atom_site_label
 _atom_site_symmetry_multiplicity
 _atom_site_fract_x
 _atom_site_fract_y
 _atom_site_fract_z
 _atom_site_occupancy
  Sc  Sc0  1  0.59589307  0.99851390  0.50000000  1
  Sc  Sc1  1  0.99851390  0.59589307  0.50000000  1
  Ti  Ti0  1  0.40265972  0.40265972  0.50000000  1
  Tc  Tc0  1  0.00631612  0.25365165  0.00000000  1
  Tc  Tc1  1  0.25365165  0.00631612  0.00000000  1
  Tc  Tc2  1  0.74651419  0.74651419  0.00000000  1
  P  P0  1  0.65983880  0.33485718  0.00000000  1
  P  P1  1  0.33485718  0.65983880  0.00000000  1
  P  P2  1  0.00175638  0.00175638  0.50000000  1
loop_
_geom_bond_atom_site_label_1
_geom_bond_atom_site_label_2
_geom_bond_distance
_geom_bond_site_symmetry_2
Sc0 Tc1 2.863071 1_565
Sc0 Tc1 2.863071 1_566
Sc0 Tc2 2.894405 1_555
Sc0 Tc2 2.894405 1_556
Sc0 Tc0 2.939457 1_665
Sc0 Tc0 2.939457 1_666
Sc1 Tc0 2.863071 1_655
Sc1 Tc0 2.863071 1_656
Sc1 Tc2 2.894405 1_555
Sc1 Tc2 2.894405 1_556
Sc1 Tc1 2.939457 1_665
Sc1 Tc1 2.939457 1_666
Tc0 Ti0 2.869916 1_555
Tc0 Ti0 2.869916 1_554
Tc0 Tc1 2.872292 1_555
Tc1 Ti0 2.869916 1_555
Tc1 Ti0 2.869916 1_554
Tc2 Ti0 2.857952 1_554
Tc2 Ti0 2.857952 1_555
P0 Tc1 2.517022 1_555
P0 Tc2 2.526205 1_555
P0 Ti0 2.600700 1_554
P0 Ti0 2.600700 1_555
P0 Tc0 2.639369 1_655
P0 Sc1 2.661616 1_554
P0 Sc1 2.661616 1_555
P0 Sc0 2.667830 1_545
P0 Sc0 2.667830 1_544
P1 Tc0 2.517022 1_555
P1 Tc2 2.526204 1_555
P1 Ti0 2.600700 1_554
P1 Ti0 2.600700 1_555
P1 Tc1 2.639369 1_565
P1 Sc0 2.661616 1_555
P1 Sc0 2.661616 1_554
P1 Sc1 2.667829 1_455
P1 Sc1 2.667829 1_454
P2 Tc1 2.367513 1_556
P2 Tc1 2.367513 1_555
P2 Tc0 2.367513 1_556
P2 Tc0 2.367513 1_555
P2 Tc2 2.399107 1_446
P2 Tc2 2.399107 1_445
P2 Ti0 2.702395 1_555
P2 Sc0 2.714137 1_445
P2 Sc1 2.714137 1_445
