# generated using pymatgen
data_Ba3YPt2O9
_symmetry_space_group_name_H-M   'P 1'
_cell_length_a   5.91029174
_cell_length_b   5.91029091
_cell_length_c   14.93118281
_cell_angle_alpha   90.00000000
_cell_angle_beta   90.00000000
_cell_angle_gamma   120.00001010
_symmetry_Int_Tables_number   1
_chemical_formula_structural   Ba3YPt2O9
_chemical_formula_sum   'Ba6 Y2 Pt4 O18'
_cell_volume   451.69218451
_cell_formula_units_Z   2
loop_
 _symmetry_equiv_pos_site_id
 _symmetry_equiv_pos_as_xyz
  1  'x, y, z'
loop_
 _atom_site_type_symbol
 _atom_site_label
 _atom_site_symmetry_multiplicity
 _atom_site_fract_x
 _atom_site_fract_y
 _atom_site_fract_z
 _atom_site_occupancy
  Ba  Ba0  1  0.33333300  0.66666700  0.58949450  1
  Ba  Ba1  1  0.66666700  0.33333300  0.08949450  1
  Ba  Ba2  1  0.66666700  0.33333300  0.41050550  1
  Ba  Ba3  1  0.33333300  0.66666700  0.91050550  1
  Ba  Ba4  1  0.00000000  0.00000000  0.75000000  1
  Ba  Ba5  1  0.00000000  0.00000000  0.25000000  1
  Y  Y0  1  0.00000000  0.00000000  0.00000000  1
  Y  Y1  1  0.00000000  0.00000000  0.50000000  1
  Pt  Pt0  1  0.66666700  0.33333300  0.65885681  1
  Pt  Pt1  1  0.33333300  0.66666700  0.15885681  1
  Pt  Pt2  1  0.66666700  0.33333300  0.84114319  1
  Pt  Pt3  1  0.33333300  0.66666700  0.34114319  1
  O  O0  1  0.17461763  0.82538237  0.08428628  1
  O  O1  1  0.17461763  0.34923727  0.08428628  1
  O  O2  1  0.65076273  0.82538237  0.08428628  1
  O  O3  1  0.34923727  0.17461763  0.58428628  1
  O  O4  1  0.82538237  0.65076273  0.91571372  1
  O  O5  1  0.82538237  0.17461763  0.58428628  1
  O  O6  1  0.82538237  0.65076273  0.58428628  1
  O  O7  1  0.17461763  0.82538237  0.41571372  1
  O  O8  1  0.65076273  0.82538237  0.41571372  1
  O  O9  1  0.34923727  0.17461763  0.91571372  1
  O  O10  1  0.82538237  0.17461763  0.91571372  1
  O  O11  1  0.17461763  0.34923727  0.41571372  1
  O  O12  1  0.48266678  0.96533456  0.25000000  1
  O  O13  1  0.51733322  0.48266678  0.75000000  1
  O  O14  1  0.96533456  0.48266678  0.75000000  1
  O  O15  1  0.03466544  0.51733322  0.25000000  1
  O  O16  1  0.48266678  0.51733322  0.25000000  1
  O  O17  1  0.51733322  0.03466544  0.75000000  1
loop_
_geom_bond_atom_site_label_1
_geom_bond_atom_site_label_2
_geom_bond_distance
_geom_bond_site_symmetry_2
Ba0 O3 2.957280 1_565
Ba0 O6 2.957281 1_455
Ba0 O5 2.957288 1_565
Ba0 O5 2.957288 1_455
Ba0 O3 2.957298 1_555
Ba0 O6 2.957298 1_555
Ba0 O17 3.048161 1_565
Ba0 O14 3.048161 1_455
Ba0 O13 3.048168 1_555
Ba0 O11 3.061464 1_555
Ba0 O8 3.061464 1_555
Ba0 O7 3.061467 1_555
Ba1 O2 2.957280 1_545
Ba1 O1 2.957281 1_655
Ba1 O0 2.957288 1_545
Ba1 O0 2.957288 1_655
Ba1 O2 2.957298 1_555
Ba1 O1 2.957298 1_555
Ba1 O12 3.048161 1_545
Ba1 O15 3.048161 1_655
Ba1 O16 3.048168 1_555
Ba1 O4 3.061464 1_554
Ba1 O9 3.061464 1_554
Ba1 O10 3.061467 1_554
Ba2 O8 2.957280 1_545
Ba2 O11 2.957281 1_655
Ba2 O7 2.957288 1_545
Ba2 O7 2.957288 1_655
Ba2 O8 2.957298 1_555
Ba2 O11 2.957298 1_555
Ba2 O12 3.048161 1_545
Ba2 O15 3.048161 1_655
Ba2 O16 3.048168 1_555
Ba2 O6 3.061464 1_555
Ba2 O3 3.061464 1_555
Ba2 O5 3.061467 1_555
Ba3 O9 2.957280 1_565
Ba3 O4 2.957281 1_455
Ba3 O10 2.957288 1_565
Ba3 O10 2.957288 1_455
Ba3 O9 2.957298 1_555
Ba3 O4 2.957298 1_555
Ba3 O17 3.048161 1_565
Ba3 O14 3.048161 1_455
Ba3 O13 3.048168 1_555
Ba3 O1 3.061464 1_556
Ba3 O2 3.061464 1_556
Ba3 O0 3.061467 1_556
Ba4 O14 2.960465 1_455
Ba4 O17 2.960465 1_455
Ba4 O13 2.960467 1_445
Ba4 O13 2.960468 1_555
Ba4 O14 2.960470 1_445
Ba4 O17 2.960471 1_555
Ba4 O5 3.052457 1_455
Ba4 O10 3.052457 1_455
Ba4 O6 3.052463 1_445
Ba4 O4 3.052463 1_445
Ba4 O3 3.052463 1_555
Ba4 O9 3.052463 1_555
Ba5 O15 2.960465 1_545
Ba5 O12 2.960465 1_545
Ba5 O16 2.960467 1_555
Ba5 O16 2.960468 1_445
Ba5 O15 2.960470 1_555
Ba5 O12 2.960471 1_445
Ba5 O0 3.052457 1_545
Ba5 O7 3.052457 1_545
Ba5 O1 3.052463 1_555
Ba5 O11 3.052463 1_555
Ba5 O2 3.052463 1_445
Ba5 O8 3.052463 1_445
O0 Pt1 1.969658 1_555
O0 Y0 2.186123 1_565
O1 Pt1 1.969654 1_555
O1 Y0 2.186131 1_555
O2 Pt1 1.969654 1_555
O2 Y0 2.186131 1_665
O3 Pt0 1.969654 1_555
O3 Y1 2.186131 1_555
O4 Pt2 1.969654 1_555
O4 Y0 2.186131 1_666
O5 Pt0 1.969658 1_555
O5 Y1 2.186123 1_655
O6 Pt0 1.969654 1_555
O6 Y1 2.186131 1_665
O7 Pt3 1.969658 1_555
O7 Y1 2.186123 1_565
O8 Pt3 1.969654 1_555
O8 Y1 2.186131 1_665
O9 Pt2 1.969654 1_555
O9 Y0 2.186131 1_556
O10 Pt2 1.969658 1_555
O10 Y0 2.186123 1_656
O11 Pt3 1.969654 1_555
O11 Y1 2.186131 1_555
O12 Pt3 2.046696 1_555
O12 Pt1 2.046696 1_555
O13 Pt2 2.046696 1_555
O13 Pt0 2.046696 1_555
O14 Pt2 2.046696 1_555
O14 Pt0 2.046696 1_555
O15 Pt3 2.046696 1_555
O15 Pt1 2.046696 1_555
O16 Pt3 2.046696 1_555
O16 Pt1 2.046696 1_555
O17 Pt2 2.046696 1_555
O17 Pt0 2.046696 1_555
