# generated using pymatgen
data_Ti2MoP2Os
_symmetry_space_group_name_H-M   'P 1'
_cell_length_a   7.33672304
_cell_length_b   7.37978520
_cell_length_c   7.35432616
_cell_angle_alpha   127.15902524
_cell_angle_beta   124.51107312
_cell_angle_gamma   80.13341100
_symmetry_Int_Tables_number   1
_chemical_formula_structural   Ti2MoP2Os
_chemical_formula_sum   'Ti6 Mo3 P6 Os3'
_cell_volume   252.48807238
_cell_formula_units_Z   3
loop_
 _symmetry_equiv_pos_site_id
 _symmetry_equiv_pos_as_xyz
  1  'x, y, z'
loop_
 _atom_site_type_symbol
 _atom_site_label
 _atom_site_symmetry_multiplicity
 _atom_site_fract_x
 _atom_site_fract_y
 _atom_site_fract_z
 _atom_site_occupancy
  Ti  Ti0  1  0.44171270  0.41199932  0.46529005  1
  Ti  Ti1  1  0.55603057  0.02016426  0.96163803  1
  Ti  Ti2  1  0.03951731  0.99842874  0.46278652  1
  Ti  Ti3  1  0.96326058  0.42645575  0.96983640  1
  Ti  Ti4  1  0.24633958  0.58585565  0.84422485  1
  Ti  Ti5  1  0.74951542  0.58878867  0.33713950  1
  Mo  Mo0  1  0.99949443  0.25344149  0.25582776  1
  Mo  Mo1  1  0.50346205  0.25846742  0.75776666  1
  Mo  Mo2  1  0.40093634  0.74850114  0.40325546  1
  P  P0  1  0.22600826  0.96913213  0.24109908  1
  P  P1  1  0.77662017  0.01354055  0.73408618  1
  P  P2  1  0.17044552  0.67480540  0.51191608  1
  P  P3  1  0.82978517  0.33944185  0.50672851  1
  P  P4  1  0.66838939  0.67640051  0.00560004  1
  P  P5  1  0.33322544  0.33486018  0.00684657  1
  Os  Os0  1  0.59726556  0.00614930  0.34170118  1
  Os  Os1  1  0.83777598  0.74950194  0.84271774  1
  Os  Os2  1  0.16021953  0.00206768  0.90954138  1
loop_
_geom_bond_atom_site_label_1
_geom_bond_atom_site_label_2
_geom_bond_distance
_geom_bond_site_symmetry_2
Mo0 P0 2.431089 1_645
Mo0 P1 2.491421 1_554
Mo0 P3 2.505129 1_555
Mo0 P2 2.524800 1_655
Mo0 Ti1 2.770184 1_554
Mo0 Ti0 2.780065 1_655
Mo0 Ti5 2.783032 1_555
Mo0 Ti4 2.800243 1_655
Mo0 Os1 2.871725 1_544
Mo0 Os2 2.874618 1_654
Mo0 Ti3 2.935812 1_554
Mo0 Ti2 2.951114 1_645
Mo1 P0 2.462647 1_545
Mo1 P1 2.467296 1_555
Mo1 P4 2.507522 1_556
Mo1 P5 2.517325 1_556
Mo1 Ti5 2.756961 1_556
Mo1 Ti4 2.782371 1_555
Mo1 Ti0 2.789217 1_555
Mo1 Ti1 2.790556 1_555
Mo1 Os0 2.892690 1_555
Mo1 Mo2 2.901931 1_545
Mo1 Ti3 2.912904 1_555
Mo1 Ti2 2.969346 1_545
Mo2 P0 2.369737 1_555
Mo2 P1 2.417049 1_565
Mo2 P2 2.483045 1_555
Mo2 P5 2.488362 1_555
Mo2 Ti0 2.724678 1_555
Mo2 Ti1 2.778283 1_565
Mo2 Ti5 2.801744 1_555
Mo2 Ti3 2.825851 1_454
Mo2 Os0 2.934671 1_565
Mo2 Ti4 2.975071 1_554
Mo2 Os1 2.993217 1_555
Mo2 Ti2 3.047712 1_555
P0 Ti2 2.564638 1_555
P0 Ti4 2.630045 1_554
P0 Ti0 2.865422 1_565
P1 Ti3 2.554215 1_555
P1 Ti5 2.624600 1_545
P1 Ti1 2.892268 1_555
P2 Ti0 2.546972 1_555
P2 Ti2 2.572948 1_555
P2 Ti5 2.603948 1_455
P2 Ti3 2.612310 1_454
P2 Ti4 2.642807 1_555
P2 Ti1 2.668910 1_565
P3 Ti4 2.581485 1_655
P3 Ti1 2.596849 1_554
P3 Ti3 2.601013 1_555
P3 Ti5 2.618641 1_555
P3 Ti2 2.656942 1_645
P3 Ti0 2.679082 1_555
P4 Ti2 2.560765 1_655
P4 Ti0 2.572943 1_554
P4 Ti3 2.615886 1_554
P4 Ti5 2.616388 1_555
P4 Ti4 2.651415 1_554
P4 Ti1 2.681810 1_564
P5 Ti1 2.560890 1_554
P5 Ti3 2.579710 1_454
P5 Ti4 2.583672 1_554
P5 Ti5 2.606930 1_555
P5 Ti2 2.622949 1_544
P5 Ti0 2.668466 1_555
Os0 P1 2.365075 1_555
Os0 P0 2.401766 1_545
Os0 P3 2.432823 1_555
Os0 P4 2.462456 1_545
Os0 Ti1 2.700961 1_554
Os0 Ti0 2.795427 1_555
Os0 Ti4 2.826464 1_544
Os0 Ti2 2.836910 1_645
Os0 Os2 2.958616 1_554
Os0 Ti5 3.077988 1_545
Os0 Ti3 3.108050 1_555
Os1 P0 2.390254 1_656
Os1 P1 2.410647 1_565
Os1 P4 2.442883 1_556
Os1 P3 2.475903 1_555
Os1 Ti0 2.709403 1_555
Os1 Ti1 2.747837 1_565
Os1 Ti5 2.803298 1_555
Os1 Ti3 2.893109 1_555
Os1 Os2 2.898135 1_665
Os1 Ti4 3.030119 1_655
Os1 Ti2 3.086135 1_656
Os2 P1 2.351200 1_455
Os2 P0 2.362182 1_546
Os2 P2 2.458540 1_545
Os2 P5 2.463891 1_556
Os2 Ti1 2.721755 1_555
Os2 Ti0 2.785923 1_556
Os2 Ti4 2.821489 1_545
Os2 Ti2 2.860875 1_545
Os2 Ti5 3.060792 1_445
Os2 Ti3 3.096912 1_455
