# generated using pymatgen
data_Y9Mg(Zn2Bi)2
_symmetry_space_group_name_H-M   'P 1'
_cell_length_a   8.67401877
_cell_length_b   8.67401855
_cell_length_c   8.67401736
_cell_angle_alpha   125.33205434
_cell_angle_beta   125.33204698
_cell_angle_gamma   80.98876917
_symmetry_Int_Tables_number   1
_chemical_formula_structural   Y9Mg(Zn2Bi)2
_chemical_formula_sum   'Y9 Mg1 Zn4 Bi2'
_cell_volume   418.56408365
_cell_formula_units_Z   1
loop_
 _symmetry_equiv_pos_site_id
 _symmetry_equiv_pos_as_xyz
  1  'x, y, z'
loop_
 _atom_site_type_symbol
 _atom_site_label
 _atom_site_symmetry_multiplicity
 _atom_site_fract_x
 _atom_site_fract_y
 _atom_site_fract_z
 _atom_site_occupancy
  Y  Y0  1  0.00000000  0.00000000  0.00000000  1
  Y  Y1  1  0.79364931  0.30385700  0.81484889  1
  Y  Y2  1  0.20635069  0.69614300  0.18515111  1
  Y  Y3  1  0.48900811  0.97880041  0.18515111  1
  Y  Y4  1  0.30385700  0.48900811  0.51020770  1
  Y  Y5  1  0.02119959  0.20635069  0.51020770  1
  Y  Y6  1  0.51099189  0.02119959  0.81484889  1
  Y  Y7  1  0.69614300  0.51099189  0.48979230  1
  Y  Y8  1  0.97880041  0.79364931  0.48979230  1
  Mg  Mg0  1  0.50000000  0.50000000  0.00000000  1
  Zn  Zn0  1  0.13259669  0.63758883  0.77018752  1
  Zn  Zn1  1  0.86740331  0.36241117  0.22981248  1
  Zn  Zn2  1  0.63758883  0.86740331  0.50499214  1
  Zn  Zn3  1  0.36241117  0.13259669  0.49500786  1
  Bi  Bi0  1  0.24833538  0.24833538  0.00000000  1
  Bi  Bi1  1  0.75166462  0.75166462  1.00000000  1
loop_
_geom_bond_atom_site_label_1
_geom_bond_atom_site_label_2
_geom_bond_distance
_geom_bond_site_symmetry_2
Y0 Zn0 3.074052 1_544
Y0 Zn1 3.074052 1_455
Y0 Zn3 3.074056 1_555
Y0 Zn2 3.074056 1_444
Y0 Y5 3.580911 1_555
Y0 Y8 3.580911 1_444
Y0 Y4 3.580911 1_555
Y0 Y7 3.580911 1_444
Y0 Y1 3.580912 1_454
Y0 Y2 3.580912 1_545
Y0 Y6 3.580912 1_454
Y0 Y3 3.580912 1_545
Y1 Zn3 2.977645 1_555
Y1 Zn1 2.991133 1_556
Y1 Zn2 3.002817 1_545
Y1 Y2 3.547578 1_656
Y1 Y3 3.548748 1_545
Y1 Y5 3.810297 1_655
Y1 Y7 3.810297 1_555
Y2 Zn2 2.977645 1_555
Y2 Zn0 2.991133 1_554
Y2 Zn3 3.002817 1_565
Y2 Y6 3.548748 1_565
Y2 Y8 3.810297 1_455
Y2 Y4 3.810297 1_555
Y3 Zn2 2.977645 1_555
Y3 Zn0 2.991150 1_554
Y3 Zn3 3.002817 1_565
Y3 Y6 3.547578 1_564
Y3 Y7 3.810297 1_565
Y3 Y5 3.810297 1_665
Y4 Zn0 2.977659 1_555
Y4 Zn3 2.991150 1_555
Y4 Zn1 3.002815 1_455
Y4 Y7 3.547579 1_555
Y4 Y8 3.548749 1_455
Y4 Y6 3.810297 1_565
Y5 Zn0 2.977642 1_555
Y5 Zn3 2.991150 1_555
Y5 Zn1 3.002831 1_455
Y5 Y8 3.547578 1_445
Y5 Y7 3.548749 1_455
Y6 Zn3 2.977645 1_555
Y6 Zn1 2.991150 1_556
Y6 Zn2 3.002817 1_545
Y6 Y8 3.810297 1_445
Y7 Zn1 2.977659 1_555
Y7 Zn2 2.991150 1_555
Y7 Zn0 3.002815 1_655
Y8 Zn1 2.977642 1_555
Y8 Zn2 2.991150 1_555
Y8 Zn0 3.002831 1_655
Mg0 Zn1 3.125151 1_555
Mg0 Zn0 3.125151 1_554
Mg0 Zn2 3.125155 1_555
Mg0 Zn3 3.125155 1_554
Mg0 Y7 3.489299 1_555
Mg0 Y4 3.489299 1_554
Mg0 Y8 3.489299 1_555
Mg0 Y5 3.489299 1_554
Mg0 Y1 3.489299 1_554
Mg0 Y2 3.489299 1_555
Mg0 Y3 3.489299 1_555
Mg0 Y6 3.489299 1_554
Zn0 Zn1 3.044277 1_455
Zn2 Zn3 3.044256 1_565
Bi0 Y0 3.276203 1_555
Bi0 Y5 3.289024 1_554
Bi0 Y7 3.289025 1_555
Bi0 Y6 3.289025 1_554
Bi0 Y2 3.289025 1_555
Bi0 Mg0 3.320125 1_555
Bi0 Y4 3.367412 1_555
Bi0 Y8 3.367412 1_444
Bi0 Y3 3.367413 1_545
Bi0 Y1 3.367413 1_454
Bi1 Y0 3.276203 1_666
Bi1 Y8 3.289024 1_556
Bi1 Y4 3.289025 1_555
Bi1 Y3 3.289025 1_556
Bi1 Y1 3.289025 1_555
Bi1 Mg0 3.320125 1_556
Bi1 Y7 3.367412 1_555
Bi1 Y5 3.367412 1_666
Bi1 Y6 3.367413 1_565
Bi1 Y2 3.367413 1_656
