# generated using pymatgen
data_Ba2GaIrI
_symmetry_space_group_name_H-M   'P 1'
_cell_length_a   8.93076917
_cell_length_b   8.93076373
_cell_length_c   38.72448708
_cell_angle_alpha   90.00000000
_cell_angle_beta   90.00000000
_cell_angle_gamma   120.00001278
_symmetry_Int_Tables_number   1
_chemical_formula_structural   Ba2GaIrI
_chemical_formula_sum   'Ba32 Ga16 Ir16 I16'
_cell_volume   2674.81477923
_cell_formula_units_Z   16
loop_
 _symmetry_equiv_pos_site_id
 _symmetry_equiv_pos_as_xyz
  1  'x, y, z'
loop_
 _atom_site_type_symbol
 _atom_site_label
 _atom_site_symmetry_multiplicity
 _atom_site_fract_x
 _atom_site_fract_y
 _atom_site_fract_z
 _atom_site_occupancy
  Ba  Ba0_0  1  0.00000000  0.00000000  0.19404409  1
  Ba  Ba0_1  1  0.00000000  0.00000000  0.69404409  1
  Ba  Ba0_2  1  0.00000000  0.50000000  0.19404409  1
  Ba  Ba0_3  1  0.00000000  0.50000000  0.69404409  1
  Ba  Ba0_4  1  0.50000000  0.00000000  0.19404409  1
  Ba  Ba0_5  1  0.50000000  0.00000000  0.69404409  1
  Ba  Ba0_6  1  0.50000000  0.50000000  0.19404409  1
  Ba  Ba0_7  1  0.50000000  0.50000000  0.69404409  1
  Ba  Ba1_0  1  0.00000000  0.00000000  0.44404409  1
  Ba  Ba1_1  1  0.00000000  0.00000000  0.94404409  1
  Ba  Ba1_2  1  0.00000000  0.50000000  0.44404409  1
  Ba  Ba1_3  1  0.00000000  0.50000000  0.94404409  1
  Ba  Ba1_4  1  0.50000000  0.00000000  0.44404409  1
  Ba  Ba1_5  1  0.50000000  0.00000000  0.94404409  1
  Ba  Ba1_6  1  0.50000000  0.50000000  0.44404409  1
  Ba  Ba1_7  1  0.50000000  0.50000000  0.94404409  1
  Ba  Ba2_0  1  0.00000000  0.00000000  0.30593103  1
  Ba  Ba2_1  1  0.00000000  0.00000000  0.80593103  1
  Ba  Ba2_2  1  0.00000000  0.50000000  0.30593103  1
  Ba  Ba2_3  1  0.00000000  0.50000000  0.80593103  1
  Ba  Ba2_4  1  0.50000000  0.00000000  0.30593103  1
  Ba  Ba2_5  1  0.50000000  0.00000000  0.80593103  1
  Ba  Ba2_6  1  0.50000000  0.50000000  0.30593103  1
  Ba  Ba2_7  1  0.50000000  0.50000000  0.80593103  1
  Ba  Ba3_0  1  0.00000000  0.00000000  0.05593103  1
  Ba  Ba3_1  1  0.00000000  0.00000000  0.55593103  1
  Ba  Ba3_2  1  0.00000000  0.50000000  0.05593103  1
  Ba  Ba3_3  1  0.00000000  0.50000000  0.55593103  1
  Ba  Ba3_4  1  0.50000000  0.00000000  0.05593103  1
  Ba  Ba3_5  1  0.50000000  0.00000000  0.55593103  1
  Ba  Ba3_6  1  0.50000000  0.50000000  0.05593103  1
  Ba  Ba3_7  1  0.50000000  0.50000000  0.55593103  1
  Ga  Ga0_0  1  0.16666650  0.33333350  0.25008739  1
  Ga  Ga0_1  1  0.16666650  0.33333350  0.75008739  1
  Ga  Ga0_2  1  0.16666650  0.83333350  0.25008739  1
  Ga  Ga0_3  1  0.16666650  0.83333350  0.75008739  1
  Ga  Ga0_4  1  0.66666650  0.33333350  0.25008739  1
  Ga  Ga0_5  1  0.66666650  0.33333350  0.75008739  1
  Ga  Ga0_6  1  0.66666650  0.83333350  0.25008739  1
  Ga  Ga0_7  1  0.66666650  0.83333350  0.75008739  1
  Ga  Ga1_0  1  0.33333350  0.16666650  0.00008739  1
  Ga  Ga1_1  1  0.33333350  0.16666650  0.50008739  1
  Ga  Ga1_2  1  0.33333350  0.66666650  0.00008739  1
  Ga  Ga1_3  1  0.33333350  0.66666650  0.50008739  1
  Ga  Ga1_4  1  0.83333350  0.16666650  0.00008739  1
  Ga  Ga1_5  1  0.83333350  0.16666650  0.50008739  1
  Ga  Ga1_6  1  0.83333350  0.66666650  0.00008739  1
  Ga  Ga1_7  1  0.83333350  0.66666650  0.50008739  1
  Ir  Ir0_0  1  0.33333350  0.16666650  0.24992284  1
  Ir  Ir0_1  1  0.33333350  0.16666650  0.74992284  1
  Ir  Ir0_2  1  0.33333350  0.66666650  0.24992284  1
  Ir  Ir0_3  1  0.33333350  0.66666650  0.74992284  1
  Ir  Ir0_4  1  0.83333350  0.16666650  0.24992284  1
  Ir  Ir0_5  1  0.83333350  0.16666650  0.74992284  1
  Ir  Ir0_6  1  0.83333350  0.66666650  0.24992284  1
  Ir  Ir0_7  1  0.83333350  0.66666650  0.74992284  1
  Ir  Ir1_0  1  0.16666650  0.33333350  0.49992284  1
  Ir  Ir1_1  1  0.16666650  0.33333350  0.99992284  1
  Ir  Ir1_2  1  0.16666650  0.83333350  0.49992284  1
  Ir  Ir1_3  1  0.16666650  0.83333350  0.99992284  1
  Ir  Ir1_4  1  0.66666650  0.33333350  0.49992284  1
  Ir  Ir1_5  1  0.66666650  0.33333350  0.99992284  1
  Ir  Ir1_6  1  0.66666650  0.83333350  0.49992284  1
  Ir  Ir1_7  1  0.66666650  0.83333350  0.99992284  1
  I  I0_0  1  0.16666650  0.33333350  0.12501515  1
  I  I0_1  1  0.16666650  0.33333350  0.62501515  1
  I  I0_2  1  0.16666650  0.83333350  0.12501515  1
  I  I0_3  1  0.16666650  0.83333350  0.62501515  1
  I  I0_4  1  0.66666650  0.33333350  0.12501515  1
  I  I0_5  1  0.66666650  0.33333350  0.62501515  1
  I  I0_6  1  0.66666650  0.83333350  0.12501515  1
  I  I0_7  1  0.66666650  0.83333350  0.62501515  1
  I  I1_0  1  0.33333350  0.16666650  0.37501515  1
  I  I1_1  1  0.33333350  0.16666650  0.87501515  1
  I  I1_2  1  0.33333350  0.66666650  0.37501515  1
  I  I1_3  1  0.33333350  0.66666650  0.87501515  1
  I  I1_4  1  0.83333350  0.16666650  0.37501515  1
  I  I1_5  1  0.83333350  0.16666650  0.87501515  1
  I  I1_6  1  0.83333350  0.66666650  0.37501515  1
  I  I1_7  1  0.83333350  0.66666650  0.87501515  1
loop_
_geom_bond_atom_site_label_1
_geom_bond_atom_site_label_2
_geom_bond_distance
_geom_bond_site_symmetry_2
Ba0_0 Ir0_4 3.365842 1_455
Ba0_0 Ir0_6 3.365844 1_445
Ba0_0 Ir0_0 3.365846 1_555
Ba0_0 Ga0_2 3.369943 1_545
Ba0_0 Ga0_0 3.369945 1_555
Ba0_0 Ga0_6 3.369946 1_445
Ba0_0 I0_2 3.713766 1_545
Ba0_0 I0_0 3.713767 1_555
Ba0_0 I0_6 3.713769 1_445
Ba0_1 Ir0_5 3.365842 1_455
Ba0_1 Ir0_7 3.365844 1_445
Ba0_1 Ir0_1 3.365846 1_555
Ba0_1 Ga0_3 3.369943 1_545
Ba0_1 Ga0_1 3.369945 1_555
Ba0_1 Ga0_7 3.369946 1_445
Ba0_1 I0_3 3.713766 1_545
Ba0_1 I0_1 3.713767 1_555
Ba0_1 I0_7 3.713769 1_445
Ba0_2 Ir0_6 3.365842 1_455
Ba0_2 Ir0_4 3.365844 1_455
Ba0_2 Ir0_2 3.365846 1_555
Ba0_2 Ga0_0 3.369943 1_555
Ba0_2 Ga0_2 3.369945 1_555
Ba0_2 Ga0_4 3.369946 1_455
Ba0_2 I0_0 3.713766 1_555
Ba0_2 I0_2 3.713767 1_555
Ba0_2 I0_4 3.713769 1_455
Ba0_3 Ir0_7 3.365842 1_455
Ba0_3 Ir0_5 3.365844 1_455
Ba0_3 Ir0_3 3.365846 1_555
Ba0_3 Ga0_1 3.369943 1_555
Ba0_3 Ga0_3 3.369945 1_555
Ba0_3 Ga0_5 3.369946 1_455
Ba0_3 I0_1 3.713766 1_555
Ba0_3 I0_3 3.713767 1_555
Ba0_3 I0_5 3.713769 1_455
Ba0_4 Ir0_0 3.365842 1_555
Ba0_4 Ir0_2 3.365844 1_545
Ba0_4 Ir0_4 3.365846 1_555
Ba0_4 Ga0_6 3.369943 1_545
Ba0_4 Ga0_4 3.369945 1_555
Ba0_4 Ga0_2 3.369946 1_545
Ba0_4 I0_6 3.713766 1_545
Ba0_4 I0_4 3.713767 1_555
Ba0_4 I0_2 3.713769 1_545
Ba0_5 Ir0_1 3.365842 1_555
Ba0_5 Ir0_3 3.365844 1_545
Ba0_5 Ir0_5 3.365846 1_555
Ba0_5 Ga0_7 3.369943 1_545
Ba0_5 Ga0_5 3.369945 1_555
Ba0_5 Ga0_3 3.369946 1_545
Ba0_5 I0_7 3.713766 1_545
Ba0_5 I0_5 3.713767 1_555
Ba0_5 I0_3 3.713769 1_545
Ba0_6 Ir0_2 3.365842 1_555
Ba0_6 Ir0_0 3.365844 1_555
Ba0_6 Ir0_6 3.365846 1_555
Ba0_6 Ga0_4 3.369943 1_555
Ba0_6 Ga0_6 3.369945 1_555
Ba0_6 Ga0_0 3.369946 1_555
Ba0_6 I0_4 3.713766 1_555
Ba0_6 I0_6 3.713767 1_555
Ba0_6 I0_0 3.713769 1_555
Ba0_7 Ir0_3 3.365842 1_555
Ba0_7 Ir0_1 3.365844 1_555
Ba0_7 Ir0_7 3.365846 1_555
Ba0_7 Ga0_5 3.369943 1_555
Ba0_7 Ga0_7 3.369945 1_555
Ba0_7 Ga0_1 3.369946 1_555
Ba0_7 I0_5 3.713766 1_555
Ba0_7 I0_7 3.713767 1_555
Ba0_7 I0_1 3.713769 1_555
Ba1_0 Ir1_2 3.365842 1_545
Ba1_0 Ir1_0 3.365844 1_555
Ba1_0 Ir1_6 3.365846 1_445
Ba1_0 Ga1_5 3.369943 1_455
Ba1_0 Ga1_7 3.369945 1_445
Ba1_0 Ga1_1 3.369946 1_555
Ba1_0 I1_4 3.713766 1_455
Ba1_0 I1_6 3.713767 1_445
Ba1_0 I1_0 3.713769 1_555
Ba1_1 Ir1_3 3.365842 1_545
Ba1_1 Ir1_1 3.365844 1_555
Ba1_1 Ir1_7 3.365846 1_445
Ba1_1 Ga1_4 3.369943 1_456
Ba1_1 Ga1_6 3.369945 1_446
Ba1_1 Ga1_0 3.369946 1_556
Ba1_1 I1_5 3.713766 1_455
Ba1_1 I1_7 3.713767 1_445
Ba1_1 I1_1 3.713769 1_555
Ba1_2 Ir1_0 3.365842 1_555
Ba1_2 Ir1_2 3.365844 1_555
Ba1_2 Ir1_4 3.365846 1_455
Ba1_2 Ga1_7 3.369943 1_455
Ba1_2 Ga1_5 3.369945 1_455
Ba1_2 Ga1_3 3.369946 1_555
Ba1_2 I1_6 3.713766 1_455
Ba1_2 I1_4 3.713767 1_455
Ba1_2 I1_2 3.713769 1_555
Ba1_3 Ir1_1 3.365842 1_555
Ba1_3 Ir1_3 3.365844 1_555
Ba1_3 Ir1_5 3.365846 1_455
Ba1_3 Ga1_6 3.369943 1_456
Ba1_3 Ga1_4 3.369945 1_456
Ba1_3 Ga1_2 3.369946 1_556
Ba1_3 I1_7 3.713766 1_455
Ba1_3 I1_5 3.713767 1_455
Ba1_3 I1_3 3.713769 1_555
Ba1_4 Ir1_6 3.365842 1_545
Ba1_4 Ir1_4 3.365844 1_555
Ba1_4 Ir1_2 3.365846 1_545
Ba1_4 Ga1_1 3.369943 1_555
Ba1_4 Ga1_3 3.369945 1_545
Ba1_4 Ga1_5 3.369946 1_555
Ba1_4 I1_0 3.713766 1_555
Ba1_4 I1_2 3.713767 1_545
Ba1_4 I1_4 3.713769 1_555
Ba1_5 Ir1_7 3.365842 1_545
Ba1_5 Ir1_5 3.365844 1_555
Ba1_5 Ir1_3 3.365846 1_545
Ba1_5 Ga1_0 3.369943 1_556
Ba1_5 Ga1_2 3.369945 1_546
Ba1_5 Ga1_4 3.369946 1_556
Ba1_5 I1_1 3.713766 1_555
Ba1_5 I1_3 3.713767 1_545
Ba1_5 I1_5 3.713769 1_555
Ba1_6 Ir1_4 3.365842 1_555
Ba1_6 Ir1_6 3.365844 1_555
Ba1_6 Ir1_0 3.365846 1_555
Ba1_6 Ga1_3 3.369943 1_555
Ba1_6 Ga1_1 3.369945 1_555
Ba1_6 Ga1_7 3.369946 1_555
Ba1_6 I1_2 3.713766 1_555
Ba1_6 I1_0 3.713767 1_555
Ba1_6 I1_6 3.713769 1_555
Ba1_7 Ir1_5 3.365842 1_555
Ba1_7 Ir1_7 3.365844 1_555
Ba1_7 Ir1_1 3.365846 1_555
Ba1_7 Ga1_2 3.369943 1_556
Ba1_7 Ga1_0 3.369945 1_556
Ba1_7 Ga1_6 3.369946 1_556
Ba1_7 I1_3 3.713766 1_555
Ba1_7 I1_1 3.713767 1_555
Ba1_7 I1_7 3.713769 1_555
Ba2_0 Ga0_2 3.364969 1_545
Ba2_0 Ga0_0 3.364971 1_555
Ba2_0 Ga0_6 3.364972 1_445
Ba2_0 Ir0_4 3.369067 1_455
Ba2_0 Ir0_6 3.369069 1_445
Ba2_0 Ir0_0 3.369070 1_555
Ba2_0 I1_4 3.715304 1_455
Ba2_0 I1_6 3.715306 1_445
Ba2_0 I1_0 3.715307 1_555
Ba2_1 Ga0_3 3.364969 1_545
Ba2_1 Ga0_1 3.364971 1_555
Ba2_1 Ga0_7 3.364972 1_445
Ba2_1 Ir0_5 3.369067 1_455
Ba2_1 Ir0_7 3.369069 1_445
Ba2_1 Ir0_1 3.369070 1_555
Ba2_1 I1_5 3.715304 1_455
Ba2_1 I1_7 3.715306 1_445
Ba2_1 I1_1 3.715307 1_555
Ba2_2 Ga0_0 3.364969 1_555
Ba2_2 Ga0_2 3.364971 1_555
Ba2_2 Ga0_4 3.364972 1_455
Ba2_2 Ir0_6 3.369067 1_455
Ba2_2 Ir0_4 3.369069 1_455
Ba2_2 Ir0_2 3.369070 1_555
Ba2_2 I1_6 3.715304 1_455
Ba2_2 I1_4 3.715306 1_455
Ba2_2 I1_2 3.715307 1_555
Ba2_3 Ga0_1 3.364969 1_555
Ba2_3 Ga0_3 3.364971 1_555
Ba2_3 Ga0_5 3.364972 1_455
Ba2_3 Ir0_7 3.369067 1_455
Ba2_3 Ir0_5 3.369069 1_455
Ba2_3 Ir0_3 3.369070 1_555
Ba2_3 I1_7 3.715304 1_455
Ba2_3 I1_5 3.715306 1_455
Ba2_3 I1_3 3.715307 1_555
Ba2_4 Ga0_6 3.364969 1_545
Ba2_4 Ga0_4 3.364971 1_555
Ba2_4 Ga0_2 3.364972 1_545
Ba2_4 Ir0_0 3.369067 1_555
Ba2_4 Ir0_2 3.369069 1_545
Ba2_4 Ir0_4 3.369070 1_555
Ba2_4 I1_0 3.715304 1_555
Ba2_4 I1_2 3.715306 1_545
Ba2_4 I1_4 3.715307 1_555
Ba2_5 Ga0_7 3.364969 1_545
Ba2_5 Ga0_5 3.364971 1_555
Ba2_5 Ga0_3 3.364972 1_545
Ba2_5 Ir0_1 3.369067 1_555
Ba2_5 Ir0_3 3.369069 1_545
Ba2_5 Ir0_5 3.369070 1_555
Ba2_5 I1_1 3.715304 1_555
Ba2_5 I1_3 3.715306 1_545
Ba2_5 I1_5 3.715307 1_555
Ba2_6 Ga0_4 3.364969 1_555
Ba2_6 Ga0_6 3.364971 1_555
Ba2_6 Ga0_0 3.364972 1_555
Ba2_6 Ir0_2 3.369067 1_555
Ba2_6 Ir0_0 3.369069 1_555
Ba2_6 Ir0_6 3.369070 1_555
Ba2_6 I1_2 3.715304 1_555
Ba2_6 I1_0 3.715306 1_555
Ba2_6 I1_6 3.715307 1_555
Ba2_7 Ga0_5 3.364969 1_555
Ba2_7 Ga0_7 3.364971 1_555
Ba2_7 Ga0_1 3.364972 1_555
Ba2_7 Ir0_3 3.369067 1_555
Ba2_7 Ir0_1 3.369069 1_555
Ba2_7 Ir0_7 3.369070 1_555
Ba2_7 I1_3 3.715304 1_555
Ba2_7 I1_1 3.715306 1_555
Ba2_7 I1_7 3.715307 1_555
Ba3_0 Ga1_4 3.364969 1_455
Ba3_0 Ga1_6 3.364971 1_445
Ba3_0 Ga1_0 3.364972 1_555
Ba3_0 Ir1_3 3.369067 1_544
Ba3_0 Ir1_1 3.369069 1_554
Ba3_0 Ir1_7 3.369070 1_444
Ba3_0 I0_2 3.715304 1_545
Ba3_0 I0_0 3.715306 1_555
Ba3_0 I0_6 3.715307 1_445
Ba3_1 Ga1_5 3.364969 1_455
Ba3_1 Ga1_7 3.364971 1_445
Ba3_1 Ga1_1 3.364972 1_555
Ba3_1 Ir1_2 3.369067 1_545
Ba3_1 Ir1_0 3.369069 1_555
Ba3_1 Ir1_6 3.369070 1_445
Ba3_1 I0_3 3.715304 1_545
Ba3_1 I0_1 3.715306 1_555
Ba3_1 I0_7 3.715307 1_445
Ba3_2 Ga1_6 3.364969 1_455
Ba3_2 Ga1_4 3.364971 1_455
Ba3_2 Ga1_2 3.364972 1_555
Ba3_2 Ir1_1 3.369067 1_554
Ba3_2 Ir1_3 3.369069 1_554
Ba3_2 Ir1_5 3.369070 1_454
Ba3_2 I0_0 3.715304 1_555
Ba3_2 I0_2 3.715306 1_555
Ba3_2 I0_4 3.715307 1_455
Ba3_3 Ga1_7 3.364969 1_455
Ba3_3 Ga1_5 3.364971 1_455
Ba3_3 Ga1_3 3.364972 1_555
Ba3_3 Ir1_0 3.369067 1_555
Ba3_3 Ir1_2 3.369069 1_555
Ba3_3 Ir1_4 3.369070 1_455
Ba3_3 I0_1 3.715304 1_555
Ba3_3 I0_3 3.715306 1_555
Ba3_3 I0_5 3.715307 1_455
Ba3_4 Ga1_0 3.364969 1_555
Ba3_4 Ga1_2 3.364971 1_545
Ba3_4 Ga1_4 3.364972 1_555
Ba3_4 Ir1_7 3.369067 1_544
Ba3_4 Ir1_5 3.369069 1_554
Ba3_4 Ir1_3 3.369070 1_544
Ba3_4 I0_6 3.715304 1_545
Ba3_4 I0_4 3.715306 1_555
Ba3_4 I0_2 3.715307 1_545
Ba3_5 Ga1_1 3.364969 1_555
Ba3_5 Ga1_3 3.364971 1_545
Ba3_5 Ga1_5 3.364972 1_555
Ba3_5 Ir1_6 3.369067 1_545
Ba3_5 Ir1_4 3.369069 1_555
Ba3_5 Ir1_2 3.369070 1_545
Ba3_5 I0_7 3.715304 1_545
Ba3_5 I0_5 3.715306 1_555
Ba3_5 I0_3 3.715307 1_545
Ba3_6 Ga1_2 3.364969 1_555
Ba3_6 Ga1_0 3.364971 1_555
Ba3_6 Ga1_6 3.364972 1_555
Ba3_6 Ir1_5 3.369067 1_554
Ba3_6 Ir1_7 3.369069 1_554
Ba3_6 Ir1_1 3.369070 1_554
Ba3_6 I0_4 3.715304 1_555
Ba3_6 I0_6 3.715306 1_555
Ba3_6 I0_0 3.715307 1_555
Ba3_7 Ga1_3 3.364969 1_555
Ba3_7 Ga1_1 3.364971 1_555
Ba3_7 Ga1_7 3.364972 1_555
Ba3_7 Ir1_4 3.369067 1_555
Ba3_7 Ir1_6 3.369069 1_555
Ba3_7 Ir1_0 3.369070 1_555
Ba3_7 I0_5 3.715304 1_555
Ba3_7 I0_7 3.715306 1_555
Ba3_7 I0_1 3.715307 1_555
Ga0_0 Ir0_2 2.578094 1_555
Ga0_0 Ir0_4 2.578096 1_455
Ga0_0 Ir0_0 2.578103 1_555
Ga0_1 Ir0_3 2.578094 1_555
Ga0_1 Ir0_5 2.578096 1_455
Ga0_1 Ir0_1 2.578103 1_555
Ga0_2 Ir0_0 2.578094 1_565
Ga0_2 Ir0_6 2.578096 1_455
Ga0_2 Ir0_2 2.578103 1_555
Ga0_3 Ir0_1 2.578094 1_565
Ga0_3 Ir0_7 2.578096 1_455
Ga0_3 Ir0_3 2.578103 1_555
Ga0_4 Ir0_6 2.578094 1_555
Ga0_4 Ir0_0 2.578096 1_555
Ga0_4 Ir0_4 2.578103 1_555
Ga0_5 Ir0_7 2.578094 1_555
Ga0_5 Ir0_1 2.578096 1_555
Ga0_5 Ir0_5 2.578103 1_555
Ga0_6 Ir0_4 2.578094 1_565
Ga0_6 Ir0_2 2.578096 1_555
Ga0_6 Ir0_6 2.578103 1_555
Ga0_7 Ir0_5 2.578094 1_565
Ga0_7 Ir0_3 2.578096 1_555
Ga0_7 Ir0_7 2.578103 1_555
Ga1_0 Ir1_3 2.578094 1_544
Ga1_0 Ir1_5 2.578096 1_554
Ga1_0 Ir1_1 2.578103 1_554
Ga1_1 Ir1_2 2.578094 1_545
Ga1_1 Ir1_4 2.578096 1_555
Ga1_1 Ir1_0 2.578103 1_555
Ga1_2 Ir1_1 2.578094 1_554
Ga1_2 Ir1_7 2.578096 1_554
Ga1_2 Ir1_3 2.578103 1_554
Ga1_3 Ir1_0 2.578094 1_555
Ga1_3 Ir1_6 2.578096 1_555
Ga1_3 Ir1_2 2.578103 1_555
Ga1_4 Ir1_7 2.578094 1_544
Ga1_4 Ir1_1 2.578096 1_654
Ga1_4 Ir1_5 2.578103 1_554
Ga1_5 Ir1_6 2.578094 1_545
Ga1_5 Ir1_0 2.578096 1_655
Ga1_5 Ir1_4 2.578103 1_555
Ga1_6 Ir1_5 2.578094 1_554
Ga1_6 Ir1_3 2.578096 1_654
Ga1_6 Ir1_7 2.578103 1_554
Ga1_7 Ir1_4 2.578094 1_555
Ga1_7 Ir1_2 2.578096 1_655
Ga1_7 Ir1_6 2.578103 1_555
I0_0 I0_2 4.465382 1_555
I0_0 I0_2 4.465382 1_545
I0_0 I0_6 4.465382 1_445
I0_0 I0_6 4.465382 1_555
I0_0 I0_4 4.465385 1_455
I0_0 I0_4 4.465385 1_555
I0_1 I0_3 4.465382 1_545
I0_1 I0_3 4.465382 1_555
I0_1 I0_7 4.465382 1_445
I0_1 I0_7 4.465382 1_555
I0_1 I0_5 4.465385 1_455
I0_1 I0_5 4.465385 1_555
I0_2 I0_4 4.465382 1_455
I0_2 I0_4 4.465382 1_565
I0_2 I0_6 4.465385 1_455
I0_2 I0_6 4.465385 1_555
I0_3 I0_5 4.465382 1_455
I0_3 I0_5 4.465382 1_565
I0_3 I0_7 4.465385 1_455
I0_3 I0_7 4.465385 1_555
I0_4 I0_6 4.465382 1_555
I0_4 I0_6 4.465382 1_545
I0_5 I0_7 4.465382 1_555
I0_5 I0_7 4.465382 1_545
I1_0 I1_2 4.465382 1_545
I1_0 I1_2 4.465382 1_555
I1_0 I1_6 4.465382 1_445
I1_0 I1_6 4.465382 1_555
I1_0 I1_4 4.465385 1_455
I1_0 I1_4 4.465385 1_555
I1_1 I1_3 4.465382 1_555
I1_1 I1_3 4.465382 1_545
I1_1 I1_7 4.465382 1_445
I1_1 I1_7 4.465382 1_555
I1_1 I1_5 4.465385 1_455
I1_1 I1_5 4.465385 1_555
I1_2 I1_4 4.465382 1_455
I1_2 I1_4 4.465382 1_565
I1_2 I1_6 4.465385 1_455
I1_2 I1_6 4.465385 1_555
I1_3 I1_5 4.465382 1_455
I1_3 I1_5 4.465382 1_565
I1_3 I1_7 4.465385 1_455
I1_3 I1_7 4.465385 1_555
I1_4 I1_6 4.465382 1_555
I1_4 I1_6 4.465382 1_545
I1_5 I1_7 4.465382 1_545
I1_5 I1_7 4.465382 1_555
