# generated using pymatgen
data_Zr10GaBi5B2
_symmetry_space_group_name_H-M   'P 1'
_cell_length_a   8.63253584
_cell_length_b   8.54908950
_cell_length_c   5.84863764
_cell_angle_alpha   90.00000000
_cell_angle_beta   90.00000000
_cell_angle_gamma   119.68075129
_symmetry_Int_Tables_number   1
_chemical_formula_structural   Zr10GaBi5B2
_chemical_formula_sum   'Zr10 Ga1 Bi5 B2'
_cell_volume   375.00040690
_cell_formula_units_Z   1
loop_
 _symmetry_equiv_pos_site_id
 _symmetry_equiv_pos_as_xyz
  1  'x, y, z'
loop_
 _atom_site_type_symbol
 _atom_site_label
 _atom_site_symmetry_multiplicity
 _atom_site_fract_x
 _atom_site_fract_y
 _atom_site_fract_z
 _atom_site_occupancy
  Zr  Zr0  1  0.67483121  0.33504688  0.00426067  1
  Zr  Zr1  1  0.32516879  0.66021867  0.00426067  1
  Zr  Zr2  1  0.32516879  0.66021867  0.49573933  1
  Zr  Zr3  1  0.67483121  0.33504688  0.49573933  1
  Zr  Zr4  1  0.77471520  0.77171335  0.75000000  1
  Zr  Zr5  1  0.22528480  0.99699715  0.75000000  1
  Zr  Zr6  1  1.00000000  0.22918598  0.75000000  1
  Zr  Zr7  1  0.22025238  0.23503338  0.25000000  1
  Zr  Zr8  1  0.77974762  0.01478100  0.25000000  1
  Zr  Zr9  1  1.00000000  0.76407862  0.25000000  1
  Ga  Ga0  1  0.00000000  0.40192367  0.25000000  1
  Bi  Bi0  1  0.40017961  0.39745349  0.75000000  1
  Bi  Bi1  1  0.59982039  0.99727388  0.75000000  1
  Bi  Bi2  1  1.00000000  0.59280539  0.75000000  1
  Bi  Bi3  1  0.60423457  0.60657180  0.25000000  1
  Bi  Bi4  1  0.39576543  0.00233723  0.25000000  1
  B  B0  1  0.00000000  0.99965847  0.00124319  1
  B  B1  1  0.00000000  0.99965847  0.49875681  1
loop_
_geom_bond_atom_site_label_1
_geom_bond_atom_site_label_2
_geom_bond_distance
_geom_bond_site_symmetry_2
Zr0 Zr3 2.874481 1_555
Zr0 Zr3 2.974157 1_554
Zr0 Zr8 3.583056 1_555
Zr0 Zr9 3.633438 1_555
Zr0 Zr6 3.664113 1_554
Zr0 Zr4 3.701778 1_554
Zr1 Zr2 2.874481 1_555
Zr1 Zr2 2.974157 1_554
Zr1 Zr7 3.583079 1_555
Zr1 Zr9 3.633422 1_455
Zr1 Zr6 3.664129 1_454
Zr1 Zr5 3.701748 1_554
Zr2 Zr7 3.583079 1_555
Zr2 Zr9 3.633422 1_455
Zr2 Zr6 3.664129 1_455
Zr2 Zr5 3.701748 1_555
Zr3 Zr8 3.583056 1_555
Zr3 Zr9 3.633438 1_555
Zr3 Zr6 3.664113 1_555
Zr3 Zr4 3.701778 1_555
Ga0 Zr8 2.887430 1_455
Ga0 Zr7 2.887430 1_555
Ga0 Zr3 2.946625 1_455
Ga0 Zr0 2.946625 1_455
Ga0 Zr2 2.946632 1_555
Ga0 Zr1 2.946632 1_555
Ga0 Zr9 3.096095 1_455
Ga0 Zr6 3.276039 1_455
Ga0 Zr6 3.276039 1_454
Bi0 Zr5 2.980137 1_545
Bi0 Zr6 3.013623 1_455
Bi0 Zr1 3.019535 1_556
Bi0 Zr2 3.019535 1_555
Bi0 Zr0 3.061065 1_556
Bi0 Zr3 3.061065 1_555
Bi0 Zr4 3.232025 1_555
Bi0 Zr7 3.279685 1_556
Bi0 Zr7 3.279685 1_555
Bi0 Bi3 3.425194 1_555
Bi0 Bi3 3.425194 1_556
Bi1 Zr4 2.980129 1_555
Bi1 Zr6 3.013623 1_565
Bi1 Zr0 3.019513 1_566
Bi1 Zr3 3.019513 1_565
Bi1 Zr1 3.061050 1_556
Bi1 Zr2 3.061050 1_555
Bi1 Zr5 3.232021 1_555
Bi1 Zr8 3.279685 1_566
Bi1 Zr8 3.279685 1_565
Bi1 Bi4 3.425194 1_565
Bi1 Bi4 3.425194 1_566
Bi2 Zr1 2.969993 1_656
Bi2 Zr2 2.969993 1_655
Bi2 Zr0 2.970000 1_556
Bi2 Zr3 2.970000 1_555
Bi2 Zr5 3.011192 1_655
Bi2 Zr4 3.011200 1_555
Bi2 Zr6 3.108615 1_555
Bi2 Zr9 3.270414 1_555
Bi2 Zr9 3.270414 1_556
Bi2 Ga0 3.348824 1_656
Bi2 Ga0 3.348824 1_655
Bi3 Zr9 2.988216 1_555
Bi3 Zr2 3.028810 1_555
Bi3 Zr1 3.028810 1_555
Bi3 Zr3 3.037505 1_555
Bi3 Zr0 3.037505 1_555
Bi3 Zr8 3.039413 1_565
Bi3 Zr7 3.263372 1_555
Bi3 Zr4 3.263900 1_554
Bi3 Zr4 3.263900 1_555
Bi4 Zr9 2.988216 1_445
Bi4 Zr3 3.028795 1_555
Bi4 Zr0 3.028795 1_555
Bi4 Zr2 3.037483 1_545
Bi4 Zr1 3.037483 1_545
Bi4 Zr7 3.039413 1_555
Bi4 Zr8 3.263372 1_555
Bi4 Zr5 3.263898 1_544
Bi4 Zr5 3.263898 1_545
B0 Zr4 2.446571 1_454
B0 Zr5 2.446575 1_554
B0 Zr7 2.447842 1_565
B0 Zr8 2.447842 1_465
B0 Zr6 2.451460 1_464
B0 Zr9 2.484526 1_455
B1 Zr4 2.446571 1_455
B1 Zr5 2.446575 1_555
B1 Zr7 2.447842 1_565
B1 Zr8 2.447842 1_465
B1 Zr6 2.451460 1_465
B1 Zr9 2.484526 1_455
