# generated using pymatgen
data_Ho6FeBi2
_symmetry_space_group_name_H-M   'P 1'
_cell_length_a   8.28347851
_cell_length_b   8.28348212
_cell_length_c   4.17985701
_cell_angle_alpha   90.00000000
_cell_angle_beta   90.00000000
_cell_angle_gamma   120.00001239
_symmetry_Int_Tables_number   1
_chemical_formula_structural   Ho6FeBi2
_chemical_formula_sum   'Ho6 Fe1 Bi2'
_cell_volume   248.38061141
_cell_formula_units_Z   1
loop_
 _symmetry_equiv_pos_site_id
 _symmetry_equiv_pos_as_xyz
  1  'x, y, z'
loop_
 _atom_site_type_symbol
 _atom_site_label
 _atom_site_symmetry_multiplicity
 _atom_site_fract_x
 _atom_site_fract_y
 _atom_site_fract_z
 _atom_site_occupancy
  Ho  Ho0  1  0.23294516  -0.00000000  -0.00000000  1
  Ho  Ho1  1  -0.00000000  0.60634787  0.50000000  1
  Ho  Ho2  1  0.39365213  0.39365213  0.50000000  1
  Ho  Ho3  1  0.76705484  0.76705484  0.00000000  1
  Ho  Ho4  1  0.00000000  0.23294516  -0.00000000  1
  Ho  Ho5  1  0.60634787  0.00000000  0.50000000  1
  Fe  Fe0  1  0.00000000  0.00000100  0.50000000  1
  Bi  Bi0  1  0.33333300  0.66666700  -0.00000000  1
  Bi  Bi1  1  0.66666700  0.33333300  -0.00000000  1
loop_
_geom_bond_atom_site_label_1
_geom_bond_atom_site_label_2
_geom_bond_distance
_geom_bond_site_symmetry_2
Ho0 Ho3 3.342158 1_445
Ho0 Ho4 3.342160 1_555
Ho0 Ho1 3.525901 1_545
Ho0 Ho1 3.525901 1_544
Ho0 Ho2 3.525901 1_555
Ho0 Ho2 3.525901 1_554
Ho0 Ho5 3.732948 1_555
Ho0 Ho5 3.732948 1_554
Ho1 Ho3 3.525901 1_455
Ho1 Ho3 3.525901 1_456
Ho1 Ho4 3.732950 1_556
Ho1 Ho4 3.732950 1_555
Ho2 Ho4 3.525900 1_556
Ho2 Ho4 3.525900 1_555
Ho2 Ho3 3.732948 1_555
Ho2 Ho3 3.732948 1_556
Ho3 Ho4 3.342160 1_665
Ho3 Ho5 3.525901 1_565
Ho3 Ho5 3.525901 1_564
Ho4 Ho5 3.525900 1_454
Ho4 Ho5 3.525900 1_455
Fe0 Ho4 2.844488 1_555
Fe0 Ho4 2.844488 1_556
Fe0 Ho0 2.844496 1_556
Fe0 Ho0 2.844496 1_555
Fe0 Ho3 2.844496 1_446
Fe0 Ho3 2.844496 1_445
Fe0 Ho5 3.260805 1_455
Fe0 Ho2 3.260805 1_555
Fe0 Ho1 3.260819 1_545
Bi0 Ho0 3.257538 1_565
Bi0 Ho4 3.257543 1_555
Bi0 Ho3 3.257545 1_555
Bi0 Ho1 3.295728 1_555
Bi0 Ho1 3.295728 1_554
Bi0 Ho5 3.295730 1_565
Bi0 Ho5 3.295730 1_564
Bi0 Ho2 3.295735 1_554
Bi0 Ho2 3.295735 1_555
Bi1 Ho4 3.257538 1_655
Bi1 Ho0 3.257543 1_555
Bi1 Ho3 3.257547 1_555
Bi1 Ho5 3.295729 1_554
Bi1 Ho5 3.295729 1_555
Bi1 Ho1 3.295730 1_654
Bi1 Ho1 3.295730 1_655
Bi1 Ho2 3.295734 1_554
Bi1 Ho2 3.295734 1_555
