# generated using pymatgen
data_BaSiN2
_symmetry_space_group_name_H-M   'P 1'
_cell_length_a   5.62590576
_cell_length_b   6.40781943
_cell_length_c   7.61595112
_cell_angle_alpha   90.00000000
_cell_angle_beta   90.00000000
_cell_angle_gamma   116.03929480
_symmetry_Int_Tables_number   1
_chemical_formula_structural   BaSiN2
_chemical_formula_sum   'Ba4 Si4 N8'
_cell_volume   246.68438253
_cell_formula_units_Z   4
loop_
 _symmetry_equiv_pos_site_id
 _symmetry_equiv_pos_as_xyz
  1  'x, y, z'
loop_
 _atom_site_type_symbol
 _atom_site_label
 _atom_site_symmetry_multiplicity
 _atom_site_fract_x
 _atom_site_fract_y
 _atom_site_fract_z
 _atom_site_occupancy
  Ba  Ba0  1  0.83595632  0.67191464  0.56448477  1
  Ba  Ba1  1  0.16404368  0.32808536  0.43551523  1
  Ba  Ba2  1  0.66404368  0.32808536  0.06448477  1
  Ba  Ba3  1  0.33595632  0.67191464  0.93551523  1
  Si  Si0  1  0.04848822  0.09697543  0.85981486  1
  Si  Si1  1  0.45151178  0.90302457  0.35981486  1
  Si  Si2  1  0.95151178  0.90302457  0.14018514  1
  Si  Si3  1  0.54848822  0.09697543  0.64018514  1
  N  N0  1  0.34478346  0.18956592  0.75000000  1
  N  N1  1  0.15521654  0.81043408  0.25000000  1
  N  N2  1  0.65521654  0.81043408  0.25000000  1
  N  N3  1  0.84478346  0.18956592  0.75000000  1
  N  N4  1  0.89945124  0.79890348  0.92060540  1
  N  N5  1  0.39945124  0.79890348  0.57939460  1
  N  N6  1  0.60054876  0.20109652  0.42060540  1
  N  N7  1  0.10054876  0.20109652  0.07939460  1
loop_
_geom_bond_atom_site_label_1
_geom_bond_atom_site_label_2
_geom_bond_distance
_geom_bond_site_symmetry_2
Ba0 N4 2.809013 1_555
Ba0 N2 2.889757 1_555
Ba0 N1 2.889760 1_655
Ba0 N5 2.908629 1_555
Ba0 N5 2.908635 1_655
Ba0 N6 2.923784 1_555
Ba0 N0 3.418547 1_555
Ba0 N3 3.418554 1_555
Ba1 N7 2.809013 1_555
Ba1 N0 2.889757 1_555
Ba1 N3 2.889760 1_455
Ba1 N6 2.908629 1_555
Ba1 N6 2.908635 1_455
Ba1 N5 2.923784 1_555
Ba1 N2 3.418547 1_555
Ba1 N1 3.418554 1_555
Ba2 N6 2.809013 1_555
Ba2 N3 2.889757 1_554
Ba2 N0 2.889760 1_554
Ba2 N7 2.908629 1_655
Ba2 N7 2.908635 1_555
Ba2 N4 2.923784 1_554
Ba2 N1 3.418547 1_655
Ba2 N2 3.418554 1_555
Ba3 N5 2.809013 1_555
Ba3 N1 2.889757 1_556
Ba3 N2 2.889760 1_556
Ba3 N4 2.908629 1_455
Ba3 N4 2.908635 1_555
Ba3 N7 2.923784 1_556
Ba3 N3 3.418547 1_455
Ba3 N0 3.418554 1_555
N0 Si3 1.720994 1_555
N0 Si0 1.720994 1_555
N1 Si2 1.720994 1_455
N1 Si1 1.720994 1_555
N2 Si1 1.720994 1_555
N2 Si2 1.720994 1_555
N3 Si0 1.720994 1_655
N3 Si3 1.720994 1_555
N4 Si2 1.776506 1_556
N4 Si0 1.777469 1_665
N5 Si1 1.776506 1_555
N5 Si3 1.777469 1_565
N6 Si3 1.776506 1_555
N6 Si1 1.777469 1_545
N7 Si0 1.776506 1_554
N7 Si2 1.777469 1_445
