# generated using pymatgen
data_SrNi(Sb4Ru)3
_symmetry_space_group_name_H-M   'P 1'
_cell_length_a   8.06006090
_cell_length_b   8.06006056
_cell_length_c   8.06006096
_cell_angle_alpha   109.34334245
_cell_angle_beta   109.34333414
_cell_angle_gamma   109.34333459
_symmetry_Int_Tables_number   1
_chemical_formula_structural   SrNi(Sb4Ru)3
_chemical_formula_sum   'Sr1 Ni1 Sb12 Ru3'
_cell_volume   404.97893700
_cell_formula_units_Z   1
loop_
 _symmetry_equiv_pos_site_id
 _symmetry_equiv_pos_as_xyz
  1  'x, y, z'
loop_
 _atom_site_type_symbol
 _atom_site_label
 _atom_site_symmetry_multiplicity
 _atom_site_fract_x
 _atom_site_fract_y
 _atom_site_fract_z
 _atom_site_occupancy
  Sr  Sr0  1  0.00000000  0.00000000  0.00000000  1
  Ni  Ni0  1  0.50000000  0.50000000  0.50000000  1
  Sb  Sb0  1  0.15898204  0.49902816  0.34262492  1
  Sb  Sb1  1  0.50097184  0.65737508  0.84101796  1
  Sb  Sb2  1  0.33992801  0.84085885  0.18207853  1
  Sb  Sb3  1  0.81792147  0.66007199  0.15914115  1
  Sb  Sb4  1  0.65737508  0.84101796  0.50097184  1
  Sb  Sb5  1  0.18207853  0.33992801  0.84085885  1
  Sb  Sb6  1  0.66007199  0.15914115  0.81792147  1
  Sb  Sb7  1  0.34262492  0.15898204  0.49902816  1
  Sb  Sb8  1  0.49902816  0.34262492  0.15898204  1
  Sb  Sb9  1  0.84101796  0.50097184  0.65737508  1
  Sb  Sb10  1  0.84085885  0.18207853  0.33992801  1
  Sb  Sb11  1  0.15914115  0.81792147  0.66007199  1
  Ru  Ru0  1  0.50000000  0.00000000  0.00000000  1
  Ru  Ru1  1  0.00000000  0.50000000  0.00000000  1
  Ru  Ru2  1  0.00000000  0.00000000  0.50000000  1
loop_
_geom_bond_atom_site_label_1
_geom_bond_atom_site_label_2
_geom_bond_distance
_geom_bond_site_symmetry_2
Ni0 Sb1 2.614092 1_555
Ni0 Sb8 2.614092 1_555
Ni0 Sb4 2.614092 1_555
Ni0 Sb7 2.614092 1_555
Ni0 Sb9 2.614092 1_555
Ni0 Sb0 2.614092 1_555
Sb0 Sb10 2.947573 1_455
Sb0 Sb11 2.965148 1_555
Sb0 Sb4 3.507371 1_555
Sb0 Sb1 3.507371 1_555
Sb0 Sr0 3.511338 1_555
Sb0 Sb2 3.513205 1_555
Sb0 Sb3 3.517259 1_455
Sb1 Sb3 2.947573 1_556
Sb1 Sb5 2.965149 1_555
Sb1 Sb7 3.507371 1_555
Sb1 Sr0 3.511339 1_666
Sb1 Sb11 3.513205 1_555
Sb1 Sb2 3.517259 1_556
Sb2 Sb7 2.947573 1_565
Sb2 Sb4 2.965149 1_555
Sb2 Sr0 3.495315 1_565
Sb2 Sb5 3.522391 1_554
Sb3 Sb8 2.965149 1_555
Sb3 Sr0 3.495315 1_665
Sb3 Sb4 3.513205 1_555
Sb3 Sb6 3.522391 1_554
Sb4 Sb6 2.947573 1_565
Sb4 Sb8 3.507371 1_555
Sb4 Sr0 3.511339 1_666
Sb5 Sb8 2.947573 1_556
Sb5 Sr0 3.495315 1_556
Sb5 Sb7 3.513205 1_555
Sb5 Sb9 3.517259 1_455
Sb6 Sb7 2.965149 1_555
Sb6 Sr0 3.495315 1_656
Sb6 Sb9 3.513205 1_555
Sb6 Sb8 3.517259 1_556
Sb7 Sb9 3.507371 1_555
Sb7 Sr0 3.511339 1_555
Sb8 Sb9 3.507371 1_555
Sb8 Sr0 3.511339 1_555
Sb9 Sr0 3.511338 1_666
Sb10 Sb9 2.965148 1_555
Sb10 Sr0 3.495315 1_655
Sb10 Sb8 3.513205 1_555
Sb10 Sb4 3.517259 1_545
Sb10 Sb2 3.522392 1_545
Sb10 Sb5 3.522392 1_655
Sb11 Sb9 2.947573 1_455
Sb11 Sr0 3.495315 1_566
Sb11 Sb7 3.517259 1_565
Sb11 Sb6 3.522392 1_565
Sb11 Sb3 3.522392 1_455
Ru0 Sb6 2.620813 1_554
Ru0 Sb2 2.620813 1_545
Ru0 Sb10 2.624356 1_555
Ru0 Sb11 2.624356 1_544
Ru0 Sb8 2.635359 1_555
Ru0 Sb1 2.635359 1_544
Ru1 Sb3 2.620813 1_455
Ru1 Sb5 2.620813 1_554
Ru1 Sb2 2.624356 1_555
Ru1 Sb6 2.624356 1_454
Ru1 Sb0 2.635359 1_555
Ru1 Sb9 2.635359 1_454
Ru2 Sb11 2.620813 1_545
Ru2 Sb10 2.620813 1_455
Ru2 Sb5 2.624356 1_555
Ru2 Sb3 2.624356 1_445
Ru2 Sb7 2.635359 1_555
Ru2 Sb4 2.635359 1_445
