# generated using pymatgen
data_K8Cd3Hg9Se16
_symmetry_space_group_name_H-M   'P 1'
_cell_length_a   6.89737606
_cell_length_b   10.96773791
_cell_length_c   14.26887565
_cell_angle_alpha   90.01398003
_cell_angle_beta   90.00000000
_cell_angle_gamma   90.00000000
_symmetry_Int_Tables_number   1
_chemical_formula_structural   K8Cd3Hg9Se16
_chemical_formula_sum   'K8 Cd3 Hg9 Se16'
_cell_volume   1079.42061968
_cell_formula_units_Z   1
loop_
 _symmetry_equiv_pos_site_id
 _symmetry_equiv_pos_as_xyz
  1  'x, y, z'
loop_
 _atom_site_type_symbol
 _atom_site_label
 _atom_site_symmetry_multiplicity
 _atom_site_fract_x
 _atom_site_fract_y
 _atom_site_fract_z
 _atom_site_occupancy
  K  K0  1  0.73179871  0.87837843  0.50279868  1
  K  K1  1  0.27104308  0.12039124  0.49890096  1
  K  K2  1  0.76940711  0.61995510  0.00332325  1
  K  K3  1  0.73179871  0.12162157  0.99720132  1
  K  K4  1  0.22917997  0.37921491  0.99795278  1
  K  K5  1  0.27104308  0.87960876  0.00109904  1
  K  K6  1  0.76940711  0.38004490  0.49667675  1
  K  K7  1  0.22917997  0.62078509  0.50204722  1
  Cd  Cd0  1  0.59297226  0.50000000  0.75000000  1
  Cd  Cd1  1  0.40683382  0.50000000  0.25000000  1
  Cd  Cd2  1  0.90666603  0.00000000  0.25000000  1
  Hg  Hg0  1  0.09093619  0.00000000  0.75000000  1
  Hg  Hg1  1  0.59147909  0.84160720  0.75879643  1
  Hg  Hg2  1  0.40850228  0.15732280  0.24133512  1
  Hg  Hg3  1  0.90871396  0.65771415  0.25879402  1
  Hg  Hg4  1  0.59147909  0.15839280  0.74120357  1
  Hg  Hg5  1  0.09187110  0.34290268  0.74109613  1
  Hg  Hg6  1  0.40850228  0.84267720  0.25866488  1
  Hg  Hg7  1  0.90871396  0.34228585  0.24120598  1
  Hg  Hg8  1  0.09187110  0.65709732  0.75890387  1
  Se  Se0  1  0.82883471  0.63176065  0.63890650  1
  Se  Se1  1  0.17167376  0.36800737  0.36134630  1
  Se  Se2  1  0.67132260  0.86828037  0.13859814  1
  Se  Se3  1  0.82883471  0.36823935  0.86109350  1
  Se  Se4  1  0.33080704  0.13348311  0.86209555  1
  Se  Se5  1  0.17167376  0.63199263  0.13865370  1
  Se  Se6  1  0.67132260  0.13171963  0.36140186  1
  Se  Se7  1  0.33080704  0.86651689  0.63790445  1
  Se  Se8  1  0.86880444  0.87086651  0.87069487  1
  Se  Se9  1  0.12795942  0.12832725  0.13084479  1
  Se  Se10  1  0.62814872  0.62840009  0.36918994  1
  Se  Se11  1  0.86880444  0.12913349  0.62930513  1
  Se  Se12  1  0.37174837  0.37206928  0.63047147  1
  Se  Se13  1  0.12795942  0.87167275  0.36915521  1
  Se  Se14  1  0.62814872  0.37159991  0.13081006  1
  Se  Se15  1  0.37174837  0.62793072  0.86952853  1
loop_
_geom_bond_atom_site_label_1
_geom_bond_atom_site_label_2
_geom_bond_distance
_geom_bond_site_symmetry_2
K0 Se13 3.332890 1_655
K0 Se7 3.373883 1_555
K0 Se0 3.396829 1_555
K0 Se10 3.414673 1_555
K0 Se11 3.422376 1_565
K0 Se6 3.459457 1_565
K0 K1 4.141058 1_565
K1 Se11 3.341951 1_455
K1 Se6 3.389290 1_555
K1 Se12 3.409385 1_555
K1 Se1 3.420564 1_555
K1 Se13 3.440966 1_545
K1 Se7 3.443780 1_545
K2 Se15 3.342957 1_554
K2 Se5 3.382963 1_655
K2 Se2 3.405685 1_555
K2 Se8 3.409851 1_554
K2 Se14 3.417661 1_555
K2 Se3 3.450469 1_554
K2 K4 4.127231 1_654
K3 Se9 3.332890 1_656
K3 Se4 3.373883 1_555
K3 Se3 3.396829 1_555
K3 Se14 3.414673 1_556
K3 Se8 3.422376 1_545
K3 Se2 3.459457 1_546
K3 K5 4.141058 1_546
K4 Se14 3.342668 1_556
K4 Se3 3.384208 1_455
K4 Se4 3.392695 1_555
K4 Se9 3.414280 1_556
K4 Se15 3.430528 1_555
K4 Se5 3.445496 1_556
K5 Se8 3.341951 1_454
K5 Se2 3.389290 1_555
K5 Se15 3.409385 1_554
K5 Se5 3.420564 1_555
K5 Se9 3.440966 1_565
K5 Se4 3.443780 1_564
K6 Se12 3.342957 1_555
K6 Se1 3.382963 1_655
K6 Se6 3.405685 1_555
K6 Se11 3.409851 1_555
K6 Se10 3.417661 1_555
K6 Se0 3.450469 1_555
K6 K7 4.127231 1_655
K7 Se10 3.342668 1_555
K7 Se0 3.384208 1_455
K7 Se7 3.392695 1_555
K7 Se13 3.414280 1_555
K7 Se12 3.430528 1_555
K7 Se1 3.445496 1_555
Cd0 Se15 2.684152 1_555
Cd0 Se12 2.684152 1_555
Cd0 Se3 2.692370 1_555
Cd0 Se0 2.692370 1_555
Cd1 Se10 2.684139 1_555
Cd1 Se14 2.684139 1_555
Cd1 Se1 2.692941 1_555
Cd1 Se5 2.692941 1_555
Cd2 Se13 2.683757 1_645
Cd2 Se9 2.683757 1_655
Cd2 Se6 2.692146 1_555
Cd2 Se2 2.692146 1_545
Hg0 Se8 2.705627 1_445
Hg0 Se11 2.705627 1_455
Hg0 Se4 2.727234 1_555
Hg0 Se7 2.727234 1_545
Hg1 Se7 2.506612 1_555
Hg1 Se8 2.512159 1_555
Hg1 Se15 3.207403 1_555
Hg1 Se0 3.301795 1_555
Hg1 Hg4 3.483539 1_565
Hg1 K0 3.800398 1_555
Hg1 K5 4.124484 1_556
Hg2 Se6 2.510048 1_555
Hg2 Se9 2.516095 1_555
Hg2 Se14 3.210493 1_555
Hg2 Se1 3.307304 1_555
Hg2 Hg6 3.459859 1_545
Hg2 K1 3.817148 1_555
Hg2 K3 4.154512 1_554
Hg3 Se5 2.511511 1_655
Hg3 Se10 2.515911 1_555
Hg3 Se13 3.204919 1_655
Hg3 Se2 3.310266 1_555
Hg3 Hg7 3.468565 1_555
Hg3 K2 3.792371 1_555
Hg3 K7 4.134971 1_655
Hg4 Se4 2.506612 1_555
Hg4 Se11 2.512159 1_555
Hg4 Se12 3.207403 1_555
Hg4 Se3 3.301795 1_555
Hg4 K3 3.800398 1_555
Hg4 K1 4.124484 1_555
Hg5 Se3 2.510031 1_455
Hg5 Se12 2.514105 1_555
Hg5 Se11 3.225960 1_455
Hg5 Se4 3.312762 1_555
Hg5 Hg8 3.455298 1_555
Hg5 K4 3.806242 1_555
Hg5 K6 4.156536 1_455
Hg6 Se2 2.510048 1_555
Hg6 Se13 2.516095 1_555
Hg6 Se10 3.210493 1_555
Hg6 Se5 3.307304 1_555
Hg6 K5 3.817148 1_555
Hg6 K0 4.154512 1_555
Hg7 Se1 2.511511 1_655
Hg7 Se14 2.515911 1_555
Hg7 Se9 3.204919 1_655
Hg7 Se6 3.310266 1_555
Hg7 K6 3.792371 1_555
Hg7 K4 4.134971 1_654
Hg8 Se0 2.510031 1_455
Hg8 Se15 2.514105 1_555
Hg8 Se8 3.225960 1_455
Hg8 Se7 3.312762 1_555
Hg8 K7 3.806242 1_555
Hg8 K2 4.156536 1_456
