# generated using pymatgen
data_Na10ZrGeAs6
_symmetry_space_group_name_H-M   'P 1'
_cell_length_a   7.52241815
_cell_length_b   8.36068116
_cell_length_c   16.03187507
_cell_angle_alpha   57.86006693
_cell_angle_beta   90.00000000
_cell_angle_gamma   90.00000000
_symmetry_Int_Tables_number   1
_chemical_formula_structural   Na10ZrGeAs6
_chemical_formula_sum   'Na20 Zr2 Ge2 As12'
_cell_volume   853.76697249
_cell_formula_units_Z   2
loop_
 _symmetry_equiv_pos_site_id
 _symmetry_equiv_pos_as_xyz
  1  'x, y, z'
loop_
 _atom_site_type_symbol
 _atom_site_label
 _atom_site_symmetry_multiplicity
 _atom_site_fract_x
 _atom_site_fract_y
 _atom_site_fract_z
 _atom_site_occupancy
  Na  Na0  1  0.47927688  0.06607483  0.24738332  1
  Na  Na1  1  0.97927688  0.93392517  0.25261668  1
  Na  Na2  1  0.51422613  0.91875787  0.76112062  1
  Na  Na3  1  0.01422613  0.08124213  0.73887938  1
  Na  Na4  1  0.01959195  0.42019121  0.41902672  1
  Na  Na5  1  0.51959195  0.57980879  0.08097328  1
  Na  Na6  1  0.96585495  0.59436910  0.58482631  1
  Na  Na7  1  0.46585495  0.40563090  0.91517369  1
  Na  Na8  1  0.52112496  0.25437809  0.40760755  1
  Na  Na9  1  0.02112496  0.74562191  0.09239245  1
  Na  Na10  1  0.48620374  0.74582955  0.58876075  1
  Na  Na11  1  0.98620374  0.25417045  0.91123925  1
  Na  Na12  1  0.65490110  0.98965197  0.08417607  1
  Na  Na13  1  0.15490110  0.01034803  0.41582393  1
  Na  Na14  1  0.34381986  0.00969632  0.91930708  1
  Na  Na15  1  0.84381986  0.99030368  0.58069292  1
  Na  Na16  1  0.84537707  0.31695465  0.25762906  1
  Na  Na17  1  0.34537707  0.68304535  0.24237094  1
  Na  Na18  1  0.15609740  0.67906202  0.74212312  1
  Na  Na19  1  0.65609740  0.32093798  0.75787688  1
  Zr  Zr0  1  0.86643054  0.64952280  0.92024815  1
  Zr  Zr1  1  0.36643054  0.35047720  0.57975185  1
  Ge  Ge0  1  0.13742892  0.34421406  0.08439345  1
  Ge  Ge1  1  0.63742892  0.65578594  0.41560655  1
  As  As0  1  0.75865886  0.92631813  0.41906440  1
  As  As1  1  0.25865886  0.07368187  0.08093560  1
  As  As2  1  0.24036559  0.06305358  0.57773742  1
  As  As3  1  0.74036559  0.93694642  0.92226258  1
  As  As4  1  0.73054668  0.63511443  0.27496877  1
  As  As5  1  0.23054668  0.36488557  0.22503123  1
  As  As6  1  0.26686443  0.35595159  0.73278507  1
  As  As7  1  0.76686443  0.64404841  0.76721493  1
  As  As8  1  0.79901433  0.32020134  0.07780487  1
  As  As9  1  0.29901433  0.67979866  0.42219513  1
  As  As10  1  0.21421661  0.65908682  0.93147803  1
  As  As11  1  0.71421661  0.34091318  0.56852197  1
loop_
_geom_bond_atom_site_label_1
_geom_bond_atom_site_label_2
_geom_bond_distance
_geom_bond_site_symmetry_2
Na0 Na12 3.283071 1_545
Na0 Na17 3.398543 1_545
Na0 Na13 3.482057 1_555
Na0 Na16 3.518162 1_555
Na0 Na5 3.669589 1_555
Na0 Na8 3.671319 1_555
Na1 Na13 3.283071 1_665
Na1 Na16 3.398543 1_565
Na1 Na12 3.482057 1_555
Na1 Na17 3.518162 1_655
Na1 Na4 3.669589 1_655
Na1 Na9 3.671319 1_655
Na2 Zr1 3.398865 1_565
Na2 Zr0 3.533367 1_555
Na2 Na7 3.655629 1_555
Na3 Zr0 3.398865 1_445
Na3 Zr1 3.533367 1_555
Na3 Na6 3.655629 1_455
Na4 Zr1 3.491204 1_555
Na4 Na6 3.669864 1_455
Na5 Zr0 3.491204 1_554
Na5 Na7 3.669864 1_554
Na6 Zr1 3.663471 1_655
Na7 Zr0 3.663471 1_555
Na8 Zr1 3.460547 1_555
Na9 Zr0 3.460547 1_454
Na10 Na18 3.326067 1_555
Na10 Na15 3.339177 1_555
Na10 Na19 3.369869 1_555
Na10 Na13 3.502137 1_565
Na10 Zr1 3.502334 1_555
Na10 Na8 3.666498 1_565
Na10 Na2 3.744467 1_555
Na10 Na6 3.835513 1_555
Na11 Na19 3.326067 1_555
Na11 Na14 3.339177 1_655
Na11 Na18 3.369869 1_655
Na11 Na12 3.502137 1_546
Na11 Zr0 3.502334 1_555
Na11 Na9 3.666498 1_646
Na11 Na3 3.744467 1_655
Na11 Na7 3.835513 1_655
Na12 Na7 3.381270 1_564
Na12 Na9 3.388727 1_655
Na12 Na17 3.392257 1_555
Na12 Na14 3.466853 1_564
Na12 Na5 3.601004 1_555
Na13 Na6 3.381270 1_445
Na13 Na8 3.388727 1_555
Na13 Na16 3.392257 1_455
Na13 Na15 3.466853 1_445
Na13 Na4 3.601004 1_555
Na14 Na2 3.271727 1_545
Na14 Na5 3.387089 1_546
Na14 Na7 3.401719 1_555
Na14 Na19 3.438324 1_555
Na14 Na9 3.456671 1_546
Na14 Na3 3.609859 1_555
Na15 Na3 3.271727 1_665
Na15 Na4 3.387089 1_665
Na15 Na6 3.401719 1_555
Na15 Na18 3.438324 1_655
Na15 Na8 3.456671 1_565
Na15 Na2 3.609859 1_555
Na16 Na8 3.265899 1_555
Na16 Na9 3.392420 1_655
Na16 Na4 3.396155 1_655
Na16 Na5 3.497749 1_555
Na17 Na9 3.265899 1_555
Na17 Na8 3.392420 1_555
Na17 Na5 3.396155 1_555
Na17 Na4 3.497749 1_555
Na18 Na6 3.287637 1_455
Na18 Na7 3.406525 1_555
Na18 Na2 3.466391 1_555
Na18 Na3 3.501715 1_565
Na19 Na7 3.287637 1_555
Na19 Na6 3.406525 1_555
Na19 Na3 3.466391 1_655
Na19 Na2 3.501715 1_545
Ge0 Na1 3.257694 1_445
Ge0 Na11 3.433726 1_454
Ge0 Na5 3.468769 1_555
Ge0 Na7 3.499291 1_554
Ge0 Na0 3.518966 1_555
Ge0 Na9 3.535931 1_555
Ge1 Na0 3.257694 1_565
Ge1 Na10 3.433726 1_555
Ge1 Na4 3.468769 1_655
Ge1 Na6 3.499291 1_555
Ge1 Na1 3.518966 1_555
Ge1 Na8 3.535931 1_555
As0 Ge1 2.466579 1_555
As0 Na16 2.965974 1_565
As0 Na15 2.980909 1_555
As0 Na13 3.056470 1_665
As0 Na6 3.057230 1_555
As0 Na10 3.084000 1_555
As0 Na1 3.114227 1_555
As0 Na0 3.152124 1_565
As0 Na8 3.195850 1_565
As1 Ge0 2.466579 1_555
As1 Na17 2.965974 1_545
As1 Na14 2.980909 1_554
As1 Na12 3.056470 1_545
As1 Na7 3.057230 1_554
As1 Na11 3.084000 1_454
As1 Na0 3.114227 1_555
As1 Na1 3.152124 1_445
As1 Na9 3.195850 1_545
As2 Zr1 2.599538 1_555
As2 Na13 2.926188 1_555
As2 Na18 2.941425 1_545
As2 Na15 3.039691 1_445
As2 Na8 3.133120 1_555
As2 Na10 3.160166 1_545
As2 Na3 3.163685 1_555
As2 Na4 3.172442 1_555
As2 Na2 3.251021 1_545
As3 Zr0 2.599538 1_555
As3 Na12 2.926188 1_556
As3 Na19 2.941425 1_565
As3 Na14 3.039691 1_565
As3 Na9 3.133120 1_656
As3 Na11 3.160166 1_565
As3 Na2 3.163685 1_555
As3 Na5 3.172442 1_556
As3 Na3 3.251021 1_665
As4 Ge1 2.453313 1_555
As4 Na17 2.933572 1_555
As4 Na16 2.947197 1_555
As4 Na12 2.969747 1_555
As4 Na4 2.979080 1_655
As4 Na1 2.986309 1_555
As4 Na8 3.151887 1_555
As4 Na9 3.364785 1_655
As4 Na5 3.732950 1_555
As5 Ge0 2.453313 1_555
As5 Na16 2.933572 1_455
As5 Na17 2.947197 1_555
As5 Na13 2.969747 1_555
As5 Na5 2.979080 1_555
As5 Na0 2.986309 1_555
As5 Na9 3.151887 1_555
As5 Na8 3.364785 1_555
As5 Na4 3.732950 1_555
As6 Zr1 2.588775 1_555
As6 Na18 2.905973 1_555
As6 Na14 2.906385 1_555
As6 Na3 2.942380 1_555
As6 Na19 2.948771 1_555
As6 Na6 3.113899 1_455
As6 Na10 3.266660 1_555
As6 Na11 3.282719 1_455
As6 Na7 3.500766 1_555
As7 Zr0 2.588775 1_555
As7 Na19 2.905973 1_555
As7 Na15 2.906385 1_555
As7 Na2 2.942380 1_555
As7 Na18 2.948771 1_655
As7 Na7 3.113899 1_555
As7 Na11 3.266660 1_555
As7 Na10 3.282719 1_555
As7 Na6 3.500766 1_555
As8 Ge0 2.560194 1_655
As8 Zr0 2.611269 1_554
As8 Na16 2.889694 1_555
As8 Na12 2.919401 1_545
As8 Na5 3.041225 1_555
As8 Na1 3.239285 1_545
As8 Na11 3.314651 1_554
As8 Na0 3.397722 1_555
As8 Na7 3.406984 1_554
As9 Ge1 2.560194 1_555
As9 Zr1 2.611269 1_555
As9 Na17 2.889694 1_555
As9 Na13 2.919401 1_565
As9 Na4 3.041225 1_555
As9 Na0 3.239285 1_565
As9 Na10 3.314651 1_555
As9 Na1 3.397722 1_455
As9 Na6 3.406984 1_455
As10 Ge0 2.531261 1_556
As10 Zr0 2.626516 1_455
As10 Na7 2.954873 1_555
As10 Na18 2.982478 1_555
As10 Na14 2.995449 1_565
As10 Na5 3.125731 1_556
As10 Na2 3.310123 1_555
As10 Na9 3.357715 1_556
As10 Na3 3.557993 1_565
As11 Ge1 2.531261 1_555
As11 Zr1 2.626516 1_555
As11 Na6 2.954873 1_555
As11 Na19 2.982478 1_555
As11 Na15 2.995449 1_545
As11 Na4 3.125731 1_655
As11 Na3 3.310123 1_655
As11 Na8 3.357715 1_555
As11 Na2 3.557993 1_545
