# generated using pymatgen
data_RbCr3FeSb12
_symmetry_space_group_name_H-M   'P 1'
_cell_length_a   8.20378310
_cell_length_b   8.20378442
_cell_length_c   8.20378436
_cell_angle_alpha   109.18096387
_cell_angle_beta   109.18095258
_cell_angle_gamma   109.18096965
_symmetry_Int_Tables_number   1
_chemical_formula_structural   RbCr3FeSb12
_chemical_formula_sum   'Rb1 Cr3 Fe1 Sb12'
_cell_volume   429.53803586
_cell_formula_units_Z   1
loop_
 _symmetry_equiv_pos_site_id
 _symmetry_equiv_pos_as_xyz
  1  'x, y, z'
loop_
 _atom_site_type_symbol
 _atom_site_label
 _atom_site_symmetry_multiplicity
 _atom_site_fract_x
 _atom_site_fract_y
 _atom_site_fract_z
 _atom_site_occupancy
  Rb  Rb0  1  0.00000000  0.00000000  0.00000000  1
  Cr  Cr0  1  0.00000000  0.00000000  0.50000000  1
  Cr  Cr1  1  0.00000000  0.50000000  0.00000000  1
  Cr  Cr2  1  0.50000000  0.00000000  0.00000000  1
  Fe  Fe0  1  0.50000000  0.50000000  0.50000000  1
  Sb  Sb0  1  0.65049459  0.80047682  0.15210667  1
  Sb  Sb1  1  0.84789333  0.34950541  0.19952318  1
  Sb  Sb2  1  0.50338294  0.83033237  0.64668501  1
  Sb  Sb3  1  0.83033237  0.64668501  0.50338294  1
  Sb  Sb4  1  0.49661706  0.16966763  0.35331499  1
  Sb  Sb5  1  0.15210667  0.65049459  0.80047682  1
  Sb  Sb6  1  0.80047682  0.15210667  0.65049459  1
  Sb  Sb7  1  0.19952318  0.84789333  0.34950541  1
  Sb  Sb8  1  0.16966763  0.35331499  0.49661706  1
  Sb  Sb9  1  0.64668501  0.50338294  0.83033237  1
  Sb  Sb10  1  0.35331499  0.49661706  0.16966763  1
  Sb  Sb11  1  0.34950541  0.19952318  0.84789333  1
loop_
_geom_bond_atom_site_label_1
_geom_bond_atom_site_label_2
_geom_bond_distance
_geom_bond_site_symmetry_2
Rb0 Sb10 3.577746 1_555
Rb0 Sb9 3.577746 1_444
Rb0 Sb4 3.577746 1_555
Rb0 Sb2 3.577746 1_444
Rb0 Sb8 3.577747 1_555
Rb0 Sb3 3.577747 1_444
Rb0 Sb11 3.614812 1_554
Rb0 Sb0 3.614812 1_445
Rb0 Sb1 3.614813 1_455
Rb0 Sb5 3.614813 1_544
Rb0 Sb7 3.614813 1_545
Rb0 Sb6 3.614813 1_454
Cr0 Sb6 2.723681 1_455
Cr0 Sb7 2.723681 1_545
Cr0 Sb0 2.741353 1_445
Cr0 Sb11 2.741353 1_555
Cr0 Sb8 2.786893 1_555
Cr0 Sb3 2.786893 1_445
Cr1 Sb5 2.723681 1_554
Cr1 Sb1 2.723681 1_455
Cr1 Sb7 2.741353 1_555
Cr1 Sb6 2.741353 1_454
Cr1 Sb10 2.786893 1_555
Cr1 Sb9 2.786893 1_454
Cr2 Sb11 2.723681 1_554
Cr2 Sb0 2.723681 1_545
Cr2 Sb1 2.741353 1_555
Cr2 Sb5 2.741353 1_544
Cr2 Sb4 2.786893 1_555
Cr2 Sb2 2.786893 1_544
Fe0 Sb3 2.564874 1_555
Fe0 Sb8 2.564874 1_555
Fe0 Sb2 2.564875 1_555
Fe0 Sb4 2.564875 1_555
Fe0 Sb9 2.564875 1_555
Fe0 Sb10 2.564875 1_555
Sb0 Sb9 2.928778 1_554
Sb0 Sb10 2.941411 1_555
Sb0 Sb3 3.590508 1_555
Sb0 Sb5 3.628257 1_554
Sb0 Sb6 3.628257 1_565
Sb1 Sb8 2.928778 1_655
Sb1 Sb3 2.941411 1_555
Sb1 Sb4 3.590507 1_555
Sb1 Sb7 3.628257 1_655
Sb1 Sb11 3.628257 1_554
Sb2 Sb6 2.928777 1_565
Sb2 Sb7 2.941411 1_555
Sb2 Sb8 3.450291 1_555
Sb2 Sb5 3.590507 1_555
Sb3 Sb5 2.928778 1_655
Sb3 Sb4 3.450291 1_555
Sb4 Sb7 2.928777 1_545
Sb4 Sb6 2.941411 1_555
Sb4 Sb9 3.450292 1_555
Sb5 Sb8 2.941411 1_555
Sb5 Sb6 3.628257 1_455
Sb6 Sb9 3.590507 1_555
Sb8 Sb9 3.450291 1_555
Sb10 Sb11 2.928778 1_554
Sb10 Sb3 3.450291 1_555
Sb10 Sb2 3.450292 1_555
Sb10 Sb7 3.590507 1_555
Sb11 Sb9 2.941411 1_555
Sb11 Sb8 3.590508 1_555
Sb11 Sb7 3.628257 1_545
