# generated using pymatgen
data_Cs6InSbAs2
_symmetry_space_group_name_H-M   'P 1'
_cell_length_a   6.44117449
_cell_length_b   10.83620728
_cell_length_c   12.66434527
_cell_angle_alpha   78.25847235
_cell_angle_beta   90.00000000
_cell_angle_gamma   90.00000000
_symmetry_Int_Tables_number   1
_chemical_formula_structural   Cs6InSbAs2
_chemical_formula_sum   'Cs12 In2 Sb2 As4'
_cell_volume   865.44869385
_cell_formula_units_Z   2
loop_
 _symmetry_equiv_pos_site_id
 _symmetry_equiv_pos_as_xyz
  1  'x, y, z'
loop_
 _atom_site_type_symbol
 _atom_site_label
 _atom_site_symmetry_multiplicity
 _atom_site_fract_x
 _atom_site_fract_y
 _atom_site_fract_z
 _atom_site_occupancy
  Cs  Cs0  1  0.75000000  0.45609859  0.07571008  1
  Cs  Cs1  1  0.25000000  0.54390141  0.92428992  1
  Cs  Cs2  1  0.75000000  0.74102934  0.22675743  1
  Cs  Cs3  1  0.25000000  0.25897066  0.77324257  1
  Cs  Cs4  1  0.25000000  0.56157052  0.53687684  1
  Cs  Cs5  1  0.75000000  0.43842948  0.46312316  1
  Cs  Cs6  1  0.25000000  0.86191713  0.03121878  1
  Cs  Cs7  1  0.75000000  0.13808287  0.96878122  1
  Cs  Cs8  1  0.25000000  0.88304519  0.67561572  1
  Cs  Cs9  1  0.75000000  0.11695481  0.32438428  1
  Cs  Cs10  1  0.25000000  0.91195176  0.37159656  1
  Cs  Cs11  1  0.75000000  0.08804824  0.62840344  1
  In  In0  1  0.25000000  0.33327338  0.28949227  1
  In  In1  1  0.75000000  0.66672662  0.71050773  1
  Sb  Sb0  1  0.25000000  0.18908638  0.12201207  1
  Sb  Sb1  1  0.75000000  0.81091362  0.87798793  1
  As  As0  1  0.25000000  0.21107006  0.48994831  1
  As  As1  1  0.75000000  0.78892994  0.51005169  1
  As  As2  1  0.25000000  0.57599576  0.23251848  1
  As  As3  1  0.75000000  0.42400424  0.76748152  1
loop_
_geom_bond_atom_site_label_1
_geom_bond_atom_site_label_2
_geom_bond_distance
_geom_bond_site_symmetry_2
Cs0 Cs1 3.769907 1_554
Cs0 Cs1 3.769907 1_654
Cs0 Cs2 3.949195 1_555
Cs0 Cs7 3.950772 1_554
Cs0 Sb1 4.139399 1_554
Cs0 In0 4.243481 1_555
Cs0 In0 4.243481 1_655
Cs0 Sb0 4.289203 1_655
Cs0 Sb0 4.289203 1_555
Cs0 Cs9 4.325907 1_555
Cs1 Cs3 3.949195 1_555
Cs1 Cs6 3.950772 1_556
Cs1 Sb0 4.139399 1_556
Cs1 In1 4.243481 1_555
Cs1 In1 4.243481 1_455
Cs1 Sb1 4.289203 1_455
Cs1 Sb1 4.289203 1_555
Cs1 Cs8 4.325907 1_555
Cs2 Cs5 3.964563 1_555
Cs2 Cs6 4.111000 1_555
Cs2 Cs6 4.111000 1_655
Cs2 Sb1 4.326832 1_554
Cs2 Cs9 4.491407 1_565
Cs2 Cs7 4.844053 1_564
Cs3 Cs4 3.964563 1_555
Cs3 Cs7 4.111000 1_555
Cs3 Cs7 4.111000 1_455
Cs3 Sb0 4.326832 1_556
Cs3 Cs8 4.491407 1_545
Cs3 Cs6 4.844053 1_546
Cs4 Cs5 3.678649 1_555
Cs4 Cs5 3.678649 1_455
Cs4 In1 4.186367 1_555
Cs4 In1 4.186367 1_455
Cs4 Cs8 4.208744 1_555
Cs5 In0 4.186367 1_555
Cs5 In0 4.186367 1_655
Cs5 Cs9 4.208744 1_555
Cs6 Sb1 3.857455 1_554
Cs6 Sb1 3.857455 1_454
Cs6 Sb0 3.943374 1_565
Cs6 Cs7 4.357745 1_464
Cs6 Cs7 4.357745 1_564
Cs6 Cs8 4.462523 1_554
Cs7 Sb0 3.857455 1_656
Cs7 Sb0 3.857455 1_556
Cs7 Sb1 3.943374 1_545
Cs7 Cs9 4.462523 1_556
Cs8 In1 3.954814 1_555
Cs8 In1 3.954814 1_455
Cs8 Sb1 4.091007 1_455
Cs8 Sb1 4.091007 1_555
Cs9 In0 3.954814 1_555
Cs9 In0 3.954814 1_655
Cs9 Sb0 4.091007 1_555
Cs9 Sb0 4.091007 1_655
Cs10 Cs8 3.798860 1_555
Cs10 Cs9 3.888954 1_565
Cs10 Cs9 3.888954 1_465
Cs10 Sb0 3.891795 1_565
Cs10 Cs4 3.944939 1_555
Cs10 Cs2 4.306970 1_555
Cs10 Cs2 4.306970 1_455
Cs10 Cs6 4.452751 1_555
Cs11 Cs9 3.798860 1_555
Cs11 Cs8 3.888954 1_645
Cs11 Cs8 3.888954 1_545
Cs11 Sb1 3.891795 1_545
Cs11 Cs5 3.944939 1_555
Cs11 Cs3 4.306970 1_555
Cs11 Cs3 4.306970 1_655
Cs11 Cs7 4.452751 1_555
In0 Sb0 2.879018 1_555
In1 Sb1 2.879018 1_555
As0 In0 2.613441 1_555
As0 Cs3 3.728163 1_555
As0 Cs11 3.777900 1_455
As0 Cs11 3.777900 1_555
As0 Cs10 3.837954 1_545
As0 Cs8 3.842137 1_545
As0 Cs4 3.962000 1_555
As0 Cs5 4.027013 1_455
As0 Cs5 4.027013 1_555
As0 Cs9 4.083992 1_455
As0 Cs9 4.083992 1_555
As1 In1 2.613441 1_555
As1 Cs2 3.728163 1_555
As1 Cs10 3.777900 1_555
As1 Cs10 3.777900 1_655
As1 Cs11 3.837954 1_565
As1 Cs9 3.842137 1_565
As1 Cs5 3.962000 1_555
As1 Cs4 4.027013 1_655
As1 Cs4 4.027013 1_555
As1 Cs8 4.083992 1_555
As1 Cs8 4.083992 1_655
As2 In0 2.581885 1_555
As2 Cs6 3.589412 1_555
As2 Cs2 3.677303 1_555
As2 Cs2 3.677303 1_455
As2 Cs4 3.825752 1_555
As2 Cs1 3.988845 1_554
As2 Cs0 4.129646 1_555
As2 Cs0 4.129646 1_455
As2 Cs10 4.354899 1_555
As2 Cs5 4.399042 1_455
As2 Cs5 4.399042 1_555
As3 In1 2.581885 1_555
As3 Cs7 3.589412 1_555
As3 Cs3 3.677303 1_555
As3 Cs3 3.677303 1_655
As3 Cs5 3.825752 1_555
As3 Cs0 3.988845 1_556
As3 Cs1 4.129646 1_555
As3 Cs1 4.129646 1_655
As3 Cs11 4.354899 1_555
As3 Cs4 4.399042 1_655
As3 Cs4 4.399042 1_555
