# generated using pymatgen
data_Na3Ga2Ag
_symmetry_space_group_name_H-M   'P 1'
_cell_length_a   9.19158540
_cell_length_b   9.19158615
_cell_length_c   9.19158459
_cell_angle_alpha   59.99999875
_cell_angle_beta   59.99999603
_cell_angle_gamma   60.00000404
_symmetry_Int_Tables_number   1
_chemical_formula_structural   Na3Ga2Ag
_chemical_formula_sum   'Na12 Ga8 Ag4'
_cell_volume   549.10610905
_cell_formula_units_Z   4
loop_
 _symmetry_equiv_pos_site_id
 _symmetry_equiv_pos_as_xyz
  1  'x, y, z'
loop_
 _atom_site_type_symbol
 _atom_site_label
 _atom_site_symmetry_multiplicity
 _atom_site_fract_x
 _atom_site_fract_y
 _atom_site_fract_z
 _atom_site_occupancy
  Na  Na0  1  0.04717917  0.45282083  0.04717917  1
  Na  Na1  1  0.79717917  0.20282083  0.20282083  1
  Na  Na2  1  0.20282083  0.79717917  0.79717917  1
  Na  Na3  1  0.79717917  0.20282083  0.79717917  1
  Na  Na4  1  0.20282083  0.20282083  0.79717917  1
  Na  Na5  1  0.79717917  0.79717917  0.20282083  1
  Na  Na6  1  0.04717917  0.04717917  0.45282083  1
  Na  Na7  1  0.45282083  0.04717917  0.04717917  1
  Na  Na8  1  0.04717917  0.45282083  0.45282083  1
  Na  Na9  1  0.45282083  0.45282083  0.04717917  1
  Na  Na10  1  0.20282083  0.79717917  0.20282083  1
  Na  Na11  1  0.45282083  0.04717917  0.45282083  1
  Ga  Ga0  1  0.82655886  0.82655886  0.82655886  1
  Ga  Ga1  1  0.72967859  0.42344114  0.42344114  1
  Ga  Ga2  1  0.42344114  0.72967859  0.42344114  1
  Ga  Ga3  1  0.42344114  0.42344114  0.72967859  1
  Ga  Ga4  1  0.82655886  0.52032141  0.82655886  1
  Ga  Ga5  1  0.82655886  0.82655886  0.52032141  1
  Ga  Ga6  1  0.52032141  0.82655886  0.82655886  1
  Ga  Ga7  1  0.42344114  0.42344114  0.42344114  1
  Ag  Ag0  1  0.62500000  0.62500000  0.62500000  1
  Ag  Ag1  1  0.12500000  0.62500000  0.62500000  1
  Ag  Ag2  1  0.62500000  0.12500000  0.62500000  1
  Ag  Ag3  1  0.62500000  0.62500000  0.12500000  1
loop_
_geom_bond_atom_site_label_1
_geom_bond_atom_site_label_2
_geom_bond_distance
_geom_bond_site_symmetry_2
Na0 Na1 3.363461 1_455
Na0 Na4 3.363461 1_554
Na0 Na2 3.363461 1_554
Na0 Na5 3.363461 1_455
Na0 Na8 3.728490 1_555
Na0 Na6 3.728490 1_555
Na0 Na9 3.728490 1_555
Na0 Na7 3.728490 1_555
Na1 Na11 3.363461 1_555
Na1 Na6 3.363461 1_655
Na1 Na9 3.363461 1_555
Na1 Na4 3.728490 1_654
Na1 Na3 3.728490 1_554
Na1 Na5 3.728490 1_545
Na1 Na10 3.728490 1_645
Na2 Na6 3.363461 1_565
Na2 Na9 3.363461 1_556
Na2 Na5 3.728490 1_456
Na2 Na4 3.728490 1_565
Na2 Na3 3.728490 1_465
Na3 Na8 3.363461 1_655
Na3 Na6 3.363461 1_655
Na3 Na7 3.363461 1_556
Na3 Na9 3.363461 1_556
Na3 Na5 3.728490 1_546
Na3 Na4 3.728490 1_655
Na4 Na8 3.363461 1_555
Na4 Na7 3.363461 1_556
Na5 Na7 3.363461 1_565
Na5 Na8 3.363461 1_655
Na6 Na7 3.728490 1_555
Na6 Na8 3.728490 1_555
Na7 Na9 3.728490 1_555
Na8 Na9 3.728490 1_555
Na10 Na7 3.363461 1_565
Na10 Na6 3.363461 1_565
Na10 Na8 3.363461 1_555
Na10 Na9 3.363461 1_555
Na10 Na2 3.728490 1_554
Na10 Na4 3.728490 1_564
Na10 Na5 3.728490 1_455
Na11 Na2 3.363461 1_545
Na11 Na4 3.363461 1_555
Na11 Na5 3.363461 1_545
Na11 Na7 3.728490 1_555
Na11 Na9 3.728490 1_555
Na11 Na6 3.728490 1_555
Na11 Na8 3.728490 1_555
Ga0 Ga5 2.814807 1_555
Ga0 Ga6 2.814808 1_555
Ga0 Ga4 2.814808 1_555
Ga0 Na6 3.194544 1_665
Ga0 Na7 3.194545 1_566
Ga0 Na0 3.194545 1_656
Ga0 Na5 3.211188 1_556
Ga0 Na2 3.211189 1_655
Ga0 Na3 3.211189 1_565
Ga1 Ga3 2.814807 1_555
Ga1 Ga7 2.814808 1_555
Ga1 Ga2 2.814808 1_555
Ga1 Na3 3.194537 1_555
Ga1 Na5 3.194537 1_555
Ga1 Na1 3.194553 1_555
Ga1 Na8 3.211170 1_655
Ga1 Na0 3.211181 1_655
Ga1 Na6 3.211181 1_655
Ga2 Ga3 2.814808 1_555
Ga2 Ga7 2.814808 1_555
Ga2 Na2 3.194537 1_555
Ga2 Na5 3.194537 1_555
Ga2 Na10 3.194552 1_555
Ga2 Na11 3.211170 1_565
Ga2 Na7 3.211181 1_565
Ga2 Na6 3.211181 1_565
Ga3 Ga7 2.814807 1_555
Ga3 Na3 3.194537 1_555
Ga3 Na2 3.194537 1_555
Ga3 Na4 3.194553 1_555
Ga3 Na9 3.211170 1_556
Ga3 Na0 3.211181 1_556
Ga3 Na7 3.211181 1_556
Ga4 Ga5 2.814808 1_555
Ga4 Ga6 2.814808 1_555
Ga4 Na8 3.194537 1_655
Ga4 Na9 3.194537 1_556
Ga4 Na0 3.194552 1_656
Ga4 Na3 3.211170 1_555
Ga4 Na1 3.211181 1_556
Ga4 Na4 3.211181 1_655
Ga5 Ga6 2.814807 1_555
Ga5 Na11 3.194537 1_565
Ga5 Na8 3.194537 1_655
Ga5 Na6 3.194553 1_665
Ga5 Na5 3.211170 1_555
Ga5 Na10 3.211181 1_655
Ga5 Na1 3.211181 1_565
Ga6 Na11 3.194537 1_565
Ga6 Na9 3.194537 1_556
Ga6 Na7 3.194553 1_566
Ga6 Na2 3.211170 1_555
Ga6 Na10 3.211181 1_556
Ga6 Na4 3.211181 1_565
Ga7 Na4 3.194544 1_555
Ga7 Na1 3.194545 1_555
Ga7 Na10 3.194545 1_555
Ga7 Na9 3.211188 1_555
Ga7 Na8 3.211189 1_555
Ga7 Na11 3.211189 1_555
Ag0 Ga4 2.767228 1_555
Ag0 Ga2 2.767228 1_555
Ag0 Ga6 2.767228 1_555
Ag0 Ga1 2.767228 1_555
Ag0 Ga5 2.767228 1_555
Ag0 Ga3 2.767228 1_555
Ag0 Na9 3.207736 1_556
Ag0 Na5 3.207736 1_555
Ag0 Na2 3.207736 1_555
Ag0 Na8 3.207736 1_655
Ag0 Na11 3.207736 1_565
Ag0 Na3 3.207736 1_555
Ag1 Ga0 2.767234 1_455
Ag1 Ga7 2.767234 1_555
Ag1 Ga2 2.767243 1_555
Ag1 Ga4 2.767243 1_455
Ag1 Ga3 2.767243 1_555
Ag1 Ga5 2.767243 1_455
Ag1 Na0 3.207736 1_556
Ag1 Na10 3.207736 1_555
Ag1 Na2 3.207736 1_555
Ag1 Na8 3.207736 1_555
Ag1 Na6 3.207736 1_565
Ag1 Na4 3.207736 1_555
Ag2 Ga0 2.767234 1_545
Ag2 Ga7 2.767234 1_555
Ag2 Ga1 2.767243 1_555
Ag2 Ga6 2.767243 1_545
Ag2 Ga3 2.767244 1_555
Ag2 Ga5 2.767244 1_545
Ag2 Na7 3.207736 1_556
Ag2 Na1 3.207736 1_555
Ag2 Na6 3.207736 1_655
Ag2 Na4 3.207736 1_555
Ag2 Na3 3.207736 1_555
Ag2 Na11 3.207736 1_555
Ag3 Ga0 2.767234 1_554
Ag3 Ga7 2.767234 1_555
Ag3 Ga2 2.767243 1_555
Ag3 Ga4 2.767243 1_554
Ag3 Ga1 2.767243 1_555
Ag3 Ga6 2.767243 1_554
Ag3 Na5 3.207736 1_555
Ag3 Na9 3.207736 1_555
Ag3 Na0 3.207736 1_655
Ag3 Na10 3.207736 1_555
Ag3 Na7 3.207736 1_565
Ag3 Na1 3.207736 1_555
