# generated using pymatgen
data_TaO2F
_symmetry_space_group_name_H-M   'P 1'
_cell_length_a   3.98116800
_cell_length_b   3.98116800
_cell_length_c   7.77348800
_cell_angle_alpha   90.00000000
_cell_angle_beta   90.00000000
_cell_angle_gamma   90.00000000
_symmetry_Int_Tables_number   1
_chemical_formula_structural   TaO2F
_chemical_formula_sum   'Ta2 O4 F2'
_cell_volume   123.20744221
_cell_formula_units_Z   2
loop_
 _symmetry_equiv_pos_site_id
 _symmetry_equiv_pos_as_xyz
  1  'x, y, z'
loop_
 _atom_site_type_symbol
 _atom_site_label
 _atom_site_symmetry_multiplicity
 _atom_site_fract_x
 _atom_site_fract_y
 _atom_site_fract_z
 _atom_site_occupancy
  Ta  Ta0  1  0.00000000  0.00000000  0.00000000  1
  Ta  Ta1  1  0.00000000  0.00000000  0.50000000  1
  O  O0  1  0.00000000  0.00000000  0.25000000  1
  O  O1  1  0.00000000  0.00000000  0.75000000  1
  O  O2  1  0.50000000  0.00000000  0.00000000  1
  O  O3  1  0.00000000  0.50000000  0.50000000  1
  F  F0  1  0.00000000  0.50000000  0.00000000  1
  F  F1  1  0.50000000  0.00000000  0.50000000  1
loop_
_geom_bond_atom_site_label_1
_geom_bond_atom_site_label_2
_geom_bond_distance
_geom_bond_site_symmetry_2
O0 Ta0 1.943372 1_555
O0 Ta1 1.943372 1_555
O0 O3 2.781927 1_545
O0 O2 2.781927 1_455
O0 O2 2.781927 1_555
O0 O3 2.781927 1_555
O1 Ta0 1.943372 1_556
O1 Ta1 1.943372 1_555
O1 O3 2.781927 1_545
O1 O2 2.781927 1_456
O1 O2 2.781927 1_556
O1 O3 2.781927 1_555
O2 Ta0 1.990584 1_555
O2 Ta0 1.990584 1_655
O3 Ta1 1.990584 1_565
O3 Ta1 1.990584 1_555
F0 Ta0 1.990584 1_565
F0 Ta0 1.990584 1_555
F0 O1 2.781927 1_554
F0 O0 2.781927 1_555
F0 O0 2.781927 1_565
F0 O1 2.781927 1_564
F1 Ta1 1.990584 1_655
F1 Ta1 1.990584 1_555
F1 O0 2.781927 1_655
F1 O0 2.781927 1_555
F1 O1 2.781927 1_655
F1 O1 2.781927 1_555
