# generated using pymatgen
data_HOsPb2F10
_symmetry_space_group_name_H-M   'P 1'
_cell_length_a   4.61929708
_cell_length_b   4.80477770
_cell_length_c   9.16548150
_cell_angle_alpha   86.81652425
_cell_angle_beta   76.86673229
_cell_angle_gamma   83.03518184
_symmetry_Int_Tables_number   1
_chemical_formula_structural   HOsPb2F10
_chemical_formula_sum   'H1 Os1 Pb2 F10'
_cell_volume   196.56007501
_cell_formula_units_Z   1
loop_
 _symmetry_equiv_pos_site_id
 _symmetry_equiv_pos_as_xyz
  1  'x, y, z'
loop_
 _atom_site_type_symbol
 _atom_site_label
 _atom_site_symmetry_multiplicity
 _atom_site_fract_x
 _atom_site_fract_y
 _atom_site_fract_z
 _atom_site_occupancy
  H  H0  1  0.50000000  0.50000000  0.50000000  1
  Os  Os0  1  0.00000000  0.50000000  0.00000000  1
  Pb  Pb0  1  0.33007820  0.01895161  0.31931067  1
  Pb  Pb1  1  0.66992180  0.98104839  0.68068933  1
  F  F0  1  0.62610895  0.72520952  0.04057180  1
  F  F1  1  0.83422785  0.19468054  0.11711696  1
  F  F2  1  0.07453636  0.61972451  0.18104357  1
  F  F3  1  0.40273730  0.52410563  0.39553075  1
  F  F4  1  0.78468295  0.98657996  0.42058479  1
  F  F5  1  0.21531705  0.01342004  0.57941521  1
  F  F6  1  0.59726270  0.47589437  0.60446925  1
  F  F7  1  0.92546364  0.38027549  0.81895643  1
  F  F8  1  0.16577215  0.80531946  0.88288304  1
  F  F9  1  0.37389105  0.27479048  0.95942820  1
loop_
_geom_bond_atom_site_label_1
_geom_bond_atom_site_label_2
_geom_bond_distance
_geom_bond_site_symmetry_2
F0 Os0 1.895177 1_655
F0 F8 2.642921 1_654
F0 F2 2.662733 1_655
F0 F2 2.675104 1_555
F0 Pb0 2.955267 1_565
F1 Os0 1.901236 1_655
F1 F2 2.593171 1_655
F1 F9 2.642921 1_654
F1 Pb0 2.812917 1_555
F1 F4 2.871552 1_545
F1 Pb0 3.267981 1_655
F2 Os0 1.901733 1_555
F2 Pb0 2.859689 1_565
F2 F4 2.870808 1_455
F3 H0 1.141340 1_555
F3 Pb0 2.445878 1_565
F3 Pb0 2.642763 1_555
F4 Pb1 2.321030 1_555
F4 Pb0 2.467013 1_565
F4 Pb0 2.499836 1_665
F4 F5 2.692919 1_565
F4 H0 2.705972 1_565
F4 F5 2.737136 1_665
F4 H0 2.801173 1_555
F5 Pb0 2.321030 1_555
F5 Pb1 2.467013 1_545
F5 Pb1 2.499836 1_445
F5 H0 2.705972 1_545
F5 H0 2.801173 1_555
F5 F7 2.870808 1_455
F5 F8 2.871552 1_545
F6 H0 1.141340 1_555
F6 Pb1 2.445878 1_545
F6 Pb1 2.642763 1_555
F7 Os0 1.901733 1_656
F7 F8 2.593171 1_655
F7 F9 2.662733 1_655
F7 F9 2.675104 1_555
F7 Pb1 2.859689 1_545
F8 Os0 1.901236 1_556
F8 Pb1 2.812917 1_555
F8 Pb1 3.267981 1_455
F9 Os0 1.895177 1_556
F9 Pb1 2.955267 1_545
