# generated using pymatgen
data_Ru(PtRh3)2
_symmetry_space_group_name_H-M   'P 1'
_cell_length_a   6.06546034
_cell_length_b   6.06546439
_cell_length_c   6.06545987
_cell_angle_alpha   95.73250415
_cell_angle_beta   95.69171223
_cell_angle_gamma   143.21987591
_symmetry_Int_Tables_number   1
_chemical_formula_structural   Ru(PtRh3)2
_chemical_formula_sum   'Ru1 Pt2 Rh6'
_cell_volume   126.78524521
_cell_formula_units_Z   1
loop_
 _symmetry_equiv_pos_site_id
 _symmetry_equiv_pos_as_xyz
  1  'x, y, z'
loop_
 _atom_site_type_symbol
 _atom_site_label
 _atom_site_symmetry_multiplicity
 _atom_site_fract_x
 _atom_site_fract_y
 _atom_site_fract_z
 _atom_site_occupancy
  Ru  Ru0  1  0.00000000  0.00000000  0.00000000  1
  Pt  Pt0  1  0.66933163  0.00000000  0.66933163  1
  Pt  Pt1  1  0.33066837  1.00000000  0.33066837  1
  Rh  Rh0  1  0.33818708  0.33659517  0.67478125  1
  Rh  Rh1  1  0.66181292  0.66340483  0.32521875  1
  Rh  Rh2  1  0.66181392  0.33659517  0.99841009  1
  Rh  Rh3  1  0.33818608  0.66340483  0.00158991  1
  Rh  Rh4  1  0.00000000  0.32694589  0.32694589  1
  Rh  Rh5  1  1.00000000  0.67305411  0.67305411  1
loop_
_geom_bond_atom_site_label_1
_geom_bond_atom_site_label_2
_geom_bond_distance
_geom_bond_site_symmetry_2
Pt0 Ru0 2.692101 1_656
Pt0 Rh3 2.705535 1_546
Pt0 Rh3 2.705542 1_656
Pt0 Rh0 2.705546 1_655
Pt0 Rh0 2.705547 1_545
Pt0 Rh1 2.739957 1_545
Pt0 Rh2 2.739965 1_555
Pt0 Rh4 2.746938 1_655
Pt0 Rh5 2.746938 1_445
Pt0 Rh5 2.746941 1_555
Pt0 Rh4 2.746942 1_545
Pt0 Pt1 2.757191 1_545
Pt1 Ru0 2.692101 1_565
Pt1 Rh2 2.705535 1_564
Pt1 Rh2 2.705542 1_454
Pt1 Rh1 2.705546 1_455
Pt1 Rh1 2.705547 1_565
Pt1 Rh0 2.739957 1_565
Pt1 Rh3 2.739965 1_555
Pt1 Rh5 2.746938 1_455
Pt1 Rh4 2.746938 1_665
Pt1 Rh4 2.746941 1_555
Pt1 Rh5 2.746942 1_565
Rh0 Rh2 2.634782 1_555
Rh0 Rh3 2.659641 1_556
Rh0 Ru0 2.676872 1_556
Rh0 Ru0 2.676874 1_666
Rh0 Rh5 2.677417 1_555
Rh0 Rh5 2.677423 1_445
Rh0 Rh4 2.754430 1_555
Rh0 Rh1 2.776707 1_555
Rh0 Rh1 2.776717 1_445
Rh1 Rh3 2.634782 1_555
Rh1 Rh2 2.659641 1_554
Rh1 Ru0 2.676872 1_665
Rh1 Ru0 2.676874 1_555
Rh1 Rh4 2.677417 1_555
Rh1 Rh4 2.677423 1_665
Rh1 Rh5 2.754430 1_555
Rh2 Ru0 2.676870 1_556
Rh2 Ru0 2.676876 1_666
Rh2 Rh5 2.677427 1_555
Rh2 Rh5 2.677429 1_445
Rh2 Rh4 2.754422 1_656
Rh2 Rh3 2.776711 1_546
Rh2 Rh3 2.776713 1_656
Rh3 Ru0 2.676870 1_665
Rh3 Ru0 2.676876 1_555
Rh3 Rh4 2.677427 1_555
Rh3 Rh4 2.677429 1_665
Rh3 Rh5 2.754422 1_454
Rh4 Ru0 2.660749 1_555
Rh4 Rh5 2.816696 1_455
Rh5 Ru0 2.660749 1_666
