# generated using pymatgen
data_Cs4TaRhCl12
_symmetry_space_group_name_H-M   'P 1'
_cell_length_a   7.30013993
_cell_length_b   7.30013993
_cell_length_c   10.51068112
_cell_angle_alpha   90.00000000
_cell_angle_beta   90.00000000
_cell_angle_gamma   90.00000000
_symmetry_Int_Tables_number   1
_chemical_formula_structural   Cs4TaRhCl12
_chemical_formula_sum   'Cs4 Ta1 Rh1 Cl12'
_cell_volume   560.13567055
_cell_formula_units_Z   1
loop_
 _symmetry_equiv_pos_site_id
 _symmetry_equiv_pos_as_xyz
  1  'x, y, z'
loop_
 _atom_site_type_symbol
 _atom_site_label
 _atom_site_symmetry_multiplicity
 _atom_site_fract_x
 _atom_site_fract_y
 _atom_site_fract_z
 _atom_site_occupancy
  Cs  Cs0  1  0.50000000  0.00000000  0.77738763  1
  Cs  Cs1  1  0.00000000  0.50000000  0.22261237  1
  Cs  Cs2  1  0.50000000  0.00000000  0.22261237  1
  Cs  Cs3  1  0.00000000  0.50000000  0.77738763  1
  Ta  Ta0  1  0.50000000  0.50000000  0.50000000  1
  Rh  Rh0  1  0.00000000  0.00000000  0.00000000  1
  Cl  Cl0  1  0.00000000  0.00000000  0.77409612  1
  Cl  Cl1  1  0.50000000  0.50000000  0.27452471  1
  Cl  Cl2  1  0.72861081  0.72861081  0.50000000  1
  Cl  Cl3  1  0.22933831  0.22933831  0.00000000  1
  Cl  Cl4  1  0.72861081  0.27138919  0.50000000  1
  Cl  Cl5  1  0.22933831  0.77066169  0.00000000  1
  Cl  Cl6  1  0.00000000  0.00000000  0.22590388  1
  Cl  Cl7  1  0.50000000  0.50000000  0.72547529  1
  Cl  Cl8  1  0.27138919  0.27138919  0.50000000  1
  Cl  Cl9  1  0.77066169  0.77066169  0.00000000  1
  Cl  Cl10  1  0.27138919  0.72861081  0.50000000  1
  Cl  Cl11  1  0.77066169  0.22933831  0.00000000  1
loop_
_geom_bond_atom_site_label_1
_geom_bond_atom_site_label_2
_geom_bond_distance
_geom_bond_site_symmetry_2
Cl0 Rh0 2.374404 1_556
Cl0 Cs3 3.650234 1_545
Cl0 Cs3 3.650234 1_555
Cl0 Cs0 3.650234 1_555
Cl0 Cs0 3.650234 1_455
Cl1 Ta0 2.369899 1_555
Cl1 Cs1 3.690627 1_655
Cl1 Cs2 3.690627 1_555
Cl1 Cs1 3.690627 1_555
Cl1 Cs2 3.690627 1_565
Cl2 Ta0 2.360168 1_555
Cl2 Cs3 3.900077 1_655
Cl2 Cs0 3.900077 1_565
Cl2 Cs1 3.900077 1_655
Cl2 Cs2 3.900077 1_565
Cl3 Rh0 2.367679 1_555
Cl3 Cs2 3.490230 1_555
Cl3 Cs1 3.490230 1_555
Cl3 Cs3 3.490230 1_554
Cl3 Cs0 3.490230 1_554
Cl4 Ta0 2.360168 1_555
Cl4 Cs0 3.900077 1_555
Cl4 Cs3 3.900077 1_655
Cl4 Cs2 3.900077 1_555
Cl4 Cs1 3.900077 1_655
Cl5 Rh0 2.367679 1_565
Cl5 Cs2 3.490230 1_565
Cl5 Cs1 3.490230 1_555
Cl5 Cs0 3.490230 1_564
Cl5 Cs3 3.490230 1_554
Cl6 Rh0 2.374404 1_555
Cl6 Cs1 3.650234 1_555
Cl6 Cs2 3.650234 1_455
Cl6 Cs1 3.650234 1_545
Cl6 Cs2 3.650234 1_555
Cl7 Ta0 2.369899 1_555
Cl7 Cs0 3.690627 1_565
Cl7 Cs3 3.690627 1_555
Cl7 Cs0 3.690627 1_555
Cl7 Cs3 3.690627 1_655
Cl8 Ta0 2.360168 1_555
Cl8 Cs3 3.900077 1_555
Cl8 Cs0 3.900077 1_555
Cl8 Cs2 3.900077 1_555
Cl8 Cs1 3.900077 1_555
Cl9 Rh0 2.367679 1_665
Cl9 Cs2 3.490230 1_565
Cl9 Cs1 3.490230 1_655
Cl9 Cs0 3.490230 1_564
Cl9 Cs3 3.490230 1_654
Cl10 Ta0 2.360168 1_555
Cl10 Cs3 3.900077 1_555
Cl10 Cs0 3.900077 1_565
Cl10 Cs1 3.900077 1_555
Cl10 Cs2 3.900077 1_565
Cl11 Rh0 2.367679 1_655
Cl11 Cs1 3.490230 1_655
Cl11 Cs2 3.490230 1_555
Cl11 Cs3 3.490230 1_654
Cl11 Cs0 3.490230 1_554
