# generated using pymatgen
data_VGa(SeO3)4
_symmetry_space_group_name_H-M   'P 1'
_cell_length_a   7.98550520
_cell_length_b   7.88575560
_cell_length_c   7.97827631
_cell_angle_alpha   90.13212427
_cell_angle_beta   90.00000000
_cell_angle_gamma   90.00000000
_symmetry_Int_Tables_number   1
_chemical_formula_structural   VGa(SeO3)4
_chemical_formula_sum   'V2 Ga2 Se8 O24'
_cell_volume   502.40462398
_cell_formula_units_Z   2
loop_
 _symmetry_equiv_pos_site_id
 _symmetry_equiv_pos_as_xyz
  1  'x, y, z'
loop_
 _atom_site_type_symbol
 _atom_site_label
 _atom_site_symmetry_multiplicity
 _atom_site_fract_x
 _atom_site_fract_y
 _atom_site_fract_z
 _atom_site_occupancy
  V  V0  1  0.00000000  0.50000000  0.00000000  1
  V  V1  1  0.50000000  0.50000000  0.50000000  1
  Ga  Ga0  1  0.00000000  0.00000000  0.50000000  1
  Ga  Ga1  1  0.50000000  0.00000000  0.00000000  1
  Se  Se0  1  0.32605292  0.67670838  0.16562923  1
  Se  Se1  1  0.82605292  0.32329162  0.33437077  1
  Se  Se2  1  0.66852447  0.83786318  0.67423388  1
  Se  Se3  1  0.16852447  0.16213682  0.82576612  1
  Se  Se4  1  0.67394708  0.32329162  0.83437077  1
  Se  Se5  1  0.17394708  0.67670838  0.66562923  1
  Se  Se6  1  0.33147553  0.16213682  0.32576612  1
  Se  Se7  1  0.83147553  0.83786318  0.17423388  1
  O  O0  1  0.23098042  0.52108199  0.04307705  1
  O  O1  1  0.73098042  0.47891801  0.45692295  1
  O  O2  1  0.75787607  0.96086918  0.52709705  1
  O  O3  1  0.25787607  0.03913082  0.97290295  1
  O  O4  1  0.52989966  0.97642696  0.75739941  1
  O  O5  1  0.46114359  0.54138089  0.26938322  1
  O  O6  1  0.96114359  0.45861911  0.23061678  1
  O  O7  1  0.02989966  0.02357304  0.74260059  1
  O  O8  1  0.95796392  0.24653673  0.47867340  1
  O  O9  1  0.52691657  0.72875010  0.54106543  1
  O  O10  1  0.45796392  0.75346327  0.02132660  1
  O  O11  1  0.02691657  0.27124990  0.95893457  1
  O  O12  1  0.76901958  0.47891801  0.95692295  1
  O  O13  1  0.26901958  0.52108199  0.54307705  1
  O  O14  1  0.24212393  0.03913082  0.47290295  1
  O  O15  1  0.74212393  0.96086918  0.02709705  1
  O  O16  1  0.47010034  0.02357304  0.24260059  1
  O  O17  1  0.53885641  0.45861911  0.73061678  1
  O  O18  1  0.03885641  0.54138089  0.76938322  1
  O  O19  1  0.97010034  0.97642696  0.25739941  1
  O  O20  1  0.04203608  0.75346327  0.52132660  1
  O  O21  1  0.47308343  0.27124990  0.45893457  1
  O  O22  1  0.54203608  0.24653673  0.97867340  1
  O  O23  1  0.97308343  0.72875010  0.04106543  1
loop_
_geom_bond_atom_site_label_1
_geom_bond_atom_site_label_2
_geom_bond_distance
_geom_bond_site_symmetry_2
Ga0 O7 1.958621 1_555
Ga0 O19 1.958621 1_445
Ga0 O14 1.969928 1_555
Ga0 O2 1.969928 1_445
Ga0 O8 1.980604 1_455
Ga0 O20 1.980604 1_545
Ga1 O16 1.958621 1_555
Ga1 O4 1.958621 1_544
Ga1 O15 1.969928 1_545
Ga1 O3 1.969928 1_554
Ga1 O22 1.980604 1_554
Ga1 O10 1.980604 1_545
O0 Se0 1.741538 1_555
O0 V0 1.883522 1_555
O1 Se1 1.741538 1_555
O1 V1 1.883522 1_555
O2 Se2 1.683237 1_555
O3 Se3 1.683237 1_555
O4 Se2 1.690055 1_555
O5 Se0 1.729699 1_555
O5 V1 1.894955 1_555
O6 Se1 1.729699 1_555
O6 V0 1.894955 1_655
O7 Se3 1.690055 1_555
O8 Se1 1.674702 1_555
O9 Se2 1.773043 1_555
O9 V1 1.845198 1_555
O10 Se0 1.674702 1_555
O11 Se3 1.773043 1_555
O11 V0 1.845198 1_556
O12 Se4 1.741538 1_555
O12 V0 1.883522 1_656
O13 Se5 1.741538 1_555
O13 V1 1.883522 1_555
O14 Se6 1.683237 1_555
O15 Se7 1.683237 1_555
O16 Se6 1.690055 1_555
O17 Se4 1.729699 1_555
O17 V1 1.894955 1_555
O18 Se5 1.729699 1_555
O18 V0 1.894955 1_556
O19 Se7 1.690055 1_555
O20 Se5 1.674702 1_555
O21 Se6 1.773043 1_555
O21 V1 1.845198 1_555
O22 Se4 1.674702 1_555
O23 Se7 1.773043 1_555
O23 V0 1.845198 1_655
