# generated using pymatgen
data_KSc2Cu3Se5
_symmetry_space_group_name_H-M   'P 1'
_cell_length_a   7.95539675
_cell_length_b   14.73873160
_cell_length_c   32.59458366
_cell_angle_alpha   90.00000000
_cell_angle_beta   90.00000000
_cell_angle_gamma   74.34283933
_symmetry_Int_Tables_number   1
_chemical_formula_structural   KSc2Cu3Se5
_chemical_formula_sum   'K16 Sc32 Cu48 Se80'
_cell_volume   3679.98275204
_cell_formula_units_Z   16
loop_
 _symmetry_equiv_pos_site_id
 _symmetry_equiv_pos_as_xyz
  1  'x, y, z'
loop_
 _atom_site_type_symbol
 _atom_site_label
 _atom_site_symmetry_multiplicity
 _atom_site_fract_x
 _atom_site_fract_y
 _atom_site_fract_z
 _atom_site_occupancy
  K  K0_0  1  0.46941087  0.06117876  0.12500000  1
  K  K0_1  1  0.46941087  0.06117876  0.62500000  1
  K  K0_2  1  0.46941087  0.56117876  0.12500000  1
  K  K0_3  1  0.46941087  0.56117876  0.62500000  1
  K  K0_4  1  0.96941087  0.06117876  0.12500000  1
  K  K0_5  1  0.96941087  0.06117876  0.62500000  1
  K  K0_6  1  0.96941087  0.56117876  0.12500000  1
  K  K0_7  1  0.96941087  0.56117876  0.62500000  1
  K  K1_0  1  0.03058913  0.43882124  0.37500000  1
  K  K1_1  1  0.03058913  0.43882124  0.87500000  1
  K  K1_2  1  0.03058913  0.93882124  0.37500000  1
  K  K1_3  1  0.03058913  0.93882124  0.87500000  1
  K  K1_4  1  0.53058913  0.43882124  0.37500000  1
  K  K1_5  1  0.53058913  0.43882124  0.87500000  1
  K  K1_6  1  0.53058913  0.93882124  0.37500000  1
  K  K1_7  1  0.53058913  0.93882124  0.87500000  1
  Sc  Sc0_0  1  0.09589711  0.30820479  0.04692126  1
  Sc  Sc0_1  1  0.09589711  0.30820479  0.54692126  1
  Sc  Sc0_2  1  0.09589711  0.80820479  0.04692126  1
  Sc  Sc0_3  1  0.09589711  0.80820479  0.54692126  1
  Sc  Sc0_4  1  0.59589711  0.30820479  0.04692126  1
  Sc  Sc0_5  1  0.59589711  0.30820479  0.54692126  1
  Sc  Sc0_6  1  0.59589711  0.80820479  0.04692126  1
  Sc  Sc0_7  1  0.59589711  0.80820479  0.54692126  1
  Sc  Sc1_0  1  0.09589711  0.30820479  0.20307874  1
  Sc  Sc1_1  1  0.09589711  0.30820479  0.70307874  1
  Sc  Sc1_2  1  0.09589711  0.80820479  0.20307874  1
  Sc  Sc1_3  1  0.09589711  0.80820479  0.70307874  1
  Sc  Sc1_4  1  0.59589711  0.30820479  0.20307874  1
  Sc  Sc1_5  1  0.59589711  0.30820479  0.70307874  1
  Sc  Sc1_6  1  0.59589711  0.80820479  0.20307874  1
  Sc  Sc1_7  1  0.59589711  0.80820479  0.70307874  1
  Sc  Sc2_0  1  0.40410289  0.19179521  0.29692126  1
  Sc  Sc2_1  1  0.40410289  0.19179521  0.79692126  1
  Sc  Sc2_2  1  0.40410289  0.69179521  0.29692126  1
  Sc  Sc2_3  1  0.40410289  0.69179521  0.79692126  1
  Sc  Sc2_4  1  0.90410289  0.19179521  0.29692126  1
  Sc  Sc2_5  1  0.90410289  0.19179521  0.79692126  1
  Sc  Sc2_6  1  0.90410289  0.69179521  0.29692126  1
  Sc  Sc2_7  1  0.90410289  0.69179521  0.79692126  1
  Sc  Sc3_0  1  0.40410289  0.19179521  0.45307874  1
  Sc  Sc3_1  1  0.40410289  0.19179521  0.95307874  1
  Sc  Sc3_2  1  0.40410289  0.69179521  0.45307874  1
  Sc  Sc3_3  1  0.40410289  0.69179521  0.95307874  1
  Sc  Sc3_4  1  0.90410289  0.19179521  0.45307874  1
  Sc  Sc3_5  1  0.90410289  0.19179521  0.95307874  1
  Sc  Sc3_6  1  0.90410289  0.69179521  0.45307874  1
  Sc  Sc3_7  1  0.90410289  0.69179521  0.95307874  1
  Cu  Cu0_0  1  0.20846226  0.08307447  0.01600457  1
  Cu  Cu0_1  1  0.20846226  0.08307447  0.51600457  1
  Cu  Cu0_2  1  0.20846226  0.58307447  0.01600457  1
  Cu  Cu0_3  1  0.20846226  0.58307447  0.51600457  1
  Cu  Cu0_4  1  0.70846226  0.08307447  0.01600457  1
  Cu  Cu0_5  1  0.70846226  0.08307447  0.51600457  1
  Cu  Cu0_6  1  0.70846226  0.58307447  0.01600457  1
  Cu  Cu0_7  1  0.70846226  0.58307447  0.51600457  1
  Cu  Cu1_0  1  0.32855439  0.34289123  0.12500000  1
  Cu  Cu1_1  1  0.32855439  0.34289123  0.62500000  1
  Cu  Cu1_2  1  0.32855439  0.84289123  0.12500000  1
  Cu  Cu1_3  1  0.32855439  0.84289123  0.62500000  1
  Cu  Cu1_4  1  0.82855439  0.34289123  0.12500000  1
  Cu  Cu1_5  1  0.82855439  0.34289123  0.62500000  1
  Cu  Cu1_6  1  0.82855439  0.84289123  0.12500000  1
  Cu  Cu1_7  1  0.82855439  0.84289123  0.62500000  1
  Cu  Cu2_0  1  0.20846226  0.08307447  0.23399593  1
  Cu  Cu2_1  1  0.20846226  0.08307447  0.73399593  1
  Cu  Cu2_2  1  0.20846226  0.58307447  0.23399593  1
  Cu  Cu2_3  1  0.20846226  0.58307447  0.73399593  1
  Cu  Cu2_4  1  0.70846226  0.08307447  0.23399593  1
  Cu  Cu2_5  1  0.70846226  0.08307447  0.73399593  1
  Cu  Cu2_6  1  0.70846226  0.58307447  0.23399593  1
  Cu  Cu2_7  1  0.70846226  0.58307447  0.73399593  1
  Cu  Cu3_0  1  0.29153774  0.41692553  0.26600407  1
  Cu  Cu3_1  1  0.29153774  0.41692553  0.76600407  1
  Cu  Cu3_2  1  0.29153774  0.91692553  0.26600407  1
  Cu  Cu3_3  1  0.29153774  0.91692553  0.76600407  1
  Cu  Cu3_4  1  0.79153774  0.41692553  0.26600407  1
  Cu  Cu3_5  1  0.79153774  0.41692553  0.76600407  1
  Cu  Cu3_6  1  0.79153774  0.91692553  0.26600407  1
  Cu  Cu3_7  1  0.79153774  0.91692553  0.76600407  1
  Cu  Cu4_0  1  0.17144561  0.15710877  0.37500000  1
  Cu  Cu4_1  1  0.17144561  0.15710877  0.87500000  1
  Cu  Cu4_2  1  0.17144561  0.65710877  0.37500000  1
  Cu  Cu4_3  1  0.17144561  0.65710877  0.87500000  1
  Cu  Cu4_4  1  0.67144561  0.15710877  0.37500000  1
  Cu  Cu4_5  1  0.67144561  0.15710877  0.87500000  1
  Cu  Cu4_6  1  0.67144561  0.65710877  0.37500000  1
  Cu  Cu4_7  1  0.67144561  0.65710877  0.87500000  1
  Cu  Cu5_0  1  0.29153774  0.41692553  0.48399593  1
  Cu  Cu5_1  1  0.29153774  0.41692553  0.98399593  1
  Cu  Cu5_2  1  0.29153774  0.91692553  0.48399593  1
  Cu  Cu5_3  1  0.29153774  0.91692553  0.98399593  1
  Cu  Cu5_4  1  0.79153774  0.41692553  0.48399593  1
  Cu  Cu5_5  1  0.79153774  0.41692553  0.98399593  1
  Cu  Cu5_6  1  0.79153774  0.91692553  0.48399593  1
  Cu  Cu5_7  1  0.79153774  0.91692553  0.98399593  1
  Se  Se0_0  1  0.41433144  0.17133663  0.03501510  1
  Se  Se0_1  1  0.41433144  0.17133663  0.53501510  1
  Se  Se0_2  1  0.41433144  0.67133663  0.03501510  1
  Se  Se0_3  1  0.41433144  0.67133663  0.53501510  1
  Se  Se0_4  1  0.91433144  0.17133663  0.03501510  1
  Se  Se0_5  1  0.91433144  0.17133663  0.53501510  1
  Se  Se0_6  1  0.91433144  0.67133663  0.03501510  1
  Se  Se0_7  1  0.91433144  0.67133663  0.53501510  1
  Se  Se1_0  1  0.28135444  0.43729211  0.05942983  1
  Se  Se1_1  1  0.28135444  0.43729211  0.55942983  1
  Se  Se1_2  1  0.28135444  0.93729211  0.05942983  1
  Se  Se1_3  1  0.28135444  0.93729211  0.55942983  1
  Se  Se1_4  1  0.78135444  0.43729211  0.05942983  1
  Se  Se1_5  1  0.78135444  0.43729211  0.55942983  1
  Se  Se1_6  1  0.78135444  0.93729211  0.05942983  1
  Se  Se1_7  1  0.78135444  0.93729211  0.55942983  1
  Se  Se2_0  1  0.12547160  0.24905631  0.12500000  1
  Se  Se2_1  1  0.12547160  0.24905631  0.62500000  1
  Se  Se2_2  1  0.12547160  0.74905631  0.12500000  1
  Se  Se2_3  1  0.12547160  0.74905631  0.62500000  1
  Se  Se2_4  1  0.62547160  0.24905631  0.12500000  1
  Se  Se2_5  1  0.62547160  0.24905631  0.62500000  1
  Se  Se2_6  1  0.62547160  0.74905631  0.12500000  1
  Se  Se2_7  1  0.62547160  0.74905631  0.62500000  1
  Se  Se3_0  1  0.28135444  0.43729211  0.19056967  1
  Se  Se3_1  1  0.28135444  0.43729211  0.69056967  1
  Se  Se3_2  1  0.28135444  0.93729211  0.19056967  1
  Se  Se3_3  1  0.28135444  0.93729211  0.69056967  1
  Se  Se3_4  1  0.78135444  0.43729211  0.19056967  1
  Se  Se3_5  1  0.78135444  0.43729211  0.69056967  1
  Se  Se3_6  1  0.78135444  0.93729211  0.19056967  1
  Se  Se3_7  1  0.78135444  0.93729211  0.69056967  1
  Se  Se4_0  1  0.41433144  0.17133663  0.21498490  1
  Se  Se4_1  1  0.41433144  0.17133663  0.71498490  1
  Se  Se4_2  1  0.41433144  0.67133663  0.21498490  1
  Se  Se4_3  1  0.41433144  0.67133663  0.71498490  1
  Se  Se4_4  1  0.91433144  0.17133663  0.21498490  1
  Se  Se4_5  1  0.91433144  0.17133663  0.71498490  1
  Se  Se4_6  1  0.91433144  0.67133663  0.21498490  1
  Se  Se4_7  1  0.91433144  0.67133663  0.71498490  1
  Se  Se5_0  1  0.08566806  0.32866337  0.28501560  1
  Se  Se5_1  1  0.08566806  0.32866337  0.78501560  1
  Se  Se5_2  1  0.08566806  0.82866337  0.28501560  1
  Se  Se5_3  1  0.08566806  0.82866337  0.78501560  1
  Se  Se5_4  1  0.58566806  0.32866337  0.28501560  1
  Se  Se5_5  1  0.58566806  0.32866337  0.78501560  1
  Se  Se5_6  1  0.58566806  0.82866337  0.28501560  1
  Se  Se5_7  1  0.58566806  0.82866337  0.78501560  1
  Se  Se6_0  1  0.21864506  0.06270839  0.30942983  1
  Se  Se6_1  1  0.21864506  0.06270839  0.80942983  1
  Se  Se6_2  1  0.21864506  0.56270839  0.30942983  1
  Se  Se6_3  1  0.21864506  0.56270839  0.80942983  1
  Se  Se6_4  1  0.71864506  0.06270839  0.30942983  1
  Se  Se6_5  1  0.71864506  0.06270839  0.80942983  1
  Se  Se6_6  1  0.71864506  0.56270839  0.30942983  1
  Se  Se6_7  1  0.71864506  0.56270839  0.80942983  1
  Se  Se7_0  1  0.37452790  0.25094419  0.37500000  1
  Se  Se7_1  1  0.37452790  0.25094419  0.87500000  1
  Se  Se7_2  1  0.37452790  0.75094419  0.37500000  1
  Se  Se7_3  1  0.37452790  0.75094419  0.87500000  1
  Se  Se7_4  1  0.87452790  0.25094419  0.37500000  1
  Se  Se7_5  1  0.87452790  0.25094419  0.87500000  1
  Se  Se7_6  1  0.87452790  0.75094419  0.37500000  1
  Se  Se7_7  1  0.87452790  0.75094419  0.87500000  1
  Se  Se8_0  1  0.21864506  0.06270839  0.44056967  1
  Se  Se8_1  1  0.21864506  0.06270839  0.94056967  1
  Se  Se8_2  1  0.21864506  0.56270839  0.44056967  1
  Se  Se8_3  1  0.21864506  0.56270839  0.94056967  1
  Se  Se8_4  1  0.71864506  0.06270839  0.44056967  1
  Se  Se8_5  1  0.71864506  0.06270839  0.94056967  1
  Se  Se8_6  1  0.71864506  0.56270839  0.44056967  1
  Se  Se8_7  1  0.71864506  0.56270839  0.94056967  1
  Se  Se9_0  1  0.08566806  0.32866337  0.46498490  1
  Se  Se9_1  1  0.08566806  0.32866337  0.96498490  1
  Se  Se9_2  1  0.08566806  0.82866337  0.46498490  1
  Se  Se9_3  1  0.08566806  0.82866337  0.96498490  1
  Se  Se9_4  1  0.58566806  0.32866337  0.46498490  1
  Se  Se9_5  1  0.58566806  0.32866337  0.96498490  1
  Se  Se9_6  1  0.58566806  0.82866337  0.46498490  1
  Se  Se9_7  1  0.58566806  0.82866337  0.96498490  1
loop_
_geom_bond_atom_site_label_1
_geom_bond_atom_site_label_2
_geom_bond_distance
_geom_bond_site_symmetry_2
K0_0 Se4_0 3.323650 1_555
K0_0 Se0_0 3.323650 1_555
K0_0 Se2_4 3.326380 1_555
K0_0 Se2_0 3.326385 1_555
K0_0 Se3_2 3.407990 1_545
K0_0 Se3_6 3.407993 1_545
K0_0 Se1_2 3.408000 1_545
K0_0 Se1_6 3.408003 1_545
K0_0 K0_4 3.977698 1_455
K0_0 K0_4 3.977698 1_555
K0_1 Se4_1 3.323650 1_555
K0_1 Se0_1 3.323650 1_555
K0_1 Se2_5 3.326380 1_555
K0_1 Se2_1 3.326385 1_555
K0_1 Se3_3 3.407990 1_545
K0_1 Se3_7 3.407993 1_545
K0_1 Se1_3 3.408000 1_545
K0_1 Se1_7 3.408003 1_545
K0_1 K0_5 3.977698 1_455
K0_1 K0_5 3.977698 1_555
K0_2 Se4_2 3.323650 1_555
K0_2 Se0_2 3.323650 1_555
K0_2 Se2_6 3.326380 1_555
K0_2 Se2_2 3.326385 1_555
K0_2 Se3_0 3.407990 1_555
K0_2 Se3_4 3.407993 1_555
K0_2 Se1_0 3.408000 1_555
K0_2 Se1_4 3.408003 1_555
K0_2 K0_6 3.977698 1_555
K0_2 K0_6 3.977698 1_455
K0_3 Se4_3 3.323650 1_555
K0_3 Se0_3 3.323650 1_555
K0_3 Se2_7 3.326380 1_555
K0_3 Se2_3 3.326385 1_555
K0_3 Se3_1 3.407990 1_555
K0_3 Se3_5 3.407993 1_555
K0_3 Se1_1 3.408000 1_555
K0_3 Se1_5 3.408003 1_555
K0_3 K0_7 3.977698 1_555
K0_3 K0_7 3.977698 1_455
K0_4 Se4_4 3.323650 1_555
K0_4 Se0_4 3.323650 1_555
K0_4 Se2_0 3.326380 1_655
K0_4 Se2_4 3.326385 1_555
K0_4 Se3_6 3.407990 1_545
K0_4 Se3_2 3.407993 1_645
K0_4 Se1_6 3.408000 1_545
K0_4 Se1_2 3.408003 1_645
K0_5 Se4_5 3.323650 1_555
K0_5 Se0_5 3.323650 1_555
K0_5 Se2_1 3.326380 1_655
K0_5 Se2_5 3.326385 1_555
K0_5 Se3_7 3.407990 1_545
K0_5 Se3_3 3.407993 1_645
K0_5 Se1_7 3.408000 1_545
K0_5 Se1_3 3.408003 1_645
K0_6 Se4_6 3.323650 1_555
K0_6 Se0_6 3.323650 1_555
K0_6 Se2_2 3.326380 1_655
K0_6 Se2_6 3.326385 1_555
K0_6 Se3_4 3.407990 1_555
K0_6 Se3_0 3.407993 1_655
K0_6 Se1_4 3.408000 1_555
K0_6 Se1_0 3.408003 1_655
K0_7 Se4_7 3.323650 1_555
K0_7 Se0_7 3.323650 1_555
K0_7 Se2_3 3.326380 1_655
K0_7 Se2_7 3.326385 1_555
K0_7 Se3_5 3.407990 1_555
K0_7 Se3_1 3.407993 1_655
K0_7 Se1_5 3.408000 1_555
K0_7 Se1_1 3.408003 1_655
K1_0 Se5_0 3.323635 1_555
K1_0 Se9_0 3.323650 1_555
K1_0 Se7_4 3.326375 1_455
K1_0 Se7_0 3.326378 1_555
K1_0 Se8_2 3.407993 1_555
K1_0 Se8_6 3.407998 1_455
K1_0 Se6_2 3.408003 1_555
K1_0 Se6_6 3.408008 1_455
K1_0 K1_4 3.977698 1_455
K1_0 K1_4 3.977698 1_555
K1_1 Se5_1 3.323635 1_555
K1_1 Se9_1 3.323650 1_555
K1_1 Se7_5 3.326375 1_455
K1_1 Se7_1 3.326378 1_555
K1_1 Se8_3 3.407993 1_555
K1_1 Se8_7 3.407998 1_455
K1_1 Se6_3 3.408003 1_555
K1_1 Se6_7 3.408008 1_455
K1_1 K1_5 3.977698 1_455
K1_1 K1_5 3.977698 1_555
K1_2 Se5_2 3.323635 1_555
K1_2 Se9_2 3.323650 1_555
K1_2 Se7_6 3.326375 1_455
K1_2 Se7_2 3.326378 1_555
K1_2 Se8_0 3.407993 1_565
K1_2 Se8_4 3.407998 1_465
K1_2 Se6_0 3.408003 1_565
K1_2 Se6_4 3.408008 1_465
K1_2 K1_6 3.977698 1_455
K1_2 K1_6 3.977698 1_555
K1_3 Se5_3 3.323635 1_555
K1_3 Se9_3 3.323650 1_555
K1_3 Se7_7 3.326375 1_455
K1_3 Se7_3 3.326378 1_555
K1_3 Se8_1 3.407993 1_565
K1_3 Se8_5 3.407998 1_465
K1_3 Se6_1 3.408003 1_565
K1_3 Se6_5 3.408008 1_465
K1_3 K1_7 3.977698 1_455
K1_3 K1_7 3.977698 1_555
K1_4 Se5_4 3.323635 1_555
K1_4 Se9_4 3.323650 1_555
K1_4 Se7_0 3.326375 1_555
K1_4 Se7_4 3.326378 1_555
K1_4 Se8_6 3.407993 1_555
K1_4 Se8_2 3.407998 1_555
K1_4 Se6_6 3.408003 1_555
K1_4 Se6_2 3.408008 1_555
K1_5 Se5_5 3.323635 1_555
K1_5 Se9_5 3.323650 1_555
K1_5 Se7_1 3.326375 1_555
K1_5 Se7_5 3.326378 1_555
K1_5 Se8_7 3.407993 1_555
K1_5 Se8_3 3.407998 1_555
K1_5 Se6_7 3.408003 1_555
K1_5 Se6_3 3.408008 1_555
K1_6 Se5_6 3.323635 1_555
K1_6 Se9_6 3.323650 1_555
K1_6 Se7_2 3.326375 1_555
K1_6 Se7_6 3.326378 1_555
K1_6 Se8_4 3.407993 1_565
K1_6 Se8_0 3.407998 1_565
K1_6 Se6_4 3.408003 1_565
K1_6 Se6_0 3.408008 1_565
K1_7 Se5_7 3.323635 1_555
K1_7 Se9_7 3.323650 1_555
K1_7 Se7_3 3.326375 1_555
K1_7 Se7_7 3.326378 1_555
K1_7 Se8_5 3.407993 1_565
K1_7 Se8_1 3.407998 1_565
K1_7 Se6_5 3.408003 1_565
K1_7 Se6_1 3.408008 1_565
Sc0_0 Se2_0 2.679809 1_555
Sc0_0 Se9_1 2.686418 1_554
Sc0_0 Se1_4 2.734573 1_455
Sc0_0 Se1_0 2.734585 1_555
Sc0_0 Se0_4 2.806969 1_455
Sc0_0 Se0_0 2.806972 1_555
Sc0_1 Se2_1 2.679809 1_555
Sc0_1 Se9_0 2.686418 1_555
Sc0_1 Se1_5 2.734573 1_455
Sc0_1 Se1_1 2.734585 1_555
Sc0_1 Se0_5 2.806969 1_455
Sc0_1 Se0_1 2.806972 1_555
Sc0_2 Se2_2 2.679809 1_555
Sc0_2 Se9_3 2.686418 1_554
Sc0_2 Se1_6 2.734573 1_455
Sc0_2 Se1_2 2.734585 1_555
Sc0_2 Se0_6 2.806969 1_455
Sc0_2 Se0_2 2.806972 1_555
Sc0_3 Se2_3 2.679809 1_555
Sc0_3 Se9_2 2.686418 1_555
Sc0_3 Se1_7 2.734573 1_455
Sc0_3 Se1_3 2.734585 1_555
Sc0_3 Se0_7 2.806969 1_455
Sc0_3 Se0_3 2.806972 1_555
Sc0_4 Se2_4 2.679809 1_555
Sc0_4 Se9_5 2.686418 1_554
Sc0_4 Se1_0 2.734573 1_555
Sc0_4 Se1_4 2.734585 1_555
Sc0_4 Se0_0 2.806969 1_555
Sc0_4 Se0_4 2.806972 1_555
Sc0_5 Se2_5 2.679809 1_555
Sc0_5 Se9_4 2.686418 1_555
Sc0_5 Se1_1 2.734573 1_555
Sc0_5 Se1_5 2.734585 1_555
Sc0_5 Se0_1 2.806969 1_555
Sc0_5 Se0_5 2.806972 1_555
Sc0_6 Se2_6 2.679809 1_555
Sc0_6 Se9_7 2.686418 1_554
Sc0_6 Se1_2 2.734573 1_555
Sc0_6 Se1_6 2.734585 1_555
Sc0_6 Se0_2 2.806969 1_555
Sc0_6 Se0_6 2.806972 1_555
Sc0_7 Se2_7 2.679809 1_555
Sc0_7 Se9_6 2.686418 1_555
Sc0_7 Se1_3 2.734573 1_555
Sc0_7 Se1_7 2.734585 1_555
Sc0_7 Se0_3 2.806969 1_555
Sc0_7 Se0_7 2.806972 1_555
Sc1_0 Se2_0 2.679809 1_555
Sc1_0 Se5_0 2.686434 1_555
Sc1_0 Se3_4 2.734576 1_455
Sc1_0 Se3_0 2.734587 1_555
Sc1_0 Se4_4 2.806969 1_455
Sc1_0 Se4_0 2.806972 1_555
Sc1_1 Se2_1 2.679809 1_555
Sc1_1 Se5_1 2.686434 1_555
Sc1_1 Se3_5 2.734576 1_455
Sc1_1 Se3_1 2.734587 1_555
Sc1_1 Se4_5 2.806969 1_455
Sc1_1 Se4_1 2.806972 1_555
Sc1_2 Se2_2 2.679809 1_555
Sc1_2 Se5_2 2.686434 1_555
Sc1_2 Se3_6 2.734576 1_455
Sc1_2 Se3_2 2.734587 1_555
Sc1_2 Se4_6 2.806969 1_455
Sc1_2 Se4_2 2.806972 1_555
Sc1_3 Se2_3 2.679809 1_555
Sc1_3 Se5_3 2.686434 1_555
Sc1_3 Se3_7 2.734576 1_455
Sc1_3 Se3_3 2.734587 1_555
Sc1_3 Se4_7 2.806969 1_455
Sc1_3 Se4_3 2.806972 1_555
Sc1_4 Se2_4 2.679809 1_555
Sc1_4 Se5_4 2.686434 1_555
Sc1_4 Se3_0 2.734576 1_555
Sc1_4 Se3_4 2.734587 1_555
Sc1_4 Se4_0 2.806969 1_555
Sc1_4 Se4_4 2.806972 1_555
Sc1_5 Se2_5 2.679809 1_555
Sc1_5 Se5_5 2.686434 1_555
Sc1_5 Se3_1 2.734576 1_555
Sc1_5 Se3_5 2.734587 1_555
Sc1_5 Se4_1 2.806969 1_555
Sc1_5 Se4_5 2.806972 1_555
Sc1_6 Se2_6 2.679809 1_555
Sc1_6 Se5_6 2.686434 1_555
Sc1_6 Se3_2 2.734576 1_555
Sc1_6 Se3_6 2.734587 1_555
Sc1_6 Se4_2 2.806969 1_555
Sc1_6 Se4_6 2.806972 1_555
Sc1_7 Se2_7 2.679809 1_555
Sc1_7 Se5_7 2.686434 1_555
Sc1_7 Se3_3 2.734576 1_555
Sc1_7 Se3_7 2.734587 1_555
Sc1_7 Se4_3 2.806969 1_555
Sc1_7 Se4_7 2.806972 1_555
Sc2_0 Se7_0 2.679811 1_555
Sc2_0 Se4_0 2.686418 1_555
Sc2_0 Se6_4 2.734567 1_555
Sc2_0 Se6_0 2.734581 1_555
Sc2_0 Se5_4 2.806964 1_555
Sc2_0 Se5_0 2.806972 1_555
Sc2_1 Se7_1 2.679811 1_555
Sc2_1 Se4_1 2.686418 1_555
Sc2_1 Se6_5 2.734567 1_555
Sc2_1 Se6_1 2.734581 1_555
Sc2_1 Se5_5 2.806964 1_555
Sc2_1 Se5_1 2.806972 1_555
Sc2_2 Se7_2 2.679811 1_555
Sc2_2 Se4_2 2.686418 1_555
Sc2_2 Se6_6 2.734567 1_555
Sc2_2 Se6_2 2.734581 1_555
Sc2_2 Se5_6 2.806964 1_555
Sc2_2 Se5_2 2.806972 1_555
Sc2_3 Se7_3 2.679811 1_555
Sc2_3 Se4_3 2.686418 1_555
Sc2_3 Se6_7 2.734567 1_555
Sc2_3 Se6_3 2.734581 1_555
Sc2_3 Se5_7 2.806964 1_555
Sc2_3 Se5_3 2.806972 1_555
Sc2_4 Se7_4 2.679811 1_555
Sc2_4 Se4_4 2.686418 1_555
Sc2_4 Se6_0 2.734567 1_655
Sc2_4 Se6_4 2.734581 1_555
Sc2_4 Se5_0 2.806964 1_655
Sc2_4 Se5_4 2.806972 1_555
Sc2_5 Se7_5 2.679811 1_555
Sc2_5 Se4_5 2.686418 1_555
Sc2_5 Se6_1 2.734567 1_655
Sc2_5 Se6_5 2.734581 1_555
Sc2_5 Se5_1 2.806964 1_655
Sc2_5 Se5_5 2.806972 1_555
Sc2_6 Se7_6 2.679811 1_555
Sc2_6 Se4_6 2.686418 1_555
Sc2_6 Se6_2 2.734567 1_655
Sc2_6 Se6_6 2.734581 1_555
Sc2_6 Se5_2 2.806964 1_655
Sc2_6 Se5_6 2.806972 1_555
Sc2_7 Se7_7 2.679811 1_555
Sc2_7 Se4_7 2.686418 1_555
Sc2_7 Se6_3 2.734567 1_655
Sc2_7 Se6_7 2.734581 1_555
Sc2_7 Se5_3 2.806964 1_655
Sc2_7 Se5_7 2.806972 1_555
Sc3_0 Se7_0 2.679811 1_555
Sc3_0 Se0_1 2.686418 1_555
Sc3_0 Se8_4 2.734569 1_555
Sc3_0 Se8_0 2.734584 1_555
Sc3_0 Se9_4 2.806966 1_555
Sc3_0 Se9_0 2.806974 1_555
Sc3_1 Se7_1 2.679811 1_555
Sc3_1 Se0_0 2.686418 1_556
Sc3_1 Se8_5 2.734569 1_555
Sc3_1 Se8_1 2.734584 1_555
Sc3_1 Se9_5 2.806966 1_555
Sc3_1 Se9_1 2.806974 1_555
Sc3_2 Se7_2 2.679811 1_555
Sc3_2 Se0_3 2.686418 1_555
Sc3_2 Se8_6 2.734569 1_555
Sc3_2 Se8_2 2.734584 1_555
Sc3_2 Se9_6 2.806966 1_555
Sc3_2 Se9_2 2.806974 1_555
Sc3_3 Se7_3 2.679811 1_555
Sc3_3 Se0_2 2.686418 1_556
Sc3_3 Se8_7 2.734569 1_555
Sc3_3 Se8_3 2.734584 1_555
Sc3_3 Se9_7 2.806966 1_555
Sc3_3 Se9_3 2.806974 1_555
Sc3_4 Se7_4 2.679811 1_555
Sc3_4 Se0_5 2.686418 1_555
Sc3_4 Se8_0 2.734569 1_655
Sc3_4 Se8_4 2.734584 1_555
Sc3_4 Se9_0 2.806966 1_655
Sc3_4 Se9_4 2.806974 1_555
Sc3_5 Se7_5 2.679811 1_555
Sc3_5 Se0_4 2.686418 1_556
Sc3_5 Se8_1 2.734569 1_655
Sc3_5 Se8_5 2.734584 1_555
Sc3_5 Se9_1 2.806966 1_655
Sc3_5 Se9_5 2.806974 1_555
Sc3_6 Se7_6 2.679811 1_555
Sc3_6 Se0_7 2.686418 1_555
Sc3_6 Se8_2 2.734569 1_655
Sc3_6 Se8_6 2.734584 1_555
Sc3_6 Se9_2 2.806966 1_655
Sc3_6 Se9_6 2.806974 1_555
Sc3_7 Se7_7 2.679811 1_555
Sc3_7 Se0_6 2.686418 1_556
Sc3_7 Se8_3 2.734569 1_655
Sc3_7 Se8_7 2.734584 1_555
Sc3_7 Se9_3 2.806966 1_655
Sc3_7 Se9_7 2.806974 1_555
Cu0_0 Se0_4 2.430736 1_455
Cu0_0 Se0_0 2.430739 1_555
Cu0_0 Se8_1 2.475699 1_554
Cu0_0 Se1_2 2.506763 1_545
Cu0_0 Cu5_3 2.578461 1_544
Cu0_1 Se0_5 2.430736 1_455
Cu0_1 Se0_1 2.430739 1_555
Cu0_1 Se8_0 2.475699 1_555
Cu0_1 Se1_3 2.506763 1_545
Cu0_1 Cu5_2 2.578461 1_545
Cu0_2 Se0_6 2.430736 1_455
Cu0_2 Se0_2 2.430739 1_555
Cu0_2 Se8_3 2.475699 1_554
Cu0_2 Se1_0 2.506763 1_555
Cu0_2 Cu5_1 2.578461 1_554
Cu0_3 Se0_7 2.430736 1_455
Cu0_3 Se0_3 2.430739 1_555
Cu0_3 Se8_2 2.475699 1_555
Cu0_3 Se1_1 2.506763 1_555
Cu0_3 Cu5_0 2.578461 1_555
Cu0_4 Se0_0 2.430736 1_555
Cu0_4 Se0_4 2.430739 1_555
Cu0_4 Se8_5 2.475699 1_554
Cu0_4 Se1_6 2.506763 1_545
Cu0_4 Cu5_7 2.578461 1_544
Cu0_5 Se0_1 2.430736 1_555
Cu0_5 Se0_5 2.430739 1_555
Cu0_5 Se8_4 2.475699 1_555
Cu0_5 Se1_7 2.506763 1_545
Cu0_5 Cu5_6 2.578461 1_545
Cu0_6 Se0_2 2.430736 1_555
Cu0_6 Se0_6 2.430739 1_555
Cu0_6 Se8_7 2.475699 1_554
Cu0_6 Se1_4 2.506763 1_555
Cu0_6 Cu5_5 2.578461 1_554
Cu0_7 Se0_3 2.430736 1_555
Cu0_7 Se0_7 2.430739 1_555
Cu0_7 Se8_6 2.475699 1_555
Cu0_7 Se1_5 2.506763 1_555
Cu0_7 Cu5_4 2.578461 1_555
Cu1_0 Se2_4 2.393514 1_555
Cu1_0 Se2_0 2.393517 1_555
Cu1_0 Se3_0 2.522409 1_555
Cu1_0 Se1_0 2.522423 1_555
Cu1_0 K0_6 3.681372 1_455
Cu1_0 K0_2 3.681374 1_555
Cu1_1 Se2_5 2.393514 1_555
Cu1_1 Se2_1 2.393517 1_555
Cu1_1 Se3_1 2.522409 1_555
Cu1_1 Se1_1 2.522423 1_555
Cu1_1 K0_7 3.681372 1_455
Cu1_1 K0_3 3.681374 1_555
Cu1_2 Se2_6 2.393514 1_555
Cu1_2 Se2_2 2.393517 1_555
Cu1_2 Se3_2 2.522409 1_555
Cu1_2 Se1_2 2.522423 1_555
Cu1_2 K0_4 3.681372 1_465
Cu1_2 K0_0 3.681374 1_565
Cu1_3 Se2_7 2.393514 1_555
Cu1_3 Se2_3 2.393517 1_555
Cu1_3 Se3_3 2.522409 1_555
Cu1_3 Se1_3 2.522423 1_555
Cu1_3 K0_5 3.681372 1_465
Cu1_3 K0_1 3.681374 1_565
Cu1_4 Se2_0 2.393514 1_655
Cu1_4 Se2_4 2.393517 1_555
Cu1_4 Se3_4 2.522409 1_555
Cu1_4 Se1_4 2.522423 1_555
Cu1_4 K0_2 3.681372 1_555
Cu1_4 K0_6 3.681374 1_555
Cu1_5 Se2_1 2.393514 1_655
Cu1_5 Se2_5 2.393517 1_555
Cu1_5 Se3_5 2.522409 1_555
Cu1_5 Se1_5 2.522423 1_555
Cu1_5 K0_3 3.681372 1_555
Cu1_5 K0_7 3.681374 1_555
Cu1_6 Se2_2 2.393514 1_655
Cu1_6 Se2_6 2.393517 1_555
Cu1_6 Se3_6 2.522409 1_555
Cu1_6 Se1_6 2.522423 1_555
Cu1_6 K0_0 3.681372 1_565
Cu1_6 K0_4 3.681374 1_565
Cu1_7 Se2_3 2.393514 1_655
Cu1_7 Se2_7 2.393517 1_555
Cu1_7 Se3_7 2.522409 1_555
Cu1_7 Se1_7 2.522423 1_555
Cu1_7 K0_1 3.681372 1_565
Cu1_7 K0_5 3.681374 1_565
Cu2_0 Se4_4 2.430740 1_455
Cu2_0 Se4_0 2.430744 1_555
Cu2_0 Se6_0 2.475667 1_555
Cu2_0 Se3_2 2.506782 1_545
Cu2_0 Cu3_2 2.578454 1_545
Cu2_1 Se4_5 2.430740 1_455
Cu2_1 Se4_1 2.430744 1_555
Cu2_1 Se6_1 2.475667 1_555
Cu2_1 Se3_3 2.506782 1_545
Cu2_1 Cu3_3 2.578454 1_545
Cu2_2 Se4_6 2.430740 1_455
Cu2_2 Se4_2 2.430744 1_555
Cu2_2 Se6_2 2.475667 1_555
Cu2_2 Se3_0 2.506782 1_555
Cu2_2 Cu3_0 2.578454 1_555
Cu2_3 Se4_7 2.430740 1_455
Cu2_3 Se4_3 2.430744 1_555
Cu2_3 Se6_3 2.475667 1_555
Cu2_3 Se3_1 2.506782 1_555
Cu2_3 Cu3_1 2.578454 1_555
Cu2_4 Se4_0 2.430740 1_555
Cu2_4 Se4_4 2.430744 1_555
Cu2_4 Se6_4 2.475667 1_555
Cu2_4 Se3_6 2.506782 1_545
Cu2_4 Cu3_6 2.578454 1_545
Cu2_5 Se4_1 2.430740 1_555
Cu2_5 Se4_5 2.430744 1_555
Cu2_5 Se6_5 2.475667 1_555
Cu2_5 Se3_7 2.506782 1_545
Cu2_5 Cu3_7 2.578454 1_545
Cu2_6 Se4_2 2.430740 1_555
Cu2_6 Se4_6 2.430744 1_555
Cu2_6 Se6_6 2.475667 1_555
Cu2_6 Se3_4 2.506782 1_555
Cu2_6 Cu3_4 2.578454 1_555
Cu2_7 Se4_3 2.430740 1_555
Cu2_7 Se4_7 2.430744 1_555
Cu2_7 Se6_7 2.475667 1_555
Cu2_7 Se3_5 2.506782 1_555
Cu2_7 Cu3_5 2.578454 1_555
Cu3_0 Se5_4 2.430741 1_555
Cu3_0 Se5_0 2.430751 1_555
Cu3_0 Se3_0 2.475684 1_555
Cu3_0 Se6_2 2.506778 1_555
Cu3_1 Se5_5 2.430741 1_555
Cu3_1 Se5_1 2.430751 1_555
Cu3_1 Se3_1 2.475684 1_555
Cu3_1 Se6_3 2.506778 1_555
Cu3_2 Se5_6 2.430741 1_555
Cu3_2 Se5_2 2.430751 1_555
Cu3_2 Se3_2 2.475684 1_555
Cu3_2 Se6_0 2.506778 1_565
Cu3_3 Se5_7 2.430741 1_555
Cu3_3 Se5_3 2.430751 1_555
Cu3_3 Se3_3 2.475684 1_555
Cu3_3 Se6_1 2.506778 1_565
Cu3_4 Se5_0 2.430741 1_655
Cu3_4 Se5_4 2.430751 1_555
Cu3_4 Se3_4 2.475684 1_555
Cu3_4 Se6_6 2.506778 1_555
Cu3_5 Se5_1 2.430741 1_655
Cu3_5 Se5_5 2.430751 1_555
Cu3_5 Se3_5 2.475684 1_555
Cu3_5 Se6_7 2.506778 1_555
Cu3_6 Se5_2 2.430741 1_655
Cu3_6 Se5_6 2.430751 1_555
Cu3_6 Se3_6 2.475684 1_555
Cu3_6 Se6_4 2.506778 1_565
Cu3_7 Se5_3 2.430741 1_655
Cu3_7 Se5_7 2.430751 1_555
Cu3_7 Se3_7 2.475684 1_555
Cu3_7 Se6_5 2.506778 1_565
Cu4_0 Se7_0 2.393520 1_555
Cu4_0 Se7_4 2.393520 1_455
Cu4_0 Se8_0 2.522405 1_555
Cu4_0 Se6_0 2.522419 1_555
Cu4_0 K1_6 3.681372 1_545
Cu4_0 K1_2 3.681374 1_545
Cu4_1 Se7_1 2.393520 1_555
Cu4_1 Se7_5 2.393520 1_455
Cu4_1 Se8_1 2.522405 1_555
Cu4_1 Se6_1 2.522419 1_555
Cu4_1 K1_7 3.681372 1_545
Cu4_1 K1_3 3.681374 1_545
Cu4_2 Se7_2 2.393520 1_555
Cu4_2 Se7_6 2.393520 1_455
Cu4_2 Se8_2 2.522405 1_555
Cu4_2 Se6_2 2.522419 1_555
Cu4_2 K1_4 3.681372 1_555
Cu4_2 K1_0 3.681374 1_555
Cu4_3 Se7_3 2.393520 1_555
Cu4_3 Se7_7 2.393520 1_455
Cu4_3 Se8_3 2.522405 1_555
Cu4_3 Se6_3 2.522419 1_555
Cu4_3 K1_5 3.681372 1_555
Cu4_3 K1_1 3.681374 1_555
Cu4_4 Se7_4 2.393520 1_555
Cu4_4 Se7_0 2.393520 1_555
Cu4_4 Se8_4 2.522405 1_555
Cu4_4 Se6_4 2.522419 1_555
Cu4_4 K1_2 3.681372 1_645
Cu4_4 K1_6 3.681374 1_545
Cu4_5 Se7_5 2.393520 1_555
Cu4_5 Se7_1 2.393520 1_555
Cu4_5 Se8_5 2.522405 1_555
Cu4_5 Se6_5 2.522419 1_555
Cu4_5 K1_3 3.681372 1_645
Cu4_5 K1_7 3.681374 1_545
Cu4_6 Se7_6 2.393520 1_555
Cu4_6 Se7_2 2.393520 1_555
Cu4_6 Se8_6 2.522405 1_555
Cu4_6 Se6_6 2.522419 1_555
Cu4_6 K1_0 3.681372 1_655
Cu4_6 K1_4 3.681374 1_555
Cu4_7 Se7_7 2.393520 1_555
Cu4_7 Se7_3 2.393520 1_555
Cu4_7 Se8_7 2.522405 1_555
Cu4_7 Se6_7 2.522419 1_555
Cu4_7 K1_1 3.681372 1_655
Cu4_7 K1_5 3.681374 1_555
Cu5_0 Se9_4 2.430737 1_555
Cu5_0 Se9_0 2.430747 1_555
Cu5_0 Se1_1 2.475667 1_555
Cu5_0 Se8_2 2.506788 1_555
Cu5_1 Se9_5 2.430737 1_555
Cu5_1 Se9_1 2.430747 1_555
Cu5_1 Se1_0 2.475667 1_556
Cu5_1 Se8_3 2.506788 1_555
Cu5_2 Se9_6 2.430737 1_555
Cu5_2 Se9_2 2.430747 1_555
Cu5_2 Se1_3 2.475667 1_555
Cu5_2 Se8_0 2.506788 1_565
Cu5_3 Se9_7 2.430737 1_555
Cu5_3 Se9_3 2.430747 1_555
Cu5_3 Se1_2 2.475667 1_556
Cu5_3 Se8_1 2.506788 1_565
Cu5_4 Se9_0 2.430737 1_655
Cu5_4 Se9_4 2.430747 1_555
Cu5_4 Se1_5 2.475667 1_555
Cu5_4 Se8_6 2.506788 1_555
Cu5_5 Se9_1 2.430737 1_655
Cu5_5 Se9_5 2.430747 1_555
Cu5_5 Se1_4 2.475667 1_556
Cu5_5 Se8_7 2.506788 1_555
Cu5_6 Se9_2 2.430737 1_655
Cu5_6 Se9_6 2.430747 1_555
Cu5_6 Se1_7 2.475667 1_555
Cu5_6 Se8_4 2.506788 1_565
Cu5_7 Se9_3 2.430737 1_655
Cu5_7 Se9_7 2.430747 1_555
Cu5_7 Se1_6 2.475667 1_556
Cu5_7 Se8_5 2.506788 1_565
