# generated using pymatgen
data_AlZn2SnRh4
_symmetry_space_group_name_H-M   'P 1'
_cell_length_a   7.48583900
_cell_length_b   7.48583838
_cell_length_c   7.48584064
_cell_angle_alpha   33.38783455
_cell_angle_beta   33.38784078
_cell_angle_gamma   33.38783437
_symmetry_Int_Tables_number   1
_chemical_formula_structural   AlZn2SnRh4
_chemical_formula_sum   'Al1 Zn2 Sn1 Rh4'
_cell_volume   113.12229936
_cell_formula_units_Z   1
loop_
 _symmetry_equiv_pos_site_id
 _symmetry_equiv_pos_as_xyz
  1  'x, y, z'
loop_
 _atom_site_type_symbol
 _atom_site_label
 _atom_site_symmetry_multiplicity
 _atom_site_fract_x
 _atom_site_fract_y
 _atom_site_fract_z
 _atom_site_occupancy
  Al  Al0  1  0.00000000  0.00000000  0.00000000  1
  Zn  Zn0  1  0.25311504  0.25311504  0.25311504  1
  Zn  Zn1  1  0.74688496  0.74688496  0.74688496  1
  Sn  Sn0  1  0.50000000  0.50000000  0.50000000  1
  Rh  Rh0  1  0.62661850  0.62661850  0.62661850  1
  Rh  Rh1  1  0.12219868  0.12219868  0.12219868  1
  Rh  Rh2  1  0.87780132  0.87780132  0.87780132  1
  Rh  Rh3  1  0.37338150  0.37338150  0.37338150  1
loop_
_geom_bond_atom_site_label_1
_geom_bond_atom_site_label_2
_geom_bond_distance
_geom_bond_site_symmetry_2
Al0 Rh1 2.588913 1_555
Al0 Rh2 2.588913 1_444
Al0 Rh3 2.623998 1_545
Al0 Rh0 2.623998 1_454
Al0 Rh3 2.623998 1_554
Al0 Rh0 2.623998 1_445
Al0 Rh3 2.623999 1_455
Al0 Rh0 2.623999 1_544
Al0 Zn1 3.008956 1_454
Al0 Zn0 3.008956 1_545
Al0 Zn1 3.008956 1_544
Al0 Zn0 3.008956 1_455
Al0 Zn1 3.008958 1_445
Al0 Zn0 3.008958 1_554
Sn0 Zn0 3.085430 1_565
Sn0 Zn1 3.085430 1_545
Sn0 Zn0 3.085430 1_655
Sn0 Zn1 3.085430 1_455
Sn0 Zn0 3.085432 1_556
Sn0 Zn1 3.085432 1_554
Rh0 Zn1 2.547977 1_555
Rh0 Zn0 2.624835 1_565
Rh0 Zn0 2.624835 1_556
Rh0 Zn0 2.624835 1_655
Rh0 Sn0 2.682552 1_555
Rh0 Rh3 3.007497 1_565
Rh0 Rh3 3.007498 1_655
Rh0 Rh3 3.007499 1_556
Rh0 Rh2 3.032265 1_545
Rh0 Rh2 3.032266 1_455
Rh0 Rh2 3.032267 1_554
Rh1 Zn1 2.637519 1_454
Rh1 Zn1 2.637519 1_445
Rh1 Zn1 2.637520 1_544
Rh1 Sn0 2.655755 1_545
Rh1 Sn0 2.655755 1_554
Rh1 Sn0 2.655755 1_455
Rh1 Zn0 2.773607 1_555
Rh1 Rh3 3.032265 1_545
Rh1 Rh3 3.032266 1_455
Rh1 Rh3 3.032267 1_554
Rh1 Rh2 3.117002 1_454
Rh1 Rh2 3.117003 1_544
Rh1 Rh2 3.117004 1_445
Rh2 Zn0 2.637519 1_656
Rh2 Zn0 2.637519 1_665
Rh2 Zn0 2.637520 1_566
Rh2 Sn0 2.655755 1_565
Rh2 Sn0 2.655755 1_556
Rh2 Sn0 2.655755 1_655
Rh2 Zn1 2.773607 1_555
Rh3 Zn0 2.547977 1_555
Rh3 Zn1 2.624835 1_545
Rh3 Zn1 2.624835 1_554
Rh3 Zn1 2.624835 1_455
Rh3 Sn0 2.682552 1_555
