# generated using pymatgen
data_BaCa5(TcH7)2
_symmetry_space_group_name_H-M   'P 1'
_cell_length_a   5.18521489
_cell_length_b   5.18521458
_cell_length_c   12.79127663
_cell_angle_alpha   90.00000000
_cell_angle_beta   90.00000000
_cell_angle_gamma   119.99999564
_symmetry_Int_Tables_number   1
_chemical_formula_structural   BaCa5(TcH7)2
_chemical_formula_sum   'Ba1 Ca5 Tc2 H14'
_cell_volume   297.83657874
_cell_formula_units_Z   1
loop_
 _symmetry_equiv_pos_site_id
 _symmetry_equiv_pos_as_xyz
  1  'x, y, z'
loop_
 _atom_site_type_symbol
 _atom_site_label
 _atom_site_symmetry_multiplicity
 _atom_site_fract_x
 _atom_site_fract_y
 _atom_site_fract_z
 _atom_site_occupancy
  Ba  Ba0  1  0.00000000  0.00000000  0.25000000  1
  Ca  Ca0  1  0.00000000  0.00000000  0.75000000  1
  Ca  Ca1  1  0.33333300  0.66666700  0.45233412  1
  Ca  Ca2  1  0.66666700  0.33333300  0.57378485  1
  Ca  Ca3  1  0.66666700  0.33333300  0.92621515  1
  Ca  Ca4  1  0.33333300  0.66666700  0.04766588  1
  Tc  Tc0  1  0.00000000  0.00000000  0.51401490  1
  Tc  Tc1  1  0.00000000  0.00000000  0.98598510  1
  H  H0  1  0.33333300  0.66666700  0.25000000  1
  H  H1  1  0.66666700  0.33333300  0.75000000  1
  H  H2  1  0.15990518  0.84009482  0.90335245  1
  H  H3  1  0.15990518  0.31981236  0.90335245  1
  H  H4  1  0.68018764  0.84009482  0.90335245  1
  H  H5  1  0.83928153  0.16071847  0.06872522  1
  H  H6  1  0.83928153  0.67856206  0.06872522  1
  H  H7  1  0.32143794  0.16071847  0.06872522  1
  H  H8  1  0.83928153  0.16071847  0.43127478  1
  H  H9  1  0.83928153  0.67856206  0.43127478  1
  H  H10  1  0.32143794  0.16071847  0.43127478  1
  H  H11  1  0.15990518  0.84009482  0.59664755  1
  H  H12  1  0.15990518  0.31981236  0.59664755  1
  H  H13  1  0.68018764  0.84009482  0.59664755  1
loop_
_geom_bond_atom_site_label_1
_geom_bond_atom_site_label_2
_geom_bond_distance
_geom_bond_site_symmetry_2
Ba0 H8 2.731300 1_455
Ba0 H5 2.731300 1_455
Ba0 H9 2.731303 1_445
Ba0 H6 2.731303 1_445
Ba0 H10 2.731303 1_555
Ba0 H7 2.731303 1_555
Ba0 H0 2.993682 1_545
Ba0 H0 2.993687 1_555
Ba0 H0 2.993687 1_445
Ca0 H2 2.431091 1_545
Ca0 H11 2.431091 1_545
Ca0 H3 2.431096 1_555
Ca0 H12 2.431096 1_555
Ca0 H4 2.431096 1_445
Ca0 H13 2.431096 1_445
Ca0 H1 2.993682 1_455
Ca0 H1 2.993687 1_445
Ca0 H1 2.993687 1_555
Ca1 H12 2.415272 1_555
Ca1 H13 2.415272 1_555
Ca1 H11 2.415274 1_555
Ca1 H0 2.588112 1_555
Ca1 H10 2.607106 1_565
Ca1 H9 2.607106 1_455
Ca1 H8 2.607112 1_455
Ca1 H8 2.607112 1_565
Ca1 H10 2.607116 1_555
Ca1 H9 2.607117 1_555
Ca2 H1 2.254017 1_555
Ca2 H8 2.392952 1_555
Ca2 H9 2.392952 1_555
Ca2 H10 2.392952 1_555
Ca2 H13 2.609747 1_545
Ca2 H12 2.609748 1_655
Ca2 H11 2.609756 1_655
Ca2 H11 2.609756 1_545
Ca2 H13 2.609763 1_555
Ca2 H12 2.609763 1_555
Ca3 H1 2.254017 1_555
Ca3 H5 2.392952 1_556
Ca3 H6 2.392952 1_556
Ca3 H7 2.392952 1_556
Ca3 H4 2.609747 1_545
Ca3 H3 2.609748 1_655
Ca3 H2 2.609756 1_655
Ca3 H2 2.609756 1_545
Ca3 H4 2.609763 1_555
Ca3 H3 2.609763 1_555
Ca4 H3 2.415272 1_554
Ca4 H4 2.415272 1_554
Ca4 H2 2.415274 1_554
Ca4 H0 2.588112 1_555
Ca4 H7 2.607106 1_565
Ca4 H6 2.607106 1_455
Ca4 H5 2.607112 1_455
Ca4 H5 2.607112 1_565
Ca4 H7 2.607116 1_555
Ca4 H6 2.607117 1_555
H2 Tc1 1.783153 1_565
H3 Tc1 1.783160 1_555
H4 Tc1 1.783160 1_665
H5 Tc1 1.789853 1_654
H5 H6 2.500084 1_545
H5 H7 2.500085 1_655
H6 Tc1 1.789857 1_664
H6 H7 2.500085 1_665
H7 Tc1 1.789857 1_554
H8 Tc0 1.789853 1_655
H8 H9 2.500084 1_545
H9 Tc0 1.789857 1_665
H10 Tc0 1.789857 1_555
H10 H8 2.500085 1_455
H10 H9 2.500085 1_445
H11 Tc0 1.783153 1_565
H12 Tc0 1.783160 1_555
H13 Tc0 1.783160 1_665
