# generated using pymatgen
data_Ca2CdGa2Ag
_symmetry_space_group_name_H-M   'P 1'
_cell_length_a   5.85575476
_cell_length_b   5.85575530
_cell_length_c   7.30527775
_cell_angle_alpha   52.19819085
_cell_angle_beta   52.19820182
_cell_angle_gamma   46.66208101
_symmetry_Int_Tables_number   1
_chemical_formula_structural   Ca2CdGa2Ag
_chemical_formula_sum   'Ca2 Cd1 Ga2 Ag1'
_cell_volume   135.65916971
_cell_formula_units_Z   1
loop_
 _symmetry_equiv_pos_site_id
 _symmetry_equiv_pos_as_xyz
  1  'x, y, z'
loop_
 _atom_site_type_symbol
 _atom_site_label
 _atom_site_symmetry_multiplicity
 _atom_site_fract_x
 _atom_site_fract_y
 _atom_site_fract_z
 _atom_site_occupancy
  Ca  Ca0  1  0.54314034  0.54314034  0.70516496  1
  Ca  Ca1  1  0.45800135  0.45800135  0.29245836  1
  Cd  Cd0  1  0.16367521  0.16367521  0.88219206  1
  Ga  Ga0  1  0.84225238  0.84225238  0.71823046  1
  Ga  Ga1  1  0.82855248  0.82855248  0.10514635  1
  Ag  Ag0  1  0.16437924  0.16437924  0.29681082  1
loop_
_geom_bond_atom_site_label_1
_geom_bond_atom_site_label_2
_geom_bond_distance
_geom_bond_site_symmetry_2
Ca0 Ga0 3.127172 1_455
Ca0 Ga0 3.127172 1_545
Ca0 Ga1 3.199939 1_546
Ca0 Ga1 3.199940 1_456
Ca0 Ga1 3.266946 1_555
Ca0 Ga0 3.281098 1_555
Ca0 Cd0 3.311935 1_655
Ca0 Cd0 3.311936 1_565
Ca0 Cd0 3.358480 1_555
Ca0 Ca1 3.689624 1_555
Ca0 Ca1 3.741811 1_556
Ca1 Cd0 3.220880 1_555
Ca1 Cd0 3.225397 1_564
Ca1 Cd0 3.225398 1_654
Ca1 Ga1 3.236046 1_555
Ca1 Ga0 3.381345 1_545
Ca1 Ga0 3.381346 1_455
Ca1 Ga0 3.395682 1_554
Ca1 Ga1 3.425161 1_455
Ca1 Ga1 3.425162 1_545
Cd0 Ga0 2.725826 1_455
Cd0 Ga0 2.725826 1_545
Cd0 Ga1 2.793632 1_446
Ga0 Ga1 2.730390 1_556
Ag0 Ga1 2.675004 1_455
Ag0 Ga1 2.675004 1_545
Ag0 Ga0 2.690780 1_445
Ag0 Cd0 3.033964 1_554
Ag0 Ca1 3.136443 1_555
Ag0 Ca1 3.224773 1_455
Ag0 Ca1 3.224773 1_545
Ag0 Ca0 3.284041 1_545
Ag0 Ca0 3.284042 1_455
Ag0 Ca0 3.430550 1_554
