# generated using pymatgen
data_Li31Zr2Sb13
_symmetry_space_group_name_H-M   'P 1'
_cell_length_a   4.62508696
_cell_length_b   4.62508695
_cell_length_c   60.69451750
_cell_angle_alpha   60.25493927
_cell_angle_beta   60.25494183
_cell_angle_gamma   60.09273528
_symmetry_Int_Tables_number   1
_chemical_formula_structural   Li31Zr2Sb13
_chemical_formula_sum   'Li31 Zr2 Sb13'
_cell_volume   922.23768104
_cell_formula_units_Z   1
loop_
 _symmetry_equiv_pos_site_id
 _symmetry_equiv_pos_as_xyz
  1  'x, y, z'
loop_
 _atom_site_type_symbol
 _atom_site_label
 _atom_site_symmetry_multiplicity
 _atom_site_fract_x
 _atom_site_fract_y
 _atom_site_fract_z
 _atom_site_occupancy
  Li  Li0  1  0.74693100  0.74693100  0.05840900  1
  Li  Li1  1  0.25894400  0.25894400  0.17100100  1
  Li  Li2  1  0.25071100  0.25071100  0.24981500  1
  Li  Li3  1  0.49031300  0.49031300  0.19452600  1
  Li  Li4  1  0.74385200  0.74385200  0.13596800  1
  Li  Li5  1  0.25297300  0.25297300  0.32622600  1
  Li  Li6  1  0.74650200  0.74650200  0.21232400  1
  Li  Li7  1  0.49308600  0.49308600  0.27085300  1
  Li  Li8  1  0.48784000  0.48784000  0.34898100  1
  Li  Li9  1  0.75074300  0.75074300  0.28828500  1
  Li  Li10  1  0.24213900  0.24213900  0.40568400  1
  Li  Li11  1  0.24797800  0.24797800  0.48125600  1
  Li  Li12  1  0.74252600  0.74252600  0.36696800  1
  Li  Li13  1  0.24754600  0.24754600  0.55821000  1
  Li  Li14  1  0.75874600  0.75874600  0.44032100  1
  Li  Li15  1  0.75175500  0.75175500  0.51885100  1
  Li  Li16  1  0.24166600  0.24166600  0.63650300  1
  Li  Li17  1  0.75115600  0.75115600  0.59585700  1
  Li  Li18  1  0.25754500  0.25754500  0.70993100  1
  Li  Li19  1  0.75817400  0.75817400  0.67116200  1
  Li  Li20  1  0.51286900  0.51286900  0.72777700  1
  Li  Li21  1  0.24982300  0.24982300  0.78849900  1
  Li  Li22  1  0.74722000  0.74722000  0.75065700  1
  Li  Li23  1  0.50732100  0.50732100  0.80596500  1
  Li  Li24  1  0.25073200  0.25073200  0.86522900  1
  Li  Li25  1  0.74982500  0.74982500  0.82698400  1
  Li  Li26  1  0.51146700  0.51146700  0.88196600  1
  Li  Li27  1  0.26088800  0.26088800  0.93980500  1
  Li  Li28  1  0.51703600  0.51703600  0.95761700  1
  Li  Li29  1  0.75346100  0.75346100  0.90306700  1
  Li  Li30  1  0.74662100  0.74662100  0.98157700  1
  Zr  Zr0  1  0.24129600  0.24129600  0.02129400  1
  Zr  Zr1  1  0.24061000  0.24061000  0.09838400  1
  Sb  Sb0  1  0.00617600  0.00617600  0.99861100  1
  Sb  Sb1  1  0.99255500  0.99255500  0.07864700  1
  Sb  Sb2  1  0.99317100  0.99317100  0.15535700  1
  Sb  Sb3  1  0.01071600  0.01071600  0.38206300  1
  Sb  Sb4  1  0.00656600  0.00656600  0.22921400  1
  Sb  Sb5  1  0.00649900  0.00649900  0.30616900  1
  Sb  Sb6  1  0.99991900  0.99991900  0.53846700  1
  Sb  Sb7  1  0.99626100  0.99626100  0.46235900  1
  Sb  Sb8  1  0.99326800  0.99326800  0.77080400  1
  Sb  Sb9  1  0.00357600  0.00357600  0.61459400  1
  Sb  Sb10  1  0.98915000  0.98915000  0.69488100  1
  Sb  Sb11  1  0.99520200  0.99520200  0.84730600  1
  Sb  Sb12  1  0.99664800  0.99664800  0.92388500  1
loop_
_geom_bond_atom_site_label_1
_geom_bond_atom_site_label_2
_geom_bond_distance
_geom_bond_site_symmetry_2
Li0 Sb1 2.854158 1_555
Li0 Sb1 2.855227 1_545
Li0 Sb1 2.855227 1_455
Li0 Sb0 2.974093 1_664
Li0 Zr0 3.243758 1_665
Li0 Zr0 3.248994 1_565
Li0 Zr0 3.248994 1_655
Li0 Zr1 3.323748 1_555
Li0 Zr1 3.333377 1_655
Li0 Zr1 3.333377 1_565
Li1 Sb2 2.782178 1_455
Li1 Sb2 2.782178 1_545
Li1 Sb2 2.783269 1_445
Li1 Sb4 2.895262 1_555
Li1 Li3 2.916016 1_555
Li1 Li3 2.916779 1_545
Li1 Li3 2.916779 1_455
Li1 Li4 3.183210 1_555
Li1 Li4 3.192680 1_455
Li1 Li4 3.192680 1_545
Li2 Li3 2.749836 1_555
Li2 Sb5 2.802804 1_555
Li2 Sb4 2.861276 1_565
Li2 Sb4 2.861276 1_655
Li2 Sb4 2.861308 1_555
Li2 Li7 2.868652 1_545
Li2 Li7 2.868652 1_455
Li2 Li7 2.870122 1_555
Li2 Li6 3.253074 1_555
Li2 Li6 3.260337 1_455
Li2 Li6 3.260337 1_545
Li2 Li9 3.280729 1_445
Li2 Li9 3.288675 1_545
Li2 Li9 3.288675 1_455
Li3 Li6 2.813381 1_555
Li3 Li6 2.814874 1_545
Li3 Li6 2.814874 1_455
Li3 Li4 2.912426 1_555
Li3 Sb4 3.176122 1_555
Li3 Sb4 3.182211 1_655
Li3 Sb4 3.182211 1_565
Li3 Sb2 3.300176 1_555
Li3 Sb2 3.309498 1_455
Li3 Sb2 3.309498 1_545
Li4 Sb2 2.839590 1_555
Li4 Sb2 2.840592 1_545
Li4 Sb2 2.840592 1_455
Li4 Sb1 2.850896 1_555
Li4 Zr1 3.259419 1_665
Li4 Zr1 3.261138 1_565
Li4 Zr1 3.261139 1_655
Li5 Li7 2.754012 1_555
Li5 Sb3 2.777088 1_555
Li5 Sb5 2.851473 1_555
Li5 Sb5 2.851828 1_565
Li5 Sb5 2.851828 1_655
Li5 Li8 2.901068 1_545
Li5 Li8 2.901068 1_455
Li5 Li8 2.901987 1_555
Li5 Li9 3.266111 1_555
Li5 Li9 3.273110 1_455
Li5 Li9 3.273110 1_545
Li6 Sb4 2.798967 1_665
Li6 Sb4 2.801267 1_655
Li6 Sb4 2.801267 1_565
Li6 Sb2 2.833296 1_555
Li6 Li7 2.910983 1_555
Li7 Li9 2.806777 1_555
Li7 Li9 2.809666 1_545
Li7 Li9 2.809667 1_455
Li7 Sb5 3.193942 1_555
Li7 Sb5 3.198879 1_655
Li7 Sb5 3.198879 1_565
Li8 Li9 3.018759 1_555
Li8 Sb3 3.135868 1_555
Li8 Sb3 3.138417 1_655
Li8 Sb3 3.138417 1_565
Li9 Sb5 2.814279 1_665
Li9 Sb5 2.816447 1_655
Li9 Sb5 2.816447 1_565
Li9 Sb4 2.937939 1_665
Li10 Sb7 2.818766 1_445
Li10 Li8 2.820162 1_555
Li10 Sb3 2.916977 1_565
Li10 Sb3 2.916978 1_655
Li10 Sb3 2.921388 1_555
Li10 Li14 3.173854 1_445
Li10 Li14 3.181282 1_545
Li10 Li14 3.181282 1_455
Li10 Li12 3.283664 1_555
Li10 Li12 3.297925 1_455
Li10 Li12 3.297925 1_545
Li11 Sb7 2.831398 1_455
Li11 Sb7 2.831398 1_545
Li11 Sb7 2.833341 1_445
Li11 Sb6 2.845426 1_445
Li11 Li15 3.255912 1_445
Li11 Li15 3.263363 1_545
Li11 Li15 3.263363 1_455
Li11 Li14 3.354284 1_555
Li11 Li14 3.361193 1_455
Li11 Li14 3.361193 1_545
Li12 Sb3 2.774543 1_655
Li12 Sb3 2.774543 1_565
Li12 Sb3 2.776005 1_665
Li12 Li8 2.811177 1_555
Li12 Li8 2.820431 1_565
Li12 Li8 2.820431 1_655
Li12 Sb5 3.023875 1_665
Li13 Sb9 2.804303 1_555
Li13 Sb6 2.844460 1_445
Li13 Sb6 2.847195 1_455
Li13 Sb6 2.847195 1_545
Li13 Li17 3.257012 1_445
Li13 Li17 3.265039 1_545
Li13 Li17 3.265039 1_455
Li13 Li15 3.309155 1_555
Li13 Li15 3.313371 1_455
Li13 Li15 3.313371 1_545
Li14 Sb7 2.884807 1_555
Li14 Sb7 2.889070 1_545
Li14 Sb7 2.889070 1_455
Li14 Sb3 2.897511 1_665
Li15 Sb7 2.809673 1_555
Li15 Sb6 2.842175 1_555
Li15 Sb6 2.845078 1_545
Li15 Sb6 2.845078 1_455
Li16 Sb9 2.882483 1_555
Li16 Sb9 2.886588 1_565
Li16 Sb9 2.886588 1_655
Li16 Sb10 2.903478 1_445
Li16 Li19 3.174471 1_445
Li16 Li19 3.181863 1_545
Li16 Li19 3.181864 1_455
Li16 Li17 3.345436 1_555
Li16 Li17 3.352577 1_455
Li16 Li17 3.352578 1_545
Li17 Sb9 2.828736 1_655
Li17 Sb9 2.828737 1_565
Li17 Sb9 2.830771 1_665
Li17 Sb6 2.854330 1_555
Li18 Sb10 2.773902 1_455
Li18 Sb10 2.773902 1_545
Li18 Sb10 2.775474 1_445
Li18 Li20 2.809146 1_555
Li18 Li20 2.818118 1_545
Li18 Li20 2.818118 1_455
Li18 Sb8 3.027556 1_445
Li18 Li19 3.285287 1_555
Li18 Li19 3.299426 1_455
Li18 Li19 3.299427 1_545
Li19 Sb9 2.813445 1_665
Li19 Li20 2.815786 1_555
Li19 Sb10 2.919021 1_545
Li19 Sb10 2.919021 1_455
Li19 Sb10 2.923196 1_555
Li20 Li22 2.903399 1_545
Li20 Li22 2.903400 1_455
Li20 Li22 2.904617 1_555
Li20 Li21 3.020051 1_555
Li20 Sb10 3.130786 1_555
Li20 Sb10 3.133696 1_455
Li20 Sb10 3.133696 1_545
Li21 Li23 2.807214 1_555
Li21 Li23 2.810232 1_545
Li21 Li23 2.810232 1_455
Li21 Sb8 2.811154 1_445
Li21 Sb8 2.813576 1_455
Li21 Sb8 2.813576 1_545
Li21 Sb11 2.924810 1_445
Li21 Li22 3.263642 1_555
Li21 Li22 3.270086 1_455
Li21 Li22 3.270087 1_545
Li21 Li25 3.280936 1_445
Li21 Li25 3.289224 1_545
Li21 Li25 3.289224 1_455
Li22 Li23 2.750778 1_555
Li22 Sb10 2.774055 1_555
Li22 Sb8 2.852780 1_555
Li22 Sb8 2.853527 1_545
Li22 Sb8 2.853527 1_455
Li23 Li25 2.868135 1_545
Li23 Li25 2.868135 1_455
Li23 Li25 2.870124 1_555
Li23 Li24 2.947539 1_555
Li23 Sb8 3.189932 1_555
Li23 Sb8 3.194541 1_455
Li23 Sb8 3.194541 1_545
Li23 Sb11 3.363961 1_445
Li23 Sb11 3.374774 1_545
Li23 Sb11 3.374775 1_455
Li24 Li26 2.796740 1_555
Li24 Li26 2.798970 1_545
Li24 Li26 2.798970 1_455
Li24 Sb11 2.814463 1_445
Li24 Sb11 2.817274 1_455
Li24 Sb11 2.817274 1_545
Li24 Sb12 2.917298 1_445
Li24 Li29 3.262817 1_445
Li24 Li29 3.270328 1_545
Li24 Li29 3.270328 1_455
Li24 Li25 3.274884 1_555
Li24 Li25 3.281842 1_455
Li24 Li25 3.281843 1_545
Li25 Li26 2.734566 1_555
Li25 Sb8 2.794151 1_555
Li25 Sb11 2.856262 1_545
Li25 Sb11 2.856262 1_455
Li25 Sb11 2.856518 1_555
Li26 Li29 2.870195 1_545
Li26 Li29 2.870195 1_455
Li26 Li29 2.870466 1_555
Li26 Li27 2.876663 1_555
Li26 Sb11 3.176103 1_555
Li26 Sb11 3.181087 1_455
Li26 Sb11 3.181088 1_545
Li27 Sb12 2.784574 1_445
Li27 Sb12 2.787326 1_455
Li27 Sb12 2.787326 1_545
Li27 Li28 2.813751 1_555
Li27 Li28 2.815017 1_545
Li27 Li28 2.815017 1_455
Li27 Sb0 2.924758 1_555
Li27 Li29 3.232106 1_555
Li27 Li29 3.238887 1_455
Li27 Li29 3.238887 1_545
Li28 Li29 2.713081 1_555
Li28 Li30 2.925139 1_545
Li28 Li30 2.925139 1_455
Li28 Li30 2.925538 1_555
Li28 Sb12 3.150673 1_555
Li28 Sb12 3.156624 1_455
Li28 Sb12 3.156624 1_545
Li28 Zr0 3.167022 1_556
Li28 Sb0 3.355021 1_555
Li28 Sb0 3.363494 1_655
Li28 Sb0 3.363495 1_565
Li29 Sb11 2.773310 1_555
Li29 Sb12 2.865077 1_555
Li29 Sb12 2.865215 1_545
Li29 Sb12 2.865215 1_455
Li30 Sb0 2.802015 1_665
Li30 Sb0 2.802978 1_655
Li30 Sb0 2.802979 1_565
Li30 Sb12 2.869350 1_555
Li30 Zr0 3.316892 1_556
Li30 Zr0 3.325337 1_656
Li30 Zr0 3.325337 1_566
Sb0 Zr0 2.899893 1_546
Sb0 Zr0 2.899893 1_456
Sb0 Zr0 2.900151 1_556
Sb1 Zr1 2.845585 1_655
Sb1 Zr1 2.845585 1_565
Sb1 Zr1 2.847378 1_665
Sb1 Zr0 2.852488 1_665
Sb2 Zr1 2.833586 1_665
