# generated using pymatgen
data_Cs2TiZn3As4
_symmetry_space_group_name_H-M   'P 1'
_cell_length_a   8.17676060
_cell_length_b   8.17676093
_cell_length_c   5.89511523
_cell_angle_alpha   90.00000000
_cell_angle_beta   90.00000000
_cell_angle_gamma   137.74905120
_symmetry_Int_Tables_number   1
_chemical_formula_structural   Cs2TiZn3As4
_chemical_formula_sum   'Cs2 Ti1 Zn3 As4'
_cell_volume   265.01415057
_cell_formula_units_Z   1
loop_
 _symmetry_equiv_pos_site_id
 _symmetry_equiv_pos_as_xyz
  1  'x, y, z'
loop_
 _atom_site_type_symbol
 _atom_site_label
 _atom_site_symmetry_multiplicity
 _atom_site_fract_x
 _atom_site_fract_y
 _atom_site_fract_z
 _atom_site_occupancy
  Cs  Cs0  1  0.50000000  0.00000000  0.25677286  1
  Cs  Cs1  1  0.00000000  0.50000000  0.74322714  1
  Ti  Ti0  1  0.00000000  0.00000000  0.00000000  1
  Zn  Zn0  1  0.50000000  0.50000000  0.50000000  1
  Zn  Zn1  1  0.50000000  0.50000000  0.00000000  1
  Zn  Zn2  1  0.00000000  0.00000000  0.50000000  1
  As  As0  1  0.66235366  0.85162399  0.75732637  1
  As  As1  1  0.14837601  0.33764634  0.24267363  1
  As  As2  1  0.85162399  0.66235366  0.24267363  1
  As  As3  1  0.33764634  0.14837601  0.75732637  1
loop_
_geom_bond_atom_site_label_1
_geom_bond_atom_site_label_2
_geom_bond_distance
_geom_bond_site_symmetry_2
Cs0 Cs1 4.111998 1_655
Cs0 Cs1 4.111998 1_545
Cs0 Cs1 4.224929 1_544
Cs0 Cs1 4.224929 1_654
Ti0 Zn1 2.946999 1_555
Ti0 Zn1 2.946999 1_445
Ti0 Zn2 2.947558 1_554
Ti0 Zn2 2.947558 1_555
Zn0 Zn2 2.946999 1_555
Zn0 Zn2 2.946999 1_665
Zn0 Zn1 2.947558 1_555
Zn0 Zn1 2.947558 1_556
As0 Ti0 2.486382 1_666
As0 Zn1 2.534735 1_556
As0 Zn2 2.537066 1_665
As0 Zn0 2.584471 1_555
As0 Cs1 3.750674 1_665
As0 Cs0 3.779881 1_566
As0 Cs0 3.784966 1_565
As0 Cs1 3.814856 1_555
As1 Ti0 2.486382 1_555
As1 Zn1 2.534735 1_555
As1 Zn2 2.537066 1_555
As1 Zn0 2.584471 1_555
As1 Cs0 3.750673 1_455
As1 Cs1 3.779881 1_554
As1 Cs1 3.784966 1_555
As1 Cs0 3.814856 1_565
As2 Ti0 2.486382 1_665
As2 Zn1 2.534735 1_555
As2 Zn2 2.537066 1_665
As2 Zn0 2.584471 1_555
As2 Cs0 3.750673 1_665
As2 Cs1 3.779881 1_654
As2 Cs1 3.784966 1_655
As2 Cs0 3.814856 1_555
As3 Ti0 2.486382 1_556
As3 Zn1 2.534735 1_556
As3 Zn2 2.537066 1_555
As3 Zn0 2.584471 1_555
As3 Cs1 3.750674 1_545
As3 Cs0 3.779881 1_556
As3 Cs0 3.784966 1_555
As3 Cs1 3.814856 1_655
