# generated using pymatgen
data_K4NaFeSe4
_symmetry_space_group_name_H-M   'P 1'
_cell_length_a   8.20074181
_cell_length_b   8.20074206
_cell_length_c   8.20074195
_cell_angle_alpha   130.92520418
_cell_angle_beta   129.57806008
_cell_angle_gamma   73.01016175
_symmetry_Int_Tables_number   1
_chemical_formula_structural   K4NaFeSe4
_chemical_formula_sum   'K4 Na1 Fe1 Se4'
_cell_volume   313.67455412
_cell_formula_units_Z   1
loop_
 _symmetry_equiv_pos_site_id
 _symmetry_equiv_pos_as_xyz
  1  'x, y, z'
loop_
 _atom_site_type_symbol
 _atom_site_label
 _atom_site_symmetry_multiplicity
 _atom_site_fract_x
 _atom_site_fract_y
 _atom_site_fract_z
 _atom_site_occupancy
  K  K0  1  0.47805000  0.14689665  0.33385885  1
  K  K1  1  0.52195000  0.85580885  0.66884866  1
  K  K2  1  0.18696120  0.35310335  0.83115134  1
  K  K3  1  0.81303880  0.64419115  0.16614115  1
  Na  Na0  1  0.00000000  0.25000000  0.25000000  1
  Fe  Fe0  1  0.00000000  0.75000000  0.75000000  1
  Se  Se0  1  0.09105277  0.85263650  0.15661334  1
  Se  Se1  1  0.90894723  0.06556157  0.76158473  1
  Se  Se2  1  0.30397584  0.64736350  0.73841527  1
  Se  Se3  1  0.69602416  0.43443843  0.34338666  1
loop_
_geom_bond_atom_site_label_1
_geom_bond_atom_site_label_2
_geom_bond_distance
_geom_bond_site_symmetry_2
K0 Se3 3.287225 1_555
K0 Se2 3.315292 1_544
K0 Se1 3.336011 1_555
K0 Na0 3.456341 1_555
K0 Se0 3.465571 1_545
K0 Se1 3.749597 1_454
K0 Se2 3.828945 1_555
K0 K3 4.117086 1_556
K0 K3 4.147467 1_545
K1 Se2 3.287211 1_555
K1 Se3 3.315305 1_555
K1 Se0 3.336021 1_555
K1 Na0 3.456340 1_666
K1 Se1 3.465582 1_565
K1 Se0 3.749593 1_656
K1 Se3 3.828932 1_566
K1 K2 4.117089 1_565
K1 K2 4.147481 1_554
K2 Se1 3.287231 1_455
K2 Se0 3.315290 1_556
K2 Se3 3.336028 1_556
K2 Na0 3.456328 1_555
K2 Se2 3.465564 1_555
K2 Se3 3.749579 1_455
K2 Se0 3.828937 1_545
K3 Se0 3.287219 1_655
K3 Se1 3.315300 1_565
K3 Se2 3.336023 1_554
K3 Na0 3.456340 1_655
K3 Se3 3.465578 1_555
K3 Se2 3.749588 1_655
K3 Se1 3.828934 1_554
Na0 Se3 2.792856 1_455
Na0 Se1 2.792859 1_454
Na0 Se2 2.792860 1_555
Na0 Se0 2.792864 1_545
Fe0 Se2 2.429502 1_555
Fe0 Se3 2.429506 1_455
Fe0 Se0 2.429506 1_556
Fe0 Se1 2.429510 1_465
Fe0 K2 3.465399 1_555
Fe0 K0 3.465408 1_566
Fe0 K3 3.465411 1_455
Fe0 K1 3.465414 1_455
