# generated using pymatgen
data_Hf4GaP
_symmetry_space_group_name_H-M   'P 1'
_cell_length_a   5.29326533
_cell_length_b   5.29326476
_cell_length_c   5.29326476
_cell_angle_alpha   104.05554575
_cell_angle_beta   104.05554760
_cell_angle_gamma   120.94900431
_symmetry_Int_Tables_number   1
_chemical_formula_structural   Hf4GaP
_chemical_formula_sum   'Hf4 Ga1 P1'
_cell_volume   110.67662979
_cell_formula_units_Z   1
loop_
 _symmetry_equiv_pos_site_id
 _symmetry_equiv_pos_as_xyz
  1  'x, y, z'
loop_
 _atom_site_type_symbol
 _atom_site_label
 _atom_site_symmetry_multiplicity
 _atom_site_fract_x
 _atom_site_fract_y
 _atom_site_fract_z
 _atom_site_occupancy
  Hf  Hf0  1  0.40645920  0.90645920  0.81291740  1
  Hf  Hf1  1  0.09354080  0.59354080  0.18708260  1
  Hf  Hf2  1  0.59354080  0.40645920  0.50000000  1
  Hf  Hf3  1  0.90645920  0.09354080  0.50000000  1
  Ga  Ga0  1  0.50000000  0.50000000  0.00000000  1
  P  P0  1  0.00000000  0.00000000  0.00000000  1
loop_
_geom_bond_atom_site_label_1
_geom_bond_atom_site_label_2
_geom_bond_distance
_geom_bond_site_symmetry_2
Hf0 P0 2.783369 1_666
Hf0 P0 2.783372 1_566
Hf0 Hf1 2.882509 1_555
Hf0 Hf1 3.126436 1_666
Hf0 Hf1 3.126444 1_556
Hf0 Hf2 3.310454 1_565
Hf0 Hf3 3.310455 1_565
Hf0 Hf3 3.310459 1_455
Hf0 Hf2 3.310459 1_455
Hf1 P0 2.783369 1_555
Hf1 P0 2.783371 1_565
Hf1 Hf3 3.310454 1_455
Hf1 Hf2 3.310455 1_455
Hf1 Hf2 3.310459 1_565
Hf1 Hf3 3.310459 1_565
Hf2 P0 2.783369 1_666
Hf2 P0 2.783369 1_555
Hf2 Hf3 2.882519 1_555
Hf2 Hf3 3.126435 1_565
Hf2 Hf3 3.126435 1_455
Hf3 P0 2.783369 1_656
Hf3 P0 2.783369 1_655
Ga0 P0 2.608578 1_555
Ga0 P0 2.608578 1_665
Ga0 Hf2 2.783369 1_555
Ga0 Hf2 2.783369 1_554
Ga0 Hf0 2.783369 1_544
Ga0 Hf3 2.783369 1_565
Ga0 Hf3 2.783369 1_454
Ga0 Hf1 2.783369 1_655
Ga0 Hf0 2.783371 1_554
Ga0 Hf1 2.783372 1_555
