# generated using pymatgen
data_Re2TcP4
_symmetry_space_group_name_H-M   'P 1'
_cell_length_a   12.54919062
_cell_length_b   12.54918800
_cell_length_c   12.06507930
_cell_angle_alpha   66.84999048
_cell_angle_beta   66.84999418
_cell_angle_gamma   28.00335143
_symmetry_Int_Tables_number   1
_chemical_formula_structural   Re2TcP4
_chemical_formula_sum   'Re16 Tc8 P32'
_cell_volume   815.60096731
_cell_formula_units_Z   8
loop_
 _symmetry_equiv_pos_site_id
 _symmetry_equiv_pos_as_xyz
  1  'x, y, z'
loop_
 _atom_site_type_symbol
 _atom_site_label
 _atom_site_symmetry_multiplicity
 _atom_site_fract_x
 _atom_site_fract_y
 _atom_site_fract_z
 _atom_site_occupancy
  Re  Re0_0  1  0.36839491  0.36839491  0.15899902  1
  Re  Re0_1  1  0.36839491  0.36839491  0.65899902  1
  Re  Re0_2  1  0.36839491  0.86839491  0.15899902  1
  Re  Re0_3  1  0.36839491  0.86839491  0.65899902  1
  Re  Re0_4  1  0.86839491  0.36839491  0.15899902  1
  Re  Re0_5  1  0.86839491  0.36839491  0.65899902  1
  Re  Re0_6  1  0.86839491  0.86839491  0.15899902  1
  Re  Re0_7  1  0.86839491  0.86839491  0.65899902  1
  Re  Re1_0  1  0.13160509  0.13160509  0.34100098  1
  Re  Re1_1  1  0.13160509  0.13160509  0.84100098  1
  Re  Re1_2  1  0.13160509  0.63160509  0.34100098  1
  Re  Re1_3  1  0.13160509  0.63160509  0.84100098  1
  Re  Re1_4  1  0.63160509  0.13160509  0.34100098  1
  Re  Re1_5  1  0.63160509  0.13160509  0.84100098  1
  Re  Re1_6  1  0.63160509  0.63160509  0.34100098  1
  Re  Re1_7  1  0.63160509  0.63160509  0.84100098  1
  Tc  Tc0_0  1  0.00000000  0.00000000  0.00000000  1
  Tc  Tc0_1  1  0.00000000  0.00000000  0.50000000  1
  Tc  Tc0_2  1  0.00000000  0.50000000  0.00000000  1
  Tc  Tc0_3  1  0.00000000  0.50000000  0.50000000  1
  Tc  Tc0_4  1  0.50000000  0.00000000  0.00000000  1
  Tc  Tc0_5  1  0.50000000  0.00000000  0.50000000  1
  Tc  Tc0_6  1  0.50000000  0.50000000  0.00000000  1
  Tc  Tc0_7  1  0.50000000  0.50000000  0.50000000  1
  P  P0_0  1  0.45658189  0.45658189  0.21836178  1
  P  P0_1  1  0.45658189  0.45658189  0.71836178  1
  P  P0_2  1  0.45658189  0.95658189  0.21836178  1
  P  P0_3  1  0.45658189  0.95658189  0.71836178  1
  P  P0_4  1  0.95658189  0.45658189  0.21836178  1
  P  P0_5  1  0.95658189  0.45658189  0.71836178  1
  P  P0_6  1  0.95658189  0.95658189  0.21836178  1
  P  P0_7  1  0.95658189  0.95658189  0.71836178  1
  P  P1_0  1  0.04341811  0.04341811  0.28163822  1
  P  P1_1  1  0.04341811  0.04341811  0.78163822  1
  P  P1_2  1  0.04341811  0.54341811  0.28163822  1
  P  P1_3  1  0.04341811  0.54341811  0.78163822  1
  P  P1_4  1  0.54341811  0.04341811  0.28163822  1
  P  P1_5  1  0.54341811  0.04341811  0.78163822  1
  P  P1_6  1  0.54341811  0.54341811  0.28163822  1
  P  P1_7  1  0.54341811  0.54341811  0.78163822  1
  P  P2_0  1  0.32403736  0.32403736  0.01197715  1
  P  P2_1  1  0.32403736  0.32403736  0.51197715  1
  P  P2_2  1  0.32403736  0.82403736  0.01197715  1
  P  P2_3  1  0.32403736  0.82403736  0.51197715  1
  P  P2_4  1  0.82403736  0.32403736  0.01197715  1
  P  P2_5  1  0.82403736  0.32403736  0.51197715  1
  P  P2_6  1  0.82403736  0.82403736  0.01197715  1
  P  P2_7  1  0.82403736  0.82403736  0.51197715  1
  P  P3_0  1  0.17596264  0.17596264  0.48802285  1
  P  P3_1  1  0.17596264  0.17596264  0.98802285  1
  P  P3_2  1  0.17596264  0.67596264  0.48802285  1
  P  P3_3  1  0.17596264  0.67596264  0.98802285  1
  P  P3_4  1  0.67596264  0.17596264  0.48802285  1
  P  P3_5  1  0.67596264  0.17596264  0.98802285  1
  P  P3_6  1  0.67596264  0.67596264  0.48802285  1
  P  P3_7  1  0.67596264  0.67596264  0.98802285  1
loop_
_geom_bond_atom_site_label_1
_geom_bond_atom_site_label_2
_geom_bond_distance
_geom_bond_site_symmetry_2
Re0_0 Re1_2 2.793300 1_555
Re0_0 Re1_4 2.793301 1_555
Re0_1 Re1_3 2.793300 1_555
Re0_1 Re1_5 2.793301 1_555
Re0_2 Re1_0 2.793300 1_565
Re0_2 Re1_6 2.793301 1_555
Re0_3 Re1_1 2.793300 1_565
Re0_3 Re1_7 2.793301 1_555
Re0_4 Re1_6 2.793300 1_555
Re0_4 Re1_0 2.793301 1_655
Re0_5 Re1_7 2.793300 1_555
Re0_5 Re1_1 2.793301 1_655
Re0_6 Re1_4 2.793300 1_565
Re0_6 Re1_2 2.793301 1_655
Re0_7 Re1_5 2.793300 1_565
Re0_7 Re1_3 2.793301 1_655
P0_0 Re1_4 2.374585 1_555
P0_0 Re1_2 2.374586 1_555
P0_0 Tc0_6 2.408628 1_555
P0_0 P1_6 2.522505 1_555
P0_0 Re0_0 2.524191 1_555
P0_0 P0_6 3.036280 1_545
P0_0 P0_6 3.036280 1_455
P0_1 Re1_5 2.374585 1_555
P0_1 Re1_3 2.374586 1_555
P0_1 Tc0_7 2.408628 1_555
P0_1 P1_7 2.522505 1_555
P0_1 Re0_1 2.524191 1_555
P0_1 P0_7 3.036280 1_455
P0_1 P0_7 3.036280 1_545
P0_2 Re1_6 2.374585 1_555
P0_2 Re1_0 2.374586 1_565
P0_2 Tc0_4 2.408628 1_565
P0_2 P1_4 2.522505 1_565
P0_2 Re0_2 2.524191 1_555
P0_2 P0_4 3.036280 1_465
P0_2 P0_4 3.036280 1_555
P0_3 Re1_7 2.374585 1_555
P0_3 Re1_1 2.374586 1_565
P0_3 Tc0_5 2.408628 1_565
P0_3 P1_5 2.522505 1_565
P0_3 Re0_3 2.524191 1_555
P0_3 P0_5 3.036280 1_555
P0_3 P0_5 3.036280 1_465
P0_4 Re1_0 2.374585 1_655
P0_4 Re1_6 2.374586 1_555
P0_4 Tc0_2 2.408628 1_655
P0_4 P1_2 2.522505 1_655
P0_4 Re0_4 2.524191 1_555
P0_5 Re1_1 2.374585 1_655
P0_5 Re1_7 2.374586 1_555
P0_5 Tc0_3 2.408628 1_655
P0_5 P1_3 2.522505 1_655
P0_5 Re0_5 2.524191 1_555
P0_6 Re1_2 2.374585 1_655
P0_6 Re1_4 2.374586 1_565
P0_6 Tc0_0 2.408628 1_665
P0_6 P1_0 2.522505 1_665
P0_6 Re0_6 2.524191 1_555
P0_7 Re1_3 2.374585 1_655
P0_7 Re1_5 2.374586 1_565
P0_7 Tc0_1 2.408628 1_665
P0_7 P1_1 2.522505 1_665
P0_7 Re0_7 2.524191 1_555
P1_0 Re0_4 2.374585 1_455
P1_0 Re0_2 2.374586 1_545
P1_0 Tc0_1 2.408628 1_555
P1_0 Re1_0 2.524191 1_555
P1_0 P1_6 3.036280 1_545
P1_0 P1_6 3.036280 1_455
P1_1 Re0_5 2.374585 1_455
P1_1 Re0_3 2.374586 1_545
P1_1 Tc0_0 2.408628 1_556
P1_1 Re1_1 2.524191 1_555
P1_1 P1_7 3.036280 1_545
P1_1 P1_7 3.036280 1_455
P1_2 Re0_6 2.374585 1_455
P1_2 Re0_0 2.374586 1_555
P1_2 Tc0_3 2.408628 1_555
P1_2 Re1_2 2.524191 1_555
P1_2 P1_4 3.036280 1_465
P1_2 P1_4 3.036280 1_555
P1_3 Re0_7 2.374585 1_455
P1_3 Re0_1 2.374586 1_555
P1_3 Tc0_2 2.408628 1_556
P1_3 Re1_3 2.524191 1_555
P1_3 P1_5 3.036280 1_465
P1_3 P1_5 3.036280 1_555
P1_4 Re0_0 2.374585 1_555
P1_4 Re0_6 2.374586 1_545
P1_4 Tc0_5 2.408628 1_555
P1_4 Re1_4 2.524191 1_555
P1_5 Re0_1 2.374585 1_555
P1_5 Re0_7 2.374586 1_545
P1_5 Tc0_4 2.408628 1_556
P1_5 Re1_5 2.524191 1_555
P1_6 Re0_2 2.374585 1_555
P1_6 Re0_4 2.374586 1_555
P1_6 Tc0_7 2.408628 1_555
P1_6 Re1_6 2.524191 1_555
P1_7 Re0_3 2.374585 1_555
P1_7 Re0_5 2.374586 1_555
P1_7 Tc0_6 2.408628 1_556
P1_7 Re1_7 2.524191 1_555
P2_0 Tc0_4 2.405743 1_555
P2_0 Tc0_2 2.405744 1_555
P2_0 Re0_0 2.422006 1_555
P2_0 Re1_3 2.486353 1_554
P2_0 Re1_5 2.486353 1_554
P2_0 P3_3 2.822770 1_554
P2_0 P3_5 2.822771 1_554
P2_0 P2_6 3.036280 1_545
P2_0 P2_6 3.036280 1_455
P2_1 Tc0_5 2.405743 1_555
P2_1 Tc0_3 2.405744 1_555
P2_1 Re0_1 2.422006 1_555
P2_1 Re1_2 2.486353 1_555
P2_1 Re1_4 2.486353 1_555
P2_1 P3_2 2.822770 1_555
P2_1 P3_4 2.822771 1_555
P2_1 P2_7 3.036280 1_545
P2_1 P2_7 3.036280 1_455
P2_2 Tc0_6 2.405743 1_555
P2_2 Tc0_0 2.405744 1_565
P2_2 Re0_2 2.422006 1_555
P2_2 Re1_1 2.486353 1_564
P2_2 Re1_7 2.486353 1_554
P2_2 P3_1 2.822770 1_564
P2_2 P3_7 2.822771 1_554
P2_2 P2_4 3.036280 1_465
P2_2 P2_4 3.036280 1_555
P2_3 Tc0_7 2.405743 1_555
P2_3 Tc0_1 2.405744 1_565
P2_3 Re0_3 2.422006 1_555
P2_3 Re1_0 2.486353 1_565
P2_3 Re1_6 2.486353 1_555
P2_3 P3_0 2.822770 1_565
P2_3 P3_6 2.822771 1_555
P2_3 P2_5 3.036280 1_555
P2_3 P2_5 3.036280 1_465
P2_4 Tc0_0 2.405743 1_655
P2_4 Tc0_6 2.405744 1_555
P2_4 Re0_4 2.422006 1_555
P2_4 Re1_7 2.486353 1_554
P2_4 Re1_1 2.486353 1_654
P2_4 P3_7 2.822770 1_554
P2_4 P3_1 2.822771 1_654
P2_5 Tc0_1 2.405743 1_655
P2_5 Tc0_7 2.405744 1_555
P2_5 Re0_5 2.422006 1_555
P2_5 Re1_6 2.486353 1_555
P2_5 Re1_0 2.486353 1_655
P2_5 P3_6 2.822770 1_555
P2_5 P3_0 2.822771 1_655
P2_6 Tc0_2 2.405743 1_655
P2_6 Tc0_4 2.405744 1_565
P2_6 Re0_6 2.422006 1_555
P2_6 Re1_5 2.486353 1_564
P2_6 Re1_3 2.486353 1_654
P2_6 P3_5 2.822770 1_564
P2_6 P3_3 2.822771 1_654
P2_7 Tc0_3 2.405743 1_655
P2_7 Tc0_5 2.405744 1_565
P2_7 Re0_7 2.422006 1_555
P2_7 Re1_4 2.486353 1_565
P2_7 Re1_2 2.486353 1_655
P2_7 P3_4 2.822770 1_565
P2_7 P3_2 2.822771 1_655
P3_0 Tc0_3 2.405743 1_555
P3_0 Tc0_5 2.405744 1_555
P3_0 Re1_0 2.422006 1_555
P3_0 Re0_3 2.486353 1_545
P3_0 Re0_5 2.486353 1_455
P3_0 P3_6 3.036280 1_455
P3_0 P3_6 3.036280 1_545
P3_1 Tc0_2 2.405743 1_556
P3_1 Tc0_4 2.405744 1_556
P3_1 Re1_1 2.422006 1_555
P3_1 Re0_2 2.486353 1_546
P3_1 Re0_4 2.486353 1_456
P3_1 P3_7 3.036280 1_455
P3_1 P3_7 3.036280 1_545
P3_2 Tc0_1 2.405743 1_565
P3_2 Tc0_7 2.405744 1_555
P3_2 Re1_2 2.422006 1_555
P3_2 Re0_1 2.486353 1_555
P3_2 Re0_7 2.486353 1_455
P3_2 P3_4 3.036280 1_465
P3_2 P3_4 3.036280 1_555
P3_3 Tc0_0 2.405743 1_566
P3_3 Tc0_6 2.405744 1_556
P3_3 Re1_3 2.422006 1_555
P3_3 Re0_0 2.486353 1_556
P3_3 Re0_6 2.486353 1_456
P3_3 P3_5 3.036280 1_555
P3_3 P3_5 3.036280 1_465
P3_4 Tc0_7 2.405743 1_555
P3_4 Tc0_1 2.405744 1_655
P3_4 Re1_4 2.422006 1_555
P3_4 Re0_7 2.486353 1_545
P3_4 Re0_1 2.486353 1_555
P3_5 Tc0_6 2.405743 1_556
P3_5 Tc0_0 2.405744 1_656
P3_5 Re1_5 2.422006 1_555
P3_5 Re0_6 2.486353 1_546
P3_5 Re0_0 2.486353 1_556
P3_6 Tc0_5 2.405743 1_565
P3_6 Tc0_3 2.405744 1_655
P3_6 Re1_6 2.422006 1_555
P3_6 Re0_5 2.486353 1_555
P3_6 Re0_3 2.486353 1_555
P3_7 Tc0_4 2.405743 1_566
P3_7 Tc0_2 2.405744 1_656
P3_7 Re1_7 2.422006 1_555
P3_7 Re0_4 2.486353 1_556
P3_7 Re0_2 2.486353 1_556
