# generated using pymatgen
data_Ca10Si5AsF
_symmetry_space_group_name_H-M   'P 1'
_cell_length_a   9.05247448
_cell_length_b   9.05247403
_cell_length_c   9.05247454
_cell_angle_alpha   129.81120142
_cell_angle_beta   130.14620794
_cell_angle_gamma   73.44113724
_symmetry_Int_Tables_number   1
_chemical_formula_structural   Ca10Si5AsF
_chemical_formula_sum   'Ca10 Si5 As1 F1'
_cell_volume   425.14385528
_cell_formula_units_Z   1
loop_
 _symmetry_equiv_pos_site_id
 _symmetry_equiv_pos_as_xyz
  1  'x, y, z'
loop_
 _atom_site_type_symbol
 _atom_site_label
 _atom_site_symmetry_multiplicity
 _atom_site_fract_x
 _atom_site_fract_y
 _atom_site_fract_z
 _atom_site_occupancy
  Ca  Ca0  1  0.76914724  0.43500124  0.99636705  1
  Ca  Ca1  1  0.43863420  0.77278119  0.00363295  1
  Ca  Ca2  1  0.93139665  0.93292025  0.64056889  1
  Ca  Ca3  1  0.29235036  0.29082676  0.35943111  1
  Ca  Ca4  1  0.70764964  0.06707975  0.99847640  1
  Ca  Ca5  1  0.06860335  0.70917324  0.00152360  1
  Ca  Ca6  1  0.56136580  0.56499876  0.33414599  1
  Ca  Ca7  1  0.23085176  0.22721881  0.66585401  1
  Ca  Ca8  1  0.25267337  0.75267337  0.50000000  1
  Ca  Ca9  1  0.74732663  0.24732663  0.50000000  1
  Si  Si0  1  0.50000000  0.00000000  0.50000000  1
  Si  Si1  1  0.13274428  0.36028569  0.99965465  1
  Si  Si2  1  0.36063104  0.13309063  0.00034535  1
  Si  Si3  1  0.86725572  0.86690937  0.22754041  1
  Si  Si4  1  0.63936896  0.63971431  0.77245959  1
  As  As0  1  0.00000000  0.50000000  0.50000000  1
  F  F0  1  0.50000000  0.50000000  0.00000000  1
loop_
_geom_bond_atom_site_label_1
_geom_bond_atom_site_label_2
_geom_bond_distance
_geom_bond_site_symmetry_2
Ca0 F0 2.354775 1_556
Ca0 Si4 3.069386 1_555
Ca0 Si3 3.091977 1_556
Ca0 Si1 3.150005 1_655
Ca0 Si0 3.213596 1_555
Ca0 Ca9 3.519522 1_555
Ca0 Ca4 3.543332 1_555
Ca0 Ca8 3.587207 1_656
Ca1 F0 2.354784 1_555
Ca1 Si3 3.069393 1_555
Ca1 Si4 3.091973 1_554
Ca1 Si2 3.150005 1_565
Ca1 Si0 3.213598 1_565
Ca1 Ca9 3.519516 1_565
Ca1 Ca5 3.543336 1_555
Ca1 Ca8 3.587201 1_554
Ca2 Si2 3.021042 1_666
Ca2 Si1 3.021848 1_665
Ca2 Si3 3.034995 1_555
Ca2 Si0 3.235507 1_565
Ca2 Ca9 3.420040 1_565
Ca2 Ca8 3.485488 1_655
Ca2 Ca6 3.543336 1_555
Ca2 Ca3 3.890839 1_666
Ca2 Ca4 4.253944 1_565
Ca2 Ca5 4.257877 1_656
Ca3 Si1 3.021049 1_554
Ca3 Si2 3.021860 1_555
Ca3 Si4 3.035000 1_555
Ca3 Si0 3.235500 1_555
Ca3 Ca9 3.420048 1_555
Ca3 Ca8 3.485497 1_555
Ca3 Ca7 3.543336 1_555
Ca3 Ca5 4.253933 1_545
Ca3 Ca4 4.257866 1_454
Ca4 Si3 3.021042 1_546
Ca4 Si4 3.021852 1_545
Ca4 Si2 3.034999 1_556
Ca4 Si0 3.235505 1_555
Ca4 Ca8 3.420045 1_545
Ca4 Ca9 3.485494 1_556
Ca4 Ca5 3.890828 1_646
Ca5 Si4 3.021043 1_454
Ca5 Si3 3.021844 1_455
Ca5 Si1 3.034999 1_554
Ca5 Si0 3.235505 1_565
Ca5 Ca8 3.420045 1_555
Ca5 Ca9 3.485494 1_454
Ca6 F0 2.354775 1_555
Ca6 Si1 3.069394 1_554
Ca6 Si2 3.091975 1_555
Ca6 Si4 3.150014 1_555
Ca6 Si0 3.213596 1_565
Ca6 Ca8 3.519522 1_555
Ca6 Ca9 3.587207 1_555
Ca7 F0 2.354784 1_556
Ca7 Si2 3.069376 1_556
Ca7 Si1 3.091973 1_555
Ca7 Si3 3.150000 1_445
Ca7 Si0 3.213603 1_555
Ca7 Ca8 3.519513 1_545
Ca7 Ca9 3.587198 1_455
Ca8 Si3 3.072259 1_455
Ca8 Si4 3.072263 1_555
Ca8 Si1 3.092979 1_554
Ca8 Si2 3.092981 1_566
Ca8 Si0 3.589259 1_565
Ca9 Si1 3.072261 1_655
Ca9 Si2 3.072264 1_555
Ca9 Si4 3.092981 1_555
Ca9 Si3 3.092986 1_545
Ca9 Si0 3.589259 1_555
Si1 Si2 2.463151 1_556
Si3 Si4 2.463146 1_554
As0 Ca6 3.237154 1_455
As0 Ca0 3.237154 1_454
As0 Ca1 3.237156 1_556
As0 Ca7 3.237161 1_555
As0 Ca3 3.257198 1_555
As0 Ca4 3.257203 1_454
As0 Ca5 3.257203 1_556
As0 Ca2 3.257205 1_455
As0 Ca8 3.666852 1_555
As0 Ca9 3.666852 1_455
