# generated using pymatgen
data_SrSn6PdRu3
_symmetry_space_group_name_H-M   'P 1'
_cell_length_a   6.98112886
_cell_length_b   6.98112932
_cell_length_c   6.95142927
_cell_angle_alpha   119.68686402
_cell_angle_beta   119.68687225
_cell_angle_gamma   90.73134337
_symmetry_Int_Tables_number   1
_chemical_formula_structural   SrSn6PdRu3
_chemical_formula_sum   'Sr1 Sn6 Pd1 Ru3'
_cell_volume   240.27820310
_cell_formula_units_Z   1
loop_
 _symmetry_equiv_pos_site_id
 _symmetry_equiv_pos_as_xyz
  1  'x, y, z'
loop_
 _atom_site_type_symbol
 _atom_site_label
 _atom_site_symmetry_multiplicity
 _atom_site_fract_x
 _atom_site_fract_y
 _atom_site_fract_z
 _atom_site_occupancy
  Sr  Sr0  1  0.99952865  0.99952865  0.00770971  1
  Sn  Sn0  1  0.98571559  0.50353555  0.50306479  1
  Sn  Sn1  1  0.47446156  0.47446156  0.34461398  1
  Sn  Sn2  1  0.52533433  0.89399806  0.01215101  1
  Sn  Sn3  1  0.89399806  0.52533433  0.01215101  1
  Sn  Sn4  1  0.11723529  0.11723529  0.65270127  1
  Sn  Sn5  1  0.50353555  0.98571559  0.50306479  1
  Pd  Pd0  1  0.41531637  0.41531637  0.65649424  1
  Ru  Ru0  1  0.74974552  0.74974552  0.32847688  1
  Ru  Ru1  1  0.25001216  0.58511991  0.98978515  1
  Ru  Ru2  1  0.58511991  0.25001216  0.98978515  1
loop_
_geom_bond_atom_site_label_1
_geom_bond_atom_site_label_2
_geom_bond_distance
_geom_bond_site_symmetry_2
Sn0 Sn1 3.139934 1_555
Sn0 Sn3 3.229740 1_555
Sn0 Sn4 3.330706 1_655
Sn0 Sn2 3.335137 1_656
Sn0 Sr0 3.453942 1_556
Sn0 Sr0 3.547280 1_545
Sn1 Sn5 3.139934 1_555
Sn1 Sr0 3.436204 1_445
Sn1 Sr0 3.782151 1_556
Sn2 Sn5 3.229740 1_555
Sn2 Sr0 3.400595 1_555
Sn2 Sr0 3.741282 1_455
Sn3 Sn5 3.335137 1_544
Sn3 Sr0 3.400595 1_555
Sn3 Sr0 3.741282 1_545
Sn4 Sn5 3.330706 1_545
Sn4 Sr0 3.382399 1_446
Sn4 Sr0 3.759957 1_445
Sn5 Sr0 3.453941 1_556
Sn5 Sr0 3.547280 1_455
Pd0 Sn1 2.609651 1_555
Pd0 Sn3 2.782011 1_556
Pd0 Sn2 2.782011 1_556
Pd0 Sn0 2.835636 1_455
Pd0 Sn5 2.835636 1_545
Pd0 Ru2 2.840349 1_555
Pd0 Ru1 2.840350 1_555
Pd0 Sn4 2.905529 1_555
Pd0 Sr0 3.322962 1_445
Ru0 Sn4 2.573036 1_665
Ru0 Sn2 2.669303 1_555
Ru0 Sn3 2.669303 1_555
Ru0 Sn0 2.701704 1_555
Ru0 Sn5 2.701704 1_555
Ru0 Sn1 2.780638 1_555
Ru0 Ru1 2.848964 1_554
Ru0 Ru2 2.848965 1_554
Ru0 Sr0 3.462216 1_556
Ru1 Sn3 2.606920 1_456
Ru1 Sn0 2.656517 1_455
Ru1 Sn4 2.684970 1_555
Ru1 Sn1 2.688124 1_556
Ru1 Sn5 2.723799 1_556
Ru1 Sn2 2.763027 1_556
Ru1 Sr0 3.380964 1_456
Ru2 Sn2 2.606920 1_546
Ru2 Sn5 2.656517 1_545
Ru2 Sn4 2.684969 1_555
Ru2 Sn1 2.688124 1_556
Ru2 Sn0 2.723799 1_556
Ru2 Sn3 2.763027 1_556
Ru2 Sr0 3.380964 1_546
