# generated using pymatgen
data_CaMg2(H6Ir)2
_symmetry_space_group_name_H-M   'P 1'
_cell_length_a   4.65944220
_cell_length_b   4.65944351
_cell_length_c   7.82947044
_cell_angle_alpha   90.00000000
_cell_angle_beta   90.00000000
_cell_angle_gamma   119.99999768
_symmetry_Int_Tables_number   1
_chemical_formula_structural   CaMg2(H6Ir)2
_chemical_formula_sum   'Ca1 Mg2 H12 Ir2'
_cell_volume   147.20786398
_cell_formula_units_Z   1
loop_
 _symmetry_equiv_pos_site_id
 _symmetry_equiv_pos_as_xyz
  1  'x, y, z'
loop_
 _atom_site_type_symbol
 _atom_site_label
 _atom_site_symmetry_multiplicity
 _atom_site_fract_x
 _atom_site_fract_y
 _atom_site_fract_z
 _atom_site_occupancy
  Ca  Ca0  1  0.00000000  0.00000000  0.00000000  1
  Mg  Mg0  1  0.66666700  0.33333300  0.36771630  1
  Mg  Mg1  1  0.33333300  0.66666700  0.63228370  1
  H  H0  1  0.16274405  0.83725595  0.38035095  1
  H  H1  1  0.67451190  0.83725595  0.38035095  1
  H  H2  1  0.16274405  0.32548810  0.38035095  1
  H  H3  1  0.83725595  0.16274405  0.61964905  1
  H  H4  1  0.32548810  0.16274405  0.61964905  1
  H  H5  1  0.83725595  0.67451190  0.61964905  1
  H  H6  1  0.50153315  0.00306631  0.86151523  1
  H  H7  1  0.50153315  0.49846685  0.86151523  1
  H  H8  1  0.99693369  0.49846685  0.86151523  1
  H  H9  1  0.49846685  0.99693369  0.13848477  1
  H  H10  1  0.49846685  0.50153315  0.13848477  1
  H  H11  1  0.00306631  0.50153315  0.13848477  1
  Ir  Ir0  1  0.66666700  0.33333300  0.73461272  1
  Ir  Ir1  1  0.33333300  0.66666700  0.26538728  1
loop_
_geom_bond_atom_site_label_1
_geom_bond_atom_site_label_2
_geom_bond_distance
_geom_bond_site_symmetry_2
Ca0 H9 2.569704 1_445
Ca0 H6 2.569704 1_554
Ca0 H9 2.569704 1_545
Ca0 H6 2.569704 1_454
Ca0 H7 2.569704 1_554
Ca0 H10 2.569704 1_445
Ca0 H10 2.569704 1_555
Ca0 H7 2.569704 1_444
Ca0 H8 2.569705 1_454
Ca0 H11 2.569705 1_545
Ca0 H11 2.569705 1_555
Ca0 H8 2.569705 1_444
H0 Ir1 1.644854 1_555
H0 H1 2.274889 1_455
H0 H2 2.274890 1_565
H0 H5 2.288085 1_455
H0 H4 2.288085 1_565
H0 H9 2.328674 1_555
H0 H11 2.328675 1_555
H0 Mg0 2.332036 1_565
H0 Mg0 2.332036 1_455
H0 Mg1 2.405434 1_555
H1 Ir1 1.644857 1_555
H1 H2 2.274890 1_665
H1 H5 2.288085 1_555
H1 H3 2.288085 1_565
H1 H9 2.328675 1_555
H1 H10 2.328675 1_555
H1 Mg0 2.332034 1_565
H1 Mg0 2.332038 1_555
H1 Mg1 2.405436 1_555
H2 Ir1 1.644858 1_555
H2 H3 2.288085 1_455
H2 H4 2.288085 1_555
H2 Mg0 2.332033 1_455
H2 Mg0 2.332038 1_555
H2 Mg1 2.405437 1_555
H3 Ir0 1.644854 1_555
H3 H4 2.274889 1_655
H3 H5 2.274890 1_545
H3 H6 2.328674 1_555
H3 H8 2.328675 1_555
H3 Mg1 2.332036 1_545
H3 Mg1 2.332036 1_655
H3 Mg0 2.405434 1_555
H4 Ir0 1.644857 1_555
H4 H5 2.274890 1_445
H4 H6 2.328675 1_555
H4 H7 2.328675 1_555
H4 Mg1 2.332034 1_545
H4 Mg1 2.332038 1_555
H4 Mg0 2.405436 1_555
H5 Ir0 1.644858 1_555
H5 H7 2.328674 1_555
H5 H8 2.328675 1_555
H5 Mg1 2.332033 1_655
H5 Mg1 2.332038 1_555
H5 Mg0 2.405437 1_555
H6 Ir0 1.662307 1_555
H6 H9 2.168666 1_546
H6 Mg1 2.250290 1_545
H6 H8 2.308291 1_555
H6 H7 2.308291 1_555
H7 Ir0 1.662310 1_555
H7 Mg1 2.250292 1_555
H7 H8 2.308290 1_555
H8 Ir0 1.662307 1_555
H8 Mg1 2.250290 1_655
H9 Ir1 1.662307 1_555
H9 Mg0 2.250290 1_565
H10 Ir1 1.662310 1_555
H10 H7 2.168666 1_554
H10 Mg0 2.250292 1_555
H10 H11 2.308290 1_555
H10 H9 2.308291 1_555
H10 H2 2.328674 1_555
H11 Ir1 1.662307 1_555
H11 H8 2.168666 1_454
H11 Mg0 2.250290 1_455
H11 H9 2.308291 1_555
H11 H2 2.328675 1_555
