# generated using pymatgen
data_Hf6Al8Co7Si8
_symmetry_space_group_name_H-M   'P 1'
_cell_length_a   8.21805734
_cell_length_b   8.21805676
_cell_length_c   8.21805565
_cell_angle_alpha   59.99999266
_cell_angle_beta   59.99999498
_cell_angle_gamma   59.99999433
_symmetry_Int_Tables_number   1
_chemical_formula_structural   Hf6Al8Co7Si8
_chemical_formula_sum   'Hf6 Al8 Co7 Si8'
_cell_volume   392.45722143
_cell_formula_units_Z   1
loop_
 _symmetry_equiv_pos_site_id
 _symmetry_equiv_pos_as_xyz
  1  'x, y, z'
loop_
 _atom_site_type_symbol
 _atom_site_label
 _atom_site_symmetry_multiplicity
 _atom_site_fract_x
 _atom_site_fract_y
 _atom_site_fract_z
 _atom_site_occupancy
  Hf  Hf0  1  0.69359475  0.30640425  0.30640425  1
  Hf  Hf1  1  0.30640425  0.69359475  0.69359475  1
  Hf  Hf2  1  0.30640425  0.69359475  0.30640425  1
  Hf  Hf3  1  0.30640425  0.30640425  0.69359475  1
  Hf  Hf4  1  0.69359475  0.30640425  0.69359475  1
  Hf  Hf5  1  0.69359475  0.69359475  0.30640425  1
  Al  Al0  1  0.11937644  0.11937644  0.11937644  1
  Al  Al1  1  0.11937644  0.11937644  0.64187068  1
  Al  Al2  1  0.64187068  0.11937644  0.11937644  1
  Al  Al3  1  0.11937644  0.64187068  0.11937644  1
  Al  Al4  1  0.88062256  0.88062256  0.88062256  1
  Al  Al5  1  0.88062256  0.88062256  0.35813232  1
  Al  Al6  1  0.88062256  0.35813232  0.88062256  1
  Al  Al7  1  0.35813232  0.88062256  0.88062256  1
  Co  Co0  1  0.00000000  0.00000000  0.00000000  1
  Co  Co1  1  0.50000000  0.00000000  0.00000000  1
  Co  Co2  1  0.00000000  0.50000000  0.50000000  1
  Co  Co3  1  0.00000000  0.50000000  0.00000000  1
  Co  Co4  1  0.00000000  0.00000000  0.50000000  1
  Co  Co5  1  0.50000000  0.00000000  0.50000000  1
  Co  Co6  1  0.50000000  0.50000000  0.00000000  1
  Si  Si0  1  0.33737163  0.33737163  0.33737163  1
  Si  Si1  1  0.33737163  0.33737163  0.98788310  1
  Si  Si2  1  0.98788310  0.33737163  0.33737163  1
  Si  Si3  1  0.33737163  0.98788310  0.33737163  1
  Si  Si4  1  0.66262837  0.66262837  0.66262837  1
  Si  Si5  1  0.66262837  0.66262837  0.01211690  1
  Si  Si6  1  0.66262837  0.01211690  0.66262837  1
  Si  Si7  1  0.01211690  0.66262837  0.66262837  1
loop_
_geom_bond_atom_site_label_1
_geom_bond_atom_site_label_2
_geom_bond_distance
_geom_bond_site_symmetry_2
Hf0 Si0 2.697091 1_555
Hf0 Si2 2.697091 1_555
Hf0 Si6 2.697092 1_555
Hf0 Si5 2.697092 1_555
Hf0 Hf4 3.181953 1_555
Hf0 Hf3 3.181953 1_555
Hf0 Hf2 3.181953 1_555
Hf0 Hf5 3.181953 1_555
Hf1 Si7 2.697074 1_555
Hf1 Si3 2.697091 1_555
Hf1 Si1 2.697091 1_555
Hf1 Si4 2.697106 1_555
Hf1 Hf2 3.181953 1_555
Hf1 Hf5 3.181953 1_555
Hf1 Hf4 3.181953 1_555
Hf1 Hf3 3.181953 1_555
Hf2 Si0 2.697091 1_555
Hf2 Si3 2.697091 1_555
Hf2 Si7 2.697092 1_555
Hf2 Si5 2.697093 1_555
Hf2 Hf3 3.181953 1_555
Hf2 Hf5 3.181954 1_555
Hf3 Si0 2.697091 1_555
Hf3 Si1 2.697091 1_555
Hf3 Si7 2.697093 1_555
Hf3 Si6 2.697093 1_555
Hf3 Hf4 3.181954 1_555
Hf4 Si6 2.697073 1_555
Hf4 Si2 2.697091 1_555
Hf4 Si1 2.697091 1_555
Hf4 Si4 2.697106 1_555
Hf4 Hf5 3.181953 1_555
Hf5 Si5 2.697073 1_555
Hf5 Si2 2.697091 1_555
Hf5 Si3 2.697091 1_555
Hf5 Si4 2.697106 1_555
Al0 Co0 2.403053 1_555
Al0 Co4 2.556218 1_555
Al0 Co3 2.556219 1_555
Al0 Co1 2.556219 1_555
Al0 Si2 2.631400 1_455
Al0 Si3 2.631400 1_545
Al0 Si1 2.631401 1_554
Al0 Al6 2.774818 1_454
Al0 Al7 2.774818 1_544
Al0 Al5 2.774818 1_445
Al0 Hf3 2.928238 1_554
Al0 Hf2 2.928238 1_545
Al0 Hf0 2.928238 1_455
Al1 Co0 2.403053 1_556
Al1 Co2 2.556219 1_555
Al1 Co5 2.556219 1_555
Al1 Co4 2.556219 1_555
Al1 Si0 2.631405 1_555
Al1 Si2 2.631413 1_455
Al1 Si3 2.631414 1_545
Al1 Al6 2.774818 1_455
Al1 Al7 2.774818 1_545
Al1 Al4 2.774818 1_445
Al1 Hf3 2.928227 1_555
Al1 Hf1 2.928241 1_545
Al1 Hf4 2.928241 1_455
Al2 Co0 2.403053 1_655
Al2 Co5 2.556218 1_555
Al2 Co6 2.556219 1_555
Al2 Co1 2.556219 1_555
Al2 Si0 2.631405 1_555
Al2 Si1 2.631414 1_554
Al2 Si3 2.631414 1_545
Al2 Al5 2.774818 1_545
Al2 Al4 2.774818 1_544
Al2 Al6 2.774818 1_554
Al2 Hf0 2.928227 1_555
Al2 Hf4 2.928241 1_554
Al2 Hf5 2.928241 1_545
Al3 Co0 2.403053 1_565
Al3 Co2 2.556218 1_555
Al3 Co6 2.556219 1_555
Al3 Co3 2.556219 1_555
Al3 Si0 2.631405 1_555
Al3 Si1 2.631414 1_554
Al3 Si2 2.631414 1_455
Al3 Al5 2.774818 1_455
Al3 Al4 2.774818 1_454
Al3 Al7 2.774818 1_554
Al3 Hf2 2.928227 1_555
Al3 Hf1 2.928241 1_554
Al3 Hf5 2.928241 1_455
Al4 Co0 2.403073 1_666
Al4 Co4 2.556211 1_665
Al4 Co3 2.556211 1_656
Al4 Co1 2.556211 1_566
Al4 Si7 2.631385 1_655
Al4 Si6 2.631385 1_565
Al4 Si5 2.631385 1_556
Al4 Hf5 2.928238 1_556
Al4 Hf4 2.928238 1_565
Al4 Hf1 2.928238 1_655
Al5 Co0 2.403073 1_665
Al5 Co2 2.556211 1_655
Al5 Co5 2.556211 1_565
Al5 Co4 2.556211 1_665
Al5 Si4 2.631389 1_555
Al5 Si7 2.631398 1_655
Al5 Si6 2.631398 1_565
Al5 Hf0 2.928235 1_565
Al5 Hf2 2.928235 1_655
Al5 Hf5 2.928249 1_555
Al6 Co0 2.403073 1_656
Al6 Co2 2.556211 1_655
Al6 Co6 2.556211 1_556
Al6 Co3 2.556212 1_656
Al6 Si4 2.631389 1_555
Al6 Si5 2.631398 1_556
Al6 Si7 2.631398 1_655
Al6 Hf0 2.928234 1_556
Al6 Hf3 2.928235 1_655
Al6 Hf4 2.928249 1_555
Al7 Co0 2.403073 1_566
Al7 Co5 2.556211 1_565
Al7 Co6 2.556211 1_556
Al7 Co1 2.556212 1_566
Al7 Si4 2.631389 1_555
Al7 Si5 2.631398 1_556
Al7 Si6 2.631398 1_565
Al7 Hf2 2.928234 1_556
Al7 Hf3 2.928235 1_565
Al7 Hf1 2.928249 1_555
Co1 Si3 2.373736 1_545
Co1 Si6 2.373736 1_554
Co1 Si1 2.373737 1_554
Co1 Si5 2.373737 1_545
Co1 Hf5 2.978550 1_545
Co1 Hf4 2.978551 1_554
Co1 Hf3 2.978559 1_554
Co1 Hf2 2.978559 1_545
Co2 Si0 2.373741 1_555
Co2 Si4 2.373741 1_455
Co2 Si7 2.373751 1_555
Co2 Si2 2.373751 1_455
Co2 Hf3 2.978548 1_555
Co2 Hf2 2.978548 1_555
Co2 Hf5 2.978562 1_455
Co2 Hf4 2.978562 1_455
Co3 Si2 2.373736 1_455
Co3 Si7 2.373736 1_554
Co3 Si1 2.373737 1_554
Co3 Si5 2.373737 1_455
Co3 Hf5 2.978550 1_455
Co3 Hf1 2.978551 1_554
Co3 Hf3 2.978559 1_554
Co3 Hf0 2.978559 1_455
Co4 Si2 2.373737 1_455
Co4 Si7 2.373737 1_545
Co4 Si3 2.373737 1_545
Co4 Si6 2.373737 1_455
Co4 Hf1 2.978551 1_545
Co4 Hf4 2.978551 1_455
Co4 Hf2 2.978559 1_545
Co4 Hf0 2.978559 1_455
Co5 Si0 2.373741 1_555
Co5 Si4 2.373741 1_545
Co5 Si6 2.373751 1_555
Co5 Si3 2.373751 1_545
Co5 Hf3 2.978548 1_555
Co5 Hf0 2.978548 1_555
Co5 Hf5 2.978562 1_545
Co5 Hf1 2.978562 1_545
Co6 Si0 2.373741 1_555
Co6 Si4 2.373741 1_554
Co6 Si5 2.373751 1_555
Co6 Si1 2.373751 1_554
Co6 Hf0 2.978548 1_555
Co6 Hf2 2.978548 1_555
Co6 Hf4 2.978562 1_554
Co6 Hf1 2.978562 1_554
Si0 Si1 2.872116 1_554
Si0 Si3 2.872117 1_545
Si0 Si2 2.872117 1_455
Si1 Si3 2.872116 1_546
Si1 Si2 2.872116 1_456
Si2 Si3 2.872116 1_645
Si4 Si5 2.872116 1_556
Si4 Si6 2.872117 1_565
Si4 Si7 2.872117 1_655
Si5 Si6 2.872116 1_564
Si5 Si7 2.872116 1_654
Si6 Si7 2.872116 1_645
