# generated using pymatgen
data_CaC2S2(OF)6
_symmetry_space_group_name_H-M   'P 1'
_cell_length_a   10.98824649
_cell_length_b   10.98824649
_cell_length_c   10.98824722
_cell_angle_alpha   30.42696139
_cell_angle_beta   30.42696139
_cell_angle_gamma   30.42695989
_symmetry_Int_Tables_number   1
_chemical_formula_structural   CaC2S2(OF)6
_chemical_formula_sum   'Ca1 C2 S2 O6 F6'
_cell_volume   301.60880324
_cell_formula_units_Z   1
loop_
 _symmetry_equiv_pos_site_id
 _symmetry_equiv_pos_as_xyz
  1  'x, y, z'
loop_
 _atom_site_type_symbol
 _atom_site_label
 _atom_site_symmetry_multiplicity
 _atom_site_fract_x
 _atom_site_fract_y
 _atom_site_fract_z
 _atom_site_occupancy
  Ca  Ca0  1  0.00000000  0.00000000  0.00000000  1
  C  C0  1  0.78010500  0.78010500  0.78010500  1
  C  C1  1  0.21989500  0.21989500  0.21989500  1
  S  S0  1  0.72051500  0.72051500  0.72051500  1
  S  S1  1  0.27948500  0.27948500  0.27948500  1
  O  O0  1  0.14716100  0.57408700  0.15137700  1
  O  O1  1  0.15137700  0.14716100  0.57408700  1
  O  O2  1  0.57408700  0.15137700  0.14716100  1
  O  O3  1  0.42591300  0.84862300  0.85283900  1
  O  O4  1  0.84862300  0.85283900  0.42591300  1
  O  O5  1  0.85283900  0.42591300  0.84862300  1
  F  F0  1  0.04364100  0.62541900  0.71488400  1
  F  F1  1  0.62541900  0.71488400  0.04364100  1
  F  F2  1  0.71488400  0.04364100  0.62541900  1
  F  F3  1  0.28511600  0.95635900  0.37458100  1
  F  F4  1  0.37458100  0.28511600  0.95635900  1
  F  F5  1  0.95635900  0.37458100  0.28511600  1
loop_
_geom_bond_atom_site_label_1
_geom_bond_atom_site_label_2
_geom_bond_distance
_geom_bond_site_symmetry_2
Ca0 O3 2.333857 1_544
Ca0 O2 2.333857 1_455
Ca0 O5 2.333857 1_454
Ca0 O0 2.333857 1_545
Ca0 O4 2.333857 1_445
Ca0 O1 2.333857 1_554
C0 F0 1.349711 1_655
C0 F2 1.349711 1_565
C0 F1 1.349711 1_556
C0 S0 1.872017 1_555
C1 F5 1.349711 1_455
C1 F3 1.349711 1_545
C1 F4 1.349711 1_554
C1 S1 1.872017 1_555
O0 S1 1.459069 1_555
O1 S1 1.459070 1_555
O2 S1 1.459069 1_555
O3 S0 1.459069 1_555
O4 S0 1.459070 1_555
O5 S0 1.459069 1_555
