# generated using pymatgen
data_V3PH
_symmetry_space_group_name_H-M   'P 1'
_cell_length_a   4.70014781
_cell_length_b   4.70014709
_cell_length_c   7.53581358
_cell_angle_alpha   90.00000000
_cell_angle_beta   90.00000000
_cell_angle_gamma   140.91989684
_symmetry_Int_Tables_number   1
_chemical_formula_structural   V3PH
_chemical_formula_sum   'V6 P2 H2'
_cell_volume   104.94787262
_cell_formula_units_Z   2
loop_
 _symmetry_equiv_pos_site_id
 _symmetry_equiv_pos_as_xyz
  1  'x, y, z'
loop_
 _atom_site_type_symbol
 _atom_site_label
 _atom_site_symmetry_multiplicity
 _atom_site_fract_x
 _atom_site_fract_y
 _atom_site_fract_z
 _atom_site_occupancy
  V  V0  1  0.94641445  0.05358555  0.25000000  1
  V  V1  1  0.05358555  0.94641445  0.75000000  1
  V  V2  1  0.64067856  0.35932144  0.44847205  1
  V  V3  1  0.35932144  0.64067856  0.55152795  1
  V  V4  1  0.64067856  0.35932144  0.05152795  1
  V  V5  1  0.35932144  0.64067856  0.94847205  1
  P  P0  1  0.24180786  0.75819214  0.25000000  1
  P  P1  1  0.75819214  0.24180786  0.75000000  1
  H  H0  1  0.00000000  0.00000000  0.50000000  1
  H  H1  1  0.00000000  0.00000000  0.00000000  1
loop_
_geom_bond_atom_site_label_1
_geom_bond_atom_site_label_2
_geom_bond_distance
_geom_bond_site_symmetry_2
V2 V3 2.612691 1_545
V2 V3 2.612692 1_655
V4 V5 2.612691 1_544
V4 V5 2.612692 1_654
P0 V2 2.347530 1_565
P0 V4 2.347530 1_565
P0 V2 2.347530 1_455
P0 V4 2.347530 1_455
P0 V0 2.399332 1_455
P0 V0 2.399332 1_565
P0 V3 2.499386 1_555
P0 V5 2.499386 1_554
P0 V0 2.616864 1_465
P1 V5 2.347530 1_545
P1 V3 2.347530 1_545
P1 V5 2.347530 1_655
P1 V3 2.347530 1_655
P1 V1 2.399332 1_655
P1 V1 2.399332 1_545
P1 V4 2.499386 1_556
P1 V2 2.499386 1_555
P1 V1 2.616864 1_645
H0 V1 1.942841 1_545
H0 V0 1.942841 1_455
H0 V3 2.043342 1_555
H0 V2 2.043342 1_445
H0 V2 2.043342 1_555
H0 V3 2.043342 1_445
H1 V1 1.942841 1_544
H1 V0 1.942841 1_455
H1 V5 2.043342 1_554
H1 V4 2.043342 1_445
H1 V4 2.043342 1_555
H1 V5 2.043342 1_444
