# generated using pymatgen
data_RbAl5(CdSe3)4
_symmetry_space_group_name_H-M   'P 1'
_cell_length_a   8.91203717
_cell_length_b   8.97098245
_cell_length_c   9.21800353
_cell_angle_alpha   108.49870936
_cell_angle_beta   106.57245776
_cell_angle_gamma   108.05057439
_symmetry_Int_Tables_number   1
_chemical_formula_structural   RbAl5(CdSe3)4
_chemical_formula_sum   'Rb1 Al5 Cd4 Se12'
_cell_volume   601.38523007
_cell_formula_units_Z   1
loop_
 _symmetry_equiv_pos_site_id
 _symmetry_equiv_pos_as_xyz
  1  'x, y, z'
loop_
 _atom_site_type_symbol
 _atom_site_label
 _atom_site_symmetry_multiplicity
 _atom_site_fract_x
 _atom_site_fract_y
 _atom_site_fract_z
 _atom_site_occupancy
  Rb  Rb0  1  0.99826430  0.00316185  0.00113036  1
  Al  Al0  1  0.18638304  0.55200786  0.02686424  1
  Al  Al1  1  0.02252518  0.18386002  0.55372339  1
  Al  Al2  1  0.56070555  0.02275488  0.19198564  1
  Al  Al3  1  0.93629202  0.47104439  0.33244949  1
  Al  Al4  1  0.32037908  0.93091158  0.46982082  1
  Cd  Cd0  1  0.49091008  0.33939178  0.93290455  1
  Cd  Cd1  1  0.62472893  0.70668877  0.40261136  1
  Cd  Cd2  1  0.40655785  0.64394867  0.71820465  1
  Cd  Cd3  1  0.71503418  0.40283602  0.63423099  1
  Se  Se0  1  0.87764139  0.63424497  0.54525059  1
  Se  Se1  1  0.54551898  0.88878119  0.63247052  1
  Se  Se2  1  0.66173797  0.58879472  0.87597192  1
  Se  Se3  1  0.35336856  0.42920750  0.14644439  1
  Se  Se4  1  0.14421863  0.37041226  0.44063112  1
  Se  Se5  1  0.43039423  0.13676292  0.36585849  1
  Se  Se6  1  0.06978839  0.67313431  0.22510281  1
  Se  Se7  1  0.21151608  0.06449880  0.66052803  1
  Se  Se8  1  0.69873010  0.21680302  0.08761047  1
  Se  Se9  1  0.78065810  0.93965802  0.30411508  1
  Se  Se10  1  0.30081461  0.78316363  0.95327528  1
  Se  Se11  1  0.94503074  0.29913184  0.78001782  1
loop_
_geom_bond_atom_site_label_1
_geom_bond_atom_site_label_2
_geom_bond_distance
_geom_bond_site_symmetry_2
Rb0 Se2 3.541157 1_544
Rb0 Se3 3.640720 1_655
Rb0 Se5 3.842885 1_655
Rb0 Se10 3.844970 1_644
Rb0 Se4 3.850682 1_655
Rb0 Se8 3.853538 1_555
Rb0 Se11 3.884881 1_554
Rb0 Se9 3.911602 1_545
Rb0 Se0 4.020061 1_544
Rb0 Se1 4.034999 1_544
Rb0 Se7 4.198138 1_654
Rb0 Se6 4.210936 1_645
Al0 Se3 2.343952 1_555
Al0 Se10 2.403557 1_554
Al0 Se11 2.420531 1_454
Al0 Se6 2.474389 1_555
Al1 Se4 2.385593 1_555
Al1 Se9 2.405294 1_445
Al1 Se11 2.406916 1_455
Al1 Se7 2.406951 1_555
Al2 Se9 2.388567 1_545
Al2 Se5 2.391920 1_555
Al2 Se10 2.415080 1_544
Al2 Se8 2.424899 1_555
Al3 Se0 2.345487 1_555
Al3 Se8 2.406940 1_555
Al3 Se4 2.407709 1_655
Al3 Se6 2.480859 1_655
Al4 Se1 2.351610 1_555
Al4 Se7 2.413381 1_565
Al4 Se5 2.413898 1_565
Al4 Se6 2.457496 1_555
Cd0 Se2 2.586328 1_555
Cd0 Se3 2.647341 1_556
Cd0 Se7 2.699014 1_555
Cd0 Se8 2.724730 1_556
Cd1 Se3 2.627291 1_555
Cd1 Se0 2.644041 1_555
Cd1 Se1 2.650999 1_555
Cd1 Se9 2.692110 1_555
Cd2 Se2 2.607473 1_555
Cd2 Se1 2.637524 1_555
Cd2 Se4 2.661270 1_555
Cd2 Se10 2.705587 1_555
Cd3 Se2 2.590386 1_555
Cd3 Se0 2.641342 1_555
Cd3 Se5 2.678260 1_555
Cd3 Se11 2.697527 1_555
