# generated using pymatgen
data_Sb7Pd20
_symmetry_space_group_name_H-M   'P 1'
_cell_length_a   7.76769578
_cell_length_b   7.76769737
_cell_length_c   7.76769698
_cell_angle_alpha   99.17927947
_cell_angle_beta   99.17927442
_cell_angle_gamma   99.17927809
_symmetry_Int_Tables_number   1
_chemical_formula_structural   Sb7Pd20
_chemical_formula_sum   'Sb7 Pd20'
_cell_volume   448.45072747
_cell_formula_units_Z   1
loop_
 _symmetry_equiv_pos_site_id
 _symmetry_equiv_pos_as_xyz
  1  'x, y, z'
loop_
 _atom_site_type_symbol
 _atom_site_label
 _atom_site_symmetry_multiplicity
 _atom_site_fract_x
 _atom_site_fract_y
 _atom_site_fract_z
 _atom_site_occupancy
  Sb  Sb0  1  -0.00000000  -0.00000000  -0.00000000  1
  Sb  Sb1  1  0.87788200  0.45512950  0.72554093  1
  Sb  Sb2  1  0.72554093  0.87788200  0.45512950  1
  Sb  Sb3  1  0.45512950  0.72554093  0.87788200  1
  Sb  Sb4  1  0.12211800  0.54487050  0.27445907  1
  Sb  Sb5  1  0.27445907  0.12211800  0.54487050  1
  Sb  Sb6  1  0.54487050  0.27445907  0.12211800  1
  Pd  Pd0  1  0.37729420  0.37729420  0.37729420  1
  Pd  Pd1  1  0.62270580  0.62270580  0.62270580  1
  Pd  Pd2  1  0.34198886  0.00118647  0.22612331  1
  Pd  Pd3  1  0.22612331  0.34198886  0.00118647  1
  Pd  Pd4  1  0.00118647  0.22612331  0.34198886  1
  Pd  Pd5  1  0.65801114  -0.00118647  0.77387669  1
  Pd  Pd6  1  0.77387669  0.65801114  -0.00118647  1
  Pd  Pd7  1  -0.00118647  0.77387669  0.65801114  1
  Pd  Pd8  1  0.14382227  0.69021529  0.98747369  1
  Pd  Pd9  1  0.98747369  0.14382227  0.69021529  1
  Pd  Pd10  1  0.69021529  0.98747369  0.14382227  1
  Pd  Pd11  1  0.85617773  0.30978471  0.01252631  1
  Pd  Pd12  1  0.01252631  0.85617773  0.30978471  1
  Pd  Pd13  1  0.30978471  0.01252631  0.85617773  1
  Pd  Pd14  1  0.66647148  0.20903364  0.47469173  1
  Pd  Pd15  1  0.47469173  0.66647148  0.20903364  1
  Pd  Pd16  1  0.20903364  0.47469173  0.66647148  1
  Pd  Pd17  1  0.33352852  0.79096636  0.52530827  1
  Pd  Pd18  1  0.52530827  0.33352852  0.79096636  1
  Pd  Pd19  1  0.79096636  0.52530827  0.33352852  1
loop_
_geom_bond_atom_site_label_1
_geom_bond_atom_site_label_2
_geom_bond_distance
_geom_bond_site_symmetry_2
Pd0 Sb6 2.628888 1_555
Pd0 Sb4 2.628888 1_555
Pd0 Sb5 2.628888 1_555
Pd0 Pd1 2.724621 1_555
Pd0 Pd16 2.834815 1_555
Pd0 Pd14 2.834815 1_555
Pd0 Pd15 2.834815 1_555
Pd0 Pd4 2.921695 1_555
Pd0 Pd3 2.921695 1_555
Pd0 Pd2 2.921695 1_555
Pd1 Sb3 2.628888 1_555
Pd1 Sb1 2.628888 1_555
Pd1 Sb2 2.628888 1_555
Pd1 Pd19 2.834815 1_555
Pd1 Pd17 2.834815 1_555
Pd1 Pd18 2.834815 1_555
Pd1 Pd7 2.921695 1_655
Pd1 Pd6 2.921695 1_556
Pd1 Pd5 2.921695 1_565
Pd2 Sb5 2.667831 1_555
Pd2 Sb6 2.743739 1_555
Pd2 Pd8 2.848739 1_544
Pd2 Sb0 2.939454 1_555
Pd3 Sb6 2.667830 1_555
Pd3 Sb4 2.743739 1_555
Pd3 Pd9 2.848739 1_454
Pd3 Pd8 2.891111 1_554
Pd3 Sb0 2.939454 1_555
Pd4 Sb4 2.667831 1_555
Pd4 Sb5 2.743739 1_555
Pd4 Pd9 2.891110 1_455
Pd4 Sb0 2.939455 1_555
Pd5 Sb2 2.667831 1_545
Pd5 Sb3 2.743739 1_545
Pd5 Pd9 2.843384 1_555
Pd5 Sb0 2.939454 1_656
Pd6 Sb3 2.667830 1_554
Pd6 Sb1 2.743739 1_554
Pd6 Pd8 2.861205 1_654
Pd6 Sb0 2.939454 1_665
Pd7 Sb1 2.667831 1_455
Pd7 Sb2 2.743739 1_455
Pd7 Pd8 2.843385 1_555
Pd7 Pd9 2.861206 1_465
Pd7 Sb0 2.939455 1_566
Pd8 Sb4 2.671068 1_556
Pd8 Sb3 2.677116 1_555
Pd8 Sb0 2.804557 1_566
Pd8 Sb1 2.830486 1_455
Pd9 Sb5 2.671068 1_655
Pd9 Sb1 2.677117 1_555
Pd9 Sb0 2.804557 1_656
Pd9 Sb2 2.830486 1_545
Pd10 Sb6 2.671068 1_565
Pd10 Sb2 2.677117 1_555
Pd10 Sb0 2.804557 1_665
Pd10 Sb3 2.830486 1_554
Pd10 Pd6 2.843385 1_555
Pd10 Pd4 2.848739 1_665
Pd10 Pd5 2.861206 1_564
Pd10 Pd2 2.891110 1_565
Pd10 Pd14 2.905611 1_565
Pd10 Pd15 2.935688 1_555
Pd10 Pd12 3.028942 1_655
Pd10 Pd11 3.028942 1_565
Pd11 Sb1 2.671068 1_554
Pd11 Sb6 2.677116 1_555
Pd11 Sb0 2.804557 1_655
Pd11 Sb4 2.830486 1_655
Pd11 Pd4 2.843385 1_655
Pd11 Pd5 2.848739 1_554
Pd11 Pd3 2.861205 1_655
Pd11 Pd6 2.891111 1_555
Pd11 Pd18 2.905611 1_554
Pd11 Pd19 2.935688 1_555
Pd11 Pd9 3.028942 1_554
Pd12 Sb2 2.671068 1_455
Pd12 Sb4 2.677117 1_555
Pd12 Sb0 2.804557 1_565
Pd12 Sb5 2.830486 1_565
Pd12 Pd2 2.843384 1_565
Pd12 Pd6 2.848739 1_455
Pd12 Pd4 2.861206 1_565
Pd12 Pd7 2.891110 1_555
Pd12 Pd19 2.905611 1_455
Pd12 Pd17 2.935688 1_555
Pd12 Pd8 3.028942 1_554
Pd13 Sb3 2.671068 1_545
Pd13 Sb5 2.677117 1_555
Pd13 Sb0 2.804557 1_556
Pd13 Sb6 2.830486 1_556
Pd13 Pd3 2.843385 1_556
Pd13 Pd7 2.848739 1_545
Pd13 Pd2 2.861206 1_556
Pd13 Pd5 2.891110 1_555
Pd13 Pd17 2.905611 1_545
Pd13 Pd18 2.935688 1_555
Pd13 Pd9 3.028942 1_455
Pd13 Pd8 3.028942 1_545
Pd14 Sb1 2.633789 1_555
Pd14 Sb2 2.669151 1_545
Pd14 Sb6 2.902196 1_555
Pd14 Pd18 2.934757 1_555
Pd14 Pd19 2.934757 1_555
Pd14 Pd9 2.935688 1_555
Pd14 Pd4 2.937444 1_655
Pd14 Pd2 2.973532 1_555
Pd14 Pd5 3.049079 1_555
Pd14 Sb5 3.164856 1_555
Pd15 Sb2 2.633789 1_555
Pd15 Sb3 2.669151 1_554
Pd15 Sb4 2.902196 1_555
Pd15 Pd8 2.905611 1_554
Pd15 Pd19 2.934757 1_555
Pd15 Pd17 2.934757 1_555
Pd15 Pd2 2.937444 1_565
Pd15 Pd3 2.973533 1_555
Pd15 Pd6 3.049078 1_555
Pd15 Sb6 3.164857 1_555
Pd16 Sb3 2.633789 1_555
Pd16 Sb1 2.669151 1_455
Pd16 Sb5 2.902196 1_555
Pd16 Pd9 2.905611 1_455
Pd16 Pd18 2.934757 1_555
Pd16 Pd17 2.934757 1_555
Pd16 Pd8 2.935688 1_555
Pd16 Pd3 2.937444 1_556
Pd16 Pd4 2.973533 1_555
Pd16 Pd7 3.049079 1_555
Pd16 Sb4 3.164857 1_555
Pd17 Sb4 2.633789 1_555
Pd17 Sb5 2.669151 1_565
Pd17 Sb3 2.902196 1_555
Pd17 Pd7 2.937444 1_555
Pd17 Pd5 2.973532 1_565
Pd17 Pd2 3.049079 1_565
Pd17 Sb2 3.164856 1_555
Pd18 Sb5 2.633789 1_555
Pd18 Sb6 2.669151 1_556
Pd18 Sb1 2.902196 1_555
Pd18 Pd5 2.937444 1_555
Pd18 Pd6 2.973533 1_556
Pd18 Pd3 3.049078 1_556
Pd18 Sb3 3.164857 1_555
Pd19 Sb6 2.633789 1_555
Pd19 Sb4 2.669151 1_655
Pd19 Sb2 2.902196 1_555
Pd19 Pd6 2.937444 1_555
Pd19 Pd7 2.973533 1_655
Pd19 Pd4 3.049079 1_655
Pd19 Sb1 3.164857 1_555
