# generated using pymatgen
data_Ba2Ga6ReOs
_symmetry_space_group_name_H-M   'P 1'
_cell_length_a   6.90639519
_cell_length_b   6.90639485
_cell_length_c   6.90639497
_cell_angle_alpha   59.99999943
_cell_angle_beta   60.00000106
_cell_angle_gamma   89.99999420
_symmetry_Int_Tables_number   1
_chemical_formula_structural   Ba2Ga6ReOs
_chemical_formula_sum   'Ba2 Ga6 Re1 Os1'
_cell_volume   232.93742432
_cell_formula_units_Z   1
loop_
 _symmetry_equiv_pos_site_id
 _symmetry_equiv_pos_as_xyz
  1  'x, y, z'
loop_
 _atom_site_type_symbol
 _atom_site_label
 _atom_site_symmetry_multiplicity
 _atom_site_fract_x
 _atom_site_fract_y
 _atom_site_fract_z
 _atom_site_occupancy
  Ba  Ba0  1  0.25000200  0.75000000  0.49999900  1
  Ba  Ba1  1  0.75000100  0.24999900  0.50000100  1
  Ga  Ga0  1  0.25104427  0.25104427  1.00000000  1
  Ga  Ga1  1  0.74895373  0.25104627  0.00000000  1
  Ga  Ga2  1  0.25104427  0.74895573  1.00000000  1
  Ga  Ga3  1  0.74895573  0.74895573  0.00000000  1
  Ga  Ga4  1  0.25104527  0.25104527  0.49790845  1
  Ga  Ga5  1  0.74895473  0.74895473  0.50209255  1
  Re  Re0  1  0.00000000  0.00000000  0.00000000  1
  Os  Os0  1  0.50000000  0.50000000  0.00000000  1
loop_
_geom_bond_atom_site_label_1
_geom_bond_atom_site_label_2
_geom_bond_distance
_geom_bond_site_symmetry_2
Ba0 Ga3 3.453202 1_555
Ba0 Ga1 3.453206 1_565
Ba0 Ga0 3.453209 1_555
Ba0 Ga5 3.453209 1_555
Ba0 Ga4 3.453213 1_555
Ba0 Ga4 3.453213 1_565
Ba0 Ga2 3.453213 1_555
Ba0 Ga2 3.453213 1_554
Ba0 Ga0 3.453216 1_564
Ba0 Ga5 3.453216 1_455
Ba0 Ga1 3.453220 1_456
Ba0 Ga3 3.453223 1_456
Ba1 Ga4 3.453199 1_655
Ba1 Ga3 3.453202 1_546
Ba1 Ga5 3.453202 1_545
Ba1 Ga1 3.453206 1_556
Ba1 Ga0 3.453209 1_654
Ba1 Ga2 3.453213 1_545
Ba1 Ga2 3.453213 1_654
Ba1 Ga0 3.453216 1_555
Ba1 Ga1 3.453220 1_555
Ba1 Ga3 3.453223 1_555
Ba1 Ga5 3.453223 1_555
Ba1 Ga4 3.453227 1_555
Ga0 Os0 2.431580 1_556
Ga0 Re0 2.451979 1_556
Ga1 Os0 2.431560 1_555
Ga1 Re0 2.451998 1_655
Ga2 Os0 2.431580 1_556
Ga2 Re0 2.451979 1_566
Ga3 Os0 2.431580 1_555
Ga3 Re0 2.451979 1_665
Ga4 Os0 2.431565 1_555
Ga4 Re0 2.451994 1_556
Ga5 Os0 2.431560 1_556
Ga5 Re0 2.451999 1_665
