# generated using pymatgen
data_K16TiSnP8
_symmetry_space_group_name_H-M   'P 1'
_cell_length_a   10.65901256
_cell_length_b   10.65901243
_cell_length_c   10.65901173
_cell_angle_alpha   59.99999608
_cell_angle_beta   59.99999650
_cell_angle_gamma   60.00000427
_symmetry_Int_Tables_number   1
_chemical_formula_structural   K16TiSnP8
_chemical_formula_sum   'K16 Ti1 Sn1 P8'
_cell_volume   856.31958039
_cell_formula_units_Z   1
loop_
 _symmetry_equiv_pos_site_id
 _symmetry_equiv_pos_as_xyz
  1  'x, y, z'
loop_
 _atom_site_type_symbol
 _atom_site_label
 _atom_site_symmetry_multiplicity
 _atom_site_fract_x
 _atom_site_fract_y
 _atom_site_fract_z
 _atom_site_occupancy
  K  K0  1  0.62511316  0.12466051  0.62511316  1
  K  K1  1  0.62511316  0.62511316  0.12466051  1
  K  K2  1  0.12466051  0.62511316  0.62511316  1
  K  K3  1  0.62511316  0.62511316  0.62511316  1
  K  K4  1  0.02307733  0.02307733  0.47692267  1
  K  K5  1  0.77688177  0.22311823  0.22311823  1
  K  K6  1  0.22311823  0.77688177  0.77688177  1
  K  K7  1  0.77688177  0.77688177  0.22311823  1
  K  K8  1  0.77688177  0.22311823  0.77688177  1
  K  K9  1  0.22311823  0.77688177  0.22311823  1
  K  K10  1  0.47692267  0.02307733  0.47692267  1
  K  K11  1  0.47692267  0.02307733  0.02307733  1
  K  K12  1  0.02307733  0.47692267  0.47692267  1
  K  K13  1  0.02307733  0.47692267  0.02307733  1
  K  K14  1  0.22311823  0.22311823  0.77688177  1
  K  K15  1  0.47692267  0.47692267  0.02307733  1
  Ti  Ti0  1  0.75000000  0.75000000  0.75000000  1
  Sn  Sn0  1  0.50000000  0.50000000  0.50000000  1
  P  P0  1  0.39973590  0.80079031  0.39973590  1
  P  P1  1  0.84482019  0.84482019  0.46553842  1
  P  P2  1  0.46553842  0.84482019  0.84482019  1
  P  P3  1  0.84482019  0.84482019  0.84482019  1
  P  P4  1  0.80079031  0.39973590  0.39973590  1
  P  P5  1  0.39973590  0.39973590  0.39973590  1
  P  P6  1  0.39973590  0.39973590  0.80079031  1
  P  P7  1  0.84482019  0.46553842  0.84482019  1
loop_
_geom_bond_atom_site_label_1
_geom_bond_atom_site_label_2
_geom_bond_distance
_geom_bond_site_symmetry_2
K0 Ti0 3.260688 1_545
K0 Sn0 3.266597 1_555
K0 P3 3.373344 1_545
K0 P2 3.373350 1_545
K0 P1 3.373350 1_545
K0 P4 3.438402 1_555
K0 P6 3.438402 1_555
K0 P5 3.438415 1_555
K0 K11 3.475356 1_556
K0 K10 3.475357 1_555
K0 K4 3.475357 1_655
K0 K5 3.513929 1_555
K0 K8 3.513930 1_555
K0 K14 3.513930 1_555
K1 Ti0 3.260688 1_554
K1 Sn0 3.266597 1_555
K1 P3 3.373343 1_554
K1 P2 3.373350 1_554
K1 P7 3.373350 1_554
K1 P4 3.438402 1_555
K1 P0 3.438402 1_555
K1 P5 3.438415 1_555
K1 K15 3.475357 1_555
K1 K11 3.475357 1_565
K1 K13 3.475357 1_655
K1 K7 3.513930 1_555
K1 K5 3.513930 1_555
K1 K9 3.513930 1_555
K2 Ti0 3.260688 1_455
K2 Sn0 3.266597 1_555
K2 P3 3.373344 1_455
K2 P7 3.373350 1_455
K2 P1 3.373350 1_455
K2 P0 3.438402 1_555
K2 P6 3.438402 1_555
K2 P5 3.438415 1_555
K2 K4 3.475357 1_565
K2 K9 3.513929 1_555
K2 K6 3.513930 1_555
K3 Ti0 3.260688 1_555
K3 Sn0 3.266597 1_555
K3 P1 3.373342 1_555
K3 P2 3.373342 1_555
K3 P7 3.373342 1_555
K3 P6 3.438418 1_555
K3 P4 3.438418 1_555
K3 P0 3.438418 1_555
K3 K7 3.513929 1_555
K3 K8 3.513930 1_555
K3 K6 3.513930 1_555
K4 P3 3.362486 1_445
K4 P1 3.362493 1_445
K4 P4 3.397522 1_455
K4 P0 3.397522 1_545
K4 K6 3.806184 1_545
K4 K8 3.806184 1_455
K4 K9 3.806184 1_545
K4 K5 3.806184 1_455
K5 P4 3.414186 1_555
K5 P5 3.414199 1_555
K5 P7 3.463017 1_554
K5 P1 3.463017 1_545
K5 K8 4.756440 1_554
K5 K7 4.756440 1_545
K5 K9 4.756440 1_645
K6 P0 3.414204 1_555
K6 P6 3.414205 1_555
K6 P2 3.463010 1_555
K6 P3 3.463020 1_455
K6 K7 4.756440 1_456
K6 K9 4.756440 1_556
K6 K8 4.756440 1_465
K7 P4 3.414204 1_555
K7 P0 3.414204 1_555
K7 P1 3.463010 1_555
K7 P3 3.463020 1_554
K7 K8 4.756440 1_564
K7 K9 4.756440 1_655
K8 P4 3.414204 1_555
K8 P6 3.414205 1_555
K8 P7 3.463010 1_555
K8 P3 3.463020 1_545
K9 P0 3.414186 1_555
K9 P5 3.414199 1_555
K9 P2 3.463017 1_554
K9 P1 3.463017 1_455
K10 P2 3.362483 1_545
K10 P1 3.362484 1_545
K10 P5 3.397517 1_555
K10 P0 3.397537 1_545
K10 K3 3.475357 1_545
K10 K6 3.806183 1_545
K10 K5 3.806183 1_555
K10 K14 3.806184 1_555
K10 K7 3.806184 1_545
K11 P3 3.362487 1_544
K11 P2 3.362493 1_544
K11 P0 3.397521 1_545
K11 P6 3.397521 1_554
K11 K8 3.806183 1_554
K11 K9 3.806183 1_545
K11 K14 3.806184 1_554
K11 K7 3.806184 1_545
K12 P7 3.362483 1_455
K12 P1 3.362484 1_455
K12 P5 3.397517 1_555
K12 P4 3.397537 1_455
K12 K2 3.475357 1_555
K12 K3 3.475357 1_455
K12 K8 3.806183 1_455
K12 K9 3.806183 1_555
K12 K14 3.806184 1_555
K12 K7 3.806184 1_455
K13 P3 3.362487 1_454
K13 P7 3.362493 1_454
K13 P4 3.397521 1_455
K13 P6 3.397521 1_554
K13 K2 3.475356 1_554
K13 K6 3.806183 1_554
K13 K5 3.806183 1_455
K13 K14 3.806184 1_554
K13 K7 3.806184 1_455
K14 P6 3.414186 1_555
K14 P5 3.414199 1_555
K14 P2 3.463018 1_545
K14 P7 3.463018 1_455
K14 K2 3.513930 1_555
K14 K9 4.756440 1_546
K14 K5 4.756440 1_456
K14 K6 4.756440 1_545
K14 K8 4.756440 1_455
K15 P2 3.362484 1_554
K15 P7 3.362484 1_554
K15 P5 3.397516 1_555
K15 P6 3.397536 1_554
K15 K3 3.475356 1_554
K15 K6 3.806184 1_554
K15 K8 3.806184 1_554
K15 K9 3.806184 1_555
K15 K5 3.806184 1_555
P0 Sn0 2.617792 1_555
P1 Ti0 2.475682 1_555
P2 Ti0 2.475683 1_555
P3 Ti0 2.475674 1_555
P4 Sn0 2.617792 1_555
P5 Sn0 2.617810 1_555
P6 Sn0 2.617792 1_555
P7 Ti0 2.475683 1_555
