# generated using pymatgen
data_Hf3Al2PdN
_symmetry_space_group_name_H-M   'P 1'
_cell_length_a   8.49568262
_cell_length_b   8.49568430
_cell_length_c   8.49568376
_cell_angle_alpha   60.00000588
_cell_angle_beta   59.99999933
_cell_angle_gamma   60.00000171
_symmetry_Int_Tables_number   1
_chemical_formula_structural   Hf3Al2PdN
_chemical_formula_sum   'Hf12 Al8 Pd4 N4'
_cell_volume   433.59074954
_cell_formula_units_Z   4
loop_
 _symmetry_equiv_pos_site_id
 _symmetry_equiv_pos_as_xyz
  1  'x, y, z'
loop_
 _atom_site_type_symbol
 _atom_site_label
 _atom_site_symmetry_multiplicity
 _atom_site_fract_x
 _atom_site_fract_y
 _atom_site_fract_z
 _atom_site_occupancy
  Hf  Hf0  1  0.81333756  0.81333756  0.18666244  1
  Hf  Hf1  1  0.06333756  0.43666244  0.43666244  1
  Hf  Hf2  1  0.43666244  0.06333756  0.06333756  1
  Hf  Hf3  1  0.06333756  0.06333756  0.43666244  1
  Hf  Hf4  1  0.06333756  0.43666244  0.06333756  1
  Hf  Hf5  1  0.43666244  0.06333756  0.43666244  1
  Hf  Hf6  1  0.18666244  0.81333756  0.18666244  1
  Hf  Hf7  1  0.18666244  0.81333756  0.81333756  1
  Hf  Hf8  1  0.81333756  0.18666244  0.18666244  1
  Hf  Hf9  1  0.81333756  0.18666244  0.81333756  1
  Hf  Hf10  1  0.43666244  0.43666244  0.06333756  1
  Hf  Hf11  1  0.18666244  0.18666244  0.81333756  1
  Al  Al0  1  0.41860006  0.74419881  0.41860006  1
  Al  Al1  1  0.83139994  0.83139994  0.50580119  1
  Al  Al2  1  0.50580119  0.83139994  0.83139994  1
  Al  Al3  1  0.83139994  0.83139994  0.83139994  1
  Al  Al4  1  0.74419881  0.41860006  0.41860006  1
  Al  Al5  1  0.41860006  0.41860006  0.41860006  1
  Al  Al6  1  0.41860006  0.41860006  0.74419881  1
  Al  Al7  1  0.83139994  0.50580119  0.83139994  1
  Pd  Pd0  1  0.62500000  0.12500000  0.62500000  1
  Pd  Pd1  1  0.62500000  0.62500000  0.12500000  1
  Pd  Pd2  1  0.12500000  0.62500000  0.62500000  1
  Pd  Pd3  1  0.62500000  0.62500000  0.62500000  1
  N  N0  1  0.12500000  0.62500000  0.12500000  1
  N  N1  1  0.12500000  0.12500000  0.62500000  1
  N  N2  1  0.62500000  0.12500000  0.12500000  1
  N  N3  1  0.12500000  0.12500000  0.12500000  1
loop_
_geom_bond_atom_site_label_1
_geom_bond_atom_site_label_2
_geom_bond_distance
_geom_bond_site_symmetry_2
Hf0 N0 2.249424 1_655
Hf0 N2 2.249424 1_565
Hf0 Pd1 3.103450 1_555
Hf0 Pd3 3.103450 1_555
Hf1 N0 2.249424 1_555
Hf1 N1 2.249424 1_555
Hf1 Pd3 3.103449 1_455
Hf1 Pd2 3.103450 1_555
Hf2 N3 2.249424 1_555
Hf2 N2 2.249424 1_555
Hf2 Pd0 3.103450 1_554
Hf2 Pd1 3.103450 1_545
Hf3 N1 2.249424 1_555
Hf3 N3 2.249424 1_555
Hf3 Pd0 3.103449 1_455
Hf3 Pd2 3.103450 1_545
Hf4 N0 2.249424 1_555
Hf4 N3 2.249424 1_555
Hf4 Pd1 3.103449 1_455
Hf4 Pd2 3.103450 1_554
Hf5 N1 2.249424 1_555
Hf5 N2 2.249424 1_555
Hf5 Pd0 3.103450 1_555
Hf5 Pd3 3.103450 1_545
Hf6 N0 2.249424 1_555
Hf6 N3 2.249424 1_565
Hf6 Pd1 3.103449 1_555
Hf6 Pd2 3.103450 1_555
Hf7 N0 2.249424 1_556
Hf7 N1 2.249424 1_565
Hf7 Pd3 3.103449 1_555
Hf7 Pd2 3.103450 1_555
Hf8 N3 2.249424 1_655
Hf8 N2 2.249424 1_555
Hf8 Pd0 3.103450 1_555
Hf8 Pd1 3.103450 1_555
Hf9 N1 2.249424 1_655
Hf9 N2 2.249424 1_556
Hf9 Pd0 3.103450 1_555
Hf9 Pd3 3.103450 1_555
Hf10 N0 2.249424 1_555
Hf10 N2 2.249424 1_555
Hf10 Pd1 3.103450 1_555
Hf10 Pd3 3.103450 1_554
Hf11 N1 2.249424 1_555
Hf11 N3 2.249424 1_556
Hf11 Pd0 3.103449 1_555
Hf11 Pd2 3.103450 1_555
Al0 Pd2 2.588123 1_555
Al0 Pd1 2.588123 1_555
Al0 Pd3 2.588130 1_555
Al0 Al4 2.766184 1_555
Al0 Al5 2.766184 1_555
Al0 Al6 2.766184 1_555
Al0 Hf3 2.872957 1_565
Al0 Hf2 2.872958 1_565
Al0 Hf5 2.872962 1_565
Al0 Hf6 3.111017 1_555
Al0 Hf0 3.111024 1_555
Al0 Hf7 3.111024 1_555
Al1 Pd2 2.588123 1_655
Al1 Pd0 2.588123 1_565
Al1 Pd3 2.588130 1_555
Al1 Al2 2.766184 1_555
Al1 Al3 2.766184 1_555
Al1 Al7 2.766184 1_555
Al1 Hf6 2.872957 1_655
Al1 Hf8 2.872958 1_565
Al1 Hf0 2.872962 1_555
Al1 Hf3 3.111017 1_665
Al1 Hf5 3.111024 1_565
Al1 Hf1 3.111024 1_655
Al2 Pd1 2.588123 1_556
Al2 Pd0 2.588124 1_565
Al2 Pd3 2.588130 1_555
Al2 Al3 2.766184 1_555
Al2 Al7 2.766184 1_555
Al2 Hf6 2.872957 1_556
Al2 Hf11 2.872958 1_565
Al2 Hf7 2.872962 1_555
Al2 Hf2 3.111017 1_566
Al2 Hf5 3.111024 1_565
Al2 Hf10 3.111024 1_556
Al3 Pd2 2.588128 1_655
Al3 Pd1 2.588128 1_556
Al3 Pd0 2.588128 1_565
Al3 Al7 2.766184 1_555
Al3 Hf7 2.872953 1_655
Al3 Hf0 2.872954 1_556
Al3 Hf9 2.872954 1_565
Al3 Hf2 3.111020 1_566
Al3 Hf3 3.111021 1_665
Al3 Hf4 3.111021 1_656
Al4 Pd1 2.588123 1_555
Al4 Pd0 2.588124 1_555
Al4 Pd3 2.588130 1_555
Al4 Al5 2.766184 1_555
Al4 Al6 2.766184 1_555
Al4 Hf4 2.872957 1_655
Al4 Hf3 2.872958 1_655
Al4 Hf1 2.872962 1_655
Al4 Hf8 3.111017 1_555
Al4 Hf9 3.111024 1_555
Al4 Hf0 3.111024 1_555
Al5 Pd2 2.588128 1_555
Al5 Pd1 2.588128 1_555
Al5 Pd0 2.588128 1_555
Al5 Al6 2.766184 1_555
Al5 Hf1 2.872953 1_555
Al5 Hf10 2.872954 1_555
Al5 Hf5 2.872954 1_555
Al5 Hf8 3.111020 1_555
Al5 Hf11 3.111021 1_555
Al5 Hf6 3.111021 1_555
Al6 Pd2 2.588123 1_555
Al6 Pd0 2.588123 1_555
Al6 Pd3 2.588130 1_555
Al6 Hf4 2.872957 1_556
Al6 Hf2 2.872958 1_556
Al6 Hf10 2.872962 1_556
Al6 Hf11 3.111017 1_555
Al6 Hf9 3.111024 1_555
Al6 Hf7 3.111024 1_555
Al7 Pd2 2.588123 1_655
Al7 Pd1 2.588123 1_556
Al7 Pd3 2.588130 1_555
Al7 Hf11 2.872957 1_655
Al7 Hf8 2.872958 1_556
Al7 Hf9 2.872962 1_555
Al7 Hf4 3.111017 1_656
Al7 Hf10 3.111024 1_556
Al7 Hf1 3.111024 1_655
