# generated using pymatgen
data_KTaH5
_symmetry_space_group_name_H-M   'P 1'
_cell_length_a   10.55941671
_cell_length_b   6.95905276
_cell_length_c   5.08580257
_cell_angle_alpha   90.00000000
_cell_angle_beta   90.00000000
_cell_angle_gamma   90.00000000
_symmetry_Int_Tables_number   1
_chemical_formula_structural   KTaH5
_chemical_formula_sum   'K4 Ta4 H20'
_cell_volume   373.72276595
_cell_formula_units_Z   4
loop_
 _symmetry_equiv_pos_site_id
 _symmetry_equiv_pos_as_xyz
  1  'x, y, z'
loop_
 _atom_site_type_symbol
 _atom_site_label
 _atom_site_symmetry_multiplicity
 _atom_site_fract_x
 _atom_site_fract_y
 _atom_site_fract_z
 _atom_site_occupancy
  K  K0  1  0.66931698  0.07286688  0.34684589  1
  K  K1  1  0.16931698  0.42713212  0.34684589  1
  K  K2  1  0.83068302  0.57286688  0.84684589  1
  K  K3  1  0.33068302  0.92713312  0.84684589  1
  Ta  Ta0  1  0.51910879  0.56697911  0.30544000  1
  Ta  Ta1  1  0.01910879  0.93302089  0.30544000  1
  Ta  Ta2  1  0.98089121  0.06697811  0.80543900  1
  Ta  Ta3  1  0.48089121  0.43302189  0.80543900  1
  H  H0  1  0.32739243  0.31695355  0.81031903  1
  H  H1  1  0.82739243  0.18304645  0.81031903  1
  H  H2  1  0.97526866  0.68009341  0.31273463  1
  H  H3  1  0.47526866  0.81990559  0.31273463  1
  H  H4  1  0.60595638  0.39530532  0.07434687  1
  H  H5  1  0.10595538  0.10469468  0.07434687  1
  H  H6  1  0.37767083  0.54949593  0.06955990  1
  H  H7  1  0.87767083  0.95050507  0.06955990  1
  H  H8  1  0.95070923  0.16613968  0.44775269  1
  H  H9  1  0.45070923  0.33386132  0.44775269  1
  H  H10  1  0.17260757  0.81695355  0.31031803  1
  H  H11  1  0.67260757  0.68304545  0.31031803  1
  H  H12  1  0.52473234  0.18009341  0.81273663  1
  H  H13  1  0.02473234  0.31990559  0.81273663  1
  H  H14  1  0.89404462  0.89530432  0.57434687  1
  H  H15  1  0.39404462  0.60469568  0.57434687  1
  H  H16  1  0.12232917  0.04949493  0.56955990  1
  H  H17  1  0.62232917  0.45050507  0.56955990  1
  H  H18  1  0.54929077  0.66613968  0.94775469  1
  H  H19  1  0.04929077  0.83386132  0.94775469  1
loop_
_geom_bond_atom_site_label_1
_geom_bond_atom_site_label_2
_geom_bond_distance
_geom_bond_site_symmetry_2
H0 Ta3 1.811137 1_555
H0 H6 2.153830 1_556
H0 H9 2.260435 1_555
H0 H12 2.291167 1_555
H0 H15 2.438291 1_555
H0 K3 2.719356 1_545
H0 K1 2.988334 1_555
H0 K1 3.289332 1_556
H1 Ta2 1.811137 1_555
H1 H7 2.153825 1_546
H1 H8 2.260434 1_555
H1 H13 2.291164 1_655
H1 H14 2.438291 1_545
H1 K2 2.719356 1_555
H1 K0 2.988336 1_555
H1 K0 3.289333 1_556
H2 Ta1 1.820372 1_655
H2 H7 2.476452 1_555
H2 K1 2.706946 1_655
H2 K2 2.915799 1_554
H2 K2 3.204136 1_555
H3 Ta0 1.820365 1_555
H3 H6 2.476441 1_555
H3 K0 2.706946 1_565
H3 K3 2.915801 1_554
H3 K3 3.204137 1_555
H4 Ta0 1.910390 1_555
H4 Ta3 1.919187 1_554
H4 H9 2.544929 1_555
H4 K0 2.720885 1_555
H4 K2 2.914894 1_554
H5 Ta1 1.910385 1_545
H5 Ta2 1.919180 1_454
H5 H8 2.544923 1_455
H5 K1 2.720882 1_555
H5 K3 2.914903 1_544
H6 Ta3 1.910325 1_554
H6 Ta0 1.919502 1_555
H6 H9 2.558549 1_555
H6 K1 2.748501 1_555
H6 K3 2.904395 1_554
H7 Ta2 1.910322 1_564
H7 Ta1 1.919502 1_655
H7 H8 2.558549 1_565
H7 K0 2.748497 1_565
H7 K2 2.904401 1_554
H8 Ta1 1.917634 1_645
H8 Ta2 1.971541 1_555
H8 K1 2.981734 1_655
H8 K0 3.084402 1_555
H9 Ta0 1.917628 1_555
H9 Ta3 1.971539 1_555
H9 K0 2.981743 1_555
H9 K1 3.084399 1_555
H10 Ta1 1.811133 1_555
H10 H16 2.153828 1_565
H10 H19 2.260422 1_554
H10 H2 2.291158 1_455
H10 H5 2.438282 1_565
H10 K1 2.719363 1_555
H10 K3 2.988332 1_554
H10 K3 3.289338 1_555
H11 Ta0 1.811130 1_555
H11 H17 2.153823 1_555
H11 H18 2.260422 1_554
H11 H3 2.291158 1_555
H11 H4 2.438274 1_555
H11 K0 2.719363 1_565
H11 K2 2.988330 1_554
H11 K2 3.289336 1_555
H12 Ta3 1.820382 1_555
H12 H4 2.179187 1_556
H12 H9 2.280711 1_555
H12 H17 2.476453 1_555
H12 K3 2.706949 1_545
H12 K0 2.915802 1_555
H12 K0 3.204122 1_556
H13 Ta2 1.820375 1_455
H13 H5 2.179178 1_556
H13 H8 2.280705 1_455
H13 H16 2.476447 1_555
H13 K2 2.706953 1_455
H13 K1 2.915802 1_555
H13 K1 3.204122 1_556
H14 Ta2 1.910382 1_565
H14 Ta1 1.919176 1_655
H14 H8 2.079627 1_565
H14 H2 2.179188 1_555
H14 H19 2.544929 1_655
H14 H7 2.553543 1_556
H14 H7 2.601580 1_555
H14 K2 2.720882 1_555
H14 K0 2.914906 1_565
H15 Ta3 1.910382 1_555
H15 Ta0 1.919176 1_555
H15 H9 2.079621 1_555
H15 H3 2.179184 1_555
H15 H18 2.544930 1_555
H15 H6 2.553542 1_556
H15 H6 2.601579 1_555
H15 K3 2.720882 1_555
H15 K1 2.914909 1_555
H16 Ta1 1.910321 1_545
H16 Ta2 1.919499 1_455
H16 H8 2.080090 1_455
H16 H5 2.553542 1_555
H16 H19 2.558553 1_545
H16 H5 2.601579 1_556
H16 K3 2.748497 1_545
H16 K1 2.904395 1_555
H17 Ta0 1.910321 1_555
H17 Ta3 1.919499 1_555
H17 H9 2.080087 1_555
H17 H4 2.553542 1_555
H17 H18 2.558557 1_555
H17 H4 2.601578 1_556
H17 K2 2.748497 1_555
H17 K0 2.904401 1_555
H18 Ta3 1.917634 1_555
H18 Ta0 1.971534 1_556
H18 H4 2.079621 1_556
H18 H6 2.080084 1_556
H18 H3 2.280685 1_556
H18 K3 2.981740 1_555
H18 K2 3.084403 1_555
H19 Ta2 1.917628 1_465
H19 Ta1 1.971532 1_556
H19 H5 2.079611 1_566
H19 H7 2.080084 1_456
H19 H2 2.280691 1_456
H19 K2 2.981745 1_455
H19 K3 3.084402 1_555
