# generated using pymatgen
data_CsMnBiSe3
_symmetry_space_group_name_H-M   'P 1'
_cell_length_a   16.73123579
_cell_length_b   16.73123609
_cell_length_c   22.57840419
_cell_angle_alpha   90.00000000
_cell_angle_beta   90.00000000
_cell_angle_gamma   150.23274643
_symmetry_Int_Tables_number   1
_chemical_formula_structural   CsMnBiSe3
_chemical_formula_sum   'Cs16 Mn16 Bi16 Se48'
_cell_volume   3137.97321349
_cell_formula_units_Z   16
loop_
 _symmetry_equiv_pos_site_id
 _symmetry_equiv_pos_as_xyz
  1  'x, y, z'
loop_
 _atom_site_type_symbol
 _atom_site_label
 _atom_site_symmetry_multiplicity
 _atom_site_fract_x
 _atom_site_fract_y
 _atom_site_fract_z
 _atom_site_occupancy
  Cs  Cs0_0  1  0.12941028  0.37058972  0.12500000  1
  Cs  Cs0_1  1  0.12941028  0.37058972  0.62500000  1
  Cs  Cs0_2  1  0.12941028  0.87058972  0.12500000  1
  Cs  Cs0_3  1  0.12941028  0.87058972  0.62500000  1
  Cs  Cs0_4  1  0.62941028  0.37058972  0.12500000  1
  Cs  Cs0_5  1  0.62941028  0.37058972  0.62500000  1
  Cs  Cs0_6  1  0.62941028  0.87058972  0.12500000  1
  Cs  Cs0_7  1  0.62941028  0.87058972  0.62500000  1
  Cs  Cs1_0  1  0.37058972  0.12941028  0.37500000  1
  Cs  Cs1_1  1  0.37058972  0.12941028  0.87500000  1
  Cs  Cs1_2  1  0.37058972  0.62941028  0.37500000  1
  Cs  Cs1_3  1  0.37058972  0.62941028  0.87500000  1
  Cs  Cs1_4  1  0.87058972  0.12941028  0.37500000  1
  Cs  Cs1_5  1  0.87058972  0.12941028  0.87500000  1
  Cs  Cs1_6  1  0.87058972  0.62941028  0.37500000  1
  Cs  Cs1_7  1  0.87058972  0.62941028  0.87500000  1
  Mn  Mn0_0  1  0.26810008  0.23189992  0.12500000  1
  Mn  Mn0_1  1  0.26810008  0.23189992  0.62500000  1
  Mn  Mn0_2  1  0.26810008  0.73189992  0.12500000  1
  Mn  Mn0_3  1  0.26810008  0.73189992  0.62500000  1
  Mn  Mn0_4  1  0.76810008  0.23189992  0.12500000  1
  Mn  Mn0_5  1  0.76810008  0.23189992  0.62500000  1
  Mn  Mn0_6  1  0.76810008  0.73189992  0.12500000  1
  Mn  Mn0_7  1  0.76810008  0.73189992  0.62500000  1
  Mn  Mn1_0  1  0.23189992  0.26810008  0.37500000  1
  Mn  Mn1_1  1  0.23189992  0.26810008  0.87500000  1
  Mn  Mn1_2  1  0.23189992  0.76810008  0.37500000  1
  Mn  Mn1_3  1  0.23189992  0.76810008  0.87500000  1
  Mn  Mn1_4  1  0.73189992  0.26810008  0.37500000  1
  Mn  Mn1_5  1  0.73189992  0.26810008  0.87500000  1
  Mn  Mn1_6  1  0.73189992  0.76810008  0.37500000  1
  Mn  Mn1_7  1  0.73189992  0.76810008  0.87500000  1
  Bi  Bi0_0  1  0.00000000  0.00000000  0.00000000  1
  Bi  Bi0_1  1  0.00000000  0.00000000  0.50000000  1
  Bi  Bi0_2  1  0.00000000  0.50000000  0.00000000  1
  Bi  Bi0_3  1  0.00000000  0.50000000  0.50000000  1
  Bi  Bi0_4  1  0.50000000  0.00000000  0.00000000  1
  Bi  Bi0_5  1  0.50000000  0.00000000  0.50000000  1
  Bi  Bi0_6  1  0.50000000  0.50000000  0.00000000  1
  Bi  Bi0_7  1  0.50000000  0.50000000  0.50000000  1
  Bi  Bi1_0  1  0.00000000  0.00000000  0.25000000  1
  Bi  Bi1_1  1  0.00000000  0.00000000  0.75000000  1
  Bi  Bi1_2  1  0.00000000  0.50000000  0.25000000  1
  Bi  Bi1_3  1  0.00000000  0.50000000  0.75000000  1
  Bi  Bi1_4  1  0.50000000  0.00000000  0.25000000  1
  Bi  Bi1_5  1  0.50000000  0.00000000  0.75000000  1
  Bi  Bi1_6  1  0.50000000  0.50000000  0.25000000  1
  Bi  Bi1_7  1  0.50000000  0.50000000  0.75000000  1
  Se  Se0_0  1  0.30935656  0.19064344  0.03047121  1
  Se  Se0_1  1  0.30935656  0.19064344  0.53047121  1
  Se  Se0_2  1  0.30935656  0.69064344  0.03047121  1
  Se  Se0_3  1  0.30935656  0.69064344  0.53047121  1
  Se  Se0_4  1  0.80935656  0.19064344  0.03047121  1
  Se  Se0_5  1  0.80935656  0.19064344  0.53047121  1
  Se  Se0_6  1  0.80935656  0.69064344  0.03047121  1
  Se  Se0_7  1  0.80935656  0.69064344  0.53047121  1
  Se  Se1_0  1  0.19064344  0.30935656  0.46952879  1
  Se  Se1_1  1  0.19064344  0.30935656  0.96952879  1
  Se  Se1_2  1  0.19064344  0.80935656  0.46952879  1
  Se  Se1_3  1  0.19064344  0.80935656  0.96952879  1
  Se  Se1_4  1  0.69064344  0.30935656  0.46952879  1
  Se  Se1_5  1  0.69064344  0.30935656  0.96952879  1
  Se  Se1_6  1  0.69064344  0.80935656  0.46952879  1
  Se  Se1_7  1  0.69064344  0.80935656  0.96952879  1
  Se  Se2_0  1  0.19064344  0.30935656  0.28047121  1
  Se  Se2_1  1  0.19064344  0.30935656  0.78047121  1
  Se  Se2_2  1  0.19064344  0.80935656  0.28047121  1
  Se  Se2_3  1  0.19064344  0.80935656  0.78047121  1
  Se  Se2_4  1  0.69064344  0.30935656  0.28047121  1
  Se  Se2_5  1  0.69064344  0.30935656  0.78047121  1
  Se  Se2_6  1  0.69064344  0.80935656  0.28047121  1
  Se  Se2_7  1  0.69064344  0.80935656  0.78047121  1
  Se  Se3_0  1  0.30935656  0.19064344  0.21952879  1
  Se  Se3_1  1  0.30935656  0.19064344  0.71952879  1
  Se  Se3_2  1  0.30935656  0.69064344  0.21952879  1
  Se  Se3_3  1  0.30935656  0.69064344  0.71952879  1
  Se  Se3_4  1  0.80935656  0.19064344  0.21952879  1
  Se  Se3_5  1  0.80935656  0.19064344  0.71952879  1
  Se  Se3_6  1  0.80935656  0.69064344  0.21952879  1
  Se  Se3_7  1  0.80935656  0.69064344  0.71952879  1
  Se  Se4_0  1  0.47186185  0.02813815  0.12500000  1
  Se  Se4_1  1  0.47186185  0.02813815  0.62500000  1
  Se  Se4_2  1  0.47186185  0.52813815  0.12500000  1
  Se  Se4_3  1  0.47186185  0.52813815  0.62500000  1
  Se  Se4_4  1  0.97186185  0.02813815  0.12500000  1
  Se  Se4_5  1  0.97186185  0.02813815  0.62500000  1
  Se  Se4_6  1  0.97186185  0.52813815  0.12500000  1
  Se  Se4_7  1  0.97186185  0.52813815  0.62500000  1
  Se  Se5_0  1  0.02813815  0.47186185  0.37500000  1
  Se  Se5_1  1  0.02813815  0.47186185  0.87500000  1
  Se  Se5_2  1  0.02813815  0.97186185  0.37500000  1
  Se  Se5_3  1  0.02813815  0.97186185  0.87500000  1
  Se  Se5_4  1  0.52813815  0.47186185  0.37500000  1
  Se  Se5_5  1  0.52813815  0.47186185  0.87500000  1
  Se  Se5_6  1  0.52813815  0.97186185  0.37500000  1
  Se  Se5_7  1  0.52813815  0.97186185  0.87500000  1
loop_
_geom_bond_atom_site_label_1
_geom_bond_atom_site_label_2
_geom_bond_distance
_geom_bond_site_symmetry_2
Cs0_0 Se4_2 3.681912 1_555
Cs0_0 Se4_4 3.681912 1_455
Cs0_0 Se3_4 3.782203 1_455
Cs0_0 Se0_4 3.782203 1_455
Cs0_0 Se3_2 3.782203 1_555
Cs0_0 Se0_2 3.782203 1_555
Cs0_0 Se2_0 4.030336 1_555
Cs0_0 Se1_1 4.030336 1_554
Cs0_0 Cs0_6 4.297529 1_555
Cs0_0 Cs0_6 4.297529 1_445
Cs0_1 Se4_3 3.681912 1_555
Cs0_1 Se4_5 3.681912 1_455
Cs0_1 Se3_5 3.782203 1_455
Cs0_1 Se0_5 3.782203 1_455
Cs0_1 Se3_3 3.782203 1_555
Cs0_1 Se0_3 3.782203 1_555
Cs0_1 Se2_1 4.030336 1_555
Cs0_1 Se1_0 4.030336 1_555
Cs0_1 Cs0_7 4.297529 1_445
Cs0_1 Cs0_7 4.297529 1_555
Cs0_2 Se4_0 3.681912 1_565
Cs0_2 Se4_6 3.681912 1_455
Cs0_2 Se3_6 3.782203 1_455
Cs0_2 Se0_6 3.782203 1_455
Cs0_2 Se3_0 3.782203 1_565
Cs0_2 Se0_0 3.782203 1_565
Cs0_2 Se2_2 4.030336 1_555
Cs0_2 Se1_3 4.030336 1_554
Cs0_2 Cs0_4 4.297529 1_455
Cs0_2 Cs0_4 4.297529 1_565
Cs0_3 Se4_1 3.681912 1_565
Cs0_3 Se4_7 3.681912 1_455
Cs0_3 Se3_7 3.782203 1_455
Cs0_3 Se0_7 3.782203 1_455
Cs0_3 Se3_1 3.782203 1_565
Cs0_3 Se0_1 3.782203 1_565
Cs0_3 Se2_3 4.030336 1_555
Cs0_3 Se1_2 4.030336 1_555
Cs0_3 Cs0_5 4.297529 1_565
Cs0_3 Cs0_5 4.297529 1_455
Cs0_4 Se4_6 3.681912 1_555
Cs0_4 Se4_0 3.681912 1_555
Cs0_4 Se3_0 3.782203 1_555
Cs0_4 Se0_0 3.782203 1_555
Cs0_4 Se3_6 3.782203 1_555
Cs0_4 Se0_6 3.782203 1_555
Cs0_4 Se2_4 4.030336 1_555
Cs0_4 Se1_5 4.030336 1_554
Cs0_5 Se4_7 3.681912 1_555
Cs0_5 Se4_1 3.681912 1_555
Cs0_5 Se3_1 3.782203 1_555
Cs0_5 Se0_1 3.782203 1_555
Cs0_5 Se3_7 3.782203 1_555
Cs0_5 Se0_7 3.782203 1_555
Cs0_5 Se2_5 4.030336 1_555
Cs0_5 Se1_4 4.030336 1_555
Cs0_6 Se4_4 3.681912 1_565
Cs0_6 Se4_2 3.681912 1_555
Cs0_6 Se3_2 3.782203 1_555
Cs0_6 Se0_2 3.782203 1_555
Cs0_6 Se3_4 3.782203 1_565
Cs0_6 Se0_4 3.782203 1_565
Cs0_6 Se2_6 4.030336 1_555
Cs0_6 Se1_7 4.030336 1_554
Cs0_7 Se4_5 3.681912 1_565
Cs0_7 Se4_3 3.681912 1_555
Cs0_7 Se3_3 3.782203 1_555
Cs0_7 Se0_3 3.782203 1_555
Cs0_7 Se3_5 3.782203 1_565
Cs0_7 Se0_5 3.782203 1_565
Cs0_7 Se2_7 4.030336 1_555
Cs0_7 Se1_6 4.030336 1_555
Cs1_0 Se5_2 3.681912 1_545
Cs1_0 Se5_4 3.681912 1_555
Cs1_0 Se1_4 3.782203 1_555
Cs1_0 Se2_4 3.782203 1_555
Cs1_0 Se1_2 3.782203 1_545
Cs1_0 Se2_2 3.782203 1_545
Cs1_0 Se0_1 4.030336 1_555
Cs1_0 Se3_0 4.030336 1_555
Cs1_0 Cs1_6 4.297529 1_445
Cs1_0 Cs1_6 4.297529 1_555
Cs1_1 Se5_3 3.681912 1_545
Cs1_1 Se5_5 3.681912 1_555
Cs1_1 Se1_5 3.782203 1_555
Cs1_1 Se2_5 3.782203 1_555
Cs1_1 Se1_3 3.782203 1_545
Cs1_1 Se2_3 3.782203 1_545
Cs1_1 Se0_0 4.030336 1_556
Cs1_1 Se3_1 4.030336 1_555
Cs1_1 Cs1_7 4.297529 1_445
Cs1_1 Cs1_7 4.297529 1_555
Cs1_2 Se5_0 3.681912 1_555
Cs1_2 Se5_6 3.681912 1_555
Cs1_2 Se1_6 3.782203 1_555
Cs1_2 Se2_6 3.782203 1_555
Cs1_2 Se1_0 3.782203 1_555
Cs1_2 Se2_0 3.782203 1_555
Cs1_2 Se0_3 4.030336 1_555
Cs1_2 Se3_2 4.030336 1_555
Cs1_2 Cs1_4 4.297529 1_565
Cs1_2 Cs1_4 4.297529 1_455
Cs1_3 Se5_1 3.681912 1_555
Cs1_3 Se5_7 3.681912 1_555
Cs1_3 Se1_7 3.782203 1_555
Cs1_3 Se2_7 3.782203 1_555
Cs1_3 Se1_1 3.782203 1_555
Cs1_3 Se2_1 3.782203 1_555
Cs1_3 Se0_2 4.030336 1_556
Cs1_3 Se3_3 4.030336 1_555
Cs1_3 Cs1_5 4.297529 1_455
Cs1_3 Cs1_5 4.297529 1_565
Cs1_4 Se5_6 3.681912 1_545
Cs1_4 Se5_0 3.681912 1_655
Cs1_4 Se1_0 3.782203 1_655
Cs1_4 Se2_0 3.782203 1_655
Cs1_4 Se1_6 3.782203 1_545
Cs1_4 Se2_6 3.782203 1_545
Cs1_4 Se0_5 4.030336 1_555
Cs1_4 Se3_4 4.030336 1_555
Cs1_5 Se5_7 3.681912 1_545
Cs1_5 Se5_1 3.681912 1_655
Cs1_5 Se1_1 3.782203 1_655
Cs1_5 Se2_1 3.782203 1_655
Cs1_5 Se1_7 3.782203 1_545
Cs1_5 Se2_7 3.782203 1_545
Cs1_5 Se0_4 4.030336 1_556
Cs1_5 Se3_5 4.030336 1_555
Cs1_6 Se5_4 3.681912 1_555
Cs1_6 Se5_2 3.681912 1_655
Cs1_6 Se1_2 3.782203 1_655
Cs1_6 Se2_2 3.782203 1_655
Cs1_6 Se1_4 3.782203 1_555
Cs1_6 Se2_4 3.782203 1_555
Cs1_6 Se0_7 4.030336 1_555
Cs1_6 Se3_6 4.030336 1_555
Cs1_7 Se5_5 3.681912 1_555
Cs1_7 Se5_3 3.681912 1_655
Cs1_7 Se1_3 3.782203 1_655
Cs1_7 Se2_3 3.782203 1_655
Cs1_7 Se1_5 3.782203 1_555
Cs1_7 Se2_5 3.782203 1_555
Cs1_7 Se0_6 4.030336 1_556
Cs1_7 Se3_7 4.030336 1_555
Mn0_0 Se3_0 2.517029 1_555
Mn0_0 Se0_0 2.517029 1_555
Mn0_0 Se4_4 2.617864 1_455
Mn0_0 Se4_2 2.617864 1_555
Mn0_1 Se3_1 2.517029 1_555
Mn0_1 Se0_1 2.517029 1_555
Mn0_1 Se4_5 2.617864 1_455
Mn0_1 Se4_3 2.617864 1_555
Mn0_2 Se3_2 2.517029 1_555
Mn0_2 Se0_2 2.517029 1_555
Mn0_2 Se4_6 2.617864 1_455
Mn0_2 Se4_0 2.617864 1_565
Mn0_3 Se3_3 2.517029 1_555
Mn0_3 Se0_3 2.517029 1_555
Mn0_3 Se4_7 2.617864 1_455
Mn0_3 Se4_1 2.617864 1_565
Mn0_4 Se3_4 2.517029 1_555
Mn0_4 Se0_4 2.517029 1_555
Mn0_4 Se4_0 2.617864 1_555
Mn0_4 Se4_6 2.617864 1_555
Mn0_5 Se3_5 2.517029 1_555
Mn0_5 Se0_5 2.517029 1_555
Mn0_5 Se4_1 2.617864 1_555
Mn0_5 Se4_7 2.617864 1_555
Mn0_6 Se3_6 2.517029 1_555
Mn0_6 Se0_6 2.517029 1_555
Mn0_6 Se4_2 2.617864 1_555
Mn0_6 Se4_4 2.617864 1_565
Mn0_7 Se3_7 2.517029 1_555
Mn0_7 Se0_7 2.517029 1_555
Mn0_7 Se4_3 2.617864 1_555
Mn0_7 Se4_5 2.617864 1_565
Mn1_0 Se1_0 2.517029 1_555
Mn1_0 Se2_0 2.517029 1_555
Mn1_0 Se5_4 2.617864 1_555
Mn1_0 Se5_2 2.617864 1_545
Mn1_1 Se1_1 2.517029 1_555
Mn1_1 Se2_1 2.517029 1_555
Mn1_1 Se5_5 2.617864 1_555
Mn1_1 Se5_3 2.617864 1_545
Mn1_2 Se1_2 2.517029 1_555
Mn1_2 Se2_2 2.517029 1_555
Mn1_2 Se5_6 2.617864 1_555
Mn1_2 Se5_0 2.617864 1_555
Mn1_3 Se1_3 2.517029 1_555
Mn1_3 Se2_3 2.517029 1_555
Mn1_3 Se5_7 2.617864 1_555
Mn1_3 Se5_1 2.617864 1_555
Mn1_4 Se1_4 2.517029 1_555
Mn1_4 Se2_4 2.517029 1_555
Mn1_4 Se5_0 2.617864 1_655
Mn1_4 Se5_6 2.617864 1_545
Mn1_5 Se1_5 2.517029 1_555
Mn1_5 Se2_5 2.517029 1_555
Mn1_5 Se5_1 2.617864 1_655
Mn1_5 Se5_7 2.617864 1_545
Mn1_6 Se1_6 2.517029 1_555
Mn1_6 Se2_6 2.517029 1_555
Mn1_6 Se5_2 2.617864 1_655
Mn1_6 Se5_4 2.617864 1_555
Mn1_7 Se1_7 2.517029 1_555
Mn1_7 Se2_7 2.517029 1_555
Mn1_7 Se5_3 2.617864 1_655
Mn1_7 Se5_5 2.617864 1_555
Bi0_0 Se0_0 2.962314 1_555
Bi0_0 Se1_7 2.962314 1_444
Bi0_0 Se1_1 2.962314 1_554
Bi0_0 Se0_6 2.962314 1_445
Bi0_0 Se5_3 2.965375 1_544
Bi0_0 Se4_4 2.965375 1_455
Bi0_1 Se0_1 2.962314 1_555
Bi0_1 Se1_6 2.962314 1_445
Bi0_1 Se1_0 2.962314 1_555
Bi0_1 Se0_7 2.962314 1_445
Bi0_1 Se4_5 2.965375 1_455
Bi0_1 Se5_2 2.965375 1_545
Bi0_2 Se0_2 2.962314 1_555
Bi0_2 Se1_5 2.962314 1_454
Bi0_2 Se1_3 2.962314 1_554
Bi0_2 Se0_4 2.962314 1_455
Bi0_2 Se5_1 2.965375 1_554
Bi0_2 Se4_6 2.965375 1_455
Bi0_3 Se0_3 2.962314 1_555
Bi0_3 Se1_4 2.962314 1_455
Bi0_3 Se1_2 2.962314 1_555
Bi0_3 Se0_5 2.962314 1_455
Bi0_3 Se5_0 2.965375 1_555
Bi0_3 Se4_7 2.965375 1_455
Bi0_4 Se0_4 2.962314 1_555
Bi0_4 Se1_3 2.962314 1_544
Bi0_4 Se1_5 2.962314 1_554
Bi0_4 Se0_2 2.962314 1_545
Bi0_4 Se5_7 2.965375 1_544
Bi0_4 Se4_0 2.965375 1_555
Bi0_5 Se0_5 2.962314 1_555
Bi0_5 Se1_2 2.962314 1_545
Bi0_5 Se1_4 2.962314 1_555
Bi0_5 Se0_3 2.962314 1_545
Bi0_5 Se5_6 2.965375 1_545
Bi0_5 Se4_1 2.965375 1_555
Bi0_6 Se0_6 2.962314 1_555
Bi0_6 Se1_1 2.962314 1_554
Bi0_6 Se1_7 2.962314 1_554
Bi0_6 Se0_0 2.962314 1_555
Bi0_6 Se5_5 2.965375 1_554
Bi0_6 Se4_2 2.965375 1_555
Bi0_7 Se0_7 2.962314 1_555
Bi0_7 Se1_0 2.962314 1_555
Bi0_7 Se1_6 2.962314 1_555
Bi0_7 Se0_1 2.962314 1_555
Bi0_7 Se5_4 2.965375 1_555
Bi0_7 Se4_3 2.965375 1_555
Bi1_0 Se2_6 2.962314 1_445
Bi1_0 Se3_0 2.962314 1_555
Bi1_0 Se2_0 2.962314 1_555
Bi1_0 Se3_6 2.962314 1_445
Bi1_0 Se4_4 2.965375 1_455
Bi1_0 Se5_2 2.965375 1_545
Bi1_1 Se2_7 2.962314 1_445
Bi1_1 Se3_1 2.962314 1_555
Bi1_1 Se2_1 2.962314 1_555
Bi1_1 Se3_7 2.962314 1_445
Bi1_1 Se4_5 2.965375 1_455
Bi1_1 Se5_3 2.965375 1_545
Bi1_2 Se3_2 2.962314 1_555
Bi1_2 Se2_4 2.962314 1_455
Bi1_2 Se2_2 2.962314 1_555
Bi1_2 Se3_4 2.962314 1_455
Bi1_2 Se5_0 2.965375 1_555
Bi1_2 Se4_6 2.965375 1_455
Bi1_3 Se2_5 2.962314 1_455
Bi1_3 Se3_3 2.962314 1_555
Bi1_3 Se2_3 2.962314 1_555
Bi1_3 Se3_5 2.962314 1_455
Bi1_3 Se4_7 2.965375 1_455
Bi1_3 Se5_1 2.965375 1_555
Bi1_4 Se3_4 2.962314 1_555
Bi1_4 Se2_2 2.962314 1_545
Bi1_4 Se2_4 2.962314 1_555
Bi1_4 Se3_2 2.962314 1_545
Bi1_4 Se5_6 2.965375 1_545
Bi1_4 Se4_0 2.965375 1_555
Bi1_5 Se2_3 2.962314 1_545
Bi1_5 Se3_5 2.962314 1_555
Bi1_5 Se2_5 2.962314 1_555
Bi1_5 Se3_3 2.962314 1_545
Bi1_5 Se4_1 2.965375 1_555
Bi1_5 Se5_7 2.965375 1_545
Bi1_6 Se2_0 2.962314 1_555
Bi1_6 Se3_6 2.962314 1_555
Bi1_6 Se2_6 2.962314 1_555
Bi1_6 Se3_0 2.962314 1_555
Bi1_6 Se5_4 2.965375 1_555
Bi1_6 Se4_2 2.965375 1_555
Bi1_7 Se2_1 2.962314 1_555
Bi1_7 Se3_7 2.962314 1_555
Bi1_7 Se2_7 2.962314 1_555
Bi1_7 Se3_1 2.962314 1_555
Bi1_7 Se4_3 2.965375 1_555
Bi1_7 Se5_5 2.965375 1_555
