# generated using pymatgen
data_Nb3AlCu2C
_symmetry_space_group_name_H-M   'P 1'
_cell_length_a   8.23489481
_cell_length_b   8.23489499
_cell_length_c   8.23489401
_cell_angle_alpha   59.99999600
_cell_angle_beta   59.99999530
_cell_angle_gamma   59.99999757
_symmetry_Int_Tables_number   1
_chemical_formula_structural   Nb3AlCu2C
_chemical_formula_sum   'Nb12 Al4 Cu8 C4'
_cell_volume   394.87451050
_cell_formula_units_Z   4
loop_
 _symmetry_equiv_pos_site_id
 _symmetry_equiv_pos_as_xyz
  1  'x, y, z'
loop_
 _atom_site_type_symbol
 _atom_site_label
 _atom_site_symmetry_multiplicity
 _atom_site_fract_x
 _atom_site_fract_y
 _atom_site_fract_z
 _atom_site_occupancy
  Nb  Nb0  1  0.81681439  0.81681439  0.18318561  1
  Nb  Nb1  1  0.18318561  0.18318561  0.81681439  1
  Nb  Nb2  1  0.81681439  0.18318561  0.81681439  1
  Nb  Nb3  1  0.18318561  0.81681439  0.18318561  1
  Nb  Nb4  1  0.18318561  0.81681439  0.81681439  1
  Nb  Nb5  1  0.81681439  0.18318561  0.18318561  1
  Nb  Nb6  1  0.43318561  0.43318561  0.06681439  1
  Nb  Nb7  1  0.06681439  0.06681439  0.43318561  1
  Nb  Nb8  1  0.43318561  0.06681439  0.43318561  1
  Nb  Nb9  1  0.06681439  0.43318561  0.06681439  1
  Nb  Nb10  1  0.06681439  0.43318561  0.43318561  1
  Nb  Nb11  1  0.43318561  0.06681439  0.06681439  1
  Al  Al0  1  0.12500000  0.62500000  0.62500000  1
  Al  Al1  1  0.62500000  0.12500000  0.62500000  1
  Al  Al2  1  0.62500000  0.62500000  0.12500000  1
  Al  Al3  1  0.62500000  0.62500000  0.62500000  1
  Cu  Cu0  1  0.74213886  0.41928738  0.41928738  1
  Cu  Cu1  1  0.41928738  0.74213886  0.41928738  1
  Cu  Cu2  1  0.41928738  0.41928738  0.74213886  1
  Cu  Cu3  1  0.41928738  0.41928738  0.41928738  1
  Cu  Cu4  1  0.50786114  0.83071262  0.83071262  1
  Cu  Cu5  1  0.83071262  0.50786114  0.83071262  1
  Cu  Cu6  1  0.83071262  0.83071262  0.50786114  1
  Cu  Cu7  1  0.83071262  0.83071262  0.83071262  1
  C  C0  1  0.62500000  0.12500000  0.12500000  1
  C  C1  1  0.12500000  0.62500000  0.12500000  1
  C  C2  1  0.12500000  0.12500000  0.62500000  1
  C  C3  1  0.12500000  0.12500000  0.12500000  1
loop_
_geom_bond_atom_site_label_1
_geom_bond_atom_site_label_2
_geom_bond_distance
_geom_bond_site_symmetry_2
Al0 Cu7 2.504286 1_455
Al0 Cu3 2.504286 1_555
Al0 Cu1 2.504291 1_555
Al0 Cu5 2.504291 1_455
Al0 Cu2 2.504291 1_555
Al0 Cu6 2.504291 1_455
Al0 Nb9 3.037833 1_556
Al0 Nb3 3.037833 1_555
Al0 Nb7 3.037834 1_565
Al0 Nb1 3.037834 1_555
Al0 Nb4 3.037834 1_555
Al0 Nb10 3.037834 1_555
Al1 Cu7 2.504286 1_545
Al1 Cu3 2.504286 1_555
Al1 Cu0 2.504291 1_555
Al1 Cu4 2.504291 1_545
Al1 Cu2 2.504291 1_555
Al1 Cu6 2.504291 1_545
Al1 Nb11 3.037833 1_556
Al1 Nb5 3.037833 1_555
Al1 Nb7 3.037834 1_655
Al1 Nb1 3.037834 1_555
Al1 Nb2 3.037834 1_555
Al1 Nb8 3.037834 1_555
Al2 Cu7 2.504286 1_554
Al2 Cu3 2.504286 1_555
Al2 Cu5 2.504290 1_554
Al2 Cu1 2.504290 1_555
Al2 Cu0 2.504290 1_555
Al2 Cu4 2.504290 1_554
Al2 Nb9 3.037834 1_655
Al2 Nb3 3.037834 1_555
Al2 Nb11 3.037834 1_565
Al2 Nb5 3.037834 1_555
Al2 Nb0 3.037834 1_555
Al2 Nb6 3.037834 1_555
Al3 Cu5 2.504284 1_555
Al3 Cu1 2.504284 1_555
Al3 Cu4 2.504284 1_555
Al3 Cu0 2.504284 1_555
Al3 Cu6 2.504284 1_555
Al3 Cu2 2.504284 1_555
Al3 Nb6 3.037833 1_556
Al3 Nb0 3.037833 1_555
Al3 Nb10 3.037834 1_655
Al3 Nb4 3.037834 1_555
Al3 Nb2 3.037834 1_555
Al3 Nb8 3.037834 1_565
Cu0 Cu2 2.658648 1_555
Cu0 Cu1 2.658648 1_555
Cu0 Cu3 2.658648 1_555
Cu0 Nb10 2.792813 1_655
Cu0 Nb9 2.792818 1_655
Cu0 Nb7 2.792818 1_655
Cu0 Nb2 3.054090 1_555
Cu0 Nb0 3.054090 1_555
Cu0 Nb5 3.054097 1_555
Cu1 Cu2 2.658648 1_555
Cu1 Cu3 2.658648 1_555
Cu1 Nb8 2.792814 1_565
Cu1 Nb11 2.792818 1_565
Cu1 Nb7 2.792818 1_565
Cu1 Nb4 3.054090 1_555
Cu1 Nb0 3.054090 1_555
Cu1 Nb3 3.054097 1_555
Cu2 Cu3 2.658648 1_555
Cu2 Nb6 2.792813 1_556
Cu2 Nb9 2.792818 1_556
Cu2 Nb11 2.792818 1_556
Cu2 Nb2 3.054090 1_555
Cu2 Nb4 3.054090 1_555
Cu2 Nb1 3.054097 1_555
Cu3 Nb6 2.792821 1_555
Cu3 Nb10 2.792822 1_555
Cu3 Nb8 2.792822 1_555
Cu3 Nb1 3.054093 1_555
Cu3 Nb5 3.054093 1_555
Cu3 Nb3 3.054094 1_555
Cu4 Cu6 2.658648 1_555
Cu4 Cu5 2.658648 1_555
Cu4 Cu7 2.658648 1_555
Cu4 Nb4 2.792813 1_555
Cu4 Nb3 2.792818 1_556
Cu4 Nb1 2.792818 1_565
Cu4 Nb8 3.054090 1_565
Cu4 Nb6 3.054090 1_556
Cu4 Nb11 3.054097 1_566
Cu5 Cu6 2.658648 1_555
Cu5 Cu7 2.658648 1_555
Cu5 Nb2 2.792814 1_555
Cu5 Nb5 2.792818 1_556
Cu5 Nb1 2.792818 1_655
Cu5 Nb10 3.054090 1_655
Cu5 Nb6 3.054090 1_556
Cu5 Nb9 3.054097 1_656
Cu6 Cu7 2.658648 1_555
Cu6 Nb0 2.792813 1_555
Cu6 Nb3 2.792818 1_655
Cu6 Nb5 2.792818 1_565
Cu6 Nb8 3.054090 1_565
Cu6 Nb10 3.054090 1_655
Cu6 Nb7 3.054097 1_665
Cu7 Nb0 2.792821 1_556
Cu7 Nb4 2.792822 1_655
Cu7 Nb2 2.792822 1_565
Cu7 Nb7 3.054093 1_665
Cu7 Nb11 3.054093 1_566
Cu7 Nb9 3.054094 1_656
C0 Nb8 2.167375 1_555
C0 Nb2 2.167375 1_554
C0 Nb6 2.167376 1_555
C0 Nb0 2.167376 1_545
C0 Nb5 2.167376 1_555
C0 Nb11 2.167376 1_555
C1 Nb10 2.167375 1_555
C1 Nb4 2.167375 1_554
C1 Nb6 2.167376 1_555
C1 Nb0 2.167376 1_455
C1 Nb3 2.167376 1_555
C1 Nb9 2.167376 1_555
C2 Nb8 2.167375 1_555
C2 Nb2 2.167375 1_455
C2 Nb10 2.167376 1_555
C2 Nb4 2.167376 1_545
C2 Nb1 2.167376 1_555
C2 Nb7 2.167376 1_555
C3 Nb7 2.167375 1_555
C3 Nb1 2.167375 1_554
C3 Nb11 2.167376 1_555
C3 Nb5 2.167376 1_455
C3 Nb9 2.167376 1_555
C3 Nb3 2.167376 1_545
