# generated using pymatgen
data_Y6Al13Os7W3
_symmetry_space_group_name_H-M   'P 1'
_cell_length_a   8.96096806
_cell_length_b   8.96096842
_cell_length_c   8.96096804
_cell_angle_alpha   59.60165352
_cell_angle_beta   59.60164090
_cell_angle_gamma   59.60164432
_symmetry_Int_Tables_number   1
_chemical_formula_structural   Y6Al13Os7W3
_chemical_formula_sum   'Y6 Al13 Os7 W3'
_cell_volume   504.19645037
_cell_formula_units_Z   1
loop_
 _symmetry_equiv_pos_site_id
 _symmetry_equiv_pos_as_xyz
  1  'x, y, z'
loop_
 _atom_site_type_symbol
 _atom_site_label
 _atom_site_symmetry_multiplicity
 _atom_site_fract_x
 _atom_site_fract_y
 _atom_site_fract_z
 _atom_site_occupancy
  Y  Y0  1  0.70866124  0.70866124  0.28578802  1
  Y  Y1  1  0.29402347  0.70762605  0.29402347  1
  Y  Y2  1  0.70762605  0.29402347  0.29402347  1
  Y  Y3  1  0.29402347  0.29402347  0.70762605  1
  Y  Y4  1  0.70866124  0.28578802  0.70866124  1
  Y  Y5  1  0.28578802  0.70866124  0.70866124  1
  Al  Al0  1  0.87979060  0.87979060  0.87979060  1
  Al  Al1  1  0.12169912  0.12169912  0.63848958  1
  Al  Al2  1  0.12169912  0.63848958  0.12169912  1
  Al  Al3  1  0.63848958  0.12169912  0.12169912  1
  Al  Al4  1  0.12214697  0.12214597  0.12214697  1
  Al  Al5  1  0.66986360  0.66986360  0.99443108  1
  Al  Al6  1  0.66986360  0.99443108  0.66986360  1
  Al  Al7  1  0.99443108  0.66986360  0.66986360  1
  Al  Al8  1  0.66419984  0.66419984  0.66419984  1
  Al  Al9  1  0.32941010  0.32941010  0.01323032  1
  Al  Al10  1  0.32941010  0.01323032  0.32941010  1
  Al  Al11  1  0.01323032  0.32941010  0.32941010  1
  Al  Al12  1  0.33031897  0.33031997  0.33031897  1
  Os  Os0  1  0.00504875  0.00504875  0.00504875  1
  Os  Os1  1  0.99606981  0.99606981  0.49569911  1
  Os  Os2  1  0.50573959  0.99378713  0.50573959  1
  Os  Os3  1  0.99378713  0.50573959  0.50573859  1
  Os  Os4  1  0.50573959  0.50573959  0.99378713  1
  Os  Os5  1  0.99606981  0.49569911  0.99606981  1
  Os  Os6  1  0.49569911  0.99606981  0.99606981  1
  W  W0  1  0.87723275  0.87723375  0.36404523  1
  W  W1  1  0.87723375  0.36404523  0.87723375  1
  W  W2  1  0.36404523  0.87723375  0.87723375  1
loop_
_geom_bond_atom_site_label_1
_geom_bond_atom_site_label_2
_geom_bond_distance
_geom_bond_site_symmetry_2
Y0 Y1 3.683420 1_555
Y0 Y2 3.683420 1_555
Y0 Y5 3.766514 1_555
Y0 Y4 3.766515 1_555
Y1 Y5 3.683420 1_555
Y1 Y2 3.683941 1_555
Y1 Y3 3.683942 1_555
Y2 Y4 3.683420 1_555
Y2 Y3 3.683941 1_555
Y3 Y4 3.683420 1_555
Y3 Y5 3.683420 1_555
Y4 Y5 3.766514 1_555
Al0 Os0 2.757639 1_666
Al0 Al7 2.793313 1_555
Al0 Al5 2.793313 1_555
Al0 Al6 2.793313 1_555
Al0 Os6 2.803138 1_555
Al0 Os1 2.803138 1_555
Al0 Os5 2.803138 1_555
Al0 Y5 3.004471 1_655
Al0 Y0 3.004471 1_556
Al0 Y4 3.004471 1_565
Al0 Al3 3.056466 1_566
Al0 Al1 3.056466 1_665
Al0 Al2 3.056467 1_656
Al1 Os0 2.670381 1_556
Al1 Al12 2.775484 1_555
Al1 Al10 2.785062 1_555
Al1 Al11 2.785062 1_555
Al1 Os2 2.795875 1_545
Al1 Os3 2.795876 1_455
Al1 Os1 2.893095 1_445
Al1 W1 3.039135 1_455
Al1 W2 3.039135 1_545
Al1 Y4 3.054375 1_455
Al1 Y5 3.054376 1_545
Al1 Y3 3.082598 1_555
Al2 Os0 2.670381 1_565
Al2 Al9 2.785062 1_555
Al2 Os3 2.795868 1_455
Al2 Os4 2.795875 1_554
Al2 Os5 2.893095 1_454
Al2 W0 3.039135 1_455
Al2 W2 3.039135 1_554
Al2 Y0 3.054375 1_455
Al2 Y5 3.054375 1_554
Al2 Y1 3.082598 1_555
Al3 Os0 2.670380 1_655
Al3 Al9 2.785062 1_555
Al3 Os2 2.795875 1_545
Al3 Os4 2.795875 1_554
Al3 Os6 2.893095 1_544
Al3 W0 3.039129 1_545
Al3 W1 3.039135 1_554
Al3 Y4 3.054376 1_554
Al3 Y0 3.054376 1_545
Al3 Y2 3.082598 1_555
Al4 Os0 2.577986 1_555
Al4 Os6 2.719381 1_544
Al4 Os1 2.719381 1_445
Al4 Os5 2.719389 1_454
Al4 Al9 2.770117 1_555
Al4 Y1 3.059898 1_545
Al4 Y2 3.059905 1_455
Al4 Y3 3.059905 1_554
Al4 W2 3.094720 1_544
Al4 W1 3.094726 1_454
Al4 W0 3.094727 1_445
Al5 Os5 2.526648 1_555
Al5 Os6 2.526648 1_555
Al5 Os4 2.555811 1_555
Al5 W1 2.801779 1_555
Al5 W2 2.801779 1_555
Al5 Al7 2.890909 1_555
Al5 Al6 2.890910 1_555
Al5 Y0 3.002959 1_556
Al5 Al8 3.011405 1_555
Al5 Y1 3.046353 1_556
Al5 Y2 3.046353 1_556
Al6 Os6 2.526648 1_555
Al6 Os1 2.526648 1_555
Al6 Os2 2.555811 1_555
Al6 W0 2.801779 1_555
Al6 W2 2.801779 1_555
Al6 Al7 2.890909 1_555
Al6 Y4 3.002959 1_565
Al6 Al8 3.011405 1_555
Al6 Y3 3.046353 1_565
Al6 Y2 3.046353 1_565
Al7 Os5 2.526648 1_555
Al7 Os1 2.526648 1_555
Al7 Os3 2.555819 1_555
Al7 W1 2.801779 1_555
Al7 W0 2.801784 1_555
Al7 Y5 3.002959 1_655
Al7 Al8 3.011405 1_555
Al7 Y1 3.046353 1_655
Al7 Y3 3.046353 1_655
Al8 Os4 2.511474 1_555
Al8 Os2 2.511474 1_555
Al8 Os3 2.511476 1_555
Al8 W0 2.796125 1_555
Al8 W2 2.796129 1_555
Al8 W1 2.796130 1_555
Al8 Y5 3.040078 1_555
Al8 Y0 3.040079 1_555
Al8 Y4 3.040079 1_555
Al9 Os5 2.625830 1_454
Al9 Os6 2.625830 1_544
Al9 Os4 2.644454 1_554
Al9 Y4 3.082148 1_554
Al9 Y5 3.082148 1_554
Al9 Y3 3.091913 1_554
Al10 Os6 2.625830 1_544
Al10 Os1 2.625830 1_445
Al10 Os2 2.644454 1_545
Al10 Al4 2.770112 1_555
Al10 Al3 2.785062 1_555
Al10 Al11 2.816200 1_555
Al10 Al9 2.816201 1_555
Al10 Al12 2.849696 1_555
Al10 Y0 3.082148 1_545
Al10 Y5 3.082148 1_545
Al10 Y1 3.091913 1_545
Al11 Os5 2.625830 1_454
Al11 Os1 2.625830 1_445
Al11 Os3 2.644446 1_455
Al11 Al4 2.770117 1_555
Al11 Al2 2.785062 1_555
Al11 Al9 2.816200 1_555
Al11 Al12 2.849691 1_555
Al11 Y4 3.082148 1_455
Al11 Y0 3.082148 1_455
Al11 Y2 3.091913 1_455
Al12 Os3 2.634770 1_455
Al12 Os4 2.634773 1_554
Al12 Os2 2.634781 1_545
Al12 Al2 2.775477 1_555
Al12 Al3 2.775484 1_555
Al12 Al9 2.849691 1_555
Al12 Y1 3.086135 1_555
Al12 Y2 3.086140 1_555
Al12 Y3 3.086140 1_555
Os0 W2 2.615799 1_544
Os0 W1 2.615800 1_454
Os0 W0 2.615800 1_445
Os1 W0 2.711126 1_555
Os1 Y1 3.152077 1_655
Os1 Y2 3.152078 1_565
Os1 Y4 3.207510 1_565
Os1 Y5 3.207511 1_655
Os2 W0 2.707522 1_555
Os2 W2 2.707530 1_555
Os2 Y3 3.224464 1_565
Os2 Y2 3.224464 1_565
Os2 Y0 3.238337 1_555
Os2 Y5 3.238338 1_555
Os3 W0 2.707530 1_555
Os3 W1 2.707537 1_555
Os3 Y1 3.224465 1_655
Os3 Y3 3.224470 1_655
Os3 Y0 3.238331 1_555
Os3 Y4 3.238336 1_555
Os4 W1 2.707530 1_555
Os4 W2 2.707530 1_555
Os4 Y1 3.224463 1_556
Os4 Y2 3.224464 1_556
Os4 Y4 3.238337 1_555
Os4 Y5 3.238338 1_555
Os5 W1 2.711119 1_555
Os5 Y3 3.152077 1_655
Os5 Y2 3.152078 1_556
Os5 Y0 3.207510 1_556
Os5 Y5 3.207511 1_655
Os6 W2 2.711119 1_555
Os6 Y1 3.152078 1_556
Os6 Y3 3.152078 1_565
Os6 Y4 3.207511 1_565
Os6 Y0 3.207511 1_556
W0 Y2 3.082457 1_565
W0 Y1 3.082464 1_655
W0 Y0 3.083619 1_555
W1 Y3 3.082456 1_655
W1 Y2 3.082456 1_556
W1 Y4 3.083626 1_555
W2 Y1 3.082457 1_556
W2 Y3 3.082457 1_565
W2 Y5 3.083626 1_555
