# generated using pymatgen
data_BeAu
_symmetry_space_group_name_H-M   'P 1'
_cell_length_a   4.68699058
_cell_length_b   4.68699058
_cell_length_c   4.68699058
_cell_angle_alpha   90.00000000
_cell_angle_beta   90.00000000
_cell_angle_gamma   90.00000000
_symmetry_Int_Tables_number   1
_chemical_formula_structural   BeAu
_chemical_formula_sum   'Be4 Au4'
_cell_volume   102.96324989
_cell_formula_units_Z   4
loop_
 _symmetry_equiv_pos_site_id
 _symmetry_equiv_pos_as_xyz
  1  'x, y, z'
loop_
 _atom_site_type_symbol
 _atom_site_label
 _atom_site_symmetry_multiplicity
 _atom_site_fract_x
 _atom_site_fract_y
 _atom_site_fract_z
 _atom_site_occupancy
  Be  Be0  1  0.15394789  0.34605211  0.65394789  1
  Be  Be1  1  0.34605211  0.65394789  0.15394789  1
  Be  Be2  1  0.65394789  0.15394789  0.34605211  1
  Be  Be3  1  0.84605211  0.84605211  0.84605211  1
  Au  Au0  1  0.84706583  0.65293417  0.34706583  1
  Au  Au1  1  0.65293417  0.34706583  0.84706583  1
  Au  Au2  1  0.34706583  0.84706583  0.65293417  1
  Au  Au3  1  0.15293417  0.15293417  0.15293417  1
loop_
_geom_bond_atom_site_label_1
_geom_bond_atom_site_label_2
_geom_bond_distance
_geom_bond_site_symmetry_2
Be0 Be2 2.895725 1_555
Be0 Be2 2.895725 1_455
Be0 Be1 2.895725 1_556
Be0 Be3 2.895725 1_455
Be0 Be1 2.895725 1_555
Be0 Be3 2.895725 1_445
Be1 Be3 2.895725 1_554
Be1 Be2 2.895725 1_555
Be1 Be2 2.895725 1_565
Be1 Be3 2.895725 1_454
Be2 Be3 2.895725 1_545
Be2 Be3 2.895725 1_544
Au0 Be0 2.491301 1_655
Au0 Be2 2.507793 1_555
Au0 Be1 2.507793 1_655
Au0 Be3 2.507793 1_555
Au0 Be1 2.516658 1_555
Au0 Be2 2.516658 1_565
Au0 Be3 2.516658 1_554
Au0 Au2 2.893975 1_555
Au0 Au2 2.893975 1_655
Au0 Au3 2.893975 1_655
Au0 Au3 2.893975 1_665
Au0 Au1 2.893975 1_555
Au0 Au1 2.893975 1_554
Au1 Be1 2.491301 1_556
Au1 Be3 2.507793 1_555
Au1 Be0 2.507793 1_555
Au1 Be2 2.507793 1_556
Au1 Be2 2.516658 1_555
Au1 Be3 2.516658 1_545
Au1 Be0 2.516658 1_655
Au1 Au3 2.893975 1_556
Au1 Au3 2.893975 1_656
Au1 Au2 2.893975 1_545
Au1 Au2 2.893975 1_555
Au2 Be2 2.491301 1_565
Au2 Be0 2.507793 1_565
Au2 Be3 2.507793 1_555
Au2 Be1 2.507793 1_555
Au2 Be3 2.516658 1_455
Au2 Be1 2.516658 1_556
Au2 Be0 2.516658 1_555
Au2 Au3 2.893975 1_565
Au2 Au3 2.893975 1_566
Au3 Be3 2.491301 1_444
Au3 Be1 2.507793 1_545
Au3 Be2 2.507793 1_455
Au3 Be0 2.507793 1_554
Au3 Be0 2.516658 1_555
Au3 Be1 2.516658 1_555
Au3 Be2 2.516658 1_555
