# generated using pymatgen
data_Nd3NbO7
_symmetry_space_group_name_H-M   'P 1'
_cell_length_a   6.64801780
_cell_length_b   6.64801780
_cell_length_c   7.70319769
_cell_angle_alpha   90.00000000
_cell_angle_beta   90.00000000
_cell_angle_gamma   111.36528280
_symmetry_Int_Tables_number   1
_chemical_formula_structural   Nd3NbO7
_chemical_formula_sum   'Nd6 Nb2 O14'
_cell_volume   317.05466261
_cell_formula_units_Z   2
loop_
 _symmetry_equiv_pos_site_id
 _symmetry_equiv_pos_as_xyz
  1  'x, y, z'
loop_
 _atom_site_type_symbol
 _atom_site_label
 _atom_site_symmetry_multiplicity
 _atom_site_fract_x
 _atom_site_fract_y
 _atom_site_fract_z
 _atom_site_occupancy
  Nd  Nd0  1  0.92862226  0.47731075  0.75000000  1
  Nd  Nd1  1  0.07137774  0.52268925  0.25000000  1
  Nd  Nd2  1  0.00000000  0.00000000  0.50000000  1
  Nd  Nd3  1  0.00000000  0.00000000  -0.00000000  1
  Nd  Nd4  1  0.52268925  0.07137774  0.25000000  1
  Nd  Nd5  1  0.47731075  0.92862226  0.75000000  1
  Nb  Nb0  1  0.50000000  0.50000000  -0.00000000  1
  Nb  Nb1  1  0.50000000  0.50000000  0.50000000  1
  O  O0  1  0.57378582  0.57378582  0.75000000  1
  O  O1  1  0.42621418  0.42621418  0.25000000  1
  O  O2  1  0.84553565  0.10758601  0.75000000  1
  O  O3  1  0.15446435  0.89241399  0.25000000  1
  O  O4  1  0.10758601  0.84553565  0.75000000  1
  O  O5  1  0.89241399  0.15446435  0.25000000  1
  O  O6  1  0.43795581  0.18406675  0.96425104  1
  O  O7  1  0.56204419  0.81593325  0.46425104  1
  O  O8  1  0.18406675  0.43795581  0.96425104  1
  O  O9  1  0.81593325  0.56204419  0.46425104  1
  O  O10  1  0.43795581  0.18406675  0.53574896  1
  O  O11  1  0.56204419  0.81593325  0.03574896  1
  O  O12  1  0.81593325  0.56204419  0.03574896  1
  O  O13  1  0.18406675  0.43795581  0.53574896  1
loop_
_geom_bond_atom_site_label_1
_geom_bond_atom_site_label_2
_geom_bond_distance
_geom_bond_site_symmetry_2
Nd0 O4 2.299119 1_655
Nd0 O2 2.314589 1_555
Nd0 O13 2.449478 1_655
Nd0 O8 2.449478 1_655
Nd0 O9 2.455858 1_555
Nd0 O12 2.455858 1_556
Nd0 O0 2.660530 1_555
Nd1 O5 2.299119 1_455
Nd1 O3 2.314589 1_555
Nd1 O12 2.449478 1_455
Nd1 O9 2.449478 1_455
Nd1 O8 2.455858 1_554
Nd1 O13 2.455858 1_555
Nd1 O1 2.660530 1_555
Nd2 O4 2.410372 1_545
Nd2 O5 2.410372 1_455
Nd2 O3 2.410372 1_545
Nd2 O2 2.410372 1_455
Nd2 O7 2.730264 1_445
Nd2 O9 2.730264 1_445
Nd2 O13 2.730264 1_555
Nd2 O10 2.730264 1_555
Nd3 O4 2.410372 1_544
Nd3 O5 2.410372 1_455
Nd3 O3 2.410372 1_545
Nd3 O2 2.410372 1_454
Nd3 O8 2.730264 1_554
Nd3 O11 2.730264 1_445
Nd3 O6 2.730264 1_554
Nd3 O12 2.730264 1_445
Nd4 O3 2.299119 1_545
Nd4 O5 2.314589 1_555
Nd4 O7 2.449478 1_545
Nd4 O11 2.449478 1_545
Nd4 O6 2.455858 1_554
Nd4 O10 2.455858 1_555
Nd4 O1 2.660530 1_555
Nd5 O2 2.299119 1_565
Nd5 O4 2.314589 1_555
Nd5 O10 2.449478 1_565
Nd5 O6 2.449478 1_565
Nd5 O7 2.455858 1_555
Nd5 O11 2.455858 1_556
Nd5 O0 2.660530 1_555
Nb0 O0 2.003652 1_554
Nb0 O1 2.003652 1_555
Nb0 O6 2.006521 1_554
Nb0 O8 2.006521 1_554
Nb0 O11 2.006521 1_555
Nb0 O12 2.006521 1_555
Nb1 O0 2.003652 1_555
Nb1 O1 2.003652 1_555
Nb1 O13 2.006521 1_555
Nb1 O7 2.006521 1_555
Nb1 O10 2.006521 1_555
Nb1 O9 2.006521 1_555
O0 O9 2.744869 1_555
O0 O7 2.744869 1_555
O0 O11 2.744869 1_556
O0 O12 2.744869 1_556
O1 O6 2.744869 1_554
O1 O8 2.744869 1_554
O1 O13 2.744869 1_555
O1 O10 2.744869 1_555
O2 O4 2.877722 1_645
O2 O8 3.001853 1_655
O3 O5 2.877722 1_465
O3 O9 3.001853 1_455
O4 O6 3.001853 1_565
O5 O7 3.001853 1_545
O6 O8 2.788098 1_555
O7 O9 2.788098 1_555
O10 O13 2.788098 1_555
O10 O4 3.001853 1_545
O11 O12 2.788098 1_555
O11 O5 3.001853 1_565
O12 O3 3.001853 1_655
O13 O2 3.001853 1_455
