# generated using pymatgen
data_Li4B4Ir3Os
_symmetry_space_group_name_H-M   'P 1'
_cell_length_a   6.90549259
_cell_length_b   6.05499771
_cell_length_c   5.52636785
_cell_angle_alpha   73.04372785
_cell_angle_beta   57.00517222
_cell_angle_gamma   49.95247586
_symmetry_Int_Tables_number   1
_chemical_formula_structural   Li4B4Ir3Os
_chemical_formula_sum   'Li4 B4 Ir3 Os1'
_cell_volume   147.73771519
_cell_formula_units_Z   1
loop_
 _symmetry_equiv_pos_site_id
 _symmetry_equiv_pos_as_xyz
  1  'x, y, z'
loop_
 _atom_site_type_symbol
 _atom_site_label
 _atom_site_symmetry_multiplicity
 _atom_site_fract_x
 _atom_site_fract_y
 _atom_site_fract_z
 _atom_site_occupancy
  Li  Li0  1  0.12821216  0.62508677  0.62753530  1
  Li  Li1  1  0.62615879  0.62637626  0.62365409  1
  Li  Li2  1  0.62637626  0.62615879  0.12381086  1
  Li  Li3  1  0.62508677  0.12821216  0.61916678  1
  B  B0  1  0.42309217  0.08072092  0.42847025  1
  B  B1  1  0.17778329  0.81752565  0.18439710  1
  B  B2  1  0.08072092  0.42309217  0.06771566  1
  B  B3  1  0.81752565  0.17778329  0.82029396  1
  Ir  Ir0  1  0.86468186  0.86468186  0.13531814  1
  Ir  Ir1  1  0.13201264  0.13201264  0.86798736  1
  Ir  Ir2  1  0.11508364  0.11508364  0.38491636  1
  Os  Os0  1  0.38326585  0.38326585  0.11673415  1
loop_
_geom_bond_atom_site_label_1
_geom_bond_atom_site_label_2
_geom_bond_distance
_geom_bond_site_symmetry_2
Li0 Os0 2.625250 1_555
Li0 Li3 2.729631 1_555
Li0 Li3 2.797550 1_465
Li0 Li2 3.026738 1_456
Li0 Li2 3.028500 1_555
Li1 Li2 2.761884 1_555
Li1 Li2 2.764484 1_556
Li1 Os0 2.874929 1_556
Li1 Li3 3.026740 1_565
Li1 Li3 3.028498 1_555
Li2 Os0 2.874929 1_555
Li3 Os0 2.625245 1_556
B0 Ir1 2.087037 1_555
B0 Ir0 2.087343 1_545
B0 Os0 2.103886 1_555
B0 Ir2 2.141032 1_555
B0 Li3 2.330862 1_555
B0 Li1 2.377056 1_545
B0 Li0 2.694309 1_555
B0 Li2 2.745485 1_545
B1 Os0 2.064350 1_555
B1 Ir2 2.073586 1_565
B1 Ir0 2.151497 1_455
B1 Ir1 2.160741 1_564
B1 Li0 2.325526 1_555
B1 Li2 2.351261 1_555
B1 Li3 2.699650 1_465
B1 Li1 2.749508 1_554
B2 Ir1 2.087033 1_554
B2 Ir0 2.087343 1_455
B2 Os0 2.103890 1_555
B2 Ir2 2.141035 1_555
B2 Li0 2.330853 1_554
B2 Li2 2.377054 1_455
B2 Li3 2.694305 1_554
B2 Li1 2.745488 1_455
B3 Os0 2.064350 1_556
B3 Ir2 2.073586 1_655
B3 Ir0 2.151497 1_546
B3 Ir1 2.160741 1_655
B3 Li3 2.325521 1_555
B3 Li1 2.351261 1_555
B3 Li0 2.699648 1_645
B3 Li2 2.749508 1_556
Ir0 Li0 2.589679 1_654
Ir0 Li3 2.589683 1_565
Ir0 Li1 2.832661 1_555
Ir0 Li2 2.832661 1_555
Ir1 Li1 2.605729 1_545
Ir1 Li2 2.605729 1_456
Ir1 Li0 2.881518 1_555
Ir1 Li3 2.881520 1_555
Ir2 Li1 2.608546 1_455
Ir2 Li2 2.608546 1_545
Ir2 Li3 2.841576 1_455
Ir2 Li0 2.841576 1_545
