# generated using pymatgen
data_U4N7
_symmetry_space_group_name_H-M   'P 1'
_cell_length_a   9.21715586
_cell_length_b   9.21759078
_cell_length_c   9.21705173
_cell_angle_alpha   109.36467599
_cell_angle_beta   109.36288275
_cell_angle_gamma   109.68462745
_symmetry_Int_Tables_number   1
_chemical_formula_structural   U4N7
_chemical_formula_sum   'U16 N28'
_cell_volume   602.82185712
_cell_formula_units_Z   4
loop_
 _symmetry_equiv_pos_site_id
 _symmetry_equiv_pos_as_xyz
  1  'x, y, z'
loop_
 _atom_site_type_symbol
 _atom_site_label
 _atom_site_symmetry_multiplicity
 _atom_site_fract_x
 _atom_site_fract_y
 _atom_site_fract_z
 _atom_site_occupancy
  U  U0  1  0.77277537  -0.00125220  0.25612569  1
  U  U1  1  0.25844989  0.23211915  0.49999129  1
  U  U2  1  0.49875367  0.27277035  0.25612642  1
  U  U3  1  0.47699680  0.97698326  0.49999485  1
  U  U4  1  0.73218047  0.75847847  0.49999582  1
  U  U5  1  0.97701027  0.47699550  0.49997776  1
  U  U6  1  0.74259762  0.51664851  0.74385787  1
  U  U7  1  0.51664159  0.77277331  0.77401884  1
  U  U8  1  0.27280227  0.01663620  0.77404227  1
  U  U9  1  0.00336836  0.00337050  -0.00000054  1
  U  U10  1  0.23214292  0.73214162  0.97367803  1
  U  U11  1  0.50340094  0.50337976  -0.00000503  1
  U  U12  1  0.01664128  0.24258985  0.74384580  1
  U  U13  1  0.75848291  0.25848205  0.02629675  1
  U  U14  1  0.24260565  0.49873741  0.22598441  1
  U  U15  1  -0.00127247  0.74257585  0.22594690  1
  N  N0  1  0.77826914  0.75006094  0.26750001  1
  N  N1  1  0.50391857  0.23221587  0.50001666  1
  N  N2  1  0.49248120  0.51876113  0.24378867  1
  N  N3  1  0.73223054  0.00407048  0.49998173  1
  N  N4  1  0.75717373  0.53170616  0.49999545  1
  N  N5  1  0.25006148  0.27830835  0.26766958  1
  N  N6  1  0.45809391  0.72998934  0.49999461  1
  N  N7  1  0.00412652  0.50415284  0.27190533  1
  N  N8  1  0.22998514  0.95818431  0.49997044  1
  N  N9  1  0.98258487  0.25003909  0.97180359  1
  N  N10  1  0.53165773  0.03163873  0.77449362  1
  N  N11  1  0.95815706  0.45814415  0.72813864  1
  N  N12  1  0.74868526  0.77496240  0.75620690  1
  N  N13  1  0.23224102  0.73221140  0.72820620  1
  N  N14  1  0.01077028  0.98254419  0.73248341  1
  N  N15  1  0.48241544  0.51069083  0.73236407  1
  N  N16  1  0.77496018  0.01867161  0.02626132  1
  N  N17  1  0.03181931  0.25714858  0.49998594  1
  N  N18  1  0.75004667  0.48263535  0.97181992  1
  N  N19  1  0.01884942  0.99259380  0.24391292  1
  N  N20  1  0.51071794  0.77827272  0.02821349  1
  N  N21  1  0.27496576  0.24870394  0.75606858  1
  N  N22  1  0.73001066  0.22998223  0.27193116  1
  N  N23  1  0.27829032  0.01071627  0.02823171  1
  N  N24  1  0.99254096  0.74873268  0.97377004  1
  N  N25  1  0.24873298  0.49253721  0.97374524  1
  N  N26  1  0.51871180  0.27498004  0.02625518  1
  N  N27  1  0.25714158  0.75713673  0.22540550  1
loop_
_geom_bond_atom_site_label_1
_geom_bond_atom_site_label_2
_geom_bond_distance
_geom_bond_site_symmetry_2
N0 U15 2.207589 1_655
N0 U4 2.300912 1_555
N0 U0 2.345680 1_565
N0 U11 2.434572 1_555
N0 N2 2.656661 1_555
N0 N19 2.695275 1_655
N0 N3 2.863350 1_565
N0 N18 2.866028 1_554
N0 N20 2.866913 1_555
N1 U1 2.262145 1_555
N1 U3 2.280966 1_545
N1 U6 2.385966 1_555
N1 U2 2.386120 1_555
N1 N5 2.862166 1_555
N1 N15 2.862360 1_555
N2 U14 2.192801 1_555
N2 U11 2.242279 1_555
N2 U4 2.265268 1_555
N2 U2 2.326482 1_555
N2 N26 2.612952 1_555
N2 N25 2.613083 1_554
N2 N5 2.695703 1_555
N2 N6 2.707547 1_555
N2 N4 2.709184 1_555
N3 U4 2.263654 1_545
N3 U3 2.280622 1_545
N3 U0 2.385398 1_555
N3 U12 2.385553 1_655
N4 U4 2.178715 1_555
N4 U5 2.246920 1_555
N4 U6 2.341794 1_555
N4 U2 2.341926 1_555
N5 U14 2.207921 1_555
N5 U1 2.299887 1_555
N5 U2 2.346318 1_555
N5 U9 2.435408 1_555
N5 N9 2.867133 1_454
N6 U3 2.224058 1_555
N6 U7 2.262339 1_555
N6 U14 2.262414 1_555
N6 U4 2.450346 1_555
N7 U13 2.264200 1_455
N7 U5 2.280220 1_455
N7 U15 2.385120 1_555
N7 U14 2.385394 1_555
N7 N9 2.864060 1_454
N8 U3 2.224286 1_555
N8 U15 2.262698 1_555
N8 U8 2.262849 1_565
N8 U1 2.449062 1_565
N9 U12 2.207726 1_655
N9 U13 2.301148 1_556
N9 U14 2.345560 1_656
N9 U9 2.434374 1_656
N10 U13 2.179168 1_556
N10 U3 2.246634 1_545
N10 U8 2.341468 1_555
N10 U7 2.341561 1_545
N10 N16 2.709628 1_556
N10 N26 2.709671 1_556
N10 N6 2.742121 1_545
N10 N8 2.742733 1_545
N11 U5 2.224228 1_555
N11 U12 2.262706 1_655
N11 U6 2.262795 1_555
N11 U10 2.449668 1_655
N11 N25 2.707404 1_655
N11 N24 2.707665 1_555
N11 N4 2.742631 1_555
N11 N17 2.743379 1_655
N12 U7 2.192649 1_555
N12 U9 2.242266 1_666
N12 U4 2.265220 1_555
N12 U6 2.326253 1_555
N12 N16 2.612726 1_566
N12 N24 2.613521 1_555
N12 N14 2.656738 1_655
N12 N15 2.695414 1_555
N12 N6 2.707614 1_555
N12 N4 2.709192 1_555
N13 U10 2.263040 1_555
N13 U5 2.280782 1_455
N13 U7 2.385518 1_555
N13 U8 2.385804 1_565
N13 N20 2.862803 1_556
N13 N23 2.863108 1_566
N14 U8 2.207721 1_565
N14 U4 2.301009 1_455
N14 U12 2.345605 1_565
N14 U9 2.434687 1_566
N14 N21 2.695664 1_565
N14 N3 2.863553 1_465
N14 N9 2.866593 1_465
N14 N23 2.867110 1_566
N15 U7 2.207727 1_555
N15 U1 2.300476 1_555
N15 U6 2.346118 1_555
N15 U11 2.435063 1_556
N15 N21 2.655505 1_555
N15 N18 2.867269 1_555
N15 N20 2.867382 1_556
N16 U0 2.192426 1_555
N16 U9 2.241867 1_655
N16 U13 2.266050 1_555
N16 U7 2.326112 1_544
N16 N19 2.613245 1_645
N16 N9 2.657023 1_554
N16 N20 2.694836 1_545
N16 N22 2.708074 1_555
N17 U1 2.177451 1_555
N17 U5 2.247553 1_455
N17 U12 2.342111 1_555
N17 U0 2.342197 1_455
N17 N19 2.707624 1_545
N17 N21 2.707680 1_555
N17 N22 2.742966 1_455
N18 U6 2.207597 1_555
N18 U13 2.301629 1_556
N18 U15 2.345082 1_656
N18 U11 2.433849 1_556
N18 N26 2.656819 1_556
N18 N24 2.694991 1_555
N18 N7 2.863932 1_656
N19 U15 2.193500 1_555
N19 U9 2.242631 1_565
N19 U1 2.263991 1_565
N19 U0 2.326353 1_465
N19 N24 2.613805 1_454
N19 N5 2.655661 1_565
N19 N8 2.706385 1_555
N20 U0 2.207834 1_565
N20 U10 2.300713 1_554
N20 U7 2.345800 1_554
N20 U11 2.434912 1_555
N20 N25 2.656049 1_554
N21 U8 2.193644 1_555
N21 U11 2.242739 1_556
N21 U1 2.263679 1_555
N21 U12 2.326506 1_555
N21 N26 2.613667 1_556
N21 N25 2.613948 1_555
N21 N8 2.706666 1_545
N22 U5 2.224020 1_555
N22 U0 2.262237 1_555
N22 U2 2.262468 1_555
N22 U13 2.450643 1_555
N22 N26 2.708382 1_555
N22 N4 2.742491 1_555
N23 U2 2.207768 1_555
N23 U10 2.300745 1_544
N23 U8 2.345776 1_554
N23 U9 2.434939 1_555
N23 N24 2.656131 1_444
N23 N26 2.695217 1_555
N23 N5 2.867974 1_555
N24 U6 2.193333 1_555
N24 U9 2.242186 1_666
N24 U10 2.264800 1_655
N24 U15 2.326099 1_656
N24 N27 2.708524 1_656
N25 U12 2.193343 1_555
N25 U11 2.242263 1_556
N25 U10 2.264851 1_555
N25 U14 2.326532 1_556
N25 N9 2.695330 1_455
N25 N27 2.708632 1_556
N26 U2 2.192678 1_555
N26 U11 2.241918 1_555
N26 U13 2.265645 1_555
N26 U8 2.326142 1_554
N27 U10 2.178227 1_554
N27 U3 2.247205 1_555
N27 U15 2.341831 1_555
N27 U14 2.341999 1_555
N27 N6 2.742725 1_555
N27 N8 2.742936 1_555
