# generated using pymatgen
data_Y6Al24Os7Au
_symmetry_space_group_name_H-M   'P 1'
_cell_length_a   8.80693015
_cell_length_b   8.80693149
_cell_length_c   9.52086724
_cell_angle_alpha   89.90166648
_cell_angle_beta   90.09833259
_cell_angle_gamma   119.85506981
_symmetry_Int_Tables_number   1
_chemical_formula_structural   Y6Al24Os7Au
_chemical_formula_sum   'Y6 Al24 Os7 Au1'
_cell_volume   640.45387209
_cell_formula_units_Z   1
loop_
 _symmetry_equiv_pos_site_id
 _symmetry_equiv_pos_as_xyz
  1  'x, y, z'
loop_
 _atom_site_type_symbol
 _atom_site_label
 _atom_site_symmetry_multiplicity
 _atom_site_fract_x
 _atom_site_fract_y
 _atom_site_fract_z
 _atom_site_occupancy
  Y  Y0  1  0.18947380  0.38355197  0.25058182  1
  Y  Y1  1  0.81052620  0.61644803  0.74941818  1
  Y  Y2  1  0.61644803  0.81052620  0.25058182  1
  Y  Y3  1  0.38355197  0.18947380  0.74941818  1
  Y  Y4  1  0.19399920  0.80600080  0.25368319  1
  Y  Y5  1  0.80600080  0.19399920  0.74631681  1
  Al  Al0  1  0.32854021  0.67145979  0.01670151  1
  Al  Al1  1  0.67145979  0.32854021  0.98329849  1
  Al  Al2  1  0.66650331  0.33349669  0.51558536  1
  Al  Al3  1  0.33349669  0.66650331  0.48441464  1
  Al  Al4  1  0.16350050  0.32658057  0.57476820  1
  Al  Al5  1  0.83649950  0.67341943  0.42523180  1
  Al  Al6  1  0.67341943  0.83649950  0.57476820  1
  Al  Al7  1  0.84778323  0.67673594  0.07930160  1
  Al  Al8  1  0.32658057  0.16350050  0.42523180  1
  Al  Al9  1  0.15221677  0.32326406  0.92069840  1
  Al  Al10  1  0.16378845  0.83621155  0.57661391  1
  Al  Al11  1  0.32326406  0.15221677  0.07930160  1
  Al  Al12  1  0.83621155  0.16378845  0.42338609  1
  Al  Al13  1  0.67673594  0.84778323  0.92069840  1
  Al  Al14  1  0.83664535  0.16335465  0.07665959  1
  Al  Al15  1  0.16335465  0.83664535  0.92334041  1
  Al  Al16  1  0.56152987  0.12244024  0.24942602  1
  Al  Al17  1  0.43847013  0.87755976  0.75057398  1
  Al  Al18  1  0.87755976  0.43847013  0.24942602  1
  Al  Al19  1  0.12244024  0.56152987  0.75057398  1
  Al  Al20  1  0.56379085  0.43620915  0.25544929  1
  Al  Al21  1  0.43620915  0.56379085  0.74455071  1
  Al  Al22  1  0.99967902  0.00032098  0.25034210  1
  Al  Al23  1  0.00032098  0.99967902  0.74965790  1
  Os  Os0  1  0.50000000  0.00000000  0.00000000  1
  Os  Os1  1  0.00000000  0.50000000  0.00000000  1
  Os  Os2  1  0.50000000  0.00000000  0.50000000  1
  Os  Os3  1  0.00000000  0.50000000  0.50000000  1
  Os  Os4  1  0.50000000  0.50000000  0.50000000  1
  Os  Os5  1  0.00000000  0.00000000  0.00000000  1
  Os  Os6  1  0.00000000  0.00000000  0.50000000  1
  Au  Au0  1  0.50000000  0.50000000  0.00000000  1
loop_
_geom_bond_atom_site_label_1
_geom_bond_atom_site_label_2
_geom_bond_distance
_geom_bond_site_symmetry_2
Y0 Y4 3.700967 1_555
Y1 Y5 3.700967 1_555
Y2 Y4 3.700967 1_555
Y3 Y5 3.700967 1_555
Al0 Os1 2.515284 1_555
Al0 Os0 2.515284 1_565
Al0 Au0 2.618692 1_555
Al0 Al15 2.668536 1_554
Al0 Al13 2.813218 1_554
Al0 Al9 2.813219 1_554
Al0 Al19 2.982438 1_554
Al0 Al17 2.982438 1_554
Al0 Y4 3.052028 1_555
Al0 Al21 3.069889 1_554
Al0 Y2 3.128214 1_555
Al0 Y0 3.128215 1_555
Al1 Os1 2.515284 1_656
Al1 Os0 2.515284 1_556
Al1 Au0 2.618692 1_556
Al1 Al14 2.668536 1_556
Al1 Al11 2.813218 1_556
Al1 Al7 2.813219 1_556
Al1 Al18 2.982438 1_556
Al1 Al16 2.982438 1_556
Al1 Y5 3.052028 1_555
Al1 Al20 3.069889 1_556
Al1 Y3 3.128214 1_555
Al1 Y1 3.128215 1_555
Al2 Os4 2.542034 1_555
Al2 Os3 2.551763 1_655
Al2 Os2 2.551763 1_555
Al2 Al8 2.734378 1_555
Al2 Al5 2.734378 1_555
Al2 Al20 2.927453 1_555
Al2 Y5 3.054274 1_555
Al2 Y3 3.104413 1_555
Al2 Y1 3.104413 1_555
Al3 Os4 2.542034 1_555
Al3 Os3 2.551763 1_555
Al3 Os2 2.551763 1_565
Al3 Al6 2.734378 1_555
Al3 Al4 2.734378 1_555
Al3 Y4 3.054274 1_555
Al3 Y2 3.104413 1_555
Al3 Y0 3.104413 1_555
Al4 Os6 2.594743 1_555
Al4 Os3 2.663663 1_555
Al4 Os4 2.668153 1_555
Al4 Al8 2.867102 1_555
Al4 Y0 3.116667 1_555
Al4 Y3 3.207902 1_555
Al4 Y5 3.208561 1_455
Al4 Al9 3.294866 1_555
Al5 Os6 2.594743 1_665
Al5 Os3 2.663663 1_655
Al5 Os4 2.668153 1_555
Al5 Al6 2.867102 1_555
Al5 Y1 3.116667 1_555
Al5 Y2 3.207902 1_555
Al5 Y4 3.208561 1_655
Al5 Al7 3.294866 1_555
Al6 Os6 2.594742 1_665
Al6 Os2 2.663663 1_565
Al6 Os4 2.668153 1_555
Al6 Y2 3.116667 1_555
Al6 Y1 3.207902 1_555
Al6 Y5 3.208561 1_565
Al7 Os5 2.582376 1_665
Al7 Os1 2.621985 1_655
Al7 Au0 2.761107 1_555
Al7 Y4 3.143669 1_655
Al7 Y1 3.175340 1_554
Al7 Y2 3.256763 1_555
Al8 Os6 2.594742 1_555
Al8 Os2 2.663663 1_555
Al8 Os4 2.668153 1_555
Al8 Y3 3.116667 1_555
Al8 Y0 3.207902 1_555
Al8 Y4 3.208561 1_545
Al9 Os5 2.582376 1_556
Al9 Os1 2.621985 1_556
Al9 Au0 2.761107 1_556
Al9 Y5 3.143669 1_455
Al9 Y0 3.175340 1_556
Al9 Y3 3.256763 1_555
Al10 Os6 2.599599 1_565
Al10 Os2 2.670514 1_565
Al10 Os3 2.670515 1_555
Al10 Al3 2.733375 1_555
Al10 Al17 2.799838 1_555
Al10 Al19 2.799838 1_555
Al10 Al5 2.884362 1_455
Al10 Al8 2.884362 1_565
Al10 Al23 2.989865 1_555
Al10 Y4 3.109778 1_555
Al10 Y1 3.184908 1_455
Al10 Y3 3.184909 1_565
Al10 Al15 3.301157 1_555
Al11 Os5 2.582376 1_555
Al11 Os0 2.621985 1_555
Al11 Au0 2.761107 1_555
Al11 Al16 2.762298 1_555
Al11 Al15 2.832387 1_544
Al11 Al20 2.877959 1_555
Al11 Al22 2.962365 1_455
Al11 Al9 3.010381 1_554
Al11 Y4 3.143669 1_545
Al11 Y3 3.175340 1_554
Al11 Y0 3.256763 1_555
Al11 Al8 3.294866 1_555
Al12 Os6 2.599599 1_655
Al12 Os2 2.670514 1_555
Al12 Os3 2.670515 1_655
Al12 Al2 2.733375 1_555
Al12 Al16 2.799838 1_555
Al12 Al18 2.799838 1_555
Al12 Al4 2.884362 1_655
Al12 Al6 2.884362 1_545
Al12 Al22 2.989865 1_555
Al12 Y5 3.109778 1_555
Al12 Y0 3.184908 1_655
Al12 Y2 3.184909 1_545
Al12 Al14 3.301157 1_555
Al13 Os5 2.582376 1_666
Al13 Os0 2.621985 1_566
Al13 Au0 2.761107 1_556
Al13 Al17 2.762298 1_555
Al13 Al14 2.832387 1_566
Al13 Al21 2.877959 1_555
Al13 Al23 2.962365 1_655
Al13 Al7 3.010381 1_556
Al13 Y5 3.143669 1_565
Al13 Y2 3.175340 1_556
Al13 Y1 3.256763 1_555
Al13 Al6 3.294866 1_555
Al14 Os5 2.596152 1_655
Al14 Os0 2.672467 1_555
Al14 Os1 2.672467 1_655
Al14 Al16 2.801511 1_555
Al14 Al18 2.801511 1_555
Al14 Al9 2.832386 1_654
Al14 Al22 2.982260 1_555
Al14 Y5 3.178731 1_554
Al14 Y0 3.186234 1_655
Al14 Y2 3.186234 1_545
Al15 Os5 2.596152 1_566
Al15 Os0 2.672467 1_566
Al15 Os1 2.672467 1_556
Al15 Al17 2.801511 1_555
Al15 Al19 2.801511 1_555
Al15 Al7 2.832386 1_456
Al15 Al23 2.982260 1_555
Al15 Y4 3.178731 1_556
Al15 Y1 3.186234 1_455
Al15 Y3 3.186234 1_565
Al16 Os0 2.553130 1_555
Al16 Os2 2.561589 1_555
Al16 Al20 2.754178 1_555
Al16 Al18 2.789348 1_555
Al16 Al8 2.823632 1_555
Al16 Al2 3.004734 1_555
Al16 Y2 3.017078 1_545
Al16 Y4 3.043727 1_545
Al17 Os0 2.553130 1_566
Al17 Os2 2.561589 1_565
Al17 Al21 2.754178 1_555
Al17 Al19 2.789348 1_555
Al17 Al6 2.823632 1_555
Al17 Al3 3.004734 1_555
Al17 Y3 3.017078 1_565
Al17 Y5 3.043727 1_565
Al18 Os1 2.553130 1_655
Al18 Os3 2.561589 1_655
Al18 Al20 2.754178 1_555
Al18 Al7 2.762298 1_555
Al18 Al5 2.823632 1_555
Al18 Al2 3.004734 1_555
Al18 Y0 3.017077 1_655
Al18 Y4 3.043727 1_655
Al19 Os1 2.553130 1_556
Al19 Os3 2.561589 1_555
Al19 Al21 2.754178 1_555
Al19 Al9 2.762298 1_555
Al19 Al4 2.823632 1_555
Al19 Al3 3.004734 1_555
Al19 Y1 3.017077 1_455
Al19 Y5 3.043727 1_455
Al20 Os4 2.524996 1_555
Al20 Au0 2.617480 1_555
Al20 Al5 2.783601 1_555
Al20 Al8 2.783601 1_555
Al20 Al7 2.877959 1_555
Al20 Y0 3.092272 1_555
Al20 Y2 3.092272 1_555
Al21 Os4 2.524996 1_555
Al21 Au0 2.617480 1_556
Al21 Al4 2.783601 1_555
Al21 Al6 2.783601 1_555
Al21 Al9 2.877959 1_555
Al21 Al3 2.927453 1_555
Al21 Y1 3.092272 1_555
Al21 Y3 3.092272 1_555
Al22 Os6 2.376955 1_655
Al22 Os5 2.383489 1_655
Al22 Y2 2.927188 1_545
Al22 Y0 2.927188 1_655
Al22 Y4 2.962111 1_645
Al22 Al7 2.962365 1_545
Al22 Al8 2.999824 1_655
Al22 Al5 2.999825 1_545
Al23 Os6 2.376955 1_565
Al23 Os5 2.383489 1_566
Al23 Y3 2.927188 1_565
Al23 Y1 2.927188 1_455
Al23 Y5 2.962111 1_465
Al23 Al9 2.962365 1_565
Al23 Al6 2.999824 1_455
Al23 Al4 2.999825 1_565
Os0 Y2 3.348110 1_545
Os0 Y3 3.348110 1_554
Os0 Y5 3.382205 1_554
Os0 Y4 3.382205 1_545
Os1 Y0 3.348110 1_555
Os1 Y1 3.348110 1_454
Os1 Y4 3.382205 1_555
Os1 Y5 3.382205 1_454
Os2 Y5 3.330064 1_555
Os2 Y4 3.330064 1_545
Os2 Y3 3.346808 1_555
Os2 Y2 3.346808 1_545
Os3 Y5 3.330064 1_455
Os3 Y4 3.330064 1_555
Os3 Y1 3.346808 1_455
Os3 Y0 3.346808 1_555
Os4 Y1 3.370992 1_555
Os4 Y0 3.370992 1_555
Os4 Y3 3.370993 1_555
Os4 Y2 3.370993 1_555
Au0 Y0 3.382936 1_555
Au0 Y1 3.382936 1_554
Au0 Y2 3.382937 1_555
Au0 Y3 3.382937 1_554
