# generated using pymatgen
data_Nb4AlC3
_symmetry_space_group_name_H-M   'P 1'
_cell_length_a   6.32080501
_cell_length_b   6.32080501
_cell_length_c   48.73075600
_cell_angle_alpha   90.00000000
_cell_angle_beta   90.00000000
_cell_angle_gamma   120.00001055
_symmetry_Int_Tables_number   1
_chemical_formula_structural   Nb4AlC3
_chemical_formula_sum   'Nb64 Al16 C48'
_cell_volume   1686.08133308
_cell_formula_units_Z   16
loop_
 _symmetry_equiv_pos_site_id
 _symmetry_equiv_pos_as_xyz
  1  'x, y, z'
loop_
 _atom_site_type_symbol
 _atom_site_label
 _atom_site_symmetry_multiplicity
 _atom_site_fract_x
 _atom_site_fract_y
 _atom_site_fract_z
 _atom_site_occupancy
  Nb  Nb0_0  1  0.00000000  0.00000000  0.17138300  1
  Nb  Nb0_1  1  0.00000000  0.00000000  0.67138300  1
  Nb  Nb0_2  1  0.00000000  0.50000000  0.17138300  1
  Nb  Nb0_3  1  0.00000000  0.50000000  0.67138300  1
  Nb  Nb0_4  1  0.50000000  0.00000000  0.17138300  1
  Nb  Nb0_5  1  0.50000000  0.00000000  0.67138300  1
  Nb  Nb0_6  1  0.50000000  0.50000000  0.17138300  1
  Nb  Nb0_7  1  0.50000000  0.50000000  0.67138300  1
  Nb  Nb1_0  1  0.00000000  0.00000000  0.42138300  1
  Nb  Nb1_1  1  0.00000000  0.00000000  0.92138300  1
  Nb  Nb1_2  1  0.00000000  0.50000000  0.42138300  1
  Nb  Nb1_3  1  0.00000000  0.50000000  0.92138300  1
  Nb  Nb1_4  1  0.50000000  0.00000000  0.42138300  1
  Nb  Nb1_5  1  0.50000000  0.00000000  0.92138300  1
  Nb  Nb1_6  1  0.50000000  0.50000000  0.42138300  1
  Nb  Nb1_7  1  0.50000000  0.50000000  0.92138300  1
  Nb  Nb2_0  1  0.00000000  0.00000000  0.32861700  1
  Nb  Nb2_1  1  0.00000000  0.00000000  0.82861700  1
  Nb  Nb2_2  1  0.00000000  0.50000000  0.32861700  1
  Nb  Nb2_3  1  0.00000000  0.50000000  0.82861700  1
  Nb  Nb2_4  1  0.50000000  0.00000000  0.32861700  1
  Nb  Nb2_5  1  0.50000000  0.00000000  0.82861700  1
  Nb  Nb2_6  1  0.50000000  0.50000000  0.32861700  1
  Nb  Nb2_7  1  0.50000000  0.50000000  0.82861700  1
  Nb  Nb3_0  1  0.00000000  0.00000000  0.07861700  1
  Nb  Nb3_1  1  0.00000000  0.00000000  0.57861700  1
  Nb  Nb3_2  1  0.00000000  0.50000000  0.07861700  1
  Nb  Nb3_3  1  0.00000000  0.50000000  0.57861700  1
  Nb  Nb3_4  1  0.50000000  0.00000000  0.07861700  1
  Nb  Nb3_5  1  0.50000000  0.00000000  0.57861700  1
  Nb  Nb3_6  1  0.50000000  0.50000000  0.07861700  1
  Nb  Nb3_7  1  0.50000000  0.50000000  0.57861700  1
  Nb  Nb4_0  1  0.16666650  0.33333350  0.22240950  1
  Nb  Nb4_1  1  0.16666650  0.33333350  0.72240950  1
  Nb  Nb4_2  1  0.16666650  0.83333350  0.22240950  1
  Nb  Nb4_3  1  0.16666650  0.83333350  0.72240950  1
  Nb  Nb4_4  1  0.66666650  0.33333350  0.22240950  1
  Nb  Nb4_5  1  0.66666650  0.33333350  0.72240950  1
  Nb  Nb4_6  1  0.66666650  0.83333350  0.22240950  1
  Nb  Nb4_7  1  0.66666650  0.83333350  0.72240950  1
  Nb  Nb5_0  1  0.33333350  0.16666650  0.47240950  1
  Nb  Nb5_1  1  0.33333350  0.16666650  0.97240950  1
  Nb  Nb5_2  1  0.33333350  0.66666650  0.47240950  1
  Nb  Nb5_3  1  0.33333350  0.66666650  0.97240950  1
  Nb  Nb5_4  1  0.83333350  0.16666650  0.47240950  1
  Nb  Nb5_5  1  0.83333350  0.16666650  0.97240950  1
  Nb  Nb5_6  1  0.83333350  0.66666650  0.47240950  1
  Nb  Nb5_7  1  0.83333350  0.66666650  0.97240950  1
  Nb  Nb6_0  1  0.33333350  0.16666650  0.27759050  1
  Nb  Nb6_1  1  0.33333350  0.16666650  0.77759050  1
  Nb  Nb6_2  1  0.33333350  0.66666650  0.27759050  1
  Nb  Nb6_3  1  0.33333350  0.66666650  0.77759050  1
  Nb  Nb6_4  1  0.83333350  0.16666650  0.27759050  1
  Nb  Nb6_5  1  0.83333350  0.16666650  0.77759050  1
  Nb  Nb6_6  1  0.83333350  0.66666650  0.27759050  1
  Nb  Nb6_7  1  0.83333350  0.66666650  0.77759050  1
  Nb  Nb7_0  1  0.16666650  0.33333350  0.02759050  1
  Nb  Nb7_1  1  0.16666650  0.33333350  0.52759050  1
  Nb  Nb7_2  1  0.16666650  0.83333350  0.02759050  1
  Nb  Nb7_3  1  0.16666650  0.83333350  0.52759050  1
  Nb  Nb7_4  1  0.66666650  0.33333350  0.02759050  1
  Nb  Nb7_5  1  0.66666650  0.33333350  0.52759050  1
  Nb  Nb7_6  1  0.66666650  0.83333350  0.02759050  1
  Nb  Nb7_7  1  0.66666650  0.83333350  0.52759050  1
  Al  Al0_0  1  0.33333350  0.16666650  0.37500000  1
  Al  Al0_1  1  0.33333350  0.16666650  0.87500000  1
  Al  Al0_2  1  0.33333350  0.66666650  0.37500000  1
  Al  Al0_3  1  0.33333350  0.66666650  0.87500000  1
  Al  Al0_4  1  0.83333350  0.16666650  0.37500000  1
  Al  Al0_5  1  0.83333350  0.16666650  0.87500000  1
  Al  Al0_6  1  0.83333350  0.66666650  0.37500000  1
  Al  Al0_7  1  0.83333350  0.66666650  0.87500000  1
  Al  Al1_0  1  0.16666650  0.33333350  0.12500000  1
  Al  Al1_1  1  0.16666650  0.33333350  0.62500000  1
  Al  Al1_2  1  0.16666650  0.83333350  0.12500000  1
  Al  Al1_3  1  0.16666650  0.83333350  0.62500000  1
  Al  Al1_4  1  0.66666650  0.33333350  0.12500000  1
  Al  Al1_5  1  0.66666650  0.33333350  0.62500000  1
  Al  Al1_6  1  0.66666650  0.83333350  0.12500000  1
  Al  Al1_7  1  0.66666650  0.83333350  0.62500000  1
  C  C0_0  1  0.33333350  0.16666650  0.19565000  1
  C  C0_1  1  0.33333350  0.16666650  0.69565000  1
  C  C0_2  1  0.33333350  0.66666650  0.19565000  1
  C  C0_3  1  0.33333350  0.66666650  0.69565000  1
  C  C0_4  1  0.83333350  0.16666650  0.19565000  1
  C  C0_5  1  0.83333350  0.16666650  0.69565000  1
  C  C0_6  1  0.83333350  0.66666650  0.19565000  1
  C  C0_7  1  0.83333350  0.66666650  0.69565000  1
  C  C1_0  1  0.16666650  0.33333350  0.44565000  1
  C  C1_1  1  0.16666650  0.33333350  0.94565000  1
  C  C1_2  1  0.16666650  0.83333350  0.44565000  1
  C  C1_3  1  0.16666650  0.83333350  0.94565000  1
  C  C1_4  1  0.66666650  0.33333350  0.44565000  1
  C  C1_5  1  0.66666650  0.33333350  0.94565000  1
  C  C1_6  1  0.66666650  0.83333350  0.44565000  1
  C  C1_7  1  0.66666650  0.83333350  0.94565000  1
  C  C2_0  1  0.16666650  0.33333350  0.30435000  1
  C  C2_1  1  0.16666650  0.33333350  0.80435000  1
  C  C2_2  1  0.16666650  0.83333350  0.30435000  1
  C  C2_3  1  0.16666650  0.83333350  0.80435000  1
  C  C2_4  1  0.66666650  0.33333350  0.30435000  1
  C  C2_5  1  0.66666650  0.33333350  0.80435000  1
  C  C2_6  1  0.66666650  0.83333350  0.30435000  1
  C  C2_7  1  0.66666650  0.83333350  0.80435000  1
  C  C3_0  1  0.00000000  0.00000000  0.00000000  1
  C  C3_1  1  0.00000000  0.00000000  0.50000000  1
  C  C3_2  1  0.00000000  0.50000000  0.00000000  1
  C  C3_3  1  0.00000000  0.50000000  0.50000000  1
  C  C3_4  1  0.50000000  0.00000000  0.00000000  1
  C  C3_5  1  0.50000000  0.00000000  0.50000000  1
  C  C3_6  1  0.50000000  0.50000000  0.00000000  1
  C  C3_7  1  0.50000000  0.50000000  0.50000000  1
  C  C4_0  1  0.33333350  0.16666650  0.05435000  1
  C  C4_1  1  0.33333350  0.16666650  0.55435000  1
  C  C4_2  1  0.33333350  0.66666650  0.05435000  1
  C  C4_3  1  0.33333350  0.66666650  0.55435000  1
  C  C4_4  1  0.83333350  0.16666650  0.05435000  1
  C  C4_5  1  0.83333350  0.16666650  0.55435000  1
  C  C4_6  1  0.83333350  0.66666650  0.05435000  1
  C  C4_7  1  0.83333350  0.66666650  0.55435000  1
  C  C5_0  1  0.00000000  0.00000000  0.25000000  1
  C  C5_1  1  0.00000000  0.00000000  0.75000000  1
  C  C5_2  1  0.00000000  0.50000000  0.25000000  1
  C  C5_3  1  0.00000000  0.50000000  0.75000000  1
  C  C5_4  1  0.50000000  0.00000000  0.25000000  1
  C  C5_5  1  0.50000000  0.00000000  0.75000000  1
  C  C5_6  1  0.50000000  0.50000000  0.25000000  1
  C  C5_7  1  0.50000000  0.50000000  0.75000000  1
loop_
_geom_bond_atom_site_label_1
_geom_bond_atom_site_label_2
_geom_bond_distance
_geom_bond_site_symmetry_2
Al0_0 Nb1_4 2.904864 1_555
Al0_0 Nb2_4 2.904864 1_555
Al0_0 Nb1_6 2.904865 1_555
Al0_0 Nb1_0 2.904865 1_555
Al0_0 Nb2_6 2.904865 1_555
Al0_0 Nb2_0 2.904865 1_555
Al0_0 Al0_6 3.160402 1_555
Al0_0 Al0_6 3.160402 1_445
Al0_0 Al0_2 3.160403 1_545
Al0_0 Al0_4 3.160403 1_555
Al0_0 Al0_2 3.160403 1_555
Al0_0 Al0_4 3.160403 1_455
Al0_1 Nb1_5 2.904864 1_555
Al0_1 Nb2_5 2.904864 1_555
Al0_1 Nb1_7 2.904865 1_555
Al0_1 Nb2_7 2.904865 1_555
Al0_1 Nb2_1 2.904865 1_555
Al0_1 Nb1_1 2.904865 1_555
Al0_1 Al0_7 3.160402 1_555
Al0_1 Al0_7 3.160402 1_445
Al0_1 Al0_5 3.160403 1_555
Al0_1 Al0_3 3.160403 1_545
Al0_1 Al0_5 3.160403 1_455
Al0_1 Al0_3 3.160403 1_555
Al0_2 Nb1_6 2.904864 1_555
Al0_2 Nb2_6 2.904864 1_555
Al0_2 Nb1_4 2.904865 1_565
Al0_2 Nb1_2 2.904865 1_555
Al0_2 Nb2_2 2.904865 1_555
Al0_2 Nb2_4 2.904865 1_565
Al0_2 Al0_4 3.160402 1_565
Al0_2 Al0_4 3.160402 1_455
Al0_2 Al0_6 3.160403 1_555
Al0_2 Al0_6 3.160403 1_455
Al0_3 Nb1_7 2.904864 1_555
Al0_3 Nb2_7 2.904864 1_555
Al0_3 Nb2_5 2.904865 1_565
Al0_3 Nb2_3 2.904865 1_555
Al0_3 Nb1_5 2.904865 1_565
Al0_3 Nb1_3 2.904865 1_555
Al0_3 Al0_5 3.160402 1_565
Al0_3 Al0_5 3.160402 1_455
Al0_3 Al0_7 3.160403 1_555
Al0_3 Al0_7 3.160403 1_455
Al0_4 Nb1_0 2.904864 1_655
Al0_4 Nb2_0 2.904864 1_655
Al0_4 Nb1_4 2.904865 1_555
Al0_4 Nb1_2 2.904865 1_655
Al0_4 Nb2_4 2.904865 1_555
Al0_4 Nb2_2 2.904865 1_655
Al0_4 Al0_6 3.160403 1_555
Al0_4 Al0_6 3.160403 1_545
Al0_5 Nb1_1 2.904864 1_655
Al0_5 Nb2_1 2.904864 1_655
Al0_5 Nb1_5 2.904865 1_555
Al0_5 Nb2_3 2.904865 1_655
Al0_5 Nb2_5 2.904865 1_555
Al0_5 Nb1_3 2.904865 1_655
Al0_5 Al0_7 3.160403 1_545
Al0_5 Al0_7 3.160403 1_555
Al0_6 Nb1_2 2.904864 1_655
Al0_6 Nb2_2 2.904864 1_655
Al0_6 Nb1_0 2.904865 1_665
Al0_6 Nb1_6 2.904865 1_555
Al0_6 Nb2_0 2.904865 1_665
Al0_6 Nb2_6 2.904865 1_555
Al0_7 Nb1_3 2.904864 1_655
Al0_7 Nb2_3 2.904864 1_655
Al0_7 Nb1_7 2.904865 1_555
Al0_7 Nb2_7 2.904865 1_555
Al0_7 Nb1_1 2.904865 1_665
Al0_7 Nb2_1 2.904865 1_665
Al1_0 Nb0_2 2.904864 1_555
Al1_0 Nb3_2 2.904864 1_555
Al1_0 Nb0_6 2.904865 1_555
Al1_0 Nb0_0 2.904865 1_555
Al1_0 Nb3_0 2.904865 1_555
Al1_0 Nb3_6 2.904865 1_555
Al1_0 Al1_6 3.160402 1_555
Al1_0 Al1_6 3.160402 1_445
Al1_0 Al1_4 3.160403 1_555
Al1_0 Al1_4 3.160403 1_455
Al1_0 Al1_2 3.160403 1_545
Al1_0 Al1_2 3.160403 1_555
Al1_1 Nb0_3 2.904864 1_555
Al1_1 Nb3_3 2.904864 1_555
Al1_1 Nb0_7 2.904865 1_555
Al1_1 Nb0_1 2.904865 1_555
Al1_1 Nb3_7 2.904865 1_555
Al1_1 Nb3_1 2.904865 1_555
Al1_1 Al1_7 3.160402 1_555
Al1_1 Al1_7 3.160402 1_445
Al1_1 Al1_5 3.160403 1_555
Al1_1 Al1_3 3.160403 1_555
Al1_1 Al1_5 3.160403 1_455
Al1_1 Al1_3 3.160403 1_545
Al1_2 Nb0_0 2.904864 1_565
Al1_2 Nb3_0 2.904864 1_565
Al1_2 Nb0_4 2.904865 1_565
Al1_2 Nb0_2 2.904865 1_555
Al1_2 Nb3_4 2.904865 1_565
Al1_2 Nb3_2 2.904865 1_555
Al1_2 Al1_4 3.160402 1_565
Al1_2 Al1_4 3.160402 1_455
Al1_2 Al1_6 3.160403 1_555
Al1_2 Al1_6 3.160403 1_455
Al1_3 Nb0_1 2.904864 1_565
Al1_3 Nb3_1 2.904864 1_565
Al1_3 Nb0_5 2.904865 1_565
Al1_3 Nb0_3 2.904865 1_555
Al1_3 Nb3_3 2.904865 1_555
Al1_3 Nb3_5 2.904865 1_565
Al1_3 Al1_5 3.160402 1_565
Al1_3 Al1_5 3.160402 1_455
Al1_3 Al1_7 3.160403 1_555
Al1_3 Al1_7 3.160403 1_455
Al1_4 Nb0_6 2.904864 1_555
Al1_4 Nb3_6 2.904864 1_555
Al1_4 Nb0_4 2.904865 1_555
Al1_4 Nb0_2 2.904865 1_655
Al1_4 Nb3_2 2.904865 1_655
Al1_4 Nb3_4 2.904865 1_555
Al1_4 Al1_6 3.160403 1_545
Al1_4 Al1_6 3.160403 1_555
Al1_5 Nb0_7 2.904864 1_555
Al1_5 Nb3_7 2.904864 1_555
Al1_5 Nb0_3 2.904865 1_655
Al1_5 Nb0_5 2.904865 1_555
Al1_5 Nb3_5 2.904865 1_555
Al1_5 Nb3_3 2.904865 1_655
Al1_5 Al1_7 3.160403 1_545
Al1_5 Al1_7 3.160403 1_555
Al1_6 Nb0_4 2.904864 1_565
Al1_6 Nb3_4 2.904864 1_565
Al1_6 Nb0_6 2.904865 1_555
Al1_6 Nb0_0 2.904865 1_665
Al1_6 Nb3_0 2.904865 1_665
Al1_6 Nb3_6 2.904865 1_555
Al1_7 Nb0_5 2.904864 1_565
Al1_7 Nb3_5 2.904864 1_565
Al1_7 Nb0_1 2.904865 1_665
Al1_7 Nb0_7 2.904865 1_555
Al1_7 Nb3_1 2.904865 1_665
Al1_7 Nb3_7 2.904865 1_555
C0_0 Nb0_4 2.174350 1_555
C0_0 Nb0_0 2.174352 1_555
C0_0 Nb0_6 2.174352 1_555
C0_0 Nb4_4 2.242726 1_555
C0_0 Nb4_2 2.242726 1_545
C0_0 Nb4_0 2.242730 1_555
C0_1 Nb0_5 2.174350 1_555
C0_1 Nb0_7 2.174352 1_555
C0_1 Nb0_1 2.174352 1_555
C0_1 Nb4_5 2.242726 1_555
C0_1 Nb4_3 2.242726 1_545
C0_1 Nb4_1 2.242730 1_555
C0_2 Nb0_6 2.174350 1_555
C0_2 Nb0_4 2.174352 1_565
C0_2 Nb0_2 2.174352 1_555
C0_2 Nb4_6 2.242726 1_555
C0_2 Nb4_0 2.242726 1_555
C0_2 Nb4_2 2.242730 1_555
C0_3 Nb0_7 2.174350 1_555
C0_3 Nb0_5 2.174352 1_565
C0_3 Nb0_3 2.174352 1_555
C0_3 Nb4_7 2.242726 1_555
C0_3 Nb4_1 2.242726 1_555
C0_3 Nb4_3 2.242730 1_555
C0_4 Nb0_0 2.174350 1_655
C0_4 Nb0_4 2.174352 1_555
C0_4 Nb0_2 2.174352 1_655
C0_4 Nb4_6 2.242726 1_545
C0_4 Nb4_0 2.242726 1_655
C0_4 Nb4_4 2.242730 1_555
C0_5 Nb0_1 2.174350 1_655
C0_5 Nb0_3 2.174352 1_655
C0_5 Nb0_5 2.174352 1_555
C0_5 Nb4_7 2.242726 1_545
C0_5 Nb4_1 2.242726 1_655
C0_5 Nb4_5 2.242730 1_555
C0_6 Nb0_2 2.174350 1_655
C0_6 Nb0_0 2.174352 1_665
C0_6 Nb0_6 2.174352 1_555
C0_6 Nb4_4 2.242726 1_555
C0_6 Nb4_2 2.242726 1_655
C0_6 Nb4_6 2.242730 1_555
C0_7 Nb0_3 2.174350 1_655
C0_7 Nb0_1 2.174352 1_665
C0_7 Nb0_7 2.174352 1_555
C0_7 Nb4_3 2.242726 1_655
C0_7 Nb4_5 2.242726 1_555
C0_7 Nb4_7 2.242730 1_555
C1_0 Nb1_2 2.174350 1_555
C1_0 Nb1_6 2.174352 1_555
C1_0 Nb1_0 2.174352 1_555
C1_0 Nb5_2 2.242726 1_555
C1_0 Nb5_4 2.242726 1_455
C1_0 Nb5_0 2.242730 1_555
C1_1 Nb1_3 2.174350 1_555
C1_1 Nb1_1 2.174352 1_555
C1_1 Nb1_7 2.174352 1_555
C1_1 Nb5_3 2.242726 1_555
C1_1 Nb5_5 2.242726 1_455
C1_1 Nb5_1 2.242730 1_555
C1_2 Nb1_0 2.174350 1_565
C1_2 Nb1_4 2.174352 1_565
C1_2 Nb1_2 2.174352 1_555
C1_2 Nb5_0 2.242726 1_565
C1_2 Nb5_6 2.242726 1_455
C1_2 Nb5_2 2.242730 1_555
C1_3 Nb1_1 2.174350 1_565
C1_3 Nb1_5 2.174352 1_565
C1_3 Nb1_3 2.174352 1_555
C1_3 Nb5_7 2.242726 1_455
C1_3 Nb5_1 2.242726 1_565
C1_3 Nb5_3 2.242730 1_555
C1_4 Nb1_6 2.174350 1_555
C1_4 Nb1_4 2.174352 1_555
C1_4 Nb1_2 2.174352 1_655
C1_4 Nb5_0 2.242726 1_555
C1_4 Nb5_6 2.242726 1_555
C1_4 Nb5_4 2.242730 1_555
C1_5 Nb1_7 2.174350 1_555
C1_5 Nb1_5 2.174352 1_555
C1_5 Nb1_3 2.174352 1_655
C1_5 Nb5_1 2.242726 1_555
C1_5 Nb5_7 2.242726 1_555
C1_5 Nb5_5 2.242730 1_555
C1_6 Nb1_4 2.174350 1_565
C1_6 Nb1_0 2.174352 1_665
C1_6 Nb1_6 2.174352 1_555
C1_6 Nb5_4 2.242726 1_565
C1_6 Nb5_2 2.242726 1_555
C1_6 Nb5_6 2.242730 1_555
C1_7 Nb1_5 2.174350 1_565
C1_7 Nb1_7 2.174352 1_555
C1_7 Nb1_1 2.174352 1_665
C1_7 Nb5_3 2.242726 1_555
C1_7 Nb5_5 2.242726 1_565
C1_7 Nb5_7 2.242730 1_555
C2_0 Nb2_2 2.174350 1_555
C2_0 Nb2_6 2.174352 1_555
C2_0 Nb2_0 2.174352 1_555
C2_0 Nb6_4 2.242726 1_455
C2_0 Nb6_2 2.242726 1_555
C2_0 Nb6_0 2.242730 1_555
C2_1 Nb2_3 2.174350 1_555
C2_1 Nb2_7 2.174352 1_555
C2_1 Nb2_1 2.174352 1_555
C2_1 Nb6_3 2.242726 1_555
C2_1 Nb6_5 2.242726 1_455
C2_1 Nb6_1 2.242730 1_555
C2_2 Nb2_0 2.174350 1_565
C2_2 Nb2_4 2.174352 1_565
C2_2 Nb2_2 2.174352 1_555
C2_2 Nb6_6 2.242726 1_455
C2_2 Nb6_0 2.242726 1_565
C2_2 Nb6_2 2.242730 1_555
C2_3 Nb2_1 2.174350 1_565
C2_3 Nb2_5 2.174352 1_565
C2_3 Nb2_3 2.174352 1_555
C2_3 Nb6_7 2.242726 1_455
C2_3 Nb6_1 2.242726 1_565
C2_3 Nb6_3 2.242730 1_555
C2_4 Nb2_6 2.174350 1_555
C2_4 Nb2_4 2.174352 1_555
C2_4 Nb2_2 2.174352 1_655
C2_4 Nb6_0 2.242726 1_555
C2_4 Nb6_6 2.242726 1_555
C2_4 Nb6_4 2.242730 1_555
C2_5 Nb2_7 2.174350 1_555
C2_5 Nb2_5 2.174352 1_555
C2_5 Nb2_3 2.174352 1_655
C2_5 Nb6_1 2.242726 1_555
C2_5 Nb6_7 2.242726 1_555
C2_5 Nb6_5 2.242730 1_555
C2_6 Nb2_4 2.174350 1_565
C2_6 Nb2_0 2.174352 1_665
C2_6 Nb2_6 2.174352 1_555
C2_6 Nb6_2 2.242726 1_555
C2_6 Nb6_4 2.242726 1_565
C2_6 Nb6_6 2.242730 1_555
C2_7 Nb2_5 2.174350 1_565
C2_7 Nb2_1 2.174352 1_665
C2_7 Nb2_7 2.174352 1_555
C2_7 Nb6_3 2.242726 1_555
C2_7 Nb6_5 2.242726 1_565
C2_7 Nb6_7 2.242730 1_555
C3_0 Nb5_5 2.266511 1_454
C3_0 Nb7_2 2.266511 1_545
C3_0 Nb5_7 2.266513 1_444
C3_0 Nb5_1 2.266513 1_554
C3_0 Nb7_0 2.266513 1_555
C3_0 Nb7_6 2.266513 1_445
C3_1 Nb7_3 2.266511 1_545
C3_1 Nb5_4 2.266511 1_455
C3_1 Nb7_1 2.266513 1_555
C3_1 Nb7_7 2.266513 1_445
C3_1 Nb5_6 2.266513 1_445
C3_1 Nb5_0 2.266513 1_555
C3_2 Nb5_7 2.266511 1_454
C3_2 Nb7_0 2.266511 1_555
C3_2 Nb5_5 2.266513 1_454
C3_2 Nb5_3 2.266513 1_554
C3_2 Nb7_2 2.266513 1_555
C3_2 Nb7_4 2.266513 1_455
C3_3 Nb7_1 2.266511 1_555
C3_3 Nb5_6 2.266511 1_455
C3_3 Nb7_3 2.266513 1_555
C3_3 Nb7_5 2.266513 1_455
C3_3 Nb5_4 2.266513 1_455
C3_3 Nb5_2 2.266513 1_555
C3_4 Nb5_1 2.266511 1_554
C3_4 Nb7_6 2.266511 1_545
C3_4 Nb5_5 2.266513 1_554
C3_4 Nb5_3 2.266513 1_544
C3_4 Nb7_4 2.266513 1_555
C3_4 Nb7_2 2.266513 1_545
C3_5 Nb7_7 2.266511 1_545
C3_5 Nb5_0 2.266511 1_555
C3_5 Nb7_3 2.266513 1_545
C3_5 Nb7_5 2.266513 1_555
C3_5 Nb5_4 2.266513 1_555
C3_5 Nb5_2 2.266513 1_545
C3_6 Nb5_3 2.266511 1_554
C3_6 Nb7_4 2.266511 1_555
C3_6 Nb5_7 2.266513 1_554
C3_6 Nb5_1 2.266513 1_554
C3_6 Nb7_0 2.266513 1_555
C3_6 Nb7_6 2.266513 1_555
C3_7 Nb7_5 2.266511 1_555
C3_7 Nb5_2 2.266511 1_555
C3_7 Nb7_1 2.266513 1_555
C3_7 Nb7_7 2.266513 1_555
C3_7 Nb5_6 2.266513 1_555
C3_7 Nb5_0 2.266513 1_555
C4_0 Nb3_4 2.174350 1_555
C4_0 Nb3_6 2.174352 1_555
C4_0 Nb3_0 2.174352 1_555
C4_0 Nb7_4 2.242726 1_555
C4_0 Nb7_2 2.242726 1_545
C4_0 Nb7_0 2.242730 1_555
C4_1 Nb3_5 2.174350 1_555
C4_1 Nb3_7 2.174352 1_555
C4_1 Nb3_1 2.174352 1_555
C4_1 Nb7_5 2.242726 1_555
C4_1 Nb7_3 2.242726 1_545
C4_1 Nb7_1 2.242730 1_555
C4_2 Nb3_6 2.174350 1_555
C4_2 Nb3_2 2.174352 1_555
C4_2 Nb3_4 2.174352 1_565
C4_2 Nb7_6 2.242726 1_555
C4_2 Nb7_0 2.242726 1_555
C4_2 Nb7_2 2.242730 1_555
C4_3 Nb3_7 2.174350 1_555
C4_3 Nb3_5 2.174352 1_565
C4_3 Nb3_3 2.174352 1_555
C4_3 Nb7_7 2.242726 1_555
C4_3 Nb7_1 2.242726 1_555
C4_3 Nb7_3 2.242730 1_555
C4_4 Nb3_0 2.174350 1_655
C4_4 Nb3_4 2.174352 1_555
C4_4 Nb3_2 2.174352 1_655
C4_4 Nb7_6 2.242726 1_545
C4_4 Nb7_0 2.242726 1_655
C4_4 Nb7_4 2.242730 1_555
C4_5 Nb3_1 2.174350 1_655
C4_5 Nb3_3 2.174352 1_655
C4_5 Nb3_5 2.174352 1_555
C4_5 Nb7_7 2.242726 1_545
C4_5 Nb7_1 2.242726 1_655
C4_5 Nb7_5 2.242730 1_555
C4_6 Nb3_2 2.174350 1_655
C4_6 Nb3_0 2.174352 1_665
C4_6 Nb3_6 2.174352 1_555
C4_6 Nb7_2 2.242726 1_655
C4_6 Nb7_4 2.242726 1_555
C4_6 Nb7_6 2.242730 1_555
C4_7 Nb3_3 2.174350 1_655
C4_7 Nb3_7 2.174352 1_555
C4_7 Nb3_1 2.174352 1_665
C4_7 Nb7_3 2.242726 1_655
C4_7 Nb7_5 2.242726 1_555
C4_7 Nb7_7 2.242730 1_555
C5_0 Nb6_4 2.266511 1_455
C5_0 Nb4_2 2.266511 1_545
C5_0 Nb6_6 2.266513 1_445
C5_0 Nb6_0 2.266513 1_555
C5_0 Nb4_0 2.266513 1_555
C5_0 Nb4_6 2.266513 1_445
C5_1 Nb6_5 2.266511 1_455
C5_1 Nb4_3 2.266511 1_545
C5_1 Nb6_7 2.266513 1_445
C5_1 Nb6_1 2.266513 1_555
C5_1 Nb4_1 2.266513 1_555
C5_1 Nb4_7 2.266513 1_445
C5_2 Nb6_6 2.266511 1_455
C5_2 Nb4_0 2.266511 1_555
C5_2 Nb6_4 2.266513 1_455
C5_2 Nb6_2 2.266513 1_555
C5_2 Nb4_2 2.266513 1_555
C5_2 Nb4_4 2.266513 1_455
C5_3 Nb6_7 2.266511 1_455
C5_3 Nb4_1 2.266511 1_555
C5_3 Nb6_5 2.266513 1_455
C5_3 Nb6_3 2.266513 1_555
C5_3 Nb4_3 2.266513 1_555
C5_3 Nb4_5 2.266513 1_455
C5_4 Nb6_0 2.266511 1_555
C5_4 Nb4_6 2.266511 1_545
C5_4 Nb6_4 2.266513 1_555
C5_4 Nb6_2 2.266513 1_545
C5_4 Nb4_2 2.266513 1_545
C5_4 Nb4_4 2.266513 1_555
C5_5 Nb6_1 2.266511 1_555
C5_5 Nb4_7 2.266511 1_545
C5_5 Nb6_5 2.266513 1_555
C5_5 Nb6_3 2.266513 1_545
C5_5 Nb4_3 2.266513 1_545
C5_5 Nb4_5 2.266513 1_555
C5_6 Nb6_2 2.266511 1_555
C5_6 Nb4_4 2.266511 1_555
C5_6 Nb6_6 2.266513 1_555
C5_6 Nb6_0 2.266513 1_555
C5_6 Nb4_0 2.266513 1_555
C5_6 Nb4_6 2.266513 1_555
C5_7 Nb6_3 2.266511 1_555
C5_7 Nb4_5 2.266511 1_555
C5_7 Nb6_7 2.266513 1_555
C5_7 Nb6_1 2.266513 1_555
C5_7 Nb4_1 2.266513 1_555
C5_7 Nb4_7 2.266513 1_555
