# generated using pymatgen
data_SrRh2(SeO3)4
_symmetry_space_group_name_H-M   'P 1'
_cell_length_a   8.84819574
_cell_length_b   8.84831904
_cell_length_c   8.84472582
_cell_angle_alpha   110.63691725
_cell_angle_beta   112.93410820
_cell_angle_gamma   104.96185597
_symmetry_Int_Tables_number   1
_chemical_formula_structural   SrRh2(SeO3)4
_chemical_formula_sum   'Sr2 Rh4 Se8 O24'
_cell_volume   530.25561777
_cell_formula_units_Z   2
loop_
 _symmetry_equiv_pos_site_id
 _symmetry_equiv_pos_as_xyz
  1  'x, y, z'
loop_
 _atom_site_type_symbol
 _atom_site_label
 _atom_site_symmetry_multiplicity
 _atom_site_fract_x
 _atom_site_fract_y
 _atom_site_fract_z
 _atom_site_occupancy
  Sr  Sr0  1  0.75000018  0.25000378  0.50000038  1
  Sr  Sr1  1  0.24999571  0.74999483  0.49999630  1
  Rh  Rh0  1  0.74999894  0.74999015  0.49998818  1
  Rh  Rh1  1  0.25000429  0.25000843  0.50000948  1
  Rh  Rh2  1  0.50000019  0.00000386  0.00000123  1
  Rh  Rh3  1  0.99999994  0.49999660  0.99999775  1
  Se  Se0  1  0.84647503  0.92743722  0.27388872  1
  Se  Se1  1  0.34645380  0.42740088  0.27389425  1
  Se  Se2  1  0.65353754  0.57258563  0.72611152  1
  Se  Se3  1  0.15353838  0.07258053  0.72610865  1
  Se  Se4  1  0.69314939  0.40631855  0.09947485  1
  Se  Se5  1  0.19317572  0.90629935  0.09948176  1
  Se  Se6  1  0.30682085  0.59368963  0.90052018  1
  Se  Se7  1  0.80683768  0.09368665  0.90053125  1
  O  O0  1  0.82402232  0.60771897  0.93172087  1
  O  O1  1  0.32400305  0.10770413  0.93171874  1
  O  O2  1  0.67600124  0.89230690  0.06828910  1
  O  O3  1  0.17597926  0.39227822  0.06828036  1
  O  O4  1  0.65517692  0.57071428  0.22588941  1
  O  O5  1  0.15519329  0.07071598  0.22591588  1
  O  O6  1  0.34482028  0.42928579  0.77410197  1
  O  O7  1  0.84480622  0.92927051  0.77407848  1
  O  O8  1  0.81059945  0.23279204  0.80236798  1
  O  O9  1  0.31060914  0.73280312  0.80237714  1
  O  O10  1  0.06958785  0.49177257  0.80238602  1
  O  O11  1  0.56957104  0.99175943  0.80236875  1
  O  O12  1  0.43041916  0.00823100  0.19762007  1
  O  O13  1  0.93042101  0.50823273  0.19761955  1
  O  O14  1  0.68939009  0.26720258  0.19761896  1
  O  O15  1  0.18939698  0.76719765  0.19762075  1
  O  O16  1  0.52288121  0.33699187  0.59308389  1
  O  O17  1  0.02287261  0.83699412  0.59306736  1
  O  O18  1  0.75607571  0.57019442  0.59306644  1
  O  O19  1  0.25609802  0.07020418  0.59308844  1
  O  O20  1  0.74391147  0.92980589  0.40692643  1
  O  O21  1  0.24392156  0.42980244  0.40692540  1
  O  O22  1  0.97713132  0.16301613  0.40694122  1
  O  O23  1  0.47712115  0.66300896  0.40691830  1
loop_
_geom_bond_atom_site_label_1
_geom_bond_atom_site_label_2
_geom_bond_distance
_geom_bond_site_symmetry_2
O0 Se2 1.703152 1_555
O0 Rh3 2.033955 1_555
O1 Se3 1.703118 1_555
O1 Rh2 2.033945 1_556
O2 Se0 1.703066 1_555
O2 Rh2 2.033957 1_565
O3 Se1 1.703180 1_555
O3 Rh3 2.033948 1_454
O4 Se4 1.696368 1_555
O4 Rh0 2.028401 1_555
O5 Se5 1.696628 1_545
O5 Rh1 2.028428 1_555
O6 Se6 1.696592 1_555
O6 Rh1 2.028376 1_555
O7 Se7 1.696614 1_565
O7 Rh0 2.028387 1_555
O8 Se7 1.739128 1_555
O8 Rh3 2.052280 1_555
O8 Sr0 2.583523 1_555
O9 Se6 1.739063 1_555
O9 Rh2 2.052236 1_566
O9 Sr1 2.583530 1_555
O10 Se6 1.738872 1_555
O10 Rh3 2.052193 1_455
O10 Sr0 2.583609 1_455
O11 Se7 1.739098 1_565
O11 Rh2 2.052238 1_566
O11 Sr1 2.583514 1_555
O12 Se5 1.738952 1_545
O12 Rh2 2.052209 1_555
O12 Sr0 2.583573 1_555
O13 Se4 1.739157 1_555
O13 Rh3 2.052207 1_554
O13 Sr1 2.583519 1_655
O14 Se4 1.739082 1_555
O14 Rh2 2.052216 1_555
O14 Sr0 2.583570 1_555
O15 Se5 1.738942 1_555
O15 Rh3 2.052247 1_454
O15 Sr1 2.583555 1_555
O16 Se2 1.741576 1_555
O16 Rh1 2.035807 1_555
O16 Sr0 2.636312 1_555
O17 Se3 1.741532 1_565
O17 Rh0 2.035759 1_455
O17 Sr1 2.636329 1_555
O18 Se2 1.741480 1_555
O18 Rh0 2.035788 1_555
O18 Sr0 2.636322 1_555
O19 Se3 1.741449 1_555
O19 Rh1 2.035873 1_555
O19 Sr1 2.636374 1_545
O20 Se0 1.741618 1_555
O20 Rh0 2.035861 1_555
O20 Sr0 2.636335 1_565
O21 Se1 1.741323 1_555
O21 Rh1 2.035812 1_555
O21 Sr1 2.636339 1_555
O22 Se0 1.741472 1_545
O22 Rh1 2.035779 1_655
O22 Sr0 2.636305 1_555
O23 Se1 1.741685 1_555
O23 Rh0 2.035823 1_555
O23 Sr1 2.636335 1_555
