# generated using pymatgen
data_Ba6Sc2(TeO6)3
_symmetry_space_group_name_H-M   'P 1'
_cell_length_a   10.13801557
_cell_length_b   10.13801501
_cell_length_c   10.13801543
_cell_angle_alpha   146.56869411
_cell_angle_beta   132.07563901
_cell_angle_gamma   59.69134193
_symmetry_Int_Tables_number   1
_chemical_formula_structural   Ba6Sc2(TeO6)3
_chemical_formula_sum   'Ba6 Sc2 Te3 O18'
_cell_volume   422.29309106
_cell_formula_units_Z   1
loop_
 _symmetry_equiv_pos_site_id
 _symmetry_equiv_pos_as_xyz
  1  'x, y, z'
loop_
 _atom_site_type_symbol
 _atom_site_label
 _atom_site_symmetry_multiplicity
 _atom_site_fract_x
 _atom_site_fract_y
 _atom_site_fract_z
 _atom_site_occupancy
  Ba  Ba0  1  0.77296268  0.50000000  0.27296268  1
  Ba  Ba1  1  0.39836478  0.15901660  0.23934818  1
  Ba  Ba2  1  0.08033158  0.84098340  0.23934818  1
  Ba  Ba3  1  0.22703732  0.50000000  0.72703732  1
  Ba  Ba4  1  0.91966842  0.15901660  0.76065182  1
  Ba  Ba5  1  0.60163522  0.84098340  0.76065182  1
  Sc  Sc0  1  0.66490577  0.66490577  1.00000000  1
  Sc  Sc1  1  0.33509423  0.33509423  0.00000000  1
  Te  Te0  1  0.50000000  0.00000000  0.50000000  1
  Te  Te1  1  0.17333168  0.67333168  0.50000000  1
  Te  Te2  1  0.82666832  0.32666832  0.50000000  1
  O  O0  1  0.72609651  0.00000000  0.72609651  1
  O  O1  1  0.41403166  0.67304151  0.74098915  1
  O  O2  1  0.06794864  0.32695849  0.74098915  1
  O  O3  1  0.57959176  0.83700599  0.25741323  1
  O  O4  1  0.25180685  0.51739544  0.26558959  1
  O  O5  1  0.90235202  0.17376719  0.27141417  1
  O  O6  1  0.42040824  0.67782147  0.25741323  1
  O  O7  1  0.09764798  0.36906215  0.27141417  1
  O  O8  1  0.74819315  0.01378274  0.26558959  1
  O  O9  1  0.27390349  1.00000000  0.27390349  1
  O  O10  1  0.93205136  0.67304151  0.25901085  1
  O  O11  1  0.58596834  0.32695849  0.25901085  1
  O  O12  1  0.42040824  0.16299401  0.74258677  1
  O  O13  1  0.09764798  0.82623281  0.72858583  1
  O  O14  1  0.74819315  0.48260456  0.73441041  1
  O  O15  1  0.57959176  0.32217853  0.74258677  1
  O  O16  1  0.25180685  0.98621726  0.73441041  1
  O  O17  1  0.90235202  0.63093885  0.72858583  1
loop_
_geom_bond_atom_site_label_1
_geom_bond_atom_site_label_2
_geom_bond_distance
_geom_bond_site_symmetry_2
Ba0 O5 2.867336 1_555
Ba0 O17 2.867339 1_555
Ba0 O13 2.867342 1_655
Ba0 O7 2.867346 1_655
Ba0 O0 2.941347 1_565
Ba0 O0 2.941347 1_554
Ba0 O6 3.043922 1_555
Ba0 O15 3.043922 1_554
Ba0 O12 3.043925 1_554
Ba0 O3 3.043930 1_555
Ba0 O10 3.045406 1_555
Ba0 O11 3.045423 1_555
Ba1 O7 2.748634 1_555
Ba1 O13 2.748636 1_544
Ba1 O9 2.811033 1_545
Ba1 O3 2.925680 1_545
Ba1 O15 2.925689 1_555
Ba1 O1 2.926361 1_555
Ba1 O1 2.926366 1_544
Ba1 O11 2.957986 1_555
Ba1 O8 2.989237 1_555
Ba1 O14 2.989241 1_555
Ba1 O4 2.991113 1_555
Ba1 O16 2.991123 1_544
Ba2 O17 2.748639 1_454
Ba2 O5 2.748642 1_465
Ba2 O9 2.811033 1_555
Ba2 O12 2.925686 1_565
Ba2 O6 2.925689 1_555
Ba2 O2 2.926359 1_565
Ba2 O2 2.926365 1_554
Ba2 O10 2.958004 1_455
Ba2 O16 2.989237 1_555
Ba2 O4 2.989246 1_555
Ba2 O14 2.991119 1_454
Ba2 O8 2.991123 1_465
Ba3 O13 2.867336 1_555
Ba3 O5 2.867342 1_455
Ba3 O17 2.867345 1_455
Ba3 O7 2.867346 1_555
Ba3 O9 2.941347 1_545
Ba3 O9 2.941347 1_556
Ba3 O15 3.043922 1_555
Ba3 O6 3.043922 1_556
Ba3 O3 3.043925 1_556
Ba3 O12 3.043930 1_555
Ba3 O2 3.045406 1_555
Ba3 O1 3.045423 1_555
Ba4 O7 2.748634 1_656
Ba4 O13 2.748642 1_645
Ba4 O0 2.811033 1_555
Ba4 O3 2.925686 1_545
Ba4 O15 2.925689 1_555
Ba4 O10 2.926359 1_545
Ba4 O10 2.926365 1_556
Ba4 O2 2.958004 1_655
Ba4 O8 2.989237 1_555
Ba4 O14 2.989246 1_555
Ba4 O4 2.991119 1_656
Ba4 O16 2.991123 1_645
Ba5 O17 2.748633 1_555
Ba5 O5 2.748636 1_566
Ba5 O0 2.811033 1_565
Ba5 O12 2.925680 1_565
Ba5 O6 2.925689 1_555
Ba5 O11 2.926361 1_555
Ba5 O11 2.926366 1_566
Ba5 O1 2.957986 1_555
Ba5 O16 2.989237 1_555
Ba5 O4 2.989241 1_555
Ba5 O14 2.991113 1_555
Ba5 O8 2.991123 1_566
O0 Te0 1.861854 1_555
O0 O15 2.725306 1_555
O0 O6 2.725306 1_545
O0 O12 2.725306 1_555
O0 O3 2.725312 1_545
O1 Te1 1.984502 1_555
O1 Sc0 2.137687 1_555
O1 O7 2.733756 1_555
O1 O13 2.733759 1_555
O1 O4 2.779538 1_555
O1 O16 2.779546 1_555
O2 Te2 1.984502 1_455
O2 Sc1 2.137686 1_556
O2 O5 2.733753 1_455
O2 O8 2.779552 1_455
O3 Te0 1.990178 1_565
O3 Sc0 2.122442 1_554
O3 O9 2.725306 1_555
O3 O6 2.799538 1_555
O4 Te1 1.942561 1_555
O4 Sc1 2.131795 1_555
O4 O7 2.711365 1_555
O5 Te2 1.883814 1_555
O5 O8 2.711383 1_555
O6 Te0 1.990174 1_565
O6 Sc1 2.122446 1_555
O6 O9 2.725306 1_555
O7 Te1 1.883810 1_555
O8 Te2 1.942565 1_555
O8 Sc0 2.131791 1_544
O9 Te0 1.861854 1_565
O10 Te1 1.984502 1_655
O10 Sc0 2.137686 1_554
O10 O7 2.733750 1_655
O10 O13 2.733753 1_655
O10 O16 2.779552 1_655
O10 O4 2.779555 1_655
O11 Te2 1.984502 1_555
O11 Sc1 2.137687 1_555
O11 O5 2.733759 1_555
O11 O17 2.733759 1_555
O11 O14 2.779538 1_555
O11 O8 2.779546 1_555
O12 Te0 1.990178 1_555
O12 Sc1 2.122442 1_556
O12 O9 2.725312 1_545
O12 O15 2.799538 1_555
O13 Te1 1.883814 1_555
O13 O16 2.711383 1_555
O14 Te2 1.942561 1_555
O14 Sc0 2.131795 1_555
O14 O17 2.711374 1_555
O14 O8 2.734089 1_555
O14 O2 2.779555 1_655
O15 Te0 1.990174 1_555
O15 Sc0 2.122446 1_555
O15 O9 2.725306 1_545
O16 Te1 1.942565 1_555
O16 Sc1 2.131791 1_566
O16 O4 2.734089 1_555
O17 Te2 1.883819 1_555
O17 O2 2.733759 1_655
