# generated using pymatgen
data_FeRuPtO6
_symmetry_space_group_name_H-M   'P 1'
_cell_length_a   4.45404484
_cell_length_b   8.90783411
_cell_length_c   9.14304481
_cell_angle_alpha   90.00000000
_cell_angle_beta   90.00000000
_cell_angle_gamma   90.00000000
_symmetry_Int_Tables_number   1
_chemical_formula_structural   FeRuPtO6
_chemical_formula_sum   'Fe4 Ru4 Pt4 O24'
_cell_volume   362.75846385
_cell_formula_units_Z   4
loop_
 _symmetry_equiv_pos_site_id
 _symmetry_equiv_pos_as_xyz
  1  'x, y, z'
loop_
 _atom_site_type_symbol
 _atom_site_label
 _atom_site_symmetry_multiplicity
 _atom_site_fract_x
 _atom_site_fract_y
 _atom_site_fract_z
 _atom_site_occupancy
  Fe  Fe0  1  0.00000000  0.50000000  0.99949853  1
  Fe  Fe1  1  0.50000000  0.75000000  0.49949853  1
  Fe  Fe2  1  0.00000000  0.00000000  0.99949853  1
  Fe  Fe3  1  0.50000000  0.25000000  0.49949853  1
  Ru  Ru0  1  0.50000000  0.25000000  0.16852897  1
  Ru  Ru1  1  0.50000000  0.75000000  0.16852897  1
  Ru  Ru2  1  0.00000000  0.00000000  0.66852897  1
  Ru  Ru3  1  0.00000000  0.50000000  0.66852897  1
  Pt  Pt0  1  0.00000000  0.00000000  0.33323526  1
  Pt  Pt1  1  0.00000000  0.50000000  0.33323526  1
  Pt  Pt2  1  0.50000000  0.25000000  0.83323526  1
  Pt  Pt3  1  0.50000000  0.75000000  0.83323526  1
  O  O0  1  0.29857594  0.14927074  0.00245068  1
  O  O1  1  0.29857594  0.64927074  0.00245068  1
  O  O2  1  0.20142406  0.39927074  0.50245068  1
  O  O3  1  0.20142406  0.89927074  0.50245068  1
  O  O4  1  0.79857594  0.10072926  0.50245068  1
  O  O5  1  0.79857594  0.60072926  0.50245068  1
  O  O6  1  0.70142406  0.35072926  0.00245068  1
  O  O7  1  0.70142406  0.85072926  0.00245068  1
  O  O8  1  0.31393939  0.15695634  0.33782604  1
  O  O9  1  0.31393939  0.65695634  0.33782604  1
  O  O10  1  0.18606061  0.40695634  0.83782604  1
  O  O11  1  0.18606061  0.90695634  0.83782604  1
  O  O12  1  0.81393939  0.09304366  0.83782604  1
  O  O13  1  0.81393939  0.59304366  0.83782604  1
  O  O14  1  0.80819611  0.09591564  0.15909140  1
  O  O15  1  0.80819611  0.59591564  0.15909140  1
  O  O16  1  0.19180389  0.40408436  0.15909140  1
  O  O17  1  0.19180389  0.90408436  0.15909140  1
  O  O18  1  0.68606061  0.34304366  0.33782604  1
  O  O19  1  0.68606061  0.84304366  0.33782604  1
  O  O20  1  0.30819611  0.15408436  0.65909140  1
  O  O21  1  0.30819611  0.65408436  0.65909140  1
  O  O22  1  0.69180389  0.34591564  0.65909140  1
  O  O23  1  0.69180389  0.84591564  0.65909140  1
loop_
_geom_bond_atom_site_label_1
_geom_bond_atom_site_label_2
_geom_bond_distance
_geom_bond_site_symmetry_2
Fe0 O1 1.880779 1_556
Fe0 O6 1.880779 1_456
Fe0 O13 1.886460 1_455
Fe0 O10 1.886460 1_555
Fe0 O15 1.894465 1_456
Fe0 O16 1.894465 1_556
Fe1 O3 1.880779 1_555
Fe1 O5 1.880779 1_555
Fe1 O19 1.886460 1_555
Fe1 O9 1.886460 1_555
Fe1 O23 1.894465 1_555
Fe1 O21 1.894465 1_555
Fe2 O0 1.880779 1_556
Fe2 O7 1.880779 1_446
Fe2 O12 1.886460 1_455
Fe2 O11 1.886460 1_545
Fe2 O14 1.894465 1_456
Fe2 O17 1.894465 1_546
Fe3 O2 1.880779 1_555
Fe3 O4 1.880779 1_555
Fe3 O18 1.886460 1_555
Fe3 O8 1.886460 1_555
Fe3 O22 1.894465 1_555
Fe3 O20 1.894465 1_555
O0 Ru0 1.978817 1_555
O0 Pt2 2.000912 1_554
O1 Ru1 1.978817 1_555
O1 Pt3 2.000912 1_554
O2 Ru3 1.978817 1_555
O2 Pt1 2.000912 1_555
O3 Ru2 1.978817 1_565
O3 Pt0 2.000912 1_565
O4 Ru2 1.978817 1_655
O4 Pt0 2.000912 1_655
O5 Ru3 1.978817 1_655
O5 Pt1 2.000912 1_655
O6 Ru0 1.978817 1_555
O6 Pt2 2.000912 1_554
O7 Ru1 1.978817 1_555
O7 Pt3 2.000912 1_554
O8 Ru0 1.941568 1_555
O8 Pt0 1.977828 1_555
O9 Ru1 1.941568 1_555
O9 Pt1 1.977828 1_555
O10 Ru3 1.941568 1_555
O10 Pt2 1.977828 1_555
O10 O13 2.344115 1_455
O11 Ru2 1.941568 1_565
O11 Pt3 1.977828 1_555
O11 O12 2.344115 1_465
O12 Ru2 1.941568 1_655
O12 Pt2 1.977828 1_555
O13 Ru3 1.941568 1_655
O13 Pt3 1.977828 1_555
O14 Ru0 1.943121 1_555
O14 Pt0 1.998737 1_655
O14 O17 2.416472 1_645
O15 Ru1 1.943121 1_555
O15 Pt1 1.998737 1_655
O15 O16 2.416472 1_655
O16 Ru0 1.943121 1_555
O16 Pt1 1.998737 1_555
O17 Ru1 1.943121 1_555
O17 Pt0 1.998737 1_565
O18 Ru0 1.941568 1_555
O18 Pt1 1.977828 1_655
O18 O8 2.344115 1_555
O19 Ru1 1.941568 1_555
O19 Pt0 1.977828 1_665
O19 O9 2.344115 1_555
O20 Ru2 1.943121 1_555
O20 Pt2 1.998737 1_555
O20 O22 2.416472 1_555
O21 Ru3 1.943121 1_555
O21 Pt3 1.998737 1_555
O21 O23 2.416472 1_555
O22 Ru3 1.943121 1_655
O22 Pt2 1.998737 1_555
O23 Ru2 1.943121 1_665
O23 Pt3 1.998737 1_555
