# generated using pymatgen
data_Rb2TiMnTe4
_symmetry_space_group_name_H-M   'P 1'
_cell_length_a   15.13783987
_cell_length_b   13.58224893
_cell_length_c   8.10193488
_cell_angle_alpha   84.53388569
_cell_angle_beta   63.27283636
_cell_angle_gamma   32.19327711
_symmetry_Int_Tables_number   1
_chemical_formula_structural   Rb2TiMnTe4
_chemical_formula_sum   'Rb4 Ti2 Mn2 Te8'
_cell_volume   634.35975259
_cell_formula_units_Z   2
loop_
 _symmetry_equiv_pos_site_id
 _symmetry_equiv_pos_as_xyz
  1  'x, y, z'
loop_
 _atom_site_type_symbol
 _atom_site_label
 _atom_site_symmetry_multiplicity
 _atom_site_fract_x
 _atom_site_fract_y
 _atom_site_fract_z
 _atom_site_occupancy
  Rb  Rb0  1  0.81899684  0.81899684  0.18100316  1
  Rb  Rb1  1  0.18100316  0.18100316  0.81899684  1
  Rb  Rb2  1  0.43100316  0.43100316  0.06899684  1
  Rb  Rb3  1  0.06899684  0.06899684  0.43100316  1
  Ti  Ti0  1  0.25000000  0.25000000  0.25000000  1
  Ti  Ti1  1  0.00000000  0.00000000  0.00000000  1
  Mn  Mn0  1  0.75000000  0.75000000  0.75000000  1
  Mn  Mn1  1  0.50000000  0.50000000  0.50000000  1
  Te  Te0  1  0.39493377  0.71805162  0.80781660  1
  Te  Te1  1  0.07919701  0.80781660  0.71805162  1
  Te  Te2  1  0.80781660  0.07919701  0.39493377  1
  Te  Te3  1  0.71805162  0.39493377  0.07919701  1
  Te  Te4  1  0.85506623  0.53194838  0.44218340  1
  Te  Te5  1  0.17080299  0.44218340  0.53194838  1
  Te  Te6  1  0.44218340  0.17080299  0.85506623  1
  Te  Te7  1  0.53194838  0.85506623  0.17080299  1
loop_
_geom_bond_atom_site_label_1
_geom_bond_atom_site_label_2
_geom_bond_distance
_geom_bond_site_symmetry_2
Rb0 Te5 3.863871 1_565
Rb0 Te6 3.863873 1_654
Rb0 Te2 3.926002 1_565
Rb0 Te1 3.926006 1_654
Rb0 Te7 3.980041 1_555
Rb0 Te4 3.980045 1_555
Rb0 Te5 4.001767 1_654
Rb0 Te6 4.001774 1_565
Rb1 Te7 3.863870 1_545
Rb1 Te4 3.863877 1_456
Rb1 Te0 3.926014 1_545
Rb1 Te3 3.926016 1_456
Rb1 Te5 3.980052 1_555
Rb1 Te6 3.980056 1_555
Rb1 Te7 4.001770 1_456
Rb1 Te4 4.001772 1_545
Rb2 Te1 3.863871 1_644
Rb2 Te2 3.863873 1_465
Rb2 Te6 3.926002 1_554
Rb2 Te5 3.926006 1_555
Rb2 Te3 3.980041 1_555
Rb2 Te0 3.980045 1_554
Rb2 Te1 4.001767 1_555
Rb2 Te2 4.001774 1_554
Rb3 Te3 3.863870 1_456
Rb3 Te0 3.863877 1_544
Rb3 Te4 3.926014 1_455
Rb3 Te7 3.926016 1_545
Rb3 Te1 3.980052 1_545
Rb3 Te2 3.980056 1_455
Rb3 Te3 4.001770 1_545
Rb3 Te0 4.001772 1_455
Mn0 Te4 2.717974 1_555
Mn0 Te7 2.717981 1_556
Mn0 Te6 2.717984 1_565
Mn0 Te5 2.717986 1_655
Mn0 Ti0 3.237641 1_566
Mn0 Ti0 3.237641 1_655
Mn1 Te0 2.717974 1_555
Mn1 Te3 2.717981 1_555
Mn1 Te2 2.717984 1_555
Mn1 Te1 2.717986 1_555
Mn1 Ti1 3.237641 1_566
Mn1 Ti1 3.237641 1_655
Te0 Ti1 2.616308 1_566
Te1 Ti1 2.616320 1_566
Te2 Ti1 2.616314 1_655
Te3 Ti1 2.616310 1_655
Te4 Ti0 2.616308 1_655
Te5 Ti0 2.616320 1_555
Te6 Ti0 2.616314 1_556
Te7 Ti0 2.616310 1_565
