# generated using pymatgen
data_Rb2LiScP2
_symmetry_space_group_name_H-M   'P 1'
_cell_length_a   8.91533851
_cell_length_b   8.91533786
_cell_length_c   8.91533842
_cell_angle_alpha   136.59894274
_cell_angle_beta   136.98387239
_cell_angle_gamma   62.75967919
_symmetry_Int_Tables_number   1
_chemical_formula_structural   Rb2LiScP2
_chemical_formula_sum   'Rb4 Li2 Sc2 P4'
_cell_volume   328.05079429
_cell_formula_units_Z   2
loop_
 _symmetry_equiv_pos_site_id
 _symmetry_equiv_pos_as_xyz
  1  'x, y, z'
loop_
 _atom_site_type_symbol
 _atom_site_label
 _atom_site_symmetry_multiplicity
 _atom_site_fract_x
 _atom_site_fract_y
 _atom_site_fract_z
 _atom_site_occupancy
  Rb  Rb0  1  0.10683875  0.82124618  0.28559258  1
  Rb  Rb1  1  0.89316125  0.17875382  0.71440742  1
  Rb  Rb2  1  0.46434640  0.67875382  0.78559258  1
  Rb  Rb3  1  0.53565360  0.32124618  0.21440742  1
  Li  Li0  1  0.50000000  0.25000000  0.75000000  1
  Li  Li1  1  0.50000000  0.75000000  0.25000000  1
  Sc  Sc0  1  0.00000000  0.25000000  0.25000000  1
  Sc  Sc1  1  0.00000000  0.75000000  0.75000000  1
  P  P0  1  0.68317437  0.91501629  0.76815708  1
  P  P1  1  0.14685921  0.41501629  0.73184292  1
  P  P2  1  0.85314079  0.58498371  0.26815708  1
  P  P3  1  0.31682563  0.08498371  0.23184292  1
loop_
_geom_bond_atom_site_label_1
_geom_bond_atom_site_label_2
_geom_bond_distance
_geom_bond_site_symmetry_2
Rb0 Sc0 3.688746 1_565
Rb0 Sc1 3.688747 1_554
Rb0 Rb2 3.922897 1_555
Rb0 Rb2 3.922897 1_454
Rb0 Rb1 3.973472 1_454
Rb0 Rb1 3.973472 1_465
Rb0 Rb3 4.327275 1_555
Rb0 Rb3 4.327276 1_566
Rb1 Sc1 3.688746 1_645
Rb1 Sc0 3.688747 1_656
Rb1 Rb3 3.922897 1_555
Rb1 Rb3 3.922897 1_656
Rb1 Rb2 4.327275 1_555
Rb1 Rb2 4.327276 1_544
Rb2 Sc0 3.688747 1_555
Rb2 Sc1 3.688747 1_555
Rb2 Rb3 3.973471 1_566
Rb2 Rb3 3.973472 1_555
Rb3 Sc1 3.688747 1_655
Rb3 Sc0 3.688747 1_655
Li0 P3 2.731921 1_555
Li0 P1 2.731924 1_555
Li0 P2 2.731924 1_556
Li0 P0 2.731925 1_545
Li0 Sc0 3.268650 1_555
Li0 Sc0 3.268650 1_656
Li0 Li1 3.296494 1_545
Li0 Li1 3.296494 1_556
Li0 Rb2 3.476457 1_555
Li0 Rb0 3.476458 1_545
Li0 Rb3 3.476458 1_556
Li0 Rb1 3.476458 1_555
Li1 P0 2.731921 1_555
Li1 P2 2.731924 1_555
Li1 P1 2.731924 1_554
Li1 P3 2.731925 1_565
Li1 Sc1 3.268650 1_554
Li1 Sc1 3.268650 1_655
Li1 Rb3 3.476457 1_555
Li1 Rb1 3.476458 1_565
Li1 Rb2 3.476458 1_554
Li1 Rb0 3.476458 1_555
P0 Sc1 2.586002 1_655
P0 Sc0 2.586006 1_666
P0 Rb0 3.462591 1_555
P0 Rb2 3.598355 1_555
P0 Rb3 3.609418 1_555
P0 Rb3 3.609424 1_566
P0 Rb0 3.671478 1_656
P1 Sc1 2.586009 1_555
P1 Sc0 2.586009 1_555
P1 Rb3 3.462585 1_556
P1 Rb1 3.598348 1_455
P1 Rb0 3.609417 1_545
P1 Rb0 3.609418 1_556
P1 Rb3 3.671478 1_455
P2 Sc0 2.586009 1_655
P2 Sc1 2.586009 1_655
P2 Rb2 3.462585 1_554
P2 Rb0 3.598348 1_655
P2 Rb1 3.609417 1_565
P2 Rb1 3.609418 1_554
P2 Rb2 3.671478 1_655
P3 Sc0 2.586002 1_555
P3 Sc1 2.586006 1_544
P3 Rb1 3.462591 1_555
P3 Rb3 3.598355 1_555
P3 Rb2 3.609418 1_555
P3 Rb2 3.609424 1_544
P3 Rb1 3.671478 1_454
