# generated using pymatgen
data_Lu3Ni6B2Ir
_symmetry_space_group_name_H-M   'P 1'
_cell_length_a   4.98289814
_cell_length_b   4.98289892
_cell_length_c   14.37077295
_cell_angle_alpha   90.00000000
_cell_angle_beta   90.00000000
_cell_angle_gamma   120.00001430
_symmetry_Int_Tables_number   1
_chemical_formula_structural   Lu3Ni6B2Ir
_chemical_formula_sum   'Lu6 Ni12 B4 Ir2'
_cell_volume   309.01160089
_cell_formula_units_Z   2
loop_
 _symmetry_equiv_pos_site_id
 _symmetry_equiv_pos_as_xyz
  1  'x, y, z'
loop_
 _atom_site_type_symbol
 _atom_site_label
 _atom_site_symmetry_multiplicity
 _atom_site_fract_x
 _atom_site_fract_y
 _atom_site_fract_z
 _atom_site_occupancy
  Lu  Lu0  1  0.33333300  0.66666700  0.53272599  1
  Lu  Lu1  1  0.66666700  0.33333300  0.03272599  1
  Lu  Lu2  1  0.66666700  0.33333300  0.46727401  1
  Lu  Lu3  1  0.33333300  0.66666700  0.96727401  1
  Lu  Lu4  1  0.33333300  0.66666700  0.75000000  1
  Lu  Lu5  1  0.66666700  0.33333300  0.25000000  1
  Ni  Ni0  1  0.16537918  0.33075937  0.15136000  1
  Ni  Ni1  1  0.83462082  0.66924063  0.65136000  1
  Ni  Ni2  1  0.66924063  0.83462082  0.15136000  1
  Ni  Ni3  1  0.16537918  0.83462082  0.15136000  1
  Ni  Ni4  1  0.83462082  0.16537918  0.65136000  1
  Ni  Ni5  1  0.33075937  0.16537918  0.65136000  1
  Ni  Ni6  1  0.83462082  0.66924063  0.84864000  1
  Ni  Ni7  1  0.83462082  0.16537918  0.84864000  1
  Ni  Ni8  1  0.33075937  0.16537918  0.84864000  1
  Ni  Ni9  1  0.66924063  0.83462082  0.34864000  1
  Ni  Ni10  1  0.16537918  0.83462082  0.34864000  1
  Ni  Ni11  1  0.16537918  0.33075937  0.34864000  1
  B  B0  1  0.33333300  0.66666700  0.25000000  1
  B  B1  1  0.66666700  0.33333300  0.75000000  1
  B  B2  1  0.00000000  0.00000000  0.25000000  1
  B  B3  1  0.00000000  0.00000000  0.75000000  1
  Ir  Ir0  1  0.00000000  0.00000000  0.00000000  1
  Ir  Ir1  1  0.00000000  0.00000000  0.50000000  1
loop_
_geom_bond_atom_site_label_1
_geom_bond_atom_site_label_2
_geom_bond_distance
_geom_bond_site_symmetry_2
Lu0 Ni9 3.016560 1_555
Lu0 Ni11 3.016560 1_555
Lu0 Ni10 3.016560 1_555
Lu0 Ni1 3.018936 1_455
Lu0 Ni5 3.018936 1_565
Lu0 Ni4 3.018940 1_565
Lu0 Ni4 3.018940 1_455
Lu0 Ni1 3.018944 1_555
Lu0 Ni5 3.018944 1_555
Lu0 Lu2 3.026735 1_455
Lu0 Lu2 3.026736 1_565
Lu0 Lu2 3.026744 1_555
Lu0 Lu4 3.122396 1_555
Lu1 Ni8 3.016560 1_554
Lu1 Ni6 3.016560 1_554
Lu1 Ni7 3.016560 1_554
Lu1 Ni0 3.018936 1_655
Lu1 Ni2 3.018936 1_545
Lu1 Ni3 3.018940 1_545
Lu1 Ni3 3.018940 1_655
Lu1 Ni0 3.018944 1_555
Lu1 Ni2 3.018944 1_555
Lu1 Lu3 3.026735 1_654
Lu1 Lu3 3.026736 1_544
Lu1 Lu3 3.026744 1_554
Lu1 Lu5 3.122396 1_555
Lu2 Ni5 3.016560 1_555
Lu2 Ni1 3.016560 1_555
Lu2 Ni4 3.016560 1_555
Lu2 Ni11 3.018936 1_655
Lu2 Ni9 3.018936 1_545
Lu2 Ni10 3.018940 1_545
Lu2 Ni10 3.018940 1_655
Lu2 Ni11 3.018944 1_555
Lu2 Ni9 3.018944 1_555
Lu2 Lu5 3.122396 1_555
Lu3 Ni2 3.016560 1_556
Lu3 Ni0 3.016560 1_556
Lu3 Ni3 3.016560 1_556
Lu3 Ni6 3.018936 1_455
Lu3 Ni8 3.018936 1_565
Lu3 Ni7 3.018940 1_565
Lu3 Ni7 3.018940 1_455
Lu3 Ni6 3.018944 1_555
Lu3 Ni8 3.018944 1_555
Lu3 Lu4 3.122396 1_555
Lu4 Ni6 2.866499 1_455
Lu4 Ni1 2.866499 1_455
Lu4 Ni8 2.866499 1_565
Lu4 Ni5 2.866499 1_565
Lu4 Ni7 2.866503 1_565
Lu4 Ni4 2.866503 1_565
Lu4 Ni7 2.866503 1_455
Lu4 Ni4 2.866503 1_455
Lu4 Ni6 2.866508 1_555
Lu4 Ni1 2.866508 1_555
Lu4 Ni8 2.866508 1_555
Lu4 Ni5 2.866508 1_555
Lu5 Ni11 2.866499 1_655
Lu5 Ni0 2.866499 1_655
Lu5 Ni9 2.866499 1_545
Lu5 Ni2 2.866499 1_545
Lu5 Ni10 2.866503 1_545
Lu5 Ni3 2.866503 1_545
Lu5 Ni10 2.866503 1_655
Lu5 Ni3 2.866503 1_655
Lu5 Ni11 2.866508 1_555
Lu5 Ni0 2.866508 1_555
Lu5 Ni9 2.866508 1_555
Lu5 Ni2 2.866508 1_555
Ni0 Ni2 2.472208 1_445
Ni0 Ni3 2.472208 1_545
Ni0 Ni2 2.510690 1_555
Ni0 Ni3 2.510691 1_555
Ni1 Ni5 2.472208 1_665
Ni1 Ni4 2.472208 1_565
Ni1 Ni5 2.510690 1_555
Ni1 Ni4 2.510691 1_555
Ni2 Ni3 2.472208 1_655
Ni2 Ni3 2.510690 1_555
Ni4 Ni5 2.472208 1_655
Ni4 Ni5 2.510690 1_555
Ni6 Ni8 2.472208 1_665
Ni6 Ni7 2.472208 1_565
Ni6 Ni8 2.510690 1_555
Ni6 Ni7 2.510691 1_555
Ni7 Ni8 2.472208 1_655
Ni7 Ni8 2.510690 1_555
Ni10 Ni9 2.472208 1_455
Ni10 Ni11 2.472208 1_565
Ni10 Ni9 2.510690 1_555
Ni10 Ni11 2.510691 1_555
Ni11 Ni9 2.472208 1_445
Ni11 Ni9 2.510690 1_555
B0 Ni9 2.027459 1_555
B0 Ni2 2.027459 1_555
B0 Ni11 2.027459 1_555
B0 Ni0 2.027459 1_555
B0 Ni10 2.027459 1_555
B0 Ni3 2.027459 1_555
B0 Lu5 2.876874 1_455
B0 Lu5 2.876875 1_565
B0 Lu5 2.876884 1_555
B1 Ni8 2.027459 1_555
B1 Ni5 2.027459 1_555
B1 Ni6 2.027459 1_555
B1 Ni1 2.027459 1_555
B1 Ni7 2.027459 1_555
B1 Ni4 2.027459 1_555
B1 Lu4 2.876874 1_655
B1 Lu4 2.876875 1_545
B1 Lu4 2.876884 1_555
B2 Ni10 2.011632 1_545
B2 Ni3 2.011632 1_545
B2 Ni9 2.011635 1_445
B2 Ni2 2.011635 1_445
B2 Ni11 2.011635 1_555
B2 Ni0 2.011635 1_555
B2 Lu5 2.876875 1_455
B2 Lu5 2.876879 1_555
B2 Lu5 2.876879 1_445
B3 Ni7 2.011632 1_455
B3 Ni4 2.011632 1_455
B3 Ni8 2.011635 1_555
B3 Ni5 2.011635 1_555
B3 Ni6 2.011635 1_445
B3 Ni1 2.011635 1_445
B3 Lu4 2.876875 1_545
B3 Lu4 2.876879 1_445
B3 Lu4 2.876879 1_555
Ir0 Ni3 2.601650 1_545
Ir0 Ni7 2.601650 1_454
Ir0 Ni2 2.601652 1_445
Ir0 Ni8 2.601652 1_554
Ir0 Ni0 2.601653 1_555
Ir0 Ni6 2.601653 1_444
Ir0 Lu1 2.915063 1_455
Ir0 Lu3 2.915063 1_544
Ir0 Lu1 2.915066 1_555
Ir0 Lu3 2.915066 1_444
Ir0 Lu3 2.915067 1_554
Ir0 Lu1 2.915067 1_445
Ir1 Ni4 2.601650 1_455
Ir1 Ni10 2.601650 1_545
Ir1 Ni5 2.601652 1_555
Ir1 Ni9 2.601652 1_445
Ir1 Ni1 2.601653 1_445
Ir1 Ni11 2.601653 1_555
Ir1 Lu0 2.915063 1_545
Ir1 Lu2 2.915063 1_455
Ir1 Lu2 2.915066 1_555
Ir1 Lu0 2.915066 1_445
Ir1 Lu0 2.915067 1_555
Ir1 Lu2 2.915067 1_445
