# generated using pymatgen
data_C3S8
_symmetry_space_group_name_H-M   'P 1'
_cell_length_a   4.99789700
_cell_length_b   9.37570921
_cell_length_c   12.56233036
_cell_angle_alpha   99.94975394
_cell_angle_beta   98.36243984
_cell_angle_gamma   90.58947979
_symmetry_Int_Tables_number   1
_chemical_formula_structural   C3S8
_chemical_formula_sum   'C6 S16'
_cell_volume   573.25898732
_cell_formula_units_Z   2
loop_
 _symmetry_equiv_pos_site_id
 _symmetry_equiv_pos_as_xyz
  1  'x, y, z'
loop_
 _atom_site_type_symbol
 _atom_site_label
 _atom_site_symmetry_multiplicity
 _atom_site_fract_x
 _atom_site_fract_y
 _atom_site_fract_z
 _atom_site_occupancy
  C  C0  1  0.69403300  0.85682400  0.79107600  1
  C  C1  1  0.30596700  0.14317600  0.20892400  1
  C  C2  1  0.65839900  0.79163100  0.68302100  1
  C  C3  1  0.34160100  0.20836900  0.31697900  1
  C  C4  1  0.36949600  0.02658800  0.68814300  1
  C  C5  1  0.63050400  0.97341200  0.31185700  1
  S  S0  1  0.18612500  0.36476900  0.37507400  1
  S  S1  1  0.81387500  0.63523100  0.62492600  1
  S  S2  1  0.37887400  0.53419600  0.32709300  1
  S  S3  1  0.62112600  0.46580400  0.67290700  1
  S  S4  1  0.16415900  0.55099100  0.17614200  1
  S  S5  1  0.83584100  0.44900900  0.82385800  1
  S  S6  1  0.29645000  0.37971900  0.07189600  1
  S  S7  1  0.70355000  0.62028100  0.92810400  1
  S  S8  1  0.09698000  0.19842200  0.09915500  1
  S  S9  1  0.90302000  0.80157800  0.90084500  1
  S  S10  1  0.52250900  0.01621200  0.82052000  1
  S  S11  1  0.47749100  0.98378800  0.17948000  1
  S  S12  1  0.44607500  0.87867400  0.59389000  1
  S  S13  1  0.55392500  0.12132600  0.40611000  1
  S  S14  1  0.17248300  0.15733100  0.65657100  1
  S  S15  1  0.82751700  0.84266900  0.34342900  1
loop_
_geom_bond_atom_site_label_1
_geom_bond_atom_site_label_2
_geom_bond_distance
_geom_bond_site_symmetry_2
C0 C2 1.374278 1_555
C0 S10 1.741392 1_565
C0 S9 1.760623 1_555
C1 C3 1.374278 1_555
C1 S11 1.741392 1_545
C1 S8 1.760623 1_555
C2 S12 1.741777 1_555
C2 S1 1.762166 1_555
C3 S13 1.741777 1_555
C3 S0 1.762166 1_555
C4 S14 1.645813 1_555
C4 S12 1.745550 1_545
C4 S10 1.745643 1_555
C5 S15 1.645813 1_555
C5 S13 1.745550 1_565
C5 S11 1.745643 1_555
S0 S2 2.069527 1_555
S1 S3 2.069527 1_555
S2 S4 2.070528 1_555
S3 S5 2.070528 1_555
S4 S6 2.068264 1_555
S5 S7 2.068264 1_555
S6 S8 2.065427 1_555
S7 S9 2.065427 1_555
