# generated using pymatgen
data_Lu6ReB14Os
_symmetry_space_group_name_H-M   'P 1'
_cell_length_a   7.86828151
_cell_length_b   7.86828242
_cell_length_c   9.16748815
_cell_angle_alpha   90.00000000
_cell_angle_beta   90.00000000
_cell_angle_gamma   154.50582997
_symmetry_Int_Tables_number   1
_chemical_formula_structural   Lu6ReB14Os
_chemical_formula_sum   'Lu6 Re1 B14 Os1'
_cell_volume   244.28785586
_cell_formula_units_Z   1
loop_
 _symmetry_equiv_pos_site_id
 _symmetry_equiv_pos_as_xyz
  1  'x, y, z'
loop_
 _atom_site_type_symbol
 _atom_site_label
 _atom_site_symmetry_multiplicity
 _atom_site_fract_x
 _atom_site_fract_y
 _atom_site_fract_z
 _atom_site_occupancy
  Lu  Lu0  1  0.89417299  0.10582701  0.44200466  1
  Lu  Lu1  1  0.10565772  0.89434228  0.56009154  1
  Lu  Lu2  1  0.89417299  0.10582701  0.05799534  1
  Lu  Lu3  1  0.10565772  0.89434228  0.93990846  1
  Lu  Lu4  1  0.24415851  0.75584149  0.25000000  1
  Lu  Lu5  1  0.75663906  0.24336094  0.75000000  1
  Re  Re0  1  0.94791968  0.05208032  0.75000000  1
  B  B0  1  0.72747964  0.27252036  0.46415990  1
  B  B1  1  0.27177108  0.72822892  0.53418304  1
  B  B2  1  0.72747964  0.27252036  0.03584010  1
  B  B3  1  0.27177108  0.72822892  0.96581696  1
  B  B4  1  0.63195078  0.36804922  0.15046180  1
  B  B5  1  0.36753585  0.63246415  0.84978193  1
  B  B6  1  0.63195078  0.36804922  0.34953820  1
  B  B7  1  0.36753585  0.63246415  0.65021807  1
  B  B8  1  0.51908649  0.48091351  0.09525100  1
  B  B9  1  0.48107475  0.51892525  0.90572844  1
  B  B10  1  0.51908649  0.48091351  0.40474900  1
  B  B11  1  0.48107475  0.51892525  0.59427156  1
  B  B12  1  0.45205026  0.54794974  0.25000000  1
  B  B13  1  0.54872290  0.45127710  0.75000000  1
  Os  Os0  1  0.05305399  0.94694601  0.25000000  1
loop_
_geom_bond_atom_site_label_1
_geom_bond_atom_site_label_2
_geom_bond_distance
_geom_bond_site_symmetry_2
Lu0 Re0 2.941586 1_555
Lu0 Os0 3.007519 1_645
Lu0 Lu4 3.378469 1_545
Lu0 Lu4 3.378470 1_655
Lu1 Os0 2.955196 1_555
Lu1 Re0 2.982052 1_465
Lu1 Lu5 3.378658 1_565
Lu1 Lu5 3.378659 1_455
Lu2 Re0 2.941586 1_554
Lu2 Os0 3.007519 1_645
Lu2 Lu4 3.378469 1_545
Lu2 Lu4 3.378470 1_655
Lu3 Os0 2.955196 1_556
Lu3 Re0 2.982052 1_465
Lu3 Lu5 3.378658 1_565
Lu3 Lu5 3.378659 1_455
Lu4 Os0 2.933209 1_555
Lu5 Re0 2.935911 1_555
B0 B6 1.803896 1_555
B0 B1 1.971888 1_655
B0 B1 1.971888 1_545
B0 Lu0 2.566578 1_555
B0 Lu4 2.633292 1_655
B0 Lu4 2.633292 1_545
B0 Lu5 2.658382 1_555
B0 Lu1 2.698839 1_545
B0 Lu1 2.698840 1_655
B1 B7 1.814406 1_555
B1 Lu1 2.560666 1_555
B1 Lu4 2.639493 1_555
B1 Lu5 2.642445 1_455
B1 Lu5 2.642445 1_565
B1 Lu0 2.694024 1_565
B1 Lu0 2.694025 1_455
B2 B4 1.803896 1_555
B2 B3 1.971888 1_654
B2 B3 1.971888 1_544
B2 Lu2 2.566578 1_555
B2 Lu4 2.633292 1_655
B2 Lu4 2.633292 1_545
B2 Lu5 2.658382 1_554
B2 Lu3 2.698839 1_544
B2 Lu3 2.698840 1_654
B3 B5 1.814406 1_555
B3 Lu3 2.560666 1_555
B3 Lu4 2.639493 1_556
B3 Lu5 2.642445 1_455
B3 Lu5 2.642445 1_565
B3 Lu2 2.694024 1_566
B3 Lu2 2.694025 1_456
B4 B8 1.804749 1_555
B4 B6 1.825031 1_555
B4 Os0 2.305044 1_545
B4 Os0 2.305044 1_655
B4 Lu4 2.610157 1_655
B4 Lu4 2.610157 1_545
B4 Lu3 2.627322 1_544
B4 Lu3 2.627322 1_654
B5 B9 1.816583 1_555
B5 B7 1.829499 1_555
B5 Re0 2.317997 1_565
B5 Re0 2.317997 1_455
B5 Lu5 2.597710 1_455
B5 Lu5 2.597711 1_565
B5 Lu2 2.612424 1_566
B5 Lu2 2.612424 1_456
B6 Os0 2.305044 1_545
B6 Os0 2.305044 1_655
B6 Lu4 2.610157 1_655
B6 Lu4 2.610157 1_545
B6 Lu1 2.627322 1_545
B6 Lu1 2.627322 1_655
B7 Re0 2.317997 1_565
B7 Re0 2.317997 1_455
B7 Lu5 2.597710 1_455
B7 Lu5 2.597711 1_565
B7 Lu0 2.612424 1_565
B7 Lu0 2.612424 1_455
B8 B9 1.832787 1_554
B8 Os0 2.301851 1_655
B8 Os0 2.301851 1_545
B8 Lu2 2.608956 1_455
B8 Lu2 2.608956 1_565
B8 Lu3 2.609170 1_654
B8 Lu3 2.609170 1_544
B9 Re0 2.304610 1_455
B9 Re0 2.304610 1_565
B9 Lu2 2.596490 1_456
B9 Lu2 2.596491 1_566
B9 Lu3 2.601684 1_655
B9 Lu3 2.601684 1_545
B10 B12 1.752504 1_555
B10 B6 1.804749 1_555
B10 B11 1.832787 1_555
B10 Os0 2.301851 1_655
B10 Os0 2.301851 1_545
B10 Lu0 2.608956 1_455
B10 Lu0 2.608956 1_565
B10 Lu1 2.609170 1_655
B10 Lu1 2.609170 1_545
B11 B13 1.765289 1_555
B11 B7 1.816583 1_555
B11 Re0 2.304610 1_455
B11 Re0 2.304610 1_565
B11 Lu0 2.596490 1_455
B11 Lu0 2.596491 1_565
B11 Lu1 2.601684 1_655
B11 Lu1 2.601684 1_545
B12 B8 1.752504 1_555
B12 Os0 2.327545 1_655
B12 Os0 2.327546 1_545
B12 Lu0 2.627083 1_455
B12 Lu2 2.627083 1_455
B12 Lu0 2.627083 1_565
B12 Lu2 2.627083 1_565
B12 Lu4 3.190871 1_555
B13 B9 1.765289 1_555
B13 Re0 2.325497 1_455
B13 Re0 2.325497 1_565
B13 Lu3 2.609366 1_655
B13 Lu1 2.609366 1_655
B13 Lu3 2.609367 1_545
B13 Lu1 2.609367 1_545
B13 Lu5 3.191246 1_555
