# generated using pymatgen
data_Lu12In2TcOs2
_symmetry_space_group_name_H-M   'P 1'
_cell_length_a   8.23429708
_cell_length_b   8.23429778
_cell_length_c   8.23429703
_cell_angle_alpha   109.66793302
_cell_angle_beta   109.66793113
_cell_angle_gamma   109.07850659
_symmetry_Int_Tables_number   1
_chemical_formula_structural   Lu12In2TcOs2
_chemical_formula_sum   'Lu12 In2 Tc1 Os2'
_cell_volume   429.77630454
_cell_formula_units_Z   1
loop_
 _symmetry_equiv_pos_site_id
 _symmetry_equiv_pos_as_xyz
  1  'x, y, z'
loop_
 _atom_site_type_symbol
 _atom_site_label
 _atom_site_symmetry_multiplicity
 _atom_site_fract_x
 _atom_site_fract_y
 _atom_site_fract_z
 _atom_site_occupancy
  Lu  Lu0  1  0.31967659  0.31967659  0.63941002  1
  Lu  Lu1  1  0.68026556  0.68026556  0.36058998  1
  Lu  Lu2  1  0.68026556  0.31967659  1.00000000  1
  Lu  Lu3  1  0.31967659  0.68026556  0.00000000  1
  Lu  Lu4  1  0.18279559  0.42413906  0.24134448  1
  Lu  Lu5  1  0.81612642  0.57416984  0.75804342  1
  Lu  Lu6  1  0.18279559  0.94145011  0.75865552  1
  Lu  Lu7  1  0.94145011  0.18279559  0.75865552  1
  Lu  Lu8  1  0.81612642  0.05808400  0.24195658  1
  Lu  Lu9  1  0.05808400  0.81612642  0.24195658  1
  Lu  Lu10  1  0.42413906  0.18279559  0.24134448  1
  Lu  Lu11  1  0.57416984  0.81612642  0.75804342  1
  In  In0  1  0.00023695  0.50023695  0.50000000  1
  In  In1  1  0.50023695  0.00023695  0.50000000  1
  Tc  Tc0  1  0.65989582  0.65989582  0.00000000  1
  Os  Os0  1  0.34384979  0.34384979  0.00000000  1
  Os  Os1  1  0.00021016  0.00021016  1.00000000  1
loop_
_geom_bond_atom_site_label_1
_geom_bond_atom_site_label_2
_geom_bond_distance
_geom_bond_site_symmetry_2
Lu0 Os0 2.841451 1_556
Lu0 Tc0 2.860690 1_556
Lu0 Lu2 3.420209 1_555
Lu0 Lu3 3.420209 1_556
Lu0 Lu5 3.520021 1_555
Lu0 Lu11 3.520021 1_555
Lu0 Lu7 3.527446 1_455
Lu0 Lu6 3.527446 1_545
Lu0 Lu10 3.577572 1_555
Lu0 Lu4 3.577572 1_555
Lu0 Lu8 3.581152 1_455
Lu0 Lu9 3.581152 1_545
Lu1 Os0 2.841447 1_555
Lu1 Tc0 2.860695 1_555
Lu1 Lu3 3.420209 1_555
Lu1 Lu2 3.420209 1_554
Lu1 Lu9 3.520036 1_655
Lu1 Lu8 3.520036 1_565
Lu1 Lu4 3.527431 1_555
Lu1 Lu10 3.527432 1_555
Lu1 Lu6 3.577583 1_655
Lu1 Lu7 3.577583 1_565
Lu1 Lu11 3.581146 1_555
Lu1 Lu5 3.581146 1_555
Lu2 Os0 2.841443 1_556
Lu2 Tc0 2.860687 1_556
Lu2 Lu5 3.520023 1_555
Lu2 Lu9 3.520026 1_656
Lu2 Lu6 3.527436 1_545
Lu2 Lu7 3.577577 1_555
Lu2 Lu4 3.577587 1_656
Lu2 Lu8 3.581146 1_556
Lu3 Os0 2.841443 1_555
Lu3 Tc0 2.860686 1_555
Lu3 Lu8 3.520026 1_565
Lu3 Lu7 3.527436 1_454
Lu3 Lu4 3.527438 1_555
Lu3 Lu6 3.577577 1_554
Lu3 Lu9 3.581146 1_555
Lu3 Lu5 3.581154 1_454
Lu4 Os0 2.758258 1_555
Lu4 Os1 2.878082 1_554
Lu4 Lu7 3.237368 1_454
Lu4 Lu8 3.503216 1_455
Lu4 Lu9 3.692190 1_555
Lu5 Tc0 2.737683 1_556
Lu5 Os1 2.891393 1_665
Lu5 Lu9 3.245578 1_656
Lu5 Lu6 3.503221 1_655
Lu5 Lu7 3.692182 1_555
Lu6 Os0 2.758266 1_566
Lu6 Os1 2.878089 1_565
Lu6 Lu7 3.237381 1_465
Lu6 Lu9 3.692189 1_555
Lu7 Os0 2.758266 1_656
Lu7 Os1 2.878089 1_655
Lu7 Lu8 3.692189 1_555
Lu8 Tc0 2.737689 1_545
Lu8 Os1 2.891394 1_654
Lu8 Lu9 3.245592 1_645
Lu9 Tc0 2.737689 1_455
Lu9 Os1 2.891394 1_564
Lu10 Os0 2.758258 1_555
Lu10 Os1 2.878081 1_554
Lu10 Lu4 3.237354 1_555
Lu10 Lu6 3.237368 1_544
Lu10 Lu9 3.503216 1_545
Lu10 Lu2 3.527438 1_554
Lu10 Lu3 3.577588 1_545
Lu10 Lu5 3.692188 1_555
Lu10 Lu8 3.692189 1_555
Lu11 Tc0 2.737683 1_556
Lu11 Os1 2.891393 1_665
Lu11 Lu8 3.245578 1_566
Lu11 Lu5 3.245578 1_555
Lu11 Lu7 3.503221 1_565
Lu11 Lu3 3.520023 1_556
Lu11 Lu2 3.581154 1_565
Lu11 Lu6 3.692181 1_555
Lu11 Lu4 3.692188 1_555
In0 Lu6 3.010177 1_555
In0 Lu4 3.010184 1_555
In0 Lu8 3.014076 1_455
In0 Lu5 3.014082 1_455
In0 Lu0 3.481384 1_555
In0 Lu1 3.481384 1_455
In0 Lu3 3.481386 1_556
In0 Lu2 3.481386 1_454
In0 Lu11 3.885773 1_555
In0 Lu9 3.885773 1_555
In0 Lu7 3.900949 1_455
In0 Lu10 3.900955 1_455
In1 Lu7 3.010176 1_555
In1 Lu10 3.010184 1_555
In1 Lu9 3.014075 1_545
In1 Lu11 3.014082 1_545
In1 Lu0 3.481384 1_555
In1 Lu1 3.481384 1_545
In1 Lu2 3.481386 1_555
In1 Lu3 3.481386 1_545
In1 Lu5 3.885773 1_555
In1 Lu8 3.885773 1_555
In1 Lu6 3.900949 1_545
In1 Lu4 3.900956 1_545
Os0 Tc0 3.019559 1_555
Os0 Os1 3.283193 1_554
Os1 Tc0 3.251423 1_446
