# generated using pymatgen
data_Sr6Sn8BiAu
_symmetry_space_group_name_H-M   'P 1'
_cell_length_a   8.97004249
_cell_length_b   8.97004253
_cell_length_c   8.97004315
_cell_angle_alpha   120.55528887
_cell_angle_beta   120.55528860
_cell_angle_gamma   89.04087360
_symmetry_Int_Tables_number   1
_chemical_formula_structural   Sr6Sn8BiAu
_chemical_formula_sum   'Sr6 Sn8 Bi1 Au1'
_cell_volume   505.99014108
_cell_formula_units_Z   1
loop_
 _symmetry_equiv_pos_site_id
 _symmetry_equiv_pos_as_xyz
  1  'x, y, z'
loop_
 _atom_site_type_symbol
 _atom_site_label
 _atom_site_symmetry_multiplicity
 _atom_site_fract_x
 _atom_site_fract_y
 _atom_site_fract_z
 _atom_site_occupancy
  Sr  Sr0  1  0.25390764  0.25390764  1.00000000  1
  Sr  Sr1  1  0.74609236  0.74609236  0.00000000  1
  Sr  Sr2  1  0.16548455  0.66054075  0.82602630  1
  Sr  Sr3  1  0.83451545  0.33945925  0.17397370  1
  Sr  Sr4  1  0.66054075  0.83451545  0.49505621  1
  Sr  Sr5  1  0.33945925  0.16548455  0.50494379  1
  Sn  Sn0  1  0.83126033  0.33495739  0.78582175  1
  Sn  Sn1  1  0.16873967  0.66504261  0.21417825  1
  Sn  Sn2  1  0.54913463  0.04543858  0.21417825  1
  Sn  Sn3  1  0.33495739  0.54913463  0.50369706  1
  Sn  Sn4  1  0.95456142  0.16873967  0.50369706  1
  Sn  Sn5  1  0.45086537  0.95456142  0.78582175  1
  Sn  Sn6  1  0.66504261  0.45086537  0.49630294  1
  Sn  Sn7  1  0.04543858  0.83126033  0.49630294  1
  Bi  Bi0  1  0.00000000  0.00000000  0.00000000  1
  Au  Au0  1  0.50000000  0.50000000  0.00000000  1
loop_
_geom_bond_atom_site_label_1
_geom_bond_atom_site_label_2
_geom_bond_distance
_geom_bond_site_symmetry_2
Sr2 Sr3 4.101535 1_455
Sr4 Sr5 4.101523 1_565
Sn0 Sn4 2.967298 1_555
Sn0 Sn6 2.967305 1_555
Sn0 Sn1 3.098562 1_656
Sn0 Sr3 3.446552 1_556
Sn0 Sr1 3.474105 1_556
Sn0 Sr0 3.537631 1_655
Sn0 Sn2 3.595634 1_555
Sn0 Sr5 3.626225 1_555
Sn0 Sr4 3.682908 1_545
Sn1 Sn7 2.967298 1_555
Sn1 Sn3 2.967305 1_555
Sn1 Sr2 3.446552 1_554
Sn1 Sr0 3.474105 1_554
Sn1 Sr1 3.537631 1_455
Sn1 Sn5 3.595634 1_555
Sn1 Sr4 3.626225 1_555
Sn1 Sr5 3.682908 1_565
Sn2 Sn6 2.967304 1_555
Sn2 Sn4 2.967305 1_555
Sn2 Sn5 3.098568 1_544
Sn2 Sr2 3.446556 1_544
Sn2 Sr1 3.474112 1_545
Sn2 Sr0 3.537627 1_554
Sn2 Sr4 3.626224 1_545
Sn2 Sr5 3.682900 1_555
Sn3 Sn5 2.967304 1_555
Sn3 Sn6 3.098557 1_555
Sn3 Sr5 3.446551 1_555
Sn3 Sr1 3.474104 1_556
Sn3 Sr0 3.537631 1_554
Sn3 Sn7 3.595640 1_555
Sn3 Sr2 3.626232 1_555
Sn3 Sr3 3.682906 1_455
Sn4 Sn7 3.098562 1_645
Sn4 Sr5 3.446560 1_655
Sn4 Sr0 3.474105 1_655
Sn4 Sr1 3.537631 1_545
Sn4 Sn6 3.595640 1_555
Sn4 Sr2 3.626224 1_655
Sn4 Sr3 3.682916 1_555
Sn5 Sn7 2.967305 1_555
Sn5 Sr3 3.446556 1_566
Sn5 Sr0 3.474112 1_565
Sn5 Sr1 3.537627 1_556
Sn5 Sr5 3.626224 1_565
Sn5 Sr4 3.682900 1_555
Sn6 Sr4 3.446551 1_555
Sn6 Sr0 3.474104 1_554
Sn6 Sr1 3.537631 1_556
Sn6 Sr3 3.626232 1_555
Sn6 Sr2 3.682906 1_655
Sn7 Sr4 3.446560 1_455
Sn7 Sr1 3.474105 1_455
Sn7 Sr0 3.537631 1_565
Sn7 Sr3 3.626224 1_455
Sn7 Sr2 3.682916 1_555
Bi0 Sr0 3.247806 1_554
Bi0 Sr1 3.247806 1_445
Bi0 Sr3 3.359041 1_455
Bi0 Sr2 3.359041 1_544
Bi0 Sr5 3.359044 1_555
Bi0 Sr4 3.359044 1_444
Au0 Sr1 3.147838 1_555
Au0 Sr0 3.147838 1_554
Au0 Sr3 3.300308 1_555
Au0 Sr2 3.300308 1_554
Au0 Sr4 3.300310 1_555
Au0 Sr5 3.300310 1_554
