# generated using pymatgen
data_Y2BeSi13Ir6
_symmetry_space_group_name_H-M   'P 1'
_cell_length_a   7.94048689
_cell_length_b   7.94048607
_cell_length_c   7.94048676
_cell_angle_alpha   57.29904823
_cell_angle_beta   57.29904130
_cell_angle_gamma   57.29904963
_symmetry_Int_Tables_number   1
_chemical_formula_structural   Y2BeSi13Ir6
_chemical_formula_sum   'Y2 Be1 Si13 Ir6'
_cell_volume   332.00434017
_cell_formula_units_Z   1
loop_
 _symmetry_equiv_pos_site_id
 _symmetry_equiv_pos_as_xyz
  1  'x, y, z'
loop_
 _atom_site_type_symbol
 _atom_site_label
 _atom_site_symmetry_multiplicity
 _atom_site_fract_x
 _atom_site_fract_y
 _atom_site_fract_z
 _atom_site_occupancy
  Y  Y0  1  0.99820982  0.99820982  0.99820982  1
  Y  Y1  1  0.50179018  0.50179018  0.50179018  1
  Be  Be0  1  0.75000000  0.75000000  0.75000000  1
  Si  Si0  1  0.25000000  0.25000000  0.25000000  1
  Si  Si1  1  0.84617085  0.05459949  0.67459410  1
  Si  Si2  1  0.67459410  0.84617085  0.05459949  1
  Si  Si3  1  0.05459949  0.67459410  0.84617085  1
  Si  Si4  1  0.65382915  0.82540590  0.44540051  1
  Si  Si5  1  0.44540051  0.65382915  0.82540590  1
  Si  Si6  1  0.82540590  0.44540051  0.65382915  1
  Si  Si7  1  0.17043155  0.56070698  0.35635854  1
  Si  Si8  1  0.56070698  0.35635854  0.17043155  1
  Si  Si9  1  0.35635854  0.17043155  0.56070698  1
  Si  Si10  1  0.93929302  0.32956845  0.14364146  1
  Si  Si11  1  0.32956845  0.14364146  0.93929302  1
  Si  Si12  1  0.14364146  0.93929302  0.32956845  1
  Ir  Ir0  1  0.08111204  0.41888796  0.75000000  1
  Ir  Ir1  1  0.25000000  0.92576371  0.57423629  1
  Ir  Ir2  1  0.57423629  0.25000000  0.92576371  1
  Ir  Ir3  1  0.92576371  0.57423629  0.25000000  1
  Ir  Ir4  1  0.41888796  0.75000000  0.08111204  1
  Ir  Ir5  1  0.75000000  0.08111204  0.41888796  1
loop_
_geom_bond_atom_site_label_1
_geom_bond_atom_site_label_2
_geom_bond_distance
_geom_bond_site_symmetry_2
Be0 Ir4 2.521134 1_556
Be0 Ir5 2.521134 1_565
Be0 Ir0 2.521134 1_655
Be0 Si1 2.593930 1_565
Be0 Si6 2.593930 1_555
Be0 Si2 2.593930 1_556
Be0 Si5 2.593930 1_555
Be0 Si4 2.593931 1_555
Be0 Si3 2.593931 1_655
Si0 Si12 2.681393 1_545
Si0 Si7 2.681393 1_555
Si0 Si11 2.681393 1_554
Si0 Si8 2.681393 1_555
Si0 Si9 2.681393 1_555
Si0 Si10 2.681393 1_455
Si1 Si2 2.509695 1_546
Si1 Si3 2.509695 1_645
Si1 Si12 2.702729 1_645
Si1 Si6 2.933869 1_555
Si1 Y0 3.128237 1_545
Si1 Y1 3.204260 1_555
Si2 Si3 2.509695 1_654
Si2 Si4 2.933869 1_555
Si2 Y0 3.128237 1_554
Si2 Y1 3.204259 1_555
Si3 Si5 2.933869 1_555
Si3 Y0 3.128237 1_455
Si3 Y1 3.204259 1_555
Si4 Si5 2.509695 1_555
Si4 Si6 2.509695 1_555
Si4 Si9 2.702729 1_565
Si4 Y1 3.128237 1_555
Si4 Y0 3.204259 1_554
Si5 Si6 2.509695 1_555
Si5 Si8 2.702729 1_556
Si5 Y1 3.128237 1_555
Si5 Y0 3.204259 1_455
Si6 Si7 2.702729 1_655
Si6 Y1 3.128237 1_555
Si6 Y0 3.204260 1_545
Si7 Si8 2.574447 1_555
Si7 Si9 2.574447 1_555
Si7 Y1 3.137621 1_555
Si7 Y0 3.228047 1_454
Si8 Si9 2.574447 1_555
Si8 Y1 3.137621 1_555
Si8 Y0 3.228047 1_544
Si9 Y1 3.137621 1_555
Si9 Y0 3.228047 1_445
Si10 Si11 2.574447 1_654
Si10 Si12 2.574447 1_645
Si10 Si3 2.702729 1_654
Si10 Si8 2.791852 1_555
Si10 Y0 3.137621 1_544
Si10 Y1 3.228047 1_555
Si11 Si12 2.574447 1_546
Si11 Si2 2.702729 1_546
Si11 Si9 2.791852 1_555
Si11 Y0 3.137621 1_445
Si11 Y1 3.228047 1_555
Si12 Si7 2.791852 1_555
Si12 Y0 3.137621 1_454
Si12 Y1 3.228047 1_555
Ir0 Si3 2.406222 1_555
Ir0 Si6 2.406222 1_455
Ir0 Si9 2.433874 1_555
Ir0 Si11 2.433875 1_555
Ir0 Si10 2.491091 1_456
Ir0 Si7 2.491091 1_555
Ir0 Y0 3.055563 1_445
Ir0 Y1 3.055563 1_555
Ir1 Si9 2.438952 1_565
Ir1 Si12 2.438953 1_555
Ir1 Si0 2.468781 1_565
Ir1 Si3 2.473448 1_555
Ir1 Si5 2.473449 1_555
Ir1 Si4 2.557187 1_555
Ir1 Si1 2.557187 1_465
Ir1 Y1 3.039575 1_555
Ir1 Y0 3.039575 1_455
Ir2 Si8 2.438952 1_556
Ir2 Si11 2.438952 1_555
Ir2 Si0 2.468781 1_556
Ir2 Si6 2.473448 1_555
Ir2 Si1 2.473448 1_555
Ir2 Si2 2.557187 1_546
Ir2 Si5 2.557187 1_555
Ir2 Y1 3.039576 1_555
Ir2 Y0 3.039576 1_545
Ir3 Si10 2.438952 1_555
Ir3 Si7 2.438953 1_655
Ir3 Si0 2.468781 1_655
Ir3 Si4 2.473448 1_555
Ir3 Si2 2.473449 1_555
Ir3 Si3 2.557187 1_654
Ir3 Si6 2.557187 1_555
Ir3 Y0 3.039575 1_554
Ir3 Y1 3.039575 1_555
Ir4 Si5 2.406222 1_554
Ir4 Si2 2.406222 1_555
Ir4 Si7 2.433874 1_555
Ir4 Si12 2.433874 1_555
Ir4 Si11 2.491091 1_564
Ir4 Si8 2.491091 1_555
Ir4 Y1 3.055563 1_555
Ir4 Y0 3.055564 1_454
Ir5 Si4 2.406222 1_545
Ir5 Si1 2.406222 1_555
Ir5 Si10 2.433874 1_555
Ir5 Si8 2.433874 1_555
Ir5 Si9 2.491091 1_555
Ir5 Si12 2.491091 1_645
Ir5 Y1 3.055563 1_555
Ir5 Y0 3.055563 1_544
