# generated using pymatgen
data_Zr6B4Ir3Ru7
_symmetry_space_group_name_H-M   'P 1'
_cell_length_a   19.13353025
_cell_length_b   19.13474117
_cell_length_c   6.24101330
_cell_angle_alpha   90.00000000
_cell_angle_beta   90.00000000
_cell_angle_gamma   89.99414502
_symmetry_Int_Tables_number   1
_chemical_formula_structural   Zr6B4Ir3Ru7
_chemical_formula_sum   'Zr48 B32 Ir24 Ru56'
_cell_volume   2284.92950037
_cell_formula_units_Z   8
loop_
 _symmetry_equiv_pos_site_id
 _symmetry_equiv_pos_as_xyz
  1  'x, y, z'
loop_
 _atom_site_type_symbol
 _atom_site_label
 _atom_site_symmetry_multiplicity
 _atom_site_fract_x
 _atom_site_fract_y
 _atom_site_fract_z
 _atom_site_occupancy
  Zr  Zr0_0  1  0.33723728  0.08973915  0.00000000  1
  Zr  Zr0_1  1  0.33723728  0.08973915  0.50000000  1
  Zr  Zr0_2  1  0.33723728  0.58973915  0.00000000  1
  Zr  Zr0_3  1  0.33723728  0.58973915  0.50000000  1
  Zr  Zr0_4  1  0.83723728  0.08973915  0.00000000  1
  Zr  Zr0_5  1  0.83723728  0.08973915  0.50000000  1
  Zr  Zr0_6  1  0.83723728  0.58973915  0.00000000  1
  Zr  Zr0_7  1  0.83723728  0.58973915  0.50000000  1
  Zr  Zr1_0  1  0.16478504  0.41099269  0.00000000  1
  Zr  Zr1_1  1  0.16478504  0.41099269  0.50000000  1
  Zr  Zr1_2  1  0.16478504  0.91099269  0.00000000  1
  Zr  Zr1_3  1  0.16478504  0.91099269  0.50000000  1
  Zr  Zr1_4  1  0.66478504  0.41099269  0.00000000  1
  Zr  Zr1_5  1  0.66478504  0.41099269  0.50000000  1
  Zr  Zr1_6  1  0.66478504  0.91099269  0.00000000  1
  Zr  Zr1_7  1  0.66478504  0.91099269  0.50000000  1
  Zr  Zr2_0  1  0.08749360  0.16416664  0.00000000  1
  Zr  Zr2_1  1  0.08749360  0.16416664  0.50000000  1
  Zr  Zr2_2  1  0.08749360  0.66416664  0.00000000  1
  Zr  Zr2_3  1  0.08749360  0.66416664  0.50000000  1
  Zr  Zr2_4  1  0.58749360  0.16416664  0.00000000  1
  Zr  Zr2_5  1  0.58749360  0.16416664  0.50000000  1
  Zr  Zr2_6  1  0.58749360  0.66416664  0.00000000  1
  Zr  Zr2_7  1  0.58749360  0.66416664  0.50000000  1
  Zr  Zr3_0  1  0.41077443  0.33456147  0.00000000  1
  Zr  Zr3_1  1  0.41077443  0.33456147  0.50000000  1
  Zr  Zr3_2  1  0.41077443  0.83456147  0.00000000  1
  Zr  Zr3_3  1  0.41077443  0.83456147  0.50000000  1
  Zr  Zr3_4  1  0.91077443  0.33456147  0.00000000  1
  Zr  Zr3_5  1  0.91077443  0.33456147  0.50000000  1
  Zr  Zr3_6  1  0.91077443  0.83456147  0.00000000  1
  Zr  Zr3_7  1  0.91077443  0.83456147  0.50000000  1
  Zr  Zr4_0  1  0.49934427  0.00229516  0.00000000  1
  Zr  Zr4_1  1  0.49934427  0.00229516  0.50000000  1
  Zr  Zr4_2  1  0.49934427  0.50229516  0.00000000  1
  Zr  Zr4_3  1  0.49934427  0.50229516  0.50000000  1
  Zr  Zr4_4  1  0.99934427  0.00229516  0.00000000  1
  Zr  Zr4_5  1  0.99934427  0.00229516  0.50000000  1
  Zr  Zr4_6  1  0.99934427  0.50229516  0.00000000  1
  Zr  Zr4_7  1  0.99934427  0.50229516  0.50000000  1
  Zr  Zr5_0  1  0.24977390  0.24950833  0.00000000  1
  Zr  Zr5_1  1  0.24977390  0.24950833  0.50000000  1
  Zr  Zr5_2  1  0.24977390  0.74950833  0.00000000  1
  Zr  Zr5_3  1  0.24977390  0.74950833  0.50000000  1
  Zr  Zr5_4  1  0.74977390  0.24950833  0.00000000  1
  Zr  Zr5_5  1  0.74977390  0.24950833  0.50000000  1
  Zr  Zr5_6  1  0.74977390  0.74950833  0.00000000  1
  Zr  Zr5_7  1  0.74977390  0.74950833  0.50000000  1
  B  B0_0  1  0.06166090  0.30805481  0.00000000  1
  B  B0_1  1  0.06166090  0.30805481  0.50000000  1
  B  B0_2  1  0.06166090  0.80805481  0.00000000  1
  B  B0_3  1  0.06166090  0.80805481  0.50000000  1
  B  B0_4  1  0.56166090  0.30805481  0.00000000  1
  B  B0_5  1  0.56166090  0.30805481  0.50000000  1
  B  B0_6  1  0.56166090  0.80805481  0.00000000  1
  B  B0_7  1  0.56166090  0.80805481  0.50000000  1
  B  B1_0  1  0.43849969  0.18965511  0.00000000  1
  B  B1_1  1  0.43849969  0.18965511  0.50000000  1
  B  B1_2  1  0.43849969  0.68965511  0.00000000  1
  B  B1_3  1  0.43849969  0.68965511  0.50000000  1
  B  B1_4  1  0.93849969  0.18965511  0.00000000  1
  B  B1_5  1  0.93849969  0.18965511  0.50000000  1
  B  B1_6  1  0.93849969  0.68965511  0.00000000  1
  B  B1_7  1  0.93849969  0.68965511  0.50000000  1
  B  B2_0  1  0.30795841  0.43728401  0.00000000  1
  B  B2_1  1  0.30795841  0.43728401  0.50000000  1
  B  B2_2  1  0.30795841  0.93728401  0.00000000  1
  B  B2_3  1  0.30795841  0.93728401  0.50000000  1
  B  B2_4  1  0.80795841  0.43728401  0.00000000  1
  B  B2_5  1  0.80795841  0.43728401  0.50000000  1
  B  B2_6  1  0.80795841  0.93728401  0.00000000  1
  B  B2_7  1  0.80795841  0.93728401  0.50000000  1
  B  B3_0  1  0.19264500  0.06226599  0.00000000  1
  B  B3_1  1  0.19264500  0.06226599  0.50000000  1
  B  B3_2  1  0.19264500  0.56226599  0.00000000  1
  B  B3_3  1  0.19264500  0.56226599  0.50000000  1
  B  B3_4  1  0.69264500  0.06226599  0.00000000  1
  B  B3_5  1  0.69264500  0.06226599  0.50000000  1
  B  B3_6  1  0.69264500  0.56226599  0.00000000  1
  B  B3_7  1  0.69264500  0.56226599  0.50000000  1
  Ir  Ir0_0  1  0.11187249  0.03499898  0.25000000  1
  Ir  Ir0_1  1  0.11187249  0.03499898  0.75000000  1
  Ir  Ir0_2  1  0.11187249  0.53499898  0.25000000  1
  Ir  Ir0_3  1  0.11187249  0.53499898  0.75000000  1
  Ir  Ir0_4  1  0.61187249  0.03499898  0.25000000  1
  Ir  Ir0_5  1  0.61187249  0.03499898  0.75000000  1
  Ir  Ir0_6  1  0.61187249  0.53499898  0.25000000  1
  Ir  Ir0_7  1  0.61187249  0.53499898  0.75000000  1
  Ir  Ir1_0  1  0.38859454  0.46393233  0.25000000  1
  Ir  Ir1_1  1  0.38859454  0.46393233  0.75000000  1
  Ir  Ir1_2  1  0.38859454  0.96393233  0.25000000  1
  Ir  Ir1_3  1  0.38859454  0.96393233  0.75000000  1
  Ir  Ir1_4  1  0.88859454  0.46393233  0.25000000  1
  Ir  Ir1_5  1  0.88859454  0.46393233  0.75000000  1
  Ir  Ir1_6  1  0.88859454  0.96393233  0.25000000  1
  Ir  Ir1_7  1  0.88859454  0.96393233  0.75000000  1
  Ir  Ir2_0  1  0.03528765  0.38954619  0.25000000  1
  Ir  Ir2_1  1  0.03528765  0.38954619  0.75000000  1
  Ir  Ir2_2  1  0.03528765  0.88954619  0.25000000  1
  Ir  Ir2_3  1  0.03528765  0.88954619  0.75000000  1
  Ir  Ir2_4  1  0.53528765  0.38954619  0.25000000  1
  Ir  Ir2_5  1  0.53528765  0.38954619  0.75000000  1
  Ir  Ir2_6  1  0.53528765  0.88954619  0.25000000  1
  Ir  Ir2_7  1  0.53528765  0.88954619  0.75000000  1
  Ru  Ru0_0  1  0.36086295  0.21388282  0.25000000  1
  Ru  Ru0_1  1  0.36086295  0.21388282  0.75000000  1
  Ru  Ru0_2  1  0.36086295  0.71388282  0.25000000  1
  Ru  Ru0_3  1  0.36086295  0.71388282  0.75000000  1
  Ru  Ru0_4  1  0.86086295  0.21388282  0.25000000  1
  Ru  Ru0_5  1  0.86086295  0.21388282  0.75000000  1
  Ru  Ru0_6  1  0.86086295  0.71388282  0.25000000  1
  Ru  Ru0_7  1  0.86086295  0.71388282  0.75000000  1
  Ru  Ru1_0  1  0.46484532  0.11177253  0.25000000  1
  Ru  Ru1_1  1  0.46484532  0.11177253  0.75000000  1
  Ru  Ru1_2  1  0.46484532  0.61177253  0.25000000  1
  Ru  Ru1_3  1  0.46484532  0.61177253  0.75000000  1
  Ru  Ru1_4  1  0.96484532  0.11177253  0.25000000  1
  Ru  Ru1_5  1  0.96484532  0.11177253  0.75000000  1
  Ru  Ru1_6  1  0.96484532  0.61177253  0.25000000  1
  Ru  Ru1_7  1  0.96484532  0.61177253  0.75000000  1
  Ru  Ru2_0  1  0.13870371  0.28695799  0.25000000  1
  Ru  Ru2_1  1  0.13870371  0.28695799  0.75000000  1
  Ru  Ru2_2  1  0.13870371  0.78695799  0.25000000  1
  Ru  Ru2_3  1  0.13870371  0.78695799  0.75000000  1
  Ru  Ru2_4  1  0.63870371  0.28695799  0.25000000  1
  Ru  Ru2_5  1  0.63870371  0.28695799  0.75000000  1
  Ru  Ru2_6  1  0.63870371  0.78695799  0.25000000  1
  Ru  Ru2_7  1  0.63870371  0.78695799  0.75000000  1
  Ru  Ru3_0  1  0.28603642  0.36079723  0.25000000  1
  Ru  Ru3_1  1  0.28603642  0.36079723  0.75000000  1
  Ru  Ru3_2  1  0.28603642  0.86079723  0.25000000  1
  Ru  Ru3_3  1  0.28603642  0.86079723  0.75000000  1
  Ru  Ru3_4  1  0.78603642  0.36079723  0.25000000  1
  Ru  Ru3_5  1  0.78603642  0.36079723  0.75000000  1
  Ru  Ru3_6  1  0.78603642  0.86079723  0.25000000  1
  Ru  Ru3_7  1  0.78603642  0.86079723  0.75000000  1
  Ru  Ru4_0  1  0.21329193  0.13882467  0.25000000  1
  Ru  Ru4_1  1  0.21329193  0.13882467  0.75000000  1
  Ru  Ru4_2  1  0.21329193  0.63882467  0.25000000  1
  Ru  Ru4_3  1  0.21329193  0.63882467  0.75000000  1
  Ru  Ru4_4  1  0.71329193  0.13882467  0.25000000  1
  Ru  Ru4_5  1  0.71329193  0.13882467  0.75000000  1
  Ru  Ru4_6  1  0.71329193  0.63882467  0.25000000  1
  Ru  Ru4_7  1  0.71329193  0.63882467  0.75000000  1
  Ru  Ru5_0  1  0.25053858  0.00000073  0.25000000  1
  Ru  Ru5_1  1  0.25053858  0.00000073  0.75000000  1
  Ru  Ru5_2  1  0.25053858  0.50000073  0.25000000  1
  Ru  Ru5_3  1  0.25053858  0.50000073  0.75000000  1
  Ru  Ru5_4  1  0.75053858  0.00000073  0.25000000  1
  Ru  Ru5_5  1  0.75053858  0.00000073  0.75000000  1
  Ru  Ru5_6  1  0.75053858  0.50000073  0.25000000  1
  Ru  Ru5_7  1  0.75053858  0.50000073  0.75000000  1
  Ru  Ru6_0  1  0.49979439  0.25076167  0.25000000  1
  Ru  Ru6_1  1  0.49979439  0.25076167  0.75000000  1
  Ru  Ru6_2  1  0.49979439  0.75076167  0.25000000  1
  Ru  Ru6_3  1  0.49979439  0.75076167  0.75000000  1
  Ru  Ru6_4  1  0.99979439  0.25076167  0.25000000  1
  Ru  Ru6_5  1  0.99979439  0.25076167  0.75000000  1
  Ru  Ru6_6  1  0.99979439  0.75076167  0.25000000  1
  Ru  Ru6_7  1  0.99979439  0.75076167  0.75000000  1
loop_
_geom_bond_atom_site_label_1
_geom_bond_atom_site_label_2
_geom_bond_distance
_geom_bond_site_symmetry_2
Zr0_0 Zr0_1 3.120507 1_555
Zr0_0 Zr0_1 3.120507 1_554
Zr0_2 Zr0_3 3.120507 1_554
Zr0_2 Zr0_3 3.120507 1_555
Zr0_4 Zr0_5 3.120507 1_555
Zr0_4 Zr0_5 3.120507 1_554
Zr0_6 Zr0_7 3.120507 1_555
Zr0_6 Zr0_7 3.120507 1_554
Zr1_0 Zr1_1 3.120507 1_555
Zr1_0 Zr1_1 3.120507 1_554
Zr1_2 Zr1_3 3.120507 1_554
Zr1_2 Zr1_3 3.120507 1_555
Zr1_4 Zr1_5 3.120507 1_555
Zr1_4 Zr1_5 3.120507 1_554
Zr1_6 Zr1_7 3.120507 1_554
Zr1_6 Zr1_7 3.120507 1_555
Zr2_0 Zr2_1 3.120507 1_554
Zr2_0 Zr2_1 3.120507 1_555
Zr2_2 Zr2_3 3.120507 1_554
Zr2_2 Zr2_3 3.120507 1_555
Zr2_4 Zr2_5 3.120507 1_555
Zr2_4 Zr2_5 3.120507 1_554
Zr2_6 Zr2_7 3.120507 1_554
Zr2_6 Zr2_7 3.120507 1_555
Zr3_0 Zr3_1 3.120507 1_554
Zr3_0 Zr3_1 3.120507 1_555
Zr3_2 Zr3_3 3.120507 1_555
Zr3_2 Zr3_3 3.120507 1_554
Zr3_4 Zr3_5 3.120507 1_555
Zr3_4 Zr3_5 3.120507 1_554
Zr3_6 Zr3_7 3.120507 1_555
Zr3_6 Zr3_7 3.120507 1_554
Zr4_0 Zr4_1 3.120507 1_555
Zr4_0 Zr4_1 3.120507 1_554
Zr4_2 Zr4_3 3.120507 1_555
Zr4_2 Zr4_3 3.120507 1_554
Zr4_4 Zr4_5 3.120507 1_555
Zr4_4 Zr4_5 3.120507 1_554
Zr4_6 Zr4_7 3.120507 1_554
Zr4_6 Zr4_7 3.120507 1_555
Zr5_0 Zr5_1 3.120507 1_554
Zr5_0 Zr5_1 3.120507 1_555
Zr5_2 Zr5_3 3.120507 1_555
Zr5_2 Zr5_3 3.120507 1_554
Zr5_4 Zr5_5 3.120507 1_554
Zr5_4 Zr5_5 3.120507 1_555
Zr5_6 Zr5_7 3.120507 1_555
Zr5_6 Zr5_7 3.120507 1_554
B0_0 Ru2_0 2.184079 1_555
B0_0 Ru2_1 2.184079 1_554
B0_0 Ru6_4 2.244484 1_455
B0_0 Ru6_5 2.244484 1_454
B0_0 Ir2_1 2.262815 1_554
B0_0 Ir2_0 2.262815 1_555
B0_0 Zr1_0 2.788137 1_555
B0_0 Zr2_0 2.797228 1_555
B0_0 Zr3_4 2.931154 1_455
B0_1 Ru2_0 2.184079 1_555
B0_1 Ru2_1 2.184079 1_555
B0_1 Ru6_4 2.244484 1_455
B0_1 Ru6_5 2.244484 1_455
B0_1 Ir2_1 2.262815 1_555
B0_1 Ir2_0 2.262815 1_555
B0_1 Zr1_1 2.788137 1_555
B0_1 Zr2_1 2.797228 1_555
B0_1 Zr3_5 2.931154 1_455
B0_2 Ru2_3 2.184079 1_554
B0_2 Ru2_2 2.184079 1_555
B0_2 Ru6_7 2.244484 1_454
B0_2 Ru6_6 2.244484 1_455
B0_2 Ir2_2 2.262815 1_555
B0_2 Ir2_3 2.262815 1_554
B0_2 Zr1_2 2.788137 1_555
B0_2 Zr2_2 2.797228 1_555
B0_2 Zr3_6 2.931154 1_455
B0_3 Ru2_2 2.184079 1_555
B0_3 Ru2_3 2.184079 1_555
B0_3 Ru6_7 2.244484 1_455
B0_3 Ru6_6 2.244484 1_455
B0_3 Ir2_2 2.262815 1_555
B0_3 Ir2_3 2.262815 1_555
B0_3 Zr1_3 2.788137 1_555
B0_3 Zr2_3 2.797228 1_555
B0_3 Zr3_7 2.931154 1_455
B0_4 Ru2_5 2.184079 1_554
B0_4 Ru2_4 2.184079 1_555
B0_4 Ru6_0 2.244484 1_555
B0_4 Ru6_1 2.244484 1_554
B0_4 Ir2_4 2.262815 1_555
B0_4 Ir2_5 2.262815 1_554
B0_4 Zr1_4 2.788137 1_555
B0_4 Zr2_4 2.797228 1_555
B0_4 Zr3_0 2.931154 1_555
B0_5 Ru2_5 2.184079 1_555
B0_5 Ru2_4 2.184079 1_555
B0_5 Ru6_0 2.244484 1_555
B0_5 Ru6_1 2.244484 1_555
B0_5 Ir2_4 2.262815 1_555
B0_5 Ir2_5 2.262815 1_555
B0_5 Zr1_5 2.788137 1_555
B0_5 Zr2_5 2.797228 1_555
B0_5 Zr3_1 2.931154 1_555
B0_6 Ru2_7 2.184079 1_554
B0_6 Ru2_6 2.184079 1_555
B0_6 Ru6_2 2.244484 1_555
B0_6 Ru6_3 2.244484 1_554
B0_6 Ir2_6 2.262815 1_555
B0_6 Ir2_7 2.262815 1_554
B0_6 Zr1_6 2.788137 1_555
B0_6 Zr2_6 2.797228 1_555
B0_6 Zr3_2 2.931154 1_555
B0_7 Ru2_6 2.184079 1_555
B0_7 Ru2_7 2.184079 1_555
B0_7 Ru6_3 2.244484 1_555
B0_7 Ru6_2 2.244484 1_555
B0_7 Ir2_6 2.262815 1_555
B0_7 Ir2_7 2.262815 1_555
B0_7 Zr1_7 2.788137 1_555
B0_7 Zr2_7 2.797228 1_555
B0_7 Zr3_3 2.931154 1_555
B1_0 Ru0_1 2.203582 1_554
B1_0 Ru0_0 2.203582 1_555
B1_0 Ru1_1 2.215676 1_554
B1_0 Ru1_0 2.215676 1_555
B1_0 Ru6_0 2.275359 1_555
B1_0 Ru6_1 2.275359 1_554
B1_0 Zr0_0 2.722118 1_555
B1_0 Zr3_0 2.822982 1_555
B1_0 Zr2_4 2.892149 1_555
B1_1 Ru0_0 2.203582 1_555
B1_1 Ru0_1 2.203582 1_555
B1_1 Ru1_1 2.215676 1_555
B1_1 Ru1_0 2.215676 1_555
B1_1 Ru6_0 2.275359 1_555
B1_1 Ru6_1 2.275359 1_555
B1_1 Zr0_1 2.722118 1_555
B1_1 Zr3_1 2.822982 1_555
B1_1 Zr2_5 2.892149 1_555
B1_2 Ru0_3 2.203582 1_554
B1_2 Ru0_2 2.203582 1_555
B1_2 Ru1_3 2.215676 1_554
B1_2 Ru1_2 2.215676 1_555
B1_2 Ru6_3 2.275359 1_554
B1_2 Ru6_2 2.275359 1_555
B1_2 Zr0_2 2.722118 1_555
B1_2 Zr3_2 2.822982 1_555
B1_2 Zr2_6 2.892149 1_555
B1_3 Ru0_2 2.203582 1_555
B1_3 Ru0_3 2.203582 1_555
B1_3 Ru1_3 2.215676 1_555
B1_3 Ru1_2 2.215676 1_555
B1_3 Ru6_2 2.275359 1_555
B1_3 Ru6_3 2.275359 1_555
B1_3 Zr0_3 2.722118 1_555
B1_3 Zr3_3 2.822982 1_555
B1_3 Zr2_7 2.892149 1_555
B1_4 Ru0_5 2.203582 1_554
B1_4 Ru0_4 2.203582 1_555
B1_4 Ru1_4 2.215676 1_555
B1_4 Ru1_5 2.215676 1_554
B1_4 Ru6_5 2.275359 1_554
B1_4 Ru6_4 2.275359 1_555
B1_4 Zr0_4 2.722118 1_555
B1_4 Zr3_4 2.822982 1_555
B1_4 Zr2_0 2.892149 1_655
B1_5 Ru0_5 2.203582 1_555
B1_5 Ru0_4 2.203582 1_555
B1_5 Ru1_4 2.215676 1_555
B1_5 Ru1_5 2.215676 1_555
B1_5 Ru6_4 2.275359 1_555
B1_5 Ru6_5 2.275359 1_555
B1_5 Zr0_5 2.722118 1_555
B1_5 Zr3_5 2.822982 1_555
B1_5 Zr2_1 2.892149 1_655
B1_6 Ru0_7 2.203582 1_554
B1_6 Ru0_6 2.203582 1_555
B1_6 Ru1_6 2.215676 1_555
B1_6 Ru1_7 2.215676 1_554
B1_6 Ru6_6 2.275359 1_555
B1_6 Ru6_7 2.275359 1_554
B1_6 Zr0_6 2.722118 1_555
B1_6 Zr3_6 2.822982 1_555
B1_6 Zr2_2 2.892149 1_655
B1_7 Ru0_7 2.203582 1_555
B1_7 Ru0_6 2.203582 1_555
B1_7 Ru1_7 2.215676 1_555
B1_7 Ru1_6 2.215676 1_555
B1_7 Ru6_6 2.275359 1_555
B1_7 Ru6_7 2.275359 1_555
B1_7 Zr0_7 2.722118 1_555
B1_7 Zr3_7 2.822982 1_555
B1_7 Zr2_3 2.892149 1_655
B2_0 Ru3_0 2.180010 1_555
B2_0 Ru3_1 2.180010 1_554
B2_0 Ir1_0 2.252766 1_555
B2_0 Ir1_1 2.252766 1_554
B2_0 Ru5_2 2.254175 1_555
B2_0 Ru5_3 2.254175 1_554
B2_0 Zr3_0 2.780770 1_555
B2_0 Zr1_0 2.785273 1_555
B2_0 Zr0_2 2.970549 1_555
B2_1 Ru3_1 2.180010 1_555
B2_1 Ru3_0 2.180010 1_555
B2_1 Ir1_0 2.252766 1_555
B2_1 Ir1_1 2.252766 1_555
B2_1 Ru5_2 2.254175 1_555
B2_1 Ru5_3 2.254175 1_555
B2_1 Zr3_1 2.780770 1_555
B2_1 Zr1_1 2.785273 1_555
B2_1 Zr0_3 2.970549 1_555
B2_2 Ru3_3 2.180010 1_554
B2_2 Ru3_2 2.180010 1_555
B2_2 Ir1_3 2.252766 1_554
B2_2 Ir1_2 2.252766 1_555
B2_2 Ru5_0 2.254175 1_565
B2_2 Ru5_1 2.254175 1_564
B2_2 Zr3_2 2.780770 1_555
B2_2 Zr1_2 2.785273 1_555
B2_2 Zr0_0 2.970549 1_565
B2_3 Ru3_2 2.180010 1_555
B2_3 Ru3_3 2.180010 1_555
B2_3 Ir1_3 2.252766 1_555
B2_3 Ir1_2 2.252766 1_555
B2_3 Ru5_0 2.254175 1_565
B2_3 Ru5_1 2.254175 1_565
B2_3 Zr3_3 2.780770 1_555
B2_3 Zr1_3 2.785273 1_555
B2_3 Zr0_1 2.970549 1_565
B2_4 Ru3_4 2.180010 1_555
B2_4 Ru3_5 2.180010 1_554
B2_4 Ir1_4 2.252766 1_555
B2_4 Ir1_5 2.252766 1_554
B2_4 Ru5_7 2.254175 1_554
B2_4 Ru5_6 2.254175 1_555
B2_4 Zr3_4 2.780770 1_555
B2_4 Zr1_4 2.785273 1_555
B2_4 Zr0_6 2.970549 1_555
B2_5 Ru3_4 2.180010 1_555
B2_5 Ru3_5 2.180010 1_555
B2_5 Ir1_4 2.252766 1_555
B2_5 Ir1_5 2.252766 1_555
B2_5 Ru5_6 2.254175 1_555
B2_5 Ru5_7 2.254175 1_555
B2_5 Zr3_5 2.780770 1_555
B2_5 Zr1_5 2.785273 1_555
B2_5 Zr0_7 2.970549 1_555
B2_6 Ru3_7 2.180010 1_554
B2_6 Ru3_6 2.180010 1_555
B2_6 Ir1_6 2.252766 1_555
B2_6 Ir1_7 2.252766 1_554
B2_6 Ru5_4 2.254175 1_565
B2_6 Ru5_5 2.254175 1_564
B2_6 Zr3_6 2.780770 1_555
B2_6 Zr1_6 2.785273 1_555
B2_6 Zr0_4 2.970549 1_565
B2_7 Ru3_7 2.180010 1_555
B2_7 Ru3_6 2.180010 1_555
B2_7 Ir1_6 2.252766 1_555
B2_7 Ir1_7 2.252766 1_555
B2_7 Ru5_4 2.254175 1_565
B2_7 Ru5_5 2.254175 1_565
B2_7 Zr3_7 2.780770 1_555
B2_7 Zr1_7 2.785273 1_555
B2_7 Zr0_5 2.970549 1_565
B3_0 Ru4_1 2.176372 1_554
B3_0 Ru4_0 2.176372 1_555
B3_0 Ru5_0 2.254028 1_555
B3_0 Ru5_1 2.254028 1_554
B3_0 Ir0_0 2.257262 1_555
B3_0 Ir0_1 2.257262 1_554
B3_0 Zr2_0 2.801588 1_555
B3_0 Zr0_0 2.816116 1_555
B3_0 Zr1_2 2.943303 1_545
B3_1 Ru4_1 2.176372 1_555
B3_1 Ru4_0 2.176372 1_555
B3_1 Ru5_0 2.254028 1_555
B3_1 Ru5_1 2.254028 1_555
B3_1 Ir0_0 2.257262 1_555
B3_1 Ir0_1 2.257262 1_555
B3_1 Zr2_1 2.801588 1_555
B3_1 Zr0_1 2.816116 1_555
B3_1 Zr1_3 2.943303 1_545
B3_2 Ru4_3 2.176372 1_554
B3_2 Ru4_2 2.176372 1_555
B3_2 Ru5_2 2.254028 1_555
B3_2 Ru5_3 2.254028 1_554
B3_2 Ir0_2 2.257262 1_555
B3_2 Ir0_3 2.257262 1_554
B3_2 Zr2_2 2.801588 1_555
B3_2 Zr0_2 2.816116 1_555
B3_2 Zr1_0 2.943303 1_555
B3_3 Ru4_3 2.176372 1_555
B3_3 Ru4_2 2.176372 1_555
B3_3 Ru5_2 2.254028 1_555
B3_3 Ru5_3 2.254028 1_555
B3_3 Ir0_2 2.257262 1_555
B3_3 Ir0_3 2.257262 1_555
B3_3 Zr2_3 2.801588 1_555
B3_3 Zr0_3 2.816116 1_555
B3_3 Zr1_1 2.943303 1_555
B3_4 Ru4_4 2.176372 1_555
B3_4 Ru4_5 2.176372 1_554
B3_4 Ru5_4 2.254028 1_555
B3_4 Ru5_5 2.254028 1_554
B3_4 Ir0_4 2.257262 1_555
B3_4 Ir0_5 2.257262 1_554
B3_4 Zr2_4 2.801588 1_555
B3_4 Zr0_4 2.816116 1_555
B3_4 Zr1_6 2.943303 1_545
B3_5 Ru4_4 2.176372 1_555
B3_5 Ru4_5 2.176372 1_555
B3_5 Ru5_4 2.254028 1_555
B3_5 Ru5_5 2.254028 1_555
B3_5 Ir0_4 2.257262 1_555
B3_5 Ir0_5 2.257262 1_555
B3_5 Zr2_5 2.801588 1_555
B3_5 Zr0_5 2.816116 1_555
B3_5 Zr1_7 2.943303 1_545
B3_6 Ru4_7 2.176372 1_554
B3_6 Ru4_6 2.176372 1_555
B3_6 Ru5_7 2.254028 1_554
B3_6 Ru5_6 2.254028 1_555
B3_6 Ir0_6 2.257262 1_555
B3_6 Ir0_7 2.257262 1_554
B3_6 Zr2_6 2.801588 1_555
B3_6 Zr0_6 2.816116 1_555
B3_6 Zr1_4 2.943303 1_555
B3_7 Ru4_7 2.176372 1_555
B3_7 Ru4_6 2.176372 1_555
B3_7 Ru5_7 2.254028 1_555
B3_7 Ru5_6 2.254028 1_555
B3_7 Ir0_6 2.257262 1_555
B3_7 Ir0_7 2.257262 1_555
B3_7 Zr2_7 2.801588 1_555
B3_7 Zr0_7 2.816116 1_555
B3_7 Zr1_5 2.943303 1_555
Ir0_0 Zr4_5 2.731655 1_455
Ir0_0 Zr4_4 2.731655 1_455
Ir0_0 Ru5_0 2.736317 1_555
Ir0_0 Zr2_1 2.959812 1_555
Ir0_0 Zr2_0 2.959812 1_555
Ir0_0 Zr1_2 3.014826 1_545
Ir0_0 Zr1_3 3.014826 1_545
Ir0_0 Ir2_2 3.145514 1_545
Ir0_0 Ru1_4 3.173491 1_455
Ir0_1 Zr4_5 2.731655 1_455
Ir0_1 Zr4_4 2.731655 1_456
Ir0_1 Ru5_1 2.736317 1_555
Ir0_1 Zr2_0 2.959812 1_556
Ir0_1 Zr2_1 2.959812 1_555
Ir0_1 Zr1_2 3.014826 1_546
Ir0_1 Zr1_3 3.014826 1_545
Ir0_1 Ir2_3 3.145514 1_545
Ir0_1 Ru1_5 3.173491 1_455
Ir0_2 Zr4_6 2.731655 1_455
Ir0_2 Zr4_7 2.731655 1_455
Ir0_2 Ru5_2 2.736317 1_555
Ir0_2 Zr2_3 2.959812 1_555
Ir0_2 Zr2_2 2.959812 1_555
Ir0_2 Zr1_0 3.014826 1_555
Ir0_2 Zr1_1 3.014826 1_555
Ir0_2 Ir2_0 3.145514 1_555
Ir0_2 Ru1_6 3.173491 1_455
Ir0_3 Zr4_6 2.731655 1_456
Ir0_3 Zr4_7 2.731655 1_455
Ir0_3 Ru5_3 2.736317 1_555
Ir0_3 Zr2_3 2.959812 1_555
Ir0_3 Zr2_2 2.959812 1_556
Ir0_3 Zr1_0 3.014826 1_556
Ir0_3 Zr1_1 3.014826 1_555
Ir0_3 Ir2_1 3.145514 1_555
Ir0_3 Ru1_7 3.173491 1_455
Ir0_4 Zr4_1 2.731655 1_555
Ir0_4 Zr4_0 2.731655 1_555
Ir0_4 Ru5_4 2.736317 1_555
Ir0_4 Zr2_4 2.959812 1_555
Ir0_4 Zr2_5 2.959812 1_555
Ir0_4 Zr1_6 3.014826 1_545
Ir0_4 Zr1_7 3.014826 1_545
Ir0_4 Ir2_6 3.145514 1_545
Ir0_4 Ru1_0 3.173491 1_555
Ir0_5 Zr4_0 2.731655 1_556
Ir0_5 Zr4_1 2.731655 1_555
Ir0_5 Ru5_5 2.736317 1_555
Ir0_5 Zr2_4 2.959812 1_556
Ir0_5 Zr2_5 2.959812 1_555
Ir0_5 Zr1_6 3.014826 1_546
Ir0_5 Zr1_7 3.014826 1_545
Ir0_5 Ir2_7 3.145514 1_545
Ir0_5 Ru1_1 3.173491 1_555
Ir0_6 Zr4_2 2.731655 1_555
Ir0_6 Zr4_3 2.731655 1_555
Ir0_6 Ru5_6 2.736317 1_555
Ir0_6 Zr2_7 2.959812 1_555
Ir0_6 Zr2_6 2.959812 1_555
Ir0_6 Zr1_4 3.014826 1_555
Ir0_6 Zr1_5 3.014826 1_555
Ir0_6 Ir2_4 3.145514 1_555
Ir0_6 Ru1_2 3.173491 1_555
Ir0_7 Zr4_2 2.731655 1_556
Ir0_7 Zr4_3 2.731655 1_555
Ir0_7 Ru5_7 2.736317 1_555
Ir0_7 Zr2_7 2.959812 1_555
Ir0_7 Zr2_6 2.959812 1_556
Ir0_7 Zr1_4 3.014826 1_556
Ir0_7 Zr1_5 3.014826 1_555
Ir0_7 Ir2_5 3.145514 1_555
Ir0_7 Ru1_3 3.173491 1_555
Ir1_0 Ru5_2 2.730102 1_555
Ir1_0 Zr4_2 2.732006 1_555
Ir1_0 Zr4_3 2.732006 1_555
Ir1_0 Ru3_0 2.783158 1_555
Ir1_0 Zr3_0 2.956732 1_555
Ir1_0 Zr3_1 2.956732 1_555
Ir1_0 Zr0_2 3.032243 1_555
Ir1_0 Zr0_3 3.032243 1_555
Ir1_0 Ir2_4 3.146907 1_555
Ir1_1 Ru5_3 2.730102 1_555
Ir1_1 Zr4_2 2.732006 1_556
Ir1_1 Zr4_3 2.732006 1_555
Ir1_1 Ru3_1 2.783158 1_555
Ir1_1 Zr3_1 2.956732 1_555
Ir1_1 Zr3_0 2.956732 1_556
Ir1_1 Zr0_2 3.032243 1_556
Ir1_1 Zr0_3 3.032243 1_555
Ir1_1 Ir2_5 3.146907 1_555
Ir1_2 Ru5_0 2.730102 1_565
Ir1_2 Zr4_1 2.732006 1_565
Ir1_2 Zr4_0 2.732006 1_565
Ir1_2 Ru3_2 2.783158 1_555
Ir1_2 Zr3_2 2.956732 1_555
Ir1_2 Zr3_3 2.956732 1_555
Ir1_2 Zr0_0 3.032243 1_565
Ir1_2 Zr0_1 3.032243 1_565
Ir1_2 Ir2_6 3.146907 1_555
Ir1_3 Ru5_1 2.730102 1_565
Ir1_3 Zr4_1 2.732006 1_565
Ir1_3 Zr4_0 2.732006 1_566
Ir1_3 Ru3_3 2.783158 1_555
Ir1_3 Zr3_2 2.956732 1_556
Ir1_3 Zr3_3 2.956732 1_555
Ir1_3 Zr0_0 3.032243 1_566
Ir1_3 Zr0_1 3.032243 1_565
Ir1_3 Ir2_7 3.146907 1_555
Ir1_4 Ru5_6 2.730102 1_555
Ir1_4 Zr4_6 2.732006 1_555
Ir1_4 Zr4_7 2.732006 1_555
Ir1_4 Ru3_4 2.783158 1_555
Ir1_4 Zr3_4 2.956732 1_555
Ir1_4 Zr3_5 2.956732 1_555
Ir1_4 Zr0_6 3.032243 1_555
Ir1_4 Zr0_7 3.032243 1_555
Ir1_4 Ir2_0 3.146907 1_655
Ir1_5 Ru5_7 2.730102 1_555
Ir1_5 Zr4_6 2.732006 1_556
Ir1_5 Zr4_7 2.732006 1_555
Ir1_5 Ru3_5 2.783158 1_555
Ir1_5 Zr3_4 2.956732 1_556
Ir1_5 Zr3_5 2.956732 1_555
Ir1_5 Zr0_7 3.032243 1_555
Ir1_5 Zr0_6 3.032243 1_556
Ir1_5 Ir2_1 3.146907 1_655
Ir1_6 Ru5_4 2.730102 1_565
Ir1_6 Zr4_5 2.732006 1_565
Ir1_6 Zr4_4 2.732006 1_565
Ir1_6 Ru3_6 2.783158 1_555
Ir1_6 Zr3_7 2.956732 1_555
Ir1_6 Zr3_6 2.956732 1_555
Ir1_6 Zr0_4 3.032243 1_565
Ir1_6 Zr0_5 3.032243 1_565
Ir1_6 Ir2_2 3.146907 1_655
Ir1_7 Ru5_5 2.730102 1_565
Ir1_7 Zr4_5 2.732006 1_565
Ir1_7 Zr4_4 2.732006 1_566
Ir1_7 Ru3_7 2.783158 1_555
Ir1_7 Zr3_6 2.956732 1_556
Ir1_7 Zr3_7 2.956732 1_555
Ir1_7 Zr0_4 3.032243 1_566
Ir1_7 Zr0_5 3.032243 1_565
Ir1_7 Ir2_3 3.146907 1_655
Ir2_0 Ru6_4 2.741132 1_455
Ir2_0 Zr4_6 2.749822 1_455
Ir2_0 Zr4_7 2.749822 1_455
Ir2_0 Ru2_0 2.787092 1_555
Ir2_0 Zr1_0 2.956723 1_555
Ir2_0 Zr1_1 2.956723 1_555
Ir2_0 Zr3_4 3.036046 1_455
Ir2_0 Zr3_5 3.036046 1_455
Ir2_1 Ru6_5 2.741132 1_455
Ir2_1 Zr4_7 2.749822 1_455
Ir2_1 Zr4_6 2.749822 1_456
Ir2_1 Ru2_1 2.787092 1_555
Ir2_1 Zr1_0 2.956723 1_556
Ir2_1 Zr1_1 2.956723 1_555
Ir2_1 Zr3_4 3.036046 1_456
Ir2_1 Zr3_5 3.036046 1_455
Ir2_2 Ru6_6 2.741132 1_455
Ir2_2 Zr4_4 2.749822 1_465
Ir2_2 Zr4_5 2.749822 1_465
Ir2_2 Ru2_2 2.787092 1_555
Ir2_2 Zr1_2 2.956723 1_555
Ir2_2 Zr1_3 2.956723 1_555
Ir2_2 Zr3_6 3.036046 1_455
Ir2_2 Zr3_7 3.036046 1_455
Ir2_3 Ru6_7 2.741132 1_455
Ir2_3 Zr4_5 2.749822 1_465
Ir2_3 Zr4_4 2.749822 1_466
Ir2_3 Ru2_3 2.787092 1_555
Ir2_3 Zr1_2 2.956723 1_556
Ir2_3 Zr1_3 2.956723 1_555
Ir2_3 Zr3_6 3.036046 1_456
Ir2_3 Zr3_7 3.036046 1_455
Ir2_4 Ru6_0 2.741132 1_555
Ir2_4 Zr4_2 2.749822 1_555
Ir2_4 Zr4_3 2.749822 1_555
Ir2_4 Ru2_4 2.787092 1_555
Ir2_4 Zr1_4 2.956723 1_555
Ir2_4 Zr1_5 2.956723 1_555
Ir2_4 Zr3_0 3.036046 1_555
Ir2_4 Zr3_1 3.036046 1_555
Ir2_5 Ru6_1 2.741132 1_555
Ir2_5 Zr4_3 2.749822 1_555
Ir2_5 Zr4_2 2.749822 1_556
Ir2_5 Ru2_5 2.787092 1_555
Ir2_5 Zr1_4 2.956723 1_556
Ir2_5 Zr1_5 2.956723 1_555
Ir2_5 Zr3_1 3.036046 1_555
Ir2_5 Zr3_0 3.036046 1_556
Ir2_6 Ru6_2 2.741132 1_555
Ir2_6 Zr4_0 2.749822 1_565
Ir2_6 Zr4_1 2.749822 1_565
Ir2_6 Ru2_6 2.787092 1_555
Ir2_6 Zr1_6 2.956723 1_555
Ir2_6 Zr1_7 2.956723 1_555
Ir2_6 Zr3_3 3.036046 1_555
Ir2_6 Zr3_2 3.036046 1_555
Ir2_7 Ru6_3 2.741132 1_555
Ir2_7 Zr4_0 2.749822 1_566
Ir2_7 Zr4_1 2.749822 1_565
Ir2_7 Ru2_7 2.787092 1_555
Ir2_7 Zr1_6 2.956723 1_556
Ir2_7 Zr1_7 2.956723 1_555
Ir2_7 Zr3_3 3.036046 1_555
Ir2_7 Zr3_2 3.036046 1_556
Ru0_0 Zr5_0 2.723352 1_555
Ru0_0 Zr5_1 2.723352 1_555
Ru0_0 Ru6_0 2.750388 1_555
Ru0_0 Zr0_0 2.877803 1_555
Ru0_0 Zr0_1 2.877803 1_555
Ru0_0 Zr3_0 2.946019 1_555
Ru0_0 Zr3_1 2.946019 1_555
Ru0_1 Zr5_0 2.723352 1_556
Ru0_1 Zr5_1 2.723352 1_555
Ru0_1 Ru6_1 2.750388 1_555
Ru0_1 Zr0_1 2.877803 1_555
Ru0_1 Zr0_0 2.877803 1_556
Ru0_1 Zr3_0 2.946019 1_556
Ru0_1 Zr3_1 2.946019 1_555
Ru0_2 Zr5_2 2.723352 1_555
Ru0_2 Zr5_3 2.723352 1_555
Ru0_2 Ru6_2 2.750388 1_555
Ru0_2 Zr0_3 2.877803 1_555
Ru0_2 Zr0_2 2.877803 1_555
Ru0_2 Zr3_2 2.946019 1_555
Ru0_2 Zr3_3 2.946019 1_555
Ru0_3 Zr5_3 2.723352 1_555
Ru0_3 Zr5_2 2.723352 1_556
Ru0_3 Ru6_3 2.750388 1_555
Ru0_3 Zr0_2 2.877803 1_556
Ru0_3 Zr0_3 2.877803 1_555
Ru0_3 Zr3_3 2.946019 1_555
Ru0_3 Zr3_2 2.946019 1_556
Ru0_4 Zr5_5 2.723352 1_555
Ru0_4 Zr5_4 2.723352 1_555
Ru0_4 Ru6_4 2.750388 1_555
Ru0_4 Zr0_5 2.877803 1_555
Ru0_4 Zr0_4 2.877803 1_555
Ru0_4 Zr3_4 2.946019 1_555
Ru0_4 Zr3_5 2.946019 1_555
Ru0_5 Zr5_5 2.723352 1_555
Ru0_5 Zr5_4 2.723352 1_556
Ru0_5 Ru6_5 2.750388 1_555
Ru0_5 Zr0_4 2.877803 1_556
Ru0_5 Zr0_5 2.877803 1_555
Ru0_5 Zr3_4 2.946019 1_556
Ru0_5 Zr3_5 2.946019 1_555
Ru0_6 Zr5_7 2.723352 1_555
Ru0_6 Zr5_6 2.723352 1_555
Ru0_6 Ru6_6 2.750388 1_555
Ru0_6 Zr0_6 2.877803 1_555
Ru0_6 Zr0_7 2.877803 1_555
Ru0_6 Zr3_7 2.946019 1_555
Ru0_6 Zr3_6 2.946019 1_555
Ru0_7 Zr5_7 2.723352 1_555
Ru0_7 Zr5_6 2.723352 1_556
Ru0_7 Ru6_7 2.750388 1_555
Ru0_7 Zr0_7 2.877803 1_555
Ru0_7 Zr0_6 2.877803 1_556
Ru0_7 Zr3_7 2.946019 1_555
Ru0_7 Zr3_6 2.946019 1_556
Ru1_0 Zr4_1 2.694086 1_555
Ru1_0 Zr4_0 2.694086 1_555
Ru1_0 Ru6_0 2.742367 1_555
Ru1_0 Zr0_0 2.928092 1_555
Ru1_0 Zr0_1 2.928092 1_555
Ru1_0 Zr2_4 2.991145 1_555
Ru1_0 Zr2_5 2.991145 1_555
Ru1_1 Zr4_0 2.694086 1_556
Ru1_1 Zr4_1 2.694086 1_555
Ru1_1 Ru6_1 2.742367 1_555
Ru1_1 Zr0_0 2.928092 1_556
Ru1_1 Zr0_1 2.928092 1_555
Ru1_1 Zr2_4 2.991145 1_556
Ru1_1 Zr2_5 2.991145 1_555
Ru1_2 Zr4_2 2.694086 1_555
Ru1_2 Zr4_3 2.694086 1_555
Ru1_2 Ru6_2 2.742367 1_555
Ru1_2 Zr0_2 2.928092 1_555
Ru1_2 Zr0_3 2.928092 1_555
Ru1_2 Zr2_6 2.991145 1_555
Ru1_2 Zr2_7 2.991145 1_555
Ru1_3 Zr4_2 2.694086 1_556
Ru1_3 Zr4_3 2.694086 1_555
Ru1_3 Ru6_3 2.742367 1_555
Ru1_3 Zr0_2 2.928092 1_556
Ru1_3 Zr0_3 2.928092 1_555
Ru1_3 Zr2_6 2.991145 1_556
Ru1_3 Zr2_7 2.991145 1_555
Ru1_4 Zr4_5 2.694086 1_555
Ru1_4 Zr4_4 2.694086 1_555
Ru1_4 Ru6_4 2.742367 1_555
Ru1_4 Zr0_5 2.928092 1_555
Ru1_4 Zr0_4 2.928092 1_555
Ru1_4 Zr2_0 2.991145 1_655
Ru1_4 Zr2_1 2.991145 1_655
Ru1_5 Zr4_4 2.694086 1_556
Ru1_5 Zr4_5 2.694086 1_555
Ru1_5 Ru6_5 2.742367 1_555
Ru1_5 Zr0_5 2.928092 1_555
Ru1_5 Zr0_4 2.928092 1_556
Ru1_5 Zr2_0 2.991145 1_656
Ru1_5 Zr2_1 2.991145 1_655
Ru1_6 Zr4_6 2.694086 1_555
Ru1_6 Zr4_7 2.694086 1_555
Ru1_6 Ru6_6 2.742367 1_555
Ru1_6 Zr0_6 2.928092 1_555
Ru1_6 Zr0_7 2.928092 1_555
Ru1_6 Zr2_2 2.991145 1_655
Ru1_6 Zr2_3 2.991145 1_655
Ru1_7 Zr4_7 2.694086 1_555
Ru1_7 Zr4_6 2.694086 1_556
Ru1_7 Ru6_7 2.742367 1_555
Ru1_7 Zr0_7 2.928092 1_555
Ru1_7 Zr0_6 2.928092 1_556
Ru1_7 Zr2_2 2.991145 1_656
Ru1_7 Zr2_3 2.991145 1_655
Ru2_0 Zr5_0 2.732015 1_555
Ru2_0 Zr5_1 2.732015 1_555
Ru2_0 Ru6_4 2.746656 1_455
Ru2_0 Zr1_1 2.883844 1_555
Ru2_0 Zr1_0 2.883844 1_555
Ru2_0 Zr2_0 2.985876 1_555
Ru2_0 Zr2_1 2.985876 1_555
Ru2_1 Zr5_0 2.732015 1_556
Ru2_1 Zr5_1 2.732015 1_555
Ru2_1 Ru6_5 2.746656 1_455
Ru2_1 Zr1_1 2.883844 1_555
Ru2_1 Zr1_0 2.883844 1_556
Ru2_1 Zr2_0 2.985876 1_556
Ru2_1 Zr2_1 2.985876 1_555
Ru2_2 Zr5_3 2.732015 1_555
Ru2_2 Zr5_2 2.732015 1_555
Ru2_2 Ru6_6 2.746656 1_455
Ru2_2 Zr1_2 2.883844 1_555
Ru2_2 Zr1_3 2.883844 1_555
Ru2_2 Zr2_2 2.985876 1_555
Ru2_2 Zr2_3 2.985876 1_555
Ru2_3 Zr5_3 2.732015 1_555
Ru2_3 Zr5_2 2.732015 1_556
Ru2_3 Ru6_7 2.746656 1_455
Ru2_3 Zr1_2 2.883844 1_556
Ru2_3 Zr1_3 2.883844 1_555
Ru2_3 Zr2_3 2.985876 1_555
Ru2_3 Zr2_2 2.985876 1_556
Ru2_4 Zr5_4 2.732015 1_555
Ru2_4 Zr5_5 2.732015 1_555
Ru2_4 Ru6_0 2.746656 1_555
Ru2_4 Zr1_4 2.883844 1_555
Ru2_4 Zr1_5 2.883844 1_555
Ru2_4 Zr2_4 2.985876 1_555
Ru2_4 Zr2_5 2.985876 1_555
Ru2_5 Zr5_5 2.732015 1_555
Ru2_5 Zr5_4 2.732015 1_556
Ru2_5 Ru6_1 2.746656 1_555
Ru2_5 Zr1_4 2.883844 1_556
Ru2_5 Zr1_5 2.883844 1_555
Ru2_5 Zr2_4 2.985876 1_556
Ru2_5 Zr2_5 2.985876 1_555
Ru2_6 Zr5_7 2.732015 1_555
Ru2_6 Zr5_6 2.732015 1_555
Ru2_6 Ru6_2 2.746656 1_555
Ru2_6 Zr1_6 2.883844 1_555
Ru2_6 Zr1_7 2.883844 1_555
Ru2_6 Zr2_7 2.985876 1_555
Ru2_6 Zr2_6 2.985876 1_555
Ru2_7 Zr5_6 2.732015 1_556
Ru2_7 Zr5_7 2.732015 1_555
Ru2_7 Ru6_3 2.746656 1_555
Ru2_7 Zr1_6 2.883844 1_556
Ru2_7 Zr1_7 2.883844 1_555
Ru2_7 Zr2_7 2.985876 1_555
Ru2_7 Zr2_6 2.985876 1_556
Ru3_0 Zr5_0 2.729615 1_555
Ru3_0 Zr5_1 2.729615 1_555
Ru3_0 Ru5_2 2.748787 1_555
Ru3_0 Zr3_0 2.895237 1_555
Ru3_0 Zr3_1 2.895237 1_555
Ru3_0 Zr1_0 2.956129 1_555
Ru3_0 Zr1_1 2.956129 1_555
Ru3_1 Zr5_0 2.729615 1_556
Ru3_1 Zr5_1 2.729615 1_555
Ru3_1 Ru5_3 2.748787 1_555
Ru3_1 Zr3_0 2.895237 1_556
Ru3_1 Zr3_1 2.895237 1_555
Ru3_1 Zr1_0 2.956129 1_556
Ru3_1 Zr1_1 2.956129 1_555
Ru3_2 Zr5_2 2.729615 1_555
Ru3_2 Zr5_3 2.729615 1_555
Ru3_2 Ru5_0 2.748787 1_565
Ru3_2 Zr3_3 2.895237 1_555
Ru3_2 Zr3_2 2.895237 1_555
Ru3_2 Zr1_2 2.956129 1_555
Ru3_2 Zr1_3 2.956129 1_555
Ru3_3 Zr5_3 2.729615 1_555
Ru3_3 Zr5_2 2.729615 1_556
Ru3_3 Ru5_1 2.748787 1_565
Ru3_3 Zr3_3 2.895237 1_555
Ru3_3 Zr3_2 2.895237 1_556
Ru3_3 Zr1_2 2.956129 1_556
Ru3_3 Zr1_3 2.956129 1_555
Ru3_4 Zr5_5 2.729615 1_555
Ru3_4 Zr5_4 2.729615 1_555
Ru3_4 Ru5_6 2.748787 1_555
Ru3_4 Zr3_5 2.895237 1_555
Ru3_4 Zr3_4 2.895237 1_555
Ru3_4 Zr1_5 2.956129 1_555
Ru3_4 Zr1_4 2.956129 1_555
Ru3_5 Zr5_4 2.729615 1_556
Ru3_5 Zr5_5 2.729615 1_555
Ru3_5 Ru5_7 2.748787 1_555
Ru3_5 Zr3_5 2.895237 1_555
Ru3_5 Zr3_4 2.895237 1_556
Ru3_5 Zr1_4 2.956129 1_556
Ru3_5 Zr1_5 2.956129 1_555
Ru3_6 Zr5_7 2.729615 1_555
Ru3_6 Zr5_6 2.729615 1_555
Ru3_6 Ru5_4 2.748787 1_565
Ru3_6 Zr3_7 2.895237 1_555
Ru3_6 Zr3_6 2.895237 1_555
Ru3_6 Zr1_6 2.956129 1_555
Ru3_6 Zr1_7 2.956129 1_555
Ru3_7 Zr5_7 2.729615 1_555
Ru3_7 Zr5_6 2.729615 1_556
Ru3_7 Ru5_5 2.748787 1_565
Ru3_7 Zr3_7 2.895237 1_555
Ru3_7 Zr3_6 2.895237 1_556
Ru3_7 Zr1_6 2.956129 1_556
Ru3_7 Zr1_7 2.956129 1_555
Ru4_0 Zr5_1 2.721663 1_555
Ru4_0 Zr5_0 2.721663 1_555
Ru4_0 Ru5_0 2.750227 1_555
Ru4_0 Zr2_0 2.909085 1_555
Ru4_0 Zr2_1 2.909085 1_555
Ru4_0 Zr0_0 2.990012 1_555
Ru4_0 Zr0_1 2.990012 1_555
Ru4_1 Zr5_1 2.721663 1_555
Ru4_1 Zr5_0 2.721663 1_556
Ru4_1 Ru5_1 2.750227 1_555
Ru4_1 Zr2_0 2.909085 1_556
Ru4_1 Zr2_1 2.909085 1_555
Ru4_1 Zr0_0 2.990012 1_556
Ru4_1 Zr0_1 2.990012 1_555
Ru4_2 Zr5_2 2.721663 1_555
Ru4_2 Zr5_3 2.721663 1_555
Ru4_2 Ru5_2 2.750227 1_555
Ru4_2 Zr2_2 2.909085 1_555
Ru4_2 Zr2_3 2.909085 1_555
Ru4_2 Zr0_2 2.990012 1_555
Ru4_2 Zr0_3 2.990012 1_555
Ru4_3 Zr5_3 2.721663 1_555
Ru4_3 Zr5_2 2.721663 1_556
Ru4_3 Ru5_3 2.750227 1_555
Ru4_3 Zr2_2 2.909085 1_556
Ru4_3 Zr2_3 2.909085 1_555
Ru4_3 Zr0_2 2.990012 1_556
Ru4_3 Zr0_3 2.990012 1_555
Ru4_4 Zr5_5 2.721663 1_555
Ru4_4 Zr5_4 2.721663 1_555
Ru4_4 Ru5_4 2.750227 1_555
Ru4_4 Zr2_5 2.909085 1_555
Ru4_4 Zr2_4 2.909085 1_555
Ru4_4 Zr0_5 2.990012 1_555
Ru4_4 Zr0_4 2.990012 1_555
Ru4_5 Zr5_4 2.721663 1_556
Ru4_5 Zr5_5 2.721663 1_555
Ru4_5 Ru5_5 2.750227 1_555
Ru4_5 Zr2_5 2.909085 1_555
Ru4_5 Zr2_4 2.909085 1_556
Ru4_5 Zr0_5 2.990012 1_555
Ru4_5 Zr0_4 2.990012 1_556
Ru4_6 Zr5_6 2.721663 1_555
Ru4_6 Zr5_7 2.721663 1_555
Ru4_6 Ru5_6 2.750227 1_555
Ru4_6 Zr2_6 2.909085 1_555
Ru4_6 Zr2_7 2.909085 1_555
Ru4_6 Zr0_7 2.990012 1_555
Ru4_6 Zr0_6 2.990012 1_555
Ru4_7 Zr5_6 2.721663 1_556
Ru4_7 Zr5_7 2.721663 1_555
Ru4_7 Ru5_7 2.750227 1_555
Ru4_7 Zr2_6 2.909085 1_556
Ru4_7 Zr2_7 2.909085 1_555
Ru4_7 Zr0_7 2.990012 1_555
Ru4_7 Zr0_6 2.990012 1_556
Ru5_0 Zr1_2 2.833335 1_545
Ru5_0 Zr1_3 2.833335 1_545
Ru5_0 Zr0_0 2.852239 1_555
Ru5_0 Zr0_1 2.852239 1_555
Ru5_1 Zr1_2 2.833335 1_546
Ru5_1 Zr1_3 2.833335 1_545
Ru5_1 Zr0_0 2.852239 1_556
Ru5_1 Zr0_1 2.852239 1_555
Ru5_2 Zr1_0 2.833335 1_555
Ru5_2 Zr1_1 2.833335 1_555
Ru5_2 Zr0_2 2.852239 1_555
Ru5_2 Zr0_3 2.852239 1_555
Ru5_3 Zr1_0 2.833335 1_556
Ru5_3 Zr1_1 2.833335 1_555
Ru5_3 Zr0_3 2.852239 1_555
Ru5_3 Zr0_2 2.852239 1_556
Ru5_4 Zr1_6 2.833335 1_545
Ru5_4 Zr1_7 2.833335 1_545
Ru5_4 Zr0_5 2.852239 1_555
Ru5_4 Zr0_4 2.852239 1_555
Ru5_5 Zr1_6 2.833335 1_546
Ru5_5 Zr1_7 2.833335 1_545
Ru5_5 Zr0_5 2.852239 1_555
Ru5_5 Zr0_4 2.852239 1_556
Ru5_6 Zr1_4 2.833335 1_555
Ru5_6 Zr1_5 2.833335 1_555
Ru5_6 Zr0_7 2.852239 1_555
Ru5_6 Zr0_6 2.852239 1_555
Ru5_7 Zr1_4 2.833335 1_556
Ru5_7 Zr1_5 2.833335 1_555
Ru5_7 Zr0_6 2.852239 1_556
Ru5_7 Zr0_7 2.852239 1_555
Ru6_0 Zr3_0 2.811782 1_555
Ru6_0 Zr3_1 2.811782 1_555
Ru6_0 Zr2_5 2.827552 1_555
Ru6_0 Zr2_4 2.827552 1_555
Ru6_1 Zr3_0 2.811782 1_556
Ru6_1 Zr3_1 2.811782 1_555
Ru6_1 Zr2_5 2.827552 1_555
Ru6_1 Zr2_4 2.827552 1_556
Ru6_2 Zr3_3 2.811782 1_555
Ru6_2 Zr3_2 2.811782 1_555
Ru6_2 Zr2_7 2.827552 1_555
Ru6_2 Zr2_6 2.827552 1_555
Ru6_3 Zr3_3 2.811782 1_555
Ru6_3 Zr3_2 2.811782 1_556
Ru6_3 Zr2_7 2.827552 1_555
Ru6_3 Zr2_6 2.827552 1_556
Ru6_4 Zr3_4 2.811782 1_555
Ru6_4 Zr3_5 2.811782 1_555
Ru6_4 Zr2_1 2.827552 1_655
Ru6_4 Zr2_0 2.827552 1_655
Ru6_5 Zr3_4 2.811782 1_556
Ru6_5 Zr3_5 2.811782 1_555
Ru6_5 Zr2_1 2.827552 1_655
Ru6_5 Zr2_0 2.827552 1_656
Ru6_6 Zr3_6 2.811782 1_555
Ru6_6 Zr3_7 2.811782 1_555
Ru6_6 Zr2_3 2.827552 1_655
Ru6_6 Zr2_2 2.827552 1_655
Ru6_7 Zr3_6 2.811782 1_556
Ru6_7 Zr3_7 2.811782 1_555
Ru6_7 Zr2_3 2.827552 1_655
Ru6_7 Zr2_2 2.827552 1_656
