# generated using pymatgen
data_Hf8Ni2MoPt
_symmetry_space_group_name_H-M   'P 1'
_cell_length_a   8.62323250
_cell_length_b   8.62323188
_cell_length_c   8.57701246
_cell_angle_alpha   60.17714907
_cell_angle_beta   60.17715143
_cell_angle_gamma   60.16920340
_symmetry_Int_Tables_number   1
_chemical_formula_structural   Hf8Ni2MoPt
_chemical_formula_sum   'Hf16 Ni4 Mo2 Pt2'
_cell_volume   452.76635743
_cell_formula_units_Z   2
loop_
 _symmetry_equiv_pos_site_id
 _symmetry_equiv_pos_as_xyz
  1  'x, y, z'
loop_
 _atom_site_type_symbol
 _atom_site_label
 _atom_site_symmetry_multiplicity
 _atom_site_fract_x
 _atom_site_fract_y
 _atom_site_fract_z
 _atom_site_occupancy
  Hf  Hf0  1  0.68310553  0.10581596  0.10553776  1
  Hf  Hf1  1  0.10581596  0.68310553  0.10553776  1
  Hf  Hf2  1  0.10149229  0.10149229  0.69347928  1
  Hf  Hf3  1  0.10149229  0.10149229  0.10353514  1
  Hf  Hf4  1  0.31555817  0.31555817  0.68444183  1
  Hf  Hf5  1  0.68781313  0.68781313  0.31218687  1
  Hf  Hf6  1  0.31608096  0.69321871  0.31431813  1
  Hf  Hf7  1  0.69321871  0.31608096  0.67638121  1
  Hf  Hf8  1  0.69321871  0.31608096  0.31431813  1
  Hf  Hf9  1  0.31608096  0.69321871  0.67638121  1
  Hf  Hf10  1  0.95355415  0.95355415  0.54644585  1
  Hf  Hf11  1  0.54891311  0.54891311  0.95108689  1
  Hf  Hf12  1  0.94415607  0.55185813  0.95081379  1
  Hf  Hf13  1  0.55185813  0.94415607  0.55317401  1
  Hf  Hf14  1  0.55185813  0.94415607  0.95081379  1
  Hf  Hf15  1  0.94415607  0.55185813  0.55317401  1
  Ni  Ni0  1  0.32403210  0.88630748  0.89482921  1
  Ni  Ni1  1  0.88630748  0.32403210  0.89482921  1
  Ni  Ni2  1  0.89146428  0.89146428  0.32005491  1
  Ni  Ni3  1  0.89146428  0.89146428  0.89701752  1
  Mo  Mo0  1  0.99935377  0.33257102  0.33403611  1
  Mo  Mo1  1  0.33257102  0.99935377  0.33403611  1
  Pt  Pt0  1  0.33321686  0.33321686  0.99347162  1
  Pt  Pt1  1  0.33321686  0.33321686  0.34009266  1
loop_
_geom_bond_atom_site_label_1
_geom_bond_atom_site_label_2
_geom_bond_distance
_geom_bond_site_symmetry_2
Hf0 Ni1 2.574012 1_554
Hf0 Ni3 2.575139 1_544
Hf0 Ni2 2.575163 1_545
Hf0 Mo1 2.983227 1_545
Hf0 Pt0 2.999349 1_554
Hf0 Pt1 2.999354 1_555
Hf0 Hf5 3.115650 1_545
Hf0 Hf11 3.128063 1_554
Hf0 Hf14 3.144672 1_544
Hf0 Hf13 3.144708 1_545
Hf0 Hf7 3.169198 1_554
Hf0 Hf8 3.169213 1_555
Hf1 Ni0 2.574012 1_554
Hf1 Ni3 2.575139 1_454
Hf1 Ni2 2.575163 1_455
Hf1 Mo0 2.983227 1_455
Hf1 Pt0 2.999349 1_554
Hf1 Pt1 2.999354 1_555
Hf1 Hf5 3.115651 1_455
Hf1 Hf11 3.128063 1_554
Hf1 Hf12 3.144672 1_454
Hf1 Hf15 3.144708 1_455
Hf1 Hf9 3.169198 1_554
Hf1 Hf6 3.169213 1_555
Hf2 Ni3 2.565480 1_445
Hf2 Ni1 2.583516 1_455
Hf2 Ni0 2.583516 1_545
Hf2 Mo0 3.015856 1_455
Hf2 Mo1 3.015856 1_545
Hf2 Pt1 3.016100 1_555
Hf2 Hf9 3.098834 1_545
Hf2 Hf7 3.098834 1_455
Hf2 Hf4 3.150620 1_555
Hf3 Ni2 2.565480 1_445
Hf3 Ni1 2.583522 1_454
Hf3 Ni0 2.583522 1_544
Hf3 Mo0 3.015842 1_455
Hf3 Mo1 3.015842 1_545
Hf3 Pt0 3.016097 1_554
Hf3 Hf6 3.098834 1_545
Hf3 Hf8 3.098834 1_455
Hf3 Hf4 3.150615 1_554
Hf4 Pt0 2.810297 1_555
Hf4 Pt1 2.810314 1_555
Hf4 Ni0 3.190818 1_545
Hf4 Ni1 3.190819 1_455
Hf4 Hf9 3.225050 1_555
Hf4 Hf7 3.225050 1_555
Hf4 Hf6 3.225055 1_555
Hf4 Hf8 3.225055 1_555
Hf5 Mo0 2.894587 1_555
Hf5 Mo1 2.894587 1_555
Hf5 Ni3 3.078389 1_554
Hf5 Ni2 3.078394 1_555
Hf5 Hf7 3.173615 1_555
Hf5 Hf9 3.173615 1_555
Hf5 Hf8 3.173619 1_555
Hf5 Hf6 3.173619 1_555
Hf6 Mo1 2.803427 1_555
Hf6 Pt1 2.932813 1_555
Hf6 Ni0 3.103539 1_554
Hf6 Hf9 3.105420 1_555
Hf6 Ni2 3.163692 1_455
Hf6 Hf8 3.260460 1_555
Hf7 Mo0 2.803437 1_555
Hf7 Pt0 2.932810 1_555
Hf7 Ni1 3.103531 1_555
Hf7 Hf8 3.105420 1_555
Hf7 Ni3 3.163697 1_545
Hf7 Hf9 3.260460 1_555
Hf8 Mo0 2.803427 1_555
Hf8 Pt1 2.932813 1_555
Hf8 Ni1 3.103539 1_554
Hf8 Ni2 3.163692 1_545
Hf9 Mo1 2.803437 1_555
Hf9 Pt0 2.932809 1_555
Hf9 Ni0 3.103531 1_555
Hf9 Ni3 3.163697 1_455
Hf10 Ni2 2.587878 1_555
Hf10 Ni3 2.587887 1_555
Hf10 Mo0 2.967024 1_565
Hf10 Mo1 2.967024 1_655
Hf10 Hf2 3.108808 1_665
Hf10 Hf3 3.108815 1_665
Hf10 Hf7 3.170065 1_565
Hf10 Hf9 3.170065 1_655
Hf10 Hf8 3.170069 1_565
Hf10 Hf6 3.170069 1_655
Hf10 Hf15 3.476268 1_555
Hf10 Hf13 3.476268 1_555
Hf10 Hf12 3.476276 1_555
Hf10 Hf14 3.476276 1_555
Hf11 Ni0 2.525743 1_555
Hf11 Ni1 2.525743 1_555
Hf11 Pt1 3.024580 1_556
Hf11 Pt0 3.024588 1_555
Hf11 Hf8 3.230232 1_556
Hf11 Hf6 3.230232 1_556
Hf11 Hf7 3.230239 1_555
Hf11 Hf9 3.230239 1_555
Hf11 Hf13 3.419798 1_555
Hf11 Hf15 3.419799 1_555
Hf11 Hf14 3.419807 1_555
Hf11 Hf12 3.419807 1_555
Hf12 Ni1 2.547669 1_555
Hf12 Ni3 2.556597 1_555
Hf12 Mo0 3.014067 1_556
Hf12 Pt0 3.030858 1_655
Hf12 Hf8 3.146171 1_556
Hf12 Hf5 3.176316 1_556
Hf12 Hf3 3.178793 1_656
Hf12 Hf4 3.238675 1_655
Hf12 Hf9 3.292326 1_655
Hf12 Hf14 3.391524 1_555
Hf12 Hf15 3.410561 1_555
Hf13 Ni0 2.547646 1_555
Hf13 Ni2 2.556600 1_555
Hf13 Mo1 3.014103 1_555
Hf13 Pt1 3.030870 1_565
Hf13 Hf9 3.146180 1_555
Hf13 Hf5 3.176329 1_555
Hf13 Hf2 3.178793 1_565
Hf13 Hf4 3.238665 1_565
Hf13 Hf8 3.292324 1_565
Hf13 Hf15 3.391524 1_555
Hf13 Hf14 3.410561 1_555
Hf14 Ni0 2.547669 1_555
Hf14 Ni3 2.556597 1_555
Hf14 Mo1 3.014067 1_556
Hf14 Pt0 3.030858 1_565
Hf14 Hf6 3.146171 1_556
Hf14 Hf5 3.176316 1_556
Hf14 Hf3 3.178793 1_566
Hf14 Hf4 3.238675 1_565
Hf14 Hf7 3.292326 1_565
Hf15 Ni1 2.547646 1_555
Hf15 Ni2 2.556600 1_555
Hf15 Mo0 3.014103 1_555
Hf15 Pt1 3.030871 1_655
Hf15 Hf7 3.146180 1_555
Hf15 Hf5 3.176330 1_555
Hf15 Hf2 3.178793 1_655
Hf15 Hf4 3.238666 1_655
Hf15 Hf6 3.292325 1_655
Mo0 Mo1 2.880755 1_645
Mo0 Pt0 2.907958 1_654
Mo0 Pt1 2.907962 1_655
Mo1 Pt0 2.907958 1_564
Mo1 Pt1 2.907962 1_565
Pt0 Pt1 2.972973 1_556
