# generated using pymatgen
data_CeSiRh2
_symmetry_space_group_name_H-M   'P 1'
_cell_length_a   4.01734969
_cell_length_b   4.03725514
_cell_length_c   9.23143185
_cell_angle_alpha   90.00000000
_cell_angle_beta   102.56757949
_cell_angle_gamma   90.00000000
_symmetry_Int_Tables_number   1
_chemical_formula_structural   CeSiRh2
_chemical_formula_sum   'Ce2 Si2 Rh4'
_cell_volume   146.13779002
_cell_formula_units_Z   2
loop_
 _symmetry_equiv_pos_site_id
 _symmetry_equiv_pos_as_xyz
  1  'x, y, z'
loop_
 _atom_site_type_symbol
 _atom_site_label
 _atom_site_symmetry_multiplicity
 _atom_site_fract_x
 _atom_site_fract_y
 _atom_site_fract_z
 _atom_site_occupancy
  Ce  Ce0  1  0.09853482  0.75000000  0.19706863  1
  Ce  Ce1  1  0.90146518  0.25000000  0.80293137  1
  Si  Si0  1  0.32036239  0.75000000  0.64072777  1
  Si  Si1  1  0.67963761  0.25000000  0.35927223  1
  Rh  Rh0  1  0.54869961  0.25000000  0.09739923  1
  Rh  Rh1  1  0.45130039  0.75000000  0.90260077  1
  Rh  Rh2  1  0.24980716  0.25000000  0.49961332  1
  Rh  Rh3  1  0.75019284  0.75000000  0.50038668  1
loop_
_geom_bond_atom_site_label_1
_geom_bond_atom_site_label_2
_geom_bond_distance
_geom_bond_site_symmetry_2
Ce0 Rh0 2.985986 1_565
Ce0 Rh0 2.985986 1_555
Ce0 Rh0 2.985988 1_465
Ce0 Rh0 2.985988 1_455
Ce0 Si1 3.200872 1_455
Ce0 Si1 3.200872 1_465
Ce0 Si1 3.200877 1_565
Ce0 Si1 3.200877 1_555
Ce0 Rh1 3.327820 1_554
Ce0 Rh1 3.327822 1_454
Ce0 Rh3 3.391738 1_555
Ce0 Rh3 3.391743 1_455
Ce0 Rh2 3.392042 1_565
Ce0 Rh2 3.392042 1_555
Ce1 Rh1 2.985986 1_545
Ce1 Rh1 2.985986 1_555
Ce1 Rh1 2.985988 1_655
Ce1 Rh1 2.985988 1_645
Ce1 Si0 3.200872 1_655
Ce1 Si0 3.200872 1_645
Ce1 Si0 3.200877 1_555
Ce1 Si0 3.200877 1_545
Ce1 Rh0 3.327820 1_556
Ce1 Rh0 3.327822 1_656
Ce1 Rh2 3.391738 1_555
Ce1 Rh2 3.391743 1_655
Ce1 Rh3 3.392042 1_555
Ce1 Rh3 3.392042 1_545
Rh0 Si1 2.359540 1_555
Rh0 Rh1 2.674981 1_554
Rh0 Rh1 2.674981 1_544
Rh1 Si0 2.359540 1_555
Rh2 Si1 2.373550 1_455
Rh2 Si1 2.373557 1_555
Rh2 Si0 2.385688 1_545
Rh2 Si0 2.385688 1_555
Rh2 Rh3 2.847747 1_555
Rh2 Rh3 2.847747 1_545
Rh2 Rh3 2.847753 1_455
Rh2 Rh3 2.847753 1_445
Rh3 Si0 2.373550 1_655
Rh3 Si0 2.373557 1_555
Rh3 Si1 2.385688 1_565
Rh3 Si1 2.385688 1_555
