# generated using pymatgen
data_Zr3MnIr2N
_symmetry_space_group_name_H-M   'P 1'
_cell_length_a   8.53820452
_cell_length_b   8.53820456
_cell_length_c   8.53820419
_cell_angle_alpha   60.00000143
_cell_angle_beta   60.00000129
_cell_angle_gamma   59.99999657
_symmetry_Int_Tables_number   1
_chemical_formula_structural   Zr3MnIr2N
_chemical_formula_sum   'Zr12 Mn4 Ir8 N4'
_cell_volume   440.13372302
_cell_formula_units_Z   4
loop_
 _symmetry_equiv_pos_site_id
 _symmetry_equiv_pos_as_xyz
  1  'x, y, z'
loop_
 _atom_site_type_symbol
 _atom_site_label
 _atom_site_symmetry_multiplicity
 _atom_site_fract_x
 _atom_site_fract_y
 _atom_site_fract_z
 _atom_site_occupancy
  Zr  Zr0  1  0.80813112  0.80813112  0.19186888  1
  Zr  Zr1  1  0.19186888  0.19186888  0.80813112  1
  Zr  Zr2  1  0.80813112  0.19186888  0.80813112  1
  Zr  Zr3  1  0.19186888  0.80813112  0.19186888  1
  Zr  Zr4  1  0.19186888  0.80813112  0.80813112  1
  Zr  Zr5  1  0.80813112  0.19186888  0.19186888  1
  Zr  Zr6  1  0.44186888  0.44186888  0.05813112  1
  Zr  Zr7  1  0.05813112  0.05813112  0.44186888  1
  Zr  Zr8  1  0.44186888  0.05813112  0.44186888  1
  Zr  Zr9  1  0.05813112  0.44186888  0.05813112  1
  Zr  Zr10  1  0.05813112  0.44186888  0.44186888  1
  Zr  Zr11  1  0.44186888  0.05813112  0.05813112  1
  Mn  Mn0  1  0.12500000  0.62500000  0.62500000  1
  Mn  Mn1  1  0.62500000  0.12500000  0.62500000  1
  Mn  Mn2  1  0.62500000  0.62500000  0.12500000  1
  Mn  Mn3  1  0.62500000  0.62500000  0.62500000  1
  Ir  Ir0  1  0.75135864  0.41621479  0.41621479  1
  Ir  Ir1  1  0.41621479  0.75135864  0.41621479  1
  Ir  Ir2  1  0.41621479  0.41621479  0.75135864  1
  Ir  Ir3  1  0.41621479  0.41621479  0.41621479  1
  Ir  Ir4  1  0.49864136  0.83378521  0.83378521  1
  Ir  Ir5  1  0.83378521  0.49864136  0.83378521  1
  Ir  Ir6  1  0.83378521  0.83378521  0.49864136  1
  Ir  Ir7  1  0.83378521  0.83378521  0.83378521  1
  N  N0  1  0.62500000  0.12500000  0.12500000  1
  N  N1  1  0.12500000  0.62500000  0.12500000  1
  N  N2  1  0.12500000  0.12500000  0.62500000  1
  N  N3  1  0.12500000  0.12500000  0.12500000  1
loop_
_geom_bond_atom_site_label_1
_geom_bond_atom_site_label_2
_geom_bond_distance
_geom_bond_site_symmetry_2
Mn0 Zr9 3.073445 1_556
Mn0 Zr3 3.073445 1_555
Mn0 Zr4 3.073445 1_555
Mn0 Zr10 3.073445 1_555
Mn0 Zr7 3.073445 1_565
Mn0 Zr1 3.073445 1_555
Mn1 Zr2 3.073445 1_555
Mn1 Zr8 3.073445 1_555
Mn1 Zr11 3.073445 1_556
Mn1 Zr5 3.073445 1_555
Mn1 Zr7 3.073445 1_655
Mn1 Zr1 3.073445 1_555
Mn2 Zr9 3.073445 1_655
Mn2 Zr3 3.073445 1_555
Mn2 Zr11 3.073445 1_565
Mn2 Zr5 3.073445 1_555
Mn2 Zr0 3.073445 1_555
Mn2 Zr6 3.073445 1_555
Mn3 Zr10 3.073445 1_655
Mn3 Zr4 3.073445 1_555
Mn3 Zr8 3.073445 1_565
Mn3 Zr2 3.073445 1_555
Mn3 Zr6 3.073445 1_556
Mn3 Zr0 3.073445 1_555
Ir0 Mn3 2.617439 1_555
Ir0 Mn2 2.617460 1_555
Ir0 Mn1 2.617460 1_555
Ir0 Zr10 2.855180 1_655
Ir0 Zr7 2.855194 1_655
Ir0 Zr9 2.855195 1_655
Ir0 Ir1 2.861527 1_555
Ir0 Ir2 2.861527 1_555
Ir0 Ir3 2.861527 1_555
Ir0 Zr2 3.063552 1_555
Ir0 Zr0 3.063552 1_555
Ir0 Zr5 3.063574 1_555
Ir1 Mn3 2.617439 1_555
Ir1 Mn2 2.617460 1_555
Ir1 Mn0 2.617460 1_555
Ir1 Zr8 2.855180 1_565
Ir1 Zr7 2.855194 1_565
Ir1 Zr11 2.855195 1_565
Ir1 Ir3 2.861527 1_555
Ir1 Ir2 2.861527 1_555
Ir1 Zr4 3.063552 1_555
Ir1 Zr0 3.063552 1_555
Ir1 Zr3 3.063574 1_555
Ir2 Mn3 2.617439 1_555
Ir2 Mn0 2.617460 1_555
Ir2 Mn1 2.617460 1_555
Ir2 Zr6 2.855180 1_556
Ir2 Zr9 2.855195 1_556
Ir2 Zr11 2.855195 1_556
Ir2 Ir3 2.861527 1_555
Ir2 Zr2 3.063552 1_555
Ir2 Zr4 3.063552 1_555
Ir2 Zr1 3.063574 1_555
Ir3 Mn0 2.617446 1_555
Ir3 Mn1 2.617446 1_555
Ir3 Mn2 2.617446 1_555
Ir3 Zr6 2.855205 1_555
Ir3 Zr10 2.855205 1_555
Ir3 Zr8 2.855205 1_555
Ir3 Zr5 3.063562 1_555
Ir3 Zr3 3.063562 1_555
Ir3 Zr1 3.063562 1_555
Ir4 Mn3 2.617439 1_555
Ir4 Mn2 2.617460 1_556
Ir4 Mn1 2.617460 1_565
Ir4 Zr4 2.855180 1_555
Ir4 Zr1 2.855194 1_565
Ir4 Zr3 2.855195 1_556
Ir4 Ir5 2.861527 1_555
Ir4 Ir6 2.861527 1_555
Ir4 Ir7 2.861527 1_555
Ir4 Zr8 3.063552 1_565
Ir4 Zr6 3.063552 1_556
Ir4 Zr11 3.063574 1_566
Ir5 Mn3 2.617439 1_555
Ir5 Mn2 2.617460 1_556
Ir5 Mn0 2.617460 1_655
Ir5 Zr2 2.855180 1_555
Ir5 Zr1 2.855194 1_655
Ir5 Zr5 2.855195 1_556
Ir5 Ir7 2.861527 1_555
Ir5 Ir6 2.861527 1_555
Ir5 Zr10 3.063552 1_655
Ir5 Zr6 3.063552 1_556
Ir5 Zr9 3.063574 1_656
Ir6 Mn3 2.617439 1_555
Ir6 Mn0 2.617460 1_655
Ir6 Mn1 2.617460 1_565
Ir6 Zr0 2.855180 1_555
Ir6 Zr3 2.855195 1_655
Ir6 Zr5 2.855195 1_565
Ir6 Ir7 2.861527 1_555
Ir6 Zr8 3.063552 1_565
Ir6 Zr10 3.063552 1_655
Ir6 Zr7 3.063574 1_665
Ir7 Mn0 2.617446 1_655
Ir7 Mn1 2.617446 1_565
Ir7 Mn2 2.617446 1_556
Ir7 Zr0 2.855205 1_556
Ir7 Zr4 2.855205 1_655
Ir7 Zr2 2.855205 1_565
Ir7 Zr11 3.063562 1_566
Ir7 Zr9 3.063562 1_656
Ir7 Zr7 3.063562 1_665
N0 Zr6 2.282160 1_555
N0 Zr0 2.282160 1_545
N0 Zr5 2.282160 1_555
N0 Zr11 2.282160 1_555
N0 Zr8 2.282160 1_555
N0 Zr2 2.282160 1_554
N1 Zr0 2.282160 1_455
N1 Zr6 2.282160 1_555
N1 Zr4 2.282160 1_554
N1 Zr10 2.282160 1_555
N1 Zr3 2.282160 1_555
N1 Zr9 2.282160 1_555
N2 Zr1 2.282160 1_555
N2 Zr7 2.282160 1_555
N2 Zr8 2.282160 1_555
N2 Zr2 2.282160 1_455
N2 Zr10 2.282160 1_555
N2 Zr4 2.282160 1_545
N3 Zr7 2.282160 1_555
N3 Zr1 2.282160 1_554
N3 Zr11 2.282160 1_555
N3 Zr5 2.282160 1_455
N3 Zr9 2.282160 1_555
N3 Zr3 2.282160 1_545
