# generated using pymatgen
data_Lu12Co4TcSb
_symmetry_space_group_name_H-M   'P 1'
_cell_length_a   8.05418480
_cell_length_b   8.05418395
_cell_length_c   8.05418576
_cell_angle_alpha   111.66577955
_cell_angle_beta   110.28384223
_cell_angle_gamma   106.50727713
_symmetry_Int_Tables_number   1
_chemical_formula_structural   Lu12Co4TcSb
_chemical_formula_sum   'Lu12 Co4 Tc1 Sb1'
_cell_volume   401.33708657
_cell_formula_units_Z   1
loop_
 _symmetry_equiv_pos_site_id
 _symmetry_equiv_pos_as_xyz
  1  'x, y, z'
loop_
 _atom_site_type_symbol
 _atom_site_label
 _atom_site_symmetry_multiplicity
 _atom_site_fract_x
 _atom_site_fract_y
 _atom_site_fract_z
 _atom_site_occupancy
  Lu  Lu0  1  0.41959536  0.22021684  0.19937651  1
  Lu  Lu1  1  0.58040464  0.77978316  0.80062349  1
  Lu  Lu2  1  0.02084033  0.22021684  0.80062349  1
  Lu  Lu3  1  0.97915967  0.77978316  0.19937651  1
  Lu  Lu4  1  0.18235884  0.27818848  0.46054832  1
  Lu  Lu5  1  0.81764116  0.72181152  0.53945168  1
  Lu  Lu6  1  0.18235884  0.72181152  0.90417136  1
  Lu  Lu7  1  0.81764116  0.27818848  0.09582864  1
  Lu  Lu8  1  0.30941202  0.61517182  0.30575980  1
  Lu  Lu9  1  0.69058798  0.38482818  0.69424020  1
  Lu  Lu10  1  0.30941202  0.00365122  0.69424020  1
  Lu  Lu11  1  0.69058798  0.99634878  0.30575980  1
  Co  Co0  1  0.37786122  1.00000000  0.37786122  1
  Co  Co1  1  0.62213878  0.00000000  0.62213878  1
  Co  Co2  1  0.11099543  0.61099543  0.50000000  1
  Co  Co3  1  0.88900457  0.38900457  0.50000000  1
  Tc  Tc0  1  0.00000000  0.00000000  0.00000000  1
  Sb  Sb0  1  0.50000000  0.50000000  0.00000000  1
loop_
_geom_bond_atom_site_label_1
_geom_bond_atom_site_label_2
_geom_bond_distance
_geom_bond_site_symmetry_2
Lu0 Tc0 2.805982 1_555
Lu0 Sb0 3.261837 1_555
Lu0 Lu11 3.290835 1_545
Lu0 Lu9 3.290852 1_555
Lu0 Lu6 3.295781 1_544
Lu0 Lu4 3.295802 1_555
Lu0 Lu10 3.429213 1_554
Lu0 Lu8 3.429227 1_555
Lu0 Lu7 3.533024 1_555
Lu0 Lu5 3.533029 1_555
Lu1 Tc0 2.805982 1_666
Lu1 Sb0 3.261837 1_556
Lu1 Lu10 3.290835 1_565
Lu1 Lu8 3.290852 1_555
Lu1 Lu7 3.295781 1_566
Lu1 Lu5 3.295802 1_555
Lu1 Lu11 3.429213 1_556
Lu1 Lu9 3.429227 1_555
Lu1 Lu6 3.533024 1_555
Lu1 Lu4 3.533029 1_555
Lu2 Tc0 2.805969 1_556
Lu2 Sb0 3.261840 1_556
Lu2 Lu9 3.290854 1_455
Lu2 Lu7 3.295776 1_456
Lu2 Lu5 3.295782 1_445
Lu2 Lu8 3.429218 1_556
Lu2 Lu4 3.533027 1_555
Lu2 Lu6 3.533032 1_555
Lu3 Tc0 2.805969 1_665
Lu3 Sb0 3.261840 1_555
Lu3 Lu8 3.290854 1_655
Lu3 Lu6 3.295776 1_654
Lu3 Lu4 3.295782 1_665
Lu3 Lu9 3.429218 1_554
Lu3 Lu5 3.533027 1_555
Lu3 Lu7 3.533032 1_555
Lu4 Tc0 3.025290 1_555
Lu4 Lu7 3.357844 1_455
Lu4 Lu8 3.431117 1_555
Lu4 Lu9 3.535898 1_555
Lu4 Sb0 3.546657 1_556
Lu5 Tc0 3.025290 1_666
Lu5 Lu6 3.357844 1_655
Lu5 Lu9 3.431117 1_555
Lu5 Lu8 3.535898 1_555
Lu5 Sb0 3.546657 1_555
Lu6 Tc0 3.025282 1_566
Lu6 Lu9 3.431110 1_455
Lu6 Lu8 3.535891 1_556
Lu6 Sb0 3.546661 1_556
Lu7 Tc0 3.025282 1_655
Lu7 Lu8 3.431110 1_655
Lu7 Lu9 3.535891 1_554
Lu7 Sb0 3.546661 1_555
Lu8 Sb0 3.320367 1_555
Lu9 Sb0 3.320367 1_556
Lu10 Lu3 3.290855 1_445
Lu10 Sb0 3.320373 1_556
Lu10 Lu2 3.429223 1_555
Lu10 Lu5 3.431107 1_445
Lu10 Lu6 3.431112 1_545
Lu10 Lu7 3.535896 1_556
Lu10 Lu4 3.535900 1_555
Lu11 Lu2 3.290855 1_665
Lu11 Sb0 3.320373 1_555
Lu11 Lu3 3.429223 1_555
Lu11 Lu4 3.431107 1_665
Lu11 Lu7 3.431112 1_565
Lu11 Lu6 3.535896 1_554
Lu11 Lu5 3.535900 1_555
Co0 Co1 2.248983 1_565
Co0 Lu3 2.684088 1_455
Co0 Lu0 2.684090 1_565
Co0 Lu11 2.779545 1_555
Co0 Lu8 2.779547 1_555
Co0 Lu9 2.779547 1_565
Co0 Lu10 2.779549 1_565
Co0 Lu6 3.094070 1_554
Co0 Lu4 3.094077 1_565
Co1 Lu2 2.684088 1_655
Co1 Lu1 2.684090 1_545
Co1 Lu10 2.779545 1_555
Co1 Lu9 2.779547 1_555
Co1 Lu8 2.779547 1_545
Co1 Lu11 2.779549 1_545
Co1 Lu7 3.094070 1_556
Co1 Lu5 3.094077 1_545
Co2 Co3 2.139373 1_455
Co2 Lu10 2.596961 1_565
Co2 Lu8 2.596968 1_555
Co2 Lu5 2.826585 1_455
Co2 Lu4 2.826588 1_555
Co2 Lu7 2.826591 1_455
Co2 Lu6 2.826595 1_555
Co2 Lu1 3.210339 1_555
Co2 Lu3 3.210352 1_455
Co3 Lu11 2.596961 1_545
Co3 Lu9 2.596968 1_555
Co3 Lu4 2.826585 1_655
Co3 Lu5 2.826588 1_555
Co3 Lu6 2.826591 1_655
Co3 Lu7 2.826595 1_555
Co3 Lu0 3.210339 1_555
Co3 Lu2 3.210352 1_655
