# generated using pymatgen
data_Cu3Ni(SeO4)4
_symmetry_space_group_name_H-M   'P 1'
_cell_length_a   4.88489561
_cell_length_b   6.80868123
_cell_length_c   8.94409901
_cell_angle_alpha   87.99662825
_cell_angle_beta   90.72354709
_cell_angle_gamma   94.88021298
_symmetry_Int_Tables_number   1
_chemical_formula_structural   Cu3Ni(SeO4)4
_chemical_formula_sum   'Cu3 Ni1 Se4 O16'
_cell_volume   296.20449731
_cell_formula_units_Z   1
loop_
 _symmetry_equiv_pos_site_id
 _symmetry_equiv_pos_as_xyz
  1  'x, y, z'
loop_
 _atom_site_type_symbol
 _atom_site_label
 _atom_site_symmetry_multiplicity
 _atom_site_fract_x
 _atom_site_fract_y
 _atom_site_fract_z
 _atom_site_occupancy
  Cu  Cu0  1  0.50000000  0.00000000  0.50000000  1
  Cu  Cu1  1  0.00000000  0.00000000  0.00000000  1
  Cu  Cu2  1  0.50000000  0.50000000  0.50000000  1
  Ni  Ni0  1  0.00000000  0.50000000  0.00000000  1
  Se  Se0  1  0.46270951  0.28384228  0.81937752  1
  Se  Se1  1  0.03492520  0.21966910  0.31641090  1
  Se  Se2  1  0.53729049  0.71615772  0.18062248  1
  Se  Se3  1  0.96507480  0.78033090  0.68358910  1
  O  O0  1  0.70907609  0.20465091  0.36781206  1
  O  O1  1  0.81888042  0.98175950  0.63009444  1
  O  O2  1  0.57328626  0.72884812  0.36748166  1
  O  O3  1  0.31337842  0.06950612  0.88082873  1
  O  O4  1  0.67746005  0.51808173  0.12998539  1
  O  O5  1  0.93023105  0.75996648  0.87177239  1
  O  O6  1  0.42671374  0.27115188  0.63251834  1
  O  O7  1  0.68662158  0.93049388  0.11917127  1
  O  O8  1  0.29092391  0.79534909  0.63218794  1
  O  O9  1  0.81921198  0.57145398  0.62163934  1
  O  O10  1  0.78829031  0.29011651  0.87327410  1
  O  O11  1  0.06976895  0.24003352  0.12822761  1
  O  O12  1  0.32253995  0.48191827  0.87001461  1
  O  O13  1  0.21170969  0.70988349  0.12672590  1
  O  O14  1  0.18111958  0.01824050  0.36990556  1
  O  O15  1  0.18078802  0.42854602  0.37836066  1
loop_
_geom_bond_atom_site_label_1
_geom_bond_atom_site_label_2
_geom_bond_distance
_geom_bond_site_symmetry_2
Cu0 O1 1.942368 1_545
Cu0 O14 1.942368 1_555
Cu0 O0 2.013870 1_555
Cu0 O8 2.013870 1_545
Cu0 O6 2.284199 1_555
Cu0 O2 2.284199 1_545
Cu1 O7 1.893714 1_445
Cu1 O3 1.893714 1_554
Cu1 O11 2.031962 1_555
Cu1 O5 2.031962 1_444
Cu1 O13 2.533283 1_545
Cu1 O10 2.533283 1_454
Cu2 O9 1.927924 1_555
Cu2 O15 1.927924 1_555
Cu2 O6 1.935852 1_555
Cu2 O2 1.935852 1_555
Cu2 O8 2.651597 1_555
Cu2 O0 2.651597 1_555
Ni0 O4 1.984567 1_455
Ni0 O12 1.984567 1_554
Ni0 O13 2.056343 1_555
Ni0 O10 2.056343 1_454
Ni0 O5 2.124930 1_454
Ni0 O11 2.124930 1_555
O0 Se1 1.656185 1_655
O1 Se3 1.652869 1_555
O2 Se2 1.682758 1_555
O3 Se0 1.654334 1_555
O4 Se2 1.643298 1_555
O5 Se3 1.693525 1_555
O6 Se0 1.682758 1_555
O7 Se2 1.654334 1_555
O8 Se3 1.656185 1_455
O9 Se3 1.646207 1_555
O10 Se0 1.653536 1_555
O11 Se1 1.693525 1_555
O12 Se0 1.643298 1_555
O13 Se2 1.653536 1_555
O14 Se1 1.652869 1_555
O15 Se1 1.646207 1_555
