# generated using pymatgen
data_Sc4As3Se
_symmetry_space_group_name_H-M   'P 1'
_cell_length_a   3.87416387
_cell_length_b   8.66080719
_cell_length_c   10.24513794
_cell_angle_alpha   40.50411270
_cell_angle_beta   124.51023191
_cell_angle_gamma   132.11657740
_symmetry_Int_Tables_number   1
_chemical_formula_structural   Sc4As3Se
_chemical_formula_sum   'Sc4 As3 Se1'
_cell_volume   164.47155818
_cell_formula_units_Z   1
loop_
 _symmetry_equiv_pos_site_id
 _symmetry_equiv_pos_as_xyz
  1  'x, y, z'
loop_
 _atom_site_type_symbol
 _atom_site_label
 _atom_site_symmetry_multiplicity
 _atom_site_fract_x
 _atom_site_fract_y
 _atom_site_fract_z
 _atom_site_occupancy
  Sc  Sc0  1  0.49982739  0.39828905  0.28207663  1
  Sc  Sc1  1  0.74531157  0.65847331  0.51892914  1
  Sc  Sc2  1  0.23337618  0.13770176  0.03150969  1
  Sc  Sc3  1  0.01218561  0.91913111  0.76950235  1
  As  As0  1  0.87924619  0.28134187  0.65202848  1
  As  As1  1  0.36603508  0.77561821  0.14881292  1
  As  As2  1  0.62246397  0.02819921  0.40054423  1
  Se  Se0  1  0.12262302  0.52813648  0.90055655  1
loop_
_geom_bond_atom_site_label_1
_geom_bond_atom_site_label_2
_geom_bond_distance
_geom_bond_site_symmetry_2
Sc0 Se0 2.779517 1_554
Sc1 Se0 2.779078 1_655
Sc2 Se0 2.795216 1_554
Sc2 Se0 2.795705 1_654
Sc3 Se0 2.796911 1_455
Sc3 Se0 2.798419 1_555
As0 Sc3 2.697764 1_645
As0 Sc3 2.697898 1_545
As0 Sc0 2.719985 1_555
As0 Sc2 2.726787 1_656
As0 Sc1 2.737784 1_555
As0 Sc1 2.738167 1_655
As1 Sc2 2.696890 1_565
As1 Sc2 2.698224 1_665
As1 Sc1 2.720783 1_555
As1 Sc3 2.725718 1_554
As1 Sc0 2.738136 1_555
As1 Sc0 2.739025 1_455
As2 Sc1 2.726735 1_545
As2 Sc1 2.727913 1_445
As2 Sc0 2.728696 1_555
As2 Sc0 2.728714 1_655
As2 Sc2 2.733703 1_555
As2 Sc3 2.734334 1_645
