# generated using pymatgen
data_Be7V4Ga
_symmetry_space_group_name_H-M   'P 1'
_cell_length_a   4.42642356
_cell_length_b   4.42642331
_cell_length_c   7.17440786
_cell_angle_alpha   90.00000000
_cell_angle_beta   90.00000000
_cell_angle_gamma   120.00000190
_symmetry_Int_Tables_number   1
_chemical_formula_structural   Be7V4Ga
_chemical_formula_sum   'Be7 V4 Ga1'
_cell_volume   121.73700108
_cell_formula_units_Z   1
loop_
 _symmetry_equiv_pos_site_id
 _symmetry_equiv_pos_as_xyz
  1  'x, y, z'
loop_
 _atom_site_type_symbol
 _atom_site_label
 _atom_site_symmetry_multiplicity
 _atom_site_fract_x
 _atom_site_fract_y
 _atom_site_fract_z
 _atom_site_occupancy
  Be  Be0  1  0.00000000  0.00000000  0.50000000  1
  Be  Be1  1  0.82613117  0.65226134  0.26028293  1
  Be  Be2  1  0.17386883  0.82613117  0.73971707  1
  Be  Be3  1  0.65226134  0.82613117  0.73971707  1
  Be  Be4  1  0.34773866  0.17386883  0.26028293  1
  Be  Be5  1  0.82613117  0.17386883  0.26028293  1
  Be  Be6  1  0.17386883  0.34773866  0.73971707  1
  V  V0  1  0.33333300  0.66666700  0.07001155  1
  V  V1  1  0.66666700  0.33333300  0.56841730  1
  V  V2  1  0.66666700  0.33333300  0.92998845  1
  V  V3  1  0.33333300  0.66666700  0.43158270  1
  Ga  Ga0  1  0.00000000  0.00000000  0.00000000  1
loop_
_geom_bond_atom_site_label_1
_geom_bond_atom_site_label_2
_geom_bond_distance
_geom_bond_site_symmetry_2
Be0 Be2 2.175946 1_545
Be0 Be5 2.175946 1_455
Be0 Be6 2.175948 1_555
Be0 Be1 2.175948 1_445
Be0 Be3 2.175948 1_445
Be0 Be4 2.175948 1_555
Be0 V1 2.602307 1_455
Be0 V3 2.602307 1_545
Be0 V3 2.602310 1_555
Be0 V1 2.602310 1_445
Be0 V1 2.602310 1_555
Be0 V3 2.602310 1_445
Be1 Be4 2.117568 1_555
Be1 Be5 2.117568 1_555
Be1 Ga0 2.294348 1_665
Be1 Be5 2.308856 1_565
Be1 Be4 2.308856 1_665
Be1 V1 2.526225 1_555
Be1 V3 2.532136 1_655
Be1 V3 2.532144 1_555
Be1 V0 2.600921 1_655
Be1 V0 2.600929 1_555
Be1 V2 2.666462 1_554
Be2 Be6 2.117568 1_555
Be2 Be3 2.117568 1_555
Be2 Ga0 2.294346 1_566
Be2 Be6 2.308856 1_565
Be2 Be3 2.308856 1_455
Be2 V3 2.526225 1_555
Be2 V1 2.532140 1_565
Be2 V1 2.532140 1_455
Be2 V2 2.600925 1_565
Be2 V2 2.600925 1_455
Be2 V0 2.666462 1_556
Be3 Be6 2.117568 1_555
Be3 Ga0 2.294348 1_666
Be3 Be6 2.308856 1_665
Be3 V3 2.526225 1_555
Be3 V1 2.532136 1_565
Be3 V1 2.532144 1_555
Be3 V2 2.600921 1_565
Be3 V2 2.600929 1_555
Be3 V0 2.666462 1_556
Be4 Be5 2.117568 1_555
Be4 Ga0 2.294348 1_555
Be4 Be5 2.308856 1_455
Be4 V1 2.526225 1_555
Be4 V3 2.532136 1_545
Be4 V3 2.532144 1_555
Be4 V0 2.600921 1_545
Be4 V0 2.600929 1_555
Be4 V2 2.666462 1_554
Be5 Ga0 2.294346 1_655
Be5 V1 2.526225 1_555
Be5 V3 2.532140 1_545
Be5 V3 2.532140 1_655
Be5 V0 2.600925 1_545
Be5 V0 2.600925 1_655
Be5 V2 2.666462 1_554
Be6 Ga0 2.294348 1_556
Be6 V3 2.526225 1_555
Be6 V1 2.532136 1_455
Be6 V1 2.532144 1_555
Be6 V2 2.600921 1_455
Be6 V2 2.600929 1_555
Be6 V0 2.666462 1_556
V0 V3 2.594059 1_555
V0 V2 2.745951 1_564
V0 V2 2.745951 1_454
V0 V2 2.745958 1_554
V1 V2 2.594059 1_555
V1 V3 2.737665 1_545
V1 V3 2.737665 1_655
V1 V3 2.737672 1_555
Ga0 V0 2.604488 1_545
Ga0 V2 2.604488 1_454
Ga0 V0 2.604492 1_555
Ga0 V2 2.604492 1_444
Ga0 V2 2.604492 1_554
Ga0 V0 2.604492 1_445
