# generated using pymatgen
data_Ba3CdRuO6
_symmetry_space_group_name_H-M   'P 1'
_cell_length_a   7.12026060
_cell_length_b   7.12026015
_cell_length_c   7.12026093
_cell_angle_alpha   91.91185539
_cell_angle_beta   91.91185320
_cell_angle_gamma   91.91185583
_symmetry_Int_Tables_number   1
_chemical_formula_structural   Ba3CdRuO6
_chemical_formula_sum   'Ba6 Cd2 Ru2 O12'
_cell_volume   360.36715164
_cell_formula_units_Z   2
loop_
 _symmetry_equiv_pos_site_id
 _symmetry_equiv_pos_as_xyz
  1  'x, y, z'
loop_
 _atom_site_type_symbol
 _atom_site_label
 _atom_site_symmetry_multiplicity
 _atom_site_fract_x
 _atom_site_fract_y
 _atom_site_fract_z
 _atom_site_occupancy
  Ba  Ba0  1  0.10951115  0.75000000  0.39048885  1
  Ba  Ba1  1  0.39048885  0.10951115  0.75000000  1
  Ba  Ba2  1  0.89048885  0.25000000  0.60951115  1
  Ba  Ba3  1  0.60951115  0.89048885  0.25000000  1
  Ba  Ba4  1  0.75000000  0.39048885  0.10951115  1
  Ba  Ba5  1  0.25000000  0.60951115  0.89048885  1
  Cd  Cd0  1  0.25000000  0.25000000  0.25000000  1
  Cd  Cd1  1  0.75000000  0.75000000  0.75000000  1
  Ru  Ru0  1  0.00000000  0.00000000  0.00000000  1
  Ru  Ru1  1  0.50000000  0.50000000  0.50000000  1
  O  O0  1  0.45444855  0.76918594  0.58696447  1
  O  O1  1  0.58696447  0.45444855  0.76918594  1
  O  O2  1  0.76918594  0.58696447  0.45444855  1
  O  O3  1  0.04555145  0.91303553  0.73081406  1
  O  O4  1  0.73081406  0.04555145  0.91303553  1
  O  O5  1  0.91303553  0.73081406  0.04555145  1
  O  O6  1  0.54555145  0.23081406  0.41303553  1
  O  O7  1  0.41303553  0.54555145  0.23081406  1
  O  O8  1  0.23081406  0.41303553  0.54555145  1
  O  O9  1  0.95444855  0.08696447  0.26918594  1
  O  O10  1  0.08696447  0.26918594  0.95444855  1
  O  O11  1  0.26918594  0.95444855  0.08696447  1
loop_
_geom_bond_atom_site_label_1
_geom_bond_atom_site_label_2
_geom_bond_distance
_geom_bond_site_symmetry_2
Ba0 O2 2.710741 1_455
Ba0 O3 2.710741 1_555
Ba0 O0 2.782715 1_555
Ba0 O5 2.782715 1_455
Ba0 O9 2.823634 1_465
Ba0 O8 2.823634 1_555
Ba0 O7 2.888917 1_555
Ba0 O11 2.888917 1_555
Ba1 O0 2.710741 1_545
Ba1 O4 2.710741 1_555
Ba1 O1 2.782715 1_555
Ba1 O3 2.782715 1_545
Ba1 O11 2.823635 1_546
Ba1 O6 2.823635 1_555
Ba1 O8 2.888917 1_555
Ba1 O10 2.888917 1_555
Ba2 O8 2.710741 1_655
Ba2 O9 2.710741 1_555
Ba2 O6 2.782715 1_555
Ba2 O10 2.782715 1_655
Ba2 O3 2.823634 1_645
Ba2 O2 2.823634 1_555
Ba2 O1 2.888917 1_555
Ba2 O4 2.888917 1_555
Ba3 O6 2.710741 1_565
Ba3 O11 2.710741 1_555
Ba3 O7 2.782715 1_555
Ba3 O9 2.782715 1_565
Ba3 O4 2.823635 1_564
Ba3 O0 2.823635 1_555
Ba3 O2 2.888917 1_555
Ba3 O5 2.888917 1_555
Ba4 O5 2.710741 1_555
Ba4 O1 2.710741 1_554
Ba4 O4 2.782715 1_554
Ba4 O2 2.782715 1_555
Ba4 O7 2.823635 1_555
Ba4 O10 2.823635 1_654
Ba4 O9 2.888917 1_555
Ba4 O6 2.888917 1_555
Ba5 O10 2.710741 1_555
Ba5 O7 2.710741 1_556
Ba5 O11 2.782715 1_556
Ba5 O8 2.782715 1_555
Ba5 O1 2.823635 1_555
Ba5 O5 2.823635 1_456
Ba5 O3 2.888917 1_555
Ba5 O0 2.888917 1_555
Cd0 O7 2.379395 1_555
Cd0 O11 2.379396 1_545
Cd0 O9 2.379396 1_455
Cd0 O8 2.379396 1_555
Cd0 O6 2.379396 1_555
Cd0 O10 2.379396 1_554
Cd1 O1 2.379395 1_555
Cd1 O4 2.379396 1_565
Cd1 O3 2.379396 1_655
Cd1 O2 2.379396 1_555
Cd1 O0 2.379396 1_555
Cd1 O5 2.379396 1_556
O0 Ru1 2.034194 1_555
O1 Ru1 2.034194 1_555
O2 Ru1 2.034194 1_555
O3 Ru0 2.034194 1_566
O4 Ru0 2.034194 1_656
O5 Ru0 2.034194 1_665
O6 Ru1 2.034194 1_555
O7 Ru1 2.034194 1_555
O8 Ru1 2.034194 1_555
O9 Ru0 2.034194 1_655
O10 Ru0 2.034194 1_556
O11 Ru0 2.034194 1_565
