# generated using pymatgen
data_MoPd5Pt3
_symmetry_space_group_name_H-M   'P 1'
_cell_length_a   6.22268895
_cell_length_b   6.22268786
_cell_length_c   6.18389157
_cell_angle_alpha   95.85539199
_cell_angle_beta   95.53493408
_cell_angle_gamma   143.39507294
_symmetry_Int_Tables_number   1
_chemical_formula_structural   MoPd5Pt3
_chemical_formula_sum   'Mo1 Pd5 Pt3'
_cell_volume   135.46648542
_cell_formula_units_Z   1
loop_
 _symmetry_equiv_pos_site_id
 _symmetry_equiv_pos_as_xyz
  1  'x, y, z'
loop_
 _atom_site_type_symbol
 _atom_site_label
 _atom_site_symmetry_multiplicity
 _atom_site_fract_x
 _atom_site_fract_y
 _atom_site_fract_z
 _atom_site_occupancy
  Mo  Mo0  1  0.00257025  0.00018135  0.00275160  1
  Pd  Pd0  1  0.99896171  0.32959218  0.32855389  1
  Pd  Pd1  1  0.66383064  0.66465820  0.32848683  1
  Pd  Pd2  1  0.33605694  0.33649684  0.67255378  1
  Pd  Pd3  1  0.67067160  0.00148253  0.67215114  1
  Pd  Pd4  1  0.00028556  0.67001456  0.67029912  1
  Pt  Pt0  1  0.65951745  0.33950629  0.99902474  1
  Pt  Pt1  1  0.34052274  0.65929727  0.99982001  1
  Pt  Pt2  1  0.32758511  0.99877178  0.32635689  1
loop_
_geom_bond_atom_site_label_1
_geom_bond_atom_site_label_2
_geom_bond_distance
_geom_bond_site_symmetry_2
Mo0 Pt0 2.709247 1_554
Mo0 Pt0 2.709249 1_444
Mo0 Pt2 2.710413 1_545
Mo0 Pt1 2.723830 1_554
Mo0 Pt1 2.723831 1_444
Mo0 Pd1 2.733318 1_445
Mo0 Pd1 2.733326 1_555
Mo0 Pd0 2.738865 1_455
Mo0 Pd4 2.744714 1_544
Mo0 Pd2 2.751753 1_554
Mo0 Pd2 2.751755 1_444
Mo0 Pd3 2.767819 1_454
Pd0 Pt1 2.746367 1_654
Pd0 Pt1 2.746369 1_544
Pd0 Pd1 2.759534 1_545
Pd0 Pd1 2.759541 1_655
Pd0 Pt2 2.804813 1_655
Pd0 Pt2 2.804814 1_545
Pd0 Pd3 2.807562 1_555
Pd0 Pd3 2.807573 1_665
Pd0 Pd2 2.811232 1_655
Pd0 Pd4 2.829974 1_655
Pd0 Pt0 2.832401 1_554
Pd1 Pt1 2.696122 1_554
Pd1 Pt0 2.703062 1_554
Pd1 Pt2 2.758861 1_655
Pd1 Pt2 2.758866 1_545
Pd1 Pd3 2.800303 1_565
Pd1 Pd4 2.805754 1_655
Pd1 Pd2 2.809553 1_665
Pd1 Pd2 2.809556 1_555
Pd2 Pt1 2.683537 1_555
Pd2 Pt0 2.697291 1_555
Pd2 Pd3 2.761912 1_455
Pd2 Pd3 2.761919 1_565
Pd2 Pd4 2.763329 1_545
Pd2 Pd4 2.763333 1_655
Pd2 Pt2 2.808008 1_545
Pd3 Pt1 2.742314 1_655
Pd3 Pt1 2.742320 1_545
Pd3 Pd4 2.797863 1_655
Pd3 Pd4 2.797869 1_545
Pd3 Pt0 2.812293 1_555
Pd3 Pt2 2.860926 1_545
Pd4 Pt0 2.746128 1_565
Pd4 Pt0 2.746132 1_455
Pd4 Pt2 2.809053 1_555
Pd4 Pt2 2.809058 1_445
Pd4 Pt1 2.839266 1_555
Pt0 Pt2 2.740459 1_546
Pt0 Pt2 2.740464 1_656
Pt0 Pt1 2.893567 1_545
Pt0 Pt1 2.893570 1_655
Pt1 Pt2 2.824963 1_556
