# generated using pymatgen
data_HfTi3(AuN)2
_symmetry_space_group_name_H-M   'P 1'
_cell_length_a   17.08571849
_cell_length_b   17.08571730
_cell_length_c   8.59306995
_cell_angle_alpha   90.00000000
_cell_angle_beta   90.00000000
_cell_angle_gamma   159.33893455
_symmetry_Int_Tables_number   1
_chemical_formula_structural   HfTi3(AuN)2
_chemical_formula_sum   'Hf8 Ti24 Au16 N16'
_cell_volume   885.09830384
_cell_formula_units_Z   8
loop_
 _symmetry_equiv_pos_site_id
 _symmetry_equiv_pos_as_xyz
  1  'x, y, z'
loop_
 _atom_site_type_symbol
 _atom_site_label
 _atom_site_symmetry_multiplicity
 _atom_site_fract_x
 _atom_site_fract_y
 _atom_site_fract_z
 _atom_site_occupancy
  Hf  Hf0_0  1  0.44448391  0.05551459  0.12500050  1
  Hf  Hf0_1  1  0.44448391  0.05551459  0.62500050  1
  Hf  Hf0_2  1  0.44448391  0.55551459  0.12500050  1
  Hf  Hf0_3  1  0.44448391  0.55551459  0.62500050  1
  Hf  Hf0_4  1  0.94448391  0.05551459  0.12500050  1
  Hf  Hf0_5  1  0.94448391  0.05551459  0.62500050  1
  Hf  Hf0_6  1  0.94448391  0.55551459  0.12500050  1
  Hf  Hf0_7  1  0.94448391  0.55551459  0.62500050  1
  Ti  Ti0_0  1  0.35661424  0.14338426  0.12500050  1
  Ti  Ti0_1  1  0.35661424  0.14338426  0.62500050  1
  Ti  Ti0_2  1  0.35661424  0.64338426  0.12500050  1
  Ti  Ti0_3  1  0.35661424  0.64338426  0.62500050  1
  Ti  Ti0_4  1  0.85661424  0.14338426  0.12500050  1
  Ti  Ti0_5  1  0.85661424  0.14338426  0.62500050  1
  Ti  Ti0_6  1  0.85661424  0.64338426  0.12500050  1
  Ti  Ti0_7  1  0.85661424  0.64338426  0.62500050  1
  Ti  Ti1_0  1  0.14107660  0.35892190  0.37500000  1
  Ti  Ti1_1  1  0.14107660  0.35892190  0.87500000  1
  Ti  Ti1_2  1  0.14107660  0.85892190  0.37500000  1
  Ti  Ti1_3  1  0.14107660  0.85892190  0.87500000  1
  Ti  Ti1_4  1  0.64107660  0.35892190  0.37500000  1
  Ti  Ti1_5  1  0.64107660  0.35892190  0.87500000  1
  Ti  Ti1_6  1  0.64107660  0.85892190  0.37500000  1
  Ti  Ti1_7  1  0.64107660  0.85892190  0.87500000  1
  Ti  Ti2_0  1  0.05737591  0.44262259  0.37500000  1
  Ti  Ti2_1  1  0.05737591  0.44262259  0.87500000  1
  Ti  Ti2_2  1  0.05737591  0.94262259  0.37500000  1
  Ti  Ti2_3  1  0.05737591  0.94262259  0.87500000  1
  Ti  Ti2_4  1  0.55737591  0.44262259  0.37500000  1
  Ti  Ti2_5  1  0.55737591  0.44262259  0.87500000  1
  Ti  Ti2_6  1  0.55737591  0.94262259  0.37500000  1
  Ti  Ti2_7  1  0.55737591  0.94262259  0.87500000  1
  Au  Au0_0  1  0.27604467  0.22395333  0.12500050  1
  Au  Au0_1  1  0.27604467  0.22395333  0.62500050  1
  Au  Au0_2  1  0.27604467  0.72395333  0.12500050  1
  Au  Au0_3  1  0.27604467  0.72395333  0.62500050  1
  Au  Au0_4  1  0.77604467  0.22395333  0.12500050  1
  Au  Au0_5  1  0.77604467  0.22395333  0.62500050  1
  Au  Au0_6  1  0.77604467  0.72395333  0.12500050  1
  Au  Au0_7  1  0.77604467  0.72395333  0.62500050  1
  Au  Au1_0  1  0.22631792  0.27368008  0.37500000  1
  Au  Au1_1  1  0.22631792  0.27368008  0.87500000  1
  Au  Au1_2  1  0.22631792  0.77368008  0.37500000  1
  Au  Au1_3  1  0.22631792  0.77368008  0.87500000  1
  Au  Au1_4  1  0.72631792  0.27368008  0.37500000  1
  Au  Au1_5  1  0.72631792  0.27368008  0.87500000  1
  Au  Au1_6  1  0.72631792  0.77368008  0.37500000  1
  Au  Au1_7  1  0.72631792  0.77368008  0.87500000  1
  N  N0_0  1  0.14849891  0.35149959  0.12500050  1
  N  N0_1  1  0.14849891  0.35149959  0.62500050  1
  N  N0_2  1  0.14849891  0.85149959  0.12500050  1
  N  N0_3  1  0.14849891  0.85149959  0.62500050  1
  N  N0_4  1  0.64849891  0.35149959  0.12500050  1
  N  N0_5  1  0.64849891  0.35149959  0.62500050  1
  N  N0_6  1  0.64849891  0.85149959  0.12500050  1
  N  N0_7  1  0.64849891  0.85149959  0.62500050  1
  N  N1_0  1  0.34958134  0.15041716  0.37500000  1
  N  N1_1  1  0.34958134  0.15041716  0.87500000  1
  N  N1_2  1  0.34958134  0.65041716  0.37500000  1
  N  N1_3  1  0.34958134  0.65041716  0.87500000  1
  N  N1_4  1  0.84958134  0.15041716  0.37500000  1
  N  N1_5  1  0.84958134  0.15041716  0.87500000  1
  N  N1_6  1  0.84958134  0.65041716  0.37500000  1
  N  N1_7  1  0.84958134  0.65041716  0.87500000  1
loop_
_geom_bond_atom_site_label_1
_geom_bond_atom_site_label_2
_geom_bond_distance
_geom_bond_site_symmetry_2
Hf0_0 N0_4 2.176399 1_555
Hf0_0 N0_2 2.176400 1_545
Hf0_1 N0_5 2.176399 1_555
Hf0_1 N0_3 2.176400 1_545
Hf0_2 N0_6 2.176399 1_555
Hf0_2 N0_0 2.176400 1_555
Hf0_3 N0_7 2.176399 1_555
Hf0_3 N0_1 2.176400 1_555
Hf0_4 N0_0 2.176399 1_655
Hf0_4 N0_6 2.176400 1_545
Hf0_5 N0_1 2.176399 1_655
Hf0_5 N0_7 2.176400 1_545
Hf0_6 N0_2 2.176399 1_655
Hf0_6 N0_4 2.176400 1_555
Hf0_7 N0_3 2.176399 1_655
Hf0_7 N0_5 2.176400 1_555
Au0_0 Ti0_0 2.708540 1_555
Au0_0 Au1_0 2.722054 1_555
Au0_0 Au1_1 2.722061 1_554
Au0_0 Ti2_2 2.841005 1_545
Au0_0 Ti2_4 2.841007 1_555
Au0_0 Ti2_3 2.841012 1_544
Au0_0 Ti2_5 2.841014 1_554
Au0_0 Au0_6 3.063922 1_555
Au0_0 Au0_6 3.063922 1_445
Au0_0 Hf0_4 3.140827 1_455
Au0_0 Hf0_2 3.140828 1_555
Au0_1 Ti0_1 2.708540 1_555
Au0_1 Au1_1 2.722054 1_555
Au0_1 Au1_0 2.722061 1_555
Au0_1 Ti2_3 2.841005 1_545
Au0_1 Ti2_5 2.841007 1_555
Au0_1 Ti2_2 2.841012 1_545
Au0_1 Ti2_4 2.841014 1_555
Au0_1 Au0_7 3.063922 1_555
Au0_1 Au0_7 3.063922 1_445
Au0_1 Hf0_5 3.140827 1_455
Au0_1 Hf0_3 3.140828 1_555
Au0_2 Ti0_2 2.708540 1_555
Au0_2 Au1_2 2.722054 1_555
Au0_2 Au1_3 2.722061 1_554
Au0_2 Ti2_0 2.841005 1_555
Au0_2 Ti2_6 2.841007 1_555
Au0_2 Ti2_1 2.841012 1_554
Au0_2 Ti2_7 2.841014 1_554
Au0_2 Au0_4 3.063922 1_565
Au0_2 Au0_4 3.063922 1_455
Au0_2 Hf0_6 3.140827 1_455
Au0_2 Hf0_0 3.140828 1_565
Au0_3 Ti0_3 2.708540 1_555
Au0_3 Au1_3 2.722054 1_555
Au0_3 Au1_2 2.722061 1_555
Au0_3 Ti2_1 2.841005 1_555
Au0_3 Ti2_7 2.841007 1_555
Au0_3 Ti2_0 2.841012 1_555
Au0_3 Ti2_6 2.841014 1_555
Au0_3 Au0_5 3.063922 1_565
Au0_3 Au0_5 3.063922 1_455
Au0_3 Hf0_7 3.140827 1_455
Au0_3 Hf0_1 3.140828 1_565
Au0_4 Ti0_4 2.708540 1_555
Au0_4 Au1_4 2.722054 1_555
Au0_4 Au1_5 2.722061 1_554
Au0_4 Ti2_6 2.841005 1_545
Au0_4 Ti2_0 2.841007 1_655
Au0_4 Ti2_7 2.841012 1_544
Au0_4 Ti2_1 2.841014 1_654
Au0_4 Hf0_0 3.140827 1_555
Au0_4 Hf0_6 3.140828 1_555
Au0_5 Ti0_5 2.708540 1_555
Au0_5 Au1_5 2.722054 1_555
Au0_5 Au1_4 2.722061 1_555
Au0_5 Ti2_7 2.841005 1_545
Au0_5 Ti2_1 2.841007 1_655
Au0_5 Ti2_6 2.841012 1_545
Au0_5 Ti2_0 2.841014 1_655
Au0_5 Hf0_1 3.140827 1_555
Au0_5 Hf0_7 3.140828 1_555
Au0_6 Ti0_6 2.708540 1_555
Au0_6 Au1_6 2.722054 1_555
Au0_6 Au1_7 2.722061 1_554
Au0_6 Ti2_4 2.841005 1_555
Au0_6 Ti2_2 2.841007 1_655
Au0_6 Ti2_5 2.841012 1_554
Au0_6 Ti2_3 2.841014 1_654
Au0_6 Hf0_2 3.140827 1_555
Au0_6 Hf0_4 3.140828 1_565
Au0_7 Ti0_7 2.708540 1_555
Au0_7 Au1_7 2.722054 1_555
Au0_7 Au1_6 2.722061 1_555
Au0_7 Ti2_5 2.841005 1_555
Au0_7 Ti2_3 2.841007 1_655
Au0_7 Ti2_4 2.841012 1_555
Au0_7 Ti2_2 2.841014 1_655
Au0_7 Hf0_3 3.140827 1_555
Au0_7 Hf0_5 3.140828 1_565
Au1_0 Hf0_4 2.847321 1_455
Au1_0 Hf0_2 2.847323 1_555
Au1_0 Hf0_5 2.847328 1_455
Au1_0 Hf0_3 2.847329 1_555
Au1_0 Ti1_0 2.865609 1_555
Au1_0 Au1_6 3.063922 1_445
Au1_0 Au1_6 3.063922 1_555
Au1_0 Ti2_2 3.126068 1_545
Au1_0 Ti2_4 3.126070 1_555
Au1_1 Hf0_5 2.847321 1_455
Au1_1 Hf0_3 2.847323 1_555
Au1_1 Hf0_4 2.847328 1_456
Au1_1 Hf0_2 2.847329 1_556
Au1_1 Ti1_1 2.865609 1_555
Au1_1 Au1_7 3.063922 1_445
Au1_1 Au1_7 3.063922 1_555
Au1_1 Ti2_3 3.126068 1_545
Au1_1 Ti2_5 3.126070 1_555
Au1_2 Hf0_6 2.847321 1_455
Au1_2 Hf0_0 2.847323 1_565
Au1_2 Hf0_7 2.847328 1_455
Au1_2 Hf0_1 2.847329 1_565
Au1_2 Ti1_2 2.865609 1_555
Au1_2 Au1_4 3.063922 1_565
Au1_2 Au1_4 3.063922 1_455
Au1_2 Ti2_0 3.126068 1_555
Au1_2 Ti2_6 3.126070 1_555
Au1_3 Hf0_7 2.847321 1_455
Au1_3 Hf0_1 2.847323 1_565
Au1_3 Hf0_6 2.847328 1_456
Au1_3 Hf0_0 2.847329 1_566
Au1_3 Ti1_3 2.865609 1_555
Au1_3 Au1_5 3.063922 1_565
Au1_3 Au1_5 3.063922 1_455
Au1_3 Ti2_1 3.126068 1_555
Au1_3 Ti2_7 3.126070 1_555
Au1_4 Hf0_0 2.847321 1_555
Au1_4 Hf0_6 2.847323 1_555
Au1_4 Hf0_1 2.847328 1_555
Au1_4 Hf0_7 2.847329 1_555
Au1_4 Ti1_4 2.865609 1_555
Au1_4 Ti2_6 3.126068 1_545
Au1_4 Ti2_0 3.126070 1_655
Au1_5 Hf0_1 2.847321 1_555
Au1_5 Hf0_7 2.847323 1_555
Au1_5 Hf0_0 2.847328 1_556
Au1_5 Hf0_6 2.847329 1_556
Au1_5 Ti1_5 2.865609 1_555
Au1_5 Ti2_7 3.126068 1_545
Au1_5 Ti2_1 3.126070 1_655
Au1_6 Hf0_2 2.847321 1_555
Au1_6 Hf0_4 2.847323 1_565
Au1_6 Hf0_3 2.847328 1_555
Au1_6 Hf0_5 2.847329 1_565
Au1_6 Ti1_6 2.865609 1_555
Au1_6 Ti2_4 3.126068 1_555
Au1_6 Ti2_2 3.126070 1_655
Au1_7 Hf0_3 2.847321 1_555
Au1_7 Hf0_5 2.847323 1_565
Au1_7 Hf0_2 2.847328 1_556
Au1_7 Hf0_4 2.847329 1_566
Au1_7 Ti1_7 2.865609 1_555
Au1_7 Ti2_5 3.126068 1_555
Au1_7 Ti2_3 3.126070 1_655
N0_0 Ti0_2 2.080752 1_555
N0_0 Ti0_4 2.080753 1_455
N0_0 Ti1_0 2.162705 1_555
N0_0 Ti1_1 2.162714 1_554
N0_1 Ti0_3 2.080752 1_555
N0_1 Ti0_5 2.080753 1_455
N0_1 Ti1_1 2.162705 1_555
N0_1 Ti1_0 2.162714 1_555
N0_2 Ti0_0 2.080752 1_565
N0_2 Ti0_6 2.080753 1_455
N0_2 Ti1_2 2.162705 1_555
N0_2 Ti1_3 2.162714 1_554
N0_3 Ti0_1 2.080752 1_565
N0_3 Ti0_7 2.080753 1_455
N0_3 Ti1_3 2.162705 1_555
N0_3 Ti1_2 2.162714 1_555
N0_4 Ti0_6 2.080752 1_555
N0_4 Ti0_0 2.080753 1_555
N0_4 Ti1_4 2.162705 1_555
N0_4 Ti1_5 2.162714 1_554
N0_5 Ti0_7 2.080752 1_555
N0_5 Ti0_1 2.080753 1_555
N0_5 Ti1_5 2.162705 1_555
N0_5 Ti1_4 2.162714 1_555
N0_6 Ti0_4 2.080752 1_565
N0_6 Ti0_2 2.080753 1_555
N0_6 Ti1_6 2.162705 1_555
N0_6 Ti1_7 2.162714 1_554
N0_7 Ti0_5 2.080752 1_565
N0_7 Ti0_3 2.080753 1_555
N0_7 Ti1_7 2.162705 1_555
N0_7 Ti1_6 2.162714 1_555
N1_0 Ti1_2 2.071916 1_545
N1_0 Ti1_4 2.071917 1_555
N1_0 Ti2_4 2.088065 1_555
N1_0 Ti2_2 2.088065 1_545
N1_0 Ti0_0 2.161234 1_555
N1_0 Ti0_1 2.161243 1_555
N1_1 Ti1_3 2.071916 1_545
N1_1 Ti1_5 2.071917 1_555
N1_1 Ti2_5 2.088065 1_555
N1_1 Ti2_3 2.088065 1_545
N1_1 Ti0_1 2.161234 1_555
N1_1 Ti0_0 2.161243 1_556
N1_2 Ti1_0 2.071916 1_555
N1_2 Ti1_6 2.071917 1_555
N1_2 Ti2_6 2.088065 1_555
N1_2 Ti2_0 2.088065 1_555
N1_2 Ti0_2 2.161234 1_555
N1_2 Ti0_3 2.161243 1_555
N1_3 Ti1_1 2.071916 1_555
N1_3 Ti1_7 2.071917 1_555
N1_3 Ti2_7 2.088065 1_555
N1_3 Ti2_1 2.088065 1_555
N1_3 Ti0_3 2.161234 1_555
N1_3 Ti0_2 2.161243 1_556
N1_4 Ti1_6 2.071916 1_545
N1_4 Ti1_0 2.071917 1_655
N1_4 Ti2_0 2.088065 1_655
N1_4 Ti2_6 2.088065 1_545
N1_4 Ti0_4 2.161234 1_555
N1_4 Ti0_5 2.161243 1_555
N1_5 Ti1_7 2.071916 1_545
N1_5 Ti1_1 2.071917 1_655
N1_5 Ti2_1 2.088065 1_655
N1_5 Ti2_7 2.088065 1_545
N1_5 Ti0_5 2.161234 1_555
N1_5 Ti0_4 2.161243 1_556
N1_6 Ti1_4 2.071916 1_555
N1_6 Ti1_2 2.071917 1_655
N1_6 Ti2_2 2.088065 1_655
N1_6 Ti2_4 2.088065 1_555
N1_6 Ti0_6 2.161234 1_555
N1_6 Ti0_7 2.161243 1_555
N1_7 Ti1_5 2.071916 1_555
N1_7 Ti1_3 2.071917 1_655
N1_7 Ti2_3 2.088065 1_655
N1_7 Ti2_5 2.088065 1_555
N1_7 Ti0_7 2.161234 1_555
N1_7 Ti0_6 2.161243 1_556
