# generated using pymatgen
data_NaVIrSe4
_symmetry_space_group_name_H-M   'P 1'
_cell_length_a   7.35556862
_cell_length_b   11.77281408
_cell_length_c   15.94965454
_cell_angle_alpha   64.01755619
_cell_angle_beta   90.00000000
_cell_angle_gamma   90.00000000
_symmetry_Int_Tables_number   1
_chemical_formula_structural   NaVIrSe4
_chemical_formula_sum   'Na8 V8 Ir8 Se32'
_cell_volume   1241.57478410
_cell_formula_units_Z   8
loop_
 _symmetry_equiv_pos_site_id
 _symmetry_equiv_pos_as_xyz
  1  'x, y, z'
loop_
 _atom_site_type_symbol
 _atom_site_label
 _atom_site_symmetry_multiplicity
 _atom_site_fract_x
 _atom_site_fract_y
 _atom_site_fract_z
 _atom_site_occupancy
  Na  Na0_0  1  0.25000000  0.29279939  0.25562729  1
  Na  Na0_1  1  0.25000000  0.29279939  0.75562729  1
  Na  Na0_2  1  0.25000000  0.79279939  0.25562729  1
  Na  Na0_3  1  0.25000000  0.79279939  0.75562729  1
  Na  Na0_4  1  0.75000000  0.29279939  0.25562729  1
  Na  Na0_5  1  0.75000000  0.29279939  0.75562729  1
  Na  Na0_6  1  0.75000000  0.79279939  0.25562729  1
  Na  Na0_7  1  0.75000000  0.79279939  0.75562729  1
  V  V0_0  1  0.25000000  0.28241009  0.00286074  1
  V  V0_1  1  0.25000000  0.28241009  0.50286074  1
  V  V0_2  1  0.25000000  0.78241009  0.00286074  1
  V  V0_3  1  0.25000000  0.78241009  0.50286074  1
  V  V0_4  1  0.75000000  0.28241009  0.00286074  1
  V  V0_5  1  0.75000000  0.28241009  0.50286074  1
  V  V0_6  1  0.75000000  0.78241009  0.00286074  1
  V  V0_7  1  0.75000000  0.78241009  0.50286074  1
  Ir  Ir0_0  1  0.00000000  0.48935609  0.49678927  1
  Ir  Ir0_1  1  0.00000000  0.48935609  0.99678927  1
  Ir  Ir0_2  1  0.00000000  0.98935609  0.49678927  1
  Ir  Ir0_3  1  0.00000000  0.98935609  0.99678927  1
  Ir  Ir0_4  1  0.50000000  0.48935609  0.49678927  1
  Ir  Ir0_5  1  0.50000000  0.48935609  0.99678927  1
  Ir  Ir0_6  1  0.50000000  0.98935609  0.49678927  1
  Ir  Ir0_7  1  0.50000000  0.98935609  0.99678927  1
  Se  Se0_0  1  0.00000000  0.26412108  0.11505594  1
  Se  Se0_1  1  0.00000000  0.26412108  0.61505594  1
  Se  Se0_2  1  0.00000000  0.76412108  0.11505594  1
  Se  Se0_3  1  0.00000000  0.76412108  0.61505594  1
  Se  Se0_4  1  0.50000000  0.26412108  0.11505594  1
  Se  Se0_5  1  0.50000000  0.26412108  0.61505594  1
  Se  Se0_6  1  0.50000000  0.76412108  0.11505594  1
  Se  Se0_7  1  0.50000000  0.76412108  0.61505594  1
  Se  Se1_0  1  0.25000000  0.03283138  0.08514239  1
  Se  Se1_1  1  0.25000000  0.03283138  0.58514239  1
  Se  Se1_2  1  0.25000000  0.53283138  0.08514239  1
  Se  Se1_3  1  0.25000000  0.53283138  0.58514239  1
  Se  Se1_4  1  0.75000000  0.03283138  0.08514239  1
  Se  Se1_5  1  0.75000000  0.03283138  0.58514239  1
  Se  Se1_6  1  0.75000000  0.53283138  0.08514239  1
  Se  Se1_7  1  0.75000000  0.53283138  0.58514239  1
  Se  Se2_0  1  0.00000000  0.22789821  0.41123083  1
  Se  Se2_1  1  0.00000000  0.22789821  0.91123083  1
  Se  Se2_2  1  0.00000000  0.72789821  0.41123083  1
  Se  Se2_3  1  0.00000000  0.72789821  0.91123083  1
  Se  Se2_4  1  0.50000000  0.22789821  0.41123083  1
  Se  Se2_5  1  0.50000000  0.22789821  0.91123083  1
  Se  Se2_6  1  0.50000000  0.72789821  0.41123083  1
  Se  Se2_7  1  0.50000000  0.72789821  0.91123083  1
  Se  Se3_0  1  0.25000000  0.49313375  0.38564304  1
  Se  Se3_1  1  0.25000000  0.49313375  0.88564304  1
  Se  Se3_2  1  0.25000000  0.99313375  0.38564304  1
  Se  Se3_3  1  0.25000000  0.99313375  0.88564304  1
  Se  Se3_4  1  0.75000000  0.49313375  0.38564304  1
  Se  Se3_5  1  0.75000000  0.49313375  0.88564304  1
  Se  Se3_6  1  0.75000000  0.99313375  0.38564304  1
  Se  Se3_7  1  0.75000000  0.99313375  0.88564304  1
loop_
_geom_bond_atom_site_label_1
_geom_bond_atom_site_label_2
_geom_bond_distance
_geom_bond_site_symmetry_2
Na0_0 Se2_4 2.909169 1_555
Na0_0 Se2_0 2.909169 1_555
Na0_0 Se1_2 2.940529 1_555
Na0_0 Se0_0 3.030779 1_555
Na0_0 Se0_4 3.030779 1_555
Na0_0 Se3_2 3.215013 1_545
Na0_0 Na0_4 3.677784 1_555
Na0_0 Na0_4 3.677784 1_455
Na0_0 Se3_0 3.761394 1_555
Na0_1 Se2_1 2.909169 1_555
Na0_1 Se2_5 2.909169 1_555
Na0_1 Se1_3 2.940529 1_555
Na0_1 Se0_1 3.030779 1_555
Na0_1 Se0_5 3.030779 1_555
Na0_1 Se3_3 3.215013 1_545
Na0_1 Na0_5 3.677784 1_555
Na0_1 Na0_5 3.677784 1_455
Na0_1 Se3_1 3.761394 1_555
Na0_2 Se2_2 2.909169 1_555
Na0_2 Se2_6 2.909169 1_555
Na0_2 Se1_0 2.940529 1_565
Na0_2 Se0_2 3.030779 1_555
Na0_2 Se0_6 3.030779 1_555
Na0_2 Se3_0 3.215013 1_555
Na0_2 Na0_6 3.677784 1_455
Na0_2 Na0_6 3.677784 1_555
Na0_2 Se3_2 3.761394 1_555
Na0_3 Se2_3 2.909169 1_555
Na0_3 Se2_7 2.909169 1_555
Na0_3 Se1_1 2.940529 1_565
Na0_3 Se0_3 3.030779 1_555
Na0_3 Se0_7 3.030779 1_555
Na0_3 Se3_1 3.215013 1_555
Na0_3 Na0_7 3.677784 1_555
Na0_3 Na0_7 3.677784 1_455
Na0_3 Se3_3 3.761394 1_555
Na0_4 Se2_4 2.909169 1_555
Na0_4 Se2_0 2.909169 1_655
Na0_4 Se1_6 2.940529 1_555
Na0_4 Se0_0 3.030779 1_655
Na0_4 Se0_4 3.030779 1_555
Na0_4 Se3_6 3.215013 1_545
Na0_4 Se3_4 3.761394 1_555
Na0_5 Se2_1 2.909169 1_655
Na0_5 Se2_5 2.909169 1_555
Na0_5 Se1_7 2.940529 1_555
Na0_5 Se0_5 3.030779 1_555
Na0_5 Se0_1 3.030779 1_655
Na0_5 Se3_7 3.215013 1_545
Na0_5 Se3_5 3.761394 1_555
Na0_6 Se2_2 2.909169 1_655
Na0_6 Se2_6 2.909169 1_555
Na0_6 Se1_4 2.940529 1_565
Na0_6 Se0_2 3.030779 1_655
Na0_6 Se0_6 3.030779 1_555
Na0_6 Se3_4 3.215013 1_555
Na0_6 Se3_6 3.761394 1_555
Na0_7 Se2_3 2.909169 1_655
Na0_7 Se2_7 2.909169 1_555
Na0_7 Se1_5 2.940529 1_565
Na0_7 Se0_3 3.030779 1_655
Na0_7 Se0_7 3.030779 1_555
Na0_7 Se3_5 3.215013 1_555
Na0_7 Se3_7 3.761394 1_555
Ir0_0 Se0_1 2.491356 1_555
Ir0_0 Se1_7 2.502261 1_455
Ir0_0 Se1_3 2.502261 1_555
Ir0_0 Se2_2 2.528042 1_555
Ir0_0 Se3_0 2.541071 1_555
Ir0_0 Se3_4 2.541071 1_455
Ir0_0 V0_5 3.019920 1_455
Ir0_0 V0_1 3.019920 1_555
Ir0_1 Se0_0 2.491356 1_556
Ir0_1 Se1_6 2.502261 1_456
Ir0_1 Se1_2 2.502261 1_556
Ir0_1 Se2_3 2.528042 1_555
Ir0_1 Se3_1 2.541071 1_555
Ir0_1 Se3_5 2.541071 1_455
Ir0_1 V0_0 3.019920 1_556
Ir0_1 V0_4 3.019920 1_456
Ir0_2 Se0_3 2.491356 1_555
Ir0_2 Se1_1 2.502261 1_565
Ir0_2 Se1_5 2.502261 1_465
Ir0_2 Se2_0 2.528042 1_565
Ir0_2 Se3_6 2.541071 1_455
Ir0_2 Se3_2 2.541071 1_555
Ir0_2 V0_7 3.019920 1_455
Ir0_2 V0_3 3.019920 1_555
Ir0_3 Se0_2 2.491356 1_556
Ir0_3 Se1_0 2.502261 1_566
Ir0_3 Se1_4 2.502261 1_466
Ir0_3 Se2_1 2.528042 1_565
Ir0_3 Se3_3 2.541071 1_555
Ir0_3 Se3_7 2.541071 1_455
Ir0_3 V0_6 3.019920 1_456
Ir0_3 V0_2 3.019920 1_556
Ir0_4 Se0_5 2.491356 1_555
Ir0_4 Se1_7 2.502261 1_555
Ir0_4 Se1_3 2.502261 1_555
Ir0_4 Se2_6 2.528042 1_555
Ir0_4 Se3_0 2.541071 1_555
Ir0_4 Se3_4 2.541071 1_555
Ir0_4 V0_5 3.019920 1_555
Ir0_4 V0_1 3.019920 1_555
Ir0_5 Se0_4 2.491356 1_556
Ir0_5 Se1_6 2.502261 1_556
Ir0_5 Se1_2 2.502261 1_556
Ir0_5 Se2_7 2.528042 1_555
Ir0_5 Se3_1 2.541071 1_555
Ir0_5 Se3_5 2.541071 1_555
Ir0_5 V0_0 3.019920 1_556
Ir0_5 V0_4 3.019920 1_556
Ir0_6 Se0_7 2.491356 1_555
Ir0_6 Se1_1 2.502261 1_565
Ir0_6 Se1_5 2.502261 1_565
Ir0_6 Se2_4 2.528042 1_565
Ir0_6 Se3_2 2.541071 1_555
Ir0_6 Se3_6 2.541071 1_555
Ir0_6 V0_7 3.019920 1_555
Ir0_6 V0_3 3.019920 1_555
Ir0_7 Se0_6 2.491356 1_556
Ir0_7 Se1_0 2.502261 1_566
Ir0_7 Se1_4 2.502261 1_566
Ir0_7 Se2_5 2.528042 1_565
Ir0_7 Se3_3 2.541071 1_555
Ir0_7 Se3_7 2.541071 1_555
Ir0_7 V0_6 3.019920 1_556
Ir0_7 V0_2 3.019920 1_556
Se0_0 V0_4 2.508487 1_455
Se0_0 V0_0 2.508487 1_555
Se0_0 Se1_0 3.487378 1_555
Se0_0 Se1_4 3.487378 1_455
Se0_1 V0_1 2.508487 1_555
Se0_1 V0_5 2.508487 1_455
Se0_1 Se1_1 3.487378 1_555
Se0_1 Se1_5 3.487378 1_455
Se0_2 V0_2 2.508487 1_555
Se0_2 V0_6 2.508487 1_455
Se0_2 Se1_2 3.487378 1_555
Se0_2 Se1_6 3.487378 1_455
Se0_3 V0_7 2.508487 1_455
Se0_3 V0_3 2.508487 1_555
Se0_3 Se1_3 3.487378 1_555
Se0_3 Se1_7 3.487378 1_455
Se0_4 V0_4 2.508487 1_555
Se0_4 V0_0 2.508487 1_555
Se0_4 Se1_0 3.487378 1_555
Se0_4 Se1_4 3.487378 1_555
Se0_5 V0_5 2.508487 1_555
Se0_5 V0_1 2.508487 1_555
Se0_5 Se1_1 3.487378 1_555
Se0_5 Se1_5 3.487378 1_555
Se0_6 V0_2 2.508487 1_555
Se0_6 V0_6 2.508487 1_555
Se0_6 Se1_2 3.487378 1_555
Se0_6 Se1_6 3.487378 1_555
Se0_7 V0_7 2.508487 1_555
Se0_7 V0_3 2.508487 1_555
Se0_7 Se1_3 3.487378 1_555
Se0_7 Se1_7 3.487378 1_555
Se1_0 V0_0 2.641390 1_555
Se1_1 V0_1 2.641390 1_555
Se1_2 V0_2 2.641390 1_555
Se1_3 V0_3 2.641390 1_555
Se1_4 V0_4 2.641390 1_555
Se1_5 V0_5 2.641390 1_555
Se1_6 V0_6 2.641390 1_555
Se1_7 V0_7 2.641390 1_555
Se2_0 V0_5 2.598277 1_455
Se2_0 V0_1 2.598277 1_555
Se2_0 Se3_0 3.490261 1_555
Se2_0 Se3_4 3.490261 1_455
Se2_1 V0_0 2.598277 1_556
Se2_1 V0_4 2.598277 1_456
Se2_1 Se3_1 3.490261 1_555
Se2_1 Se3_5 3.490261 1_455
Se2_2 V0_3 2.598277 1_555
Se2_2 V0_7 2.598277 1_455
Se2_2 Se3_2 3.490261 1_555
Se2_2 Se3_6 3.490261 1_455
Se2_3 V0_6 2.598277 1_456
Se2_3 V0_2 2.598277 1_556
Se2_3 Se3_3 3.490261 1_555
Se2_3 Se3_7 3.490261 1_455
Se2_4 V0_5 2.598277 1_555
Se2_4 V0_1 2.598277 1_555
Se2_4 Se3_0 3.490261 1_555
Se2_4 Se3_4 3.490261 1_555
Se2_5 V0_4 2.598277 1_556
Se2_5 V0_0 2.598277 1_556
Se2_5 Se3_1 3.490261 1_555
Se2_5 Se3_5 3.490261 1_555
Se2_6 V0_3 2.598277 1_555
Se2_6 V0_7 2.598277 1_555
Se2_6 Se3_2 3.490261 1_555
Se2_6 Se3_6 3.490261 1_555
Se2_7 V0_6 2.598277 1_556
Se2_7 V0_2 2.598277 1_556
Se2_7 Se3_3 3.490261 1_555
Se2_7 Se3_7 3.490261 1_555
Se3_0 V0_1 2.363453 1_555
Se3_1 V0_0 2.363453 1_556
Se3_2 V0_3 2.363453 1_555
Se3_3 V0_2 2.363453 1_556
Se3_4 V0_5 2.363453 1_555
Se3_5 V0_4 2.363453 1_556
Se3_6 V0_7 2.363453 1_555
Se3_7 V0_6 2.363453 1_556
