# generated using pymatgen
data_Hg2AsO4F
_symmetry_space_group_name_H-M   'P 1'
_cell_length_a   8.19310142
_cell_length_b   8.19310098
_cell_length_c   11.74016672
_cell_angle_alpha   59.72911091
_cell_angle_beta   59.72911071
_cell_angle_gamma   49.00060387
_symmetry_Int_Tables_number   1
_chemical_formula_structural   Hg2AsO4F
_chemical_formula_sum   'Hg8 As4 O16 F4'
_cell_volume   495.17479836
_cell_formula_units_Z   4
loop_
 _symmetry_equiv_pos_site_id
 _symmetry_equiv_pos_as_xyz
  1  'x, y, z'
loop_
 _atom_site_type_symbol
 _atom_site_label
 _atom_site_symmetry_multiplicity
 _atom_site_fract_x
 _atom_site_fract_y
 _atom_site_fract_z
 _atom_site_occupancy
  Hg  Hg0  1  0.79929100  0.30610517  0.01347012  1
  Hg  Hg1  1  0.69389483  0.20070900  0.48652988  1
  Hg  Hg2  1  0.20070900  0.69389483  0.98652988  1
  Hg  Hg3  1  0.30610517  0.79929100  0.51347012  1
  Hg  Hg4  1  0.96100043  0.73521881  0.34138977  1
  Hg  Hg5  1  0.26478119  0.03899957  0.15861023  1
  Hg  Hg6  1  0.03899957  0.26478119  0.65861023  1
  Hg  Hg7  1  0.73521881  0.96100043  0.84138977  1
  As  As0  1  0.78415173  0.57094898  0.19421785  1
  As  As1  1  0.42905102  0.21584827  0.30578215  1
  As  As2  1  0.21584827  0.42905102  0.80578215  1
  As  As3  1  0.57094898  0.78415173  0.69421785  1
  O  O0  1  0.22618726  0.39484471  0.40726185  1
  O  O1  1  0.60515529  0.77381274  0.09273815  1
  O  O2  1  0.77381274  0.60515529  0.59273815  1
  O  O3  1  0.39484471  0.22618726  0.90726185  1
  O  O4  1  0.04329555  0.36546731  0.82252410  1
  O  O5  1  0.63453269  0.95670445  0.67747590  1
  O  O6  1  0.95670445  0.63453269  0.17747590  1
  O  O7  1  0.36546731  0.04329555  0.32252410  1
  O  O8  1  0.36092694  0.47051513  0.63842691  1
  O  O9  1  0.52948487  0.63907306  0.86157309  1
  O  O10  1  0.63907306  0.52948487  0.36157309  1
  O  O11  1  0.47051513  0.36092694  0.13842691  1
  O  O12  1  0.06681674  0.66354119  0.85776547  1
  O  O13  1  0.33645881  0.93318326  0.64223453  1
  O  O14  1  0.93318326  0.33645881  0.14223453  1
  O  O15  1  0.66354119  0.06681674  0.35776547  1
  F  F0  1  0.92744598  0.09641077  0.60890666  1
  F  F1  1  0.90358923  0.07255402  0.89109334  1
  F  F2  1  0.07255402  0.90358923  0.39109334  1
  F  F3  1  0.09641077  0.92744598  0.10890666  1
loop_
_geom_bond_atom_site_label_1
_geom_bond_atom_site_label_2
_geom_bond_distance
_geom_bond_site_symmetry_2
Hg0 O11 2.168562 1_555
Hg0 O4 2.217405 1_654
Hg0 O14 2.441190 1_555
Hg0 O9 2.581841 1_554
Hg1 O10 2.168562 1_555
Hg1 O5 2.217405 1_545
Hg1 O15 2.441190 1_555
Hg1 O8 2.581841 1_555
Hg2 O9 2.168562 1_555
Hg2 O6 2.217405 1_456
Hg2 O12 2.441190 1_555
Hg2 O11 2.581841 1_556
Hg3 O8 2.168562 1_555
Hg3 O7 2.217405 1_565
Hg3 O13 2.441190 1_555
Hg3 O10 2.581841 1_555
Hg4 O0 2.159923 1_655
Hg4 O15 2.173501 1_565
Hg4 O6 2.468161 1_555
Hg4 O2 2.570368 1_555
Hg5 O1 2.159923 1_545
Hg5 O14 2.173502 1_455
Hg5 O7 2.468161 1_555
Hg5 O3 2.570368 1_554
Hg6 O2 2.159923 1_455
Hg6 O13 2.173501 1_545
Hg6 O4 2.468161 1_555
Hg6 O0 2.570368 1_555
Hg7 O3 2.159923 1_565
Hg7 O12 2.173502 1_655
Hg7 O5 2.468161 1_555
Hg7 O1 2.570368 1_556
As0 O10 1.700300 1_555
As0 O6 1.700485 1_555
As0 O1 1.702798 1_555
As0 O14 1.705052 1_555
As1 O11 1.700300 1_555
As1 O7 1.700485 1_555
As1 O0 1.702798 1_555
As1 O15 1.705052 1_555
As2 O8 1.700300 1_555
As2 O4 1.700485 1_555
As2 O3 1.702798 1_555
As2 O12 1.705052 1_555
As3 O9 1.700300 1_555
As3 O5 1.700485 1_555
As3 O2 1.702798 1_555
As3 O13 1.705052 1_555
F0 Hg1 2.417506 1_555
F0 Hg7 2.463097 1_545
F0 Hg6 2.466238 1_655
F0 Hg3 2.478352 1_645
F0 O13 2.843496 1_645
F0 O5 2.906058 1_545
F0 F2 2.998625 1_645
F0 O12 3.165626 1_645
F1 Hg0 2.417506 1_556
F1 Hg6 2.463097 1_655
F1 Hg7 2.466238 1_545
F1 Hg2 2.478352 1_645
F1 O12 2.843496 1_645
F1 O4 2.906058 1_655
F1 F3 2.998625 1_646
F1 O13 3.165626 1_645
F2 Hg3 2.417506 1_555
F2 Hg5 2.463097 1_565
F2 Hg4 2.466238 1_455
F2 Hg1 2.478352 1_465
F2 O15 2.843496 1_465
F2 O7 2.906058 1_565
F2 O14 3.165626 1_465
F3 Hg2 2.417506 1_554
F3 Hg4 2.463097 1_455
F3 Hg5 2.466238 1_565
F3 Hg0 2.478352 1_465
F3 O14 2.843496 1_465
F3 O6 2.906058 1_455
F3 O15 3.165626 1_465
