# generated using pymatgen
data_La2Ni5B4
_symmetry_space_group_name_H-M   'P 1'
_cell_length_a   5.12091638
_cell_length_b   5.50718588
_cell_length_c   6.20242949
_cell_angle_alpha   70.50709366
_cell_angle_beta   65.61818429
_cell_angle_gamma   62.29427653
_symmetry_Int_Tables_number   1
_chemical_formula_structural   La2Ni5B4
_chemical_formula_sum   'La2 Ni5 B4'
_cell_volume   138.85651280
_cell_formula_units_Z   1
loop_
 _symmetry_equiv_pos_site_id
 _symmetry_equiv_pos_as_xyz
  1  'x, y, z'
loop_
 _atom_site_type_symbol
 _atom_site_label
 _atom_site_symmetry_multiplicity
 _atom_site_fract_x
 _atom_site_fract_y
 _atom_site_fract_z
 _atom_site_occupancy
  La  La0  1  0.72509998  0.19670612  0.35309291  1
  La  La1  1  0.27490002  0.80329388  0.64690709  1
  Ni  Ni0  1  0.32971066  0.71948941  0.12560100  1
  Ni  Ni1  1  0.67028934  0.28051059  0.87439900  1
  Ni  Ni2  1  -0.00000000  0.50000000  0.50000000  1
  Ni  Ni3  1  0.82519994  0.71948941  0.12560100  1
  Ni  Ni4  1  0.17480006  0.28051059  0.87439900  1
  B  B0  1  0.59712507  0.94112707  0.86462080  1
  B  B1  1  0.40287493  0.05887293  0.13537920  1
  B  B2  1  0.22140773  0.39793343  0.15925012  1
  B  B3  1  0.77859127  0.60206657  0.84074988  1
loop_
_geom_bond_atom_site_label_1
_geom_bond_atom_site_label_2
_geom_bond_distance
_geom_bond_site_symmetry_2
La0 Ni0 2.933713 1_555
La0 Ni3 2.933718 1_555
La0 Ni4 2.959766 1_654
La0 Ni1 2.959766 1_554
La0 Ni3 3.128208 1_545
La0 Ni0 3.128212 1_645
La0 Ni2 3.140544 1_555
La0 Ni2 3.140549 1_655
La0 Ni4 3.297363 1_555
La0 Ni1 3.297363 1_555
La0 Ni2 3.352167 1_645
La0 La1 3.445430 1_545
La0 La1 3.445438 1_645
La0 La1 3.637080 1_555
La1 Ni1 2.933713 1_555
La1 Ni4 2.933718 1_555
La1 Ni3 2.959766 1_456
La1 Ni0 2.959766 1_556
La1 Ni4 3.128208 1_565
La1 Ni1 3.128212 1_465
La1 Ni2 3.140544 1_655
La1 Ni2 3.140549 1_555
La1 Ni3 3.297363 1_555
La1 Ni0 3.297363 1_555
La1 Ni2 3.352167 1_565
Ni0 Ni3 2.537359 1_555
Ni0 Ni2 2.547883 1_555
Ni0 Ni3 2.583557 1_455
Ni1 Ni4 2.537359 1_555
Ni1 Ni2 2.547883 1_655
Ni1 Ni4 2.583557 1_655
Ni2 Ni4 2.547881 1_555
Ni2 Ni3 2.547881 1_455
B0 B3 1.682135 1_555
B0 B1 1.725680 1_566
B0 Ni4 2.093550 1_565
B0 Ni1 2.093553 1_565
B0 Ni0 2.095438 1_556
B0 Ni3 2.095448 1_556
B0 La0 2.938957 1_565
B0 La1 2.968311 1_555
B0 La1 2.968324 1_655
B1 B2 1.682135 1_555
B1 Ni3 2.093550 1_545
B1 Ni0 2.093553 1_545
B1 Ni1 2.095438 1_554
B1 Ni4 2.095448 1_554
B1 La1 2.938957 1_545
B1 La0 2.968311 1_555
B1 La0 2.968324 1_455
B2 Ni3 2.014480 1_455
B2 Ni0 2.014487 1_555
B2 Ni2 2.071243 1_555
B2 Ni1 2.202449 1_554
B2 Ni4 2.202449 1_554
B2 La0 2.887906 1_555
B2 La0 2.887906 1_455
B3 Ni4 2.014483 1_655
B3 Ni1 2.014483 1_555
B3 Ni2 2.071243 1_655
B3 Ni0 2.202446 1_556
B3 Ni3 2.202452 1_556
B3 La1 2.887901 1_555
B3 La1 2.887910 1_655
