# generated using pymatgen
data_KSnRhSe4
_symmetry_space_group_name_H-M   'P 1'
_cell_length_a   7.69084985
_cell_length_b   16.15870347
_cell_length_c   13.12675981
_cell_angle_alpha   74.08857736
_cell_angle_beta   90.00000000
_cell_angle_gamma   90.00000000
_symmetry_Int_Tables_number   1
_chemical_formula_structural   KSnRhSe4
_chemical_formula_sum   'K8 Sn8 Rh8 Se32'
_cell_volume   1568.81589377
_cell_formula_units_Z   8
loop_
 _symmetry_equiv_pos_site_id
 _symmetry_equiv_pos_as_xyz
  1  'x, y, z'
loop_
 _atom_site_type_symbol
 _atom_site_label
 _atom_site_symmetry_multiplicity
 _atom_site_fract_x
 _atom_site_fract_y
 _atom_site_fract_z
 _atom_site_occupancy
  K  K0_0  1  0.25000000  0.24706163  0.32593132  1
  K  K0_1  1  0.25000000  0.24706163  0.82593132  1
  K  K0_2  1  0.25000000  0.74706163  0.32593132  1
  K  K0_3  1  0.25000000  0.74706163  0.82593132  1
  K  K0_4  1  0.75000000  0.24706163  0.32593132  1
  K  K0_5  1  0.75000000  0.24706163  0.82593132  1
  K  K0_6  1  0.75000000  0.74706163  0.32593132  1
  K  K0_7  1  0.75000000  0.74706163  0.82593132  1
  Sn  Sn0_0  1  0.00000000  0.49989721  0.00128821  1
  Sn  Sn0_1  1  0.00000000  0.49989721  0.50128821  1
  Sn  Sn0_2  1  0.00000000  0.99989721  0.00128821  1
  Sn  Sn0_3  1  0.00000000  0.99989721  0.50128821  1
  Sn  Sn0_4  1  0.50000000  0.49989721  0.00128821  1
  Sn  Sn0_5  1  0.50000000  0.49989721  0.50128821  1
  Sn  Sn0_6  1  0.50000000  0.99989721  0.00128821  1
  Sn  Sn0_7  1  0.50000000  0.99989721  0.50128821  1
  Rh  Rh0_0  1  0.25000000  0.00076324  0.25172918  1
  Rh  Rh0_1  1  0.25000000  0.00076324  0.75172918  1
  Rh  Rh0_2  1  0.25000000  0.50076324  0.25172918  1
  Rh  Rh0_3  1  0.25000000  0.50076324  0.75172918  1
  Rh  Rh0_4  1  0.75000000  0.00076324  0.25172918  1
  Rh  Rh0_5  1  0.75000000  0.00076324  0.75172918  1
  Rh  Rh0_6  1  0.75000000  0.50076324  0.25172918  1
  Rh  Rh0_7  1  0.75000000  0.50076324  0.75172918  1
  Se  Se0_0  1  0.00000000  0.41484580  0.20744152  1
  Se  Se0_1  1  0.00000000  0.41484580  0.70744152  1
  Se  Se0_2  1  0.00000000  0.91484580  0.20744152  1
  Se  Se0_3  1  0.00000000  0.91484580  0.70744152  1
  Se  Se0_4  1  0.50000000  0.41484580  0.20744152  1
  Se  Se0_5  1  0.50000000  0.41484580  0.70744152  1
  Se  Se0_6  1  0.50000000  0.91484580  0.20744152  1
  Se  Se0_7  1  0.50000000  0.91484580  0.70744152  1
  Se  Se1_0  1  0.25000000  0.40564168  0.43878484  1
  Se  Se1_1  1  0.25000000  0.40564168  0.93878484  1
  Se  Se1_2  1  0.25000000  0.90564168  0.43878484  1
  Se  Se1_3  1  0.25000000  0.90564168  0.93878484  1
  Se  Se1_4  1  0.75000000  0.40564168  0.43878484  1
  Se  Se1_5  1  0.75000000  0.40564168  0.93878484  1
  Se  Se1_6  1  0.75000000  0.90564168  0.43878484  1
  Se  Se1_7  1  0.75000000  0.90564168  0.93878484  1
  Se  Se2_0  1  0.00000000  0.08654054  0.29558049  1
  Se  Se2_1  1  0.00000000  0.08654054  0.79558049  1
  Se  Se2_2  1  0.00000000  0.58654054  0.29558049  1
  Se  Se2_3  1  0.00000000  0.58654054  0.79558049  1
  Se  Se2_4  1  0.50000000  0.08654054  0.29558049  1
  Se  Se2_5  1  0.50000000  0.08654054  0.79558049  1
  Se  Se2_6  1  0.50000000  0.58654054  0.29558049  1
  Se  Se2_7  1  0.50000000  0.58654054  0.79558049  1
  Se  Se3_0  1  0.25000000  0.09480991  0.06272444  1
  Se  Se3_1  1  0.25000000  0.09480991  0.56272444  1
  Se  Se3_2  1  0.25000000  0.59480991  0.06272444  1
  Se  Se3_3  1  0.25000000  0.59480991  0.56272444  1
  Se  Se3_4  1  0.75000000  0.09480991  0.06272444  1
  Se  Se3_5  1  0.75000000  0.09480991  0.56272444  1
  Se  Se3_6  1  0.75000000  0.59480991  0.06272444  1
  Se  Se3_7  1  0.75000000  0.59480991  0.56272444  1
loop_
_geom_bond_atom_site_label_1
_geom_bond_atom_site_label_2
_geom_bond_distance
_geom_bond_site_symmetry_2
K0_0 Se1_0 3.292727 1_555
K0_0 Se2_0 3.339166 1_555
K0_0 Se2_4 3.339166 1_555
K0_0 Se0_0 3.339816 1_555
K0_0 Se0_4 3.339816 1_555
K0_0 Se3_1 3.394307 1_555
K0_0 K0_4 3.845425 1_455
K0_0 K0_4 3.845425 1_555
K0_1 Se1_1 3.292727 1_555
K0_1 Se2_1 3.339166 1_555
K0_1 Se2_5 3.339166 1_555
K0_1 Se0_5 3.339816 1_555
K0_1 Se0_1 3.339816 1_555
K0_1 Se3_0 3.394307 1_556
K0_1 K0_5 3.845425 1_455
K0_1 K0_5 3.845425 1_555
K0_2 Se1_2 3.292727 1_555
K0_2 Se2_2 3.339166 1_555
K0_2 Se2_6 3.339166 1_555
K0_2 Se0_2 3.339816 1_555
K0_2 Se0_6 3.339816 1_555
K0_2 Se3_3 3.394307 1_555
K0_2 K0_6 3.845425 1_455
K0_2 K0_6 3.845425 1_555
K0_3 Se1_3 3.292727 1_555
K0_3 Se2_3 3.339166 1_555
K0_3 Se2_7 3.339166 1_555
K0_3 Se0_7 3.339816 1_555
K0_3 Se0_3 3.339816 1_555
K0_3 Se3_2 3.394307 1_556
K0_3 K0_7 3.845425 1_455
K0_3 K0_7 3.845425 1_555
K0_4 Se1_4 3.292727 1_555
K0_4 Se2_0 3.339166 1_655
K0_4 Se2_4 3.339166 1_555
K0_4 Se0_0 3.339816 1_655
K0_4 Se0_4 3.339816 1_555
K0_4 Se3_5 3.394307 1_555
K0_5 Se1_5 3.292727 1_555
K0_5 Se2_1 3.339166 1_655
K0_5 Se2_5 3.339166 1_555
K0_5 Se0_1 3.339816 1_655
K0_5 Se0_5 3.339816 1_555
K0_5 Se3_4 3.394307 1_556
K0_6 Se1_6 3.292727 1_555
K0_6 Se2_2 3.339166 1_655
K0_6 Se2_6 3.339166 1_555
K0_6 Se0_2 3.339816 1_655
K0_6 Se0_6 3.339816 1_555
K0_6 Se3_7 3.394307 1_555
K0_7 Se1_7 3.292727 1_555
K0_7 Se2_3 3.339166 1_655
K0_7 Se2_7 3.339166 1_555
K0_7 Se0_3 3.339816 1_655
K0_7 Se0_7 3.339816 1_555
K0_7 Se3_6 3.394307 1_556
Rh0_0 Se1_2 2.514420 1_545
Rh0_0 Se2_0 2.527205 1_555
Rh0_0 Se2_4 2.527205 1_555
Rh0_0 Se3_0 2.529344 1_555
Rh0_0 Se0_2 2.530760 1_545
Rh0_0 Se0_6 2.530760 1_545
Rh0_1 Se1_3 2.514420 1_545
Rh0_1 Se2_1 2.527205 1_555
Rh0_1 Se2_5 2.527205 1_555
Rh0_1 Se3_1 2.529344 1_555
Rh0_1 Se0_7 2.530760 1_545
Rh0_1 Se0_3 2.530760 1_545
Rh0_2 Se1_0 2.514420 1_555
Rh0_2 Se2_2 2.527205 1_555
Rh0_2 Se2_6 2.527205 1_555
Rh0_2 Se3_2 2.529344 1_555
Rh0_2 Se0_4 2.530760 1_555
Rh0_2 Se0_0 2.530760 1_555
Rh0_3 Se1_1 2.514420 1_555
Rh0_3 Se2_3 2.527205 1_555
Rh0_3 Se2_7 2.527205 1_555
Rh0_3 Se3_3 2.529344 1_555
Rh0_3 Se0_1 2.530760 1_555
Rh0_3 Se0_5 2.530760 1_555
Rh0_4 Se1_6 2.514420 1_545
Rh0_4 Se2_0 2.527205 1_655
Rh0_4 Se2_4 2.527205 1_555
Rh0_4 Se3_4 2.529344 1_555
Rh0_4 Se0_2 2.530760 1_645
Rh0_4 Se0_6 2.530760 1_545
Rh0_5 Se1_7 2.514420 1_545
Rh0_5 Se2_1 2.527205 1_655
Rh0_5 Se2_5 2.527205 1_555
Rh0_5 Se3_5 2.529344 1_555
Rh0_5 Se0_3 2.530760 1_645
Rh0_5 Se0_7 2.530760 1_545
Rh0_6 Se1_4 2.514420 1_555
Rh0_6 Se2_2 2.527205 1_655
Rh0_6 Se2_6 2.527205 1_555
Rh0_6 Se3_6 2.529344 1_555
Rh0_6 Se0_0 2.530760 1_655
Rh0_6 Se0_4 2.530760 1_555
Rh0_7 Se1_5 2.514420 1_555
Rh0_7 Se2_3 2.527205 1_655
Rh0_7 Se2_7 2.527205 1_555
Rh0_7 Se3_7 2.529344 1_555
Rh0_7 Se0_1 2.530760 1_655
Rh0_7 Se0_5 2.530760 1_555
Se0_0 Sn0_0 2.678188 1_555
Se0_1 Sn0_1 2.678188 1_555
Se0_2 Sn0_2 2.678188 1_555
Se0_3 Sn0_3 2.678188 1_555
Se0_4 Sn0_4 2.678188 1_555
Se0_5 Sn0_5 2.678188 1_555
Se0_6 Sn0_6 2.678188 1_555
Se0_7 Sn0_7 2.678188 1_555
Se1_0 Sn0_5 2.715663 1_555
Se1_0 Sn0_1 2.715663 1_555
Se1_1 Sn0_4 2.715663 1_556
Se1_1 Sn0_0 2.715663 1_556
Se1_2 Sn0_3 2.715663 1_555
Se1_2 Sn0_7 2.715663 1_555
Se1_3 Sn0_2 2.715663 1_556
Se1_3 Sn0_6 2.715663 1_556
Se1_4 Sn0_1 2.715663 1_655
Se1_4 Sn0_5 2.715663 1_555
Se1_5 Sn0_0 2.715663 1_656
Se1_5 Sn0_4 2.715663 1_556
Se1_6 Sn0_3 2.715663 1_655
Se1_6 Sn0_7 2.715663 1_555
Se1_7 Sn0_2 2.715663 1_656
Se1_7 Sn0_6 2.715663 1_556
Se2_0 Sn0_3 2.679320 1_545
Se2_1 Sn0_2 2.679320 1_546
Se2_2 Sn0_1 2.679320 1_555
Se2_3 Sn0_0 2.679320 1_556
Se2_4 Sn0_7 2.679320 1_545
Se2_5 Sn0_6 2.679320 1_546
Se2_6 Sn0_5 2.679320 1_555
Se2_7 Sn0_4 2.679320 1_556
Se3_0 Sn0_2 2.716154 1_545
Se3_0 Sn0_6 2.716154 1_545
Se3_1 Sn0_3 2.716154 1_545
Se3_1 Sn0_7 2.716154 1_545
Se3_2 Sn0_4 2.716154 1_555
Se3_2 Sn0_0 2.716154 1_555
Se3_3 Sn0_1 2.716154 1_555
Se3_3 Sn0_5 2.716154 1_555
Se3_4 Sn0_2 2.716154 1_645
Se3_4 Sn0_6 2.716154 1_545
Se3_5 Sn0_3 2.716154 1_645
Se3_5 Sn0_7 2.716154 1_545
Se3_6 Sn0_0 2.716154 1_655
Se3_6 Sn0_4 2.716154 1_555
Se3_7 Sn0_1 2.716154 1_655
Se3_7 Sn0_5 2.716154 1_555
