# generated using pymatgen
data_LiRh(CO3)2
_symmetry_space_group_name_H-M   'P 1'
_cell_length_a   4.61463093
_cell_length_b   5.59504651
_cell_length_c   7.99326197
_cell_angle_alpha   76.26727707
_cell_angle_beta   90.01402714
_cell_angle_gamma   114.36914791
_symmetry_Int_Tables_number   1
_chemical_formula_structural   LiRh(CO3)2
_chemical_formula_sum   'Li2 Rh2 C4 O12'
_cell_volume   181.50084154
_cell_formula_units_Z   2
loop_
 _symmetry_equiv_pos_site_id
 _symmetry_equiv_pos_as_xyz
  1  'x, y, z'
loop_
 _atom_site_type_symbol
 _atom_site_label
 _atom_site_symmetry_multiplicity
 _atom_site_fract_x
 _atom_site_fract_y
 _atom_site_fract_z
 _atom_site_occupancy
  Li  Li0  1  0.99999948  0.99999348  0.00000307  1
  Li  Li1  1  0.50000015  0.00001129  0.49999481  1
  Rh  Rh0  1  0.75000841  0.50000214  0.74998176  1
  Rh  Rh1  1  0.25000283  0.50001599  0.25001525  1
  C  C0  1  0.86779140  0.73535695  0.37758718  1
  C  C1  1  0.36780355  0.73535697  0.87759338  1
  C  C2  1  0.63219398  0.26463839  0.12240652  1
  C  C3  1  0.13220781  0.26464146  0.62241433  1
  O  O0  1  0.90969316  0.26114291  0.12374861  1
  O  O1  1  0.40972388  0.26115396  0.62375211  1
  O  O2  1  0.50802392  0.73876621  0.01704507  1
  O  O3  1  0.00801529  0.73878694  0.51704118  1
  O  O4  1  0.01021100  0.73879082  0.23779262  1
  O  O5  1  0.51017879  0.73879510  0.73778923  1
  O  O6  1  0.48982212  0.26120303  0.26221102  1
  O  O7  1  0.98979579  0.26120744  0.76220782  1
  O  O8  1  0.99197778  0.26121308  0.48296101  1
  O  O9  1  0.49197201  0.26122781  0.98295852  1
  O  O10  1  0.59027426  0.73884610  0.37624611  1
  O  O11  1  0.09030338  0.73885394  0.87625140  1
loop_
_geom_bond_atom_site_label_1
_geom_bond_atom_site_label_2
_geom_bond_distance
_geom_bond_site_symmetry_2
Li0 O11 2.115599 1_654
Li0 O0 2.115622 1_565
Li0 O9 2.115727 1_664
Li0 O2 2.115730 1_555
Li0 O4 2.118651 1_655
Li0 O7 2.118704 1_564
Li1 O1 2.115582 1_555
Li1 O10 2.115645 1_545
Li1 O8 2.115711 1_555
Li1 O3 2.115757 1_545
Li1 O6 2.118540 1_555
Li1 O5 2.118669 1_545
C0 O4 1.288666 1_655
C0 O10 1.288820 1_555
C0 O3 1.288867 1_655
C1 O5 1.288620 1_555
C1 O11 1.288761 1_555
C1 O2 1.288841 1_556
C2 O6 1.288621 1_555
C2 O0 1.288752 1_555
C2 O9 1.288819 1_554
C3 O7 1.288641 1_455
C3 O1 1.288811 1_555
C3 O8 1.288876 1_455
O0 Rh1 2.044187 1_655
O1 Rh0 2.043874 1_555
O2 Rh1 2.043859 1_555
O3 Rh0 2.043697 1_455
O4 Rh1 2.043696 1_555
O5 Rh0 2.043951 1_555
O6 Rh1 2.044007 1_555
O7 Rh0 2.043773 1_555
O8 Rh1 2.043775 1_655
O9 Rh0 2.043947 1_555
O10 Rh1 2.043805 1_555
O11 Rh0 2.044115 1_455
