# generated using pymatgen
data_Rb4Sr2HfSb4
_symmetry_space_group_name_H-M   'P 1'
_cell_length_a   11.31563102
_cell_length_b   11.31563112
_cell_length_c   8.32731225
_cell_angle_alpha   87.56732620
_cell_angle_beta   87.56732604
_cell_angle_gamma   119.41251232
_symmetry_Int_Tables_number   1
_chemical_formula_structural   Rb4Sr2HfSb4
_chemical_formula_sum   'Rb8 Sr4 Hf2 Sb8'
_cell_volume   925.53055711
_cell_formula_units_Z   2
loop_
 _symmetry_equiv_pos_site_id
 _symmetry_equiv_pos_as_xyz
  1  'x, y, z'
loop_
 _atom_site_type_symbol
 _atom_site_label
 _atom_site_symmetry_multiplicity
 _atom_site_fract_x
 _atom_site_fract_y
 _atom_site_fract_z
 _atom_site_occupancy
  Rb  Rb0  1  0.05035453  0.52051625  0.61835962  1
  Rb  Rb1  1  0.52051625  0.05035453  0.11835962  1
  Rb  Rb2  1  0.28574085  0.13599643  0.85156245  1
  Rb  Rb3  1  0.87570335  0.73607865  0.76783427  1
  Rb  Rb4  1  0.85610427  0.14679242  0.81949623  1
  Rb  Rb5  1  0.73607865  0.87570335  0.26783427  1
  Rb  Rb6  1  0.13599643  0.28574085  0.35156245  1
  Rb  Rb7  1  0.14679242  0.85610427  0.31949623  1
  Sr  Sr0  1  0.46985907  0.92789039  0.60991161  1
  Sr  Sr1  1  0.47592567  0.52308720  0.62797231  1
  Sr  Sr2  1  0.92789039  0.46985907  0.10991161  1
  Sr  Sr3  1  0.52308720  0.47592567  0.12797231  1
  Hf  Hf0  1  0.66158330  0.33498501  0.51119972  1
  Hf  Hf1  1  0.33498501  0.66158330  0.01119972  1
  Sb  Sb0  1  0.59923038  0.78807081  0.86402513  1
  Sb  Sb1  1  0.20370651  0.39330509  0.92729040  1
  Sb  Sb2  1  0.19345761  0.78816792  0.90229625  1
  Sb  Sb3  1  0.39330509  0.20370651  0.42729040  1
  Sb  Sb4  1  0.78807081  0.59923038  0.36402513  1
  Sb  Sb5  1  0.78816792  0.19345761  0.40229625  1
  Sb  Sb6  1  0.66989237  0.36311092  0.84568502  1
  Sb  Sb7  1  0.36311092  0.66989237  0.34568502  1
loop_
_geom_bond_atom_site_label_1
_geom_bond_atom_site_label_2
_geom_bond_distance
_geom_bond_site_symmetry_2
Rb0 Sb2 3.674419 1_555
Rb0 Sb7 3.695167 1_555
Rb0 Sb1 3.770853 1_555
Rb0 Rb4 3.934075 1_455
Rb0 Rb6 3.972371 1_555
Rb0 Sb5 3.996228 1_455
Rb0 Rb3 4.023497 1_455
Rb0 Rb7 4.086789 1_555
Rb0 Sb6 4.096442 1_455
Rb0 Sb4 4.130049 1_455
Rb0 Sr2 4.188456 1_456
Rb0 Sr2 4.483261 1_455
Rb1 Sb5 3.674419 1_555
Rb1 Sb6 3.695167 1_554
Rb1 Sb3 3.770853 1_555
Rb1 Rb7 3.934075 1_545
Rb1 Rb2 3.972371 1_554
Rb1 Sb2 3.996228 1_544
Rb1 Rb5 4.023497 1_545
Rb1 Rb4 4.086789 1_554
Rb1 Sb7 4.096442 1_545
Rb1 Sb0 4.130049 1_544
Rb1 Sr0 4.188456 1_545
Rb1 Sr0 4.483261 1_544
Rb2 Sb1 3.535197 1_555
Rb2 Sb2 3.541863 1_545
Rb2 Sb3 3.611110 1_555
Rb2 Sb6 3.808097 1_555
Rb2 Sr1 4.122259 1_555
Rb2 Sr3 4.293781 1_556
Rb2 Sr0 4.335944 1_545
Rb2 Rb7 4.607381 1_546
Rb2 Rb3 4.734179 1_445
Rb2 Rb4 4.940874 1_455
Rb3 Sb0 3.522795 1_555
Rb3 Sb2 3.584083 1_655
Rb3 Sb6 3.693421 1_555
Rb3 Sb4 3.729011 1_555
Rb3 Sr1 4.195992 1_555
Rb3 Sr2 4.324298 1_556
Rb3 Rb7 4.438289 1_655
Rb3 Rb4 4.796598 1_565
Rb4 Sb0 3.640783 1_545
Rb4 Sb5 3.661862 1_555
Rb4 Sb1 3.713999 1_655
Rb4 Sb6 3.943507 1_555
Rb4 Sr2 4.227669 1_556
Rb4 Sr0 4.320314 1_545
Rb4 Rb5 4.438289 1_546
Rb4 Rb6 4.607381 1_655
Rb5 Sb4 3.522795 1_555
Rb5 Sb5 3.584083 1_565
Rb5 Sb7 3.693421 1_555
Rb5 Sb0 3.729011 1_554
Rb5 Sr3 4.195992 1_555
Rb5 Sr0 4.324298 1_555
Rb5 Rb6 4.734179 1_665
Rb5 Rb7 4.796598 1_655
Rb6 Sb3 3.535197 1_555
Rb6 Sb5 3.541863 1_455
Rb6 Sb1 3.611110 1_554
Rb6 Sb7 3.808097 1_555
Rb6 Sr3 4.122259 1_555
Rb6 Sr1 4.293781 1_555
Rb6 Sr2 4.335944 1_455
Rb6 Rb7 4.940874 1_545
Rb7 Sb4 3.640783 1_455
Rb7 Sb2 3.661862 1_554
Rb7 Sb3 3.713999 1_565
Rb7 Sb7 3.943507 1_555
Rb7 Sr0 4.227669 1_555
Rb7 Sr2 4.320314 1_455
Hf0 Sb5 2.775777 1_555
Hf0 Sb3 2.783805 1_555
Hf0 Sb4 2.797830 1_555
Hf0 Sb6 2.817175 1_555
Hf0 Sr1 3.779392 1_555
Hf0 Rb0 3.997223 1_655
Hf0 Sr0 4.039043 1_545
Hf1 Sb2 2.775777 1_554
Hf1 Sb1 2.783805 1_554
Hf1 Sb0 2.797830 1_554
Hf1 Sb7 2.817175 1_555
Hf1 Sr3 3.779392 1_555
Hf1 Rb1 3.997223 1_565
Hf1 Sr2 4.039043 1_455
Sb0 Sr0 3.373083 1_555
Sb0 Sr1 3.380160 1_555
Sb0 Sr3 3.773645 1_556
Sb1 Sr1 3.528761 1_555
Sb1 Sr3 3.748931 1_556
Sb1 Sr2 3.894648 1_456
Sb2 Sr0 3.518516 1_555
Sb2 Sr2 3.659528 1_456
Sb3 Sr3 3.528761 1_555
Sb3 Sr1 3.748931 1_555
Sb3 Sr0 3.894648 1_545
Sb4 Sr2 3.373083 1_555
Sb4 Sr3 3.380160 1_555
Sb4 Sr1 3.773645 1_555
Sb5 Sr2 3.518516 1_555
Sb5 Sr0 3.659528 1_545
Sb6 Sr3 3.452689 1_556
Sb6 Sr2 3.482909 1_556
Sb6 Sr1 3.916987 1_555
Sb7 Sr1 3.452689 1_555
Sb7 Sr0 3.482909 1_555
Sb7 Sr3 3.916987 1_555
