# generated using pymatgen
data_Cs4CrFe3Se8
_symmetry_space_group_name_H-M   'P 1'
_cell_length_a   5.65519360
_cell_length_b   7.42396258
_cell_length_c   12.79794627
_cell_angle_alpha   89.72373857
_cell_angle_beta   83.40145341
_cell_angle_gamma   79.36546286
_symmetry_Int_Tables_number   1
_chemical_formula_structural   Cs4CrFe3Se8
_chemical_formula_sum   'Cs4 Cr1 Fe3 Se8'
_cell_volume   524.50758356
_cell_formula_units_Z   1
loop_
 _symmetry_equiv_pos_site_id
 _symmetry_equiv_pos_as_xyz
  1  'x, y, z'
loop_
 _atom_site_type_symbol
 _atom_site_label
 _atom_site_symmetry_multiplicity
 _atom_site_fract_x
 _atom_site_fract_y
 _atom_site_fract_z
 _atom_site_occupancy
  Cs  Cs0  1  0.07840539  0.02446996  0.67547769  1
  Cs  Cs1  1  0.56512342  0.53860437  0.17899387  1
  Cs  Cs2  1  0.42760072  0.46189803  0.82128701  1
  Cs  Cs3  1  0.92849041  0.97638176  0.32432918  1
  Cr  Cr0  1  0.75064577  0.99810437  0.99943156  1
  Fe  Fe0  1  0.25377339  0.49552153  0.49850326  1
  Fe  Fe1  1  0.74559747  0.50558175  0.50205177  1
  Fe  Fe2  1  0.24994745  0.00044790  0.00026040  1
  Se  Se0  1  0.95436335  0.54656580  0.64444272  1
  Se  Se1  1  0.45845597  0.06634840  0.14199904  1
  Se  Se2  1  0.93919018  0.24471080  0.96197207  1
  Se  Se3  1  0.44881485  0.74458459  0.45470900  1
  Se  Se4  1  0.56179768  0.93203054  0.85769631  1
  Se  Se5  1  0.04312463  0.45508332  0.35616679  1
  Se  Se6  1  0.55268647  0.25632703  0.54552296  1
  Se  Se7  1  0.04198285  0.75333684  0.03715537  1
loop_
_geom_bond_atom_site_label_1
_geom_bond_atom_site_label_2
_geom_bond_distance
_geom_bond_site_symmetry_2
Cs0 Se6 3.684300 1_555
Cs0 Se4 3.688268 1_445
Cs0 Se3 3.711894 1_545
Cs0 Se6 3.713208 1_455
Cs0 Se4 3.760261 1_545
Cs0 Se0 3.772790 1_445
Cs0 Se0 3.836537 1_455
Cs0 Se2 3.956771 1_455
Cs1 Se5 3.655656 1_555
Cs1 Se7 3.680028 1_655
Cs1 Se5 3.689106 1_655
Cs1 Se1 3.707073 1_555
Cs1 Se2 3.735534 1_554
Cs1 Se7 3.748941 1_555
Cs1 Se3 3.790696 1_555
Cs1 Se1 3.887652 1_565
Cs2 Se0 3.665668 1_455
Cs2 Se0 3.676871 1_555
Cs2 Se2 3.695835 1_555
Cs2 Se2 3.734073 1_455
Cs2 Se7 3.741771 1_556
Cs2 Se4 3.748263 1_555
Cs2 Se6 3.790066 1_555
Cs2 Se4 3.902427 1_545
Cs3 Se3 3.692674 1_655
Cs3 Se1 3.702971 1_565
Cs3 Se3 3.709318 1_555
Cs3 Se6 3.727389 1_565
Cs3 Se1 3.740318 1_665
Cs3 Se5 3.760483 1_665
Cs3 Se5 3.831900 1_655
Cs3 Se7 3.973100 1_655
Cr0 Se2 2.305016 1_565
Cr0 Se4 2.306219 1_555
Cr0 Se7 2.306280 1_656
Cr0 Se1 2.307199 1_566
Cr0 Fe2 2.827187 1_566
Cr0 Fe2 2.828148 1_666
Fe0 Se5 2.337413 1_555
Fe0 Se6 2.342759 1_555
Fe0 Se0 2.354186 1_455
Fe0 Se3 2.355916 1_555
Fe0 Fe1 2.801667 1_555
Fe0 Fe1 2.856112 1_455
Fe1 Se0 2.332300 1_555
Fe1 Se3 2.335919 1_555
Fe1 Se5 2.347202 1_655
Fe1 Se6 2.349374 1_555
Fe2 Se2 2.372777 1_454
Fe2 Se7 2.373188 1_545
Fe2 Se1 2.373456 1_555
Fe2 Se4 2.374005 1_544
