# generated using pymatgen
data_TaNi4Pt
_symmetry_space_group_name_H-M   'P 1'
_cell_length_a   4.68209253
_cell_length_b   4.68209239
_cell_length_c   4.68209373
_cell_angle_alpha   59.99999748
_cell_angle_beta   59.99999844
_cell_angle_gamma   60.00000598
_symmetry_Int_Tables_number   1
_chemical_formula_structural   TaNi4Pt
_chemical_formula_sum   'Ta1 Ni4 Pt1'
_cell_volume   72.57801444
_cell_formula_units_Z   1
loop_
 _symmetry_equiv_pos_site_id
 _symmetry_equiv_pos_as_xyz
  1  'x, y, z'
loop_
 _atom_site_type_symbol
 _atom_site_label
 _atom_site_symmetry_multiplicity
 _atom_site_fract_x
 _atom_site_fract_y
 _atom_site_fract_z
 _atom_site_occupancy
  Ta  Ta0  1  0.00000000  0.00000000  0.00000000  1
  Ni  Ni0  1  0.62480214  0.12559458  0.62480214  1
  Ni  Ni1  1  0.62480214  0.62480214  0.62480214  1
  Ni  Ni2  1  0.12559458  0.62480214  0.62480214  1
  Ni  Ni3  1  0.62480214  0.62480214  0.12559458  1
  Pt  Pt0  1  0.25000000  0.25000000  0.25000000  1
loop_
_geom_bond_atom_site_label_1
_geom_bond_atom_site_label_2
_geom_bond_distance
_geom_bond_site_symmetry_2
Ni0 Ni1 2.337336 1_555
Ni0 Ni3 2.337336 1_555
Ni0 Ni2 2.337336 1_555
Ni0 Ni1 2.344756 1_545
Ni0 Ni3 2.344757 1_546
Ni0 Ni2 2.344757 1_645
Ni0 Pt0 2.744724 1_655
Ni0 Pt0 2.744725 1_556
Ni0 Pt0 2.744728 1_555
Ni0 Ta0 2.745514 1_656
Ni0 Ta0 2.745518 1_556
Ni0 Ta0 2.745519 1_655
Ni1 Ni2 2.337336 1_555
Ni1 Ni3 2.337337 1_555
Ni1 Ni2 2.344757 1_655
Ni1 Ni3 2.344757 1_556
Ni1 Pt0 2.744726 1_556
Ni1 Pt0 2.744726 1_565
Ni1 Pt0 2.744726 1_655
Ni1 Ta0 2.745516 1_665
Ni1 Ta0 2.745516 1_656
Ni1 Ta0 2.745516 1_566
Ni2 Ni3 2.337336 1_555
Ni2 Ni3 2.344757 1_456
Ni2 Pt0 2.744724 1_565
Ni2 Pt0 2.744725 1_556
Ni2 Pt0 2.744728 1_555
Ni2 Ta0 2.745514 1_566
Ni2 Ta0 2.745518 1_556
Ni2 Ta0 2.745519 1_565
Ni3 Pt0 2.744724 1_565
Ni3 Pt0 2.744724 1_655
Ni3 Pt0 2.744728 1_555
Ni3 Ta0 2.745514 1_665
Ni3 Ta0 2.745518 1_655
Ni3 Ta0 2.745518 1_565
Pt0 Ta0 2.867184 1_565
Pt0 Ta0 2.867185 1_655
Pt0 Ta0 2.867185 1_555
Pt0 Ta0 2.867185 1_556
