# generated using pymatgen
data_BaCrCoP2
_symmetry_space_group_name_H-M   'P 1'
_cell_length_a   13.86997988
_cell_length_b   13.86997990
_cell_length_c   13.87021194
_cell_angle_alpha   147.22543367
_cell_angle_beta   147.22543406
_cell_angle_gamma   47.02718849
_symmetry_Int_Tables_number   1
_chemical_formula_structural   BaCrCoP2
_chemical_formula_sum   'Ba8 Cr8 Co8 P16'
_cell_volume   779.00764722
_cell_formula_units_Z   8
loop_
 _symmetry_equiv_pos_site_id
 _symmetry_equiv_pos_as_xyz
  1  'x, y, z'
loop_
 _atom_site_type_symbol
 _atom_site_label
 _atom_site_symmetry_multiplicity
 _atom_site_fract_x
 _atom_site_fract_y
 _atom_site_fract_z
 _atom_site_occupancy
  Ba  Ba0_0  1  0.49998729  0.00001271  0.00000000  1
  Ba  Ba0_1  1  0.49998729  0.00001271  0.50000000  1
  Ba  Ba0_2  1  0.49998729  0.50001271  1.00000000  1
  Ba  Ba0_3  1  0.49998729  0.50001271  0.50000000  1
  Ba  Ba0_4  1  0.99998729  0.00001271  1.00000000  1
  Ba  Ba0_5  1  0.99998729  0.00001271  0.50000000  1
  Ba  Ba0_6  1  0.99998729  0.50001271  1.00000000  1
  Ba  Ba0_7  1  0.99998729  0.50001271  0.50000000  1
  Cr  Cr0_0  1  0.37504744  0.12495256  0.25000000  1
  Cr  Cr0_1  1  0.37504744  0.12495256  0.75000000  1
  Cr  Cr0_2  1  0.37504744  0.62495256  0.25000000  1
  Cr  Cr0_3  1  0.37504744  0.62495256  0.75000000  1
  Cr  Cr0_4  1  0.87504744  0.12495256  0.25000000  1
  Cr  Cr0_5  1  0.87504744  0.12495256  0.75000000  1
  Cr  Cr0_6  1  0.87504744  0.62495256  0.25000000  1
  Cr  Cr0_7  1  0.87504744  0.62495256  0.75000000  1
  Co  Co0_0  1  0.12497337  0.37502663  0.25000000  1
  Co  Co0_1  1  0.12497337  0.37502663  0.75000000  1
  Co  Co0_2  1  0.12497337  0.87502663  0.25000000  1
  Co  Co0_3  1  0.12497337  0.87502663  0.75000000  1
  Co  Co0_4  1  0.62497337  0.37502663  0.25000000  1
  Co  Co0_5  1  0.62497337  0.37502663  0.75000000  1
  Co  Co0_6  1  0.62497337  0.87502663  0.25000000  1
  Co  Co0_7  1  0.62497337  0.87502663  0.75000000  1
  P  P0_0  1  0.32758218  0.32759028  0.49992438  1
  P  P0_1  1  0.32758218  0.32759028  0.99992438  1
  P  P0_2  1  0.32758218  0.82759028  0.49992438  1
  P  P0_3  1  0.32758218  0.82759028  0.99992438  1
  P  P0_4  1  0.82758218  0.32759028  0.49992438  1
  P  P0_5  1  0.82758218  0.32759028  0.99992438  1
  P  P0_6  1  0.82758218  0.82759028  0.49992438  1
  P  P0_7  1  0.82758218  0.82759028  0.99992438  1
  P  P1_0  1  0.17240972  0.17241782  0.00007562  1
  P  P1_1  1  0.17240972  0.17241782  0.50007562  1
  P  P1_2  1  0.17240972  0.67241782  0.00007562  1
  P  P1_3  1  0.17240972  0.67241782  0.50007562  1
  P  P1_4  1  0.67240972  0.17241782  0.00007562  1
  P  P1_5  1  0.67240972  0.17241782  0.50007562  1
  P  P1_6  1  0.67240972  0.67241782  0.00007562  1
  P  P1_7  1  0.67240972  0.67241782  0.50007562  1
loop_
_geom_bond_atom_site_label_1
_geom_bond_atom_site_label_2
_geom_bond_distance
_geom_bond_site_symmetry_2
Ba0_0 P1_0 3.399034 1_555
Ba0_0 P0_1 3.399034 1_554
Ba0_0 P0_4 3.399092 1_555
Ba0_0 P1_3 3.399092 1_544
Ba0_0 P0_7 3.399190 1_544
Ba0_0 P1_6 3.399190 1_545
Ba0_0 P1_5 3.399733 1_555
Ba0_0 P0_2 3.399733 1_544
Ba0_0 Cr0_1 3.733084 1_554
Ba0_0 Cr0_0 3.733084 1_555
Ba0_0 Co0_6 3.733274 1_545
Ba0_0 Co0_7 3.733274 1_544
Ba0_0 Co0_3 3.733417 1_544
Ba0_0 Co0_4 3.733417 1_555
Ba0_0 Cr0_4 3.733607 1_555
Ba0_0 Cr0_3 3.733607 1_544
Ba0_0 Ba0_5 3.913150 1_555
Ba0_0 Ba0_5 3.913150 1_454
Ba0_0 Ba0_3 3.913150 1_555
Ba0_0 Ba0_3 3.913150 1_544
Ba0_1 P1_1 3.399034 1_555
Ba0_1 P0_0 3.399034 1_555
Ba0_1 P0_5 3.399092 1_555
Ba0_1 P1_2 3.399092 1_545
Ba0_1 P0_6 3.399190 1_545
Ba0_1 P1_7 3.399190 1_545
Ba0_1 P1_4 3.399733 1_556
Ba0_1 P0_3 3.399733 1_544
Ba0_1 Cr0_0 3.733084 1_555
Ba0_1 Cr0_1 3.733084 1_555
Ba0_1 Co0_7 3.733274 1_545
Ba0_1 Co0_6 3.733274 1_545
Ba0_1 Co0_2 3.733417 1_545
Ba0_1 Co0_5 3.733417 1_555
Ba0_1 Cr0_5 3.733607 1_555
Ba0_1 Cr0_2 3.733607 1_545
Ba0_1 Ba0_4 3.913150 1_454
Ba0_1 Ba0_4 3.913150 1_555
Ba0_1 Ba0_2 3.913150 1_555
Ba0_1 Ba0_2 3.913150 1_544
Ba0_2 P1_2 3.399034 1_556
Ba0_2 P0_3 3.399034 1_555
Ba0_2 P0_6 3.399092 1_556
Ba0_2 P1_1 3.399092 1_555
Ba0_2 P0_5 3.399190 1_555
Ba0_2 P1_4 3.399190 1_556
Ba0_2 P1_7 3.399733 1_556
Ba0_2 P0_0 3.399733 1_555
Ba0_2 Cr0_3 3.733084 1_555
Ba0_2 Cr0_2 3.733084 1_556
Ba0_2 Co0_4 3.733274 1_556
Ba0_2 Co0_5 3.733274 1_555
Ba0_2 Co0_1 3.733417 1_555
Ba0_2 Co0_6 3.733417 1_556
Ba0_2 Cr0_6 3.733607 1_556
Ba0_2 Cr0_1 3.733607 1_555
Ba0_2 Ba0_7 3.913150 1_556
Ba0_2 Ba0_7 3.913150 1_455
Ba0_3 P1_3 3.399034 1_555
Ba0_3 P0_2 3.399034 1_555
Ba0_3 P0_7 3.399092 1_555
Ba0_3 P1_0 3.399092 1_555
Ba0_3 P0_4 3.399190 1_555
Ba0_3 P1_5 3.399190 1_555
Ba0_3 P1_6 3.399733 1_556
Ba0_3 P0_1 3.399733 1_554
Ba0_3 Cr0_2 3.733084 1_555
Ba0_3 Cr0_3 3.733084 1_555
Ba0_3 Co0_5 3.733274 1_555
Ba0_3 Co0_4 3.733274 1_555
Ba0_3 Co0_0 3.733417 1_555
Ba0_3 Co0_7 3.733417 1_555
Ba0_3 Cr0_7 3.733607 1_555
Ba0_3 Cr0_0 3.733607 1_555
Ba0_3 Ba0_6 3.913150 1_555
Ba0_3 Ba0_6 3.913150 1_454
Ba0_4 P1_4 3.399034 1_556
Ba0_4 P0_5 3.399034 1_555
Ba0_4 P0_0 3.399092 1_656
Ba0_4 P1_7 3.399092 1_545
Ba0_4 P0_3 3.399190 1_645
Ba0_4 P1_2 3.399190 1_646
Ba0_4 P1_1 3.399733 1_656
Ba0_4 P0_6 3.399733 1_545
Ba0_4 Cr0_5 3.733084 1_555
Ba0_4 Cr0_4 3.733084 1_556
Ba0_4 Co0_2 3.733274 1_646
Ba0_4 Co0_3 3.733274 1_645
Ba0_4 Co0_7 3.733417 1_545
Ba0_4 Co0_0 3.733417 1_656
Ba0_4 Cr0_0 3.733607 1_656
Ba0_4 Cr0_7 3.733607 1_545
Ba0_4 Ba0_7 3.913150 1_556
Ba0_4 Ba0_7 3.913150 1_545
Ba0_5 P1_5 3.399034 1_555
Ba0_5 P0_4 3.399034 1_555
Ba0_5 P0_1 3.399092 1_655
Ba0_5 P1_6 3.399092 1_545
Ba0_5 P0_2 3.399190 1_645
Ba0_5 P1_3 3.399190 1_645
Ba0_5 P1_0 3.399733 1_656
Ba0_5 P0_7 3.399733 1_544
Ba0_5 Cr0_4 3.733084 1_555
Ba0_5 Cr0_5 3.733084 1_555
Ba0_5 Co0_3 3.733274 1_645
Ba0_5 Co0_2 3.733274 1_645
Ba0_5 Co0_6 3.733417 1_545
Ba0_5 Co0_1 3.733417 1_655
Ba0_5 Cr0_1 3.733607 1_655
Ba0_5 Cr0_6 3.733607 1_545
Ba0_5 Ba0_6 3.913150 1_555
Ba0_5 Ba0_6 3.913150 1_544
Ba0_6 P1_6 3.399034 1_556
Ba0_6 P0_7 3.399034 1_555
Ba0_6 P0_2 3.399092 1_656
Ba0_6 P1_5 3.399092 1_555
Ba0_6 P0_1 3.399190 1_655
Ba0_6 P1_0 3.399190 1_656
Ba0_6 P1_3 3.399733 1_656
Ba0_6 P0_4 3.399733 1_555
Ba0_6 Cr0_7 3.733084 1_555
Ba0_6 Cr0_6 3.733084 1_556
Ba0_6 Co0_0 3.733274 1_656
Ba0_6 Co0_1 3.733274 1_655
Ba0_6 Co0_5 3.733417 1_555
Ba0_6 Co0_2 3.733417 1_656
Ba0_6 Cr0_2 3.733607 1_656
Ba0_6 Cr0_5 3.733607 1_555
Ba0_7 P1_7 3.399034 1_555
Ba0_7 P0_6 3.399034 1_555
Ba0_7 P0_3 3.399092 1_655
Ba0_7 P1_4 3.399092 1_555
Ba0_7 P0_0 3.399190 1_655
Ba0_7 P1_1 3.399190 1_655
Ba0_7 P1_2 3.399733 1_656
Ba0_7 P0_5 3.399733 1_554
Ba0_7 Cr0_6 3.733084 1_555
Ba0_7 Cr0_7 3.733084 1_555
Ba0_7 Co0_1 3.733274 1_655
Ba0_7 Co0_0 3.733274 1_655
Ba0_7 Co0_4 3.733417 1_555
Ba0_7 Co0_3 3.733417 1_655
Ba0_7 Cr0_3 3.733607 1_655
Ba0_7 Cr0_4 3.733607 1_555
Cr0_0 P1_5 2.297832 1_555
Cr0_0 P0_3 2.297832 1_544
Cr0_0 P1_0 2.297996 1_555
Cr0_0 P0_0 2.297996 1_555
Cr0_1 P1_4 2.297832 1_556
Cr0_1 P0_2 2.297832 1_545
Cr0_1 P1_1 2.297996 1_555
Cr0_1 P0_1 2.297996 1_555
Cr0_2 P1_7 2.297832 1_555
Cr0_2 P0_1 2.297832 1_554
Cr0_2 P1_2 2.297996 1_555
Cr0_2 P0_2 2.297996 1_555
Cr0_3 P1_6 2.297832 1_556
Cr0_3 P0_0 2.297832 1_555
Cr0_3 P1_3 2.297996 1_555
Cr0_3 P0_3 2.297996 1_555
Cr0_4 P1_1 2.297832 1_655
Cr0_4 P0_7 2.297832 1_544
Cr0_4 P1_4 2.297996 1_555
Cr0_4 P0_4 2.297996 1_555
Cr0_5 P1_0 2.297832 1_656
Cr0_5 P0_6 2.297832 1_545
Cr0_5 P1_5 2.297996 1_555
Cr0_5 P0_5 2.297996 1_555
Cr0_6 P1_3 2.297832 1_655
Cr0_6 P0_5 2.297832 1_554
Cr0_6 P1_6 2.297996 1_555
Cr0_6 P0_6 2.297996 1_555
Cr0_7 P1_2 2.297832 1_656
Cr0_7 P0_4 2.297832 1_555
Cr0_7 P1_7 2.297996 1_555
Cr0_7 P0_7 2.297996 1_555
Co0_0 P0_0 2.297804 1_555
Co0_0 P1_0 2.297804 1_555
Co0_0 P0_5 2.298025 1_454
Co0_0 P1_3 2.298025 1_555
Co0_0 Cr0_6 2.766010 1_455
Co0_0 Cr0_3 2.767200 1_555
Co0_0 Cr0_5 2.767200 1_454
Co0_0 Cr0_0 2.767649 1_555
Co0_1 P0_1 2.297804 1_555
Co0_1 P1_1 2.297804 1_555
Co0_1 P0_4 2.298025 1_455
Co0_1 P1_2 2.298025 1_556
Co0_1 Cr0_7 2.766010 1_455
Co0_1 Cr0_2 2.767200 1_556
Co0_1 Cr0_4 2.767200 1_455
Co0_1 Cr0_1 2.767649 1_555
Co0_2 P0_2 2.297804 1_555
Co0_2 P1_2 2.297804 1_555
Co0_2 P0_7 2.298025 1_454
Co0_2 P1_1 2.298025 1_565
Co0_2 Cr0_4 2.766010 1_465
Co0_2 Cr0_1 2.767200 1_565
Co0_2 Cr0_7 2.767200 1_454
Co0_2 Cr0_2 2.767649 1_555
Co0_3 P0_3 2.297804 1_555
Co0_3 P1_3 2.297804 1_555
Co0_3 P0_6 2.298025 1_455
Co0_3 P1_0 2.298025 1_566
Co0_3 Cr0_5 2.766010 1_465
Co0_3 Cr0_0 2.767200 1_566
Co0_3 Cr0_6 2.767200 1_455
Co0_3 Cr0_3 2.767649 1_555
Co0_4 P0_4 2.297804 1_555
Co0_4 P1_4 2.297804 1_555
Co0_4 P0_1 2.298025 1_554
Co0_4 P1_7 2.298025 1_555
Co0_4 Cr0_2 2.766010 1_555
Co0_4 Cr0_7 2.767200 1_555
Co0_4 Cr0_1 2.767200 1_554
Co0_4 Cr0_4 2.767649 1_555
Co0_5 P0_5 2.297804 1_555
Co0_5 P1_5 2.297804 1_555
Co0_5 P0_0 2.298025 1_555
Co0_5 P1_6 2.298025 1_556
Co0_5 Cr0_3 2.766010 1_555
Co0_5 Cr0_6 2.767200 1_556
Co0_5 Cr0_0 2.767200 1_555
Co0_5 Cr0_5 2.767649 1_555
Co0_6 P0_6 2.297804 1_555
Co0_6 P1_6 2.297804 1_555
Co0_6 P0_3 2.298025 1_554
Co0_6 P1_5 2.298025 1_565
Co0_6 Cr0_0 2.766010 1_565
Co0_6 Cr0_5 2.767200 1_565
Co0_6 Cr0_3 2.767200 1_554
Co0_6 Cr0_6 2.767649 1_555
Co0_7 P0_7 2.297804 1_555
Co0_7 P1_7 2.297804 1_555
Co0_7 P0_2 2.298025 1_555
Co0_7 P1_4 2.298025 1_566
Co0_7 Cr0_1 2.766010 1_565
Co0_7 Cr0_4 2.767200 1_566
Co0_7 Cr0_2 2.767200 1_555
Co0_7 Cr0_7 2.767649 1_555
