# generated using pymatgen
data_YLu(ZnSn)2
_symmetry_space_group_name_H-M   'P 1'
_cell_length_a   4.41760541
_cell_length_b   4.41758540
_cell_length_c   16.02917621
_cell_angle_alpha   90.00000000
_cell_angle_beta   90.00000000
_cell_angle_gamma   119.99990796
_symmetry_Int_Tables_number   1
_chemical_formula_structural   YLu(ZnSn)2
_chemical_formula_sum   'Y2 Lu2 Zn4 Sn4'
_cell_volume   270.90318601
_cell_formula_units_Z   2
loop_
 _symmetry_equiv_pos_site_id
 _symmetry_equiv_pos_as_xyz
  1  'x, y, z'
loop_
 _atom_site_type_symbol
 _atom_site_label
 _atom_site_symmetry_multiplicity
 _atom_site_fract_x
 _atom_site_fract_y
 _atom_site_fract_z
 _atom_site_occupancy
  Y  Y0  1  0.00000000  0.00000000  0.00000000  1
  Y  Y1  1  0.00000000  0.00000000  0.50000000  1
  Lu  Lu0  1  0.00000200  0.99999900  0.25000000  1
  Lu  Lu1  1  0.99999800  0.00000100  0.75000000  1
  Zn  Zn0  1  0.33333300  0.66666700  0.16573339  1
  Zn  Zn1  1  0.66666700  0.33333300  0.83426661  1
  Zn  Zn2  1  0.66666700  0.33333300  0.66573339  1
  Zn  Zn3  1  0.33333300  0.66666700  0.33426661  1
  Sn  Sn0  1  0.33333200  0.66666900  0.61555605  1
  Sn  Sn1  1  0.66666800  0.33333100  0.38444395  1
  Sn  Sn2  1  0.66666800  0.33333100  0.11555605  1
  Sn  Sn3  1  0.33333200  0.66666900  0.88444395  1
loop_
_geom_bond_atom_site_label_1
_geom_bond_atom_site_label_2
_geom_bond_distance
_geom_bond_site_symmetry_2
Y0 Zn0 3.682716 1_545
Y0 Zn1 3.682716 1_454
Y0 Zn0 3.682717 1_555
Y0 Zn1 3.682717 1_444
Y0 Zn0 3.682725 1_445
Y0 Zn1 3.682725 1_554
Y1 Zn2 3.682716 1_455
Y1 Zn3 3.682716 1_545
Y1 Zn2 3.682717 1_445
Y1 Zn3 3.682717 1_555
Y1 Zn2 3.682725 1_555
Y1 Zn3 3.682725 1_445
Lu0 Zn3 2.886075 1_555
Lu0 Zn0 2.886075 1_555
Lu0 Zn3 2.886090 1_565
Lu0 Zn0 2.886090 1_565
Lu0 Zn3 2.886103 1_455
Lu0 Zn0 2.886103 1_455
Lu0 Sn1 3.339037 1_465
Lu0 Sn2 3.339037 1_465
Lu0 Sn1 3.339041 1_455
Lu0 Sn2 3.339041 1_455
Lu0 Sn1 3.339044 1_565
Lu0 Sn2 3.339044 1_565
Lu1 Zn1 2.886075 1_555
Lu1 Zn2 2.886075 1_555
Lu1 Zn1 2.886090 1_545
Lu1 Zn2 2.886090 1_545
Lu1 Zn1 2.886103 1_655
Lu1 Zn2 2.886103 1_655
Lu1 Sn3 3.339037 1_645
Lu1 Sn0 3.339037 1_645
Lu1 Sn3 3.339041 1_655
Lu1 Sn0 3.339041 1_655
Lu1 Sn3 3.339044 1_545
Lu1 Sn0 3.339044 1_545
Zn0 Zn3 2.701449 1_555
Zn1 Zn2 2.701449 1_555
Sn0 Zn2 2.674300 1_565
Sn0 Zn2 2.674315 1_455
Sn0 Zn2 2.674328 1_555
Sn0 Y1 3.152122 1_565
Sn0 Y1 3.152138 1_555
Sn0 Y1 3.152145 1_665
Sn1 Zn3 2.674300 1_545
Sn1 Zn3 2.674315 1_655
Sn1 Zn3 2.674328 1_555
Sn1 Y1 3.152122 1_655
Sn1 Y1 3.152138 1_665
Sn1 Y1 3.152145 1_555
Sn2 Zn0 2.674300 1_545
Sn2 Zn0 2.674315 1_655
Sn2 Zn0 2.674328 1_555
Sn2 Y0 3.152122 1_655
Sn2 Y0 3.152138 1_665
Sn2 Y0 3.152145 1_555
Sn3 Zn1 2.674300 1_565
Sn3 Zn1 2.674315 1_455
Sn3 Zn1 2.674328 1_555
Sn3 Y0 3.152122 1_566
Sn3 Y0 3.152138 1_556
Sn3 Y0 3.152145 1_666
