# generated using pymatgen
data_YNiB2Ir
_symmetry_space_group_name_H-M   'P 1'
_cell_length_a   5.07018199
_cell_length_b   5.07018222
_cell_length_c   7.21278072
_cell_angle_alpha   58.74841580
_cell_angle_beta   58.74841716
_cell_angle_gamma   62.38032965
_symmetry_Int_Tables_number   1
_chemical_formula_structural   YNiB2Ir
_chemical_formula_sum   'Y2 Ni2 B4 Ir2'
_cell_volume   130.62772696
_cell_formula_units_Z   2
loop_
 _symmetry_equiv_pos_site_id
 _symmetry_equiv_pos_as_xyz
  1  'x, y, z'
loop_
 _atom_site_type_symbol
 _atom_site_label
 _atom_site_symmetry_multiplicity
 _atom_site_fract_x
 _atom_site_fract_y
 _atom_site_fract_z
 _atom_site_occupancy
  Y  Y0  1  0.11217692  0.88782308  0.25000000  1
  Y  Y1  1  0.87458922  0.12541078  0.75000000  1
  Ni  Ni0  1  0.52777878  0.72979000  0.79237051  1
  Ni  Ni1  1  0.27021000  0.47222122  0.70762949  1
  B  B0  1  0.16738844  0.49732955  0.00648957  1
  B  B1  1  0.50267045  0.83261156  0.49351043  1
  B  B2  1  0.84237638  0.49078382  0.96845288  1
  B  B3  1  0.50921618  0.15762362  0.53154712  1
  Ir  Ir0  1  0.46429751  0.27070389  0.19690166  1
  Ir  Ir1  1  0.72929611  0.53570249  0.30309834  1
loop_
_geom_bond_atom_site_label_1
_geom_bond_atom_site_label_2
_geom_bond_distance
_geom_bond_site_symmetry_2
Ni0 Y1 2.827270 1_555
Ni0 Y1 3.047219 1_565
Ni0 Y1 3.056069 1_465
Ni0 Y0 3.152662 1_556
Ni1 Y1 2.827270 1_555
Ni1 Y1 3.047219 1_455
Ni1 Y1 3.056069 1_465
Ni1 Y0 3.152662 1_555
B0 B2 1.822386 1_454
B0 Ni1 1.997956 1_554
B0 Ni0 2.072004 1_554
B0 Ir0 2.092052 1_555
B0 Ir1 2.156174 1_455
B0 Y0 2.715398 1_545
B0 Y1 2.849712 1_464
B0 Y0 3.109224 1_555
B0 Y1 3.209803 1_554
B1 B3 1.822386 1_565
B1 Ni0 1.997956 1_555
B1 Ni1 2.072004 1_555
B1 Ir1 2.092052 1_555
B1 Ir0 2.156174 1_565
B1 Y0 2.715398 1_655
B1 Y1 2.849712 1_465
B1 Y0 3.109224 1_555
B1 Y1 3.209803 1_555
B2 Ni1 2.003395 1_655
B2 Ni0 2.082927 1_555
B2 Ir0 2.105461 1_556
B2 Ir1 2.284744 1_556
B2 Y1 2.796873 1_565
B2 Y0 2.811474 1_646
B2 Y1 2.902108 1_555
B3 Ni0 2.003395 1_545
B3 Ni1 2.082927 1_555
B3 Ir1 2.105461 1_555
B3 Ir0 2.284744 1_555
B3 Y1 2.796873 1_455
B3 Y0 2.811474 1_645
B3 Y1 2.902108 1_555
Ir0 Y0 2.911802 1_555
Ir0 Y0 2.972402 1_545
Ir0 Y0 3.053997 1_645
Ir0 Y1 3.057094 1_554
Ir0 Y1 3.466125 1_455
Ir1 Y0 2.911802 1_555
Ir1 Y0 2.972402 1_655
Ir1 Y0 3.053997 1_645
Ir1 Y1 3.057094 1_555
Ir1 Y1 3.466125 1_564
