# generated using pymatgen
data_Ti8Al14AsRu7
_symmetry_space_group_name_H-M   'P 1'
_cell_length_a   8.59613755
_cell_length_b   8.59613757
_cell_length_c   8.59613785
_cell_angle_alpha   120.09641811
_cell_angle_beta   119.90098310
_cell_angle_gamma   90.00233101
_symmetry_Int_Tables_number   1
_chemical_formula_structural   Ti8Al14AsRu7
_chemical_formula_sum   'Ti8 Al14 As1 Ru7'
_cell_volume   449.16100834
_cell_formula_units_Z   1
loop_
 _symmetry_equiv_pos_site_id
 _symmetry_equiv_pos_as_xyz
  1  'x, y, z'
loop_
 _atom_site_type_symbol
 _atom_site_label
 _atom_site_symmetry_multiplicity
 _atom_site_fract_x
 _atom_site_fract_y
 _atom_site_fract_z
 _atom_site_occupancy
  Ti  Ti0  1  0.79617192  0.29063621  0.07849872  1
  Ti  Ti1  1  0.21213649  0.29063621  0.49446429  1
  Ti  Ti2  1  0.20761198  0.70761198  0.50000000  1
  Ti  Ti3  1  0.21213649  0.71767220  0.92150128  1
  Ti  Ti4  1  0.79617192  0.71767220  0.50553571  1
  Ti  Ti5  1  0.78369068  0.28369068  0.50000000  1
  Ti  Ti6  1  0.37975221  0.11939234  0.73963913  1
  Ti  Ti7  1  0.37975221  0.64011408  0.26036087  1
  Al  Al0  1  0.16118735  0.33820291  0.17701456  1
  Al  Al1  1  0.16118735  0.98417479  0.82298544  1
  Al  Al2  1  0.15816893  0.34077573  0.81739320  1
  Al  Al3  1  0.52338153  0.34077573  0.18260680  1
  Al  Al4  1  0.84018789  0.65906928  0.81888339  1
  Al  Al5  1  0.84018789  0.02130450  0.18111661  1
  Al  Al6  1  0.83867355  0.66005328  0.17862128  1
  Al  Al7  1  0.48143200  0.66005328  0.82137872  1
  Al  Al8  1  0.38007964  0.11959145  0.26048919  1
  Al  Al9  1  0.85910325  0.11959145  0.73951081  1
  Al  Al10  1  0.61942910  0.87800591  0.25857581  1
  Al  Al11  1  0.61942910  0.36085329  0.74142419  1
  Al  Al12  1  0.62066721  0.87926306  0.74140415  1
  Al  Al13  1  0.13785790  0.87926306  0.25859585  1
  As  As0  1  0.99609530  0.49609530  0.50000000  1
  Ru  Ru0  1  0.99993978  0.00009183  0.50097384  1
  Ru  Ru1  1  0.49911799  0.00009183  0.00015204  1
  Ru  Ru2  1  0.49870880  0.49870880  0.00000000  1
  Ru  Ru3  1  0.49911799  0.49896595  0.49902616  1
  Ru  Ru4  1  0.99993978  0.49896595  0.99984796  1
  Ru  Ru5  1  0.00022341  0.00022341  0.00000000  1
  Ru  Ru6  1  0.49845434  0.99845434  0.50000000  1
loop_
_geom_bond_atom_site_label_1
_geom_bond_atom_site_label_2
_geom_bond_distance
_geom_bond_site_symmetry_2
Ti0 Ti6 2.961216 1_554
Ti1 Ti6 2.961210 1_555
Ti2 Ti7 2.934317 1_555
Ti2 Ti6 2.934323 1_565
Ti3 Ti7 2.961204 1_556
Ti4 Ti7 2.961218 1_555
Al0 Ru5 2.477419 1_555
Al0 Ru4 2.481268 1_454
Al0 Ru3 2.481275 1_555
Al0 Ti7 2.751619 1_555
Al0 Al9 2.755606 1_454
Al0 Al8 2.755611 1_555
Al0 Ti0 2.780834 1_455
Al0 Ti1 2.780842 1_555
Al0 Ti2 2.829234 1_555
Al0 Al1 3.038843 1_544
Al0 Al3 3.089694 1_555
Al0 Al2 3.089698 1_554
Al1 Ru5 2.477416 1_566
Al1 Ru0 2.481265 1_465
Al1 Ru1 2.481280 1_566
Al1 Ti6 2.751614 1_565
Al1 Al9 2.755592 1_465
Al1 Al8 2.755613 1_566
Al1 Ti4 2.780842 1_455
Al1 Ti3 2.780859 1_555
Al1 Ti2 2.829245 1_555
Al1 Al2 3.089685 1_565
Al1 Al3 3.089690 1_566
Al2 Ru4 2.479340 1_455
Al2 Ru0 2.479341 1_455
Al2 Ru2 2.481423 1_556
Al2 Al9 2.771162 1_455
Al2 Ti6 2.773147 1_555
Al2 Ti7 2.773154 1_556
Al2 Ti5 2.819183 1_455
Al2 Ti3 2.861963 1_555
Al2 Ti1 2.861966 1_555
Al2 Al3 3.144119 1_556
Al3 Ru3 2.479335 1_555
Al3 Ru1 2.479342 1_555
Al3 Ru2 2.481425 1_555
Al3 Al8 2.771169 1_555
Al3 Ti7 2.773154 1_555
Al3 Ti6 2.773154 1_554
Al3 Ti5 2.819186 1_555
Al3 Ti4 2.861969 1_555
Al3 Ti0 2.861980 1_555
Al4 Ru5 2.490349 1_666
Al4 Ru4 2.493452 1_555
Al4 Ru3 2.493467 1_555
Al4 Ti5 2.822010 1_555
Al4 Ti3 2.827897 1_655
Al4 Ti4 2.827911 1_555
Al4 Al6 3.094642 1_556
Al4 Al7 3.094646 1_555
Al4 Al5 3.109276 1_566
Al5 Ru5 2.490334 1_655
Al5 Ru1 2.493467 1_555
Al5 Ru0 2.493467 1_555
Al5 Ti5 2.822022 1_555
Al5 Ti1 2.827900 1_655
Al5 Ti0 2.827905 1_555
Al5 Al6 3.094646 1_545
Al5 Al7 3.094647 1_544
Al6 Ru0 2.488121 1_565
Al6 Ru4 2.488128 1_554
Al6 Ru2 2.492325 1_555
Al6 Ti4 2.811358 1_555
Al6 Ti0 2.811361 1_555
Al6 Ti2 2.826515 1_655
Al6 Al7 3.075497 1_554
Al7 Ru1 2.488121 1_566
Al7 Ru3 2.488121 1_555
Al7 Ru2 2.492333 1_556
Al7 Ti1 2.811363 1_555
Al7 Ti3 2.811369 1_555
Al7 Ti2 2.826510 1_555
Al8 Ru6 2.533812 1_545
Al8 Ru3 2.662345 1_555
Al8 Ru1 2.662352 1_555
Al8 Ru5 2.671085 1_555
Al8 Ti1 2.867143 1_555
Al8 Ti3 2.867149 1_544
Al8 Ti5 2.869008 1_555
Al9 Ru6 2.533819 1_545
Al9 Ru0 2.662338 1_555
Al9 Ru4 2.662345 1_555
Al9 Ru5 2.671091 1_656
Al9 Ti4 2.867149 1_545
Al9 Ti0 2.867149 1_556
Al9 Ti5 2.869000 1_555
Al10 Ru6 2.541092 1_555
Al10 Ru2 2.660817 1_555
Al10 Ru1 2.674593 1_565
Al10 Ru0 2.674600 1_565
Al10 Al6 2.744957 1_555
Al10 Al7 2.744959 1_554
Al10 Al5 2.764791 1_565
Al10 Ti5 2.877804 1_565
Al10 Ti3 2.904037 1_554
Al10 Ti4 2.904046 1_555
Al10 Ti7 2.913679 1_555
Al10 Al8 2.923358 1_565
Al10 Al9 2.923358 1_565
Al11 Ru6 2.541092 1_545
Al11 Ru2 2.660810 1_556
Al11 Ru3 2.674600 1_555
Al11 Ru4 2.674600 1_555
Al11 Al7 2.744959 1_555
Al11 Al6 2.744959 1_556
Al11 Al4 2.764782 1_555
Al11 Ti5 2.877811 1_555
Al11 Ti0 2.904031 1_556
Al11 Ti1 2.904039 1_555
Al11 Ti6 2.913673 1_555
Al11 Al8 2.923358 1_555
Al11 Al9 2.923364 1_555
Al12 Ru6 2.533491 1_555
Al12 Ru1 2.667943 1_566
Al12 Ru3 2.667943 1_555
Al12 Ru5 2.668041 1_666
Al12 Al7 2.752335 1_555
Al12 Al5 2.756579 1_566
Al12 Al4 2.756592 1_555
Al12 Al9 2.921610 1_565
Al12 Ti0 2.922642 1_566
Al12 Ti4 2.922643 1_555
Al12 Ti7 2.924085 1_555
Al12 Ti6 2.924090 1_565
Al12 Ti2 2.945056 1_555
Al13 Ru6 2.533498 1_555
Al13 Ru0 2.667936 1_465
Al13 Ru4 2.667943 1_454
Al13 Ru5 2.668041 1_565
Al13 Al6 2.752335 1_455
Al13 Al5 2.756571 1_465
Al13 Al4 2.756576 1_454
Al13 Al8 2.921604 1_565
Al13 Ti3 2.922642 1_554
Al13 Ti1 2.922642 1_565
Al13 Ti7 2.924084 1_555
Al13 Ti6 2.924084 1_565
Al13 Ti2 2.945055 1_555
As0 Ti1 2.564088 1_655
As0 Ti4 2.564088 1_555
As0 Ti3 2.564094 1_655
As0 Ti0 2.564094 1_555
As0 Ti2 2.571308 1_655
As0 Ti5 2.582102 1_555
Ru0 Ti6 2.670552 1_655
Ru0 Ti4 3.021114 1_545
Ru0 Ti5 3.066604 1_555
Ru0 Ti2 3.082576 1_645
Ru0 Ti1 3.132049 1_655
Ru1 Ti6 2.670559 1_554
Ru1 Ti3 3.021119 1_544
Ru1 Ti5 3.066605 1_555
Ru1 Ti2 3.082576 1_544
Ru1 Ti0 3.132054 1_555
Ru2 Ti6 2.661889 1_554
Ru2 Ti7 2.661897 1_555
Ru2 Ti3 3.111826 1_554
Ru2 Ti0 3.111826 1_555
Ru2 Ti1 3.111827 1_554
Ru2 Ti4 3.111827 1_555
Ru3 Ti7 2.670559 1_555
Ru3 Ti1 3.021114 1_555
Ru3 Ti5 3.066604 1_555
Ru3 Ti2 3.082576 1_555
Ru3 Ti4 3.132049 1_555
Ru4 Ti7 2.670552 1_656
Ru4 Ti0 3.021107 1_556
Ru4 Ti5 3.066605 1_555
Ru4 Ti2 3.082576 1_656
Ru4 Ti3 3.132042 1_655
Ru5 Ti3 3.042229 1_544
Ru5 Ti0 3.042229 1_455
Ru5 Ti4 3.042230 1_444
Ru5 Ti1 3.042230 1_555
Ru6 Ti7 2.512638 1_555
Ru6 Ti6 2.512645 1_565
