# generated using pymatgen
data_Ca2SiIr2
_symmetry_space_group_name_H-M   'P 1'
_cell_length_a   5.65180112
_cell_length_b   5.65180331
_cell_length_c   7.31226601
_cell_angle_alpha   80.97779607
_cell_angle_beta   80.97780018
_cell_angle_gamma   61.94109956
_symmetry_Int_Tables_number   1
_chemical_formula_structural   Ca2SiIr2
_chemical_formula_sum   'Ca4 Si2 Ir4'
_cell_volume   202.64479010
_cell_formula_units_Z   2
loop_
 _symmetry_equiv_pos_site_id
 _symmetry_equiv_pos_as_xyz
  1  'x, y, z'
loop_
 _atom_site_type_symbol
 _atom_site_label
 _atom_site_symmetry_multiplicity
 _atom_site_fract_x
 _atom_site_fract_y
 _atom_site_fract_z
 _atom_site_occupancy
  Ca  Ca0  1  0.72306075  0.98494381  0.13881164  1
  Ca  Ca1  1  0.01505619  0.27693925  0.36118836  1
  Ca  Ca2  1  0.27693925  0.01505619  0.86118836  1
  Ca  Ca3  1  0.98494381  0.72306075  0.63881164  1
  Si  Si0  1  0.56503162  0.43496838  0.75000000  1
  Si  Si1  1  0.43496838  0.56503162  0.25000000  1
  Ir  Ir0  1  0.77550074  0.48972972  0.98968859  1
  Ir  Ir1  1  0.51027028  0.22449926  0.51031141  1
  Ir  Ir2  1  0.22449926  0.51027028  0.01031141  1
  Ir  Ir3  1  0.48972972  0.77550074  0.48968859  1
loop_
_geom_bond_atom_site_label_1
_geom_bond_atom_site_label_2
_geom_bond_distance
_geom_bond_site_symmetry_2
Ca0 Ir2 2.985741 1_655
Ca0 Ir0 3.022352 1_564
Ca0 Ir3 3.029517 1_555
Ca0 Ir0 3.030825 1_554
Ca0 Ir1 3.042354 1_565
Ca0 Si1 3.075688 1_565
Ca0 Ir2 3.118157 1_565
Ca0 Si1 3.399928 1_555
Ca0 Ca2 3.405995 1_564
Ca0 Si0 3.426569 1_564
Ca0 Ca1 3.512342 1_665
Ca0 Ca2 3.514155 1_664
Ca0 Si1 3.730952 1_655
Ca1 Ir3 2.985741 1_545
Ca1 Ir1 3.022351 1_455
Ca1 Ir2 3.029517 1_555
Ca1 Ir1 3.030824 1_555
Ca1 Ir0 3.042354 1_454
Ca1 Si1 3.075686 1_455
Ca1 Ir3 3.118157 1_455
Ca1 Si1 3.399928 1_555
Ca1 Ca3 3.405996 1_455
Ca1 Si0 3.426569 1_455
Ca1 Ca3 3.514156 1_445
Ca1 Si1 3.730953 1_545
Ca2 Ir0 2.985741 1_455
Ca2 Ir2 3.022352 1_546
Ca2 Ir1 3.029517 1_555
Ca2 Ir2 3.030825 1_556
Ca2 Ir3 3.042354 1_545
Ca2 Si0 3.075688 1_545
Ca2 Ir0 3.118157 1_545
Ca2 Si0 3.399928 1_555
Ca2 Si1 3.426569 1_546
Ca2 Ca3 3.512342 1_445
Ca2 Si0 3.730952 1_455
Ca3 Ir1 2.985741 1_565
Ca3 Ir3 3.022351 1_655
Ca3 Ir0 3.029517 1_555
Ca3 Ir3 3.030824 1_555
Ca3 Ir2 3.042354 1_656
Ca3 Si0 3.075686 1_655
Ca3 Ir1 3.118157 1_655
Ca3 Si0 3.399928 1_555
Ca3 Si1 3.426569 1_655
Ca3 Si0 3.730953 1_565
Ir0 Si0 2.398535 1_555
Ir0 Si1 2.417228 1_556
Ir0 Ir2 2.622698 1_656
Ir1 Si0 2.398536 1_555
Ir1 Si1 2.417229 1_555
Ir1 Ir3 2.622699 1_545
Ir2 Si1 2.398535 1_555
Ir2 Si0 2.417228 1_554
Ir3 Si1 2.398536 1_555
Ir3 Si0 2.417229 1_555
