# generated using pymatgen
data_ScNb3(InC)2
_symmetry_space_group_name_H-M   'P 1'
_cell_length_a   6.43135082
_cell_length_b   6.43135069
_cell_length_c   29.33236549
_cell_angle_alpha   90.00000000
_cell_angle_beta   90.00000000
_cell_angle_gamma   119.99999047
_symmetry_Int_Tables_number   1
_chemical_formula_structural   ScNb3(InC)2
_chemical_formula_sum   'Sc8 Nb24 In16 C16'
_cell_volume   1050.70827561
_cell_formula_units_Z   8
loop_
 _symmetry_equiv_pos_site_id
 _symmetry_equiv_pos_as_xyz
  1  'x, y, z'
loop_
 _atom_site_type_symbol
 _atom_site_label
 _atom_site_symmetry_multiplicity
 _atom_site_fract_x
 _atom_site_fract_y
 _atom_site_fract_z
 _atom_site_occupancy
  Sc  Sc0_0  1  0.16666650  0.33333350  0.20963213  1
  Sc  Sc0_1  1  0.16666650  0.33333350  0.70963213  1
  Sc  Sc0_2  1  0.16666650  0.83333350  0.20963213  1
  Sc  Sc0_3  1  0.16666650  0.83333350  0.70963213  1
  Sc  Sc0_4  1  0.66666650  0.33333350  0.20963213  1
  Sc  Sc0_5  1  0.66666650  0.33333350  0.70963213  1
  Sc  Sc0_6  1  0.66666650  0.83333350  0.20963213  1
  Sc  Sc0_7  1  0.66666650  0.83333350  0.70963213  1
  Nb  Nb0_0  1  0.33333350  0.16666650  0.29346360  1
  Nb  Nb0_1  1  0.33333350  0.16666650  0.79346360  1
  Nb  Nb0_2  1  0.33333350  0.66666650  0.29346360  1
  Nb  Nb0_3  1  0.33333350  0.66666650  0.79346360  1
  Nb  Nb0_4  1  0.83333350  0.16666650  0.29346360  1
  Nb  Nb0_5  1  0.83333350  0.16666650  0.79346360  1
  Nb  Nb0_6  1  0.83333350  0.66666650  0.29346360  1
  Nb  Nb0_7  1  0.83333350  0.66666650  0.79346360  1
  Nb  Nb1_0  1  0.33333350  0.16666650  0.45780670  1
  Nb  Nb1_1  1  0.33333350  0.16666650  0.95780670  1
  Nb  Nb1_2  1  0.33333350  0.66666650  0.45780670  1
  Nb  Nb1_3  1  0.33333350  0.66666650  0.95780670  1
  Nb  Nb1_4  1  0.83333350  0.16666650  0.45780670  1
  Nb  Nb1_5  1  0.83333350  0.16666650  0.95780670  1
  Nb  Nb1_6  1  0.83333350  0.66666650  0.45780670  1
  Nb  Nb1_7  1  0.83333350  0.66666650  0.95780670  1
  Nb  Nb2_0  1  0.16666650  0.33333350  0.03912627  1
  Nb  Nb2_1  1  0.16666650  0.33333350  0.53912627  1
  Nb  Nb2_2  1  0.16666650  0.83333350  0.03912627  1
  Nb  Nb2_3  1  0.16666650  0.83333350  0.53912627  1
  Nb  Nb2_4  1  0.66666650  0.33333350  0.03912627  1
  Nb  Nb2_5  1  0.66666650  0.33333350  0.53912627  1
  Nb  Nb2_6  1  0.66666650  0.83333350  0.03912627  1
  Nb  Nb2_7  1  0.66666650  0.83333350  0.53912627  1
  In  In0_0  1  0.16666650  0.33333350  0.37553313  1
  In  In0_1  1  0.16666650  0.33333350  0.87553313  1
  In  In0_2  1  0.16666650  0.83333350  0.37553313  1
  In  In0_3  1  0.16666650  0.83333350  0.87553313  1
  In  In0_4  1  0.66666650  0.33333350  0.37553313  1
  In  In0_5  1  0.66666650  0.33333350  0.87553313  1
  In  In0_6  1  0.66666650  0.83333350  0.37553313  1
  In  In0_7  1  0.66666650  0.83333350  0.87553313  1
  In  In1_0  1  0.33333350  0.16666650  0.12244207  1
  In  In1_1  1  0.33333350  0.16666650  0.62244207  1
  In  In1_2  1  0.33333350  0.66666650  0.12244207  1
  In  In1_3  1  0.33333350  0.66666650  0.62244207  1
  In  In1_4  1  0.83333350  0.16666650  0.12244207  1
  In  In1_5  1  0.83333350  0.16666650  0.62244207  1
  In  In1_6  1  0.83333350  0.66666650  0.12244207  1
  In  In1_7  1  0.83333350  0.66666650  0.62244207  1
  C  C0_0  1  0.00000000  0.00000000  0.25312966  1
  C  C0_1  1  0.00000000  0.00000000  0.75312966  1
  C  C0_2  1  0.00000000  0.50000000  0.25312966  1
  C  C0_3  1  0.00000000  0.50000000  0.75312966  1
  C  C0_4  1  0.50000000  0.00000000  0.25312966  1
  C  C0_5  1  0.50000000  0.00000000  0.75312966  1
  C  C0_6  1  0.50000000  0.50000000  0.25312966  1
  C  C0_7  1  0.50000000  0.50000000  0.75312966  1
  C  C1_0  1  0.00000000  0.00000000  0.49886693  1
  C  C1_1  1  0.00000000  0.00000000  0.99886693  1
  C  C1_2  1  0.00000000  0.50000000  0.49886693  1
  C  C1_3  1  0.00000000  0.50000000  0.99886693  1
  C  C1_4  1  0.50000000  0.00000000  0.49886693  1
  C  C1_5  1  0.50000000  0.00000000  0.99886693  1
  C  C1_6  1  0.50000000  0.50000000  0.49886693  1
  C  C1_7  1  0.50000000  0.50000000  0.99886693  1
loop_
_geom_bond_atom_site_label_1
_geom_bond_atom_site_label_2
_geom_bond_distance
_geom_bond_site_symmetry_2
In0_0 Nb0_2 3.040051 1_555
In0_0 Nb0_4 3.040051 1_455
In0_0 Nb0_0 3.040054 1_555
In0_0 Nb1_2 3.044793 1_555
In0_0 Nb1_4 3.044793 1_455
In0_0 Nb1_0 3.044796 1_555
In0_0 In0_2 3.215675 1_555
In0_0 In0_2 3.215675 1_545
In0_0 In0_4 3.215675 1_455
In0_0 In0_4 3.215675 1_555
In0_0 In0_6 3.215676 1_555
In0_0 In0_6 3.215676 1_445
In0_1 Nb0_3 3.040051 1_555
In0_1 Nb0_5 3.040051 1_455
In0_1 Nb0_1 3.040054 1_555
In0_1 Nb1_3 3.044793 1_555
In0_1 Nb1_5 3.044793 1_455
In0_1 Nb1_1 3.044796 1_555
In0_1 In0_3 3.215675 1_555
In0_1 In0_3 3.215675 1_545
In0_1 In0_5 3.215675 1_555
In0_1 In0_5 3.215675 1_455
In0_1 In0_7 3.215676 1_445
In0_1 In0_7 3.215676 1_555
In0_2 Nb0_0 3.040051 1_565
In0_2 Nb0_6 3.040051 1_455
In0_2 Nb0_2 3.040054 1_555
In0_2 Nb1_0 3.044793 1_565
In0_2 Nb1_6 3.044793 1_455
In0_2 Nb1_2 3.044796 1_555
In0_2 In0_6 3.215675 1_555
In0_2 In0_6 3.215675 1_455
In0_2 In0_4 3.215676 1_455
In0_2 In0_4 3.215676 1_565
In0_3 Nb0_1 3.040051 1_565
In0_3 Nb0_7 3.040051 1_455
In0_3 Nb0_3 3.040054 1_555
In0_3 Nb1_1 3.044793 1_565
In0_3 Nb1_7 3.044793 1_455
In0_3 Nb1_3 3.044796 1_555
In0_3 In0_7 3.215675 1_555
In0_3 In0_7 3.215675 1_455
In0_3 In0_5 3.215676 1_565
In0_3 In0_5 3.215676 1_455
In0_4 Nb0_6 3.040051 1_555
In0_4 Nb0_0 3.040051 1_555
In0_4 Nb0_4 3.040054 1_555
In0_4 Nb1_6 3.044793 1_555
In0_4 Nb1_0 3.044793 1_555
In0_4 Nb1_4 3.044796 1_555
In0_4 In0_6 3.215675 1_545
In0_4 In0_6 3.215675 1_555
In0_5 Nb0_7 3.040051 1_555
In0_5 Nb0_1 3.040051 1_555
In0_5 Nb0_5 3.040054 1_555
In0_5 Nb1_7 3.044793 1_555
In0_5 Nb1_1 3.044793 1_555
In0_5 Nb1_5 3.044796 1_555
In0_5 In0_7 3.215675 1_545
In0_5 In0_7 3.215675 1_555
In0_6 Nb0_4 3.040051 1_565
In0_6 Nb0_2 3.040051 1_555
In0_6 Nb0_6 3.040054 1_555
In0_6 Nb1_4 3.044793 1_565
In0_6 Nb1_2 3.044793 1_555
In0_6 Nb1_6 3.044796 1_555
In0_7 Nb0_5 3.040051 1_565
In0_7 Nb0_3 3.040051 1_555
In0_7 Nb0_7 3.040054 1_555
In0_7 Nb1_5 3.044793 1_565
In0_7 Nb1_3 3.044793 1_555
In0_7 Nb1_7 3.044796 1_555
In1_0 Nb2_2 3.069080 1_545
In1_0 Nb2_4 3.069080 1_555
In1_0 Nb2_0 3.069083 1_555
In1_0 Sc0_2 3.160318 1_545
In1_0 Sc0_4 3.160318 1_555
In1_0 Sc0_0 3.160321 1_555
In1_0 In1_2 3.215675 1_555
In1_0 In1_2 3.215675 1_545
In1_0 In1_4 3.215675 1_555
In1_0 In1_4 3.215675 1_455
In1_0 In1_6 3.215676 1_555
In1_0 In1_6 3.215676 1_445
In1_1 Nb2_3 3.069080 1_545
In1_1 Nb2_5 3.069080 1_555
In1_1 Nb2_1 3.069083 1_555
In1_1 Sc0_3 3.160318 1_545
In1_1 Sc0_5 3.160318 1_555
In1_1 Sc0_1 3.160321 1_555
In1_1 In1_3 3.215675 1_545
In1_1 In1_3 3.215675 1_555
In1_1 In1_5 3.215675 1_555
In1_1 In1_5 3.215675 1_455
In1_1 In1_7 3.215676 1_445
In1_1 In1_7 3.215676 1_555
In1_2 Nb2_0 3.069080 1_555
In1_2 Nb2_6 3.069080 1_555
In1_2 Nb2_2 3.069083 1_555
In1_2 Sc0_0 3.160318 1_555
In1_2 Sc0_6 3.160318 1_555
In1_2 Sc0_2 3.160321 1_555
In1_2 In1_6 3.215675 1_555
In1_2 In1_6 3.215675 1_455
In1_2 In1_4 3.215676 1_565
In1_2 In1_4 3.215676 1_455
In1_3 Nb2_1 3.069080 1_555
In1_3 Nb2_7 3.069080 1_555
In1_3 Nb2_3 3.069083 1_555
In1_3 Sc0_1 3.160318 1_555
In1_3 Sc0_7 3.160318 1_555
In1_3 Sc0_3 3.160321 1_555
In1_3 In1_7 3.215675 1_555
In1_3 In1_7 3.215675 1_455
In1_3 In1_5 3.215676 1_565
In1_3 In1_5 3.215676 1_455
In1_4 Nb2_6 3.069080 1_545
In1_4 Nb2_0 3.069080 1_655
In1_4 Nb2_4 3.069083 1_555
In1_4 Sc0_6 3.160318 1_545
In1_4 Sc0_0 3.160318 1_655
In1_4 Sc0_4 3.160321 1_555
In1_4 In1_6 3.215675 1_545
In1_4 In1_6 3.215675 1_555
In1_5 Nb2_7 3.069080 1_545
In1_5 Nb2_1 3.069080 1_655
In1_5 Nb2_5 3.069083 1_555
In1_5 Sc0_7 3.160318 1_545
In1_5 Sc0_1 3.160318 1_655
In1_5 Sc0_5 3.160321 1_555
In1_5 In1_7 3.215675 1_545
In1_5 In1_7 3.215675 1_555
In1_6 Nb2_4 3.069080 1_555
In1_6 Nb2_2 3.069080 1_655
In1_6 Nb2_6 3.069083 1_555
In1_6 Sc0_4 3.160318 1_555
In1_6 Sc0_2 3.160318 1_655
In1_6 Sc0_6 3.160321 1_555
In1_7 Nb2_5 3.069080 1_555
In1_7 Nb2_3 3.069080 1_655
In1_7 Nb2_7 3.069083 1_555
In1_7 Sc0_5 3.160318 1_555
In1_7 Sc0_3 3.160318 1_655
In1_7 Sc0_7 3.160321 1_555
C0_0 Nb0_4 2.201488 1_455
C0_0 Nb0_6 2.201491 1_445
C0_0 Nb0_0 2.201491 1_555
C0_0 Sc0_2 2.252717 1_545
C0_0 Sc0_0 2.252719 1_555
C0_0 Sc0_6 2.252719 1_445
C0_1 Nb0_5 2.201488 1_455
C0_1 Nb0_7 2.201491 1_445
C0_1 Nb0_1 2.201491 1_555
C0_1 Sc0_3 2.252717 1_545
C0_1 Sc0_1 2.252719 1_555
C0_1 Sc0_7 2.252719 1_445
C0_2 Nb0_6 2.201488 1_455
C0_2 Nb0_4 2.201491 1_455
C0_2 Nb0_2 2.201491 1_555
C0_2 Sc0_0 2.252717 1_555
C0_2 Sc0_2 2.252719 1_555
C0_2 Sc0_4 2.252719 1_455
C0_3 Nb0_7 2.201488 1_455
C0_3 Nb0_5 2.201491 1_455
C0_3 Nb0_3 2.201491 1_555
C0_3 Sc0_1 2.252717 1_555
C0_3 Sc0_3 2.252719 1_555
C0_3 Sc0_5 2.252719 1_455
C0_4 Nb0_0 2.201488 1_555
C0_4 Nb0_2 2.201491 1_545
C0_4 Nb0_4 2.201491 1_555
C0_4 Sc0_6 2.252717 1_545
C0_4 Sc0_4 2.252719 1_555
C0_4 Sc0_2 2.252719 1_545
C0_5 Nb0_1 2.201488 1_555
C0_5 Nb0_3 2.201491 1_545
C0_5 Nb0_5 2.201491 1_555
C0_5 Sc0_7 2.252717 1_545
C0_5 Sc0_5 2.252719 1_555
C0_5 Sc0_3 2.252719 1_545
C0_6 Nb0_2 2.201488 1_555
C0_6 Nb0_0 2.201491 1_555
C0_6 Nb0_6 2.201491 1_555
C0_6 Sc0_4 2.252717 1_555
C0_6 Sc0_6 2.252719 1_555
C0_6 Sc0_0 2.252719 1_555
C0_7 Nb0_3 2.201488 1_555
C0_7 Nb0_1 2.201491 1_555
C0_7 Nb0_7 2.201491 1_555
C0_7 Sc0_5 2.252717 1_555
C0_7 Sc0_7 2.252719 1_555
C0_7 Sc0_1 2.252719 1_555
C1_0 Nb2_3 2.200313 1_545
C1_0 Nb2_1 2.200316 1_555
C1_0 Nb2_7 2.200316 1_445
C1_0 Nb1_4 2.213010 1_455
C1_0 Nb1_6 2.213012 1_445
C1_0 Nb1_0 2.213012 1_555
C1_1 Nb2_2 2.200313 1_546
C1_1 Nb2_0 2.200316 1_556
C1_1 Nb2_6 2.200316 1_446
C1_1 Nb1_5 2.213010 1_455
C1_1 Nb1_7 2.213012 1_445
C1_1 Nb1_1 2.213012 1_555
C1_2 Nb2_1 2.200313 1_555
C1_2 Nb2_3 2.200316 1_555
C1_2 Nb2_5 2.200316 1_455
C1_2 Nb1_6 2.213010 1_455
C1_2 Nb1_4 2.213012 1_455
C1_2 Nb1_2 2.213012 1_555
C1_3 Nb2_0 2.200313 1_556
C1_3 Nb2_2 2.200316 1_556
C1_3 Nb2_4 2.200316 1_456
C1_3 Nb1_7 2.213010 1_455
C1_3 Nb1_5 2.213012 1_455
C1_3 Nb1_3 2.213012 1_555
C1_4 Nb2_7 2.200313 1_545
C1_4 Nb2_5 2.200316 1_555
C1_4 Nb2_3 2.200316 1_545
C1_4 Nb1_0 2.213010 1_555
C1_4 Nb1_2 2.213012 1_545
C1_4 Nb1_4 2.213012 1_555
C1_5 Nb2_6 2.200313 1_546
C1_5 Nb2_4 2.200316 1_556
C1_5 Nb2_2 2.200316 1_546
C1_5 Nb1_1 2.213010 1_555
C1_5 Nb1_3 2.213012 1_545
C1_5 Nb1_5 2.213012 1_555
C1_6 Nb2_5 2.200313 1_555
C1_6 Nb2_7 2.200316 1_555
C1_6 Nb2_1 2.200316 1_555
C1_6 Nb1_2 2.213010 1_555
C1_6 Nb1_0 2.213012 1_555
C1_6 Nb1_6 2.213012 1_555
C1_7 Nb2_4 2.200313 1_556
C1_7 Nb2_6 2.200316 1_556
C1_7 Nb2_0 2.200316 1_556
C1_7 Nb1_3 2.213010 1_555
C1_7 Nb1_1 2.213012 1_555
C1_7 Nb1_7 2.213012 1_555
