# generated using pymatgen
data_MnFeAs
_symmetry_space_group_name_H-M   'P 1'
_cell_length_a   6.38788786
_cell_length_b   6.38780440
_cell_length_c   3.32936887
_cell_angle_alpha   90.00000230
_cell_angle_beta   89.99999806
_cell_angle_gamma   119.99793458
_symmetry_Int_Tables_number   1
_chemical_formula_structural   MnFeAs
_chemical_formula_sum   'Mn3 Fe3 As3'
_cell_volume   117.65502413
_cell_formula_units_Z   3
loop_
 _symmetry_equiv_pos_site_id
 _symmetry_equiv_pos_as_xyz
  1  'x, y, z'
loop_
 _atom_site_type_symbol
 _atom_site_label
 _atom_site_symmetry_multiplicity
 _atom_site_fract_x
 _atom_site_fract_y
 _atom_site_fract_z
 _atom_site_occupancy
  Mn  Mn0  1  0.60167169  0.00000201  0.50000001  1
  Mn  Mn1  1  0.39832734  0.39834385  0.50000003  1
  Mn  Mn2  1  -0.00001419  0.60163095  0.50000003  1
  Fe  Fe0  1  0.26057647  -0.00002868  0.00000004  1
  Fe  Fe1  1  0.73944817  0.73944222  -0.00000008  1
  Fe  Fe2  1  -0.00002216  0.26058382  -0.00000004  1
  As  As0  1  0.33338469  0.66664850  -0.00000009  1
  As  As1  1  0.66658237  0.33333075  0.00000015  1
  As  As2  1  0.00004662  0.00004658  0.49999995  1
loop_
_geom_bond_atom_site_label_1
_geom_bond_atom_site_label_2
_geom_bond_distance
_geom_bond_site_symmetry_2
Fe0 Mn0 2.741944 1_555
Fe0 Mn0 2.741944 1_554
Fe0 Mn2 2.789503 1_544
Fe0 Mn2 2.789503 1_545
Fe0 Mn1 2.789630 1_555
Fe0 Mn1 2.789630 1_554
Fe0 Fe1 2.882980 1_445
Fe0 Fe2 2.883329 1_555
Fe1 Mn1 2.742137 1_554
Fe1 Mn1 2.742138 1_555
Fe1 Mn0 2.789399 1_564
Fe1 Mn0 2.789399 1_565
Fe1 Mn2 2.789438 1_654
Fe1 Mn2 2.789439 1_655
Fe1 Fe2 2.883016 1_665
Fe2 Mn2 2.741735 1_554
Fe2 Mn2 2.741735 1_555
Fe2 Mn0 2.789378 1_454
Fe2 Mn0 2.789378 1_455
Fe2 Mn1 2.789537 1_554
Fe2 Mn1 2.789537 1_555
As0 Fe1 2.395498 1_555
As0 Fe0 2.395833 1_565
As0 Fe2 2.395840 1_555
As0 Mn1 2.567411 1_554
As0 Mn1 2.567411 1_555
As0 Mn0 2.567775 1_564
As0 Mn0 2.567775 1_565
As0 Mn2 2.568052 1_554
As0 Mn2 2.568052 1_555
As1 Fe0 2.395507 1_555
As1 Fe1 2.395605 1_555
As1 Fe2 2.396064 1_655
As1 Mn1 2.567411 1_555
As1 Mn1 2.567411 1_554
As1 Mn0 2.567867 1_555
As1 Mn0 2.567868 1_554
As1 Mn2 2.567962 1_655
As1 Mn2 2.567963 1_654
As2 Fe0 2.354072 1_555
As2 Fe0 2.354072 1_556
As2 Fe2 2.354075 1_556
As2 Fe2 2.354075 1_555
As2 Fe1 2.354254 1_446
As2 Fe1 2.354254 1_445
As2 Mn1 2.544288 1_555
As2 Mn0 2.544632 1_455
As2 Mn2 2.544807 1_545
