# generated using pymatgen
data_Li5GaO4
_symmetry_space_group_name_H-M   'P 1'
_cell_length_a   9.03365016
_cell_length_b   9.09319375
_cell_length_c   9.11141053
_cell_angle_alpha   90.00000000
_cell_angle_beta   90.00000000
_cell_angle_gamma   90.00000000
_symmetry_Int_Tables_number   1
_chemical_formula_structural   Li5GaO4
_chemical_formula_sum   'Li40 Ga8 O32'
_cell_volume   748.45436861
_cell_formula_units_Z   8
loop_
 _symmetry_equiv_pos_site_id
 _symmetry_equiv_pos_as_xyz
  1  'x, y, z'
loop_
 _atom_site_type_symbol
 _atom_site_label
 _atom_site_symmetry_multiplicity
 _atom_site_fract_x
 _atom_site_fract_y
 _atom_site_fract_z
 _atom_site_occupancy
  Li  Li0  1  0.89653178  0.38155811  0.84398660  1
  Li  Li1  1  0.39653178  0.61844189  0.65601340  1
  Li  Li2  1  0.60346822  0.88155811  0.15601340  1
  Li  Li3  1  0.10346822  0.11844189  0.34398660  1
  Li  Li4  1  0.10346822  0.61844189  0.15601340  1
  Li  Li5  1  0.60346822  0.38155811  0.34398660  1
  Li  Li6  1  0.39653178  0.11844189  0.84398660  1
  Li  Li7  1  0.89653178  0.88155811  0.65601340  1
  Li  Li8  1  0.89524276  0.12677928  0.14602008  1
  Li  Li9  1  0.39524276  0.87322072  0.35397992  1
  Li  Li10  1  0.60475724  0.62677928  0.85397992  1
  Li  Li11  1  0.10475724  0.37322072  0.64602008  1
  Li  Li12  1  0.10475724  0.87322072  0.85397992  1
  Li  Li13  1  0.60475724  0.12677928  0.64602008  1
  Li  Li14  1  0.39524276  0.37322072  0.14602008  1
  Li  Li15  1  0.89524276  0.62677928  0.35397992  1
  Li  Li16  1  0.85983794  0.38759664  0.10667932  1
  Li  Li17  1  0.35983794  0.61240336  0.39332068  1
  Li  Li18  1  0.64016206  0.88759664  0.89332068  1
  Li  Li19  1  0.83610725  0.60739133  0.62056394  1
  Li  Li20  1  0.14016206  0.61240336  0.89332068  1
  Li  Li21  1  0.64016206  0.38759664  0.60667932  1
  Li  Li22  1  0.35983794  0.11240336  0.10667932  1
  Li  Li23  1  0.85983794  0.88759664  0.39332068  1
  Li  Li24  1  0.87299666  0.14532076  0.62034937  1
  Li  Li25  1  0.37299666  0.85467924  0.87965063  1
  Li  Li26  1  0.62700334  0.64532076  0.37965063  1
  Li  Li27  1  0.12700334  0.35467924  0.12034937  1
  Li  Li28  1  0.12700334  0.85467924  0.37965063  1
  Li  Li29  1  0.62700334  0.14532076  0.12034937  1
  Li  Li30  1  0.37299666  0.35467924  0.62034937  1
  Li  Li31  1  0.87299666  0.64532076  0.87965063  1
  Li  Li32  1  0.83610725  0.10739133  0.87943606  1
  Li  Li33  1  0.33610725  0.89260867  0.62056394  1
  Li  Li34  1  0.66389275  0.60739133  0.12056394  1
  Li  Li35  1  0.16389275  0.39260867  0.37943606  1
  Li  Li36  1  0.16389275  0.89260867  0.12056394  1
  Li  Li37  1  0.66389275  0.10739133  0.37943606  1
  Li  Li38  1  0.33610725  0.39260867  0.87943606  1
  Li  Li39  1  0.14016206  0.11240336  0.60667932  1
  Ga  Ga0  1  0.88268342  0.35455328  0.38242011  1
  Ga  Ga1  1  0.38268342  0.64544672  0.11757989  1
  Ga  Ga2  1  0.61731658  0.85455328  0.61757989  1
  Ga  Ga3  1  0.11731658  0.14544672  0.88242011  1
  Ga  Ga4  1  0.11731658  0.64544672  0.61757989  1
  Ga  Ga5  1  0.61731658  0.35455328  0.88242011  1
  Ga  Ga6  1  0.38268342  0.14544672  0.38242011  1
  Ga  Ga7  1  0.88268342  0.85455328  0.11757989  1
  O  O0  1  0.76090952  0.25053883  0.25395020  1
  O  O1  1  0.26090952  0.74946117  0.24604980  1
  O  O2  1  0.73909048  0.75053883  0.74604980  1
  O  O3  1  0.23909048  0.24946117  0.75395020  1
  O  O4  1  0.23909048  0.74946117  0.74604980  1
  O  O5  1  0.73909048  0.25053883  0.75395020  1
  O  O6  1  0.26090952  0.24946117  0.25395020  1
  O  O7  1  0.76090952  0.75053883  0.24604980  1
  O  O8  1  0.75496289  0.49207136  0.46650390  1
  O  O9  1  0.25496289  0.50792864  0.03349610  1
  O  O10  1  0.74503711  0.99207136  0.53349610  1
  O  O11  1  0.24503711  0.00792864  0.96650390  1
  O  O12  1  0.24503711  0.50792864  0.53349610  1
  O  O13  1  0.74503711  0.49207136  0.96650390  1
  O  O14  1  0.25496289  0.00792864  0.46650390  1
  O  O15  1  0.75496289  0.99207136  0.03349610  1
  O  O16  1  0.00091640  0.46782252  0.25543786  1
  O  O17  1  0.50091640  0.53217748  0.24456214  1
  O  O18  1  0.49908360  0.96782252  0.74456214  1
  O  O19  1  0.99908360  0.03217748  0.75543786  1
  O  O20  1  0.01422936  0.74955792  0.00454263  1
  O  O21  1  0.49908360  0.46782252  0.75543786  1
  O  O22  1  0.50091640  0.03217748  0.25543786  1
  O  O23  1  0.00091640  0.96782252  0.24456214  1
  O  O24  1  0.01422936  0.24955792  0.49545737  1
  O  O25  1  0.51422936  0.75044208  0.00454263  1
  O  O26  1  0.48577064  0.74955792  0.50454263  1
  O  O27  1  0.98577064  0.25044208  0.99545737  1
  O  O28  1  0.98577064  0.75044208  0.50454263  1
  O  O29  1  0.48577064  0.24955792  0.99545737  1
  O  O30  1  0.51422936  0.25044208  0.49545737  1
  O  O31  1  0.99908360  0.53217748  0.74456214  1
loop_
_geom_bond_atom_site_label_1
_geom_bond_atom_site_label_2
_geom_bond_distance
_geom_bond_site_symmetry_2
Li0 O31 1.885400 1_555
Li0 O27 1.994012 1_555
Li0 O5 2.028604 1_555
Li0 O13 2.031976 1_555
Li0 Li16 2.416970 1_556
Li0 Li11 2.607216 1_655
Li1 O21 1.885400 1_555
Li1 O26 1.994012 1_555
Li1 O4 2.028604 1_555
Li1 O12 2.031976 1_555
Li1 Li17 2.416970 1_555
Li1 Li10 2.607216 1_555
Li2 O22 1.885400 1_565
Li2 O25 1.994012 1_555
Li2 O7 2.028604 1_555
Li2 O15 2.031976 1_555
Li2 Li9 2.607216 1_555
Li3 O23 1.885400 1_545
Li3 O24 1.994012 1_555
Li3 O6 2.028604 1_555
Li3 O14 2.031976 1_555
Li3 Li39 2.416970 1_555
Li3 Li8 2.607216 1_455
Li4 O16 1.885400 1_555
Li4 O20 1.994012 1_555
Li4 O1 2.028604 1_555
Li4 O9 2.031976 1_555
Li5 O17 1.885400 1_555
Li5 O30 1.994012 1_555
Li5 O0 2.028604 1_555
Li5 O8 2.031976 1_555
Li6 O18 1.885400 1_545
Li6 O29 1.994012 1_555
Li6 O3 2.028604 1_555
Li6 O11 2.031976 1_555
Li7 O19 1.885400 1_565
Li7 O28 1.994012 1_555
Li7 O2 2.028604 1_555
Li7 O10 2.031976 1_555
Li8 O0 1.925137 1_555
Li8 O23 1.951076 1_645
Li8 O27 1.953256 1_554
Li8 O15 2.038990 1_545
Li9 O1 1.925137 1_555
Li9 O22 1.951076 1_565
Li9 O26 1.953256 1_555
Li9 O14 2.038990 1_565
Li10 O2 1.925137 1_555
Li10 O21 1.951076 1_555
Li10 O25 1.953256 1_556
Li10 O13 2.038990 1_555
Li10 Li18 2.419827 1_555
Li10 Li31 2.440275 1_555
Li10 Li34 2.493249 1_556
Li11 O3 1.925137 1_555
Li11 O31 1.951076 1_455
Li11 O24 1.953256 1_555
Li11 O12 2.038990 1_555
Li11 Li39 2.419827 1_555
Li11 Li30 2.440275 1_555
Li11 Li35 2.493249 1_555
Li12 O4 1.925137 1_555
Li12 O19 1.951076 1_465
Li12 O20 1.953256 1_556
Li12 O11 2.038990 1_565
Li12 Li20 2.419827 1_555
Li12 Li25 2.440275 1_555
Li12 Li36 2.493249 1_556
Li12 Li7 2.607216 1_455
Li13 O5 1.925137 1_555
Li13 O18 1.951076 1_545
Li13 O30 1.953256 1_555
Li13 O10 2.038990 1_545
Li13 Li21 2.419827 1_555
Li13 Li24 2.440275 1_555
Li13 Li37 2.493249 1_555
Li13 Li6 2.607216 1_555
Li14 O6 1.925137 1_555
Li14 O17 1.951076 1_555
Li14 O29 1.953256 1_554
Li14 O9 2.038990 1_555
Li14 Li22 2.419827 1_555
Li14 Li27 2.440275 1_555
Li14 Li38 2.493249 1_554
Li14 Li5 2.607216 1_555
Li15 O7 1.925137 1_555
Li15 O16 1.951076 1_655
Li15 O28 1.953256 1_555
Li15 O8 2.038990 1_555
Li15 Li23 2.419827 1_555
Li15 Li26 2.440275 1_555
Li15 Li19 2.493249 1_555
Li15 Li4 2.607216 1_655
Li16 O13 1.899806 1_554
Li16 O27 1.968909 1_554
Li16 O16 1.998381 1_655
Li16 O0 2.037761 1_555
Li16 Li8 2.419827 1_555
Li16 Li27 2.435157 1_655
Li17 O12 1.899806 1_555
Li17 O26 1.968909 1_555
Li17 O17 1.998381 1_555
Li17 O1 2.037761 1_555
Li17 Li9 2.419827 1_555
Li17 Li26 2.435157 1_555
Li18 O15 1.899806 1_556
Li18 O25 1.968909 1_556
Li18 O18 1.998381 1_555
Li18 O2 2.037761 1_555
Li18 Li2 2.416970 1_556
Li18 Li25 2.435157 1_555
Li19 O8 1.899299 1_555
Li19 O2 1.941572 1_555
Li19 O31 1.977825 1_555
Li19 O28 2.153479 1_555
Li20 O9 1.899806 1_556
Li20 O20 1.968909 1_556
Li20 O31 1.998381 1_455
Li20 O4 2.037761 1_555
Li20 Li4 2.416970 1_556
Li20 Li31 2.435157 1_455
Li21 O8 1.899806 1_555
Li21 O30 1.968909 1_555
Li21 O21 1.998381 1_555
Li21 O5 2.037761 1_555
Li21 Li5 2.416970 1_555
Li21 Li30 2.435157 1_555
Li22 O11 1.899806 1_554
Li22 O29 1.968909 1_554
Li22 O22 1.998381 1_555
Li22 O6 2.037761 1_555
Li22 Li6 2.416970 1_554
Li22 Li29 2.435157 1_555
Li23 O10 1.899806 1_555
Li23 O28 1.968909 1_555
Li23 O23 1.998381 1_655
Li23 O7 2.037761 1_555
Li23 Li7 2.416970 1_555
Li23 Li28 2.435157 1_655
Li24 O24 1.954767 1_655
Li24 O5 1.964812 1_555
Li24 O19 1.967450 1_555
Li24 O10 1.975946 1_545
Li24 Li39 2.435157 1_655
Li25 O25 1.954767 1_556
Li25 O4 1.964812 1_555
Li25 O18 1.967450 1_555
Li25 O11 1.975946 1_565
Li26 O26 1.954767 1_555
Li26 O7 1.964812 1_555
Li26 O17 1.967450 1_555
Li26 O8 1.975946 1_555
Li27 O27 1.954767 1_454
Li27 O6 1.964812 1_555
Li27 O16 1.967450 1_555
Li27 O9 1.975946 1_555
Li28 O28 1.954767 1_455
Li28 O1 1.964812 1_555
Li28 O23 1.967450 1_555
Li28 O14 1.975946 1_565
Li28 Li9 2.440275 1_555
Li29 O29 1.954767 1_554
Li29 O0 1.964812 1_555
Li29 O22 1.967450 1_555
Li29 O15 1.975946 1_545
Li29 Li8 2.440275 1_555
Li30 O30 1.954767 1_555
Li30 O3 1.964812 1_555
Li30 O21 1.967450 1_555
Li30 O12 1.975946 1_555
Li31 O20 1.954767 1_656
Li31 O2 1.964812 1_555
Li31 O31 1.967450 1_555
Li31 O13 1.975946 1_555
Li32 O15 1.899299 1_546
Li32 O5 1.941572 1_555
Li32 O19 1.977825 1_555
Li32 O27 2.153479 1_555
Li32 Li8 2.493249 1_556
Li33 O14 1.899299 1_565
Li33 O4 1.941572 1_555
Li33 O18 1.977825 1_555
Li33 O26 2.153479 1_555
Li33 Li9 2.493249 1_555
Li34 O13 1.899299 1_554
Li34 O7 1.941572 1_555
Li34 O17 1.977825 1_555
Li34 O25 2.153479 1_555
Li35 O12 1.899299 1_555
Li35 O6 1.941572 1_555
Li35 O16 1.977825 1_555
Li35 O24 2.153479 1_555
Li36 O11 1.899299 1_564
Li36 O1 1.941572 1_555
Li36 O23 1.977825 1_555
Li36 O20 2.153479 1_555
Li37 O10 1.899299 1_545
Li37 O0 1.941572 1_555
Li37 O22 1.977825 1_555
Li37 O30 2.153479 1_555
Li38 O9 1.899299 1_556
Li38 O3 1.941572 1_555
Li38 O21 1.977825 1_555
Li38 O29 2.153479 1_555
Li39 O14 1.899806 1_555
Li39 O24 1.968909 1_555
Li39 O19 1.998381 1_455
Li39 O3 2.037761 1_555
Ga0 O24 1.839685 1_655
Ga0 O0 1.864105 1_555
Ga0 O8 1.865973 1_555
Ga0 O16 1.881558 1_655
Ga1 O25 1.839685 1_555
Ga1 O1 1.864105 1_555
Ga1 O9 1.865973 1_555
Ga1 O17 1.881558 1_555
Ga2 O26 1.839685 1_555
Ga2 O2 1.864105 1_555
Ga2 O10 1.865973 1_555
Ga2 O18 1.881558 1_555
Ga3 O27 1.839685 1_455
Ga3 O3 1.864105 1_555
Ga3 O11 1.865973 1_555
Ga3 O19 1.881558 1_455
Ga4 O28 1.839685 1_455
Ga4 O4 1.864105 1_555
Ga4 O12 1.865973 1_555
Ga4 O31 1.881558 1_455
Ga5 O29 1.839685 1_555
Ga5 O5 1.864105 1_555
Ga5 O13 1.865973 1_555
Ga5 O21 1.881558 1_555
Ga6 O30 1.839685 1_555
Ga6 O6 1.864105 1_555
Ga6 O14 1.865973 1_555
Ga6 O22 1.881558 1_555
Ga7 O20 1.839685 1_655
Ga7 O7 1.864105 1_555
Ga7 O15 1.865973 1_555
Ga7 O23 1.881558 1_655
