# generated using pymatgen
data_SrAl3P2(HO2)7
_symmetry_space_group_name_H-M   'P 1'
_cell_length_a   6.84120114
_cell_length_b   6.84120114
_cell_length_c   6.84120051
_cell_angle_alpha   63.26834916
_cell_angle_beta   63.26834916
_cell_angle_gamma   63.26835291
_symmetry_Int_Tables_number   1
_chemical_formula_structural   SrAl3P2(HO2)7
_chemical_formula_sum   'Sr1 Al3 P2 H7 O14'
_cell_volume   242.79611964
_cell_formula_units_Z   1
loop_
 _symmetry_equiv_pos_site_id
 _symmetry_equiv_pos_as_xyz
  1  'x, y, z'
loop_
 _atom_site_type_symbol
 _atom_site_label
 _atom_site_symmetry_multiplicity
 _atom_site_fract_x
 _atom_site_fract_y
 _atom_site_fract_z
 _atom_site_occupancy
  Sr  Sr0  1  0.00030600  0.00030600  0.00030600  1
  Al  Al0  1  0.99794300  0.99794300  0.50402100  1
  Al  Al1  1  0.50402100  0.99794300  0.99794300  1
  Al  Al2  1  0.99794300  0.50402100  0.99794300  1
  P  P0  1  0.69009000  0.69009000  0.69009000  1
  P  P1  1  0.30539700  0.30539700  0.30539700  1
  H  H0  1  0.69511100  0.69511100  0.28651000  1
  H  H1  1  0.28651000  0.69511100  0.69511100  1
  H  H2  1  0.29292300  0.72930800  0.29292300  1
  H  H3  1  0.69511100  0.28651000  0.69511100  1
  H  H4  1  0.46263700  0.46263700  0.46263700  1
  H  H5  1  0.29292300  0.29292300  0.72930800  1
  H  H6  1  0.72930800  0.29292300  0.29292300  1
  O  O0  1  0.84101500  0.84101500  0.48739900  1
  O  O1  1  0.48739900  0.84101500  0.84101500  1
  O  O2  1  0.84101500  0.48739900  0.84101500  1
  O  O3  1  0.59553400  0.59553400  0.59553400  1
  O  O4  1  0.11564500  0.74041200  0.74041200  1
  O  O5  1  0.74041200  0.74041200  0.11564500  1
  O  O6  1  0.25904700  0.89348900  0.25904700  1
  O  O7  1  0.74041200  0.11564500  0.74041200  1
  O  O8  1  0.25904700  0.25904700  0.89348900  1
  O  O9  1  0.89348900  0.25904700  0.25904700  1
  O  O10  1  0.40286400  0.40286400  0.40286400  1
  O  O11  1  0.16081800  0.51526700  0.16081800  1
  O  O12  1  0.16081800  0.16081800  0.51526700  1
  O  O13  1  0.51526700  0.16081800  0.16081800  1
loop_
_geom_bond_atom_site_label_1
_geom_bond_atom_site_label_2
_geom_bond_distance
_geom_bond_site_symmetry_2
Al0 O0 1.890659 1_555
Al0 O4 1.923471 1_655
Al0 O7 1.923471 1_565
Al0 O6 1.935457 1_655
Al0 O9 1.935457 1_565
Al0 O12 1.939142 1_665
Al1 O1 1.890659 1_555
Al1 O7 1.923471 1_565
Al1 O5 1.923471 1_556
Al1 O6 1.935457 1_556
Al1 O8 1.935457 1_565
Al1 O13 1.939142 1_566
Al2 O2 1.890659 1_555
Al2 O4 1.923471 1_655
Al2 O5 1.923471 1_556
Al2 O9 1.935457 1_556
Al2 O8 1.935457 1_655
Al2 O11 1.939142 1_656
H0 O5 0.996530 1_555
H0 O3 1.795491 1_555
H1 O4 0.996530 1_555
H1 O3 1.795491 1_555
H2 O6 0.974142 1_555
H2 Sr0 2.894737 1_565
H3 O7 0.996530 1_555
H3 O3 1.795491 1_555
H4 O10 0.976185 1_555
H5 O8 0.974142 1_555
H5 Sr0 2.894737 1_556
H6 O9 0.974142 1_555
H6 Sr0 2.894737 1_655
O0 P0 1.561402 1_555
O0 Sr0 2.830890 1_665
O1 P0 1.561402 1_555
O1 Sr0 2.830891 1_566
O2 P0 1.561402 1_555
O2 Sr0 2.830891 1_656
O3 P0 1.544244 1_555
O4 Sr0 2.695327 1_566
O5 Sr0 2.695327 1_665
O6 Sr0 2.700353 1_565
O7 Sr0 2.695327 1_656
O8 Sr0 2.700353 1_556
O9 Sr0 2.700353 1_655
O10 P1 1.591785 1_555
O11 P1 1.530691 1_555
O11 Sr0 2.819780 1_565
O12 P1 1.530691 1_555
O12 Sr0 2.819780 1_556
O13 P1 1.530691 1_555
O13 Sr0 2.819780 1_655
