# generated using pymatgen
data_NdP5O14
_symmetry_space_group_name_H-M   'P 1'
_cell_length_a   9.17748100
_cell_length_b   8.91431300
_cell_length_c   13.18110947
_cell_angle_alpha   89.70436344
_cell_angle_beta   90.00000000
_cell_angle_gamma   90.00000000
_symmetry_Int_Tables_number   1
_chemical_formula_structural   NdP5O14
_chemical_formula_sum   'Nd4 P20 O56'
_cell_volume   1078.34457670
_cell_formula_units_Z   4
loop_
 _symmetry_equiv_pos_site_id
 _symmetry_equiv_pos_as_xyz
  1  'x, y, z'
loop_
 _atom_site_type_symbol
 _atom_site_label
 _atom_site_symmetry_multiplicity
 _atom_site_fract_x
 _atom_site_fract_y
 _atom_site_fract_z
 _atom_site_occupancy
  Nd  Nd0  1  0.31174600  0.72403600  0.99924000  1
  Nd  Nd1  1  0.81174600  0.27596400  0.50076000  1
  Nd  Nd2  1  0.68825400  0.27596400  0.00076000  1
  Nd  Nd3  1  0.18825400  0.72403600  0.49924000  1
  P  P0  1  0.99678400  0.50496000  0.29710200  1
  P  P1  1  0.49678400  0.49504000  0.20289800  1
  P  P2  1  0.00321600  0.49504000  0.70289800  1
  P  P3  1  0.50321600  0.50496000  0.79710200  1
  P  P4  1  0.95078500  0.76827300  0.16359100  1
  P  P5  1  0.45078500  0.23172700  0.33640900  1
  P  P6  1  0.04921500  0.23172700  0.83640900  1
  P  P7  1  0.54921500  0.76827300  0.66359100  1
  P  P8  1  0.74669800  0.68472600  0.99996700  1
  P  P9  1  0.24669800  0.31527400  0.50003300  1
  P  P10  1  0.25330200  0.31527400  0.00003300  1
  P  P11  1  0.75330200  0.68472600  0.49996700  1
  P  P12  1  0.95327400  0.75730900  0.83562000  1
  P  P13  1  0.45327400  0.24269100  0.66438000  1
  P  P14  1  0.04672600  0.24269100  0.16438000  1
  P  P15  1  0.54672600  0.75730900  0.33562000  1
  P  P16  1  0.00167000  0.99603700  0.67500200  1
  P  P17  1  0.50167000  0.00396300  0.82499800  1
  P  P18  1  0.99833000  0.00396300  0.32499800  1
  P  P19  1  0.49833000  0.99603700  0.17500200  1
  O  O0  1  0.88456600  0.41472800  0.35123500  1
  O  O1  1  0.38456600  0.58527200  0.14876500  1
  O  O2  1  0.11543400  0.58527200  0.64876500  1
  O  O3  1  0.61543400  0.41472800  0.85123500  1
  O  O4  1  0.11453100  0.58751500  0.35045400  1
  O  O5  1  0.61453100  0.41248500  0.14954600  1
  O  O6  1  0.88546900  0.41248500  0.64954600  1
  O  O7  1  0.38546900  0.58751500  0.85045400  1
  O  O8  1  0.90804700  0.62038000  0.22372700  1
  O  O9  1  0.40804700  0.37962000  0.27627300  1
  O  O10  1  0.09195300  0.37962000  0.77627300  1
  O  O11  1  0.59195300  0.62038000  0.72372700  1
  O  O12  1  0.09515300  0.76875000  0.11427600  1
  O  O13  1  0.59515300  0.23125000  0.38572400  1
  O  O14  1  0.90484700  0.23125000  0.88572400  1
  O  O15  1  0.40484700  0.76875000  0.61427600  1
  O  O16  1  0.81579900  0.78805800  0.09067000  1
  O  O17  1  0.31579900  0.21194200  0.40933000  1
  O  O18  1  0.18420100  0.21194200  0.90933000  1
  O  O19  1  0.58721400  0.71358300  0.00018800  1
  O  O20  1  0.68420100  0.78805800  0.59067000  1
  O  O21  1  0.31013500  0.46930800  0.49679400  1
  O  O22  1  0.18986500  0.46930800  0.99679400  1
  O  O23  1  0.68986500  0.53069200  0.50320600  1
  O  O24  1  0.61548800  0.08185500  0.12273600  1
  O  O25  1  0.11548800  0.91814500  0.37726400  1
  O  O26  1  0.38451200  0.91814500  0.87726400  1
  O  O27  1  0.88451200  0.08185500  0.62273600  1
  O  O28  1  0.37956600  0.92036700  0.11795500  1
  O  O29  1  0.87956600  0.07963300  0.38204500  1
  O  O30  1  0.62043400  0.07963300  0.88204500  1
  O  O31  1  0.12043400  0.92036700  0.61795500  1
  O  O32  1  0.58042400  0.87448000  0.24891700  1
  O  O33  1  0.08042400  0.12552000  0.25108300  1
  O  O34  1  0.41957600  0.12552000  0.75108300  1
  O  O35  1  0.91957600  0.87448000  0.74891700  1
  O  O36  1  0.41864800  0.09953600  0.26072900  1
  O  O37  1  0.91864800  0.90046400  0.23927100  1
  O  O38  1  0.58135200  0.90046400  0.73927100  1
  O  O39  1  0.08135200  0.09953600  0.76072900  1
  O  O40  1  0.40599700  0.77476700  0.38861700  1
  O  O41  1  0.90599700  0.22523300  0.11138300  1
  O  O42  1  0.59400300  0.22523300  0.61138300  1
  O  O43  1  0.09400300  0.77476700  0.88861700  1
  O  O44  1  0.68716700  0.77897200  0.40311500  1
  O  O45  1  0.18716700  0.22102800  0.09688500  1
  O  O46  1  0.31283300  0.22102800  0.59688500  1
  O  O47  1  0.81283300  0.77897200  0.90311500  1
  O  O48  1  0.42303700  0.40136500  0.71274900  1
  O  O49  1  0.92303700  0.59863500  0.78725100  1
  O  O50  1  0.57696300  0.59863500  0.28725100  1
  O  O51  1  0.07696300  0.40136500  0.21274900  1
  O  O52  1  0.91278600  0.71358300  0.50018800  1
  O  O53  1  0.41278600  0.28641700  0.99981200  1
  O  O54  1  0.08721400  0.28641700  0.49981200  1
  O  O55  1  0.81013500  0.53069200  0.00320600  1
loop_
_geom_bond_atom_site_label_1
_geom_bond_atom_site_label_2
_geom_bond_distance
_geom_bond_site_symmetry_2
Nd0 O7 2.410319 1_555
Nd0 O1 2.415797 1_556
Nd0 O28 2.434604 1_556
Nd0 O26 2.448738 1_555
Nd0 O43 2.513403 1_555
Nd0 O19 2.529847 1_556
Nd0 O22 2.531633 1_555
Nd0 O12 2.532893 1_556
Nd1 O6 2.410319 1_555
Nd1 O0 2.415797 1_555
Nd1 O29 2.434604 1_555
Nd1 O27 2.448738 1_555
Nd1 O42 2.513403 1_555
Nd1 O54 2.529847 1_655
Nd1 O23 2.531633 1_555
Nd1 O13 2.532893 1_555
Nd2 O5 2.410319 1_555
Nd2 O3 2.415797 1_554
Nd2 O30 2.434604 1_554
Nd2 O24 2.448738 1_555
Nd2 O41 2.513403 1_555
Nd2 O53 2.529847 1_554
Nd2 O55 2.531633 1_555
Nd2 O14 2.532893 1_554
Nd3 O4 2.410319 1_555
Nd3 O2 2.415797 1_555
Nd3 O31 2.434604 1_555
Nd3 O25 2.448738 1_555
Nd3 O40 2.513403 1_555
Nd3 O52 2.529847 1_455
Nd3 O21 2.531633 1_555
Nd3 O15 2.532893 1_555
O0 P0 1.486891 1_555
O1 P1 1.486891 1_555
O2 P2 1.486891 1_555
O3 P3 1.486891 1_555
O4 P0 1.486340 1_455
O5 P1 1.486340 1_555
O6 P2 1.486340 1_655
O7 P3 1.486340 1_555
O8 P4 1.584125 1_555
O8 P0 1.626951 1_555
O9 P5 1.584125 1_555
O9 P1 1.626951 1_555
O10 P6 1.584125 1_555
O10 P2 1.626951 1_555
O11 P7 1.584125 1_555
O11 P3 1.626951 1_555
O12 P4 1.475797 1_455
O13 P5 1.475797 1_555
O14 P6 1.475797 1_655
O15 P7 1.475797 1_555
O16 P4 1.577316 1_555
O16 P8 1.640551 1_554
O17 P5 1.577316 1_555
O17 P9 1.640551 1_555
O18 P6 1.577316 1_555
O18 P10 1.640551 1_556
O19 P8 1.486100 1_554
O20 P7 1.577316 1_555
O20 P11 1.640551 1_555
O21 P9 1.491841 1_555
O22 P10 1.491841 1_556
O23 P11 1.491841 1_555
O24 P19 1.486776 1_545
O25 P18 1.486776 1_465
O26 P17 1.486776 1_565
O27 P16 1.486776 1_645
O28 P19 1.487839 1_555
O29 P18 1.487839 1_555
O30 P17 1.487839 1_555
O31 P16 1.487839 1_555
O32 P15 1.574925 1_555
O32 P19 1.637116 1_555
O33 P14 1.574925 1_555
O33 P18 1.637116 1_455
O34 P13 1.574925 1_555
O34 P17 1.637116 1_555
O35 P12 1.574925 1_555
O35 P16 1.637116 1_655
O36 P5 1.575698 1_555
O36 P19 1.635118 1_545
O37 P4 1.575698 1_555
O37 P18 1.635118 1_565
O38 P7 1.575698 1_555
O38 P17 1.635118 1_565
O39 P6 1.575698 1_555
O39 P16 1.635118 1_545
O40 P15 1.476955 1_555
O41 P14 1.476955 1_655
O42 P13 1.476955 1_555
O43 P12 1.476955 1_455
O44 P15 1.578546 1_555
O44 P11 1.641008 1_555
O45 P14 1.578546 1_555
O45 P10 1.641008 1_555
O46 P13 1.578546 1_555
O46 P9 1.641008 1_555
O47 P12 1.578546 1_555
O47 P8 1.641008 1_555
O48 P13 1.579087 1_555
O48 P3 1.625151 1_555
O49 P12 1.579087 1_555
O49 P2 1.625151 1_655
O50 P15 1.579087 1_555
O50 P1 1.625151 1_555
O51 P14 1.579087 1_555
O51 P0 1.625151 1_455
O52 P11 1.486100 1_555
O53 P10 1.486100 1_556
O54 P9 1.486100 1_555
O55 P8 1.491841 1_554
