# generated using pymatgen
data_Ho(SiPd)2
_symmetry_space_group_name_H-M   'P 1'
_cell_length_a   4.11710430
_cell_length_b   4.11710321
_cell_length_c   5.75538333
_cell_angle_alpha   110.95743355
_cell_angle_beta   110.95743308
_cell_angle_gamma   90.00000139
_symmetry_Int_Tables_number   1
_chemical_formula_structural   Ho(SiPd)2
_chemical_formula_sum   'Ho1 Si2 Pd2'
_cell_volume   84.15592303
_cell_formula_units_Z   1
loop_
 _symmetry_equiv_pos_site_id
 _symmetry_equiv_pos_as_xyz
  1  'x, y, z'
loop_
 _atom_site_type_symbol
 _atom_site_label
 _atom_site_symmetry_multiplicity
 _atom_site_fract_x
 _atom_site_fract_y
 _atom_site_fract_z
 _atom_site_occupancy
  Ho  Ho0  1  0.00000000  0.00000000  -0.00000000  1
  Si  Si0  1  0.61600448  0.61600448  0.23200897  1
  Si  Si1  1  0.38399552  0.38399552  0.76799103  1
  Pd  Pd0  1  0.75000000  0.25000000  0.50000000  1
  Pd  Pd1  1  0.25000000  0.75000000  0.50000000  1
loop_
_geom_bond_atom_site_label_1
_geom_bond_atom_site_label_2
_geom_bond_distance
_geom_bond_site_symmetry_2
Ho0 Si0 3.130829 1_555
Ho0 Si1 3.130829 1_444
Ho0 Si0 3.130829 1_455
Ho0 Si1 3.130829 1_544
Ho0 Si0 3.130829 1_545
Ho0 Si1 3.130829 1_454
Ho0 Si1 3.130829 1_554
Ho0 Si0 3.130829 1_445
Ho0 Pd1 3.224891 1_555
Ho0 Pd0 3.224891 1_444
Ho0 Pd1 3.224892 1_444
Ho0 Pd0 3.224892 1_555
Ho0 Pd0 3.224892 1_454
Ho0 Pd1 3.224892 1_545
Ho0 Pd1 3.224892 1_544
Ho0 Pd0 3.224892 1_455
Si0 Si1 2.303753 1_554
Pd0 Si0 2.451105 1_545
Pd0 Si0 2.451106 1_555
Pd0 Si1 2.451106 1_655
Pd0 Si1 2.451106 1_555
Pd0 Pd1 2.911232 1_655
Pd0 Pd1 2.911232 1_545
Pd0 Pd1 2.911232 1_645
Pd0 Pd1 2.911232 1_555
Pd1 Si1 2.451105 1_565
Pd1 Si1 2.451106 1_555
Pd1 Si0 2.451106 1_455
Pd1 Si0 2.451106 1_555
