# generated using pymatgen
data_V4GaS8
_symmetry_space_group_name_H-M   'P 1'
_cell_length_a   6.86494594
_cell_length_b   6.86489486
_cell_length_c   6.86495033
_cell_angle_alpha   60.00022858
_cell_angle_beta   60.00032528
_cell_angle_gamma   60.00020778
_symmetry_Int_Tables_number   1
_chemical_formula_structural   V4GaS8
_chemical_formula_sum   'V4 Ga1 S8'
_cell_volume   228.76833618
_cell_formula_units_Z   1
loop_
 _symmetry_equiv_pos_site_id
 _symmetry_equiv_pos_as_xyz
  1  'x, y, z'
loop_
 _atom_site_type_symbol
 _atom_site_label
 _atom_site_symmetry_multiplicity
 _atom_site_fract_x
 _atom_site_fract_y
 _atom_site_fract_z
 _atom_site_occupancy
  V  V0  1  0.60617185  0.18144910  0.60619103  1
  V  V1  1  0.18143438  0.60618824  0.60618913  1
  V  V2  1  0.60617453  0.60619015  0.18144718  1
  V  V3  1  0.60617085  0.60618802  0.60619103  1
  Ga  Ga0  1  0.00002776  -0.00000807  -0.00001362  1
  S  S0  1  0.86428231  0.40718155  0.86426635  1
  S  S1  1  0.40717914  0.86427545  0.86427096  1
  S  S2  1  0.86428080  0.86426984  0.40717952  1
  S  S3  1  0.86428131  0.86426979  0.86426635  1
  S  S4  1  0.37140831  0.88576740  0.37141086  1
  S  S5  1  0.37140731  0.37141343  0.37141086  1
  S  S6  1  0.37140679  0.37140647  0.88578128  1
  S  S7  1  0.88577468  0.37140863  0.37140907  1
loop_
_geom_bond_atom_site_label_1
_geom_bond_atom_site_label_2
_geom_bond_distance
_geom_bond_site_symmetry_2
Ga0 S1 2.282175 1_544
Ga0 S3 2.282366 1_444
Ga0 S0 2.282370 1_454
Ga0 S2 2.282411 1_445
S0 V1 2.538170 1_655
S0 V3 2.538322 1_555
S0 V2 2.538332 1_556
S1 V0 2.538219 1_565
S1 V3 2.538226 1_555
S1 V2 2.538254 1_556
S2 V1 2.538193 1_655
S2 V0 2.538328 1_565
S2 V3 2.538334 1_555
S3 V1 2.538171 1_655
S3 V0 2.538312 1_565
S3 V2 2.538319 1_556
S4 V2 2.299925 1_555
S4 V3 2.299943 1_555
S4 V1 2.299980 1_555
S5 V2 2.299942 1_555
S5 V0 2.299953 1_555
S5 V1 2.299982 1_555
S6 V3 2.299964 1_555
S6 V0 2.299973 1_555
S6 V1 2.300051 1_555
S7 V3 2.300044 1_555
S7 V2 2.300046 1_555
S7 V0 2.300048 1_555
