# generated using pymatgen
data_Na2Li2Al3Si3ClO12
_symmetry_space_group_name_H-M   'P 1'
_cell_length_a   8.74115000
_cell_length_b   8.74115000
_cell_length_c   8.75229400
_cell_angle_alpha   90.00000000
_cell_angle_beta   90.00000000
_cell_angle_gamma   90.00000000
_symmetry_Int_Tables_number   1
_chemical_formula_structural   Na2Li2Al3Si3ClO12
_chemical_formula_sum   'Na4 Li4 Al6 Si6 Cl2 O24'
_cell_volume   668.74268334
_cell_formula_units_Z   2
loop_
 _symmetry_equiv_pos_site_id
 _symmetry_equiv_pos_as_xyz
  1  'x, y, z'
loop_
 _atom_site_type_symbol
 _atom_site_label
 _atom_site_symmetry_multiplicity
 _atom_site_fract_x
 _atom_site_fract_y
 _atom_site_fract_z
 _atom_site_occupancy
  Na  Na0  1  0.16353100  0.33788600  0.41544200  1
  Na  Na1  1  0.83646900  0.66211400  0.41544200  1
  Na  Na2  1  0.66211400  0.16353100  0.58455800  1
  Na  Na3  1  0.33788600  0.83646900  0.58455800  1
  Li  Li0  1  0.31307900  0.18906300  0.93792900  1
  Li  Li1  1  0.68692100  0.81093700  0.93792900  1
  Li  Li2  1  0.81093700  0.31307900  0.06207100  1
  Li  Li3  1  0.18906300  0.68692100  0.06207100  1
  Al  Al0  1  0.99916500  0.25002200  0.75629300  1
  Al  Al1  1  0.00083500  0.74997800  0.75629300  1
  Al  Al2  1  0.50000000  0.50000000  0.00000000  1
  Al  Al3  1  0.74997800  0.99916500  0.24370700  1
  Al  Al4  1  0.25002200  0.00083500  0.24370700  1
  Al  Al5  1  0.50000000  0.50000000  0.50000000  1
  Si  Si0  1  0.25176100  0.50180200  0.75592200  1
  Si  Si1  1  0.74823900  0.49819800  0.75592200  1
  Si  Si2  1  0.00000000  0.00000000  0.00000000  1
  Si  Si3  1  0.50180200  0.74823900  0.24407800  1
  Si  Si4  1  0.49819800  0.25176100  0.24407800  1
  Si  Si5  1  0.00000000  0.00000000  0.50000000  1
  Cl  Cl0  1  0.00000000  0.50000000  0.20539100  1
  Cl  Cl1  1  0.50000000  0.00000000  0.79460900  1
  O  O0  1  0.84441000  0.35420200  0.83657700  1
  O  O1  1  0.15559000  0.64579800  0.83657700  1
  O  O2  1  0.35571000  0.41636100  0.88768900  1
  O  O3  1  0.64429000  0.58363900  0.88768900  1
  O  O4  1  0.08569300  0.13400400  0.89759700  1
  O  O5  1  0.91430700  0.86599600  0.89759700  1
  O  O6  1  0.86599600  0.08569300  0.10240300  1
  O  O7  1  0.13400400  0.91430700  0.10240300  1
  O  O8  1  0.58363900  0.35571000  0.11231100  1
  O  O9  1  0.41636100  0.64429000  0.11231100  1
  O  O10  1  0.35420200  0.15559000  0.16342300  1
  O  O11  1  0.64579800  0.84441000  0.16342300  1
  O  O12  1  0.62776900  0.13601200  0.31803200  1
  O  O13  1  0.37223100  0.86398800  0.31803200  1
  O  O14  1  0.42963800  0.35213800  0.38438400  1
  O  O15  1  0.57036200  0.64786200  0.38438400  1
  O  O16  1  0.14036600  0.07187000  0.39612000  1
  O  O17  1  0.85963400  0.92813000  0.39612000  1
  O  O18  1  0.92813000  0.14036600  0.60388000  1
  O  O19  1  0.07187000  0.85963400  0.60388000  1
  O  O20  1  0.35213800  0.57036200  0.61561600  1
  O  O21  1  0.64786200  0.42963800  0.61561600  1
  O  O22  1  0.13601200  0.37223100  0.68196800  1
  O  O23  1  0.86398800  0.62776900  0.68196800  1
loop_
_geom_bond_atom_site_label_1
_geom_bond_atom_site_label_2
_geom_bond_distance
_geom_bond_site_symmetry_2
Na0 O16 2.340204 1_555
Na0 O14 2.345222 1_555
Na0 O22 2.364222 1_555
Na0 O20 3.149114 1_555
Na0 O18 3.151997 1_455
Na1 O17 2.340204 1_555
Na1 O15 2.345222 1_555
Na1 O23 2.364222 1_555
Na1 O21 3.149114 1_555
Na1 O19 3.151997 1_655
Na2 O18 2.340204 1_555
Na2 O21 2.345222 1_555
Na2 O12 2.364222 1_555
Na2 O14 3.149114 1_555
Na2 O17 3.151997 1_545
Na3 O19 2.340204 1_555
Na3 O20 2.345222 1_555
Na3 O13 2.364222 1_555
Na3 O15 3.149114 1_555
Na3 O16 3.151997 1_565
Li0 O10 2.027284 1_556
Li0 O2 2.068760 1_555
Li0 O4 2.075295 1_555
Li1 O11 2.027284 1_556
Li1 O3 2.068760 1_555
Li1 O5 2.075295 1_555
Li2 O0 2.027284 1_554
Li2 O8 2.068760 1_555
Li2 O6 2.075295 1_555
Li3 O1 2.027284 1_554
Li3 O9 2.068760 1_555
Li3 O7 2.075295 1_555
Al0 O22 1.730669 1_655
Al0 O18 1.756066 1_555
Al0 O4 1.769193 1_655
Al0 O0 1.775649 1_555
Al1 O23 1.730669 1_455
Al1 O19 1.756066 1_555
Al1 O5 1.769193 1_455
Al1 O1 1.775649 1_555
Al2 O8 1.758276 1_555
Al2 O9 1.758276 1_555
Al2 O2 1.758276 1_554
Al2 O3 1.758276 1_554
Al3 O12 1.730669 1_565
Al3 O17 1.756066 1_555
Al3 O6 1.769193 1_565
Al3 O11 1.775649 1_555
Al4 O13 1.730669 1_545
Al4 O16 1.756066 1_555
Al4 O7 1.769193 1_545
Al4 O10 1.775649 1_555
Al5 O15 1.752925 1_555
Al5 O20 1.752925 1_555
Al5 O21 1.752925 1_555
Al5 O14 1.752925 1_555
Cl0 Li3 2.640888 1_555
Cl0 Li2 2.640888 1_455
Cl0 Na0 2.726024 1_555
Cl0 Na1 2.726024 1_455
Cl1 Li0 2.640888 1_555
Cl1 Li1 2.640888 1_545
Cl1 Na2 2.726024 1_555
Cl1 Na3 2.726024 1_545
O0 Si1 1.670121 1_555
O1 Si0 1.670121 1_555
O2 Si0 1.647246 1_555
O3 Si1 1.647246 1_555
O4 Si2 1.654215 1_556
O5 Si2 1.654215 1_666
O6 Si2 1.654215 1_655
O7 Si2 1.654215 1_565
O8 Si4 1.647246 1_555
O9 Si3 1.647246 1_555
O10 Si4 1.670121 1_555
O11 Si3 1.670121 1_555
O12 Si4 1.650889 1_555
O13 Si3 1.650889 1_555
O14 Si4 1.623879 1_555
O15 Si3 1.623879 1_555
O16 Si5 1.651279 1_555
O17 Si5 1.651279 1_665
O18 Si5 1.651279 1_655
O19 Si5 1.651279 1_565
O20 Si0 1.623879 1_555
O21 Si1 1.623879 1_555
O22 Si0 1.650889 1_555
O23 Si1 1.650889 1_555
