# generated using pymatgen
data_Na8Al6Si6SO28
_symmetry_space_group_name_H-M   'P 1'
_cell_length_a   9.16741200
_cell_length_b   9.16741200
_cell_length_c   9.16741200
_cell_angle_alpha   90.00000000
_cell_angle_beta   90.00000000
_cell_angle_gamma   90.00000000
_symmetry_Int_Tables_number   1
_chemical_formula_structural   Na8Al6Si6SO28
_chemical_formula_sum   'Na8 Al6 Si6 S1 O28'
_cell_volume   770.44253102
_cell_formula_units_Z   1
loop_
 _symmetry_equiv_pos_site_id
 _symmetry_equiv_pos_as_xyz
  1  'x, y, z'
loop_
 _atom_site_type_symbol
 _atom_site_label
 _atom_site_symmetry_multiplicity
 _atom_site_fract_x
 _atom_site_fract_y
 _atom_site_fract_z
 _atom_site_occupancy
  Na  Na0  1  0.19306500  0.19306500  0.19306500  1
  Na  Na1  1  0.19306500  0.80693500  0.80693500  1
  Na  Na2  1  0.24140300  0.24140300  0.75859700  1
  Na  Na3  1  0.24140300  0.75859700  0.24140300  1
  Na  Na4  1  0.75859700  0.24140300  0.24140300  1
  Na  Na5  1  0.75859700  0.75859700  0.75859700  1
  Na  Na6  1  0.80693500  0.19306500  0.80693500  1
  Na  Na7  1  0.80693500  0.80693500  0.19306500  1
  Al  Al0  1  0.00000000  0.25049200  0.50000000  1
  Al  Al1  1  0.00000000  0.74950800  0.50000000  1
  Al  Al2  1  0.25049200  0.50000000  0.00000000  1
  Al  Al3  1  0.50000000  0.00000000  0.74950800  1
  Al  Al4  1  0.50000000  0.00000000  0.25049200  1
  Al  Al5  1  0.74950800  0.50000000  0.00000000  1
  Si  Si0  1  0.00000000  0.50000000  0.24962700  1
  Si  Si1  1  0.00000000  0.50000000  0.75037300  1
  Si  Si2  1  0.24962700  0.00000000  0.50000000  1
  Si  Si3  1  0.50000000  0.75037300  0.00000000  1
  Si  Si4  1  0.50000000  0.24962700  0.00000000  1
  Si  Si5  1  0.75037300  0.00000000  0.50000000  1
  S  S0  1  0.00000000  0.00000000  0.00000000  1
  O  O0  1  0.04470200  0.35755200  0.65228100  1
  O  O1  1  0.04470200  0.64244800  0.34771900  1
  O  O2  1  0.09402800  0.09402800  0.90597200  1
  O  O3  1  0.09402800  0.90597200  0.09402800  1
  O  O4  1  0.15171700  0.14238300  0.45364800  1
  O  O5  1  0.14238300  0.45364800  0.15171700  1
  O  O6  1  0.14238300  0.54635200  0.84828300  1
  O  O7  1  0.15171700  0.85761700  0.54635200  1
  O  O8  1  0.34771900  0.04470200  0.64244800  1
  O  O9  1  0.35755200  0.34771900  0.95529800  1
  O  O10  1  0.35755200  0.65228100  0.04470200  1
  O  O11  1  0.34771900  0.95529800  0.35755200  1
  O  O12  1  0.45364800  0.15171700  0.14238300  1
  O  O13  1  0.45364800  0.84828300  0.85761700  1
  O  O14  1  0.54635200  0.15171700  0.85761700  1
  O  O15  1  0.54635200  0.84828300  0.14238300  1
  O  O16  1  0.65228100  0.04470200  0.35755200  1
  O  O17  1  0.64244800  0.34771900  0.04470200  1
  O  O18  1  0.64244800  0.65228100  0.95529800  1
  O  O19  1  0.65228100  0.95529800  0.64244800  1
  O  O20  1  0.84828300  0.14238300  0.54635200  1
  O  O21  1  0.85761700  0.45364800  0.84828300  1
  O  O22  1  0.85761700  0.54635200  0.15171700  1
  O  O23  1  0.84828300  0.85761700  0.45364800  1
  O  O24  1  0.90597200  0.09402800  0.09402800  1
  O  O25  1  0.90597200  0.90597200  0.90597200  1
  O  O26  1  0.95529800  0.35755200  0.34771900  1
  O  O27  1  0.95529800  0.64244800  0.65228100  1
loop_
_geom_bond_atom_site_label_1
_geom_bond_atom_site_label_2
_geom_bond_distance
_geom_bond_site_symmetry_2
Na0 O4 2.462979 1_555
Na0 O5 2.462979 1_555
Na0 O12 2.462979 1_555
Na0 O2 2.928397 1_554
Na0 O24 2.928397 1_455
Na0 O3 2.928397 1_545
Na0 O26 3.005835 1_455
Na0 O9 3.005835 1_554
Na0 O11 3.005835 1_545
Na1 O7 2.462979 1_555
Na1 O13 2.462979 1_555
Na1 O6 2.462979 1_555
Na1 O25 2.928397 1_455
Na1 O2 2.928397 1_565
Na1 O3 2.928397 1_556
Na1 O27 3.005835 1_455
Na1 O10 3.005835 1_556
Na1 O8 3.005835 1_565
Na2 O8 2.309842 1_555
Na2 O0 2.309842 1_555
Na2 O9 2.309842 1_555
Na2 O2 2.340083 1_555
Na2 O4 3.052107 1_555
Na2 O14 3.052107 1_555
Na2 O6 3.052107 1_555
Na3 O10 2.309842 1_555
Na3 O1 2.309842 1_555
Na3 O11 2.309842 1_555
Na3 O3 2.340083 1_555
Na3 O5 3.052107 1_555
Na3 O7 3.052107 1_555
Na3 O15 3.052107 1_555
Na4 O17 2.309842 1_555
Na4 O16 2.309842 1_555
Na4 O26 2.309842 1_555
Na4 O24 2.340083 1_555
Na4 O12 3.052107 1_555
Na4 O22 3.052107 1_555
Na4 O20 3.052107 1_555
Na5 O18 2.309842 1_555
Na5 O19 2.309842 1_555
Na5 O27 2.309842 1_555
Na5 O25 2.340083 1_555
Na5 O21 3.052107 1_555
Na5 O23 3.052107 1_555
Na5 O13 3.052107 1_555
Na6 O14 2.462979 1_555
Na6 O21 2.462979 1_555
Na6 O20 2.462979 1_555
Na6 O2 2.928397 1_655
Na6 O25 2.928397 1_545
Na6 O24 2.928397 1_556
Na6 O19 3.005835 1_545
Na6 O0 3.005835 1_655
Na6 O17 3.005835 1_556
Na7 O23 2.462979 1_555
Na7 O22 2.462979 1_555
Na7 O15 2.462979 1_555
Na7 O25 2.928397 1_554
Na7 O24 2.928397 1_565
Na7 O3 2.928397 1_655
Na7 O18 3.005835 1_554
Na7 O16 3.005835 1_565
Na7 O1 3.005835 1_655
Al0 O0 1.755018 1_555
Al0 O26 1.755018 1_455
Al0 O4 1.759907 1_555
Al0 O20 1.759907 1_455
Al1 O27 1.755018 1_455
Al1 O1 1.755018 1_555
Al1 O7 1.759907 1_555
Al1 O23 1.759907 1_455
Al2 O9 1.755018 1_554
Al2 O10 1.755018 1_555
Al2 O6 1.759907 1_554
Al2 O5 1.759907 1_555
Al3 O19 1.755018 1_545
Al3 O8 1.755018 1_555
Al3 O13 1.759907 1_545
Al3 O14 1.759907 1_555
Al4 O16 1.755018 1_555
Al4 O11 1.755018 1_545
Al4 O15 1.759907 1_545
Al4 O12 1.759907 1_555
Al5 O18 1.755018 1_554
Al5 O17 1.755018 1_555
Al5 O22 1.759907 1_555
Al5 O21 1.759907 1_554
O0 Si1 1.637653 1_555
O1 Si0 1.637653 1_555
O2 S0 1.493016 1_556
O3 S0 1.493016 1_565
O4 Si2 1.640116 1_555
O5 Si0 1.640116 1_555
O6 Si1 1.640116 1_555
O7 Si2 1.640116 1_565
O8 Si2 1.637653 1_555
O9 Si4 1.637653 1_556
O10 Si3 1.637653 1_555
O11 Si2 1.637653 1_565
O12 Si4 1.640116 1_555
O13 Si3 1.640116 1_556
O14 Si4 1.640116 1_556
O15 Si3 1.640116 1_555
O16 Si5 1.637653 1_555
O17 Si4 1.637653 1_555
O18 Si3 1.637653 1_556
O19 Si5 1.637653 1_565
O20 Si5 1.640116 1_555
O21 Si1 1.640116 1_655
O22 Si0 1.640116 1_655
O23 Si5 1.640116 1_565
O24 S0 1.493016 1_655
O25 S0 1.493016 1_666
O26 Si0 1.637653 1_655
O27 Si1 1.637653 1_655
