# generated using pymatgen
data_SrHfO3
_symmetry_space_group_name_H-M   'P 1'
_cell_length_a   4.14120600
_cell_length_b   4.14120600
_cell_length_c   4.14120600
_cell_angle_alpha   90.00000000
_cell_angle_beta   90.00000000
_cell_angle_gamma   90.00000000
_symmetry_Int_Tables_number   1
_chemical_formula_structural   SrHfO3
_chemical_formula_sum   'Sr1 Hf1 O3'
_cell_volume   71.01997314
_cell_formula_units_Z   1
loop_
 _symmetry_equiv_pos_site_id
 _symmetry_equiv_pos_as_xyz
  1  'x, y, z'
loop_
 _atom_site_type_symbol
 _atom_site_label
 _atom_site_symmetry_multiplicity
 _atom_site_fract_x
 _atom_site_fract_y
 _atom_site_fract_z
 _atom_site_occupancy
  Sr  Sr0  1  0.50000000  0.50000000  0.50000000  1
  Hf  Hf0  1  0.00000000  0.00000000  0.00000000  1
  O  O0  1  0.00000000  0.50000000  0.00000000  1
  O  O1  1  0.00000000  0.00000000  0.50000000  1
  O  O2  1  0.50000000  0.00000000  0.00000000  1
loop_
_geom_bond_atom_site_label_1
_geom_bond_atom_site_label_2
_geom_bond_distance
_geom_bond_site_symmetry_2
Hf0 O0 2.070603 1_545
Hf0 O2 2.070603 1_555
Hf0 O1 2.070603 1_555
Hf0 O0 2.070603 1_555
Hf0 O1 2.070603 1_554
Hf0 O2 2.070603 1_455
O0 Sr0 2.928275 1_455
O0 Sr0 2.928275 1_555
O0 Sr0 2.928275 1_554
O0 Sr0 2.928275 1_454
O1 Sr0 2.928275 1_545
O1 Sr0 2.928275 1_455
O1 Sr0 2.928275 1_555
O1 Sr0 2.928275 1_445
O2 Sr0 2.928275 1_544
O2 Sr0 2.928275 1_545
O2 Sr0 2.928275 1_555
O2 Sr0 2.928275 1_554
