# generated using pymatgen
data_ErTlS2
_symmetry_space_group_name_H-M   'P 1'
_cell_length_a   15.69909393
_cell_length_b   15.69909393
_cell_length_c   15.69909412
_cell_angle_alpha   29.28737138
_cell_angle_beta   29.28737138
_cell_angle_gamma   29.28736595
_symmetry_Int_Tables_number   1
_chemical_formula_structural   ErTlS2
_chemical_formula_sum   'Er8 Tl8 S16'
_cell_volume   819.31784394
_cell_formula_units_Z   8
loop_
 _symmetry_equiv_pos_site_id
 _symmetry_equiv_pos_as_xyz
  1  'x, y, z'
loop_
 _atom_site_type_symbol
 _atom_site_label
 _atom_site_symmetry_multiplicity
 _atom_site_fract_x
 _atom_site_fract_y
 _atom_site_fract_z
 _atom_site_occupancy
  Er  Er0_0  1  0.00000000  0.00000000  0.00000000  1
  Er  Er0_1  1  0.00000000  0.00000000  0.50000000  1
  Er  Er0_2  1  0.00000000  0.50000000  0.00000000  1
  Er  Er0_3  1  1.00000000  0.50000000  0.50000000  1
  Er  Er0_4  1  0.50000000  0.00000000  0.00000000  1
  Er  Er0_5  1  0.50000000  0.00000000  0.50000000  1
  Er  Er0_6  1  0.50000000  0.50000000  0.00000000  1
  Er  Er0_7  1  0.50000000  0.50000000  0.50000000  1
  Tl  Tl0_0  1  0.25000000  0.25000000  0.25000000  1
  Tl  Tl0_1  1  0.25000000  0.25000000  0.75000000  1
  Tl  Tl0_2  1  0.25000000  0.75000000  0.25000000  1
  Tl  Tl0_3  1  0.25000000  0.75000000  0.75000000  1
  Tl  Tl0_4  1  0.75000000  0.25000000  0.25000000  1
  Tl  Tl0_5  1  0.75000000  0.25000000  0.75000000  1
  Tl  Tl0_6  1  0.75000000  0.75000000  0.25000000  1
  Tl  Tl0_7  1  0.75000000  0.75000000  0.75000000  1
  S  S0_0  1  0.36603438  0.36603438  0.36603438  1
  S  S0_1  1  0.36603438  0.36603438  0.86603438  1
  S  S0_2  1  0.36603438  0.86603438  0.36603438  1
  S  S0_3  1  0.36603438  0.86603438  0.86603438  1
  S  S0_4  1  0.86603438  0.36603438  0.36603438  1
  S  S0_5  1  0.86603438  0.36603438  0.86603438  1
  S  S0_6  1  0.86603438  0.86603438  0.36603438  1
  S  S0_7  1  0.86603438  0.86603438  0.86603438  1
  S  S1_0  1  0.13396562  0.13396562  0.13396562  1
  S  S1_1  1  0.13396562  0.13396562  0.63396562  1
  S  S1_2  1  0.13396562  0.63396562  0.13396562  1
  S  S1_3  1  0.13396562  0.63396562  0.63396562  1
  S  S1_4  1  0.63396562  0.13396562  0.13396562  1
  S  S1_5  1  0.63396562  0.13396562  0.63396562  1
  S  S1_6  1  0.63396562  0.63396562  0.13396562  1
  S  S1_7  1  0.63396562  0.63396562  0.63396562  1
loop_
_geom_bond_atom_site_label_1
_geom_bond_atom_site_label_2
_geom_bond_distance
_geom_bond_site_symmetry_2
Er0_0 S0_3 2.724049 1_544
Er0_0 S1_2 2.724049 1_545
Er0_0 S0_5 2.724049 1_454
Er0_0 S1_4 2.724049 1_455
Er0_0 S1_1 2.724049 1_554
Er0_0 S0_6 2.724049 1_445
Er0_1 S0_2 2.724049 1_545
Er0_1 S1_3 2.724049 1_545
Er0_1 S1_5 2.724049 1_455
Er0_1 S0_4 2.724049 1_455
Er0_1 S1_0 2.724049 1_555
Er0_1 S0_7 2.724049 1_445
Er0_2 S1_0 2.724049 1_555
Er0_2 S1_6 2.724049 1_455
Er0_2 S0_1 2.724049 1_554
Er0_2 S0_7 2.724049 1_454
Er0_2 S1_3 2.724049 1_554
Er0_2 S0_4 2.724049 1_455
Er0_3 S1_1 2.724049 1_655
Er0_3 S0_0 2.724049 1_655
Er0_3 S1_7 2.724049 1_555
Er0_3 S0_6 2.724049 1_555
Er0_3 S1_2 2.724049 1_655
Er0_3 S0_5 2.724049 1_555
Er0_4 S1_6 2.724049 1_545
Er0_4 S1_0 2.724049 1_555
Er0_4 S0_7 2.724049 1_544
Er0_4 S0_1 2.724049 1_554
Er0_4 S1_5 2.724049 1_554
Er0_4 S0_2 2.724049 1_545
Er0_5 S0_0 2.724049 1_555
Er0_5 S1_1 2.724049 1_555
Er0_5 S0_6 2.724049 1_545
Er0_5 S1_7 2.724049 1_545
Er0_5 S1_4 2.724049 1_555
Er0_5 S0_3 2.724049 1_545
Er0_6 S1_2 2.724049 1_555
Er0_6 S1_4 2.724049 1_555
Er0_6 S0_5 2.724049 1_554
Er0_6 S0_3 2.724049 1_554
Er0_6 S1_7 2.724049 1_554
Er0_6 S0_0 2.724049 1_555
Er0_7 S1_3 2.724049 1_555
Er0_7 S1_5 2.724049 1_555
Er0_7 S0_2 2.724049 1_555
Er0_7 S0_4 2.724049 1_555
Er0_7 S1_6 2.724049 1_555
Er0_7 S0_1 2.724049 1_555
Tl0_0 Tl0_6 3.968842 1_545
Tl0_0 Tl0_6 3.968842 1_455
Tl0_0 Tl0_3 3.968843 1_545
Tl0_0 Tl0_5 3.968843 1_455
Tl0_0 Tl0_5 3.968843 1_554
Tl0_0 Tl0_3 3.968843 1_554
Tl0_1 Tl0_7 3.968842 1_545
Tl0_1 Tl0_7 3.968842 1_455
Tl0_1 Tl0_2 3.968843 1_555
Tl0_1 Tl0_4 3.968843 1_555
Tl0_1 Tl0_4 3.968843 1_456
Tl0_1 Tl0_2 3.968843 1_546
Tl0_2 Tl0_4 3.968842 1_555
Tl0_2 Tl0_4 3.968842 1_465
Tl0_2 Tl0_7 3.968843 1_554
Tl0_2 Tl0_7 3.968843 1_455
Tl0_3 Tl0_5 3.968842 1_465
Tl0_3 Tl0_5 3.968842 1_555
Tl0_3 Tl0_6 3.968843 1_456
Tl0_3 Tl0_6 3.968843 1_555
Tl0_4 Tl0_7 3.968843 1_554
Tl0_4 Tl0_7 3.968843 1_545
Tl0_5 Tl0_6 3.968843 1_546
Tl0_5 Tl0_6 3.968843 1_555
S0_0 Tl0_4 3.233035 1_555
S0_0 Tl0_2 3.233035 1_555
S0_0 Tl0_1 3.233035 1_555
S0_1 Tl0_3 3.233035 1_555
S0_1 Tl0_5 3.233035 1_555
S0_1 Tl0_0 3.233035 1_556
S0_2 Tl0_6 3.233035 1_555
S0_2 Tl0_0 3.233035 1_565
S0_2 Tl0_3 3.233035 1_555
S0_3 Tl0_7 3.233035 1_555
S0_3 Tl0_1 3.233035 1_565
S0_3 Tl0_2 3.233035 1_556
S0_4 Tl0_6 3.233035 1_555
S0_4 Tl0_0 3.233035 1_655
S0_4 Tl0_5 3.233035 1_555
S0_5 Tl0_7 3.233035 1_555
S0_5 Tl0_1 3.233035 1_655
S0_5 Tl0_4 3.233035 1_556
S0_6 Tl0_2 3.233035 1_655
S0_6 Tl0_4 3.233035 1_565
S0_6 Tl0_7 3.233035 1_555
S0_7 Tl0_5 3.233035 1_565
S0_7 Tl0_3 3.233035 1_655
S0_7 Tl0_6 3.233035 1_556
S1_0 Tl0_2 3.233035 1_545
S1_0 Tl0_4 3.233035 1_455
S1_0 Tl0_1 3.233035 1_554
S1_1 Tl0_3 3.233035 1_545
S1_1 Tl0_5 3.233035 1_455
S1_1 Tl0_0 3.233035 1_555
S1_2 Tl0_0 3.233035 1_555
S1_2 Tl0_6 3.233035 1_455
S1_2 Tl0_3 3.233035 1_554
S1_3 Tl0_1 3.233035 1_555
S1_3 Tl0_7 3.233035 1_455
S1_3 Tl0_2 3.233035 1_555
S1_4 Tl0_6 3.233035 1_545
S1_4 Tl0_0 3.233035 1_555
S1_4 Tl0_5 3.233035 1_554
S1_5 Tl0_1 3.233035 1_555
S1_5 Tl0_7 3.233035 1_545
S1_5 Tl0_4 3.233035 1_555
S1_6 Tl0_4 3.233035 1_555
S1_6 Tl0_2 3.233035 1_555
S1_6 Tl0_7 3.233035 1_554
S1_7 Tl0_3 3.233035 1_555
S1_7 Tl0_5 3.233035 1_555
S1_7 Tl0_6 3.233035 1_555
