# generated using pymatgen
data_Ca(GaO2)2
_symmetry_space_group_name_H-M   'P 1'
_cell_length_a   3.03082900
_cell_length_b   9.23936000
_cell_length_c   10.69768800
_cell_angle_alpha   90.00000000
_cell_angle_beta   90.00000000
_cell_angle_gamma   90.00000000
_symmetry_Int_Tables_number   1
_chemical_formula_structural   Ca(GaO2)2
_chemical_formula_sum   'Ca4 Ga8 O16'
_cell_volume   299.56650370
_cell_formula_units_Z   4
loop_
 _symmetry_equiv_pos_site_id
 _symmetry_equiv_pos_as_xyz
  1  'x, y, z'
loop_
 _atom_site_type_symbol
 _atom_site_label
 _atom_site_symmetry_multiplicity
 _atom_site_fract_x
 _atom_site_fract_y
 _atom_site_fract_z
 _atom_site_occupancy
  Ca  Ca0  1  0.75000000  0.25723100  0.84581600  1
  Ca  Ca1  1  0.25000000  0.74276900  0.15418400  1
  Ca  Ca2  1  0.75000000  0.75723100  0.65418400  1
  Ca  Ca3  1  0.25000000  0.24276900  0.34581600  1
  Ga  Ga0  1  0.25000000  0.56474000  0.38850900  1
  Ga  Ga1  1  0.75000000  0.43526000  0.61149100  1
  Ga  Ga2  1  0.25000000  0.06474000  0.11149100  1
  Ga  Ga3  1  0.75000000  0.93526000  0.88850900  1
  Ga  Ga4  1  0.75000000  0.91810000  0.39562700  1
  Ga  Ga5  1  0.25000000  0.08190000  0.60437300  1
  Ga  Ga6  1  0.75000000  0.41810000  0.10437300  1
  Ga  Ga7  1  0.25000000  0.58190000  0.89562700  1
  O  O0  1  0.25000000  0.58226400  0.57207000  1
  O  O1  1  0.75000000  0.41773600  0.42793000  1
  O  O2  1  0.25000000  0.08226400  0.92793000  1
  O  O3  1  0.75000000  0.91773600  0.07207000  1
  O  O4  1  0.25000000  0.47249400  0.21644100  1
  O  O5  1  0.75000000  0.52750600  0.78355900  1
  O  O6  1  0.25000000  0.97249400  0.28355900  1
  O  O7  1  0.75000000  0.02750600  0.71644100  1
  O  O8  1  0.25000000  0.88223200  0.52276900  1
  O  O9  1  0.75000000  0.11776800  0.47723100  1
  O  O10  1  0.25000000  0.38223200  0.97723100  1
  O  O11  1  0.75000000  0.61776800  0.02276900  1
  O  O12  1  0.75000000  0.70409700  0.33812500  1
  O  O13  1  0.25000000  0.29590300  0.66187500  1
  O  O14  1  0.75000000  0.20409700  0.16187500  1
  O  O15  1  0.25000000  0.79590300  0.83812500  1
loop_
_geom_bond_atom_site_label_1
_geom_bond_atom_site_label_2
_geom_bond_distance
_geom_bond_site_symmetry_2
Ca0 O10 2.367851 1_655
Ca0 O10 2.367851 1_555
Ca0 O2 2.383582 1_555
Ca0 O2 2.383582 1_655
Ca0 O13 2.509215 1_555
Ca0 O13 2.509215 1_655
Ca0 O7 2.533880 1_555
Ca0 O5 2.584456 1_555
Ca1 O11 2.367851 1_555
Ca1 O11 2.367851 1_455
Ca1 O3 2.383582 1_455
Ca1 O3 2.383582 1_555
Ca1 O12 2.509215 1_455
Ca1 O12 2.509215 1_555
Ca1 O6 2.533880 1_555
Ca1 O4 2.584456 1_555
Ca2 O8 2.367851 1_555
Ca2 O8 2.367851 1_655
Ca2 O0 2.383582 1_555
Ca2 O0 2.383582 1_655
Ca2 O15 2.509215 1_655
Ca2 O15 2.509215 1_555
Ca2 O5 2.533880 1_555
Ca2 O7 2.584456 1_565
Ca3 O9 2.367851 1_455
Ca3 O9 2.367851 1_555
Ca3 O1 2.383582 1_455
Ca3 O1 2.383582 1_555
Ca3 O14 2.509215 1_455
Ca3 O14 2.509215 1_555
Ca3 O4 2.533880 1_555
Ca3 O6 2.584456 1_545
Ga0 O0 1.970342 1_555
Ga0 O4 2.028470 1_555
Ga0 O12 2.060298 1_555
Ga0 O12 2.060298 1_455
Ga0 O1 2.078243 1_555
Ga0 O1 2.078243 1_455
Ga1 O1 1.970342 1_555
Ga1 O5 2.028470 1_555
Ga1 O13 2.060298 1_555
Ga1 O13 2.060298 1_655
Ga1 O0 2.078243 1_555
Ga1 O0 2.078243 1_655
Ga2 O2 1.970342 1_554
Ga2 O6 2.028470 1_545
Ga2 O14 2.060298 1_455
Ga2 O14 2.060298 1_555
Ga2 O3 2.078243 1_445
Ga2 O3 2.078243 1_545
Ga3 O3 1.970342 1_556
Ga3 O7 2.028470 1_565
Ga3 O15 2.060298 1_555
Ga3 O15 2.060298 1_655
Ga3 O2 2.078243 1_665
Ga3 O2 2.078243 1_565
Ga4 O6 1.996582 1_655
Ga4 O6 1.996582 1_555
Ga4 O9 2.040928 1_565
Ga4 O8 2.063067 1_555
Ga4 O8 2.063067 1_655
Ga4 O12 2.070728 1_555
Ga5 O7 1.996582 1_455
Ga5 O7 1.996582 1_555
Ga5 O8 2.040928 1_545
Ga5 O9 2.063067 1_455
Ga5 O9 2.063067 1_555
Ga5 O13 2.070728 1_555
Ga6 O4 1.996582 1_555
Ga6 O4 1.996582 1_655
Ga6 O11 2.040928 1_555
Ga6 O10 2.063067 1_554
Ga6 O10 2.063067 1_654
Ga6 O14 2.070728 1_555
Ga7 O5 1.996582 1_555
Ga7 O5 1.996582 1_455
Ga7 O10 2.040928 1_555
Ga7 O11 2.063067 1_456
Ga7 O11 2.063067 1_556
Ga7 O15 2.070728 1_555
O0 O8 2.821248 1_555
O1 O9 2.821248 1_555
O10 O2 2.821248 1_555
O11 O3 2.821248 1_555
