# generated using pymatgen
data_FeH8C4(S2N3)2
_symmetry_space_group_name_H-M   'P 1'
_cell_length_a   3.94080600
_cell_length_b   7.74239921
_cell_length_c   10.27554581
_cell_angle_alpha   93.46977308
_cell_angle_beta   98.71065294
_cell_angle_gamma   101.86561322
_symmetry_Int_Tables_number   1
_chemical_formula_structural   FeH8C4(S2N3)2
_chemical_formula_sum   'Fe1 H8 C4 S4 N6'
_cell_volume   301.91751367
_cell_formula_units_Z   1
loop_
 _symmetry_equiv_pos_site_id
 _symmetry_equiv_pos_as_xyz
  1  'x, y, z'
loop_
 _atom_site_type_symbol
 _atom_site_label
 _atom_site_symmetry_multiplicity
 _atom_site_fract_x
 _atom_site_fract_y
 _atom_site_fract_z
 _atom_site_occupancy
  Fe  Fe0  1  0.00000000  0.00000000  0.00000000  1
  H  H0  1  0.33258100  0.48348300  0.70306300  1
  H  H1  1  0.66741900  0.51651700  0.29693700  1
  H  H2  1  0.39262300  0.52336200  0.87457600  1
  H  H3  1  0.60737700  0.47663800  0.12542400  1
  H  H4  1  0.45677300  0.21699400  0.60931900  1
  H  H5  1  0.54322700  0.78300600  0.39068100  1
  H  H6  1  0.60285400  0.06964900  0.71794600  1
  H  H7  1  0.39714600  0.93035100  0.28205400  1
  C  C0  1  0.06468500  0.18461100  0.28789600  1
  C  C1  1  0.93531500  0.81538900  0.71210400  1
  C  C2  1  0.49845500  0.28803700  0.80873900  1
  C  C3  1  0.50154500  0.71196300  0.19126100  1
  S  S0  1  0.02201100  0.29504200  0.42061700  1
  S  S1  1  0.97798900  0.70495800  0.57938300  1
  S  S2  1  0.58679800  0.22361300  0.96694200  1
  S  S3  1  0.41320200  0.77638700  0.03305800  1
  N  N0  1  0.09224300  0.10253600  0.18939200  1
  N  N1  1  0.90775700  0.89746400  0.81060800  1
  N  N2  1  0.39539700  0.44018400  0.79366200  1
  N  N3  1  0.60460300  0.55981600  0.20633800  1
  N  N4  1  0.52892700  0.18655800  0.70360800  1
  N  N5  1  0.47107300  0.81344200  0.29639200  1
loop_
_geom_bond_atom_site_label_1
_geom_bond_atom_site_label_2
_geom_bond_distance
_geom_bond_site_symmetry_2
Fe0 N0 2.007424 1_555
Fe0 N1 2.007424 1_444
Fe0 S2 2.612909 1_454
Fe0 S3 2.612909 1_545
Fe0 S2 2.668888 1_554
Fe0 S3 2.668888 1_445
H0 N2 1.021000 1_555
H1 N3 1.021000 1_555
H2 N2 1.023217 1_555
H3 N3 1.023217 1_555
H4 N4 1.023152 1_555
H5 N5 1.023152 1_555
H6 N4 1.018564 1_555
H7 N5 1.018564 1_555
C0 N0 1.193286 1_555
C0 S0 1.614516 1_555
C1 N1 1.193286 1_555
C1 S1 1.614516 1_555
C2 N4 1.331948 1_555
C2 N2 1.332802 1_555
C2 S2 1.735163 1_555
C3 N5 1.331948 1_555
C3 N3 1.332802 1_555
C3 S3 1.735163 1_555
