# generated using pymatgen
data_KLiZnO2
_symmetry_space_group_name_H-M   'P 1'
_cell_length_a   11.47598707
_cell_length_b   11.47598707
_cell_length_c   16.66997423
_cell_angle_alpha   61.39542036
_cell_angle_beta   61.39542036
_cell_angle_gamma   34.33233728
_symmetry_Int_Tables_number   1
_chemical_formula_structural   KLiZnO2
_chemical_formula_sum   'K16 Li16 Zn16 O32'
_cell_volume   1071.53007766
_cell_formula_units_Z   16
loop_
 _symmetry_equiv_pos_site_id
 _symmetry_equiv_pos_as_xyz
  1  'x, y, z'
loop_
 _atom_site_type_symbol
 _atom_site_label
 _atom_site_symmetry_multiplicity
 _atom_site_fract_x
 _atom_site_fract_y
 _atom_site_fract_z
 _atom_site_occupancy
  K  K0_0  1  0.41825750  0.41825750  0.31496600  1
  K  K0_1  1  0.41825750  0.41825750  0.81496600  1
  K  K0_2  1  0.41825750  0.91825750  0.31496600  1
  K  K0_3  1  0.41825750  0.91825750  0.81496600  1
  K  K0_4  1  0.91825750  0.41825750  0.31496600  1
  K  K0_5  1  0.91825750  0.41825750  0.81496600  1
  K  K0_6  1  0.91825750  0.91825750  0.31496600  1
  K  K0_7  1  0.91825750  0.91825750  0.81496600  1
  K  K1_0  1  0.08174250  0.08174250  0.18503400  1
  K  K1_1  1  0.08174250  0.08174250  0.68503400  1
  K  K1_2  1  0.08174250  0.58174250  0.18503400  1
  K  K1_3  1  0.08174250  0.58174250  0.68503400  1
  K  K1_4  1  0.58174250  0.08174250  0.18503400  1
  K  K1_5  1  0.58174250  0.08174250  0.68503400  1
  K  K1_6  1  0.58174250  0.58174250  0.18503400  1
  K  K1_7  1  0.58174250  0.58174250  0.68503400  1
  Li  Li0_0  1  0.17056000  0.17056000  0.47250350  1
  Li  Li0_1  1  0.17056000  0.17056000  0.97250350  1
  Li  Li0_2  1  0.17056000  0.67056000  0.47250350  1
  Li  Li0_3  1  0.17056000  0.67056000  0.97250350  1
  Li  Li0_4  1  0.67056000  0.17056000  0.47250350  1
  Li  Li0_5  1  0.67056000  0.17056000  0.97250350  1
  Li  Li0_6  1  0.67056000  0.67056000  0.47250350  1
  Li  Li0_7  1  0.67056000  0.67056000  0.97250350  1
  Li  Li1_0  1  0.32944000  0.32944000  0.02749650  1
  Li  Li1_1  1  0.32944000  0.32944000  0.52749650  1
  Li  Li1_2  1  0.32944000  0.82944000  0.02749650  1
  Li  Li1_3  1  0.32944000  0.82944000  0.52749650  1
  Li  Li1_4  1  0.82944000  0.32944000  0.02749650  1
  Li  Li1_5  1  0.82944000  0.32944000  0.52749650  1
  Li  Li1_6  1  0.82944000  0.82944000  0.02749650  1
  Li  Li1_7  1  0.82944000  0.82944000  0.52749650  1
  Zn  Zn0_0  1  0.02205850  0.02205850  0.40877050  1
  Zn  Zn0_1  1  0.02205850  0.02205850  0.90877050  1
  Zn  Zn0_2  1  0.02205850  0.52205850  0.40877050  1
  Zn  Zn0_3  1  0.02205850  0.52205850  0.90877050  1
  Zn  Zn0_4  1  0.52205850  0.02205850  0.40877050  1
  Zn  Zn0_5  1  0.52205850  0.02205850  0.90877050  1
  Zn  Zn0_6  1  0.52205850  0.52205850  0.40877050  1
  Zn  Zn0_7  1  0.52205850  0.52205850  0.90877050  1
  Zn  Zn1_0  1  0.47794150  0.47794150  0.09122950  1
  Zn  Zn1_1  1  0.47794150  0.47794150  0.59122950  1
  Zn  Zn1_2  1  0.47794150  0.97794150  0.09122950  1
  Zn  Zn1_3  1  0.47794150  0.97794150  0.59122950  1
  Zn  Zn1_4  1  0.97794150  0.47794150  0.09122950  1
  Zn  Zn1_5  1  0.97794150  0.47794150  0.59122950  1
  Zn  Zn1_6  1  0.97794150  0.97794150  0.09122950  1
  Zn  Zn1_7  1  0.97794150  0.97794150  0.59122950  1
  O  O0_0  1  0.23071850  0.23071850  0.15332250  1
  O  O0_1  1  0.23071850  0.23071850  0.65332250  1
  O  O0_2  1  0.23071850  0.73071850  0.15332250  1
  O  O0_3  1  0.23071850  0.73071850  0.65332250  1
  O  O0_4  1  0.73071850  0.23071850  0.15332250  1
  O  O0_5  1  0.73071850  0.23071850  0.65332250  1
  O  O0_6  1  0.73071850  0.73071850  0.15332250  1
  O  O0_7  1  0.73071850  0.73071850  0.65332250  1
  O  O1_0  1  0.26928150  0.26928150  0.34667750  1
  O  O1_1  1  0.26928150  0.26928150  0.84667750  1
  O  O1_2  1  0.26928150  0.76928150  0.34667750  1
  O  O1_3  1  0.26928150  0.76928150  0.84667750  1
  O  O1_4  1  0.76928150  0.26928150  0.34667750  1
  O  O1_5  1  0.76928150  0.26928150  0.84667750  1
  O  O1_6  1  0.76928150  0.76928150  0.34667750  1
  O  O1_7  1  0.76928150  0.76928150  0.84667750  1
  O  O2_0  1  0.41899650  0.41899650  0.03107450  1
  O  O2_1  1  0.41899650  0.41899650  0.53107450  1
  O  O2_2  1  0.41899650  0.91899650  0.03107450  1
  O  O2_3  1  0.41899650  0.91899650  0.53107450  1
  O  O2_4  1  0.91899650  0.41899650  0.03107450  1
  O  O2_5  1  0.91899650  0.41899650  0.53107450  1
  O  O2_6  1  0.91899650  0.91899650  0.03107450  1
  O  O2_7  1  0.91899650  0.91899650  0.53107450  1
  O  O3_0  1  0.08100350  0.08100350  0.46892550  1
  O  O3_1  1  0.08100350  0.08100350  0.96892550  1
  O  O3_2  1  0.08100350  0.58100350  0.46892550  1
  O  O3_3  1  0.08100350  0.58100350  0.96892550  1
  O  O3_4  1  0.58100350  0.08100350  0.46892550  1
  O  O3_5  1  0.58100350  0.08100350  0.96892550  1
  O  O3_6  1  0.58100350  0.58100350  0.46892550  1
  O  O3_7  1  0.58100350  0.58100350  0.96892550  1
loop_
_geom_bond_atom_site_label_1
_geom_bond_atom_site_label_2
_geom_bond_distance
_geom_bond_site_symmetry_2
K0_0 O3_4 2.862646 1_555
K0_0 O3_2 2.862646 1_555
K0_0 O0_2 2.882045 1_555
K0_0 O0_4 2.882045 1_555
K0_0 O1_0 3.036742 1_555
K0_0 O1_4 3.037962 1_555
K0_0 O1_2 3.037962 1_555
K0_0 Li1_1 3.070848 1_555
K0_0 K1_6 3.124509 1_555
K0_0 Li0_4 3.146449 1_555
K0_0 Li0_2 3.146449 1_555
K0_0 Zn0_2 3.250834 1_555
K0_0 Zn0_4 3.250834 1_555
K0_0 K0_6 3.387068 1_545
K0_0 K0_6 3.387068 1_455
K0_1 O3_3 2.862646 1_555
K0_1 O3_5 2.862646 1_555
K0_1 O0_3 2.882045 1_555
K0_1 O0_5 2.882045 1_555
K0_1 O1_1 3.036742 1_555
K0_1 O1_5 3.037962 1_555
K0_1 O1_3 3.037962 1_555
K0_1 Li1_0 3.070848 1_556
K0_1 K1_7 3.124509 1_555
K0_1 Li0_5 3.146449 1_555
K0_1 Li0_3 3.146449 1_555
K0_1 Zn0_3 3.250834 1_555
K0_1 Zn0_5 3.250834 1_555
K0_1 K0_7 3.387068 1_545
K0_1 K0_7 3.387068 1_455
K0_2 O3_6 2.862646 1_555
K0_2 O3_0 2.862646 1_565
K0_2 O0_6 2.882045 1_555
K0_2 O0_0 2.882045 1_565
K0_2 O1_2 3.036742 1_555
K0_2 O1_0 3.037962 1_565
K0_2 O1_6 3.037962 1_555
K0_2 Li1_3 3.070848 1_555
K0_2 K1_4 3.124509 1_565
K0_2 Li0_6 3.146449 1_555
K0_2 Li0_0 3.146449 1_565
K0_2 Zn0_6 3.250834 1_555
K0_2 Zn0_0 3.250834 1_565
K0_2 K0_4 3.387068 1_555
K0_2 K0_4 3.387068 1_465
K0_3 O3_7 2.862646 1_555
K0_3 O3_1 2.862646 1_565
K0_3 O0_7 2.882045 1_555
K0_3 O0_1 2.882045 1_565
K0_3 O1_3 3.036742 1_555
K0_3 O1_1 3.037962 1_565
K0_3 O1_7 3.037962 1_555
K0_3 Li1_2 3.070848 1_556
K0_3 K1_5 3.124509 1_565
K0_3 Li0_7 3.146449 1_555
K0_3 Li0_1 3.146449 1_565
K0_3 Zn0_1 3.250834 1_565
K0_3 Zn0_7 3.250834 1_555
K0_3 K0_5 3.387068 1_555
K0_3 K0_5 3.387068 1_465
K0_4 O3_6 2.862646 1_555
K0_4 O3_0 2.862646 1_655
K0_4 O0_6 2.882045 1_555
K0_4 O0_0 2.882045 1_655
K0_4 O1_4 3.036742 1_555
K0_4 O1_0 3.037962 1_655
K0_4 O1_6 3.037962 1_555
K0_4 Li1_5 3.070848 1_555
K0_4 K1_2 3.124509 1_655
K0_4 Li0_6 3.146449 1_555
K0_4 Li0_0 3.146449 1_655
K0_4 Zn0_6 3.250834 1_555
K0_4 Zn0_0 3.250834 1_655
K0_5 O3_1 2.862646 1_655
K0_5 O3_7 2.862646 1_555
K0_5 O0_1 2.882045 1_655
K0_5 O0_7 2.882045 1_555
K0_5 O1_5 3.036742 1_555
K0_5 O1_1 3.037962 1_655
K0_5 O1_7 3.037962 1_555
K0_5 Li1_4 3.070848 1_556
K0_5 K1_3 3.124509 1_655
K0_5 Li0_7 3.146449 1_555
K0_5 Li0_1 3.146449 1_655
K0_5 Zn0_1 3.250834 1_655
K0_5 Zn0_7 3.250834 1_555
K0_6 O3_2 2.862646 1_655
K0_6 O3_4 2.862646 1_565
K0_6 O0_2 2.882045 1_655
K0_6 O0_4 2.882045 1_565
K0_6 O1_6 3.036742 1_555
K0_6 O1_4 3.037962 1_565
K0_6 O1_2 3.037962 1_655
K0_6 Li1_7 3.070848 1_555
K0_6 K1_0 3.124509 1_665
K0_6 Li0_2 3.146449 1_655
K0_6 Li0_4 3.146449 1_565
K0_6 Zn0_2 3.250834 1_655
K0_6 Zn0_4 3.250834 1_565
K0_7 O3_3 2.862646 1_655
K0_7 O3_5 2.862646 1_565
K0_7 O0_3 2.882045 1_655
K0_7 O0_5 2.882045 1_565
K0_7 O1_7 3.036742 1_555
K0_7 O1_5 3.037962 1_565
K0_7 O1_3 3.037962 1_655
K0_7 Li1_6 3.070848 1_556
K0_7 K1_1 3.124509 1_665
K0_7 Li0_3 3.146449 1_655
K0_7 Li0_5 3.146449 1_565
K0_7 Zn0_3 3.250834 1_655
K0_7 Zn0_5 3.250834 1_565
K1_0 O2_4 2.862646 1_455
K1_0 O2_2 2.862646 1_545
K1_0 O1_4 2.882045 1_455
K1_0 O1_2 2.882045 1_545
K1_0 O0_0 3.036742 1_555
K1_0 O0_2 3.037962 1_545
K1_0 O0_4 3.037962 1_455
K1_0 Li0_1 3.070848 1_554
K1_0 Li1_2 3.146449 1_545
K1_0 Li1_4 3.146449 1_455
K1_0 Zn1_4 3.250834 1_455
K1_0 Zn1_2 3.250834 1_545
K1_0 K1_6 3.387068 1_455
K1_0 K1_6 3.387068 1_545
K1_1 O2_3 2.862646 1_545
K1_1 O2_5 2.862646 1_455
K1_1 O1_3 2.882045 1_545
K1_1 O1_5 2.882045 1_455
K1_1 O0_1 3.036742 1_555
K1_1 O0_3 3.037962 1_545
K1_1 O0_5 3.037962 1_455
K1_1 Li0_0 3.070848 1_555
K1_1 Li1_5 3.146449 1_455
K1_1 Li1_3 3.146449 1_545
K1_1 Zn1_5 3.250834 1_455
K1_1 Zn1_3 3.250834 1_545
K1_1 K1_7 3.387068 1_545
K1_1 K1_7 3.387068 1_455
K1_2 O2_0 2.862646 1_555
K1_2 O2_6 2.862646 1_455
K1_2 O1_0 2.882045 1_555
K1_2 O1_6 2.882045 1_455
K1_2 O0_2 3.036742 1_555
K1_2 O0_0 3.037962 1_555
K1_2 O0_6 3.037962 1_455
K1_2 Li0_3 3.070848 1_554
K1_2 Li1_0 3.146449 1_555
K1_2 Li1_6 3.146449 1_455
K1_2 Zn1_0 3.250834 1_555
K1_2 Zn1_6 3.250834 1_455
K1_2 K1_4 3.387068 1_555
K1_2 K1_4 3.387068 1_465
K1_3 O2_1 2.862646 1_555
K1_3 O2_7 2.862646 1_455
K1_3 O1_7 2.882045 1_455
K1_3 O1_1 2.882045 1_555
K1_3 O0_3 3.036742 1_555
K1_3 O0_1 3.037962 1_555
K1_3 O0_7 3.037962 1_455
K1_3 Li0_2 3.070848 1_555
K1_3 Li1_1 3.146449 1_555
K1_3 Li1_7 3.146449 1_455
K1_3 Zn1_1 3.250834 1_555
K1_3 Zn1_7 3.250834 1_455
K1_3 K1_5 3.387068 1_555
K1_3 K1_5 3.387068 1_465
K1_4 O2_0 2.862646 1_555
K1_4 O2_6 2.862646 1_545
K1_4 O1_0 2.882045 1_555
K1_4 O1_6 2.882045 1_545
K1_4 O0_4 3.036742 1_555
K1_4 O0_0 3.037962 1_555
K1_4 O0_6 3.037962 1_545
K1_4 Li0_5 3.070848 1_554
K1_4 Li1_6 3.146449 1_545
K1_4 Li1_0 3.146449 1_555
K1_4 Zn1_0 3.250834 1_555
K1_4 Zn1_6 3.250834 1_545
K1_5 O2_1 2.862646 1_555
K1_5 O2_7 2.862646 1_545
K1_5 O1_1 2.882045 1_555
K1_5 O1_7 2.882045 1_545
K1_5 O0_5 3.036742 1_555
K1_5 O0_1 3.037962 1_555
K1_5 O0_7 3.037962 1_545
K1_5 Li0_4 3.070848 1_555
K1_5 Li1_7 3.146449 1_545
K1_5 Li1_1 3.146449 1_555
K1_5 Zn1_1 3.250834 1_555
K1_5 Zn1_7 3.250834 1_545
K1_6 O2_4 2.862646 1_555
K1_6 O2_2 2.862646 1_555
K1_6 O1_4 2.882045 1_555
K1_6 O1_2 2.882045 1_555
K1_6 O0_6 3.036742 1_555
K1_6 O0_2 3.037962 1_555
K1_6 O0_4 3.037962 1_555
K1_6 Li0_7 3.070848 1_554
K1_6 Li1_2 3.146449 1_555
K1_6 Li1_4 3.146449 1_555
K1_6 Zn1_2 3.250834 1_555
K1_6 Zn1_4 3.250834 1_555
K1_7 O2_5 2.862646 1_555
K1_7 O2_3 2.862646 1_555
K1_7 O1_3 2.882045 1_555
K1_7 O1_5 2.882045 1_555
K1_7 O0_7 3.036742 1_555
K1_7 O0_3 3.037962 1_555
K1_7 O0_5 3.037962 1_555
K1_7 Li0_6 3.070848 1_555
K1_7 Li1_3 3.146449 1_555
K1_7 Li1_5 3.146449 1_555
K1_7 Zn1_5 3.250834 1_555
K1_7 Zn1_3 3.250834 1_555
Li0_0 O2_5 1.946534 1_455
Li0_0 O2_3 1.946534 1_545
Li0_0 O3_0 1.994487 1_555
Li0_0 O1_0 2.129705 1_555
Li0_0 Li1_3 2.421886 1_545
Li0_0 Li1_5 2.421886 1_455
Li0_0 Zn0_4 2.565378 1_555
Li0_0 Zn0_2 2.565378 1_555
Li0_1 O2_4 1.946534 1_456
Li0_1 O2_2 1.946534 1_546
Li0_1 O3_1 1.994487 1_555
Li0_1 O1_1 2.129705 1_555
Li0_1 Li1_2 2.421886 1_546
Li0_1 Li1_4 2.421886 1_456
Li0_1 Zn0_5 2.565378 1_555
Li0_1 Zn0_3 2.565378 1_555
Li0_2 O2_7 1.946534 1_455
Li0_2 O2_1 1.946534 1_555
Li0_2 O3_2 1.994487 1_555
Li0_2 O1_2 2.129705 1_555
Li0_2 Li1_7 2.421886 1_455
Li0_2 Li1_1 2.421886 1_555
Li0_2 Zn0_6 2.565378 1_555
Li0_2 Zn0_0 2.565378 1_565
Li0_3 O2_0 1.946534 1_556
Li0_3 O2_6 1.946534 1_456
Li0_3 O3_3 1.994487 1_555
Li0_3 O1_3 2.129705 1_555
Li0_3 Li1_0 2.421886 1_556
Li0_3 Li1_6 2.421886 1_456
Li0_3 Zn0_7 2.565378 1_555
Li0_3 Zn0_1 2.565378 1_565
Li0_4 O2_7 1.946534 1_545
Li0_4 O2_1 1.946534 1_555
Li0_4 O3_4 1.994487 1_555
Li0_4 O1_4 2.129705 1_555
Li0_4 Li1_1 2.421886 1_555
Li0_4 Li1_7 2.421886 1_545
Li0_4 Zn0_0 2.565378 1_655
Li0_4 Zn0_6 2.565378 1_555
Li0_5 O2_6 1.946534 1_546
Li0_5 O2_0 1.946534 1_556
Li0_5 O3_5 1.994487 1_555
Li0_5 O1_5 2.129705 1_555
Li0_5 Li1_6 2.421886 1_546
Li0_5 Li1_0 2.421886 1_556
Li0_5 Zn0_7 2.565378 1_555
Li0_5 Zn0_1 2.565378 1_655
Li0_6 O2_5 1.946534 1_555
Li0_6 O2_3 1.946534 1_555
Li0_6 O3_6 1.994487 1_555
Li0_6 O1_6 2.129705 1_555
Li0_6 Li1_3 2.421886 1_555
Li0_6 Li1_5 2.421886 1_555
Li0_6 Zn0_4 2.565378 1_565
Li0_6 Zn0_2 2.565378 1_655
Li0_7 O2_4 1.946534 1_556
Li0_7 O2_2 1.946534 1_556
Li0_7 O3_7 1.994487 1_555
Li0_7 O1_7 2.129705 1_555
Li0_7 Li1_2 2.421886 1_556
Li0_7 Li1_4 2.421886 1_556
Li0_7 Zn0_3 2.565378 1_655
Li0_7 Zn0_5 2.565378 1_565
Li1_0 O3_3 1.946534 1_554
Li1_0 O3_5 1.946534 1_554
Li1_0 O2_0 1.994487 1_555
Li1_0 O0_0 2.129705 1_555
Li1_0 Zn1_2 2.565378 1_545
Li1_0 Zn1_4 2.565378 1_455
Li1_1 O3_4 1.946534 1_555
Li1_1 O3_2 1.946534 1_555
Li1_1 O2_1 1.994487 1_555
Li1_1 O0_1 2.129705 1_555
Li1_1 Zn1_3 2.565378 1_545
Li1_1 Zn1_5 2.565378 1_455
Li1_2 O3_1 1.946534 1_564
Li1_2 O3_7 1.946534 1_554
Li1_2 O2_2 1.994487 1_555
Li1_2 O0_2 2.129705 1_555
Li1_2 Zn1_6 2.565378 1_455
Li1_2 Zn1_0 2.565378 1_555
Li1_3 O3_6 1.946534 1_555
Li1_3 O3_0 1.946534 1_565
Li1_3 O2_3 1.994487 1_555
Li1_3 O0_3 2.129705 1_555
Li1_3 Zn1_1 2.565378 1_555
Li1_3 Zn1_7 2.565378 1_455
Li1_4 O3_7 1.946534 1_554
Li1_4 O3_1 1.946534 1_654
Li1_4 O2_4 1.994487 1_555
Li1_4 O0_4 2.129705 1_555
Li1_4 Zn1_6 2.565378 1_545
Li1_4 Zn1_0 2.565378 1_555
Li1_5 O3_6 1.946534 1_555
Li1_5 O3_0 1.946534 1_655
Li1_5 O2_5 1.994487 1_555
Li1_5 O0_5 2.129705 1_555
Li1_5 Zn1_1 2.565378 1_555
Li1_5 Zn1_7 2.565378 1_545
Li1_6 O3_3 1.946534 1_654
Li1_6 O3_5 1.946534 1_564
Li1_6 O2_6 1.994487 1_555
Li1_6 O0_6 2.129705 1_555
Li1_6 Zn1_2 2.565378 1_555
Li1_6 Zn1_4 2.565378 1_555
Li1_7 O3_2 1.946534 1_655
Li1_7 O3_4 1.946534 1_565
Li1_7 O2_7 1.994487 1_555
Li1_7 O0_7 2.129705 1_555
Li1_7 Zn1_3 2.565378 1_555
Li1_7 Zn1_5 2.565378 1_555
O0_0 Zn1_2 2.001586 1_545
O0_0 Zn1_4 2.001586 1_455
O0_1 Zn1_3 2.001586 1_545
O0_1 Zn1_5 2.001586 1_455
O0_2 Zn1_6 2.001586 1_455
O0_2 Zn1_0 2.001586 1_555
O0_3 Zn1_1 2.001586 1_555
O0_3 Zn1_7 2.001586 1_455
O0_4 Zn1_0 2.001586 1_555
O0_4 Zn1_6 2.001586 1_545
O0_5 Zn1_1 2.001586 1_555
O0_5 Zn1_7 2.001586 1_545
O0_6 Zn1_2 2.001586 1_555
O0_6 Zn1_4 2.001586 1_555
O0_7 Zn1_3 2.001586 1_555
O0_7 Zn1_5 2.001586 1_555
O1_0 Zn0_4 2.001586 1_555
O1_0 Zn0_2 2.001586 1_555
O1_1 Zn0_5 2.001586 1_555
O1_1 Zn0_3 2.001586 1_555
O1_2 Zn0_6 2.001586 1_555
O1_2 Zn0_0 2.001586 1_565
O1_3 Zn0_7 2.001586 1_555
O1_3 Zn0_1 2.001586 1_565
O1_4 Zn0_0 2.001586 1_655
O1_4 Zn0_6 2.001586 1_555
O1_5 Zn0_7 2.001586 1_555
O1_5 Zn0_1 2.001586 1_655
O1_6 Zn0_4 2.001586 1_565
O1_6 Zn0_2 2.001586 1_655
O1_7 Zn0_3 2.001586 1_655
O1_7 Zn0_5 2.001586 1_565
O2_0 Zn1_0 1.993871 1_555
O2_0 Zn0_7 2.155664 1_554
O2_1 Zn1_1 1.993871 1_555
O2_1 Zn0_6 2.155664 1_555
O2_2 Zn1_2 1.993871 1_555
O2_2 Zn0_5 2.155664 1_564
O2_3 Zn1_3 1.993871 1_555
O2_3 Zn0_4 2.155664 1_565
O2_4 Zn1_4 1.993871 1_555
O2_4 Zn0_3 2.155664 1_654
O2_5 Zn1_5 1.993871 1_555
O2_5 Zn0_2 2.155664 1_655
O2_6 Zn1_6 1.993871 1_555
O2_6 Zn0_1 2.155664 1_664
O2_7 Zn1_7 1.993871 1_555
O2_7 Zn0_0 2.155664 1_665
O3_0 Zn0_0 1.993871 1_555
O3_0 Zn1_7 2.155664 1_445
O3_1 Zn0_1 1.993871 1_555
O3_1 Zn1_6 2.155664 1_446
O3_2 Zn0_2 1.993871 1_555
O3_2 Zn1_5 2.155664 1_455
O3_3 Zn0_3 1.993871 1_555
O3_3 Zn1_4 2.155664 1_456
O3_4 Zn0_4 1.993871 1_555
O3_4 Zn1_3 2.155664 1_545
O3_5 Zn0_5 1.993871 1_555
O3_5 Zn1_2 2.155664 1_546
O3_6 Zn0_6 1.993871 1_555
O3_6 Zn1_1 2.155664 1_555
O3_7 Zn0_7 1.993871 1_555
O3_7 Zn1_0 2.155664 1_556
