# generated using pymatgen
data_CsErTa6Cl18
_symmetry_space_group_name_H-M   'P 1'
_cell_length_a   9.40802419
_cell_length_b   9.40802419
_cell_length_c   17.47716500
_cell_angle_alpha   90.00000000
_cell_angle_beta   90.00000000
_cell_angle_gamma   120.00000132
_symmetry_Int_Tables_number   1
_chemical_formula_structural   CsErTa6Cl18
_chemical_formula_sum   'Cs2 Er2 Ta12 Cl36'
_cell_volume   1339.67194582
_cell_formula_units_Z   2
loop_
 _symmetry_equiv_pos_site_id
 _symmetry_equiv_pos_as_xyz
  1  'x, y, z'
loop_
 _atom_site_type_symbol
 _atom_site_label
 _atom_site_symmetry_multiplicity
 _atom_site_fract_x
 _atom_site_fract_y
 _atom_site_fract_z
 _atom_site_occupancy
  Cs  Cs0  1  0.33333300  0.66666700  0.75000000  1
  Cs  Cs1  1  0.66666700  0.33333300  0.25000000  1
  Er  Er0  1  0.66666700  0.33333300  0.75000000  1
  Er  Er1  1  0.33333300  0.66666700  0.25000000  1
  Ta  Ta0  1  0.04086400  0.19402200  0.06727700  1
  Ta  Ta1  1  0.15315900  0.95913600  0.06727700  1
  Ta  Ta2  1  0.80597800  0.95913600  0.43272300  1
  Ta  Ta3  1  0.84684100  0.04086400  0.93272300  1
  Ta  Ta4  1  0.84684100  0.80597800  0.56727700  1
  Ta  Ta5  1  0.19402200  0.04086400  0.56727700  1
  Ta  Ta6  1  0.95913600  0.15315900  0.56727700  1
  Ta  Ta7  1  0.04086400  0.84684100  0.43272300  1
  Ta  Ta8  1  0.15315900  0.19402200  0.43272300  1
  Ta  Ta9  1  0.19402200  0.15315900  0.93272300  1
  Ta  Ta10  1  0.80597800  0.84684100  0.06727700  1
  Ta  Ta11  1  0.95913600  0.80597800  0.93272300  1
  Cl  Cl0  1  0.18494600  0.95161100  0.84010700  1
  Cl  Cl1  1  0.86186900  0.58490600  0.49863200  1
  Cl  Cl2  1  0.23333400  0.18494600  0.15989300  1
  Cl  Cl3  1  0.72303700  0.58490600  0.00136800  1
  Cl  Cl4  1  0.18494600  0.23333400  0.65989300  1
  Cl  Cl5  1  0.27696300  0.86186900  0.50136800  1
  Cl  Cl6  1  0.72303700  0.13813100  0.49863200  1
  Cl  Cl7  1  0.35580800  0.90808300  0.16183400  1
  Cl  Cl8  1  0.13813100  0.41509400  0.50136800  1
  Cl  Cl9  1  0.64419200  0.09191700  0.83816600  1
  Cl  Cl10  1  0.44772500  0.35580800  0.83816600  1
  Cl  Cl11  1  0.81505400  0.04838900  0.15989300  1
  Cl  Cl12  1  0.58490600  0.86186900  0.99863200  1
  Cl  Cl13  1  0.09191700  0.64419200  0.33816600  1
  Cl  Cl14  1  0.13813100  0.72303700  0.99863200  1
  Cl  Cl15  1  0.41509400  0.27696300  0.49863200  1
  Cl  Cl16  1  0.04838900  0.23333400  0.84010700  1
  Cl  Cl17  1  0.27696300  0.41509400  0.99863200  1
  Cl  Cl18  1  0.81505400  0.76666600  0.34010700  1
  Cl  Cl19  1  0.95161100  0.18494600  0.34010700  1
  Cl  Cl20  1  0.35580800  0.44772500  0.33816600  1
  Cl  Cl21  1  0.76666600  0.95161100  0.65989300  1
  Cl  Cl22  1  0.55227500  0.90808300  0.33816600  1
  Cl  Cl23  1  0.95161100  0.76666600  0.15989300  1
  Cl  Cl24  1  0.41509400  0.13813100  0.00136800  1
  Cl  Cl25  1  0.04838900  0.81505400  0.65989300  1
  Cl  Cl26  1  0.55227500  0.64419200  0.16183400  1
  Cl  Cl27  1  0.90808300  0.35580800  0.66183400  1
  Cl  Cl28  1  0.64419200  0.55227500  0.66183400  1
  Cl  Cl29  1  0.44772500  0.09191700  0.66183400  1
  Cl  Cl30  1  0.23333400  0.04838900  0.34010700  1
  Cl  Cl31  1  0.90808300  0.55227500  0.83816600  1
  Cl  Cl32  1  0.58490600  0.72303700  0.50136800  1
  Cl  Cl33  1  0.86186900  0.27696300  0.00136800  1
  Cl  Cl34  1  0.76666600  0.81505400  0.84010700  1
  Cl  Cl35  1  0.09191700  0.44772500  0.16183400  1
loop_
_geom_bond_atom_site_label_1
_geom_bond_atom_site_label_2
_geom_bond_distance
_geom_bond_site_symmetry_2
Ta0 Ta9 2.882378 1_554
Ta0 Ta3 2.882385 1_454
Ta0 Ta10 2.886871 1_445
Ta0 Ta1 2.886871 1_545
Ta1 Ta11 2.882385 1_454
Ta1 Ta9 2.882388 1_564
Ta1 Ta10 2.886871 1_455
Ta2 Ta4 2.882378 1_555
Ta2 Ta6 2.882385 1_565
Ta2 Ta8 2.886871 1_665
Ta2 Ta7 2.886871 1_655
Ta3 Ta9 2.886871 1_655
Ta4 Ta7 2.882388 1_655
Ta4 Ta5 2.886871 1_665
Ta4 Ta6 2.886871 1_565
Ta5 Ta8 2.882378 1_555
Ta5 Ta7 2.882385 1_545
Ta5 Ta6 2.886871 1_455
Ta6 Ta8 2.882388 1_655
Ta7 Ta8 2.886871 1_565
Ta10 Ta11 2.882378 1_554
Ta10 Ta3 2.882388 1_564
Ta11 Ta9 2.886871 1_665
Ta11 Ta3 2.886871 1_565
Cl0 Ta9 2.461892 1_565
Cl0 Ta11 2.469772 1_455
Cl0 Cl31 3.333867 1_455
Cl0 Cl10 3.342518 1_565
Cl0 Cl14 3.398124 1_555
Cl0 Cl25 3.401574 1_555
Cl0 Cl24 3.451274 1_566
Cl0 Cs0 3.918907 1_555
Cl1 Ta4 2.465594 1_555
Cl1 Ta7 2.466899 1_655
Cl1 Cl18 3.398130 1_555
Cl1 Cl13 3.413691 1_655
Cl1 Cl28 3.434407 1_555
Cl1 Cl5 3.444823 1_655
Cl1 Cl32 3.444823 1_555
Cl1 Cl25 3.451274 1_655
Cl1 Cl27 3.729261 1_555
Cl2 Ta0 2.461878 1_555
Cl2 Ta1 2.469774 1_545
Cl2 Cl7 3.333874 1_545
Cl2 Cl35 3.342511 1_555
Cl2 Cl24 3.398130 1_555
Cl2 Cl30 3.401574 1_555
Cl2 Cs1 3.918923 1_555
Cl3 Ta11 2.465589 1_554
Cl3 Ta10 2.466897 1_555
Cl3 Cl31 3.434407 1_554
Cl3 Cl34 3.451272 1_554
Cl4 Ta5 2.461878 1_555
Cl4 Ta6 2.469774 1_455
Cl4 Cl8 3.398130 1_555
Cl4 Cs0 3.918923 1_555
Cl5 Ta7 2.465586 1_555
Cl5 Ta5 2.466905 1_565
Cl6 Ta6 2.465586 1_555
Cl6 Ta2 2.466905 1_545
Cl6 Cl8 3.444823 1_655
Cl7 Er1 2.664090 1_555
Cl7 Ta1 2.740859 1_555
Cl7 Cs1 3.902953 1_565
Cl8 Ta8 2.465594 1_555
Cl8 Ta6 2.466899 1_455
Cl9 Er0 2.664090 1_555
Cl9 Ta3 2.740859 1_555
Cl9 Cs0 3.902953 1_545
Cl10 Er0 2.664098 1_555
Cl10 Ta9 2.740864 1_555
Cl10 Cl16 3.333865 1_555
Cl10 Cl17 3.413691 1_555
Cl10 Cl24 3.434407 1_556
Cl10 Cl28 3.593584 1_555
Cl10 Cl3 3.729261 1_556
Cl10 Cs0 3.902959 1_555
Cl11 Ta10 2.461892 1_545
Cl11 Ta0 2.469772 1_655
Cl11 Cl35 3.333867 1_655
Cl11 Cl26 3.342518 1_545
Cl11 Cl33 3.398124 1_555
Cl11 Cl19 3.401574 1_555
Cl11 Cl12 3.451274 1_544
Cl11 Cs1 3.918907 1_555
Cl12 Ta10 2.465594 1_556
Cl12 Ta3 2.466899 1_565
Cl12 Cl34 3.398130 1_555
Cl12 Cl9 3.413691 1_565
Cl12 Cl26 3.434407 1_556
Cl12 Cl33 3.444823 1_566
Cl12 Cl3 3.444823 1_556
Cl12 Cl7 3.729261 1_556
Cl13 Er1 2.664090 1_555
Cl13 Ta7 2.740859 1_555
Cl13 Cl18 3.333874 1_455
Cl13 Cl30 3.342520 1_565
Cl13 Cl5 3.434407 1_555
Cl13 Cl35 3.593584 1_555
Cl13 Cl8 3.729261 1_555
Cl13 Cs1 3.902953 1_455
Cl14 Ta1 2.465586 1_556
Cl14 Ta11 2.466905 1_455
Cl14 Cl31 3.413691 1_455
Cl14 Cl7 3.434407 1_556
Cl14 Cl24 3.444823 1_566
Cl14 Cl3 3.444823 1_456
Cl14 Cl23 3.451278 1_456
Cl14 Cl35 3.729261 1_556
Cl15 Ta5 2.465589 1_555
Cl15 Ta8 2.466897 1_555
Cl15 Cl30 3.398126 1_555
Cl15 Cl20 3.413691 1_555
Cl15 Cl29 3.434407 1_555
Cl15 Cl5 3.444823 1_545
Cl15 Cl8 3.444823 1_555
Cl15 Cl4 3.451272 1_555
Cl15 Cl28 3.729261 1_555
Cl16 Ta3 2.461886 1_455
Cl16 Ta9 2.469761 1_555
Cl16 Cl9 3.342520 1_455
Cl16 Cl17 3.398126 1_555
Cl16 Cl4 3.401574 1_555
Cl16 Cl33 3.451278 1_456
Cl16 Cs0 3.918920 1_555
Cl17 Ta0 2.465589 1_556
Cl17 Ta9 2.466897 1_555
Cl17 Cl35 3.434407 1_556
Cl17 Cl33 3.444823 1_456
Cl17 Cl24 3.444823 1_556
Cl17 Cl2 3.451272 1_556
Cl17 Cl26 3.729261 1_556
Cl18 Ta2 2.461878 1_555
Cl18 Ta7 2.469774 1_655
Cl18 Cl22 3.342511 1_555
Cl18 Cl23 3.401574 1_555
Cl18 Cl32 3.451272 1_555
Cl18 Cs1 3.918923 1_555
Cl19 Ta8 2.461892 1_655
Cl19 Ta2 2.469772 1_545
Cl19 Cl22 3.333867 1_545
Cl19 Cl20 3.342518 1_655
Cl19 Cl6 3.398124 1_555
Cl19 Cl8 3.451274 1_655
Cl19 Cs1 3.918907 1_555
Cl20 Er1 2.664098 1_555
Cl20 Ta8 2.740864 1_555
Cl20 Cl30 3.333865 1_555
Cl20 Cl8 3.434407 1_555
Cl20 Cl26 3.593584 1_555
Cl20 Cl32 3.729261 1_555
Cl20 Cs1 3.902959 1_555
Cl21 Ta6 2.461886 1_565
Cl21 Ta4 2.469761 1_555
Cl21 Cl28 3.333865 1_555
Cl21 Cl27 3.342520 1_565
Cl21 Cl32 3.398126 1_555
Cl21 Cl34 3.401574 1_555
Cl21 Cl6 3.451278 1_565
Cl21 Cs0 3.918920 1_555
Cl22 Er1 2.664094 1_555
Cl22 Ta2 2.740866 1_555
Cl22 Cl6 3.413691 1_565
Cl22 Cl32 3.434407 1_555
Cl22 Cl7 3.593584 1_555
Cl22 Cl5 3.729261 1_555
Cl22 Cs1 3.902951 1_565
Cl23 Ta1 2.461886 1_655
Cl23 Ta10 2.469761 1_555
Cl23 Cl26 3.333865 1_555
Cl23 Cl7 3.342520 1_655
Cl23 Cl3 3.398126 1_555
Cl23 Cs1 3.918920 1_555
Cl24 Ta9 2.465594 1_554
Cl24 Ta1 2.466899 1_545
Cl24 Cl7 3.413691 1_545
Cl24 Cl9 3.729261 1_554
Cl25 Ta4 2.461892 1_455
Cl25 Ta5 2.469772 1_565
Cl25 Cl29 3.333867 1_565
Cl25 Cl28 3.342518 1_455
Cl25 Cl5 3.398124 1_555
Cl25 Cs0 3.918907 1_555
Cl26 Er1 2.664098 1_555
Cl26 Ta10 2.740864 1_555
Cl26 Cl3 3.413691 1_555
Cl26 Cs1 3.902959 1_555
Cl27 Er0 2.664090 1_555
Cl27 Ta6 2.740859 1_555
Cl27 Cl4 3.333874 1_655
Cl27 Cl8 3.413691 1_655
Cl27 Cl6 3.434407 1_555
Cl27 Cl31 3.593584 1_555
Cl27 Cs0 3.902953 1_655
Cl28 Er0 2.664098 1_555
Cl28 Ta4 2.740864 1_555
Cl28 Cl32 3.413691 1_555
Cl28 Cs0 3.902959 1_555
Cl29 Er0 2.664094 1_555
Cl29 Ta5 2.740866 1_555
Cl29 Cl4 3.342511 1_555
Cl29 Cl5 3.413691 1_545
Cl29 Cl9 3.593584 1_555
Cl29 Cl6 3.729261 1_555
Cl29 Cs0 3.902951 1_545
Cl30 Ta7 2.461886 1_545
Cl30 Ta8 2.469761 1_555
Cl30 Cl5 3.451278 1_545
Cl30 Cs1 3.918920 1_555
Cl31 Er0 2.664094 1_555
Cl31 Ta11 2.740866 1_555
Cl31 Cl34 3.342511 1_555
Cl31 Cl33 3.729261 1_556
Cl31 Cs0 3.902951 1_655
Cl32 Ta2 2.465589 1_555
Cl32 Ta4 2.466897 1_555
Cl32 Cl6 3.444823 1_565
Cl33 Ta3 2.465586 1_554
Cl33 Ta0 2.466905 1_655
Cl33 Cl35 3.413691 1_655
Cl33 Cl9 3.434407 1_554
Cl34 Ta11 2.461878 1_555
Cl34 Ta3 2.469774 1_565
Cl34 Cl9 3.333874 1_565
Cl34 Cs0 3.918923 1_555
Cl35 Er1 2.664094 1_555
Cl35 Ta0 2.740866 1_555
Cl35 Cs1 3.902951 1_455
