# generated using pymatgen
data_AlPO4
_symmetry_space_group_name_H-M   'P 1'
_cell_length_a   13.78871831
_cell_length_b   13.78871831
_cell_length_c   12.85213988
_cell_angle_alpha   62.66492078
_cell_angle_beta   62.66492078
_cell_angle_gamma   44.57941243
_symmetry_Int_Tables_number   1
_chemical_formula_structural   AlPO4
_chemical_formula_sum   'Al12 P12 O48'
_cell_volume   1489.01408845
_cell_formula_units_Z   12
loop_
 _symmetry_equiv_pos_site_id
 _symmetry_equiv_pos_as_xyz
  1  'x, y, z'
loop_
 _atom_site_type_symbol
 _atom_site_label
 _atom_site_symmetry_multiplicity
 _atom_site_fract_x
 _atom_site_fract_y
 _atom_site_fract_z
 _atom_site_occupancy
  Al  Al0  1  0.56609900  0.56609900  0.31046400  1
  Al  Al1  1  0.11083000  0.66354900  0.48605200  1
  Al  Al2  1  0.20482700  0.20482700  0.66744700  1
  Al  Al3  1  0.65560900  0.65560900  0.78784900  1
  Al  Al4  1  0.33645100  0.88917000  0.51394800  1
  Al  Al5  1  0.71670700  0.28329300  0.00000000  1
  Al  Al6  1  0.88917000  0.33645100  0.51394800  1
  Al  Al7  1  0.79517300  0.79517300  0.33255300  1
  Al  Al8  1  0.66354900  0.11083000  0.48605200  1
  Al  Al9  1  0.34439100  0.34439100  0.21215100  1
  Al  Al10  1  0.43390100  0.43390100  0.68953600  1
  Al  Al11  1  0.28329300  0.71670700  0.00000000  1
  P  P0  1  0.33971500  0.33971500  0.60426200  1
  P  P1  1  0.88713600  0.33171200  0.76025700  1
  P  P2  1  0.79190500  0.79190500  0.58522500  1
  P  P3  1  0.56921500  0.56921500  0.05784800  1
  P  P4  1  0.66028500  0.66028500  0.39573800  1
  P  P5  1  0.28039800  0.71960200  0.50000000  1
  P  P6  1  0.43078500  0.43078500  0.94215200  1
  P  P7  1  0.66828800  0.11286400  0.23974300  1
  P  P8  1  0.11286400  0.66828800  0.23974300  1
  P  P9  1  0.20809500  0.20809500  0.41477500  1
  P  P10  1  0.71960200  0.28039800  0.50000000  1
  P  P11  1  0.33171200  0.88713600  0.76025700  1
  O  O0  1  0.94858200  0.70794900  0.57719500  1
  O  O1  1  0.51933700  0.75661300  0.47693400  1
  O  O2  1  0.76191600  0.49066400  0.75473200  1
  O  O3  1  0.65355900  0.41275100  0.06361800  1
  O  O4  1  0.63560700  0.63560700  0.30802500  1
  O  O5  1  0.69772100  0.97489800  0.26245700  1
  O  O6  1  0.61156200  0.34082800  0.61323200  1
  O  O7  1  0.27049800  0.27049800  0.67811000  1
  O  O8  1  0.89609200  0.28676500  0.66435700  1
  O  O9  1  0.29205100  0.05141800  0.42280500  1
  O  O10  1  0.41275100  0.65355900  0.06361800  1
  O  O11  1  0.72950200  0.72950200  0.32189000  1
  O  O12  1  0.02510200  0.30227900  0.73754300  1
  O  O13  1  0.34082800  0.61156200  0.61323200  1
  O  O14  1  0.86587100  0.24531900  0.88455200  1
  O  O15  1  0.36885100  0.36885100  0.05799800  1
  O  O16  1  0.58035000  0.58035000  0.16402700  1
  O  O17  1  0.97489800  0.69772100  0.26245700  1
  O  O18  1  0.22464200  0.22464200  0.51519800  1
  O  O19  1  0.70794900  0.94858200  0.57719500  1
  O  O20  1  0.13412900  0.75468100  0.11544800  1
  O  O21  1  0.49066400  0.76191600  0.75473200  1
  O  O22  1  0.48066300  0.24338700  0.52306600  1
  O  O23  1  0.63114900  0.63114900  0.94200200  1
  O  O24  1  0.10390800  0.71323500  0.33564300  1
  O  O25  1  0.05141800  0.29205100  0.42280500  1
  O  O26  1  0.73409300  0.73409300  0.70742300  1
  O  O27  1  0.75661300  0.51933700  0.47693400  1
  O  O28  1  0.26590700  0.26590700  0.29257700  1
  O  O29  1  0.50933600  0.23808400  0.24526800  1
  O  O30  1  0.38843800  0.65917200  0.38676800  1
  O  O31  1  0.36439300  0.36439300  0.69197500  1
  O  O32  1  0.58724900  0.34644100  0.93638200  1
  O  O33  1  0.28676500  0.89609200  0.66435700  1
  O  O34  1  0.24531900  0.86587100  0.88455200  1
  O  O35  1  0.75389100  0.14430500  0.50748700  1
  O  O36  1  0.75468100  0.13412900  0.11544800  1
  O  O37  1  0.24610900  0.85569500  0.49251300  1
  O  O38  1  0.30227900  0.02510200  0.73754300  1
  O  O39  1  0.24338700  0.48066300  0.52306600  1
  O  O40  1  0.71323500  0.10390800  0.33564300  1
  O  O41  1  0.65917200  0.38843800  0.38676800  1
  O  O42  1  0.23808400  0.50933600  0.24526800  1
  O  O43  1  0.85569500  0.24610900  0.49251300  1
  O  O44  1  0.14430500  0.75389100  0.50748700  1
  O  O45  1  0.77535800  0.77535800  0.48480200  1
  O  O46  1  0.34644100  0.58724900  0.93638200  1
  O  O47  1  0.41965000  0.41965000  0.83597300  1
loop_
_geom_bond_atom_site_label_1
_geom_bond_atom_site_label_2
_geom_bond_distance
_geom_bond_site_symmetry_2
Al0 O16 1.730602 1_555
Al0 O41 1.755209 1_555
Al0 O30 1.755209 1_555
Al0 O4 1.758275 1_555
Al1 O0 1.747202 1_455
Al1 O39 1.748450 1_555
Al1 O24 1.753649 1_555
Al1 O44 1.758341 1_555
Al2 O7 1.747778 1_555
Al2 O12 1.753908 1_555
Al2 O38 1.753908 1_555
Al2 O18 1.761374 1_555
Al3 O26 1.739093 1_555
Al3 O2 1.751971 1_555
Al3 O21 1.751971 1_555
Al3 O23 1.757086 1_555
Al4 O9 1.747202 1_565
Al4 O1 1.748450 1_555
Al4 O33 1.753649 1_555
Al4 O37 1.758341 1_555
Al5 O36 1.755753 1_555
Al5 O14 1.755753 1_554
Al5 O32 1.756558 1_554
Al5 O3 1.756558 1_555
Al6 O25 1.747202 1_655
Al6 O27 1.748450 1_555
Al6 O8 1.753649 1_555
Al6 O43 1.758341 1_555
Al7 O11 1.747778 1_555
Al7 O17 1.753908 1_555
Al7 O5 1.753908 1_555
Al7 O45 1.761374 1_555
Al8 O19 1.747202 1_545
Al8 O22 1.748450 1_555
Al8 O40 1.753649 1_555
Al8 O35 1.758341 1_555
Al9 O28 1.739093 1_555
Al9 O42 1.751971 1_555
Al9 O29 1.751971 1_555
Al9 O15 1.757086 1_555
Al10 O47 1.730602 1_555
Al10 O6 1.755209 1_555
Al10 O13 1.755209 1_555
Al10 O31 1.758275 1_555
Al11 O20 1.755753 1_555
Al11 O34 1.755753 1_554
Al11 O46 1.756558 1_554
Al11 O10 1.756558 1_555
O0 P2 1.536305 1_555
O1 P4 1.537315 1_555
O2 P1 1.539061 1_555
O3 P3 1.539652 1_555
O4 P4 1.540100 1_555
O5 P7 1.538794 1_565
O6 P10 1.544574 1_555
O7 P0 1.535066 1_555
O8 P1 1.539862 1_555
O9 P9 1.536305 1_555
O10 P3 1.539652 1_555
O11 P4 1.535066 1_555
O12 P1 1.538794 1_455
O13 P5 1.544574 1_555
O14 P1 1.541646 1_555
O15 P6 1.542348 1_554
O16 P3 1.525707 1_555
O17 P8 1.538794 1_655
O18 P9 1.544326 1_555
O19 P2 1.536305 1_555
O20 P8 1.541646 1_555
O21 P11 1.539061 1_555
O22 P0 1.537315 1_555
O23 P3 1.542348 1_556
O24 P8 1.539862 1_555
O25 P9 1.536305 1_555
O26 P2 1.530724 1_555
O27 P4 1.537315 1_555
O28 P9 1.530724 1_555
O29 P7 1.539061 1_555
O30 P5 1.544574 1_555
O31 P0 1.540100 1_555
O32 P6 1.539652 1_555
O33 P11 1.539862 1_555
O34 P11 1.541646 1_555
O35 P10 1.538267 1_555
O36 P7 1.541646 1_555
O37 P5 1.538267 1_555
O38 P11 1.538794 1_545
O39 P0 1.537315 1_555
O40 P7 1.539862 1_555
O41 P10 1.544574 1_555
O42 P8 1.539061 1_555
O43 P10 1.538267 1_555
O44 P5 1.538267 1_555
O45 P2 1.544326 1_555
O46 P6 1.539652 1_555
O47 P6 1.525707 1_555
