# generated using pymatgen
data_TiSi2
_symmetry_space_group_name_H-M   'P 1'
_cell_length_a   9.55874140
_cell_length_b   9.55874140
_cell_length_c   9.55874140
_cell_angle_alpha   144.10170249
_cell_angle_beta   138.01652023
_cell_angle_gamma   56.39963948
_symmetry_Int_Tables_number   1
_chemical_formula_structural   TiSi2
_chemical_formula_sum   'Ti8 Si16'
_cell_volume   339.89802567
_cell_formula_units_Z   8
loop_
 _symmetry_equiv_pos_site_id
 _symmetry_equiv_pos_as_xyz
  1  'x, y, z'
loop_
 _atom_site_type_symbol
 _atom_site_label
 _atom_site_symmetry_multiplicity
 _atom_site_fract_x
 _atom_site_fract_y
 _atom_site_fract_z
 _atom_site_occupancy
  Ti  Ti0_0  1  0.00000000  0.00000000  0.00000000  1
  Ti  Ti0_1  1  0.00000000  0.00000000  0.50000000  1
  Ti  Ti0_2  1  0.00000000  0.50000000  0.00000000  1
  Ti  Ti0_3  1  0.00000000  0.50000000  0.50000000  1
  Ti  Ti0_4  1  0.50000000  0.00000000  0.00000000  1
  Ti  Ti0_5  1  0.50000000  0.00000000  0.50000000  1
  Ti  Ti0_6  1  0.50000000  0.50000000  0.00000000  1
  Ti  Ti0_7  1  0.50000000  0.50000000  0.50000000  1
  Si  Si0_0  1  0.16496100  0.16496100  0.00000000  1
  Si  Si0_1  1  0.16496100  0.16496100  0.50000000  1
  Si  Si0_2  1  0.16496100  0.66496100  0.00000000  1
  Si  Si0_3  1  0.16496100  0.66496100  0.50000000  1
  Si  Si0_4  1  0.66496100  0.16496100  0.00000000  1
  Si  Si0_5  1  0.66496100  0.16496100  0.50000000  1
  Si  Si0_6  1  0.66496100  0.66496100  0.00000000  1
  Si  Si0_7  1  0.66496100  0.66496100  0.50000000  1
  Si  Si1_0  1  0.33503900  0.33503900  0.00000000  1
  Si  Si1_1  1  0.33503900  0.33503900  0.50000000  1
  Si  Si1_2  1  0.33503900  0.83503900  0.00000000  1
  Si  Si1_3  1  0.33503900  0.83503900  0.50000000  1
  Si  Si1_4  1  0.83503900  0.33503900  0.00000000  1
  Si  Si1_5  1  0.83503900  0.33503900  0.50000000  1
  Si  Si1_6  1  0.83503900  0.83503900  0.00000000  1
  Si  Si1_7  1  0.83503900  0.83503900  0.50000000  1
loop_
_geom_bond_atom_site_label_1
_geom_bond_atom_site_label_2
_geom_bond_distance
_geom_bond_site_symmetry_2
Ti0_0 Ti0_3 2.945744 1_555
Ti0_0 Ti0_3 2.945744 1_544
Ti0_1 Ti0_2 2.945744 1_556
Ti0_1 Ti0_2 2.945744 1_545
Ti0_4 Ti0_7 2.945744 1_544
Ti0_4 Ti0_7 2.945744 1_555
Ti0_5 Ti0_6 2.945744 1_545
Ti0_5 Ti0_6 2.945744 1_556
Si0_0 Si1_1 2.629438 1_555
Si0_0 Si1_2 2.629438 1_545
Si0_0 Si1_4 2.629438 1_455
Si0_0 Si1_7 2.629438 1_444
Si0_0 Ti0_7 2.674614 1_555
Si0_0 Ti0_2 2.674614 1_555
Si0_0 Ti0_1 2.674614 1_554
Si0_0 Ti0_4 2.674614 1_555
Si0_0 Ti0_0 2.779318 1_555
Si0_0 Si1_0 2.865531 1_555
Si0_0 Si0_3 2.945744 1_544
Si0_0 Si0_3 2.945744 1_555
Si0_1 Si1_6 2.629438 1_445
Si0_1 Si1_3 2.629438 1_545
Si0_1 Si1_0 2.629438 1_556
Si0_1 Si1_5 2.629438 1_455
Si0_1 Ti0_6 2.674614 1_556
Si0_1 Ti0_5 2.674614 1_555
Si0_1 Ti0_0 2.674614 1_555
Si0_1 Ti0_3 2.674614 1_555
Si0_1 Ti0_1 2.779318 1_555
Si0_1 Si1_1 2.865531 1_555
Si0_1 Si0_2 2.945744 1_545
Si0_1 Si0_2 2.945744 1_556
Si0_2 Si1_6 2.629438 1_455
Si0_2 Si1_3 2.629438 1_555
Si0_2 Si1_5 2.629438 1_454
Si0_2 Si1_0 2.629438 1_555
Si0_2 Ti0_3 2.674614 1_554
Si0_2 Ti0_5 2.674614 1_565
Si0_2 Ti0_6 2.674614 1_555
Si0_2 Ti0_0 2.674614 1_565
Si0_2 Ti0_2 2.779318 1_555
Si0_2 Si1_2 2.865531 1_555
Si0_3 Si1_7 2.629438 1_455
Si0_3 Si1_1 2.629438 1_555
Si0_3 Si1_2 2.629438 1_556
Si0_3 Si1_4 2.629438 1_455
Si0_3 Ti0_4 2.674614 1_566
Si0_3 Ti0_2 2.674614 1_555
Si0_3 Ti0_1 2.674614 1_565
Si0_3 Ti0_7 2.674614 1_555
Si0_3 Ti0_3 2.779318 1_555
Si0_3 Si1_3 2.865531 1_555
Si0_4 Si1_3 2.629438 1_544
Si0_4 Si1_0 2.629438 1_555
Si0_4 Si1_5 2.629438 1_555
Si0_4 Si1_6 2.629438 1_545
Si0_4 Ti0_5 2.674614 1_554
Si0_4 Ti0_0 2.674614 1_655
Si0_4 Ti0_6 2.674614 1_555
Si0_4 Ti0_3 2.674614 1_655
Si0_4 Ti0_4 2.779318 1_555
Si0_4 Si1_4 2.865531 1_555
Si0_4 Si0_7 2.945744 1_544
Si0_4 Si0_7 2.945744 1_555
Si0_5 Si1_1 2.629438 1_555
Si0_5 Si1_7 2.629438 1_545
Si0_5 Si1_4 2.629438 1_556
Si0_5 Si1_2 2.629438 1_545
Si0_5 Ti0_2 2.674614 1_656
Si0_5 Ti0_1 2.674614 1_655
Si0_5 Ti0_7 2.674614 1_555
Si0_5 Ti0_4 2.674614 1_555
Si0_5 Ti0_5 2.779318 1_555
Si0_5 Si1_5 2.865531 1_555
Si0_5 Si0_6 2.945744 1_545
Si0_5 Si0_6 2.945744 1_556
Si0_6 Si1_1 2.629438 1_554
Si0_6 Si1_7 2.629438 1_555
Si0_6 Si1_2 2.629438 1_555
Si0_6 Si1_4 2.629438 1_555
Si0_6 Ti0_1 2.674614 1_665
Si0_6 Ti0_4 2.674614 1_565
Si0_6 Ti0_7 2.674614 1_554
Si0_6 Ti0_2 2.674614 1_655
Si0_6 Ti0_6 2.779318 1_555
Si0_6 Si1_6 2.865531 1_555
Si0_7 Si1_3 2.629438 1_555
Si0_7 Si1_6 2.629438 1_556
Si0_7 Si1_5 2.629438 1_555
Si0_7 Si1_0 2.629438 1_555
Si0_7 Ti0_0 2.674614 1_666
Si0_7 Ti0_5 2.674614 1_565
Si0_7 Ti0_6 2.674614 1_555
Si0_7 Ti0_3 2.674614 1_655
Si0_7 Ti0_7 2.779318 1_555
Si0_7 Si1_7 2.865531 1_555
Si1_0 Ti0_4 2.674614 1_555
Si1_0 Ti0_7 2.674614 1_555
Si1_0 Ti0_2 2.674614 1_555
Si1_0 Ti0_1 2.674614 1_554
Si1_0 Ti0_6 2.779318 1_555
Si1_0 Si1_3 2.945744 1_544
Si1_0 Si1_3 2.945744 1_555
Si1_1 Ti0_0 2.674614 1_555
Si1_1 Ti0_6 2.674614 1_556
Si1_1 Ti0_5 2.674614 1_555
Si1_1 Ti0_3 2.674614 1_555
Si1_1 Ti0_7 2.779318 1_555
Si1_1 Si1_2 2.945744 1_545
Si1_1 Si1_2 2.945744 1_556
Si1_2 Ti0_0 2.674614 1_565
Si1_2 Ti0_5 2.674614 1_565
Si1_2 Ti0_3 2.674614 1_554
Si1_2 Ti0_6 2.674614 1_555
Si1_2 Ti0_4 2.779318 1_565
Si1_3 Ti0_2 2.674614 1_555
Si1_3 Ti0_1 2.674614 1_565
Si1_3 Ti0_4 2.674614 1_566
Si1_3 Ti0_7 2.674614 1_555
Si1_3 Ti0_5 2.779318 1_565
Si1_4 Ti0_0 2.674614 1_655
Si1_4 Ti0_3 2.674614 1_655
Si1_4 Ti0_5 2.674614 1_554
Si1_4 Ti0_6 2.674614 1_555
Si1_4 Ti0_2 2.779318 1_655
Si1_4 Si1_7 2.945744 1_544
Si1_4 Si1_7 2.945744 1_555
Si1_5 Ti0_1 2.674614 1_655
Si1_5 Ti0_7 2.674614 1_555
Si1_5 Ti0_4 2.674614 1_555
Si1_5 Ti0_2 2.674614 1_656
Si1_5 Ti0_3 2.779318 1_655
Si1_5 Si1_6 2.945744 1_556
Si1_5 Si1_6 2.945744 1_545
Si1_6 Ti0_2 2.674614 1_655
Si1_6 Ti0_7 2.674614 1_554
Si1_6 Ti0_1 2.674614 1_665
Si1_6 Ti0_4 2.674614 1_565
Si1_6 Ti0_0 2.779318 1_665
Si1_7 Ti0_6 2.674614 1_555
Si1_7 Ti0_0 2.674614 1_666
Si1_7 Ti0_5 2.674614 1_565
Si1_7 Ti0_3 2.674614 1_655
Si1_7 Ti0_1 2.779318 1_665
