# generated using pymatgen
data_SbXeO2F7
_symmetry_space_group_name_H-M   'P 1'
_cell_length_a   5.93005300
_cell_length_b   10.53429500
_cell_length_c   12.35155189
_cell_angle_alpha   86.82319355
_cell_angle_beta   90.00000000
_cell_angle_gamma   90.00000000
_symmetry_Int_Tables_number   1
_chemical_formula_structural   SbXeO2F7
_chemical_formula_sum   'Sb4 Xe4 O8 F28'
_cell_volume   770.40248575
_cell_formula_units_Z   4
loop_
 _symmetry_equiv_pos_site_id
 _symmetry_equiv_pos_as_xyz
  1  'x, y, z'
loop_
 _atom_site_type_symbol
 _atom_site_label
 _atom_site_symmetry_multiplicity
 _atom_site_fract_x
 _atom_site_fract_y
 _atom_site_fract_z
 _atom_site_occupancy
  Sb  Sb0  1  0.29068300  0.66912700  0.37201900  1
  Sb  Sb1  1  0.79068300  0.33087300  0.12798100  1
  Sb  Sb2  1  0.20931700  0.66912700  0.87201900  1
  Sb  Sb3  1  0.70931700  0.33087300  0.62798100  1
  Xe  Xe0  1  0.81644500  0.80181600  0.13251600  1
  Xe  Xe1  1  0.68355500  0.80181600  0.63251600  1
  Xe  Xe2  1  0.18355500  0.19818400  0.86748400  1
  Xe  Xe3  1  0.31644500  0.19818400  0.36748400  1
  O  O0  1  0.59917100  0.12758800  0.38921900  1
  O  O1  1  0.38373800  0.11036800  0.95814900  1
  O  O2  1  0.90082900  0.12758800  0.88921900  1
  O  O3  1  0.61626200  0.88963200  0.04185100  1
  O  O4  1  0.09917100  0.87241200  0.11078100  1
  O  O5  1  0.88373800  0.88963200  0.54185100  1
  O  O6  1  0.40082900  0.87241200  0.61078100  1
  O  O7  1  0.11626200  0.11036800  0.45814900  1
  F  F0  1  0.82172800  0.51104600  0.12762900  1
  F  F1  1  0.38104900  0.65121700  0.00189000  1
  F  F2  1  0.98053000  0.33972600  0.71619100  1
  F  F3  1  0.43209800  0.31695500  0.54402100  1
  F  F4  1  0.74431300  0.89228200  0.26967300  1
  F  F5  1  0.67827200  0.51104600  0.62762900  1
  F  F6  1  0.32172800  0.48895400  0.37237100  1
  F  F7  1  0.51947000  0.33972600  0.21619100  1
  F  F8  1  0.76284500  0.15083100  0.13445900  1
  F  F9  1  0.75568700  0.89228200  0.76967300  1
  F  F10  1  0.61895100  0.34878300  0.99811000  1
  F  F11  1  0.53065100  0.32026600  0.75971600  1
  F  F12  1  0.25568700  0.10771800  0.73032700  1
  F  F13  1  0.26284500  0.84916900  0.36554100  1
  F  F14  1  0.23715500  0.84916900  0.86554100  1
  F  F15  1  0.96934900  0.32026600  0.25971600  1
  F  F16  1  0.24431300  0.10771800  0.23032700  1
  F  F17  1  0.46934900  0.67973400  0.24028400  1
  F  F18  1  0.93209800  0.68304500  0.95597900  1
  F  F19  1  0.17827200  0.48895400  0.87237100  1
  F  F20  1  0.56790200  0.68304500  0.45597900  1
  F  F21  1  0.01947000  0.66027400  0.28380900  1
  F  F22  1  0.11895100  0.65121700  0.50189000  1
  F  F23  1  0.06790200  0.31695500  0.04402100  1
  F  F24  1  0.73715500  0.15083100  0.63445900  1
  F  F25  1  0.88104900  0.34878300  0.49811000  1
  F  F26  1  0.48053000  0.66027400  0.78380900  1
  F  F27  1  0.03065100  0.67973400  0.74028400  1
loop_
_geom_bond_atom_site_label_1
_geom_bond_atom_site_label_2
_geom_bond_distance
_geom_bond_site_symmetry_2
O0 Xe3 1.847680 1_555
O1 Xe2 1.845053 1_555
O2 Xe2 1.847680 1_655
O3 Xe0 1.845053 1_555
O4 Xe0 1.847680 1_455
O5 Xe1 1.845053 1_555
O6 Xe1 1.847680 1_555
O7 Xe3 1.845053 1_555
F0 Sb1 1.906668 1_555
F0 F15 2.665271 1_555
F0 F7 2.729021 1_555
F1 Sb2 1.900609 1_554
F1 F18 2.738754 1_454
F2 Sb3 1.947739 1_555
F2 Xe2 2.618385 1_655
F2 F24 2.698940 1_555
F2 F5 2.729021 1_555
F3 Sb3 1.953529 1_555
F3 Xe3 2.663225 1_555
F4 Xe0 2.034721 1_555
F5 Sb3 1.906668 1_555
F6 Sb0 1.906668 1_555
F7 Sb1 1.947739 1_555
F7 Xe3 2.618385 1_555
F7 F8 2.698940 1_555
F8 Sb1 1.901048 1_555
F9 Xe1 2.034721 1_555
F10 Sb1 1.900609 1_556
F10 F23 2.738754 1_656
F11 Sb3 1.939698 1_555
F11 F5 2.665271 1_555
F11 F24 2.717540 1_555
F11 F2 2.726906 1_555
F11 F3 2.729626 1_555
F11 Xe2 2.733607 1_555
F11 F12 2.809602 1_555
F12 Xe2 2.034721 1_555
F13 Sb0 1.901048 1_555
F13 F21 2.698940 1_555
F13 F20 2.714061 1_555
F13 F17 2.717540 1_555
F14 Sb2 1.901048 1_555
F14 F26 2.698940 1_555
F14 F18 2.714061 1_455
F14 F27 2.717540 1_555
F15 Sb1 1.939698 1_555
F15 F8 2.717540 1_555
F15 F7 2.726906 1_555
F15 F23 2.729626 1_655
F15 Xe3 2.733607 1_655
F15 F16 2.809602 1_655
F16 Xe3 2.034721 1_555
F17 Sb0 1.939698 1_555
F17 F6 2.665271 1_555
F17 F21 2.726906 1_555
F17 F20 2.729626 1_555
F17 Xe0 2.733607 1_555
F17 F4 2.809602 1_555
F18 Sb2 1.953529 1_655
F18 Xe0 2.663225 1_556
F18 F27 2.729626 1_655
F19 Sb2 1.906668 1_555
F19 F27 2.665271 1_555
F19 F26 2.729021 1_555
F20 Sb0 1.953529 1_555
F20 Xe1 2.663225 1_555
F20 F22 2.738754 1_555
F21 Sb0 1.947739 1_555
F21 Xe0 2.618385 1_455
F21 F6 2.729021 1_555
F22 Sb0 1.900609 1_555
F23 Sb1 1.953529 1_455
F23 Xe2 2.663225 1_554
F23 F8 2.714061 1_455
F24 Sb3 1.901048 1_555
F24 F3 2.714061 1_555
F25 Sb3 1.900609 1_555
F25 F3 2.738754 1_555
F26 Sb2 1.947739 1_555
F26 Xe1 2.618385 1_555
F26 F27 2.726906 1_555
F27 Sb2 1.939698 1_555
F27 Xe1 2.733607 1_455
F27 F9 2.809602 1_455
