# generated using pymatgen
data_KSb2PO8
_symmetry_space_group_name_H-M   'P 1'
_cell_length_a   7.10557089
_cell_length_b   7.10557089
_cell_length_c   15.05748184
_cell_angle_alpha   84.97241010
_cell_angle_beta   84.97241010
_cell_angle_gamma   60.02515725
_symmetry_Int_Tables_number   1
_chemical_formula_structural   KSb2PO8
_chemical_formula_sum   'K4 Sb8 P4 O32'
_cell_volume   655.17204594
_cell_formula_units_Z   4
loop_
 _symmetry_equiv_pos_site_id
 _symmetry_equiv_pos_as_xyz
  1  'x, y, z'
loop_
 _atom_site_type_symbol
 _atom_site_label
 _atom_site_symmetry_multiplicity
 _atom_site_fract_x
 _atom_site_fract_y
 _atom_site_fract_z
 _atom_site_occupancy
  K  K0  1  0.14796022  0.90724462  0.11607014  1
  K  K1  1  0.90724462  0.14796022  0.61607014  1
  K  K2  1  0.85203978  0.09275538  0.88392986  1
  K  K3  1  0.09275538  0.85203978  0.38392986  1
  Sb  Sb0  1  0.62133759  0.87504249  0.24670464  1
  Sb  Sb1  1  0.19189021  0.45482496  0.93705144  1
  Sb  Sb2  1  0.45482496  0.19189021  0.43705144  1
  Sb  Sb3  1  0.37866241  0.12495751  0.75329536  1
  Sb  Sb4  1  0.80810979  0.54517504  0.06294856  1
  Sb  Sb5  1  0.87504249  0.62133759  0.74670464  1
  Sb  Sb6  1  0.12495751  0.37866241  0.25329536  1
  Sb  Sb7  1  0.54517504  0.80810979  0.56294856  1
  P  P0  1  0.71461694  0.48827551  0.39418892  1
  P  P1  1  0.51172449  0.28538306  0.10581108  1
  P  P2  1  0.48827551  0.71461694  0.89418892  1
  P  P3  1  0.28538306  0.51172449  0.60581108  1
  O  O0  1  0.40210399  0.24551358  0.03214945  1
  O  O1  1  0.25718936  0.41284576  0.35465348  1
  O  O2  1  0.67254725  0.07057355  0.15326786  1
  O  O3  1  0.32745275  0.92942645  0.84673214  1
  O  O4  1  0.98057497  0.34101923  0.15808893  1
  O  O5  1  0.56182934  0.66087318  0.32653094  1
  O  O6  1  0.99915314  0.33355204  0.97129083  1
  O  O7  1  0.66087318  0.56182934  0.82653094  1
  O  O8  1  0.43817066  0.33912682  0.67346906  1
  O  O9  1  0.24551358  0.40210399  0.53214945  1
  O  O10  1  0.92942645  0.32745275  0.34673214  1
  O  O11  1  0.06162062  0.30570647  0.75309361  1
  O  O12  1  0.01942503  0.65898077  0.84191107  1
  O  O13  1  0.33912682  0.43817066  0.17346906  1
  O  O14  1  0.00084686  0.66644796  0.02870917  1
  O  O15  1  0.30570647  0.06162062  0.25309361  1
  O  O16  1  0.38159723  0.64738280  0.56168005  1
  O  O17  1  0.66644796  0.00084686  0.52870917  1
  O  O18  1  0.33355204  0.99915314  0.47129083  1
  O  O19  1  0.35261720  0.61840277  0.93831995  1
  O  O20  1  0.69429353  0.93837938  0.74690639  1
  O  O21  1  0.65898077  0.01942503  0.34191107  1
  O  O22  1  0.74281064  0.58715424  0.64534652  1
  O  O23  1  0.64738280  0.38159723  0.06168005  1
  O  O24  1  0.59789601  0.75448642  0.96785055  1
  O  O25  1  0.34101923  0.98057497  0.65808893  1
  O  O26  1  0.75448642  0.59789601  0.46785055  1
  O  O27  1  0.61840277  0.35261720  0.43831995  1
  O  O28  1  0.58715424  0.74281064  0.14534652  1
  O  O29  1  0.07057355  0.67254725  0.65326786  1
  O  O30  1  0.93837938  0.69429353  0.24690639  1
  O  O31  1  0.41284576  0.25718936  0.85465348  1
loop_
_geom_bond_atom_site_label_1
_geom_bond_atom_site_label_2
_geom_bond_distance
_geom_bond_site_symmetry_2
K0 O28 2.793882 1_555
K0 O4 2.803883 1_465
K0 O14 2.858893 1_555
K0 O15 2.957555 1_565
K0 O13 2.979618 1_555
K0 O2 2.989462 1_465
K0 O30 3.098933 1_455
K0 O19 3.284629 1_554
K0 O6 3.330522 1_464
K0 O24 3.476599 1_554
K1 O22 2.793882 1_555
K1 O25 2.803883 1_645
K1 O17 2.858893 1_555
K1 O11 2.957555 1_655
K1 O8 2.979618 1_555
K1 O29 2.989462 1_645
K1 O20 3.098933 1_545
K1 O27 3.284629 1_555
K1 O18 3.330522 1_645
K1 O26 3.476599 1_555
K2 O31 2.793882 1_555
K2 O12 2.803883 1_645
K2 O6 2.858893 1_555
K2 O20 2.957555 1_545
K2 O7 2.979618 1_555
K2 O3 2.989462 1_645
K2 O11 3.098933 1_655
K2 O23 3.284629 1_556
K2 O14 3.330522 1_646
K2 O0 3.476599 1_556
K3 O1 2.793882 1_555
K3 O21 2.803883 1_465
K3 O18 2.858893 1_555
K3 O30 2.957555 1_455
K3 O5 2.979618 1_555
K3 O10 2.989462 1_465
K3 O15 3.098933 1_565
K3 O16 3.284629 1_555
K3 O17 3.330522 1_465
K3 O9 3.476599 1_555
O0 P1 1.531076 1_555
O0 Sb1 2.067683 1_554
O0 O31 2.662224 1_554
O1 Sb2 1.933196 1_555
O1 Sb6 1.953317 1_555
O1 O9 2.662224 1_555
O1 O10 2.698108 1_455
O1 O30 2.704054 1_455
O2 P1 1.534689 1_555
O2 Sb0 2.028544 1_545
O2 O28 2.698108 1_545
O2 O30 2.732048 1_545
O3 P2 1.534689 1_555
O3 Sb3 2.028544 1_565
O3 O31 2.698108 1_565
O4 Sb6 1.943800 1_655
O4 Sb4 1.955888 1_555
O5 P0 1.537856 1_555
O5 Sb0 2.042724 1_555
O6 Sb1 1.965072 1_655
O6 Sb4 2.001078 1_556
O7 P2 1.537856 1_555
O7 Sb5 2.042724 1_555
O8 P3 1.537856 1_555
O8 Sb3 2.042724 1_555
O9 P3 1.531076 1_555
O9 Sb2 2.067683 1_555
O10 P0 1.534689 1_555
O10 Sb6 2.028544 1_655
O10 O15 2.732048 1_655
O11 Sb5 1.951982 1_455
O11 Sb3 1.958029 1_555
O11 O25 2.612179 1_545
O11 O7 2.695516 1_455
O11 O22 2.704054 1_455
O11 O3 2.732048 1_545
O12 Sb5 1.943800 1_455
O12 Sb1 1.955888 1_555
O12 O20 2.612179 1_455
O13 P1 1.537856 1_555
O13 Sb6 2.042724 1_555
O13 O30 2.695516 1_455
O14 Sb4 1.965072 1_455
O14 Sb1 2.001078 1_554
O14 O19 2.617082 1_554
O15 Sb0 1.951982 1_545
O15 Sb6 1.958029 1_555
O15 O4 2.612179 1_455
O15 O5 2.695516 1_545
O15 O28 2.704054 1_545
O16 P3 1.518129 1_555
O16 Sb7 1.997440 1_555
O16 O18 2.617082 1_555
O17 Sb7 1.965072 1_545
O17 Sb2 2.001078 1_555
O17 O27 2.617082 1_555
O18 Sb2 1.965072 1_565
O18 Sb7 2.001078 1_555
O19 P2 1.518129 1_555
O19 Sb1 1.997440 1_555
O20 Sb3 1.951982 1_565
O20 Sb5 1.958029 1_555
O20 O8 2.695516 1_565
O20 O31 2.704054 1_565
O20 O29 2.732048 1_655
O21 Sb0 1.943800 1_545
O21 Sb2 1.955888 1_555
O21 O30 2.612179 1_545
O22 Sb7 1.933196 1_555
O22 Sb5 1.953317 1_555
O22 O26 2.662224 1_555
O22 O29 2.698108 1_655
O23 P1 1.518129 1_555
O23 Sb4 1.997440 1_555
O23 O6 2.617082 1_554
O24 P2 1.531076 1_555
O24 Sb4 2.067683 1_556
O24 O28 2.662224 1_556
O25 Sb3 1.943800 1_565
O25 Sb7 1.955888 1_555
O26 P0 1.531076 1_555
O26 Sb7 2.067683 1_555
O27 P0 1.518129 1_555
O27 Sb2 1.997440 1_555
O28 Sb4 1.933196 1_555
O28 Sb0 1.953317 1_555
O29 P3 1.534689 1_555
O29 Sb5 2.028544 1_455
O30 Sb6 1.951982 1_655
O30 Sb0 1.958029 1_555
O31 Sb1 1.933196 1_555
O31 Sb3 1.953317 1_555
