# generated using pymatgen
data_Rb2V2Cu(PO6)2
_symmetry_space_group_name_H-M   'P 1'
_cell_length_a   11.63704800
_cell_length_b   5.06662400
_cell_length_c   9.64248300
_cell_angle_alpha   86.12008443
_cell_angle_beta   90.00000000
_cell_angle_gamma   90.00000000
_symmetry_Int_Tables_number   1
_chemical_formula_structural   Rb2V2Cu(PO6)2
_chemical_formula_sum   'Rb4 V4 Cu2 P4 O24'
_cell_volume   567.22304101
_cell_formula_units_Z   2
loop_
 _symmetry_equiv_pos_site_id
 _symmetry_equiv_pos_as_xyz
  1  'x, y, z'
loop_
 _atom_site_type_symbol
 _atom_site_label
 _atom_site_symmetry_multiplicity
 _atom_site_fract_x
 _atom_site_fract_y
 _atom_site_fract_z
 _atom_site_occupancy
  Rb  Rb0  1  0.36468000  0.55905800  0.10572400  1
  Rb  Rb1  1  0.63532000  0.44094200  0.89427600  1
  Rb  Rb2  1  0.86468000  0.44094200  0.39427600  1
  Rb  Rb3  1  0.13532000  0.55905800  0.60572400  1
  V  V0  1  0.88532000  0.94548700  0.74957600  1
  V  V1  1  0.11468000  0.05451300  0.25042400  1
  V  V2  1  0.38532000  0.05451300  0.75042400  1
  V  V3  1  0.61468000  0.94548700  0.24957600  1
  Cu  Cu0  1  0.00000000  0.50000000  0.00000000  1
  Cu  Cu1  1  0.50000000  0.50000000  0.50000000  1
  P  P0  1  0.86268400  0.98894000  0.08262100  1
  P  P1  1  0.13731600  0.01106000  0.91737900  1
  P  P2  1  0.36268400  0.01106000  0.41737900  1
  P  P3  1  0.63731600  0.98894000  0.58262100  1
  O  O0  1  0.17178500  0.93098600  0.07014900  1
  O  O1  1  0.26462700  0.93243200  0.32033600  1
  O  O2  1  0.47194700  0.89873200  0.86476600  1
  O  O3  1  0.12634900  0.36850100  0.28509600  1
  O  O4  1  0.52805300  0.10126800  0.13523400  1
  O  O5  1  0.97194700  0.10126800  0.63523400  1
  O  O6  1  0.96961100  0.16416100  0.11882200  1
  O  O7  1  0.67178500  0.06901400  0.42985100  1
  O  O8  1  0.73537300  0.06756800  0.67966400  1
  O  O9  1  0.53038900  0.16416100  0.61882200  1
  O  O10  1  0.38983800  0.30826800  0.39397400  1
  O  O11  1  0.46961100  0.83583900  0.38117800  1
  O  O12  1  0.23537300  0.93243200  0.82033600  1
  O  O13  1  0.03038900  0.83583900  0.88117800  1
  O  O14  1  0.37365100  0.36850100  0.78509600  1
  O  O15  1  0.88983800  0.69173200  0.10602600  1
  O  O16  1  0.02805300  0.89873200  0.36476600  1
  O  O17  1  0.11016200  0.30826800  0.89397400  1
  O  O18  1  0.62634900  0.63149900  0.21490400  1
  O  O19  1  0.87365100  0.63149900  0.71490400  1
  O  O20  1  0.82821500  0.06901400  0.92985100  1
  O  O21  1  0.61016200  0.69173200  0.60602600  1
  O  O22  1  0.32821500  0.93098600  0.57014900  1
  O  O23  1  0.76462700  0.06756800  0.17966400  1
loop_
_geom_bond_atom_site_label_1
_geom_bond_atom_site_label_2
_geom_bond_distance
_geom_bond_site_symmetry_2
Cu0 O17 1.940803 1_554
Cu0 O15 1.940803 1_455
Cu0 O6 2.017246 1_455
Cu0 O13 2.017246 1_554
Cu1 O21 1.940803 1_555
Cu1 O10 1.940803 1_555
Cu1 O9 2.017246 1_555
Cu1 O11 2.017246 1_555
O0 P1 1.553893 1_564
O0 V1 2.000556 1_565
O0 Rb0 2.935989 1_555
O0 Rb0 3.928184 1_565
O1 P2 1.544943 1_565
O1 V1 1.955869 1_565
O1 Rb0 3.121942 1_555
O2 V2 1.654397 1_565
O2 Rb1 2.997663 1_555
O2 Rb0 3.062226 1_556
O2 Rb1 3.368710 1_565
O3 V1 1.653186 1_555
O3 Rb2 3.250797 1_455
O3 Rb3 3.302318 1_555
O3 Rb0 3.374875 1_555
O4 V3 1.654397 1_545
O4 Rb0 2.997663 1_555
O4 Rb1 3.062226 1_554
O4 Rb0 3.368710 1_545
O5 V0 1.654397 1_545
O5 Rb3 2.997663 1_655
O5 Rb2 3.062226 1_555
O5 Rb3 3.368710 1_645
O6 P0 1.581220 1_545
O6 V1 2.161815 1_655
O6 Rb2 3.319089 1_555
O7 P3 1.553893 1_545
O7 V3 2.000556 1_545
O7 Rb2 2.935989 1_555
O7 Rb2 3.928184 1_545
O8 P3 1.544943 1_545
O8 V0 1.955869 1_545
O8 Rb1 3.121942 1_555
O9 P3 1.581220 1_545
O9 V2 2.161815 1_555
O9 Rb1 3.319089 1_555
O10 P2 1.540244 1_555
O10 Rb0 2.991262 1_555
O10 Rb3 3.860971 1_555
O11 P2 1.581220 1_565
O11 V3 2.161815 1_555
O11 Rb0 3.319089 1_555
O12 P1 1.544943 1_565
O12 V2 1.955869 1_565
O12 Rb3 3.121942 1_555
O13 P1 1.581220 1_565
O13 V0 2.161815 1_455
O13 Rb3 3.319089 1_555
O14 V2 1.653186 1_555
O14 Rb1 3.250797 1_555
O14 Rb0 3.302318 1_556
O14 Rb3 3.374875 1_555
O15 P0 1.540244 1_555
O15 Rb2 2.991262 1_555
O15 Rb1 3.860971 1_554
O16 V1 1.654397 1_565
O16 Rb2 2.997663 1_455
O16 Rb3 3.062226 1_555
O16 Rb2 3.368710 1_465
O17 P1 1.540244 1_555
O17 Rb3 2.991262 1_555
O17 Rb0 3.860971 1_556
O18 V3 1.653186 1_555
O18 Rb0 3.250797 1_555
O18 Rb1 3.302318 1_554
O18 Rb2 3.374875 1_555
O19 V0 1.653186 1_555
O19 Rb3 3.250797 1_655
O19 Rb2 3.302318 1_555
O19 Rb1 3.374875 1_555
O20 P0 1.553893 1_546
O20 V0 2.000556 1_545
O20 Rb1 2.935989 1_555
O20 Rb1 3.928184 1_545
O21 P3 1.540244 1_555
O21 Rb1 2.991262 1_555
O21 Rb2 3.860971 1_555
O22 P2 1.553893 1_565
O22 V2 2.000556 1_565
O22 Rb3 2.935989 1_555
O22 Rb3 3.928184 1_565
O23 P0 1.544943 1_545
O23 V3 1.955869 1_545
O23 Rb2 3.121942 1_555
