# generated using pymatgen
data_K3NiO2
_symmetry_space_group_name_H-M   'P 1'
_cell_length_a   6.09392058
_cell_length_b   6.09495711
_cell_length_c   14.07744620
_cell_angle_alpha   89.97903551
_cell_angle_beta   90.08414653
_cell_angle_gamma   90.00662587
_symmetry_Int_Tables_number   1
_chemical_formula_structural   K3NiO2
_chemical_formula_sum   'K12 Ni4 O8'
_cell_volume   522.86650296
_cell_formula_units_Z   4
loop_
 _symmetry_equiv_pos_site_id
 _symmetry_equiv_pos_as_xyz
  1  'x, y, z'
loop_
 _atom_site_type_symbol
 _atom_site_label
 _atom_site_symmetry_multiplicity
 _atom_site_fract_x
 _atom_site_fract_y
 _atom_site_fract_z
 _atom_site_occupancy
  K  K0  1  0.94937900  0.05090200  0.75012700  1
  K  K1  1  0.05065800  0.94910700  0.24990800  1
  K  K2  1  0.55075000  0.55085900  0.49999100  1
  K  K3  1  0.44924900  0.44917900  0.99996900  1
  K  K4  1  0.47981100  0.02193100  0.62479500  1
  K  K5  1  0.52113300  0.97829000  0.12488000  1
  K  K6  1  0.52162700  0.02002800  0.37488100  1
  K  K7  1  0.47740600  0.97989700  0.87452000  1
  K  K8  1  0.97860300  0.51988600  0.87488000  1
  K  K9  1  0.02223100  0.47982500  0.37530900  1
  K  K10  1  0.02019000  0.52184400  0.62521400  1
  K  K11  1  0.97908000  0.47853100  0.12552800  1
  Ni  Ni0  1  0.50433700  0.49540600  0.24986900  1
  Ni  Ni1  1  0.99536200  0.99525000  0.00004100  1
  Ni  Ni2  1  0.49560800  0.50455300  0.75006000  1
  Ni  Ni3  1  0.00448100  0.00451500  0.49998600  1
  O  O0  1  0.70137200  0.71402600  0.73976300  1
  O  O1  1  0.29846400  0.28597200  0.23946300  1
  O  O2  1  0.21401000  0.79869600  0.48970300  1
  O  O3  1  0.78601300  0.20127200  0.98961700  1
  O  O4  1  0.28603900  0.29873300  0.76034100  1
  O  O5  1  0.71399800  0.70116400  0.26035100  1
  O  O6  1  0.79865200  0.21403900  0.51026500  1
  O  O7  1  0.20154900  0.78609200  0.01053900  1
loop_
_geom_bond_atom_site_label_1
_geom_bond_atom_site_label_2
_geom_bond_distance
_geom_bond_site_symmetry_2
K0 O4 2.551450 1_655
K0 O0 2.553446 1_545
K0 K8 3.359951 1_555
K0 K4 3.364171 1_555
K0 K10 3.393472 1_655
K0 K7 3.397065 1_545
K0 Ni1 3.545027 1_546
K0 Ni3 3.549196 1_655
K0 K8 3.685930 1_545
K0 K7 3.686588 1_645
K0 K4 3.689135 1_655
K0 K10 3.699058 1_645
K1 O5 2.552318 1_455
K1 O1 2.552901 1_565
K1 K9 3.365193 1_555
K1 K5 3.371035 1_555
K1 K11 3.388727 1_455
K1 K6 3.391843 1_565
K1 Ni1 3.544177 1_455
K1 Ni3 3.548333 1_565
K1 K5 3.677703 1_455
K1 K9 3.689837 1_565
K1 K11 3.696267 1_465
K1 K6 3.700390 1_465
K2 O2 2.552140 1_555
K2 O6 2.552918 1_555
K2 K6 3.362447 1_565
K2 K4 3.394620 1_565
K2 K9 3.396901 1_655
K2 Ni2 3.547963 1_555
K2 Ni0 3.548260 1_555
K2 K6 3.688402 1_555
K2 K9 3.691214 1_555
K2 K4 3.696520 1_555
K3 O3 2.552967 1_555
K3 O7 2.553226 1_556
K3 K7 3.366594 1_545
K3 K8 3.390779 1_455
K3 K5 3.393446 1_546
K3 Ni0 3.544759 1_556
K3 Ni2 3.545791 1_555
K3 K7 3.688915 1_555
K3 K5 3.699400 1_556
K3 K8 3.702495 1_555
K4 O6 2.784416 1_555
K4 O4 2.809109 1_555
K4 O0 2.820673 1_545
K4 O2 2.843220 1_545
K4 Ni3 3.387304 1_555
K4 Ni2 3.431457 1_555
K4 K7 3.524771 1_545
K4 K6 3.527764 1_555
K5 O7 2.783460 1_555
K5 O5 2.804068 1_555
K5 O1 2.822968 1_565
K5 O3 2.843415 1_564
K5 Ni1 3.386076 1_555
K5 Ni0 3.430051 1_555
K5 K6 3.528647 1_565
K5 K7 3.534108 1_554
K6 O5 2.785528 1_545
K6 O6 2.805750 1_555
K6 O2 2.820177 1_545
K6 O1 2.846325 1_555
K6 Ni0 3.391009 1_555
K6 Ni3 3.428337 1_655
K7 O4 2.777166 1_565
K7 O7 2.809812 1_556
K7 O3 2.823939 1_565
K7 O0 2.845663 1_555
K7 Ni2 3.388247 1_555
K7 Ni1 3.431568 1_456
K8 O3 2.785706 1_555
K8 O0 2.803866 1_555
K8 O4 2.817407 1_655
K8 O7 2.849491 1_656
K8 Ni1 3.393009 1_556
K8 Ni2 3.427007 1_555
K9 O2 2.780753 1_555
K9 O1 2.810401 1_555
K9 O5 2.820839 1_455
K9 O6 2.845136 1_455
K9 Ni3 3.388441 1_555
K9 Ni0 3.431287 1_555
K10 O0 2.785348 1_455
K10 O2 2.808078 1_555
K10 O6 2.820628 1_455
K10 O4 2.842867 1_555
K10 K2 3.362687 1_455
K10 Ni2 3.387989 1_555
K10 Ni3 3.430343 1_565
K10 K8 3.524172 1_455
K10 K9 3.527467 1_555
K10 K2 3.688999 1_555
K11 O1 2.779934 1_655
K11 O3 2.809959 1_554
K11 O7 2.824174 1_655
K11 O5 2.839793 1_555
K11 K3 3.373526 1_654
K11 Ni0 3.385156 1_555
K11 Ni1 3.436759 1_545
K11 K9 3.525724 1_655
K11 K8 3.537380 1_554
K11 K3 3.682986 1_554
Ni0 O1 1.795570 1_555
Ni0 O5 1.796142 1_555
Ni1 O7 1.795947 1_655
Ni1 O3 1.795980 1_564
Ni2 O0 1.795374 1_555
Ni2 O4 1.796007 1_555
Ni3 O2 1.796112 1_545
Ni3 O6 1.796132 1_455
