# generated using pymatgen
data_CrF3
_symmetry_space_group_name_H-M   'P 1'
_cell_length_a   5.26583527
_cell_length_b   5.26560293
_cell_length_c   5.26382489
_cell_angle_alpha   55.56722344
_cell_angle_beta   55.57340824
_cell_angle_gamma   55.57726545
_symmetry_Int_Tables_number   1
_chemical_formula_structural   CrF3
_chemical_formula_sum   'Cr2 F6'
_cell_volume   92.59954280
_cell_formula_units_Z   2
loop_
 _symmetry_equiv_pos_site_id
 _symmetry_equiv_pos_as_xyz
  1  'x, y, z'
loop_
 _atom_site_type_symbol
 _atom_site_label
 _atom_site_symmetry_multiplicity
 _atom_site_fract_x
 _atom_site_fract_y
 _atom_site_fract_z
 _atom_site_occupancy
  Cr  Cr0  1  -0.00001424  0.00003228  -0.00003097  1
  Cr  Cr1  1  0.50002794  0.49998686  0.49997033  1
  F  F0  1  0.11869180  0.38132940  0.75004582  1
  F  F1  1  0.61847806  0.25013062  0.88157077  1
  F  F2  1  0.38146067  0.74990080  0.11843732  1
  F  F3  1  0.88132116  0.61867648  0.24998287  1
  F  F4  1  0.24989644  0.88143791  0.61848744  1
  F  F5  1  0.75013817  0.11850566  0.38153642  1
loop_
_geom_bond_atom_site_label_1
_geom_bond_atom_site_label_2
_geom_bond_distance
_geom_bond_site_symmetry_2
Cr0 F0 1.911703 1_554
Cr0 F1 1.911804 1_454
Cr0 F3 1.911805 1_445
Cr0 F4 1.911826 1_544
Cr0 F2 1.911838 1_545
Cr0 F5 1.911900 1_455
Cr1 F3 1.911754 1_555
Cr1 F5 1.911796 1_555
Cr1 F0 1.911814 1_555
Cr1 F1 1.911816 1_555
Cr1 F2 1.911816 1_555
Cr1 F4 1.911884 1_555
