# generated using pymatgen
data_Rb2Cr2O7
_symmetry_space_group_name_H-M   'P 1'
_cell_length_a   7.59202277
_cell_length_b   7.66304025
_cell_length_c   15.21403584
_cell_angle_alpha   63.75816628
_cell_angle_beta   90.00000000
_cell_angle_gamma   90.00000000
_symmetry_Int_Tables_number   1
_chemical_formula_structural   Rb2Cr2O7
_chemical_formula_sum   'Rb8 Cr8 O28'
_cell_volume   793.89741551
_cell_formula_units_Z   4
loop_
 _symmetry_equiv_pos_site_id
 _symmetry_equiv_pos_as_xyz
  1  'x, y, z'
loop_
 _atom_site_type_symbol
 _atom_site_label
 _atom_site_symmetry_multiplicity
 _atom_site_fract_x
 _atom_site_fract_y
 _atom_site_fract_z
 _atom_site_occupancy
  Rb  Rb0  1  0.27355186  0.06139394  0.63656850  1
  Rb  Rb1  1  0.22644814  0.06139394  0.13656850  1
  Rb  Rb2  1  0.11750639  0.51523181  0.84192799  1
  Rb  Rb3  1  0.72644814  0.93860606  0.36343150  1
  Rb  Rb4  1  0.61750639  0.48476819  0.65807201  1
  Rb  Rb5  1  0.88249361  0.48476819  0.15807201  1
  Rb  Rb6  1  0.77355186  0.93860606  0.86343150  1
  Rb  Rb7  1  0.38249361  0.51523181  0.34192799  1
  Cr  Cr0  1  0.66301917  0.39855675  0.91969318  1
  Cr  Cr1  1  0.78629722  0.00565072  0.60992208  1
  Cr  Cr2  1  0.16301917  0.60144325  0.58030682  1
  Cr  Cr3  1  0.83698083  0.39855675  0.41969318  1
  Cr  Cr4  1  0.21370278  0.99434928  0.39007792  1
  Cr  Cr5  1  0.28629722  0.99434928  0.89007792  1
  Cr  Cr6  1  0.33698083  0.60144325  0.08030682  1
  Cr  Cr7  1  0.71370278  0.00565072  0.10992208  1
  O  O0  1  0.91428274  0.85530597  0.69451892  1
  O  O1  1  0.15241829  0.89505269  0.84237649  1
  O  O2  1  0.67521462  0.89558008  0.55892736  1
  O  O3  1  0.58042315  0.18946551  0.02151468  1
  O  O4  1  0.34758171  0.89505269  0.34237649  1
  O  O5  1  0.49805125  0.46645380  0.14237108  1
  O  O6  1  0.82478538  0.89558008  0.05892736  1
  O  O7  1  0.72325449  0.32739882  0.35124593  1
  O  O8  1  0.41957685  0.81053449  0.97848532  1
  O  O9  1  0.77674551  0.32739882  0.85124593  1
  O  O10  1  0.20797311  0.48085533  0.04204979  1
  O  O11  1  0.65241829  0.10494731  0.65762351  1
  O  O12  1  0.50194875  0.53354620  0.85762892  1
  O  O13  1  0.00194875  0.46645380  0.64237108  1
  O  O14  1  0.58571726  0.85530597  0.19451892  1
  O  O15  1  0.70797311  0.51914467  0.45795021  1
  O  O16  1  0.22325449  0.67260118  0.14875407  1
  O  O17  1  0.17521462  0.10441992  0.94107264  1
  O  O18  1  0.29202689  0.48085533  0.54204979  1
  O  O19  1  0.91957685  0.18946551  0.52151468  1
  O  O20  1  0.99805125  0.53354620  0.35762892  1
  O  O21  1  0.41428274  0.14469403  0.80548108  1
  O  O22  1  0.08571726  0.14469403  0.30548108  1
  O  O23  1  0.79202689  0.51914467  0.95795021  1
  O  O24  1  0.32478538  0.10441992  0.44107264  1
  O  O25  1  0.08042315  0.81053449  0.47848532  1
  O  O26  1  0.27674551  0.67260118  0.64875407  1
  O  O27  1  0.84758171  0.10494731  0.15762351  1
loop_
_geom_bond_atom_site_label_1
_geom_bond_atom_site_label_2
_geom_bond_distance
_geom_bond_site_symmetry_2
Cr0 O12 1.610355 1_555
Cr0 O23 1.620986 1_555
Cr0 O9 1.621542 1_555
Cr0 O3 1.779123 1_556
Cr1 O2 1.613473 1_545
Cr1 O0 1.617623 1_545
Cr1 O11 1.620836 1_555
Cr1 O19 1.772471 1_555
Cr2 O13 1.610355 1_555
Cr2 O18 1.620986 1_555
Cr2 O26 1.621542 1_555
Cr2 O25 1.779123 1_555
Cr3 O20 1.610355 1_555
Cr3 O15 1.620986 1_555
Cr3 O7 1.621542 1_555
Cr3 O19 1.779123 1_555
Cr4 O24 1.613473 1_565
Cr4 O22 1.617623 1_565
Cr4 O4 1.620836 1_555
Cr4 O25 1.772471 1_555
Cr5 O17 1.613473 1_565
Cr5 O21 1.617623 1_565
Cr5 O1 1.620836 1_555
Cr5 O8 1.772471 1_555
Cr6 O5 1.610355 1_555
Cr6 O10 1.620986 1_555
Cr6 O16 1.621542 1_555
Cr6 O8 1.779123 1_554
Cr7 O6 1.613473 1_545
Cr7 O14 1.617623 1_545
Cr7 O27 1.620836 1_555
Cr7 O3 1.772471 1_555
O0 Rb2 3.005494 1_655
O0 Rb0 3.078924 1_665
O0 Rb6 3.098993 1_555
O1 Rb2 2.925637 1_555
O1 Rb6 2.929506 1_455
O1 Rb0 2.957237 1_565
O2 Rb4 2.859774 1_555
O2 Rb3 2.870390 1_555
O3 Rb1 3.119304 1_555
O4 Rb7 2.925637 1_555
O4 Rb3 2.929506 1_555
O4 Rb1 2.957237 1_565
O5 Rb5 2.936867 1_555
O5 Rb7 3.336265 1_555
O6 Rb5 2.859774 1_555
O6 Rb6 2.870390 1_554
O7 Rb5 2.901566 1_555
O7 Rb3 2.902231 1_545
O7 Rb7 2.933316 1_555
O8 Rb6 3.119304 1_555
O9 Rb4 2.901566 1_555
O9 Rb6 2.902231 1_545
O9 Rb2 2.933316 1_655
O10 Rb1 2.886524 1_555
O10 Rb2 3.016921 1_554
O10 Rb5 3.044601 1_455
O11 Rb4 2.925637 1_555
O11 Rb0 2.929506 1_555
O11 Rb6 2.957237 1_545
O12 Rb2 2.936867 1_555
O12 Rb4 3.336265 1_555
O13 Rb4 2.936867 1_455
O13 Rb2 3.336265 1_555
O14 Rb7 3.005494 1_555
O14 Rb1 3.078924 1_565
O14 Rb3 3.098993 1_555
O15 Rb3 2.886524 1_555
O15 Rb4 3.016921 1_555
O15 Rb7 3.044601 1_555
O16 Rb7 2.901566 1_555
O16 Rb1 2.902231 1_565
O16 Rb5 2.933316 1_455
O17 Rb2 2.859774 1_555
O17 Rb1 2.870390 1_556
O18 Rb0 2.886524 1_555
O18 Rb7 3.016921 1_555
O18 Rb4 3.044601 1_555
O19 Rb0 3.119304 1_655
O20 Rb7 2.936867 1_655
O20 Rb5 3.336265 1_555
O21 Rb4 3.005494 1_555
O21 Rb6 3.078924 1_545
O21 Rb0 3.098993 1_555
O22 Rb5 3.005494 1_455
O22 Rb3 3.078924 1_445
O22 Rb1 3.098993 1_555
O23 Rb6 2.886524 1_555
O23 Rb5 3.016921 1_556
O23 Rb2 3.044601 1_655
O24 Rb7 2.859774 1_555
O24 Rb0 2.870390 1_555
O25 Rb3 3.119304 1_455
O26 Rb2 2.901566 1_555
O26 Rb0 2.902231 1_565
O26 Rb4 2.933316 1_555
O27 Rb5 2.925637 1_555
O27 Rb1 2.929506 1_655
O27 Rb3 2.957237 1_545
