# generated using pymatgen
data_Y(SiAu)2
_symmetry_space_group_name_H-M   'P 1'
_cell_length_a   4.23973122
_cell_length_b   4.23973167
_cell_length_c   5.91934212
_cell_angle_alpha   110.98508969
_cell_angle_beta   110.98509912
_cell_angle_gamma   89.99999382
_symmetry_Int_Tables_number   1
_chemical_formula_structural   Y(SiAu)2
_chemical_formula_sum   'Y1 Si2 Au2'
_cell_volume   91.74629834
_cell_formula_units_Z   1
loop_
 _symmetry_equiv_pos_site_id
 _symmetry_equiv_pos_as_xyz
  1  'x, y, z'
loop_
 _atom_site_type_symbol
 _atom_site_label
 _atom_site_symmetry_multiplicity
 _atom_site_fract_x
 _atom_site_fract_y
 _atom_site_fract_z
 _atom_site_occupancy
  Y  Y0  1  0.00000000  -0.00000000  0.00000000  1
  Si  Si0  1  0.38807934  0.38807934  0.77615767  1
  Si  Si1  1  0.61192066  0.61192066  0.22384233  1
  Au  Au0  1  0.75000000  0.25000000  0.50000000  1
  Au  Au1  1  0.25000000  0.75000000  0.50000000  1
loop_
_geom_bond_atom_site_label_1
_geom_bond_atom_site_label_2
_geom_bond_distance
_geom_bond_site_symmetry_2
Si0 Si1 2.284989 1_556
Si0 Y0 3.208261 1_666
Si0 Y0 3.208263 1_656
Si0 Y0 3.208264 1_566
Si0 Y0 3.208266 1_556
Si1 Y0 3.208261 1_555
Si1 Y0 3.208263 1_565
Si1 Y0 3.208264 1_655
Si1 Y0 3.208266 1_665
Au0 Si1 2.545692 1_555
Au0 Si0 2.545692 1_555
Au0 Si0 2.545696 1_655
Au0 Si1 2.545696 1_545
Au0 Au1 2.997943 1_645
Au0 Au1 2.997943 1_555
Au0 Au1 2.997943 1_545
Au0 Au1 2.997943 1_655
Au0 Y0 3.317615 1_656
Au0 Y0 3.317615 1_655
Au0 Y0 3.317615 1_555
Au0 Y0 3.317616 1_666
Au1 Si0 2.545692 1_555
Au1 Si1 2.545692 1_555
Au1 Si1 2.545696 1_455
Au1 Si0 2.545696 1_565
Au1 Y0 3.317615 1_565
Au1 Y0 3.317615 1_566
Au1 Y0 3.317615 1_666
Au1 Y0 3.317616 1_555
