# generated using pymatgen
data_Ba2NdAlO5
_symmetry_space_group_name_H-M   'P 1'
_cell_length_a   6.21964100
_cell_length_b   7.43423500
_cell_length_c   7.62085323
_cell_angle_alpha   62.23053471
_cell_angle_beta   90.00000000
_cell_angle_gamma   90.00000000
_symmetry_Int_Tables_number   1
_chemical_formula_structural   Ba2NdAlO5
_chemical_formula_sum   'Ba4 Nd2 Al2 O10'
_cell_volume   311.79184049
_cell_formula_units_Z   2
loop_
 _symmetry_equiv_pos_site_id
 _symmetry_equiv_pos_as_xyz
  1  'x, y, z'
loop_
 _atom_site_type_symbol
 _atom_site_label
 _atom_site_symmetry_multiplicity
 _atom_site_fract_x
 _atom_site_fract_y
 _atom_site_fract_z
 _atom_site_occupancy
  Ba  Ba0  1  0.24018600  0.86408100  0.39600000  1
  Ba  Ba1  1  0.24422900  0.30775300  0.85646600  1
  Ba  Ba2  1  0.74018600  0.13591900  0.60400000  1
  Ba  Ba3  1  0.74422900  0.69224700  0.14353400  1
  Nd  Nd0  1  0.23879700  0.40189600  0.33604800  1
  Nd  Nd1  1  0.73879700  0.59810400  0.66395200  1
  Al  Al0  1  0.72702100  0.16831900  0.16351500  1
  Al  Al1  1  0.22702100  0.83168100  0.83648500  1
  O  O0  1  0.50199900  0.49944300  0.48821300  1
  O  O1  1  0.26032100  0.09316500  0.65570500  1
  O  O2  1  0.42441600  0.69490500  0.77472500  1
  O  O3  1  0.75212600  0.22462700  0.90964200  1
  O  O4  1  0.76032100  0.90683500  0.34429500  1
  O  O5  1  0.96290400  0.76485200  0.79292600  1
  O  O6  1  0.00199900  0.50055700  0.51178700  1
  O  O7  1  0.46290400  0.23514800  0.20707400  1
  O  O8  1  0.25212600  0.77537300  0.09035800  1
  O  O9  1  0.92441600  0.30509500  0.22527500  1
loop_
_geom_bond_atom_site_label_1
_geom_bond_atom_site_label_2
_geom_bond_distance
_geom_bond_site_symmetry_2
Ba0 O8 2.701336 1_555
Ba0 O2 2.800435 1_555
Ba0 O7 2.810812 1_565
Ba0 O6 2.838094 1_555
Ba0 O0 2.952762 1_555
Ba0 O4 3.007881 1_455
Ba0 O1 3.158183 1_565
Ba0 O5 3.254103 1_455
Ba0 O4 3.256555 1_555
Ba0 O9 3.510600 1_465
Ba1 O1 2.677718 1_555
Ba1 O6 2.777716 1_555
Ba1 O7 2.817177 1_556
Ba1 O2 2.873540 1_555
Ba1 O0 2.958107 1_555
Ba1 O3 3.111377 1_455
Ba1 O3 3.208059 1_555
Ba1 O9 3.435831 1_456
Ba1 O8 3.502897 1_546
Ba2 O3 2.701336 1_555
Ba2 O9 2.800435 1_555
Ba2 O5 2.810812 1_545
Ba2 O0 2.838094 1_555
Ba2 O6 2.952762 1_655
Ba2 O1 3.007881 1_555
Ba2 O4 3.158183 1_545
Ba2 O7 3.254103 1_555
Ba2 O1 3.256555 1_655
Ba2 O2 3.510600 1_545
Ba3 O4 2.677718 1_555
Ba3 O0 2.777716 1_555
Ba3 O5 2.817177 1_554
Ba3 O9 2.873540 1_555
Ba3 O6 2.958107 1_655
Ba3 O8 3.111377 1_555
Ba3 O8 3.208059 1_655
Ba3 O2 3.435831 1_554
Ba3 O3 3.502897 1_564
Nd0 O0 2.309565 1_555
Nd0 O6 2.327261 1_555
Nd0 O7 2.362420 1_555
Nd0 O9 2.370648 1_455
Nd0 O1 2.451553 1_555
Nd0 O8 2.525353 1_555
Nd1 O6 2.309565 1_655
Nd1 O0 2.327261 1_555
Nd1 O5 2.362420 1_555
Nd1 O2 2.370648 1_555
Nd1 O4 2.451553 1_555
Nd1 O3 2.525353 1_555
Al0 O3 1.785527 1_554
Al0 O9 1.791292 1_555
Al0 O7 1.791428 1_555
Al0 O4 1.795617 1_545
Al1 O8 1.785527 1_556
Al1 O2 1.791292 1_555
Al1 O5 1.791428 1_455
Al1 O1 1.795617 1_565
