# generated using pymatgen
data_Ba3(Mo9O14)2
_symmetry_space_group_name_H-M   'P 1'
_cell_length_a   9.78302000
_cell_length_b   10.60237300
_cell_length_c   14.68081475
_cell_angle_alpha   79.72961865
_cell_angle_beta   90.00000000
_cell_angle_gamma   90.00000000
_symmetry_Int_Tables_number   1
_chemical_formula_structural   Ba3(Mo9O14)2
_chemical_formula_sum   'Ba6 Mo36 O56'
_cell_volume   1498.34310853
_cell_formula_units_Z   2
loop_
 _symmetry_equiv_pos_site_id
 _symmetry_equiv_pos_as_xyz
  1  'x, y, z'
loop_
 _atom_site_type_symbol
 _atom_site_label
 _atom_site_symmetry_multiplicity
 _atom_site_fract_x
 _atom_site_fract_y
 _atom_site_fract_z
 _atom_site_occupancy
  Ba  Ba0  1  0.01863700  0.31093200  0.63801600  1
  Ba  Ba1  1  0.48336100  0.80196200  0.67150400  1
  Ba  Ba2  1  0.49855700  0.73925100  0.05307100  1
  Ba  Ba3  1  0.51863700  0.68906800  0.36198400  1
  Ba  Ba4  1  0.98336100  0.19803800  0.32849600  1
  Ba  Ba5  1  0.99855700  0.26074900  0.94692900  1
  Mo  Mo0  1  0.13119200  0.84564800  0.99766000  1
  Mo  Mo1  1  0.12541200  0.95823500  0.55094900  1
  Mo  Mo2  1  0.13232100  0.89824100  0.77330400  1
  Mo  Mo3  1  0.13488800  0.79228900  0.21951300  1
  Mo  Mo4  1  0.13012000  0.65732500  0.66480700  1
  Mo  Mo5  1  0.14279600  0.72408100  0.44261700  1
  Mo  Mo6  1  0.14287200  0.60663100  0.88735800  1
  Mo  Mo7  1  0.14359500  0.54528600  0.11223300  1
  Mo  Mo8  1  0.14362200  0.49812200  0.33518600  1
  Mo  Mo9  1  0.35222200  0.99763700  0.33679300  1
  Mo  Mo10  1  0.35640200  0.05125200  0.11303200  1
  Mo  Mo11  1  0.36135500  0.10302200  0.88641700  1
  Mo  Mo12  1  0.35648500  0.22549600  0.44176600  1
  Mo  Mo13  1  0.36885100  0.15851900  0.66405000  1
  Mo  Mo14  1  0.36518700  0.29175700  0.22220400  1
  Mo  Mo15  1  0.36570500  0.39811600  0.77488400  1
  Mo  Mo16  1  0.37427400  0.46290500  0.55099500  1
  Mo  Mo17  1  0.36948800  0.34351800  0.99551200  1
  Mo  Mo18  1  0.63119200  0.15435200  0.00234000  1
  Mo  Mo19  1  0.62541200  0.04176500  0.44905100  1
  Mo  Mo20  1  0.63232100  0.10175900  0.22669600  1
  Mo  Mo21  1  0.63488800  0.20771100  0.78048700  1
  Mo  Mo22  1  0.63012000  0.34267500  0.33519300  1
  Mo  Mo23  1  0.64279600  0.27591900  0.55738300  1
  Mo  Mo24  1  0.64287200  0.39336900  0.11264200  1
  Mo  Mo25  1  0.64359500  0.45471400  0.88776700  1
  Mo  Mo26  1  0.64362200  0.50187800  0.66481400  1
  Mo  Mo27  1  0.85222200  0.00236300  0.66320700  1
  Mo  Mo28  1  0.85640200  0.94874800  0.88696800  1
  Mo  Mo29  1  0.86135500  0.89697800  0.11358300  1
  Mo  Mo30  1  0.85648500  0.77450400  0.55823400  1
  Mo  Mo31  1  0.86885100  0.84148100  0.33595000  1
  Mo  Mo32  1  0.86518700  0.70824300  0.77779600  1
  Mo  Mo33  1  0.86570500  0.60188400  0.22511600  1
  Mo  Mo34  1  0.87427400  0.53709500  0.44900500  1
  Mo  Mo35  1  0.86948800  0.65648200  0.00448800  1
  O  O0  1  0.01692800  0.45435200  0.22490000  1
  O  O1  1  0.01384800  0.56178300  0.77768700  1
  O  O2  1  0.00013700  0.61932100  0.54610800  1
  O  O3  1  0.00953300  0.40453000  0.44239000  1
  O  O4  1  0.02143800  0.50934800  0.00388500  1
  O  O5  1  0.25719600  0.11346300  0.22998200  1
  O  O6  1  0.23380100  0.78805500  0.55590500  1
  O  O7  1  0.25669200  0.22407100  0.77022700  1
  O  O8  1  0.25299600  0.87999000  0.10796100  1
  O  O9  1  0.24223000  0.93980000  0.88503600  1
  O  O10  1  0.23196000  0.06091200  0.43550600  1
  O  O11  1  0.25759400  0.82477900  0.33142000  1
  O  O12  1  0.24285200  0.99655000  0.65574300  1
  O  O13  1  0.24500800  0.66911300  0.00275700  1
  O  O14  1  0.25591200  0.17175900  0.99871300  1
  O  O15  1  0.25561800  0.49588100  0.65697300  1
  O  O16  1  0.24049900  0.32381700  0.33114000  1
  O  O17  1  0.27339700  0.56711300  0.43595600  1
  O  O18  1  0.24555400  0.43153100  0.88653500  1
  O  O19  1  0.26177800  0.39490000  0.10772600  1
  O  O20  1  0.24325500  0.72482300  0.76953500  1
  O  O21  1  0.26640700  0.28840800  0.55434400  1
  O  O22  1  0.24245400  0.61439600  0.21641100  1
  O  O23  1  0.48149400  0.00814300  0.00260300  1
  O  O24  1  0.48859400  0.90842500  0.43401300  1
  O  O25  1  0.48777700  0.06152400  0.77424600  1
  O  O26  1  0.49826000  0.11949700  0.54434400  1
  O  O27  1  0.47834400  0.95713000  0.23236500  1
  O  O28  1  0.51692800  0.54564800  0.77510000  1
  O  O29  1  0.50013700  0.38067900  0.45389200  1
  O  O30  1  0.51384800  0.43821700  0.22231300  1
  O  O31  1  0.50953300  0.59547000  0.55761000  1
  O  O32  1  0.52143800  0.49065200  0.99611500  1
  O  O33  1  0.75719600  0.88653700  0.77001800  1
  O  O34  1  0.73380100  0.21194500  0.44409500  1
  O  O35  1  0.75669200  0.77592900  0.22977300  1
  O  O36  1  0.74223000  0.06020000  0.11496400  1
  O  O37  1  0.73196000  0.93908800  0.56449400  1
  O  O38  1  0.75299600  0.12001000  0.89203900  1
  O  O39  1  0.75759400  0.17522100  0.66858000  1
  O  O40  1  0.74285200  0.00345000  0.34425700  1
  O  O41  1  0.74500800  0.33088700  0.99724300  1
  O  O42  1  0.75591200  0.82824100  0.00128700  1
  O  O43  1  0.75561800  0.50411900  0.34302700  1
  O  O44  1  0.74049900  0.67618300  0.66886000  1
  O  O45  1  0.77339700  0.43288700  0.56404400  1
  O  O46  1  0.74555400  0.56846900  0.11346500  1
  O  O47  1  0.76177800  0.60510000  0.89227400  1
  O  O48  1  0.74325500  0.27517700  0.23046500  1
  O  O49  1  0.76640700  0.71159200  0.44565600  1
  O  O50  1  0.74245400  0.38560400  0.78358900  1
  O  O51  1  0.98149400  0.99185700  0.99739700  1
  O  O52  1  0.98859400  0.09157500  0.56598700  1
  O  O53  1  0.99826000  0.88050300  0.45565600  1
  O  O54  1  0.98777700  0.93847600  0.22575400  1
  O  O55  1  0.97834400  0.04287000  0.76763500  1
loop_
_geom_bond_atom_site_label_1
_geom_bond_atom_site_label_2
_geom_bond_distance
_geom_bond_site_symmetry_2
Ba0 O52 2.736865 1_455
Ba0 O21 2.747001 1_555
Ba0 O45 2.847210 1_455
Ba0 O3 2.867844 1_555
Ba0 O39 2.926306 1_455
Ba0 O7 3.066239 1_555
Ba0 O15 3.080926 1_555
Ba0 O55 3.150467 1_455
Ba0 O2 3.312222 1_555
Ba0 O50 3.619079 1_455
Ba0 O1 3.636603 1_555
Ba1 O20 2.799646 1_555
Ba1 O44 2.850703 1_555
Ba1 O28 2.886540 1_555
Ba1 O6 2.991949 1_555
Ba1 O31 2.993280 1_555
Ba1 O12 3.110600 1_555
Ba1 O37 3.111615 1_555
Ba1 O33 3.245747 1_555
Ba1 O25 3.366075 1_565
Ba1 O24 3.468355 1_555
Ba1 O26 3.549549 1_565
Ba2 O13 2.728958 1_555
Ba2 O42 2.747952 1_555
Ba2 O23 2.819788 1_565
Ba2 O32 2.912435 1_554
Ba2 O8 3.012620 1_555
Ba2 O46 3.054691 1_555
Ba2 O22 3.556400 1_555
Ba2 O30 3.681670 1_555
Ba2 O35 3.690229 1_555
Ba3 O24 2.736865 1_555
Ba3 O49 2.747001 1_555
Ba3 O17 2.847210 1_555
Ba3 O31 2.867844 1_555
Ba3 O11 2.926306 1_555
Ba3 O35 3.066239 1_555
Ba3 O43 3.080926 1_555
Ba3 O27 3.150467 1_555
Ba3 O29 3.312222 1_555
Ba3 O22 3.619079 1_555
Ba3 O30 3.636603 1_555
Ba4 O48 2.799646 1_555
Ba4 O16 2.850703 1_655
Ba4 O0 2.886540 1_655
Ba4 O34 2.991949 1_555
Ba4 O3 2.993280 1_655
Ba4 O40 3.110600 1_555
Ba4 O10 3.111615 1_655
Ba4 O5 3.245747 1_655
Ba4 O54 3.366075 1_545
Ba4 O52 3.468355 1_555
Ba4 O53 3.549549 1_545
Ba5 O41 2.728958 1_555
Ba5 O14 2.747952 1_655
Ba5 O51 2.819788 1_545
Ba5 O4 2.912435 1_656
Ba5 O38 3.012620 1_555
Ba5 O18 3.054691 1_655
Ba5 O50 3.556400 1_555
Ba5 O1 3.681670 1_655
Ba5 O7 3.690229 1_655
Mo0 O9 2.078874 1_555
Mo0 O8 2.094019 1_556
Mo0 O51 2.132051 1_455
Mo0 O13 2.167645 1_556
Mo1 O52 1.987512 1_465
Mo1 O12 2.018602 1_555
Mo1 O6 2.082885 1_555
Mo1 O10 2.118029 1_565
Mo1 O53 2.143560 1_455
Mo2 O9 2.073321 1_555
Mo2 O55 2.140535 1_465
Mo2 O12 2.143107 1_555
Mo2 O20 2.144238 1_555
Mo3 O8 2.082942 1_555
Mo3 O11 2.112009 1_555
Mo3 O54 2.128986 1_455
Mo3 O22 2.167350 1_555
Mo4 O1 2.113675 1_555
Mo4 O20 2.119760 1_555
Mo4 O15 2.126188 1_555
Mo4 O6 2.171598 1_555
Mo4 O2 2.250869 1_555
Mo5 O6 2.102632 1_555
Mo5 O11 2.108218 1_555
Mo5 O17 2.114170 1_555
Mo5 O2 2.210901 1_555
Mo5 O53 2.213521 1_455
Mo6 O18 2.112758 1_555
Mo6 O1 2.164404 1_555
Mo6 O13 2.169699 1_556
Mo6 O20 2.180318 1_555
Mo6 O4 2.184609 1_556
Mo7 O19 1.980159 1_555
Mo7 O22 2.052067 1_555
Mo7 O4 2.078366 1_555
Mo7 O13 2.130396 1_555
Mo7 O0 2.152281 1_555
Mo8 O16 2.087146 1_555
Mo8 O3 2.150709 1_555
Mo8 O0 2.154290 1_555
Mo8 O17 2.172869 1_555
Mo8 O22 2.174536 1_555
Mo9 O5 2.035801 1_565
Mo9 O24 2.056759 1_555
Mo9 O11 2.067266 1_555
Mo9 O10 2.069080 1_565
Mo9 O27 2.071710 1_555
Mo10 O8 2.091458 1_545
Mo10 O23 2.144529 1_555
Mo10 O14 2.156605 1_554
Mo10 O5 2.174540 1_555
Mo10 O27 2.205620 1_545
Mo11 O9 2.089463 1_545
Mo11 O23 2.165845 1_556
Mo11 O25 2.166428 1_555
Mo11 O14 2.177500 1_555
Mo11 O7 2.196483 1_555
Mo12 O21 2.084737 1_555
Mo12 O16 2.099556 1_555
Mo12 O10 2.143519 1_555
Mo12 O29 2.195036 1_555
Mo12 O26 2.202516 1_555
Mo13 O25 2.105971 1_555
Mo13 O7 2.122041 1_555
Mo13 O12 2.134935 1_545
Mo13 O21 2.168863 1_555
Mo13 O26 2.263097 1_555
Mo14 O16 2.086869 1_555
Mo14 O19 2.094868 1_555
Mo14 O30 2.127744 1_555
Mo14 O5 2.150720 1_555
Mo15 O18 2.097852 1_555
Mo15 O15 2.142651 1_555
Mo15 O7 2.142925 1_555
Mo15 O28 2.153403 1_555
Mo16 O31 1.945382 1_555
Mo16 O15 2.020976 1_555
Mo16 O17 2.093210 1_555
Mo16 O21 2.122821 1_555
Mo16 O29 2.179799 1_555
Mo17 O18 2.089983 1_555
Mo17 O19 2.107378 1_556
Mo17 O14 2.126618 1_555
Mo17 O32 2.155987 1_555
Mo18 O36 2.078874 1_555
Mo18 O38 2.094019 1_554
Mo18 O23 2.132051 1_555
Mo18 O41 2.167645 1_554
Mo19 O24 1.987512 1_545
Mo19 O40 2.018602 1_555
Mo19 O34 2.082885 1_555
Mo19 O37 2.118029 1_545
Mo19 O26 2.143560 1_555
Mo20 O36 2.073321 1_555
Mo20 O27 2.140535 1_545
Mo20 O40 2.143107 1_555
Mo20 O48 2.144238 1_555
Mo21 O38 2.082942 1_555
Mo21 O39 2.112009 1_555
Mo21 O25 2.128986 1_555
Mo21 O50 2.167350 1_555
Mo22 O30 2.113675 1_555
Mo22 O48 2.119760 1_555
Mo22 O43 2.126188 1_555
Mo22 O34 2.171598 1_555
Mo22 O29 2.250869 1_555
Mo23 O34 2.102632 1_555
Mo23 O39 2.108218 1_555
Mo23 O45 2.114170 1_555
Mo23 O29 2.210901 1_555
Mo23 O26 2.213521 1_555
Mo24 O46 2.112758 1_555
Mo24 O30 2.164404 1_555
Mo24 O41 2.169699 1_554
Mo24 O48 2.180318 1_555
Mo24 O32 2.184609 1_554
Mo25 O47 1.980159 1_555
Mo25 O50 2.052067 1_555
Mo25 O32 2.078366 1_555
Mo25 O41 2.130396 1_555
Mo25 O28 2.152281 1_555
Mo26 O44 2.087146 1_555
Mo26 O31 2.150709 1_555
Mo26 O28 2.154290 1_555
Mo26 O45 2.172869 1_555
Mo26 O50 2.174536 1_555
Mo27 O33 2.035801 1_545
Mo27 O52 2.056759 1_555
Mo27 O39 2.067266 1_555
Mo27 O37 2.069080 1_545
Mo27 O55 2.071710 1_555
Mo28 O38 2.091458 1_565
Mo28 O51 2.144529 1_555
Mo28 O42 2.156605 1_556
Mo28 O33 2.174540 1_555
Mo28 O55 2.205620 1_565
Mo29 O36 2.089463 1_565
Mo29 O51 2.165845 1_554
Mo29 O54 2.166428 1_555
Mo29 O42 2.177500 1_555
Mo29 O35 2.196483 1_555
Mo30 O49 2.084737 1_555
Mo30 O44 2.099556 1_555
Mo30 O37 2.143519 1_555
Mo30 O2 2.195036 1_655
Mo30 O53 2.202516 1_555
Mo31 O54 2.105971 1_555
Mo31 O35 2.122041 1_555
Mo31 O40 2.134935 1_565
Mo31 O49 2.168863 1_555
Mo31 O53 2.263097 1_555
Mo32 O44 2.086869 1_555
Mo32 O47 2.094868 1_555
Mo32 O1 2.127744 1_655
Mo32 O33 2.150720 1_555
Mo33 O46 2.097852 1_555
Mo33 O43 2.142651 1_555
Mo33 O35 2.142925 1_555
Mo33 O0 2.153403 1_655
Mo34 O3 1.945382 1_655
Mo34 O43 2.020976 1_555
Mo34 O45 2.093210 1_555
Mo34 O49 2.122821 1_555
Mo34 O2 2.179799 1_655
Mo35 O46 2.089983 1_555
Mo35 O47 2.107378 1_554
Mo35 O42 2.126618 1_555
Mo35 O4 2.155987 1_655
O2 O45 2.951487 1_455
O10 O53 2.961678 1_445
O11 O27 2.831964 1_555
O12 O6 2.863208 1_555
O17 O29 2.951487 1_555
O24 O26 2.988832 1_565
O26 O37 2.961678 1_545
O34 O40 2.863208 1_555
O39 O55 2.831964 1_555
O52 O53 2.988832 1_545
