# generated using pymatgen
data_CoAgPO4
_symmetry_space_group_name_H-M   'P 1'
_cell_length_a   5.75362541
_cell_length_b   6.60793011
_cell_length_c   9.62231022
_cell_angle_alpha   75.11698076
_cell_angle_beta   79.11089629
_cell_angle_gamma   78.94277235
_symmetry_Int_Tables_number   1
_chemical_formula_structural   CoAgPO4
_chemical_formula_sum   'Co4 Ag4 P4 O16'
_cell_volume   343.21802258
_cell_formula_units_Z   4
loop_
 _symmetry_equiv_pos_site_id
 _symmetry_equiv_pos_as_xyz
  1  'x, y, z'
loop_
 _atom_site_type_symbol
 _atom_site_label
 _atom_site_symmetry_multiplicity
 _atom_site_fract_x
 _atom_site_fract_y
 _atom_site_fract_z
 _atom_site_occupancy
  Co  Co0  1  0.21474900  0.82615800  0.43722100  1
  Co  Co1  1  0.33638900  0.94045600  0.78984300  1
  Co  Co2  1  0.78510100  0.17410600  0.56266200  1
  Co  Co3  1  0.66394200  0.05946500  0.21031900  1
  Ag  Ag0  1  0.68214200  0.38692800  0.86996100  1
  Ag  Ag1  1  0.31761000  0.61267500  0.13025100  1
  Ag  Ag2  1  0.17991200  0.47330900  0.76292600  1
  Ag  Ag3  1  0.81949500  0.52667900  0.23702100  1
  P  P0  1  0.68062200  0.71798800  0.52928000  1
  P  P1  1  0.31914700  0.28224500  0.47052900  1
  P  P2  1  0.81142900  0.86406100  0.89971400  1
  P  P3  1  0.18893300  0.13577500  0.10043400  1
  O  O0  1  0.86706200  0.84496500  0.55172700  1
  O  O1  1  0.13273100  0.15531900  0.44802400  1
  O  O2  1  0.65085000  0.77665400  0.36285300  1
  O  O3  1  0.34905400  0.22350300  0.63695200  1
  O  O4  1  0.75597900  0.47938300  0.58252200  1
  O  O5  1  0.24376400  0.52080900  0.41720000  1
  O  O6  1  0.42422500  0.79204000  0.60674800  1
  O  O7  1  0.57558200  0.20804500  0.39313700  1
  O  O8  1  0.78133900  0.08265100  0.78815500  1
  O  O9  1  0.21895800  0.91706000  0.21181900  1
  O  O10  1  0.76597500  0.88882700  0.05731200  1
  O  O11  1  0.23409400  0.11147100  0.94274900  1
  O  O12  1  0.07314500  0.74822500  0.86610600  1
  O  O13  1  0.92727900  0.25152700  0.13437700  1
  O  O14  1  0.62327000  0.73405500  0.87873800  1
  O  O15  1  0.37722300  0.26562100  0.12142000  1
loop_
_geom_bond_atom_site_label_1
_geom_bond_atom_site_label_2
_geom_bond_distance
_geom_bond_site_symmetry_2
Co0 O5 2.048052 1_555
Co0 O0 2.091291 1_455
Co0 O9 2.093316 1_555
Co0 O6 2.148036 1_555
Co0 O1 2.160634 1_565
Co0 O2 2.458047 1_555
Co1 O11 2.014940 1_565
Co1 O3 2.065469 1_565
Co1 O12 2.070093 1_555
Co1 O14 2.094508 1_555
Co1 O6 2.163842 1_555
Co2 O4 2.046989 1_555
Co2 O1 2.091471 1_655
Co2 O8 2.094576 1_555
Co2 O7 2.148423 1_555
Co2 O0 2.160837 1_545
Co2 O3 2.457647 1_555
Co3 O10 2.013942 1_545
Co3 O2 2.062892 1_545
Co3 O13 2.069592 1_555
Co3 O15 2.093194 1_555
Co3 O7 2.162131 1_555
Ag0 O14 2.274648 1_555
Ag0 O8 2.278410 1_555
Ag0 O4 2.644075 1_555
Ag0 O15 2.741214 1_556
Ag0 Ag2 2.966408 1_655
Ag0 O13 2.994266 1_556
Ag0 Ag2 3.150612 1_555
Ag1 O15 2.274094 1_555
Ag1 O9 2.277820 1_555
Ag1 O5 2.639594 1_555
Ag1 O14 2.743921 1_554
Ag1 Ag3 2.967242 1_455
Ag1 O12 2.989790 1_554
Ag1 Ag3 3.147782 1_555
Ag2 O12 2.220634 1_555
Ag2 O3 2.259911 1_555
Ag2 O11 2.569182 1_555
Ag2 O6 2.716950 1_555
Ag3 O13 2.219107 1_555
Ag3 O2 2.259371 1_555
Ag3 O10 2.569923 1_555
Ag3 O7 2.715036 1_555
O0 P0 1.557961 1_555
O1 P1 1.557837 1_555
O2 P0 1.582217 1_555
O3 P1 1.582358 1_555
O4 P0 1.530736 1_555
O5 P1 1.530621 1_555
O6 P0 1.570465 1_555
O7 P1 1.570610 1_555
O8 P2 1.564113 1_545
O9 P3 1.563903 1_565
O10 P2 1.534942 1_554
O11 P3 1.534830 1_556
O12 P2 1.568123 1_455
O13 P3 1.568117 1_655
O14 P2 1.574522 1_555
O15 P3 1.574425 1_555
