# generated using pymatgen
data_Si3Bi2O9
_symmetry_space_group_name_H-M   'P 1'
_cell_length_a   6.80630494
_cell_length_b   6.80631139
_cell_length_c   9.52259951
_cell_angle_alpha   89.99995865
_cell_angle_beta   89.99997838
_cell_angle_gamma   120.00023732
_symmetry_Int_Tables_number   1
_chemical_formula_structural   Si3Bi2O9
_chemical_formula_sum   'Si6 Bi4 O18'
_cell_volume   382.03955434
_cell_formula_units_Z   2
loop_
 _symmetry_equiv_pos_site_id
 _symmetry_equiv_pos_as_xyz
  1  'x, y, z'
loop_
 _atom_site_type_symbol
 _atom_site_label
 _atom_site_symmetry_multiplicity
 _atom_site_fract_x
 _atom_site_fract_y
 _atom_site_fract_z
 _atom_site_occupancy
  Si  Si0  1  0.21623870  0.28038193  0.75000099  1
  Si  Si1  1  0.71962483  0.93585825  0.75000108  1
  Si  Si2  1  0.78376327  0.71961985  0.25000056  1
  Si  Si3  1  0.93585803  0.21623644  0.24999937  1
  Si  Si4  1  0.06414353  0.78376455  0.75000061  1
  Si  Si5  1  0.28037612  0.06413837  0.24999973  1
  Bi  Bi0  1  0.66666587  0.33333281  0.52816358  1
  Bi  Bi1  1  0.66666588  0.33333230  0.97183637  1
  Bi  Bi2  1  0.33333258  0.66666674  0.02816318  1
  Bi  Bi3  1  0.33333381  0.66666694  0.47183673  1
  O  O0  1  0.19203589  0.24732185  0.25000112  1
  O  O1  1  0.58419629  0.92469126  0.60846095  1
  O  O2  1  0.34049129  0.41580060  0.89153616  1
  O  O3  1  0.94471359  0.19203907  0.74999971  1
  O  O4  1  0.05528507  0.80796040  0.25000014  1
  O  O5  1  0.92469029  0.34048759  0.39153913  1
  O  O6  1  0.92469295  0.34049134  0.10846382  1
  O  O7  1  0.24732367  0.05528734  0.74999913  1
  O  O8  1  0.80796389  0.75268317  0.74999905  1
  O  O9  1  0.07530928  0.65951027  0.60846122  1
  O  O10  1  0.41580228  0.07530778  0.39153827  1
  O  O11  1  0.07530806  0.65951266  0.89153914  1
  O  O12  1  0.65951052  0.58419775  0.10846162  1
  O  O13  1  0.65950721  0.58419871  0.39153673  1
  O  O14  1  0.75267607  0.94471157  0.24999910  1
  O  O15  1  0.41580133  0.07530744  0.10846234  1
  O  O16  1  0.34049315  0.41580305  0.60846243  1
  O  O17  1  0.58419754  0.92469096  0.89153772  1
loop_
_geom_bond_atom_site_label_1
_geom_bond_atom_site_label_2
_geom_bond_distance
_geom_bond_site_symmetry_2
Bi0 O10 2.166486 1_555
Bi0 O5 2.166498 1_555
Bi0 O13 2.166503 1_555
Bi0 O1 2.659772 1_545
Bi0 O9 2.659786 1_655
Bi0 O16 2.659786 1_555
Bi1 O12 2.166484 1_556
Bi1 O15 2.166490 1_556
Bi1 O6 2.166519 1_556
Bi1 O17 2.659779 1_545
Bi1 O11 2.659784 1_655
Bi1 O2 2.659794 1_555
Bi2 O17 2.166486 1_554
Bi2 O11 2.166499 1_554
Bi2 O2 2.166507 1_554
Bi2 O6 2.659772 1_455
Bi2 O15 2.659775 1_565
Bi2 O12 2.659813 1_555
Bi3 O1 2.166475 1_555
Bi3 O16 2.166488 1_555
Bi3 O9 2.166494 1_555
Bi3 O10 2.659773 1_565
Bi3 O13 2.659785 1_555
Bi3 O5 2.659791 1_455
O0 Si5 1.632703 1_555
O0 Si3 1.648053 1_455
O1 Si1 1.613078 1_555
O2 Si0 1.613002 1_555
O3 Si0 1.632703 1_655
O3 Si1 1.648051 1_545
O4 Si2 1.632685 1_455
O4 Si5 1.648046 1_565
O5 Si3 1.613038 1_555
O6 Si3 1.613012 1_555
O7 Si4 1.632687 1_545
O7 Si0 1.648069 1_555
O8 Si1 1.632642 1_555
O8 Si4 1.648076 1_655
O9 Si4 1.613043 1_555
O10 Si5 1.613052 1_555
O11 Si4 1.613024 1_555
O12 Si2 1.613039 1_555
O13 Si2 1.613019 1_555
O14 Si3 1.632700 1_565
O14 Si2 1.648058 1_555
O15 Si5 1.613039 1_555
O16 Si0 1.613036 1_555
O17 Si1 1.613044 1_555
