# generated using pymatgen
data_K3Mn(CN)6
_symmetry_space_group_name_H-M   'P 1'
_cell_length_a   10.67141300
_cell_length_b   7.19846900
_cell_length_c   8.44847577
_cell_angle_alpha   73.02907542
_cell_angle_beta   90.00000000
_cell_angle_gamma   90.00000000
_symmetry_Int_Tables_number   1
_chemical_formula_structural   K3Mn(CN)6
_chemical_formula_sum   'K6 Mn2 C12 N12'
_cell_volume   620.73189835
_cell_formula_units_Z   2
loop_
 _symmetry_equiv_pos_site_id
 _symmetry_equiv_pos_as_xyz
  1  'x, y, z'
loop_
 _atom_site_type_symbol
 _atom_site_label
 _atom_site_symmetry_multiplicity
 _atom_site_fract_x
 _atom_site_fract_y
 _atom_site_fract_z
 _atom_site_occupancy
  K  K0  1  0.00000000  0.00000000  0.50000000  1
  K  K1  1  0.50000000  0.00000000  0.00000000  1
  K  K2  1  0.77250400  0.49991200  0.37616100  1
  K  K3  1  0.27250400  0.50008800  0.12383900  1
  K  K4  1  0.22749600  0.50008800  0.62383900  1
  K  K5  1  0.72749600  0.49991200  0.87616100  1
  Mn  Mn0  1  0.00000000  0.00000000  0.00000000  1
  Mn  Mn1  1  0.50000000  0.00000000  0.50000000  1
  C  C0  1  0.83295000  0.87791400  0.03034700  1
  C  C1  1  0.33295000  0.12208600  0.46965300  1
  C  C2  1  0.16705000  0.12208600  0.96965300  1
  C  C3  1  0.66705000  0.87791400  0.53034700  1
  C  C4  1  0.94509300  0.18489400  0.79108600  1
  C  C5  1  0.44509300  0.81510600  0.70891400  1
  C  C6  1  0.05490700  0.81510600  0.20891400  1
  C  C7  1  0.55490700  0.18489400  0.29108600  1
  C  C8  1  0.94425500  0.18628300  0.11573900  1
  C  C9  1  0.44425500  0.81371700  0.38426100  1
  C  C10  1  0.05574500  0.81371700  0.88426100  1
  C  C11  1  0.55574500  0.18628300  0.61573900  1
  N  N0  1  0.73465200  0.80010400  0.04946000  1
  N  N1  1  0.23465200  0.19989600  0.45054000  1
  N  N2  1  0.26534800  0.19989600  0.95054000  1
  N  N3  1  0.76534800  0.80010400  0.54946000  1
  N  N4  1  0.91264900  0.29309600  0.66411900  1
  N  N5  1  0.41264900  0.70690400  0.83588100  1
  N  N6  1  0.08735100  0.70690400  0.33588100  1
  N  N7  1  0.58735100  0.29309600  0.16411900  1
  N  N8  1  0.91056900  0.29510400  0.18761900  1
  N  N9  1  0.41056900  0.70489600  0.31238100  1
  N  N10  1  0.08943100  0.70489600  0.81238100  1
  N  N11  1  0.58943100  0.29510400  0.68761900  1
loop_
_geom_bond_atom_site_label_1
_geom_bond_atom_site_label_2
_geom_bond_distance
_geom_bond_site_symmetry_2
K0 N1 2.857362 1_555
K0 N3 2.857362 1_445
K0 N4 2.991767 1_455
K0 N6 2.991767 1_545
K0 N10 3.019220 1_545
K0 N8 3.019220 1_455
K1 N2 2.857362 1_554
K1 N0 2.857362 1_545
K1 N7 2.991767 1_555
K1 N5 2.991767 1_544
K1 N11 3.019220 1_554
K1 N9 3.019220 1_545
K2 N8 2.872729 1_555
K2 N4 2.873545 1_555
K2 N3 2.943808 1_555
K2 N0 2.994859 1_555
K2 N11 3.263372 1_555
K2 N7 3.299472 1_555
K2 N6 3.650842 1_655
K3 N9 2.872729 1_555
K3 N5 2.873545 1_554
K3 N2 2.943808 1_554
K3 N1 2.994859 1_555
K3 N10 3.263372 1_554
K3 N6 3.299472 1_555
K3 N7 3.650842 1_555
K4 N10 2.872729 1_555
K4 N6 2.873545 1_555
K4 N1 2.943808 1_555
K4 N2 2.994859 1_555
K4 N9 3.263372 1_555
K4 N5 3.299472 1_555
K4 N4 3.650842 1_455
K5 N11 2.872729 1_555
K5 N7 2.873545 1_556
K5 N0 2.943808 1_556
K5 N3 2.994859 1_555
K5 N8 3.263372 1_556
K5 N4 3.299472 1_555
K5 N5 3.650842 1_555
C0 N0 1.177862 1_555
C0 Mn0 1.970893 1_665
C1 N1 1.177862 1_555
C1 Mn1 1.970893 1_555
C2 N2 1.177862 1_555
C2 Mn0 1.970893 1_556
C3 N3 1.177862 1_555
C3 Mn1 1.970893 1_565
C4 N4 1.178743 1_555
C4 Mn0 1.964341 1_656
C4 K0 3.173854 1_655
C5 N5 1.178743 1_555
C5 Mn1 1.964341 1_565
C5 K1 3.173854 1_566
C6 N6 1.178743 1_555
C6 Mn0 1.964341 1_565
C6 K0 3.173854 1_565
C7 N7 1.178743 1_555
C7 Mn1 1.964341 1_555
C7 K1 3.173854 1_555
C8 N8 1.178703 1_555
C8 Mn0 1.968149 1_655
C8 K0 3.185897 1_655
C9 N9 1.178703 1_555
C9 Mn1 1.968149 1_565
C9 K1 3.185897 1_565
C10 N10 1.178703 1_555
C10 Mn0 1.968149 1_566
C10 K0 3.185897 1_565
C11 N11 1.178703 1_555
C11 Mn1 1.968149 1_555
C11 K1 3.185897 1_556
