# generated using pymatgen
data_K2LaP2S7
_symmetry_space_group_name_H-M   'P 1'
_cell_length_a   6.93051800
_cell_length_b   9.27786300
_cell_length_c   21.35217667
_cell_angle_alpha   71.13974000
_cell_angle_beta   90.00000000
_cell_angle_gamma   90.00000000
_symmetry_Int_Tables_number   1
_chemical_formula_structural   K2LaP2S7
_chemical_formula_sum   'K8 La4 P8 S28'
_cell_volume   1299.23928025
_cell_formula_units_Z   4
loop_
 _symmetry_equiv_pos_site_id
 _symmetry_equiv_pos_as_xyz
  1  'x, y, z'
loop_
 _atom_site_type_symbol
 _atom_site_label
 _atom_site_symmetry_multiplicity
 _atom_site_fract_x
 _atom_site_fract_y
 _atom_site_fract_z
 _atom_site_occupancy
  K  K0  1  0.53014300  0.34026000  0.31032200  1
  K  K1  1  0.03014300  0.65974000  0.18967800  1
  K  K2  1  0.46985700  0.65974000  0.68967800  1
  K  K3  1  0.96985700  0.34026000  0.81032200  1
  K  K4  1  0.01249900  0.24830000  0.48974400  1
  K  K5  1  0.51249900  0.75170000  0.01025600  1
  K  K6  1  0.98750100  0.75170000  0.51025600  1
  K  K7  1  0.48750100  0.24830000  0.98974400  1
  La  La0  1  0.47342500  0.83939400  0.34953200  1
  La  La1  1  0.97342500  0.16060600  0.15046800  1
  La  La2  1  0.52657500  0.16060600  0.65046800  1
  La  La3  1  0.02657500  0.83939400  0.84953200  1
  P  P0  1  0.01694000  0.07227500  0.33078000  1
  P  P1  1  0.51694000  0.92772500  0.16922000  1
  P  P2  1  0.98306000  0.92772500  0.66922000  1
  P  P3  1  0.48306000  0.07227500  0.83078000  1
  P  P4  1  0.51079300  0.46046900  0.45608800  1
  P  P5  1  0.01079300  0.53953100  0.04391200  1
  P  P6  1  0.48920700  0.53953100  0.54391200  1
  P  P7  1  0.98920700  0.46046900  0.95608800  1
  S  S0  1  0.46617400  0.76796400  0.50551300  1
  S  S1  1  0.96617400  0.23203600  0.99448700  1
  S  S2  1  0.53382600  0.23203600  0.49448700  1
  S  S3  1  0.03382600  0.76796400  0.00551300  1
  S  S4  1  0.07378000  0.91726700  0.28179000  1
  S  S5  1  0.57378000  0.08273300  0.21821000  1
  S  S6  1  0.92622000  0.08273300  0.71821000  1
  S  S7  1  0.42622000  0.91726700  0.78179000  1
  S  S8  1  0.48814100  0.71620000  0.23918200  1
  S  S9  1  0.98814100  0.28380000  0.26081800  1
  S  S10  1  0.51185900  0.28380000  0.76081800  1
  S  S11  1  0.01185900  0.71620000  0.73918200  1
  S  S12  1  0.77709000  0.02184500  0.38977500  1
  S  S13  1  0.27709000  0.97815500  0.11022500  1
  S  S14  1  0.22291000  0.97815500  0.61022500  1
  S  S15  1  0.72291000  0.02184500  0.88977500  1
  S  S16  1  0.26836200  0.54002300  0.40127700  1
  S  S17  1  0.76836200  0.45997700  0.09872300  1
  S  S18  1  0.73163800  0.45997700  0.59872300  1
  S  S19  1  0.23163800  0.54002300  0.90127700  1
  S  S20  1  0.74420400  0.56872400  0.40369900  1
  S  S21  1  0.24420400  0.43127600  0.09630100  1
  S  S22  1  0.25579600  0.43127600  0.59630100  1
  S  S23  1  0.75579600  0.56872400  0.90369900  1
  S  S24  1  0.24656500  0.06630600  0.39158400  1
  S  S25  1  0.74656500  0.93369400  0.10841600  1
  S  S26  1  0.75343500  0.93369400  0.60841600  1
  S  S27  1  0.25343500  0.06630600  0.89158400  1
loop_
_geom_bond_atom_site_label_1
_geom_bond_atom_site_label_2
_geom_bond_distance
_geom_bond_site_symmetry_2
K0 S24 3.237626 1_555
K0 S8 3.336511 1_555
K0 S12 3.360706 1_555
K0 S9 3.438746 1_555
K0 S5 3.564640 1_555
K0 S16 3.581257 1_555
K0 S20 3.660798 1_555
K0 S2 3.730856 1_555
K0 S9 3.982444 1_455
K1 S25 3.237626 1_455
K1 S9 3.336511 1_455
K1 S13 3.360706 1_555
K1 S8 3.438746 1_555
K1 S4 3.564640 1_555
K1 S17 3.581257 1_455
K1 S21 3.660798 1_555
K1 S3 3.730856 1_555
K1 S8 3.982444 1_455
K2 S26 3.237626 1_555
K2 S10 3.336511 1_555
K2 S14 3.360706 1_555
K2 S11 3.438746 1_555
K2 S7 3.564640 1_555
K2 S18 3.581257 1_555
K2 S22 3.660798 1_555
K2 S0 3.730856 1_555
K2 S11 3.982444 1_655
K3 S27 3.237626 1_655
K3 S11 3.336511 1_655
K3 S15 3.360706 1_555
K3 S10 3.438746 1_555
K3 S6 3.564640 1_555
K3 S19 3.581257 1_655
K3 S23 3.660798 1_555
K3 S1 3.730856 1_555
K3 S10 3.982444 1_655
K4 S16 3.276085 1_555
K4 S14 3.295106 1_545
K4 S2 3.320938 1_455
K4 S20 3.484187 1_455
K4 S24 3.487633 1_555
K4 S2 3.616268 1_555
K4 S26 3.658189 1_445
K4 S22 3.660456 1_555
K4 S12 3.812074 1_455
K4 S18 4.001879 1_455
K5 S17 3.276085 1_555
K5 S15 3.295106 1_564
K5 S3 3.320938 1_555
K5 S21 3.484187 1_555
K5 S25 3.487633 1_555
K5 S3 3.616268 1_655
K5 S27 3.658189 1_564
K5 S23 3.660456 1_554
K5 S13 3.812074 1_555
K5 S19 4.001879 1_554
K6 S18 3.276085 1_555
K6 S12 3.295106 1_565
K6 S0 3.320938 1_655
K6 S22 3.484187 1_655
K6 S26 3.487633 1_555
K6 S0 3.616268 1_555
K6 S24 3.658189 1_665
K6 S20 3.660456 1_555
K6 S14 3.812074 1_655
K6 S16 4.001879 1_655
K7 S19 3.276085 1_555
K7 S13 3.295106 1_546
K7 S1 3.320938 1_555
K7 S23 3.484187 1_555
K7 S27 3.487633 1_555
K7 S1 3.616268 1_455
K7 S25 3.658189 1_546
K7 S21 3.660456 1_556
K7 S15 3.812074 1_555
K7 S17 4.001879 1_556
La0 S8 2.934226 1_555
La0 S24 2.988723 1_565
La0 S16 2.995181 1_555
La0 S12 2.995551 1_565
La0 S20 3.047619 1_555
La0 S5 3.057850 1_565
La0 S4 3.100006 1_555
La0 S0 3.179177 1_555
La1 S9 2.934226 1_555
La1 S25 2.988723 1_545
La1 S17 2.995181 1_555
La1 S13 2.995551 1_645
La1 S21 3.047619 1_655
La1 S4 3.057850 1_645
La1 S5 3.100006 1_555
La1 S1 3.179177 1_554
La2 S10 2.934226 1_555
La2 S26 2.988723 1_545
La2 S18 2.995181 1_555
La2 S14 2.995551 1_545
La2 S22 3.047619 1_555
La2 S7 3.057850 1_545
La2 S6 3.100006 1_555
La2 S2 3.179177 1_555
La3 S11 2.934226 1_555
La3 S27 2.988723 1_565
La3 S19 2.995181 1_555
La3 S15 2.995551 1_465
La3 S23 3.047619 1_455
La3 S6 3.057850 1_465
La3 S7 3.100006 1_555
La3 S3 3.179177 1_556
P0 S24 2.043227 1_555
P0 S12 2.046419 1_455
P0 S9 2.056069 1_455
P0 S4 2.071291 1_545
P1 S25 2.043227 1_555
P1 S13 2.046419 1_555
P1 S8 2.056069 1_555
P1 S5 2.071291 1_565
P2 S26 2.043227 1_555
P2 S14 2.046419 1_655
P2 S11 2.056069 1_655
P2 S6 2.071291 1_565
P3 S27 2.043227 1_555
P3 S15 2.046419 1_555
P3 S10 2.056069 1_555
P3 S7 2.071291 1_545
P4 S2 2.016434 1_555
P4 S20 2.037283 1_555
P4 S16 2.044252 1_555
P4 P6 2.228510 1_555
P5 S3 2.016434 1_555
P5 S21 2.037283 1_555
P5 S17 2.044252 1_455
P5 P7 2.228510 1_454
P6 S0 2.016434 1_555
P6 S22 2.037283 1_555
P6 S18 2.044252 1_555
P7 S1 2.016434 1_555
P7 S23 2.037283 1_555
P7 S19 2.044252 1_655
