# generated using pymatgen
data_V8C7
_symmetry_space_group_name_H-M   'P 1'
_cell_length_a   8.33487500
_cell_length_b   8.33487500
_cell_length_c   8.33487500
_cell_angle_alpha   90.00000000
_cell_angle_beta   90.00000000
_cell_angle_gamma   90.00000000
_symmetry_Int_Tables_number   1
_chemical_formula_structural   V8C7
_chemical_formula_sum   'V32 C28'
_cell_volume   579.02494368
_cell_formula_units_Z   4
loop_
 _symmetry_equiv_pos_site_id
 _symmetry_equiv_pos_as_xyz
  1  'x, y, z'
loop_
 _atom_site_type_symbol
 _atom_site_label
 _atom_site_symmetry_multiplicity
 _atom_site_fract_x
 _atom_site_fract_y
 _atom_site_fract_z
 _atom_site_occupancy
  V  V0  1  0.37816600  0.37816600  0.37816600  1
  V  V1  1  0.12816600  0.37183400  0.62816600  1
  V  V2  1  0.62816600  0.12816600  0.37183400  1
  V  V3  1  0.37183400  0.62816600  0.12816600  1
  V  V4  1  0.12183400  0.62183400  0.87816600  1
  V  V5  1  0.87816600  0.12183400  0.62183400  1
  V  V6  1  0.62183400  0.87816600  0.12183400  1
  V  V7  1  0.87183400  0.87183400  0.87183400  1
  V  V8  1  0.14420000  0.37243000  0.11960600  1
  V  V9  1  0.89420000  0.63039400  0.62243000  1
  V  V10  1  0.39420000  0.86960600  0.37757000  1
  V  V11  1  0.36960600  0.12243000  0.60580000  1
  V  V12  1  0.63039400  0.62243000  0.89420000  1
  V  V13  1  0.37757000  0.39420000  0.86960600  1
  V  V14  1  0.12243000  0.60580000  0.36960600  1
  V  V15  1  0.11960600  0.14420000  0.37243000  1
  V  V16  1  0.37243000  0.11960600  0.14420000  1
  V  V17  1  0.12757000  0.88039400  0.64420000  1
  V  V18  1  0.61960600  0.35580000  0.62757000  1
  V  V19  1  0.62757000  0.61960600  0.35580000  1
  V  V20  1  0.38039400  0.85580000  0.87243000  1
  V  V21  1  0.88039400  0.64420000  0.12757000  1
  V  V22  1  0.87243000  0.38039400  0.85580000  1
  V  V23  1  0.64420000  0.12757000  0.88039400  1
  V  V24  1  0.85580000  0.87243000  0.38039400  1
  V  V25  1  0.35580000  0.62757000  0.61960600  1
  V  V26  1  0.62243000  0.89420000  0.63039400  1
  V  V27  1  0.87757000  0.10580000  0.13039400  1
  V  V28  1  0.86960600  0.37757000  0.39420000  1
  V  V29  1  0.13039400  0.87757000  0.10580000  1
  V  V30  1  0.60580000  0.36960600  0.12243000  1
  V  V31  1  0.10580000  0.13039400  0.87757000  1
  C  C0  1  0.12500000  0.12500000  0.12500000  1
  C  C1  1  0.87500000  0.62500000  0.37500000  1
  C  C2  1  0.37500000  0.87500000  0.62500000  1
  C  C3  1  0.62500000  0.37500000  0.87500000  1
  C  C4  1  0.12500000  0.62880400  0.62119600  1
  C  C5  1  0.87500000  0.12880400  0.87880400  1
  C  C6  1  0.37500000  0.37119600  0.12119600  1
  C  C7  1  0.87119600  0.37880400  0.62500000  1
  C  C8  1  0.12880400  0.87880400  0.87500000  1
  C  C9  1  0.12119600  0.37500000  0.37119600  1
  C  C10  1  0.37880400  0.62500000  0.87119600  1
  C  C11  1  0.62119600  0.12500000  0.62880400  1
  C  C12  1  0.62880400  0.62119600  0.12500000  1
  C  C13  1  0.37119600  0.12119600  0.37500000  1
  C  C14  1  0.87880400  0.87500000  0.12880400  1
  C  C15  1  0.62500000  0.87119600  0.37880400  1
  C  C16  1  0.12500000  0.37380300  0.87619700  1
  C  C17  1  0.87500000  0.87380300  0.62380300  1
  C  C18  1  0.37500000  0.62619700  0.37619700  1
  C  C19  1  0.12619700  0.12380300  0.62500000  1
  C  C20  1  0.87380300  0.62380300  0.87500000  1
  C  C21  1  0.37619700  0.37500000  0.62619700  1
  C  C22  1  0.12380300  0.62500000  0.12619700  1
  C  C23  1  0.87619700  0.12500000  0.37380300  1
  C  C24  1  0.37380300  0.87619700  0.12500000  1
  C  C25  1  0.62619700  0.37619700  0.37500000  1
  C  C26  1  0.62380300  0.87500000  0.87380300  1
  C  C27  1  0.62500000  0.12619700  0.12380300  1
loop_
_geom_bond_atom_site_label_1
_geom_bond_atom_site_label_2
_geom_bond_distance
_geom_bond_site_symmetry_2
C0 V31 2.068986 1_554
C0 V29 2.068986 1_545
C0 V27 2.068986 1_455
C0 V8 2.068986 1_555
C0 V16 2.068986 1_555
C0 V15 2.068986 1_555
C1 V19 2.068986 1_555
C1 V28 2.068986 1_555
C1 V21 2.068986 1_555
C1 V9 2.068986 1_555
C1 V24 2.068986 1_555
C1 V14 2.068986 1_655
C2 V25 2.068986 1_555
C2 V11 2.068986 1_565
C2 V17 2.068986 1_555
C2 V10 2.068986 1_555
C2 V20 2.068986 1_555
C2 V26 2.068986 1_555
C3 V18 2.068986 1_555
C3 V12 2.068986 1_555
C3 V13 2.068986 1_555
C3 V23 2.068986 1_555
C3 V30 2.068986 1_556
C3 V22 2.068986 1_555
C4 V25 1.923762 1_555
C4 V9 1.923762 1_455
C4 V14 2.105828 1_555
C4 V17 2.105828 1_555
C4 V1 2.142763 1_555
C4 V4 2.142763 1_555
C5 V31 1.923762 1_655
C5 V23 1.923762 1_555
C5 V22 2.105828 1_555
C5 V27 2.105828 1_556
C5 V5 2.142763 1_555
C5 V7 2.142763 1_545
C6 V30 1.923762 1_555
C6 V8 1.923762 1_555
C6 V13 2.105828 1_554
C6 V16 2.105828 1_555
C6 V0 2.142763 1_555
C6 V3 2.142763 1_555
C7 V28 1.923762 1_555
C7 V22 1.923762 1_555
C7 V18 2.105828 1_555
C7 V9 2.105828 1_555
C7 V1 2.142763 1_655
C7 V5 2.142763 1_555
C8 V29 1.923762 1_556
C8 V17 1.923762 1_555
C8 V20 2.105828 1_555
C8 V31 2.105828 1_565
C8 V4 2.142763 1_555
C8 V7 2.142763 1_455
C9 V15 1.923762 1_555
C9 V14 1.923762 1_555
C9 V28 2.105828 1_455
C9 V8 2.105828 1_555
C9 V0 2.142763 1_555
C9 V1 2.142763 1_555
C10 V20 1.923762 1_555
C10 V13 1.923762 1_555
C10 V25 2.105828 1_555
C10 V12 2.105828 1_555
C10 V3 2.142763 1_556
C10 V4 2.142763 1_555
C11 V18 1.923762 1_555
C11 V26 1.923762 1_545
C11 V11 2.105828 1_555
C11 V23 2.105828 1_555
C11 V2 2.142763 1_555
C11 V5 2.142763 1_555
C12 V12 1.923762 1_554
C12 V19 1.923762 1_555
C12 V30 2.105828 1_555
C12 V21 2.105828 1_555
C12 V3 2.142763 1_555
C12 V6 2.142763 1_555
C13 V11 1.923762 1_555
C13 V16 1.923762 1_555
C13 V10 2.105828 1_545
C13 V15 2.105828 1_555
C13 V0 2.142763 1_555
C13 V2 2.142763 1_555
C14 V27 1.923762 1_565
C14 V21 1.923762 1_555
C14 V24 2.105828 1_555
C14 V29 2.105828 1_655
C14 V6 2.142763 1_555
C14 V7 2.142763 1_554
C15 V24 1.923762 1_555
C15 V10 1.923762 1_555
C15 V19 2.105828 1_555
C15 V26 2.105828 1_555
C15 V6 2.142763 1_555
C15 V2 2.142763 1_565
C16 V8 2.035118 1_556
C16 V31 2.035118 1_555
C16 V1 2.067541 1_555
C16 V4 2.067541 1_555
C16 V22 2.112707 1_455
C16 V13 2.112707 1_555
C17 V9 2.035118 1_555
C17 V24 2.035118 1_555
C17 V5 2.067541 1_565
C17 V7 2.067541 1_555
C17 V26 2.112707 1_555
C17 V17 2.112707 1_655
C18 V25 2.035118 1_555
C18 V10 2.035118 1_555
C18 V0 2.067541 1_555
C18 V3 2.067541 1_555
C18 V14 2.112707 1_555
C18 V19 2.112707 1_555
C19 V11 2.035118 1_555
C19 V17 2.035118 1_545
C19 V5 2.067541 1_455
C19 V1 2.067541 1_555
C19 V15 2.112707 1_555
C19 V31 2.112707 1_555
C20 V12 2.035118 1_555
C20 V22 2.035118 1_555
C20 V4 2.067541 1_655
C20 V7 2.067541 1_555
C20 V9 2.112707 1_555
C20 V21 2.112707 1_556
C21 V18 2.035118 1_555
C21 V13 2.035118 1_555
C21 V1 2.067541 1_555
C21 V0 2.067541 1_555
C21 V11 2.112707 1_555
C21 V25 2.112707 1_555
C22 V21 2.035118 1_455
C22 V14 2.035118 1_555
C22 V3 2.067541 1_555
C22 V4 2.067541 1_554
C22 V8 2.112707 1_555
C22 V29 2.112707 1_555
C23 V15 2.035118 1_655
C23 V27 2.035118 1_555
C23 V2 2.067541 1_555
C23 V5 2.067541 1_555
C23 V24 2.112707 1_545
C23 V28 2.112707 1_555
C24 V16 2.035118 1_565
C24 V29 2.035118 1_555
C24 V6 2.067541 1_555
C24 V3 2.067541 1_555
C24 V20 2.112707 1_554
C24 V10 2.112707 1_555
C25 V19 2.035118 1_555
C25 V28 2.035118 1_555
C25 V0 2.067541 1_555
C25 V2 2.067541 1_555
C25 V30 2.112707 1_555
C25 V18 2.112707 1_555
C26 V20 2.035118 1_555
C26 V26 2.035118 1_555
C26 V7 2.067541 1_555
C26 V6 2.067541 1_556
C26 V23 2.112707 1_565
C26 V12 2.112707 1_555
C27 V23 2.035118 1_554
C27 V30 2.035118 1_555
C27 V2 2.067541 1_555
C27 V6 2.067541 1_545
C27 V16 2.112707 1_555
C27 V27 2.112707 1_555
