# generated using pymatgen
data_La2RuO5
_symmetry_space_group_name_H-M   'P 1'
_cell_length_a   5.91487600
_cell_length_b   7.93366500
_cell_length_c   9.30671085
_cell_angle_alpha   79.57587281
_cell_angle_beta   90.00000000
_cell_angle_gamma   90.00000000
_symmetry_Int_Tables_number   1
_chemical_formula_structural   La2RuO5
_chemical_formula_sum   'La8 Ru4 O20'
_cell_volume   429.52460010
_cell_formula_units_Z   4
loop_
 _symmetry_equiv_pos_site_id
 _symmetry_equiv_pos_as_xyz
  1  'x, y, z'
loop_
 _atom_site_type_symbol
 _atom_site_label
 _atom_site_symmetry_multiplicity
 _atom_site_fract_x
 _atom_site_fract_y
 _atom_site_fract_z
 _atom_site_occupancy
  La  La0  1  0.26182500  0.37852800  0.44463200  1
  La  La1  1  0.76182500  0.12147200  0.55536800  1
  La  La2  1  0.73817500  0.62147200  0.55536800  1
  La  La3  1  0.23817500  0.87852800  0.44463200  1
  La  La4  1  0.74897100  0.96473800  0.17672300  1
  La  La5  1  0.24897100  0.53526200  0.82327700  1
  La  La6  1  0.25102900  0.03526200  0.82327700  1
  La  La7  1  0.75102900  0.46473800  0.17672300  1
  Ru  Ru0  1  0.25458400  0.21224400  0.14509600  1
  Ru  Ru1  1  0.75458400  0.28775600  0.85490400  1
  Ru  Ru2  1  0.74541600  0.78775600  0.85490400  1
  Ru  Ru3  1  0.24541600  0.71224400  0.14509600  1
  O  O0  1  0.83957900  0.89765400  0.42574000  1
  O  O1  1  0.33957900  0.60234600  0.57426000  1
  O  O2  1  0.16042100  0.10234600  0.57426000  1
  O  O3  1  0.66042100  0.39765400  0.42574000  1
  O  O4  1  0.83838000  0.03804900  0.85176100  1
  O  O5  1  0.33838000  0.46195100  0.14823900  1
  O  O6  1  0.16162000  0.96195100  0.14823900  1
  O  O7  1  0.66162000  0.53804900  0.85176100  1
  O  O8  1  0.54658600  0.20379500  0.02608100  1
  O  O9  1  0.04658600  0.29620500  0.97391900  1
  O  O10  1  0.45341400  0.79620500  0.97391900  1
  O  O11  1  0.95341400  0.70379500  0.02608100  1
  O  O12  1  0.51249000  0.72682500  0.27213700  1
  O  O13  1  0.01249000  0.77317500  0.72786300  1
  O  O14  1  0.48751000  0.27317500  0.72786300  1
  O  O15  1  0.98751000  0.22682500  0.27213700  1
  O  O16  1  0.04073100  0.62429700  0.31532600  1
  O  O17  1  0.54073100  0.87570300  0.68467400  1
  O  O18  1  0.95926900  0.37570300  0.68467400  1
  O  O19  1  0.45926900  0.12429700  0.31532600  1
loop_
_geom_bond_atom_site_label_1
_geom_bond_atom_site_label_2
_geom_bond_distance
_geom_bond_site_symmetry_2
La0 O1 2.365425 1_555
La0 O3 2.367019 1_555
La0 O2 2.379010 1_555
La0 O16 2.472084 1_555
La0 O15 2.712482 1_455
La0 O5 2.755258 1_555
La0 O19 2.785438 1_555
La0 O18 2.859326 1_455
La0 O14 2.937947 1_555
La1 O0 2.365425 1_545
La1 O2 2.367019 1_655
La1 O3 2.379010 1_555
La1 O17 2.472084 1_545
La1 O14 2.712482 1_555
La1 O4 2.755258 1_555
La1 O18 2.785438 1_555
La1 O19 2.859326 1_555
La1 O15 2.937947 1_555
La2 O3 2.365425 1_555
La2 O1 2.367019 1_555
La2 O0 2.379010 1_555
La2 O18 2.472084 1_555
La2 O13 2.712482 1_655
La2 O7 2.755258 1_555
La2 O17 2.785438 1_555
La2 O16 2.859326 1_655
La2 O12 2.937947 1_555
La3 O2 2.365425 1_565
La3 O0 2.367019 1_455
La3 O1 2.379010 1_555
La3 O19 2.472084 1_565
La3 O12 2.712482 1_555
La3 O6 2.755258 1_555
La3 O16 2.785438 1_555
La3 O17 2.859326 1_555
La3 O13 2.937947 1_555
La4 O0 2.344160 1_555
La4 O12 2.387731 1_555
La4 O6 2.455653 1_655
La4 O8 2.456306 1_565
La4 O19 2.606447 1_565
La4 O15 2.787639 1_565
La4 O11 2.960408 1_555
La4 O4 3.021256 1_564
La4 O10 3.052801 1_554
La5 O1 2.344160 1_555
La5 O13 2.387731 1_555
La5 O7 2.455653 1_555
La5 O9 2.456306 1_555
La5 O18 2.606447 1_455
La5 O14 2.787639 1_555
La5 O10 2.960408 1_555
La5 O5 3.021256 1_556
La5 O11 3.052801 1_456
La6 O2 2.344160 1_555
La6 O14 2.387731 1_555
La6 O4 2.455653 1_455
La6 O10 2.456306 1_545
La6 O17 2.606447 1_545
La6 O13 2.787639 1_545
La6 O9 2.960408 1_555
La6 O6 3.021256 1_546
La6 O8 3.052801 1_556
La7 O3 2.344160 1_555
La7 O15 2.387731 1_555
La7 O5 2.455653 1_555
La7 O11 2.456306 1_555
La7 O16 2.606447 1_655
La7 O12 2.787639 1_555
La7 O8 2.960408 1_555
La7 O7 3.021256 1_554
La7 O9 3.052801 1_654
O0 O16 2.825127 1_655
O0 O15 2.877211 1_565
O0 O12 2.885229 1_555
O0 O19 2.946303 1_565
O0 O17 2.968214 1_555
O0 O13 2.987060 1_655
O1 O17 2.825127 1_555
O1 O14 2.877211 1_555
O1 O13 2.885229 1_555
O1 O18 2.946303 1_455
O1 O16 2.968214 1_555
O1 O12 2.987060 1_555
O4 Ru1 2.047489 1_555
O4 Ru2 2.055568 1_545
O4 O9 2.801170 1_655
O4 O8 2.848151 1_556
O5 Ru0 2.047489 1_555
O5 Ru3 2.055568 1_555
O5 O8 2.801170 1_555
O5 O9 2.848151 1_554
O6 Ru3 2.047489 1_555
O6 Ru0 2.055568 1_565
O7 Ru2 2.047489 1_555
O7 Ru1 2.055568 1_555
O8 Ru1 2.027622 1_554
O8 Ru0 2.059439 1_555
O9 Ru0 2.027622 1_556
O9 Ru1 2.059439 1_455
O10 Ru3 2.027622 1_556
O10 Ru2 2.059439 1_555
O10 O17 2.701219 1_555
O10 O12 2.752319 1_556
O10 O7 2.801170 1_555
O10 O6 2.848151 1_556
O11 Ru2 2.027622 1_554
O11 Ru3 2.059439 1_655
O11 O16 2.701219 1_655
O11 O13 2.752319 1_654
O11 O6 2.801170 1_655
O11 O7 2.848151 1_554
O12 Ru3 1.989038 1_555
O12 O5 2.771820 1_555
O12 O3 2.877211 1_555
O13 Ru2 1.989038 1_455
O13 O4 2.771820 1_465
O13 O2 2.877211 1_565
O14 Ru1 1.989038 1_555
O14 O8 2.752319 1_556
O14 O7 2.771820 1_555
O14 O2 2.885229 1_555
O14 O3 2.987060 1_555
O15 Ru0 1.989038 1_655
O15 O9 2.752319 1_654
O15 O6 2.771820 1_645
O15 O3 2.885229 1_555
O15 O2 2.987060 1_655
O16 Ru3 2.015574 1_555
O16 O5 2.810942 1_555
O16 O3 2.946303 1_455
O17 Ru2 2.015574 1_555
O17 O4 2.810942 1_565
O17 O2 2.946303 1_565
O18 Ru1 2.015574 1_555
O18 O9 2.701219 1_655
O18 O7 2.810942 1_555
O18 O2 2.825127 1_655
O18 O3 2.968214 1_555
O19 Ru0 2.015574 1_555
O19 O8 2.701219 1_555
O19 O6 2.810942 1_545
O19 O3 2.825127 1_555
O19 O2 2.968214 1_555
