# generated using pymatgen
data_H5C2ClO
_symmetry_space_group_name_H-M   'P 1'
_cell_length_a   8.37181900
_cell_length_b   6.46090900
_cell_length_c   8.75851042
_cell_angle_alpha   66.21537591
_cell_angle_beta   90.00000000
_cell_angle_gamma   90.00000000
_symmetry_Int_Tables_number   1
_chemical_formula_structural   H5C2ClO
_chemical_formula_sum   'H20 C8 Cl4 O4'
_cell_volume   433.50792424
_cell_formula_units_Z   4
loop_
 _symmetry_equiv_pos_site_id
 _symmetry_equiv_pos_as_xyz
  1  'x, y, z'
loop_
 _atom_site_type_symbol
 _atom_site_label
 _atom_site_symmetry_multiplicity
 _atom_site_fract_x
 _atom_site_fract_y
 _atom_site_fract_z
 _atom_site_occupancy
  H  H0  1  0.84261200  0.59504500  0.93314800  1
  H  H1  1  0.47731500  0.94986300  0.65237000  1
  H  H2  1  0.29503800  0.51398200  0.17939800  1
  H  H3  1  0.65738800  0.59504500  0.43314800  1
  H  H4  1  0.20496200  0.51398200  0.67939800  1
  H  H5  1  0.97731500  0.05013700  0.84763000  1
  H  H6  1  0.70496200  0.48601800  0.82060200  1
  H  H7  1  0.34261200  0.40495500  0.56685200  1
  H  H8  1  0.77427100  0.14586800  0.80283200  1
  H  H9  1  0.72572900  0.14586800  0.30283200  1
  H  H10  1  0.27427100  0.85413200  0.69716800  1
  H  H11  1  0.79503800  0.48601800  0.32060200  1
  H  H12  1  0.15738800  0.40495500  0.06685200  1
  H  H13  1  0.93198700  0.29189400  0.65997800  1
  H  H14  1  0.02268500  0.94986300  0.15237000  1
  H  H15  1  0.06801300  0.70810600  0.34002200  1
  H  H16  1  0.52268500  0.05013700  0.34763000  1
  H  H17  1  0.56801300  0.29189400  0.15997800  1
  H  H18  1  0.22572900  0.85413200  0.19716800  1
  H  H19  1  0.43198700  0.70810600  0.84002200  1
  C  C0  1  0.90027600  0.19871800  0.79219400  1
  C  C1  1  0.32973300  0.47839100  0.65899100  1
  C  C2  1  0.17026700  0.47839100  0.15899100  1
  C  C3  1  0.82973300  0.52160900  0.84100900  1
  C  C4  1  0.59972400  0.19871800  0.29219400  1
  C  C5  1  0.09972400  0.80128200  0.20780600  1
  C  C6  1  0.67026700  0.52160900  0.34100900  1
  C  C7  1  0.40027600  0.80128200  0.70780600  1
  Cl  Cl0  1  0.61226700  0.75410800  0.13909400  1
  Cl  Cl1  1  0.88773300  0.75410800  0.63909400  1
  Cl  Cl2  1  0.11226700  0.24589200  0.36090600  1
  Cl  Cl3  1  0.38773300  0.24589200  0.86090600  1
  O  O0  1  0.42813900  0.66334300  0.61562100  1
  O  O1  1  0.57186100  0.33665700  0.38437900  1
  O  O2  1  0.92813900  0.33665700  0.88437900  1
  O  O3  1  0.07186100  0.66334300  0.11562100  1
loop_
_geom_bond_atom_site_label_1
_geom_bond_atom_site_label_2
_geom_bond_distance
_geom_bond_site_symmetry_2
C0 H5 1.094211 1_555
C0 H13 1.100719 1_555
C0 H8 1.101094 1_555
C0 O2 1.442557 1_555
C1 H7 1.093998 1_555
C1 H4 1.099582 1_555
C1 O0 1.372879 1_555
C1 Cl3 1.864670 1_555
C2 H12 1.093998 1_555
C2 H2 1.099582 1_555
C2 O3 1.372879 1_555
C2 Cl2 1.864670 1_555
C3 H0 1.093998 1_555
C3 H6 1.099582 1_555
C3 O2 1.372879 1_555
C3 Cl1 1.864670 1_555
C4 H16 1.094211 1_555
C4 H17 1.100719 1_555
C4 H9 1.101094 1_555
C4 O1 1.442557 1_555
C5 H14 1.094211 1_555
C5 H15 1.100719 1_555
C5 H18 1.101094 1_555
C5 O3 1.442557 1_555
C6 H3 1.093998 1_555
C6 H11 1.099582 1_555
C6 O1 1.372879 1_555
C6 Cl0 1.864670 1_555
C7 H1 1.094211 1_555
C7 H19 1.100719 1_555
C7 H10 1.101094 1_555
C7 O0 1.442557 1_555
Cl0 H11 2.376488 1_555
Cl0 H3 2.386841 1_555
Cl1 H6 2.376488 1_555
Cl1 H0 2.386841 1_555
Cl2 H2 2.376488 1_555
Cl2 H12 2.386841 1_555
Cl3 H4 2.376488 1_555
Cl3 H7 2.386841 1_555
