# generated using pymatgen
data_Ca4P2O9
_symmetry_space_group_name_H-M   'P 1'
_cell_length_a   11.94582140
_cell_length_b   7.00602757
_cell_length_c   9.43956026
_cell_angle_alpha   89.15197613
_cell_angle_beta   90.00000000
_cell_angle_gamma   90.00000000
_symmetry_Int_Tables_number   1
_chemical_formula_structural   Ca4P2O9
_chemical_formula_sum   'Ca16 P8 O36'
_cell_volume   789.93626430
_cell_formula_units_Z   4
loop_
 _symmetry_equiv_pos_site_id
 _symmetry_equiv_pos_as_xyz
  1  'x, y, z'
loop_
 _atom_site_type_symbol
 _atom_site_label
 _atom_site_symmetry_multiplicity
 _atom_site_fract_x
 _atom_site_fract_y
 _atom_site_fract_z
 _atom_site_occupancy
  Ca  Ca0  1  0.42191733  0.75078873  0.01340194  1
  Ca  Ca1  1  0.94735153  0.51396846  0.41152572  1
  Ca  Ca2  1  0.43100176  0.01214570  0.63706442  1
  Ca  Ca3  1  0.93100176  0.98785430  0.36293558  1
  Ca  Ca4  1  0.44735153  0.48603154  0.58847428  1
  Ca  Ca5  1  0.92191733  0.24921127  0.98659806  1
  Ca  Ca6  1  0.39173368  0.25862250  0.25491835  1
  Ca  Ca7  1  0.89173368  0.74137750  0.74508165  1
  Ca  Ca8  1  0.20052759  0.73019993  0.25290378  1
  Ca  Ca9  1  0.70052759  0.26980007  0.74709622  1
  Ca  Ca10  1  0.19640214  0.23053632  0.53132247  1
  Ca  Ca11  1  0.69640214  0.76946368  0.46867753  1
  Ca  Ca12  1  0.20175000  0.46681747  0.89673516  1
  Ca  Ca13  1  0.70175000  0.53318253  0.10326484  1
  Ca  Ca14  1  0.15651783  0.96781884  0.89276268  1
  Ca  Ca15  1  0.65651783  0.03218116  0.10723732  1
  P  P0  1  0.60860596  0.76730715  0.78532651  1
  P  P1  1  0.10860596  0.23269285  0.21467349  1
  P  P2  1  0.67441926  0.29059780  0.37542408  1
  P  P3  1  0.17441926  0.70940220  0.62457592  1
  P  P4  1  0.95929437  0.23671300  0.68043943  1
  P  P5  1  0.45929437  0.76328700  0.31956057  1
  P  P6  1  0.92353553  0.76194980  0.08962060  1
  P  P7  1  0.42353553  0.23805020  0.91037940  1
  O  O0  1  0.50236678  0.28826373  0.78680350  1
  O  O1  1  0.81459339  0.83505046  0.15980945  1
  O  O2  1  0.39442709  0.41272096  0.00062744  1
  O  O3  1  0.89442709  0.58727904  -0.00062744  1
  O  O4  1  0.56697412  0.75334789  0.22833532  1
  O  O5  1  0.06697412  0.24665211  0.77166468  1
  O  O6  1  0.39130191  0.57923440  0.31047601  1
  O  O7  1  0.89130191  0.42076560  0.68952399  1
  O  O8  1  0.37267785  0.23107097  0.48940147  1
  O  O9  1  0.87267785  0.76892903  0.51059853  1
  O  O10  1  0.23807240  0.73527364  0.01552045  1
  O  O11  1  0.73807240  0.26472636  0.98447955  1
  O  O12  1  0.47297588  0.08221520  0.00726191  1
  O  O13  1  0.97297588  0.91778480  0.99273809  1
  O  O14  1  0.31459339  0.16494954  0.84019055  1
  O  O15  1  0.13318221  0.04450706  0.29413105  1
  O  O16  1  0.48080895  0.72916089  0.77427417  1
  O  O17  1  0.98080895  0.27083911  0.22572583  1
  O  O18  1  0.67810827  0.61361848  0.71212286  1
  O  O19  1  0.17810827  0.38638152  0.28787714  1
  O  O20  1  0.63318221  0.95549294  0.70586895  1
  O  O21  1  0.38350827  0.92105341  0.26157661  1
  O  O22  1  0.63628470  0.77160920  0.94426788  1
  O  O23  1  0.13628470  0.22839080  0.05573212  1
  O  O24  1  0.58976201  0.29004492  0.25050760  1
  O  O25  1  0.08976201  0.70995508  0.74949240  1
  O  O26  1  0.73541301  0.09634947  0.37389628  1
  O  O27  1  0.23541301  0.90365053  0.62610372  1
  O  O28  1  0.75685900  0.45772780  0.34280398  1
  O  O29  1  0.25685900  0.54227220  0.65719602  1
  O  O30  1  0.61748276  0.32783047  0.51642339  1
  O  O31  1  0.11748276  0.67216953  0.48357661  1
  O  O32  1  0.99596542  0.21112320  0.52550039  1
  O  O33  1  0.49596542  0.78887680  0.47449961  1
  O  O34  1  0.88350827  0.07894659  0.73842339  1
  O  O35  1  0.00236678  0.71173627  0.21319650  1
loop_
_geom_bond_atom_site_label_1
_geom_bond_atom_site_label_2
_geom_bond_distance
_geom_bond_site_symmetry_2
Ca0 O10 2.198943 1_555
Ca0 O16 2.371336 1_554
Ca0 O2 2.395973 1_555
Ca0 O12 2.400626 1_565
Ca0 O22 2.646131 1_554
Ca0 O4 2.668410 1_555
Ca0 O21 2.684075 1_555
Ca1 O9 2.215968 1_555
Ca1 O28 2.400405 1_555
Ca1 O35 2.404129 1_655
Ca1 O31 2.417401 1_655
Ca1 O32 2.434947 1_555
Ca1 O17 2.495136 1_555
Ca1 O7 2.776743 1_555
Ca2 O8 2.171994 1_555
Ca2 O33 2.339855 1_545
Ca2 O16 2.426158 1_545
Ca2 O27 2.459654 1_545
Ca2 O20 2.530807 1_545
Ca2 O0 2.558881 1_555
Ca2 O14 2.610956 1_555
Ca3 O9 2.171994 1_555
Ca3 O32 2.339855 1_565
Ca3 O17 2.426158 1_565
Ca3 O26 2.459654 1_565
Ca3 O15 2.530807 1_665
Ca3 O35 2.558881 1_655
Ca3 O1 2.610956 1_555
Ca4 O8 2.215968 1_555
Ca4 O29 2.400405 1_555
Ca4 O0 2.404129 1_555
Ca4 O30 2.417401 1_555
Ca4 O33 2.434947 1_555
Ca4 O16 2.495136 1_555
Ca4 O6 2.776743 1_555
Ca5 O11 2.198943 1_555
Ca5 O17 2.371336 1_556
Ca5 O3 2.395973 1_556
Ca5 O13 2.400626 1_545
Ca5 O23 2.646131 1_656
Ca5 O5 2.668410 1_655
Ca5 O34 2.684075 1_555
Ca6 O8 2.230616 1_555
Ca6 O6 2.314178 1_555
Ca6 O21 2.366964 1_545
Ca6 O24 2.376140 1_555
Ca6 O2 2.617593 1_555
Ca6 O19 2.723704 1_555
Ca6 O12 2.831969 1_555
Ca7 O9 2.230616 1_555
Ca7 O7 2.314178 1_555
Ca7 O34 2.366964 1_565
Ca7 O25 2.376140 1_655
Ca7 O3 2.617593 1_556
Ca7 O18 2.723704 1_555
Ca7 O13 2.831969 1_555
Ca8 O10 2.284999 1_555
Ca8 O15 2.381813 1_565
Ca8 O35 2.400472 1_555
Ca8 O31 2.421677 1_555
Ca8 O19 2.441208 1_555
Ca8 O21 2.564333 1_555
Ca8 O6 2.567223 1_555
Ca9 O11 2.284999 1_555
Ca9 O20 2.381813 1_545
Ca9 O0 2.400472 1_555
Ca9 O30 2.421677 1_555
Ca9 O18 2.441208 1_555
Ca9 O34 2.564333 1_555
Ca9 O7 2.567223 1_555
Ca10 O8 2.142610 1_555
Ca10 O32 2.398917 1_455
Ca10 O27 2.490357 1_545
Ca10 O19 2.538999 1_555
Ca10 O29 2.603878 1_555
Ca10 O15 2.714485 1_555
Ca10 O5 2.749171 1_555
Ca11 O9 2.142610 1_555
Ca11 O33 2.398917 1_555
Ca11 O26 2.490357 1_565
Ca11 O18 2.538999 1_555
Ca11 O28 2.603878 1_555
Ca11 O20 2.714485 1_555
Ca11 O4 2.749171 1_555
Ca12 O10 2.246201 1_556
Ca12 O23 2.362260 1_556
Ca12 O29 2.406291 1_555
Ca12 O2 2.528273 1_556
Ca12 O5 2.533601 1_555
Ca12 O25 2.559904 1_555
Ca12 O14 2.570645 1_555
Ca13 O11 2.246201 1_554
Ca13 O22 2.362260 1_554
Ca13 O28 2.406291 1_555
Ca13 O3 2.528273 1_555
Ca13 O4 2.533601 1_555
Ca13 O24 2.559904 1_555
Ca13 O1 2.570645 1_555
Ca14 O10 2.211419 1_556
Ca14 O14 2.387314 1_565
Ca14 O25 2.408541 1_555
Ca14 O13 2.410605 1_455
Ca14 O23 2.416779 1_566
Ca14 O5 2.490185 1_565
Ca14 O27 2.731275 1_555
Ca15 O11 2.211419 1_554
Ca15 O1 2.387314 1_545
Ca15 O24 2.408541 1_555
Ca15 O12 2.410605 1_555
Ca15 O22 2.416779 1_544
Ca15 O4 2.490185 1_545
Ca15 O26 2.731275 1_555
O0 P7 1.535952 1_555
O1 P6 1.550794 1_555
O2 P7 1.541125 1_554
O3 P6 1.541125 1_555
O4 P5 1.550093 1_555
O5 P4 1.550093 1_455
O6 P5 1.527446 1_555
O7 P4 1.527446 1_555
O12 P7 1.532193 1_554
O13 P6 1.532193 1_556
O14 P7 1.550794 1_555
O15 P1 1.535499 1_555
O16 P0 1.553630 1_555
O17 P1 1.553630 1_655
O18 P0 1.532396 1_555
O19 P1 1.532396 1_555
O20 P0 1.535499 1_555
O21 P5 1.524145 1_555
O22 P0 1.537070 1_555
O23 P1 1.537070 1_555
O24 P2 1.553476 1_555
O25 P3 1.553476 1_555
O26 P2 1.543940 1_555
O27 P3 1.543940 1_555
O28 P2 1.557254 1_555
O29 P3 1.557254 1_555
O30 P2 1.520663 1_555
O30 O8 3.013606 1_555
O31 P3 1.520663 1_555
O31 O9 3.013606 1_455
O32 P4 1.539765 1_555
O33 P5 1.539765 1_555
O34 P4 1.524145 1_555
O35 P6 1.535952 1_455
