# generated using pymatgen
data_CsLi2I3
_symmetry_space_group_name_H-M   'P 1'
_cell_length_a   9.19060956
_cell_length_b   9.19060956
_cell_length_c   21.63142096
_cell_angle_alpha   90.00000000
_cell_angle_beta   90.00000000
_cell_angle_gamma   90.00000000
_symmetry_Int_Tables_number   1
_chemical_formula_structural   CsLi2I3
_chemical_formula_sum   'Cs8 Li16 I24'
_cell_volume   1827.14781201
_cell_formula_units_Z   8
loop_
 _symmetry_equiv_pos_site_id
 _symmetry_equiv_pos_as_xyz
  1  'x, y, z'
loop_
 _atom_site_type_symbol
 _atom_site_label
 _atom_site_symmetry_multiplicity
 _atom_site_fract_x
 _atom_site_fract_y
 _atom_site_fract_z
 _atom_site_occupancy
  Cs  Cs0_0  1  0.25000000  0.25000000  0.25000000  1
  Cs  Cs0_1  1  0.25000000  0.25000000  0.75000000  1
  Cs  Cs0_2  1  0.25000000  0.75000000  0.25000000  1
  Cs  Cs0_3  1  0.25000000  0.75000000  0.75000000  1
  Cs  Cs0_4  1  0.75000000  0.25000000  0.25000000  1
  Cs  Cs0_5  1  0.75000000  0.25000000  0.75000000  1
  Cs  Cs0_6  1  0.75000000  0.75000000  0.25000000  1
  Cs  Cs0_7  1  0.75000000  0.75000000  0.75000000  1
  Li  Li0_0  1  0.25000000  0.00000000  0.07165302  1
  Li  Li0_1  1  0.25000000  0.00000000  0.57165302  1
  Li  Li0_2  1  0.25000000  0.50000000  0.07165302  1
  Li  Li0_3  1  0.25000000  0.50000000  0.57165302  1
  Li  Li0_4  1  0.75000000  0.00000000  0.07165302  1
  Li  Li0_5  1  0.75000000  0.00000000  0.57165302  1
  Li  Li0_6  1  0.75000000  0.50000000  0.07165302  1
  Li  Li0_7  1  0.75000000  0.50000000  0.57165302  1
  Li  Li1_0  1  0.00000000  0.25000000  0.42834697  1
  Li  Li1_1  1  0.00000000  0.25000000  0.92834697  1
  Li  Li1_2  1  0.00000000  0.75000000  0.42834697  1
  Li  Li1_3  1  0.00000000  0.75000000  0.92834697  1
  Li  Li1_4  1  0.50000000  0.25000000  0.42834697  1
  Li  Li1_5  1  0.50000000  0.25000000  0.92834697  1
  Li  Li1_6  1  0.50000000  0.75000000  0.42834697  1
  Li  Li1_7  1  0.50000000  0.75000000  0.92834697  1
  I  I0_0  1  0.00000000  0.00000000  0.14666923  1
  I  I0_1  1  0.00000000  0.00000000  0.64666923  1
  I  I0_2  1  0.00000000  0.50000000  0.14666923  1
  I  I0_3  1  0.00000000  0.50000000  0.64666923  1
  I  I0_4  1  0.50000000  0.00000000  0.14666923  1
  I  I0_5  1  0.50000000  0.00000000  0.64666923  1
  I  I0_6  1  0.50000000  0.50000000  0.14666923  1
  I  I0_7  1  0.50000000  0.50000000  0.64666923  1
  I  I1_0  1  0.00000000  0.00000000  0.35333077  1
  I  I1_1  1  0.00000000  0.00000000  0.85333077  1
  I  I1_2  1  0.00000000  0.50000000  0.35333077  1
  I  I1_3  1  0.00000000  0.50000000  0.85333077  1
  I  I1_4  1  0.50000000  0.00000000  0.35333077  1
  I  I1_5  1  0.50000000  0.00000000  0.85333077  1
  I  I1_6  1  0.50000000  0.50000000  0.35333077  1
  I  I1_7  1  0.50000000  0.50000000  0.85333077  1
  I  I2_0  1  0.25000000  0.25000000  0.00000000  1
  I  I2_1  1  0.25000000  0.25000000  0.50000000  1
  I  I2_2  1  0.25000000  0.75000000  0.00000000  1
  I  I2_3  1  0.25000000  0.75000000  0.50000000  1
  I  I2_4  1  0.75000000  0.25000000  0.00000000  1
  I  I2_5  1  0.75000000  0.25000000  0.50000000  1
  I  I2_6  1  0.75000000  0.75000000  0.00000000  1
  I  I2_7  1  0.75000000  0.75000000  0.50000000  1
loop_
_geom_bond_atom_site_label_1
_geom_bond_atom_site_label_2
_geom_bond_distance
_geom_bond_site_symmetry_2
Cs0_0 I0_2 3.943919 1_555
Cs0_0 I0_4 3.943919 1_555
Cs0_0 I0_6 3.943919 1_555
Cs0_0 I0_0 3.943919 1_555
Cs0_0 I1_4 3.943919 1_555
Cs0_0 I1_2 3.943919 1_555
Cs0_0 I1_0 3.943919 1_555
Cs0_0 I1_6 3.943919 1_555
Cs0_0 Cs0_4 4.595305 1_555
Cs0_0 Cs0_2 4.595305 1_545
Cs0_0 Cs0_2 4.595305 1_555
Cs0_0 Cs0_4 4.595305 1_455
Cs0_1 I1_5 3.943919 1_555
Cs0_1 I0_1 3.943919 1_555
Cs0_1 I0_5 3.943919 1_555
Cs0_1 I0_3 3.943919 1_555
Cs0_1 I1_1 3.943919 1_555
Cs0_1 I1_3 3.943919 1_555
Cs0_1 I0_7 3.943919 1_555
Cs0_1 I1_7 3.943919 1_555
Cs0_1 Cs0_5 4.595305 1_555
Cs0_1 Cs0_3 4.595305 1_545
Cs0_1 Cs0_3 4.595305 1_555
Cs0_1 Cs0_5 4.595305 1_455
Cs0_2 I0_0 3.943919 1_565
Cs0_2 I0_2 3.943919 1_555
Cs0_2 I0_4 3.943919 1_565
Cs0_2 I0_6 3.943919 1_555
Cs0_2 I1_0 3.943919 1_565
Cs0_2 I1_2 3.943919 1_555
Cs0_2 I1_4 3.943919 1_565
Cs0_2 I1_6 3.943919 1_555
Cs0_2 Cs0_6 4.595305 1_455
Cs0_2 Cs0_6 4.595305 1_555
Cs0_3 I0_5 3.943919 1_565
Cs0_3 I1_1 3.943919 1_565
Cs0_3 I1_5 3.943919 1_565
Cs0_3 I0_3 3.943919 1_555
Cs0_3 I0_7 3.943919 1_555
Cs0_3 I1_3 3.943919 1_555
Cs0_3 I0_1 3.943919 1_565
Cs0_3 I1_7 3.943919 1_555
Cs0_3 Cs0_7 4.595305 1_455
Cs0_3 Cs0_7 4.595305 1_555
Cs0_4 I0_4 3.943919 1_555
Cs0_4 I0_6 3.943919 1_555
Cs0_4 I0_2 3.943919 1_655
Cs0_4 I0_0 3.943919 1_655
Cs0_4 I1_4 3.943919 1_555
Cs0_4 I1_2 3.943919 1_655
Cs0_4 I1_6 3.943919 1_555
Cs0_4 I1_0 3.943919 1_655
Cs0_4 Cs0_6 4.595305 1_545
Cs0_4 Cs0_6 4.595305 1_555
Cs0_5 I1_5 3.943919 1_555
Cs0_5 I0_3 3.943919 1_655
Cs0_5 I0_5 3.943919 1_555
Cs0_5 I1_1 3.943919 1_655
Cs0_5 I0_7 3.943919 1_555
Cs0_5 I1_3 3.943919 1_655
Cs0_5 I0_1 3.943919 1_655
Cs0_5 I1_7 3.943919 1_555
Cs0_5 Cs0_7 4.595305 1_545
Cs0_5 Cs0_7 4.595305 1_555
Cs0_6 I0_4 3.943919 1_565
Cs0_6 I0_6 3.943919 1_555
Cs0_6 I0_0 3.943919 1_665
Cs0_6 I0_2 3.943919 1_655
Cs0_6 I1_2 3.943919 1_655
Cs0_6 I1_0 3.943919 1_665
Cs0_6 I1_4 3.943919 1_565
Cs0_6 I1_6 3.943919 1_555
Cs0_7 I0_1 3.943919 1_665
Cs0_7 I0_3 3.943919 1_655
Cs0_7 I0_5 3.943919 1_565
Cs0_7 I1_5 3.943919 1_565
Cs0_7 I1_1 3.943919 1_665
Cs0_7 I0_7 3.943919 1_555
Cs0_7 I1_3 3.943919 1_655
Cs0_7 I1_7 3.943919 1_555
I0_0 Li0_0 2.812896 1_555
I0_0 Li0_4 2.812896 1_455
I0_1 Li0_1 2.812896 1_555
I0_1 Li0_5 2.812896 1_455
I0_2 Li0_2 2.812896 1_555
I0_2 Li0_6 2.812896 1_455
I0_3 Li0_3 2.812896 1_555
I0_3 Li0_7 2.812896 1_455
I0_4 Li0_0 2.812896 1_555
I0_4 Li0_4 2.812896 1_555
I0_5 Li0_1 2.812896 1_555
I0_5 Li0_5 2.812896 1_555
I0_6 Li0_2 2.812896 1_555
I0_6 Li0_6 2.812896 1_555
I0_7 Li0_7 2.812896 1_555
I0_7 Li0_3 2.812896 1_555
I1_0 Li1_2 2.812896 1_545
I1_0 Li1_0 2.812896 1_555
I1_1 Li1_3 2.812896 1_545
I1_1 Li1_1 2.812896 1_555
I1_2 Li1_2 2.812896 1_555
I1_2 Li1_0 2.812896 1_555
I1_3 Li1_3 2.812896 1_555
I1_3 Li1_1 2.812896 1_555
I1_4 Li1_4 2.812896 1_555
I1_4 Li1_6 2.812896 1_545
I1_5 Li1_7 2.812896 1_545
I1_5 Li1_5 2.812896 1_555
I1_6 Li1_4 2.812896 1_555
I1_6 Li1_6 2.812896 1_555
I1_7 Li1_5 2.812896 1_555
I1_7 Li1_7 2.812896 1_555
I2_0 Li0_0 2.771565 1_555
I2_0 Li0_2 2.771565 1_555
I2_0 Li1_5 2.771565 1_554
I2_0 Li1_1 2.771565 1_554
I2_1 Li0_1 2.771565 1_555
I2_1 Li1_0 2.771565 1_555
I2_1 Li0_3 2.771565 1_555
I2_1 Li1_4 2.771565 1_555
I2_2 Li0_2 2.771565 1_555
I2_2 Li0_0 2.771565 1_565
I2_2 Li1_3 2.771565 1_554
I2_2 Li1_7 2.771565 1_554
I2_3 Li0_1 2.771565 1_565
I2_3 Li1_6 2.771565 1_555
I2_3 Li0_3 2.771565 1_555
I2_3 Li1_2 2.771565 1_555
I2_4 Li0_6 2.771565 1_555
I2_4 Li0_4 2.771565 1_555
I2_4 Li1_5 2.771565 1_554
I2_4 Li1_1 2.771565 1_654
I2_5 Li0_7 2.771565 1_555
I2_5 Li1_4 2.771565 1_555
I2_5 Li1_0 2.771565 1_655
I2_5 Li0_5 2.771565 1_555
I2_6 Li0_4 2.771565 1_565
I2_6 Li0_6 2.771565 1_555
I2_6 Li1_3 2.771565 1_654
I2_6 Li1_7 2.771565 1_554
I2_7 Li0_7 2.771565 1_555
I2_7 Li1_6 2.771565 1_555
I2_7 Li1_2 2.771565 1_655
I2_7 Li0_5 2.771565 1_565
