# generated using pymatgen
data_TeI
_symmetry_space_group_name_H-M   'P 1'
_cell_length_a   8.48262283
_cell_length_b   16.54245628
_cell_length_c   19.93996683
_cell_angle_alpha   86.99092424
_cell_angle_beta   77.68887136
_cell_angle_gamma   75.08163196
_symmetry_Int_Tables_number   1
_chemical_formula_structural   TeI
_chemical_formula_sum   'Te32 I32'
_cell_volume   2641.54921502
_cell_formula_units_Z   32
loop_
 _symmetry_equiv_pos_site_id
 _symmetry_equiv_pos_as_xyz
  1  'x, y, z'
loop_
 _atom_site_type_symbol
 _atom_site_label
 _atom_site_symmetry_multiplicity
 _atom_site_fract_x
 _atom_site_fract_y
 _atom_site_fract_z
 _atom_site_occupancy
  Te  Te0_0  1  0.34897698  0.21137347  0.08932854  1
  Te  Te0_1  1  0.34897698  0.21137347  0.58932854  1
  Te  Te0_2  1  0.34897698  0.71137347  0.08932854  1
  Te  Te0_3  1  0.34897698  0.71137347  0.58932854  1
  Te  Te0_4  1  0.84897698  0.21137347  0.08932854  1
  Te  Te0_5  1  0.84897698  0.21137347  0.58932854  1
  Te  Te0_6  1  0.84897698  0.71137347  0.08932854  1
  Te  Te0_7  1  0.84897698  0.71137347  0.58932854  1
  Te  Te1_0  1  0.04155380  0.33860630  0.07692713  1
  Te  Te1_1  1  0.04155379  0.33860630  0.57692713  1
  Te  Te1_2  1  0.04155380  0.83860630  0.07692713  1
  Te  Te1_3  1  0.04155380  0.83860630  0.57692713  1
  Te  Te1_4  1  0.54155380  0.33860630  0.07692713  1
  Te  Te1_5  1  0.54155380  0.33860630  0.57692713  1
  Te  Te1_6  1  0.54155380  0.83860630  0.07692713  1
  Te  Te1_7  1  0.54155380  0.83860630  0.57692713  1
  Te  Te2_0  1  0.45844620  0.16139370  0.42307287  1
  Te  Te2_1  1  0.45844621  0.16139370  0.92307287  1
  Te  Te2_2  1  0.45844620  0.66139370  0.42307287  1
  Te  Te2_3  1  0.45844620  0.66139370  0.92307287  1
  Te  Te2_4  1  0.95844620  0.16139370  0.42307287  1
  Te  Te2_5  1  0.95844620  0.16139370  0.92307287  1
  Te  Te2_6  1  0.95844620  0.66139370  0.42307287  1
  Te  Te2_7  1  0.95844620  0.66139370  0.92307287  1
  Te  Te3_0  1  0.15102302  0.28862653  0.41067146  1
  Te  Te3_1  1  0.15102302  0.28862653  0.91067146  1
  Te  Te3_2  1  0.15102302  0.78862653  0.41067146  1
  Te  Te3_3  1  0.15102302  0.78862653  0.91067146  1
  Te  Te3_4  1  0.65102302  0.28862653  0.41067146  1
  Te  Te3_5  1  0.65102302  0.28862653  0.91067146  1
  Te  Te3_6  1  0.65102302  0.78862653  0.41067146  1
  Te  Te3_7  1  0.65102302  0.78862653  0.91067146  1
  I  I0_0  1  0.33335329  0.43140114  0.40362508  1
  I  I0_1  1  0.33335329  0.43140114  0.90362508  1
  I  I0_2  1  0.33335329  0.93140114  0.40362508  1
  I  I0_3  1  0.33335329  0.93140114  0.90362508  1
  I  I0_4  1  0.83335329  0.43140114  0.40362508  1
  I  I0_5  1  0.83335329  0.43140114  0.90362508  1
  I  I0_6  1  0.83335329  0.93140114  0.40362508  1
  I  I0_7  1  0.83335329  0.93140114  0.90362508  1
  I  I1_0  1  0.05026090  0.11533283  0.28530222  1
  I  I1_1  1  0.05026090  0.11533283  0.78530222  1
  I  I1_2  1  0.05026090  0.61533283  0.28530222  1
  I  I1_3  1  0.05026090  0.61533283  0.78530222  1
  I  I1_4  1  0.55026090  0.11533283  0.28530223  1
  I  I1_5  1  0.55026090  0.11533283  0.78530222  1
  I  I1_6  1  0.55026090  0.61533282  0.28530222  1
  I  I1_7  1  0.55026090  0.61533283  0.78530222  1
  I  I2_0  1  0.44973910  0.38466718  0.21469777  1
  I  I2_1  1  0.44973910  0.38466718  0.71469777  1
  I  I2_2  1  0.44973910  0.88466718  0.21469777  1
  I  I2_3  1  0.44973910  0.88466718  0.71469777  1
  I  I2_4  1  0.94973910  0.38466718  0.21469777  1
  I  I2_5  1  0.94973910  0.38466718  0.71469777  1
  I  I2_6  1  0.94973910  0.88466718  0.21469777  1
  I  I2_7  1  0.94973910  0.88466718  0.71469777  1
  I  I3_0  1  0.16664671  0.06859886  0.09637492  1
  I  I3_1  1  0.16664671  0.06859886  0.59637491  1
  I  I3_2  1  0.16664671  0.56859887  0.09637491  1
  I  I3_3  1  0.16664671  0.56859886  0.59637491  1
  I  I3_4  1  0.66664671  0.06859886  0.09637491  1
  I  I3_5  1  0.66664671  0.06859886  0.59637491  1
  I  I3_6  1  0.66664671  0.56859887  0.09637491  1
  I  I3_7  1  0.66664671  0.56859887  0.59637491  1
loop_
_geom_bond_atom_site_label_1
_geom_bond_atom_site_label_2
_geom_bond_distance
_geom_bond_site_symmetry_2
Te0_0 Te1_0 2.947169 1_555
Te0_0 Te1_4 2.950082 1_555
Te0_0 Te2_1 3.334017 1_554
Te0_1 Te1_1 2.947169 1_555
Te0_1 Te1_5 2.950082 1_555
Te0_1 Te2_0 3.334017 1_555
Te0_2 Te1_2 2.947169 1_555
Te0_2 Te1_6 2.950082 1_555
Te0_2 Te2_3 3.334017 1_554
Te0_3 Te1_3 2.947169 1_555
Te0_3 Te1_7 2.950082 1_555
Te0_3 Te2_2 3.334017 1_555
Te0_4 Te1_4 2.947169 1_555
Te0_4 Te1_0 2.950082 1_655
Te0_4 Te2_5 3.334017 1_554
Te0_5 Te1_5 2.947169 1_555
Te0_5 Te1_1 2.950082 1_655
Te0_5 Te2_4 3.334017 1_555
Te0_6 Te1_6 2.947169 1_555
Te0_6 Te1_2 2.950082 1_655
Te0_6 Te2_7 3.334017 1_554
Te0_7 Te1_7 2.947169 1_555
Te0_7 Te1_3 2.950082 1_655
Te0_7 Te2_6 3.334017 1_555
Te1_0 Te3_1 3.334017 1_554
Te1_1 Te3_0 3.334017 1_555
Te1_2 Te3_3 3.334017 1_554
Te1_3 Te3_2 3.334017 1_555
Te1_4 Te3_5 3.334017 1_554
Te1_5 Te3_4 3.334017 1_555
Te1_6 Te3_7 3.334017 1_554
Te1_7 Te3_6 3.334017 1_555
Te2_0 Te3_0 2.947169 1_555
Te2_0 Te3_4 2.950082 1_555
Te2_1 Te3_1 2.947169 1_555
Te2_1 Te3_5 2.950082 1_555
Te2_2 Te3_2 2.947169 1_555
Te2_2 Te3_6 2.950082 1_555
Te2_3 Te3_3 2.947169 1_555
Te2_3 Te3_7 2.950082 1_555
Te2_4 Te3_4 2.947169 1_555
Te2_4 Te3_0 2.950082 1_655
Te2_5 Te3_5 2.947169 1_555
Te2_5 Te3_1 2.950082 1_655
Te2_6 Te3_6 2.947169 1_555
Te2_6 Te3_2 2.950082 1_655
Te2_7 Te3_7 2.947169 1_555
Te2_7 Te3_3 2.950082 1_655
I0_0 Te3_4 3.115925 1_555
I0_0 Te3_0 3.121451 1_555
I0_0 I2_0 3.753791 1_555
I0_0 I0_4 4.241311 1_455
I0_0 I0_4 4.241311 1_555
I0_0 Te1_5 4.250486 1_555
I0_0 Te2_6 4.258927 1_455
I0_0 Te2_2 4.261537 1_555
I0_0 Te1_1 4.263385 1_555
I0_0 I1_6 4.299707 1_555
I0_0 I1_2 4.300157 1_555
I0_0 I3_3 4.343760 1_555
I0_1 Te3_5 3.115925 1_555
I0_1 Te3_1 3.121451 1_555
I0_1 I2_1 3.753791 1_555
I0_1 I0_5 4.241311 1_555
I0_1 I0_5 4.241311 1_455
I0_1 Te1_4 4.250486 1_556
I0_1 Te2_7 4.258927 1_455
I0_1 Te2_3 4.261537 1_555
I0_1 Te1_0 4.263385 1_556
I0_1 I1_7 4.299707 1_555
I0_1 I1_3 4.300157 1_555
I0_1 I3_2 4.343760 1_556
I0_2 Te3_6 3.115925 1_555
I0_2 Te3_2 3.121451 1_555
I0_2 I2_2 3.753791 1_555
I0_2 I0_6 4.241311 1_455
I0_2 I0_6 4.241311 1_555
I0_2 Te1_7 4.250486 1_555
I0_2 Te2_4 4.258927 1_465
I0_2 Te2_0 4.261537 1_565
I0_2 Te1_3 4.263385 1_555
I0_2 I1_4 4.299707 1_565
I0_2 I1_0 4.300157 1_565
I0_2 I3_1 4.343760 1_565
I0_3 Te3_7 3.115925 1_555
I0_3 Te3_3 3.121451 1_555
I0_3 I2_3 3.753791 1_555
I0_3 I0_7 4.241311 1_555
I0_3 I0_7 4.241311 1_455
I0_3 Te1_6 4.250486 1_556
I0_3 Te2_5 4.258927 1_465
I0_3 Te2_1 4.261537 1_565
I0_3 Te1_2 4.263385 1_556
I0_3 I1_5 4.299707 1_565
I0_3 I1_1 4.300157 1_565
I0_3 I3_0 4.343760 1_566
I0_4 Te3_0 3.115925 1_655
I0_4 Te3_4 3.121451 1_555
I0_4 I2_4 3.753791 1_555
I0_4 Te1_1 4.250486 1_655
I0_4 Te2_2 4.258927 1_555
I0_4 Te2_6 4.261537 1_555
I0_4 Te1_5 4.263385 1_555
I0_4 I1_2 4.299707 1_655
I0_4 I1_6 4.300157 1_555
I0_4 I3_7 4.343760 1_555
I0_5 Te3_1 3.115925 1_655
I0_5 Te3_5 3.121451 1_555
I0_5 I2_5 3.753791 1_555
I0_5 Te1_0 4.250486 1_656
I0_5 Te2_3 4.258927 1_555
I0_5 Te2_7 4.261537 1_555
I0_5 Te1_4 4.263385 1_556
I0_5 I1_3 4.299707 1_655
I0_5 I1_7 4.300157 1_555
I0_5 I3_6 4.343760 1_556
I0_6 Te3_2 3.115925 1_655
I0_6 Te3_6 3.121451 1_555
I0_6 I2_6 3.753791 1_555
I0_6 Te1_3 4.250486 1_655
I0_6 Te2_0 4.258927 1_565
I0_6 Te2_4 4.261537 1_565
I0_6 Te1_7 4.263385 1_555
I0_6 I1_0 4.299707 1_665
I0_6 I1_4 4.300157 1_565
I0_6 I3_5 4.343760 1_565
I0_7 Te3_3 3.115925 1_655
I0_7 Te3_7 3.121451 1_555
I0_7 I2_7 3.753791 1_555
I0_7 Te1_2 4.250486 1_656
I0_7 Te2_1 4.258927 1_565
I0_7 Te2_5 4.261537 1_565
I0_7 Te1_6 4.263385 1_556
I0_7 I1_1 4.299707 1_665
I0_7 I1_5 4.300157 1_565
I0_7 I3_4 4.343760 1_566
I1_0 Te2_4 2.781325 1_455
I1_0 I3_0 3.753791 1_555
I1_1 Te2_5 2.781325 1_455
I1_1 I3_1 3.753791 1_555
I1_2 Te2_6 2.781325 1_455
I1_2 I3_2 3.753791 1_555
I1_3 Te2_7 2.781325 1_455
I1_3 I3_3 3.753791 1_555
I1_4 Te2_0 2.781325 1_555
I1_4 I3_4 3.753791 1_555
I1_5 Te2_1 2.781325 1_555
I1_5 I3_5 3.753791 1_555
I1_6 Te2_2 2.781325 1_555
I1_6 I3_6 3.753791 1_555
I1_7 Te2_3 2.781325 1_555
I1_7 I3_7 3.753791 1_555
I2_0 Te1_4 2.781325 1_555
I2_0 I3_6 4.299707 1_555
I2_0 I3_2 4.300157 1_555
I2_1 Te1_5 2.781325 1_555
I2_1 I3_7 4.299707 1_555
I2_1 I3_3 4.300157 1_555
I2_2 Te1_6 2.781325 1_555
I2_2 I3_4 4.299707 1_565
I2_2 I3_0 4.300157 1_565
I2_3 Te1_7 2.781325 1_555
I2_3 I3_5 4.299707 1_565
I2_3 I3_1 4.300157 1_565
I2_4 Te1_0 2.781325 1_655
I2_4 I3_2 4.299707 1_655
I2_4 I3_6 4.300157 1_555
I2_5 Te1_1 2.781325 1_655
I2_5 I3_3 4.299707 1_655
I2_5 I3_7 4.300157 1_555
I2_6 Te1_2 2.781325 1_655
I2_6 I3_0 4.299707 1_665
I2_6 I3_4 4.300157 1_565
I2_7 Te1_3 2.781325 1_655
I2_7 I3_1 4.299707 1_665
I2_7 I3_5 4.300157 1_565
I3_0 Te0_4 3.115925 1_455
I3_0 Te0_0 3.121451 1_555
I3_0 I3_4 4.241311 1_455
I3_0 I3_4 4.241311 1_555
I3_0 Te2_5 4.250486 1_454
I3_0 Te1_6 4.258927 1_545
I3_0 Te1_2 4.261537 1_545
I3_0 Te2_1 4.263385 1_554
I3_1 Te0_5 3.115925 1_455
I3_1 Te0_1 3.121451 1_555
I3_1 I3_5 4.241311 1_455
I3_1 I3_5 4.241311 1_555
I3_1 Te2_4 4.250486 1_455
I3_1 Te1_7 4.258927 1_545
I3_1 Te1_3 4.261537 1_545
I3_1 Te2_0 4.263385 1_555
I3_2 Te0_6 3.115925 1_455
I3_2 Te0_2 3.121451 1_555
I3_2 I3_6 4.241311 1_455
I3_2 I3_6 4.241311 1_555
I3_2 Te2_7 4.250486 1_454
I3_2 Te1_4 4.258927 1_555
I3_2 Te1_0 4.261537 1_555
I3_2 Te2_3 4.263385 1_554
I3_3 Te0_7 3.115925 1_455
I3_3 Te0_3 3.121451 1_555
I3_3 I3_7 4.241311 1_455
I3_3 I3_7 4.241311 1_555
I3_3 Te2_6 4.250486 1_455
I3_3 Te1_5 4.258927 1_555
I3_3 Te1_1 4.261537 1_555
I3_3 Te2_2 4.263385 1_555
I3_4 Te0_0 3.115925 1_555
I3_4 Te0_4 3.121451 1_555
I3_4 Te2_1 4.250486 1_554
I3_4 Te1_2 4.258927 1_645
I3_4 Te1_6 4.261537 1_545
I3_4 Te2_5 4.263385 1_554
I3_5 Te0_1 3.115925 1_555
I3_5 Te0_5 3.121451 1_555
I3_5 Te2_0 4.250486 1_555
I3_5 Te1_3 4.258927 1_645
I3_5 Te1_7 4.261537 1_545
I3_5 Te2_4 4.263385 1_555
I3_6 Te0_2 3.115925 1_555
I3_6 Te0_6 3.121451 1_555
I3_6 Te2_3 4.250486 1_554
I3_6 Te1_0 4.258927 1_655
I3_6 Te1_4 4.261537 1_555
I3_6 Te2_7 4.263385 1_554
I3_7 Te0_3 3.115925 1_555
I3_7 Te0_7 3.121451 1_555
I3_7 Te2_2 4.250486 1_555
I3_7 Te1_1 4.258927 1_655
I3_7 Te1_5 4.261537 1_555
I3_7 Te2_6 4.263385 1_555
