# generated using pymatgen
data_RbSn2Br5
_symmetry_space_group_name_H-M   'P 1'
_cell_length_a   8.47238662
_cell_length_b   8.47238715
_cell_length_c   9.63640758
_cell_angle_alpha   116.07855136
_cell_angle_beta   116.07854791
_cell_angle_gamma   89.99999655
_symmetry_Int_Tables_number   1
_chemical_formula_structural   RbSn2Br5
_chemical_formula_sum   'Rb2 Sn4 Br10'
_cell_volume   541.79312067
_cell_formula_units_Z   2
loop_
 _symmetry_equiv_pos_site_id
 _symmetry_equiv_pos_as_xyz
  1  'x, y, z'
loop_
 _atom_site_type_symbol
 _atom_site_label
 _atom_site_symmetry_multiplicity
 _atom_site_fract_x
 _atom_site_fract_y
 _atom_site_fract_z
 _atom_site_occupancy
  Rb  Rb0  1  0.25000000  0.25000000  0.50000000  1
  Rb  Rb1  1  0.75000000  0.75000000  0.50000000  1
  Sn  Sn0  1  0.31850009  0.18149991  0.00000000  1
  Sn  Sn1  1  0.81850009  0.31850009  0.00000000  1
  Sn  Sn2  1  0.68149991  0.81850009  -0.00000000  1
  Sn  Sn3  1  0.18149991  0.68149991  -0.00000000  1
  Br  Br0  1  0.29587023  0.46969437  0.26556460  1
  Br  Br1  1  0.79587023  0.29587023  0.26556460  1
  Br  Br2  1  0.70412977  0.53030563  0.73443540  1
  Br  Br3  1  0.96969437  0.79587023  0.26556460  1
  Br  Br4  1  0.46969437  0.96969437  0.26556460  1
  Br  Br5  1  0.20412977  0.70412977  0.73443540  1
  Br  Br6  1  0.03030563  0.20412977  0.73443540  1
  Br  Br7  1  0.00000000  -0.00000000  0.00000000  1
  Br  Br8  1  0.53030563  0.03030563  0.73443540  1
  Br  Br9  1  0.50000000  0.50000000  0.00000000  1
loop_
_geom_bond_atom_site_label_1
_geom_bond_atom_site_label_2
_geom_bond_distance
_geom_bond_site_symmetry_2
Br0 Sn0 2.735913 1_555
Br0 Sn3 3.544780 1_555
Br0 Sn1 3.544781 1_455
Br0 Rb0 3.631549 1_555
Br0 Rb1 3.631549 1_555
Br0 Br9 3.751647 1_555
Br0 Br7 3.751648 1_555
Br1 Sn1 2.735913 1_555
Br1 Sn0 3.544781 1_555
Br1 Sn2 3.544781 1_545
Br1 Rb0 3.631549 1_655
Br1 Rb1 3.631549 1_555
Br1 Br7 3.751647 1_655
Br1 Br9 3.751648 1_555
Br2 Sn2 2.735913 1_556
Br2 Sn1 3.544780 1_556
Br2 Sn3 3.544781 1_656
Br2 Rb1 3.631549 1_555
Br2 Rb0 3.631549 1_555
Br2 Br9 3.751647 1_556
Br2 Br7 3.751648 1_666
Br3 Sn2 2.735914 1_555
Br3 Sn3 3.544780 1_655
Br3 Sn1 3.544781 1_555
Br3 Rb1 3.631549 1_555
Br3 Rb0 3.631549 1_665
Br3 Br7 3.751648 1_665
Br3 Br9 3.751648 1_555
Br4 Sn3 2.735914 1_555
Br4 Sn2 3.544780 1_555
Br4 Sn0 3.544780 1_565
Br4 Rb0 3.631549 1_565
Br4 Rb1 3.631549 1_555
Br4 Br7 3.751648 1_565
Br4 Br9 3.751648 1_555
Br5 Sn3 2.735913 1_556
Br5 Sn2 3.544781 1_556
Br5 Sn0 3.544781 1_566
Br5 Rb1 3.631549 1_455
Br5 Rb0 3.631549 1_555
Br5 Br7 3.751647 1_566
Br5 Br9 3.751648 1_556
Br6 Sn0 2.735914 1_556
Br6 Sn1 3.544780 1_456
Br6 Sn3 3.544781 1_556
Br6 Rb0 3.631549 1_555
Br6 Rb1 3.631549 1_445
Br6 Br7 3.751648 1_556
Br6 Br9 3.751648 1_556
Br7 Sn1 3.105849 1_455
Br7 Sn3 3.105849 1_545
Br7 Sn0 3.105850 1_555
Br7 Sn2 3.105850 1_445
Br7 Br8 3.751648 1_454
Br7 Rb0 3.773913 1_555
Br7 Rb1 3.773913 1_444
Br8 Sn1 2.735914 1_556
Br8 Sn0 3.544780 1_556
Br8 Sn2 3.544780 1_546
Br8 Rb1 3.631549 1_545
Br8 Rb0 3.631549 1_555
Br8 Br9 3.751648 1_556
Br9 Sn3 3.105849 1_555
Br9 Sn1 3.105849 1_555
Br9 Sn2 3.105850 1_555
Br9 Sn0 3.105850 1_555
Br9 Rb1 3.773913 1_555
Br9 Rb0 3.773913 1_554
