# generated using pymatgen
data_LiB6C
_symmetry_space_group_name_H-M   'P 1'
_cell_length_a   4.69220026
_cell_length_b   5.30065006
_cell_length_c   5.30065020
_cell_angle_alpha   115.74340563
_cell_angle_beta   90.00000000
_cell_angle_gamma   90.00000000
_symmetry_Int_Tables_number   1
_chemical_formula_structural   LiB6C
_chemical_formula_sum   'Li2 B12 C2'
_cell_volume   118.75126325
_cell_formula_units_Z   2
loop_
 _symmetry_equiv_pos_site_id
 _symmetry_equiv_pos_as_xyz
  1  'x, y, z'
loop_
 _atom_site_type_symbol
 _atom_site_label
 _atom_site_symmetry_multiplicity
 _atom_site_fract_x
 _atom_site_fract_y
 _atom_site_fract_z
 _atom_site_occupancy
  Li  Li0  1  0.50000000  0.52631807  0.11339325  1
  Li  Li1  1  0.50000000  0.11339325  0.52631807  1
  B  B0  1  0.81703377  0.25783804  0.25783804  1
  B  B1  1  0.69361145  0.90199112  0.09786558  1
  B  B2  1  0.69361145  0.09786558  0.90199112  1
  B  B3  1  0.18343855  0.74346202  0.74346202  1
  B  B4  1  -0.00000000  0.33267686  0.99370008  1
  B  B5  1  0.30638855  0.09786558  0.90199112  1
  B  B6  1  -0.00000000  0.00776442  0.66948373  1
  B  B7  1  -0.00000000  0.99370008  0.33267686  1
  B  B8  1  0.30638855  0.90199112  0.09786558  1
  B  B9  1  0.18296623  0.25783804  0.25783804  1
  B  B10  1  -0.00000000  0.66948373  0.00776442  1
  B  B11  1  0.81656145  0.74346202  0.74346202  1
  C  C0  1  0.64621923  0.50187604  0.50187604  1
  C  C1  1  0.35378077  0.50187604  0.50187604  1
loop_
_geom_bond_atom_site_label_1
_geom_bond_atom_site_label_2
_geom_bond_distance
_geom_bond_site_symmetry_2
Li0 Li1 2.925363 1_565
Li0 Li1 2.925363 1_554
B0 C0 1.592302 1_555
B0 B9 1.717028 1_655
B0 B1 1.795227 1_545
B0 B2 1.795227 1_554
B0 B7 1.826795 1_645
B0 B4 1.826795 1_654
B0 Li0 2.402276 1_555
B0 Li1 2.402276 1_555
B1 B2 1.758524 1_564
B1 B11 1.787925 1_554
B1 B8 1.816927 1_555
B1 B10 1.817276 1_655
B1 B7 1.823917 1_655
B1 Li0 2.222561 1_555
B1 Li1 2.242334 1_565
B2 B5 1.816927 1_555
B2 B6 1.817276 1_655
B2 B4 1.823917 1_655
B2 Li1 2.222561 1_555
B2 Li0 2.242334 1_556
B3 C1 1.579249 1_555
B3 B5 1.787925 1_565
B3 B8 1.787925 1_556
B3 B6 1.826084 1_565
B4 B5 1.823917 1_555
B4 B9 1.826795 1_556
B4 B6 1.829881 1_555
B4 Li0 2.528747 1_456
B4 Li0 2.528747 1_556
B5 B8 1.758524 1_546
B5 B9 1.795227 1_556
B5 B6 1.817276 1_555
B5 Li1 2.222561 1_555
B5 Li0 2.242334 1_556
B6 B7 1.754201 1_545
B6 Li1 2.600511 1_555
B6 Li1 2.600511 1_455
B7 B8 1.823917 1_555
B7 B9 1.826795 1_565
B7 Li1 2.528747 1_565
B7 Li1 2.528747 1_465
B8 B9 1.795227 1_565
B8 Li0 2.222561 1_555
B8 Li1 2.242334 1_565
B9 C1 1.592302 1_555
B9 Li0 2.402276 1_555
B9 Li1 2.402276 1_555
B10 B4 1.754201 1_554
B10 B8 1.817276 1_555
B10 B11 1.826084 1_454
B10 B3 1.826084 1_554
B10 B7 1.829881 1_555
B10 Li0 2.600511 1_555
B10 Li0 2.600511 1_455
B11 C0 1.579249 1_555
B11 B3 1.721461 1_655
B11 B2 1.787925 1_565
B11 B6 1.826084 1_665
C0 C1 1.372180 1_555
C0 Li1 2.227018 1_555
C0 Li0 2.227018 1_555
C1 Li1 2.227018 1_555
C1 Li0 2.227018 1_555
