# generated using pymatgen
data_Al2NiO4
_symmetry_space_group_name_H-M   'P 1'
_cell_length_a   5.75435552
_cell_length_b   5.75435552
_cell_length_c   18.91255559
_cell_angle_alpha   81.54627071
_cell_angle_beta   81.54627071
_cell_angle_gamma   60.22246487
_symmetry_Int_Tables_number   1
_chemical_formula_structural   Al2NiO4
_chemical_formula_sum   'Al16 Ni8 O32'
_cell_volume   535.64820976
_cell_formula_units_Z   8
loop_
 _symmetry_equiv_pos_site_id
 _symmetry_equiv_pos_as_xyz
  1  'x, y, z'
loop_
 _atom_site_type_symbol
 _atom_site_label
 _atom_site_symmetry_multiplicity
 _atom_site_fract_x
 _atom_site_fract_y
 _atom_site_fract_z
 _atom_site_occupancy
  Al  Al0  1  0.12501200  0.62929200  0.12567300  1
  Al  Al1  1  0.99982200  0.99982200  0.00291900  1
  Al  Al2  1  0.90049000  0.90049000  0.28445000  1
  Al  Al3  1  0.62929200  0.12501200  0.12567300  1
  Al  Al4  1  0.37487700  0.87531100  0.37487400  1
  Al  Al5  1  0.15012800  0.15012800  0.53297400  1
  Al  Al6  1  0.87531100  0.37487700  0.37487400  1
  Al  Al7  1  0.60109700  0.60109700  0.21627800  1
  Al  Al8  1  0.39881400  0.39881400  0.78120400  1
  Al  Al9  1  0.12474700  0.62471300  0.62448300  1
  Al  Al10  1  0.84965000  0.84965000  0.46646200  1
  Al  Al11  1  0.62471300  0.12474700  0.62448300  1
  Al  Al12  1  0.87200700  0.37642900  0.87397500  1
  Al  Al13  1  0.37642900  0.87200700  0.87397500  1
  Al  Al14  1  0.09909800  0.09909800  0.71653900  1
  Al  Al15  1  0.34975700  0.34975700  0.96974500  1
  Ni  Ni0  1  0.65510500  0.65510500  0.03172700  1
  Ni  Ni1  1  0.12520100  0.12520100  0.12585300  1
  Ni  Ni2  1  0.37508900  0.37508900  0.37508000  1
  Ni  Ni3  1  0.25099600  0.25099600  0.24961100  1
  Ni  Ni4  1  0.62495300  0.62495300  0.62462400  1
  Ni  Ni5  1  0.50001500  0.50001500  0.49986900  1
  Ni  Ni6  1  0.87317800  0.87317800  0.87420700  1
  Ni  Ni7  1  0.74885800  0.74885800  0.74998800  1
  O  O0  1  0.27507900  0.81560100  0.06379500  1
  O  O1  1  0.93158600  0.93158600  0.18757900  1
  O  O2  1  0.81560100  0.27507900  0.06379500  1
  O  O3  1  0.83149000  0.83149000  0.06701100  1
  O  O4  1  0.43972500  0.43972500  0.18159100  1
  O  O5  1  0.55168000  0.04915200  0.31696500  1
  O  O6  1  0.32025000  0.32025000  0.06660600  1
  O  O7  1  0.04915200  0.55168000  0.31696500  1
  O  O8  1  0.45399900  0.94796300  0.18308800  1
  O  O9  1  0.18044900  0.18044900  0.43485800  1
  O  O10  1  0.06384800  0.06384800  0.31778300  1
  O  O11  1  0.94796300  0.45399900  0.18308800  1
  O  O12  1  0.68680600  0.68680600  0.43291300  1
  O  O13  1  0.80260700  0.29818900  0.56649200  1
  O  O14  1  0.70145600  0.19760700  0.43362800  1
  O  O15  1  0.56977200  0.56977200  0.31524600  1
  O  O16  1  0.29818900  0.80260700  0.56649200  1
  O  O17  1  0.43011400  0.43011400  0.68331700  1
  O  O18  1  0.31260000  0.31260000  0.56707500  1
  O  O19  1  0.19760700  0.70145600  0.43362800  1
  O  O20  1  0.93620100  0.93620100  0.68301600  1
  O  O21  1  0.05470500  0.54528700  0.81590400  1
  O  O22  1  0.95093700  0.44725000  0.68358200  1
  O  O23  1  0.81948100  0.81948100  0.56528500  1
  O  O24  1  0.54528700  0.05470500  0.81590400  1
  O  O25  1  0.67836000  0.67836000  0.92552900  1
  O  O26  1  0.55788400  0.55788400  0.81628400  1
  O  O27  1  0.44725000  0.95093700  0.68358200  1
  O  O28  1  0.17944100  0.17944100  0.93722700  1
  O  O29  1  0.06880000  0.06880000  0.81586900  1
  O  O30  1  0.18843100  0.70861000  0.93818100  1
  O  O31  1  0.70861000  0.18843100  0.93818100  1
loop_
_geom_bond_atom_site_label_1
_geom_bond_atom_site_label_2
_geom_bond_distance
_geom_bond_site_symmetry_2
Al0 O0 1.875672 1_555
Al0 O11 1.899464 1_455
Al0 O3 1.912305 1_455
Al0 O4 1.962066 1_555
Al0 O6 1.975661 1_555
Al0 O1 1.981935 1_455
Al1 O0 1.862170 1_655
Al1 O2 1.862170 1_565
Al1 O3 1.894027 1_555
Al1 O30 1.972600 1_654
Al1 O31 1.972600 1_564
Al1 O28 1.996542 1_664
Al2 O5 1.795825 1_565
Al2 O7 1.795825 1_655
Al2 O1 1.805429 1_555
Al2 O10 1.841428 1_665
Al3 O2 1.875672 1_555
Al3 O8 1.899464 1_545
Al3 O3 1.912305 1_545
Al3 O4 1.962066 1_555
Al3 O6 1.975661 1_555
Al3 O1 1.981935 1_545
Al4 O5 1.896414 1_565
Al4 O19 1.905164 1_555
Al4 O10 1.959909 1_565
Al4 O15 1.968067 1_555
Al4 O9 1.970542 1_565
Al4 O12 1.974498 1_555
Al5 O16 1.794586 1_545
Al5 O13 1.794586 1_455
Al5 O9 1.828682 1_555
Al5 O18 1.840343 1_555
Al6 O7 1.896414 1_655
Al6 O14 1.905164 1_555
Al6 O10 1.959909 1_655
Al6 O15 1.968067 1_555
Al6 O9 1.970542 1_655
Al6 O12 1.974498 1_555
Al7 O11 1.790023 1_555
Al7 O8 1.790023 1_555
Al7 O4 1.835654 1_555
Al7 O15 1.844521 1_555
Al8 O21 1.784607 1_555
Al8 O24 1.784607 1_555
Al8 O26 1.818024 1_555
Al8 O17 1.824366 1_555
Al9 O16 1.899924 1_555
Al9 O22 1.908567 1_455
Al9 O17 1.958021 1_555
Al9 O23 1.961907 1_455
Al9 O18 1.967958 1_555
Al9 O20 1.978386 1_455
Al10 O19 1.793335 1_655
Al10 O14 1.793335 1_565
Al10 O12 1.838630 1_555
Al10 O23 1.841890 1_555
Al11 O13 1.899924 1_555
Al11 O27 1.908567 1_545
Al11 O17 1.958021 1_555
Al11 O23 1.961907 1_545
Al11 O18 1.967958 1_555
Al11 O20 1.978386 1_545
Al12 O25 1.861884 1_555
Al12 O21 1.901838 1_655
Al12 O31 1.953784 1_555
Al12 O29 1.959238 1_655
Al12 O26 1.979464 1_555
Al12 O28 2.019236 1_655
Al13 O25 1.861884 1_555
Al13 O24 1.901838 1_565
Al13 O30 1.953784 1_555
Al13 O29 1.959238 1_565
Al13 O26 1.979464 1_555
Al13 O28 2.019236 1_565
Al14 O22 1.794859 1_455
Al14 O27 1.794859 1_545
Al14 O20 1.838883 1_445
Al14 O29 1.851342 1_555
Al15 O6 1.805327 1_556
Al15 O30 1.838118 1_555
Al15 O31 1.838118 1_555
Al15 O28 1.899404 1_555
Ni0 O0 1.942060 1_555
Ni0 O2 1.942060 1_555
Ni0 O3 1.981721 1_555
Ni0 O25 1.982304 1_554
Ni1 O2 2.021451 1_455
Ni1 O0 2.021451 1_545
Ni1 O8 2.037780 1_545
Ni1 O11 2.037780 1_455
Ni1 O6 2.070444 1_555
Ni1 O1 2.076893 1_445
Ni2 O7 2.035439 1_555
Ni2 O5 2.035439 1_555
Ni2 O19 2.042047 1_555
Ni2 O14 2.042047 1_555
Ni2 O9 2.070866 1_555
Ni2 O15 2.071636 1_555
Ni3 O11 2.043968 1_455
Ni3 O8 2.043968 1_545
Ni3 O7 2.045078 1_555
Ni3 O5 2.045078 1_555
Ni3 O10 2.077803 1_555
Ni3 O4 2.088947 1_555
Ni4 O13 2.038989 1_555
Ni4 O16 2.038989 1_555
Ni4 O27 2.045042 1_555
Ni4 O22 2.045042 1_555
Ni4 O17 2.064693 1_555
Ni4 O23 2.066725 1_555
Ni5 O14 2.037586 1_555
Ni5 O19 2.037586 1_555
Ni5 O13 2.043158 1_555
Ni5 O16 2.043158 1_555
Ni5 O12 2.064305 1_555
Ni5 O18 2.071430 1_555
Ni6 O25 2.015954 1_555
Ni6 O24 2.045099 1_565
Ni6 O21 2.045099 1_655
Ni6 O30 2.062442 1_655
Ni6 O31 2.062442 1_565
Ni6 O29 2.068792 1_665
Ni7 O22 2.036801 1_555
Ni7 O27 2.036801 1_555
Ni7 O24 2.047370 1_565
Ni7 O21 2.047370 1_655
Ni7 O20 2.068824 1_555
Ni7 O26 2.092047 1_555
