# generated using pymatgen
data_FeSiO3
_symmetry_space_group_name_H-M   'P 1'
_cell_length_a   5.36772731
_cell_length_b   6.84711151
_cell_length_c   6.84711191
_cell_angle_alpha   80.82513351
_cell_angle_beta   73.39654773
_cell_angle_gamma   73.39654754
_symmetry_Int_Tables_number   1
_chemical_formula_structural   FeSiO3
_chemical_formula_sum   'Fe4 Si4 O12'
_cell_volume   230.27623833
_cell_formula_units_Z   4
loop_
 _symmetry_equiv_pos_site_id
 _symmetry_equiv_pos_as_xyz
  1  'x, y, z'
loop_
 _atom_site_type_symbol
 _atom_site_label
 _atom_site_symmetry_multiplicity
 _atom_site_fract_x
 _atom_site_fract_y
 _atom_site_fract_z
 _atom_site_occupancy
  Fe  Fe0  1  0.75000000  0.20582100  0.79417900  1
  Fe  Fe1  1  0.25000000  0.07988800  0.92011200  1
  Fe  Fe2  1  0.25000000  0.79417900  0.20582100  1
  Fe  Fe3  1  0.75000000  0.92011200  0.07988800  1
  Si  Si0  1  0.27461700  0.60083000  0.77910000  1
  Si  Si1  1  0.22538300  0.22090000  0.39917000  1
  Si  Si2  1  0.72538300  0.39917000  0.22090000  1
  Si  Si3  1  0.77461700  0.77910000  0.60083000  1
  O  O0  1  0.04118200  0.62070900  0.66133300  1
  O  O1  1  0.62763800  0.63596300  0.13186000  1
  O  O2  1  0.54118200  0.66133300  0.62070900  1
  O  O3  1  0.95881800  0.37929100  0.33866700  1
  O  O4  1  0.87236200  0.86814000  0.36403700  1
  O  O5  1  0.37236200  0.36403700  0.86814000  1
  O  O6  1  0.64732700  0.95299500  0.76895200  1
  O  O7  1  0.35267300  0.04700500  0.23104800  1
  O  O8  1  0.85267300  0.23104800  0.04700500  1
  O  O9  1  0.45881800  0.33866700  0.37929100  1
  O  O10  1  0.12763800  0.13186000  0.63596300  1
  O  O11  1  0.14732700  0.76895200  0.95299500  1
loop_
_geom_bond_atom_site_label_1
_geom_bond_atom_site_label_2
_geom_bond_distance
_geom_bond_site_symmetry_2
Fe0 O5 1.967824 1_555
Fe0 O10 1.967824 1_655
Fe0 O6 2.006333 1_545
Fe0 O8 2.006333 1_556
Fe0 Fe3 2.536463 1_546
Fe1 O8 2.083507 1_456
Fe1 O6 2.083507 1_545
Fe1 O5 2.172400 1_555
Fe1 O10 2.172400 1_555
Fe1 O11 2.309525 1_545
Fe1 O7 2.309525 1_556
Fe1 Fe2 2.536463 1_546
Fe2 O1 1.967824 1_555
Fe2 O4 1.967824 1_455
Fe2 O7 2.006333 1_565
Fe2 O11 2.006333 1_554
Fe3 O11 2.083507 1_654
Fe3 O7 2.083507 1_565
Fe3 O1 2.172400 1_555
Fe3 O4 2.172400 1_555
Fe3 O8 2.309525 1_565
Fe3 O6 2.309525 1_554
O0 Si0 1.638217 1_555
O0 Si3 1.644318 1_455
O1 Si2 1.630083 1_555
O2 Si3 1.638217 1_555
O2 Si0 1.644318 1_555
O3 Si2 1.638217 1_555
O3 Si1 1.644318 1_655
O4 Si3 1.630083 1_555
O5 Si0 1.630083 1_555
O6 Si3 1.652988 1_555
O7 Si1 1.652988 1_555
O8 Si2 1.652988 1_555
O9 Si1 1.638217 1_555
O9 Si2 1.644318 1_555
O10 Si1 1.630083 1_555
O11 Si0 1.652988 1_555
