# generated using pymatgen
data_Dy(PPt4)2
_symmetry_space_group_name_H-M   'P 1'
_cell_length_a   4.01282757
_cell_length_b   6.28659231
_cell_length_c   7.73639112
_cell_angle_alpha   83.27726016
_cell_angle_beta   74.93451781
_cell_angle_gamma   71.37992788
_symmetry_Int_Tables_number   1
_chemical_formula_structural   Dy(PPt4)2
_chemical_formula_sum   'Dy1 P2 Pt8'
_cell_volume   178.46966418
_cell_formula_units_Z   1
loop_
 _symmetry_equiv_pos_site_id
 _symmetry_equiv_pos_as_xyz
  1  'x, y, z'
loop_
 _atom_site_type_symbol
 _atom_site_label
 _atom_site_symmetry_multiplicity
 _atom_site_fract_x
 _atom_site_fract_y
 _atom_site_fract_z
 _atom_site_occupancy
  Dy  Dy0  1  0.50000000  0.50000000  0.50000000  1
  P  P0  1  0.05725137  0.17443367  0.70981961  1
  P  P1  1  0.94274863  0.82556633  0.29018039  1
  Pt  Pt0  1  0.21959132  0.14514253  0.41624613  1
  Pt  Pt1  1  0.82243184  0.50927356  0.84515177  1
  Pt  Pt2  1  0.17756816  0.49072644  0.15484823  1
  Pt  Pt3  1  0.16609648  0.82017686  0.84709560  1
  Pt  Pt4  1  0.47594626  0.17777658  0.86907269  1
  Pt  Pt5  1  0.52405474  0.82222342  0.13092731  1
  Pt  Pt6  1  0.78040868  0.85485747  0.58375387  1
  Pt  Pt7  1  0.83390352  0.17982314  0.15290440  1
loop_
_geom_bond_atom_site_label_1
_geom_bond_atom_site_label_2
_geom_bond_distance
_geom_bond_site_symmetry_2
Dy0 Pt0 2.997179 1_555
Dy0 Pt6 2.997179 1_555
Dy0 Pt0 2.997816 1_655
Dy0 Pt6 2.997816 1_455
Dy0 P0 3.163981 1_655
Dy0 P1 3.163981 1_455
Dy0 P1 3.166309 1_555
Dy0 P0 3.166309 1_555
Dy0 Pt1 3.269143 1_455
Dy0 Pt2 3.269143 1_655
Dy0 Pt2 3.269288 1_555
Dy0 Pt1 3.269288 1_555
Dy0 Pt3 3.275708 1_555
Dy0 Pt7 3.275708 1_555
Dy0 Pt4 3.300426 1_555
Dy0 Pt5 3.300426 1_555
P0 Pt0 2.206537 1_555
P0 Pt1 2.269716 1_455
P0 Pt3 2.311861 1_545
P0 Pt4 2.332488 1_455
P0 Pt4 2.333662 1_555
P0 Pt6 2.944292 1_445
P0 Pt6 2.945000 1_545
P1 Pt6 2.206537 1_555
P1 Pt2 2.269716 1_655
P1 Pt7 2.311861 1_565
P1 Pt5 2.332491 1_655
P1 Pt5 2.333659 1_555
P1 Pt0 2.944292 1_665
P1 Pt0 2.945000 1_565
Pt0 Pt2 2.784362 1_555
Pt0 Pt7 2.811311 1_555
Pt0 Pt7 2.813047 1_455
Pt0 Pt6 2.900694 1_545
Pt0 Pt6 2.903171 1_445
Pt0 Pt5 2.923961 1_545
Pt1 Pt3 2.730588 1_555
Pt1 Pt3 2.731505 1_655
Pt1 Pt6 2.784362 1_555
Pt1 Pt4 2.815403 1_655
Pt1 Pt4 2.817213 1_555
Pt1 Pt5 2.886207 1_556
Pt1 Pt7 2.966798 1_556
Pt1 Pt2 3.058535 1_556
Pt1 Pt2 3.064061 1_656
Pt2 Pt7 2.730588 1_555
Pt2 Pt7 2.731505 1_455
Pt2 Pt5 2.815401 1_455
Pt2 Pt5 2.817216 1_555
Pt2 Pt4 2.886207 1_554
Pt2 Pt3 2.966798 1_554
Pt3 Pt6 2.811311 1_555
Pt3 Pt6 2.813047 1_455
Pt3 Pt5 2.916196 1_456
Pt3 Pt5 2.922884 1_556
Pt3 Pt4 2.934813 1_565
Pt3 Pt4 2.936253 1_465
Pt3 Pt7 3.189736 1_466
Pt4 Pt5 2.829302 1_546
Pt4 Pt7 2.916199 1_456
Pt4 Pt7 2.922881 1_556
Pt4 Pt6 2.923961 1_545
Pt5 Pt7 2.934810 1_565
Pt5 Pt7 2.936255 1_465
