# generated using pymatgen
data_K2Mo2H8O15
_symmetry_space_group_name_H-M   'P 1'
_cell_length_a   6.43289100
_cell_length_b   9.88203645
_cell_length_c   11.42819186
_cell_angle_alpha   77.59563126
_cell_angle_beta   79.81770333
_cell_angle_gamma   73.59413475
_symmetry_Int_Tables_number   1
_chemical_formula_structural   K2Mo2H8O15
_chemical_formula_sum   'K4 Mo4 H16 O30'
_cell_volume   675.39589260
_cell_formula_units_Z   2
loop_
 _symmetry_equiv_pos_site_id
 _symmetry_equiv_pos_as_xyz
  1  'x, y, z'
loop_
 _atom_site_type_symbol
 _atom_site_label
 _atom_site_symmetry_multiplicity
 _atom_site_fract_x
 _atom_site_fract_y
 _atom_site_fract_z
 _atom_site_occupancy
  K  K0  1  0.21983700  0.62228700  0.36574200  1
  K  K1  1  0.25016100  0.73406100  0.00627000  1
  K  K2  1  0.78016300  0.37771300  0.63425800  1
  K  K3  1  0.74983900  0.26593900  0.99373000  1
  Mo  Mo0  1  0.80843900  0.89359000  0.79066000  1
  Mo  Mo1  1  0.85086800  0.47028500  0.22986400  1
  Mo  Mo2  1  0.19156100  0.10641000  0.20934000  1
  Mo  Mo3  1  0.14913200  0.52971500  0.77013600  1
  H  H0  1  0.67808000  0.11312100  0.55881200  1
  H  H1  1  0.49499000  0.68567700  0.72789700  1
  H  H2  1  0.15588400  0.12183000  0.52260800  1
  H  H3  1  0.57218000  0.30189000  0.40266400  1
  H  H4  1  0.84411600  0.87817000  0.47739200  1
  H  H5  1  0.71251900  0.77112200  0.06835700  1
  H  H6  1  0.32192000  0.88687900  0.44118800  1
  H  H7  1  0.57251500  0.81117700  0.43212300  1
  H  H8  1  0.28748100  0.22887800  0.93164300  1
  H  H9  1  0.42748500  0.18882300  0.56787700  1
  H  H10  1  0.50501000  0.31432300  0.27210300  1
  H  H11  1  0.42782000  0.69811000  0.59733600  1
  H  H12  1  0.70636900  0.93338000  0.05656600  1
  H  H13  1  0.15613200  0.07507000  0.66464400  1
  H  H14  1  0.84386800  0.92493000  0.33535600  1
  H  H15  1  0.29363100  0.06662000  0.94343400  1
  O  O0  1  0.66231700  0.52243200  0.09821600  1
  O  O1  1  0.57530300  0.20767800  0.54259300  1
  O  O2  1  0.05562800  0.62019100  0.60935400  1
  O  O3  1  0.17507500  0.15186500  0.59576600  1
  O  O4  1  0.20070700  0.47424800  0.60910600  1
  O  O5  1  0.82492500  0.84813500  0.40423400  1
  O  O6  1  0.48483600  0.93691000  0.82428100  1
  O  O7  1  0.45184300  0.63173200  0.67689500  1
  O  O8  1  0.83706700  0.92778800  0.63350700  1
  O  O9  1  0.79428400  0.08471200  0.82544300  1
  O  O10  1  0.20571600  0.91528800  0.17455700  1
  O  O11  1  0.33768300  0.47756800  0.90178400  1
  O  O12  1  0.06348200  0.54915900  0.16675900  1
  O  O13  1  0.51516400  0.06309000  0.17571900  1
  O  O14  1  0.03256800  0.71664300  0.82228800  1
  O  O15  1  0.77287200  0.84964900  0.01704900  1
  O  O16  1  0.54815700  0.36826800  0.32310500  1
  O  O17  1  0.02025800  0.99313100  0.82059800  1
  O  O18  1  0.59999000  0.63539700  0.17333400  1
  O  O19  1  0.97974200  0.00686900  0.17940200  1
  O  O20  1  0.42469700  0.79232200  0.45740700  1
  O  O21  1  0.96743200  0.28335700  0.17771200  1
  O  O22  1  0.94437200  0.37980900  0.39064600  1
  O  O23  1  0.40001000  0.36460300  0.82666600  1
  O  O24  1  0.16293300  0.07221200  0.36649300  1
  O  O25  1  0.58256500  0.78117200  0.83044300  1
  O  O26  1  0.93651800  0.45084100  0.83324100  1
  O  O27  1  0.79929300  0.52575200  0.39089400  1
  O  O28  1  0.41743500  0.21882800  0.16955700  1
  O  O29  1  0.22712800  0.15035100  0.98295100  1
loop_
_geom_bond_atom_site_label_1
_geom_bond_atom_site_label_2
_geom_bond_distance
_geom_bond_site_symmetry_2
K0 O2 2.795529 1_555
K0 O4 2.850109 1_555
K0 O20 2.855285 1_555
K0 O16 2.857656 1_555
K0 O5 2.907281 1_455
K0 O12 2.937739 1_555
K0 O18 2.997932 1_555
K0 O27 3.062102 1_455
K0 O10 3.220149 1_555
K0 O22 3.300002 1_455
K1 O12 2.676887 1_555
K1 O25 2.732776 1_554
K1 O14 2.782432 1_554
K1 O10 2.825575 1_555
K1 O11 2.902391 1_554
K1 O15 2.948318 1_455
K1 O18 3.023261 1_555
K1 O0 3.068584 1_555
K1 O17 3.143391 1_554
K2 O22 2.795529 1_555
K2 O27 2.850109 1_555
K2 O1 2.855285 1_555
K2 O7 2.857656 1_555
K2 O3 2.907281 1_655
K2 O26 2.937739 1_555
K2 O23 2.997932 1_555
K2 O4 3.062102 1_655
K2 O9 3.220149 1_555
K2 O2 3.300002 1_655
K3 O26 2.676887 1_555
K3 O28 2.732776 1_556
K3 O21 2.782432 1_556
K3 O9 2.825575 1_555
K3 O0 2.902391 1_556
K3 O29 2.948318 1_655
K3 O23 3.023261 1_555
K3 O11 3.068584 1_555
K3 O19 3.143391 1_556
Mo0 O8 1.741008 1_555
Mo0 O14 1.937939 1_655
Mo0 O9 1.986452 1_565
Mo0 O6 1.987172 1_555
Mo0 O17 2.001979 1_655
Mo0 O25 2.003343 1_555
Mo1 O12 1.735003 1_655
Mo1 O21 1.965271 1_555
Mo1 O27 1.977857 1_555
Mo1 O22 1.979543 1_555
Mo1 O0 1.989800 1_555
Mo1 O18 2.027928 1_555
Mo1 O16 2.420244 1_555
Mo2 O24 1.741008 1_555
Mo2 O21 1.937939 1_455
Mo2 O10 1.986452 1_545
Mo2 O13 1.987172 1_555
Mo2 O19 2.001979 1_455
Mo2 O28 2.003343 1_555
Mo3 O26 1.735003 1_455
Mo3 O14 1.965271 1_555
Mo3 O4 1.977857 1_555
Mo3 O2 1.979543 1_555
Mo3 O11 1.989800 1_555
Mo3 O23 2.027928 1_555
Mo3 O7 2.420244 1_555
H0 O1 0.982117 1_555
H0 O8 1.925587 1_545
H1 O7 0.987531 1_555
H1 O25 1.894772 1_555
H2 O3 0.982924 1_555
H2 O24 1.939124 1_555
H3 O16 1.008472 1_555
H4 O5 0.982924 1_555
H4 O8 1.939124 1_555
H5 O15 0.995465 1_555
H5 O18 1.819976 1_555
H6 O20 0.982117 1_555
H6 O24 1.925587 1_565
H7 O20 1.001111 1_555
H8 O29 0.995465 1_555
H8 O23 1.819976 1_555
H9 O1 1.001111 1_555
H10 O16 0.987531 1_555
H10 O28 1.894772 1_555
H11 O7 1.008472 1_555
H12 O15 0.981777 1_555
H12 O13 2.068150 1_565
H13 O3 0.985930 1_555
H13 O17 1.955796 1_545
H14 O5 0.985930 1_555
H14 O19 1.955796 1_565
H15 O29 0.981777 1_555
H15 O6 2.068150 1_545
O0 O18 1.476849 1_555
O0 O21 2.710790 1_555
O2 O4 1.480371 1_555
O10 O19 1.478234 1_465
O11 O23 1.476849 1_555
O11 O14 2.710790 1_555
O13 O28 1.480301 1_555
O14 O17 2.706947 1_555
O17 O9 1.478234 1_465
O19 O21 2.706947 1_555
O22 O27 1.480371 1_555
O25 O6 1.480301 1_555
