# generated using pymatgen
data_Y(AlCl4)3
_symmetry_space_group_name_H-M   'P 1'
_cell_length_a   10.62133318
_cell_length_b   10.61969820
_cell_length_c   15.73588523
_cell_angle_alpha   90.05111241
_cell_angle_beta   89.97443332
_cell_angle_gamma   119.99576624
_symmetry_Int_Tables_number   1
_chemical_formula_structural   Y(AlCl4)3
_chemical_formula_sum   'Y3 Al9 Cl36'
_cell_volume   1537.20352500
_cell_formula_units_Z   3
loop_
 _symmetry_equiv_pos_site_id
 _symmetry_equiv_pos_as_xyz
  1  'x, y, z'
loop_
 _atom_site_type_symbol
 _atom_site_label
 _atom_site_symmetry_multiplicity
 _atom_site_fract_x
 _atom_site_fract_y
 _atom_site_fract_z
 _atom_site_occupancy
  Y  Y0  1  0.50431084  0.49554313  0.33337760  1
  Y  Y1  1  0.99131919  0.49566665  -0.00000115  1
  Y  Y2  1  0.50430737  0.00876196  0.66662010  1
  Al  Al0  1  0.63609559  0.76160696  0.73071353  1
  Al  Al1  1  0.73081779  0.26926014  0.83332808  1
  Al  Al2  1  0.63609137  0.87448350  0.26927935  1
  Al  Al3  1  0.23839782  0.36389655  0.93553014  1
  Al  Al4  1  0.23840820  0.87450740  0.06447679  1
  Al  Al5  1  0.12549828  0.36405367  0.39778698  1
  Al  Al6  1  0.53829762  0.26914420  0.49999051  1
  Al  Al7  1  0.12549383  0.76144477  0.60221379  1
  Al  Al8  1  0.73081365  0.46155277  0.16668243  1
  Cl  Cl0  1  0.65683310  0.87816449  0.61077642  1
  Cl  Cl1  1  0.40723551  0.19967736  0.61301278  1
  Cl  Cl2  1  0.83715014  0.84004333  0.79028919  1
  Cl  Cl3  1  0.83489196  0.33510388  0.14997188  1
  Cl  Cl4  1  0.50519702  0.84122544  0.79741311  1
  Cl  Cl5  1  0.00263145  0.83973544  0.54282232  1
  Cl  Cl6  1  0.16017605  0.99748683  0.12392999  1
  Cl  Cl7  1  0.66503069  0.16541198  0.51666979  1
  Cl  Cl8  1  0.02805939  0.53711221  0.62278978  1
  Cl  Cl9  1  0.50912698  0.53721858  0.71018947  1
  Cl  Cl10  1  0.15896880  0.49486867  0.86899341  1
  Cl  Cl11  1  0.83714952  0.99711709  0.20971066  1
  Cl  Cl12  1  0.50036183  0.16554370  0.81664909  1
  Cl  Cl13  1  0.65683203  0.77866571  0.38921795  1
  Cl  Cl14  1  0.66502401  0.49960914  0.48332410  1
  Cl  Cl15  1  0.00263472  0.16289892  0.45717368  1
  Cl  Cl16  1  0.79234144  0.19984263  0.72018770  1
  Cl  Cl17  1  0.83489721  0.49978638  0.85003088  1
  Cl  Cl18  1  0.33596011  0.84114816  0.53562443  1
  Cl  Cl19  1  0.22126140  0.87779013  0.72242921  1
  Cl  Cl20  1  0.46270992  0.97191390  0.04374887  1
  Cl  Cl21  1  0.12190049  0.34331152  0.05557597  1
  Cl  Cl22  1  0.80022535  0.59253768  0.05369467  1
  Cl  Cl23  1  0.22127113  0.34347284  0.27756039  1
  Cl  Cl24  1  0.16017148  0.16271713  0.87607317  1
  Cl  Cl25  1  0.50035831  0.33481493  0.18335417  1
  Cl  Cl26  1  0.15895396  0.66410805  0.13101368  1
  Cl  Cl27  1  0.12192949  0.77861328  0.94442668  1
  Cl  Cl28  1  0.80022140  0.20768121  0.94631382  1
  Cl  Cl29  1  0.79235558  0.59250646  0.27981593  1
  Cl  Cl30  1  0.46271763  0.49079763  0.95627189  1
  Cl  Cl31  1  0.50911909  0.97189583  0.28981151  1
  Cl  Cl32  1  0.40723063  0.20754523  0.38697634  1
  Cl  Cl33  1  0.33595636  0.49479941  0.46437159  1
  Cl  Cl34  1  0.02805350  0.49094484  0.37720172  1
  Cl  Cl35  1  0.50520476  0.66397327  0.20258364  1
loop_
_geom_bond_atom_site_label_1
_geom_bond_atom_site_label_2
_geom_bond_distance
_geom_bond_site_symmetry_2
Al0 Cl2 2.086806 1_555
Al0 Cl9 2.094566 1_555
Al0 Cl0 2.207676 1_555
Al0 Cl4 2.218562 1_555
Al1 Cl17 2.139526 1_555
Al1 Cl12 2.139600 1_555
Al1 Cl28 2.148799 1_555
Al1 Cl16 2.149058 1_555
Al2 Cl11 2.086796 1_555
Al2 Cl31 2.094584 1_555
Al2 Cl13 2.207698 1_555
Al2 Cl35 2.218442 1_555
Al3 Cl24 2.086245 1_555
Al3 Cl30 2.094946 1_555
Al3 Cl21 2.208044 1_556
Al3 Cl10 2.217921 1_555
Al4 Cl6 2.086511 1_555
Al4 Cl20 2.094755 1_555
Al4 Cl27 2.207996 1_554
Al4 Cl26 2.217856 1_555
Al5 Cl15 2.086805 1_555
Al5 Cl34 2.094665 1_555
Al5 Cl23 2.209426 1_555
Al5 Cl33 2.217797 1_555
Al6 Cl14 2.139523 1_555
Al6 Cl7 2.139584 1_555
Al6 Cl32 2.148977 1_555
Al6 Cl1 2.149057 1_555
Al7 Cl5 2.086849 1_555
Al7 Cl8 2.094594 1_555
Al7 Cl19 2.209228 1_555
Al7 Cl18 2.217921 1_555
Al8 Cl25 2.139575 1_555
Al8 Cl3 2.139575 1_555
Al8 Cl22 2.148830 1_555
Al8 Cl29 2.149022 1_555
Cl0 Y2 2.750143 1_565
Cl1 Y2 2.824743 1_555
Cl3 Y1 2.899718 1_555
Cl4 Y2 2.724869 1_565
Cl7 Y2 2.900563 1_555
Cl10 Y1 2.726231 1_456
Cl12 Y2 2.900021 1_555
Cl13 Y0 2.750086 1_555
Cl14 Y0 2.900486 1_555
Cl16 Y2 2.824829 1_555
Cl17 Y1 2.899584 1_556
Cl18 Y2 2.725636 1_565
Cl19 Y2 2.750037 1_565
Cl21 Y1 2.748388 1_455
Cl22 Y1 2.824265 1_555
Cl23 Y0 2.750021 1_555
Cl25 Y0 2.899934 1_555
Cl26 Y1 2.726256 1_455
Cl27 Y1 2.748411 1_456
Cl28 Y1 2.824342 1_556
Cl29 Y0 2.824899 1_555
Cl32 Y0 2.824764 1_555
Cl33 Y0 2.725645 1_555
Cl35 Y0 2.724893 1_555
