# generated using pymatgen
data_CsSb2F7
_symmetry_space_group_name_H-M   'P 1'
_cell_length_a   5.95005110
_cell_length_b   6.32321551
_cell_length_c   10.41867199
_cell_angle_alpha   107.66529174
_cell_angle_beta   90.88664366
_cell_angle_gamma   90.00000525
_symmetry_Int_Tables_number   1
_chemical_formula_structural   CsSb2F7
_chemical_formula_sum   'Cs2 Sb4 F14'
_cell_volume   373.45325229
_cell_formula_units_Z   2
loop_
 _symmetry_equiv_pos_site_id
 _symmetry_equiv_pos_as_xyz
  1  'x, y, z'
loop_
 _atom_site_type_symbol
 _atom_site_label
 _atom_site_symmetry_multiplicity
 _atom_site_fract_x
 _atom_site_fract_y
 _atom_site_fract_z
 _atom_site_occupancy
  Cs  Cs0  1  0.75000000  0.26200160  0.00000000  1
  Cs  Cs1  1  0.25000000  0.73799840  -0.00000000  1
  Sb  Sb0  1  0.25922667  0.08002892  0.66846828  1
  Sb  Sb1  1  0.75922667  0.58844036  0.66846828  1
  Sb  Sb2  1  0.74077333  0.91997108  0.33153172  1
  Sb  Sb3  1  0.24077333  0.41155964  0.33153172  1
  F  F0  1  0.98062050  0.21919347  0.25493096  1
  F  F1  1  0.09611941  0.67274509  0.30450882  1
  F  F2  1  0.01937950  0.78080653  0.74506904  1
  F  F3  1  0.79947269  0.79158134  0.13644580  1
  F  F4  1  0.20052731  0.20841866  0.86355420  1
  F  F5  1  0.40388059  0.36823727  0.69549118  1
  F  F6  1  0.51937950  0.96426252  0.74506904  1
  F  F7  1  0.70052731  0.65513554  0.86355420  1
  F  F8  1  0.59611941  0.63176273  0.30450882  1
  F  F9  1  0.50000000  0.00000000  0.50000000  1
  F  F10  1  0.29947269  0.34486446  0.13644580  1
  F  F11  1  0.48062050  0.03573748  0.25493096  1
  F  F12  1  -0.00000000  0.50000000  0.50000000  1
  F  F13  1  0.90388059  0.32725491  0.69549118  1
loop_
_geom_bond_atom_site_label_1
_geom_bond_atom_site_label_2
_geom_bond_distance
_geom_bond_site_symmetry_2
Cs0 F4 3.024443 1_654
Cs0 F10 3.024443 1_555
Cs0 F6 3.055211 1_544
Cs0 F0 3.055211 1_555
Cs0 F3 3.227833 1_555
Cs0 F7 3.227833 1_554
Cs0 F8 3.458058 1_555
Cs0 F13 3.458061 1_554
Cs0 F10 3.519723 1_655
Cs0 F4 3.519723 1_554
Cs0 F7 3.675466 1_544
Cs0 F3 3.675466 1_545
Cs1 F3 3.024443 1_455
Cs1 F7 3.024443 1_554
Cs1 F11 3.055211 1_565
Cs1 F2 3.055211 1_554
Cs1 F4 3.227833 1_554
Cs1 F10 3.227833 1_555
Cs1 F5 3.458058 1_554
Cs1 F1 3.458061 1_555
Cs1 F7 3.519723 1_454
Cs1 F3 3.519723 1_555
Cs1 F10 3.675466 1_565
Cs1 F4 3.675466 1_564
F0 Sb3 1.971080 1_655
F0 F10 2.534265 1_655
F0 F12 2.631490 1_655
F0 Sb2 2.684228 1_545
F1 Sb3 1.955077 1_555
F1 F10 2.586641 1_555
F1 Sb2 2.597065 1_455
F1 F12 2.656103 1_555
F1 F3 2.729278 1_455
F2 Sb1 1.971080 1_455
F2 F7 2.534265 1_455
F2 Sb0 2.684228 1_565
F3 Sb2 1.983124 1_555
F3 F8 2.586645 1_555
F3 F7 2.762973 1_554
F4 Sb0 1.983124 1_555
F4 F6 2.534265 1_545
F4 F5 2.586645 1_555
F5 Sb0 1.955077 1_555
F5 Sb1 2.597064 1_555
F5 F9 2.656108 1_555
F5 F7 2.729275 1_555
F6 Sb0 1.971083 1_565
F6 F9 2.631489 1_565
F6 Sb1 2.684224 1_555
F7 Sb1 1.983124 1_555
F8 Sb2 1.955077 1_555
F8 Sb3 2.597064 1_555
F8 F9 2.656108 1_565
F9 Sb2 2.219909 1_545
F9 Sb0 2.219909 1_555
F10 Sb3 1.983124 1_555
F10 F8 2.729275 1_555
F10 F4 2.762973 1_554
F11 Sb2 1.971083 1_545
F11 F3 2.534265 1_545
F11 F9 2.631489 1_555
F11 Sb3 2.684224 1_555
F12 Sb3 2.219909 1_555
F12 Sb1 2.219909 1_455
F12 F2 2.631490 1_555
F12 F13 2.656103 1_455
F13 Sb1 1.955077 1_555
F13 F7 2.586641 1_555
F13 Sb0 2.597065 1_655
F13 F4 2.729278 1_655
