# generated using pymatgen
data_Th(MoO4)2
_symmetry_space_group_name_H-M   'P 1'
_cell_length_a   17.99512937
_cell_length_b   17.99512937
_cell_length_c   6.30578900
_cell_angle_alpha   90.00000000
_cell_angle_beta   90.00000000
_cell_angle_gamma   119.99999769
_symmetry_Int_Tables_number   1
_chemical_formula_structural   Th(MoO4)2
_chemical_formula_sum   'Th9 Mo18 O72'
_cell_volume   1768.39803208
_cell_formula_units_Z   9
loop_
 _symmetry_equiv_pos_site_id
 _symmetry_equiv_pos_as_xyz
  1  'x, y, z'
loop_
 _atom_site_type_symbol
 _atom_site_label
 _atom_site_symmetry_multiplicity
 _atom_site_fract_x
 _atom_site_fract_y
 _atom_site_fract_z
 _atom_site_occupancy
  Th  Th0  1  0.33373200  0.00031800  0.24685100  1
  Th  Th1  1  0.99968200  0.33341400  0.24685100  1
  Th  Th2  1  0.66666700  0.33333300  0.49632000  1
  Th  Th3  1  0.00031800  0.66658600  0.75314900  1
  Th  Th4  1  0.33333300  0.66666700  0.50368000  1
  Th  Th5  1  0.66626800  0.99968200  0.75314900  1
  Th  Th6  1  0.66658600  0.66626800  0.24685100  1
  Th  Th7  1  0.33341400  0.33373200  0.75314900  1
  Th  Th8  1  0.00000000  0.00000000  0.00000000  1
  Mo  Mo0  1  0.10260300  0.50381600  0.74287300  1
  Mo  Mo1  1  0.17044400  0.73442300  0.24095900  1
  Mo  Mo2  1  0.26557700  0.43602100  0.24095900  1
  Mo  Mo3  1  0.23116700  0.16479900  0.25767300  1
  Mo  Mo4  1  0.16479900  0.93363200  0.74232700  1
  Mo  Mo5  1  0.06636800  0.23116700  0.74232700  1
  Mo  Mo6  1  0.82955600  0.26557700  0.75904100  1
  Mo  Mo7  1  0.56397900  0.82955600  0.24095900  1
  Mo  Mo8  1  0.40121300  0.89739700  0.74287300  1
  Mo  Mo9  1  0.50381600  0.40121300  0.25712700  1
  Mo  Mo10  1  0.49618400  0.59878700  0.74287300  1
  Mo  Mo11  1  0.59878700  0.10260300  0.25712700  1
  Mo  Mo12  1  0.83520100  0.06636800  0.25767300  1
  Mo  Mo13  1  0.89739700  0.49618400  0.25712700  1
  Mo  Mo14  1  0.73442300  0.56397900  0.75904100  1
  Mo  Mo15  1  0.43602100  0.17044400  0.75904100  1
  Mo  Mo16  1  0.76883300  0.83520100  0.74232700  1
  Mo  Mo17  1  0.93363200  0.76883300  0.25767300  1
  O  O0  1  0.54695200  0.25335200  0.70607900  1
  O  O1  1  0.58765400  0.37260200  0.28288600  1
  O  O2  1  0.75778400  0.78718500  0.48751500  1
  O  O3  1  0.03610900  0.11938800  0.79244900  1
  O  O4  1  0.21690600  0.84730700  0.22069800  1
  O  O5  1  0.88185600  0.17934800  0.23892000  1
  O  O6  1  0.63215100  0.08202100  0.00772000  1
  O  O7  1  0.63040100  0.78309400  0.22069800  1
  O  O8  1  0.08327900  0.96389100  0.79244900  1
  O  O9  1  0.29749200  0.11814400  0.23892000  1
  O  O10  1  0.70250800  0.88185600  0.76108000  1
  O  O11  1  0.24221600  0.21281500  0.51248500  1
  O  O12  1  0.65408900  0.08178900  0.46399700  1
  O  O13  1  0.91797900  0.55012900  0.00772000  1
  O  O14  1  0.69660600  0.59918100  0.54126000  1
  O  O15  1  0.45304800  0.74664800  0.29392100  1
  O  O16  1  0.24660600  0.98396600  0.94005000  1
  O  O17  1  0.54904400  0.51361200  0.28700800  1
  O  O18  1  0.30339400  0.40081900  0.45874000  1
  O  O19  1  0.59918100  0.90257500  0.45874000  1
  O  O20  1  0.55012900  0.63215100  0.99228000  1
  O  O21  1  0.57074900  0.88721700  0.00302600  1
  O  O22  1  0.57230000  0.65408900  0.53600300  1
  O  O23  1  0.21505200  0.58765400  0.71711400  1
  O  O24  1  0.51361200  0.96456800  0.71299200  1
  O  O25  1  0.78494800  0.41234600  0.28288600  1
  O  O26  1  0.02940100  0.24221600  0.48751500  1
  O  O27  1  0.34591100  0.91821100  0.53600300  1
  O  O28  1  0.42770000  0.34591100  0.46399700  1
  O  O29  1  0.70640000  0.45304800  0.70607900  1
  O  O30  1  0.88061200  0.91672100  0.79244900  1
  O  O31  1  0.91672100  0.03610900  0.20755100  1
  O  O32  1  0.78309400  0.15269300  0.77930200  1
  O  O33  1  0.11814400  0.82065200  0.76108000  1
  O  O34  1  0.88721700  0.31646900  0.99697400  1
  O  O35  1  0.03543200  0.54904400  0.71299200  1
  O  O36  1  0.31646900  0.42925100  0.00302600  1
  O  O37  1  0.45095600  0.48638800  0.71299200  1
  O  O38  1  0.98396600  0.73736000  0.05995000  1
  O  O39  1  0.44987100  0.36784900  0.00772000  1
  O  O40  1  0.37260200  0.78494800  0.71711400  1
  O  O41  1  0.97059900  0.75778400  0.51248500  1
  O  O42  1  0.36959900  0.21690600  0.77930200  1
  O  O43  1  0.84730700  0.63040100  0.77930200  1
  O  O44  1  0.91821100  0.57230000  0.46399700  1
  O  O45  1  0.78718500  0.02940100  0.51248500  1
  O  O46  1  0.08178900  0.42770000  0.53600300  1
  O  O47  1  0.73736000  0.75339400  0.94005000  1
  O  O48  1  0.29360000  0.54695200  0.29392100  1
  O  O49  1  0.11938800  0.08327900  0.20755100  1
  O  O50  1  0.09742500  0.69660600  0.45874000  1
  O  O51  1  0.40081900  0.09742500  0.54126000  1
  O  O52  1  0.01603400  0.26264000  0.94005000  1
  O  O53  1  0.25335200  0.70640000  0.29392100  1
  O  O54  1  0.96456800  0.45095600  0.28700800  1
  O  O55  1  0.74664800  0.29360000  0.70607900  1
  O  O56  1  0.42925100  0.11278300  0.99697400  1
  O  O57  1  0.68353100  0.57074900  0.99697400  1
  O  O58  1  0.11278300  0.68353100  0.00302600  1
  O  O59  1  0.96389100  0.88061200  0.20755100  1
  O  O60  1  0.36784900  0.91797900  0.99228000  1
  O  O61  1  0.15269300  0.36959900  0.22069800  1
  O  O62  1  0.82065200  0.70250800  0.23892000  1
  O  O63  1  0.48638800  0.03543200  0.28700800  1
  O  O64  1  0.75339400  0.01603400  0.05995000  1
  O  O65  1  0.41234600  0.62739800  0.71711400  1
  O  O66  1  0.17934800  0.29749200  0.76108000  1
  O  O67  1  0.62739800  0.21505200  0.28288600  1
  O  O68  1  0.26264000  0.24660600  0.05995000  1
  O  O69  1  0.90257500  0.30339400  0.54126000  1
  O  O70  1  0.21281500  0.97059900  0.48751500  1
  O  O71  1  0.08202100  0.44987100  0.99228000  1
loop_
_geom_bond_atom_site_label_1
_geom_bond_atom_site_label_2
_geom_bond_distance
_geom_bond_site_symmetry_2
Mo0 O35 1.772786 1_555
Mo0 O71 1.787008 1_555
Mo0 O46 1.790265 1_555
Mo0 O23 1.828748 1_555
Mo1 O4 1.772964 1_555
Mo1 O50 1.783641 1_555
Mo1 O58 1.793366 1_555
Mo1 O53 1.828679 1_555
Mo2 O61 1.772964 1_555
Mo2 O18 1.783641 1_555
Mo2 O36 1.793372 1_555
Mo2 O48 1.828679 1_555
Mo3 O9 1.773527 1_555
Mo3 O11 1.787764 1_555
Mo3 O68 1.791278 1_555
Mo3 O49 1.829522 1_555
Mo4 O33 1.773527 1_555
Mo4 O70 1.787764 1_555
Mo4 O16 1.791278 1_555
Mo4 O8 1.829522 1_555
Mo5 O66 1.773527 1_555
Mo5 O26 1.787764 1_555
Mo5 O52 1.791278 1_555
Mo5 O3 1.829522 1_555
Mo6 O32 1.772964 1_555
Mo6 O69 1.783641 1_555
Mo6 O34 1.793366 1_555
Mo6 O55 1.828679 1_555
Mo7 O7 1.772964 1_555
Mo7 O19 1.783641 1_555
Mo7 O21 1.793362 1_555
Mo7 O15 1.828679 1_555
Mo8 O24 1.772786 1_555
Mo8 O60 1.787016 1_555
Mo8 O27 1.790265 1_555
Mo8 O40 1.828748 1_555
Mo9 O17 1.772786 1_555
Mo9 O39 1.787009 1_555
Mo9 O28 1.790265 1_555
Mo9 O1 1.828748 1_555
Mo10 O37 1.772786 1_555
Mo10 O20 1.787009 1_555
Mo10 O22 1.790265 1_555
Mo10 O65 1.828748 1_555
Mo11 O63 1.772786 1_555
Mo11 O6 1.787016 1_555
Mo11 O12 1.790265 1_555
Mo11 O67 1.828748 1_555
Mo12 O5 1.773527 1_555
Mo12 O45 1.787764 1_555
Mo12 O64 1.791278 1_555
Mo12 O31 1.829522 1_555
Mo13 O54 1.772786 1_555
Mo13 O13 1.787008 1_555
Mo13 O44 1.790265 1_555
Mo13 O25 1.828748 1_555
Mo14 O43 1.772964 1_555
Mo14 O14 1.783641 1_555
Mo14 O57 1.793372 1_555
Mo14 O29 1.828679 1_555
Mo15 O42 1.772964 1_555
Mo15 O51 1.783641 1_555
Mo15 O56 1.793362 1_555
Mo15 O0 1.828679 1_555
Mo16 O10 1.773527 1_555
Mo16 O2 1.787764 1_555
Mo16 O47 1.791278 1_555
Mo16 O30 1.829522 1_555
Mo17 O62 1.773527 1_555
Mo17 O41 1.787764 1_555
Mo17 O38 1.791278 1_555
Mo17 O59 1.829522 1_555
O0 Th2 2.315464 1_555
O1 Th2 2.310222 1_555
O2 Th6 2.481932 1_555
O3 Th8 2.314031 1_556
O4 Th0 2.497955 1_565
O5 Th1 2.511210 1_555
O6 Th5 2.461489 1_544
O7 Th6 2.497955 1_555
O8 Th8 2.314031 1_566
O9 Th0 2.511210 1_555
O10 Th5 2.511210 1_555
O11 Th7 2.481932 1_555
O12 Th5 2.424762 1_545
O13 Th3 2.461499 1_654
O14 Th6 2.418253 1_555
O15 Th4 2.315464 1_555
O16 Th0 2.413739 1_566
O17 Th6 2.504784 1_555
O18 Th7 2.418253 1_555
O19 Th5 2.418253 1_555
O20 Th6 2.461503 1_556
O21 Th5 2.460576 1_554
O22 Th6 2.424762 1_555
O23 Th4 2.310211 1_555
O24 Th5 2.504783 1_555
O25 Th2 2.310211 1_555
O26 Th1 2.481932 1_455
O27 Th0 2.424762 1_565
O28 Th7 2.424762 1_555
O29 Th2 2.315467 1_555
O30 Th8 2.314031 1_666
O31 Th8 2.314031 1_655
O32 Th5 2.497955 1_545
O33 Th3 2.511210 1_555
O34 Th1 2.460581 1_556
O35 Th3 2.504783 1_555
O36 Th7 2.460567 1_554
O37 Th7 2.504784 1_555
O38 Th3 2.413739 1_654
O39 Th7 2.461503 1_554
O40 Th4 2.310208 1_555
O41 Th3 2.481932 1_655
O42 Th7 2.497955 1_555
O43 Th3 2.497955 1_655
O44 Th3 2.424762 1_655
O45 Th5 2.481932 1_545
O46 Th1 2.424762 1_455
O47 Th6 2.413739 1_556
O48 Th4 2.315467 1_555
O49 Th8 2.314031 1_555
O50 Th3 2.418253 1_555
O51 Th0 2.418253 1_555
O52 Th1 2.413739 1_456
O53 Th4 2.315453 1_555
O54 Th1 2.504783 1_555
O55 Th2 2.315453 1_555
O56 Th0 2.460576 1_556
O57 Th6 2.460567 1_556
O58 Th3 2.460581 1_554
O59 Th8 2.314031 1_665
O60 Th0 2.461489 1_566
O61 Th1 2.497955 1_455
O62 Th6 2.511210 1_555
O63 Th0 2.504783 1_555
O64 Th5 2.413739 1_544
O65 Th4 2.310222 1_555
O66 Th7 2.511210 1_555
O67 Th2 2.310208 1_555
O68 Th7 2.413739 1_554
O69 Th1 2.418253 1_555
O70 Th0 2.481932 1_565
O71 Th1 2.461499 1_456
