# generated using pymatgen
data_Ge3As4
_symmetry_space_group_name_H-M   'P 1'
_cell_length_a   5.46432467
_cell_length_b   5.46432467
_cell_length_c   5.46351624
_cell_angle_alpha   90.00000000
_cell_angle_beta   90.00000000
_cell_angle_gamma   90.00000000
_symmetry_Int_Tables_number   1
_chemical_formula_structural   Ge3As4
_chemical_formula_sum   'Ge3 As4'
_cell_volume   163.13427964
_cell_formula_units_Z   1
loop_
 _symmetry_equiv_pos_site_id
 _symmetry_equiv_pos_as_xyz
  1  'x, y, z'
loop_
 _atom_site_type_symbol
 _atom_site_label
 _atom_site_symmetry_multiplicity
 _atom_site_fract_x
 _atom_site_fract_y
 _atom_site_fract_z
 _atom_site_occupancy
  Ge  Ge0  1  0.00000000  -0.00000000  -0.00000000  1
  Ge  Ge1  1  0.50000000  -0.00000000  0.50000000  1
  Ge  Ge2  1  -0.00000000  0.50000000  0.50000000  1
  As  As0  1  0.72071014  0.72071014  0.22064175  1
  As  As1  1  0.27928986  0.27928986  0.22064175  1
  As  As2  1  0.27928986  0.72071014  0.77935825  1
  As  As3  1  0.72071014  0.27928986  0.77935825  1
loop_
_geom_bond_atom_site_label_1
_geom_bond_atom_site_label_2
_geom_bond_distance
_geom_bond_site_symmetry_2
As0 Ge0 2.472110 1_665
As0 Ge2 2.472471 1_655
As0 Ge1 2.472471 1_565
As0 As3 3.410393 1_554
As0 As2 3.410393 1_554
As0 As1 3.411173 1_555
As1 Ge0 2.472110 1_555
As1 Ge2 2.472471 1_555
As1 Ge1 2.472471 1_555
As1 As3 3.410393 1_554
As1 As2 3.410393 1_554
As2 Ge0 2.472110 1_566
As2 Ge1 2.472471 1_565
As2 Ge2 2.472471 1_555
As2 As3 3.411173 1_555
As3 Ge0 2.472110 1_656
As3 Ge2 2.472471 1_655
As3 Ge1 2.472471 1_555
