# generated using pymatgen
data_Ti3SiC2
_symmetry_space_group_name_H-M   'P 1'
_cell_length_a   6.13904500
_cell_length_b   6.13904547
_cell_length_c   35.38576976
_cell_angle_alpha   90.00000000
_cell_angle_beta   90.00000000
_cell_angle_gamma   120.00000845
_symmetry_Int_Tables_number   1
_chemical_formula_structural   Ti3SiC2
_chemical_formula_sum   'Ti48 Si16 C32'
_cell_volume   1154.94395233
_cell_formula_units_Z   16
loop_
 _symmetry_equiv_pos_site_id
 _symmetry_equiv_pos_as_xyz
  1  'x, y, z'
loop_
 _atom_site_type_symbol
 _atom_site_label
 _atom_site_symmetry_multiplicity
 _atom_site_fract_x
 _atom_site_fract_y
 _atom_site_fract_z
 _atom_site_occupancy
  Ti  Ti0_0  1  0.33333350  0.16666650  0.18245964  1
  Ti  Ti0_1  1  0.33333350  0.16666650  0.68245963  1
  Ti  Ti0_2  1  0.33333350  0.66666650  0.18245964  1
  Ti  Ti0_3  1  0.33333350  0.66666650  0.68245963  1
  Ti  Ti0_4  1  0.83333350  0.16666650  0.18245964  1
  Ti  Ti0_5  1  0.83333350  0.16666650  0.68245963  1
  Ti  Ti0_6  1  0.83333350  0.66666650  0.18245964  1
  Ti  Ti0_7  1  0.83333350  0.66666650  0.68245963  1
  Ti  Ti1_0  1  0.16666650  0.33333350  0.43245964  1
  Ti  Ti1_1  1  0.16666650  0.33333350  0.93245964  1
  Ti  Ti1_2  1  0.16666650  0.83333350  0.43245964  1
  Ti  Ti1_3  1  0.16666650  0.83333350  0.93245964  1
  Ti  Ti1_4  1  0.66666650  0.33333350  0.43245964  1
  Ti  Ti1_5  1  0.66666650  0.33333350  0.93245964  1
  Ti  Ti1_6  1  0.66666650  0.83333350  0.43245964  1
  Ti  Ti1_7  1  0.66666650  0.83333350  0.93245964  1
  Ti  Ti2_0  1  0.16666650  0.33333350  0.31754036  1
  Ti  Ti2_1  1  0.16666650  0.33333350  0.81754037  1
  Ti  Ti2_2  1  0.16666650  0.83333350  0.31754036  1
  Ti  Ti2_3  1  0.16666650  0.83333350  0.81754037  1
  Ti  Ti2_4  1  0.66666650  0.33333350  0.31754036  1
  Ti  Ti2_5  1  0.66666650  0.33333350  0.81754037  1
  Ti  Ti2_6  1  0.66666650  0.83333350  0.31754036  1
  Ti  Ti2_7  1  0.66666650  0.83333350  0.81754037  1
  Ti  Ti3_0  1  0.33333350  0.16666650  0.06754037  1
  Ti  Ti3_1  1  0.33333350  0.16666650  0.56754037  1
  Ti  Ti3_2  1  0.33333350  0.66666650  0.06754037  1
  Ti  Ti3_3  1  0.33333350  0.66666650  0.56754037  1
  Ti  Ti3_4  1  0.83333350  0.16666650  0.06754037  1
  Ti  Ti3_5  1  0.83333350  0.16666650  0.56754037  1
  Ti  Ti3_6  1  0.83333350  0.66666650  0.06754037  1
  Ti  Ti3_7  1  0.83333350  0.66666650  0.56754037  1
  Ti  Ti4_0  1  0.00000000  0.00000000  0.25000000  1
  Ti  Ti4_1  1  0.00000000  0.00000000  0.75000000  1
  Ti  Ti4_2  1  0.00000000  0.50000000  0.25000000  1
  Ti  Ti4_3  1  0.00000000  0.50000000  0.75000000  1
  Ti  Ti4_4  1  0.50000000  0.00000000  0.25000000  1
  Ti  Ti4_5  1  0.50000000  0.00000000  0.75000000  1
  Ti  Ti4_6  1  0.50000000  0.50000000  0.25000000  1
  Ti  Ti4_7  1  0.50000000  0.50000000  0.75000000  1
  Ti  Ti5_0  1  0.00000000  0.00000000  0.00000000  1
  Ti  Ti5_1  1  0.00000000  0.00000000  0.50000000  1
  Ti  Ti5_2  1  0.00000000  0.50000000  0.00000000  1
  Ti  Ti5_3  1  0.00000000  0.50000000  0.50000000  1
  Ti  Ti5_4  1  0.50000000  0.00000000  0.00000000  1
  Ti  Ti5_5  1  0.50000000  0.00000000  0.50000000  1
  Ti  Ti5_6  1  0.50000000  0.50000000  0.00000000  1
  Ti  Ti5_7  1  0.50000000  0.50000000  0.50000000  1
  Si  Si0_0  1  0.00000000  0.00000000  0.37500000  1
  Si  Si0_1  1  0.00000000  0.00000000  0.87500000  1
  Si  Si0_2  1  0.00000000  0.50000000  0.37500000  1
  Si  Si0_3  1  0.00000000  0.50000000  0.87500000  1
  Si  Si0_4  1  0.50000000  0.00000000  0.37500000  1
  Si  Si0_5  1  0.50000000  0.00000000  0.87500000  1
  Si  Si0_6  1  0.50000000  0.50000000  0.37500000  1
  Si  Si0_7  1  0.50000000  0.50000000  0.87500000  1
  Si  Si1_0  1  0.00000000  0.00000000  0.12500000  1
  Si  Si1_1  1  0.00000000  0.00000000  0.62500000  1
  Si  Si1_2  1  0.00000000  0.50000000  0.12500000  1
  Si  Si1_3  1  0.00000000  0.50000000  0.62500000  1
  Si  Si1_4  1  0.50000000  0.00000000  0.12500000  1
  Si  Si1_5  1  0.50000000  0.00000000  0.62500000  1
  Si  Si1_6  1  0.50000000  0.50000000  0.12500000  1
  Si  Si1_7  1  0.50000000  0.50000000  0.62500000  1
  C  C0_0  1  0.16666650  0.33333350  0.21375342  1
  C  C0_1  1  0.16666650  0.33333350  0.71375342  1
  C  C0_2  1  0.16666650  0.83333350  0.21375342  1
  C  C0_3  1  0.16666650  0.83333350  0.71375342  1
  C  C0_4  1  0.66666650  0.33333350  0.21375342  1
  C  C0_5  1  0.66666650  0.33333350  0.71375342  1
  C  C0_6  1  0.66666650  0.83333350  0.21375342  1
  C  C0_7  1  0.66666650  0.83333350  0.71375342  1
  C  C1_0  1  0.33333350  0.16666650  0.46375342  1
  C  C1_1  1  0.33333350  0.16666650  0.96375342  1
  C  C1_2  1  0.33333350  0.66666650  0.46375342  1
  C  C1_3  1  0.33333350  0.66666650  0.96375342  1
  C  C1_4  1  0.83333350  0.16666650  0.46375342  1
  C  C1_5  1  0.83333350  0.16666650  0.96375342  1
  C  C1_6  1  0.83333350  0.66666650  0.46375342  1
  C  C1_7  1  0.83333350  0.66666650  0.96375342  1
  C  C2_0  1  0.16666650  0.33333350  0.03624658  1
  C  C2_1  1  0.16666650  0.33333350  0.53624658  1
  C  C2_2  1  0.16666650  0.83333350  0.03624658  1
  C  C2_3  1  0.16666650  0.83333350  0.53624658  1
  C  C2_4  1  0.66666650  0.33333350  0.03624658  1
  C  C2_5  1  0.66666650  0.33333350  0.53624658  1
  C  C2_6  1  0.66666650  0.83333350  0.03624658  1
  C  C2_7  1  0.66666650  0.83333350  0.53624658  1
  C  C3_0  1  0.33333350  0.16666650  0.28624658  1
  C  C3_1  1  0.33333350  0.16666650  0.78624658  1
  C  C3_2  1  0.33333350  0.66666650  0.28624658  1
  C  C3_3  1  0.33333350  0.66666650  0.78624658  1
  C  C3_4  1  0.83333350  0.16666650  0.28624658  1
  C  C3_5  1  0.83333350  0.16666650  0.78624658  1
  C  C3_6  1  0.83333350  0.66666650  0.28624658  1
  C  C3_7  1  0.83333350  0.66666650  0.78624658  1
loop_
_geom_bond_atom_site_label_1
_geom_bond_atom_site_label_2
_geom_bond_distance
_geom_bond_site_symmetry_2
Si0_0 Ti1_2 2.697178 1_545
Si0_0 Ti2_2 2.697178 1_545
Si0_0 Ti2_6 2.697180 1_445
Si0_0 Ti1_6 2.697180 1_445
Si0_0 Ti2_0 2.697180 1_555
Si0_0 Ti1_0 2.697180 1_555
Si0_0 Si0_6 3.069522 1_445
Si0_0 Si0_6 3.069522 1_555
Si0_0 Si0_4 3.069523 1_555
Si0_0 Si0_4 3.069523 1_455
Si0_0 Si0_2 3.069523 1_545
Si0_0 Si0_2 3.069523 1_555
Si0_1 Ti2_3 2.697178 1_545
Si0_1 Ti1_3 2.697178 1_545
Si0_1 Ti2_7 2.697180 1_445
Si0_1 Ti1_7 2.697180 1_445
Si0_1 Ti2_1 2.697180 1_555
Si0_1 Ti1_1 2.697180 1_555
Si0_1 Si0_7 3.069522 1_445
Si0_1 Si0_7 3.069522 1_555
Si0_1 Si0_5 3.069523 1_555
Si0_1 Si0_5 3.069523 1_455
Si0_1 Si0_3 3.069523 1_545
Si0_1 Si0_3 3.069523 1_555
Si0_2 Ti2_0 2.697178 1_555
Si0_2 Ti1_0 2.697178 1_555
Si0_2 Ti2_4 2.697180 1_455
Si0_2 Ti1_4 2.697180 1_455
Si0_2 Ti2_2 2.697180 1_555
Si0_2 Ti1_2 2.697180 1_555
Si0_2 Si0_4 3.069522 1_455
Si0_2 Si0_4 3.069522 1_565
Si0_2 Si0_6 3.069522 1_555
Si0_2 Si0_6 3.069523 1_455
Si0_3 Ti2_1 2.697178 1_555
Si0_3 Ti1_1 2.697178 1_555
Si0_3 Ti2_5 2.697180 1_455
Si0_3 Ti1_5 2.697180 1_455
Si0_3 Ti2_3 2.697180 1_555
Si0_3 Ti1_3 2.697180 1_555
Si0_3 Si0_5 3.069522 1_565
Si0_3 Si0_5 3.069522 1_455
Si0_3 Si0_7 3.069522 1_555
Si0_3 Si0_7 3.069523 1_455
Si0_4 Ti2_6 2.697178 1_545
Si0_4 Ti1_6 2.697178 1_545
Si0_4 Ti1_2 2.697180 1_545
Si0_4 Ti2_2 2.697180 1_545
Si0_4 Ti1_4 2.697180 1_555
Si0_4 Ti2_4 2.697180 1_555
Si0_4 Si0_6 3.069523 1_545
Si0_4 Si0_6 3.069523 1_555
Si0_5 Ti2_7 2.697178 1_545
Si0_5 Ti1_7 2.697178 1_545
Si0_5 Ti2_3 2.697180 1_545
Si0_5 Ti1_3 2.697180 1_545
Si0_5 Ti2_5 2.697180 1_555
Si0_5 Ti1_5 2.697180 1_555
Si0_5 Si0_7 3.069523 1_545
Si0_5 Si0_7 3.069523 1_555
Si0_6 Ti1_4 2.697178 1_555
Si0_6 Ti2_4 2.697178 1_555
Si0_6 Ti2_0 2.697180 1_555
Si0_6 Ti1_0 2.697180 1_555
Si0_6 Ti2_6 2.697180 1_555
Si0_6 Ti1_6 2.697180 1_555
Si0_7 Ti2_5 2.697178 1_555
Si0_7 Ti1_5 2.697178 1_555
Si0_7 Ti2_1 2.697180 1_555
Si0_7 Ti1_1 2.697180 1_555
Si0_7 Ti2_7 2.697180 1_555
Si0_7 Ti1_7 2.697180 1_555
Si1_0 Ti3_4 2.697178 1_455
Si1_0 Ti0_4 2.697178 1_455
Si1_0 Ti3_0 2.697180 1_555
Si1_0 Ti0_0 2.697180 1_555
Si1_0 Ti3_6 2.697180 1_445
Si1_0 Ti0_6 2.697180 1_445
Si1_0 Si1_6 3.069522 1_445
Si1_0 Si1_6 3.069522 1_555
Si1_0 Si1_4 3.069523 1_455
Si1_0 Si1_4 3.069523 1_555
Si1_0 Si1_2 3.069523 1_545
Si1_0 Si1_2 3.069523 1_555
Si1_1 Ti3_5 2.697178 1_455
Si1_1 Ti0_5 2.697178 1_455
Si1_1 Ti3_1 2.697180 1_555
Si1_1 Ti0_1 2.697180 1_555
Si1_1 Ti3_7 2.697180 1_445
Si1_1 Ti0_7 2.697180 1_445
Si1_1 Si1_7 3.069522 1_445
Si1_1 Si1_7 3.069522 1_555
Si1_1 Si1_5 3.069523 1_455
Si1_1 Si1_5 3.069523 1_555
Si1_1 Si1_3 3.069523 1_555
Si1_1 Si1_3 3.069523 1_545
Si1_2 Ti3_6 2.697178 1_455
Si1_2 Ti0_6 2.697178 1_455
Si1_2 Ti3_2 2.697180 1_555
Si1_2 Ti0_2 2.697180 1_555
Si1_2 Ti3_4 2.697180 1_455
Si1_2 Ti0_4 2.697180 1_455
Si1_2 Si1_4 3.069522 1_455
Si1_2 Si1_4 3.069522 1_565
Si1_2 Si1_6 3.069522 1_555
Si1_2 Si1_6 3.069523 1_455
Si1_3 Ti3_7 2.697178 1_455
Si1_3 Ti0_7 2.697178 1_455
Si1_3 Ti3_3 2.697180 1_555
Si1_3 Ti0_3 2.697180 1_555
Si1_3 Ti0_5 2.697180 1_455
Si1_3 Ti3_5 2.697180 1_455
Si1_3 Si1_5 3.069522 1_565
Si1_3 Si1_5 3.069522 1_455
Si1_3 Si1_7 3.069522 1_555
Si1_3 Si1_7 3.069523 1_455
Si1_4 Ti3_0 2.697178 1_555
Si1_4 Ti0_0 2.697178 1_555
Si1_4 Ti0_4 2.697180 1_555
Si1_4 Ti3_4 2.697180 1_555
Si1_4 Ti3_2 2.697180 1_545
Si1_4 Ti0_2 2.697180 1_545
Si1_4 Si1_6 3.069523 1_545
Si1_4 Si1_6 3.069523 1_555
Si1_5 Ti0_1 2.697178 1_555
Si1_5 Ti3_1 2.697178 1_555
Si1_5 Ti0_5 2.697180 1_555
Si1_5 Ti3_5 2.697180 1_555
Si1_5 Ti0_3 2.697180 1_545
Si1_5 Ti3_3 2.697180 1_545
Si1_5 Si1_7 3.069523 1_545
Si1_5 Si1_7 3.069523 1_555
Si1_6 Ti3_2 2.697178 1_555
Si1_6 Ti0_2 2.697178 1_555
Si1_6 Ti3_6 2.697180 1_555
Si1_6 Ti0_6 2.697180 1_555
Si1_6 Ti0_0 2.697180 1_555
Si1_6 Ti3_0 2.697180 1_555
Si1_7 Ti3_3 2.697178 1_555
Si1_7 Ti0_3 2.697178 1_555
Si1_7 Ti3_7 2.697180 1_555
Si1_7 Ti0_7 2.697180 1_555
Si1_7 Ti0_1 2.697180 1_555
Si1_7 Ti3_1 2.697180 1_555
C0_0 Ti0_4 2.089709 1_455
C0_0 Ti0_2 2.089709 1_555
C0_0 Ti0_0 2.089714 1_555
C0_0 Ti4_2 2.187635 1_555
C0_0 Ti4_6 2.187637 1_555
C0_0 Ti4_0 2.187637 1_555
C0_1 Ti0_5 2.089709 1_455
C0_1 Ti0_3 2.089709 1_555
C0_1 Ti0_1 2.089714 1_555
C0_1 Ti4_3 2.187635 1_555
C0_1 Ti4_7 2.187637 1_555
C0_1 Ti4_1 2.187637 1_555
C0_2 Ti0_6 2.089709 1_455
C0_2 Ti0_0 2.089709 1_565
C0_2 Ti0_2 2.089714 1_555
C0_2 Ti4_0 2.187635 1_565
C0_2 Ti4_4 2.187637 1_565
C0_2 Ti4_2 2.187637 1_555
C0_3 Ti0_7 2.089709 1_455
C0_3 Ti0_1 2.089709 1_565
C0_3 Ti0_3 2.089714 1_555
C0_3 Ti4_1 2.187635 1_565
C0_3 Ti4_5 2.187637 1_565
C0_3 Ti4_3 2.187637 1_555
C0_4 Ti0_0 2.089709 1_555
C0_4 Ti0_6 2.089709 1_555
C0_4 Ti0_4 2.089714 1_555
C0_4 Ti4_6 2.187635 1_555
C0_4 Ti4_2 2.187637 1_655
C0_4 Ti4_4 2.187637 1_555
C0_5 Ti0_1 2.089709 1_555
C0_5 Ti0_7 2.089709 1_555
C0_5 Ti0_5 2.089714 1_555
C0_5 Ti4_7 2.187635 1_555
C0_5 Ti4_3 2.187637 1_655
C0_5 Ti4_5 2.187637 1_555
C0_6 Ti0_2 2.089709 1_555
C0_6 Ti0_4 2.089709 1_565
C0_6 Ti0_6 2.089714 1_555
C0_6 Ti4_4 2.187635 1_565
C0_6 Ti4_0 2.187637 1_665
C0_6 Ti4_6 2.187637 1_555
C0_7 Ti0_3 2.089709 1_555
C0_7 Ti0_5 2.089709 1_565
C0_7 Ti0_7 2.089714 1_555
C0_7 Ti4_5 2.187635 1_565
C0_7 Ti4_1 2.187637 1_665
C0_7 Ti4_7 2.187637 1_555
C1_0 Ti1_4 2.089709 1_555
C1_0 Ti1_2 2.089709 1_545
C1_0 Ti1_0 2.089714 1_555
C1_0 Ti5_5 2.187635 1_555
C1_0 Ti5_1 2.187637 1_555
C1_0 Ti5_7 2.187637 1_555
C1_1 Ti1_5 2.089709 1_555
C1_1 Ti1_3 2.089709 1_545
C1_1 Ti1_1 2.089714 1_555
C1_1 Ti5_4 2.187635 1_556
C1_1 Ti5_0 2.187637 1_556
C1_1 Ti5_6 2.187637 1_556
C1_2 Ti1_6 2.089709 1_555
C1_2 Ti1_0 2.089709 1_555
C1_2 Ti1_2 2.089714 1_555
C1_2 Ti5_7 2.187635 1_555
C1_2 Ti5_3 2.187637 1_555
C1_2 Ti5_5 2.187637 1_565
C1_3 Ti1_7 2.089709 1_555
C1_3 Ti1_1 2.089709 1_555
C1_3 Ti1_3 2.089714 1_555
C1_3 Ti5_6 2.187635 1_556
C1_3 Ti5_2 2.187637 1_556
C1_3 Ti5_4 2.187637 1_566
C1_4 Ti1_0 2.089709 1_655
C1_4 Ti1_6 2.089709 1_545
C1_4 Ti1_4 2.089714 1_555
C1_4 Ti5_1 2.187635 1_655
C1_4 Ti5_5 2.187637 1_555
C1_4 Ti5_3 2.187637 1_655
C1_5 Ti1_1 2.089709 1_655
C1_5 Ti1_7 2.089709 1_545
C1_5 Ti1_5 2.089714 1_555
C1_5 Ti5_0 2.187635 1_656
C1_5 Ti5_4 2.187637 1_556
C1_5 Ti5_2 2.187637 1_656
C1_6 Ti1_2 2.089709 1_655
C1_6 Ti1_4 2.089709 1_555
C1_6 Ti1_6 2.089714 1_555
C1_6 Ti5_3 2.187635 1_655
C1_6 Ti5_7 2.187637 1_555
C1_6 Ti5_1 2.187637 1_665
C1_7 Ti1_3 2.089709 1_655
C1_7 Ti1_5 2.089709 1_555
C1_7 Ti1_7 2.089714 1_555
C1_7 Ti5_2 2.187635 1_656
C1_7 Ti5_6 2.187637 1_556
C1_7 Ti5_0 2.187637 1_666
C2_0 Ti3_4 2.089709 1_455
C2_0 Ti3_2 2.089709 1_555
C2_0 Ti3_0 2.089714 1_555
C2_0 Ti5_2 2.187635 1_555
C2_0 Ti5_6 2.187637 1_555
C2_0 Ti5_0 2.187637 1_555
C2_1 Ti3_5 2.089709 1_455
C2_1 Ti3_3 2.089709 1_555
C2_1 Ti3_1 2.089714 1_555
C2_1 Ti5_3 2.187635 1_555
C2_1 Ti5_7 2.187637 1_555
C2_1 Ti5_1 2.187637 1_555
C2_2 Ti3_6 2.089709 1_455
C2_2 Ti3_0 2.089709 1_565
C2_2 Ti3_2 2.089714 1_555
C2_2 Ti5_0 2.187635 1_565
C2_2 Ti5_4 2.187637 1_565
C2_2 Ti5_2 2.187637 1_555
C2_3 Ti3_7 2.089709 1_455
C2_3 Ti3_1 2.089709 1_565
C2_3 Ti3_3 2.089714 1_555
C2_3 Ti5_1 2.187635 1_565
C2_3 Ti5_5 2.187637 1_565
C2_3 Ti5_3 2.187637 1_555
C2_4 Ti3_0 2.089709 1_555
C2_4 Ti3_6 2.089709 1_555
C2_4 Ti3_4 2.089714 1_555
C2_4 Ti5_6 2.187635 1_555
C2_4 Ti5_2 2.187637 1_655
C2_4 Ti5_4 2.187637 1_555
C2_5 Ti3_1 2.089709 1_555
C2_5 Ti3_7 2.089709 1_555
C2_5 Ti3_5 2.089714 1_555
C2_5 Ti5_7 2.187635 1_555
C2_5 Ti5_3 2.187637 1_655
C2_5 Ti5_5 2.187637 1_555
C2_6 Ti3_2 2.089709 1_555
C2_6 Ti3_4 2.089709 1_565
C2_6 Ti3_6 2.089714 1_555
C2_6 Ti5_4 2.187635 1_565
C2_6 Ti5_0 2.187637 1_665
C2_6 Ti5_6 2.187637 1_555
C2_7 Ti3_3 2.089709 1_555
C2_7 Ti3_5 2.089709 1_565
C2_7 Ti3_7 2.089714 1_555
C2_7 Ti5_5 2.187635 1_565
C2_7 Ti5_1 2.187637 1_665
C2_7 Ti5_7 2.187637 1_555
C3_0 Ti2_4 2.089709 1_555
C3_0 Ti2_2 2.089709 1_545
C3_0 Ti2_0 2.089714 1_555
C3_0 Ti4_4 2.187635 1_555
C3_0 Ti4_0 2.187637 1_555
C3_0 Ti4_6 2.187637 1_555
C3_1 Ti2_5 2.089709 1_555
C3_1 Ti2_3 2.089709 1_545
C3_1 Ti2_1 2.089714 1_555
C3_1 Ti4_5 2.187635 1_555
C3_1 Ti4_1 2.187637 1_555
C3_1 Ti4_7 2.187637 1_555
C3_2 Ti2_6 2.089709 1_555
C3_2 Ti2_0 2.089709 1_555
C3_2 Ti2_2 2.089714 1_555
C3_2 Ti4_6 2.187635 1_555
C3_2 Ti4_2 2.187637 1_555
C3_2 Ti4_4 2.187637 1_565
C3_3 Ti2_7 2.089709 1_555
C3_3 Ti2_1 2.089709 1_555
C3_3 Ti2_3 2.089714 1_555
C3_3 Ti4_7 2.187635 1_555
C3_3 Ti4_3 2.187637 1_555
C3_3 Ti4_5 2.187637 1_565
C3_4 Ti2_0 2.089709 1_655
C3_4 Ti2_6 2.089709 1_545
C3_4 Ti2_4 2.089714 1_555
C3_4 Ti4_0 2.187635 1_655
C3_4 Ti4_4 2.187637 1_555
C3_4 Ti4_2 2.187637 1_655
C3_5 Ti2_1 2.089709 1_655
C3_5 Ti2_7 2.089709 1_545
C3_5 Ti2_5 2.089714 1_555
C3_5 Ti4_1 2.187635 1_655
C3_5 Ti4_5 2.187637 1_555
C3_5 Ti4_3 2.187637 1_655
C3_6 Ti2_2 2.089709 1_655
C3_6 Ti2_4 2.089709 1_555
C3_6 Ti2_6 2.089714 1_555
C3_6 Ti4_2 2.187635 1_655
C3_6 Ti4_6 2.187637 1_555
C3_6 Ti4_0 2.187637 1_665
C3_7 Ti2_3 2.089709 1_655
C3_7 Ti2_5 2.089709 1_555
C3_7 Ti2_7 2.089714 1_555
C3_7 Ti4_3 2.187635 1_655
C3_7 Ti4_7 2.187637 1_555
C3_7 Ti4_1 2.187637 1_665
