# generated using pymatgen
data_Na2Cd3(P2O7)2
_symmetry_space_group_name_H-M   'P 1'
_cell_length_a   5.74810200
_cell_length_b   7.15398143
_cell_length_c   7.98126588
_cell_angle_alpha   77.09694566
_cell_angle_beta   82.51295525
_cell_angle_gamma   68.23070113
_symmetry_Int_Tables_number   1
_chemical_formula_structural   Na2Cd3(P2O7)2
_chemical_formula_sum   'Na2 Cd3 P4 O14'
_cell_volume   296.69273365
_cell_formula_units_Z   1
loop_
 _symmetry_equiv_pos_site_id
 _symmetry_equiv_pos_as_xyz
  1  'x, y, z'
loop_
 _atom_site_type_symbol
 _atom_site_label
 _atom_site_symmetry_multiplicity
 _atom_site_fract_x
 _atom_site_fract_y
 _atom_site_fract_z
 _atom_site_occupancy
  Na  Na0  1  0.59143000  0.00794100  0.68274800  1
  Na  Na1  1  0.40857000  0.99205900  0.31725200  1
  Cd  Cd0  1  0.18932500  0.53391900  0.30717500  1
  Cd  Cd1  1  0.00000000  0.00000000  0.00000000  1
  Cd  Cd2  1  0.81067500  0.46608100  0.69282500  1
  P  P0  1  0.19904400  0.73190300  0.66833100  1
  P  P1  1  0.65270100  0.67326200  0.07728400  1
  P  P2  1  0.34729900  0.32673800  0.92271600  1
  P  P3  1  0.80095600  0.26809700  0.33166900  1
  O  O0  1  0.25454900  0.56990200  0.85128900  1
  O  O1  1  0.54964900  0.26566500  0.42332700  1
  O  O2  1  0.68345600  0.69942900  0.88352200  1
  O  O3  1  0.96212900  0.06771900  0.27454100  1
  O  O4  1  0.94241700  0.34515500  0.43749700  1
  O  O5  1  0.05758300  0.65484500  0.56250300  1
  O  O6  1  0.31654400  0.30057100  0.11647800  1
  O  O7  1  0.45035100  0.73433500  0.57667300  1
  O  O8  1  0.62556200  0.23959300  0.85484200  1
  O  O9  1  0.81366200  0.76196300  0.15538700  1
  O  O10  1  0.18633800  0.23803700  0.84461300  1
  O  O11  1  0.37443800  0.76040700  0.14515800  1
  O  O12  1  0.03787100  0.93228100  0.72545900  1
  O  O13  1  0.74545100  0.43009800  0.14871100  1
loop_
_geom_bond_atom_site_label_1
_geom_bond_atom_site_label_2
_geom_bond_distance
_geom_bond_site_symmetry_2
Na0 O2 2.343983 1_545
Na0 O1 2.416679 1_555
Na0 O8 2.449383 1_555
Na0 O12 2.471799 1_645
Na0 O10 2.668954 1_555
Na0 O7 2.702230 1_545
Na0 O5 3.142240 1_645
Na1 O6 2.343983 1_565
Na1 O7 2.416679 1_555
Na1 O11 2.449383 1_555
Na1 O3 2.471799 1_465
Na1 O9 2.668954 1_555
Na1 O1 2.702230 1_565
Na1 O4 3.142240 1_465
Cd0 O4 2.308542 1_455
Cd0 O5 2.318168 1_555
Cd0 O11 2.326836 1_555
Cd0 O6 2.361615 1_555
Cd0 O1 2.364247 1_555
Cd0 O9 2.444998 1_455
Cd1 O3 2.314074 1_455
Cd1 O12 2.314074 1_544
Cd1 O10 2.376710 1_554
Cd1 O9 2.376710 1_445
Cd1 O11 2.437042 1_545
Cd1 O8 2.437042 1_454
Cd2 O5 2.308542 1_655
Cd2 O4 2.318168 1_555
Cd2 O8 2.326836 1_555
Cd2 O2 2.361615 1_555
Cd2 O7 2.364247 1_555
Cd2 O10 2.444998 1_655
O0 P2 1.607416 1_555
O0 P0 1.633582 1_555
O1 P3 1.536138 1_555
O2 P1 1.510584 1_556
O3 P3 1.522452 1_555
O4 P3 1.548525 1_555
O5 P0 1.548525 1_555
O6 P2 1.510584 1_554
O7 P0 1.536138 1_555
O8 P2 1.557517 1_555
O9 P1 1.552331 1_555
O10 P2 1.552331 1_555
O11 P1 1.557517 1_555
O12 P0 1.522452 1_555
O13 P1 1.607416 1_555
O13 P3 1.633582 1_555
