# generated using pymatgen
data_NaZr2VF11
_symmetry_space_group_name_H-M   'P 1'
_cell_length_a   5.80239917
_cell_length_b   5.80239917
_cell_length_c   7.93098777
_cell_angle_alpha   69.28455570
_cell_angle_beta   69.28455570
_cell_angle_gamma   72.83324371
_symmetry_Int_Tables_number   1
_chemical_formula_structural   NaZr2VF11
_chemical_formula_sum   'Na1 Zr2 V1 F11'
_cell_volume   229.15469015
_cell_formula_units_Z   1
loop_
 _symmetry_equiv_pos_site_id
 _symmetry_equiv_pos_as_xyz
  1  'x, y, z'
loop_
 _atom_site_type_symbol
 _atom_site_label
 _atom_site_symmetry_multiplicity
 _atom_site_fract_x
 _atom_site_fract_y
 _atom_site_fract_z
 _atom_site_occupancy
  Na  Na0  1  0.00000000  0.00000000  0.00000000  1
  Zr  Zr0  1  0.50425500  0.50425500  0.76531300  1
  Zr  Zr1  1  0.49574500  0.49574500  0.23468700  1
  V  V0  1  0.00000000  0.00000000  0.50000000  1
  F  F0  1  0.22107100  0.80548900  0.69194100  1
  F  F1  1  0.19451100  0.77893000  0.30805900  1
  F  F2  1  0.77893000  0.19451100  0.30805900  1
  F  F3  1  0.80548900  0.22107000  0.69194100  1
  F  F4  1  0.50000000  0.50000000  0.50000000  1
  F  F5  1  0.66984900  0.33015100  0.00000000  1
  F  F6  1  0.33015100  0.66984900  0.00000000  1
  F  F7  1  0.25138400  0.25138400  0.35328400  1
  F  F8  1  0.74861600  0.74861600  0.64671600  1
  F  F9  1  0.26749400  0.26749400  0.88973300  1
  F  F10  1  0.73250600  0.73250600  0.11026700  1
loop_
_geom_bond_atom_site_label_1
_geom_bond_atom_site_label_2
_geom_bond_distance
_geom_bond_site_symmetry_2
F0 Zr0 2.086898 1_555
F0 V0 2.132588 1_565
F0 F6 2.535523 1_556
F0 F4 2.559536 1_555
F0 Na0 2.787029 1_566
F0 F3 2.863031 1_465
F0 F8 2.884120 1_555
F0 F9 2.935359 1_555
F1 Zr1 2.086902 1_555
F1 V0 2.132584 1_565
F1 F6 2.535526 1_555
F1 F4 2.559538 1_555
F1 Na0 2.787029 1_565
F1 F2 2.863027 1_465
F1 F7 2.884126 1_555
F1 F10 2.935359 1_555
F2 Zr1 2.086902 1_555
F2 V0 2.132584 1_655
F2 F5 2.535526 1_555
F2 F4 2.559538 1_555
F2 Na0 2.787029 1_655
F2 F7 2.884126 1_555
F3 Zr0 2.086902 1_555
F3 V0 2.132584 1_655
F3 F5 2.535526 1_556
F3 F4 2.559538 1_555
F3 Na0 2.787029 1_656
F3 F8 2.884126 1_555
F3 F9 2.935359 1_555
F4 Zr0 2.121961 1_555
F4 Zr1 2.121961 1_555
F4 F9 2.892819 1_555
F5 Zr1 2.184077 1_555
F5 Zr0 2.184077 1_554
F5 Na0 2.274482 1_655
F5 F6 2.340253 1_555
F5 F9 2.918530 1_554
F5 F7 2.981826 1_555
F5 F8 2.981826 1_554
F6 Zr1 2.184077 1_555
F6 Zr0 2.184077 1_554
F6 Na0 2.274482 1_565
F6 F9 2.918530 1_554
F6 F7 2.981826 1_555
F6 F8 2.981826 1_554
F7 Zr1 2.050668 1_555
F7 V0 2.112733 1_555
F8 Zr0 2.050668 1_555
F8 V0 2.112733 1_665
F9 Zr0 1.986022 1_555
F9 Na0 2.254862 1_556
F10 Zr1 1.986022 1_555
F10 Na0 2.254862 1_665
F10 F4 2.892819 1_555
F10 F5 2.918530 1_555
F10 F6 2.918530 1_555
F10 F2 2.935359 1_555
