# generated using pymatgen
data_CdI2
_symmetry_space_group_name_H-M   'P 1'
_cell_length_a   4.33445736
_cell_length_b   4.33445736
_cell_length_c   90.38394700
_cell_angle_alpha   90.00000000
_cell_angle_beta   90.00000000
_cell_angle_gamma   119.99999022
_symmetry_Int_Tables_number   1
_chemical_formula_structural   CdI2
_chemical_formula_sum   'Cd12 I24'
_cell_volume   1470.58945338
_cell_formula_units_Z   12
loop_
 _symmetry_equiv_pos_site_id
 _symmetry_equiv_pos_as_xyz
  1  'x, y, z'
loop_
 _atom_site_type_symbol
 _atom_site_label
 _atom_site_symmetry_multiplicity
 _atom_site_fract_x
 _atom_site_fract_y
 _atom_site_fract_z
 _atom_site_occupancy
  Cd  Cd0  1  0.00000000  0.00000000  0.27081700  1
  Cd  Cd1  1  0.00000000  0.00000000  0.93747500  1
  Cd  Cd2  1  0.66666700  0.33333300  0.02086500  1
  Cd  Cd3  1  0.00000000  0.00000000  0.43747700  1
  Cd  Cd4  1  0.66666700  0.33333300  0.77082600  1
  Cd  Cd5  1  0.00000000  0.00000000  0.10415100  1
  Cd  Cd6  1  0.66666700  0.33333300  0.35419800  1
  Cd  Cd7  1  0.00000000  0.00000000  0.60414700  1
  Cd  Cd8  1  0.66666700  0.33333300  0.18753300  1
  Cd  Cd9  1  0.00000000  0.00000000  0.85417200  1
  Cd  Cd10  1  0.66666700  0.33333300  0.52086300  1
  Cd  Cd11  1  0.00000000  0.00000000  0.68749400  1
  I  I0  1  0.00000000  0.00000000  0.16845700  1
  I  I1  1  0.66666700  0.33333300  0.58507400  1
  I  I2  1  0.33333300  0.66666700  0.78989400  1
  I  I3  1  0.66666700  0.33333300  0.08508100  1
  I  I4  1  0.33333300  0.66666700  0.45654500  1
  I  I5  1  0.33333300  0.66666700  0.20660400  1
  I  I6  1  0.33333300  0.66666700  0.95654300  1
  I  I7  1  0.66666700  0.33333300  0.83510600  1
  I  I8  1  0.66666700  0.33333300  0.91840400  1
  I  I9  1  0.33333300  0.66666700  0.53993300  1
  I  I10  1  0.33333300  0.66666700  0.12321900  1
  I  I11  1  0.33333300  0.66666700  0.03993600  1
  I  I12  1  0.00000000  0.00000000  0.75174500  1
  I  I13  1  0.33333300  0.66666700  0.28988500  1
  I  I14  1  0.33333300  0.66666700  0.37326900  1
  I  I15  1  0.00000000  0.00000000  0.33512100  1
  I  I16  1  0.33333300  0.66666700  0.62321700  1
  I  I17  1  0.66666700  0.33333300  0.41840500  1
  I  I18  1  0.33333300  0.66666700  0.70655800  1
  I  I19  1  0.00000000  0.00000000  0.00178500  1
  I  I20  1  0.66666700  0.33333300  0.66843000  1
  I  I21  1  0.66666700  0.33333300  0.25174700  1
  I  I22  1  0.33333300  0.66666700  0.87324200  1
  I  I23  1  0.00000000  0.00000000  0.50178300  1
loop_
_geom_bond_atom_site_label_1
_geom_bond_atom_site_label_2
_geom_bond_distance
_geom_bond_site_symmetry_2
Cd0 I13 3.038543 1_545
Cd0 I13 3.038546 1_445
Cd0 I13 3.038546 1_555
Cd0 I21 3.038645 1_455
Cd0 I21 3.038649 1_555
Cd0 I21 3.038649 1_445
Cd1 I6 3.038543 1_545
Cd1 I6 3.038546 1_445
Cd1 I6 3.038546 1_555
Cd1 I8 3.038697 1_455
Cd1 I8 3.038700 1_555
Cd1 I8 3.038700 1_445
Cd2 I11 3.038697 1_545
Cd2 I11 3.038697 1_655
Cd2 I11 3.038703 1_555
Cd2 I19 3.039158 1_655
Cd2 I19 3.039162 1_555
Cd2 I19 3.039162 1_665
Cd3 I4 3.038543 1_545
Cd3 I4 3.038546 1_555
Cd3 I4 3.038546 1_445
Cd3 I17 3.038748 1_455
Cd3 I17 3.038751 1_445
Cd3 I17 3.038751 1_555
Cd4 I2 3.038543 1_545
Cd4 I2 3.038543 1_655
Cd4 I2 3.038549 1_555
Cd4 I12 3.039210 1_655
Cd4 I12 3.039213 1_665
Cd4 I12 3.039213 1_555
Cd5 I10 3.038543 1_545
Cd5 I10 3.038546 1_555
Cd5 I10 3.038546 1_445
Cd5 I3 3.038645 1_455
Cd5 I3 3.038649 1_445
Cd5 I3 3.038649 1_555
Cd6 I14 3.038697 1_545
Cd6 I14 3.038697 1_655
Cd6 I14 3.038703 1_555
Cd6 I15 3.039004 1_655
Cd6 I15 3.039008 1_555
Cd6 I15 3.039008 1_665
Cd7 I16 3.038645 1_545
Cd7 I16 3.038649 1_445
Cd7 I16 3.038649 1_555
Cd7 I1 3.038799 1_455
Cd7 I1 3.038803 1_445
Cd7 I1 3.038803 1_555
Cd8 I5 3.038697 1_545
Cd8 I5 3.038697 1_655
Cd8 I5 3.038703 1_555
Cd8 I0 3.038953 1_655
Cd8 I0 3.038956 1_665
Cd8 I0 3.038956 1_555
Cd9 I7 3.038440 1_455
Cd9 I7 3.038444 1_555
Cd9 I7 3.038444 1_445
Cd9 I22 3.038645 1_545
Cd9 I22 3.038649 1_555
Cd9 I22 3.038649 1_445
Cd10 I9 3.038646 1_545
Cd10 I9 3.038646 1_655
Cd10 I9 3.038652 1_555
Cd10 I23 3.039158 1_655
Cd10 I23 3.039162 1_555
Cd10 I23 3.039162 1_665
Cd11 I20 3.038338 1_455
Cd11 I18 3.038338 1_545
Cd11 I20 3.038341 1_555
Cd11 I20 3.038341 1_445
Cd11 I18 3.038341 1_555
Cd11 I18 3.038341 1_445
