# generated using pymatgen
data_Ba2H14C4O15
_symmetry_space_group_name_H-M   'P 1'
_cell_length_a   7.81419948
_cell_length_b   7.81419948
_cell_length_c   15.07041034
_cell_angle_alpha   69.89597198
_cell_angle_beta   69.89597198
_cell_angle_gamma   60.32844085
_symmetry_Int_Tables_number   1
_chemical_formula_structural   Ba2H14C4O15
_chemical_formula_sum   'Ba4 H28 C8 O30'
_cell_volume   733.65978743
_cell_formula_units_Z   2
loop_
 _symmetry_equiv_pos_site_id
 _symmetry_equiv_pos_as_xyz
  1  'x, y, z'
loop_
 _atom_site_type_symbol
 _atom_site_label
 _atom_site_symmetry_multiplicity
 _atom_site_fract_x
 _atom_site_fract_y
 _atom_site_fract_z
 _atom_site_occupancy
  Ba  Ba0  1  0.62220100  0.74186200  0.21904300  1
  Ba  Ba1  1  0.25813800  0.37779900  0.28095700  1
  Ba  Ba2  1  0.37779900  0.25813800  0.78095700  1
  Ba  Ba3  1  0.74186200  0.62220100  0.71904300  1
  H  H0  1  0.33602900  0.17872700  0.07149100  1
  H  H1  1  0.82127300  0.66397100  0.42850900  1
  H  H2  1  0.66397100  0.82127300  0.92850900  1
  H  H3  1  0.17872700  0.33602900  0.57149100  1
  H  H4  1  0.52882700  0.18785700  0.07627400  1
  H  H5  1  0.81214300  0.47117300  0.42372600  1
  H  H6  1  0.47117300  0.81214300  0.92372600  1
  H  H7  1  0.18785700  0.52882700  0.57627400  1
  H  H8  1  0.38487300  0.57205300  0.41418400  1
  H  H9  1  0.42794700  0.61512700  0.08581600  1
  H  H10  1  0.61512700  0.42794700  0.58581600  1
  H  H11  1  0.57205300  0.38487300  0.91418400  1
  H  H12  1  0.57309400  0.36808200  0.40381800  1
  H  H13  1  0.63191800  0.42690600  0.09618200  1
  H  H14  1  0.42690600  0.63191800  0.59618200  1
  H  H15  1  0.36808200  0.57309400  0.90381800  1
  H  H16  1  0.97070600  0.26891100  0.20083300  1
  H  H17  1  0.73108900  0.02929400  0.29916700  1
  H  H18  1  0.02929400  0.73108900  0.79916700  1
  H  H19  1  0.26891100  0.97070600  0.70083300  1
  H  H20  1  0.89429400  0.23149500  0.31302100  1
  H  H21  1  0.76850500  0.10570600  0.18697900  1
  H  H22  1  0.10570600  0.76850500  0.68697900  1
  H  H23  1  0.23149500  0.89429400  0.81302100  1
  H  H24  1  0.12652000  0.89596000  0.19568500  1
  H  H25  1  0.10404000  0.87348000  0.30431500  1
  H  H26  1  0.87348000  0.10404000  0.80431500  1
  H  H27  1  0.89596000  0.12652000  0.69568500  1
  C  C0  1  0.95898700  0.78658800  0.97688700  1
  C  C1  1  0.21341200  0.04101300  0.52311300  1
  C  C2  1  0.04101300  0.21341200  0.02311300  1
  C  C3  1  0.78658800  0.95898700  0.47688700  1
  C  C4  1  0.09784900  0.72636100  0.04656400  1
  C  C5  1  0.27363900  0.90215100  0.45343600  1
  C  C6  1  0.90215100  0.27363900  0.95343600  1
  C  C7  1  0.72636100  0.09784900  0.54656400  1
  O  O0  1  0.78948200  0.78198900  0.01411800  1
  O  O1  1  0.21801100  0.21051800  0.48588200  1
  O  O2  1  0.21051800  0.21801100  0.98588200  1
  O  O3  1  0.78198900  0.78948200  0.51411800  1
  O  O4  1  0.02868600  0.83256900  0.88644900  1
  O  O5  1  0.16743100  0.97131400  0.61355100  1
  O  O6  1  0.97131400  0.16743100  0.11355100  1
  O  O7  1  0.83256900  0.02868600  0.38644900  1
  O  O8  1  0.03078300  0.67902000  0.13605300  1
  O  O9  1  0.32098000  0.96921700  0.36394700  1
  O  O10  1  0.96921700  0.32098000  0.86394700  1
  O  O11  1  0.67902000  0.03078300  0.63605300  1
  O  O12  1  0.27156800  0.72471500  0.00784800  1
  O  O13  1  0.27528500  0.72843200  0.49215200  1
  O  O14  1  0.72843200  0.27528500  0.99215200  1
  O  O15  1  0.72471500  0.27156800  0.50784800  1
  O  O16  1  0.41427000  0.15816600  0.11774700  1
  O  O17  1  0.84183400  0.58573000  0.38225300  1
  O  O18  1  0.58573000  0.84183400  0.88225300  1
  O  O19  1  0.15816600  0.41427000  0.61774700  1
  O  O20  1  0.46806200  0.47617000  0.36903700  1
  O  O21  1  0.52383000  0.53193800  0.13096300  1
  O  O22  1  0.53193800  0.52383000  0.63096300  1
  O  O23  1  0.47617000  0.46806200  0.86903700  1
  O  O24  1  0.93615600  0.32659100  0.25735300  1
  O  O25  1  0.67340900  0.06384400  0.24264700  1
  O  O26  1  0.06384400  0.67340900  0.74264700  1
  O  O27  1  0.32659100  0.93615600  0.75735300  1
  O  O28  1  0.19278500  0.80721500  0.25000000  1
  O  O29  1  0.80721500  0.19278500  0.75000000  1
loop_
_geom_bond_atom_site_label_1
_geom_bond_atom_site_label_2
_geom_bond_distance
_geom_bond_site_symmetry_2
Ba0 O8 2.850238 1_655
Ba0 O20 2.872070 1_555
Ba0 O0 2.882625 1_555
Ba0 O25 2.885650 1_565
Ba0 O9 2.908404 1_555
Ba0 O21 2.913847 1_555
Ba0 O16 2.934472 1_565
Ba0 O24 2.947215 1_555
Ba0 O28 3.021447 1_555
Ba0 O17 3.041353 1_555
Ba1 O9 2.850238 1_545
Ba1 O21 2.872070 1_555
Ba1 O1 2.882625 1_555
Ba1 O24 2.885650 1_455
Ba1 O8 2.908404 1_555
Ba1 O20 2.913847 1_555
Ba1 O17 2.934472 1_455
Ba1 O25 2.947215 1_555
Ba1 O28 3.021447 1_555
Ba1 O16 3.041353 1_555
Ba2 O10 2.850238 1_455
Ba2 O22 2.872070 1_555
Ba2 O2 2.882625 1_555
Ba2 O27 2.885650 1_545
Ba2 O11 2.908404 1_555
Ba2 O23 2.913847 1_555
Ba2 O18 2.934472 1_545
Ba2 O26 2.947215 1_555
Ba2 O29 3.021447 1_555
Ba2 O19 3.041353 1_555
Ba3 O11 2.850238 1_565
Ba3 O23 2.872070 1_555
Ba3 O3 2.882625 1_555
Ba3 O26 2.885650 1_655
Ba3 O10 2.908404 1_555
Ba3 O22 2.913847 1_555
Ba3 O19 2.934472 1_655
Ba3 O27 2.947215 1_555
Ba3 O29 3.021447 1_555
Ba3 O18 3.041353 1_555
H0 O16 1.002147 1_555
H0 O2 1.737869 1_554
H1 O17 1.002147 1_555
H1 O3 1.737869 1_555
H2 O18 1.002147 1_555
H2 O0 1.737869 1_556
H3 O19 1.002147 1_555
H3 O1 1.737869 1_555
H4 O16 0.983420 1_555
H5 O17 0.983420 1_555
H6 O18 0.983420 1_555
H7 O19 0.983420 1_555
H8 O20 1.005512 1_555
H8 O13 1.693080 1_555
H9 O21 1.005512 1_555
H9 O12 1.693080 1_555
H10 O22 1.005512 1_555
H10 O15 1.693080 1_555
H11 O23 1.005512 1_555
H11 O14 1.693080 1_555
H12 O20 0.983271 1_555
H13 O21 0.983271 1_555
H14 O22 0.983271 1_555
H15 O23 0.983271 1_555
H16 O24 0.993442 1_555
H16 O6 1.751598 1_555
H17 O25 0.993442 1_555
H17 O7 1.751598 1_555
H18 O26 0.993442 1_555
H18 O4 1.751598 1_555
H19 O27 0.993442 1_555
H19 O5 1.751598 1_555
H20 O24 0.993207 1_555
H20 O7 1.775675 1_555
H21 O25 0.993207 1_555
H21 O6 1.775675 1_555
H22 O26 0.993207 1_555
H22 O5 1.775675 1_555
H23 O27 0.993207 1_555
H23 O4 1.775675 1_555
H24 O28 0.982186 1_555
H25 O28 0.982186 1_555
H26 O29 0.982186 1_555
H27 O29 0.982186 1_555
C0 O0 1.262099 1_556
C0 O4 1.276763 1_655
C0 C4 1.561896 1_656
C1 O1 1.262099 1_555
C1 O5 1.276763 1_545
C1 C5 1.561896 1_545
C2 O2 1.262099 1_554
C2 O6 1.276763 1_455
C2 C6 1.561896 1_454
C3 O3 1.262099 1_555
C3 O7 1.276763 1_565
C3 C7 1.561896 1_565
C4 O8 1.262303 1_555
C4 O12 1.275429 1_555
C5 O9 1.262303 1_555
C5 O13 1.275429 1_555
C6 O10 1.262303 1_555
C6 O14 1.275429 1_555
C7 O11 1.262303 1_555
C7 O15 1.275429 1_555
