# generated using pymatgen
data_La3SiPd5
_symmetry_space_group_name_H-M   'P 1'
_cell_length_a   7.48288328
_cell_length_b   7.68331194
_cell_length_c   8.50494601
_cell_angle_alpha   116.85258871
_cell_angle_beta   116.09836962
_cell_angle_gamma   90.00000410
_symmetry_Int_Tables_number   1
_chemical_formula_structural   La3SiPd5
_chemical_formula_sum   'La6 Si2 Pd10'
_cell_volume   379.53175341
_cell_formula_units_Z   2
loop_
 _symmetry_equiv_pos_site_id
 _symmetry_equiv_pos_as_xyz
  1  'x, y, z'
loop_
 _atom_site_type_symbol
 _atom_site_label
 _atom_site_symmetry_multiplicity
 _atom_site_fract_x
 _atom_site_fract_y
 _atom_site_fract_z
 _atom_site_occupancy
  La  La0  1  0.54907939  0.77953866  0.59815877  1
  La  La1  1  0.95092061  0.18137988  0.40184123  1
  La  La2  1  0.45092061  0.22046134  0.40184123  1
  La  La3  1  0.75000000  0.61723014  0.00000000  1
  La  La4  1  0.04907939  0.81862012  0.59815877  1
  La  La5  1  0.25000000  0.38276986  -0.00000000  1
  Si  Si0  1  0.25000000  0.78770740  -0.00000000  1
  Si  Si1  1  0.75000000  0.21229260  0.00000000  1
  Pd  Pd0  1  0.08902538  0.45448686  0.28357749  1
  Pd  Pd1  1  0.80544790  0.17091138  0.71642251  1
  Pd  Pd2  1  0.58902538  0.82908962  0.28357749  1
  Pd  Pd3  1  0.69455210  0.45448686  0.28357749  1
  Pd  Pd4  1  0.91097462  0.54551314  0.71642251  1
  Pd  Pd5  1  0.19455310  0.82908962  0.28357749  1
  Pd  Pd6  1  0.41097462  0.17091138  0.71642251  1
  Pd  Pd7  1  0.30544790  0.54551314  0.71642251  1
  Pd  Pd8  1  0.50000000  -0.00000000  0.00000000  1
  Pd  Pd9  1  0.00000000  -0.00000000  0.00000000  1
loop_
_geom_bond_atom_site_label_1
_geom_bond_atom_site_label_2
_geom_bond_distance
_geom_bond_site_symmetry_2
La0 Pd5 3.002729 1_555
La0 Pd2 3.002733 1_555
La0 Pd1 3.050261 1_565
La0 Pd6 3.050261 1_565
La0 Si1 3.195241 1_566
La0 Pd9 3.249440 1_666
La0 Pd8 3.249440 1_566
La0 Pd7 3.288703 1_555
La0 Pd4 3.288703 1_555
La0 Pd0 3.332655 1_555
La0 Pd3 3.332655 1_555
La0 La4 3.753472 1_655
La0 La4 3.753472 1_555
La0 La2 3.771058 1_555
La0 La3 3.850364 1_556
La1 Pd7 3.002737 1_655
La1 Pd4 3.002737 1_555
La1 Pd0 3.050248 1_655
La1 Pd3 3.050248 1_555
La1 Si1 3.195241 1_555
La1 Pd8 3.249440 1_555
La1 Pd9 3.249440 1_655
La1 Pd2 3.288708 1_545
La1 Pd5 3.288713 1_645
La1 Pd1 3.332648 1_555
La1 Pd6 3.332649 1_655
La1 La2 3.753472 1_655
La1 La2 3.753472 1_555
La1 La4 3.771058 1_645
La1 La3 3.850364 1_545
La2 Pd6 3.002729 1_555
La2 Pd1 3.002729 1_555
La2 Pd5 3.050251 1_545
La2 Pd2 3.050255 1_545
La2 Si0 3.195241 1_545
La2 Pd9 3.249440 1_555
La2 Pd8 3.249440 1_555
La2 Pd3 3.288703 1_555
La2 Pd0 3.288703 1_555
La2 Pd4 3.332655 1_555
La2 Pd7 3.332655 1_555
La2 La5 3.850364 1_555
La3 Pd2 2.987786 1_555
La3 Pd7 2.987787 1_554
La3 Pd4 2.987787 1_554
La3 Pd5 2.987791 1_655
La3 Si1 3.111261 1_555
La3 Pd6 3.340249 1_554
La3 Pd1 3.340250 1_554
La3 Pd3 3.340260 1_555
La3 Pd0 3.340260 1_655
La3 Pd9 3.485502 1_665
La3 Pd8 3.485502 1_565
La4 Pd3 3.002737 1_455
La4 Pd0 3.002737 1_555
La4 Pd4 3.050248 1_455
La4 Pd7 3.050248 1_555
La4 Si0 3.195241 1_556
La4 Pd8 3.249440 1_566
La4 Pd9 3.249440 1_566
La4 Pd6 3.288713 1_565
La4 Pd1 3.288713 1_465
La4 Pd2 3.332651 1_455
La4 Pd5 3.332656 1_555
La4 La5 3.850364 1_566
La5 Pd1 2.987784 1_454
La5 Pd6 2.987784 1_554
La5 Pd3 2.987787 1_555
La5 Pd0 2.987787 1_555
La5 Si0 3.111261 1_555
La5 Pd5 3.340252 1_555
La5 Pd2 3.340255 1_555
La5 Pd7 3.340260 1_554
La5 Pd4 3.340260 1_454
La5 Pd9 3.485502 1_555
La5 Pd8 3.485502 1_555
Pd0 Si1 2.505541 1_455
Pd0 Pd3 2.951798 1_455
Pd0 Pd5 2.984548 1_555
Pd0 Pd7 3.015408 1_555
Pd0 Pd9 3.071237 1_555
Pd1 Si1 2.505546 1_556
Pd1 Pd6 2.951798 1_555
Pd1 Pd4 2.984539 1_555
Pd1 Pd2 3.015416 1_545
Pd1 Pd9 3.071249 1_656
Pd2 Si0 2.505543 1_555
Pd2 Pd5 2.951790 1_555
Pd2 Pd3 2.984546 1_555
Pd2 Pd8 3.071243 1_565
Pd3 Si1 2.505541 1_555
Pd3 Pd4 3.015408 1_555
Pd3 Pd8 3.071237 1_555
Pd4 Si0 2.505541 1_656
Pd4 Pd7 2.951798 1_655
Pd4 Pd9 3.071237 1_666
Pd5 Si0 2.505539 1_555
Pd5 Pd6 3.015416 1_565
Pd5 Pd9 3.071244 1_565
Pd6 Si1 2.505546 1_556
Pd6 Pd7 2.984539 1_555
Pd6 Pd8 3.071249 1_556
Pd7 Si0 2.505541 1_556
Pd7 Pd8 3.071237 1_566
Pd8 Si1 2.481958 1_555
Pd8 Si0 2.481958 1_545
Pd9 Si1 2.481958 1_455
Pd9 Si0 2.481958 1_545
