# generated using pymatgen
data_Eu2GeSe4
_symmetry_space_group_name_H-M   'P 1'
_cell_length_a   7.02367300
_cell_length_b   7.00886500
_cell_length_c   8.43232899
_cell_angle_alpha   72.19243799
_cell_angle_beta   90.00000000
_cell_angle_gamma   90.00000000
_symmetry_Int_Tables_number   1
_chemical_formula_structural   Eu2GeSe4
_chemical_formula_sum   'Eu4 Ge2 Se8'
_cell_volume   395.21833699
_cell_formula_units_Z   2
loop_
 _symmetry_equiv_pos_site_id
 _symmetry_equiv_pos_as_xyz
  1  'x, y, z'
loop_
 _atom_site_type_symbol
 _atom_site_label
 _atom_site_symmetry_multiplicity
 _atom_site_fract_x
 _atom_site_fract_y
 _atom_site_fract_z
 _atom_site_occupancy
  Eu  Eu0  1  0.75000000  0.27158100  0.05631000  1
  Eu  Eu1  1  0.25000000  0.72841900  0.94369000  1
  Eu  Eu2  1  0.25000000  0.75181200  0.43669700  1
  Eu  Eu3  1  0.75000000  0.24818800  0.56330300  1
  Ge  Ge0  1  0.75000000  0.73073800  0.19667900  1
  Ge  Ge1  1  0.25000000  0.26926200  0.80332100  1
  Se  Se0  1  0.49125100  0.49849000  0.25769100  1
  Se  Se1  1  0.75000000  0.91368100  0.90719100  1
  Se  Se2  1  0.25000000  0.08631900  0.09280900  1
  Se  Se3  1  0.00874900  0.49849000  0.25769100  1
  Se  Se4  1  0.25000000  0.07533400  0.61454500  1
  Se  Se5  1  0.99125100  0.50151000  0.74230900  1
  Se  Se6  1  0.50874900  0.50151000  0.74230900  1
  Se  Se7  1  0.75000000  0.92466600  0.38545500  1
loop_
_geom_bond_atom_site_label_1
_geom_bond_atom_site_label_2
_geom_bond_distance
_geom_bond_site_symmetry_2
Eu0 Se7 3.080198 1_545
Eu0 Se1 3.130940 1_544
Eu0 Se5 3.141506 1_554
Eu0 Se6 3.141506 1_554
Eu0 Se3 3.219863 1_655
Eu0 Se0 3.219863 1_555
Eu0 Se2 3.724155 1_555
Eu0 Se2 3.724155 1_655
Eu1 Se4 3.080198 1_565
Eu1 Se2 3.130940 1_566
Eu1 Se0 3.141506 1_556
Eu1 Se3 3.141506 1_556
Eu1 Se6 3.219863 1_555
Eu1 Se5 3.219863 1_455
Eu1 Se1 3.724155 1_555
Eu1 Se1 3.724155 1_455
Eu2 Se4 3.077432 1_565
Eu2 Se2 3.122045 1_565
Eu2 Se0 3.152971 1_555
Eu2 Se3 3.152971 1_555
Eu2 Se6 3.202553 1_555
Eu2 Se5 3.202553 1_455
Eu2 Se7 3.696927 1_555
Eu2 Se7 3.696927 1_455
Eu3 Se7 3.077432 1_545
Eu3 Se1 3.122045 1_545
Eu3 Se5 3.152971 1_555
Eu3 Se6 3.152971 1_555
Eu3 Se3 3.202553 1_655
Eu3 Se0 3.202553 1_555
Eu3 Se4 3.696927 1_555
Eu3 Se4 3.696927 1_655
Ge0 Se1 2.385044 1_554
Ge0 Se7 2.388457 1_555
Ge0 Se3 2.388515 1_655
Ge0 Se0 2.388515 1_555
Ge1 Se2 2.385044 1_556
Ge1 Se4 2.388457 1_555
Ge1 Se5 2.388515 1_455
Ge1 Se6 2.388515 1_555
