# generated using pymatgen
data_CsZnPO4
_symmetry_space_group_name_H-M   'P 1'
_cell_length_a   5.40448635
_cell_length_b   9.27260300
_cell_length_c   9.26948848
_cell_angle_alpha   90.00000000
_cell_angle_beta   90.00000000
_cell_angle_gamma   90.00000000
_symmetry_Int_Tables_number   1
_chemical_formula_structural   CsZnPO4
_chemical_formula_sum   'Cs4 Zn4 P4 O16'
_cell_volume   464.52796016
_cell_formula_units_Z   4
loop_
 _symmetry_equiv_pos_site_id
 _symmetry_equiv_pos_as_xyz
  1  'x, y, z'
loop_
 _atom_site_type_symbol
 _atom_site_label
 _atom_site_symmetry_multiplicity
 _atom_site_fract_x
 _atom_site_fract_y
 _atom_site_fract_z
 _atom_site_occupancy
  Cs  Cs0  1  0.76022476  0.00259251  0.79046383  1
  Cs  Cs1  1  0.26022476  0.49740749  0.29046383  1
  Cs  Cs2  1  0.26022476  0.99740749  0.20953617  1
  Cs  Cs3  1  0.76022476  0.50259251  0.70953617  1
  Zn  Zn0  1  0.25367108  0.32251442  0.91619278  1
  Zn  Zn1  1  0.75367108  0.17748558  0.41619278  1
  Zn  Zn2  1  0.25367108  0.82251442  0.58380722  1
  Zn  Zn3  1  0.75367108  0.67748558  0.08380722  1
  P  P0  1  0.75231474  0.80652330  0.41366326  1
  P  P1  1  0.25231474  0.19347670  0.58633674  1
  P  P2  1  0.75231474  0.30652330  0.08633674  1
  P  P3  1  0.25231474  0.69347670  0.91366326  1
  O  O0  1  0.58338277  0.75874234  0.53889607  1
  O  O1  1  0.08338277  0.74125766  0.03889607  1
  O  O2  1  0.65473271  0.23858635  0.22578967  1
  O  O3  1  0.58338277  0.25874234  0.96110393  1
  O  O4  1  0.01619249  0.75140091  0.44430264  1
  O  O5  1  0.15473271  0.26141365  0.72578967  1
  O  O6  1  0.51619249  0.24859909  0.55569736  1
  O  O7  1  0.01619249  0.25140091  0.05569736  1
  O  O8  1  0.25138045  0.02991962  0.60147078  1
  O  O9  1  0.08338277  0.24125766  0.46110393  1
  O  O10  1  0.75138045  0.47008038  0.10147078  1
  O  O11  1  0.75138045  0.97008038  0.39852922  1
  O  O12  1  0.25138045  0.52991962  0.89852922  1
  O  O13  1  0.15473271  0.76141365  0.77421033  1
  O  O14  1  0.65473271  0.73858635  0.27421033  1
  O  O15  1  0.51619249  0.74859909  0.94430264  1
loop_
_geom_bond_atom_site_label_1
_geom_bond_atom_site_label_2
_geom_bond_distance
_geom_bond_site_symmetry_2
Cs0 O3 3.009455 1_555
Cs0 O15 3.052832 1_545
Cs0 O13 3.093524 1_645
Cs0 O8 3.190506 1_655
Cs0 O5 3.265737 1_655
Cs0 O8 3.270472 1_555
Cs0 O0 3.385839 1_545
Cs0 O6 3.417400 1_555
Cs0 O7 3.644318 1_656
Cs0 O1 3.771671 1_646
Cs1 O9 3.009455 1_555
Cs1 O4 3.052832 1_555
Cs1 O14 3.093524 1_555
Cs1 O10 3.190506 1_555
Cs1 O2 3.265737 1_555
Cs1 O10 3.270472 1_455
Cs1 O1 3.385839 1_555
Cs1 O7 3.417400 1_555
Cs1 O6 3.644318 1_555
Cs1 O0 3.771671 1_555
Cs2 O1 3.009455 1_555
Cs2 O7 3.052832 1_565
Cs2 O2 3.093524 1_565
Cs2 O11 3.190506 1_555
Cs2 O14 3.265737 1_555
Cs2 O11 3.270472 1_455
Cs2 O9 3.385839 1_565
Cs2 O4 3.417400 1_555
Cs2 O15 3.644318 1_554
Cs2 O3 3.771671 1_564
Cs3 O0 3.009455 1_555
Cs3 O6 3.052832 1_555
Cs3 O5 3.093524 1_655
Cs3 O12 3.190506 1_655
Cs3 O13 3.265737 1_655
Cs3 O12 3.270472 1_555
Cs3 O3 3.385839 1_555
Cs3 O15 3.417400 1_555
Cs3 O4 3.644318 1_655
Cs3 O9 3.771671 1_655
O0 P0 1.541884 1_555
O0 Zn2 1.923078 1_555
O1 P3 1.541884 1_554
O1 Zn3 1.923078 1_455
O2 P2 1.531644 1_555
O2 Zn1 1.929228 1_555
O3 P2 1.541884 1_556
O3 Zn0 1.923078 1_555
O4 P0 1.541345 1_455
O4 Zn2 1.937592 1_555
O5 P1 1.531644 1_555
O5 Zn0 1.929228 1_555
O6 P1 1.541345 1_555
O6 Zn1 1.937592 1_555
O7 P2 1.541345 1_455
O7 Zn0 1.937592 1_554
O8 P1 1.523083 1_555
O8 Zn2 1.930183 1_545
O9 P1 1.541884 1_555
O9 Zn1 1.923078 1_455
O10 P2 1.523083 1_555
O10 Zn3 1.930183 1_555
O11 P0 1.523083 1_555
O11 Zn1 1.930183 1_565
O12 P3 1.523083 1_555
O12 Zn0 1.930183 1_555
O13 P3 1.531644 1_555
O13 Zn2 1.929228 1_555
O14 P0 1.531644 1_555
O14 Zn3 1.929228 1_555
O15 P3 1.541345 1_555
O15 Zn3 1.937592 1_556
