# generated using pymatgen
data_Er3AlC
_symmetry_space_group_name_H-M   'P 1'
_cell_length_a   4.80526343
_cell_length_b   4.80526343
_cell_length_c   4.80526343
_cell_angle_alpha   90.00000000
_cell_angle_beta   90.00000000
_cell_angle_gamma   90.00000000
_symmetry_Int_Tables_number   1
_chemical_formula_structural   Er3AlC
_chemical_formula_sum   'Er3 Al1 C1'
_cell_volume   110.95620736
_cell_formula_units_Z   1
loop_
 _symmetry_equiv_pos_site_id
 _symmetry_equiv_pos_as_xyz
  1  'x, y, z'
loop_
 _atom_site_type_symbol
 _atom_site_label
 _atom_site_symmetry_multiplicity
 _atom_site_fract_x
 _atom_site_fract_y
 _atom_site_fract_z
 _atom_site_occupancy
  Er  Er0  1  0.50000000  0.50000000  -0.00000000  1
  Er  Er1  1  0.50000000  -0.00000000  0.50000000  1
  Er  Er2  1  -0.00000000  0.50000000  0.50000000  1
  Al  Al0  1  0.00000000  -0.00000000  0.00000000  1
  C  C0  1  0.50000000  0.50000000  0.50000000  1
loop_
_geom_bond_atom_site_label_1
_geom_bond_atom_site_label_2
_geom_bond_distance
_geom_bond_site_symmetry_2
Al0 Er2 3.397834 1_555
Al0 Er2 3.397834 1_554
Al0 Er0 3.397834 1_445
Al0 Er1 3.397834 1_554
Al0 Er0 3.397834 1_545
Al0 Er1 3.397834 1_555
Al0 Er0 3.397834 1_555
Al0 Er1 3.397834 1_454
Al0 Er2 3.397834 1_545
Al0 Er1 3.397834 1_455
Al0 Er0 3.397834 1_455
Al0 Er2 3.397834 1_544
C0 Er1 2.402632 1_555
C0 Er2 2.402632 1_655
C0 Er1 2.402632 1_565
C0 Er0 2.402632 1_556
C0 Er0 2.402632 1_555
C0 Er2 2.402632 1_555
