# generated using pymatgen
data_NaLa6OsI12
_symmetry_space_group_name_H-M   'P 1'
_cell_length_a   10.18415485
_cell_length_b   10.18415485
_cell_length_c   10.18415472
_cell_angle_alpha   107.21653140
_cell_angle_beta   107.21653140
_cell_angle_gamma   107.21653444
_symmetry_Int_Tables_number   1
_chemical_formula_structural   NaLa6OsI12
_chemical_formula_sum   'Na1 La6 Os1 I12'
_cell_volume   874.42378716
_cell_formula_units_Z   1
loop_
 _symmetry_equiv_pos_site_id
 _symmetry_equiv_pos_as_xyz
  1  'x, y, z'
loop_
 _atom_site_type_symbol
 _atom_site_label
 _atom_site_symmetry_multiplicity
 _atom_site_fract_x
 _atom_site_fract_y
 _atom_site_fract_z
 _atom_site_occupancy
  Na  Na0  1  0.00000000  0.00000000  0.00000000  1
  La  La0  1  0.46745100  0.39542700  0.19038900  1
  La  La1  1  0.60457300  0.80961100  0.53254900  1
  La  La2  1  0.19038900  0.46745100  0.39542700  1
  La  La3  1  0.39542700  0.19038900  0.46745100  1
  La  La4  1  0.53254900  0.60457300  0.80961100  1
  La  La5  1  0.80961100  0.53254900  0.60457300  1
  Os  Os0  1  0.50000000  0.50000000  0.50000000  1
  I  I0  1  0.11980500  0.34825700  0.04052600  1
  I  I1  1  0.95947400  0.88019500  0.65174300  1
  I  I2  1  0.72748900  0.18435400  0.57531300  1
  I  I3  1  0.65174300  0.95947400  0.88019500  1
  I  I4  1  0.04052600  0.11980500  0.34825700  1
  I  I5  1  0.18435400  0.57531300  0.72748900  1
  I  I6  1  0.88019500  0.65174300  0.95947400  1
  I  I7  1  0.27251100  0.81564600  0.42468700  1
  I  I8  1  0.34825700  0.04052600  0.11980500  1
  I  I9  1  0.42468700  0.27251100  0.81564600  1
  I  I10  1  0.81564600  0.42468700  0.27251100  1
  I  I11  1  0.57531300  0.72748900  0.18435400  1
loop_
_geom_bond_atom_site_label_1
_geom_bond_atom_site_label_2
_geom_bond_distance
_geom_bond_site_symmetry_2
La0 Os0 2.893220 1_555
La1 Os0 2.893220 1_555
La2 Os0 2.893221 1_555
La3 Os0 2.893220 1_555
La4 Os0 2.893220 1_555
La5 Os0 2.893221 1_555
I0 La2 3.225232 1_555
I0 La0 3.233507 1_555
I0 Na0 3.242195 1_555
I0 I9 4.479119 1_554
I0 I10 4.522569 1_455
I0 I11 4.539228 1_555
I0 I5 4.543934 1_554
I1 La1 3.225232 1_555
I1 La5 3.233507 1_555
I1 Na0 3.242195 1_666
I1 I5 4.479120 1_655
I1 I2 4.522569 1_565
I1 I10 4.539228 1_555
I1 I7 4.543934 1_655
I2 La3 3.257418 1_555
I2 La5 3.291538 1_555
I2 La1 3.491013 1_545
I2 I3 4.479119 1_545
I2 I8 4.539228 1_555
I2 I4 4.543934 1_655
I2 I5 4.584259 1_655
I3 La4 3.225232 1_555
I3 La1 3.233507 1_555
I3 Na0 3.242195 1_666
I3 I7 4.539228 1_555
I3 I9 4.543934 1_565
I4 La3 3.225232 1_555
I4 La2 3.233507 1_555
I4 Na0 3.242195 1_555
I4 I7 4.522569 1_545
I4 I5 4.539228 1_555
I5 La2 3.257418 1_555
I5 La4 3.291538 1_555
I5 La5 3.491013 1_455
I5 I6 4.522569 1_455
I6 La5 3.225232 1_555
I6 La4 3.233507 1_555
I6 Na0 3.242195 1_666
I6 I9 4.539228 1_555
I7 La1 3.257418 1_555
I7 La2 3.291538 1_555
I7 La3 3.491013 1_565
I7 I8 4.479119 1_565
I7 I9 4.584260 1_565
I8 La0 3.225232 1_555
I8 La3 3.233507 1_555
I8 Na0 3.242195 1_555
I8 I9 4.522569 1_554
I9 La4 3.257418 1_555
I9 La3 3.291538 1_555
I9 La0 3.491013 1_556
I10 La5 3.257418 1_555
I10 La0 3.291538 1_555
I10 La2 3.491013 1_655
I10 I4 4.479120 1_655
I10 I6 4.543934 1_554
I10 I7 4.584259 1_655
I10 I9 4.584260 1_554
I11 La0 3.257418 1_555
I11 La1 3.291538 1_555
I11 La4 3.491013 1_554
I11 I6 4.479119 1_554
I11 I3 4.522569 1_554
I11 I8 4.543934 1_565
I11 I5 4.584260 1_554
I11 I2 4.584260 1_565
