# generated using pymatgen
data_WXeOF6
_symmetry_space_group_name_H-M   'P 1'
_cell_length_a   10.41665100
_cell_length_b   5.59676300
_cell_length_c   12.68083857
_cell_angle_alpha   87.98957390
_cell_angle_beta   90.00000000
_cell_angle_gamma   90.00000000
_symmetry_Int_Tables_number   1
_chemical_formula_structural   WXeOF6
_chemical_formula_sum   'W4 Xe4 O4 F24'
_cell_volume   738.83182830
_cell_formula_units_Z   4
loop_
 _symmetry_equiv_pos_site_id
 _symmetry_equiv_pos_as_xyz
  1  'x, y, z'
loop_
 _atom_site_type_symbol
 _atom_site_label
 _atom_site_symmetry_multiplicity
 _atom_site_fract_x
 _atom_site_fract_y
 _atom_site_fract_z
 _atom_site_occupancy
  W  W0  1  0.00673600  0.39243700  0.77057600  1
  W  W1  1  0.99326400  0.60756300  0.22942400  1
  W  W2  1  0.50673600  0.60756300  0.72942400  1
  W  W3  1  0.49326400  0.39243700  0.27057600  1
  Xe  Xe0  1  0.75205400  0.01713500  0.97859900  1
  Xe  Xe1  1  0.25205400  0.98286500  0.52140100  1
  Xe  Xe2  1  0.24794600  0.98286500  0.02140100  1
  Xe  Xe3  1  0.74794600  0.01713500  0.47859900  1
  O  O0  1  0.91776900  0.47515900  0.33725300  1
  O  O1  1  0.08223100  0.52484100  0.66274700  1
  O  O2  1  0.58223100  0.47515900  0.83725300  1
  O  O3  1  0.41776900  0.52484100  0.16274700  1
  F  F0  1  0.39483300  0.17784400  0.96000100  1
  F  F1  1  0.41486900  0.78105700  0.58355000  1
  F  F2  1  0.38109600  0.48962400  0.37979000  1
  F  F3  1  0.90560100  0.90713500  0.22627800  1
  F  F4  1  0.60743400  0.64260500  0.30615600  1
  F  F5  1  0.63274400  0.23948500  0.20340600  1
  F  F6  1  0.88109600  0.51037600  0.12021000  1
  F  F7  1  0.91486900  0.21894300  0.91645000  1
  F  F8  1  0.58513100  0.21894300  0.41645000  1
  F  F9  1  0.36725600  0.76051500  0.79659400  1
  F  F10  1  0.60516700  0.82215600  0.03999900  1
  F  F11  1  0.09439900  0.09286500  0.77372200  1
  F  F12  1  0.08513100  0.78105700  0.08355000  1
  F  F13  1  0.13274400  0.76051500  0.29659400  1
  F  F14  1  0.86725600  0.23948500  0.70340600  1
  F  F15  1  0.11890400  0.48962400  0.87979000  1
  F  F16  1  0.10516700  0.17784400  0.46000100  1
  F  F17  1  0.10743400  0.35739500  0.19384400  1
  F  F18  1  0.61890400  0.51037600  0.62021000  1
  F  F19  1  0.59439900  0.90713500  0.72627800  1
  F  F20  1  0.89256600  0.64260500  0.80615600  1
  F  F21  1  0.39256600  0.35739500  0.69384400  1
  F  F22  1  0.40560100  0.09286500  0.27372200  1
  F  F23  1  0.89483300  0.82215600  0.53999900  1
loop_
_geom_bond_atom_site_label_1
_geom_bond_atom_site_label_2
_geom_bond_distance
_geom_bond_site_symmetry_2
O0 W1 1.722251 1_555
O1 W0 1.722251 1_555
O2 W2 1.722251 1_555
O3 W3 1.722251 1_555
F0 Xe2 2.019543 1_546
F1 Xe1 2.170421 1_555
F1 W2 2.270319 1_555
F1 F18 2.641760 1_555
F1 F19 2.713038 1_555
F1 F21 2.720242 1_555
F1 F9 2.745164 1_555
F2 W3 1.905762 1_555
F2 F8 2.641760 1_555
F2 F22 2.648535 1_555
F2 F4 2.665995 1_555
F3 W1 1.908363 1_555
F3 F6 2.648535 1_555
F4 W3 1.903318 1_555
F4 F5 2.657772 1_555
F4 F8 2.720242 1_555
F5 W3 1.902743 1_555
F5 F8 2.745164 1_555
F6 W1 1.905762 1_555
F7 Xe0 2.170421 1_555
F7 W0 2.270319 1_655
F8 Xe3 2.170421 1_555
F8 W3 2.270319 1_555
F9 W2 1.902743 1_555
F10 Xe0 2.019543 1_564
F11 W0 1.908363 1_555
F11 F15 2.648535 1_555
F11 F14 2.648659 1_455
F11 F7 2.713038 1_455
F12 Xe2 2.170421 1_555
F12 W1 2.270319 1_455
F12 F6 2.641760 1_455
F12 F3 2.713038 1_455
F12 F17 2.720242 1_555
F12 F13 2.745164 1_555
F13 W1 1.902743 1_455
F13 F3 2.648659 1_455
F13 F17 2.657772 1_555
F14 W0 1.902743 1_655
F14 F20 2.657772 1_555
F14 F7 2.745164 1_555
F15 W0 1.905762 1_555
F15 F7 2.641760 1_455
F15 F20 2.665995 1_455
F16 Xe1 2.019543 1_545
F17 W1 1.903318 1_455
F17 F6 2.665995 1_455
F18 W2 1.905762 1_555
F18 F19 2.648535 1_555
F18 F21 2.665995 1_555
F19 W2 1.908363 1_555
F19 F9 2.648659 1_555
F20 W0 1.903318 1_655
F20 F7 2.720242 1_555
F21 W2 1.903318 1_555
F21 F9 2.657772 1_555
F22 W3 1.908363 1_555
F22 F5 2.648659 1_555
F22 F8 2.713038 1_555
F23 Xe3 2.019543 1_565
