# generated using pymatgen
data_Ti3(BiO3)4
_symmetry_space_group_name_H-M   'P 1'
_cell_length_a   16.78788548
_cell_length_b   16.78788548
_cell_length_c   5.43967199
_cell_angle_alpha   89.96992995
_cell_angle_beta   89.96992995
_cell_angle_gamma   18.46496739
_symmetry_Int_Tables_number   1
_chemical_formula_structural   Ti3(BiO3)4
_chemical_formula_sum   'Ti6 Bi8 O24'
_cell_volume   485.56420254
_cell_formula_units_Z   2
loop_
 _symmetry_equiv_pos_site_id
 _symmetry_equiv_pos_as_xyz
  1  'x, y, z'
loop_
 _atom_site_type_symbol
 _atom_site_label
 _atom_site_symmetry_multiplicity
 _atom_site_fract_x
 _atom_site_fract_y
 _atom_site_fract_z
 _atom_site_occupancy
  Ti  Ti0  1  0.99829906  0.50534749  0.52293678  1
  Ti  Ti1  1  0.12569832  0.63081013  0.53006182  1
  Ti  Ti2  1  0.37285580  0.86896435  0.02465132  1
  Ti  Ti3  1  0.86896435  0.37285580  0.52465132  1
  Ti  Ti4  1  0.63081013  0.12569832  0.03006182  1
  Ti  Ti5  1  0.50534749  0.99829906  0.02293678  1
  Bi  Bi0  1  0.70073729  0.21878659  0.45955356  1
  Bi  Bi1  1  0.78610664  0.28743937  0.96703107  1
  Bi  Bi2  1  0.21878659  0.70073729  0.95955356  1
  Bi  Bi3  1  0.42823038  0.93809957  0.47735437  1
  Bi  Bi4  1  0.28743937  0.78610664  0.46703107  1
  Bi  Bi5  1  0.56380828  0.06866606  0.48365413  1
  Bi  Bi6  1  0.06866606  0.56380828  0.98365413  1
  Bi  Bi7  1  0.93809957  0.42823038  0.97735437  1
  O  O0  1  0.29543912  0.22837854  0.76919741  1
  O  O1  1  0.35948990  0.77733337  0.02783053  1
  O  O2  1  0.92903084  0.82186808  0.84805958  1
  O  O3  1  0.63608727  0.98482484  0.07007497  1
  O  O4  1  0.50108140  0.49767842  0.73687925  1
  O  O5  1  0.01005477  0.37788999  0.56571948  1
  O  O6  1  0.98482484  0.63608727  0.57007497  1
  O  O7  1  0.32899302  0.39283413  0.26820931  1
  O  O8  1  0.37788999  0.01005477  0.06571948  1
  O  O9  1  0.62521349  0.23727384  0.03815108  1
  O  O10  1  0.65683189  0.62144038  0.26949629  1
  O  O11  1  0.77733337  0.35948990  0.52783053  1
  O  O12  1  0.78898780  0.69958232  0.84344276  1
  O  O13  1  0.16454281  0.09187690  0.32287555  1
  O  O14  1  0.82186808  0.92903084  0.34805958  1
  O  O15  1  0.00114726  0.99707324  0.73251872  1
  O  O16  1  0.62144038  0.65683189  0.76949629  1
  O  O17  1  0.23727384  0.62521349  0.53815108  1
  O  O18  1  0.69958232  0.78898780  0.34344276  1
  O  O19  1  0.49767842  0.50108140  0.23687925  1
  O  O20  1  0.39283413  0.32899302  0.76820931  1
  O  O21  1  0.99707324  0.00114726  0.23251872  1
  O  O22  1  0.09187690  0.16454281  0.82287555  1
  O  O23  1  0.22837854  0.29543912  0.26919741  1
loop_
_geom_bond_atom_site_label_1
_geom_bond_atom_site_label_2
_geom_bond_distance
_geom_bond_site_symmetry_2
Bi0 O19 2.213228 1_555
Bi0 O21 2.267266 1_555
Bi0 O4 2.379737 1_555
Bi0 O15 2.425913 1_645
Bi0 O9 2.492844 1_555
Bi0 O17 2.562292 1_555
Bi0 O14 3.066252 1_545
Bi1 O4 2.210029 1_555
Bi1 O15 2.245014 1_645
Bi1 O21 2.331413 1_556
Bi1 O19 2.348872 1_556
Bi1 O11 2.617628 1_555
Bi1 O1 2.702422 1_556
Bi2 O4 2.213228 1_555
Bi2 O15 2.267266 1_555
Bi2 O19 2.379737 1_556
Bi2 O21 2.425913 1_466
Bi2 O17 2.492844 1_555
Bi2 O9 2.562292 1_556
Bi2 O2 3.066252 1_455
Bi3 O8 2.291237 1_565
Bi3 O13 2.299797 1_565
Bi3 O10 2.359283 1_555
Bi3 O5 2.387419 1_565
Bi3 O18 2.431983 1_555
Bi3 O16 2.507055 1_555
Bi4 O19 2.210029 1_555
Bi4 O21 2.245014 1_465
Bi4 O15 2.331413 1_555
Bi4 O4 2.348872 1_555
Bi4 O1 2.617628 1_555
Bi4 O11 2.702422 1_555
Bi5 O3 2.296801 1_545
Bi5 O14 2.353871 1_545
Bi5 O6 2.354483 1_545
Bi5 O7 2.414677 1_555
Bi5 O20 2.437239 1_555
Bi5 O23 2.626385 1_555
Bi5 O0 2.642131 1_555
Bi5 O18 2.742610 1_545
Bi6 O6 2.296801 1_455
Bi6 O2 2.353871 1_455
Bi6 O3 2.354483 1_456
Bi6 O20 2.414677 1_555
Bi6 O7 2.437239 1_556
Bi6 O0 2.626385 1_555
Bi6 O23 2.642131 1_556
Bi6 O12 2.742610 1_455
Bi7 O5 2.291237 1_655
Bi7 O22 2.299797 1_655
Bi7 O16 2.359283 1_555
Bi7 O8 2.387419 1_656
Bi7 O12 2.431983 1_555
Bi7 O10 2.507055 1_556
O0 Ti5 1.849536 1_546
O0 Ti0 2.073121 1_455
O0 O5 2.769297 1_555
O1 Ti2 1.752641 1_555
O1 O19 2.787529 1_555
O1 O21 3.000847 1_465
O1 O4 3.004987 1_554
O2 Ti4 1.902234 1_566
O2 Ti1 2.022697 1_655
O2 O20 2.657204 1_655
O2 O6 2.711615 1_555
O3 Ti5 1.998236 1_555
O3 Ti4 2.291357 1_565
O4 O9 2.975486 1_556
O5 Ti0 1.967242 1_455
O5 Ti3 2.459204 1_455
O6 Ti0 1.998236 1_555
O6 Ti1 2.291357 1_655
O7 Ti1 1.942335 1_555
O7 Ti4 2.087117 1_555
O8 Ti5 1.967242 1_545
O8 Ti2 2.459204 1_545
O9 Ti4 1.784812 1_555
O10 Ti3 1.957110 1_555
O10 Ti2 2.046706 1_555
O10 O13 2.634256 1_565
O11 Ti3 1.752641 1_555
O11 O4 2.787529 1_555
O11 O15 3.000847 1_645
O11 O19 3.004987 1_555
O12 Ti5 1.864504 1_556
O12 Ti0 2.069538 1_555
O12 O5 2.683720 1_655
O12 O6 2.739484 1_555
O13 Ti3 1.916915 1_455
O13 Ti2 2.009893 1_545
O13 O8 2.708409 1_555
O14 Ti1 1.902234 1_655
O14 Ti4 2.022697 1_565
O14 O7 2.657204 1_565
O14 O3 2.711615 1_555
O15 O4 2.691774 1_555
O15 O4 2.695389 1_465
O15 O21 2.719925 1_466
O15 O21 2.719925 1_465
O15 O17 2.976708 1_555
O16 Ti2 1.957110 1_556
O16 Ti3 2.046706 1_555
O16 O22 2.634256 1_655
O17 Ti1 1.784812 1_555
O17 O4 2.716840 1_555
O17 O19 2.975486 1_555
O18 Ti0 1.864504 1_555
O18 Ti5 2.069538 1_555
O18 O8 2.683720 1_565
O18 O3 2.739484 1_555
O19 O21 2.691774 1_555
O19 O21 2.695389 1_465
O19 O9 2.716840 1_555
O19 O4 2.719898 1_555
O19 O4 2.719898 1_554
O20 Ti4 1.942335 1_556
O20 Ti1 2.087117 1_555
O21 O9 2.976708 1_555
O22 Ti2 1.916915 1_546
O22 Ti3 2.009893 1_455
O22 O5 2.708409 1_555
O23 Ti0 1.849536 1_455
O23 Ti5 2.073121 1_545
O23 O8 2.769297 1_555
