# generated using pymatgen
data_Er4NiB13
_symmetry_space_group_name_H-M   'P 1'
_cell_length_a   7.28221800
_cell_length_b   7.28221800
_cell_length_c   6.84472900
_cell_angle_alpha   90.00000000
_cell_angle_beta   90.00000000
_cell_angle_gamma   90.00000000
_symmetry_Int_Tables_number   1
_chemical_formula_structural   Er4NiB13
_chemical_formula_sum   'Er8 Ni2 B26'
_cell_volume   362.98076333
_cell_formula_units_Z   2
loop_
 _symmetry_equiv_pos_site_id
 _symmetry_equiv_pos_as_xyz
  1  'x, y, z'
loop_
 _atom_site_type_symbol
 _atom_site_label
 _atom_site_symmetry_multiplicity
 _atom_site_fract_x
 _atom_site_fract_y
 _atom_site_fract_z
 _atom_site_occupancy
  Er  Er0  1  0.81521400  0.68000500  0.00000000  1
  Er  Er1  1  0.68000500  0.18478600  0.00000000  1
  Er  Er2  1  0.68478600  0.18000500  0.50000000  1
  Er  Er3  1  0.31999500  0.81521400  0.00000000  1
  Er  Er4  1  0.18000500  0.31521400  0.50000000  1
  Er  Er5  1  0.81999500  0.68478600  0.50000000  1
  Er  Er6  1  0.18478600  0.31999500  0.00000000  1
  Er  Er7  1  0.31521400  0.81999500  0.50000000  1
  Ni  Ni0  1  0.00000000  0.00000000  0.00000000  1
  Ni  Ni1  1  0.50000000  0.50000000  0.50000000  1
  B  B0  1  0.67070800  0.46021800  0.24316700  1
  B  B1  1  0.40803300  0.09196700  0.25000000  1
  B  B2  1  0.82929200  0.96021800  0.74316700  1
  B  B3  1  0.46021800  0.32929200  0.75683300  1
  B  B4  1  0.50000000  0.50000000  0.00000000  1
  B  B5  1  0.90803300  0.40803300  0.25000000  1
  B  B6  1  0.82929200  0.96021800  0.25683300  1
  B  B7  1  0.96021800  0.17070800  0.25683300  1
  B  B8  1  0.03978200  0.82929200  0.25683300  1
  B  B9  1  0.03978200  0.82929200  0.74316700  1
  B  B10  1  0.32929200  0.53978200  0.24316700  1
  B  B11  1  0.09196700  0.59196700  0.75000000  1
  B  B12  1  0.96021800  0.17070800  0.74316700  1
  B  B13  1  0.09196700  0.59196700  0.25000000  1
  B  B14  1  0.00000000  0.00000000  0.50000000  1
  B  B15  1  0.53978200  0.67070800  0.24316700  1
  B  B16  1  0.40803300  0.09196700  0.75000000  1
  B  B17  1  0.59196700  0.90803300  0.25000000  1
  B  B18  1  0.90803300  0.40803300  0.75000000  1
  B  B19  1  0.32929200  0.53978200  0.75683300  1
  B  B20  1  0.67070800  0.46021800  0.75683300  1
  B  B21  1  0.46021800  0.32929200  0.24316700  1
  B  B22  1  0.59196700  0.90803300  0.75000000  1
  B  B23  1  0.17070800  0.03978200  0.25683300  1
  B  B24  1  0.17070800  0.03978200  0.74316700  1
  B  B25  1  0.53978200  0.67070800  0.75683300  1
loop_
_geom_bond_atom_site_label_1
_geom_bond_atom_site_label_2
_geom_bond_distance
_geom_bond_site_symmetry_2
Er0 Ni0 2.690902 1_665
Er1 Ni0 2.690902 1_655
Er2 Ni1 2.690902 1_555
Er3 Ni0 2.690902 1_565
Er4 Ni1 2.690902 1_555
Er5 Ni1 2.690902 1_555
Er6 Ni0 2.690902 1_555
Er7 Ni1 2.690902 1_555
B0 B5 1.770158 1_555
B0 B21 1.805163 1_555
B0 B15 1.805163 1_555
B0 B4 2.097516 1_555
B0 Ni1 2.172488 1_555
B0 Er0 2.537592 1_555
B0 Er1 2.607280 1_555
B0 Er5 2.635650 1_555
B0 Er2 2.695337 1_555
B1 B21 1.770158 1_555
B1 B23 1.770158 1_555
B1 B17 1.894265 1_545
B1 Er1 2.703265 1_555
B1 Er7 2.703265 1_545
B1 Er2 2.720461 1_555
B1 Er3 2.720461 1_545
B1 Er4 2.885928 1_555
B1 Er6 2.885928 1_555
B2 B22 1.770158 1_555
B2 B9 1.805163 1_655
B2 Ni0 2.172488 1_666
B2 Er2 2.537592 1_565
B2 Er5 2.607280 1_555
B2 Er1 2.635650 1_566
B2 Er0 2.695337 1_556
B3 B4 2.097516 1_556
B3 Ni1 2.172488 1_555
B3 Er1 2.537592 1_556
B3 Er6 2.607280 1_556
B3 Er2 2.635650 1_555
B3 Er4 2.695337 1_555
B4 Er0 2.643372 1_555
B4 Er3 2.643372 1_555
B4 Er1 2.643372 1_555
B4 Er6 2.643372 1_555
B5 B7 1.770158 1_555
B5 Er4 2.703265 1_655
B5 Er0 2.703265 1_555
B5 Er6 2.720461 1_655
B5 Er5 2.720461 1_555
B5 Er2 2.885928 1_555
B5 Er1 2.885928 1_555
B6 B8 1.805163 1_655
B6 B7 1.805163 1_565
B6 Ni0 2.172488 1_665
B6 Er2 2.537592 1_565
B6 Er5 2.607280 1_555
B6 Er1 2.635650 1_565
B6 Er0 2.695337 1_555
B7 Ni0 2.172488 1_655
B7 Er4 2.537592 1_655
B7 Er2 2.607280 1_555
B7 Er6 2.635650 1_655
B7 Er1 2.695337 1_555
B8 Ni0 2.172488 1_565
B8 Er5 2.537592 1_455
B8 Er7 2.607280 1_555
B8 Er0 2.635650 1_455
B8 Er3 2.695337 1_555
B9 Ni0 2.172488 1_566
B9 Er5 2.537592 1_455
B9 Er7 2.607280 1_555
B9 Er0 2.635650 1_456
B9 Er3 2.695337 1_556
B10 B13 1.770158 1_555
B10 B21 1.805163 1_555
B10 B15 1.805163 1_555
B10 B4 2.097516 1_555
B10 Ni1 2.172488 1_555
B10 Er6 2.537592 1_555
B10 Er3 2.607280 1_555
B10 Er4 2.635650 1_555
B10 Er7 2.695337 1_555
B11 B9 1.770158 1_555
B11 B19 1.770158 1_555
B11 B18 1.894265 1_455
B11 Er6 2.703265 1_556
B11 Er5 2.703265 1_455
B11 Er0 2.720461 1_456
B11 Er4 2.720461 1_555
B11 Er7 2.885928 1_555
B11 Er3 2.885928 1_556
B12 B18 1.770158 1_555
B12 B2 1.805163 1_545
B12 B24 1.805163 1_655
B12 B14 2.097516 1_655
B12 Ni0 2.172488 1_656
B12 Er4 2.537592 1_655
B12 Er2 2.607280 1_555
B12 Er6 2.635650 1_656
B12 Er1 2.695337 1_556
B13 B8 1.770158 1_555
B13 B5 1.894265 1_455
B13 Er6 2.703265 1_555
B13 Er5 2.703265 1_455
B13 Er4 2.720461 1_555
B13 Er0 2.720461 1_455
B13 Er7 2.885928 1_555
B13 Er3 2.885928 1_555
B14 B24 2.097516 1_555
B14 B9 2.097516 1_545
B14 B2 2.097516 1_445
B14 B23 2.097516 1_555
B14 B7 2.097516 1_455
B14 B8 2.097516 1_545
B14 B6 2.097516 1_445
B14 Er2 2.643372 1_455
B14 Er4 2.643372 1_555
B14 Er5 2.643372 1_445
B14 Er7 2.643372 1_545
B15 B17 1.770158 1_555
B15 B4 2.097516 1_555
B15 Ni1 2.172488 1_555
B15 Er3 2.537592 1_555
B15 Er0 2.607280 1_555
B15 Er7 2.635650 1_555
B15 Er5 2.695337 1_555
B16 B3 1.770158 1_555
B16 B24 1.770158 1_555
B16 B22 1.894265 1_545
B16 Er1 2.703265 1_556
B16 Er7 2.703265 1_545
B16 Er2 2.720461 1_555
B16 Er3 2.720461 1_546
B16 Er4 2.885928 1_555
B16 Er6 2.885928 1_556
B17 B6 1.770158 1_555
B17 Er2 2.703265 1_565
B17 Er3 2.703265 1_555
B17 Er1 2.720461 1_565
B17 Er7 2.720461 1_555
B17 Er5 2.885928 1_555
B17 Er0 2.885928 1_555
B18 B20 1.770158 1_555
B18 Er4 2.703265 1_655
B18 Er0 2.703265 1_556
B18 Er6 2.720461 1_656
B18 Er5 2.720461 1_555
B18 Er2 2.885928 1_555
B18 Er1 2.885928 1_556
B19 B3 1.805163 1_555
B19 B25 1.805163 1_555
B19 B4 2.097516 1_556
B19 Ni1 2.172488 1_555
B19 Er6 2.537592 1_556
B19 Er3 2.607280 1_556
B19 Er4 2.635650 1_555
B19 Er7 2.695337 1_555
B20 B3 1.805163 1_555
B20 B25 1.805163 1_555
B20 B4 2.097516 1_556
B20 Ni1 2.172488 1_555
B20 Er0 2.537592 1_556
B20 Er1 2.607280 1_556
B20 Er5 2.635650 1_555
B20 Er2 2.695337 1_555
B21 B4 2.097516 1_555
B21 Ni1 2.172488 1_555
B21 Er1 2.537592 1_555
B21 Er6 2.607280 1_555
B21 Er2 2.635650 1_555
B21 Er4 2.695337 1_555
B22 B25 1.770158 1_555
B22 Er2 2.703265 1_565
B22 Er3 2.703265 1_556
B22 Er1 2.720461 1_566
B22 Er7 2.720461 1_555
B22 Er5 2.885928 1_555
B22 Er0 2.885928 1_556
B23 B7 1.805163 1_455
B23 B8 1.805163 1_545
B23 Ni0 2.172488 1_555
B23 Er7 2.537592 1_545
B23 Er4 2.607280 1_555
B23 Er3 2.635650 1_545
B23 Er6 2.695337 1_555
B24 B9 1.805163 1_545
B24 Ni0 2.172488 1_556
B24 Er7 2.537592 1_545
B24 Er4 2.607280 1_555
B24 Er3 2.635650 1_546
B24 Er6 2.695337 1_556
B25 B4 2.097516 1_556
B25 Ni1 2.172488 1_555
B25 Er3 2.537592 1_556
B25 Er0 2.607280 1_556
B25 Er7 2.635650 1_555
B25 Er5 2.695337 1_555
