# generated using pymatgen
data_KGd(WO4)2
_symmetry_space_group_name_H-M   'P 1'
_cell_length_a   7.67853317
_cell_length_b   7.67853317
_cell_length_c   7.49447784
_cell_angle_alpha   62.36633650
_cell_angle_beta   62.36633650
_cell_angle_gamma   88.58511401
_symmetry_Int_Tables_number   1
_chemical_formula_structural   KGd(WO4)2
_chemical_formula_sum   'K2 Gd2 W4 O16'
_cell_volume   336.45183153
_cell_formula_units_Z   2
loop_
 _symmetry_equiv_pos_site_id
 _symmetry_equiv_pos_as_xyz
  1  'x, y, z'
loop_
 _atom_site_type_symbol
 _atom_site_label
 _atom_site_symmetry_multiplicity
 _atom_site_fract_x
 _atom_site_fract_y
 _atom_site_fract_z
 _atom_site_occupancy
  K  K0  1  0.29207400  0.70792600  0.75000000  1
  K  K1  1  0.70792600  0.29207400  0.25000000  1
  Gd  Gd0  1  0.27529000  0.72471000  0.25000000  1
  Gd  Gd1  1  0.72471000  0.27529000  0.75000000  1
  W  W0  1  0.79982200  0.80888300  0.71850900  1
  W  W1  1  0.19111700  0.20017800  0.78149100  1
  W  W2  1  0.20017800  0.19111700  0.28149100  1
  W  W3  1  0.80888300  0.79982200  0.21850900  1
  O  O0  1  0.72072400  0.54302100  0.81377600  1
  O  O1  1  0.45697900  0.27927600  0.68622400  1
  O  O2  1  0.27927600  0.45697900  0.18622400  1
  O  O3  1  0.54302100  0.72072400  0.31377600  1
  O  O4  1  0.09065200  0.87147300  0.46937300  1
  O  O5  1  0.12852700  0.90934800  0.03062700  1
  O  O6  1  0.90934800  0.12852700  0.53062700  1
  O  O7  1  0.87147300  0.09065200  0.96937300  1
  O  O8  1  0.56096200  0.87151100  0.87304600  1
  O  O9  1  0.12848900  0.43903800  0.62695400  1
  O  O10  1  0.43903800  0.12848900  0.12695400  1
  O  O11  1  0.87151100  0.56096200  0.37304600  1
  O  O12  1  0.87606800  0.74689300  0.94390800  1
  O  O13  1  0.25310700  0.12393200  0.55609200  1
  O  O14  1  0.12393200  0.25310700  0.05609200  1
  O  O15  1  0.74689300  0.87606800  0.44390800  1
loop_
_geom_bond_atom_site_label_1
_geom_bond_atom_site_label_2
_geom_bond_distance
_geom_bond_site_symmetry_2
K0 O2 2.877219 1_556
K0 O3 2.877219 1_555
K0 O12 2.907760 1_455
K0 O13 2.907760 1_565
K0 O5 2.977215 1_556
K0 O4 2.977215 1_555
K0 O15 3.028097 1_555
K0 O14 3.028097 1_556
K0 O9 3.108015 1_555
K0 O8 3.108015 1_555
K1 O1 2.877219 1_555
K1 O0 2.877219 1_554
K1 O15 2.907760 1_545
K1 O14 2.907760 1_655
K1 O6 2.977215 1_555
K1 O7 2.977215 1_554
K1 O12 3.028097 1_554
K1 O13 3.028097 1_555
K1 O11 3.108015 1_555
K1 O10 3.108015 1_555
Gd0 O3 2.313102 1_555
Gd0 O2 2.313102 1_555
Gd0 O4 2.336782 1_555
Gd0 O5 2.336782 1_555
Gd0 O9 2.341560 1_555
Gd0 O8 2.341560 1_554
Gd0 O10 2.916969 1_565
Gd0 O11 2.916969 1_455
Gd1 O0 2.313102 1_555
Gd1 O1 2.313102 1_555
Gd1 O7 2.336782 1_555
Gd1 O6 2.336782 1_555
Gd1 O10 2.341560 1_556
Gd1 O11 2.341560 1_555
Gd1 O9 2.916969 1_655
Gd1 O8 2.916969 1_545
O0 W0 1.831119 1_555
O1 W1 1.831119 1_555
O2 W2 1.831119 1_555
O3 W3 1.831119 1_555
O4 W0 2.014169 1_455
O4 W2 2.124049 1_565
O4 O6 2.481268 1_465
O5 W1 2.014169 1_564
O5 W3 2.124049 1_455
O5 O7 2.481268 1_464
O6 W2 2.014169 1_655
O6 W0 2.124049 1_545
O6 O8 2.613624 1_545
O7 W3 2.014169 1_546
O7 W1 2.124049 1_655
O7 O9 2.613624 1_655
O8 W0 1.854492 1_555
O9 W1 1.854492 1_555
O10 W2 1.854492 1_555
O10 O4 2.613624 1_545
O11 W3 1.854492 1_555
O11 O5 2.613624 1_655
O12 W0 1.892263 1_555
O12 W3 2.108864 1_556
O12 O7 2.731560 1_565
O12 O4 2.786416 1_655
O12 O5 2.788625 1_656
O13 W1 1.892263 1_555
O13 W2 2.108864 1_555
O13 O6 2.731560 1_455
O13 O5 2.786416 1_546
O13 O4 2.788625 1_545
O14 W2 1.892263 1_555
O14 W1 2.108864 1_554
O14 O5 2.731560 1_545
O14 O6 2.786416 1_455
O14 O7 2.788625 1_454
O15 W3 1.892263 1_555
O15 W0 2.108864 1_555
O15 O4 2.731560 1_655
O15 O7 2.786416 1_564
O15 O6 2.788625 1_565
