# generated using pymatgen
data_RbBe2P3O10
_symmetry_space_group_name_H-M   'P 1'
_cell_length_a   7.57423821
_cell_length_b   7.57423821
_cell_length_c   9.03831612
_cell_angle_alpha   68.13650578
_cell_angle_beta   68.13650578
_cell_angle_gamma   71.03169701
_symmetry_Int_Tables_number   1
_chemical_formula_structural   RbBe2P3O10
_chemical_formula_sum   'Rb2 Be4 P6 O20'
_cell_volume   436.03219201
_cell_formula_units_Z   2
loop_
 _symmetry_equiv_pos_site_id
 _symmetry_equiv_pos_as_xyz
  1  'x, y, z'
loop_
 _atom_site_type_symbol
 _atom_site_label
 _atom_site_symmetry_multiplicity
 _atom_site_fract_x
 _atom_site_fract_y
 _atom_site_fract_z
 _atom_site_occupancy
  Rb  Rb0  1  0.69918100  0.30081900  0.25000000  1
  Rb  Rb1  1  0.30081900  0.69918100  0.75000000  1
  Be  Be0  1  0.70031700  0.78840500  0.93661300  1
  Be  Be1  1  0.29968300  0.21159500  0.06338700  1
  Be  Be2  1  0.21159500  0.29968300  0.56338700  1
  Be  Be3  1  0.78840500  0.70031700  0.43661300  1
  P  P0  1  0.86808700  0.49789900  0.75282400  1
  P  P1  1  0.49789900  0.86808700  0.25282400  1
  P  P2  1  0.13191300  0.50210100  0.24717600  1
  P  P3  1  0.11879000  0.88121000  0.25000000  1
  P  P4  1  0.88121000  0.11879000  0.75000000  1
  P  P5  1  0.50210100  0.13191300  0.74717600  1
  O  O0  1  0.60326600  0.74011300  0.13592300  1
  O  O1  1  0.39673400  0.25988700  0.86407700  1
  O  O2  1  0.25988700  0.39673400  0.36407700  1
  O  O3  1  0.91364800  0.53659000  0.33565000  1
  O  O4  1  0.72207700  0.18072700  0.65224600  1
  O  O5  1  0.07845600  0.13276200  0.62445900  1
  O  O6  1  0.81927300  0.27792300  0.84775400  1
  O  O7  1  0.19018300  0.41903400  0.10254800  1
  O  O8  1  0.74011300  0.60326600  0.63592300  1
  O  O9  1  0.27792300  0.81927300  0.34775400  1
  O  O10  1  0.53659000  0.91364800  0.83565000  1
  O  O11  1  0.86723800  0.92154400  0.87554100  1
  O  O12  1  0.46341000  0.08635200  0.16435000  1
  O  O13  1  0.08635200  0.46341000  0.66435000  1
  O  O14  1  0.58096600  0.80981700  0.39745200  1
  O  O15  1  0.92154400  0.86723800  0.37554100  1
  O  O16  1  0.18072700  0.72207700  0.15224600  1
  O  O17  1  0.41903400  0.19018300  0.60254800  1
  O  O18  1  0.80981700  0.58096600  0.89745200  1
  O  O19  1  0.13276200  0.07845600  0.12445900  1
loop_
_geom_bond_atom_site_label_1
_geom_bond_atom_site_label_2
_geom_bond_distance
_geom_bond_site_symmetry_2
Be0 O0 1.617733 1_556
Be0 O18 1.621792 1_555
Be0 O10 1.644329 1_555
Be0 O11 1.677661 1_555
Be1 O1 1.617733 1_554
Be1 O7 1.621792 1_555
Be1 O12 1.644329 1_555
Be1 O19 1.677661 1_555
Be2 O2 1.617733 1_555
Be2 O17 1.621792 1_555
Be2 O13 1.644329 1_555
Be2 O5 1.677661 1_555
Be3 O8 1.617733 1_555
Be3 O14 1.621792 1_555
Be3 O3 1.644329 1_555
Be3 O15 1.677661 1_555
O0 P1 1.524699 1_555
O0 Rb0 3.015499 1_555
O1 P5 1.524699 1_555
O1 Rb1 3.015499 1_555
O2 P2 1.524699 1_555
O2 Rb0 3.015499 1_555
O3 P2 1.526748 1_655
O3 Rb0 3.206105 1_555
O4 P4 1.603228 1_555
O4 P5 1.657830 1_555
O4 Rb0 3.461106 1_555
O5 P4 1.510455 1_455
O5 Rb1 3.156164 1_545
O6 P4 1.603228 1_555
O6 P0 1.657830 1_555
O6 Rb0 3.461106 1_556
O7 P2 1.517148 1_555
O7 Rb1 3.080504 1_554
O8 P0 1.524699 1_555
O8 Rb1 3.015499 1_555
O9 P3 1.603228 1_555
O9 P1 1.657830 1_555
O9 Rb1 3.461106 1_555
O10 P5 1.526748 1_565
O10 Rb1 3.206105 1_555
O11 P4 1.510455 1_565
O11 Rb1 3.156164 1_655
O12 P1 1.526748 1_545
O12 Rb0 3.206105 1_555
O13 P0 1.526748 1_455
O13 Rb1 3.206105 1_555
O14 P1 1.517148 1_555
O14 Rb1 3.080504 1_555
O15 P3 1.510455 1_655
O15 Rb0 3.156164 1_565
O16 P3 1.603228 1_555
O16 P2 1.657830 1_555
O16 Rb1 3.461106 1_554
O17 P5 1.517148 1_555
O17 Rb0 3.080504 1_555
O18 P0 1.517148 1_555
O18 Rb0 3.080504 1_556
O19 P3 1.510455 1_545
O19 Rb0 3.156164 1_455
