# generated using pymatgen
data_TbSeClO3
_symmetry_space_group_name_H-M   'P 1'
_cell_length_a   7.05738900
_cell_length_b   7.33144100
_cell_length_c   8.91929700
_cell_angle_alpha   90.00000000
_cell_angle_beta   90.00000000
_cell_angle_gamma   90.00000000
_symmetry_Int_Tables_number   1
_chemical_formula_structural   TbSeClO3
_chemical_formula_sum   'Tb4 Se4 Cl4 O12'
_cell_volume   461.49183932
_cell_formula_units_Z   4
loop_
 _symmetry_equiv_pos_site_id
 _symmetry_equiv_pos_as_xyz
  1  'x, y, z'
loop_
 _atom_site_type_symbol
 _atom_site_label
 _atom_site_symmetry_multiplicity
 _atom_site_fract_x
 _atom_site_fract_y
 _atom_site_fract_z
 _atom_site_occupancy
  Tb  Tb0  1  0.25000000  0.60589000  0.96079800  1
  Tb  Tb1  1  0.75000000  0.39411000  0.03920200  1
  Tb  Tb2  1  0.25000000  0.10589000  0.53920200  1
  Tb  Tb3  1  0.75000000  0.89411000  0.46079800  1
  Se  Se0  1  0.75000000  0.28976900  0.63228800  1
  Se  Se1  1  0.25000000  0.21023100  0.13228800  1
  Se  Se2  1  0.75000000  0.78976900  0.86771200  1
  Se  Se3  1  0.25000000  0.71023100  0.36771200  1
  Cl  Cl0  1  0.75000000  0.55659300  0.31833000  1
  Cl  Cl1  1  0.75000000  0.05659300  0.18167000  1
  Cl  Cl2  1  0.25000000  0.44340700  0.68167000  1
  Cl  Cl3  1  0.25000000  0.94340700  0.81833000  1
  O  O0  1  0.57315300  0.14158300  0.56732600  1
  O  O1  1  0.07315300  0.85841700  0.43267400  1
  O  O2  1  0.25000000  0.25184500  0.31993300  1
  O  O3  1  0.92684700  0.14158300  0.56732600  1
  O  O4  1  0.42684700  0.35841700  0.06732600  1
  O  O5  1  0.92684700  0.64158300  0.93267400  1
  O  O6  1  0.75000000  0.74815500  0.68006700  1
  O  O7  1  0.25000000  0.75184500  0.18006700  1
  O  O8  1  0.42684700  0.85841700  0.43267400  1
  O  O9  1  0.07315300  0.35841700  0.06732600  1
  O  O10  1  0.75000000  0.24815500  0.81993300  1
  O  O11  1  0.57315300  0.64158300  0.93267400  1
loop_
_geom_bond_atom_site_label_1
_geom_bond_atom_site_label_2
_geom_bond_distance
_geom_bond_site_symmetry_2
Cl0 Tb1 2.759941 1_555
Cl0 Tb3 2.781689 1_555
Cl0 O1 3.337341 1_655
Cl0 O8 3.337341 1_555
Cl0 Se0 3.415894 1_555
Cl0 O4 3.510599 1_555
Cl0 O9 3.510599 1_655
Cl0 O6 3.518853 1_555
Cl1 Tb3 2.759941 1_545
Cl1 Tb1 2.781689 1_555
Cl1 O9 3.337341 1_655
Cl1 O4 3.337341 1_555
Cl1 Se2 3.415894 1_544
Cl1 O8 3.510599 1_545
Cl1 O1 3.510599 1_645
Cl1 O10 3.518853 1_554
Cl2 Tb0 2.759941 1_555
Cl2 Tb2 2.781689 1_555
Cl2 O0 3.337341 1_555
Cl2 O3 3.337341 1_455
Cl2 Se3 3.415894 1_555
Cl2 O11 3.510599 1_555
Cl2 O5 3.510599 1_455
Cl2 O2 3.518853 1_555
Cl3 Tb2 2.759941 1_565
Cl3 Tb0 2.781689 1_555
Cl3 O11 3.337341 1_555
Cl3 O5 3.337341 1_455
Cl3 Se1 3.415894 1_566
Cl3 O0 3.510599 1_565
Cl3 O3 3.510599 1_465
Cl3 O7 3.518853 1_556
O0 Se0 1.753204 1_555
O0 Tb2 2.309245 1_555
O0 Tb3 2.398395 1_545
O1 Se3 1.753204 1_555
O1 Tb3 2.309245 1_455
O1 Tb2 2.398395 1_565
O2 Se1 1.701242 1_555
O2 Tb2 2.229325 1_555
O3 Se0 1.753204 1_555
O3 Tb2 2.309245 1_655
O3 Tb3 2.398395 1_545
O4 Se1 1.753204 1_555
O4 Tb1 2.309245 1_555
O4 Tb0 2.398395 1_554
O5 Se2 1.753204 1_555
O5 Tb0 2.309245 1_655
O5 Tb1 2.398395 1_556
O6 Se2 1.701242 1_555
O6 Tb3 2.229325 1_555
O7 Se3 1.701242 1_555
O7 Tb0 2.229325 1_554
O8 Se3 1.753204 1_555
O8 Tb3 2.309245 1_555
O8 Tb2 2.398395 1_565
O9 Se1 1.753204 1_555
O9 Tb1 2.309245 1_455
O9 Tb0 2.398395 1_554
O10 Se0 1.701242 1_555
O10 Tb1 2.229325 1_556
O11 Se2 1.753204 1_555
O11 Tb0 2.309245 1_555
O11 Tb1 2.398395 1_556
