# generated using pymatgen
data_LiMn(PO3)3
_symmetry_space_group_name_H-M   'P 1'
_cell_length_a   7.54282289
_cell_length_b   9.11385648
_cell_length_c   10.86285101
_cell_angle_alpha   93.52587144
_cell_angle_beta   97.37400644
_cell_angle_gamma   90.79103572
_symmetry_Int_Tables_number   1
_chemical_formula_structural   LiMn(PO3)3
_chemical_formula_sum   'Li4 Mn4 P12 O36'
_cell_volume   739.00254024
_cell_formula_units_Z   4
loop_
 _symmetry_equiv_pos_site_id
 _symmetry_equiv_pos_as_xyz
  1  'x, y, z'
loop_
 _atom_site_type_symbol
 _atom_site_label
 _atom_site_symmetry_multiplicity
 _atom_site_fract_x
 _atom_site_fract_y
 _atom_site_fract_z
 _atom_site_occupancy
  Li  Li0  1  0.29610500  0.50297600  0.36832000  1
  Li  Li1  1  0.29618000  0.00297800  0.86835600  1
  Li  Li2  1  0.70388600  0.49703400  0.63168400  1
  Li  Li3  1  0.70383600  0.99702400  0.13163900  1
  Mn  Mn0  1  0.17248300  0.79349600  0.63523500  1
  Mn  Mn1  1  0.82751200  0.20646700  0.36476000  1
  Mn  Mn2  1  0.17258800  0.29336800  0.13523200  1
  Mn  Mn3  1  0.82741500  0.70663100  0.86476800  1
  P  P0  1  0.15794300  0.65571000  0.11317400  1
  P  P1  1  0.15798300  0.15574000  0.61320300  1
  P  P2  1  0.84206600  0.34429300  0.88682700  1
  P  P3  1  0.84200800  0.84425500  0.38680100  1
  P  P4  1  0.29145400  0.46103500  0.68437500  1
  P  P5  1  0.29145500  0.96096700  0.18440600  1
  P  P6  1  0.70854200  0.53895800  0.31562400  1
  P  P7  1  0.70855600  0.03903800  0.81559000  1
  P  P8  1  0.37102800  0.67150900  0.89990200  1
  P  P9  1  0.37107700  0.17146200  0.39992300  1
  P  P10  1  0.62897300  0.32849100  0.10009700  1
  P  P11  1  0.62891300  0.82854600  0.60007900  1
  O  O0  1  0.01123800  0.32504700  0.97126700  1
  O  O1  1  0.01118800  0.82508500  0.47124800  1
  O  O2  1  0.98877400  0.67496200  0.02873300  1
  O  O3  1  0.98879600  0.17491400  0.52876700  1
  O  O4  1  0.16768100  0.52928400  0.19742800  1
  O  O5  1  0.16772500  0.02935000  0.69749600  1
  O  O6  1  0.83232300  0.47072100  0.80257300  1
  O  O7  1  0.83227500  0.97064100  0.30250900  1
  O  O8  1  0.15183900  0.55824600  0.62099400  1
  O  O9  1  0.15183800  0.05817800  0.12103000  1
  O  O10  1  0.84815200  0.44174000  0.37900100  1
  O  O11  1  0.84816800  0.94182100  0.87896300  1
  O  O12  1  0.24237100  0.78258800  0.84095900  1
  O  O13  1  0.24241200  0.28254000  0.34097700  1
  O  O14  1  0.75762800  0.21741200  0.15904200  1
  O  O15  1  0.75757300  0.71746400  0.65902600  1
  O  O16  1  0.20436400  0.30137000  0.70250400  1
  O  O17  1  0.20436100  0.80131900  0.20253000  1
  O  O18  1  0.79564300  0.69862200  0.29750100  1
  O  O19  1  0.79565700  0.19868500  0.79746800  1
  O  O20  1  0.32693600  0.64051600  0.03632800  1
  O  O21  1  0.32697000  0.14049900  0.53635700  1
  O  O22  1  0.67307200  0.35948100  0.96367200  1
  O  O23  1  0.67301400  0.85949500  0.46364000  1
  O  O24  1  0.32591600  0.51168000  0.83142500  1
  O  O25  1  0.32592800  0.01163100  0.33146100  1
  O  O26  1  0.67407900  0.48832100  0.16857300  1
  O  O27  1  0.67407800  0.98837800  0.66853500  1
  O  O28  1  0.43374300  0.29405700  0.09051600  1
  O  O29  1  0.43368100  0.79414700  0.59051500  1
  O  O30  1  0.56625800  0.70594300  0.90948000  1
  O  O31  1  0.56630700  0.20587200  0.40949000  1
  O  O32  1  0.53807900  0.55811100  0.36971300  1
  O  O33  1  0.53811300  0.05817800  0.86970600  1
  O  O34  1  0.46191800  0.44188900  0.63028500  1
  O  O35  1  0.46190000  0.94183300  0.13029300  1
loop_
_geom_bond_atom_site_label_1
_geom_bond_atom_site_label_2
_geom_bond_distance
_geom_bond_site_symmetry_2
Li0 O32 1.884307 1_555
Li0 O4 2.010354 1_555
Li0 O13 2.040018 1_555
Li1 O33 1.884221 1_555
Li1 O5 2.010244 1_555
Li1 O12 2.039791 1_545
Li2 O34 1.884278 1_555
Li2 O6 2.010370 1_555
Li2 O15 2.039957 1_555
Li3 O35 1.884228 1_555
Li3 O7 2.010313 1_555
Li3 O14 2.039756 1_565
Mn0 O1 2.062220 1_555
Mn0 O29 2.088852 1_555
Mn0 O8 2.142164 1_555
Mn0 O5 2.215576 1_565
Mn0 O12 2.237913 1_555
Mn1 O3 2.062288 1_555
Mn1 O31 2.088939 1_555
Mn1 O10 2.142371 1_555
Mn1 O7 2.215309 1_545
Mn1 O14 2.237883 1_555
Mn2 O0 2.062394 1_554
Mn2 O28 2.088522 1_555
Mn2 O9 2.141659 1_555
Mn2 O4 2.216017 1_555
Mn2 O13 2.238003 1_555
Mn3 O2 2.062409 1_556
Mn3 O30 2.088521 1_555
Mn3 O11 2.141660 1_555
Mn3 O6 2.215963 1_555
Mn3 O15 2.237991 1_555
O0 P2 1.491951 1_455
O1 P3 1.491922 1_455
O2 P0 1.491949 1_655
O3 P1 1.491908 1_655
O4 P0 1.511780 1_555
O5 P1 1.511790 1_555
O6 P2 1.511793 1_555
O7 P3 1.511755 1_555
O8 P4 1.510842 1_555
O9 P5 1.510830 1_545
O10 P6 1.510840 1_555
O11 P7 1.510826 1_565
O12 P8 1.524448 1_555
O13 P9 1.524490 1_555
O14 P10 1.524448 1_555
O15 P11 1.524497 1_555
O16 P1 1.602096 1_555
O16 P4 1.621687 1_555
O17 P0 1.602296 1_555
O17 P5 1.621548 1_555
O18 P3 1.602096 1_555
O18 P6 1.621698 1_555
O19 P2 1.602297 1_555
O19 P7 1.621556 1_555
O20 P8 1.600642 1_554
O20 P0 1.613884 1_555
O21 P9 1.600700 1_555
O21 P1 1.613873 1_555
O22 P10 1.600643 1_556
O22 P2 1.613881 1_555
O23 P11 1.600708 1_555
O23 P3 1.613871 1_555
O24 P8 1.605935 1_555
O24 P4 1.622240 1_555
O25 P9 1.605928 1_555
O25 P5 1.622332 1_545
O26 P10 1.605933 1_555
O26 P6 1.622234 1_555
O27 P11 1.605928 1_555
O27 P7 1.622325 1_565
O28 P10 1.490539 1_555
O29 P11 1.490506 1_555
O30 P8 1.490542 1_555
O31 P9 1.490508 1_555
O32 P6 1.488762 1_555
O33 P7 1.488758 1_555
O34 P4 1.488768 1_555
O35 P5 1.488750 1_555
