# generated using pymatgen
data_K2Ge3(BO5)2
_symmetry_space_group_name_H-M   'P 1'
_cell_length_a   8.65107421
_cell_length_b   8.65107421
_cell_length_c   12.05869072
_cell_angle_alpha   51.95662803
_cell_angle_beta   51.95662803
_cell_angle_gamma   42.45247283
_symmetry_Int_Tables_number   1
_chemical_formula_structural   K2Ge3(BO5)2
_chemical_formula_sum   'K4 Ge6 B4 O20'
_cell_volume   457.04541659
_cell_formula_units_Z   2
loop_
 _symmetry_equiv_pos_site_id
 _symmetry_equiv_pos_as_xyz
  1  'x, y, z'
loop_
 _atom_site_type_symbol
 _atom_site_label
 _atom_site_symmetry_multiplicity
 _atom_site_fract_x
 _atom_site_fract_y
 _atom_site_fract_z
 _atom_site_occupancy
  K  K0  1  0.68472900  0.79166700  0.11421700  1
  K  K1  1  0.34297400  0.95593000  0.61291200  1
  K  K2  1  0.20833300  0.31527100  0.88578300  1
  K  K3  1  0.04407000  0.65702600  0.38708800  1
  Ge  Ge0  1  0.10264400  0.89735600  0.00000000  1
  Ge  Ge1  1  0.72049900  0.36326800  0.82415800  1
  Ge  Ge2  1  0.05546300  0.19300200  0.31644500  1
  Ge  Ge3  1  0.35780900  0.64219100  0.50000000  1
  Ge  Ge4  1  0.80699800  0.94453700  0.68355500  1
  Ge  Ge5  1  0.63673200  0.27950100  0.17584200  1
  B  B0  1  0.77976000  0.37632400  0.55867500  1
  B  B1  1  0.59546000  0.68632900  0.92262000  1
  B  B2  1  0.62367600  0.22024000  0.44132500  1
  B  B3  1  0.31367100  0.40454000  0.07738000  1
  O  O0  1  0.12380900  0.74142700  0.65891600  1
  O  O1  1  0.77483800  0.31203500  0.32385400  1
  O  O2  1  0.77768000  0.49443500  0.85187600  1
  O  O3  1  0.12751400  0.62776400  0.12215500  1
  O  O4  1  0.68796500  0.22516200  0.67614600  1
  O  O5  1  0.55878000  0.18928700  0.37032000  1
  O  O6  1  0.50556500  0.22232000  0.14812400  1
  O  O7  1  0.25857300  0.87619100  0.34108400  1
  O  O8  1  0.95695900  0.06512200  0.11397500  1
  O  O9  1  0.01968000  0.25028100  0.45185800  1
  O  O10  1  0.37223600  0.87248600  0.87784500  1
  O  O11  1  0.60201000  0.60722000  0.47727500  1
  O  O12  1  0.69364400  0.81365600  0.87193600  1
  O  O13  1  0.54272100  0.58238400  0.08718500  1
  O  O14  1  0.41761600  0.45727900  0.91281500  1
  O  O15  1  0.39278000  0.39799000  0.52272500  1
  O  O16  1  0.74971900  0.98032000  0.54814200  1
  O  O17  1  0.18634400  0.30635600  0.12806400  1
  O  O18  1  0.81071300  0.44122000  0.62968000  1
  O  O19  1  0.93487800  0.04304100  0.88602500  1
loop_
_geom_bond_atom_site_label_1
_geom_bond_atom_site_label_2
_geom_bond_distance
_geom_bond_site_symmetry_2
K0 O12 2.763471 1_554
K0 O7 2.768966 1_555
K0 O1 2.990419 1_555
K0 O3 2.993735 1_655
K0 O6 3.004127 1_565
K0 O19 3.035451 1_564
K0 O13 3.065418 1_555
K0 O17 3.103162 1_655
K0 O17 3.184753 1_565
K0 O11 3.382109 1_555
K1 O5 2.769528 1_565
K1 O9 2.857980 1_565
K1 O11 2.895774 1_555
K1 O10 2.945548 1_555
K1 O19 2.946297 1_465
K1 O18 3.090634 1_555
K1 O0 3.158006 1_555
K1 O18 3.200115 1_465
K1 O16 3.246774 1_555
K1 O14 3.412383 1_555
K2 O17 2.763471 1_556
K2 O0 2.768966 1_555
K2 O4 2.990419 1_555
K2 O10 2.993735 1_545
K2 O2 3.004127 1_455
K2 O8 3.035451 1_456
K2 O14 3.065418 1_555
K2 O12 3.103162 1_545
K2 O12 3.184753 1_455
K2 O15 3.382109 1_555
K3 O18 2.769528 1_455
K3 O16 2.857980 1_455
K3 O15 2.895774 1_555
K3 O3 2.945548 1_555
K3 O8 2.946297 1_465
K3 O5 3.090634 1_555
K3 O7 3.158006 1_555
K3 O5 3.200115 1_465
K3 O9 3.246774 1_555
K3 O13 3.412383 1_555
Ge0 O3 1.752537 1_555
Ge0 O10 1.752537 1_554
Ge0 O8 1.791121 1_465
Ge0 O19 1.791121 1_464
Ge1 O18 1.770653 1_555
Ge1 O2 1.773031 1_555
Ge1 O14 1.773263 1_555
Ge1 O19 1.801939 1_555
Ge2 O1 1.766094 1_455
Ge2 O17 1.768255 1_555
Ge2 O9 1.776415 1_555
Ge2 O7 1.794624 1_545
Ge3 O15 1.753623 1_555
Ge3 O11 1.753623 1_555
Ge3 O7 1.785804 1_555
Ge3 O0 1.785804 1_555
Ge4 O4 1.766094 1_565
Ge4 O12 1.768255 1_555
Ge4 O16 1.776415 1_555
Ge4 O0 1.794624 1_655
Ge5 O5 1.770653 1_555
Ge5 O6 1.773031 1_555
Ge5 O13 1.773263 1_555
Ge5 O8 1.801939 1_555
B0 O4 1.486671 1_555
B0 O18 1.488936 1_555
B0 O11 1.493041 1_555
B0 O9 1.500773 1_655
B1 O2 1.481514 1_555
B1 O12 1.489774 1_555
B1 O10 1.496127 1_555
B1 O13 1.498300 1_556
B2 O1 1.486671 1_555
B2 O5 1.488936 1_555
B2 O15 1.493041 1_555
B2 O16 1.500773 1_545
B3 O6 1.481514 1_555
B3 O17 1.489774 1_555
B3 O3 1.496127 1_555
B3 O14 1.498300 1_554
