# generated using pymatgen
data_TmMoClO4
_symmetry_space_group_name_H-M   'P 1'
_cell_length_a   6.26139739
_cell_length_b   6.26139739
_cell_length_c   6.87600926
_cell_angle_alpha   75.76437589
_cell_angle_beta   75.76437589
_cell_angle_gamma   70.65584111
_symmetry_Int_Tables_number   1
_chemical_formula_structural   TmMoClO4
_chemical_formula_sum   'Tm2 Mo2 Cl2 O8'
_cell_volume   242.52681606
_cell_formula_units_Z   2
loop_
 _symmetry_equiv_pos_site_id
 _symmetry_equiv_pos_as_xyz
  1  'x, y, z'
loop_
 _atom_site_type_symbol
 _atom_site_label
 _atom_site_symmetry_multiplicity
 _atom_site_fract_x
 _atom_site_fract_y
 _atom_site_fract_z
 _atom_site_occupancy
  Tm  Tm0  1  0.77832000  0.77832000  0.11274000  1
  Tm  Tm1  1  0.22168000  0.22168000  0.88726000  1
  Mo  Mo0  1  0.36222900  0.36222900  0.26905300  1
  Mo  Mo1  1  0.63777100  0.63777100  0.73094700  1
  Cl  Cl0  1  0.98964700  0.98964700  0.76839300  1
  Cl  Cl1  1  0.01035300  0.01035300  0.23160700  1
  O  O0  1  0.70649200  0.70649200  0.46204400  1
  O  O1  1  0.29350800  0.29350800  0.53795600  1
  O  O2  1  0.50784200  0.89374800  0.84629200  1
  O  O3  1  0.45496200  0.45496200  0.80036700  1
  O  O4  1  0.10625200  0.49215800  0.15370800  1
  O  O5  1  0.89374800  0.50784200  0.84629200  1
  O  O6  1  0.54503800  0.54503800  0.19963300  1
  O  O7  1  0.49215800  0.10625200  0.15370800  1
loop_
_geom_bond_atom_site_label_1
_geom_bond_atom_site_label_2
_geom_bond_distance
_geom_bond_site_symmetry_2
Mo0 O1 1.768926 1_555
Mo0 O6 1.782918 1_555
Mo0 O7 1.817633 1_555
Mo0 O4 1.817633 1_555
Mo1 O0 1.768926 1_555
Mo1 O3 1.782918 1_555
Mo1 O5 1.817633 1_555
Mo1 O2 1.817633 1_555
Cl0 Tm0 2.680685 1_556
Cl0 Tm1 2.730562 1_665
Cl0 O1 3.030365 1_665
Cl0 O5 3.161570 1_555
Cl0 O2 3.161570 1_555
Cl0 O5 3.252832 1_565
Cl0 O2 3.252832 1_655
Cl0 Cl1 3.255083 1_666
Cl0 Cl1 3.632786 1_665
Cl0 O3 3.638175 1_565
Cl0 O3 3.638175 1_655
Cl1 Tm1 2.680685 1_554
Cl1 Tm0 2.730562 1_445
Cl1 O0 3.030365 1_445
Cl1 O7 3.161570 1_555
Cl1 O4 3.161570 1_555
Cl1 O4 3.252832 1_545
Cl1 O7 3.252832 1_455
Cl1 O6 3.638175 1_545
Cl1 O6 3.638175 1_455
O0 Tm0 2.290139 1_555
O1 Tm1 2.290139 1_555
O2 Tm1 2.259383 1_565
O2 Tm0 2.609792 1_556
O3 Tm1 2.275765 1_555
O4 Tm0 2.259383 1_455
O4 Tm1 2.609792 1_554
O5 Tm1 2.259383 1_655
O5 Tm0 2.609792 1_556
O6 Tm0 2.275765 1_555
O7 Tm0 2.259383 1_545
O7 Tm1 2.609792 1_554
