# generated using pymatgen
data_CaSiBHO5
_symmetry_space_group_name_H-M   'P 1'
_cell_length_a   7.70310600
_cell_length_b   4.90241800
_cell_length_c   9.71694451
_cell_angle_alpha   89.78017865
_cell_angle_beta   90.00000000
_cell_angle_gamma   90.00000000
_symmetry_Int_Tables_number   1
_chemical_formula_structural   CaSiBHO5
_chemical_formula_sum   'Ca4 Si4 B4 H4 O20'
_cell_volume   366.94649082
_cell_formula_units_Z   4
loop_
 _symmetry_equiv_pos_site_id
 _symmetry_equiv_pos_as_xyz
  1  'x, y, z'
loop_
 _atom_site_type_symbol
 _atom_site_label
 _atom_site_symmetry_multiplicity
 _atom_site_fract_x
 _atom_site_fract_y
 _atom_site_fract_z
 _atom_site_occupancy
  Ca  Ca0  1  0.89698300  0.00927000  0.33709400  1
  Ca  Ca1  1  0.10301700  0.99073000  0.66290600  1
  Ca  Ca2  1  0.60301700  0.00927000  0.83709400  1
  Ca  Ca3  1  0.39698300  0.99073000  0.16290600  1
  Si  Si0  1  0.26444600  0.46752000  0.91566900  1
  Si  Si1  1  0.23555400  0.46752000  0.41566900  1
  Si  Si2  1  0.76444600  0.53248000  0.58433100  1
  Si  Si3  1  0.73555400  0.53248000  0.08433100  1
  B  B0  1  0.09076300  0.56749000  0.15961500  1
  B  B1  1  0.90923700  0.43251000  0.84038500  1
  B  B2  1  0.59076300  0.43251000  0.34038500  1
  B  B3  1  0.40923700  0.56749000  0.65961500  1
  H  H0  1  0.95711700  0.80682700  0.92364600  1
  H  H1  1  0.45711700  0.19317300  0.57635400  1
  H  H2  1  0.04288300  0.19317300  0.07635400  1
  H  H3  1  0.54288300  0.80682700  0.42364600  1
  O  O0  1  0.08770800  0.26069400  0.16433500  1
  O  O1  1  0.10083800  0.23830600  0.46278300  1
  O  O2  1  0.70001300  0.33117900  0.45663000  1
  O  O3  1  0.08574200  0.31535700  0.85433400  1
  O  O4  1  0.41229200  0.26069400  0.66433500  1
  O  O5  1  0.66570100  0.32691800  0.21025800  1
  O  O6  1  0.39916200  0.23830600  0.96278300  1
  O  O7  1  0.58574200  0.68464300  0.64566600  1
  O  O8  1  0.91229200  0.73930600  0.83566500  1
  O  O9  1  0.60083800  0.76169400  0.03721700  1
  O  O10  1  0.91425800  0.68464300  0.14566600  1
  O  O11  1  0.16570100  0.67308200  0.28974200  1
  O  O12  1  0.89916200  0.76169400  0.53721700  1
  O  O13  1  0.41425800  0.31535700  0.35433400  1
  O  O14  1  0.20001300  0.66882100  0.04337000  1
  O  O15  1  0.58770800  0.73930600  0.33566500  1
  O  O16  1  0.29998700  0.66882100  0.54337000  1
  O  O17  1  0.79998700  0.33117900  0.95663000  1
  O  O18  1  0.83429900  0.32691800  0.71025800  1
  O  O19  1  0.33429900  0.67308200  0.78974200  1
loop_
_geom_bond_atom_site_label_1
_geom_bond_atom_site_label_2
_geom_bond_distance
_geom_bond_site_symmetry_2
Ca0 O1 2.286650 1_655
Ca0 O12 2.288383 1_545
Ca0 O10 2.456240 1_545
Ca0 O2 2.481098 1_555
Ca0 O0 2.545558 1_655
Ca0 O5 2.665201 1_555
Ca0 O11 2.686749 1_645
Ca0 O15 2.725371 1_545
Ca1 O12 2.286650 1_455
Ca1 O1 2.288383 1_565
Ca1 O3 2.456240 1_565
Ca1 O16 2.481098 1_555
Ca1 O8 2.545558 1_455
Ca1 O19 2.665201 1_555
Ca1 O18 2.686749 1_465
Ca1 O4 2.725371 1_565
Ca2 O6 2.286650 1_555
Ca2 O9 2.288383 1_546
Ca2 O7 2.456240 1_545
Ca2 O17 2.481098 1_555
Ca2 O4 2.545558 1_555
Ca2 O18 2.665201 1_555
Ca2 O19 2.686749 1_545
Ca2 O8 2.725371 1_545
Ca3 O9 2.286650 1_555
Ca3 O6 2.288383 1_564
Ca3 O13 2.456240 1_565
Ca3 O14 2.481098 1_555
Ca3 O15 2.545558 1_555
Ca3 O11 2.665201 1_555
Ca3 O5 2.686749 1_565
Ca3 O0 2.725371 1_565
B0 O10 1.481973 1_455
B0 O11 1.484929 1_555
B0 O14 1.492172 1_555
B0 O0 1.504749 1_555
B1 O3 1.481973 1_655
B1 O18 1.484929 1_555
B1 O17 1.492172 1_555
B1 O8 1.504749 1_555
B2 O13 1.481973 1_555
B2 O5 1.484929 1_555
B2 O2 1.492172 1_555
B2 O15 1.504749 1_555
B3 O7 1.481973 1_555
B3 O19 1.484929 1_555
B3 O16 1.492172 1_555
B3 O4 1.504749 1_555
H0 O8 0.980732 1_555
H1 O4 0.980732 1_555
H2 O0 0.980732 1_555
H3 O15 0.980732 1_555
O1 Si1 1.595378 1_555
O2 Si2 1.664146 1_555
O3 Si0 1.676318 1_555
O5 Si3 1.671196 1_555
O6 Si0 1.595378 1_555
O7 Si2 1.676318 1_555
O9 Si3 1.595378 1_555
O10 Si3 1.676318 1_555
O11 Si1 1.671196 1_555
O12 Si2 1.595378 1_555
O13 Si1 1.676318 1_555
O14 Si0 1.664146 1_554
O16 Si1 1.664146 1_555
O17 Si3 1.664146 1_556
O18 Si2 1.671196 1_555
O19 Si0 1.671196 1_555
