# generated using pymatgen
data_La5Sn3Br
_symmetry_space_group_name_H-M   'P 1'
_cell_length_a   9.69986373
_cell_length_b   9.70008938
_cell_length_c   7.04432455
_cell_angle_alpha   89.99992191
_cell_angle_beta   90.00009286
_cell_angle_gamma   119.99978982
_symmetry_Int_Tables_number   1
_chemical_formula_structural   La5Sn3Br
_chemical_formula_sum   'La10 Sn6 Br2'
_cell_volume   574.00050863
_cell_formula_units_Z   2
loop_
 _symmetry_equiv_pos_site_id
 _symmetry_equiv_pos_as_xyz
  1  'x, y, z'
loop_
 _atom_site_type_symbol
 _atom_site_label
 _atom_site_symmetry_multiplicity
 _atom_site_fract_x
 _atom_site_fract_y
 _atom_site_fract_z
 _atom_site_occupancy
  La  La0  1  0.26918516  0.26917910  0.74999311  1
  La  La1  1  0.00000616  0.73083214  0.75000101  1
  La  La2  1  0.73078793  0.99998860  0.74999627  1
  La  La3  1  -0.00000031  0.26915987  0.24999667  1
  La  La4  1  0.33334223  0.66667855  0.50000191  1
  La  La5  1  0.73082912  0.73082067  0.25000687  1
  La  La6  1  0.66667335  0.33334842  0.50000263  1
  La  La7  1  0.26918209  0.99997670  0.24999668  1
  La  La8  1  0.33334364  0.66667738  -0.00000042  1
  La  La9  1  0.66665643  0.33333624  -0.00000140  1
  Sn  Sn0  1  0.61387874  0.99998881  0.25000484  1
  Sn  Sn1  1  0.00001547  0.38612058  0.74999637  1
  Sn  Sn2  1  0.38610658  0.99999439  0.74999826  1
  Sn  Sn3  1  0.61388606  0.61389415  0.74999841  1
  Sn  Sn4  1  0.00001372  0.61390468  0.25000322  1
  Sn  Sn5  1  0.38611188  0.38611478  0.25000369  1
  Br  Br0  1  0.99999092  -0.00000800  0.00000003  1
  Br  Br1  1  0.99999081  -0.00000806  0.50000184  1
loop_
_geom_bond_atom_site_label_1
_geom_bond_atom_site_label_2
_geom_bond_distance
_geom_bond_site_symmetry_2
La0 Sn1 3.326444 1_555
La0 Sn2 3.326479 1_545
La0 Sn3 3.343670 1_555
La0 Sn5 3.700215 1_555
La0 Sn5 3.700356 1_556
La0 La9 3.994213 1_556
La0 La6 3.994278 1_555
La0 La4 3.994496 1_555
La0 La8 3.994532 1_556
La1 Sn2 3.326358 1_555
La1 Sn3 3.326516 1_455
La1 Sn1 3.343778 1_555
La1 Sn4 3.700275 1_555
La1 Sn4 3.700302 1_556
La1 La4 3.994377 1_555
La1 La6 3.994383 1_455
La1 La8 3.994388 1_556
La1 La9 3.994500 1_456
La2 Sn3 3.326445 1_555
La2 Sn1 3.326773 1_665
La2 Sn2 3.343390 1_555
La2 Sn0 3.700156 1_555
La2 Sn0 3.700274 1_556
La2 La4 3.994065 1_555
La2 La8 3.994090 1_556
La2 La6 3.994406 1_565
La2 La9 3.994424 1_566
La3 Sn5 3.326406 1_555
La3 Sn0 3.326523 1_445
La3 Sn4 3.343987 1_555
La3 Sn1 3.700352 1_555
La3 Sn1 3.700353 1_554
La3 La6 3.994504 1_455
La3 La9 3.994554 1_455
La3 La8 3.994598 1_555
La3 La4 3.994625 1_555
La4 Sn0 3.487322 1_555
La4 Sn3 3.487390 1_555
La4 Sn2 3.487414 1_555
La4 Sn4 3.487426 1_555
La4 Sn1 3.487445 1_555
La4 Sn5 3.487537 1_555
La4 La8 3.522146 1_556
La4 La8 3.522179 1_555
La4 La7 3.994158 1_555
La4 La5 3.994367 1_555
La5 Sn4 3.326401 1_655
La5 Sn0 3.326531 1_555
La5 Sn5 3.343705 1_555
La5 Sn3 3.700240 1_555
La5 Sn3 3.700353 1_554
La5 La6 3.994280 1_555
La5 La9 3.994374 1_555
La5 La8 3.994384 1_555
La6 Sn5 3.487451 1_555
La6 Sn3 3.487471 1_555
La6 Sn1 3.487526 1_655
La6 Sn4 3.487528 1_655
La6 Sn2 3.487638 1_545
La6 Sn0 3.487688 1_545
La6 La9 3.522134 1_556
La6 La9 3.522191 1_555
La6 La7 3.994544 1_545
La7 Sn4 3.326219 1_555
La7 Sn5 3.326789 1_565
La7 Sn0 3.343452 1_555
La7 Sn2 3.700225 1_554
La7 Sn2 3.700243 1_555
La7 La8 3.994156 1_555
La7 La9 3.994391 1_565
La8 Sn0 3.487353 1_555
La8 Sn3 3.487394 1_554
La8 Sn2 3.487442 1_554
La8 Sn4 3.487463 1_555
La8 Sn1 3.487478 1_554
La8 Sn5 3.487537 1_555
La9 Sn5 3.487401 1_555
La9 Sn3 3.487495 1_554
La9 Sn2 3.487539 1_544
La9 Sn1 3.487663 1_654
La9 Sn0 3.487666 1_545
La9 Sn4 3.487671 1_655
Br0 La3 3.149315 1_655
Br0 La1 3.149357 1_644
Br0 La5 3.149360 1_545
Br0 La7 3.149545 1_645
Br0 La0 3.149554 1_654
Br0 La2 3.149593 1_544
Br0 Br1 3.522150 1_554
Br0 Br1 3.522175 1_555
Br1 La5 3.149312 1_545
Br1 La3 3.149345 1_655
Br1 La1 3.149353 1_645
Br1 La0 3.149493 1_655
Br1 La2 3.149560 1_545
Br1 La7 3.149584 1_645
