# generated using pymatgen
data_K2ScSi4O10F
_symmetry_space_group_name_H-M   'P 1'
_cell_length_a   9.01900828
_cell_length_b   9.01900828
_cell_length_c   9.01900828
_cell_angle_alpha   102.12896461
_cell_angle_beta   102.12896461
_cell_angle_gamma   125.43467210
_symmetry_Int_Tables_number   1
_chemical_formula_structural   K2ScSi4O10F
_chemical_formula_sum   'K4 Sc2 Si8 O20 F2'
_cell_volume   531.24847919
_cell_formula_units_Z   2
loop_
 _symmetry_equiv_pos_site_id
 _symmetry_equiv_pos_as_xyz
  1  'x, y, z'
loop_
 _atom_site_type_symbol
 _atom_site_label
 _atom_site_symmetry_multiplicity
 _atom_site_fract_x
 _atom_site_fract_y
 _atom_site_fract_z
 _atom_site_occupancy
  K  K0  1  0.31580100  0.68425400  0.00005600  1
  K  K1  1  0.68425400  0.68419800  0.36845300  1
  K  K2  1  0.68419900  0.31574600  0.99994400  1
  K  K3  1  0.31574600  0.31580200  0.63154700  1
  Sc  Sc0  1  0.24497700  0.24497700  0.00000000  1
  Sc  Sc1  1  0.75502300  0.75502300  0.00000000  1
  Si  Si0  1  0.20230800  0.50507200  0.32439400  1
  Si  Si1  1  0.18067800  0.87791400  0.67560600  1
  Si  Si2  1  0.49492800  0.81932200  0.69723600  1
  Si  Si3  1  0.12208600  0.79769200  0.30276400  1
  Si  Si4  1  0.81932200  0.12208600  0.32439400  1
  Si  Si5  1  0.50507200  0.18067800  0.30276400  1
  Si  Si6  1  0.87791400  0.20230800  0.69723600  1
  Si  Si7  1  0.79769200  0.49492800  0.67560600  1
  O  O0  1  0.31728800  0.94794400  0.26523200  1
  O  O1  1  0.73412700  0.91943000  0.18288300  1
  O  O2  1  0.59199400  0.32157000  0.50105000  1
  O  O3  1  0.44875600  0.26587300  0.18530300  1
  O  O4  1  0.26345300  0.44875600  0.18288300  1
  O  O5  1  0.09094400  0.59199400  0.27042400  1
  O  O6  1  0.32157000  0.82052000  0.72957600  1
  O  O7  1  0.91943000  0.73654700  0.18530300  1
  O  O8  1  0.68271200  0.05205600  0.73476800  1
  O  O9  1  0.90905600  0.40800600  0.72957600  1
  O  O10  1  0.17948000  0.90905600  0.50105000  1
  O  O11  1  0.67843000  0.17948000  0.27042400  1
  O  O12  1  0.05205600  0.31728800  0.36934400  1
  O  O13  1  0.73654700  0.55124400  0.81711700  1
  O  O14  1  0.55124400  0.73412700  0.81469700  1
  O  O15  1  0.26587300  0.08057000  0.81711700  1
  O  O16  1  0.08057000  0.26345300  0.81469700  1
  O  O17  1  0.94794400  0.68271200  0.63065600  1
  O  O18  1  0.40800600  0.67843000  0.49895000  1
  O  O19  1  0.82052000  0.09094400  0.49895000  1
  F  F0  1  0.00000000  0.00000000  0.00000000  1
  F  F1  1  0.50000000  0.50000000  0.00000000  1
loop_
_geom_bond_atom_site_label_1
_geom_bond_atom_site_label_2
_geom_bond_distance
_geom_bond_site_symmetry_2
K0 O4 2.844141 1_555
K0 O1 2.844147 1_555
K0 O16 2.864676 1_554
K0 O14 2.864682 1_554
K0 O9 2.950103 1_454
K0 O6 2.950107 1_554
K0 O0 2.989207 1_555
K0 O5 3.424204 1_555
K0 O11 3.424210 1_565
K1 O3 2.844141 1_555
K1 O7 2.844147 1_555
K1 O4 2.864676 1_555
K1 O1 2.864682 1_555
K1 O18 2.950103 1_555
K1 O19 2.950107 1_565
K1 O17 2.989207 1_555
K1 O2 3.424204 1_555
K1 O10 3.424210 1_655
K2 O13 2.844141 1_555
K2 O15 2.844147 1_555
K2 O7 2.864676 1_556
K2 O3 2.864682 1_556
K2 O5 2.950103 1_656
K2 O11 2.950107 1_556
K2 O8 2.989207 1_555
K2 O9 3.424204 1_555
K2 O6 3.424210 1_545
K3 O14 2.844141 1_555
K3 O16 2.844147 1_555
K3 O13 2.864676 1_555
K3 O15 2.864682 1_555
K3 O2 2.950103 1_555
K3 O10 2.950107 1_545
K3 O12 2.989207 1_555
K3 O18 3.424204 1_555
K3 O19 3.424210 1_455
O0 Si5 1.651430 1_565
O0 Si3 1.651430 1_555
O1 Si4 1.593472 1_565
O1 Sc1 2.093244 1_555
O2 Si5 1.651740 1_555
O2 Si7 1.655198 1_555
O3 Si5 1.593472 1_555
O3 Sc0 2.093244 1_555
O4 Si0 1.593472 1_555
O4 Sc0 2.093244 1_555
O5 Si0 1.651740 1_555
O5 Si3 1.655198 1_555
O6 Si1 1.651740 1_555
O6 Si2 1.655198 1_555
O7 Si3 1.593472 1_655
O7 Sc1 2.093244 1_555
O8 Si2 1.651430 1_545
O8 Si6 1.651430 1_555
O9 Si7 1.651740 1_555
O9 Si6 1.655198 1_555
O10 Si3 1.651740 1_555
O10 Si1 1.655198 1_555
O11 Si4 1.651740 1_555
O11 Si5 1.655198 1_555
O12 Si4 1.651430 1_455
O12 Si0 1.651430 1_555
O13 Si7 1.593472 1_555
O13 Sc1 2.093244 1_556
O14 Si2 1.593472 1_555
O14 Sc1 2.093244 1_556
O15 Si1 1.593472 1_545
O15 Sc0 2.093244 1_556
O16 Si6 1.593472 1_455
O16 Sc0 2.093244 1_556
O17 Si7 1.651430 1_555
O17 Si1 1.651430 1_655
O18 Si2 1.651740 1_555
O18 Si0 1.655198 1_555
O19 Si6 1.651740 1_555
O19 Si4 1.655198 1_555
F0 Sc0 2.025538 1_555
F0 Sc1 2.025538 1_445
F1 Sc1 2.108601 1_555
F1 Sc0 2.108601 1_555
F1 O15 2.853321 1_554
F1 O16 2.853321 1_554
F1 O13 2.853321 1_554
F1 O4 2.853321 1_555
F1 O14 2.853321 1_554
F1 O1 2.853321 1_555
F1 O7 2.853321 1_555
F1 O3 2.853321 1_555
F1 K0 2.953408 1_555
F1 K1 2.953408 1_555
F1 K3 2.953408 1_554
F1 K2 2.953408 1_554
