# generated using pymatgen
data_Er2Ti3Si4
_symmetry_space_group_name_H-M   'P 1'
_cell_length_a   7.01126821
_cell_length_b   7.01125705
_cell_length_c   12.86408877
_cell_angle_alpha   89.99881719
_cell_angle_beta   90.00077509
_cell_angle_gamma   89.99989597
_symmetry_Int_Tables_number   1
_chemical_formula_structural   Er2Ti3Si4
_chemical_formula_sum   'Er8 Ti12 Si16'
_cell_volume   632.37035001
_cell_formula_units_Z   4
loop_
 _symmetry_equiv_pos_site_id
 _symmetry_equiv_pos_as_xyz
  1  'x, y, z'
loop_
 _atom_site_type_symbol
 _atom_site_label
 _atom_site_symmetry_multiplicity
 _atom_site_fract_x
 _atom_site_fract_y
 _atom_site_fract_z
 _atom_site_occupancy
  Er  Er0  1  0.34108088  0.00058838  0.46605338  1
  Er  Er1  1  0.49940533  0.84106895  0.71609350  1
  Er  Er2  1  0.50057453  0.15892908  0.21603119  1
  Er  Er3  1  0.84107300  0.49940658  0.28390384  1
  Er  Er4  1  0.15893179  0.50057840  0.78396882  1
  Er  Er5  1  0.65893366  0.99941215  0.96607702  1
  Er  Er6  1  0.00058781  0.34107641  0.53393909  1
  Er  Er7  1  0.99941364  0.65892769  0.03393303  1
  Ti  Ti0  1  0.32790863  0.32791740  0.00001353  1
  Ti  Ti1  1  0.17210069  0.82789538  0.24998101  1
  Ti  Ti2  1  0.82791787  0.17207773  0.75002037  1
  Ti  Ti3  1  0.67210596  0.67211721  0.49998637  1
  Ti  Ti4  1  0.15194836  0.00791773  0.87595602  1
  Ti  Ti5  1  0.49206615  0.65195793  0.12593787  1
  Ti  Ti6  1  0.50792644  0.34804624  0.62594388  1
  Ti  Ti7  1  0.65195014  0.49207750  0.87408484  1
  Ti  Ti8  1  0.34803601  0.50794003  0.37403510  1
  Ti  Ti9  1  0.84805302  0.99206561  0.37592124  1
  Ti  Ti10  1  0.00792709  0.15194557  0.12405872  1
  Ti  Ti11  1  0.99207571  0.84804482  0.62406421  1
  Si  Si0  1  0.20417982  0.13143982  0.68299697  1
  Si  Si1  1  0.36857139  0.70417437  0.93299834  1
  Si  Si2  1  0.63143652  0.29582355  0.43296666  1
  Si  Si3  1  0.70417450  0.36856979  0.06701197  1
  Si  Si4  1  0.29582113  0.63143645  0.56702368  1
  Si  Si5  1  0.79582006  0.86857178  0.18296868  1
  Si  Si6  1  0.13143593  0.20417931  0.31700017  1
  Si  Si7  1  0.86856537  0.79581779  0.81703262  1
  Si  Si8  1  0.29128078  0.95221920  0.06415141  1
  Si  Si9  1  0.54777695  0.79129963  0.31413224  1
  Si  Si10  1  0.45221893  0.20871287  0.81416878  1
  Si  Si11  1  0.79129064  0.54777379  0.68586064  1
  Si  Si12  1  0.20870390  0.45222126  0.18583412  1
  Si  Si13  1  0.70869866  0.04778511  0.56415156  1
  Si  Si14  1  0.95222270  0.29128369  0.93586437  1
  Si  Si15  1  0.04778702  0.70869982  0.43583576  1
loop_
_geom_bond_atom_site_label_1
_geom_bond_atom_site_label_2
_geom_bond_distance
_geom_bond_site_symmetry_2
Er0 Si6 2.806144 1_555
Er0 Si9 2.841296 1_545
Er0 Si13 2.888818 1_555
Er0 Si4 2.913171 1_545
Er0 Si15 2.927105 1_545
Er0 Si2 2.934325 1_555
Er0 Si0 3.090572 1_555
Er0 Ti1 3.255116 1_545
Er0 Ti3 3.298614 1_545
Er0 Ti11 3.356087 1_445
Er0 Ti6 3.396153 1_555
Er0 Er6 3.487242 1_555
Er1 Si4 2.806264 1_555
Er1 Si13 2.841530 1_565
Er1 Si10 2.888877 1_565
Er1 Si7 2.913043 1_555
Er1 Si11 2.927123 1_555
Er1 Si0 2.934356 1_565
Er1 Si1 3.090036 1_555
Er1 Ti3 3.255471 1_555
Er1 Ti2 3.298744 1_565
Er1 Ti7 3.355816 1_555
Er1 Ti4 3.395952 1_565
Er1 Er4 3.487108 1_555
Er2 Si3 2.805891 1_555
Er2 Si8 2.840973 1_545
Er2 Si9 2.888894 1_545
Er2 Si6 2.913117 1_555
Er2 Si12 2.926957 1_555
Er2 Si5 2.934346 1_545
Er2 Si2 3.090464 1_555
Er2 Ti0 3.254421 1_555
Er2 Ti1 3.298712 1_545
Er2 Ti8 3.356078 1_555
Er2 Ti9 3.396241 1_545
Er2 Er3 3.487165 1_555
Er3 Si2 2.806199 1_555
Er3 Si15 2.841448 1_655
Er3 Si12 2.888760 1_655
Er3 Si5 2.913043 1_555
Er3 Si9 2.927158 1_555
Er3 Si6 2.934326 1_655
Er3 Si3 3.089912 1_555
Er3 Ti3 3.255266 1_555
Er3 Ti1 3.298710 1_655
Er3 Ti5 3.355720 1_555
Er3 Ti10 3.395853 1_655
Er4 Si1 2.805977 1_555
Er4 Si14 2.841099 1_455
Er4 Si11 2.889012 1_455
Er4 Si0 2.913135 1_555
Er4 Si10 2.926912 1_555
Er4 Si7 2.934363 1_455
Er4 Si4 3.090545 1_555
Er4 Ti0 3.254676 1_556
Er4 Ti2 3.298748 1_455
Er4 Ti6 3.356141 1_555
Er4 Ti11 3.396268 1_455
Er5 Si7 2.806098 1_555
Er5 Si10 2.841223 1_565
Er5 Si8 2.888925 1_556
Er5 Si3 2.913034 1_566
Er5 Si14 2.926985 1_565
Er5 Si1 2.934359 1_555
Er5 Si5 3.089856 1_556
Er5 Ti2 3.254867 1_565
Er5 Ti0 3.298807 1_566
Er5 Ti10 3.355764 1_666
Er5 Ti5 3.395915 1_556
Er5 Er7 3.487026 1_556
Er6 Si0 2.806158 1_555
Er6 Si11 2.841335 1_455
Er6 Si15 2.888872 1_555
Er6 Si2 2.913187 1_455
Er6 Si13 2.927082 1_455
Er6 Si4 2.934337 1_555
Er6 Si6 3.090502 1_555
Er6 Ti2 3.255187 1_455
Er6 Ti3 3.298777 1_455
Er6 Ti9 3.356163 1_445
Er6 Ti8 3.396240 1_555
Er7 Si5 2.806064 1_555
Er7 Si12 2.841093 1_655
Er7 Si14 2.888842 1_554
Er7 Si1 2.913032 1_654
Er7 Si8 2.926989 1_655
Er7 Si3 2.934341 1_555
Er7 Si7 3.089982 1_554
Er7 Ti1 3.254800 1_655
Er7 Ti0 3.298655 1_655
Er7 Ti4 3.355695 1_664
Er7 Ti7 3.395839 1_554
Ti0 Ti10 3.016916 1_555
Ti0 Ti4 3.017073 1_554
Ti0 Ti5 3.018370 1_555
Ti0 Ti7 3.018401 1_554
Ti1 Ti8 3.016694 1_555
Ti1 Ti5 3.016743 1_555
Ti1 Ti10 3.018396 1_565
Ti1 Ti9 3.018563 1_455
Ti2 Ti6 3.017136 1_555
Ti2 Ti7 3.017156 1_555
Ti2 Ti4 3.018354 1_655
Ti3 Ti9 3.016788 1_555
Ti3 Ti8 3.018745 1_555
Ti3 Ti6 3.018785 1_555
Ti11 Ti3 3.016945 1_555
Ti11 Ti2 3.018564 1_565
Si0 Si10 2.482979 1_555
Si0 Ti11 2.595052 1_445
Si0 Ti4 2.654356 1_555
Si0 Ti6 2.716703 1_555
Si0 Ti2 2.789993 1_455
Si1 Si8 2.482905 1_556
Si1 Ti7 2.594871 1_555
Si1 Ti5 2.654038 1_556
Si1 Ti4 2.716690 1_565
Si1 Ti0 2.789914 1_556
Si2 Ti8 2.595101 1_555
Si2 Ti6 2.654569 1_555
Si2 Ti9 2.716790 1_545
Si2 Ti3 2.790211 1_555
Si3 Ti5 2.595014 1_555
Si3 Ti7 2.653923 1_554
Si3 Ti10 2.716763 1_655
Si3 Ti0 2.789909 1_555
Si4 Ti6 2.594956 1_555
Si4 Ti8 2.654670 1_555
Si4 Ti11 2.716673 1_455
Si4 Ti3 2.790228 1_555
Si5 Si9 2.482942 1_555
Si5 Ti10 2.594852 1_665
Si5 Ti9 2.654239 1_555
Si5 Ti5 2.716696 1_555
Si5 Ti1 2.790075 1_655
Si6 Ti9 2.594976 1_445
Si6 Ti10 2.654125 1_555
Si6 Ti8 2.716698 1_555
Si6 Ti1 2.790142 1_545
Si7 Ti4 2.594932 1_665
Si7 Ti11 2.654454 1_555
Si7 Ti7 2.716693 1_555
Si7 Ti2 2.789908 1_565
Si8 Ti10 2.549856 1_565
Si8 Ti4 2.639656 1_564
Si8 Ti5 2.654304 1_555
Si8 Ti1 2.678177 1_555
Si8 Ti0 2.772217 1_565
Si9 Ti8 2.549906 1_555
Si9 Ti5 2.639714 1_555
Si9 Ti9 2.654349 1_555
Si9 Ti3 2.678455 1_555
Si9 Ti1 2.772107 1_555
Si10 Ti7 2.549961 1_555
Si10 Ti6 2.640022 1_555
Si10 Ti4 2.654420 1_555
Si10 Ti0 2.678405 1_556
Si10 Ti2 2.772298 1_555
Si11 Si7 2.483034 1_555
Si11 Ti6 2.549943 1_555
Si11 Ti7 2.640039 1_555
Si11 Ti11 2.654411 1_555
Si11 Ti3 2.678724 1_555
Si11 Ti2 2.772283 1_555
Si12 Si6 2.482923 1_555
Si12 Ti5 2.549886 1_555
Si12 Ti8 2.639758 1_555
Si12 Ti10 2.654340 1_555
Si12 Ti0 2.678113 1_555
Si12 Ti1 2.772107 1_555
Si13 Si2 2.483050 1_555
Si13 Ti11 2.550024 1_545
Si13 Ti9 2.640186 1_545
Si13 Ti6 2.654315 1_555
Si13 Ti2 2.678654 1_555
Si13 Ti3 2.772127 1_545
Si14 Si3 2.482863 1_556
Si14 Ti4 2.549925 1_655
Si14 Ti10 2.639660 1_656
Si14 Ti7 2.654375 1_555
Si14 Ti2 2.678367 1_555
Si14 Ti0 2.772193 1_656
Si15 Si4 2.483064 1_555
Si15 Ti9 2.549944 1_455
Si15 Ti11 2.640134 1_455
Si15 Ti8 2.654233 1_555
Si15 Ti1 2.678478 1_555
Si15 Ti3 2.772151 1_455
