# generated using pymatgen
data_K3Na3Nb8(PO7)5
_symmetry_space_group_name_H-M   'P 1'
_cell_length_a   11.54572202
_cell_length_b   11.54572202
_cell_length_c   11.54572212
_cell_angle_alpha   46.64656500
_cell_angle_beta   46.64656500
_cell_angle_gamma   46.64656398
_symmetry_Int_Tables_number   1
_chemical_formula_structural   K3Na3Nb8(PO7)5
_chemical_formula_sum   'K3 Na3 Nb8 P5 O35'
_cell_volume   743.28191483
_cell_formula_units_Z   1
loop_
 _symmetry_equiv_pos_site_id
 _symmetry_equiv_pos_as_xyz
  1  'x, y, z'
loop_
 _atom_site_type_symbol
 _atom_site_label
 _atom_site_symmetry_multiplicity
 _atom_site_fract_x
 _atom_site_fract_y
 _atom_site_fract_z
 _atom_site_occupancy
  K  K0  1  0.00000000  0.41161800  0.58838200  1
  K  K1  1  0.41161800  0.58838200  0.00000000  1
  K  K2  1  0.58838200  0.00000000  0.41161800  1
  Na  Na0  1  0.71458400  0.28541600  0.50000000  1
  Na  Na1  1  0.28541600  0.50000000  0.71458400  1
  Na  Na2  1  0.50000000  0.71458400  0.28541600  1
  Nb  Nb0  1  0.82229100  0.29827800  0.06974800  1
  Nb  Nb1  1  0.76588600  0.76588600  0.76588600  1
  Nb  Nb2  1  0.23411400  0.23411400  0.23411400  1
  Nb  Nb3  1  0.29827800  0.06974800  0.82229100  1
  Nb  Nb4  1  0.70172200  0.17770900  0.93025200  1
  Nb  Nb5  1  0.17770900  0.93025200  0.70172200  1
  Nb  Nb6  1  0.93025200  0.70172200  0.17770900  1
  Nb  Nb7  1  0.06974800  0.82229100  0.29827800  1
  P  P0  1  0.50000000  0.05704100  0.94295900  1
  P  P1  1  0.05704100  0.94295900  0.50000000  1
  P  P2  1  0.40745700  0.40745700  0.40745700  1
  P  P3  1  0.94295900  0.50000000  0.05704100  1
  P  P4  1  0.59254300  0.59254300  0.59254300  1
  O  O0  1  0.26422300  0.56545300  0.33441900  1
  O  O1  1  0.76174700  0.23825300  0.00000000  1
  O  O2  1  0.56545300  0.33441900  0.26422300  1
  O  O3  1  0.10082500  0.75141500  0.94332900  1
  O  O4  1  0.45645500  0.45645500  0.45645500  1
  O  O5  1  0.33441900  0.26422300  0.56545300  1
  O  O6  1  0.61216000  0.86803000  0.95529500  1
  O  O7  1  0.94332900  0.10082500  0.75141500  1
  O  O8  1  0.23825300  0.00000000  0.76174700  1
  O  O9  1  0.13197000  0.38784000  0.04470500  1
  O  O10  1  0.54354500  0.54354500  0.54354500  1
  O  O11  1  0.95529500  0.61216000  0.86803000  1
  O  O12  1  0.61458700  0.15362600  0.83725900  1
  O  O13  1  0.75141500  0.94332900  0.10082500  1
  O  O14  1  0.05667100  0.24858500  0.89917500  1
  O  O15  1  0.43454700  0.73577700  0.66558100  1
  O  O16  1  0.38541300  0.16274100  0.84637400  1
  O  O17  1  0.91679500  0.72878900  0.55660700  1
  O  O18  1  0.24858500  0.89917500  0.05667100  1
  O  O19  1  0.16274100  0.84637400  0.38541300  1
  O  O20  1  0.08320500  0.44339300  0.27121100  1
  O  O21  1  0.44339300  0.27121100  0.08320500  1
  O  O22  1  0.15362600  0.83725900  0.61458700  1
  O  O23  1  0.00000000  0.76174700  0.23825300  1
  O  O24  1  0.89917500  0.05667100  0.24858500  1
  O  O25  1  0.86803000  0.95529500  0.61216000  1
  O  O26  1  0.73577700  0.66558100  0.43454700  1
  O  O27  1  0.72878900  0.55660700  0.91679500  1
  O  O28  1  0.66558100  0.43454700  0.73577700  1
  O  O29  1  0.04470500  0.13197000  0.38784000  1
  O  O30  1  0.27121100  0.08320500  0.44339300  1
  O  O31  1  0.83725900  0.61458700  0.15362600  1
  O  O32  1  0.38784000  0.04470500  0.13197000  1
  O  O33  1  0.84637400  0.38541300  0.16274100  1
  O  O34  1  0.55660700  0.91679500  0.72878900  1
loop_
_geom_bond_atom_site_label_1
_geom_bond_atom_site_label_2
_geom_bond_distance
_geom_bond_site_symmetry_2
K0 O5 2.840392 1_555
K0 O28 2.840392 1_455
K0 O17 2.876933 1_455
K0 O20 2.876933 1_555
K0 O26 3.011010 1_455
K0 O0 3.011010 1_555
K0 O7 3.017650 1_455
K0 O14 3.017650 1_555
K0 O23 3.200996 1_555
K0 O8 3.272453 1_555
K0 O1 3.272453 1_456
K0 O30 3.492996 1_555
K0 O27 3.492996 1_455
K1 O0 2.840392 1_555
K1 O15 2.840392 1_554
K1 O27 2.876933 1_554
K1 O21 2.876933 1_555
K1 O2 3.011010 1_555
K1 O28 3.011010 1_554
K1 O18 3.017650 1_555
K1 O3 3.017650 1_554
K1 O1 3.200996 1_555
K1 O23 3.272453 1_555
K1 O8 3.272453 1_564
K1 O34 3.492996 1_554
K1 O20 3.492996 1_555
K2 O26 2.840392 1_545
K2 O2 2.840392 1_555
K2 O30 2.876933 1_555
K2 O34 2.876933 1_545
K2 O5 3.011010 1_555
K2 O15 3.011010 1_545
K2 O24 3.017650 1_555
K2 O13 3.017650 1_545
K2 O8 3.200996 1_555
K2 O23 3.272453 1_645
K2 O1 3.272453 1_555
K2 O17 3.492996 1_545
K2 O21 3.492996 1_555
Na0 O10 2.376571 1_555
Na0 O4 2.376571 1_555
Na0 O29 2.538703 1_655
Na0 O25 2.538703 1_545
Na0 O12 2.629683 1_555
Na0 O33 2.629683 1_555
Na1 O10 2.376571 1_555
Na1 O4 2.376571 1_555
Na1 O11 2.538703 1_455
Na1 O9 2.538703 1_556
Na1 O22 2.629683 1_555
Na1 O16 2.629683 1_555
Na2 O4 2.376571 1_555
Na2 O10 2.376571 1_555
Na2 O32 2.538703 1_565
Na2 O6 2.538703 1_554
Na2 O19 2.629683 1_555
Na2 O31 2.629683 1_555
Nb0 O14 1.906070 1_654
Nb0 O1 1.954918 1_555
Nb0 O24 2.010316 1_555
Nb0 O27 2.035888 1_554
Nb0 O2 2.110653 1_555
Nb0 O33 2.125842 1_555
Nb1 O34 1.916674 1_555
Nb1 O27 1.916674 1_555
Nb1 O17 1.916674 1_555
Nb1 O11 2.159006 1_555
Nb1 O6 2.159006 1_555
Nb1 O25 2.159006 1_555
Nb2 O20 1.916674 1_555
Nb2 O21 1.916674 1_555
Nb2 O30 1.916674 1_555
Nb2 O32 2.159006 1_555
Nb2 O9 2.159006 1_555
Nb2 O29 2.159006 1_555
Nb3 O18 1.906070 1_546
Nb3 O8 1.954918 1_555
Nb3 O14 2.010316 1_555
Nb3 O34 2.035888 1_545
Nb3 O5 2.110653 1_555
Nb3 O16 2.125842 1_555
Nb4 O13 1.906070 1_546
Nb4 O1 1.954918 1_556
Nb4 O7 2.010316 1_555
Nb4 O21 2.035888 1_556
Nb4 O28 2.110653 1_555
Nb4 O12 2.125842 1_555
Nb5 O7 1.906070 1_465
Nb5 O8 1.954918 1_565
Nb5 O3 2.010316 1_555
Nb5 O30 2.035888 1_565
Nb5 O15 2.110653 1_555
Nb5 O22 2.125842 1_555
Nb6 O3 1.906070 1_654
Nb6 O23 1.954918 1_655
Nb6 O13 2.010316 1_555
Nb6 O20 2.035888 1_655
Nb6 O26 2.110653 1_555
Nb6 O31 2.125842 1_555
Nb7 O24 1.906070 1_465
Nb7 O23 1.954918 1_555
Nb7 O18 2.010316 1_555
Nb7 O17 2.035888 1_455
Nb7 O0 2.110653 1_555
Nb7 O19 2.125842 1_555
O0 P2 1.560234 1_555
O0 O23 2.716343 1_555
O1 O2 2.716343 1_555
O1 O28 2.716343 1_554
O2 P2 1.560234 1_555
O4 P2 1.509414 1_555
O5 P2 1.560234 1_555
O5 O8 2.716343 1_555
O6 P0 1.551120 1_565
O9 P3 1.551120 1_455
O10 P4 1.509414 1_555
O11 P3 1.551120 1_556
O12 P0 1.556762 1_555
O15 P4 1.560234 1_555
O15 O8 2.716343 1_565
O16 P0 1.556762 1_555
O19 P1 1.556762 1_555
O22 P1 1.556762 1_555
O23 O26 2.716343 1_455
O25 P1 1.551120 1_655
O26 P4 1.560234 1_555
O28 P4 1.560234 1_555
O29 P1 1.551120 1_545
O31 P3 1.556762 1_555
O32 P0 1.551120 1_554
O33 P3 1.556762 1_555
