# generated using pymatgen
data_Li6Br3N
_symmetry_space_group_name_H-M   'P 1'
_cell_length_a   6.31382763
_cell_length_b   6.18946417
_cell_length_c   10.84517851
_cell_angle_alpha   55.55991459
_cell_angle_beta   90.00000000
_cell_angle_gamma   90.00000000
_symmetry_Int_Tables_number   1
_chemical_formula_structural   Li6Br3N
_chemical_formula_sum   'Li12 Br6 N2'
_cell_volume   349.53282730
_cell_formula_units_Z   2
loop_
 _symmetry_equiv_pos_site_id
 _symmetry_equiv_pos_as_xyz
  1  'x, y, z'
loop_
 _atom_site_type_symbol
 _atom_site_label
 _atom_site_symmetry_multiplicity
 _atom_site_fract_x
 _atom_site_fract_y
 _atom_site_fract_z
 _atom_site_occupancy
  Li  Li0  1  0.42941170  0.29890667  0.30260884  1
  Li  Li1  1  0.83106225  0.21521014  0.03549516  1
  Li  Li2  1  0.16893775  0.78478986  0.96450484  1
  Li  Li3  1  0.66893775  0.21521014  0.53549516  1
  Li  Li4  1  0.33106225  0.78478986  0.46450484  1
  Li  Li5  1  0.76584506  0.91399469  0.92148749  1
  Li  Li6  1  0.92941170  0.70109333  0.19739116  1
  Li  Li7  1  0.73415494  0.91399469  0.42148749  1
  Li  Li8  1  0.57058830  0.70109333  0.69739116  1
  Li  Li9  1  0.07058830  0.29890667  0.80260884  1
  Li  Li10  1  0.23415494  0.08600531  0.07851251  1
  Li  Li11  1  0.26584506  0.08600531  0.57851251  1
  Br  Br0  1  0.47939238  0.24954362  0.74246646  1
  Br  Br1  1  0.52060762  0.75045638  0.25753354  1
  Br  Br2  1  0.02060762  0.24954362  0.24246646  1
  Br  Br3  1  0.97939238  0.75045638  0.75753354  1
  Br  Br4  1  0.50000000  0.50000000  0.00000000  1
  Br  Br5  1  -0.00000000  0.50000000  0.50000000  1
  N  N0  1  0.50000000  -0.00000000  0.50000000  1
  N  N1  1  -0.00000000  -0.00000000  0.00000000  1
loop_
_geom_bond_atom_site_label_1
_geom_bond_atom_site_label_2
_geom_bond_distance
_geom_bond_site_symmetry_2
Li0 N0 1.929889 1_555
Li0 Li4 2.697162 1_545
Li0 Li11 2.701208 1_555
Li1 N1 1.907937 1_655
Li1 Li10 2.629165 1_655
Li1 Li6 2.697162 1_545
Li2 N1 1.907937 1_566
Li2 Li5 2.629165 1_455
Li2 Li9 2.697162 1_565
Li3 N0 1.907937 1_555
Li3 Li8 2.697162 1_545
Li4 N0 1.907937 1_565
Li4 Li7 2.629165 1_555
Li5 N1 1.925302 1_666
Li5 Li6 2.701208 1_556
Li6 N1 1.929889 1_665
Li7 N0 1.925302 1_565
Li7 Li8 2.701208 1_555
Li8 N0 1.929889 1_565
Li9 N1 1.929889 1_556
Li10 N1 1.925302 1_555
Li10 Li9 2.701208 1_554
Li11 N0 1.925302 1_555
Li11 Li3 2.629165 1_555
Br0 Li5 2.606355 1_545
Br0 Li8 2.614640 1_555
Br0 Li3 2.656186 1_555
Br0 Li9 2.721464 1_555
Br0 Li11 2.835478 1_555
Br0 Li4 3.105444 1_555
Br0 Li2 3.175000 1_545
Br1 Li10 2.606355 1_565
Br1 Li0 2.614640 1_555
Br1 Li4 2.656186 1_555
Br1 Li6 2.721464 1_555
Br1 Li7 2.835478 1_555
Br1 Li3 3.105444 1_555
Br1 Li1 3.175000 1_565
Br2 Li7 2.606355 1_445
Br2 Li6 2.614640 1_455
Br2 Li1 2.656186 1_455
Br2 Li0 2.721464 1_555
Br2 Li10 2.835478 1_555
Br2 Li2 3.105444 1_554
Br2 Li4 3.175000 1_545
Br3 Li11 2.606355 1_665
Br3 Li9 2.614640 1_655
Br3 Li2 2.656186 1_655
Br3 Li8 2.721464 1_555
Br3 Li5 2.835478 1_555
Br3 Li1 3.105444 1_556
Br3 Li3 3.175000 1_565
Br4 Li2 2.618590 1_554
Br4 Li1 2.618590 1_555
Br4 Li10 2.764136 1_555
Br4 Li5 2.764136 1_554
Br4 Li8 2.810352 1_554
Br4 Li0 2.810352 1_555
Br5 Li4 2.618590 1_555
Br5 Li3 2.618590 1_455
Br5 Li7 2.764136 1_455
Br5 Li11 2.764136 1_555
Br5 Li9 2.810352 1_555
Br5 Li6 2.810352 1_455
