# generated using pymatgen
data_Na2Zn5(PO4)4
_symmetry_space_group_name_H-M   'P 1'
_cell_length_a   8.63336700
_cell_length_b   10.54917100
_cell_length_c   16.79497900
_cell_angle_alpha   90.00000000
_cell_angle_beta   90.00000000
_cell_angle_gamma   90.00000000
_symmetry_Int_Tables_number   1
_chemical_formula_structural   Na2Zn5(PO4)4
_chemical_formula_sum   'Na8 Zn20 P16 O64'
_cell_volume   1529.60044156
_cell_formula_units_Z   4
loop_
 _symmetry_equiv_pos_site_id
 _symmetry_equiv_pos_as_xyz
  1  'x, y, z'
loop_
 _atom_site_type_symbol
 _atom_site_label
 _atom_site_symmetry_multiplicity
 _atom_site_fract_x
 _atom_site_fract_y
 _atom_site_fract_z
 _atom_site_occupancy
  Na  Na0  1  0.76231500  0.33336200  0.70448600  1
  Na  Na1  1  0.73768500  0.16663800  0.20448600  1
  Na  Na2  1  0.76231500  0.66663800  0.79551400  1
  Na  Na3  1  0.73768500  0.83336200  0.29551400  1
  Na  Na4  1  0.26231500  0.16663800  0.70448600  1
  Na  Na5  1  0.26231500  0.83336200  0.79551400  1
  Na  Na6  1  0.23768500  0.66663800  0.29551400  1
  Na  Na7  1  0.23768500  0.33336200  0.20448600  1
  Zn  Zn0  1  0.61177800  0.65975400  0.57919000  1
  Zn  Zn1  1  0.42093400  0.16469600  0.05368900  1
  Zn  Zn2  1  0.61177800  0.34024600  0.92081000  1
  Zn  Zn3  1  0.07906600  0.33530400  0.55368900  1
  Zn  Zn4  1  0.07906600  0.66469600  0.94631100  1
  Zn  Zn5  1  0.19513300  0.50000000  0.75000000  1
  Zn  Zn6  1  0.38822200  0.65975400  0.07919000  1
  Zn  Zn7  1  0.42093400  0.83530400  0.44631100  1
  Zn  Zn8  1  0.57906600  0.83530400  0.94631100  1
  Zn  Zn9  1  0.30486700  0.00000000  0.25000000  1
  Zn  Zn10  1  0.69513300  0.00000000  0.75000000  1
  Zn  Zn11  1  0.88822200  0.15975400  0.42081000  1
  Zn  Zn12  1  0.92093400  0.66469600  0.44631100  1
  Zn  Zn13  1  0.92093400  0.33530400  0.05368900  1
  Zn  Zn14  1  0.57906600  0.16469600  0.55368900  1
  Zn  Zn15  1  0.80486700  0.50000000  0.25000000  1
  Zn  Zn16  1  0.11177800  0.84024600  0.57919000  1
  Zn  Zn17  1  0.38822200  0.34024600  0.42081000  1
  Zn  Zn18  1  0.88822200  0.84024600  0.07919000  1
  Zn  Zn19  1  0.11177800  0.15975400  0.92081000  1
  P  P0  1  0.44575600  0.09385700  0.86710100  1
  P  P1  1  0.55424400  0.90614300  0.13289900  1
  P  P2  1  0.05424400  0.59385700  0.13289900  1
  P  P3  1  0.55424400  0.09385700  0.36710100  1
  P  P4  1  0.44575600  0.90614300  0.63289900  1
  P  P5  1  0.59470400  0.58880600  0.39374400  1
  P  P6  1  0.94575600  0.59385700  0.63289900  1
  P  P7  1  0.09470400  0.08880600  0.10625600  1
  P  P8  1  0.90529600  0.91119400  0.89374400  1
  P  P9  1  0.59470400  0.41119400  0.10625600  1
  P  P10  1  0.94575600  0.40614300  0.86710100  1
  P  P11  1  0.40529600  0.58880600  0.89374400  1
  P  P12  1  0.05424400  0.40614300  0.36710100  1
  P  P13  1  0.40529600  0.41119400  0.60625600  1
  P  P14  1  0.90529600  0.08880600  0.60625600  1
  P  P15  1  0.09470400  0.91119400  0.39374400  1
  O  O0  1  0.55645300  0.33168200  0.60606600  1
  O  O1  1  0.80536600  0.87971000  0.81951400  1
  O  O2  1  0.44354700  0.33168200  0.10606600  1
  O  O3  1  0.00191700  0.32601100  0.94136800  1
  O  O4  1  0.22319400  0.63077300  0.15599000  1
  O  O5  1  0.80536600  0.12029000  0.68048600  1
  O  O6  1  0.06441600  0.05346400  0.39778600  1
  O  O7  1  0.55372900  0.95085100  0.38753500  1
  O  O8  1  0.27680600  0.13077300  0.84401000  1
  O  O9  1  0.43558400  0.44653600  0.89778600  1
  O  O10  1  0.00191700  0.67398900  0.55863200  1
  O  O11  1  0.99808300  0.67398900  0.05863200  1
  O  O12  1  0.55372900  0.04914900  0.11246500  1
  O  O13  1  0.44627100  0.04914900  0.61246500  1
  O  O14  1  0.49808300  0.82601100  0.05863200  1
  O  O15  1  0.80332900  0.13296600  0.53198100  1
  O  O16  1  0.44627100  0.95085100  0.88753500  1
  O  O17  1  0.93558400  0.05346400  0.89778600  1
  O  O18  1  0.55223000  0.87266900  0.70310900  1
  O  O19  1  0.43558400  0.55346400  0.60221400  1
  O  O20  1  0.72319400  0.86922700  0.15599000  1
  O  O21  1  0.30332900  0.63296600  0.96801900  1
  O  O22  1  0.49808300  0.17398900  0.44136800  1
  O  O23  1  0.94627100  0.54914900  0.88753500  1
  O  O24  1  0.05372900  0.54914900  0.38753500  1
  O  O25  1  0.94354700  0.16831800  0.10606600  1
  O  O26  1  0.94777000  0.62733100  0.20310900  1
  O  O27  1  0.99808300  0.32601100  0.44136800  1
  O  O28  1  0.30536600  0.37971000  0.68048600  1
  O  O29  1  0.30332900  0.36703400  0.53198100  1
  O  O30  1  0.05223000  0.37266900  0.79689100  1
  O  O31  1  0.69463400  0.62029000  0.31951400  1
  O  O32  1  0.44354700  0.66831800  0.39393400  1
  O  O33  1  0.80332900  0.86703400  0.96801900  1
  O  O34  1  0.44777000  0.87266900  0.20310900  1
  O  O35  1  0.05223000  0.62733100  0.70310900  1
  O  O36  1  0.69667100  0.63296600  0.46801900  1
  O  O37  1  0.19667100  0.13296600  0.03198100  1
  O  O38  1  0.56441600  0.44653600  0.39778600  1
  O  O39  1  0.72319400  0.13077300  0.34401000  1
  O  O40  1  0.93558400  0.94653600  0.60221400  1
  O  O41  1  0.19667100  0.86703400  0.46801900  1
  O  O42  1  0.05645300  0.83168200  0.89393400  1
  O  O43  1  0.94777000  0.37266900  0.29689100  1
  O  O44  1  0.56441600  0.55346400  0.10221400  1
  O  O45  1  0.69667100  0.36703400  0.03198100  1
  O  O46  1  0.50191700  0.17398900  0.94136800  1
  O  O47  1  0.05372900  0.45085100  0.11246500  1
  O  O48  1  0.77680600  0.63077300  0.65599000  1
  O  O49  1  0.05645300  0.16831800  0.60606600  1
  O  O50  1  0.22319400  0.36922700  0.34401000  1
  O  O51  1  0.94627100  0.45085100  0.61246500  1
  O  O52  1  0.55645300  0.66831800  0.89393400  1
  O  O53  1  0.69463400  0.37971000  0.18048600  1
  O  O54  1  0.19463400  0.12029000  0.18048600  1
  O  O55  1  0.94354700  0.83168200  0.39393400  1
  O  O56  1  0.77680600  0.36922700  0.84401000  1
  O  O57  1  0.50191700  0.82601100  0.55863200  1
  O  O58  1  0.19463400  0.87971000  0.31951400  1
  O  O59  1  0.44777000  0.12733100  0.29689100  1
  O  O60  1  0.30536600  0.62029000  0.81951400  1
  O  O61  1  0.55223000  0.12733100  0.79689100  1
  O  O62  1  0.06441600  0.94653600  0.10221400  1
  O  O63  1  0.27680600  0.86922700  0.65599000  1
loop_
_geom_bond_atom_site_label_1
_geom_bond_atom_site_label_2
_geom_bond_distance
_geom_bond_site_symmetry_2
Na0 O5 2.313638 1_555
Na0 O56 2.376944 1_555
Na0 O0 2.427206 1_555
Na0 O51 2.539081 1_555
Na0 O30 2.974085 1_655
Na0 O61 3.228326 1_555
Na0 O48 3.243851 1_555
Na1 O53 2.313638 1_555
Na1 O39 2.376944 1_555
Na1 O25 2.427206 1_555
Na1 O12 2.539081 1_555
Na1 O59 2.974085 1_555
Na1 O43 3.228326 1_555
Na1 O20 3.243851 1_545
Na2 O1 2.313638 1_555
Na2 O48 2.376944 1_555
Na2 O52 2.427206 1_555
Na2 O23 2.539081 1_555
Na2 O35 2.974085 1_655
Na2 O18 3.228326 1_555
Na2 O56 3.243851 1_555
Na3 O31 2.313638 1_555
Na3 O20 2.376944 1_555
Na3 O55 2.427206 1_555
Na3 O7 2.539081 1_555
Na3 O34 2.974085 1_555
Na3 O26 3.228326 1_555
Na3 O39 3.243851 1_565
Na4 O28 2.313638 1_555
Na4 O8 2.376944 1_555
Na4 O49 2.427206 1_555
Na4 O13 2.539081 1_555
Na4 O61 2.974085 1_555
Na4 O30 3.228326 1_555
Na4 O63 3.243851 1_545
Na5 O60 2.313638 1_555
Na5 O63 2.376944 1_555
Na5 O42 2.427206 1_555
Na5 O16 2.539081 1_555
Na5 O18 2.974085 1_555
Na5 O35 3.228326 1_555
Na5 O8 3.243851 1_565
Na6 O58 2.313638 1_555
Na6 O4 2.376944 1_555
Na6 O32 2.427206 1_555
Na6 O24 2.539081 1_555
Na6 O26 2.974085 1_455
Na6 O34 3.228326 1_555
Na6 O50 3.243851 1_555
Na7 O54 2.313638 1_555
Na7 O50 2.376944 1_555
Na7 O2 2.427206 1_555
Na7 O47 2.539081 1_555
Na7 O43 2.974085 1_455
Na7 O59 3.228326 1_555
Na7 O4 3.243851 1_555
O0 P13 1.551316 1_555
O0 Zn14 1.978646 1_555
O1 P8 1.552049 1_555
O1 Zn10 1.969513 1_565
O2 P9 1.551316 1_555
O2 Zn1 1.978646 1_555
O3 P10 1.582862 1_455
O3 Zn13 2.014210 1_456
O3 Zn19 2.023581 1_555
O4 P2 1.558715 1_555
O4 Zn6 1.946047 1_555
O5 P14 1.552049 1_555
O5 Zn10 1.969513 1_555
O6 P15 1.524951 1_545
O6 Zn11 1.928903 1_455
O7 P3 1.547145 1_565
O7 Zn7 1.942837 1_555
O8 P0 1.558715 1_555
O8 Zn19 1.946047 1_555
O9 P11 1.524951 1_555
O9 Zn2 1.928903 1_555
O10 P6 1.582862 1_455
O10 Zn12 2.014210 1_455
O10 Zn16 2.023581 1_555
O11 P2 1.582862 1_655
O11 Zn4 2.014210 1_654
O11 Zn18 2.023581 1_555
O12 P1 1.547145 1_545
O12 Zn1 1.942837 1_555
O13 P4 1.547145 1_545
O13 Zn14 1.942837 1_555
O14 P1 1.582862 1_555
O14 Zn8 2.014210 1_554
O14 Zn6 2.023581 1_555
O15 P14 1.596278 1_555
O15 Zn14 1.998404 1_555
O15 Zn11 2.025620 1_555
O16 P0 1.547145 1_565
O16 Zn8 1.942837 1_555
O17 P8 1.524951 1_545
O17 Zn19 1.928903 1_655
O18 P4 1.536272 1_555
O18 Zn10 1.986603 1_565
O19 P13 1.524951 1_555
O19 Zn0 1.928903 1_555
O20 P1 1.558715 1_555
O20 Zn18 1.946047 1_555
O21 P11 1.596278 1_555
O21 Zn4 1.998404 1_555
O21 Zn6 2.025620 1_556
O22 P3 1.582862 1_555
O22 Zn14 2.014210 1_555
O22 Zn17 2.023581 1_555
O23 P10 1.547145 1_555
O23 Zn4 1.942837 1_655
O24 P12 1.547145 1_555
O24 Zn12 1.942837 1_455
O25 P7 1.551316 1_655
O25 Zn13 1.978646 1_555
O26 P2 1.536272 1_655
O26 Zn15 1.986603 1_555
O27 P12 1.582862 1_655
O27 Zn3 2.014210 1_655
O27 Zn11 2.023581 1_555
O28 P13 1.552049 1_555
O28 Zn5 1.969513 1_555
O29 P13 1.596278 1_555
O29 Zn3 1.998404 1_555
O29 Zn17 2.025620 1_555
O30 P10 1.536272 1_455
O30 Zn5 1.986603 1_555
O31 P5 1.552049 1_555
O31 Zn15 1.969513 1_555
O32 P5 1.551316 1_555
O32 Zn7 1.978646 1_555
O33 P8 1.596278 1_555
O33 Zn8 1.998404 1_555
O33 Zn18 2.025620 1_556
O34 P1 1.536272 1_555
O34 Zn9 1.986603 1_565
O35 P6 1.536272 1_455
O35 Zn5 1.986603 1_555
O36 P5 1.596278 1_555
O36 Zn12 1.998404 1_555
O36 Zn0 2.025620 1_555
O37 P7 1.596278 1_555
O37 Zn1 1.998404 1_555
O37 Zn19 2.025620 1_554
O38 P5 1.524951 1_555
O38 Zn17 1.928903 1_555
O39 P3 1.558715 1_555
O39 Zn11 1.946047 1_555
O40 P14 1.524951 1_565
O40 Zn16 1.928903 1_655
O41 P15 1.596278 1_555
O41 Zn7 1.998404 1_555
O41 Zn16 2.025620 1_555
O42 P8 1.551316 1_455
O42 Zn4 1.978646 1_555
O43 P12 1.536272 1_655
O43 Zn15 1.986603 1_555
O44 P9 1.524951 1_555
O44 Zn6 1.928903 1_555
O45 P9 1.596278 1_555
O45 Zn13 1.998404 1_555
O45 Zn2 2.025620 1_554
O46 P0 1.582862 1_555
O46 Zn1 2.014210 1_556
O46 Zn2 2.023581 1_555
O47 P2 1.547145 1_555
O47 Zn13 1.942837 1_455
O48 P6 1.558715 1_555
O48 Zn0 1.946047 1_555
O49 P14 1.551316 1_455
O49 Zn3 1.978646 1_555
O50 P12 1.558715 1_555
O50 Zn17 1.946047 1_555
O51 P6 1.547145 1_555
O51 Zn3 1.942837 1_655
O52 P11 1.551316 1_555
O52 Zn8 1.978646 1_555
O53 P9 1.552049 1_555
O53 Zn15 1.969513 1_555
O54 P7 1.552049 1_555
O54 Zn9 1.969513 1_555
O55 P15 1.551316 1_655
O55 Zn12 1.978646 1_555
O56 P10 1.558715 1_555
O56 Zn2 1.946047 1_555
O57 P4 1.582862 1_555
O57 Zn7 2.014210 1_555
O57 Zn0 2.023581 1_555
O58 P15 1.552049 1_555
O58 Zn9 1.969513 1_565
O59 P3 1.536272 1_555
O59 Zn9 1.986603 1_555
O60 P11 1.552049 1_555
O60 Zn5 1.969513 1_555
O61 P0 1.536272 1_555
O61 Zn10 1.986603 1_555
O62 P7 1.524951 1_565
O62 Zn18 1.928903 1_455
O63 P4 1.558715 1_555
O63 Zn16 1.946047 1_555
