# generated using pymatgen
data_TaSe2
_symmetry_space_group_name_H-M   'P 1'
_cell_length_a   6.97553874
_cell_length_b   6.97553698
_cell_length_c   52.69861128
_cell_angle_alpha   90.00000000
_cell_angle_beta   90.00000000
_cell_angle_gamma   119.99999840
_symmetry_Int_Tables_number   1
_chemical_formula_structural   TaSe2
_chemical_formula_sum   'Ta32 Se64'
_cell_volume   2220.67605705
_cell_formula_units_Z   32
loop_
 _symmetry_equiv_pos_site_id
 _symmetry_equiv_pos_as_xyz
  1  'x, y, z'
loop_
 _atom_site_type_symbol
 _atom_site_label
 _atom_site_symmetry_multiplicity
 _atom_site_fract_x
 _atom_site_fract_y
 _atom_site_fract_z
 _atom_site_occupancy
  Ta  Ta0_0  1  0.00000000  0.00000000  0.00000000  1
  Ta  Ta0_1  1  0.00000000  0.00000000  0.50000000  1
  Ta  Ta0_2  1  0.00000000  0.50000000  0.00000000  1
  Ta  Ta0_3  1  0.00000000  0.50000000  0.50000000  1
  Ta  Ta0_4  1  0.50000000  0.00000000  0.00000000  1
  Ta  Ta0_5  1  0.50000000  0.00000000  0.50000000  1
  Ta  Ta0_6  1  0.50000000  0.50000000  0.00000000  1
  Ta  Ta0_7  1  0.50000000  0.50000000  0.50000000  1
  Ta  Ta1_0  1  0.00000000  0.00000000  0.25000000  1
  Ta  Ta1_1  1  0.00000000  0.00000000  0.75000000  1
  Ta  Ta1_2  1  0.00000000  0.50000000  0.25000000  1
  Ta  Ta1_3  1  0.00000000  0.50000000  0.75000000  1
  Ta  Ta1_4  1  0.50000000  0.00000000  0.25000000  1
  Ta  Ta1_5  1  0.50000000  0.00000000  0.75000000  1
  Ta  Ta1_6  1  0.50000000  0.50000000  0.25000000  1
  Ta  Ta1_7  1  0.50000000  0.50000000  0.75000000  1
  Ta  Ta2_0  1  0.00000000  0.00000000  0.12500000  1
  Ta  Ta2_1  1  0.00000000  0.00000000  0.62500000  1
  Ta  Ta2_2  1  0.00000000  0.50000000  0.12500000  1
  Ta  Ta2_3  1  0.00000000  0.50000000  0.62500000  1
  Ta  Ta2_4  1  0.50000000  0.00000000  0.12500000  1
  Ta  Ta2_5  1  0.50000000  0.00000000  0.62500000  1
  Ta  Ta2_6  1  0.50000000  0.50000000  0.12500000  1
  Ta  Ta2_7  1  0.50000000  0.50000000  0.62500000  1
  Ta  Ta3_0  1  0.00000000  0.00000000  0.37500000  1
  Ta  Ta3_1  1  0.00000000  0.00000000  0.87500000  1
  Ta  Ta3_2  1  0.00000000  0.50000000  0.37500000  1
  Ta  Ta3_3  1  0.00000000  0.50000000  0.87500000  1
  Ta  Ta3_4  1  0.50000000  0.00000000  0.37500000  1
  Ta  Ta3_5  1  0.50000000  0.00000000  0.87500000  1
  Ta  Ta3_6  1  0.50000000  0.50000000  0.37500000  1
  Ta  Ta3_7  1  0.50000000  0.50000000  0.87500000  1
  Se  Se0_0  1  0.16666650  0.33333350  0.03105822  1
  Se  Se0_1  1  0.16666650  0.33333350  0.53105822  1
  Se  Se0_2  1  0.16666650  0.83333350  0.03105822  1
  Se  Se0_3  1  0.16666650  0.83333350  0.53105822  1
  Se  Se0_4  1  0.66666650  0.33333350  0.03105822  1
  Se  Se0_5  1  0.66666650  0.33333350  0.53105822  1
  Se  Se0_6  1  0.66666650  0.83333350  0.03105822  1
  Se  Se0_7  1  0.66666650  0.83333350  0.53105822  1
  Se  Se1_0  1  0.33333350  0.16666650  0.28105872  1
  Se  Se1_1  1  0.33333350  0.16666650  0.78105872  1
  Se  Se1_2  1  0.33333350  0.66666650  0.28105872  1
  Se  Se1_3  1  0.33333350  0.66666650  0.78105872  1
  Se  Se1_4  1  0.83333350  0.16666650  0.28105872  1
  Se  Se1_5  1  0.83333350  0.16666650  0.78105872  1
  Se  Se1_6  1  0.83333350  0.66666650  0.28105872  1
  Se  Se1_7  1  0.83333350  0.66666650  0.78105872  1
  Se  Se2_0  1  0.33333350  0.16666650  0.46894128  1
  Se  Se2_1  1  0.33333350  0.16666650  0.96894128  1
  Se  Se2_2  1  0.33333350  0.66666650  0.46894128  1
  Se  Se2_3  1  0.33333350  0.66666650  0.96894128  1
  Se  Se2_4  1  0.83333350  0.16666650  0.46894128  1
  Se  Se2_5  1  0.83333350  0.16666650  0.96894128  1
  Se  Se2_6  1  0.83333350  0.66666650  0.46894128  1
  Se  Se2_7  1  0.83333350  0.66666650  0.96894128  1
  Se  Se3_0  1  0.16666650  0.33333350  0.21894128  1
  Se  Se3_1  1  0.16666650  0.33333350  0.71894128  1
  Se  Se3_2  1  0.16666650  0.83333350  0.21894128  1
  Se  Se3_3  1  0.16666650  0.83333350  0.71894128  1
  Se  Se3_4  1  0.66666650  0.33333350  0.21894128  1
  Se  Se3_5  1  0.66666650  0.33333350  0.71894128  1
  Se  Se3_6  1  0.66666650  0.83333350  0.21894128  1
  Se  Se3_7  1  0.66666650  0.83333350  0.71894128  1
  Se  Se4_0  1  0.16666650  0.33333350  0.34353691  1
  Se  Se4_1  1  0.16666650  0.33333350  0.84353691  1
  Se  Se4_2  1  0.16666650  0.83333350  0.34353691  1
  Se  Se4_3  1  0.16666650  0.83333350  0.84353691  1
  Se  Se4_4  1  0.66666650  0.33333350  0.34353691  1
  Se  Se4_5  1  0.66666650  0.33333350  0.84353691  1
  Se  Se4_6  1  0.66666650  0.83333350  0.34353691  1
  Se  Se4_7  1  0.66666650  0.83333350  0.84353691  1
  Se  Se5_0  1  0.33333350  0.16666650  0.09353690  1
  Se  Se5_1  1  0.33333350  0.16666650  0.59353690  1
  Se  Se5_2  1  0.33333350  0.66666650  0.09353690  1
  Se  Se5_3  1  0.33333350  0.66666650  0.59353690  1
  Se  Se5_4  1  0.83333350  0.16666650  0.09353690  1
  Se  Se5_5  1  0.83333350  0.16666650  0.59353690  1
  Se  Se5_6  1  0.83333350  0.66666650  0.09353690  1
  Se  Se5_7  1  0.83333350  0.66666650  0.59353690  1
  Se  Se6_0  1  0.33333350  0.16666650  0.15646309  1
  Se  Se6_1  1  0.33333350  0.16666650  0.65646309  1
  Se  Se6_2  1  0.33333350  0.66666650  0.15646309  1
  Se  Se6_3  1  0.33333350  0.66666650  0.65646309  1
  Se  Se6_4  1  0.83333350  0.16666650  0.15646309  1
  Se  Se6_5  1  0.83333350  0.16666650  0.65646309  1
  Se  Se6_6  1  0.83333350  0.66666650  0.15646309  1
  Se  Se6_7  1  0.83333350  0.66666650  0.65646309  1
  Se  Se7_0  1  0.16666650  0.33333350  0.40646309  1
  Se  Se7_1  1  0.16666650  0.33333350  0.90646309  1
  Se  Se7_2  1  0.16666650  0.83333350  0.40646309  1
  Se  Se7_3  1  0.16666650  0.83333350  0.90646309  1
  Se  Se7_4  1  0.66666650  0.33333350  0.40646309  1
  Se  Se7_5  1  0.66666650  0.33333350  0.90646309  1
  Se  Se7_6  1  0.66666650  0.83333350  0.40646309  1
  Se  Se7_7  1  0.66666650  0.83333350  0.90646309  1
loop_
_geom_bond_atom_site_label_1
_geom_bond_atom_site_label_2
_geom_bond_distance
_geom_bond_site_symmetry_2
Se0_0 Ta0_2 2.594938 1_555
Se0_0 Ta0_0 2.594940 1_555
Se0_0 Ta0_6 2.594941 1_555
Se0_0 Se0_2 3.487768 1_545
Se0_0 Se0_2 3.487768 1_555
Se0_0 Se0_6 3.487769 1_555
Se0_0 Se0_6 3.487769 1_445
Se0_0 Se0_4 3.487769 1_455
Se0_0 Se0_4 3.487769 1_555
Se0_1 Ta0_3 2.594938 1_555
Se0_1 Ta0_1 2.594940 1_555
Se0_1 Ta0_7 2.594941 1_555
Se0_1 Se0_3 3.487768 1_545
Se0_1 Se0_3 3.487768 1_555
Se0_1 Se0_7 3.487769 1_445
Se0_1 Se0_7 3.487769 1_555
Se0_1 Se0_5 3.487769 1_555
Se0_1 Se0_5 3.487769 1_455
Se0_2 Ta0_0 2.594938 1_565
Se0_2 Ta0_2 2.594940 1_555
Se0_2 Ta0_4 2.594941 1_565
Se0_2 Se0_4 3.487769 1_565
Se0_2 Se0_4 3.487769 1_455
Se0_2 Se0_6 3.487769 1_555
Se0_2 Se0_6 3.487769 1_455
Se0_3 Ta0_1 2.594938 1_565
Se0_3 Ta0_3 2.594940 1_555
Se0_3 Ta0_5 2.594941 1_565
Se0_3 Se0_5 3.487769 1_455
Se0_3 Se0_5 3.487769 1_565
Se0_3 Se0_7 3.487769 1_555
Se0_3 Se0_7 3.487769 1_455
Se0_4 Ta0_6 2.594938 1_555
Se0_4 Ta0_4 2.594940 1_555
Se0_4 Ta0_2 2.594941 1_655
Se0_4 Se0_6 3.487768 1_545
Se0_4 Se0_6 3.487768 1_555
Se0_5 Ta0_7 2.594938 1_555
Se0_5 Ta0_5 2.594940 1_555
Se0_5 Ta0_3 2.594941 1_655
Se0_5 Se0_7 3.487768 1_545
Se0_5 Se0_7 3.487768 1_555
Se0_6 Ta0_4 2.594938 1_565
Se0_6 Ta0_6 2.594940 1_555
Se0_6 Ta0_0 2.594941 1_665
Se0_7 Ta0_5 2.594938 1_565
Se0_7 Ta0_7 2.594940 1_555
Se0_7 Ta0_1 2.594941 1_665
Se1_0 Ta1_4 2.594955 1_555
Se1_0 Ta1_6 2.594957 1_555
Se1_0 Ta1_0 2.594958 1_555
Se1_0 Se1_2 3.487768 1_555
Se1_0 Se1_2 3.487768 1_545
Se1_0 Se1_6 3.487769 1_555
Se1_0 Se1_6 3.487769 1_445
Se1_0 Se1_4 3.487769 1_555
Se1_0 Se1_4 3.487769 1_455
Se1_1 Ta1_5 2.594955 1_555
Se1_1 Ta1_7 2.594957 1_555
Se1_1 Ta1_1 2.594958 1_555
Se1_1 Se1_3 3.487768 1_545
Se1_1 Se1_3 3.487768 1_555
Se1_1 Se1_7 3.487769 1_555
Se1_1 Se1_7 3.487769 1_445
Se1_1 Se1_5 3.487769 1_555
Se1_1 Se1_5 3.487769 1_455
Se1_2 Ta1_6 2.594955 1_555
Se1_2 Ta1_4 2.594957 1_565
Se1_2 Ta1_2 2.594958 1_555
Se1_2 Se1_4 3.487769 1_565
Se1_2 Se1_4 3.487769 1_455
Se1_2 Se1_6 3.487769 1_555
Se1_2 Se1_6 3.487769 1_455
Se1_3 Ta1_7 2.594955 1_555
Se1_3 Ta1_5 2.594957 1_565
Se1_3 Ta1_3 2.594958 1_555
Se1_3 Se1_5 3.487769 1_565
Se1_3 Se1_5 3.487769 1_455
Se1_3 Se1_7 3.487769 1_555
Se1_3 Se1_7 3.487769 1_455
Se1_4 Ta1_0 2.594955 1_655
Se1_4 Ta1_2 2.594957 1_655
Se1_4 Ta1_4 2.594958 1_555
Se1_4 Se1_6 3.487768 1_555
Se1_4 Se1_6 3.487768 1_545
Se1_5 Ta1_1 2.594955 1_655
Se1_5 Ta1_3 2.594957 1_655
Se1_5 Ta1_5 2.594958 1_555
Se1_5 Se1_7 3.487768 1_545
Se1_5 Se1_7 3.487768 1_555
Se1_6 Ta1_2 2.594955 1_655
Se1_6 Ta1_0 2.594957 1_665
Se1_6 Ta1_6 2.594958 1_555
Se1_7 Ta1_3 2.594955 1_655
Se1_7 Ta1_1 2.594957 1_665
Se1_7 Ta1_7 2.594958 1_555
Se2_0 Ta0_5 2.594955 1_555
Se2_0 Ta0_7 2.594957 1_555
Se2_0 Ta0_1 2.594958 1_555
Se2_0 Se2_2 3.487768 1_555
Se2_0 Se2_2 3.487768 1_545
Se2_0 Se2_6 3.487769 1_555
Se2_0 Se2_6 3.487769 1_445
Se2_0 Se2_4 3.487769 1_555
Se2_0 Se2_4 3.487769 1_455
Se2_1 Ta0_4 2.594955 1_556
Se2_1 Ta0_6 2.594957 1_556
Se2_1 Ta0_0 2.594958 1_556
Se2_1 Se2_3 3.487768 1_555
Se2_1 Se2_3 3.487768 1_545
Se2_1 Se2_7 3.487769 1_555
Se2_1 Se2_7 3.487769 1_445
Se2_1 Se2_5 3.487769 1_555
Se2_1 Se2_5 3.487769 1_455
Se2_2 Ta0_7 2.594955 1_555
Se2_2 Ta0_5 2.594957 1_565
Se2_2 Ta0_3 2.594958 1_555
Se2_2 Se2_4 3.487769 1_565
Se2_2 Se2_4 3.487769 1_455
Se2_2 Se2_6 3.487769 1_555
Se2_2 Se2_6 3.487769 1_455
Se2_3 Ta0_6 2.594955 1_556
Se2_3 Ta0_4 2.594957 1_566
Se2_3 Ta0_2 2.594958 1_556
Se2_3 Se2_5 3.487769 1_565
Se2_3 Se2_5 3.487769 1_455
Se2_3 Se2_7 3.487769 1_555
Se2_3 Se2_7 3.487769 1_455
Se2_4 Ta0_1 2.594955 1_655
Se2_4 Ta0_3 2.594957 1_655
Se2_4 Ta0_5 2.594958 1_555
Se2_4 Se2_6 3.487768 1_545
Se2_4 Se2_6 3.487768 1_555
Se2_5 Ta0_0 2.594955 1_656
Se2_5 Ta0_2 2.594957 1_656
Se2_5 Ta0_4 2.594958 1_556
Se2_5 Se2_7 3.487768 1_555
Se2_5 Se2_7 3.487768 1_545
Se2_6 Ta0_3 2.594955 1_655
Se2_6 Ta0_1 2.594957 1_665
Se2_6 Ta0_7 2.594958 1_555
Se2_7 Ta0_2 2.594955 1_656
Se2_7 Ta0_0 2.594957 1_666
Se2_7 Ta0_6 2.594958 1_556
Se3_0 Ta1_2 2.594955 1_555
Se3_0 Ta1_0 2.594957 1_555
Se3_0 Ta1_6 2.594958 1_555
Se3_0 Se3_2 3.487768 1_555
Se3_0 Se3_2 3.487768 1_545
Se3_0 Se3_6 3.487769 1_445
Se3_0 Se3_6 3.487769 1_555
Se3_0 Se3_4 3.487769 1_555
Se3_0 Se3_4 3.487769 1_455
Se3_1 Ta1_3 2.594955 1_555
Se3_1 Ta1_1 2.594957 1_555
Se3_1 Ta1_7 2.594958 1_555
Se3_1 Se3_3 3.487768 1_545
Se3_1 Se3_3 3.487768 1_555
Se3_1 Se3_7 3.487769 1_445
Se3_1 Se3_7 3.487769 1_555
Se3_1 Se3_5 3.487769 1_455
Se3_1 Se3_5 3.487769 1_555
Se3_2 Ta1_0 2.594955 1_565
Se3_2 Ta1_2 2.594957 1_555
Se3_2 Ta1_4 2.594958 1_565
Se3_2 Se3_4 3.487769 1_565
Se3_2 Se3_4 3.487769 1_455
Se3_2 Se3_6 3.487769 1_555
Se3_2 Se3_6 3.487769 1_455
Se3_3 Ta1_1 2.594955 1_565
Se3_3 Ta1_3 2.594957 1_555
Se3_3 Ta1_5 2.594958 1_565
Se3_3 Se3_5 3.487769 1_565
Se3_3 Se3_5 3.487769 1_455
Se3_3 Se3_7 3.487769 1_455
Se3_3 Se3_7 3.487769 1_555
Se3_4 Ta1_6 2.594955 1_555
Se3_4 Ta1_4 2.594957 1_555
Se3_4 Ta1_2 2.594958 1_655
Se3_4 Se3_6 3.487768 1_555
Se3_4 Se3_6 3.487768 1_545
Se3_5 Ta1_7 2.594955 1_555
Se3_5 Ta1_5 2.594957 1_555
Se3_5 Ta1_3 2.594958 1_655
Se3_5 Se3_7 3.487768 1_555
Se3_5 Se3_7 3.487768 1_545
Se3_6 Ta1_4 2.594955 1_565
Se3_6 Ta1_6 2.594957 1_555
Se3_6 Ta1_0 2.594958 1_665
Se3_7 Ta1_5 2.594955 1_565
Se3_7 Ta1_7 2.594957 1_555
Se3_7 Ta1_1 2.594958 1_665
Se4_0 Ta3_2 2.608448 1_555
Se4_0 Ta3_0 2.608451 1_555
Se4_0 Ta3_6 2.608451 1_555
Se4_0 Se4_2 3.487768 1_555
Se4_0 Se4_2 3.487768 1_545
Se4_0 Se4_6 3.487769 1_555
Se4_0 Se4_6 3.487769 1_445
Se4_0 Se4_4 3.487769 1_455
Se4_0 Se4_4 3.487769 1_555
Se4_1 Ta3_3 2.608448 1_555
Se4_1 Ta3_1 2.608451 1_555
Se4_1 Ta3_7 2.608451 1_555
Se4_1 Se4_3 3.487768 1_545
Se4_1 Se4_3 3.487768 1_555
Se4_1 Se4_7 3.487769 1_555
Se4_1 Se4_7 3.487769 1_445
Se4_1 Se4_5 3.487769 1_555
Se4_1 Se4_5 3.487769 1_455
Se4_2 Ta3_0 2.608448 1_565
Se4_2 Ta3_2 2.608451 1_555
Se4_2 Ta3_4 2.608451 1_565
Se4_2 Se4_4 3.487769 1_565
Se4_2 Se4_4 3.487769 1_455
Se4_2 Se4_6 3.487769 1_555
Se4_2 Se4_6 3.487769 1_455
Se4_3 Ta3_1 2.608448 1_565
Se4_3 Ta3_3 2.608451 1_555
Se4_3 Ta3_5 2.608451 1_565
Se4_3 Se4_5 3.487769 1_565
Se4_3 Se4_5 3.487769 1_455
Se4_3 Se4_7 3.487769 1_455
Se4_3 Se4_7 3.487769 1_555
Se4_4 Ta3_6 2.608448 1_555
Se4_4 Ta3_4 2.608451 1_555
Se4_4 Ta3_2 2.608451 1_655
Se4_4 Se4_6 3.487768 1_545
Se4_4 Se4_6 3.487768 1_555
Se4_5 Ta3_7 2.608448 1_555
Se4_5 Ta3_5 2.608451 1_555
Se4_5 Ta3_3 2.608451 1_655
Se4_5 Se4_7 3.487768 1_555
Se4_5 Se4_7 3.487768 1_545
Se4_6 Ta3_4 2.608448 1_565
Se4_6 Ta3_6 2.608451 1_555
Se4_6 Ta3_0 2.608451 1_665
Se4_7 Ta3_5 2.608448 1_565
Se4_7 Ta3_7 2.608451 1_555
Se4_7 Ta3_1 2.608451 1_665
Se5_0 Ta2_4 2.608448 1_555
Se5_0 Ta2_6 2.608451 1_555
Se5_0 Ta2_0 2.608451 1_555
Se5_0 Se5_2 3.487768 1_545
Se5_0 Se5_2 3.487768 1_555
Se5_0 Se5_6 3.487769 1_555
Se5_0 Se5_6 3.487769 1_445
Se5_0 Se5_4 3.487769 1_555
Se5_0 Se5_4 3.487769 1_455
Se5_1 Ta2_5 2.608448 1_555
Se5_1 Ta2_7 2.608451 1_555
Se5_1 Ta2_1 2.608451 1_555
Se5_1 Se5_3 3.487768 1_545
Se5_1 Se5_3 3.487768 1_555
Se5_1 Se5_7 3.487769 1_555
Se5_1 Se5_7 3.487769 1_445
Se5_1 Se5_5 3.487769 1_555
Se5_1 Se5_5 3.487769 1_455
Se5_2 Ta2_6 2.608448 1_555
Se5_2 Ta2_4 2.608451 1_565
Se5_2 Ta2_2 2.608451 1_555
Se5_2 Se5_4 3.487769 1_565
Se5_2 Se5_4 3.487769 1_455
Se5_2 Se5_6 3.487769 1_555
Se5_2 Se5_6 3.487769 1_455
Se5_3 Ta2_7 2.608448 1_555
Se5_3 Ta2_5 2.608451 1_565
Se5_3 Ta2_3 2.608451 1_555
Se5_3 Se5_5 3.487769 1_565
Se5_3 Se5_5 3.487769 1_455
Se5_3 Se5_7 3.487769 1_555
Se5_3 Se5_7 3.487769 1_455
Se5_4 Ta2_0 2.608448 1_655
Se5_4 Ta2_2 2.608451 1_655
Se5_4 Ta2_4 2.608451 1_555
Se5_4 Se5_6 3.487768 1_555
Se5_4 Se5_6 3.487768 1_545
Se5_5 Ta2_1 2.608448 1_655
Se5_5 Ta2_3 2.608451 1_655
Se5_5 Ta2_5 2.608451 1_555
Se5_5 Se5_7 3.487768 1_555
Se5_5 Se5_7 3.487768 1_545
Se5_6 Ta2_2 2.608448 1_655
Se5_6 Ta2_0 2.608451 1_665
Se5_6 Ta2_6 2.608451 1_555
Se5_7 Ta2_3 2.608448 1_655
Se5_7 Ta2_1 2.608451 1_665
Se5_7 Ta2_7 2.608451 1_555
Se6_0 Ta2_4 2.608448 1_555
Se6_0 Ta2_6 2.608451 1_555
Se6_0 Ta2_0 2.608451 1_555
Se6_0 Se6_2 3.487768 1_555
Se6_0 Se6_2 3.487768 1_545
Se6_0 Se6_6 3.487769 1_555
Se6_0 Se6_6 3.487769 1_445
Se6_0 Se6_4 3.487769 1_555
Se6_0 Se6_4 3.487769 1_455
Se6_1 Ta2_5 2.608448 1_555
Se6_1 Ta2_7 2.608451 1_555
Se6_1 Ta2_1 2.608451 1_555
Se6_1 Se6_3 3.487768 1_555
Se6_1 Se6_3 3.487768 1_545
Se6_1 Se6_7 3.487769 1_555
Se6_1 Se6_7 3.487769 1_445
Se6_1 Se6_5 3.487769 1_555
Se6_1 Se6_5 3.487769 1_455
Se6_2 Ta2_6 2.608448 1_555
Se6_2 Ta2_4 2.608451 1_565
Se6_2 Ta2_2 2.608451 1_555
Se6_2 Se6_4 3.487769 1_565
Se6_2 Se6_4 3.487769 1_455
Se6_2 Se6_6 3.487769 1_555
Se6_2 Se6_6 3.487769 1_455
Se6_3 Ta2_7 2.608448 1_555
Se6_3 Ta2_5 2.608451 1_565
Se6_3 Ta2_3 2.608451 1_555
Se6_3 Se6_5 3.487769 1_565
Se6_3 Se6_5 3.487769 1_455
Se6_3 Se6_7 3.487769 1_555
Se6_3 Se6_7 3.487769 1_455
Se6_4 Ta2_0 2.608448 1_655
Se6_4 Ta2_2 2.608451 1_655
Se6_4 Ta2_4 2.608451 1_555
Se6_4 Se6_6 3.487768 1_555
Se6_4 Se6_6 3.487768 1_545
Se6_5 Ta2_1 2.608448 1_655
Se6_5 Ta2_3 2.608451 1_655
Se6_5 Ta2_5 2.608451 1_555
Se6_5 Se6_7 3.487768 1_555
Se6_5 Se6_7 3.487768 1_545
Se6_6 Ta2_2 2.608448 1_655
Se6_6 Ta2_0 2.608451 1_665
Se6_6 Ta2_6 2.608451 1_555
Se6_7 Ta2_3 2.608448 1_655
Se6_7 Ta2_1 2.608451 1_665
Se6_7 Ta2_7 2.608451 1_555
Se7_0 Ta3_2 2.608448 1_555
Se7_0 Ta3_0 2.608451 1_555
Se7_0 Ta3_6 2.608451 1_555
Se7_0 Se7_2 3.487768 1_555
Se7_0 Se7_2 3.487768 1_545
Se7_0 Se7_6 3.487769 1_555
Se7_0 Se7_6 3.487769 1_445
Se7_0 Se7_4 3.487769 1_555
Se7_0 Se7_4 3.487769 1_455
Se7_1 Ta3_3 2.608448 1_555
Se7_1 Ta3_1 2.608451 1_555
Se7_1 Ta3_7 2.608451 1_555
Se7_1 Se7_3 3.487768 1_545
Se7_1 Se7_3 3.487768 1_555
Se7_1 Se7_7 3.487769 1_555
Se7_1 Se7_7 3.487769 1_445
Se7_1 Se7_5 3.487769 1_555
Se7_1 Se7_5 3.487769 1_455
Se7_2 Ta3_0 2.608448 1_565
Se7_2 Ta3_2 2.608451 1_555
Se7_2 Ta3_4 2.608451 1_565
Se7_2 Se7_4 3.487769 1_565
Se7_2 Se7_4 3.487769 1_455
Se7_2 Se7_6 3.487769 1_555
Se7_2 Se7_6 3.487769 1_455
Se7_3 Ta3_1 2.608448 1_565
Se7_3 Ta3_3 2.608451 1_555
Se7_3 Ta3_5 2.608451 1_565
Se7_3 Se7_5 3.487769 1_565
Se7_3 Se7_5 3.487769 1_455
Se7_3 Se7_7 3.487769 1_555
Se7_3 Se7_7 3.487769 1_455
Se7_4 Ta3_6 2.608448 1_555
Se7_4 Ta3_4 2.608451 1_555
Se7_4 Ta3_2 2.608451 1_655
Se7_4 Se7_6 3.487768 1_555
Se7_4 Se7_6 3.487768 1_545
Se7_5 Ta3_7 2.608448 1_555
Se7_5 Ta3_5 2.608451 1_555
Se7_5 Ta3_3 2.608451 1_655
Se7_5 Se7_7 3.487768 1_555
Se7_5 Se7_7 3.487768 1_545
Se7_6 Ta3_4 2.608448 1_565
Se7_6 Ta3_6 2.608451 1_555
Se7_6 Ta3_0 2.608451 1_665
Se7_7 Ta3_5 2.608448 1_565
Se7_7 Ta3_7 2.608451 1_555
Se7_7 Ta3_1 2.608451 1_665
