# generated using pymatgen
data_NaAsO2
_symmetry_space_group_name_H-M   'P 1'
_cell_length_a   5.03695026
_cell_length_b   6.75611447
_cell_length_c   14.81565341
_cell_angle_alpha   90.00000000
_cell_angle_beta   90.00000000
_cell_angle_gamma   90.00000000
_symmetry_Int_Tables_number   1
_chemical_formula_structural   NaAsO2
_chemical_formula_sum   'Na8 As8 O16'
_cell_volume   504.17983441
_cell_formula_units_Z   8
loop_
 _symmetry_equiv_pos_site_id
 _symmetry_equiv_pos_as_xyz
  1  'x, y, z'
loop_
 _atom_site_type_symbol
 _atom_site_label
 _atom_site_symmetry_multiplicity
 _atom_site_fract_x
 _atom_site_fract_y
 _atom_site_fract_z
 _atom_site_occupancy
  Na  Na0  1  0.26132893  0.60188782  0.80247586  1
  Na  Na1  1  0.76132893  0.39811218  0.69752414  1
  Na  Na2  1  0.23867107  0.10188782  0.19752414  1
  Na  Na3  1  0.26132893  0.10188782  0.69752414  1
  Na  Na4  1  0.23867107  0.60188782  0.30247586  1
  Na  Na5  1  0.73867107  0.89811218  0.30247586  1
  Na  Na6  1  0.73867107  0.39811218  0.19752414  1
  Na  Na7  1  0.76132893  0.89811218  0.80247586  1
  As  As0  1  0.25794938  0.60146516  0.08212537  1
  As  As1  1  0.75794938  0.39853484  0.41787463  1
  As  As2  1  0.74205062  0.89853484  0.58212537  1
  As  As3  1  0.24205062  0.60146516  0.58212537  1
  As  As4  1  0.25794938  0.10146516  0.41787463  1
  As  As5  1  0.74205062  0.39853484  0.91787463  1
  As  As6  1  0.24205062  0.10146516  0.91787463  1
  As  As7  1  0.75794938  0.89853484  0.08212537  1
  O  O0  1  0.29856000  0.92961944  0.83564455  1
  O  O1  1  0.57020443  0.18973929  0.36922394  1
  O  O2  1  0.79856000  0.07038056  0.66435545  1
  O  O3  1  0.20144000  0.42961944  0.16435545  1
  O  O4  1  0.42979557  0.81026071  0.63077606  1
  O  O5  1  0.92979557  0.18973929  0.86922394  1
  O  O6  1  0.79856000  0.57038056  0.83564455  1
  O  O7  1  0.92979557  0.68973929  0.63077606  1
  O  O8  1  0.29856000  0.42961944  0.66435545  1
  O  O9  1  0.07020443  0.81026071  0.13077606  1
  O  O10  1  0.42979557  0.31026071  0.86922394  1
  O  O11  1  0.70144000  0.57038056  0.33564455  1
  O  O12  1  0.07020443  0.31026071  0.36922394  1
  O  O13  1  0.57020443  0.68973929  0.13077606  1
  O  O14  1  0.20144000  0.92961944  0.33564455  1
  O  O15  1  0.70144000  0.07038056  0.16435545  1
loop_
_geom_bond_atom_site_label_1
_geom_bond_atom_site_label_2
_geom_bond_distance
_geom_bond_site_symmetry_2
Na0 O0 2.275809 1_555
Na0 O8 2.361625 1_555
Na0 O10 2.362193 1_555
Na0 O6 2.391673 1_455
Na0 O6 2.758491 1_555
Na0 O4 3.028708 1_555
Na1 O2 2.275809 1_555
Na1 O6 2.361625 1_555
Na1 O7 2.362193 1_555
Na1 O8 2.391673 1_555
Na1 O8 2.758491 1_655
Na1 O5 3.028708 1_555
Na2 O3 2.275809 1_555
Na2 O14 2.361625 1_545
Na2 O9 2.362193 1_545
Na2 O15 2.391673 1_555
Na2 O15 2.758491 1_455
Na2 O12 3.028708 1_555
Na3 O8 2.275809 1_555
Na3 O0 2.361625 1_545
Na3 O4 2.362193 1_545
Na3 O2 2.391673 1_455
Na3 O2 2.758491 1_555
Na3 O10 3.028708 1_555
Na4 O14 2.275809 1_555
Na4 O3 2.361625 1_555
Na4 O12 2.362193 1_555
Na4 O11 2.391673 1_555
Na4 O11 2.758491 1_455
Na4 O9 3.028708 1_555
Na5 O11 2.275809 1_555
Na5 O15 2.361625 1_565
Na5 O1 2.362193 1_565
Na5 O14 2.391673 1_655
Na5 O14 2.758491 1_555
Na5 O13 3.028708 1_555
Na6 O15 2.275809 1_555
Na6 O11 2.361625 1_555
Na6 O13 2.362193 1_555
Na6 O3 2.391673 1_655
Na6 O3 2.758491 1_555
Na6 O1 3.028708 1_555
Na7 O6 2.275809 1_555
Na7 O2 2.361625 1_565
Na7 O5 2.362193 1_565
Na7 O0 2.391673 1_555
Na7 O0 2.758491 1_655
Na7 O7 3.028708 1_555
As0 O3 1.706809 1_555
As0 O13 1.830017 1_555
As0 O9 1.844923 1_555
As1 O11 1.706809 1_555
As1 O12 1.830017 1_655
As1 O1 1.844923 1_555
As2 O2 1.706809 1_565
As2 O4 1.830017 1_555
As2 O7 1.844923 1_555
As3 O8 1.706809 1_555
As3 O7 1.830017 1_455
As3 O4 1.844923 1_555
As4 O14 1.706809 1_545
As4 O1 1.830017 1_555
As4 O12 1.844923 1_555
As5 O6 1.706809 1_555
As5 O10 1.830017 1_555
As5 O5 1.844923 1_555
As6 O0 1.706809 1_545
As6 O5 1.830017 1_455
As6 O10 1.844923 1_555
As7 O15 1.706809 1_565
As7 O9 1.830017 1_655
As7 O13 1.844923 1_555
