# generated using pymatgen
data_Ba2ZnSi2O7
_symmetry_space_group_name_H-M   'P 1'
_cell_length_a   6.91701115
_cell_length_b   6.91701115
_cell_length_c   8.55184037
_cell_angle_alpha   77.23533875
_cell_angle_beta   77.23533875
_cell_angle_gamma   103.75588978
_symmetry_Int_Tables_number   1
_chemical_formula_structural   Ba2ZnSi2O7
_chemical_formula_sum   'Ba4 Zn2 Si4 O14'
_cell_volume   371.10141874
_cell_formula_units_Z   2
loop_
 _symmetry_equiv_pos_site_id
 _symmetry_equiv_pos_as_xyz
  1  'x, y, z'
loop_
 _atom_site_type_symbol
 _atom_site_label
 _atom_site_symmetry_multiplicity
 _atom_site_fract_x
 _atom_site_fract_y
 _atom_site_fract_z
 _atom_site_occupancy
  Ba  Ba0  1  0.26857800  0.18459200  0.52602900  1
  Ba  Ba1  1  0.18459200  0.26857800  0.02602900  1
  Ba  Ba2  1  0.81540800  0.73142200  0.97397100  1
  Ba  Ba3  1  0.73142200  0.81540800  0.47397100  1
  Zn  Zn0  1  0.74154400  0.25845600  0.75000000  1
  Zn  Zn1  1  0.25845600  0.74154400  0.25000000  1
  Si  Si0  1  0.39524900  0.83240400  0.86275200  1
  Si  Si1  1  0.16759600  0.60475100  0.63724800  1
  Si  Si2  1  0.60475100  0.16759600  0.13724800  1
  Si  Si3  1  0.83240400  0.39524900  0.36275200  1
  O  O0  1  0.32444700  0.61946600  0.45627200  1
  O  O1  1  0.95694400  0.64309500  0.26524900  1
  O  O2  1  0.24161300  0.97650500  0.86742800  1
  O  O3  1  0.02349500  0.75838700  0.63257200  1
  O  O4  1  0.33367200  0.66632800  0.75000000  1
  O  O5  1  0.04305600  0.35690500  0.73475100  1
  O  O6  1  0.66632800  0.33367200  0.25000000  1
  O  O7  1  0.64309500  0.95694400  0.76524900  1
  O  O8  1  0.61946600  0.32444700  0.95627200  1
  O  O9  1  0.75838700  0.02349500  0.13257200  1
  O  O10  1  0.67555300  0.38053400  0.54372800  1
  O  O11  1  0.97650500  0.24161300  0.36742800  1
  O  O12  1  0.35690500  0.04305600  0.23475100  1
  O  O13  1  0.38053400  0.67555300  0.04372800  1
loop_
_geom_bond_atom_site_label_1
_geom_bond_atom_site_label_2
_geom_bond_distance
_geom_bond_site_symmetry_2
Ba0 O11 2.725822 1_455
Ba0 O5 2.762970 1_555
Ba0 O0 2.847068 1_555
Ba0 O3 2.854615 1_545
Ba0 O12 2.868135 1_555
Ba0 O10 2.872076 1_555
Ba0 O2 2.899176 1_545
Ba0 O6 2.984991 1_555
Ba1 O2 2.725822 1_544
Ba1 O12 2.762970 1_555
Ba1 O8 2.847068 1_554
Ba1 O9 2.854615 1_455
Ba1 O5 2.868135 1_554
Ba1 O13 2.872076 1_555
Ba1 O11 2.899176 1_455
Ba1 O4 2.984991 1_554
Ba2 O9 2.725822 1_566
Ba2 O7 2.762970 1_555
Ba2 O13 2.847068 1_556
Ba2 O2 2.854615 1_655
Ba2 O1 2.868135 1_556
Ba2 O8 2.872076 1_555
Ba2 O3 2.899176 1_655
Ba2 O6 2.984991 1_556
Ba3 O3 2.725822 1_655
Ba3 O1 2.762970 1_555
Ba3 O10 2.847068 1_555
Ba3 O11 2.854615 1_565
Ba3 O7 2.868135 1_555
Ba3 O0 2.872076 1_555
Ba3 O9 2.899176 1_565
Ba3 O4 2.984991 1_555
O0 Si1 1.648828 1_555
O0 Zn1 1.978383 1_555
O1 Si3 1.650740 1_555
O1 Zn1 1.998865 1_655
O2 Si0 1.620809 1_555
O3 Si1 1.620809 1_555
O4 Si0 1.693830 1_555
O4 Si1 1.693830 1_555
O5 Si1 1.650740 1_555
O5 Zn0 1.998865 1_455
O6 Si3 1.693830 1_555
O6 Si2 1.693830 1_555
O7 Si0 1.650740 1_555
O7 Zn0 1.998865 1_565
O8 Si2 1.648828 1_556
O8 Zn0 1.978383 1_555
O9 Si2 1.620809 1_555
O10 Si3 1.648828 1_555
O10 Zn0 1.978383 1_555
O11 Si3 1.620809 1_555
O12 Si2 1.650740 1_555
O12 Zn1 1.998865 1_545
O13 Si0 1.648828 1_554
O13 Zn1 1.978383 1_555
