# generated using pymatgen
data_Ho5CoSb2
_symmetry_space_group_name_H-M   'P 1'
_cell_length_a   7.88131825
_cell_length_b   8.67171491
_cell_length_c   12.11429342
_cell_angle_alpha   89.99877658
_cell_angle_beta   89.99438206
_cell_angle_gamma   90.00016785
_symmetry_Int_Tables_number   1
_chemical_formula_structural   Ho5CoSb2
_chemical_formula_sum   'Ho20 Co4 Sb8'
_cell_volume   827.94586703
_cell_formula_units_Z   4
loop_
 _symmetry_equiv_pos_site_id
 _symmetry_equiv_pos_as_xyz
  1  'x, y, z'
loop_
 _atom_site_type_symbol
 _atom_site_label
 _atom_site_symmetry_multiplicity
 _atom_site_fract_x
 _atom_site_fract_y
 _atom_site_fract_z
 _atom_site_occupancy
  Ho  Ho0  1  0.15536174  0.75000095  0.20215744  1
  Ho  Ho1  1  0.65534610  0.25000336  0.29785941  1
  Ho  Ho2  1  0.84466404  0.25000099  0.79784551  1
  Ho  Ho3  1  0.34468291  0.74999365  0.70214534  1
  Ho  Ho4  1  0.45089316  0.75000921  0.99820129  1
  Ho  Ho5  1  0.95085350  0.25000125  0.50180583  1
  Ho  Ho6  1  0.54911243  0.24998766  0.00182762  1
  Ho  Ho7  1  0.04915272  0.75000237  0.49817253  1
  Ho  Ho8  1  0.62237763  0.75000053  0.30817582  1
  Ho  Ho9  1  0.12241484  0.25000174  0.19185257  1
  Ho  Ho10  1  0.37762737  0.25000315  0.69178769  1
  Ho  Ho11  1  0.87758801  0.74999854  0.80818196  1
  Ho  Ho12  1  0.82379441  0.96421697  0.06526384  1
  Ho  Ho13  1  0.32380417  0.03578327  0.43473811  1
  Ho  Ho14  1  0.17620605  0.46423954  0.93478377  1
  Ho  Ho15  1  0.67619477  0.53576892  0.56522009  1
  Ho  Ho16  1  0.17620927  0.03576127  0.93478142  1
  Ho  Ho17  1  0.67619617  0.96423335  0.56521554  1
  Ho  Ho18  1  0.82379157  0.53578141  0.06526323  1
  Ho  Ho19  1  0.32380418  0.46422079  0.43473767  1
  Co  Co0  1  0.43541683  0.74999561  0.49086120  1
  Co  Co1  1  0.93540918  0.25000716  0.00914348  1
  Co  Co2  1  0.56455595  0.25000355  0.50909587  1
  Co  Co3  1  0.06457666  0.74999775  0.99089487  1
  Sb  Sb0  1  0.93139591  0.99173238  0.32739363  1
  Sb  Sb1  1  0.43149615  0.00825590  0.17262134  1
  Sb  Sb2  1  0.06859938  0.49174110  0.67254754  1
  Sb  Sb3  1  0.56848411  0.50821641  0.82745721  1
  Sb  Sb4  1  0.06860442  0.00825595  0.67255164  1
  Sb  Sb5  1  0.56850345  0.99176493  0.82740880  1
  Sb  Sb6  1  0.93139020  0.50827936  0.32739395  1
  Sb  Sb7  1  0.43149270  0.49174099  0.17261179  1
loop_
_geom_bond_atom_site_label_1
_geom_bond_atom_site_label_2
_geom_bond_distance
_geom_bond_site_symmetry_2
Ho0 Sb6 3.132215 1_455
Ho0 Sb0 3.132295 1_455
Ho0 Sb1 3.143171 1_565
Ho0 Sb7 3.143217 1_555
Ho0 Ho4 3.395396 1_554
Ho0 Ho12 3.609770 1_455
Ho0 Ho18 3.609834 1_455
Ho0 Ho7 3.682334 1_555
Ho1 Sb7 3.132023 1_555
Ho1 Sb1 3.132046 1_555
Ho1 Sb0 3.142864 1_545
Ho1 Sb6 3.142866 1_555
Ho1 Ho5 3.395513 1_555
Ho1 Ho13 3.609317 1_555
Ho1 Ho19 3.609347 1_555
Ho1 Ho6 3.682735 1_555
Ho2 Sb2 3.132523 1_655
Ho2 Sb4 3.132600 1_655
Ho2 Sb5 3.143235 1_545
Ho2 Sb3 3.143300 1_555
Ho2 Ho6 3.395734 1_556
Ho2 Ho5 3.682589 1_555
Ho3 Sb5 3.132202 1_555
Ho3 Sb3 3.132399 1_555
Ho3 Sb2 3.143024 1_555
Ho3 Sb4 3.143049 1_565
Ho3 Ho7 3.395869 1_555
Ho3 Ho4 3.682978 1_555
Ho4 Sb7 3.082730 1_556
Ho4 Sb1 3.082738 1_566
Ho4 Sb3 3.087650 1_555
Ho4 Sb5 3.087806 1_555
Ho5 Sb6 3.082850 1_555
Ho5 Sb0 3.082857 1_545
Ho5 Sb2 3.087804 1_655
Ho5 Sb4 3.087825 1_655
Ho6 Sb3 3.082137 1_554
Ho6 Sb5 3.082575 1_544
Ho6 Sb1 3.087690 1_555
Ho6 Sb7 3.087811 1_555
Ho7 Sb2 3.082431 1_555
Ho7 Sb4 3.082483 1_565
Ho7 Sb0 3.088017 1_455
Ho7 Sb6 3.088043 1_455
Ho8 Sb1 3.158424 1_565
Ho8 Sb7 3.158566 1_555
Ho8 Sb6 3.221710 1_555
Ho8 Sb0 3.221801 1_555
Ho9 Sb0 3.158782 1_445
Ho9 Sb6 3.158912 1_455
Ho9 Sb7 3.222177 1_555
Ho9 Sb1 3.222242 1_555
Ho10 Sb5 3.158718 1_545
Ho10 Sb3 3.158841 1_555
Ho10 Sb2 3.221916 1_555
Ho10 Sb4 3.221932 1_555
Ho10 Ho19 3.650703 1_555
Ho10 Ho13 3.650775 1_555
Ho10 Ho16 3.825668 1_555
Ho10 Ho14 3.825743 1_555
Ho11 Sb4 3.159261 1_665
Ho11 Sb2 3.159324 1_655
Ho11 Sb5 3.222374 1_555
Ho11 Sb3 3.222604 1_555
Ho11 Ho18 3.650927 1_556
Ho11 Ho12 3.651005 1_556
Ho11 Ho15 3.825539 1_555
Ho11 Ho17 3.825542 1_555
Ho12 Ho16 3.255317 1_664
Ho12 Sb0 3.295539 1_555
Ho12 Sb1 3.375787 1_565
Ho12 Ho6 3.379132 1_565
Ho12 Sb5 3.522665 1_554
Ho12 Ho4 3.570498 1_554
Ho12 Ho18 3.715271 1_555
Ho12 Ho8 3.824795 1_555
Ho13 Ho17 3.255411 1_545
Ho13 Sb1 3.295418 1_555
Ho13 Sb0 3.376763 1_445
Ho13 Ho7 3.378932 1_545
Ho13 Sb4 3.521508 1_555
Ho13 Ho5 3.570756 1_455
Ho13 Ho19 3.715288 1_555
Ho13 Ho9 3.824711 1_555
Ho14 Ho18 3.255309 1_456
Ho14 Sb2 3.296774 1_555
Ho14 Sb3 3.375427 1_555
Ho14 Ho4 3.379115 1_555
Ho14 Sb7 3.522358 1_556
Ho14 Ho6 3.570669 1_556
Ho14 Ho2 3.610003 1_455
Ho14 Ho9 3.650885 1_556
Ho14 Ho16 3.715641 1_555
Ho15 Ho19 3.255437 1_555
Ho15 Sb3 3.296866 1_555
Ho15 Sb2 3.376631 1_655
Ho15 Ho5 3.378863 1_555
Ho15 Sb6 3.521600 1_555
Ho15 Ho7 3.570791 1_655
Ho15 Ho3 3.609469 1_555
Ho15 Ho8 3.650700 1_555
Ho15 Ho17 3.715521 1_555
Ho16 Sb4 3.296707 1_555
Ho16 Sb5 3.375786 1_545
Ho16 Ho4 3.378979 1_545
Ho16 Sb1 3.522472 1_556
Ho16 Ho6 3.570549 1_556
Ho16 Ho2 3.609985 1_455
Ho16 Ho9 3.650993 1_556
Ho17 Sb5 3.296315 1_555
Ho17 Sb4 3.376696 1_665
Ho17 Ho5 3.378811 1_565
Ho17 Sb0 3.521574 1_555
Ho17 Ho7 3.570785 1_655
Ho17 Ho3 3.609525 1_555
Ho17 Ho8 3.650726 1_555
Ho18 Sb6 3.295526 1_555
Ho18 Sb7 3.375743 1_555
Ho18 Ho6 3.379278 1_555
Ho18 Sb3 3.522271 1_554
Ho18 Ho4 3.570559 1_554
Ho18 Ho8 3.824868 1_555
Ho19 Sb7 3.295503 1_555
Ho19 Sb6 3.376804 1_455
Ho19 Ho7 3.378971 1_555
Ho19 Sb2 3.521499 1_555
Ho19 Ho5 3.570738 1_455
Ho19 Ho9 3.824766 1_555
Co0 Ho3 2.657508 1_555
Co0 Ho8 2.658644 1_555
Co0 Ho19 2.716154 1_555
Co0 Ho13 2.716233 1_565
Co0 Ho15 2.804264 1_555
Co0 Ho17 2.804336 1_555
Co0 Ho7 3.045550 1_555
Co1 Ho2 2.657829 1_554
Co1 Ho9 2.659319 1_655
Co1 Ho18 2.716113 1_555
Co1 Ho12 2.716202 1_545
Co1 Ho14 2.804274 1_654
Co1 Ho16 2.804411 1_654
Co1 Ho6 3.045826 1_555
Co2 Ho1 2.657071 1_555
Co2 Ho10 2.658568 1_555
Co2 Ho15 2.716149 1_555
Co2 Ho17 2.716155 1_545
Co2 Ho19 2.804068 1_555
Co2 Ho13 2.804102 1_555
Co2 Ho5 3.045806 1_555
Co3 Ho0 2.657500 1_556
Co3 Ho11 2.659283 1_455
Co3 Ho14 2.715990 1_555
Co3 Ho16 2.716016 1_565
Co3 Ho18 2.804153 1_456
Co3 Ho12 2.804189 1_456
Co3 Ho4 3.045978 1_555
