# generated using pymatgen
data_Cs2Ta6PbCl18
_symmetry_space_group_name_H-M   'P 1'
_cell_length_a   10.51480354
_cell_length_b   10.51480354
_cell_length_c   10.51480261
_cell_angle_alpha   54.85236662
_cell_angle_beta   54.85236662
_cell_angle_gamma   54.85236824
_symmetry_Int_Tables_number   1
_chemical_formula_structural   Cs2Ta6PbCl18
_chemical_formula_sum   'Cs2 Ta6 Pb1 Cl18'
_cell_volume   723.51777688
_cell_formula_units_Z   1
loop_
 _symmetry_equiv_pos_site_id
 _symmetry_equiv_pos_as_xyz
  1  'x, y, z'
loop_
 _atom_site_type_symbol
 _atom_site_label
 _atom_site_symmetry_multiplicity
 _atom_site_fract_x
 _atom_site_fract_y
 _atom_site_fract_z
 _atom_site_occupancy
  Cs  Cs0  1  0.27663700  0.27663700  0.27663700  1
  Cs  Cs1  1  0.72336300  0.72336300  0.72336300  1
  Ta  Ta0  1  0.42068300  0.30269000  0.64393900  1
  Ta  Ta1  1  0.35606100  0.57931700  0.69731000  1
  Ta  Ta2  1  0.69731000  0.35606100  0.57931700  1
  Ta  Ta3  1  0.64393900  0.42068300  0.30269000  1
  Ta  Ta4  1  0.57931700  0.69731000  0.35606100  1
  Ta  Ta5  1  0.30269000  0.64393900  0.42068300  1
  Pb  Pb0  1  0.00000000  0.00000000  0.00000000  1
  Cl  Cl0  1  0.63965300  0.09487300  0.76672900  1
  Cl  Cl1  1  0.76672900  0.63965300  0.09487300  1
  Cl  Cl2  1  0.09487300  0.76672900  0.63965300  1
  Cl  Cl3  1  0.82476200  0.32322400  0.04541300  1
  Cl  Cl4  1  0.16992000  0.43560700  0.57728200  1
  Cl  Cl5  1  0.67677600  0.95458700  0.17523800  1
  Cl  Cl6  1  0.90512700  0.23327100  0.36034700  1
  Cl  Cl7  1  0.56439300  0.42271800  0.83008000  1
  Cl  Cl8  1  0.42271800  0.83008000  0.56439300  1
  Cl  Cl9  1  0.95458700  0.17523800  0.67677600  1
  Cl  Cl10  1  0.17523800  0.67677600  0.95458700  1
  Cl  Cl11  1  0.04541300  0.82476200  0.32322400  1
  Cl  Cl12  1  0.32322400  0.04541300  0.82476200  1
  Cl  Cl13  1  0.23327100  0.36034700  0.90512700  1
  Cl  Cl14  1  0.57728200  0.16992000  0.43560700  1
  Cl  Cl15  1  0.43560700  0.57728200  0.16992000  1
  Cl  Cl16  1  0.36034700  0.90512700  0.23327100  1
  Cl  Cl17  1  0.83008000  0.56439300  0.42271800  1
loop_
_geom_bond_atom_site_label_1
_geom_bond_atom_site_label_2
_geom_bond_distance
_geom_bond_site_symmetry_2
Ta0 Ta1 2.898588 1_555
Ta0 Ta2 2.898588 1_555
Ta0 Ta3 2.907652 1_555
Ta0 Ta5 2.907652 1_555
Ta1 Ta5 2.898588 1_555
Ta1 Ta4 2.907652 1_555
Ta1 Ta2 2.907652 1_555
Ta2 Ta3 2.898588 1_555
Ta2 Ta4 2.907652 1_555
Ta3 Ta4 2.898588 1_555
Ta3 Ta5 2.907652 1_555
Ta4 Ta5 2.898588 1_555
Cl0 Ta2 2.470532 1_555
Cl0 Ta0 2.474802 1_555
Cl0 Cl12 3.316971 1_555
Cl0 Cl9 3.357064 1_555
Cl0 Cl7 3.442293 1_555
Cl0 Cl6 3.457263 1_555
Cl0 Cl13 3.457263 1_555
Cl0 Cl14 3.470555 1_555
Cl0 Cs1 3.724542 1_545
Cl1 Ta4 2.470532 1_555
Cl1 Ta3 2.474802 1_555
Cl1 Cl3 3.316971 1_555
Cl1 Cl5 3.357064 1_555
Cl1 Cl17 3.442293 1_555
Cl1 Cl6 3.457263 1_555
Cl1 Cl16 3.457263 1_555
Cl1 Cl15 3.470555 1_555
Cl1 Cs1 3.724542 1_554
Cl2 Ta1 2.470532 1_555
Cl2 Ta5 2.474802 1_555
Cl2 Cl8 3.442293 1_555
Cl2 Cl4 3.470555 1_555
Cl2 Cs1 3.724542 1_455
Cl3 Ta3 2.647603 1_555
Cl3 Pb0 2.969707 1_655
Cl3 Cl6 3.357064 1_555
Cl3 Cs1 3.590792 1_554
Cl4 Ta0 2.480704 1_555
Cl4 Ta5 2.486004 1_555
Cl4 Cs0 3.726488 1_555
Cl4 Cs1 3.775043 1_455
Cl5 Ta4 2.647603 1_555
Cl5 Pb0 2.969707 1_665
Cl5 Cl8 3.296500 1_555
Cl5 Cs0 3.590792 1_565
Cl6 Ta3 2.470532 1_555
Cl6 Ta2 2.474802 1_555
Cl6 Cl9 3.316971 1_555
Cl6 Cs0 3.724542 1_655
Cl7 Ta2 2.480703 1_555
Cl7 Ta1 2.486004 1_555
Cl7 Cl9 3.335482 1_555
Cl7 Cl8 3.469588 1_555
Cl7 Cs1 3.726488 1_555
Cl7 Cs0 3.775042 1_556
Cl8 Ta1 2.480704 1_555
Cl8 Ta4 2.486004 1_555
Cl8 Cs1 3.726488 1_555
Cl8 Cs0 3.775043 1_565
Cl9 Ta2 2.647603 1_555
Cl9 Pb0 2.969707 1_656
Cl9 Cs0 3.590792 1_655
Cl10 Ta1 2.647603 1_555
Cl10 Pb0 2.969707 1_566
Cl10 Cl7 3.296501 1_555
Cl10 Cl13 3.316971 1_555
Cl10 Cl8 3.335482 1_555
Cl10 Cl2 3.357064 1_555
Cl10 Cs0 3.590792 1_556
Cl11 Ta5 2.647603 1_555
Cl11 Pb0 2.969707 1_565
Cl11 Cl4 3.296501 1_555
Cl11 Cl2 3.316971 1_555
Cl11 Cl15 3.335482 1_555
Cl11 Cl16 3.357064 1_555
Cl11 Cs1 3.590792 1_455
Cl12 Ta0 2.647603 1_555
Cl12 Pb0 2.969707 1_556
Cl12 Cl14 3.296500 1_555
Cl12 Cl4 3.335482 1_555
Cl12 Cl13 3.357064 1_555
Cl12 Cs1 3.590792 1_545
Cl13 Ta0 2.470532 1_555
Cl13 Ta1 2.474802 1_555
Cl13 Cl4 3.442293 1_555
Cl13 Cl2 3.457263 1_555
Cl13 Cl7 3.470555 1_555
Cl13 Cs0 3.724542 1_556
Cl14 Ta3 2.480704 1_555
Cl14 Ta0 2.486004 1_555
Cl14 Cl3 3.335482 1_555
Cl14 Cl6 3.442293 1_555
Cl14 Cl15 3.469588 1_555
Cl14 Cl4 3.469588 1_555
Cl14 Cs0 3.726488 1_555
Cl14 Cs1 3.775043 1_545
Cl15 Ta5 2.480703 1_555
Cl15 Ta3 2.486004 1_555
Cl15 Cl3 3.296501 1_555
Cl15 Cl16 3.442293 1_555
Cl15 Cl4 3.469588 1_555
Cl15 Cs0 3.726488 1_555
Cl15 Cs1 3.775042 1_554
Cl16 Ta5 2.470532 1_555
Cl16 Ta4 2.474802 1_555
Cl16 Cl5 3.316971 1_555
Cl16 Cl2 3.457263 1_555
Cl16 Cl8 3.470555 1_555
Cl16 Cs0 3.724542 1_565
Cl17 Ta4 2.480704 1_555
Cl17 Ta2 2.486004 1_555
Cl17 Cl9 3.296501 1_555
Cl17 Cl5 3.335482 1_555
Cl17 Cl7 3.469588 1_555
Cl17 Cl8 3.469588 1_555
Cl17 Cl6 3.470555 1_555
Cl17 Cs1 3.726488 1_555
Cl17 Cs0 3.775043 1_655
