# generated using pymatgen
data_K2(TcS2)3
_symmetry_space_group_name_H-M   'P 1'
_cell_length_a   9.59597564
_cell_length_b   9.59597564
_cell_length_c   11.90639332
_cell_angle_alpha   88.78314207
_cell_angle_beta   88.78314207
_cell_angle_gamma   61.15880279
_symmetry_Int_Tables_number   1
_chemical_formula_structural   K2(TcS2)3
_chemical_formula_sum   'K8 Tc12 S24'
_cell_volume   960.08710246
_cell_formula_units_Z   4
loop_
 _symmetry_equiv_pos_site_id
 _symmetry_equiv_pos_as_xyz
  1  'x, y, z'
loop_
 _atom_site_type_symbol
 _atom_site_label
 _atom_site_symmetry_multiplicity
 _atom_site_fract_x
 _atom_site_fract_y
 _atom_site_fract_z
 _atom_site_occupancy
  K  K0  1  0.60046222  0.39953778  0.75000000  1
  K  K1  1  0.39953778  0.60046222  0.25000000  1
  K  K2  1  0.21135198  0.78864802  0.75000000  1
  K  K3  1  0.78864802  0.21135198  0.25000000  1
  K  K4  1  0.12213053  0.64322086  0.02165191  1
  K  K5  1  0.35677914  0.87786947  0.47834809  1
  K  K6  1  0.87786947  0.35677914  0.97834809  1
  K  K7  1  0.64322086  0.12213053  0.52165191  1
  Tc  Tc0  1  0.00342887  0.31058082  0.52551778  1
  Tc  Tc1  1  0.68941918  0.99657113  0.97448222  1
  Tc  Tc2  1  0.99657113  0.68941918  0.47448222  1
  Tc  Tc3  1  0.31058082  0.00342887  0.02551778  1
  Tc  Tc4  1  0.11427972  0.47007129  0.62931550  1
  Tc  Tc5  1  0.52992871  0.88572028  0.87068450  1
  Tc  Tc6  1  0.88572028  0.52992871  0.37068450  1
  Tc  Tc7  1  0.47007129  0.11427972  0.12931550  1
  Tc  Tc8  1  0.81348674  0.60218474  0.58249847  1
  Tc  Tc9  1  0.39781526  0.18651326  0.91750153  1
  Tc  Tc10  1  0.18651326  0.39781526  0.41750153  1
  Tc  Tc11  1  0.60218474  0.81348674  0.08249847  1
  S  S0  1  0.07209864  0.25715049  0.33251441  1
  S  S1  1  0.74284951  0.92790136  0.16748559  1
  S  S2  1  0.92790136  0.74284951  0.66748559  1
  S  S3  1  0.25715049  0.07209864  0.83251441  1
  S  S4  1  0.79424928  0.72027912  0.93124326  1
  S  S5  1  0.27972088  0.20575072  0.56875674  1
  S  S6  1  0.20575072  0.27972088  0.06875674  1
  S  S7  1  0.72027912  0.79424928  0.43124326  1
  S  S8  1  0.06124716  0.61067638  0.28348803  1
  S  S9  1  0.38932362  0.93875284  0.21651197  1
  S  S10  1  0.93875284  0.38932362  0.71651197  1
  S  S11  1  0.61067638  0.06124716  0.78348803  1
  S  S12  1  0.27621539  0.55508020  0.52014653  1
  S  S13  1  0.44491980  0.72378461  0.97985347  1
  S  S14  1  0.72378461  0.44491980  0.47985347  1
  S  S15  1  0.55508020  0.27621539  0.02014653  1
  S  S16  1  0.05893081  0.99995196  0.07355652  1
  S  S17  1  0.00004804  0.94106919  0.42644348  1
  S  S18  1  0.94106919  0.00004804  0.92644348  1
  S  S19  1  0.99995196  0.05893081  0.57355652  1
  S  S20  1  0.26360107  0.43873589  0.80517156  1
  S  S21  1  0.56126411  0.73639893  0.69482844  1
  S  S22  1  0.73639893  0.56126411  0.19482844  1
  S  S23  1  0.43873589  0.26360107  0.30517156  1
loop_
_geom_bond_atom_site_label_1
_geom_bond_atom_site_label_2
_geom_bond_distance
_geom_bond_site_symmetry_2
K0 S21 3.125601 1_555
K0 S20 3.125601 1_555
K0 S10 3.216567 1_555
K0 S11 3.216567 1_555
K0 S14 3.494538 1_555
K0 S15 3.494538 1_556
K0 K6 3.721922 1_555
K0 K7 3.721922 1_555
K0 K2 3.799101 1_555
K0 S13 3.886691 1_555
K0 S12 3.886691 1_555
K1 S22 3.125601 1_555
K1 S23 3.125601 1_555
K1 S9 3.216567 1_555
K1 S8 3.216567 1_555
K1 S12 3.494538 1_555
K1 S13 3.494538 1_554
K1 K5 3.721922 1_555
K1 K4 3.721922 1_555
K1 K3 3.799101 1_555
K1 S14 3.886691 1_555
K1 S15 3.886691 1_555
K2 S2 3.137160 1_455
K2 S3 3.137160 1_565
K2 S18 3.182611 1_465
K2 S19 3.182611 1_465
K2 S21 3.202105 1_555
K2 S20 3.202105 1_555
K2 S12 3.426782 1_555
K2 S13 3.426782 1_555
K2 K5 3.739675 1_555
K2 K4 3.739675 1_556
K3 S1 3.137160 1_545
K3 S0 3.137160 1_655
K3 S17 3.182611 1_645
K3 S16 3.182611 1_645
K3 S22 3.202105 1_555
K3 S23 3.202105 1_555
K3 S14 3.426782 1_555
K3 S15 3.426782 1_555
K3 K7 3.739675 1_555
K3 K6 3.739675 1_554
K4 S4 3.077405 1_454
K4 S20 3.135766 1_554
K4 S18 3.194909 1_464
K4 S8 3.196112 1_555
K4 S6 3.218885 1_555
K4 S16 3.246374 1_555
K4 S13 3.559234 1_554
K4 S1 3.750318 1_455
K4 S15 3.943001 1_555
K5 S5 3.077405 1_565
K5 S21 3.135766 1_555
K5 S19 3.194909 1_465
K5 S9 3.196112 1_555
K5 S7 3.218885 1_555
K5 S17 3.246374 1_555
K5 S12 3.559234 1_555
K5 S0 3.750318 1_565
K5 S14 3.943001 1_555
K6 S6 3.077405 1_656
K6 S22 3.135766 1_556
K6 S16 3.194909 1_646
K6 S10 3.196112 1_555
K6 S4 3.218885 1_555
K6 S18 3.246374 1_555
K6 S15 3.559234 1_556
K6 S3 3.750318 1_655
K6 S13 3.943001 1_555
K7 S7 3.077405 1_545
K7 S23 3.135766 1_555
K7 S17 3.194909 1_645
K7 S11 3.196112 1_555
K7 S5 3.218885 1_555
K7 S19 3.246374 1_555
K7 S14 3.559234 1_555
K7 S2 3.750318 1_545
K7 S12 3.943001 1_555
Tc0 Tc4 2.589976 1_555
Tc0 Tc10 2.592011 1_555
Tc0 Tc8 2.592303 1_455
Tc0 Tc6 2.595125 1_455
Tc1 Tc5 2.589976 1_555
Tc1 Tc11 2.592011 1_556
Tc1 Tc9 2.592303 1_565
Tc1 Tc7 2.595125 1_566
Tc2 Tc6 2.589976 1_555
Tc2 Tc8 2.592011 1_555
Tc2 Tc4 2.595125 1_655
Tc3 Tc7 2.589976 1_555
Tc3 Tc9 2.592011 1_554
Tc3 Tc5 2.595125 1_544
Tc4 Tc8 2.599468 1_455
Tc5 Tc9 2.599468 1_565
Tc6 Tc8 2.618730 1_555
Tc7 Tc9 2.618730 1_554
Tc10 Tc2 2.592303 1_455
Tc10 Tc6 2.599468 1_455
Tc10 Tc4 2.618730 1_555
Tc11 Tc3 2.592303 1_565
Tc11 Tc7 2.599468 1_565
Tc11 Tc5 2.618730 1_554
S0 Tc10 2.363541 1_555
S0 Tc0 2.374354 1_555
S0 Tc6 2.399242 1_455
S1 Tc11 2.363541 1_555
S1 Tc1 2.374354 1_554
S1 Tc7 2.399242 1_565
S2 Tc8 2.363541 1_555
S2 Tc2 2.374354 1_555
S2 Tc4 2.399242 1_655
S3 Tc9 2.363541 1_555
S3 Tc3 2.374354 1_556
S3 Tc5 2.399242 1_545
S4 Tc5 2.370203 1_555
S4 Tc1 2.401916 1_555
S4 Tc11 2.403565 1_556
S5 Tc4 2.370203 1_555
S5 Tc0 2.401916 1_555
S5 Tc10 2.403565 1_555
S6 Tc7 2.370203 1_555
S6 Tc3 2.401916 1_555
S6 Tc9 2.403565 1_554
S7 Tc6 2.370203 1_555
S7 Tc2 2.401916 1_555
S7 Tc8 2.403565 1_555
S8 Tc6 2.380334 1_455
S8 Tc2 2.384963 1_455
S8 Tc10 2.395287 1_555
S9 Tc7 2.380334 1_565
S9 Tc3 2.384963 1_565
S9 Tc11 2.395287 1_555
S10 Tc4 2.380334 1_655
S10 Tc0 2.384963 1_655
S10 Tc8 2.395287 1_555
S11 Tc5 2.380334 1_545
S11 Tc1 2.384963 1_545
S11 Tc9 2.395287 1_555
S12 Tc2 2.419333 1_455
S12 Tc4 2.421108 1_555
S12 Tc10 2.426566 1_555
S13 Tc3 2.419333 1_566
S13 Tc5 2.421108 1_555
S13 Tc11 2.426566 1_556
S14 Tc0 2.419333 1_655
S14 Tc6 2.421108 1_555
S14 Tc8 2.426566 1_555
S15 Tc1 2.419333 1_544
S15 Tc7 2.421108 1_555
S15 Tc9 2.426566 1_554
S16 S18 2.104822 1_464
S16 Tc3 2.485540 1_565
S17 S19 2.104822 1_465
S17 Tc2 2.485540 1_455
S18 Tc1 2.485540 1_545
S19 Tc0 2.485540 1_655
S20 Tc4 2.492514 1_555
S20 Tc9 2.496753 1_555
S21 Tc5 2.492514 1_555
S21 Tc8 2.496753 1_555
S22 Tc6 2.492514 1_555
S22 Tc11 2.496753 1_555
S23 Tc7 2.492514 1_555
S23 Tc10 2.496753 1_555
