# generated using pymatgen
data_As(IF3)2
_symmetry_space_group_name_H-M   'P 1'
_cell_length_a   5.98128109
_cell_length_b   7.88212968
_cell_length_c   7.88212978
_cell_angle_alpha   79.48847884
_cell_angle_beta   79.32241927
_cell_angle_gamma   79.32242399
_symmetry_Int_Tables_number   1
_chemical_formula_structural   As(IF3)2
_chemical_formula_sum   'As2 I4 F12'
_cell_volume   354.60233239
_cell_formula_units_Z   2
loop_
 _symmetry_equiv_pos_site_id
 _symmetry_equiv_pos_as_xyz
  1  'x, y, z'
loop_
 _atom_site_type_symbol
 _atom_site_label
 _atom_site_symmetry_multiplicity
 _atom_site_fract_x
 _atom_site_fract_y
 _atom_site_fract_z
 _atom_site_occupancy
  As  As0  1  0.55932162  0.69321633  0.69321633  1
  As  As1  1  0.44067838  0.30678367  0.30678367  1
  I  I0  1  0.11007761  0.91880704  0.24144173  1
  I  I1  1  0.11007761  0.24144173  0.91880704  1
  I  I2  1  0.88992239  0.75855827  0.08119296  1
  I  I3  1  0.88992239  0.08119296  0.75855827  1
  F  F0  1  0.62514300  0.20808966  0.45460056  1
  F  F1  1  0.74808358  0.84540054  0.60098145  1
  F  F2  1  0.71133157  0.55276188  0.55276188  1
  F  F3  1  0.62514300  0.45460056  0.20808966  1
  F  F4  1  0.25191642  0.39901855  0.15459946  1
  F  F5  1  0.25191642  0.15459946  0.39901855  1
  F  F6  1  0.57824947  0.16156195  0.16156195  1
  F  F7  1  0.37485700  0.79191034  0.54539944  1
  F  F8  1  0.37485700  0.54539944  0.79191034  1
  F  F9  1  0.42175053  0.83843805  0.83843805  1
  F  F10  1  0.28866843  0.44723812  0.44723812  1
  F  F11  1  0.74808358  0.60098145  0.84540054  1
loop_
_geom_bond_atom_site_label_1
_geom_bond_atom_site_label_2
_geom_bond_distance
_geom_bond_site_symmetry_2
As0 F2 1.726011 1_555
As0 F8 1.734242 1_555
As0 F7 1.734242 1_555
As0 F9 1.754300 1_555
As0 F1 1.766822 1_555
As0 F11 1.766822 1_555
As1 F10 1.726011 1_555
As1 F3 1.734242 1_555
As1 F0 1.734242 1_555
As1 F6 1.754300 1_555
As1 F5 1.766822 1_555
As1 F4 1.766822 1_555
I0 I2 2.596084 1_455
I0 I1 3.251856 1_564
I1 I3 2.596084 1_455
I2 I3 3.251856 1_564
F0 F5 2.476242 1_555
F0 I3 3.032049 1_555
F1 F9 2.442223 1_555
F1 F2 2.460078 1_555
F1 F11 2.463516 1_555
F1 F7 2.476242 1_555
F1 I3 2.744744 1_565
F1 I0 3.262851 1_655
F3 F4 2.476242 1_555
F3 I2 3.032049 1_555
F4 F6 2.442223 1_555
F4 F5 2.463516 1_555
F4 I1 2.744744 1_554
F4 I2 3.262851 1_455
F5 F6 2.442223 1_555
F5 I0 2.744744 1_545
F5 I3 3.262851 1_455
F6 I3 3.474062 1_554
F6 I2 3.474062 1_545
F6 I1 3.496226 1_654
F6 I0 3.496226 1_645
F7 I0 3.032049 1_555
F8 I1 3.032049 1_555
F9 I0 3.474062 1_556
F9 I1 3.474062 1_565
F9 I2 3.496226 1_456
F9 I3 3.496226 1_465
F10 F5 2.460078 1_555
F10 F4 2.460078 1_555
F11 F9 2.442223 1_555
F11 F2 2.460078 1_555
F11 F8 2.476242 1_555
F11 I2 2.744744 1_556
F11 I1 3.262851 1_655
