# generated using pymatgen
data_Ba3SmIr2O9
_symmetry_space_group_name_H-M   'P 1'
_cell_length_a   6.96312959
_cell_length_b   6.96312959
_cell_length_c   15.30163400
_cell_angle_alpha   90.00000000
_cell_angle_beta   90.00000000
_cell_angle_gamma   119.99999613
_symmetry_Int_Tables_number   1
_chemical_formula_structural   Ba3SmIr2O9
_chemical_formula_sum   'Ba6 Sm2 Ir4 O18'
_cell_volume   642.50633570
_cell_formula_units_Z   2
loop_
 _symmetry_equiv_pos_site_id
 _symmetry_equiv_pos_as_xyz
  1  'x, y, z'
loop_
 _atom_site_type_symbol
 _atom_site_label
 _atom_site_symmetry_multiplicity
 _atom_site_fract_x
 _atom_site_fract_y
 _atom_site_fract_z
 _atom_site_occupancy
  Ba  Ba0  1  0.00000000  0.00000000  0.25000000  1
  Ba  Ba1  1  0.00000000  0.00000000  0.75000000  1
  Ba  Ba2  1  0.33333300  0.66666700  0.88238100  1
  Ba  Ba3  1  0.66666700  0.33333300  0.38238100  1
  Ba  Ba4  1  0.66666700  0.33333300  0.11761900  1
  Ba  Ba5  1  0.33333300  0.66666700  0.61761900  1
  Sm  Sm0  1  0.00000000  0.00000000  0.00000000  1
  Sm  Sm1  1  0.00000000  0.00000000  0.50000000  1
  Ir  Ir0  1  0.33333300  0.66666700  0.16159000  1
  Ir  Ir1  1  0.66666700  0.33333300  0.66159000  1
  Ir  Ir2  1  0.66666700  0.33333300  0.83841000  1
  Ir  Ir3  1  0.33333300  0.66666700  0.33841000  1
  O  O0  1  0.45296400  0.90592800  0.25000000  1
  O  O1  1  0.54703600  0.45296400  0.75000000  1
  O  O2  1  0.90592800  0.45296400  0.75000000  1
  O  O3  1  0.09407200  0.54703600  0.25000000  1
  O  O4  1  0.45296400  0.54703600  0.25000000  1
  O  O5  1  0.54703600  0.09407200  0.75000000  1
  O  O6  1  0.86321200  0.72642400  0.39391100  1
  O  O7  1  0.13678800  0.86321200  0.89391100  1
  O  O8  1  0.72642400  0.86321200  0.89391100  1
  O  O9  1  0.27357600  0.13678800  0.39391100  1
  O  O10  1  0.86321200  0.13678800  0.39391100  1
  O  O11  1  0.13678800  0.27357600  0.60608900  1
  O  O12  1  0.13678800  0.86321200  0.60608900  1
  O  O13  1  0.13678800  0.27357600  0.89391100  1
  O  O14  1  0.72642400  0.86321200  0.60608900  1
  O  O15  1  0.27357600  0.13678800  0.10608900  1
  O  O16  1  0.86321200  0.72642400  0.10608900  1
  O  O17  1  0.86321200  0.13678800  0.10608900  1
loop_
_geom_bond_atom_site_label_1
_geom_bond_atom_site_label_2
_geom_bond_distance
_geom_bond_site_symmetry_2
Ba0 O10 2.751498 1_455
Ba0 O17 2.751498 1_455
Ba0 O9 2.751498 1_555
Ba0 O6 2.751498 1_445
Ba0 O15 2.751498 1_555
Ba0 O16 2.751498 1_445
Ba0 O3 3.527477 1_545
Ba0 O0 3.527477 1_545
Ba0 O0 3.527477 1_445
Ba0 O3 3.527477 1_555
Ba0 O4 3.527478 1_555
Ba0 O4 3.527478 1_445
Ba1 O12 2.751498 1_545
Ba1 O7 2.751498 1_545
Ba1 O11 2.751498 1_555
Ba1 O13 2.751498 1_555
Ba1 O14 2.751498 1_445
Ba1 O8 2.751498 1_445
Ba1 O5 3.527477 1_455
Ba1 O2 3.527477 1_455
Ba1 O2 3.527477 1_445
Ba1 O5 3.527477 1_555
Ba1 O1 3.527478 1_555
Ba1 O1 3.527478 1_445
Ba2 O7 2.376986 1_555
Ba2 O8 2.376993 1_555
Ba2 O13 2.376993 1_555
Ba2 O5 3.278111 1_565
Ba2 O2 3.278111 1_455
Ba2 O1 3.278116 1_555
Ba3 O10 2.376986 1_555
Ba3 O6 2.376993 1_555
Ba3 O9 2.376993 1_555
Ba3 O3 3.278111 1_655
Ba3 O0 3.278111 1_545
Ba3 O4 3.278116 1_555
Ba4 O17 2.376986 1_555
Ba4 O15 2.376993 1_555
Ba4 O16 2.376993 1_555
Ba4 O3 3.278111 1_655
Ba4 O0 3.278111 1_545
Ba4 O4 3.278116 1_555
Ba5 O12 2.376986 1_555
Ba5 O14 2.376993 1_555
Ba5 O11 2.376993 1_555
Ba5 O5 3.278111 1_565
Ba5 O2 3.278111 1_455
Ba5 O1 3.278116 1_555
Ir0 O0 1.977826 1_555
Ir0 O3 1.977826 1_555
Ir0 O4 1.977830 1_555
Ir1 O2 1.977826 1_555
Ir1 O5 1.977826 1_555
Ir1 O1 1.977830 1_555
Ir2 O2 1.977826 1_555
Ir2 O5 1.977826 1_555
Ir2 O1 1.977830 1_555
Ir3 O0 1.977826 1_555
Ir3 O3 1.977826 1_555
Ir3 O4 1.977830 1_555
O0 O4 2.499012 1_555
O0 O3 2.499012 1_555
O1 O2 2.499012 1_555
O1 O5 2.499012 1_555
O2 O5 2.499012 1_555
O3 O4 2.499012 1_555
O6 Sm1 2.314482 1_665
O6 O9 2.857418 1_665
O7 Sm0 2.314482 1_566
O7 O8 2.857418 1_455
O8 Sm0 2.314482 1_666
O9 Sm1 2.314482 1_555
O10 Sm1 2.314482 1_655
O10 O9 2.857418 1_655
O10 O6 2.857418 1_545
O11 Sm1 2.314482 1_555
O11 O12 2.857418 1_545
O11 O14 2.857418 1_445
O12 Sm1 2.314482 1_565
O12 O14 2.857418 1_455
O13 Sm0 2.314482 1_556
O13 O7 2.857418 1_545
O13 O8 2.857418 1_445
O14 Sm1 2.314482 1_665
O15 Sm0 2.314482 1_555
O15 O17 2.857418 1_455
O15 O16 2.857418 1_445
O16 Sm0 2.314482 1_665
O16 O17 2.857418 1_565
O17 Sm0 2.314482 1_655
