# generated using pymatgen
data_Li2U3(PO5)4
_symmetry_space_group_name_H-M   'P 1'
_cell_length_a   5.40920600
_cell_length_b   6.77824006
_cell_length_c   12.67930594
_cell_angle_alpha   94.82509625
_cell_angle_beta   99.13944414
_cell_angle_gamma   110.45147719
_symmetry_Int_Tables_number   1
_chemical_formula_structural   Li2U3(PO5)4
_chemical_formula_sum   'Li2 U3 P4 O20'
_cell_volume   425.12712069
_cell_formula_units_Z   1
loop_
 _symmetry_equiv_pos_site_id
 _symmetry_equiv_pos_as_xyz
  1  'x, y, z'
loop_
 _atom_site_type_symbol
 _atom_site_label
 _atom_site_symmetry_multiplicity
 _atom_site_fract_x
 _atom_site_fract_y
 _atom_site_fract_z
 _atom_site_occupancy
  Li  Li0  1  0.39212500  0.92602600  0.18898200  1
  Li  Li1  1  0.60787500  0.07397400  0.81101800  1
  U  U0  1  0.88211900  0.84261800  0.63148600  1
  U  U1  1  0.11788100  0.15738200  0.36851400  1
  U  U2  1  0.00000000  0.50000000  0.00000000  1
  P  P0  1  0.99316700  0.32926200  0.64319200  1
  P  P1  1  0.47918000  0.57249400  0.81478800  1
  P  P2  1  0.52082000  0.42750600  0.18521200  1
  P  P3  1  0.00683300  0.67073800  0.35680800  1
  O  O0  1  0.32218900  0.22378700  0.21306600  1
  O  O1  1  0.99137600  0.18978200  0.54031800  1
  O  O2  1  0.94167700  0.22240000  0.95557800  1
  O  O3  1  0.77563000  0.05299600  0.28836300  1
  O  O4  1  0.71281800  0.38471500  0.11798900  1
  O  O5  1  0.45474800  0.24544400  0.44504900  1
  O  O6  1  0.37515300  0.56529200  0.13298100  1
  O  O7  1  0.62484700  0.43470800  0.86701900  1
  O  O8  1  0.05832300  0.77760000  0.04442200  1
  O  O9  1  0.11041200  0.49240100  0.37289000  1
  O  O10  1  0.84600700  0.16942400  0.71186100  1
  O  O11  1  0.67781100  0.77621300  0.78693400  1
  O  O12  1  0.28718200  0.61528500  0.88201100  1
  O  O13  1  0.88958800  0.50759900  0.62711000  1
  O  O14  1  0.30735300  0.43276700  0.70048100  1
  O  O15  1  0.00862400  0.81021800  0.45968200  1
  O  O16  1  0.69264700  0.56723300  0.29951900  1
  O  O17  1  0.22437000  0.94700400  0.71163700  1
  O  O18  1  0.54525200  0.75455600  0.55495100  1
  O  O19  1  0.15399300  0.83057600  0.28813900  1
loop_
_geom_bond_atom_site_label_1
_geom_bond_atom_site_label_2
_geom_bond_distance
_geom_bond_site_symmetry_2
Li0 O19 1.930640 1_555
Li0 O3 2.090785 1_565
Li0 O0 2.185511 1_565
Li0 O8 2.236277 1_555
Li0 O6 2.453909 1_555
Li1 O10 1.930640 1_555
Li1 O17 2.090785 1_545
Li1 O11 2.185511 1_545
Li1 O2 2.236277 1_555
Li1 O7 2.453909 1_555
O0 P2 1.533519 1_555
O0 U1 2.408788 1_555
O1 P0 1.541895 1_555
O1 U1 2.399957 1_655
O2 U2 1.818724 1_656
O3 U1 1.823928 1_655
O4 P2 1.529490 1_555
O4 U2 2.312675 1_655
O5 U1 1.788594 1_555
O6 P2 1.544097 1_555
O6 U2 2.305797 1_555
O7 P1 1.544097 1_555
O7 U2 2.305797 1_656
O8 U2 1.818724 1_555
O9 P3 1.514987 1_555
O9 U1 2.281458 1_555
O10 P0 1.530261 1_555
O10 U0 2.443266 1_545
O11 P1 1.533519 1_555
O11 U0 2.408788 1_555
O12 P1 1.529490 1_555
O12 U2 2.312675 1_556
O13 P0 1.514987 1_555
O13 U0 2.281458 1_555
O14 P1 1.608547 1_555
O14 P0 1.611522 1_455
O15 P3 1.541895 1_555
O15 U0 2.399957 1_455
O16 P2 1.608547 1_555
O16 P3 1.611522 1_655
O17 U0 1.823928 1_455
O18 U0 1.788594 1_555
O19 P3 1.530261 1_555
O19 U1 2.443266 1_565
