# generated using pymatgen
data_Cu2H2CO5
_symmetry_space_group_name_H-M   'P 1'
_cell_length_a   12.04485400
_cell_length_b   3.33239600
_cell_length_c   9.92325916
_cell_angle_alpha   76.85300690
_cell_angle_beta   90.00000000
_cell_angle_gamma   90.00000000
_symmetry_Int_Tables_number   1
_chemical_formula_structural   Cu2H2CO5
_chemical_formula_sum   'Cu8 H8 C4 O20'
_cell_volume   387.86239487
_cell_formula_units_Z   4
loop_
 _symmetry_equiv_pos_site_id
 _symmetry_equiv_pos_as_xyz
  1  'x, y, z'
loop_
 _atom_site_type_symbol
 _atom_site_label
 _atom_site_symmetry_multiplicity
 _atom_site_fract_x
 _atom_site_fract_y
 _atom_site_fract_z
 _atom_site_occupancy
  Cu  Cu0  1  0.28872600  0.10810500  0.49497400  1
  Cu  Cu1  1  0.78872600  0.89189500  0.00502600  1
  Cu  Cu2  1  0.71127400  0.89189500  0.50502600  1
  Cu  Cu3  1  0.21127400  0.10810500  0.99497400  1
  Cu  Cu4  1  0.39023000  0.62342400  0.22793600  1
  Cu  Cu5  1  0.89023000  0.37657600  0.27206400  1
  Cu  Cu6  1  0.60977000  0.37657600  0.77206400  1
  Cu  Cu7  1  0.10977000  0.62342400  0.72793600  1
  H  H0  1  0.40178600  0.18612500  0.01475000  1
  H  H1  1  0.90178600  0.81387500  0.48525000  1
  H  H2  1  0.59821400  0.81387500  0.98525000  1
  H  H3  1  0.09821400  0.18612500  0.51475000  1
  H  H4  1  0.48980400  0.15389400  0.39790700  1
  H  H5  1  0.98980400  0.84610600  0.10209300  1
  H  H6  1  0.51019600  0.84610600  0.60209300  1
  H  H7  1  0.01019600  0.15389400  0.89790700  1
  C  C0  1  0.13629700  0.53204300  0.26558100  1
  C  C1  1  0.63629700  0.46795700  0.23441900  1
  C  C2  1  0.86370300  0.46795700  0.73441900  1
  C  C3  1  0.36370300  0.53204300  0.76558100  1
  O  O0  1  0.12579000  0.69553600  0.13449100  1
  O  O1  1  0.62579000  0.30446400  0.36550900  1
  O  O2  1  0.87421000  0.30446400  0.86550900  1
  O  O3  1  0.37421000  0.69553600  0.63449100  1
  O  O4  1  0.23269600  0.54142400  0.32575400  1
  O  O5  1  0.73269600  0.45857600  0.17424600  1
  O  O6  1  0.76730400  0.45857600  0.67424600  1
  O  O7  1  0.26730400  0.54142400  0.82575400  1
  O  O8  1  0.05361400  0.35570700  0.33762700  1
  O  O9  1  0.55361400  0.64429300  0.16237300  1
  O  O10  1  0.94638600  0.64429300  0.66237300  1
  O  O11  1  0.44638600  0.35570700  0.83762700  1
  O  O12  1  0.34820400  0.11478100  0.09268200  1
  O  O13  1  0.84820400  0.88521900  0.40731800  1
  O  O14  1  0.65179600  0.88521900  0.90731800  1
  O  O15  1  0.15179600  0.11478100  0.59268200  1
  O  O16  1  0.41183500  0.12443200  0.36902800  1
  O  O17  1  0.91183500  0.87556800  0.13097200  1
  O  O18  1  0.58816500  0.87556800  0.63097200  1
  O  O19  1  0.08816500  0.12443200  0.86902800  1
loop_
_geom_bond_atom_site_label_1
_geom_bond_atom_site_label_2
_geom_bond_distance
_geom_bond_site_symmetry_2
Cu0 O15 1.915879 1_555
Cu0 O16 1.932045 1_555
Cu0 O3 2.000307 1_545
Cu0 O4 2.063321 1_555
Cu1 O14 1.915879 1_554
Cu1 O17 1.932045 1_555
Cu1 O2 2.000307 1_564
Cu1 O5 2.063321 1_555
Cu2 O13 1.915879 1_555
Cu2 O18 1.932045 1_555
Cu2 O1 2.000307 1_565
Cu2 O6 2.063321 1_555
Cu3 O12 1.915879 1_556
Cu3 O19 1.932045 1_555
Cu3 O0 2.000307 1_546
Cu3 O7 2.063321 1_555
Cu4 O16 1.932342 1_555
Cu4 O12 1.933646 1_565
Cu4 O9 2.068890 1_555
Cu4 O4 2.120525 1_555
Cu4 O16 2.424612 1_565
Cu4 O12 2.442445 1_555
Cu5 O17 1.932342 1_555
Cu5 O13 1.933646 1_545
Cu5 O8 2.068890 1_655
Cu5 O5 2.120525 1_555
Cu5 O17 2.424612 1_545
Cu5 O13 2.442445 1_555
Cu6 O18 1.932342 1_555
Cu6 O14 1.933646 1_545
Cu6 O11 2.068890 1_555
Cu6 O6 2.120525 1_555
Cu6 O18 2.424612 1_545
Cu6 O14 2.442445 1_555
Cu7 O19 1.932342 1_555
Cu7 O15 1.933646 1_565
Cu7 O10 2.068890 1_455
Cu7 O7 2.120525 1_555
Cu7 O19 2.424612 1_565
Cu7 O15 2.442445 1_555
H0 O12 0.993713 1_555
H0 O11 1.801497 1_554
H1 O13 0.993713 1_555
H1 O10 1.801497 1_555
H2 O14 0.993713 1_555
H2 O9 1.801497 1_556
H3 O15 0.993713 1_555
H3 O8 1.801497 1_555
H4 O16 0.993236 1_555
H4 O1 1.721789 1_555
H5 O17 0.993236 1_555
H5 O0 1.721789 1_655
H6 O18 0.993236 1_555
H6 O3 1.721789 1_555
H7 O19 0.993236 1_555
H7 O2 1.721789 1_455
C0 O8 1.287301 1_555
C0 O0 1.297163 1_555
C0 O4 1.309272 1_555
C1 O9 1.287301 1_555
C1 O1 1.297163 1_555
C1 O5 1.309272 1_555
C2 O10 1.287301 1_555
C2 O2 1.297163 1_555
C2 O6 1.309272 1_555
C3 O11 1.287301 1_555
C3 O3 1.297163 1_555
C3 O7 1.309272 1_555
