# generated using pymatgen
data_Er4I5
_symmetry_space_group_name_H-M   'P 1'
_cell_length_a   18.92854649
_cell_length_b   18.92854649
_cell_length_c   17.50582648
_cell_angle_alpha   76.63012895
_cell_angle_beta   76.63012895
_cell_angle_gamma   23.98311561
_symmetry_Int_Tables_number   1
_chemical_formula_structural   Er4I5
_chemical_formula_sum   'Er32 I40'
_cell_volume   2477.17050153
_cell_formula_units_Z   8
loop_
 _symmetry_equiv_pos_site_id
 _symmetry_equiv_pos_as_xyz
  1  'x, y, z'
loop_
 _atom_site_type_symbol
 _atom_site_label
 _atom_site_symmetry_multiplicity
 _atom_site_fract_x
 _atom_site_fract_y
 _atom_site_fract_z
 _atom_site_occupancy
  Er  Er0_0  1  0.00019750  0.00019750  0.09803200  1
  Er  Er0_1  1  0.00019750  0.00019750  0.59803200  1
  Er  Er0_2  1  0.00019750  0.50019750  0.09803200  1
  Er  Er0_3  1  0.00019750  0.50019750  0.59803200  1
  Er  Er0_4  1  0.50019750  0.00019750  0.09803200  1
  Er  Er0_5  1  0.50019750  0.00019750  0.59803200  1
  Er  Er0_6  1  0.50019750  0.50019750  0.09803200  1
  Er  Er0_7  1  0.50019750  0.50019750  0.59803200  1
  Er  Er1_0  1  0.49980250  0.49980250  0.40196800  1
  Er  Er1_1  1  0.49980250  0.49980250  0.90196800  1
  Er  Er1_2  1  0.49980250  0.99980250  0.40196800  1
  Er  Er1_3  1  0.49980250  0.99980250  0.90196800  1
  Er  Er1_4  1  0.99980250  0.49980250  0.40196800  1
  Er  Er1_5  1  0.99980250  0.49980250  0.90196800  1
  Er  Er1_6  1  0.99980250  0.99980250  0.40196800  1
  Er  Er1_7  1  0.99980250  0.99980250  0.90196800  1
  Er  Er2_0  1  0.31673650  0.31673650  0.46626150  1
  Er  Er2_1  1  0.31673650  0.31673650  0.96626150  1
  Er  Er2_2  1  0.31673650  0.81673650  0.46626150  1
  Er  Er2_3  1  0.31673650  0.81673650  0.96626150  1
  Er  Er2_4  1  0.81673650  0.31673650  0.46626150  1
  Er  Er2_5  1  0.81673650  0.31673650  0.96626150  1
  Er  Er2_6  1  0.81673650  0.81673650  0.46626150  1
  Er  Er2_7  1  0.81673650  0.81673650  0.96626150  1
  Er  Er3_0  1  0.18326350  0.18326350  0.03373850  1
  Er  Er3_1  1  0.18326350  0.18326350  0.53373850  1
  Er  Er3_2  1  0.18326350  0.68326350  0.03373850  1
  Er  Er3_3  1  0.18326350  0.68326350  0.53373850  1
  Er  Er3_4  1  0.68326350  0.18326350  0.03373850  1
  Er  Er3_5  1  0.68326350  0.18326350  0.53373850  1
  Er  Er3_6  1  0.68326350  0.68326350  0.03373850  1
  Er  Er3_7  1  0.68326350  0.68326350  0.53373850  1
  I  I0_0  1  0.08394950  0.08394950  0.32674600  1
  I  I0_1  1  0.08394950  0.08394950  0.82674600  1
  I  I0_2  1  0.08394950  0.58394950  0.32674600  1
  I  I0_3  1  0.08394950  0.58394950  0.82674600  1
  I  I0_4  1  0.58394950  0.08394950  0.32674600  1
  I  I0_5  1  0.58394950  0.08394950  0.82674600  1
  I  I0_6  1  0.58394950  0.58394950  0.32674600  1
  I  I0_7  1  0.58394950  0.58394950  0.82674600  1
  I  I1_0  1  0.41605050  0.41605050  0.17325400  1
  I  I1_1  1  0.41605050  0.41605050  0.67325400  1
  I  I1_2  1  0.41605050  0.91605050  0.17325400  1
  I  I1_3  1  0.41605050  0.91605050  0.67325400  1
  I  I1_4  1  0.91605050  0.41605050  0.17325400  1
  I  I1_5  1  0.91605050  0.41605050  0.67325400  1
  I  I1_6  1  0.91605050  0.91605050  0.17325400  1
  I  I1_7  1  0.91605050  0.91605050  0.67325400  1
  I  I2_0  1  0.08729300  0.08729300  0.08762300  1
  I  I2_1  1  0.08729300  0.08729300  0.58762300  1
  I  I2_2  1  0.08729300  0.58729300  0.08762300  1
  I  I2_3  1  0.08729300  0.58729300  0.58762300  1
  I  I2_4  1  0.58729300  0.08729300  0.08762300  1
  I  I2_5  1  0.58729300  0.08729300  0.58762300  1
  I  I2_6  1  0.58729300  0.58729300  0.08762300  1
  I  I2_7  1  0.58729300  0.58729300  0.58762300  1
  I  I3_0  1  0.41270700  0.41270700  0.41237700  1
  I  I3_1  1  0.41270700  0.41270700  0.91237700  1
  I  I3_2  1  0.41270700  0.91270700  0.41237700  1
  I  I3_3  1  0.41270700  0.91270700  0.91237700  1
  I  I3_4  1  0.91270700  0.41270700  0.41237700  1
  I  I3_5  1  0.91270700  0.41270700  0.91237700  1
  I  I3_6  1  0.91270700  0.91270700  0.41237700  1
  I  I3_7  1  0.91270700  0.91270700  0.91237700  1
  I  I4_0  1  0.25000000  0.25000000  0.25000000  1
  I  I4_1  1  0.25000000  0.25000000  0.75000000  1
  I  I4_2  1  0.25000000  0.75000000  0.25000000  1
  I  I4_3  1  0.25000000  0.75000000  0.75000000  1
  I  I4_4  1  0.75000000  0.25000000  0.25000000  1
  I  I4_5  1  0.75000000  0.25000000  0.75000000  1
  I  I4_6  1  0.75000000  0.75000000  0.25000000  1
  I  I4_7  1  0.75000000  0.75000000  0.75000000  1
loop_
_geom_bond_atom_site_label_1
_geom_bond_atom_site_label_2
_geom_bond_distance
_geom_bond_site_symmetry_2
Er0_0 I1_6 3.082820 1_445
Er0_0 I2_0 3.187078 1_555
Er0_0 I4_4 3.306780 1_455
Er0_0 I4_2 3.306780 1_545
Er0_0 Er1_7 3.435750 1_444
Er0_0 Er2_3 3.545668 1_544
Er0_0 Er2_5 3.545668 1_454
Er0_0 Er3_2 3.549078 1_545
Er0_0 Er3_4 3.549078 1_455
Er0_0 Er0_6 3.932738 1_545
Er0_0 Er0_6 3.932738 1_455
Er0_1 I1_7 3.082820 1_445
Er0_1 I2_1 3.187078 1_555
Er0_1 I4_5 3.306780 1_455
Er0_1 I4_3 3.306780 1_545
Er0_1 Er1_6 3.435750 1_445
Er0_1 Er2_2 3.545668 1_545
Er0_1 Er2_4 3.545668 1_455
Er0_1 Er3_5 3.549078 1_455
Er0_1 Er3_3 3.549078 1_545
Er0_1 Er0_7 3.932738 1_545
Er0_1 Er0_7 3.932738 1_455
Er0_2 I1_4 3.082820 1_455
Er0_2 I2_2 3.187078 1_555
Er0_2 I4_6 3.306780 1_455
Er0_2 I4_0 3.306780 1_555
Er0_2 Er1_5 3.435750 1_454
Er0_2 Er2_7 3.545668 1_454
Er0_2 Er2_1 3.545668 1_554
Er0_2 Er3_6 3.549078 1_455
Er0_2 Er3_0 3.549078 1_555
Er0_2 Er0_4 3.932738 1_555
Er0_2 Er0_4 3.932738 1_465
Er0_3 I1_5 3.082820 1_455
Er0_3 I2_3 3.187078 1_555
Er0_3 I4_7 3.306780 1_455
Er0_3 I4_1 3.306780 1_555
Er0_3 Er1_4 3.435750 1_455
Er0_3 Er2_6 3.545668 1_455
Er0_3 Er2_0 3.545668 1_555
Er0_3 Er3_7 3.549078 1_455
Er0_3 Er3_1 3.549078 1_555
Er0_3 Er0_5 3.932738 1_555
Er0_3 Er0_5 3.932738 1_465
Er0_4 I1_2 3.082820 1_545
Er0_4 I2_4 3.187078 1_555
Er0_4 I4_6 3.306780 1_545
Er0_4 I4_0 3.306780 1_555
Er0_4 Er1_3 3.435750 1_544
Er0_4 Er2_7 3.545668 1_544
Er0_4 Er2_1 3.545668 1_554
Er0_4 Er3_6 3.549078 1_545
Er0_4 Er3_0 3.549078 1_555
Er0_5 I1_3 3.082820 1_545
Er0_5 I2_5 3.187078 1_555
Er0_5 I4_7 3.306780 1_545
Er0_5 I4_1 3.306780 1_555
Er0_5 Er1_2 3.435750 1_545
Er0_5 Er2_6 3.545668 1_545
Er0_5 Er2_0 3.545668 1_555
Er0_5 Er3_7 3.549078 1_545
Er0_5 Er3_1 3.549078 1_555
Er0_6 I1_0 3.082820 1_555
Er0_6 I2_6 3.187078 1_555
Er0_6 I4_2 3.306780 1_555
Er0_6 I4_4 3.306780 1_555
Er0_6 Er1_1 3.435750 1_554
Er0_6 Er2_3 3.545668 1_554
Er0_6 Er2_5 3.545668 1_554
Er0_6 Er3_4 3.549078 1_555
Er0_6 Er3_2 3.549078 1_555
Er0_7 I1_1 3.082820 1_555
Er0_7 I2_7 3.187078 1_555
Er0_7 I4_3 3.306780 1_555
Er0_7 I4_5 3.306780 1_555
Er0_7 Er1_0 3.435750 1_555
Er0_7 Er2_2 3.545668 1_555
Er0_7 Er2_4 3.545668 1_555
Er0_7 Er3_5 3.549078 1_555
Er0_7 Er3_3 3.549078 1_555
Er1_0 I0_6 3.082820 1_555
Er1_0 I3_0 3.187078 1_555
Er1_0 I4_2 3.306780 1_555
Er1_0 I4_4 3.306780 1_555
Er1_0 Er3_5 3.545668 1_555
Er1_0 Er3_3 3.545668 1_555
Er1_0 Er2_2 3.549078 1_555
Er1_0 Er2_4 3.549078 1_555
Er1_0 Er1_6 3.932738 1_545
Er1_0 Er1_6 3.932738 1_455
Er1_1 I0_7 3.082820 1_555
Er1_1 I3_1 3.187078 1_555
Er1_1 I4_3 3.306780 1_555
Er1_1 I4_5 3.306780 1_555
Er1_1 Er3_2 3.545668 1_556
Er1_1 Er3_4 3.545668 1_556
Er1_1 Er2_5 3.549078 1_555
Er1_1 Er2_3 3.549078 1_555
Er1_1 Er1_7 3.932738 1_545
Er1_1 Er1_7 3.932738 1_455
Er1_2 I0_4 3.082820 1_565
Er1_2 I3_2 3.187078 1_555
Er1_2 I4_0 3.306780 1_565
Er1_2 I4_6 3.306780 1_555
Er1_2 Er3_1 3.545668 1_565
Er1_2 Er3_7 3.545668 1_555
Er1_2 Er2_6 3.549078 1_555
Er1_2 Er2_0 3.549078 1_565
Er1_2 Er1_4 3.932738 1_465
Er1_2 Er1_4 3.932738 1_555
Er1_3 I0_5 3.082820 1_565
Er1_3 I3_3 3.187078 1_555
Er1_3 I4_1 3.306780 1_565
Er1_3 I4_7 3.306780 1_555
Er1_3 Er3_6 3.545668 1_556
Er1_3 Er3_0 3.545668 1_566
Er1_3 Er2_7 3.549078 1_555
Er1_3 Er2_1 3.549078 1_565
Er1_3 Er1_5 3.932738 1_555
Er1_3 Er1_5 3.932738 1_465
Er1_4 I0_2 3.082820 1_655
Er1_4 I3_4 3.187078 1_555
Er1_4 I4_0 3.306780 1_655
Er1_4 I4_6 3.306780 1_555
Er1_4 Er3_7 3.545668 1_555
Er1_4 Er3_1 3.545668 1_655
Er1_4 Er2_6 3.549078 1_555
Er1_4 Er2_0 3.549078 1_655
Er1_5 I0_3 3.082820 1_655
Er1_5 I3_5 3.187078 1_555
Er1_5 I4_1 3.306780 1_655
Er1_5 I4_7 3.306780 1_555
Er1_5 Er3_6 3.545668 1_556
Er1_5 Er3_0 3.545668 1_656
Er1_5 Er2_7 3.549078 1_555
Er1_5 Er2_1 3.549078 1_655
Er1_6 I0_0 3.082820 1_665
Er1_6 I3_6 3.187078 1_555
Er1_6 I4_2 3.306780 1_655
Er1_6 I4_4 3.306780 1_565
Er1_6 Er3_3 3.545668 1_655
Er1_6 Er3_5 3.545668 1_565
Er1_6 Er2_2 3.549078 1_655
Er1_6 Er2_4 3.549078 1_565
Er1_7 I0_1 3.082820 1_665
Er1_7 I3_7 3.187078 1_555
Er1_7 I4_5 3.306780 1_565
Er1_7 I4_3 3.306780 1_655
Er1_7 Er3_2 3.545668 1_656
Er1_7 Er3_4 3.545668 1_566
Er1_7 Er2_3 3.549078 1_655
Er1_7 Er2_5 3.549078 1_565
Er2_0 I0_4 3.082511 1_555
Er2_0 I0_2 3.082511 1_555
Er2_0 I2_5 3.118387 1_555
Er2_0 I2_3 3.118387 1_555
Er2_0 I3_0 3.454696 1_555
Er2_1 I0_5 3.082511 1_555
Er2_1 I0_3 3.082511 1_555
Er2_1 I2_2 3.118387 1_556
Er2_1 I2_4 3.118387 1_556
Er2_1 I3_1 3.454696 1_555
Er2_2 I0_0 3.082511 1_565
Er2_2 I0_6 3.082511 1_555
Er2_2 I2_7 3.118387 1_555
Er2_2 I2_1 3.118387 1_565
Er2_2 I3_2 3.454696 1_555
Er2_3 I0_7 3.082511 1_555
Er2_3 I0_1 3.082511 1_565
Er2_3 I2_0 3.118387 1_566
Er2_3 I2_6 3.118387 1_556
Er2_3 I3_3 3.454696 1_555
Er2_4 I0_0 3.082511 1_655
Er2_4 I0_6 3.082511 1_555
Er2_4 I2_7 3.118387 1_555
Er2_4 I2_1 3.118387 1_655
Er2_4 I3_4 3.454696 1_555
Er2_5 I0_7 3.082511 1_555
Er2_5 I0_1 3.082511 1_655
Er2_5 I2_0 3.118387 1_656
Er2_5 I2_6 3.118387 1_556
Er2_5 I3_5 3.454696 1_555
Er2_6 I0_4 3.082511 1_565
Er2_6 I0_2 3.082511 1_655
Er2_6 I2_3 3.118387 1_655
Er2_6 I2_5 3.118387 1_565
Er2_6 I3_6 3.454696 1_555
Er2_7 I0_5 3.082511 1_565
Er2_7 I0_3 3.082511 1_655
Er2_7 I2_4 3.118387 1_566
Er2_7 I2_2 3.118387 1_656
Er2_7 I3_7 3.454696 1_555
Er3_0 I1_4 3.082511 1_455
Er3_0 I1_2 3.082511 1_545
Er3_0 I3_3 3.118387 1_544
Er3_0 I3_5 3.118387 1_454
Er3_0 I2_0 3.454696 1_555
Er3_1 I1_3 3.082511 1_545
Er3_1 I1_5 3.082511 1_455
Er3_1 I3_2 3.118387 1_545
Er3_1 I3_4 3.118387 1_455
Er3_1 I2_1 3.454696 1_555
Er3_2 I1_6 3.082511 1_455
Er3_2 I1_0 3.082511 1_555
Er3_2 I3_1 3.118387 1_554
Er3_2 I3_7 3.118387 1_454
Er3_2 I2_2 3.454696 1_555
Er3_3 I1_7 3.082511 1_455
Er3_3 I1_1 3.082511 1_555
Er3_3 I3_6 3.118387 1_455
Er3_3 I3_0 3.118387 1_555
Er3_3 I2_3 3.454696 1_555
Er3_4 I1_6 3.082511 1_545
Er3_4 I1_0 3.082511 1_555
Er3_4 I3_1 3.118387 1_554
Er3_4 I3_7 3.118387 1_544
Er3_4 I2_4 3.454696 1_555
Er3_5 I1_7 3.082511 1_545
Er3_5 I1_1 3.082511 1_555
Er3_5 I3_0 3.118387 1_555
Er3_5 I3_6 3.118387 1_545
Er3_5 I2_5 3.454696 1_555
Er3_6 I1_2 3.082511 1_555
Er3_6 I1_4 3.082511 1_555
Er3_6 I3_5 3.118387 1_554
Er3_6 I3_3 3.118387 1_554
Er3_6 I2_6 3.454696 1_555
Er3_7 I1_3 3.082511 1_555
Er3_7 I1_5 3.082511 1_555
Er3_7 I3_2 3.118387 1_555
Er3_7 I3_4 3.118387 1_555
Er3_7 I2_7 3.454696 1_555
I0_0 I0_6 3.932738 1_455
I0_0 I0_6 3.932738 1_545
I0_0 I1_2 4.058025 1_545
I0_0 I1_4 4.058025 1_455
I0_0 I3_2 4.084912 1_545
I0_0 I3_4 4.084912 1_455
I0_0 I2_0 4.158517 1_555
I0_0 I4_4 4.160586 1_455
I0_0 I4_2 4.160586 1_545
I0_1 I0_7 3.932738 1_455
I0_1 I0_7 3.932738 1_545
I0_1 I1_5 4.058025 1_455
I0_1 I1_3 4.058025 1_545
I0_1 I3_3 4.084912 1_545
I0_1 I3_5 4.084912 1_455
I0_1 I2_1 4.158517 1_555
I0_1 I4_5 4.160586 1_455
I0_1 I4_3 4.160586 1_545
I0_2 I0_4 3.932738 1_465
I0_2 I0_4 3.932738 1_555
I0_2 I1_6 4.058025 1_455
I0_2 I1_0 4.058025 1_555
I0_2 I3_6 4.084912 1_455
I0_2 I3_0 4.084912 1_555
I0_2 I2_2 4.158517 1_555
I0_2 I4_0 4.160586 1_555
I0_2 I4_6 4.160586 1_455
I0_3 I0_5 3.932738 1_465
I0_3 I0_5 3.932738 1_555
I0_3 I1_7 4.058025 1_455
I0_3 I1_1 4.058025 1_555
I0_3 I3_7 4.084912 1_455
I0_3 I3_1 4.084912 1_555
I0_3 I2_3 4.158517 1_555
I0_3 I4_1 4.160586 1_555
I0_3 I4_7 4.160586 1_455
I0_4 I1_6 4.058025 1_545
I0_4 I1_0 4.058025 1_555
I0_4 I3_6 4.084912 1_545
I0_4 I3_0 4.084912 1_555
I0_4 I2_4 4.158517 1_555
I0_4 I4_0 4.160586 1_555
I0_4 I4_6 4.160586 1_545
I0_5 I1_7 4.058025 1_545
I0_5 I1_1 4.058025 1_555
I0_5 I3_7 4.084912 1_545
I0_5 I3_1 4.084912 1_555
I0_5 I2_5 4.158517 1_555
I0_5 I4_1 4.160586 1_555
I0_5 I4_7 4.160586 1_545
I0_6 I1_4 4.058025 1_555
I0_6 I1_2 4.058025 1_555
I0_6 I3_4 4.084912 1_555
I0_6 I3_2 4.084912 1_555
I0_6 I2_6 4.158517 1_555
I0_6 I4_2 4.160586 1_555
I0_6 I4_4 4.160586 1_555
I0_7 I1_3 4.058025 1_555
I0_7 I1_5 4.058025 1_555
I0_7 I3_3 4.084912 1_555
I0_7 I3_5 4.084912 1_555
I0_7 I2_7 4.158517 1_555
I0_7 I4_3 4.160586 1_555
I0_7 I4_5 4.160586 1_555
I1_0 I1_6 3.932738 1_545
I1_0 I1_6 3.932738 1_455
I1_0 I2_2 4.084912 1_555
I1_0 I2_4 4.084912 1_555
I1_0 I3_0 4.158517 1_555
I1_0 I4_2 4.160586 1_555
I1_0 I4_4 4.160586 1_555
I1_1 I1_7 3.932738 1_455
I1_1 I1_7 3.932738 1_545
I1_1 I2_3 4.084912 1_555
I1_1 I2_5 4.084912 1_555
I1_1 I3_1 4.158517 1_555
I1_1 I4_5 4.160586 1_555
I1_1 I4_3 4.160586 1_555
I1_2 I1_4 3.932738 1_465
I1_2 I1_4 3.932738 1_555
I1_2 I2_6 4.084912 1_555
I1_2 I2_0 4.084912 1_565
I1_2 I3_2 4.158517 1_555
I1_2 I4_6 4.160586 1_555
I1_2 I4_0 4.160586 1_565
I1_3 I1_5 3.932738 1_555
I1_3 I1_5 3.932738 1_465
I1_3 I2_1 4.084912 1_565
I1_3 I2_7 4.084912 1_555
I1_3 I3_3 4.158517 1_555
I1_3 I4_7 4.160586 1_555
I1_3 I4_1 4.160586 1_565
I1_4 I2_6 4.084912 1_555
I1_4 I2_0 4.084912 1_655
I1_4 I3_4 4.158517 1_555
I1_4 I4_6 4.160586 1_555
I1_4 I4_0 4.160586 1_655
I1_5 I2_1 4.084912 1_655
I1_5 I2_7 4.084912 1_555
I1_5 I3_5 4.158517 1_555
I1_5 I4_7 4.160586 1_555
I1_5 I4_1 4.160586 1_655
I1_6 I2_2 4.084912 1_655
I1_6 I2_4 4.084912 1_565
I1_6 I3_6 4.158517 1_555
I1_6 I4_4 4.160586 1_565
I1_6 I4_2 4.160586 1_655
I1_7 I2_5 4.084912 1_565
I1_7 I2_3 4.084912 1_655
I1_7 I3_7 4.158517 1_555
I1_7 I4_5 4.160586 1_565
I1_7 I4_3 4.160586 1_655
I2_0 I2_6 3.932738 1_455
I2_0 I2_6 3.932738 1_545
I2_0 I4_4 4.248731 1_455
I2_0 I4_2 4.248731 1_545
I2_1 I2_7 3.932738 1_545
I2_1 I2_7 3.932738 1_455
I2_1 I4_5 4.248731 1_455
I2_1 I4_3 4.248731 1_545
I2_2 I2_4 3.932738 1_465
I2_2 I2_4 3.932738 1_555
I2_2 I4_0 4.248731 1_555
I2_2 I4_6 4.248731 1_455
I2_3 I2_5 3.932738 1_555
I2_3 I2_5 3.932738 1_465
I2_3 I4_1 4.248731 1_555
I2_3 I4_7 4.248731 1_455
I2_4 I4_0 4.248731 1_555
I2_4 I4_6 4.248731 1_545
I2_5 I4_1 4.248731 1_555
I2_5 I4_7 4.248731 1_545
I2_6 I4_4 4.248731 1_555
I2_6 I4_2 4.248731 1_555
I2_7 I4_5 4.248731 1_555
I2_7 I4_3 4.248731 1_555
I3_0 I3_6 3.932738 1_455
I3_0 I3_6 3.932738 1_545
I3_0 I4_4 4.248731 1_555
I3_0 I4_2 4.248731 1_555
I3_1 I3_7 3.932738 1_455
I3_1 I3_7 3.932738 1_545
I3_1 I4_3 4.248731 1_555
I3_1 I4_5 4.248731 1_555
I3_2 I3_4 3.932738 1_465
I3_2 I3_4 3.932738 1_555
I3_2 I4_6 4.248731 1_555
I3_2 I4_0 4.248731 1_565
I3_3 I3_5 3.932738 1_555
I3_3 I3_5 3.932738 1_465
I3_3 I4_7 4.248731 1_555
I3_3 I4_1 4.248731 1_565
I3_4 I4_6 4.248731 1_555
I3_4 I4_0 4.248731 1_655
I3_5 I4_7 4.248731 1_555
I3_5 I4_1 4.248731 1_655
I3_6 I4_4 4.248731 1_565
I3_6 I4_2 4.248731 1_655
I3_7 I4_5 4.248731 1_565
I3_7 I4_3 4.248731 1_655
I4_0 I4_6 3.932738 1_545
I4_0 I4_6 3.932738 1_455
I4_1 I4_7 3.932738 1_455
I4_1 I4_7 3.932738 1_545
I4_2 I4_4 3.932738 1_555
I4_2 I4_4 3.932738 1_465
I4_3 I4_5 3.932738 1_555
I4_3 I4_5 3.932738 1_465
