# generated using pymatgen
data_RbNa7(CoO3)2
_symmetry_space_group_name_H-M   'P 1'
_cell_length_a   5.87513627
_cell_length_b   5.87513627
_cell_length_c   10.81433735
_cell_angle_alpha   88.75479323
_cell_angle_beta   88.75479323
_cell_angle_gamma   44.36022763
_symmetry_Int_Tables_number   1
_chemical_formula_structural   RbNa7(CoO3)2
_chemical_formula_sum   'Rb1 Na7 Co2 O6'
_cell_volume   260.91390983
_cell_formula_units_Z   1
loop_
 _symmetry_equiv_pos_site_id
 _symmetry_equiv_pos_as_xyz
  1  'x, y, z'
loop_
 _atom_site_type_symbol
 _atom_site_label
 _atom_site_symmetry_multiplicity
 _atom_site_fract_x
 _atom_site_fract_y
 _atom_site_fract_z
 _atom_site_occupancy
  Rb  Rb0  1  0.00000000  0.00000000  0.50000000  1
  Na  Na0  1  0.85570000  0.85570000  0.22056500  1
  Na  Na1  1  0.72673600  0.72673600  0.60505300  1
  Na  Na2  1  0.23242200  0.23242200  0.09355100  1
  Na  Na3  1  0.27326400  0.27326400  0.39494700  1
  Na  Na4  1  0.14430000  0.14430000  0.77943500  1
  Na  Na5  1  0.76757800  0.76757800  0.90644900  1
  Na  Na6  1  0.50000000  0.50000000  0.00000000  1
  Co  Co0  1  0.58407200  0.58407200  0.26010100  1
  Co  Co1  1  0.41592800  0.41592800  0.73989900  1
  O  O0  1  0.58270100  0.58270100  0.76974600  1
  O  O1  1  0.67708400  0.67708400  0.10554000  1
  O  O2  1  0.32291600  0.32291600  0.89446000  1
  O  O3  1  0.68568000  0.68568000  0.39390900  1
  O  O4  1  0.41729900  0.41729900  0.23025400  1
  O  O5  1  0.31432000  0.31432000  0.60609100  1
loop_
_geom_bond_atom_site_label_1
_geom_bond_atom_site_label_2
_geom_bond_distance
_geom_bond_site_symmetry_2
Na0 O4 2.320114 1_565
Na0 O4 2.320114 1_655
Na0 O1 2.331934 1_555
Na0 O3 2.602627 1_555
Na0 Rb0 3.437994 1_665
Na1 O3 2.336936 1_555
Na1 O0 2.344625 1_555
Na1 O5 2.414172 1_565
Na1 O5 2.414172 1_655
Na1 Rb0 3.157971 1_665
Na1 Rb0 3.525344 1_565
Na1 Rb0 3.525344 1_655
Na2 O1 2.301113 1_545
Na2 O1 2.301113 1_455
Na2 O2 2.346400 1_554
Na2 O4 2.524214 1_555
Na3 O5 2.336936 1_555
Na3 O4 2.344625 1_555
Na3 O3 2.414172 1_455
Na3 O3 2.414172 1_545
Na3 Rb0 3.157971 1_555
Na3 Rb0 3.525344 1_565
Na3 Rb0 3.525344 1_655
Na4 O0 2.320114 1_455
Na4 O0 2.320114 1_545
Na4 O2 2.331934 1_555
Na4 O5 2.602627 1_555
Na4 Rb0 3.437994 1_555
Na5 O2 2.301113 1_565
Na5 O2 2.301113 1_655
Na5 O1 2.346400 1_556
Na5 O0 2.524214 1_555
Na6 O1 2.262407 1_555
Na6 O2 2.262407 1_554
Na6 O4 2.627715 1_555
Na6 O0 2.627715 1_554
Co0 O3 1.841554 1_555
Co0 O4 1.850545 1_555
Co0 O1 1.933562 1_555
Co0 Rb0 3.517881 1_565
Co0 Rb0 3.517881 1_655
Co1 O5 1.841554 1_555
Co1 O0 1.850545 1_555
Co1 O2 1.933562 1_555
Co1 Rb0 3.517881 1_565
Co1 Rb0 3.517881 1_655
O3 Rb0 3.195109 1_565
O3 Rb0 3.195109 1_655
O5 Rb0 3.195109 1_565
O5 Rb0 3.195109 1_655
