# generated using pymatgen
data_K4V5CdClO15
_symmetry_space_group_name_H-M   'P 1'
_cell_length_a   9.25260500
_cell_length_b   9.25260500
_cell_length_c   5.51130700
_cell_angle_alpha   90.00000000
_cell_angle_beta   90.00000000
_cell_angle_gamma   90.00000000
_symmetry_Int_Tables_number   1
_chemical_formula_structural   K4V5CdClO15
_chemical_formula_sum   'K4 V5 Cd1 Cl1 O15'
_cell_volume   471.82684625
_cell_formula_units_Z   1
loop_
 _symmetry_equiv_pos_site_id
 _symmetry_equiv_pos_as_xyz
  1  'x, y, z'
loop_
 _atom_site_type_symbol
 _atom_site_label
 _atom_site_symmetry_multiplicity
 _atom_site_fract_x
 _atom_site_fract_y
 _atom_site_fract_z
 _atom_site_occupancy
  K  K0  1  0.32412000  0.16665200  0.42149900  1
  K  K1  1  0.16665200  0.67588000  0.42149900  1
  K  K2  1  0.67588000  0.83334800  0.42149900  1
  K  K3  1  0.83334800  0.32412000  0.42149900  1
  V  V0  1  0.85589100  0.61595500  0.89579400  1
  V  V1  1  0.38404500  0.85589100  0.89579400  1
  V  V2  1  0.50000000  0.50000000  0.86462600  1
  V  V3  1  0.61595500  0.14410900  0.89579400  1
  V  V4  1  0.14410900  0.38404500  0.89579400  1
  Cd  Cd0  1  0.00000000  0.00000000  0.84605800  1
  Cl  Cl0  1  0.00000000  0.00000000  0.32060400  1
  O  O0  1  0.69145200  0.54713500  0.77245100  1
  O  O1  1  0.14568900  0.38898400  0.19867700  1
  O  O2  1  0.85431100  0.61101600  0.19867700  1
  O  O3  1  0.78821900  0.12063100  0.79383300  1
  O  O4  1  0.30854800  0.45286500  0.77245100  1
  O  O5  1  0.50000000  0.00000000  0.77725200  1
  O  O6  1  0.61101600  0.14568900  0.19867700  1
  O  O7  1  0.21178100  0.87936900  0.79383300  1
  O  O8  1  0.12063100  0.21178100  0.79383300  1
  O  O9  1  0.87936900  0.78821900  0.79383300  1
  O  O10  1  0.54713500  0.30854800  0.77245100  1
  O  O11  1  0.50000000  0.50000000  0.15899500  1
  O  O12  1  0.45286500  0.69145200  0.77245100  1
  O  O13  1  0.38898400  0.85431100  0.19867700  1
  O  O14  1  0.00000000  0.50000000  0.77725200  1
loop_
_geom_bond_atom_site_label_1
_geom_bond_atom_site_label_2
_geom_bond_distance
_geom_bond_site_symmetry_2
K0 O8 2.816061 1_555
K0 O1 2.909569 1_555
K0 O6 2.931256 1_555
K0 O5 2.978275 1_555
K0 O10 3.118137 1_555
K0 O13 3.196903 1_545
K0 O4 3.282522 1_555
K0 O7 3.515237 1_545
K0 O11 3.775507 1_555
K1 O7 2.816061 1_555
K1 O13 2.909569 1_555
K1 O1 2.931256 1_555
K1 O14 2.978275 1_555
K1 O4 3.118137 1_555
K1 O2 3.196903 1_455
K1 O12 3.282522 1_555
K1 O9 3.515237 1_455
K1 O11 3.775507 1_555
K2 O9 2.816061 1_555
K2 O2 2.909569 1_555
K2 O13 2.931256 1_555
K2 O5 2.978275 1_565
K2 O12 3.118137 1_555
K2 O6 3.196903 1_565
K2 O0 3.282522 1_555
K2 O3 3.515237 1_565
K2 O11 3.775507 1_555
K3 O3 2.816061 1_555
K3 O6 2.909569 1_555
K3 O2 2.931256 1_555
K3 O14 2.978275 1_655
K3 O0 3.118137 1_555
K3 O1 3.196903 1_655
K3 O10 3.282522 1_555
K3 O8 3.515237 1_655
K3 O11 3.775507 1_555
Cd0 O8 2.273407 1_555
Cd0 O3 2.273407 1_455
Cd0 O7 2.273407 1_545
Cd0 O9 2.273407 1_445
Cd0 Cl0 2.615369 1_556
Cd0 Cl0 2.895938 1_555
Cl0 K2 3.417688 1_445
Cl0 K1 3.417688 1_545
Cl0 K3 3.417688 1_455
Cl0 K0 3.417688 1_555
O0 V0 1.783956 1_555
O0 V2 1.893735 1_555
O1 V4 1.669971 1_554
O2 V0 1.669971 1_554
O3 V3 1.703952 1_555
O4 V4 1.783956 1_555
O4 V2 1.893735 1_555
O5 V3 1.831891 1_555
O5 V1 1.831891 1_545
O6 V3 1.669971 1_554
O7 V1 1.703952 1_555
O8 V4 1.703952 1_555
O9 V0 1.703952 1_555
O10 V3 1.783956 1_555
O10 V2 1.893735 1_555
O11 V2 1.622358 1_554
O12 V1 1.783956 1_555
O12 V2 1.893735 1_555
O13 V1 1.669971 1_554
O14 V0 1.831891 1_455
O14 V4 1.831891 1_555
