# generated using pymatgen
data_Zr4CuP
_symmetry_space_group_name_H-M   'P 1'
_cell_length_a   6.49946300
_cell_length_b   6.49946300
_cell_length_c   5.42535400
_cell_angle_alpha   90.00000000
_cell_angle_beta   90.00000000
_cell_angle_gamma   90.00000000
_symmetry_Int_Tables_number   1
_chemical_formula_structural   Zr4CuP
_chemical_formula_sum   'Zr8 Cu2 P2'
_cell_volume   229.18333367
_cell_formula_units_Z   2
loop_
 _symmetry_equiv_pos_site_id
 _symmetry_equiv_pos_as_xyz
  1  'x, y, z'
loop_
 _atom_site_type_symbol
 _atom_site_label
 _atom_site_symmetry_multiplicity
 _atom_site_fract_x
 _atom_site_fract_y
 _atom_site_fract_z
 _atom_site_occupancy
  Zr  Zr0  1  0.16103800  0.65349700  0.50000000  1
  Zr  Zr1  1  0.65349700  0.83896200  0.50000000  1
  Zr  Zr2  1  0.34650300  0.16103800  0.50000000  1
  Zr  Zr3  1  0.83896200  0.65349700  0.00000000  1
  Zr  Zr4  1  0.83896200  0.34650300  0.50000000  1
  Zr  Zr5  1  0.34650300  0.83896200  0.00000000  1
  Zr  Zr6  1  0.65349700  0.16103800  0.00000000  1
  Zr  Zr7  1  0.16103800  0.34650300  0.00000000  1
  Cu  Cu0  1  0.00000000  0.00000000  0.25000000  1
  Cu  Cu1  1  0.00000000  0.00000000  0.75000000  1
  P  P0  1  0.50000000  0.50000000  0.75000000  1
  P  P1  1  0.50000000  0.50000000  0.25000000  1
loop_
_geom_bond_atom_site_label_1
_geom_bond_atom_site_label_2
_geom_bond_distance
_geom_bond_site_symmetry_2
Zr0 Zr4 2.891920 1_455
Zr0 Zr5 3.203858 1_556
Zr0 Zr5 3.203858 1_555
Zr0 Zr7 3.367465 1_555
Zr0 Zr7 3.367465 1_556
Zr0 Zr1 3.420182 1_555
Zr0 Zr2 3.420182 1_555
Zr0 Zr3 3.426457 1_456
Zr0 Zr3 3.426457 1_455
Zr1 Zr2 2.891920 1_565
Zr1 Zr3 3.203858 1_555
Zr1 Zr3 3.203858 1_556
Zr1 Zr5 3.367465 1_556
Zr1 Zr5 3.367465 1_555
Zr1 Zr4 3.420182 1_555
Zr1 Zr6 3.426457 1_566
Zr1 Zr6 3.426457 1_565
Zr2 Zr7 3.203858 1_555
Zr2 Zr7 3.203858 1_556
Zr2 Zr6 3.367465 1_556
Zr2 Zr6 3.367465 1_555
Zr2 Zr4 3.420182 1_555
Zr2 Zr5 3.426457 1_546
Zr2 Zr5 3.426457 1_545
Zr3 Zr7 2.891920 1_655
Zr3 Zr4 3.367465 1_555
Zr3 Zr4 3.367465 1_554
Zr3 Zr5 3.420182 1_555
Zr3 Zr6 3.420182 1_555
Zr4 Zr6 3.203858 1_556
Zr4 Zr6 3.203858 1_555
Zr4 Zr7 3.426457 1_656
Zr4 Zr7 3.426457 1_655
Zr5 Zr6 2.891920 1_565
Zr5 Zr7 3.420182 1_555
Zr6 Zr7 3.420182 1_555
Cu0 Cu1 2.712677 1_555
Cu0 Cu1 2.712677 1_554
Cu0 Zr1 2.829670 1_445
Cu0 Zr6 2.829670 1_455
Cu0 Zr2 2.829670 1_555
Cu0 Zr5 2.829670 1_545
Cu0 Zr4 2.829670 1_455
Cu0 Zr7 2.829670 1_555
Cu0 Zr3 2.829670 1_445
Cu0 Zr0 2.829670 1_545
Cu1 Zr1 2.829670 1_445
Cu1 Zr2 2.829670 1_555
Cu1 Zr5 2.829670 1_546
Cu1 Zr4 2.829670 1_455
Cu1 Zr7 2.829670 1_556
Cu1 Zr3 2.829670 1_446
Cu1 Zr0 2.829670 1_545
Cu1 Zr6 2.829670 1_456
P0 P1 2.712677 1_556
P0 P1 2.712677 1_555
P0 Zr4 2.772810 1_555
P0 Zr7 2.772810 1_556
P0 Zr5 2.772810 1_556
P0 Zr6 2.772810 1_556
P0 Zr0 2.772810 1_555
P0 Zr2 2.772810 1_555
P0 Zr3 2.772810 1_556
P0 Zr1 2.772810 1_555
P1 Zr4 2.772810 1_555
P1 Zr5 2.772810 1_555
P1 Zr3 2.772810 1_555
P1 Zr0 2.772810 1_555
P1 Zr2 2.772810 1_555
P1 Zr1 2.772810 1_555
P1 Zr6 2.772810 1_555
P1 Zr7 2.772810 1_555
