# generated using pymatgen
data_NaGa3Se5
_symmetry_space_group_name_H-M   'P 1'
_cell_length_a   9.98622600
_cell_length_b   13.92243200
_cell_length_c   27.56890700
_cell_angle_alpha   90.00000000
_cell_angle_beta   90.00000000
_cell_angle_gamma   90.00000000
_symmetry_Int_Tables_number   1
_chemical_formula_structural   NaGa3Se5
_chemical_formula_sum   'Na16 Ga48 Se80'
_cell_volume   3832.97550768
_cell_formula_units_Z   16
loop_
 _symmetry_equiv_pos_site_id
 _symmetry_equiv_pos_as_xyz
  1  'x, y, z'
loop_
 _atom_site_type_symbol
 _atom_site_label
 _atom_site_symmetry_multiplicity
 _atom_site_fract_x
 _atom_site_fract_y
 _atom_site_fract_z
 _atom_site_occupancy
  Na  Na0  1  0.24584800  0.50209500  0.05969300  1
  Na  Na1  1  0.49481800  0.13334000  0.12818000  1
  Na  Na2  1  0.24984100  0.00928800  0.81038500  1
  Na  Na3  1  0.74584800  0.99790500  0.94030700  1
  Na  Na4  1  0.98927000  0.38120600  0.37840600  1
  Na  Na5  1  0.75015900  0.50928800  0.68961500  1
  Na  Na6  1  0.75415200  0.00209500  0.44030700  1
  Na  Na7  1  0.00518200  0.86666000  0.62818000  1
  Na  Na8  1  0.74984100  0.49071200  0.18961500  1
  Na  Na9  1  0.51073000  0.61879400  0.87840600  1
  Na  Na10  1  0.99481800  0.36666000  0.87182000  1
  Na  Na11  1  0.25015900  0.99071200  0.31038500  1
  Na  Na12  1  0.25415200  0.49790500  0.55969300  1
  Na  Na13  1  0.01073000  0.88120600  0.12159400  1
  Na  Na14  1  0.48927000  0.11879400  0.62159400  1
  Na  Na15  1  0.50518200  0.63334000  0.37182000  1
  Ga  Ga0  1  0.16832600  0.31943000  0.15171000  1
  Ga  Ga1  1  0.68573400  0.35297500  0.94488700  1
  Ga  Ga2  1  0.36481900  0.22129800  0.50730900  1
  Ga  Ga3  1  0.84837400  0.97133800  0.23275700  1
  Ga  Ga4  1  0.43544800  0.14457300  0.94788800  1
  Ga  Ga5  1  0.86481900  0.27870200  0.49269100  1
  Ga  Ga6  1  0.61201500  0.52791900  0.04513600  1
  Ga  Ga7  1  0.06455200  0.85542700  0.44788800  1
  Ga  Ga8  1  0.85334400  0.25730400  0.72463500  1
  Ga  Ga9  1  0.86537100  0.16088800  0.14531100  1
  Ga  Ga10  1  0.41503500  0.94925300  0.03412700  1
  Ga  Ga11  1  0.08496500  0.05074700  0.53412700  1
  Ga  Ga12  1  0.31426600  0.85297500  0.55511300  1
  Ga  Ga13  1  0.63518100  0.72129800  0.99269100  1
  Ga  Ga14  1  0.91503500  0.55074700  0.96587300  1
  Ga  Ga15  1  0.14665600  0.75730400  0.77536500  1
  Ga  Ga16  1  0.81426600  0.64702500  0.44488700  1
  Ga  Ga17  1  0.65162600  0.02866200  0.73275700  1
  Ga  Ga18  1  0.00608000  0.23303700  0.26665800  1
  Ga  Ga19  1  0.15162600  0.47133800  0.26724300  1
  Ga  Ga20  1  0.18573400  0.14702500  0.05511300  1
  Ga  Ga21  1  0.63462900  0.83911200  0.64531100  1
  Ga  Ga22  1  0.92198800  0.78476200  0.89044300  1
  Ga  Ga23  1  0.49392000  0.76696300  0.76665800  1
  Ga  Ga24  1  0.11201500  0.97208100  0.95486400  1
  Ga  Ga25  1  0.58496500  0.44925300  0.46587300  1
  Ga  Ga26  1  0.07801200  0.28476200  0.60955700  1
  Ga  Ga27  1  0.64250500  0.19235900  0.24705200  1
  Ga  Ga28  1  0.85749500  0.80764100  0.74705200  1
  Ga  Ga29  1  0.99392000  0.73303700  0.23334200  1
  Ga  Ga30  1  0.64665600  0.74269600  0.22463500  1
  Ga  Ga31  1  0.56455200  0.64457300  0.55211200  1
  Ga  Ga32  1  0.42198800  0.71523800  0.10955700  1
  Ga  Ga33  1  0.33167400  0.68057000  0.65171000  1
  Ga  Ga34  1  0.36537100  0.33911200  0.85468900  1
  Ga  Ga35  1  0.35334400  0.24269600  0.27536500  1
  Ga  Ga36  1  0.88798500  0.47208100  0.54513600  1
  Ga  Ga37  1  0.66832600  0.18057000  0.84829000  1
  Ga  Ga38  1  0.57801200  0.21523800  0.39044300  1
  Ga  Ga39  1  0.13462900  0.66088800  0.35468900  1
  Ga  Ga40  1  0.13518100  0.77870200  0.00730900  1
  Ga  Ga41  1  0.14250500  0.30764100  0.75294800  1
  Ga  Ga42  1  0.50608000  0.26696300  0.73334200  1
  Ga  Ga43  1  0.83167400  0.81943000  0.34829000  1
  Ga  Ga44  1  0.38798500  0.02791900  0.45486400  1
  Ga  Ga45  1  0.93544800  0.35542700  0.05211200  1
  Ga  Ga46  1  0.35749500  0.69235900  0.25294800  1
  Ga  Ga47  1  0.34837400  0.52866200  0.76724300  1
  Se  Se0  1  0.23143700  0.50180700  0.34863400  1
  Se  Se1  1  0.81604700  0.11979200  0.78185800  1
  Se  Se2  1  0.93049400  0.39853800  0.27016800  1
  Se  Se3  1  0.43615600  0.58201200  0.48462400  1
  Se  Se4  1  0.73738700  0.50330600  0.40311400  1
  Se  Se5  1  0.96366100  0.90343500  0.01530600  1
  Se  Se6  1  0.31279600  0.85997300  0.46424600  1
  Se  Se7  1  0.31598400  0.29278300  0.58518900  1
  Se  Se8  1  0.73143700  0.99819300  0.65136600  1
  Se  Se9  1  0.69649100  0.27473800  0.17132100  1
  Se  Se10  1  0.68504200  0.36842800  0.53677300  1
  Se  Se11  1  0.42544800  0.32507700  0.43551100  1
  Se  Se12  1  0.43710200  0.32322200  0.94118300  1
  Se  Se13  1  0.18395300  0.61979200  0.71814200  1
  Se  Se14  1  0.76261300  0.49669400  0.90311400  1
  Se  Se15  1  0.26856300  0.49819300  0.84863400  1
  Se  Se16  1  0.56471300  0.30771000  0.31163100  1
  Se  Se17  1  0.50348900  0.06304300  0.87409800  1
  Se  Se18  1  0.46366100  0.59656500  0.98469400  1
  Se  Se19  1  0.03633900  0.40343500  0.48469400  1
  Se  Se20  1  0.57455200  0.82507700  0.06448900  1
  Se  Se21  1  0.08271500  0.16876000  0.18784500  1
  Se  Se22  1  0.43528700  0.80771000  0.18836900  1
  Se  Se23  1  0.67195700  0.29520500  0.67117600  1
  Se  Se24  1  0.06144300  0.89856700  0.73427300  1
  Se  Se25  1  0.06384400  0.41798800  0.98462400  1
  Se  Se26  1  0.93528700  0.69229000  0.81163100  1
  Se  Se27  1  0.30350900  0.77473800  0.32867900  1
  Se  Se28  1  0.49726700  0.05062600  0.37784500  1
  Se  Se29  1  0.56950600  0.60146200  0.77016800  1
  Se  Se30  1  0.19649100  0.22526200  0.82867900  1
  Se  Se31  1  0.56289800  0.82322200  0.55881700  1
  Se  Se32  1  0.68555600  0.78356200  0.41606000  1
  Se  Se33  1  0.32804300  0.79520500  0.82882400  1
  Se  Se34  1  0.31604700  0.38020800  0.21814200  1
  Se  Se35  1  0.93710200  0.17677800  0.05881700  1
  Se  Se36  1  0.68395300  0.88020800  0.28185800  1
  Se  Se37  1  0.81598400  0.20721700  0.41481100  1
  Se  Se38  1  0.76856300  0.00180700  0.15136600  1
  Se  Se39  1  0.41728500  0.83124000  0.68784500  1
  Se  Se40  1  0.33084500  0.38612100  0.71191100  1
  Se  Se41  1  0.26261300  0.00330600  0.09688600  1
  Se  Se42  1  0.43049400  0.10146200  0.72983200  1
  Se  Se43  1  0.81279600  0.64002700  0.53575400  1
  Se  Se44  1  0.49651100  0.56304300  0.62590200  1
  Se  Se45  1  0.68401600  0.79278300  0.91481100  1
  Se  Se46  1  0.23738700  0.99669400  0.59688600  1
  Se  Se47  1  0.43855700  0.10143300  0.23427300  1
  Se  Se48  1  0.16915500  0.61387900  0.21191100  1
  Se  Se49  1  0.56384400  0.08201200  0.01537600  1
  Se  Se50  1  0.93615600  0.91798800  0.51537600  1
  Se  Se51  1  0.50273300  0.55062600  0.12215500  1
  Se  Se52  1  0.81444400  0.21643800  0.91606000  1
  Se  Se53  1  0.18720400  0.14002700  0.96424600  1
  Se  Se54  1  0.83084500  0.11387900  0.28808900  1
  Se  Se55  1  0.58271500  0.33124000  0.81215500  1
  Se  Se56  1  0.68720400  0.35997300  0.03575400  1
  Se  Se57  1  0.93855700  0.39856700  0.76572700  1
  Se  Se58  1  0.99726700  0.44937400  0.62215500  1
  Se  Se59  1  0.82804300  0.70479500  0.17117600  1
  Se  Se60  1  0.99651100  0.93695700  0.37409800  1
  Se  Se61  1  0.80350900  0.72526200  0.67132100  1
  Se  Se62  1  0.31495800  0.86842800  0.96322700  1
  Se  Se63  1  0.00273300  0.94937400  0.87784500  1
  Se  Se64  1  0.06471300  0.19229000  0.68836900  1
  Se  Se65  1  0.92544800  0.17492300  0.56448900  1
  Se  Se66  1  0.06950600  0.89853800  0.22983200  1
  Se  Se67  1  0.31444400  0.28356200  0.08394000  1
  Se  Se68  1  0.07455200  0.67492300  0.93551100  1
  Se  Se69  1  0.56144300  0.60143300  0.26572700  1
  Se  Se70  1  0.18555600  0.71643800  0.58394000  1
  Se  Se71  1  0.81495800  0.63157200  0.03677300  1
  Se  Se72  1  0.18504200  0.13157200  0.46322700  1
  Se  Se73  1  0.06289800  0.67677800  0.44118300  1
  Se  Se74  1  0.53633900  0.09656500  0.51530600  1
  Se  Se75  1  0.66915500  0.88612100  0.78808900  1
  Se  Se76  1  0.91728500  0.66876000  0.31215500  1
  Se  Se77  1  0.18401600  0.70721700  0.08518900  1
  Se  Se78  1  0.17195700  0.20479500  0.32882400  1
  Se  Se79  1  0.00348900  0.43695700  0.12590200  1
loop_
_geom_bond_atom_site_label_1
_geom_bond_atom_site_label_2
_geom_bond_distance
_geom_bond_site_symmetry_2
Na0 Se25 2.992946 1_554
Na0 Se77 3.005147 1_555
Na0 Se51 3.162700 1_555
Na0 Se79 3.164144 1_555
Na0 Se67 3.189508 1_555
Na0 Se18 3.276616 1_554
Na1 Se47 3.011286 1_555
Na1 Se67 3.017656 1_555
Na1 Se9 3.057116 1_555
Na1 Se41 3.065763 1_555
Na1 Se49 3.264535 1_555
Na1 Se38 3.351881 1_555
Na2 Se30 3.095085 1_555
Na2 Se33 3.122819 1_545
Na2 Se42 3.135786 1_555
Na2 Se17 3.171972 1_555
Na2 Se63 3.200638 1_545
Na2 Se24 3.212291 1_545
Na3 Se49 2.992946 1_566
Na3 Se45 3.005147 1_555
Na3 Se63 3.162700 1_655
Na3 Se17 3.164144 1_565
Na3 Se52 3.189508 1_565
Na3 Se5 3.276616 1_556
Na4 Se19 2.983798 1_655
Na4 Se2 3.050740 1_555
Na4 Se0 3.056348 1_655
Na4 Se4 3.111397 1_555
Na4 Se37 3.141596 1_555
Na4 Se78 3.350973 1_655
Na5 Se61 3.095085 1_555
Na5 Se23 3.122819 1_555
Na5 Se29 3.135786 1_555
Na5 Se44 3.171972 1_555
Na5 Se58 3.200638 1_555
Na5 Se57 3.212291 1_555
Na6 Se50 2.992946 1_545
Na6 Se37 3.005147 1_555
Na6 Se28 3.162700 1_555
Na6 Se60 3.164144 1_545
Na6 Se32 3.189508 1_545
Na6 Se74 3.276616 1_555
Na7 Se24 3.011286 1_555
Na7 Se70 3.017656 1_555
Na7 Se61 3.057116 1_455
Na7 Se46 3.065763 1_555
Na7 Se50 3.264535 1_455
Na7 Se8 3.351881 1_455
Na8 Se9 3.095085 1_555
Na8 Se59 3.122819 1_555
Na8 Se2 3.135786 1_555
Na8 Se79 3.171972 1_655
Na8 Se51 3.200638 1_555
Na8 Se69 3.212291 1_555
Na9 Se18 2.983798 1_555
Na9 Se29 3.050740 1_555
Na9 Se15 3.056348 1_555
Na9 Se14 3.111397 1_555
Na9 Se45 3.141596 1_555
Na9 Se33 3.350973 1_555
Na10 Se57 3.011286 1_555
Na10 Se52 3.017656 1_555
Na10 Se30 3.057116 1_655
Na10 Se14 3.065763 1_555
Na10 Se25 3.264535 1_655
Na10 Se15 3.351881 1_655
Na11 Se27 3.095085 1_555
Na11 Se78 3.122819 1_565
Na11 Se66 3.135786 1_555
Na11 Se60 3.171972 1_455
Na11 Se28 3.200638 1_565
Na11 Se47 3.212291 1_565
Na12 Se3 2.992946 1_555
Na12 Se7 3.005147 1_555
Na12 Se58 3.162700 1_455
Na12 Se44 3.164144 1_555
Na12 Se70 3.189508 1_555
Na12 Se19 3.276616 1_555
Na13 Se5 2.983798 1_455
Na13 Se66 3.050740 1_555
Na13 Se38 3.056348 1_465
Na13 Se41 3.111397 1_565
Na13 Se77 3.141596 1_555
Na13 Se59 3.350973 1_455
Na14 Se74 2.983798 1_555
Na14 Se42 3.050740 1_555
Na14 Se8 3.056348 1_545
Na14 Se46 3.111397 1_545
Na14 Se7 3.141596 1_555
Na14 Se23 3.350973 1_555
Na15 Se69 3.011286 1_555
Na15 Se32 3.017656 1_555
Na15 Se27 3.057116 1_555
Na15 Se4 3.065763 1_555
Na15 Se3 3.264535 1_555
Na15 Se0 3.351881 1_555
Ga0 Se67 2.422654 1_555
Ga0 Se79 2.427597 1_555
Ga0 Se21 2.474599 1_555
Ga0 Se34 2.499279 1_555
Ga1 Se52 2.428412 1_555
Ga1 Se14 2.432971 1_555
Ga1 Se56 2.507041 1_556
Ga1 Se12 2.519283 1_555
Ga2 Se7 2.416244 1_555
Ga2 Se74 2.449112 1_555
Ga2 Se72 2.502104 1_555
Ga2 Se11 2.524318 1_555
Ga3 Se38 2.418695 1_565
Ga3 Se66 2.431104 1_655
Ga3 Se36 2.477521 1_555
Ga3 Se54 2.509169 1_565
Ga4 Se49 2.421648 1_556
Ga4 Se17 2.426632 1_555
Ga4 Se12 2.494143 1_555
Ga4 Se53 2.520501 1_555
Ga5 Se37 2.416244 1_555
Ga5 Se19 2.449112 1_655
Ga5 Se10 2.502104 1_555
Ga5 Se65 2.524318 1_555
Ga6 Se51 2.408202 1_555
Ga6 Se18 2.425872 1_554
Ga6 Se56 2.469401 1_555
Ga6 Se71 2.498589 1_555
Ga7 Se50 2.421648 1_455
Ga7 Se60 2.426632 1_455
Ga7 Se73 2.494143 1_555
Ga7 Se6 2.520501 1_555
Ga8 Se23 2.394078 1_555
Ga8 Se57 2.423945 1_555
Ga8 Se64 2.504859 1_655
Ga8 Se1 2.508542 1_555
Ga9 Se38 2.422350 1_555
Ga9 Se9 2.422978 1_555
Ga9 Se21 2.469388 1_655
Ga9 Se35 2.499623 1_555
Ga10 Se41 2.424204 1_565
Ga10 Se49 2.427316 1_565
Ga10 Se62 2.466909 1_554
Ga10 Se20 2.495410 1_555
Ga11 Se46 2.424204 1_545
Ga11 Se50 2.427316 1_445
Ga11 Se72 2.466909 1_555
Ga11 Se65 2.495410 1_455
Ga12 Se70 2.428412 1_555
Ga12 Se46 2.432971 1_555
Ga12 Se6 2.507041 1_555
Ga12 Se31 2.519283 1_555
Ga13 Se45 2.416244 1_555
Ga13 Se18 2.449112 1_555
Ga13 Se71 2.502104 1_556
Ga13 Se20 2.524318 1_556
Ga14 Se14 2.424204 1_555
Ga14 Se25 2.427316 1_655
Ga14 Se71 2.466909 1_556
Ga14 Se68 2.495410 1_655
Ga15 Se33 2.394078 1_555
Ga15 Se24 2.423945 1_555
Ga15 Se26 2.504859 1_455
Ga15 Se13 2.508542 1_555
Ga16 Se32 2.428412 1_555
Ga16 Se4 2.432971 1_555
Ga16 Se43 2.507041 1_555
Ga16 Se73 2.519283 1_655
Ga17 Se8 2.418695 1_545
Ga17 Se42 2.431104 1_555
Ga17 Se1 2.477521 1_555
Ga17 Se75 2.509169 1_545
Ga18 Se78 2.415745 1_555
Ga18 Se2 2.426591 1_455
Ga18 Se21 2.471339 1_555
Ga18 Se54 2.482647 1_455
Ga19 Se0 2.418695 1_555
Ga19 Se2 2.431104 1_455
Ga19 Se34 2.477521 1_555
Ga19 Se48 2.509169 1_555
Ga20 Se67 2.428412 1_555
Ga20 Se41 2.432971 1_555
Ga20 Se53 2.507041 1_554
Ga20 Se35 2.519283 1_455
Ga21 Se8 2.422350 1_555
Ga21 Se61 2.422978 1_555
Ga21 Se39 2.469388 1_555
Ga21 Se31 2.499623 1_555
Ga22 Se63 2.454211 1_655
Ga22 Se45 2.472097 1_555
Ga22 Se68 2.490672 1_655
Ga22 Se26 2.529035 1_555
Ga23 Se33 2.415745 1_555
Ga23 Se29 2.426591 1_555
Ga23 Se39 2.471339 1_555
Ga23 Se75 2.482647 1_555
Ga24 Se63 2.408202 1_555
Ga24 Se5 2.425872 1_456
Ga24 Se53 2.469401 1_565
Ga24 Se62 2.498589 1_555
Ga25 Se4 2.424204 1_555
Ga25 Se3 2.427316 1_555
Ga25 Se10 2.466909 1_555
Ga25 Se11 2.495410 1_555
Ga26 Se58 2.454211 1_455
Ga26 Se7 2.472097 1_555
Ga26 Se65 2.490672 1_455
Ga26 Se64 2.529035 1_555
Ga27 Se47 2.423773 1_555
Ga27 Se9 2.442347 1_555
Ga27 Se54 2.451779 1_555
Ga27 Se16 2.520386 1_555
Ga28 Se24 2.423773 1_655
Ga28 Se61 2.442347 1_555
Ga28 Se75 2.451779 1_555
Ga28 Se26 2.520386 1_555
Ga29 Se59 2.415745 1_555
Ga29 Se66 2.426591 1_655
Ga29 Se76 2.471339 1_555
Ga29 Se48 2.482647 1_655
Ga30 Se59 2.394078 1_555
Ga30 Se69 2.423945 1_555
Ga30 Se22 2.504859 1_555
Ga30 Se36 2.508542 1_555
Ga31 Se3 2.421648 1_555
Ga31 Se44 2.426632 1_555
Ga31 Se31 2.494143 1_555
Ga31 Se43 2.520501 1_555
Ga32 Se51 2.454211 1_555
Ga32 Se77 2.472097 1_555
Ga32 Se20 2.490672 1_555
Ga32 Se22 2.529035 1_555
Ga33 Se70 2.422654 1_555
Ga33 Se44 2.427597 1_555
Ga33 Se39 2.474599 1_555
Ga33 Se13 2.499279 1_555
Ga34 Se15 2.422350 1_555
Ga34 Se30 2.422978 1_555
Ga34 Se55 2.469388 1_555
Ga34 Se12 2.499623 1_555
Ga35 Se78 2.394078 1_555
Ga35 Se47 2.423945 1_555
Ga35 Se16 2.504859 1_555
Ga35 Se34 2.508542 1_555
Ga36 Se58 2.408202 1_555
Ga36 Se19 2.425872 1_655
Ga36 Se43 2.469401 1_555
Ga36 Se10 2.498589 1_555
Ga37 Se52 2.422654 1_555
Ga37 Se17 2.427597 1_555
Ga37 Se55 2.474599 1_555
Ga37 Se1 2.499279 1_555
Ga38 Se28 2.454211 1_555
Ga38 Se37 2.472097 1_555
Ga38 Se11 2.490672 1_555
Ga38 Se16 2.529035 1_555
Ga39 Se0 2.422350 1_555
Ga39 Se27 2.422978 1_555
Ga39 Se76 2.469388 1_455
Ga39 Se73 2.499623 1_555
Ga40 Se77 2.416244 1_555
Ga40 Se5 2.449112 1_455
Ga40 Se62 2.502104 1_554
Ga40 Se68 2.524318 1_554
Ga41 Se57 2.423773 1_455
Ga41 Se30 2.442347 1_555
Ga41 Se40 2.451779 1_555
Ga41 Se64 2.520386 1_555
Ga42 Se23 2.415745 1_555
Ga42 Se42 2.426591 1_555
Ga42 Se55 2.471339 1_555
Ga42 Se40 2.482647 1_555
Ga43 Se32 2.422654 1_555
Ga43 Se60 2.427597 1_555
Ga43 Se76 2.474599 1_555
Ga43 Se36 2.499279 1_555
Ga44 Se28 2.408202 1_555
Ga44 Se74 2.425872 1_555
Ga44 Se6 2.469401 1_545
Ga44 Se72 2.498589 1_555
Ga45 Se25 2.421648 1_654
Ga45 Se79 2.426632 1_655
Ga45 Se35 2.494143 1_555
Ga45 Se56 2.520501 1_555
Ga46 Se69 2.423773 1_555
Ga46 Se27 2.442347 1_555
Ga46 Se48 2.451779 1_555
Ga46 Se22 2.520386 1_555
Ga47 Se15 2.418695 1_555
Ga47 Se29 2.431104 1_555
Ga47 Se13 2.477521 1_555
Ga47 Se40 2.509169 1_555
