# generated using pymatgen
data_Er2B2Cl2O5
_symmetry_space_group_name_H-M   'P 1'
_cell_length_a   5.28753500
_cell_length_b   10.08812500
_cell_length_c   14.90061800
_cell_angle_alpha   90.00000000
_cell_angle_beta   90.00000000
_cell_angle_gamma   90.00000000
_symmetry_Int_Tables_number   1
_chemical_formula_structural   Er2B2Cl2O5
_chemical_formula_sum   'Er8 B8 Cl8 O20'
_cell_volume   794.81854386
_cell_formula_units_Z   4
loop_
 _symmetry_equiv_pos_site_id
 _symmetry_equiv_pos_as_xyz
  1  'x, y, z'
loop_
 _atom_site_type_symbol
 _atom_site_label
 _atom_site_symmetry_multiplicity
 _atom_site_fract_x
 _atom_site_fract_y
 _atom_site_fract_z
 _atom_site_occupancy
  Er  Er0  1  0.50000000  0.53088400  0.12089800  1
  Er  Er1  1  0.50000000  0.96911600  0.62089800  1
  Er  Er2  1  0.50000000  0.43079600  0.39081700  1
  Er  Er3  1  0.50000000  0.06920400  0.89081700  1
  Er  Er4  1  0.50000000  0.46911600  0.87910200  1
  Er  Er5  1  0.50000000  0.93079600  0.10918300  1
  Er  Er6  1  0.50000000  0.03088400  0.37910200  1
  Er  Er7  1  0.50000000  0.56920400  0.60918300  1
  B  B0  1  0.50000000  0.30212800  0.73273300  1
  B  B1  1  0.50000000  0.25541000  0.06531500  1
  B  B2  1  0.50000000  0.74459000  0.93468500  1
  B  B3  1  0.50000000  0.19787200  0.23273300  1
  B  B4  1  0.50000000  0.75541000  0.43468500  1
  B  B5  1  0.50000000  0.24459000  0.56531500  1
  B  B6  1  0.50000000  0.69787200  0.26726700  1
  B  B7  1  0.50000000  0.80212800  0.76726700  1
  Cl  Cl0  1  0.00000000  0.41283300  0.38966100  1
  Cl  Cl1  1  0.00000000  0.00736000  0.36892700  1
  Cl  Cl2  1  0.00000000  0.91283300  0.11033900  1
  Cl  Cl3  1  0.00000000  0.50736000  0.13107300  1
  Cl  Cl4  1  0.00000000  0.49264000  0.86892700  1
  Cl  Cl5  1  0.00000000  0.58716700  0.61033900  1
  Cl  Cl6  1  0.00000000  0.08716700  0.88966100  1
  Cl  Cl7  1  0.00000000  0.99264000  0.63107300  1
  O  O0  1  0.50000000  0.86660100  0.48753000  1
  O  O1  1  0.50000000  0.24367000  0.31904200  1
  O  O2  1  0.50000000  0.78725700  0.34062300  1
  O  O3  1  0.50000000  0.56267200  0.27565900  1
  O  O4  1  0.50000000  0.93732800  0.77565900  1
  O  O5  1  0.50000000  0.06267200  0.22434100  1
  O  O6  1  0.50000000  0.71274300  0.84062300  1
  O  O7  1  0.50000000  0.13339900  0.51247000  1
  O  O8  1  0.50000000  0.74367000  0.18095800  1
  O  O9  1  0.50000000  0.21274300  0.65937700  1
  O  O10  1  0.50000000  0.25633000  0.81904200  1
  O  O11  1  0.50000000  0.62836900  0.46406300  1
  O  O12  1  0.50000000  0.75633000  0.68095800  1
  O  O13  1  0.50000000  0.37163100  0.53593700  1
  O  O14  1  0.50000000  0.28725700  0.15937700  1
  O  O15  1  0.50000000  0.12836900  0.03593700  1
  O  O16  1  0.50000000  0.63339900  0.98753000  1
  O  O17  1  0.50000000  0.36660100  0.01247000  1
  O  O18  1  0.50000000  0.87163100  0.96406300  1
  O  O19  1  0.50000000  0.43732800  0.72434100  1
loop_
_geom_bond_atom_site_label_1
_geom_bond_atom_site_label_2
_geom_bond_distance
_geom_bond_site_symmetry_2
Er0 O16 2.240259 1_554
Er0 O17 2.314514 1_555
Er0 O8 2.325692 1_555
Er0 O3 2.328225 1_555
Er0 O14 2.523733 1_555
Er1 O0 2.240259 1_555
Er1 O7 2.314514 1_565
Er1 O12 2.325692 1_555
Er1 O4 2.328225 1_555
Er1 O9 2.523733 1_565
Er2 O1 2.169658 1_555
Er2 O3 2.171247 1_555
Er2 O13 2.243240 1_555
Er2 O11 2.272397 1_555
Er3 O10 2.169658 1_555
Er3 O4 2.171247 1_545
Er3 O15 2.243240 1_556
Er3 O18 2.272397 1_545
Er4 O17 2.240259 1_556
Er4 O16 2.314514 1_555
Er4 O10 2.325692 1_555
Er4 O19 2.328225 1_555
Er4 O6 2.523733 1_555
Er5 O8 2.169658 1_555
Er5 O5 2.171247 1_565
Er5 O18 2.243240 1_554
Er5 O15 2.272397 1_565
Er6 O7 2.240259 1_555
Er6 O0 2.314514 1_545
Er6 O1 2.325692 1_555
Er6 O5 2.328225 1_555
Er6 O2 2.523733 1_545
Er7 O12 2.169658 1_555
Er7 O19 2.171247 1_555
Er7 O11 2.243240 1_555
Er7 O13 2.272397 1_555
B0 O10 1.366529 1_555
B0 O19 1.369635 1_555
B0 O9 1.416993 1_555
B1 O15 1.354304 1_555
B1 O17 1.370498 1_555
B1 O14 1.437933 1_555
B2 O18 1.354304 1_555
B2 O16 1.370498 1_555
B2 O6 1.437933 1_555
B3 O1 1.366529 1_555
B3 O5 1.369635 1_555
B3 O14 1.416993 1_555
B4 O11 1.354304 1_555
B4 O0 1.370498 1_555
B4 O2 1.437933 1_555
B5 O13 1.354304 1_555
B5 O7 1.370498 1_555
B5 O9 1.437933 1_555
B6 O8 1.366529 1_555
B6 O3 1.369635 1_555
B6 O2 1.416993 1_555
B7 O12 1.366529 1_555
B7 O4 1.369635 1_555
B7 O6 1.416993 1_555
Cl0 Er2 2.650027 1_455
Cl0 Er2 2.650027 1_555
Cl0 O1 3.317988 1_455
Cl0 O1 3.317988 1_555
Cl0 O13 3.451513 1_455
Cl0 O13 3.451513 1_555
Cl0 O3 3.487120 1_455
Cl0 O3 3.487120 1_555
Cl0 O11 3.598110 1_555
Cl0 O11 3.598110 1_455
Cl0 Cl5 3.729015 1_555
Cl1 Er6 2.658724 1_555
Cl1 Er6 2.658724 1_455
Cl1 O5 3.455777 1_555
Cl1 O5 3.455777 1_455
Cl1 O2 3.478171 1_445
Cl1 O2 3.478171 1_545
Cl1 O0 3.482685 1_445
Cl1 O0 3.482685 1_545
Cl2 Er5 2.650027 1_455
Cl2 Er5 2.650027 1_555
Cl2 O8 3.317988 1_455
Cl2 O8 3.317988 1_555
Cl2 O18 3.451513 1_554
Cl2 O18 3.451513 1_454
Cl2 O5 3.487120 1_565
Cl2 O5 3.487120 1_465
Cl2 O15 3.598110 1_565
Cl2 O15 3.598110 1_465
Cl2 Cl6 3.729015 1_564
Cl3 Er0 2.658724 1_555
Cl3 Er0 2.658724 1_455
Cl3 O3 3.455777 1_555
Cl3 O3 3.455777 1_455
Cl3 O14 3.478171 1_555
Cl3 O14 3.478171 1_455
Cl3 O17 3.482685 1_455
Cl3 O17 3.482685 1_555
Cl4 Er4 2.658724 1_555
Cl4 Er4 2.658724 1_455
Cl4 O19 3.455777 1_455
Cl4 O19 3.455777 1_555
Cl4 O6 3.478171 1_555
Cl4 O6 3.478171 1_455
Cl4 O16 3.482685 1_455
Cl4 O16 3.482685 1_555
Cl5 Er7 2.650027 1_555
Cl5 Er7 2.650027 1_455
Cl5 O12 3.317988 1_455
Cl5 O12 3.317988 1_555
Cl5 O11 3.451513 1_455
Cl5 O11 3.451513 1_555
Cl5 O19 3.487120 1_455
Cl5 O19 3.487120 1_555
Cl5 O13 3.598110 1_555
Cl5 O13 3.598110 1_455
Cl6 Er3 2.650027 1_455
Cl6 Er3 2.650027 1_555
Cl6 O10 3.317988 1_455
Cl6 O10 3.317988 1_555
Cl6 O15 3.451513 1_556
Cl6 O15 3.451513 1_456
Cl6 O4 3.487120 1_445
Cl6 O4 3.487120 1_545
Cl6 O18 3.598110 1_445
Cl6 O18 3.598110 1_545
Cl7 Er1 2.658724 1_455
Cl7 Er1 2.658724 1_555
Cl7 O4 3.455777 1_555
Cl7 O4 3.455777 1_455
Cl7 O9 3.478171 1_565
Cl7 O9 3.478171 1_465
Cl7 O7 3.482685 1_565
Cl7 O7 3.482685 1_465
