# generated using pymatgen
data_DyTaO4
_symmetry_space_group_name_H-M   'P 1'
_cell_length_a   5.05987378
_cell_length_b   5.32783810
_cell_length_c   6.49456186
_cell_angle_alpha   111.90033787
_cell_angle_beta   110.51426667
_cell_angle_gamma   95.48104446
_symmetry_Int_Tables_number   1
_chemical_formula_structural   DyTaO4
_chemical_formula_sum   'Dy2 Ta2 O8'
_cell_volume   146.89898356
_cell_formula_units_Z   2
loop_
 _symmetry_equiv_pos_site_id
 _symmetry_equiv_pos_as_xyz
  1  'x, y, z'
loop_
 _atom_site_type_symbol
 _atom_site_label
 _atom_site_symmetry_multiplicity
 _atom_site_fract_x
 _atom_site_fract_y
 _atom_site_fract_z
 _atom_site_occupancy
  Dy  Dy0  1  0.38166287  0.63166910  0.76337794  1
  Dy  Dy1  1  0.61833713  0.36833090  0.23662206  1
  Ta  Ta0  1  0.85173963  0.10175782  0.70357215  1
  Ta  Ta1  1  0.14826037  0.89824218  0.29642785  1
  O  O0  1  0.56056759  0.27415138  0.56278390  1
  O  O1  1  0.79233281  0.63156533  0.07947223  1
  O  O2  1  0.43943241  0.72584862  0.43721610  1
  O  O3  1  0.71284857  0.05207291  0.92048847  1
  O  O4  1  0.00219976  0.78871505  0.56282001  1
  O  O5  1  0.28715143  0.94792709  0.07951153  1
  O  O6  1  0.20766719  0.36843467  0.92052777  1
  O  O7  1  0.99780024  0.21128495  0.43717999  1
loop_
_geom_bond_atom_site_label_1
_geom_bond_atom_site_label_2
_geom_bond_distance
_geom_bond_site_symmetry_2
Dy0 O6 2.290280 1_555
Dy0 O3 2.290378 1_565
Dy0 O0 2.334457 1_555
Dy0 O4 2.334587 1_555
Dy0 O1 2.354455 1_556
Dy0 O5 2.354696 1_556
Dy0 O7 2.454056 1_455
Dy0 O2 2.454218 1_555
Dy1 O1 2.290280 1_555
Dy1 O5 2.290378 1_545
Dy1 O2 2.334457 1_555
Dy1 O7 2.334587 1_555
Dy1 O6 2.354455 1_554
Dy1 O3 2.354696 1_554
Dy1 O4 2.454056 1_655
Dy1 O0 2.454218 1_555
O0 Ta0 1.947073 1_555
O0 Ta1 2.333198 1_545
O0 O7 2.621449 1_455
O0 O7 2.621964 1_555
O0 O5 2.685838 1_545
O1 Ta1 1.867266 1_655
O1 O4 2.686249 1_655
O2 Ta1 1.947073 1_555
O2 Ta0 2.333198 1_565
O2 O4 2.621449 1_655
O2 O4 2.621964 1_555
O2 O3 2.685838 1_565
O3 Ta0 1.866862 1_555
O4 Ta0 1.946765 1_465
O4 Ta1 2.333855 1_555
O5 Ta1 1.866862 1_555
O6 Ta0 1.867266 1_455
O6 O7 2.686249 1_455
O7 Ta1 1.946765 1_645
O7 Ta0 2.333855 1_555
