# generated using pymatgen
data_Nd3CuGeS7
_symmetry_space_group_name_H-M   'P 1'
_cell_length_a   10.20283226
_cell_length_b   10.20283226
_cell_length_c   5.86961300
_cell_angle_alpha   90.00000000
_cell_angle_beta   90.00000000
_cell_angle_gamma   120.00000167
_symmetry_Int_Tables_number   1
_chemical_formula_structural   Nd3CuGeS7
_chemical_formula_sum   'Nd6 Cu2 Ge2 S14'
_cell_volume   529.15339331
_cell_formula_units_Z   2
loop_
 _symmetry_equiv_pos_site_id
 _symmetry_equiv_pos_as_xyz
  1  'x, y, z'
loop_
 _atom_site_type_symbol
 _atom_site_label
 _atom_site_symmetry_multiplicity
 _atom_site_fract_x
 _atom_site_fract_y
 _atom_site_fract_z
 _atom_site_occupancy
  Nd  Nd0  1  0.22851700  0.87222400  0.75034300  1
  Nd  Nd1  1  0.35629300  0.22851700  0.25034300  1
  Nd  Nd2  1  0.77148300  0.12777600  0.25034300  1
  Nd  Nd3  1  0.12777600  0.35629300  0.75034300  1
  Nd  Nd4  1  0.87222400  0.64370700  0.25034300  1
  Nd  Nd5  1  0.64370700  0.77148300  0.75034300  1
  Cu  Cu0  1  0.00000000  0.00000000  0.21877500  1
  Cu  Cu1  1  0.00000000  0.00000000  0.71877500  1
  Ge  Ge0  1  0.66666700  0.33333300  0.83229000  1
  Ge  Ge1  1  0.33333300  0.66666700  0.33229000  1
  S  S0  1  0.83837500  0.09107700  0.73141600  1
  S  S1  1  0.90892300  0.74729900  0.73141600  1
  S  S2  1  0.16162500  0.90892300  0.23141600  1
  S  S3  1  0.89619300  0.41676500  0.98710500  1
  S  S4  1  0.33333300  0.66666700  0.95704100  1
  S  S5  1  0.66666700  0.33333300  0.45704100  1
  S  S6  1  0.74729900  0.83837500  0.23141600  1
  S  S7  1  0.47942800  0.89619300  0.48710500  1
  S  S8  1  0.41676500  0.52057200  0.48710500  1
  S  S9  1  0.52057200  0.10380700  0.98710500  1
  S  S10  1  0.58323500  0.47942800  0.98710500  1
  S  S11  1  0.09107700  0.25270100  0.23141600  1
  S  S12  1  0.25270100  0.16162500  0.73141600  1
  S  S13  1  0.10380700  0.58323500  0.48710500  1
loop_
_geom_bond_atom_site_label_1
_geom_bond_atom_site_label_2
_geom_bond_distance
_geom_bond_site_symmetry_2
Nd0 S12 2.839569 1_565
Nd0 S1 2.848397 1_455
Nd0 S7 2.893910 1_555
Nd0 S2 2.972354 1_556
Nd0 S13 2.991382 1_555
Nd0 S4 3.042528 1_555
Nd0 S9 3.058201 1_565
Nd0 S2 3.184187 1_555
Nd1 S11 2.839559 1_555
Nd1 S2 2.848396 1_545
Nd1 S10 2.893910 1_554
Nd1 S12 2.972356 1_555
Nd1 S9 2.991382 1_554
Nd1 S5 3.042536 1_555
Nd1 S8 3.058201 1_555
Nd1 S12 3.184189 1_554
Nd2 S6 2.839569 1_545
Nd2 S11 2.848397 1_655
Nd2 S9 2.893910 1_554
Nd2 S0 2.972354 1_555
Nd2 S3 2.991382 1_554
Nd2 S5 3.042528 1_555
Nd2 S7 3.058201 1_545
Nd2 S0 3.184187 1_554
Nd3 S0 2.839565 1_455
Nd3 S12 2.848388 1_555
Nd3 S13 2.893910 1_555
Nd3 S11 2.972357 1_556
Nd3 S8 2.991382 1_555
Nd3 S4 3.042535 1_555
Nd3 S3 3.058201 1_455
Nd3 S11 3.184190 1_555
Nd4 S2 2.839565 1_655
Nd4 S6 2.848388 1_555
Nd4 S3 2.893910 1_554
Nd4 S1 2.972357 1_555
Nd4 S10 2.991382 1_554
Nd4 S5 3.042535 1_555
Nd4 S13 3.058201 1_655
Nd4 S1 3.184190 1_554
Nd5 S1 2.839559 1_555
Nd5 S0 2.848396 1_565
Nd5 S8 2.893910 1_555
Nd5 S6 2.972356 1_556
Nd5 S7 2.991382 1_555
Nd5 S4 3.042536 1_555
Nd5 S10 3.058201 1_555
Nd5 S6 3.184189 1_555
Cu0 S11 2.262878 1_555
Cu0 S6 2.262880 1_445
Cu0 S2 2.262888 1_545
Cu0 Cu1 2.934806 1_555
Cu0 Cu1 2.934807 1_554
Cu0 Nd1 3.195222 1_555
Cu0 Nd4 3.195222 1_445
Cu0 Nd2 3.195222 1_455
Cu1 S1 2.262878 1_445
Cu1 S12 2.262880 1_555
Cu1 S0 2.262888 1_455
Cu1 Nd5 3.195222 1_445
Cu1 Nd3 3.195222 1_555
Cu1 Nd0 3.195222 1_545
Ge0 S5 2.202566 1_555
Ge0 S3 2.245218 1_555
Ge0 S9 2.245219 1_555
Ge0 S10 2.245227 1_555
Ge1 S4 2.202566 1_554
Ge1 S13 2.245218 1_555
Ge1 S7 2.245219 1_555
Ge1 S8 2.245227 1_555
