# generated using pymatgen
data_Li2Mo4O13
_symmetry_space_group_name_H-M   'P 1'
_cell_length_a   21.91256200
_cell_length_b   8.39817000
_cell_length_c   8.75384044
_cell_angle_alpha   84.06972075
_cell_angle_beta   90.00000000
_cell_angle_gamma   90.00000000
_symmetry_Int_Tables_number   1
_chemical_formula_structural   Li2Mo4O13
_chemical_formula_sum   'Li12 Mo24 O78'
_cell_volume   1602.30805083
_cell_formula_units_Z   6
loop_
 _symmetry_equiv_pos_site_id
 _symmetry_equiv_pos_as_xyz
  1  'x, y, z'
loop_
 _atom_site_type_symbol
 _atom_site_label
 _atom_site_symmetry_multiplicity
 _atom_site_fract_x
 _atom_site_fract_y
 _atom_site_fract_z
 _atom_site_occupancy
  Li  Li0  1  0.68424900  0.12505900  0.93889600  1
  Li  Li1  1  0.86868900  0.45793400  0.61955600  1
  Li  Li2  1  0.68710400  0.71828600  0.90370900  1
  Li  Li3  1  0.18424900  0.87494100  0.06110400  1
  Li  Li4  1  0.49792100  0.78467900  0.27323800  1
  Li  Li5  1  0.99792100  0.21532100  0.72676200  1
  Li  Li6  1  0.86834800  0.05164700  0.57203700  1
  Li  Li7  1  0.36834800  0.94835300  0.42796300  1
  Li  Li8  1  0.99623400  0.62098000  0.77123200  1
  Li  Li9  1  0.18710400  0.28171400  0.09629100  1
  Li  Li10  1  0.36868900  0.54206600  0.38044400  1
  Li  Li11  1  0.49623400  0.37902000  0.22876800  1
  Mo  Mo0  1  0.00297700  0.93627400  0.43602900  1
  Mo  Mo1  1  0.69826100  0.05181100  0.58439500  1
  Mo  Mo2  1  0.66536000  0.39788300  0.23896600  1
  Mo  Mo3  1  0.00242900  0.89742400  0.06674200  1
  Mo  Mo4  1  0.49991300  0.45497000  0.58378600  1
  Mo  Mo5  1  0.86623800  0.13059600  0.92654900  1
  Mo  Mo6  1  0.86620000  0.38691800  0.25870400  1
  Mo  Mo7  1  0.50297700  0.06372600  0.56397100  1
  Mo  Mo8  1  0.00212700  0.28804600  0.08503700  1
  Mo  Mo9  1  0.50242900  0.10257600  0.93325800  1
  Mo  Mo10  1  0.16653800  0.20934800  0.74175600  1
  Mo  Mo11  1  0.16536000  0.60211700  0.76103400  1
  Mo  Mo12  1  0.36620000  0.61308200  0.74129600  1
  Mo  Mo13  1  0.70152300  0.44552000  0.60267300  1
  Mo  Mo14  1  0.36614700  0.22287700  0.72423700  1
  Mo  Mo15  1  0.36470000  0.26285400  0.09317100  1
  Mo  Mo16  1  0.20152300  0.55448000  0.39732700  1
  Mo  Mo17  1  0.50212700  0.71195400  0.91496300  1
  Mo  Mo18  1  0.99991300  0.54503000  0.41621400  1
  Mo  Mo19  1  0.86470000  0.73714600  0.90682900  1
  Mo  Mo20  1  0.19826100  0.94818900  0.41560500  1
  Mo  Mo21  1  0.36623800  0.86940400  0.07345100  1
  Mo  Mo22  1  0.66653800  0.79065200  0.25824400  1
  Mo  Mo23  1  0.86614700  0.77712300  0.27576300  1
  O  O0  1  0.67968100  0.57438600  0.41462000  1
  O  O1  1  0.98273800  0.76163800  0.25489300  1
  O  O2  1  0.28839300  0.85689100  0.05814400  1
  O  O3  1  0.68508300  0.28038100  0.09424600  1
  O  O4  1  0.39402400  0.09749700  0.58660500  1
  O  O5  1  0.48992500  0.27658600  0.45757100  1
  O  O6  1  0.58235000  0.06439600  0.55914700  1
  O  O7  1  0.18313700  0.43515900  0.25323200  1
  O  O8  1  0.78788300  0.77897400  0.29264200  1
  O  O9  1  0.98992500  0.72341400  0.54242900  1
  O  O10  1  0.58597600  0.39119000  0.24162900  1
  O  O11  1  0.98064000  0.10595900  0.95453500  1
  O  O12  1  0.99070400  0.42517100  0.92426800  1
  O  O13  1  0.18232200  0.08253600  0.57583300  1
  O  O14  1  0.78103800  0.44970000  0.59728500  1
  O  O15  1  0.18169600  0.07832800  0.25145600  1
  O  O16  1  0.78600200  0.72861700  0.90310900  1
  O  O17  1  0.47353700  0.22558000  0.07122800  1
  O  O18  1  0.97353700  0.77442000  0.92877200  1
  O  O19  1  0.68146600  0.60959500  0.13206500  1
  O  O20  1  0.37509100  0.75070300  0.57981200  1
  O  O21  1  0.87509100  0.24929700  0.42018800  1
  O  O22  1  0.88913200  0.61511000  0.76781500  1
  O  O23  1  0.38630000  0.73359000  0.23103300  1
  O  O24  1  0.58006800  0.71796600  0.89602200  1
  O  O25  1  0.37783200  0.38641000  0.89343300  1
  O  O26  1  0.48064000  0.89404100  0.04546500  1
  O  O27  1  0.08235000  0.93560400  0.44085300  1
  O  O28  1  0.08031100  0.88755900  0.05308700  1
  O  O29  1  0.99171500  0.06205200  0.23776600  1
  O  O30  1  0.58031100  0.11244100  0.94691300  1
  O  O31  1  0.49171500  0.93794800  0.76223400  1
  O  O32  1  0.17968100  0.42561400  0.58538000  1
  O  O33  1  0.49070400  0.57482900  0.07573200  1
  O  O34  1  0.07782900  0.54485700  0.39221300  1
  O  O35  1  0.08597600  0.60881000  0.75837100  1
  O  O36  1  0.68460800  0.23618900  0.71027300  1
  O  O37  1  0.48273800  0.23836200  0.74510700  1
  O  O38  1  0.18508300  0.71961900  0.90575400  1
  O  O39  1  0.39149700  0.73960000  0.90439900  1
  O  O40  1  0.08728600  0.20520300  0.74314400  1
  O  O41  1  0.28788300  0.22102600  0.70735800  1
  O  O42  1  0.47474400  0.58783600  0.75087300  1
  O  O43  1  0.38913200  0.38489000  0.23218500  1
  O  O44  1  0.88630000  0.26641000  0.76896700  1
  O  O45  1  0.18460800  0.76381100  0.28972700  1
  O  O46  1  0.18627100  0.73127900  0.57320800  1
  O  O47  1  0.38220900  0.08475500  0.91254900  1
  O  O48  1  0.08006800  0.28203400  0.10397800  1
  O  O49  1  0.18146600  0.39040500  0.86793500  1
  O  O50  1  0.77750400  0.05093700  0.57763100  1
  O  O51  1  0.38880400  0.43117000  0.60973900  1
  O  O52  1  0.68232200  0.91746400  0.42416700  1
  O  O53  1  0.57782900  0.45514300  0.60778700  1
  O  O54  1  0.28600200  0.27138300  0.09689100  1
  O  O55  1  0.28819300  0.59699300  0.76221500  1
  O  O56  1  0.88880400  0.56883000  0.39026100  1
  O  O57  1  0.28103800  0.55030000  0.40271500  1
  O  O58  1  0.97474400  0.41216400  0.24912700  1
  O  O59  1  0.18728600  0.07436000  0.89906700  1
  O  O60  1  0.89149700  0.26040000  0.09560100  1
  O  O61  1  0.37540800  0.04853200  0.19959200  1
  O  O62  1  0.68169600  0.92167200  0.74854400  1
  O  O63  1  0.78819300  0.40300700  0.23778500  1
  O  O64  1  0.88220900  0.91524500  0.08745100  1
  O  O65  1  0.68313700  0.56484100  0.74676800  1
  O  O66  1  0.87783200  0.61359000  0.10656700  1
  O  O67  1  0.47980800  0.94083000  0.42522300  1
  O  O68  1  0.27750400  0.94906300  0.42236900  1
  O  O69  1  0.48450900  0.59349400  0.42529000  1
  O  O70  1  0.68627100  0.26872100  0.42679200  1
  O  O71  1  0.78839300  0.14310900  0.94185600  1
  O  O72  1  0.87540800  0.95146800  0.80040800  1
  O  O73  1  0.97980800  0.05917000  0.57477700  1
  O  O74  1  0.68728600  0.92564000  0.10093300  1
  O  O75  1  0.98450900  0.40650600  0.57471000  1
  O  O76  1  0.58728600  0.79479700  0.25685600  1
  O  O77  1  0.89402400  0.90250300  0.41339500  1
loop_
_geom_bond_atom_site_label_1
_geom_bond_atom_site_label_2
_geom_bond_distance
_geom_bond_site_symmetry_2
Li0 O3 1.979331 1_556
Li0 O74 2.080948 1_546
Li0 O36 2.119068 1_555
Li0 O30 2.280755 1_555
Li0 O71 2.287415 1_555
Li0 O62 2.507066 1_545
Li1 O14 1.932486 1_555
Li1 O22 1.995348 1_555
Li1 O44 2.002994 1_555
Li1 O56 2.168931 1_555
Li1 O21 2.601443 1_555
Li1 O75 2.610879 1_555
Li2 O65 1.980265 1_555
Li2 O62 2.072942 1_555
Li2 O19 2.113622 1_556
Li2 O16 2.168829 1_555
Li2 O24 2.346408 1_555
Li2 O74 2.575734 1_556
Li3 O38 1.979331 1_554
Li3 O59 2.080948 1_564
Li3 O45 2.119068 1_555
Li3 O28 2.280755 1_555
Li3 O2 2.287415 1_555
Li3 O15 2.507066 1_565
Li4 O76 1.964657 1_555
Li4 O69 1.998598 1_555
Li4 O67 2.001970 1_555
Li4 O26 2.141053 1_555
Li4 O23 2.517097 1_555
Li4 O33 2.598028 1_555
Li5 O40 1.964657 1_655
Li5 O75 1.998598 1_555
Li5 O73 2.001970 1_555
Li5 O11 2.141053 1_555
Li5 O44 2.517097 1_555
Li5 O12 2.598028 1_555
Li6 O50 1.991221 1_555
Li6 O21 2.021905 1_555
Li6 O77 2.042887 1_545
Li6 O72 2.093013 1_545
Li6 O73 2.443373 1_555
Li6 O44 2.649918 1_555
Li7 O68 1.991221 1_555
Li7 O20 2.021905 1_555
Li7 O4 2.042887 1_565
Li7 O61 2.093013 1_565
Li7 O67 2.443373 1_555
Li7 O23 2.649918 1_555
Li8 O35 1.972950 1_655
Li8 O12 2.014525 1_555
Li8 O18 2.043762 1_555
Li8 O9 2.101130 1_555
Li8 O22 2.347652 1_555
Li8 O75 2.628705 1_555
Li9 O7 1.980265 1_555
Li9 O15 2.072942 1_555
Li9 O49 2.113622 1_554
Li9 O54 2.168829 1_555
Li9 O48 2.346408 1_555
Li9 O59 2.575734 1_554
Li10 O57 1.932486 1_555
Li10 O43 1.995348 1_555
Li10 O23 2.002994 1_555
Li10 O51 2.168931 1_555
Li10 O20 2.601443 1_555
Li10 O69 2.610879 1_555
Li11 O10 1.972950 1_555
Li11 O33 2.014525 1_555
Li11 O17 2.043762 1_555
Li11 O5 2.101130 1_555
Li11 O43 2.347652 1_555
Li11 O69 2.628705 1_555
Mo0 O27 1.739773 1_555
Mo0 O73 1.748490 1_465
Mo0 O9 1.949591 1_455
Mo0 O29 1.951931 1_465
Mo0 O1 2.311373 1_455
Mo0 O77 2.414782 1_455
Mo1 O50 1.737468 1_555
Mo1 O62 1.751147 1_545
Mo1 O52 1.920755 1_545
Mo1 O36 2.013444 1_555
Mo1 O70 2.184374 1_555
Mo2 O3 1.738909 1_555
Mo2 O10 1.740493 1_555
Mo2 O70 1.929103 1_555
Mo2 O19 1.953898 1_555
Mo2 O0 2.265178 1_555
Mo3 O28 1.713377 1_555
Mo3 O18 1.784497 1_454
Mo3 O1 1.952237 1_455
Mo3 O11 1.975955 1_464
Mo3 O29 2.153067 1_465
Mo3 O64 2.645856 1_455
Mo4 O53 1.720237 1_555
Mo4 O69 1.748942 1_555
Mo4 O5 1.963404 1_555
Mo4 O42 2.006452 1_555
Mo4 O37 2.216804 1_555
Mo4 O51 2.451502 1_555
Mo5 O71 1.715111 1_555
Mo5 O44 1.752700 1_555
Mo5 O72 1.966211 1_545
Mo5 O60 2.004500 1_556
Mo5 O64 2.202468 1_546
Mo5 O11 2.525194 1_555
Mo6 O63 1.722933 1_555
Mo6 O21 1.741961 1_555
Mo6 O60 1.946342 1_555
Mo6 O56 2.066177 1_555
Mo6 O66 2.222285 1_555
Mo6 O58 2.388611 1_555
Mo7 O6 1.739773 1_555
Mo7 O67 1.748490 1_545
Mo7 O5 1.949591 1_555
Mo7 O31 1.951931 1_545
Mo7 O37 2.311373 1_555
Mo7 O4 2.414782 1_555
Mo8 O48 1.716155 1_555
Mo8 O12 1.741999 1_454
Mo8 O58 1.954289 1_455
Mo8 O11 2.055767 1_454
Mo8 O29 2.217511 1_455
Mo8 O60 2.436124 1_455
Mo9 O30 1.713377 1_555
Mo9 O17 1.784497 1_556
Mo9 O37 1.952237 1_555
Mo9 O26 1.975955 1_546
Mo9 O31 2.153067 1_545
Mo9 O47 2.645856 1_555
Mo10 O40 1.736981 1_555
Mo10 O59 1.750891 1_555
Mo10 O13 1.919144 1_555
Mo10 O49 1.996534 1_555
Mo10 O32 2.177563 1_555
Mo11 O38 1.738909 1_555
Mo11 O35 1.740493 1_555
Mo11 O46 1.929103 1_555
Mo11 O49 1.953898 1_555
Mo11 O32 2.265178 1_555
Mo12 O55 1.722933 1_555
Mo12 O20 1.741961 1_555
Mo12 O39 1.946342 1_555
Mo12 O51 2.066177 1_555
Mo12 O25 2.222285 1_555
Mo12 O42 2.388611 1_555
Mo13 O65 1.737457 1_555
Mo13 O14 1.743271 1_555
Mo13 O0 1.934452 1_555
Mo13 O36 1.942414 1_555
Mo13 O70 2.271375 1_555
Mo14 O41 1.721526 1_555
Mo14 O4 1.787619 1_555
Mo14 O47 1.947225 1_555
Mo14 O51 1.987151 1_555
Mo14 O25 2.136763 1_555
Mo14 O37 2.565588 1_555
Mo15 O54 1.726409 1_555
Mo15 O43 1.753730 1_555
Mo15 O61 1.953489 1_555
Mo15 O25 1.960044 1_554
Mo15 O47 2.317974 1_554
Mo15 O17 2.415584 1_555
Mo16 O7 1.737457 1_555
Mo16 O57 1.743271 1_555
Mo16 O32 1.934452 1_555
Mo16 O45 1.942414 1_555
Mo16 O46 2.271375 1_555
Mo17 O24 1.716155 1_555
Mo17 O33 1.741999 1_556
Mo17 O42 1.954289 1_555
Mo17 O26 2.055767 1_556
Mo17 O31 2.217511 1_555
Mo17 O39 2.436124 1_555
Mo18 O34 1.720237 1_655
Mo18 O75 1.748942 1_555
Mo18 O9 1.963404 1_555
Mo18 O58 2.006452 1_555
Mo18 O1 2.216804 1_555
Mo18 O56 2.451502 1_555
Mo19 O16 1.726409 1_555
Mo19 O22 1.753730 1_555
Mo19 O72 1.953489 1_555
Mo19 O66 1.960044 1_556
Mo19 O64 2.317974 1_556
Mo19 O18 2.415584 1_555
Mo20 O68 1.737468 1_555
Mo20 O15 1.751147 1_565
Mo20 O13 1.920755 1_565
Mo20 O45 2.013444 1_555
Mo20 O46 2.184374 1_555
Mo21 O2 1.715111 1_555
Mo21 O23 1.752700 1_555
Mo21 O61 1.966211 1_565
Mo21 O39 2.004500 1_554
Mo21 O47 2.202468 1_564
Mo21 O26 2.525194 1_555
Mo22 O76 1.736981 1_555
Mo22 O74 1.750891 1_555
Mo22 O52 1.919144 1_555
Mo22 O19 1.996534 1_555
Mo22 O0 2.177563 1_555
Mo23 O8 1.721526 1_555
Mo23 O77 1.787619 1_555
Mo23 O64 1.947225 1_555
Mo23 O56 1.987151 1_555
Mo23 O66 2.136763 1_555
Mo23 O1 2.565588 1_555
O0 O19 2.460843 1_555
O0 O70 2.562286 1_555
O1 O9 2.509263 1_555
O1 O29 2.519559 1_565
O1 O77 2.728148 1_555
O11 O29 2.480558 1_556
O11 O60 2.711772 1_556
O25 O51 2.484661 1_555
O25 O47 2.523384 1_555
O26 O31 2.480558 1_554
O26 O39 2.711772 1_554
O31 O37 2.519559 1_565
O32 O49 2.460843 1_555
O32 O46 2.562286 1_555
O36 O70 2.468593 1_555
O37 O5 2.509263 1_555
O37 O4 2.728148 1_555
O39 O42 2.666856 1_555
O42 O51 2.672014 1_555
O45 O46 2.468593 1_555
O47 O61 2.504118 1_556
O56 O66 2.484661 1_555
O56 O58 2.672014 1_555
O58 O60 2.666856 1_555
O64 O72 2.504118 1_554
O64 O66 2.523384 1_555
