# generated using pymatgen
data_Lu7Te
_symmetry_space_group_name_H-M   'P 1'
_cell_length_a   7.49326834
_cell_length_b   12.78948362
_cell_length_c   39.49314604
_cell_angle_alpha   90.00000000
_cell_angle_beta   90.00000000
_cell_angle_gamma   107.03443484
_symmetry_Int_Tables_number   1
_chemical_formula_structural   Lu7Te
_chemical_formula_sum   'Lu112 Te16'
_cell_volume   3618.78229785
_cell_formula_units_Z   16
loop_
 _symmetry_equiv_pos_site_id
 _symmetry_equiv_pos_as_xyz
  1  'x, y, z'
loop_
 _atom_site_type_symbol
 _atom_site_label
 _atom_site_symmetry_multiplicity
 _atom_site_fract_x
 _atom_site_fract_y
 _atom_site_fract_z
 _atom_site_occupancy
  Lu  Lu0_0  1  0.00883197  0.01766344  0.44586839  1
  Lu  Lu0_1  1  0.00883197  0.01766344  0.94586839  1
  Lu  Lu0_2  1  0.00883197  0.51766344  0.44586839  1
  Lu  Lu0_3  1  0.00883197  0.51766344  0.94586839  1
  Lu  Lu0_4  1  0.50883197  0.01766344  0.44586839  1
  Lu  Lu0_5  1  0.50883197  0.01766344  0.94586839  1
  Lu  Lu0_6  1  0.50883197  0.51766344  0.44586839  1
  Lu  Lu0_7  1  0.50883197  0.51766344  0.94586839  1
  Lu  Lu1_0  1  0.49116802  0.48233656  0.05413160  1
  Lu  Lu1_1  1  0.49116802  0.48233656  0.55413161  1
  Lu  Lu1_2  1  0.49116802  0.98233655  0.05413160  1
  Lu  Lu1_3  1  0.49116802  0.98233655  0.55413161  1
  Lu  Lu1_4  1  0.99116803  0.48233656  0.05413160  1
  Lu  Lu1_5  1  0.99116803  0.48233656  0.55413161  1
  Lu  Lu1_6  1  0.99116802  0.98233655  0.05413160  1
  Lu  Lu1_7  1  0.99116802  0.98233655  0.55413161  1
  Lu  Lu2_0  1  0.49116802  0.48233656  0.19586840  1
  Lu  Lu2_1  1  0.49116802  0.48233656  0.69586839  1
  Lu  Lu2_2  1  0.49116802  0.98233655  0.19586840  1
  Lu  Lu2_3  1  0.49116802  0.98233655  0.69586839  1
  Lu  Lu2_4  1  0.99116803  0.48233656  0.19586840  1
  Lu  Lu2_5  1  0.99116803  0.48233656  0.69586839  1
  Lu  Lu2_6  1  0.99116802  0.98233655  0.19586840  1
  Lu  Lu2_7  1  0.99116802  0.98233655  0.69586839  1
  Lu  Lu3_0  1  0.00883197  0.01766344  0.30413161  1
  Lu  Lu3_1  1  0.00883197  0.01766344  0.80413161  1
  Lu  Lu3_2  1  0.00883197  0.51766344  0.30413161  1
  Lu  Lu3_3  1  0.00883197  0.51766344  0.80413161  1
  Lu  Lu3_4  1  0.50883197  0.01766344  0.30413161  1
  Lu  Lu3_5  1  0.50883197  0.01766344  0.80413161  1
  Lu  Lu3_6  1  0.50883197  0.51766344  0.30413161  1
  Lu  Lu3_7  1  0.50883197  0.51766344  0.80413161  1
  Lu  Lu4_0  1  0.12298045  0.24595991  0.17748928  1
  Lu  Lu4_1  1  0.12298045  0.24595991  0.67748928  1
  Lu  Lu4_2  1  0.12298045  0.74595991  0.17748928  1
  Lu  Lu4_3  1  0.12298045  0.74595991  0.67748928  1
  Lu  Lu4_4  1  0.62298045  0.24595991  0.17748928  1
  Lu  Lu4_5  1  0.62298045  0.24595991  0.67748928  1
  Lu  Lu4_6  1  0.62298045  0.74595991  0.17748928  1
  Lu  Lu4_7  1  0.62298045  0.74595991  0.67748928  1
  Lu  Lu5_0  1  0.37701955  0.25404009  0.32251072  1
  Lu  Lu5_1  1  0.37701955  0.25404009  0.82251072  1
  Lu  Lu5_2  1  0.37701954  0.75404009  0.32251072  1
  Lu  Lu5_3  1  0.37701954  0.75404009  0.82251072  1
  Lu  Lu5_4  1  0.87701954  0.25404009  0.32251072  1
  Lu  Lu5_5  1  0.87701954  0.25404009  0.82251072  1
  Lu  Lu5_6  1  0.87701955  0.75404009  0.32251072  1
  Lu  Lu5_7  1  0.87701955  0.75404009  0.82251072  1
  Lu  Lu6_0  1  0.37701955  0.25404009  0.42748928  1
  Lu  Lu6_1  1  0.37701955  0.25404009  0.92748927  1
  Lu  Lu6_2  1  0.37701954  0.75404009  0.42748928  1
  Lu  Lu6_3  1  0.37701954  0.75404009  0.92748927  1
  Lu  Lu6_4  1  0.87701954  0.25404009  0.42748928  1
  Lu  Lu6_5  1  0.87701954  0.25404009  0.92748927  1
  Lu  Lu6_6  1  0.87701955  0.75404009  0.42748928  1
  Lu  Lu6_7  1  0.87701955  0.75404009  0.92748927  1
  Lu  Lu7_0  1  0.12298045  0.24595991  0.07251072  1
  Lu  Lu7_1  1  0.12298045  0.24595991  0.57251072  1
  Lu  Lu7_2  1  0.12298045  0.74595991  0.07251072  1
  Lu  Lu7_3  1  0.12298045  0.74595991  0.57251072  1
  Lu  Lu7_4  1  0.62298045  0.24595991  0.07251072  1
  Lu  Lu7_5  1  0.62298045  0.24595991  0.57251072  1
  Lu  Lu7_6  1  0.62298045  0.74595991  0.07251072  1
  Lu  Lu7_7  1  0.62298045  0.74595991  0.57251072  1
  Lu  Lu8_0  1  0.17827352  0.35654705  0.49407524  1
  Lu  Lu8_1  1  0.17827352  0.35654705  0.99407523  1
  Lu  Lu8_2  1  0.17827352  0.85654705  0.49407524  1
  Lu  Lu8_3  1  0.17827352  0.85654705  0.99407523  1
  Lu  Lu8_4  1  0.67827352  0.35654705  0.49407524  1
  Lu  Lu8_5  1  0.67827352  0.35654705  0.99407523  1
  Lu  Lu8_6  1  0.67827353  0.85654705  0.49407524  1
  Lu  Lu8_7  1  0.67827353  0.85654705  0.99407523  1
  Lu  Lu9_0  1  0.32172648  0.14345295  0.00592476  1
  Lu  Lu9_1  1  0.32172648  0.14345295  0.50592476  1
  Lu  Lu9_2  1  0.32172647  0.64345295  0.00592476  1
  Lu  Lu9_3  1  0.32172647  0.64345295  0.50592476  1
  Lu  Lu9_4  1  0.82172647  0.14345295  0.00592476  1
  Lu  Lu9_5  1  0.82172647  0.14345295  0.50592476  1
  Lu  Lu9_6  1  0.82172647  0.64345295  0.00592476  1
  Lu  Lu9_7  1  0.82172647  0.64345295  0.50592476  1
  Lu  Lu10_0  1  0.32172648  0.14345295  0.24407524  1
  Lu  Lu10_1  1  0.32172648  0.14345295  0.74407523  1
  Lu  Lu10_2  1  0.32172647  0.64345295  0.24407524  1
  Lu  Lu10_3  1  0.32172647  0.64345295  0.74407523  1
  Lu  Lu10_4  1  0.82172647  0.14345295  0.24407524  1
  Lu  Lu10_5  1  0.82172647  0.14345295  0.74407523  1
  Lu  Lu10_6  1  0.82172647  0.64345295  0.24407524  1
  Lu  Lu10_7  1  0.82172647  0.64345295  0.74407523  1
  Lu  Lu11_0  1  0.17827352  0.35654705  0.25592476  1
  Lu  Lu11_1  1  0.17827352  0.35654705  0.75592476  1
  Lu  Lu11_2  1  0.17827352  0.85654705  0.25592476  1
  Lu  Lu11_3  1  0.17827352  0.85654705  0.75592476  1
  Lu  Lu11_4  1  0.67827352  0.35654705  0.25592476  1
  Lu  Lu11_5  1  0.67827352  0.35654705  0.75592476  1
  Lu  Lu11_6  1  0.67827353  0.85654705  0.25592476  1
  Lu  Lu11_7  1  0.67827353  0.85654705  0.75592476  1
  Lu  Lu12_0  1  0.21898257  0.43796364  0.37500000  1
  Lu  Lu12_1  1  0.21898257  0.43796364  0.87500000  1
  Lu  Lu12_2  1  0.21898257  0.93796364  0.37500000  1
  Lu  Lu12_3  1  0.21898257  0.93796364  0.87500000  1
  Lu  Lu12_4  1  0.71898257  0.43796364  0.37500000  1
  Lu  Lu12_5  1  0.71898257  0.43796364  0.87500000  1
  Lu  Lu12_6  1  0.71898257  0.93796364  0.37500000  1
  Lu  Lu12_7  1  0.71898257  0.93796364  0.87500000  1
  Lu  Lu13_0  1  0.28101743  0.06203636  0.12500000  1
  Lu  Lu13_1  1  0.28101743  0.06203636  0.62500000  1
  Lu  Lu13_2  1  0.28101743  0.56203636  0.12500000  1
  Lu  Lu13_3  1  0.28101743  0.56203636  0.62500000  1
  Lu  Lu13_4  1  0.78101743  0.06203637  0.12500000  1
  Lu  Lu13_5  1  0.78101743  0.06203637  0.62500000  1
  Lu  Lu13_6  1  0.78101743  0.56203636  0.12500000  1
  Lu  Lu13_7  1  0.78101743  0.56203636  0.62500000  1
  Te  Te0_0  1  0.07392799  0.14785598  0.37500000  1
  Te  Te0_1  1  0.07392799  0.14785598  0.87500000  1
  Te  Te0_2  1  0.07392799  0.64785598  0.37500000  1
  Te  Te0_3  1  0.07392799  0.64785598  0.87500000  1
  Te  Te0_4  1  0.57392799  0.14785598  0.37500000  1
  Te  Te0_5  1  0.57392799  0.14785598  0.87500000  1
  Te  Te0_6  1  0.57392799  0.64785598  0.37500000  1
  Te  Te0_7  1  0.57392799  0.64785598  0.87500000  1
  Te  Te1_0  1  0.42607201  0.35214402  0.12500000  1
  Te  Te1_1  1  0.42607201  0.35214402  0.62500000  1
  Te  Te1_2  1  0.42607201  0.85214402  0.12500000  1
  Te  Te1_3  1  0.42607201  0.85214402  0.62500000  1
  Te  Te1_4  1  0.92607201  0.35214402  0.12500000  1
  Te  Te1_5  1  0.92607201  0.35214402  0.62500000  1
  Te  Te1_6  1  0.92607201  0.85214402  0.12500000  1
  Te  Te1_7  1  0.92607201  0.85214402  0.62500000  1
loop_
_geom_bond_atom_site_label_1
_geom_bond_atom_site_label_2
_geom_bond_distance
_geom_bond_site_symmetry_2
Lu0_0 Te0_0 3.219935 1_555
Lu0_0 Lu6_6 3.304397 1_445
Lu0_0 Lu8_2 3.318973 1_545
Lu0_0 Lu8_6 3.318975 1_445
Lu0_0 Lu9_1 3.391296 1_555
Lu0_0 Lu9_5 3.391298 1_455
Lu0_0 Lu12_6 3.506069 1_445
Lu0_0 Lu12_2 3.506073 1_545
Lu0_0 Lu6_0 3.520111 1_555
Lu0_0 Lu6_4 3.520117 1_455
Lu0_0 Lu0_4 3.746634 1_455
Lu0_0 Lu0_4 3.746634 1_555
Lu0_1 Te0_1 3.219935 1_555
Lu0_1 Lu6_7 3.304397 1_445
Lu0_1 Lu8_3 3.318973 1_545
Lu0_1 Lu8_7 3.318975 1_445
Lu0_1 Lu9_0 3.391296 1_556
Lu0_1 Lu9_4 3.391298 1_456
Lu0_1 Lu12_7 3.506069 1_445
Lu0_1 Lu12_3 3.506073 1_545
Lu0_1 Lu6_1 3.520111 1_555
Lu0_1 Lu6_5 3.520117 1_455
Lu0_1 Lu0_5 3.746634 1_555
Lu0_1 Lu0_5 3.746634 1_455
Lu0_2 Te0_2 3.219935 1_555
Lu0_2 Lu6_4 3.304397 1_455
Lu0_2 Lu8_0 3.318973 1_555
Lu0_2 Lu8_4 3.318975 1_455
Lu0_2 Lu9_3 3.391296 1_555
Lu0_2 Lu9_7 3.391298 1_455
Lu0_2 Lu12_4 3.506069 1_455
Lu0_2 Lu12_0 3.506073 1_555
Lu0_2 Lu6_2 3.520111 1_555
Lu0_2 Lu6_6 3.520117 1_455
Lu0_2 Lu0_6 3.746634 1_455
Lu0_2 Lu0_6 3.746634 1_555
Lu0_3 Te0_3 3.219935 1_555
Lu0_3 Lu6_5 3.304397 1_455
Lu0_3 Lu8_1 3.318973 1_555
Lu0_3 Lu8_5 3.318975 1_455
Lu0_3 Lu9_2 3.391296 1_556
Lu0_3 Lu9_6 3.391298 1_456
Lu0_3 Lu12_5 3.506069 1_455
Lu0_3 Lu12_1 3.506073 1_555
Lu0_3 Lu6_3 3.520111 1_555
Lu0_3 Lu6_7 3.520117 1_455
Lu0_3 Lu0_7 3.746634 1_455
Lu0_3 Lu0_7 3.746634 1_555
Lu0_4 Te0_4 3.219935 1_555
Lu0_4 Lu6_2 3.304397 1_545
Lu0_4 Lu8_6 3.318973 1_545
Lu0_4 Lu8_2 3.318975 1_545
Lu0_4 Lu9_5 3.391296 1_555
Lu0_4 Lu9_1 3.391298 1_555
Lu0_4 Lu12_2 3.506069 1_545
Lu0_4 Lu12_6 3.506073 1_545
Lu0_4 Lu6_4 3.520111 1_555
Lu0_4 Lu6_0 3.520117 1_555
Lu0_5 Te0_5 3.219935 1_555
Lu0_5 Lu6_3 3.304397 1_545
Lu0_5 Lu8_7 3.318973 1_545
Lu0_5 Lu8_3 3.318975 1_545
Lu0_5 Lu9_4 3.391296 1_556
Lu0_5 Lu9_0 3.391298 1_556
Lu0_5 Lu12_3 3.506069 1_545
Lu0_5 Lu12_7 3.506073 1_545
Lu0_5 Lu6_5 3.520111 1_555
Lu0_5 Lu6_1 3.520117 1_555
Lu0_6 Te0_6 3.219935 1_555
Lu0_6 Lu6_0 3.304397 1_555
Lu0_6 Lu8_4 3.318973 1_555
Lu0_6 Lu8_0 3.318975 1_555
Lu0_6 Lu9_7 3.391296 1_555
Lu0_6 Lu9_3 3.391298 1_555
Lu0_6 Lu12_0 3.506069 1_555
Lu0_6 Lu12_4 3.506073 1_555
Lu0_6 Lu6_6 3.520111 1_555
Lu0_6 Lu6_2 3.520117 1_555
Lu0_7 Te0_7 3.219935 1_555
Lu0_7 Lu6_1 3.304397 1_555
Lu0_7 Lu8_5 3.318973 1_555
Lu0_7 Lu8_1 3.318975 1_555
Lu0_7 Lu9_6 3.391296 1_556
Lu0_7 Lu9_2 3.391298 1_556
Lu0_7 Lu12_1 3.506069 1_555
Lu0_7 Lu12_5 3.506073 1_555
Lu0_7 Lu6_7 3.520111 1_555
Lu0_7 Lu6_3 3.520117 1_555
Lu1_0 Te1_0 3.219935 1_555
Lu1_0 Lu7_6 3.304397 1_555
Lu1_0 Lu9_2 3.318973 1_555
Lu1_0 Lu9_6 3.318975 1_555
Lu1_0 Lu8_1 3.391296 1_554
Lu1_0 Lu8_5 3.391298 1_554
Lu1_0 Lu7_0 3.520111 1_555
Lu1_0 Lu7_4 3.520117 1_555
Lu1_0 Lu1_4 3.746634 1_455
Lu1_0 Lu1_4 3.746634 1_555
Lu1_1 Te1_1 3.219935 1_555
Lu1_1 Lu7_7 3.304397 1_555
Lu1_1 Lu9_3 3.318973 1_555
Lu1_1 Lu9_7 3.318975 1_555
Lu1_1 Lu8_0 3.391296 1_555
Lu1_1 Lu8_4 3.391298 1_555
Lu1_1 Lu7_1 3.520111 1_555
Lu1_1 Lu7_5 3.520117 1_555
Lu1_1 Lu1_5 3.746634 1_455
Lu1_1 Lu1_5 3.746634 1_555
Lu1_2 Te1_2 3.219935 1_555
Lu1_2 Lu7_4 3.304397 1_565
Lu1_2 Lu9_0 3.318973 1_565
Lu1_2 Lu9_4 3.318975 1_565
Lu1_2 Lu8_3 3.391296 1_554
Lu1_2 Lu8_7 3.391298 1_554
Lu1_2 Lu7_2 3.520111 1_555
Lu1_2 Lu7_6 3.520117 1_555
Lu1_2 Lu1_6 3.746634 1_555
Lu1_2 Lu1_6 3.746634 1_455
Lu1_3 Te1_3 3.219935 1_555
Lu1_3 Lu7_5 3.304397 1_565
Lu1_3 Lu9_1 3.318973 1_565
Lu1_3 Lu9_5 3.318975 1_565
Lu1_3 Lu8_2 3.391296 1_555
Lu1_3 Lu8_6 3.391298 1_555
Lu1_3 Lu7_3 3.520111 1_555
Lu1_3 Lu7_7 3.520117 1_555
Lu1_3 Lu1_7 3.746634 1_455
Lu1_3 Lu1_7 3.746634 1_555
Lu1_4 Te1_4 3.219935 1_555
Lu1_4 Lu7_2 3.304397 1_655
Lu1_4 Lu9_6 3.318973 1_555
Lu1_4 Lu9_2 3.318975 1_655
Lu1_4 Lu8_5 3.391296 1_554
Lu1_4 Lu8_1 3.391298 1_654
Lu1_4 Lu7_4 3.520111 1_555
Lu1_4 Lu7_0 3.520117 1_655
Lu1_5 Te1_5 3.219935 1_555
Lu1_5 Lu7_3 3.304397 1_655
Lu1_5 Lu9_7 3.318973 1_555
Lu1_5 Lu9_3 3.318975 1_655
Lu1_5 Lu8_4 3.391296 1_555
Lu1_5 Lu8_0 3.391298 1_655
Lu1_5 Lu7_5 3.520111 1_555
Lu1_5 Lu7_1 3.520117 1_655
Lu1_6 Te1_6 3.219935 1_555
Lu1_6 Lu7_0 3.304397 1_665
Lu1_6 Lu9_4 3.318973 1_565
Lu1_6 Lu9_0 3.318975 1_665
Lu1_6 Lu8_7 3.391296 1_554
Lu1_6 Lu8_3 3.391298 1_654
Lu1_6 Lu7_6 3.520111 1_555
Lu1_6 Lu7_2 3.520117 1_655
Lu1_7 Te1_7 3.219935 1_555
Lu1_7 Lu7_1 3.304397 1_665
Lu1_7 Lu9_5 3.318973 1_565
Lu1_7 Lu9_1 3.318975 1_665
Lu1_7 Lu8_6 3.391296 1_555
Lu1_7 Lu8_2 3.391298 1_655
Lu1_7 Lu7_7 3.520111 1_555
Lu1_7 Lu7_3 3.520117 1_655
Lu2_0 Te1_0 3.219935 1_555
Lu2_0 Lu4_6 3.304397 1_555
Lu2_0 Lu4_0 3.520111 1_555
Lu2_0 Lu4_4 3.520117 1_555
Lu2_0 Lu2_4 3.746634 1_455
Lu2_0 Lu2_4 3.746634 1_555
Lu2_1 Te1_1 3.219935 1_555
Lu2_1 Lu4_7 3.304397 1_555
Lu2_1 Lu4_1 3.520111 1_555
Lu2_1 Lu4_5 3.520117 1_555
Lu2_1 Lu2_5 3.746634 1_455
Lu2_1 Lu2_5 3.746634 1_555
Lu2_2 Te1_2 3.219935 1_555
Lu2_2 Lu4_4 3.304397 1_565
Lu2_2 Lu4_2 3.520111 1_555
Lu2_2 Lu4_6 3.520117 1_555
Lu2_2 Lu2_6 3.746634 1_455
Lu2_2 Lu2_6 3.746634 1_555
Lu2_3 Te1_3 3.219935 1_555
Lu2_3 Lu4_5 3.304397 1_565
Lu2_3 Lu4_3 3.520111 1_555
Lu2_3 Lu4_7 3.520117 1_555
Lu2_3 Lu2_7 3.746634 1_555
Lu2_3 Lu2_7 3.746634 1_455
Lu2_4 Te1_4 3.219935 1_555
Lu2_4 Lu4_2 3.304397 1_655
Lu2_4 Lu4_4 3.520111 1_555
Lu2_4 Lu4_0 3.520117 1_655
Lu2_5 Te1_5 3.219935 1_555
Lu2_5 Lu4_3 3.304397 1_655
Lu2_5 Lu4_5 3.520111 1_555
Lu2_5 Lu4_1 3.520117 1_655
Lu2_6 Te1_6 3.219935 1_555
Lu2_6 Lu4_0 3.304397 1_665
Lu2_6 Lu4_6 3.520111 1_555
Lu2_6 Lu4_2 3.520117 1_655
Lu2_7 Te1_7 3.219935 1_555
Lu2_7 Lu4_1 3.304397 1_665
Lu2_7 Lu4_7 3.520111 1_555
Lu2_7 Lu4_3 3.520117 1_655
Lu3_0 Te0_0 3.219935 1_555
Lu3_0 Lu5_6 3.304397 1_445
Lu3_0 Lu5_0 3.520111 1_555
Lu3_0 Lu5_4 3.520117 1_455
Lu3_0 Lu3_4 3.746634 1_455
Lu3_0 Lu3_4 3.746634 1_555
Lu3_1 Te0_1 3.219935 1_555
Lu3_1 Lu5_7 3.304397 1_445
Lu3_1 Lu5_1 3.520111 1_555
Lu3_1 Lu5_5 3.520117 1_455
Lu3_1 Lu3_5 3.746634 1_455
Lu3_1 Lu3_5 3.746634 1_555
Lu3_2 Te0_2 3.219935 1_555
Lu3_2 Lu5_4 3.304397 1_455
Lu3_2 Lu5_2 3.520111 1_555
Lu3_2 Lu5_6 3.520117 1_455
Lu3_2 Lu3_6 3.746634 1_455
Lu3_2 Lu3_6 3.746634 1_555
Lu3_3 Te0_3 3.219935 1_555
Lu3_3 Lu5_5 3.304397 1_455
Lu3_3 Lu5_3 3.520111 1_555
Lu3_3 Lu5_7 3.520117 1_455
Lu3_3 Lu3_7 3.746634 1_455
Lu3_3 Lu3_7 3.746634 1_555
Lu3_4 Te0_4 3.219935 1_555
Lu3_4 Lu5_2 3.304397 1_545
Lu3_4 Lu5_4 3.520111 1_555
Lu3_4 Lu5_0 3.520117 1_555
Lu3_5 Te0_5 3.219935 1_555
Lu3_5 Lu5_3 3.304397 1_545
Lu3_5 Lu5_5 3.520111 1_555
Lu3_5 Lu5_1 3.520117 1_555
Lu3_6 Te0_6 3.219935 1_555
Lu3_6 Lu5_0 3.304397 1_555
Lu3_6 Lu5_6 3.520111 1_555
Lu3_6 Lu5_2 3.520117 1_555
Lu3_7 Te0_7 3.219935 1_555
Lu3_7 Lu5_1 3.304397 1_555
Lu3_7 Lu5_7 3.520111 1_555
Lu3_7 Lu5_3 3.520117 1_555
Lu4_0 Te1_0 3.080989 1_555
Lu4_0 Te1_4 3.080994 1_455
Lu4_0 Lu4_4 3.746634 1_555
Lu4_0 Lu4_4 3.746634 1_455
Lu4_1 Te1_1 3.080989 1_555
Lu4_1 Te1_5 3.080994 1_455
Lu4_1 Lu4_5 3.746634 1_455
Lu4_1 Lu4_5 3.746634 1_555
Lu4_2 Te1_2 3.080989 1_555
Lu4_2 Te1_6 3.080994 1_455
Lu4_2 Lu4_6 3.746634 1_455
Lu4_2 Lu4_6 3.746634 1_555
Lu4_3 Te1_3 3.080989 1_555
Lu4_3 Te1_7 3.080994 1_455
Lu4_3 Lu4_7 3.746634 1_455
Lu4_3 Lu4_7 3.746634 1_555
Lu4_4 Te1_4 3.080989 1_555
Lu4_4 Te1_0 3.080994 1_555
Lu4_5 Te1_5 3.080989 1_555
Lu4_5 Te1_1 3.080994 1_555
Lu4_6 Te1_6 3.080989 1_555
Lu4_6 Te1_2 3.080994 1_555
Lu4_7 Te1_7 3.080989 1_555
Lu4_7 Te1_3 3.080994 1_555
Lu5_0 Te0_0 3.080989 1_555
Lu5_0 Te0_4 3.080994 1_555
Lu5_0 Lu5_4 3.746634 1_555
Lu5_0 Lu5_4 3.746634 1_455
Lu5_1 Te0_1 3.080989 1_555
Lu5_1 Te0_5 3.080994 1_555
Lu5_1 Lu5_5 3.746634 1_555
Lu5_1 Lu5_5 3.746634 1_455
Lu5_2 Te0_2 3.080989 1_555
Lu5_2 Te0_6 3.080994 1_555
Lu5_2 Lu5_6 3.746634 1_455
Lu5_2 Lu5_6 3.746634 1_555
Lu5_3 Te0_3 3.080989 1_555
Lu5_3 Te0_7 3.080994 1_555
Lu5_3 Lu5_7 3.746634 1_455
Lu5_3 Lu5_7 3.746634 1_555
Lu5_4 Te0_4 3.080989 1_555
Lu5_4 Te0_0 3.080994 1_655
Lu5_5 Te0_5 3.080989 1_555
Lu5_5 Te0_1 3.080994 1_655
Lu5_6 Te0_6 3.080989 1_555
Lu5_6 Te0_2 3.080994 1_655
Lu5_7 Te0_7 3.080989 1_555
Lu5_7 Te0_3 3.080994 1_655
Lu6_0 Te0_0 3.080989 1_555
Lu6_0 Te0_4 3.080994 1_555
Lu6_0 Lu9_1 3.379977 1_555
Lu6_0 Lu8_0 3.463498 1_555
Lu6_0 Lu8_4 3.463502 1_555
Lu6_0 Lu6_4 3.746634 1_555
Lu6_0 Lu6_4 3.746634 1_455
Lu6_1 Te0_1 3.080989 1_555
Lu6_1 Te0_5 3.080994 1_555
Lu6_1 Lu9_0 3.379977 1_556
Lu6_1 Lu8_1 3.463498 1_555
Lu6_1 Lu8_5 3.463502 1_555
Lu6_1 Lu6_5 3.746634 1_555
Lu6_1 Lu6_5 3.746634 1_455
Lu6_2 Te0_2 3.080989 1_555
Lu6_2 Te0_6 3.080994 1_555
Lu6_2 Lu9_3 3.379977 1_555
Lu6_2 Lu8_2 3.463498 1_555
Lu6_2 Lu8_6 3.463502 1_555
Lu6_2 Lu6_6 3.746634 1_455
Lu6_2 Lu6_6 3.746634 1_555
Lu6_3 Te0_3 3.080989 1_555
Lu6_3 Te0_7 3.080994 1_555
Lu6_3 Lu9_2 3.379977 1_556
Lu6_3 Lu8_3 3.463498 1_555
Lu6_3 Lu8_7 3.463502 1_555
Lu6_3 Lu6_7 3.746634 1_455
Lu6_3 Lu6_7 3.746634 1_555
Lu6_4 Te0_4 3.080989 1_555
Lu6_4 Te0_0 3.080994 1_655
Lu6_4 Lu9_5 3.379977 1_555
Lu6_4 Lu8_4 3.463498 1_555
Lu6_4 Lu8_0 3.463502 1_655
Lu6_5 Te0_5 3.080989 1_555
Lu6_5 Te0_1 3.080994 1_655
Lu6_5 Lu9_4 3.379977 1_556
Lu6_5 Lu8_5 3.463498 1_555
Lu6_5 Lu8_1 3.463502 1_655
Lu6_6 Te0_6 3.080989 1_555
Lu6_6 Te0_2 3.080994 1_655
Lu6_6 Lu9_7 3.379977 1_555
Lu6_6 Lu8_6 3.463498 1_555
Lu6_6 Lu8_2 3.463502 1_655
Lu6_7 Te0_7 3.080989 1_555
Lu6_7 Te0_3 3.080994 1_655
Lu6_7 Lu9_6 3.379977 1_556
Lu6_7 Lu8_7 3.463498 1_555
Lu6_7 Lu8_3 3.463502 1_655
Lu7_0 Te1_0 3.080989 1_555
Lu7_0 Te1_4 3.080994 1_455
Lu7_0 Lu8_1 3.379977 1_554
Lu7_0 Lu9_0 3.463498 1_555
Lu7_0 Lu9_4 3.463502 1_455
Lu7_0 Lu7_4 3.746634 1_455
Lu7_0 Lu7_4 3.746634 1_555
Lu7_1 Te1_1 3.080989 1_555
Lu7_1 Te1_5 3.080994 1_455
Lu7_1 Lu8_0 3.379977 1_555
Lu7_1 Lu9_1 3.463498 1_555
Lu7_1 Lu9_5 3.463502 1_455
Lu7_1 Lu7_5 3.746634 1_555
Lu7_1 Lu7_5 3.746634 1_455
Lu7_2 Te1_2 3.080989 1_555
Lu7_2 Te1_6 3.080994 1_455
Lu7_2 Lu8_3 3.379977 1_554
Lu7_2 Lu9_2 3.463498 1_555
Lu7_2 Lu9_6 3.463502 1_455
Lu7_2 Lu7_6 3.746634 1_455
Lu7_2 Lu7_6 3.746634 1_555
Lu7_3 Te1_3 3.080989 1_555
Lu7_3 Te1_7 3.080994 1_455
Lu7_3 Lu8_2 3.379977 1_555
Lu7_3 Lu9_3 3.463498 1_555
Lu7_3 Lu9_7 3.463502 1_455
Lu7_3 Lu7_7 3.746634 1_455
Lu7_3 Lu7_7 3.746634 1_555
Lu7_4 Te1_4 3.080989 1_555
Lu7_4 Te1_0 3.080994 1_555
Lu7_4 Lu8_5 3.379977 1_554
Lu7_4 Lu9_4 3.463498 1_555
Lu7_4 Lu9_0 3.463502 1_555
Lu7_5 Te1_5 3.080989 1_555
Lu7_5 Te1_1 3.080994 1_555
Lu7_5 Lu8_4 3.379977 1_555
Lu7_5 Lu9_5 3.463498 1_555
Lu7_5 Lu9_1 3.463502 1_555
Lu7_6 Te1_6 3.080989 1_555
Lu7_6 Te1_2 3.080994 1_555
Lu7_6 Lu8_7 3.379977 1_554
Lu7_6 Lu9_6 3.463498 1_555
Lu7_6 Lu9_2 3.463502 1_555
Lu7_7 Te1_7 3.080989 1_555
Lu7_7 Te1_3 3.080994 1_555
Lu7_7 Lu8_6 3.379977 1_555
Lu7_7 Lu9_7 3.463498 1_555
Lu7_7 Lu9_3 3.463502 1_555
Lu8_0 Lu9_1 3.243224 1_555
Lu8_0 Lu9_5 3.243225 1_455
Lu8_0 Lu9_3 3.539472 1_555
Lu8_0 Lu8_4 3.746634 1_555
Lu8_0 Lu8_4 3.746634 1_455
Lu8_1 Lu9_0 3.243224 1_556
Lu8_1 Lu9_4 3.243225 1_456
Lu8_1 Lu9_2 3.539472 1_556
Lu8_1 Lu8_5 3.746634 1_555
Lu8_1 Lu8_5 3.746634 1_455
Lu8_2 Lu9_3 3.243224 1_555
Lu8_2 Lu9_7 3.243225 1_455
Lu8_2 Lu9_1 3.539472 1_565
Lu8_2 Lu8_6 3.746634 1_455
Lu8_2 Lu8_6 3.746634 1_555
Lu8_3 Lu9_2 3.243224 1_556
Lu8_3 Lu9_6 3.243225 1_456
Lu8_3 Lu9_0 3.539472 1_566
Lu8_3 Lu8_7 3.746634 1_455
Lu8_3 Lu8_7 3.746634 1_555
Lu8_4 Lu9_5 3.243224 1_555
Lu8_4 Lu9_1 3.243225 1_555
Lu8_4 Lu9_7 3.539472 1_555
Lu8_5 Lu9_4 3.243224 1_556
Lu8_5 Lu9_0 3.243225 1_556
Lu8_5 Lu9_6 3.539472 1_556
Lu8_6 Lu9_7 3.243224 1_555
Lu8_6 Lu9_3 3.243225 1_555
Lu8_6 Lu9_5 3.539472 1_565
Lu8_7 Lu9_6 3.243224 1_556
Lu8_7 Lu9_2 3.243225 1_556
Lu8_7 Lu9_4 3.539472 1_566
Lu9_0 Lu9_4 3.746634 1_555
Lu9_0 Lu9_4 3.746634 1_455
Lu9_1 Lu9_5 3.746634 1_555
Lu9_1 Lu9_5 3.746634 1_455
Lu9_2 Lu9_6 3.746634 1_555
Lu9_2 Lu9_6 3.746634 1_455
Lu9_3 Lu9_7 3.746634 1_455
Lu9_3 Lu9_7 3.746634 1_555
Lu10_0 Lu11_0 3.243224 1_555
Lu10_0 Lu11_4 3.243225 1_555
Lu10_0 Lu2_2 3.318973 1_545
Lu10_0 Lu2_6 3.318975 1_445
Lu10_0 Lu5_0 3.379977 1_555
Lu10_0 Lu3_0 3.391296 1_555
Lu10_0 Lu3_4 3.391298 1_555
Lu10_0 Lu4_0 3.463498 1_555
Lu10_0 Lu4_4 3.463502 1_555
Lu10_0 Lu11_2 3.539472 1_545
Lu10_0 Lu10_4 3.746634 1_555
Lu10_0 Lu10_4 3.746634 1_455
Lu10_1 Lu11_1 3.243224 1_555
Lu10_1 Lu11_5 3.243225 1_555
Lu10_1 Lu2_3 3.318973 1_545
Lu10_1 Lu2_7 3.318975 1_445
Lu10_1 Lu5_1 3.379977 1_555
Lu10_1 Lu3_1 3.391296 1_555
Lu10_1 Lu3_5 3.391298 1_555
Lu10_1 Lu4_1 3.463498 1_555
Lu10_1 Lu4_5 3.463502 1_555
Lu10_1 Lu11_3 3.539472 1_545
Lu10_1 Lu10_5 3.746634 1_555
Lu10_1 Lu10_5 3.746634 1_455
Lu10_2 Lu11_2 3.243224 1_555
Lu10_2 Lu11_6 3.243225 1_555
Lu10_2 Lu2_0 3.318973 1_555
Lu10_2 Lu2_4 3.318975 1_455
Lu10_2 Lu5_2 3.379977 1_555
Lu10_2 Lu3_2 3.391296 1_555
Lu10_2 Lu3_6 3.391298 1_555
Lu10_2 Lu4_2 3.463498 1_555
Lu10_2 Lu4_6 3.463502 1_555
Lu10_2 Lu11_0 3.539472 1_555
Lu10_2 Lu10_6 3.746634 1_455
Lu10_2 Lu10_6 3.746634 1_555
Lu10_3 Lu11_3 3.243224 1_555
Lu10_3 Lu11_7 3.243225 1_555
Lu10_3 Lu2_1 3.318973 1_555
Lu10_3 Lu2_5 3.318975 1_455
Lu10_3 Lu5_3 3.379977 1_555
Lu10_3 Lu3_3 3.391296 1_555
Lu10_3 Lu3_7 3.391298 1_555
Lu10_3 Lu4_3 3.463498 1_555
Lu10_3 Lu4_7 3.463502 1_555
Lu10_3 Lu11_1 3.539472 1_555
Lu10_3 Lu10_7 3.746634 1_555
Lu10_3 Lu10_7 3.746634 1_455
Lu10_4 Lu11_4 3.243224 1_555
Lu10_4 Lu11_0 3.243225 1_655
Lu10_4 Lu2_6 3.318973 1_545
Lu10_4 Lu2_2 3.318975 1_545
Lu10_4 Lu5_4 3.379977 1_555
Lu10_4 Lu3_4 3.391296 1_555
Lu10_4 Lu3_0 3.391298 1_655
Lu10_4 Lu4_4 3.463498 1_555
Lu10_4 Lu4_0 3.463502 1_655
Lu10_4 Lu11_6 3.539472 1_545
Lu10_5 Lu11_5 3.243224 1_555
Lu10_5 Lu11_1 3.243225 1_655
Lu10_5 Lu2_7 3.318973 1_545
Lu10_5 Lu2_3 3.318975 1_545
Lu10_5 Lu5_5 3.379977 1_555
Lu10_5 Lu3_5 3.391296 1_555
Lu10_5 Lu3_1 3.391298 1_655
Lu10_5 Lu4_5 3.463498 1_555
Lu10_5 Lu4_1 3.463502 1_655
Lu10_5 Lu11_7 3.539472 1_545
Lu10_6 Lu11_6 3.243224 1_555
Lu10_6 Lu11_2 3.243225 1_655
Lu10_6 Lu2_4 3.318973 1_555
Lu10_6 Lu2_0 3.318975 1_555
Lu10_6 Lu5_6 3.379977 1_555
Lu10_6 Lu3_6 3.391296 1_555
Lu10_6 Lu3_2 3.391298 1_655
Lu10_6 Lu4_6 3.463498 1_555
Lu10_6 Lu4_2 3.463502 1_655
Lu10_6 Lu11_4 3.539472 1_555
Lu10_7 Lu11_7 3.243224 1_555
Lu10_7 Lu11_3 3.243225 1_655
Lu10_7 Lu2_5 3.318973 1_555
Lu10_7 Lu2_1 3.318975 1_555
Lu10_7 Lu5_7 3.379977 1_555
Lu10_7 Lu3_7 3.391296 1_555
Lu10_7 Lu3_3 3.391298 1_655
Lu10_7 Lu4_7 3.463498 1_555
Lu10_7 Lu4_3 3.463502 1_655
Lu10_7 Lu11_5 3.539472 1_555
Lu11_0 Lu3_2 3.318973 1_555
Lu11_0 Lu3_6 3.318975 1_555
Lu11_0 Lu4_0 3.379977 1_555
Lu11_0 Lu2_0 3.391296 1_555
Lu11_0 Lu2_4 3.391298 1_455
Lu11_0 Lu5_0 3.463498 1_555
Lu11_0 Lu5_4 3.463502 1_455
Lu11_0 Lu11_4 3.746634 1_555
Lu11_0 Lu11_4 3.746634 1_455
Lu11_1 Lu3_3 3.318973 1_555
Lu11_1 Lu3_7 3.318975 1_555
Lu11_1 Lu4_1 3.379977 1_555
Lu11_1 Lu2_1 3.391296 1_555
Lu11_1 Lu2_5 3.391298 1_455
Lu11_1 Lu5_1 3.463498 1_555
Lu11_1 Lu5_5 3.463502 1_455
Lu11_1 Lu11_5 3.746634 1_555
Lu11_1 Lu11_5 3.746634 1_455
Lu11_2 Lu3_0 3.318973 1_565
Lu11_2 Lu3_4 3.318975 1_565
Lu11_2 Lu4_2 3.379977 1_555
Lu11_2 Lu2_2 3.391296 1_555
Lu11_2 Lu2_6 3.391298 1_455
Lu11_2 Lu5_2 3.463498 1_555
Lu11_2 Lu5_6 3.463502 1_455
Lu11_2 Lu11_6 3.746634 1_455
Lu11_2 Lu11_6 3.746634 1_555
Lu11_3 Lu3_1 3.318973 1_565
Lu11_3 Lu3_5 3.318975 1_565
Lu11_3 Lu4_3 3.379977 1_555
Lu11_3 Lu2_3 3.391296 1_555
Lu11_3 Lu2_7 3.391298 1_455
Lu11_3 Lu5_3 3.463498 1_555
Lu11_3 Lu5_7 3.463502 1_455
Lu11_3 Lu11_7 3.746634 1_455
Lu11_3 Lu11_7 3.746634 1_555
Lu11_4 Lu3_6 3.318973 1_555
Lu11_4 Lu3_2 3.318975 1_655
Lu11_4 Lu4_4 3.379977 1_555
Lu11_4 Lu2_4 3.391296 1_555
Lu11_4 Lu2_0 3.391298 1_555
Lu11_4 Lu5_4 3.463498 1_555
Lu11_4 Lu5_0 3.463502 1_555
Lu11_5 Lu3_7 3.318973 1_555
Lu11_5 Lu3_3 3.318975 1_655
Lu11_5 Lu4_5 3.379977 1_555
Lu11_5 Lu2_5 3.391296 1_555
Lu11_5 Lu2_1 3.391298 1_555
Lu11_5 Lu5_5 3.463498 1_555
Lu11_5 Lu5_1 3.463502 1_555
Lu11_6 Lu3_4 3.318973 1_565
Lu11_6 Lu3_0 3.318975 1_665
Lu11_6 Lu4_6 3.379977 1_555
Lu11_6 Lu2_6 3.391296 1_555
Lu11_6 Lu2_2 3.391298 1_555
Lu11_6 Lu5_6 3.463498 1_555
Lu11_6 Lu5_2 3.463502 1_555
Lu11_7 Lu3_5 3.318973 1_565
Lu11_7 Lu3_1 3.318975 1_665
Lu11_7 Lu4_7 3.379977 1_555
Lu11_7 Lu2_7 3.391296 1_555
Lu11_7 Lu2_3 3.391298 1_555
Lu11_7 Lu5_7 3.463498 1_555
Lu11_7 Lu5_3 3.463502 1_555
Lu12_0 Te0_6 3.177573 1_555
Lu12_0 Te0_2 3.177579 1_555
Lu12_0 Lu3_6 3.506069 1_555
Lu12_0 Lu3_2 3.506073 1_555
Lu12_0 Te0_0 3.547551 1_555
Lu12_0 Lu6_0 3.586764 1_555
Lu12_0 Lu5_0 3.586764 1_555
Lu12_0 Lu5_4 3.586774 1_455
Lu12_0 Lu6_4 3.586774 1_455
Lu12_0 Lu12_4 3.746634 1_555
Lu12_0 Lu12_4 3.746634 1_455
Lu12_1 Te0_7 3.177573 1_555
Lu12_1 Te0_3 3.177579 1_555
Lu12_1 Lu3_7 3.506069 1_555
Lu12_1 Lu3_3 3.506073 1_555
Lu12_1 Te0_1 3.547551 1_555
Lu12_1 Lu6_1 3.586764 1_555
Lu12_1 Lu5_1 3.586764 1_555
Lu12_1 Lu6_5 3.586774 1_455
Lu12_1 Lu5_5 3.586774 1_455
Lu12_1 Lu12_5 3.746634 1_555
Lu12_1 Lu12_5 3.746634 1_455
Lu12_2 Te0_4 3.177573 1_565
Lu12_2 Te0_0 3.177579 1_565
Lu12_2 Lu3_4 3.506069 1_565
Lu12_2 Lu3_0 3.506073 1_565
Lu12_2 Te0_2 3.547551 1_555
Lu12_2 Lu6_2 3.586764 1_555
Lu12_2 Lu5_2 3.586764 1_555
Lu12_2 Lu5_6 3.586774 1_455
Lu12_2 Lu6_6 3.586774 1_455
Lu12_2 Lu12_6 3.746634 1_555
Lu12_2 Lu12_6 3.746634 1_455
Lu12_3 Te0_5 3.177573 1_565
Lu12_3 Te0_1 3.177579 1_565
Lu12_3 Lu3_5 3.506069 1_565
Lu12_3 Lu3_1 3.506073 1_565
Lu12_3 Te0_3 3.547551 1_555
Lu12_3 Lu6_3 3.586764 1_555
Lu12_3 Lu5_3 3.586764 1_555
Lu12_3 Lu6_7 3.586774 1_455
Lu12_3 Lu5_7 3.586774 1_455
Lu12_3 Lu12_7 3.746634 1_555
Lu12_3 Lu12_7 3.746634 1_455
Lu12_4 Te0_2 3.177573 1_655
Lu12_4 Te0_6 3.177579 1_555
Lu12_4 Lu3_2 3.506069 1_655
Lu12_4 Lu3_6 3.506073 1_555
Lu12_4 Te0_4 3.547551 1_555
Lu12_4 Lu5_4 3.586764 1_555
Lu12_4 Lu6_4 3.586764 1_555
Lu12_4 Lu5_0 3.586774 1_555
Lu12_4 Lu6_0 3.586774 1_555
Lu12_5 Te0_3 3.177573 1_655
Lu12_5 Te0_7 3.177579 1_555
Lu12_5 Lu3_3 3.506069 1_655
Lu12_5 Lu3_7 3.506073 1_555
Lu12_5 Te0_5 3.547551 1_555
Lu12_5 Lu6_5 3.586764 1_555
Lu12_5 Lu5_5 3.586764 1_555
Lu12_5 Lu6_1 3.586774 1_555
Lu12_5 Lu5_1 3.586774 1_555
Lu12_6 Te0_0 3.177573 1_665
Lu12_6 Te0_4 3.177579 1_565
Lu12_6 Lu3_0 3.506069 1_665
Lu12_6 Lu3_4 3.506073 1_565
Lu12_6 Te0_6 3.547551 1_555
Lu12_6 Lu6_6 3.586764 1_555
Lu12_6 Lu5_6 3.586764 1_555
Lu12_6 Lu5_2 3.586774 1_555
Lu12_6 Lu6_2 3.586774 1_555
Lu12_7 Te0_1 3.177573 1_665
Lu12_7 Te0_5 3.177579 1_565
Lu12_7 Lu3_1 3.506069 1_665
Lu12_7 Lu3_5 3.506073 1_565
Lu12_7 Te0_7 3.547551 1_555
Lu12_7 Lu6_7 3.586764 1_555
Lu12_7 Lu5_7 3.586764 1_555
Lu12_7 Lu6_3 3.586774 1_555
Lu12_7 Lu5_3 3.586774 1_555
Lu13_0 Te1_6 3.177573 1_445
Lu13_0 Te1_2 3.177579 1_545
Lu13_0 Lu1_6 3.506069 1_445
Lu13_0 Lu2_6 3.506069 1_445
Lu13_0 Lu1_2 3.506073 1_545
Lu13_0 Lu2_2 3.506073 1_545
Lu13_0 Te1_0 3.547551 1_555
Lu13_0 Lu7_0 3.586764 1_555
Lu13_0 Lu4_0 3.586764 1_555
Lu13_0 Lu7_4 3.586774 1_555
Lu13_0 Lu4_4 3.586774 1_555
Lu13_0 Lu13_4 3.746634 1_455
Lu13_0 Lu13_4 3.746634 1_555
Lu13_1 Te1_7 3.177573 1_445
Lu13_1 Te1_3 3.177579 1_545
Lu13_1 Lu1_7 3.506069 1_445
Lu13_1 Lu2_7 3.506069 1_445
Lu13_1 Lu2_3 3.506073 1_545
Lu13_1 Lu1_3 3.506073 1_545
Lu13_1 Te1_1 3.547551 1_555
Lu13_1 Lu7_1 3.586764 1_555
Lu13_1 Lu4_1 3.586764 1_555
Lu13_1 Lu4_5 3.586774 1_555
Lu13_1 Lu7_5 3.586774 1_555
Lu13_1 Lu13_5 3.746634 1_555
Lu13_1 Lu13_5 3.746634 1_455
Lu13_2 Te1_4 3.177573 1_455
Lu13_2 Te1_0 3.177579 1_555
Lu13_2 Lu2_4 3.506069 1_455
Lu13_2 Lu1_4 3.506069 1_455
Lu13_2 Lu1_0 3.506073 1_555
Lu13_2 Lu2_0 3.506073 1_555
Lu13_2 Te1_2 3.547551 1_555
Lu13_2 Lu4_2 3.586764 1_555
Lu13_2 Lu7_2 3.586764 1_555
Lu13_2 Lu4_6 3.586774 1_555
Lu13_2 Lu7_6 3.586774 1_555
Lu13_2 Lu13_6 3.746634 1_455
Lu13_2 Lu13_6 3.746634 1_555
Lu13_3 Te1_5 3.177573 1_455
Lu13_3 Te1_1 3.177579 1_555
Lu13_3 Lu1_5 3.506069 1_455
Lu13_3 Lu2_5 3.506069 1_455
Lu13_3 Lu1_1 3.506073 1_555
Lu13_3 Lu2_1 3.506073 1_555
Lu13_3 Te1_3 3.547551 1_555
Lu13_3 Lu7_3 3.586764 1_555
Lu13_3 Lu4_3 3.586764 1_555
Lu13_3 Lu7_7 3.586774 1_555
Lu13_3 Lu4_7 3.586774 1_555
Lu13_3 Lu13_7 3.746634 1_455
Lu13_3 Lu13_7 3.746634 1_555
Lu13_4 Te1_2 3.177573 1_545
Lu13_4 Te1_6 3.177579 1_545
Lu13_4 Lu1_2 3.506069 1_545
Lu13_4 Lu2_2 3.506069 1_545
Lu13_4 Lu2_6 3.506073 1_545
Lu13_4 Lu1_6 3.506073 1_545
Lu13_4 Te1_4 3.547551 1_555
Lu13_4 Lu7_4 3.586764 1_555
Lu13_4 Lu4_4 3.586764 1_555
Lu13_4 Lu4_0 3.586774 1_655
Lu13_4 Lu7_0 3.586774 1_655
Lu13_5 Te1_3 3.177573 1_545
Lu13_5 Te1_7 3.177579 1_545
Lu13_5 Lu2_3 3.506069 1_545
Lu13_5 Lu1_3 3.506069 1_545
Lu13_5 Lu1_7 3.506073 1_545
Lu13_5 Lu2_7 3.506073 1_545
Lu13_5 Te1_5 3.547551 1_555
Lu13_5 Lu4_5 3.586764 1_555
Lu13_5 Lu7_5 3.586764 1_555
Lu13_5 Lu7_1 3.586774 1_655
Lu13_5 Lu4_1 3.586774 1_655
Lu13_6 Te1_0 3.177573 1_555
Lu13_6 Te1_4 3.177579 1_555
Lu13_6 Lu1_0 3.506069 1_555
Lu13_6 Lu2_0 3.506069 1_555
Lu13_6 Lu2_4 3.506073 1_555
Lu13_6 Lu1_4 3.506073 1_555
Lu13_6 Te1_6 3.547551 1_555
Lu13_6 Lu4_6 3.586764 1_555
Lu13_6 Lu7_6 3.586764 1_555
Lu13_6 Lu7_2 3.586774 1_655
Lu13_6 Lu4_2 3.586774 1_655
Lu13_7 Te1_1 3.177573 1_555
Lu13_7 Te1_5 3.177579 1_555
Lu13_7 Lu2_1 3.506069 1_555
Lu13_7 Lu1_1 3.506069 1_555
Lu13_7 Lu2_5 3.506073 1_555
Lu13_7 Lu1_5 3.506073 1_555
Lu13_7 Te1_7 3.547551 1_555
Lu13_7 Lu7_7 3.586764 1_555
Lu13_7 Lu4_7 3.586764 1_555
Lu13_7 Lu4_3 3.586774 1_655
Lu13_7 Lu7_3 3.586774 1_655
