# generated using pymatgen
data_Sn(CO2)2
_symmetry_space_group_name_H-M   'P 1'
_cell_length_a   6.02437092
_cell_length_b   6.02437092
_cell_length_c   8.50105546
_cell_angle_alpha   59.65563584
_cell_angle_beta   59.65563584
_cell_angle_gamma   57.54199104
_symmetry_Int_Tables_number   1
_chemical_formula_structural   Sn(CO2)2
_chemical_formula_sum   'Sn2 C4 O8'
_cell_volume   212.74513214
_cell_formula_units_Z   2
loop_
 _symmetry_equiv_pos_site_id
 _symmetry_equiv_pos_as_xyz
  1  'x, y, z'
loop_
 _atom_site_type_symbol
 _atom_site_label
 _atom_site_symmetry_multiplicity
 _atom_site_fract_x
 _atom_site_fract_y
 _atom_site_fract_z
 _atom_site_occupancy
  Sn  Sn0  1  0.89833700  0.10166300  0.25000000  1
  Sn  Sn1  1  0.10166300  0.89833700  0.75000000  1
  C  C0  1  0.90364800  0.49382200  0.46835500  1
  C  C1  1  0.50617800  0.09635200  0.03164500  1
  C  C2  1  0.09635200  0.50617800  0.53164500  1
  C  C3  1  0.49382200  0.90364800  0.96835500  1
  O  O0  1  0.12206700  0.73816700  0.46270000  1
  O  O1  1  0.26183300  0.87793300  0.03730000  1
  O  O2  1  0.87793300  0.26183300  0.53730000  1
  O  O3  1  0.73816700  0.12206700  0.96270000  1
  O  O4  1  0.78480000  0.71116200  0.35413300  1
  O  O5  1  0.28883800  0.21520000  0.14586700  1
  O  O6  1  0.21520000  0.28883800  0.64586700  1
  O  O7  1  0.71116200  0.78480000  0.85413300  1
loop_
_geom_bond_atom_site_label_1
_geom_bond_atom_site_label_2
_geom_bond_distance
_geom_bond_site_symmetry_2
C0 O4 1.257567 1_555
C0 O2 1.278193 1_555
C0 C2 1.551476 1_655
C1 O5 1.257567 1_555
C1 O3 1.278193 1_554
C1 C3 1.551476 1_544
C2 O6 1.257567 1_555
C2 O0 1.278193 1_555
C3 O7 1.257567 1_555
C3 O1 1.278193 1_556
O0 Sn0 2.274896 1_465
O0 Sn1 2.976878 1_555
O1 Sn0 2.274896 1_465
O1 Sn1 2.976878 1_554
O2 Sn1 2.274896 1_645
O2 Sn0 2.976878 1_555
O3 Sn1 2.274896 1_645
O3 Sn0 2.976878 1_556
O4 Sn0 2.407701 1_565
O5 Sn0 2.407701 1_455
O6 Sn1 2.407701 1_545
O7 Sn1 2.407701 1_655
