# generated using pymatgen
data_CdI2
_symmetry_space_group_name_H-M   'P 1'
_cell_length_a   4.29337456
_cell_length_b   4.29337492
_cell_length_c   43.34447298
_cell_angle_alpha   90.00000000
_cell_angle_beta   90.00000000
_cell_angle_gamma   119.99999724
_symmetry_Int_Tables_number   1
_chemical_formula_structural   CdI2
_chemical_formula_sum   'Cd6 I12'
_cell_volume   691.92968645
_cell_formula_units_Z   6
loop_
 _symmetry_equiv_pos_site_id
 _symmetry_equiv_pos_as_xyz
  1  'x, y, z'
loop_
 _atom_site_type_symbol
 _atom_site_label
 _atom_site_symmetry_multiplicity
 _atom_site_fract_x
 _atom_site_fract_y
 _atom_site_fract_z
 _atom_site_occupancy
  Cd  Cd0  1  0.66666700  0.33333300  0.04169093  1
  Cd  Cd1  1  0.66666700  0.33333300  0.37501766  1
  Cd  Cd2  1  0.00000000  0.00000000  0.70832204  1
  Cd  Cd3  1  0.66666700  0.33333300  0.54169599  1
  Cd  Cd4  1  0.00000000  0.00000000  0.20837521  1
  Cd  Cd5  1  0.00000000  0.00000000  0.87504466  1
  I  I0  1  0.33333300  0.66666700  0.08133890  1
  I  I1  1  0.33333300  0.66666700  0.41464989  1
  I  I2  1  0.66666700  0.33333300  0.66865551  1
  I  I3  1  0.33333300  0.66666700  0.58133454  1
  I  I4  1  0.33333300  0.66666700  0.74788105  1
  I  I5  1  0.33333300  0.66666700  0.91467901  1
  I  I6  1  0.00000000  0.00000000  0.33531667  1
  I  I7  1  0.00000000  0.00000000  0.00198806  1
  I  I8  1  0.66666700  0.33333300  0.83533881  1
  I  I9  1  0.33333300  0.66666700  0.24799977  1
  I  I10  1  0.00000000  0.00000000  0.50199262  1
  I  I11  1  0.66666700  0.33333300  0.16867869  1
loop_
_geom_bond_atom_site_label_1
_geom_bond_atom_site_label_2
_geom_bond_distance
_geom_bond_site_symmetry_2
Cd0 I0 3.016232 1_655
Cd0 I0 3.016232 1_545
Cd0 I0 3.016238 1_555
Cd0 I7 3.017588 1_655
Cd0 I7 3.017591 1_555
Cd0 I7 3.017592 1_665
Cd1 I1 3.015843 1_655
Cd1 I1 3.015843 1_545
Cd1 I1 3.015849 1_555
Cd1 I6 3.017542 1_655
Cd1 I6 3.017545 1_555
Cd1 I6 3.017545 1_665
Cd2 I4 3.014037 1_545
Cd2 I4 3.014040 1_445
Cd2 I4 3.014040 1_555
Cd2 I2 3.016690 1_455
Cd2 I2 3.016693 1_555
Cd2 I2 3.016694 1_445
Cd3 I3 3.015999 1_655
Cd3 I3 3.016000 1_545
Cd3 I3 3.016005 1_555
Cd3 I10 3.017601 1_655
Cd3 I10 3.017604 1_555
Cd3 I10 3.017604 1_665
Cd4 I9 3.015654 1_545
Cd4 I9 3.015657 1_445
Cd4 I9 3.015657 1_555
Cd4 I11 3.017431 1_455
Cd4 I11 3.017435 1_555
Cd4 I11 3.017435 1_445
Cd5 I5 3.015896 1_545
Cd5 I5 3.015899 1_445
Cd5 I5 3.015899 1_555
Cd5 I8 3.017662 1_455
Cd5 I8 3.017665 1_555
Cd5 I8 3.017665 1_445
