# generated using pymatgen
data_LiP3PbO9
_symmetry_space_group_name_H-M   'P 1'
_cell_length_a   6.86788200
_cell_length_b   7.36161107
_cell_length_c   7.53035930
_cell_angle_alpha   83.63987621
_cell_angle_beta   79.48063052
_cell_angle_gamma   82.00518130
_symmetry_Int_Tables_number   1
_chemical_formula_structural   LiP3PbO9
_chemical_formula_sum   'Li2 P6 Pb2 O18'
_cell_volume   369.25984893
_cell_formula_units_Z   2
loop_
 _symmetry_equiv_pos_site_id
 _symmetry_equiv_pos_as_xyz
  1  'x, y, z'
loop_
 _atom_site_type_symbol
 _atom_site_label
 _atom_site_symmetry_multiplicity
 _atom_site_fract_x
 _atom_site_fract_y
 _atom_site_fract_z
 _atom_site_occupancy
  Li  Li0  1  0.45795200  0.82726900  0.83038100  1
  Li  Li1  1  0.54204800  0.17273100  0.16961900  1
  P  P0  1  0.41471900  0.38499700  0.78179200  1
  P  P1  1  0.84878600  0.28205300  0.77110400  1
  P  P2  1  0.23271400  0.15725800  0.56006700  1
  P  P3  1  0.58528100  0.61500300  0.21820800  1
  P  P4  1  0.76728600  0.84274200  0.43993300  1
  P  P5  1  0.15121400  0.71794700  0.22889600  1
  Pb  Pb0  1  0.97456200  0.76908500  0.84849200  1
  Pb  Pb1  1  0.02543800  0.23091500  0.15150800  1
  O  O0  1  0.35808700  0.58750700  0.79473200  1
  O  O1  1  0.67801300  0.67012100  0.38447600  1
  O  O2  1  0.00790700  0.77291700  0.41643700  1
  O  O3  1  0.37489900  0.25221500  0.94838100  1
  O  O4  1  0.99209300  0.22708300  0.58356300  1
  O  O5  1  0.17516600  0.88424000  0.09296900  1
  O  O6  1  0.62510100  0.74778500  0.05161900  1
  O  O7  1  0.70669100  0.85046800  0.64136800  1
  O  O8  1  0.35027000  0.64940900  0.30921600  1
  O  O9  1  0.32198700  0.32987900  0.61552400  1
  O  O10  1  0.64973000  0.35059100  0.69078400  1
  O  O11  1  0.73528300  0.01005500  0.31155700  1
  O  O12  1  0.26471700  0.98994500  0.68844300  1
  O  O13  1  0.93041100  0.43541500  0.84011500  1
  O  O14  1  0.64191300  0.41249300  0.20526800  1
  O  O15  1  0.82483400  0.11576000  0.90703100  1
  O  O16  1  0.06958900  0.56458500  0.15988500  1
  O  O17  1  0.29330900  0.14953200  0.35863200  1
loop_
_geom_bond_atom_site_label_1
_geom_bond_atom_site_label_2
_geom_bond_distance
_geom_bond_site_symmetry_2
Li0 O7 2.028015 1_555
Li0 O12 2.032256 1_555
Li0 O0 2.041265 1_555
Li0 O6 2.175144 1_556
Li0 O5 2.532342 1_556
Li1 O17 2.028015 1_555
Li1 O11 2.032256 1_555
Li1 O14 2.041265 1_555
Li1 O3 2.175144 1_554
Li1 O15 2.532342 1_554
O0 P0 1.496767 1_555
O0 Pb0 2.764018 1_455
O1 P4 1.610267 1_555
O1 P3 1.616630 1_555
O2 P5 1.623328 1_555
O2 P4 1.644253 1_455
O2 Pb0 3.216846 1_455
O3 P0 1.510430 1_555
O3 Pb1 2.614510 1_556
O4 P1 1.623328 1_555
O4 P2 1.644253 1_655
O4 Pb1 3.216846 1_655
O5 P5 1.513380 1_555
O5 Pb1 2.668075 1_565
O5 Pb0 2.757322 1_454
O6 P3 1.510430 1_555
O6 Pb0 2.614510 1_554
O7 P4 1.503122 1_555
O7 Pb0 2.590421 1_555
O8 P5 1.591157 1_555
O8 P3 1.630877 1_555
O9 P2 1.610267 1_555
O9 P0 1.616630 1_555
O10 P1 1.591157 1_555
O10 P0 1.630877 1_555
O11 P4 1.496126 1_545
O11 Pb1 2.767180 1_655
O12 P2 1.496126 1_565
O12 Pb0 2.767180 1_455
O13 P1 1.507104 1_555
O13 Pb0 2.525485 1_555
O13 Pb1 2.773850 1_656
O14 P3 1.496767 1_555
O14 Pb1 2.764018 1_655
O15 P1 1.513380 1_555
O15 Pb0 2.668075 1_545
O15 Pb1 2.757322 1_656
O16 P5 1.507104 1_555
O16 Pb1 2.525485 1_555
O16 Pb0 2.773850 1_454
O17 P2 1.503122 1_555
O17 Pb1 2.590421 1_555
