# generated using pymatgen
data_K3Pu(H3O4)2
_symmetry_space_group_name_H-M   'P 1'
_cell_length_a   8.45435500
_cell_length_b   7.62075300
_cell_length_c   7.90005808
_cell_angle_alpha   63.41668171
_cell_angle_beta   90.00000000
_cell_angle_gamma   90.00000000
_symmetry_Int_Tables_number   1
_chemical_formula_structural   K3Pu(H3O4)2
_chemical_formula_sum   'K6 Pu2 H12 O16'
_cell_volume   455.18127158
_cell_formula_units_Z   2
loop_
 _symmetry_equiv_pos_site_id
 _symmetry_equiv_pos_as_xyz
  1  'x, y, z'
loop_
 _atom_site_type_symbol
 _atom_site_label
 _atom_site_symmetry_multiplicity
 _atom_site_fract_x
 _atom_site_fract_y
 _atom_site_fract_z
 _atom_site_occupancy
  K  K0  1  0.19065400  0.08622700  0.45715800  1
  K  K1  1  0.80934600  0.91377300  0.54284200  1
  K  K2  1  0.30934600  0.08622700  0.95715800  1
  K  K3  1  0.69065400  0.91377300  0.04284200  1
  K  K4  1  0.50000000  0.50000000  0.00000000  1
  K  K5  1  0.00000000  0.50000000  0.50000000  1
  Pu  Pu0  1  0.00000000  0.50000000  0.00000000  1
  Pu  Pu1  1  0.50000000  0.50000000  0.50000000  1
  H  H0  1  0.97664900  0.07784900  0.12926700  1
  H  H1  1  0.47664900  0.92215100  0.37073300  1
  H  H2  1  0.52705200  0.14145900  0.32691800  1
  H  H3  1  0.02705200  0.85854100  0.17308200  1
  H  H4  1  0.20196200  0.66589300  0.68132800  1
  H  H5  1  0.47294800  0.85854100  0.67308300  1
  H  H6  1  0.79803800  0.33410700  0.31867200  1
  H  H7  1  0.29803800  0.66589300  0.18132800  1
  H  H8  1  0.70196200  0.33410700  0.81867200  1
  H  H9  1  0.52335100  0.07784900  0.62926700  1
  H  H10  1  0.02335100  0.92215100  0.87073300  1
  H  H11  1  0.97294800  0.14145900  0.82691700  1
  O  O0  1  0.99754800  0.05402100  0.76614700  1
  O  O1  1  0.19498600  0.37107600  0.07637800  1
  O  O2  1  0.30501400  0.37107600  0.57637800  1
  O  O3  1  0.43152900  0.70264500  0.57894500  1
  O  O4  1  0.69498600  0.62892400  0.42362200  1
  O  O5  1  0.93152900  0.29735500  0.92105500  1
  O  O6  1  0.80501400  0.62892400  0.92362200  1
  O  O7  1  0.90856400  0.30857700  0.29695600  1
  O  O8  1  0.06847100  0.70264500  0.07894500  1
  O  O9  1  0.56847100  0.29735500  0.42105500  1
  O  O10  1  0.40856400  0.69142300  0.20304400  1
  O  O11  1  0.09143600  0.69142300  0.70304400  1
  O  O12  1  0.00245200  0.94597900  0.23385300  1
  O  O13  1  0.50245200  0.05402100  0.26614700  1
  O  O14  1  0.49754800  0.94597900  0.73385300  1
  O  O15  1  0.59143600  0.30857700  0.79695600  1
loop_
_geom_bond_atom_site_label_1
_geom_bond_atom_site_label_2
_geom_bond_distance
_geom_bond_site_symmetry_2
K0 O1 2.813955 1_555
K0 O0 2.854471 1_455
K0 O7 2.870774 1_455
K0 O11 2.880715 1_545
K0 O2 2.892043 1_555
K0 O12 2.910952 1_545
K1 O6 2.813955 1_555
K1 O12 2.854471 1_655
K1 O11 2.870774 1_655
K1 O7 2.880715 1_565
K1 O4 2.892043 1_555
K1 O0 2.910952 1_565
K2 O2 2.813955 1_555
K2 O13 2.854471 1_556
K2 O15 2.870774 1_555
K2 O10 2.880715 1_546
K2 O1 2.892043 1_556
K2 O14 2.910952 1_545
K3 O4 2.813955 1_555
K3 O14 2.854471 1_554
K3 O10 2.870774 1_555
K3 O15 2.880715 1_564
K3 O6 2.892043 1_554
K3 O13 2.910952 1_565
K4 O15 2.718993 1_554
K4 O10 2.718993 1_555
K4 O6 2.729190 1_554
K4 O1 2.729190 1_555
K4 O9 3.031026 1_555
K4 O3 3.031026 1_554
K5 O11 2.718993 1_555
K5 O7 2.718993 1_455
K5 O4 2.729190 1_455
K5 O2 2.729190 1_555
K5 O8 3.031026 1_555
K5 O5 3.031026 1_455
H0 O12 0.998518 1_645
H0 O5 1.785156 1_554
H0 K3 2.939379 1_545
H1 O13 0.998518 1_565
H1 O3 1.785156 1_555
H1 K0 2.939379 1_565
H2 O13 1.002036 1_555
H2 O9 1.696438 1_555
H2 K4 2.805790 1_555
H2 K0 2.989432 1_555
H2 K1 2.994561 1_545
H3 O12 1.002036 1_555
H3 O8 1.696438 1_555
H3 K5 2.805790 1_555
H3 K3 2.989432 1_455
H3 K2 2.994561 1_564
H4 O11 0.985043 1_555
H4 O3 2.072864 1_555
H4 K5 2.861224 1_555
H4 K0 2.886024 1_565
H5 O14 1.002029 1_555
H5 O3 1.696444 1_555
H5 K4 2.805786 1_556
H5 K1 2.989434 1_555
H5 K0 2.994563 1_565
H6 O7 0.985043 1_555
H6 O9 2.072864 1_555
H6 K5 2.861224 1_655
H6 K1 2.886024 1_545
H7 O10 0.985043 1_555
H7 O8 2.072864 1_555
H7 K4 2.861224 1_555
H7 K2 2.886024 1_564
H8 O15 0.985043 1_555
H8 O5 2.072864 1_555
H8 K4 2.861224 1_556
H8 K3 2.886024 1_546
H9 O14 0.998518 1_545
H9 O9 1.785156 1_555
H9 K1 2.939379 1_545
H10 O0 0.998518 1_465
H10 O8 1.785156 1_556
H10 K2 2.939379 1_565
H11 O0 1.002029 1_555
H11 O5 1.696444 1_555
H11 K5 2.805786 1_655
H11 K2 2.989434 1_655
H11 K3 2.994563 1_546
O1 Pu0 1.875177 1_555
O2 Pu1 1.875177 1_555
O3 Pu1 1.992726 1_555
O4 Pu1 1.875177 1_555
O5 Pu0 1.992726 1_656
O6 Pu0 1.875177 1_656
O7 Pu0 2.272947 1_655
O8 Pu0 1.992726 1_555
O9 Pu1 1.992726 1_555
O10 Pu1 2.272947 1_555
O11 Pu0 2.272947 1_556
O15 Pu1 2.272947 1_555
