# generated using pymatgen
data_BiSeClO3
_symmetry_space_group_name_H-M   'P 1'
_cell_length_a   6.45025506
_cell_length_b   7.93213600
_cell_length_c   8.64780763
_cell_angle_alpha   90.00000000
_cell_angle_beta   90.00000000
_cell_angle_gamma   90.00000000
_symmetry_Int_Tables_number   1
_chemical_formula_structural   BiSeClO3
_chemical_formula_sum   'Bi4 Se4 Cl4 O12'
_cell_volume   442.45902713
_cell_formula_units_Z   4
loop_
 _symmetry_equiv_pos_site_id
 _symmetry_equiv_pos_as_xyz
  1  'x, y, z'
loop_
 _atom_site_type_symbol
 _atom_site_label
 _atom_site_symmetry_multiplicity
 _atom_site_fract_x
 _atom_site_fract_y
 _atom_site_fract_z
 _atom_site_occupancy
  Bi  Bi0  1  0.96653164  0.80336022  0.82914901  1
  Bi  Bi1  1  0.46653164  0.69663978  0.17085099  1
  Bi  Bi2  1  0.53346836  0.19663978  0.32914901  1
  Bi  Bi3  1  0.03346836  0.30336022  0.67085099  1
  Se  Se0  1  0.84936489  0.90527271  0.44969604  1
  Se  Se1  1  0.34936489  0.59472729  0.55030396  1
  Se  Se2  1  0.15063511  0.40527271  0.05030396  1
  Se  Se3  1  0.65063511  0.09472729  0.94969604  1
  Cl  Cl0  1  0.75740918  0.48521594  0.35371787  1
  Cl  Cl1  1  0.24259082  0.98521594  0.14628213  1
  Cl  Cl2  1  0.74259082  0.51478406  0.85371787  1
  Cl  Cl3  1  0.25740918  0.01478406  0.64628213  1
  O  O0  1  0.11810702  0.60915354  0.64890783  1
  O  O1  1  0.16470723  0.62308789  0.03340100  1
  O  O2  1  0.26306544  0.65772279  0.37253233  1
  O  O3  1  0.61810702  0.89084646  0.35109217  1
  O  O4  1  0.76306544  0.84227721  0.62746767  1
  O  O5  1  0.33529277  0.37691211  0.53340100  1
  O  O6  1  0.73693456  0.15772279  0.12746767  1
  O  O7  1  0.83529277  0.12308789  0.46659900  1
  O  O8  1  0.66470723  0.87691211  0.96659900  1
  O  O9  1  0.88189298  0.10915354  0.85109217  1
  O  O10  1  0.38189298  0.39084646  0.14890783  1
  O  O11  1  0.23693456  0.34227721  0.87253233  1
loop_
_geom_bond_atom_site_label_1
_geom_bond_atom_site_label_2
_geom_bond_distance
_geom_bond_site_symmetry_2
Bi0 O4 2.204450 1_555
Bi0 O8 2.354454 1_555
Bi0 O0 2.399682 1_655
Bi0 O9 2.493505 1_565
Bi0 O1 2.607427 1_656
Bi0 Cl2 2.715012 1_555
Bi0 Cl3 2.972128 1_665
Bi0 Cl1 3.573917 1_656
Bi1 O2 2.204450 1_555
Bi1 O1 2.354454 1_555
Bi1 O3 2.399682 1_555
Bi1 O10 2.493505 1_555
Bi1 O8 2.607427 1_554
Bi1 Cl1 2.715012 1_555
Bi1 Cl0 2.972128 1_555
Bi1 Cl2 3.573917 1_554
Bi2 O6 2.204450 1_555
Bi2 O7 2.354454 1_555
Bi2 O10 2.399682 1_555
Bi2 O3 2.493505 1_545
Bi2 O5 2.607427 1_555
Bi2 Cl0 2.715012 1_555
Bi2 Cl1 2.972128 1_545
Bi2 Cl3 3.573917 1_555
Bi3 O11 2.204450 1_555
Bi3 O5 2.354454 1_555
Bi3 O9 2.399682 1_455
Bi3 O0 2.493505 1_555
Bi3 O7 2.607427 1_455
Bi3 Cl3 2.715012 1_555
Bi3 Cl2 2.972128 1_455
Bi3 Cl0 3.573917 1_455
Cl0 O7 3.075102 1_555
Cl0 O10 3.092614 1_555
Cl0 O5 3.250528 1_555
Cl0 Se1 3.251472 1_555
Cl0 O6 3.254804 1_555
Cl0 O3 3.340702 1_555
Cl0 Se0 3.484622 1_555
Cl0 O2 3.540757 1_655
Cl0 O0 3.591102 1_655
Cl0 O4 3.691517 1_555
Cl0 Se2 3.704071 1_655
Cl1 O1 3.075102 1_555
Cl1 O3 3.092614 1_555
Cl1 O8 3.250528 1_554
Cl1 Se3 3.251472 1_564
Cl1 O2 3.254804 1_555
Cl1 O10 3.340702 1_565
Cl1 Se2 3.484622 1_565
Cl1 O6 3.540757 1_465
Cl1 O9 3.591102 1_464
Cl1 O11 3.691517 1_564
Cl1 Se0 3.704071 1_455
Cl2 O8 3.075102 1_555
Cl2 O0 3.092614 1_655
Cl2 O1 3.250528 1_656
Cl2 Se2 3.251472 1_656
Cl2 O4 3.254804 1_555
Cl2 O9 3.340702 1_555
Cl2 Se3 3.484622 1_555
Cl2 O11 3.540757 1_555
Cl2 O10 3.591102 1_556
Cl2 O6 3.691517 1_556
Cl2 Se1 3.704071 1_555
Cl3 O5 3.075102 1_555
Cl3 O9 3.092614 1_455
Cl3 O7 3.250528 1_455
Cl3 Se0 3.251472 1_445
Cl3 O11 3.254804 1_555
Cl3 O0 3.340702 1_545
Cl3 Se1 3.484622 1_545
Cl3 O4 3.540757 1_545
Cl3 O3 3.591102 1_545
Cl3 O2 3.691517 1_545
Cl3 Se3 3.704071 1_555
O0 Se1 1.722002 1_555
O1 Se2 1.736286 1_555
O2 Se1 1.709664 1_555
O3 Se0 1.722002 1_555
O4 Se0 1.709664 1_555
O5 Se1 1.736286 1_555
O6 Se3 1.709664 1_554
O7 Se0 1.736286 1_545
O8 Se3 1.736286 1_565
O9 Se3 1.722002 1_555
O10 Se2 1.722002 1_555
O11 Se2 1.709664 1_556
