# generated using pymatgen
data_K2WC2O9
_symmetry_space_group_name_H-M   'P 1'
_cell_length_a   9.08330800
_cell_length_b   7.19929100
_cell_length_c   15.31434754
_cell_angle_alpha   64.90248457
_cell_angle_beta   90.00000000
_cell_angle_gamma   90.00000000
_symmetry_Int_Tables_number   1
_chemical_formula_structural   K2WC2O9
_chemical_formula_sum   'K8 W4 C8 O36'
_cell_volume   906.90655229
_cell_formula_units_Z   4
loop_
 _symmetry_equiv_pos_site_id
 _symmetry_equiv_pos_as_xyz
  1  'x, y, z'
loop_
 _atom_site_type_symbol
 _atom_site_label
 _atom_site_symmetry_multiplicity
 _atom_site_fract_x
 _atom_site_fract_y
 _atom_site_fract_z
 _atom_site_occupancy
  K  K0  1  0.07038700  0.49267900  0.27004600  1
  K  K1  1  0.84893100  0.79182900  0.97610700  1
  K  K2  1  0.57038700  0.50732100  0.22995400  1
  K  K3  1  0.34893100  0.20817100  0.52389300  1
  K  K4  1  0.92961300  0.50732100  0.72995400  1
  K  K5  1  0.65106900  0.79182900  0.47610700  1
  K  K6  1  0.15106900  0.20817100  0.02389300  1
  K  K7  1  0.42961300  0.49267900  0.77004600  1
  W  W0  1  0.70375100  0.09634800  0.66713700  1
  W  W1  1  0.20375100  0.90365200  0.83286300  1
  W  W2  1  0.79624900  0.09634800  0.16713700  1
  W  W3  1  0.29624900  0.90365200  0.33286300  1
  C  C0  1  0.28969000  0.70147200  0.04555200  1
  C  C1  1  0.56648000  0.25533000  0.01551500  1
  C  C2  1  0.78969000  0.29852800  0.45444800  1
  C  C3  1  0.93352000  0.25533000  0.51551500  1
  C  C4  1  0.21031000  0.70147200  0.54555200  1
  C  C5  1  0.06648000  0.74467000  0.48448500  1
  C  C6  1  0.71031000  0.29852800  0.95444800  1
  C  C7  1  0.43352000  0.74467000  0.98448500  1
  O  O0  1  0.58752600  0.17456600  0.10925200  1
  O  O1  1  0.82832200  0.22939100  0.00556600  1
  O  O2  1  0.76710500  0.00528500  0.78668300  1
  O  O3  1  0.93286200  0.88102900  0.16884100  1
  O  O4  1  0.23289500  0.99471500  0.21331700  1
  O  O5  1  0.17384000  0.60532700  0.86318200  1
  O  O6  1  0.79662900  0.39088200  0.36547400  1
  O  O7  1  0.32832200  0.77060900  0.49443400  1
  O  O8  1  0.17167800  0.77060900  0.99443400  1
  O  O9  1  0.72091600  0.84176500  0.64493700  1
  O  O10  1  0.67384000  0.39467300  0.63681800  1
  O  O11  1  0.29662900  0.60911800  0.13452600  1
  O  O12  1  0.46541300  0.72864700  0.33483400  1
  O  O13  1  0.22091600  0.15823500  0.85506300  1
  O  O14  1  0.05585900  0.29496100  0.47716700  1
  O  O15  1  0.53458700  0.27135300  0.66516600  1
  O  O16  1  0.67167800  0.22939100  0.50556600  1
  O  O17  1  0.26710500  0.99471500  0.71331700  1
  O  O18  1  0.82616000  0.39467300  0.13681800  1
  O  O19  1  0.94414100  0.70503900  0.52283300  1
  O  O20  1  0.73289500  0.00528500  0.28668300  1
  O  O21  1  0.08752600  0.82543400  0.39074800  1
  O  O22  1  0.96541300  0.27135300  0.16516600  1
  O  O23  1  0.91247400  0.17456600  0.60925200  1
  O  O24  1  0.77908400  0.84176500  0.14493700  1
  O  O25  1  0.43286200  0.11897100  0.33115900  1
  O  O26  1  0.56713800  0.88102900  0.66884100  1
  O  O27  1  0.27908400  0.15823500  0.35506300  1
  O  O28  1  0.03458700  0.72864700  0.83483400  1
  O  O29  1  0.70337100  0.39088200  0.86547400  1
  O  O30  1  0.41247400  0.82543400  0.89074800  1
  O  O31  1  0.44414100  0.29496100  0.97716700  1
  O  O32  1  0.55585900  0.70503900  0.02283300  1
  O  O33  1  0.20337100  0.60911800  0.63452600  1
  O  O34  1  0.32616000  0.60532700  0.36318200  1
  O  O35  1  0.06713800  0.11897100  0.83115900  1
loop_
_geom_bond_atom_site_label_1
_geom_bond_atom_site_label_2
_geom_bond_distance
_geom_bond_site_symmetry_2
K0 O11 2.785184 1_555
K0 O6 2.819146 1_455
K0 O3 2.846643 1_455
K0 O22 2.863376 1_455
K0 O14 2.876541 1_555
K0 O27 2.902864 1_555
K0 O34 3.011795 1_555
K0 O18 3.286812 1_455
K0 O21 3.596737 1_555
K1 O2 2.747267 1_565
K1 O32 2.758577 1_556
K1 O24 2.829346 1_556
K1 O18 2.881968 1_556
K1 O28 2.926830 1_655
K1 O8 2.942801 1_655
K1 O35 3.157186 1_665
K1 O1 3.371578 1_566
K2 O6 2.785184 1_555
K2 O11 2.819146 1_555
K2 O25 2.846643 1_555
K2 O12 2.863376 1_555
K2 O32 2.876541 1_555
K2 O24 2.902864 1_555
K2 O18 3.011795 1_555
K2 O34 3.286812 1_555
K2 O0 3.596737 1_555
K3 O17 2.747267 1_545
K3 O14 2.758577 1_555
K3 O27 2.829346 1_555
K3 O34 2.881968 1_555
K3 O15 2.926830 1_555
K3 O16 2.942801 1_555
K3 O26 3.157186 1_545
K3 O7 3.371578 1_545
K4 O29 2.785184 1_555
K4 O33 2.819146 1_655
K4 O35 2.846643 1_655
K4 O28 2.863376 1_655
K4 O19 2.876541 1_555
K4 O9 2.902864 1_555
K4 O10 3.011795 1_555
K4 O5 3.286812 1_655
K4 O23 3.596737 1_555
K5 O20 2.747267 1_565
K5 O19 2.758577 1_555
K5 O9 2.829346 1_555
K5 O10 2.881968 1_555
K5 O12 2.926830 1_555
K5 O7 2.942801 1_555
K5 O25 3.157186 1_565
K5 O16 3.371578 1_565
K6 O4 2.747267 1_545
K6 O31 2.758577 1_554
K6 O13 2.829346 1_554
K6 O5 2.881968 1_554
K6 O22 2.926830 1_455
K6 O1 2.942801 1_455
K6 O3 3.157186 1_445
K6 O8 3.371578 1_544
K7 O33 2.785184 1_555
K7 O29 2.819146 1_555
K7 O26 2.846643 1_555
K7 O15 2.863376 1_555
K7 O31 2.876541 1_555
K7 O13 2.902864 1_555
K7 O5 3.011795 1_555
K7 O10 3.286812 1_555
K7 O30 3.596737 1_555
C0 O11 1.238597 1_555
C0 O8 1.295796 1_554
C0 C7 1.559297 1_554
C1 O31 1.232483 1_554
C1 O0 1.314257 1_555
C1 C6 1.559297 1_554
C2 O6 1.238597 1_555
C2 O16 1.295796 1_555
C2 C3 1.559297 1_555
C3 O14 1.232483 1_655
C3 O23 1.314257 1_555
C4 O33 1.238597 1_555
C4 O7 1.295796 1_555
C4 C5 1.559297 1_555
C5 O19 1.232483 1_455
C5 O21 1.314257 1_555
C6 O29 1.238597 1_555
C6 O1 1.295796 1_556
C7 O32 1.232483 1_556
C7 O30 1.314257 1_555
O0 W2 2.067336 1_555
O1 W2 2.261463 1_555
O2 W0 1.759116 1_555
O3 W2 1.977154 1_565
O4 W3 1.759116 1_555
O5 W1 2.013995 1_555
O7 W3 2.261463 1_555
O8 W1 2.261463 1_555
O9 W0 2.006917 1_565
O10 O15 1.499879 1_555
O10 W0 2.013995 1_555
O12 O34 1.499879 1_555
O12 W3 1.979159 1_555
O13 O35 1.500928 1_555
O13 W1 2.006917 1_545
O15 W0 1.979159 1_555
O16 W0 2.261463 1_555
O17 W1 1.759116 1_555
O18 O22 1.499879 1_555
O18 W2 2.013995 1_555
O20 W2 1.759116 1_555
O21 W3 2.067336 1_555
O22 W2 1.979159 1_555
O23 W0 2.067336 1_555
O24 O3 1.500928 1_555
O24 W2 2.006917 1_565
O25 O27 1.500928 1_555
O25 W3 1.977154 1_545
O26 O9 1.500928 1_555
O26 W0 1.977154 1_565
O27 W3 2.006917 1_545
O28 O5 1.499879 1_555
O28 W1 1.979159 1_555
O30 W1 2.067336 1_555
O34 W3 2.013995 1_555
O35 W1 1.977154 1_545
