# generated using pymatgen
data_RbSb2C2O4F5
_symmetry_space_group_name_H-M   'P 1'
_cell_length_a   6.15305000
_cell_length_b   6.65900900
_cell_length_c   23.13776500
_cell_angle_alpha   90.00000000
_cell_angle_beta   90.00000000
_cell_angle_gamma   90.00000000
_symmetry_Int_Tables_number   1
_chemical_formula_structural   RbSb2C2O4F5
_chemical_formula_sum   'Rb4 Sb8 C8 O16 F20'
_cell_volume   948.02862754
_cell_formula_units_Z   4
loop_
 _symmetry_equiv_pos_site_id
 _symmetry_equiv_pos_as_xyz
  1  'x, y, z'
loop_
 _atom_site_type_symbol
 _atom_site_label
 _atom_site_symmetry_multiplicity
 _atom_site_fract_x
 _atom_site_fract_y
 _atom_site_fract_z
 _atom_site_occupancy
  Rb  Rb0  1  0.47758000  0.00528400  0.50390200  1
  Rb  Rb1  1  0.97758000  0.49471600  0.49609800  1
  Rb  Rb2  1  0.02242000  0.99471600  0.00390200  1
  Rb  Rb3  1  0.52242000  0.50528400  0.99609800  1
  Sb  Sb0  1  0.48780400  0.99083000  0.88529300  1
  Sb  Sb1  1  0.53498700  0.54889800  0.35736700  1
  Sb  Sb2  1  0.51219600  0.49083000  0.61470700  1
  Sb  Sb3  1  0.96501300  0.45110200  0.85736700  1
  Sb  Sb4  1  0.98780400  0.50917000  0.11470700  1
  Sb  Sb5  1  0.03498700  0.95110200  0.64263300  1
  Sb  Sb6  1  0.46501300  0.04889800  0.14263300  1
  Sb  Sb7  1  0.01219600  0.00917000  0.38529300  1
  C  C0  1  0.67932600  0.44347700  0.23541300  1
  C  C1  1  0.68211100  0.37524600  0.75503000  1
  C  C2  1  0.17932600  0.05652300  0.76458700  1
  C  C3  1  0.32067400  0.94347700  0.26458700  1
  C  C4  1  0.18211100  0.12475400  0.24497000  1
  C  C5  1  0.82067400  0.55652300  0.73541300  1
  C  C6  1  0.81788900  0.62475400  0.25503000  1
  C  C7  1  0.31788900  0.87524600  0.74497000  1
  O  O0  1  0.69654300  0.38193900  0.18407900  1
  O  O1  1  0.05203300  0.20536400  0.27816300  1
  O  O2  1  0.78536100  0.68146600  0.30868600  1
  O  O3  1  0.21463900  0.18146600  0.19131400  1
  O  O4  1  0.28536100  0.81853400  0.69131400  1
  O  O5  1  0.55203300  0.29463600  0.72183700  1
  O  O6  1  0.19654300  0.11806100  0.81592100  1
  O  O7  1  0.55280900  0.36854400  0.27338200  1
  O  O8  1  0.94719100  0.63145600  0.77338200  1
  O  O9  1  0.94796700  0.70536400  0.22183700  1
  O  O10  1  0.80345700  0.61806100  0.68407900  1
  O  O11  1  0.30345700  0.88193900  0.31592100  1
  O  O12  1  0.71463900  0.31853400  0.80868600  1
  O  O13  1  0.44796700  0.79463600  0.77816300  1
  O  O14  1  0.05280900  0.13145600  0.72661800  1
  O  O15  1  0.44719100  0.86854400  0.22661800  1
  F  F0  1  0.75106200  0.70302000  0.09698500  1
  F  F1  1  0.74500800  0.34593500  0.38773800  1
  F  F2  1  0.17881700  0.76565900  0.58297700  1
  F  F3  1  0.32118300  0.23434100  0.08297700  1
  F  F4  1  0.74893800  0.29698000  0.59698500  1
  F  F5  1  0.57720000  0.92735800  0.96800800  1
  F  F6  1  0.82118300  0.26565900  0.91702300  1
  F  F7  1  0.24500800  0.15406500  0.61226200  1
  F  F8  1  0.07720000  0.57264200  0.03199200  1
  F  F9  1  0.24893800  0.20302000  0.40301500  1
  F  F10  1  0.25499200  0.84593500  0.11226200  1
  F  F11  1  0.25106200  0.79698000  0.90301500  1
  F  F12  1  0.31893300  0.20848000  0.92461900  1
  F  F13  1  0.75499200  0.65406500  0.88773800  1
  F  F14  1  0.67881700  0.73434100  0.41702300  1
  F  F15  1  0.81893300  0.29152000  0.07538100  1
  F  F16  1  0.18106700  0.79152000  0.42461900  1
  F  F17  1  0.92280000  0.07264200  0.46800800  1
  F  F18  1  0.42280000  0.42735800  0.53199200  1
  F  F19  1  0.68106700  0.70848000  0.57538100  1
loop_
_geom_bond_atom_site_label_1
_geom_bond_atom_site_label_2
_geom_bond_distance
_geom_bond_site_symmetry_2
C0 O0 1.260914 1_555
C0 O7 1.275454 1_555
C0 C6 1.545986 1_555
C1 O5 1.232307 1_555
C1 O12 1.312992 1_555
C1 C5 1.545986 1_555
C2 O6 1.260914 1_555
C2 O14 1.275454 1_555
C2 C7 1.545986 1_545
C3 O11 1.260914 1_555
C3 O15 1.275454 1_555
C3 C4 1.545986 1_565
C4 O1 1.232307 1_555
C4 O3 1.312992 1_555
C5 O10 1.260914 1_555
C5 O8 1.275454 1_555
C6 O9 1.232307 1_555
C6 O2 1.312992 1_555
C7 O13 1.232307 1_555
C7 O4 1.312992 1_555
O0 Sb4 2.550680 1_555
O2 Sb1 2.102696 1_555
O3 Sb6 2.102696 1_555
O4 Sb5 2.102696 1_555
O6 Sb0 2.550680 1_545
O7 Sb1 2.287029 1_555
O8 Sb3 2.287029 1_555
O10 Sb2 2.550680 1_555
O11 Sb7 2.550680 1_565
O12 Sb3 2.102696 1_555
O14 Sb5 2.287029 1_545
O15 Sb6 2.287029 1_565
F0 Sb4 1.989061 1_555
F0 F8 2.653707 1_655
F0 Rb3 3.026869 1_554
F0 Rb2 3.346541 1_655
F1 Sb1 1.997602 1_555
F1 F14 2.704526 1_555
F1 Sb7 2.781170 1_655
F1 F17 2.821009 1_555
F1 Rb1 3.052128 1_555
F2 Sb5 2.052646 1_555
F2 O4 2.614798 1_555
F2 F7 2.704526 1_565
F2 Sb2 2.845354 1_555
F2 Rb1 2.971400 1_455
F2 Rb0 3.045162 1_565
F3 Sb6 2.052646 1_555
F3 O3 2.614798 1_555
F3 Sb4 2.845354 1_455
F3 Rb3 2.971400 1_554
F3 Rb2 3.045162 1_545
F4 Sb2 1.989061 1_555
F4 Rb1 3.026869 1_555
F4 Rb0 3.346541 1_555
F5 Sb0 2.035679 1_555
F5 Rb2 2.897512 1_656
F5 Rb3 2.904389 1_555
F5 Rb2 3.541683 1_556
F6 Sb3 2.052646 1_555
F6 O12 2.614798 1_555
F6 Sb0 2.845354 1_545
F6 Rb2 2.971400 1_646
F6 Rb3 3.045162 1_555
F7 Sb5 1.997602 1_545
F7 Sb2 2.781170 1_555
F7 Rb0 3.052128 1_555
F8 Sb4 2.035679 1_455
F8 Rb3 2.897512 1_554
F8 Rb2 2.904389 1_555
F8 Rb3 3.541683 1_454
F9 Sb7 1.989061 1_555
F9 Rb0 3.026869 1_555
F9 Rb1 3.346541 1_455
F10 Sb6 1.997602 1_565
F10 F3 2.704526 1_565
F10 Sb4 2.781170 1_455
F10 F8 2.821009 1_555
F10 Rb2 3.052128 1_555
F11 Sb0 1.989061 1_555
F11 F5 2.653707 1_555
F11 Rb2 3.026869 1_556
F11 Rb3 3.346541 1_555
F12 Sb0 2.002045 1_545
F12 F5 2.652840 1_545
F12 O6 2.693513 1_555
F12 Rb3 2.865166 1_555
F12 Rb2 2.952968 1_546
F13 Sb3 1.997602 1_555
F13 F6 2.704526 1_555
F13 Sb0 2.781170 1_555
F13 F5 2.821009 1_555
F13 Rb3 3.052128 1_555
F14 Sb1 2.052646 1_555
F14 O2 2.614798 1_555
F14 Sb7 2.845354 1_665
F14 Rb0 2.971400 1_565
F14 Rb1 3.045162 1_555
F15 Sb4 2.002045 1_555
F15 F8 2.652840 1_655
F15 O0 2.693513 1_555
F15 Rb2 2.865166 1_645
F15 Rb3 2.952968 1_554
F16 Sb7 2.002045 1_565
F16 F17 2.652840 1_465
F16 O11 2.693513 1_555
F16 Rb1 2.865166 1_455
F16 Rb0 2.952968 1_565
F17 Sb7 2.035679 1_655
F17 F9 2.653707 1_655
F17 Rb0 2.897512 1_555
F17 Rb1 2.904389 1_555
F17 Rb0 3.541683 1_655
F18 Sb2 2.035679 1_555
F18 F19 2.652840 1_555
F18 F4 2.653707 1_555
F18 F7 2.821009 1_555
F18 Rb1 2.897512 1_455
F18 Rb0 2.904389 1_555
F18 Rb1 3.541683 1_555
F19 Sb2 2.002045 1_555
F19 O10 2.693513 1_555
F19 Rb0 2.865166 1_565
F19 Rb1 2.952968 1_555
