# generated using pymatgen
data_BaSbClO2
_symmetry_space_group_name_H-M   'P 1'
_cell_length_a   7.20211073
_cell_length_b   7.20211073
_cell_length_c   5.59924500
_cell_angle_alpha   90.00000000
_cell_angle_beta   90.00000000
_cell_angle_gamma   131.18168673
_symmetry_Int_Tables_number   1
_chemical_formula_structural   BaSbClO2
_chemical_formula_sum   'Ba2 Sb2 Cl2 O4'
_cell_volume   218.58881380
_cell_formula_units_Z   2
loop_
 _symmetry_equiv_pos_site_id
 _symmetry_equiv_pos_as_xyz
  1  'x, y, z'
loop_
 _atom_site_type_symbol
 _atom_site_label
 _atom_site_symmetry_multiplicity
 _atom_site_fract_x
 _atom_site_fract_y
 _atom_site_fract_z
 _atom_site_occupancy
  Ba  Ba0  1  0.37218400  0.62781600  0.25000000  1
  Ba  Ba1  1  0.62781600  0.37218400  0.75000000  1
  Sb  Sb0  1  0.06853900  0.93146100  0.25000000  1
  Sb  Sb1  1  0.93146100  0.06853900  0.75000000  1
  Cl  Cl0  1  0.25302300  0.74697700  0.75000000  1
  Cl  Cl1  1  0.74697700  0.25302300  0.25000000  1
  O  O0  1  0.21694900  0.21694900  0.50000000  1
  O  O1  1  0.78305100  0.78305100  0.00000000  1
  O  O2  1  0.21694900  0.21694900  0.00000000  1
  O  O3  1  0.78305100  0.78305100  0.50000000  1
loop_
_geom_bond_atom_site_label_1
_geom_bond_atom_site_label_2
_geom_bond_distance
_geom_bond_site_symmetry_2
Ba0 O0 2.758445 1_555
Ba0 O2 2.758445 1_555
Ba0 O3 2.758445 1_555
Ba0 O1 2.758445 1_555
Ba0 Cl0 3.206379 1_555
Ba0 Cl0 3.206379 1_554
Ba0 Cl1 3.399319 1_455
Ba0 Cl1 3.399319 1_565
Ba1 O0 2.758445 1_555
Ba1 O2 2.758445 1_556
Ba1 O3 2.758445 1_555
Ba1 O1 2.758445 1_556
Ba1 Cl1 3.206379 1_556
Ba1 Cl1 3.206379 1_555
Ba1 Cl0 3.399319 1_545
Ba1 Cl0 3.399319 1_655
Cl0 Sb0 3.700467 1_555
Cl0 Sb0 3.700467 1_556
Cl0 Sb1 3.786324 1_455
Cl0 Sb1 3.786324 1_565
Cl1 Sb1 3.700467 1_554
Cl1 Sb1 3.700467 1_555
Cl1 Sb0 3.786324 1_545
Cl1 Sb0 3.786324 1_655
O0 Sb1 2.106038 1_455
O0 Sb0 2.106038 1_545
O0 O3 2.582797 1_445
O0 O2 2.799622 1_555
O0 O2 2.799622 1_556
O1 Sb0 2.106038 1_655
O1 Sb1 2.106038 1_564
O1 O2 2.582797 1_665
O1 O3 2.799622 1_555
O1 O3 2.799622 1_554
O2 Sb1 2.106038 1_454
O2 Sb0 2.106038 1_545
O3 Sb0 2.106038 1_655
O3 Sb1 2.106038 1_565
