# generated using pymatgen
data_Ca3Mg(SiO4)2
_symmetry_space_group_name_H-M   'P 1'
_cell_length_a   5.35133500
_cell_length_b   9.46807500
_cell_length_c   13.39481237
_cell_angle_alpha   87.64310057
_cell_angle_beta   90.00000000
_cell_angle_gamma   90.00000000
_symmetry_Int_Tables_number   1
_chemical_formula_structural   Ca3Mg(SiO4)2
_chemical_formula_sum   'Ca12 Mg4 Si8 O32'
_cell_volume   678.09870560
_cell_formula_units_Z   4
loop_
 _symmetry_equiv_pos_site_id
 _symmetry_equiv_pos_as_xyz
  1  'x, y, z'
loop_
 _atom_site_type_symbol
 _atom_site_label
 _atom_site_symmetry_multiplicity
 _atom_site_fract_x
 _atom_site_fract_y
 _atom_site_fract_z
 _atom_site_occupancy
  Ca  Ca0  1  0.25907600  0.42313100  0.90230300  1
  Ca  Ca1  1  0.67658300  0.22295400  0.24353800  1
  Ca  Ca2  1  0.82341700  0.22295400  0.74353800  1
  Ca  Ca3  1  0.32341700  0.77704600  0.75646200  1
  Ca  Ca4  1  0.76834300  0.92427500  0.91934600  1
  Ca  Ca5  1  0.24092400  0.42313100  0.40230300  1
  Ca  Ca6  1  0.17658300  0.77704600  0.25646200  1
  Ca  Ca7  1  0.73165700  0.92427500  0.41934600  1
  Ca  Ca8  1  0.23165700  0.07572500  0.08065400  1
  Ca  Ca9  1  0.75907600  0.57686900  0.59769700  1
  Ca  Ca10  1  0.74092400  0.57686900  0.09769700  1
  Ca  Ca11  1  0.26834300  0.07572500  0.58065400  1
  Mg  Mg0  1  0.74256600  0.25356800  0.99566000  1
  Mg  Mg1  1  0.75743400  0.25356800  0.49566000  1
  Mg  Mg2  1  0.24256600  0.74643200  0.50434000  1
  Mg  Mg3  1  0.25743400  0.74643200  0.00434000  1
  Si  Si0  1  0.77303400  0.90599900  0.64142100  1
  Si  Si1  1  0.77180100  0.60195500  0.86756000  1
  Si  Si2  1  0.22696600  0.09400100  0.35857900  1
  Si  Si3  1  0.72696600  0.90599900  0.14142100  1
  Si  Si4  1  0.27180100  0.39804500  0.63244000  1
  Si  Si5  1  0.72819900  0.60195500  0.36756000  1
  Si  Si6  1  0.27303400  0.09400100  0.85857900  1
  Si  Si7  1  0.22819900  0.39804500  0.13244000  1
  O  O0  1  0.02943400  0.81415600  0.62780700  1
  O  O1  1  0.58456500  0.69633600  0.93750300  1
  O  O2  1  0.08456500  0.30366400  0.56249700  1
  O  O3  1  0.18577500  0.06969000  0.74468400  1
  O  O4  1  0.52943400  0.18584400  0.87219300  1
  O  O5  1  0.31422500  0.06969000  0.24468400  1
  O  O6  1  0.04359800  0.17596000  0.91701800  1
  O  O7  1  0.86147900  0.59707200  0.25864100  1
  O  O8  1  0.91543500  0.69633600  0.43750300  1
  O  O9  1  0.29707300  0.94150600  0.92348300  1
  O  O10  1  0.97056600  0.18584400  0.37219300  1
  O  O11  1  0.45640200  0.17596000  0.41701800  1
  O  O12  1  0.79707300  0.05849400  0.57651700  1
  O  O13  1  0.94900700  0.32320700  0.12580500  1
  O  O14  1  0.68577500  0.93031000  0.75531600  1
  O  O15  1  0.13852100  0.40292800  0.74135900  1
  O  O16  1  0.21065300  0.55342500  0.07306500  1
  O  O17  1  0.20292700  0.94150600  0.42348300  1
  O  O18  1  0.78934700  0.44657500  0.92693500  1
  O  O19  1  0.41543500  0.30366400  0.06249700  1
  O  O20  1  0.05099300  0.67679300  0.87419500  1
  O  O21  1  0.36147900  0.40292800  0.24135900  1
  O  O22  1  0.54359800  0.82404000  0.58298200  1
  O  O23  1  0.71065300  0.44657500  0.42693500  1
  O  O24  1  0.81422500  0.93031000  0.25531600  1
  O  O25  1  0.55099300  0.32320700  0.62580500  1
  O  O26  1  0.44900700  0.67679300  0.37419500  1
  O  O27  1  0.47056600  0.81415600  0.12780700  1
  O  O28  1  0.95640200  0.82404000  0.08298200  1
  O  O29  1  0.63852100  0.59707200  0.75864100  1
  O  O30  1  0.70292700  0.05849400  0.07651700  1
  O  O31  1  0.28934700  0.55342500  0.57306500  1
loop_
_geom_bond_atom_site_label_1
_geom_bond_atom_site_label_2
_geom_bond_distance
_geom_bond_site_symmetry_2
Ca0 O15 2.265885 1_555
Ca0 O19 2.526707 1_556
Ca0 O18 2.546120 1_455
Ca0 O6 2.609067 1_555
Ca0 O16 2.655736 1_556
Ca0 O20 2.659968 1_555
Ca0 O4 2.716210 1_555
Ca0 O18 2.866436 1_555
Ca1 O13 2.321661 1_555
Ca1 O10 2.349130 1_555
Ca1 O21 2.396615 1_555
Ca1 O5 2.421620 1_555
Ca1 O11 2.626969 1_555
Ca1 O30 2.781393 1_555
Ca1 O24 2.865077 1_545
Ca1 O19 2.874925 1_555
Ca2 O25 2.321661 1_555
Ca2 O4 2.349130 1_555
Ca2 O15 2.396615 1_655
Ca2 O3 2.421620 1_655
Ca2 O6 2.626969 1_655
Ca2 O12 2.781393 1_555
Ca2 O14 2.865077 1_545
Ca2 O2 2.874925 1_655
Ca3 O20 2.321661 1_555
Ca3 O0 2.349130 1_555
Ca3 O29 2.396615 1_555
Ca3 O14 2.421620 1_555
Ca3 O22 2.626969 1_555
Ca3 O9 2.781393 1_555
Ca3 O3 2.865077 1_565
Ca3 O1 2.874925 1_555
Ca4 O14 2.239563 1_555
Ca4 O1 2.375027 1_555
Ca4 O30 2.527785 1_566
Ca4 O9 2.527950 1_555
Ca4 O28 2.558644 1_556
Ca4 O6 2.800552 1_665
Ca4 O9 2.834784 1_655
Ca4 O4 2.835157 1_565
Ca4 O20 2.874132 1_655
Ca5 O21 2.265885 1_555
Ca5 O2 2.526707 1_555
Ca5 O23 2.546120 1_555
Ca5 O11 2.609067 1_555
Ca5 O31 2.655736 1_555
Ca5 O26 2.659968 1_555
Ca5 O10 2.716210 1_455
Ca5 O23 2.866436 1_455
Ca6 O26 2.321661 1_555
Ca6 O27 2.349130 1_555
Ca6 O7 2.396615 1_455
Ca6 O24 2.421620 1_455
Ca6 O28 2.626969 1_455
Ca6 O17 2.781393 1_555
Ca6 O5 2.865077 1_565
Ca6 O8 2.874925 1_455
Ca7 O24 2.239563 1_555
Ca7 O8 2.375027 1_555
Ca7 O12 2.527785 1_565
Ca7 O17 2.527950 1_655
Ca7 O22 2.558644 1_555
Ca7 O11 2.800552 1_565
Ca7 O17 2.834784 1_555
Ca7 O10 2.835157 1_565
Ca7 O26 2.874132 1_555
Ca8 O5 2.239563 1_555
Ca8 O19 2.375027 1_555
Ca8 O9 2.527785 1_544
Ca8 O30 2.527950 1_555
Ca8 O6 2.558644 1_554
Ca8 O28 2.800552 1_445
Ca8 O30 2.834784 1_455
Ca8 O27 2.835157 1_545
Ca8 O13 2.874132 1_455
Ca9 O29 2.265885 1_555
Ca9 O8 2.526707 1_555
Ca9 O31 2.546120 1_555
Ca9 O22 2.609067 1_555
Ca9 O23 2.655736 1_555
Ca9 O25 2.659968 1_555
Ca9 O0 2.716210 1_655
Ca9 O31 2.866436 1_655
Ca10 O7 2.265885 1_555
Ca10 O1 2.526707 1_554
Ca10 O16 2.546120 1_655
Ca10 O28 2.609067 1_555
Ca10 O18 2.655736 1_554
Ca10 O13 2.659968 1_555
Ca10 O27 2.716210 1_555
Ca10 O16 2.866436 1_555
Ca11 O3 2.239563 1_555
Ca11 O2 2.375027 1_555
Ca11 O17 2.527785 1_545
Ca11 O12 2.527950 1_455
Ca11 O11 2.558644 1_555
Ca11 O22 2.800552 1_545
Ca11 O12 2.834784 1_555
Ca11 O0 2.835157 1_545
Ca11 O25 2.874132 1_555
Mg0 O18 2.027596 1_555
Mg0 O19 2.031246 1_556
Mg0 O6 2.075646 1_655
Mg0 O30 2.113010 1_556
Mg0 O4 2.129395 1_555
Mg0 O13 2.188310 1_556
Mg1 O23 2.027596 1_555
Mg1 O2 2.031246 1_655
Mg1 O11 2.075646 1_555
Mg1 O12 2.113010 1_555
Mg1 O10 2.129395 1_555
Mg1 O25 2.188310 1_555
Mg2 O31 2.027596 1_555
Mg2 O8 2.031246 1_455
Mg2 O22 2.075646 1_555
Mg2 O17 2.113010 1_555
Mg2 O0 2.129395 1_555
Mg2 O26 2.188310 1_555
Mg3 O16 2.027596 1_555
Mg3 O1 2.031246 1_554
Mg3 O28 2.075646 1_455
Mg3 O9 2.113010 1_554
Mg3 O27 2.129395 1_555
Mg3 O20 2.188310 1_554
O0 Si0 1.638618 1_455
O1 Si1 1.658026 1_555
O2 Si4 1.658026 1_555
O3 Si6 1.620917 1_555
O4 Si6 1.638618 1_555
O5 Si2 1.620917 1_555
O6 Si6 1.665033 1_555
O7 Si5 1.626318 1_555
O8 Si5 1.658026 1_555
O9 Si6 1.659452 1_565
O10 Si2 1.638618 1_655
O11 Si2 1.665033 1_555
O12 Si0 1.659452 1_545
O13 Si7 1.657509 1_655
O14 Si0 1.620917 1_555
O15 Si4 1.626318 1_555
O16 Si7 1.646023 1_555
O17 Si2 1.659452 1_565
O18 Si1 1.646023 1_555
O19 Si7 1.658026 1_555
O20 Si1 1.657509 1_455
O21 Si7 1.626318 1_555
O22 Si0 1.665033 1_555
O23 Si5 1.646023 1_555
O24 Si3 1.620917 1_555
O25 Si4 1.657509 1_555
O26 Si5 1.657509 1_555
O27 Si3 1.638618 1_555
O28 Si3 1.665033 1_555
O29 Si1 1.626318 1_555
O30 Si3 1.659452 1_545
O31 Si4 1.646023 1_555
