# generated using pymatgen
data_Ba3Nb2CoO9
_symmetry_space_group_name_H-M   'P 1'
_cell_length_a   5.82066922
_cell_length_b   10.21541682
_cell_length_c   7.20620662
_cell_angle_alpha   91.32126926
_cell_angle_beta   89.97924671
_cell_angle_gamma   89.99775262
_symmetry_Int_Tables_number   1
_chemical_formula_structural   Ba3Nb2CoO9
_chemical_formula_sum   'Ba6 Nb4 Co2 O18'
_cell_volume   428.37114250
_cell_formula_units_Z   2
loop_
 _symmetry_equiv_pos_site_id
 _symmetry_equiv_pos_as_xyz
  1  'x, y, z'
loop_
 _atom_site_type_symbol
 _atom_site_label
 _atom_site_symmetry_multiplicity
 _atom_site_fract_x
 _atom_site_fract_y
 _atom_site_fract_z
 _atom_site_occupancy
  Ba  Ba0  1  0.00000000  0.00000000  0.00000000  1
  Ba  Ba1  1  0.50000000  0.50000000  0.00000000  1
  Ba  Ba2  1  0.49987400  0.16813000  0.33438700  1
  Ba  Ba3  1  0.99986600  0.66812100  0.33445300  1
  Ba  Ba4  1  0.00013300  0.33187900  0.66554700  1
  Ba  Ba5  1  0.50012500  0.83187000  0.66561200  1
  Nb  Nb0  1  0.99982800  0.33523800  0.17799300  1
  Nb  Nb1  1  0.49983000  0.83519500  0.17805500  1
  Nb  Nb2  1  0.50017100  0.16480500  0.82194500  1
  Nb  Nb3  1  0.00017200  0.66476200  0.82200700  1
  Co  Co0  1  0.50000000  0.50000000  0.50000000  1
  Co  Co1  1  0.00000000  0.00000000  0.50000000  1
  O  O0  1  0.50000000  0.00000000  0.00000000  1
  O  O1  1  0.00000000  0.50000000  0.00000000  1
  O  O2  1  0.24994400  0.25003500  0.00009000  1
  O  O3  1  0.75005700  0.74996500  0.99991000  1
  O  O4  1  0.75005500  0.25003500  0.00009000  1
  O  O5  1  0.24994600  0.74996500  0.99991100  1
  O  O6  1  0.99980400  0.17797900  0.32520000  1
  O  O7  1  0.49980500  0.67797600  0.32520000  1
  O  O8  1  0.50019600  0.32202400  0.67480000  1
  O  O9  1  0.00019700  0.82202100  0.67480000  1
  O  O10  1  0.75417200  0.41841600  0.32555400  1
  O  O11  1  0.25425600  0.91832400  0.32547000  1
  O  O12  1  0.25527600  0.08154400  0.67406500  1
  O  O13  1  0.75519100  0.58145800  0.67398600  1
  O  O14  1  0.74574400  0.08167600  0.67453100  1
  O  O15  1  0.24582800  0.58158400  0.67444700  1
  O  O16  1  0.24481000  0.41854200  0.32601400  1
  O  O17  1  0.74472400  0.91845600  0.32593500  1
loop_
_geom_bond_atom_site_label_1
_geom_bond_atom_site_label_2
_geom_bond_distance
_geom_bond_site_symmetry_2
Ba0 O0 2.910335 1_455
Ba0 O0 2.910335 1_555
Ba0 O14 2.912030 1_454
Ba0 O11 2.912036 1_545
Ba0 O12 2.916535 1_554
Ba0 O17 2.916535 1_445
Ba0 O6 2.932729 1_455
Ba0 O9 2.932729 1_544
Ba0 O4 2.939423 1_455
Ba0 O5 2.939426 1_544
Ba0 O3 2.939517 1_444
Ba0 O2 2.939520 1_555
Ba1 O1 2.910335 1_655
Ba1 O1 2.910335 1_555
Ba1 O15 2.911987 1_554
Ba1 O10 2.911993 1_555
Ba1 O16 2.916475 1_555
Ba1 O13 2.916478 1_554
Ba1 O7 2.932711 1_555
Ba1 O8 2.932711 1_554
Ba1 O5 2.939142 1_554
Ba1 O4 2.939145 1_555
Ba1 O2 2.939247 1_555
Ba1 O3 2.939250 1_554
Ba2 O8 2.882926 1_555
Ba2 O6 2.912451 1_555
Ba2 O6 2.913305 1_455
Ba2 O17 2.921051 1_545
Ba2 O11 2.924535 1_545
Ba2 O0 2.926683 1_555
Ba2 O4 2.952031 1_555
Ba2 O2 2.952139 1_555
Ba2 O10 2.956321 1_555
Ba2 O16 2.959456 1_555
Ba2 O12 2.983027 1_555
Ba2 O14 2.989733 1_555
Ba3 O9 2.882560 1_655
Ba3 O7 2.912517 1_655
Ba3 O7 2.913267 1_555
Ba3 O16 2.920471 1_655
Ba3 O10 2.923851 1_555
Ba3 O1 2.927016 1_655
Ba3 O5 2.953005 1_654
Ba3 O3 2.953062 1_554
Ba3 O11 2.955900 1_655
Ba3 O17 2.959046 1_555
Ba3 O13 2.982625 1_555
Ba3 O15 2.989363 1_655
Ba4 O6 2.882560 1_455
Ba4 O8 2.912505 1_455
Ba4 O8 2.913278 1_555
Ba4 O13 2.920466 1_455
Ba4 O15 2.923854 1_555
Ba4 O1 2.927016 1_556
Ba4 O4 2.953006 1_456
Ba4 O2 2.953068 1_556
Ba4 O14 2.955898 1_455
Ba4 O12 2.959049 1_555
Ba4 O16 2.982630 1_555
Ba4 O10 2.989354 1_455
Ba5 O7 2.882920 1_555
Ba5 O9 2.912440 1_555
Ba5 O9 2.913317 1_655
Ba5 O12 2.921048 1_565
Ba5 O14 2.924538 1_565
Ba5 O0 2.926689 1_566
Ba5 O5 2.952037 1_555
Ba5 O3 2.952151 1_555
Ba5 O15 2.956319 1_555
Ba5 O13 2.959462 1_555
Ba5 O17 2.983024 1_555
Ba5 O11 2.989719 1_555
Nb0 O6 1.945412 1_555
Nb0 O10 1.963265 1_555
Nb0 O16 1.963328 1_655
Nb0 O4 2.112999 1_555
Nb0 O2 2.113687 1_655
Nb0 O1 2.139540 1_655
Nb1 O7 1.944818 1_555
Nb1 O11 1.962148 1_555
Nb1 O17 1.962229 1_555
Nb1 O5 2.114592 1_554
Nb1 O3 2.115283 1_554
Nb1 O0 2.140167 1_565
Nb2 O8 1.944818 1_555
Nb2 O14 1.962140 1_555
Nb2 O12 1.962233 1_555
Nb2 O4 2.114596 1_556
Nb2 O2 2.115283 1_556
Nb2 O0 2.140167 1_556
Nb3 O9 1.945412 1_555
Nb3 O15 1.963261 1_555
Nb3 O13 1.963323 1_455
Nb3 O5 2.113008 1_555
Nb3 O3 2.113683 1_455
Nb3 O1 2.139540 1_556
Co0 O10 2.100924 1_555
Co0 O15 2.100928 1_555
Co0 O16 2.103348 1_555
Co0 O13 2.103352 1_555
Co0 O7 2.235577 1_555
Co0 O8 2.235577 1_555
Co1 O11 2.101984 1_545
Co1 O14 2.101989 1_455
Co1 O12 2.104372 1_555
Co1 O17 2.104372 1_445
Co1 O6 2.235603 1_455
Co1 O9 2.235603 1_545
O0 O2 2.939743 1_555
O0 O3 2.939746 1_544
O0 O5 2.939837 1_544
O0 O4 2.939840 1_555
O1 O3 2.938822 1_454
O1 O2 2.938825 1_555
O1 O4 2.938927 1_455
O1 O5 2.938930 1_554
O2 O6 2.868379 1_455
O2 O8 2.869589 1_554
O2 O4 2.909689 1_455
O2 O4 2.910981 1_555
O3 O9 2.868379 1_655
O3 O7 2.869589 1_556
O3 O5 2.909689 1_655
O3 O5 2.910981 1_555
O4 O6 2.868057 1_555
O4 O8 2.869260 1_554
O5 O9 2.868063 1_555
O5 O7 2.869255 1_556
O10 O4 2.876451 1_555
O11 O5 2.876880 1_554
O12 O2 2.880393 1_556
O13 O3 2.879892 1_555
O14 O4 2.876880 1_556
O15 O5 2.876451 1_555
O16 O2 2.879892 1_555
O17 O3 2.880393 1_554
