# generated using pymatgen
data_AgTeNO5
_symmetry_space_group_name_H-M   'P 1'
_cell_length_a   5.36933400
_cell_length_b   5.70875000
_cell_length_c   14.52898900
_cell_angle_alpha   90.00000000
_cell_angle_beta   90.00000000
_cell_angle_gamma   90.00000000
_symmetry_Int_Tables_number   1
_chemical_formula_structural   AgTeNO5
_chemical_formula_sum   'Ag4 Te4 N4 O20'
_cell_volume   445.34526556
_cell_formula_units_Z   4
loop_
 _symmetry_equiv_pos_site_id
 _symmetry_equiv_pos_as_xyz
  1  'x, y, z'
loop_
 _atom_site_type_symbol
 _atom_site_label
 _atom_site_symmetry_multiplicity
 _atom_site_fract_x
 _atom_site_fract_y
 _atom_site_fract_z
 _atom_site_occupancy
  Ag  Ag0  1  0.25000000  0.50000000  0.61401800  1
  Ag  Ag1  1  0.75000000  0.50000000  0.38598200  1
  Ag  Ag2  1  0.25000000  0.00000000  0.11401800  1
  Ag  Ag3  1  0.75000000  0.00000000  0.88598200  1
  Te  Te0  1  0.75000000  0.00000000  0.56084100  1
  Te  Te1  1  0.25000000  0.00000000  0.43915900  1
  Te  Te2  1  0.25000000  0.50000000  0.93915900  1
  Te  Te3  1  0.75000000  0.50000000  0.06084100  1
  N  N0  1  0.75000000  0.50000000  0.74313400  1
  N  N1  1  0.75000000  0.00000000  0.24313400  1
  N  N2  1  0.25000000  0.00000000  0.75686600  1
  N  N3  1  0.25000000  0.50000000  0.25686600  1
  O  O0  1  0.93534400  0.29688500  0.97650500  1
  O  O1  1  0.10170400  0.13355200  0.71449100  1
  O  O2  1  0.89829600  0.86644800  0.28550900  1
  O  O3  1  0.39829600  0.63355200  0.21449100  1
  O  O4  1  0.56465600  0.70311500  0.97650500  1
  O  O5  1  0.10170400  0.36644800  0.21449100  1
  O  O6  1  0.39829600  0.86644800  0.71449100  1
  O  O7  1  0.60170400  0.13355200  0.28550900  1
  O  O8  1  0.75000000  0.50000000  0.65462600  1
  O  O9  1  0.25000000  0.50000000  0.34537400  1
  O  O10  1  0.60170400  0.36644800  0.78550900  1
  O  O11  1  0.06465600  0.70311500  0.02349500  1
  O  O12  1  0.75000000  0.00000000  0.15462600  1
  O  O13  1  0.89829600  0.63355200  0.78550900  1
  O  O14  1  0.25000000  0.00000000  0.84537400  1
  O  O15  1  0.06465600  0.79688500  0.52349500  1
  O  O16  1  0.43534400  0.29688500  0.02349500  1
  O  O17  1  0.43534400  0.20311500  0.52349500  1
  O  O18  1  0.56465600  0.79688500  0.47650500  1
  O  O19  1  0.93534400  0.20311500  0.47650500  1
loop_
_geom_bond_atom_site_label_1
_geom_bond_atom_site_label_2
_geom_bond_distance
_geom_bond_site_symmetry_2
Ag0 O17 2.364875 1_555
Ag0 O15 2.364875 1_555
Ag0 O6 2.672311 1_555
Ag0 O1 2.672311 1_555
Ag0 O8 2.748732 1_455
Ag0 O8 2.748732 1_555
Ag0 O18 3.117464 1_555
Ag0 O19 3.117464 1_455
Ag1 O19 2.364875 1_555
Ag1 O18 2.364875 1_555
Ag1 O7 2.672311 1_555
Ag1 O2 2.672311 1_555
Ag1 O9 2.748732 1_655
Ag1 O9 2.748732 1_555
Ag1 O15 3.117464 1_655
Ag1 O17 3.117464 1_555
Ag2 O16 2.364875 1_555
Ag2 O11 2.364875 1_545
Ag2 O3 2.672311 1_545
Ag2 O5 2.672311 1_555
Ag2 O12 2.748732 1_555
Ag2 O12 2.748732 1_455
Ag2 O0 3.117464 1_454
Ag2 O4 3.117464 1_544
Ag3 O0 2.364875 1_555
Ag3 O4 2.364875 1_545
Ag3 O13 2.672311 1_545
Ag3 O10 2.672311 1_555
Ag3 O14 2.748732 1_655
Ag3 O14 2.748732 1_555
Ag3 O11 3.117464 1_646
Ag3 O16 3.117464 1_556
N0 O10 1.262670 1_555
N0 O13 1.262670 1_555
N0 O8 1.285932 1_555
N1 O2 1.262670 1_545
N1 O7 1.262670 1_555
N1 O12 1.285932 1_555
N2 O6 1.262670 1_545
N2 O1 1.262670 1_555
N2 O14 1.285932 1_555
N3 O3 1.262670 1_555
N3 O5 1.262670 1_555
N3 O9 1.285932 1_555
O0 Te3 1.958645 1_556
O0 Te2 2.119745 1_655
O0 O11 2.515203 1_656
O4 Te3 1.958645 1_556
O4 Te2 2.119745 1_555
O11 Te2 1.958645 1_554
O11 Te3 2.119745 1_455
O15 Te1 1.958645 1_565
O15 Te0 2.119745 1_465
O15 O19 2.515203 1_465
O16 Te2 1.958645 1_554
O16 Te3 2.119745 1_555
O16 O4 2.515203 1_554
O17 Te1 1.958645 1_555
O17 Te0 2.119745 1_555
O17 O18 2.515203 1_545
O18 Te0 1.958645 1_565
O18 Te1 2.119745 1_565
O19 Te0 1.958645 1_555
O19 Te1 2.119745 1_655
