# generated using pymatgen
data_Ba5Al5Pb
_symmetry_space_group_name_H-M   'P 1'
_cell_length_a   6.09149382
_cell_length_b   6.09149359
_cell_length_c   11.32119369
_cell_angle_alpha   90.00000000
_cell_angle_beta   90.00000000
_cell_angle_gamma   120.00000686
_symmetry_Int_Tables_number   1
_chemical_formula_structural   Ba5Al5Pb
_chemical_formula_sum   'Ba5 Al5 Pb1'
_cell_volume   363.80647313
_cell_formula_units_Z   1
loop_
 _symmetry_equiv_pos_site_id
 _symmetry_equiv_pos_as_xyz
  1  'x, y, z'
loop_
 _atom_site_type_symbol
 _atom_site_label
 _atom_site_symmetry_multiplicity
 _atom_site_fract_x
 _atom_site_fract_y
 _atom_site_fract_z
 _atom_site_occupancy
  Ba  Ba0  1  0.66666700  0.33333300  0.20182574  1
  Ba  Ba1  1  0.66666700  0.33333300  0.79817426  1
  Ba  Ba2  1  0.00000000  0.00000000  0.32880606  1
  Ba  Ba3  1  0.00000000  0.00000000  0.67119394  1
  Ba  Ba4  1  0.33333300  0.66666700  0.00000000  1
  Al  Al0  1  0.33333300  0.66666700  0.32589576  1
  Al  Al1  1  0.51051721  0.02103342  0.50000000  1
  Al  Al2  1  0.51051721  0.48948279  0.50000000  1
  Al  Al3  1  0.33333300  0.66666700  0.67410424  1
  Al  Al4  1  0.97896658  0.48948279  0.50000000  1
  Pb  Pb0  1  0.00000000  0.00000000  0.00000000  1
loop_
_geom_bond_atom_site_label_1
_geom_bond_atom_site_label_2
_geom_bond_distance
_geom_bond_site_symmetry_2
Ba0 Ba2 3.799387 1_655
Ba0 Ba2 3.799392 1_665
Ba0 Ba2 3.799392 1_555
Ba0 Ba4 4.193989 1_545
Ba0 Ba4 4.193989 1_655
Ba0 Pb0 4.193989 1_655
Ba0 Pb0 4.193993 1_665
Ba0 Pb0 4.193994 1_555
Ba0 Ba4 4.193998 1_555
Ba0 Ba1 4.569817 1_554
Ba1 Ba3 3.799387 1_655
Ba1 Ba3 3.799392 1_665
Ba1 Ba3 3.799392 1_555
Ba1 Ba4 4.193989 1_546
Ba1 Ba4 4.193989 1_656
Ba1 Pb0 4.193989 1_656
Ba1 Pb0 4.193993 1_666
Ba1 Pb0 4.193994 1_556
Ba1 Ba4 4.193998 1_556
Ba2 Pb0 3.722477 1_555
Ba2 Ba3 3.876240 1_555
Ba3 Pb0 3.722477 1_556
Ba4 Pb0 3.516922 1_565
Ba4 Pb0 3.516927 1_555
Ba4 Pb0 3.516927 1_665
Al0 Al1 2.716586 1_565
Al0 Al4 2.716586 1_455
Al0 Al2 2.716594 1_555
Al0 Ba2 3.517076 1_565
Al0 Ba2 3.517081 1_555
Al0 Ba2 3.517081 1_665
Al0 Ba4 3.689529 1_555
Al0 Ba0 3.787043 1_565
Al0 Ba0 3.787044 1_455
Al0 Ba0 3.787054 1_555
Al1 Al3 2.716586 1_545
Al1 Al4 2.853556 1_555
Al1 Al2 2.853556 1_555
Al1 Al4 3.237937 1_445
Al1 Al2 3.237937 1_545
Al1 Ba2 3.611811 1_655
Al1 Ba3 3.611811 1_655
Al1 Ba2 3.611816 1_555
Al1 Ba3 3.611816 1_555
Al1 Ba1 3.756266 1_555
Al1 Ba0 3.756266 1_555
Al2 Al3 2.716594 1_555
Al2 Al4 2.853556 1_555
Al2 Al4 3.237937 1_455
Al2 Ba2 3.611813 1_665
Al2 Ba3 3.611813 1_665
Al2 Ba3 3.611813 1_555
Al2 Ba2 3.611813 1_555
Al2 Ba1 3.756266 1_555
Al2 Ba0 3.756266 1_555
Al3 Al4 2.716586 1_455
Al3 Ba3 3.517076 1_565
Al3 Ba3 3.517081 1_555
Al3 Ba3 3.517081 1_665
Al3 Ba4 3.689529 1_556
Al3 Ba1 3.787043 1_565
Al3 Ba1 3.787044 1_455
Al3 Ba1 3.787054 1_555
Al4 Ba2 3.611811 1_655
Al4 Ba3 3.611811 1_655
Al4 Ba2 3.611816 1_665
Al4 Ba3 3.611816 1_665
Al4 Ba0 3.756266 1_555
Al4 Ba1 3.756266 1_555
