# generated using pymatgen
data_La(AsPd)2
_symmetry_space_group_name_H-M   'P 1'
_cell_length_a   4.33019124
_cell_length_b   4.33019093
_cell_length_c   6.05301393
_cell_angle_alpha   110.95833257
_cell_angle_beta   110.95833658
_cell_angle_gamma   89.99999587
_symmetry_Int_Tables_number   1
_chemical_formula_structural   La(AsPd)2
_chemical_formula_sum   'La1 As2 Pd2'
_cell_volume   97.90536246
_cell_formula_units_Z   1
loop_
 _symmetry_equiv_pos_site_id
 _symmetry_equiv_pos_as_xyz
  1  'x, y, z'
loop_
 _atom_site_type_symbol
 _atom_site_label
 _atom_site_symmetry_multiplicity
 _atom_site_fract_x
 _atom_site_fract_y
 _atom_site_fract_z
 _atom_site_occupancy
  La  La0  1  -0.00000000  0.00000000  -0.00000000  1
  As  As0  1  0.37958206  0.37958206  0.75916212  1
  As  As1  1  0.62041794  0.62041794  0.24083788  1
  Pd  Pd0  1  0.75000000  0.25000000  0.50000000  1
  Pd  Pd1  1  0.25000000  0.75000000  0.50000000  1
loop_
_geom_bond_atom_site_label_1
_geom_bond_atom_site_label_2
_geom_bond_distance
_geom_bond_site_symmetry_2
La0 Pd0 3.391690 1_444
La0 Pd1 3.391690 1_555
La0 Pd1 3.391690 1_444
La0 Pd0 3.391690 1_555
La0 Pd1 3.391690 1_545
La0 Pd0 3.391690 1_454
La0 Pd1 3.391690 1_544
La0 Pd0 3.391690 1_455
As0 As1 2.515053 1_556
As0 Pd1 2.553191 1_555
As0 Pd0 2.553192 1_555
As0 Pd1 2.553199 1_545
As0 Pd0 2.553199 1_455
As0 La0 3.310077 1_666
As0 La0 3.310083 1_656
As0 La0 3.310083 1_566
As0 La0 3.310089 1_556
As1 Pd0 2.553191 1_555
As1 Pd1 2.553192 1_555
As1 Pd0 2.553199 1_565
As1 Pd1 2.553199 1_655
As1 La0 3.310077 1_555
As1 La0 3.310083 1_565
As1 La0 3.310083 1_655
As1 La0 3.310089 1_665
Pd0 Pd1 3.061907 1_555
Pd0 Pd1 3.061907 1_645
Pd0 Pd1 3.061908 1_655
Pd0 Pd1 3.061908 1_545
