# generated using pymatgen
data_Ba2LaTaO6
_symmetry_space_group_name_H-M   'P 1'
_cell_length_a   6.09156740
_cell_length_b   6.15036742
_cell_length_c   8.60992854
_cell_angle_alpha   90.51711818
_cell_angle_beta   90.00000039
_cell_angle_gamma   90.00000093
_symmetry_Int_Tables_number   1
_chemical_formula_structural   Ba2LaTaO6
_chemical_formula_sum   'Ba4 La2 Ta2 O12'
_cell_volume   322.56108668
_cell_formula_units_Z   2
loop_
 _symmetry_equiv_pos_site_id
 _symmetry_equiv_pos_as_xyz
  1  'x, y, z'
loop_
 _atom_site_type_symbol
 _atom_site_label
 _atom_site_symmetry_multiplicity
 _atom_site_fract_x
 _atom_site_fract_y
 _atom_site_fract_z
 _atom_site_occupancy
  Ba  Ba0  1  0.50915558  0.00554779  0.74832746  1
  Ba  Ba1  1  0.99084492  0.50555163  0.24832756  1
  Ba  Ba2  1  0.00915554  0.49445222  0.75167255  1
  Ba  Ba3  1  0.49084490  0.99444835  0.25167241  1
  La  La0  1  0.00000086  -0.00000227  0.00000034  1
  La  La1  1  0.50000088  0.50000229  0.49999967  1
  Ta  Ta0  1  0.50000181  0.49999631  0.00000015  1
  Ta  Ta1  1  0.00000180  0.00000365  0.49999986  1
  O  O0  1  0.99423113  0.93266587  0.72674138  1
  O  O1  1  0.74289501  0.28667496  0.96323137  1
  O  O2  1  0.28162707  0.26239676  0.96377378  1
  O  O3  1  0.24289503  0.21332506  0.53676863  1
  O  O4  1  0.78162708  0.23760323  0.53622624  1
  O  O5  1  0.21837549  0.76239598  0.46377434  1
  O  O6  1  0.00576863  0.06733469  0.27325904  1
  O  O7  1  0.25709949  0.71333095  0.03676913  1
  O  O8  1  0.75709944  0.78666906  0.46323085  1
  O  O9  1  0.50576867  0.43266531  0.22674096  1
  O  O10  1  0.71837551  0.73760404  0.03622564  1
  O  O11  1  0.49423115  0.56733411  0.77325862  1
loop_
_geom_bond_atom_site_label_1
_geom_bond_atom_site_label_2
_geom_bond_distance
_geom_bond_site_symmetry_2
Ba0 O11 2.707167 1_545
Ba0 O3 2.761096 1_555
Ba0 O2 2.793664 1_555
Ba0 O4 2.858987 1_555
Ba0 O1 2.895302 1_555
Ba0 O0 2.994199 1_545
Ba0 O8 3.171614 1_545
Ba0 O0 3.173773 1_445
Ba0 O10 3.249329 1_546
Ba0 O5 3.363070 1_545
Ba0 O7 3.440310 1_546
Ba1 O6 2.707187 1_655
Ba1 O7 2.761078 1_655
Ba1 O5 2.793657 1_655
Ba1 O10 2.858974 1_555
Ba1 O8 2.895281 1_555
Ba1 O9 2.994207 1_555
Ba1 O1 3.171624 1_554
Ba1 O9 3.173773 1_655
Ba1 O4 3.249342 1_555
Ba1 O2 3.363089 1_654
Ba1 O3 3.440321 1_655
Ba2 O0 2.707167 1_455
Ba2 O1 2.761096 1_455
Ba2 O4 2.793664 1_455
Ba2 O2 2.858987 1_555
Ba2 O3 2.895302 1_555
Ba2 O11 2.994199 1_555
Ba2 O7 3.171614 1_556
Ba2 O11 3.173773 1_455
Ba2 O5 3.249329 1_555
Ba2 O10 3.363070 1_456
Ba2 O8 3.440310 1_455
Ba3 O9 2.707187 1_565
Ba3 O8 2.761078 1_555
Ba3 O10 2.793657 1_555
Ba3 O5 2.858974 1_555
Ba3 O7 2.895280 1_555
Ba3 O6 2.994207 1_565
Ba3 O3 3.171624 1_565
Ba3 O6 3.173773 1_665
Ba3 O2 3.249342 1_564
Ba3 O4 3.363090 1_565
Ba3 O1 3.440321 1_564
La0 O10 2.377782 1_445
La0 O2 2.377810 1_554
La0 O7 2.381515 1_545
La0 O1 2.381592 1_454
La0 O0 2.385482 1_444
La0 O6 2.385485 1_555
La1 O5 2.377783 1_555
La1 O4 2.377810 1_555
La1 O8 2.381515 1_555
La1 O3 2.381592 1_555
La1 O11 2.385482 1_555
La1 O9 2.385485 1_555
O0 Ta1 1.999637 1_665
O1 Ta0 2.000824 1_556
O1 O2 2.813816 1_555
O2 Ta0 1.998519 1_556
O3 Ta1 2.000824 1_555
O3 O4 2.813816 1_455
O4 Ta1 1.998519 1_655
O5 Ta1 1.998550 1_565
O5 O8 2.813863 1_455
O6 Ta1 1.999622 1_555
O7 Ta0 2.000919 1_555
O8 Ta1 2.000919 1_665
O9 Ta0 1.999621 1_555
O10 Ta0 1.998550 1_555
O10 O7 2.813863 1_555
O11 Ta0 1.999637 1_556
