# generated using pymatgen
data_TeAs(BrF2)3
_symmetry_space_group_name_H-M   'P 1'
_cell_length_a   10.13496867
_cell_length_b   7.84057893
_cell_length_c   12.37455099
_cell_angle_alpha   79.43710867
_cell_angle_beta   90.00000000
_cell_angle_gamma   90.00000000
_symmetry_Int_Tables_number   1
_chemical_formula_structural   TeAs(BrF2)3
_chemical_formula_sum   'Te4 As4 Br12 F24'
_cell_volume   966.66833025
_cell_formula_units_Z   4
loop_
 _symmetry_equiv_pos_site_id
 _symmetry_equiv_pos_as_xyz
  1  'x, y, z'
loop_
 _atom_site_type_symbol
 _atom_site_label
 _atom_site_symmetry_multiplicity
 _atom_site_fract_x
 _atom_site_fract_y
 _atom_site_fract_z
 _atom_site_occupancy
  Te  Te0  1  0.66701906  0.82145177  0.68791603  1
  Te  Te1  1  0.16701906  0.17854823  0.81208397  1
  Te  Te2  1  0.83298094  0.82145177  0.18791603  1
  Te  Te3  1  0.33298094  0.17854823  0.31208397  1
  As  As0  1  0.76648037  0.16888562  0.91878710  1
  As  As1  1  0.23351963  0.83111438  0.08121290  1
  As  As2  1  0.73351963  0.16888562  0.41878710  1
  As  As3  1  0.26648037  0.83111438  0.58121290  1
  Br  Br0  1  0.10368981  0.23071743  0.25100669  1
  Br  Br1  1  0.54941365  0.69644353  0.85708277  1
  Br  Br2  1  0.95058635  0.69644353  0.35708277  1
  Br  Br3  1  0.85119440  0.57095454  0.09447785  1
  Br  Br4  1  0.64880560  0.57095454  0.59447785  1
  Br  Br5  1  0.45058635  0.30355647  0.14291723  1
  Br  Br6  1  0.14880560  0.42904546  0.90552215  1
  Br  Br7  1  0.35119440  0.42904546  0.40552215  1
  Br  Br8  1  0.04941365  0.30355647  0.64291723  1
  Br  Br9  1  0.60368981  0.76928257  0.24899331  1
  Br  Br10  1  0.39631019  0.23071743  0.75100669  1
  Br  Br11  1  0.89631019  0.76928257  0.74899331  1
  F  F0  1  0.17171876  0.78814823  0.95735525  1
  F  F1  1  0.11176683  0.75862350  0.55303663  1
  F  F2  1  0.57612962  0.08898010  0.39138945  1
  F  F3  1  0.22630257  0.04240057  0.51244988  1
  F  F4  1  0.42387038  0.91101990  0.60861055  1
  F  F5  1  0.77369743  0.95759943  0.48755012  1
  F  F6  1  0.18896529  0.62762236  0.15007670  1
  F  F7  1  0.32828124  0.78814823  0.45735525  1
  F  F8  1  0.88823317  0.24137650  0.44696337  1
  F  F9  1  0.68896529  0.37237764  0.34992330  1
  F  F10  1  0.67171876  0.21185177  0.54264475  1
  F  F11  1  0.20823112  0.88766128  0.70364541  1
  F  F12  1  0.72630257  0.95759943  0.98755012  1
  F  F13  1  0.79176888  0.11233872  0.29635459  1
  F  F14  1  0.29176888  0.88766128  0.20364541  1
  F  F15  1  0.31103471  0.62762236  0.65007670  1
  F  F16  1  0.92387038  0.08898010  0.89138945  1
  F  F17  1  0.70823112  0.11233872  0.79635459  1
  F  F18  1  0.82828124  0.21185177  0.04264475  1
  F  F19  1  0.38823317  0.75862350  0.05303663  1
  F  F20  1  0.61176683  0.24137650  0.94696337  1
  F  F21  1  0.07612962  0.91101990  0.10861055  1
  F  F22  1  0.27369743  0.04240057  0.01244988  1
  F  F23  1  0.81103471  0.37237764  0.84992330  1
loop_
_geom_bond_atom_site_label_1
_geom_bond_atom_site_label_2
_geom_bond_distance
_geom_bond_site_symmetry_2
As0 F20 1.725094 1_555
As0 F23 1.725459 1_555
As0 F18 1.744769 1_556
As0 F17 1.756908 1_555
As0 F12 1.765615 1_545
As0 F16 1.769126 1_555
As1 F19 1.725094 1_555
As1 F6 1.725459 1_555
As1 F0 1.744769 1_554
As1 F14 1.756908 1_555
As1 F22 1.765615 1_565
As1 F21 1.769126 1_555
As2 F8 1.725094 1_555
As2 F9 1.725459 1_555
As2 F10 1.744769 1_555
As2 F13 1.756908 1_555
As2 F5 1.765615 1_545
As2 F2 1.769126 1_555
As3 F1 1.725094 1_555
As3 F15 1.725459 1_555
As3 F7 1.744769 1_555
As3 F11 1.756908 1_555
As3 F3 1.765615 1_565
As3 F4 1.769126 1_555
Br0 Te3 2.454694 1_555
Br0 F6 3.250568 1_555
Br0 F8 3.275610 1_455
Br0 F13 3.313502 1_455
Br0 F21 3.329481 1_545
Br0 F14 3.433620 1_545
Br1 Te0 2.451792 1_555
Br1 F19 3.036358 1_556
Br1 F12 3.350412 1_555
Br2 Te2 2.451792 1_555
Br2 F1 3.036358 1_655
Br2 F5 3.350412 1_555
Br3 Te2 2.461922 1_555
Br3 F18 3.009136 1_555
Br3 F12 3.327532 1_554
Br4 Te0 2.461922 1_555
Br4 F10 3.009136 1_555
Br4 F5 3.327532 1_555
Br5 Te3 2.451792 1_555
Br5 F20 3.036358 1_554
Br5 F22 3.350412 1_555
Br6 Te1 2.461922 1_555
Br6 F0 3.009136 1_555
Br6 F22 3.327532 1_556
Br7 Te3 2.461922 1_555
Br7 F7 3.009136 1_555
Br7 F3 3.327532 1_555
Br8 Te1 2.451792 1_555
Br8 F8 3.036358 1_455
Br8 F3 3.350412 1_555
Br9 Te2 2.454694 1_555
Br9 F9 3.250568 1_555
Br9 F19 3.275610 1_555
Br9 F14 3.313502 1_555
Br9 F2 3.329481 1_565
Br9 F13 3.433620 1_565
Br10 Te1 2.454694 1_555
Br10 F15 3.250568 1_555
Br10 F20 3.275610 1_555
Br10 F17 3.313502 1_555
Br10 F4 3.329481 1_545
Br10 F11 3.433620 1_545
Br11 Te0 2.454694 1_555
Br11 F23 3.250568 1_555
Br11 F1 3.275610 1_655
Br11 F11 3.313502 1_655
Br11 F16 3.329481 1_565
Br11 F17 3.433620 1_565
F0 F22 2.450573 1_566
F0 F21 2.455828 1_556
F1 F3 2.478016 1_565
F2 F5 2.457042 1_545
F2 F9 2.467865 1_555
F2 Te3 2.697478 1_555
F3 F7 2.450573 1_545
F3 F4 2.457042 1_545
F3 Te3 2.736001 1_555
F4 F7 2.455828 1_555
F4 Te0 2.697478 1_555
F5 F8 2.478016 1_565
F5 Te0 2.736001 1_555
F10 F5 2.450573 1_545
F10 F2 2.455828 1_555
F11 F3 2.459851 1_565
F11 F4 2.472647 1_555
F11 Te1 2.880771 1_565
F12 F18 2.450573 1_566
F12 F16 2.457042 1_565
F12 F17 2.459851 1_565
F12 F20 2.478016 1_565
F12 Te2 2.736001 1_556
F13 F5 2.459851 1_545
F13 F2 2.472647 1_555
F13 Te2 2.880771 1_545
F14 F22 2.459851 1_565
F14 F21 2.472647 1_555
F14 Te3 2.880771 1_565
F15 F4 2.467865 1_555
F16 F18 2.455828 1_556
F16 F23 2.467865 1_555
F16 F17 2.472647 1_555
F16 Te1 2.697478 1_655
F17 Te0 2.880771 1_545
F19 F22 2.478016 1_565
F21 F22 2.457042 1_565
F21 F6 2.467865 1_555
F21 Te2 2.697478 1_455
F22 Te1 2.736001 1_554
