# generated using pymatgen
data_Tl2OsCBr2OF3
_symmetry_space_group_name_H-M   'P 1'
_cell_length_a   12.03176100
_cell_length_b   11.52473900
_cell_length_c   17.94022045
_cell_angle_alpha   51.73283590
_cell_angle_beta   90.00000000
_cell_angle_gamma   90.00000000
_symmetry_Int_Tables_number   1
_chemical_formula_structural   Tl2OsCBr2OF3
_chemical_formula_sum   'Tl16 Os8 C8 Br16 O8 F24'
_cell_volume   1953.12678395
_cell_formula_units_Z   8
loop_
 _symmetry_equiv_pos_site_id
 _symmetry_equiv_pos_as_xyz
  1  'x, y, z'
loop_
 _atom_site_type_symbol
 _atom_site_label
 _atom_site_symmetry_multiplicity
 _atom_site_fract_x
 _atom_site_fract_y
 _atom_site_fract_z
 _atom_site_occupancy
  Tl  Tl0  1  0.93791500  0.50085300  0.36999900  1
  Tl  Tl1  1  0.06208500  0.49914700  0.63000100  1
  Tl  Tl2  1  0.83599700  0.48816400  0.06323400  1
  Tl  Tl3  1  0.43791500  0.49914700  0.13000100  1
  Tl  Tl4  1  0.44334400  0.98669700  0.65025300  1
  Tl  Tl5  1  0.66400300  0.48816400  0.56323400  1
  Tl  Tl6  1  0.33599700  0.51183600  0.43676600  1
  Tl  Tl7  1  0.94334400  0.01330300  0.84974700  1
  Tl  Tl8  1  0.15618300  0.21260500  0.26574800  1
  Tl  Tl9  1  0.34381700  0.21260500  0.76574800  1
  Tl  Tl10  1  0.56208500  0.50085300  0.86999900  1
  Tl  Tl11  1  0.84381700  0.78739500  0.73425200  1
  Tl  Tl12  1  0.16400300  0.51183600  0.93676600  1
  Tl  Tl13  1  0.65618300  0.78739500  0.23425200  1
  Tl  Tl14  1  0.55665600  0.01330300  0.34974700  1
  Tl  Tl15  1  0.05665600  0.98669700  0.15025300  1
  Os  Os0  1  0.10602600  0.18058200  0.61187100  1
  Os  Os1  1  0.09901000  0.64033500  0.09552300  1
  Os  Os2  1  0.90099000  0.35966500  0.90447700  1
  Os  Os3  1  0.40099000  0.64033500  0.59552300  1
  Os  Os4  1  0.39397400  0.18058200  0.11187100  1
  Os  Os5  1  0.60602600  0.81941800  0.88812900  1
  Os  Os6  1  0.89397400  0.81941800  0.38812900  1
  Os  Os7  1  0.59901000  0.35966500  0.40447700  1
  C  C0  1  0.67358700  0.18465100  0.47626500  1
  C  C1  1  0.40055300  0.15207500  0.02292900  1
  C  C2  1  0.17358700  0.81534900  0.02373500  1
  C  C3  1  0.32641300  0.81534900  0.52373500  1
  C  C4  1  0.82641300  0.18465100  0.97626500  1
  C  C5  1  0.09944700  0.15207500  0.52292900  1
  C  C6  1  0.59944700  0.84792500  0.97707100  1
  C  C7  1  0.90055300  0.84792500  0.47707100  1
  Br  Br0  1  0.38725400  0.91189100  0.24595000  1
  Br  Br1  1  0.93283400  0.75942500  0.10361800  1
  Br  Br2  1  0.31540600  0.57519700  0.74270700  1
  Br  Br3  1  0.88725400  0.08810900  0.25405000  1
  Br  Br4  1  0.56716600  0.75942500  0.60361800  1
  Br  Br5  1  0.10006400  0.81222700  0.38031600  1
  Br  Br6  1  0.11274600  0.91189100  0.74595000  1
  Br  Br7  1  0.61274600  0.08810900  0.75405000  1
  Br  Br8  1  0.68459400  0.42480300  0.25729300  1
  Br  Br9  1  0.60006400  0.18777300  0.11968400  1
  Br  Br10  1  0.43283400  0.24057500  0.39638200  1
  Br  Br11  1  0.89993600  0.18777300  0.61968400  1
  Br  Br12  1  0.39993600  0.81222700  0.88031600  1
  Br  Br13  1  0.18459400  0.57519700  0.24270700  1
  Br  Br14  1  0.81540600  0.42480300  0.75729300  1
  Br  Br15  1  0.06716600  0.24057500  0.89638200  1
  O  O0  1  0.09209100  0.13558400  0.46455500  1
  O  O1  1  0.28021500  0.93022400  0.47876100  1
  O  O2  1  0.40790900  0.13558400  0.96455500  1
  O  O3  1  0.21978500  0.93022400  0.97876100  1
  O  O4  1  0.90790900  0.86441600  0.53544500  1
  O  O5  1  0.78021500  0.06977600  0.02123900  1
  O  O6  1  0.59209100  0.86441600  0.03544500  1
  O  O7  1  0.71978500  0.06977600  0.52123900  1
  F  F0  1  0.38932000  0.21787500  0.21350300  1
  F  F1  1  0.51320700  0.56129000  0.32290100  1
  F  F2  1  0.89251800  0.59686600  0.48141900  1
  F  F3  1  0.22667000  0.19585400  0.11410300  1
  F  F4  1  0.10748200  0.40313400  0.51858100  1
  F  F5  1  0.77333000  0.80414600  0.88589700  1
  F  F6  1  0.97182300  0.34194100  0.01354800  1
  F  F7  1  0.21395600  0.51498000  0.09278000  1
  F  F8  1  0.28604400  0.51498000  0.59278000  1
  F  F9  1  0.47182300  0.65805900  0.48645200  1
  F  F10  1  0.11068000  0.21787500  0.71350300  1
  F  F11  1  0.02817700  0.65805900  0.98645200  1
  F  F12  1  0.52817700  0.34194100  0.51354800  1
  F  F13  1  0.60748200  0.59686600  0.98141900  1
  F  F14  1  0.48679300  0.43871000  0.67709900  1
  F  F15  1  0.71395600  0.48502000  0.40722000  1
  F  F16  1  0.01320700  0.43871000  0.17709900  1
  F  F17  1  0.78604400  0.48502000  0.90722000  1
  F  F18  1  0.27333000  0.19585400  0.61410300  1
  F  F19  1  0.98679300  0.56129000  0.82290100  1
  F  F20  1  0.72667000  0.80414600  0.38589700  1
  F  F21  1  0.88932000  0.78212500  0.28649700  1
  F  F22  1  0.61068000  0.78212500  0.78649700  1
  F  F23  1  0.39251800  0.40313400  0.01858100  1
loop_
_geom_bond_atom_site_label_1
_geom_bond_atom_site_label_2
_geom_bond_distance
_geom_bond_site_symmetry_2
C0 O7 1.178799 1_555
C0 Os7 1.820558 1_555
C1 O2 1.177797 1_554
C1 Os4 1.819231 1_555
C2 O3 1.178799 1_554
C2 Os1 1.820558 1_555
C3 O1 1.178799 1_555
C3 Os3 1.820558 1_555
C4 O5 1.178799 1_556
C4 Os2 1.820558 1_555
C5 O0 1.177797 1_555
C5 Os0 1.819231 1_555
C6 O6 1.177797 1_556
C6 Os5 1.819231 1_555
C7 O4 1.177797 1_555
C7 Os6 1.819231 1_555
Br0 Os4 2.480964 1_565
Br0 C1 3.158768 1_565
Br0 F0 3.198786 1_565
Br0 F3 3.232581 1_565
Br0 Tl14 3.418128 1_565
Br0 Tl13 3.597959 1_555
Br0 Tl6 3.715677 1_555
Br1 Os1 2.479767 1_655
Br1 C2 3.117033 1_655
Br1 F11 3.184434 1_654
Br1 F16 3.209231 1_655
Br1 O5 3.435317 1_565
Br1 F21 3.488545 1_555
Br1 Tl15 3.534728 1_655
Br1 Tl7 3.579662 1_564
Br1 Tl2 3.802773 1_555
Br2 Os3 2.478082 1_555
Br2 C3 3.105249 1_555
Br2 F8 3.186400 1_555
Br2 F14 3.225698 1_555
Br2 Tl10 3.512048 1_555
Br2 Tl12 3.580954 1_555
Br3 Os6 2.480964 1_545
Br3 C7 3.158768 1_545
Br3 F21 3.198786 1_545
Br3 F20 3.232581 1_545
Br3 Tl15 3.418128 1_645
Br3 Tl8 3.597959 1_655
Br3 Tl2 3.715677 1_555
Br4 Os3 2.479767 1_555
Br4 C3 3.117033 1_555
Br4 F9 3.184434 1_555
Br4 F14 3.209231 1_555
Br4 O7 3.435317 1_565
Br4 F22 3.488545 1_555
Br4 Tl4 3.534728 1_555
Br4 Tl14 3.579662 1_565
Br4 Tl5 3.802773 1_555
Br5 Os6 2.487860 1_455
Br5 C7 3.135138 1_455
Br5 F21 3.178983 1_455
Br5 F2 3.179562 1_455
Br5 Tl15 3.327372 1_555
Br5 Tl1 3.643212 1_555
Br6 Os0 2.480964 1_565
Br6 C5 3.158768 1_565
Br6 F10 3.198786 1_565
Br6 F18 3.232581 1_565
Br6 Tl7 3.418128 1_465
Br6 Tl11 3.597959 1_455
Br6 Tl12 3.715677 1_555
Br7 Os5 2.480964 1_545
Br7 C6 3.158768 1_545
Br7 F22 3.198786 1_545
Br7 F5 3.232581 1_545
Br7 Tl4 3.418128 1_545
Br7 Tl9 3.597959 1_555
Br7 Tl5 3.715677 1_555
Br8 Os7 2.478082 1_555
Br8 C0 3.105249 1_555
Br8 F15 3.186400 1_555
Br8 F1 3.225698 1_555
Br8 Tl3 3.512048 1_555
Br8 Tl2 3.580954 1_555
Br9 Os4 2.487860 1_555
Br9 C1 3.135138 1_555
Br9 F0 3.178983 1_555
Br9 F23 3.179562 1_555
Br9 Tl14 3.327372 1_555
Br9 Tl10 3.643212 1_554
Br10 Os7 2.479767 1_555
Br10 C0 3.117033 1_555
Br10 F12 3.184434 1_555
Br10 F1 3.209231 1_555
Br10 O1 3.435317 1_545
Br10 F0 3.488545 1_555
Br10 Tl14 3.534728 1_555
Br10 Tl4 3.579662 1_545
Br10 Tl6 3.802773 1_555
Br11 Os0 2.487860 1_655
Br11 C5 3.135138 1_655
Br11 F10 3.178983 1_655
Br11 F4 3.179562 1_655
Br11 Tl7 3.327372 1_555
Br11 Tl0 3.643212 1_555
Br12 Os5 2.487860 1_555
Br12 C6 3.135138 1_555
Br12 F22 3.178983 1_555
Br12 F13 3.179562 1_555
Br12 Tl4 3.327372 1_555
Br12 Tl3 3.643212 1_556
Br13 Os1 2.478082 1_555
Br13 C2 3.105249 1_555
Br13 F7 3.186400 1_555
Br13 F16 3.225698 1_555
Br13 Tl0 3.512048 1_455
Br13 Tl6 3.580954 1_555
Br14 Os2 2.478082 1_555
Br14 C4 3.105249 1_555
Br14 F17 3.186400 1_555
Br14 F19 3.225698 1_555
Br14 Tl1 3.512048 1_655
Br14 Tl5 3.580954 1_555
Br15 Os2 2.479767 1_455
Br15 C4 3.117033 1_455
Br15 F6 3.184434 1_456
Br15 F19 3.209231 1_455
Br15 O3 3.435317 1_545
Br15 F10 3.488545 1_555
Br15 Tl7 3.534728 1_455
Br15 Tl15 3.579662 1_546
Br15 Tl12 3.802773 1_555
O0 Tl8 3.190927 1_555
O1 Tl8 3.466575 1_565
O1 Tl4 4.027609 1_555
O2 Tl9 3.190927 1_555
O3 Tl9 3.466575 1_565
O3 Tl15 4.027609 1_556
O4 Tl11 3.190927 1_555
O5 Tl13 3.466575 1_545
O5 Tl7 4.027609 1_554
O6 Tl13 3.190927 1_555
O7 Tl11 3.466575 1_545
O7 Tl14 4.027609 1_555
F0 Os4 2.117296 1_555
F0 Tl3 2.660620 1_555
F0 F23 2.746002 1_555
F0 F3 2.763097 1_555
F0 Tl14 2.906616 1_555
F0 Tl8 2.946181 1_555
F1 Os7 2.096369 1_555
F1 Tl13 2.673109 1_555
F1 F15 2.692191 1_555
F1 F12 2.722381 1_555
F1 Tl6 2.757109 1_555
F2 Os6 2.015623 1_555
F2 F21 2.746002 1_555
F2 F20 2.748521 1_555
F2 Tl0 2.873681 1_555
F2 Tl1 2.969455 1_655
F2 Tl5 3.000930 1_555
F3 Os4 2.023197 1_555
F3 Tl15 2.911869 1_545
F3 Tl8 2.967899 1_555
F3 Tl12 3.098529 1_554
F4 Os0 2.015623 1_555
F4 Tl1 2.873681 1_555
F4 Tl0 2.969455 1_455
F4 Tl6 3.000930 1_555
F5 Os5 2.023197 1_555
F5 Tl7 2.911869 1_565
F5 Tl11 2.967899 1_555
F5 Tl2 3.098529 1_556
F6 Os2 2.025305 1_554
F6 Tl12 2.781542 1_654
F6 Tl2 2.857572 1_555
F6 Tl15 3.373587 1_645
F7 Os1 2.022446 1_555
F7 Tl3 2.754859 1_555
F7 Tl12 2.884813 1_554
F7 Tl8 2.976866 1_555
F8 Os3 2.022446 1_555
F8 F9 2.730928 1_555
F8 Tl1 2.754859 1_555
F8 Tl6 2.884813 1_555
F8 Tl9 2.976866 1_555
F9 Os3 2.025305 1_555
F9 Tl5 2.781542 1_555
F9 Tl6 2.857572 1_555
F9 Tl14 3.373587 1_565
F10 Os0 2.117296 1_555
F10 Tl1 2.660620 1_555
F10 F4 2.746002 1_555
F10 F18 2.763097 1_555
F10 Tl7 2.906616 1_455
F10 Tl9 2.946181 1_555
F11 Os1 2.025305 1_556
F11 F16 2.722381 1_556
F11 F7 2.730928 1_556
F11 Tl2 2.781542 1_456
F11 Tl12 2.857572 1_555
F11 Tl7 3.373587 1_465
F12 Os7 2.025305 1_555
F12 F15 2.730928 1_555
F12 Tl6 2.781542 1_555
F12 Tl5 2.857572 1_555
F12 Tl4 3.373587 1_545
F13 Os5 2.015623 1_555
F13 F22 2.746002 1_555
F13 F5 2.748521 1_555
F13 Tl10 2.873681 1_555
F13 Tl3 2.969455 1_556
F13 Tl2 3.000930 1_556
F14 Os3 2.096369 1_555
F14 Tl9 2.673109 1_555
F14 F8 2.692191 1_555
F14 F9 2.722381 1_555
F14 Tl5 2.757109 1_555
F15 Os7 2.022446 1_555
F15 Tl0 2.754859 1_555
F15 Tl5 2.884813 1_555
F15 Tl13 2.976866 1_555
F16 Os1 2.096369 1_555
F16 Tl8 2.673109 1_555
F16 F7 2.692191 1_555
F16 Tl2 2.757109 1_455
F17 Os2 2.022446 1_555
F17 F19 2.692191 1_555
F17 F6 2.730928 1_556
F17 Tl10 2.754859 1_555
F17 Tl2 2.884813 1_556
F17 Tl11 2.976866 1_555
F18 Os0 2.023197 1_555
F18 F4 2.748521 1_555
F18 Tl4 2.911869 1_545
F18 Tl9 2.967899 1_555
F18 Tl6 3.098529 1_555
F19 Os2 2.096369 1_555
F19 Tl11 2.673109 1_555
F19 F6 2.722381 1_556
F19 Tl12 2.757109 1_655
F20 Os6 2.023197 1_555
F20 F21 2.763097 1_555
F20 Tl14 2.911869 1_565
F20 Tl13 2.967899 1_555
F20 Tl5 3.098529 1_555
F21 Os6 2.117296 1_555
F21 Tl0 2.660620 1_555
F21 Tl15 2.906616 1_655
F21 Tl13 2.946181 1_555
F22 Os5 2.117296 1_555
F22 Tl10 2.660620 1_555
F22 F5 2.763097 1_555
F22 Tl4 2.906616 1_555
F22 Tl11 2.946181 1_555
F23 Os4 2.015623 1_555
F23 F3 2.748521 1_555
F23 Tl3 2.873681 1_555
F23 Tl10 2.969455 1_554
F23 Tl12 3.000930 1_554
