# generated using pymatgen
data_Ca5Te3O14
_symmetry_space_group_name_H-M   'P 1'
_cell_length_a   7.45791472
_cell_length_b   7.45791472
_cell_length_c   10.60172700
_cell_angle_alpha   90.00000000
_cell_angle_beta   90.00000000
_cell_angle_gamma   90.22943133
_symmetry_Int_Tables_number   1
_chemical_formula_structural   Ca5Te3O14
_chemical_formula_sum   'Ca10 Te6 O28'
_cell_volume   589.66854341
_cell_formula_units_Z   2
loop_
 _symmetry_equiv_pos_site_id
 _symmetry_equiv_pos_as_xyz
  1  'x, y, z'
loop_
 _atom_site_type_symbol
 _atom_site_label
 _atom_site_symmetry_multiplicity
 _atom_site_fract_x
 _atom_site_fract_y
 _atom_site_fract_z
 _atom_site_occupancy
  Ca  Ca0  1  0.75500100  0.75500100  0.27281200  1
  Ca  Ca1  1  0.76766200  0.26766200  0.25000000  1
  Ca  Ca2  1  0.25500100  0.25500100  0.22718800  1
  Ca  Ca3  1  0.73233800  0.23233800  0.75000000  1
  Ca  Ca4  1  0.50000000  0.50000000  0.00000000  1
  Ca  Ca5  1  0.26766200  0.76766200  0.25000000  1
  Ca  Ca6  1  0.23233800  0.73233800  0.75000000  1
  Ca  Ca7  1  0.74499900  0.74499900  0.77281200  1
  Ca  Ca8  1  0.00000000  0.00000000  0.50000000  1
  Ca  Ca9  1  0.24499900  0.24499900  0.72718800  1
  Te  Te0  1  0.50000000  0.00000000  0.50000000  1
  Te  Te1  1  0.50000000  0.50000000  0.50000000  1
  Te  Te2  1  0.50000000  0.00000000  0.00000000  1
  Te  Te3  1  0.00000000  0.50000000  0.00000000  1
  Te  Te4  1  0.00000000  0.00000000  0.00000000  1
  Te  Te5  1  0.00000000  0.50000000  0.50000000  1
  O  O0  1  0.44516200  0.44516200  0.32987000  1
  O  O1  1  0.25227500  0.50674800  0.56487700  1
  O  O2  1  0.46377200  0.17790800  0.87025400  1
  O  O3  1  0.32209200  0.03622800  0.37025400  1
  O  O4  1  0.79584500  0.46713500  0.88756600  1
  O  O5  1  0.96377200  0.67790800  0.62974600  1
  O  O6  1  0.75227500  0.00674800  0.93512300  1
  O  O7  1  0.99325200  0.24772500  0.06487700  1
  O  O8  1  0.53622800  0.82209200  0.12974600  1
  O  O9  1  0.29584500  0.96713500  0.61243400  1
  O  O10  1  0.50674800  0.25227500  0.56487700  1
  O  O11  1  0.49325200  0.74772500  0.43512300  1
  O  O12  1  0.96713500  0.29584500  0.61243400  1
  O  O13  1  0.00674800  0.75227500  0.93512300  1
  O  O14  1  0.17790800  0.46377200  0.87025400  1
  O  O15  1  0.05483800  0.05483800  0.82987000  1
  O  O16  1  0.94516200  0.94516200  0.17013000  1
  O  O17  1  0.46713500  0.79584500  0.88756600  1
  O  O18  1  0.03286500  0.70415500  0.38756600  1
  O  O19  1  0.70415500  0.03286500  0.38756600  1
  O  O20  1  0.82209200  0.53622800  0.12974600  1
  O  O21  1  0.20415500  0.53286500  0.11243400  1
  O  O22  1  0.24772500  0.99325200  0.06487700  1
  O  O23  1  0.74772500  0.49325200  0.43512300  1
  O  O24  1  0.67790800  0.96377200  0.62974600  1
  O  O25  1  0.53286500  0.20415500  0.11243400  1
  O  O26  1  0.03622800  0.32209200  0.37025400  1
  O  O27  1  0.55483800  0.55483800  0.67013000  1
loop_
_geom_bond_atom_site_label_1
_geom_bond_atom_site_label_2
_geom_bond_distance
_geom_bond_site_symmetry_2
Ca0 O16 2.278500 1_555
Ca0 O20 2.284624 1_555
Ca0 O8 2.284624 1_555
Ca0 O18 2.434040 1_655
Ca0 O19 2.434040 1_565
Ca0 O23 2.602666 1_555
Ca0 O11 2.602666 1_555
Ca1 O19 2.326168 1_555
Ca1 O25 2.326168 1_555
Ca1 O26 2.407368 1_655
Ca1 O20 2.407368 1_555
Ca1 O23 2.589706 1_555
Ca1 O7 2.589706 1_555
Ca1 O0 2.877460 1_555
Ca1 O16 2.877460 1_545
Ca2 O0 2.278500 1_555
Ca2 O3 2.284624 1_555
Ca2 O26 2.284624 1_555
Ca2 O25 2.434040 1_555
Ca2 O21 2.434040 1_555
Ca2 O22 2.602666 1_545
Ca2 O7 2.602666 1_455
Ca3 O4 2.326168 1_555
Ca3 O12 2.326168 1_555
Ca3 O2 2.407368 1_555
Ca3 O24 2.407368 1_545
Ca3 O6 2.589706 1_555
Ca3 O10 2.589706 1_555
Ca3 O27 2.877460 1_555
Ca3 O15 2.877460 1_655
Ca4 O21 2.520595 1_555
Ca4 O25 2.520595 1_555
Ca4 O4 2.520595 1_554
Ca4 O17 2.520595 1_554
Ca4 O20 2.780313 1_555
Ca4 O8 2.780313 1_555
Ca4 O2 2.780313 1_554
Ca4 O14 2.780313 1_554
Ca5 O18 2.326168 1_555
Ca5 O21 2.326168 1_555
Ca5 O3 2.407368 1_565
Ca5 O8 2.407368 1_555
Ca5 O11 2.589706 1_555
Ca5 O22 2.589706 1_555
Ca5 O0 2.877460 1_555
Ca5 O16 2.877460 1_455
Ca6 O17 2.326168 1_555
Ca6 O9 2.326168 1_555
Ca6 O14 2.407368 1_555
Ca6 O5 2.407368 1_455
Ca6 O13 2.589706 1_555
Ca6 O1 2.589706 1_555
Ca6 O27 2.877460 1_555
Ca6 O15 2.877460 1_565
Ca7 O27 2.278500 1_555
Ca7 O5 2.284624 1_555
Ca7 O24 2.284624 1_555
Ca7 O4 2.434040 1_555
Ca7 O17 2.434040 1_555
Ca7 O6 2.602666 1_565
Ca7 O13 2.602666 1_655
Ca8 O12 2.520595 1_455
Ca8 O9 2.520595 1_545
Ca8 O18 2.520595 1_545
Ca8 O19 2.520595 1_455
Ca8 O24 2.780313 1_445
Ca8 O5 2.780313 1_445
Ca8 O26 2.780313 1_555
Ca8 O3 2.780313 1_555
Ca9 O15 2.278500 1_555
Ca9 O14 2.284624 1_555
Ca9 O2 2.284624 1_555
Ca9 O9 2.434040 1_545
Ca9 O12 2.434040 1_455
Ca9 O10 2.602666 1_555
Ca9 O1 2.602666 1_555
O0 Te1 1.893784 1_555
O0 O23 2.541465 1_555
O0 O11 2.541465 1_555
O1 Te1 1.972222 1_555
O1 Te5 2.003670 1_555
O1 O27 2.541465 1_555
O1 O5 2.598830 1_455
O1 O12 2.687682 1_455
O1 O10 2.689316 1_555
O2 Te2 1.930911 1_556
O2 O6 2.598830 1_555
O2 O25 2.625876 1_556
O3 Te0 1.930911 1_555
O3 O9 2.625876 1_545
O4 Te3 1.948374 1_656
O5 Te5 1.930911 1_655
O6 Te4 1.972222 1_656
O6 Te2 2.003670 1_556
O7 Te4 1.972222 1_655
O7 Te3 2.003670 1_655
O8 Te2 1.930911 1_565
O9 Te0 1.948374 1_565
O10 Te1 1.972222 1_555
O10 Te0 2.003670 1_555
O10 O27 2.541465 1_555
O10 O24 2.598830 1_545
O10 O9 2.687682 1_545
O11 Te1 1.972222 1_555
O11 Te0 2.003670 1_565
O11 O3 2.598830 1_565
O11 O19 2.687682 1_565
O11 O23 2.689316 1_555
O12 Te5 1.948374 1_655
O12 O26 2.625876 1_655
O13 Te4 1.972222 1_566
O13 Te3 2.003670 1_556
O13 O15 2.541465 1_565
O13 O14 2.598830 1_555
O13 O4 2.687682 1_455
O13 O6 2.689316 1_465
O14 Te3 1.930911 1_556
O14 O21 2.625876 1_556
O15 Te4 1.893784 1_556
O15 O6 2.541465 1_455
O16 Te4 1.893784 1_665
O16 O7 2.541465 1_565
O16 O22 2.541465 1_655
O17 Te2 1.948374 1_566
O17 O8 2.625876 1_556
O17 O6 2.687682 1_565
O18 Te5 1.948374 1_555
O18 O5 2.625876 1_455
O18 O23 2.687682 1_455
O19 Te0 1.948374 1_555
O19 O24 2.625876 1_545
O20 Te3 1.930911 1_655
O20 O7 2.598830 1_555
O20 O4 2.625876 1_554
O21 Te3 1.948374 1_555
O21 O7 2.687682 1_455
O22 Te4 1.972222 1_565
O22 Te2 2.003670 1_565
O22 O8 2.598830 1_555
O22 O25 2.687682 1_565
O22 O7 2.689316 1_465
O23 Te1 1.972222 1_555
O23 Te5 2.003670 1_655
O23 O26 2.598830 1_655
O24 Te0 1.930911 1_565
O25 Te2 1.948374 1_555
O26 Te5 1.930911 1_555
O27 Te1 1.893784 1_555
