# generated using pymatgen
data_Rb3Mo4(P2O11)2
_symmetry_space_group_name_H-M   'P 1'
_cell_length_a   10.27448649
_cell_length_b   10.27448649
_cell_length_c   19.60316300
_cell_angle_alpha   90.00000000
_cell_angle_beta   90.00000000
_cell_angle_gamma   90.27597612
_symmetry_Int_Tables_number   1
_chemical_formula_structural   Rb3Mo4(P2O11)2
_chemical_formula_sum   'Rb12 Mo16 P16 O88'
_cell_volume   2069.38531980
_cell_formula_units_Z   4
loop_
 _symmetry_equiv_pos_site_id
 _symmetry_equiv_pos_as_xyz
  1  'x, y, z'
loop_
 _atom_site_type_symbol
 _atom_site_label
 _atom_site_symmetry_multiplicity
 _atom_site_fract_x
 _atom_site_fract_y
 _atom_site_fract_z
 _atom_site_occupancy
  Rb  Rb0  1  0.79193800  0.79193800  0.00000000  1
  Rb  Rb1  1  0.01326100  0.11288700  0.87537300  1
  Rb  Rb2  1  0.38798700  0.51336100  0.62948600  1
  Rb  Rb3  1  0.11288700  0.01326100  0.12462700  1
  Rb  Rb4  1  0.61201300  0.48663900  0.12948600  1
  Rb  Rb5  1  0.88711300  0.98673900  0.62462700  1
  Rb  Rb6  1  0.71078500  0.28921500  0.75000000  1
  Rb  Rb7  1  0.48663900  0.61201300  0.87051400  1
  Rb  Rb8  1  0.98673900  0.88711300  0.37537300  1
  Rb  Rb9  1  0.28921500  0.71078500  0.25000000  1
  Rb  Rb10  1  0.20806200  0.20806200  0.50000000  1
  Rb  Rb11  1  0.51336100  0.38798700  0.37051400  1
  Mo  Mo0  1  0.01737300  0.63347400  0.56070400  1
  Mo  Mo1  1  0.98262700  0.36652600  0.06070400  1
  Mo  Mo2  1  0.39166500  0.75577000  0.43468400  1
  Mo  Mo3  1  0.89619600  0.74482300  0.81430600  1
  Mo  Mo4  1  0.25517700  0.10380400  0.68569400  1
  Mo  Mo5  1  0.51651300  0.86217000  0.68953500  1
  Mo  Mo6  1  0.75577000  0.39166500  0.56531600  1
  Mo  Mo7  1  0.74482300  0.89619600  0.18569400  1
  Mo  Mo8  1  0.13783000  0.48348700  0.81046500  1
  Mo  Mo9  1  0.60833500  0.24423000  0.93468400  1
  Mo  Mo10  1  0.63347400  0.01737300  0.43929600  1
  Mo  Mo11  1  0.10380400  0.25517700  0.31430600  1
  Mo  Mo12  1  0.48348700  0.13783000  0.18953500  1
  Mo  Mo13  1  0.36652600  0.98262700  0.93929600  1
  Mo  Mo14  1  0.24423000  0.60833500  0.06531600  1
  Mo  Mo15  1  0.86217000  0.51651300  0.31046500  1
  P  P0  1  0.73858200  0.15632900  0.08009700  1
  P  P1  1  0.45332600  0.85782700  0.09044300  1
  P  P2  1  0.64432300  0.95271200  0.84087100  1
  P  P3  1  0.76406900  0.65649200  0.66915100  1
  P  P4  1  0.35567700  0.04728800  0.34087100  1
  P  P5  1  0.84367100  0.26141800  0.41990300  1
  P  P6  1  0.85782700  0.45332600  0.90955700  1
  P  P7  1  0.34350800  0.23593100  0.83084900  1
  P  P8  1  0.26141800  0.84367100  0.58009700  1
  P  P9  1  0.14217300  0.54667400  0.40955700  1
  P  P10  1  0.54667400  0.14217300  0.59044300  1
  P  P11  1  0.65649200  0.76406900  0.33084900  1
  P  P12  1  0.23593100  0.34350800  0.16915100  1
  P  P13  1  0.15632900  0.73858200  0.91990300  1
  P  P14  1  0.04728800  0.35567700  0.65912900  1
  P  P15  1  0.95271200  0.64432300  0.15912900  1
  O  O0  1  0.81428200  0.39916300  0.39340600  1
  O  O1  1  0.76658300  0.67771500  0.35819200  1
  O  O2  1  0.97706900  0.20726000  0.39611400  1
  O  O3  1  0.88582600  0.52309600  0.53593100  1
  O  O4  1  0.63766700  0.95006300  0.76170200  1
  O  O5  1  0.23067500  0.02183800  0.98696700  1
  O  O6  1  0.68330400  0.90503700  0.35847300  1
  O  O7  1  0.48092400  0.72154000  0.73456100  1
  O  O8  1  0.73035100  0.17062100  0.39501400  1
  O  O9  1  0.47690400  0.11417400  0.96406900  1
  O  O10  1  0.13593800  0.55457500  0.49022500  1
  O  O11  1  0.67771500  0.76658300  0.64180800  1
  O  O12  1  0.73804700  0.15587800  0.00066200  1
  O  O13  1  0.02183800  0.23067500  0.01303300  1
  O  O14  1  0.35508200  0.74965500  0.11402300  1
  O  O15  1  0.31805200  0.90746500  0.36403000  1
  O  O16  1  0.28661900  0.48038100  0.14582600  1
  O  O17  1  0.17062200  0.73035100  0.60498600  1
  O  O18  1  0.26964900  0.82937800  0.89501400  1
  O  O19  1  0.65615500  0.76496200  0.25186500  1
  O  O20  1  0.40709400  0.18120200  0.60978200  1
  O  O21  1  0.09496300  0.31669600  0.14152700  1
  O  O22  1  0.51961900  0.71338100  0.35417400  1
  O  O23  1  0.86406200  0.44542500  0.99022500  1
  O  O24  1  0.90503700  0.68330400  0.64152700  1
  O  O25  1  0.48545100  0.09174400  0.37407600  1
  O  O26  1  0.48038100  0.28661900  0.85417400  1
  O  O27  1  0.79274000  0.02293100  0.10388600  1
  O  O28  1  0.36233300  0.04993700  0.26170200  1
  O  O29  1  0.02293200  0.79274000  0.89611400  1
  O  O30  1  0.18120200  0.40709400  0.39021800  1
  O  O31  1  0.39916300  0.81428200  0.60659400  1
  O  O32  1  0.68194800  0.09253500  0.86403000  1
  O  O33  1  0.34384500  0.23503800  0.75186500  1
  O  O34  1  0.32228500  0.23341700  0.14180800  1
  O  O35  1  0.93093800  0.87899200  0.76481600  1
  O  O36  1  0.74939200  0.85401500  0.86522000  1
  O  O37  1  0.44542500  0.86406200  0.00977500  1
  O  O38  1  0.14598500  0.25060800  0.63478000  1
  O  O39  1  0.61291800  0.01366500  0.21582100  1
  O  O40  1  0.56658800  0.37225200  0.98639400  1
  O  O41  1  0.97816200  0.76932500  0.51303300  1
  O  O42  1  0.37225200  0.56658800  0.01360600  1
  O  O43  1  0.27846000  0.51907600  0.76543900  1
  O  O44  1  0.98633500  0.38708200  0.28417900  1
  O  O45  1  0.11417400  0.47690400  0.03593100  1
  O  O46  1  0.62774800  0.43341200  0.51360600  1
  O  O47  1  0.98595900  0.40745000  0.87816800  1
  O  O48  1  0.04993700  0.36233300  0.73829800  1
  O  O49  1  0.72154000  0.48092400  0.26543900  1
  O  O50  1  0.74965500  0.35508200  0.88597700  1
  O  O51  1  0.90825600  0.51454900  0.12592400  1
  O  O52  1  0.90746500  0.31805200  0.63597000  1
  O  O53  1  0.64491800  0.25034500  0.61402300  1
  O  O54  1  0.09174400  0.48545100  0.62592400  1
  O  O55  1  0.01366500  0.61291800  0.78417900  1
  O  O56  1  0.84412200  0.26195300  0.49933800  1
  O  O57  1  0.95006300  0.63766700  0.23829800  1
  O  O58  1  0.18571800  0.60083700  0.89340600  1
  O  O59  1  0.55457500  0.13593800  0.50977500  1
  O  O60  1  0.59290600  0.81879800  0.10978200  1
  O  O61  1  0.71338100  0.51961900  0.64582600  1
  O  O62  1  0.40745000  0.98595900  0.12183200  1
  O  O63  1  0.43341200  0.62774800  0.48639400  1
  O  O64  1  0.85401500  0.74939200  0.13478000  1
  O  O65  1  0.81879800  0.59290600  0.89021800  1
  O  O66  1  0.59255000  0.01404100  0.62183200  1
  O  O67  1  0.51907600  0.27846000  0.23456100  1
  O  O68  1  0.82937800  0.26964900  0.10498600  1
  O  O69  1  0.38708200  0.98633500  0.71582100  1
  O  O70  1  0.76932500  0.97816200  0.48696700  1
  O  O71  1  0.26195300  0.84412200  0.50066200  1
  O  O72  1  0.51454900  0.90825600  0.87407600  1
  O  O73  1  0.23341700  0.32228500  0.85819200  1
  O  O74  1  0.31669600  0.09496300  0.85847300  1
  O  O75  1  0.20726000  0.97706800  0.60388600  1
  O  O76  1  0.09253500  0.68194800  0.13597000  1
  O  O77  1  0.12100800  0.06906200  0.73518400  1
  O  O78  1  0.25034500  0.64491800  0.38597700  1
  O  O79  1  0.25060800  0.14598500  0.36522000  1
  O  O80  1  0.23503800  0.34384500  0.24813500  1
  O  O81  1  0.01404100  0.59255000  0.37816800  1
  O  O82  1  0.60083700  0.18571800  0.10659400  1
  O  O83  1  0.06906200  0.12100800  0.26481600  1
  O  O84  1  0.87899200  0.93093800  0.23518400  1
  O  O85  1  0.52309600  0.88582600  0.46406900  1
  O  O86  1  0.76496200  0.65615500  0.74813500  1
  O  O87  1  0.15587800  0.73804700  0.99933800  1
loop_
_geom_bond_atom_site_label_1
_geom_bond_atom_site_label_2
_geom_bond_distance
_geom_bond_site_symmetry_2
Mo0 O41 1.728952 1_455
Mo0 O3 1.825914 1_455
Mo0 O10 2.014822 1_555
Mo0 O24 2.027377 1_455
Mo0 O17 2.051441 1_555
Mo0 O54 2.131362 1_555
Mo1 O13 1.728952 1_655
Mo1 O45 1.825914 1_655
Mo1 O23 2.014822 1_554
Mo1 O21 2.027377 1_655
Mo1 O68 2.051441 1_555
Mo1 O51 2.131362 1_555
Mo2 O63 1.716722 1_555
Mo2 O85 1.980800 1_555
Mo2 O71 2.069947 1_555
Mo2 O78 2.073936 1_555
Mo2 O22 2.101049 1_555
Mo2 O15 2.220572 1_555
Mo3 O35 1.721685 1_555
Mo3 O55 1.912578 1_655
Mo3 O86 2.078179 1_555
Mo3 O29 2.122176 1_655
Mo3 O36 2.132176 1_555
Mo3 O65 2.295915 1_555
Mo4 O77 1.721685 1_555
Mo4 O69 1.912578 1_545
Mo4 O33 2.078179 1_555
Mo4 O75 2.122176 1_545
Mo4 O38 2.132176 1_555
Mo4 O20 2.295915 1_555
Mo5 O7 1.730731 1_555
Mo5 O69 1.917765 1_555
Mo5 O31 2.081750 1_555
Mo5 O4 2.087002 1_555
Mo5 O11 2.144476 1_555
Mo5 O66 2.189720 1_565
Mo6 O46 1.716722 1_555
Mo6 O3 1.980800 1_555
Mo6 O56 2.069947 1_555
Mo6 O53 2.073936 1_555
Mo6 O61 2.101049 1_555
Mo6 O52 2.220572 1_555
Mo7 O84 1.721685 1_555
Mo7 O39 1.912578 1_565
Mo7 O19 2.078179 1_555
Mo7 O27 2.122170 1_565
Mo7 O64 2.132176 1_555
Mo7 O60 2.295915 1_555
Mo8 O43 1.730731 1_555
Mo8 O55 1.917765 1_555
Mo8 O58 2.081750 1_555
Mo8 O48 2.087002 1_555
Mo8 O73 2.144476 1_555
Mo8 O47 2.189720 1_455
Mo9 O40 1.716722 1_555
Mo9 O9 1.980800 1_555
Mo9 O12 2.069947 1_556
Mo9 O50 2.073936 1_555
Mo9 O26 2.101049 1_555
Mo9 O32 2.220572 1_555
Mo10 O70 1.728952 1_545
Mo10 O85 1.825914 1_545
Mo10 O59 2.014822 1_555
Mo10 O6 2.027377 1_545
Mo10 O8 2.051433 1_555
Mo10 O25 2.131362 1_555
Mo11 O83 1.721685 1_555
Mo11 O44 1.912578 1_455
Mo11 O80 2.078179 1_555
Mo11 O2 2.122170 1_455
Mo11 O79 2.132176 1_555
Mo11 O30 2.295915 1_555
Mo12 O67 1.730731 1_555
Mo12 O39 1.917765 1_555
Mo12 O82 2.081750 1_555
Mo12 O28 2.087002 1_555
Mo12 O34 2.144476 1_555
Mo12 O62 2.189720 1_545
Mo13 O5 1.728952 1_565
Mo13 O9 1.825914 1_565
Mo13 O37 2.014822 1_556
Mo13 O74 2.027377 1_565
Mo13 O18 2.051441 1_555
Mo13 O72 2.131362 1_555
Mo14 O42 1.716722 1_555
Mo14 O45 1.980800 1_555
Mo14 O87 2.069947 1_554
Mo14 O14 2.073936 1_555
Mo14 O16 2.101049 1_555
Mo14 O76 2.220572 1_555
Mo15 O49 1.730731 1_555
Mo15 O44 1.917765 1_555
Mo15 O0 2.081750 1_555
Mo15 O57 2.087002 1_555
Mo15 O1 2.144476 1_555
Mo15 O81 2.189720 1_655
O0 P5 1.538849 1_555
O0 Rb11 3.125768 1_555
O1 P11 1.537409 1_555
O1 Rb8 3.132398 1_555
O2 P5 1.553378 1_555
O2 Rb10 3.127284 1_655
O2 Rb8 3.316343 1_545
O4 P2 1.553701 1_555
O4 Rb6 3.568516 1_565
O5 Rb3 2.958655 1_556
O5 Rb1 3.266614 1_555
O6 P11 1.569418 1_555
O6 Rb8 3.141476 1_555
O7 Rb7 2.893660 1_555
O7 Rb2 3.116077 1_555
O8 P5 1.566359 1_555
O8 Rb11 3.199510 1_555
O10 P9 1.584741 1_555
O10 Rb10 3.645079 1_555
O11 P3 1.537409 1_555
O11 Rb5 3.132398 1_555
O12 P0 1.557194 1_555
O12 Rb1 3.772951 1_654
O12 Rb0 3.782729 1_545
O13 Rb1 2.958655 1_554
O13 Rb3 3.266614 1_555
O14 P1 1.567482 1_555
O14 Rb9 2.778524 1_555
O15 P4 1.553720 1_565
O15 Rb9 3.026942 1_555
O15 Rb8 3.416725 1_455
O16 P12 1.565542 1_555
O16 Rb9 3.126414 1_555
O16 Rb4 3.358873 1_555
O17 P8 1.566353 1_555
O17 Rb2 3.199503 1_555
O18 P13 1.566353 1_555
O18 Rb7 3.199503 1_555
O19 P11 1.548367 1_555
O19 Rb4 3.758449 1_555
O19 Rb9 3.808513 1_555
O20 P10 1.538423 1_555
O20 Rb10 2.982423 1_555
O20 Rb2 3.441096 1_555
O21 P12 1.569418 1_555
O21 Rb3 3.141476 1_555
O22 P11 1.565542 1_555
O22 Rb9 3.126414 1_555
O22 Rb11 3.358873 1_555
O23 P6 1.584741 1_555
O23 Rb0 3.645079 1_556
O24 P3 1.569418 1_555
O24 Rb5 3.141476 1_555
O25 P4 1.550586 1_555
O25 Rb11 3.056645 1_555
O26 P7 1.565542 1_555
O26 Rb6 3.126414 1_555
O26 Rb7 3.358873 1_555
O27 P0 1.553378 1_555
O27 Rb0 3.127284 1_545
O27 Rb3 3.316343 1_655
O28 P4 1.553701 1_555
O28 Rb9 3.568516 1_545
O29 P13 1.553369 1_555
O29 Rb0 3.127292 1_456
O29 Rb1 3.316343 1_565
O30 P9 1.538423 1_555
O30 Rb10 2.982423 1_555
O30 Rb11 3.441096 1_555
O31 P8 1.538849 1_555
O31 Rb2 3.125768 1_555
O32 P2 1.553720 1_545
O32 Rb6 3.026942 1_555
O32 Rb1 3.416725 1_655
O33 P7 1.548367 1_555
O33 Rb2 3.758449 1_555
O33 Rb6 3.808513 1_555
O34 P12 1.537409 1_555
O34 Rb3 3.132398 1_555
O35 Rb5 2.997569 1_555
O35 Rb1 3.341859 1_665
O36 P2 1.559514 1_555
O36 Rb0 2.753424 1_556
O37 P1 1.584741 1_555
O37 Rb0 3.645079 1_555
O38 P14 1.559514 1_555
O38 Rb10 2.753424 1_555
O40 Rb4 3.076058 1_556
O40 Rb7 3.452959 1_555
O41 Rb8 2.958655 1_555
O41 Rb5 3.266614 1_555
O42 Rb7 3.076058 1_554
O42 Rb4 3.452959 1_555
O43 Rb2 2.893660 1_555
O43 Rb7 3.116077 1_555
O46 Rb11 3.076058 1_555
O46 Rb2 3.452959 1_555
O47 P6 1.529680 1_555
O47 Rb1 3.041294 1_655
O48 P14 1.553701 1_555
O48 Rb6 3.568516 1_455
O49 Rb4 2.893660 1_555
O49 Rb11 3.116077 1_555
O50 P6 1.567482 1_555
O50 Rb6 2.778524 1_555
O51 P15 1.550586 1_555
O51 Rb4 3.056645 1_555
O52 P14 1.553720 1_655
O52 Rb6 3.026942 1_555
O52 Rb5 3.416725 1_545
O53 P10 1.567482 1_555
O53 Rb6 2.778524 1_555
O54 P14 1.550586 1_555
O54 Rb2 3.056645 1_555
O56 P5 1.557194 1_555
O56 Rb5 3.772951 1_545
O56 Rb10 3.782729 1_655
O57 P15 1.553701 1_555
O57 Rb9 3.568516 1_655
O58 P13 1.538849 1_555
O58 Rb7 3.125768 1_555
O59 P10 1.584741 1_555
O59 Rb10 3.645079 1_555
O60 P1 1.538423 1_555
O60 Rb0 2.982423 1_555
O60 Rb4 3.441096 1_555
O61 P3 1.565542 1_555
O61 Rb6 3.126414 1_555
O61 Rb2 3.358873 1_555
O62 P1 1.529680 1_555
O62 Rb3 3.041294 1_565
O63 Rb2 3.076058 1_555
O63 Rb11 3.452959 1_555
O64 P15 1.559514 1_555
O64 Rb0 2.753424 1_555
O65 P6 1.538423 1_555
O65 Rb0 2.982423 1_556
O65 Rb7 3.441096 1_555
O66 P10 1.529680 1_555
O66 Rb5 3.041294 1_545
O67 Rb11 2.893660 1_555
O67 Rb4 3.116077 1_555
O68 P0 1.566353 1_555
O68 Rb4 3.199503 1_555
O70 Rb5 2.958655 1_555
O70 Rb8 3.266614 1_555
O71 P8 1.557194 1_555
O71 Rb8 3.772951 1_455
O71 Rb10 3.782729 1_565
O72 P2 1.550586 1_555
O72 Rb7 3.056645 1_555
O73 P7 1.537409 1_555
O73 Rb1 3.132398 1_555
O74 P7 1.569418 1_555
O74 Rb1 3.141476 1_555
O75 P8 1.553369 1_555
O75 Rb10 3.127292 1_565
O75 Rb5 3.316343 1_455
O76 P15 1.553720 1_455
O76 Rb9 3.026942 1_555
O76 Rb3 3.416725 1_565
O77 Rb1 2.997569 1_555
O77 Rb5 3.341859 1_445
O78 P9 1.567482 1_555
O78 Rb9 2.778524 1_555
O79 P4 1.559514 1_555
O79 Rb10 2.753424 1_555
O80 P12 1.548367 1_555
O80 Rb11 3.758449 1_555
O80 Rb9 3.808513 1_555
O81 P9 1.529680 1_555
O81 Rb8 3.041294 1_455
O82 P0 1.538849 1_555
O82 Rb4 3.125768 1_555
O83 Rb3 2.997569 1_555
O83 Rb8 3.341859 1_445
O84 Rb8 2.997569 1_555
O84 Rb3 3.341859 1_665
O86 P3 1.548367 1_555
O86 Rb7 3.758449 1_555
O86 Rb6 3.808513 1_555
O87 P13 1.557194 1_555
O87 Rb3 3.772951 1_566
O87 Rb0 3.782729 1_456
