# generated using pymatgen
data_ZnS
_symmetry_space_group_name_H-M   'P 1'
_cell_length_a   3.85345482
_cell_length_b   3.85345482
_cell_length_c   113.26671900
_cell_angle_alpha   90.00000000
_cell_angle_beta   90.00000000
_cell_angle_gamma   120.00001403
_symmetry_Int_Tables_number   1
_chemical_formula_structural   ZnS
_chemical_formula_sum   'Zn36 S36'
_cell_volume   1456.57694993
_cell_formula_units_Z   36
loop_
 _symmetry_equiv_pos_site_id
 _symmetry_equiv_pos_as_xyz
  1  'x, y, z'
loop_
 _atom_site_type_symbol
 _atom_site_label
 _atom_site_symmetry_multiplicity
 _atom_site_fract_x
 _atom_site_fract_y
 _atom_site_fract_z
 _atom_site_occupancy
  Zn  Zn0  1  0.00000000  0.00000000  0.16666700  1
  Zn  Zn1  1  0.33333300  0.66666700  0.11111000  1
  Zn  Zn2  1  0.33333300  0.66666700  0.91667600  1
  Zn  Zn3  1  0.66666700  0.33333300  0.55555700  1
  Zn  Zn4  1  0.00000000  0.00000000  0.41666700  1
  Zn  Zn5  1  0.33333300  0.66666700  0.36111100  1
  Zn  Zn6  1  0.66666700  0.33333300  0.13888800  1
  Zn  Zn7  1  0.66666700  0.33333300  0.97222100  1
  Zn  Zn8  1  0.66666700  0.33333300  0.72223100  1
  Zn  Zn9  1  0.00000000  0.00000000  0.94443900  1
  Zn  Zn10  1  0.00000000  0.00000000  0.83333400  1
  Zn  Zn11  1  0.66666700  0.33333300  0.30555700  1
  Zn  Zn12  1  0.33333300  0.66666700  0.27777900  1
  Zn  Zn13  1  0.66666700  0.33333300  0.80555700  1
  Zn  Zn14  1  0.33333300  0.66666700  0.02777800  1
  Zn  Zn15  1  0.33333300  0.66666700  0.61110900  1
  Zn  Zn16  1  0.66666700  0.33333300  0.88888600  1
  Zn  Zn17  1  0.00000000  0.00000000  0.58332900  1
  Zn  Zn18  1  0.33333300  0.66666700  0.19444400  1
  Zn  Zn19  1  0.33333300  0.66666700  0.69444200  1
  Zn  Zn20  1  0.66666700  0.33333300  0.22222200  1
  Zn  Zn21  1  0.66666700  0.33333300  0.05555700  1
  Zn  Zn22  1  0.00000000  0.00000000  0.50000000  1
  Zn  Zn23  1  0.33333300  0.66666700  0.44444400  1
  Zn  Zn24  1  0.33333300  0.66666700  0.86110600  1
  Zn  Zn25  1  0.00000000  0.00000000  0.08333300  1
  Zn  Zn26  1  0.66666700  0.33333300  0.38888800  1
  Zn  Zn27  1  0.66666700  0.33333300  0.47222200  1
  Zn  Zn28  1  0.33333300  0.66666700  0.52777900  1
  Zn  Zn29  1  0.00000000  0.00000000  0.33333300  1
  Zn  Zn30  1  0.33333300  0.66666700  0.77777900  1
  Zn  Zn31  1  0.00000000  0.00000000  0.00000800  1
  Zn  Zn32  1  0.66666700  0.33333300  0.66666200  1
  Zn  Zn33  1  0.00000000  0.00000000  0.63889600  1
  Zn  Zn34  1  0.00000000  0.00000000  0.75000000  1
  Zn  Zn35  1  0.00000000  0.00000000  0.25000000  1
  S  S0  1  0.33333300  0.66666700  0.88192500  1
  S  S1  1  0.33333300  0.66666700  0.63196200  1
  S  S2  1  0.00000000  0.00000000  0.27083300  1
  S  S3  1  0.33333300  0.66666700  0.79861200  1
  S  S4  1  0.66666700  0.33333300  0.07638900  1
  S  S5  1  0.00000000  0.00000000  0.10416600  1
  S  S6  1  0.33333300  0.66666700  0.46527700  1
  S  S7  1  0.00000000  0.00000000  0.96525900  1
  S  S8  1  0.33333300  0.66666700  0.21527700  1
  S  S9  1  0.33333300  0.66666700  0.13194300  1
  S  S10  1  0.66666700  0.33333300  0.99307400  1
  S  S11  1  0.00000000  0.00000000  0.52083300  1
  S  S12  1  0.00000000  0.00000000  0.77083300  1
  S  S13  1  0.00000000  0.00000000  0.60414800  1
  S  S14  1  0.66666700  0.33333300  0.24305600  1
  S  S15  1  0.66666700  0.33333300  0.74305600  1
  S  S16  1  0.66666700  0.33333300  0.68748100  1
  S  S17  1  0.66666700  0.33333300  0.32638900  1
  S  S18  1  0.33333300  0.66666700  0.04861100  1
  S  S19  1  0.00000000  0.00000000  0.85416500  1
  S  S20  1  0.66666700  0.33333300  0.90974000  1
  S  S21  1  0.00000000  0.00000000  0.43750000  1
  S  S22  1  0.33333300  0.66666700  0.54861200  1
  S  S23  1  0.66666700  0.33333300  0.49305600  1
  S  S24  1  0.66666700  0.33333300  0.82639000  1
  S  S25  1  0.66666700  0.33333300  0.15972100  1
  S  S26  1  0.33333300  0.66666700  0.71529600  1
  S  S27  1  0.00000000  0.00000000  0.65972100  1
  S  S28  1  0.33333300  0.66666700  0.38194300  1
  S  S29  1  0.66666700  0.33333300  0.40972100  1
  S  S30  1  0.00000000  0.00000000  0.18750000  1
  S  S31  1  0.66666700  0.33333300  0.57638900  1
  S  S32  1  0.00000000  0.00000000  0.35416600  1
  S  S33  1  0.00000000  0.00000000  0.02083300  1
  S  S34  1  0.33333300  0.66666700  0.93749900  1
  S  S35  1  0.33333300  0.66666700  0.29861200  1
loop_
_geom_bond_atom_site_label_1
_geom_bond_atom_site_label_2
_geom_bond_distance
_geom_bond_site_symmetry_2
S0 Zn24 2.358100 1_555
S0 Zn16 2.360370 1_455
S0 Zn16 2.360370 1_565
S0 Zn16 2.360377 1_555
S1 Zn33 2.359351 1_565
S1 Zn33 2.359353 1_665
S1 Zn33 2.359353 1_555
S1 Zn15 2.361951 1_555
S2 Zn35 2.359686 1_555
S2 Zn12 2.359803 1_545
S2 Zn12 2.359806 1_445
S2 Zn12 2.359806 1_555
S3 Zn30 2.359686 1_555
S3 Zn13 2.359765 1_455
S3 Zn13 2.359765 1_565
S3 Zn13 2.359772 1_555
S4 Zn21 2.359572 1_555
S4 Zn25 2.359728 1_655
S4 Zn25 2.359731 1_555
S4 Zn25 2.359731 1_665
S5 Zn25 2.359686 1_555
S5 Zn1 2.359728 1_545
S5 Zn1 2.359731 1_555
S5 Zn1 2.359731 1_445
S6 Zn23 2.359686 1_555
S6 Zn27 2.359765 1_455
S6 Zn27 2.359765 1_565
S6 Zn27 2.359772 1_555
S7 Zn9 2.358213 1_555
S7 Zn7 2.360408 1_455
S7 Zn7 2.360411 1_555
S7 Zn7 2.360411 1_445
S8 Zn18 2.359686 1_555
S8 Zn20 2.359765 1_455
S8 Zn20 2.359765 1_565
S8 Zn20 2.359772 1_555
S9 Zn1 2.359686 1_555
S9 Zn6 2.359765 1_455
S9 Zn6 2.359765 1_565
S9 Zn6 2.359772 1_555
S10 Zn31 2.359351 1_656
S10 Zn31 2.359353 1_666
S10 Zn31 2.359353 1_556
S10 Zn7 2.361951 1_555
S11 Zn22 2.359686 1_555
S11 Zn28 2.359803 1_545
S11 Zn28 2.359806 1_445
S11 Zn28 2.359806 1_555
S12 Zn34 2.359686 1_555
S12 Zn30 2.359803 1_545
S12 Zn30 2.359806 1_445
S12 Zn30 2.359806 1_555
S13 Zn17 2.358100 1_555
S13 Zn15 2.360370 1_545
S13 Zn15 2.360373 1_555
S13 Zn15 2.360373 1_445
S14 Zn35 2.359728 1_655
S14 Zn35 2.359731 1_665
S14 Zn35 2.359731 1_555
S14 Zn20 2.359799 1_555
S15 Zn8 2.358779 1_555
S15 Zn34 2.359728 1_655
S15 Zn34 2.359731 1_555
S15 Zn34 2.359731 1_665
S16 Zn32 2.358100 1_555
S16 Zn19 2.360370 1_545
S16 Zn19 2.360370 1_655
S16 Zn19 2.360377 1_555
S17 Zn11 2.359572 1_555
S17 Zn29 2.359728 1_655
S17 Zn29 2.359731 1_555
S17 Zn29 2.359731 1_665
S18 Zn14 2.359686 1_555
S18 Zn21 2.359803 1_455
S18 Zn21 2.359803 1_565
S18 Zn21 2.359810 1_555
S19 Zn10 2.359459 1_555
S19 Zn24 2.359615 1_545
S19 Zn24 2.359617 1_555
S19 Zn24 2.359617 1_445
S20 Zn2 2.359426 1_655
S20 Zn2 2.359426 1_545
S20 Zn2 2.359432 1_555
S20 Zn16 2.362064 1_555
S21 Zn4 2.359686 1_555
S21 Zn23 2.359728 1_545
S21 Zn23 2.359731 1_555
S21 Zn23 2.359731 1_445
S22 Zn28 2.359686 1_555
S22 Zn3 2.359765 1_455
S22 Zn3 2.359765 1_565
S22 Zn3 2.359772 1_555
S23 Zn22 2.359728 1_655
S23 Zn22 2.359731 1_555
S23 Zn22 2.359731 1_665
S23 Zn27 2.359799 1_555
S24 Zn13 2.359686 1_555
S24 Zn10 2.359728 1_655
S24 Zn10 2.359731 1_665
S24 Zn10 2.359731 1_555
S25 Zn6 2.359686 1_555
S25 Zn0 2.359803 1_655
S25 Zn0 2.359806 1_665
S25 Zn0 2.359806 1_555
S26 Zn8 2.359388 1_455
S26 Zn8 2.359388 1_565
S26 Zn8 2.359395 1_555
S26 Zn19 2.362064 1_555
S27 Zn33 2.358779 1_555
S27 Zn32 2.359615 1_455
S27 Zn32 2.359617 1_445
S27 Zn32 2.359617 1_555
S28 Zn5 2.359572 1_555
S28 Zn26 2.359765 1_455
S28 Zn26 2.359765 1_565
S28 Zn26 2.359772 1_555
S29 Zn26 2.359686 1_555
S29 Zn4 2.359803 1_655
S29 Zn4 2.359806 1_665
S29 Zn4 2.359806 1_555
S30 Zn0 2.359686 1_555
S30 Zn18 2.359728 1_545
S30 Zn18 2.359731 1_445
S30 Zn18 2.359731 1_555
S31 Zn3 2.359572 1_555
S31 Zn17 2.359577 1_655
S31 Zn17 2.359580 1_555
S31 Zn17 2.359580 1_665
S32 Zn29 2.359686 1_555
S32 Zn5 2.359766 1_545
S32 Zn5 2.359768 1_445
S32 Zn5 2.359768 1_555
S33 Zn31 2.358779 1_555
S33 Zn14 2.359766 1_545
S33 Zn14 2.359768 1_555
S33 Zn14 2.359768 1_445
S34 Zn2 2.358553 1_555
S34 Zn9 2.359577 1_565
S34 Zn9 2.359580 1_665
S34 Zn9 2.359580 1_555
S35 Zn12 2.359686 1_555
S35 Zn11 2.359765 1_455
S35 Zn11 2.359765 1_565
S35 Zn11 2.359772 1_555
