# generated using pymatgen
data_Sm(NiP)2
_symmetry_space_group_name_H-M   'P 1'
_cell_length_a   3.90988982
_cell_length_b   3.90988934
_cell_length_c   5.45192797
_cell_angle_alpha   111.01293881
_cell_angle_beta   111.01292925
_cell_angle_gamma   89.99998159
_symmetry_Int_Tables_number   1
_chemical_formula_structural   Sm(NiP)2
_chemical_formula_sum   'Sm1 Ni2 P2'
_cell_volume   71.83358376
_cell_formula_units_Z   1
loop_
 _symmetry_equiv_pos_site_id
 _symmetry_equiv_pos_as_xyz
  1  'x, y, z'
loop_
 _atom_site_type_symbol
 _atom_site_label
 _atom_site_symmetry_multiplicity
 _atom_site_fract_x
 _atom_site_fract_y
 _atom_site_fract_z
 _atom_site_occupancy
  Sm  Sm0  1  0.00000000  0.00000000  -0.00000000  1
  Ni  Ni0  1  0.75000000  0.25000000  0.50000000  1
  Ni  Ni1  1  0.25000000  0.75000000  0.50000000  1
  P  P0  1  0.37305491  0.37305491  0.74611083  1
  P  P1  1  0.62694509  0.62694509  0.25388917  1
loop_
_geom_bond_atom_site_label_1
_geom_bond_atom_site_label_2
_geom_bond_distance
_geom_bond_site_symmetry_2
Ni0 P1 2.271386 1_545
Ni0 P0 2.271386 1_655
Ni0 P0 2.271389 1_555
Ni0 P1 2.271389 1_555
Ni0 Ni1 2.764709 1_645
Ni0 Ni1 2.764709 1_555
Ni0 Ni1 2.764710 1_545
Ni0 Ni1 2.764710 1_655
Ni0 Sm0 3.056433 1_655
Ni0 Sm0 3.056433 1_666
Ni0 Sm0 3.056433 1_656
Ni0 Sm0 3.056434 1_555
Ni1 P0 2.271386 1_565
Ni1 P1 2.271386 1_455
Ni1 P1 2.271389 1_555
Ni1 P0 2.271389 1_555
Ni1 Sm0 3.056433 1_566
Ni1 Sm0 3.056433 1_555
Ni1 Sm0 3.056433 1_565
Ni1 Sm0 3.056434 1_666
P0 P1 2.386013 1_556
P0 Sm0 3.011124 1_556
P0 Sm0 3.011126 1_566
P0 Sm0 3.011126 1_656
P0 Sm0 3.011129 1_666
P1 Sm0 3.011124 1_665
P1 Sm0 3.011126 1_655
P1 Sm0 3.011126 1_565
P1 Sm0 3.011129 1_555
