# generated using pymatgen
data_LaB2ClO4
_symmetry_space_group_name_H-M   'P 1'
_cell_length_a   4.26681700
_cell_length_b   6.66958168
_cell_length_c   8.26601211
_cell_angle_alpha   98.07178974
_cell_angle_beta   89.28994773
_cell_angle_gamma   107.84470496
_symmetry_Int_Tables_number   1
_chemical_formula_structural   LaB2ClO4
_chemical_formula_sum   'La2 B4 Cl2 O8'
_cell_volume   221.58076773
_cell_formula_units_Z   2
loop_
 _symmetry_equiv_pos_site_id
 _symmetry_equiv_pos_as_xyz
  1  'x, y, z'
loop_
 _atom_site_type_symbol
 _atom_site_label
 _atom_site_symmetry_multiplicity
 _atom_site_fract_x
 _atom_site_fract_y
 _atom_site_fract_z
 _atom_site_occupancy
  La  La0  1  0.78871800  0.03284700  0.77787800  1
  La  La1  1  0.21128200  0.96715300  0.22212200  1
  B  B0  1  0.83517900  0.34990400  0.14737600  1
  B  B1  1  0.56153300  0.43726700  0.80715100  1
  B  B2  1  0.16482100  0.65009600  0.85262400  1
  B  B3  1  0.43846700  0.56273300  0.19284900  1
  Cl  Cl0  1  0.85227500  0.20023000  0.45674100  1
  Cl  Cl1  1  0.14772500  0.79977000  0.54325900  1
  O  O0  1  0.10079100  0.53507000  0.17700600  1
  O  O1  1  0.52459100  0.37561700  0.18158400  1
  O  O2  1  0.36528700  0.23622500  0.79177600  1
  O  O3  1  0.47540900  0.62438300  0.81841600  1
  O  O4  1  0.63471300  0.76377500  0.20822400  1
  O  O5  1  0.89920900  0.46493000  0.82299400  1
  O  O6  1  0.16105600  0.84559700  0.92020100  1
  O  O7  1  0.83894400  0.15440300  0.07979900  1
loop_
_geom_bond_atom_site_label_1
_geom_bond_atom_site_label_2
_geom_bond_distance
_geom_bond_site_symmetry_2
La0 O2 2.413167 1_655
La0 O7 2.504038 1_556
La0 O2 2.563276 1_555
La0 O6 2.672566 1_645
La0 O3 2.708200 1_545
La0 O5 2.745190 1_555
La0 O6 2.898396 1_545
La1 O4 2.413167 1_455
La1 O6 2.504038 1_554
La1 O4 2.563276 1_555
La1 O7 2.672566 1_465
La1 O1 2.708200 1_565
La1 O0 2.745190 1_555
La1 O7 2.898396 1_565
B0 O7 1.349273 1_555
B0 O0 1.390579 1_655
B0 O1 1.407822 1_555
B0 Cl0 2.882245 1_555
B1 O2 1.334873 1_555
B1 O3 1.395980 1_555
B1 O5 1.400740 1_555
B1 Cl0 3.500708 1_555
B2 O6 1.349273 1_555
B2 O5 1.390579 1_455
B2 O3 1.407822 1_555
B2 Cl1 2.882245 1_555
B3 O4 1.334873 1_555
B3 O1 1.395980 1_555
B3 O0 1.400740 1_555
B3 Cl1 3.500708 1_555
Cl0 La0 2.999192 1_555
Cl0 La1 3.010530 1_645
Cl0 O7 3.087265 1_555
Cl0 O4 3.204252 1_545
Cl0 O1 3.213204 1_555
Cl0 La1 3.215122 1_545
Cl0 O5 3.258792 1_555
Cl0 Cl1 3.443353 1_645
Cl0 O2 3.467167 1_555
Cl0 O2 3.487135 1_655
Cl0 Cl1 3.499218 1_545
Cl0 O1 3.646844 1_655
Cl0 Cl1 3.770933 1_655
Cl1 La1 2.999192 1_555
Cl1 La0 3.010530 1_465
Cl1 O6 3.087265 1_555
Cl1 O2 3.204252 1_565
Cl1 O3 3.213204 1_555
Cl1 La0 3.215122 1_565
Cl1 O0 3.258792 1_555
Cl1 O4 3.467167 1_555
Cl1 O4 3.487135 1_455
Cl1 O3 3.646844 1_455
