# generated using pymatgen
data_Zr2Si4Ru3
_symmetry_space_group_name_H-M   'P 1'
_cell_length_a   9.85872974
_cell_length_b   9.85872974
_cell_length_c   13.31040223
_cell_angle_alpha   53.90195877
_cell_angle_beta   53.90195877
_cell_angle_gamma   31.50677337
_symmetry_Int_Tables_number   1
_chemical_formula_structural   Zr2Si4Ru3
_chemical_formula_sum   'Zr8 Si16 Ru12'
_cell_volume   534.60310709
_cell_formula_units_Z   4
loop_
 _symmetry_equiv_pos_site_id
 _symmetry_equiv_pos_as_xyz
  1  'x, y, z'
loop_
 _atom_site_type_symbol
 _atom_site_label
 _atom_site_symmetry_multiplicity
 _atom_site_fract_x
 _atom_site_fract_y
 _atom_site_fract_z
 _atom_site_occupancy
  Zr  Zr0  1  0.03992962  0.29315043  0.63725085  1
  Zr  Zr1  1  0.70684957  0.96007038  0.86274915  1
  Zr  Zr2  1  0.96007038  0.70684957  0.36274915  1
  Zr  Zr3  1  0.29315043  0.03992962  0.13725085  1
  Zr  Zr4  1  0.29963965  0.55322750  0.64845682  1
  Zr  Zr5  1  0.44677250  0.70036035  0.85154318  1
  Zr  Zr6  1  0.70036035  0.44677250  0.35154318  1
  Zr  Zr7  1  0.55322750  0.29963965  0.14845682  1
  Si  Si0  1  0.97311599  0.25317224  0.89490459  1
  Si  Si1  1  0.74682776  0.02688401  0.60509541  1
  Si  Si2  1  0.02688401  0.74682776  0.10509541  1
  Si  Si3  1  0.25317224  0.97311599  0.39490459  1
  Si  Si4  1  0.14115847  0.38775537  0.89600964  1
  Si  Si5  1  0.61224463  0.85884153  0.60399036  1
  Si  Si6  1  0.85884153  0.61224463  0.10399036  1
  Si  Si7  1  0.38775537  0.14115847  0.39600964  1
  Si  Si8  1  0.08529924  0.57435859  0.56508336  1
  Si  Si9  1  0.42564141  0.91470076  0.93491664  1
  Si  Si10  1  0.91470076  0.42564141  0.43491664  1
  Si  Si11  1  0.57435859  0.08529924  0.06508336  1
  Si  Si12  1  0.62023011  0.37976989  0.75000000  1
  Si  Si13  1  0.37976989  0.62023011  0.25000000  1
  Si  Si14  1  0.13002471  0.86997529  0.75000000  1
  Si  Si15  1  0.86997529  0.13002471  0.25000000  1
  Ru  Ru0  1  0.91166152  0.13094636  0.58502833  1
  Ru  Ru1  1  0.86905364  0.08833848  0.91497167  1
  Ru  Ru2  1  0.08833848  0.86905364  0.41497167  1
  Ru  Ru3  1  0.13094636  0.91166152  0.08502833  1
  Ru  Ru4  1  0.82752887  0.64815365  0.77957314  1
  Ru  Ru5  1  0.35184635  0.17247113  0.72042686  1
  Ru  Ru6  1  0.17247113  0.35184635  0.22042686  1
  Ru  Ru7  1  0.64815365  0.82752887  0.27957314  1
  Ru  Ru8  1  0.23632994  0.51602406  0.93434425  1
  Ru  Ru9  1  0.48397594  0.76367006  0.56565575  1
  Ru  Ru10  1  0.76367006  0.48397594  0.06565575  1
  Ru  Ru11  1  0.51602406  0.23632994  0.43434425  1
loop_
_geom_bond_atom_site_label_1
_geom_bond_atom_site_label_2
_geom_bond_distance
_geom_bond_site_symmetry_2
Zr0 Zr2 3.310422 1_455
Zr1 Zr3 3.310422 1_566
Zr4 Zr6 3.427465 1_555
Zr5 Zr7 3.427465 1_556
Si0 Si9 2.577391 1_645
Si0 Zr5 2.866701 1_555
Si0 Si4 2.881861 1_655
Si0 Zr0 2.922094 1_655
Si0 Zr5 2.996078 1_645
Si0 Zr7 3.295733 1_556
Si1 Si8 2.577391 1_645
Si1 Zr4 2.866701 1_555
Si1 Si5 2.881861 1_545
Si1 Zr1 2.922094 1_545
Si1 Zr4 2.996078 1_645
Si1 Zr6 3.295733 1_555
Si2 Zr7 2.866701 1_555
Si2 Si6 2.881861 1_455
Si2 Zr2 2.922094 1_455
Si2 Zr7 2.996078 1_465
Si2 Zr5 3.295733 1_554
Si3 Zr6 2.866701 1_555
Si3 Si7 2.881861 1_565
Si3 Zr3 2.922094 1_565
Si3 Zr6 2.996078 1_465
Si3 Zr4 3.295733 1_555
Si4 Si9 2.538989 1_545
Si4 Zr4 2.811681 1_555
Si4 Si6 2.818699 1_456
Si4 Zr3 2.871955 1_556
Si4 Zr1 2.875868 1_545
Si4 Zr1 2.908683 1_455
Si5 Si8 2.538989 1_655
Si5 Zr5 2.811681 1_555
Si5 Si7 2.818699 1_565
Si5 Zr2 2.871955 1_555
Si5 Zr0 2.875868 1_655
Si5 Zr0 2.908683 1_565
Si6 Zr6 2.811681 1_555
Si6 Zr1 2.871955 1_554
Si6 Zr3 2.875868 1_565
Si6 Zr3 2.908683 1_655
Si7 Zr7 2.811681 1_555
Si7 Zr0 2.871955 1_555
Si7 Zr2 2.875868 1_455
Si7 Zr2 2.908683 1_545
Si8 Zr0 2.697948 1_555
Si8 Zr4 2.735024 1_555
Si8 Zr2 2.739790 1_455
Si9 Zr1 2.697948 1_555
Si9 Zr5 2.735024 1_555
Si9 Zr3 2.739790 1_566
Si10 Si7 2.538989 1_655
Si10 Si3 2.577391 1_645
Si10 Zr2 2.697948 1_555
Si10 Zr6 2.735024 1_555
Si10 Zr0 2.739790 1_655
Si11 Si6 2.538989 1_545
Si11 Si2 2.577391 1_645
Si11 Zr3 2.697948 1_555
Si11 Zr7 2.735024 1_555
Si11 Zr1 2.739790 1_544
Si12 Si14 2.624186 1_555
Si12 Si14 2.729052 1_645
Si12 Zr5 2.799035 1_555
Si12 Zr4 2.799035 1_555
Si12 Zr1 2.875781 1_545
Si12 Zr0 2.875781 1_655
Si13 Si15 2.624186 1_555
Si13 Si15 2.729052 1_465
Si13 Zr6 2.799035 1_555
Si13 Zr7 2.799035 1_555
Si13 Zr2 2.875781 1_455
Si13 Zr3 2.875781 1_565
Si14 Zr5 2.789376 1_555
Si14 Zr4 2.789376 1_555
Si14 Zr0 2.884595 1_565
Si14 Zr1 2.884595 1_455
Si15 Zr6 2.789376 1_555
Si15 Zr7 2.789376 1_555
Si15 Zr2 2.884595 1_545
Si15 Zr3 2.884595 1_655
Ru0 Si14 2.354645 1_645
Ru0 Si10 2.381524 1_555
Ru0 Si1 2.402727 1_555
Ru0 Si3 2.414136 1_645
Ru0 Si12 2.447316 1_555
Ru0 Zr4 2.962143 1_645
Ru0 Zr6 2.976403 1_555
Ru0 Zr4 3.123671 1_555
Ru0 Zr1 3.201068 1_545
Ru1 Si14 2.354645 1_645
Ru1 Si11 2.381524 1_556
Ru1 Si0 2.402727 1_555
Ru1 Si2 2.414136 1_646
Ru1 Si12 2.447316 1_555
Ru1 Zr5 2.962143 1_645
Ru1 Zr7 2.976403 1_556
Ru1 Zr5 3.123671 1_555
Ru1 Zr0 3.201068 1_655
Ru2 Si15 2.354645 1_465
Ru2 Si8 2.381524 1_555
Ru2 Si3 2.402727 1_555
Ru2 Si1 2.414136 1_465
Ru2 Si13 2.447316 1_555
Ru2 Zr6 2.962143 1_465
Ru2 Zr4 2.976403 1_555
Ru2 Zr6 3.123671 1_555
Ru2 Zr3 3.201068 1_565
Ru3 Si15 2.354645 1_465
Ru3 Si9 2.381524 1_554
Ru3 Si2 2.402727 1_555
Ru3 Si0 2.414136 1_464
Ru3 Si13 2.447316 1_555
Ru3 Zr7 2.962143 1_465
Ru3 Zr5 2.976403 1_554
Ru3 Zr7 3.123671 1_555
Ru3 Zr2 3.201068 1_455
Ru4 Si0 2.366901 1_555
Ru4 Si9 2.423748 1_555
Ru4 Si8 2.425677 1_655
Ru4 Si4 2.444608 1_655
Ru4 Si1 2.619499 1_565
Ru4 Si5 2.624614 1_555
Ru4 Ru5 2.748132 1_565
Ru4 Ru5 2.748132 1_655
Ru4 Zr1 2.884181 1_555
Ru4 Zr5 2.884915 1_555
Ru5 Si1 2.366901 1_555
Ru5 Si8 2.423748 1_555
Ru5 Si9 2.425677 1_545
Ru5 Si5 2.444608 1_545
Ru5 Si0 2.619499 1_455
Ru5 Si4 2.624614 1_555
Ru5 Zr0 2.884181 1_555
Ru5 Zr4 2.884915 1_555
Ru6 Si2 2.366901 1_555
Ru6 Si11 2.423748 1_555
Ru6 Si10 2.425677 1_455
Ru6 Si6 2.444608 1_455
Ru6 Si3 2.619499 1_545
Ru6 Si7 2.624614 1_555
Ru6 Ru7 2.748132 1_545
Ru6 Ru7 2.748132 1_455
Ru6 Zr3 2.884181 1_555
Ru6 Zr7 2.884915 1_555
Ru7 Si3 2.366901 1_555
Ru7 Si10 2.423748 1_555
Ru7 Si11 2.425677 1_565
Ru7 Si7 2.444608 1_565
Ru7 Si2 2.619499 1_655
Ru7 Si6 2.624614 1_555
Ru7 Zr2 2.884181 1_555
Ru7 Zr6 2.884915 1_555
Ru8 Si14 2.449635 1_555
Ru8 Si4 2.467277 1_555
Ru8 Si11 2.482319 1_556
Ru8 Si12 2.534054 1_555
Ru8 Si6 2.539844 1_456
Ru8 Si2 2.675634 1_556
Ru8 Zr1 3.049760 1_455
Ru8 Zr1 3.171701 1_545
Ru8 Zr5 3.193175 1_555
Ru9 Si14 2.449635 1_555
Ru9 Si5 2.467277 1_555
Ru9 Si10 2.482319 1_555
Ru9 Si12 2.534054 1_555
Ru9 Si7 2.539844 1_565
Ru9 Si3 2.675634 1_555
Ru9 Zr0 3.049760 1_565
Ru9 Zr0 3.171701 1_655
Ru9 Zr4 3.193175 1_555
Ru10 Si15 2.449635 1_555
Ru10 Si6 2.467277 1_555
Ru10 Si9 2.482319 1_554
Ru10 Si13 2.534054 1_555
Ru10 Si4 2.539844 1_654
Ru10 Si0 2.675634 1_554
Ru10 Zr3 3.049760 1_655
Ru10 Zr3 3.171701 1_565
Ru10 Zr7 3.193175 1_555
Ru11 Si15 2.449635 1_555
Ru11 Si7 2.467277 1_555
Ru11 Si8 2.482319 1_555
Ru11 Si13 2.534054 1_555
Ru11 Si5 2.539844 1_545
Ru11 Si1 2.675634 1_555
Ru11 Zr2 3.049760 1_545
Ru11 Zr2 3.171701 1_455
Ru11 Zr6 3.193175 1_555
