# generated using pymatgen
data_Ag2Hg(SeO3)2
_symmetry_space_group_name_H-M   'P 1'
_cell_length_a   7.05709600
_cell_length_b   11.41040000
_cell_length_c   17.26006800
_cell_angle_alpha   90.00000000
_cell_angle_beta   90.00000000
_cell_angle_gamma   90.00000000
_symmetry_Int_Tables_number   1
_chemical_formula_structural   Ag2Hg(SeO3)2
_chemical_formula_sum   'Ag16 Hg8 Se16 O48'
_cell_volume   1389.85468996
_cell_formula_units_Z   8
loop_
 _symmetry_equiv_pos_site_id
 _symmetry_equiv_pos_as_xyz
  1  'x, y, z'
loop_
 _atom_site_type_symbol
 _atom_site_label
 _atom_site_symmetry_multiplicity
 _atom_site_fract_x
 _atom_site_fract_y
 _atom_site_fract_z
 _atom_site_occupancy
  Ag  Ag0  1  0.88425000  0.90567200  0.24242300  1
  Ag  Ag1  1  0.35214200  0.11940800  0.95556000  1
  Ag  Ag2  1  0.61575000  0.09432800  0.74242300  1
  Ag  Ag3  1  0.85214200  0.11940800  0.54444000  1
  Ag  Ag4  1  0.38425000  0.59432800  0.75757700  1
  Ag  Ag5  1  0.85214200  0.38059200  0.04444000  1
  Ag  Ag6  1  0.88425000  0.59432800  0.74242300  1
  Ag  Ag7  1  0.14785800  0.61940800  0.95556000  1
  Ag  Ag8  1  0.11575000  0.40567200  0.25757700  1
  Ag  Ag9  1  0.38425000  0.90567200  0.25757700  1
  Ag  Ag10  1  0.11575000  0.09432800  0.75757700  1
  Ag  Ag11  1  0.61575000  0.40567200  0.24242300  1
  Ag  Ag12  1  0.14785800  0.88059200  0.45556000  1
  Ag  Ag13  1  0.35214200  0.38059200  0.45556000  1
  Ag  Ag14  1  0.64785800  0.61940800  0.54444000  1
  Ag  Ag15  1  0.64785800  0.88059200  0.04444000  1
  Hg  Hg0  1  0.12464400  0.16134500  0.14924400  1
  Hg  Hg1  1  0.87535600  0.83865500  0.85075600  1
  Hg  Hg2  1  0.87535600  0.66134500  0.35075600  1
  Hg  Hg3  1  0.12464400  0.33865500  0.64924400  1
  Hg  Hg4  1  0.62464400  0.16134500  0.35075600  1
  Hg  Hg5  1  0.62464400  0.33865500  0.85075600  1
  Hg  Hg6  1  0.37535600  0.66134500  0.14924400  1
  Hg  Hg7  1  0.37535600  0.83865500  0.64924400  1
  Se  Se0  1  0.16332300  0.36778300  0.85499300  1
  Se  Se1  1  0.83470900  0.38182900  0.43139700  1
  Se  Se2  1  0.66332300  0.36778300  0.64500700  1
  Se  Se3  1  0.66332300  0.13221700  0.14500700  1
  Se  Se4  1  0.16529100  0.61817100  0.56860300  1
  Se  Se5  1  0.33667700  0.63221700  0.35499300  1
  Se  Se6  1  0.33667700  0.86778300  0.85499300  1
  Se  Se7  1  0.33470900  0.38182900  0.06860300  1
  Se  Se8  1  0.83470900  0.11817100  0.93139700  1
  Se  Se9  1  0.66529100  0.61817100  0.93139700  1
  Se  Se10  1  0.83667700  0.63221700  0.14500700  1
  Se  Se11  1  0.33470900  0.11817100  0.56860300  1
  Se  Se12  1  0.83667700  0.86778300  0.64500700  1
  Se  Se13  1  0.66529100  0.88182900  0.43139700  1
  Se  Se14  1  0.16332300  0.13221700  0.35499300  1
  Se  Se15  1  0.16529100  0.88182900  0.06860300  1
  O  O0  1  0.83424200  0.78066900  0.46519000  1
  O  O1  1  0.17162600  0.53887000  0.39590900  1
  O  O2  1  0.14142800  0.06289700  0.26352300  1
  O  O3  1  0.30858500  0.24801600  0.83652100  1
  O  O4  1  0.14142800  0.43710300  0.76352300  1
  O  O5  1  0.35857200  0.93710300  0.76352300  1
  O  O6  1  0.30360100  0.00633900  0.08005000  1
  O  O7  1  0.66575800  0.21933100  0.96519000  1
  O  O8  1  0.33424200  0.71933100  0.53481000  1
  O  O9  1  0.15041900  0.67214400  0.66340000  1
  O  O10  1  0.30360100  0.49366100  0.58005000  1
  O  O11  1  0.30858500  0.25198400  0.33652100  1
  O  O12  1  0.84958100  0.17214400  0.83660000  1
  O  O13  1  0.84958100  0.32785600  0.33660000  1
  O  O14  1  0.34958100  0.32785600  0.16340000  1
  O  O15  1  0.85857200  0.56289700  0.23647700  1
  O  O16  1  0.69141500  0.75198400  0.16347900  1
  O  O17  1  0.16575800  0.21933100  0.53481000  1
  O  O18  1  0.65041900  0.67214400  0.83660000  1
  O  O19  1  0.19639900  0.99366100  0.58005000  1
  O  O20  1  0.15041900  0.82785600  0.16340000  1
  O  O21  1  0.80360100  0.49366100  0.91995000  1
  O  O22  1  0.66575800  0.28066900  0.46519000  1
  O  O23  1  0.16575800  0.28066900  0.03481000  1
  O  O24  1  0.85857200  0.93710300  0.73647700  1
  O  O25  1  0.19141500  0.75198400  0.33652100  1
  O  O26  1  0.80858500  0.24801600  0.66347900  1
  O  O27  1  0.35857200  0.56289700  0.26352300  1
  O  O28  1  0.67162600  0.96113000  0.60409100  1
  O  O29  1  0.69639900  0.50633900  0.41995000  1
  O  O30  1  0.17162600  0.96113000  0.89590900  1
  O  O31  1  0.19141500  0.74801600  0.83652100  1
  O  O32  1  0.80858500  0.25198400  0.16347900  1
  O  O33  1  0.82837400  0.46113000  0.60409100  1
  O  O34  1  0.33424200  0.78066900  0.03481000  1
  O  O35  1  0.82837400  0.03887000  0.10409100  1
  O  O36  1  0.69141500  0.74801600  0.66347900  1
  O  O37  1  0.32837400  0.03887000  0.39590900  1
  O  O38  1  0.83424200  0.71933100  0.96519000  1
  O  O39  1  0.80360100  0.00633900  0.41995000  1
  O  O40  1  0.69639900  0.99366100  0.91995000  1
  O  O41  1  0.64142800  0.43710300  0.73647700  1
  O  O42  1  0.64142800  0.06289700  0.23647700  1
  O  O43  1  0.34958100  0.17214400  0.66340000  1
  O  O44  1  0.19639900  0.50633900  0.08005000  1
  O  O45  1  0.65041900  0.82785600  0.33660000  1
  O  O46  1  0.32837400  0.46113000  0.89590900  1
  O  O47  1  0.67162600  0.53887000  0.10409100  1
loop_
_geom_bond_atom_site_label_1
_geom_bond_atom_site_label_2
_geom_bond_distance
_geom_bond_site_symmetry_2
Ag0 O45 2.480664 1_555
Ag0 O42 2.483034 1_565
Ag0 O20 2.485365 1_655
Ag0 O2 2.577797 1_665
Ag0 O16 2.604574 1_555
Ag0 O35 2.857646 1_565
Ag0 O25 3.226759 1_655
Ag0 O39 3.321477 1_565
Ag1 O30 2.438154 1_545
Ag1 O7 2.495181 1_555
Ag1 O6 2.529585 1_556
Ag1 O3 2.543505 1_555
Ag1 O23 2.643280 1_556
Ag1 O40 2.887688 1_545
Ag2 O12 2.480664 1_555
Ag2 O24 2.483034 1_545
Ag2 O43 2.485365 1_555
Ag2 O5 2.577797 1_545
Ag2 O26 2.604574 1_555
Ag2 O28 2.857646 1_545
Ag2 O3 3.226759 1_555
Ag2 O40 3.321477 1_545
Ag3 O28 2.438154 1_545
Ag3 O17 2.495181 1_655
Ag3 O39 2.529585 1_555
Ag3 O26 2.543505 1_555
Ag3 O22 2.643280 1_555
Ag3 O19 2.887688 1_645
Ag4 O9 2.480664 1_555
Ag4 O4 2.483034 1_555
Ag4 O18 2.485365 1_555
Ag4 O41 2.577797 1_555
Ag4 O31 2.604574 1_555
Ag4 O46 2.857646 1_555
Ag4 O36 3.226759 1_555
Ag4 O10 3.321477 1_555
Ag5 O47 2.438154 1_555
Ag5 O23 2.495181 1_655
Ag5 O21 2.529585 1_554
Ag5 O32 2.543505 1_555
Ag5 O7 2.643280 1_554
Ag5 O44 2.887688 1_655
Ag6 O18 2.480664 1_555
Ag6 O41 2.483034 1_555
Ag6 O9 2.485365 1_655
Ag6 O4 2.577797 1_655
Ag6 O36 2.604574 1_555
Ag6 O33 2.857646 1_555
Ag6 O31 3.226759 1_655
Ag6 O21 3.321477 1_555
Ag7 O46 2.438154 1_555
Ag7 O38 2.495181 1_455
Ag7 O44 2.529585 1_556
Ag7 O31 2.543505 1_555
Ag7 O34 2.643280 1_556
Ag7 O21 2.887688 1_455
Ag8 O14 2.480664 1_555
Ag8 O27 2.483034 1_555
Ag8 O13 2.485365 1_455
Ag8 O15 2.577797 1_455
Ag8 O11 2.604574 1_555
Ag8 O1 2.857646 1_555
Ag8 O32 3.226759 1_455
Ag8 O44 3.321477 1_555
Ag9 O20 2.480664 1_555
Ag9 O2 2.483034 1_565
Ag9 O45 2.485365 1_555
Ag9 O42 2.577797 1_565
Ag9 O25 2.604574 1_555
Ag9 O37 2.857646 1_565
Ag9 O16 3.226759 1_555
Ag9 O6 3.321477 1_565
Ag10 O43 2.480664 1_555
Ag10 O5 2.483034 1_545
Ag10 O12 2.485365 1_455
Ag10 O24 2.577797 1_445
Ag10 O3 2.604574 1_555
Ag10 O30 2.857646 1_545
Ag10 O26 3.226759 1_455
Ag10 O19 3.321477 1_545
Ag11 O13 2.480664 1_555
Ag11 O15 2.483034 1_555
Ag11 O14 2.485365 1_555
Ag11 O27 2.577797 1_555
Ag11 O32 2.604574 1_555
Ag11 O47 2.857646 1_555
Ag11 O11 3.226759 1_555
Ag11 O29 3.321477 1_555
Ag12 O37 2.438154 1_565
Ag12 O0 2.495181 1_455
Ag12 O19 2.529585 1_555
Ag12 O25 2.543505 1_555
Ag12 O8 2.643280 1_555
Ag12 O39 2.887688 1_465
Ag13 O1 2.438154 1_555
Ag13 O22 2.495181 1_555
Ag13 O10 2.529585 1_555
Ag13 O11 2.543505 1_555
Ag13 O17 2.643280 1_555
Ag13 O29 2.887688 1_555
Ag14 O33 2.438154 1_555
Ag14 O8 2.495181 1_555
Ag14 O29 2.529585 1_555
Ag14 O36 2.543505 1_555
Ag14 O0 2.643280 1_555
Ag14 O10 2.887688 1_555
Ag15 O35 2.438154 1_565
Ag15 O34 2.495181 1_555
Ag15 O40 2.529585 1_554
Ag15 O16 2.543505 1_555
Ag15 O38 2.643280 1_554
Ag15 O6 2.887688 1_565
Hg0 O2 2.272997 1_555
Hg0 O23 2.416430 1_555
Hg0 O32 2.470817 1_455
Hg0 O6 2.479824 1_555
Hg0 O14 2.487847 1_555
Hg0 O35 2.632835 1_455
Hg1 O24 2.272997 1_555
Hg1 O38 2.416430 1_555
Hg1 O31 2.470817 1_655
Hg1 O40 2.479824 1_555
Hg1 O18 2.487847 1_555
Hg1 O30 2.632835 1_655
Hg2 O15 2.272997 1_555
Hg2 O0 2.416430 1_555
Hg2 O25 2.470817 1_655
Hg2 O29 2.479824 1_555
Hg2 O45 2.487847 1_555
Hg2 O1 2.632835 1_655
Hg3 O4 2.272997 1_555
Hg3 O17 2.416430 1_555
Hg3 O26 2.470817 1_455
Hg3 O10 2.479824 1_555
Hg3 O43 2.487847 1_555
Hg3 O33 2.632835 1_455
Hg4 O42 2.272997 1_555
Hg4 O22 2.416430 1_555
Hg4 O11 2.470817 1_555
Hg4 O39 2.479824 1_555
Hg4 O13 2.487847 1_555
Hg4 O37 2.632835 1_555
Hg5 O41 2.272997 1_555
Hg5 O7 2.416430 1_555
Hg5 O3 2.470817 1_555
Hg5 O21 2.479824 1_555
Hg5 O12 2.487847 1_555
Hg5 O46 2.632835 1_555
Hg6 O27 2.272997 1_555
Hg6 O34 2.416430 1_555
Hg6 O16 2.470817 1_555
Hg6 O44 2.479824 1_555
Hg6 O20 2.487847 1_555
Hg6 O47 2.632835 1_555
Hg7 O5 2.272997 1_555
Hg7 O8 2.416430 1_555
Hg7 O36 2.470817 1_555
Hg7 O19 2.479824 1_555
Hg7 O9 2.487847 1_555
Hg7 O28 2.632835 1_555
O0 Se13 1.759018 1_555
O1 Se5 1.729146 1_555
O2 Se14 1.772582 1_555
O3 Se0 1.737845 1_555
O4 Se0 1.772582 1_555
O5 Se6 1.772582 1_555
O6 Se15 1.734980 1_545
O7 Se8 1.759018 1_555
O8 Se4 1.759018 1_555
O9 Se4 1.751414 1_555
O10 Se4 1.734980 1_555
O11 Se14 1.737845 1_555
O12 Se8 1.751414 1_555
O13 Se1 1.751414 1_555
O14 Se7 1.751414 1_555
O15 Se10 1.772582 1_555
O16 Se10 1.737845 1_555
O17 Se11 1.759018 1_555
O18 Se9 1.751414 1_555
O19 Se11 1.734980 1_565
O20 Se15 1.751414 1_555
O21 Se9 1.734980 1_555
O22 Se1 1.759018 1_555
O23 Se7 1.759018 1_555
O24 Se12 1.772582 1_555
O25 Se5 1.737845 1_555
O26 Se2 1.737845 1_555
O27 Se5 1.772582 1_555
O28 Se12 1.729146 1_555
O29 Se1 1.734980 1_555
O30 Se6 1.729146 1_555
O31 Se6 1.737845 1_555
O32 Se3 1.737845 1_555
O33 Se2 1.729146 1_555
O34 Se15 1.759018 1_555
O35 Se3 1.729146 1_555
O36 Se12 1.737845 1_555
O37 Se14 1.729146 1_555
O38 Se9 1.759018 1_555
O39 Se13 1.734980 1_545
O40 Se8 1.734980 1_565
O41 Se2 1.772582 1_555
O42 Se3 1.772582 1_555
O43 Se11 1.751414 1_555
O44 Se7 1.734980 1_555
O45 Se13 1.751414 1_555
O46 Se0 1.729146 1_555
O47 Se10 1.729146 1_555
