# generated using pymatgen
data_Na2TeO4
_symmetry_space_group_name_H-M   'P 1'
_cell_length_a   5.17118825
_cell_length_b   10.56868365
_cell_length_c   13.74279314
_cell_angle_alpha   76.51452187
_cell_angle_beta   90.00000000
_cell_angle_gamma   90.00000000
_symmetry_Int_Tables_number   1
_chemical_formula_structural   Na2TeO4
_chemical_formula_sum   'Na16 Te8 O32'
_cell_volume   730.37211457
_cell_formula_units_Z   8
loop_
 _symmetry_equiv_pos_site_id
 _symmetry_equiv_pos_as_xyz
  1  'x, y, z'
loop_
 _atom_site_type_symbol
 _atom_site_label
 _atom_site_symmetry_multiplicity
 _atom_site_fract_x
 _atom_site_fract_y
 _atom_site_fract_z
 _atom_site_occupancy
  Na  Na0  1  0.10478857  0.95703410  0.68598211  1
  Na  Na1  1  0.75072348  0.56859440  0.60254302  1
  Na  Na2  1  0.26146285  0.64484461  0.19743005  1
  Na  Na3  1  0.73853715  0.35515539  0.80256995  1
  Na  Na4  1  0.25072348  0.43140560  0.89745698  1
  Na  Na5  1  0.23853715  0.64484461  0.69743005  1
  Na  Na6  1  0.76146285  0.35515539  0.30256995  1
  Na  Na7  1  0.39521143  0.95703410  0.18598211  1
  Na  Na8  1  0.75625801  0.87074307  0.53280433  1
  Na  Na9  1  0.89521143  0.04296590  0.31401789  1
  Na  Na10  1  0.74927652  0.56859440  0.10254302  1
  Na  Na11  1  0.60478857  0.04296590  0.81401789  1
  Na  Na12  1  0.24927652  0.43140560  0.39745698  1
  Na  Na13  1  0.74374199  0.87074307  0.03280433  1
  Na  Na14  1  0.25625801  0.12925693  0.96719567  1
  Na  Na15  1  0.24374199  0.12925693  0.46719567  1
  Te  Te0  1  0.72479603  0.70868346  0.81628108  1
  Te  Te1  1  0.27520397  0.29131654  0.18371892  1
  Te  Te2  1  0.22479603  0.29131654  0.68371892  1
  Te  Te3  1  0.27623320  0.77618286  0.42320461  1
  Te  Te4  1  0.72376680  0.22381714  0.57679539  1
  Te  Te5  1  0.77623320  0.22381714  0.07679539  1
  Te  Te6  1  0.22376680  0.77618286  0.92320461  1
  Te  Te7  1  0.77520397  0.70868346  0.31628108  1
  O  O0  1  0.09461563  0.81534320  0.28649890  1
  O  O1  1  0.63584471  0.76414515  0.18941610  1
  O  O2  1  0.59747881  0.86109408  0.35590960  1
  O  O3  1  0.45102306  0.32268062  0.04799313  1
  O  O4  1  0.34968758  0.93134012  0.94247510  1
  O  O5  1  0.95102306  0.67731938  0.45200687  1
  O  O6  1  0.58410686  0.55691747  0.79565489  1
  O  O7  1  0.91939478  0.28107406  0.95219507  1
  O  O8  1  0.90252119  0.86109408  0.85590960  1
  O  O9  1  0.13584471  0.23585485  0.31058390  1
  O  O10  1  0.08060522  0.71892594  0.04780493  1
  O  O11  1  0.54897694  0.67731938  0.95200687  1
  O  O12  1  0.40538437  0.81534320  0.78649890  1
  O  O13  1  0.36415529  0.23585485  0.81058390  1
  O  O14  1  0.54915515  0.37012938  0.62274316  1
  O  O15  1  0.58060522  0.28107406  0.45219507  1
  O  O16  1  0.59461563  0.18465680  0.21350110  1
  O  O17  1  0.04897694  0.32268062  0.54799313  1
  O  O18  1  0.84968758  0.06865988  0.55752490  1
  O  O19  1  0.04915515  0.62987062  0.87725684  1
  O  O20  1  0.41589314  0.44308253  0.20434511  1
  O  O21  1  0.90538437  0.18465680  0.71350110  1
  O  O22  1  0.41939478  0.71892594  0.54780493  1
  O  O23  1  0.09747881  0.13890592  0.14409040  1
  O  O24  1  0.08410686  0.44308253  0.70434511  1
  O  O25  1  0.15031242  0.93134012  0.44247510  1
  O  O26  1  0.40252119  0.13890592  0.64409040  1
  O  O27  1  0.65031242  0.06865988  0.05752490  1
  O  O28  1  0.45084485  0.62987062  0.37725684  1
  O  O29  1  0.95084485  0.37012938  0.12274316  1
  O  O30  1  0.91589314  0.55691747  0.29565489  1
  O  O31  1  0.86415529  0.76414515  0.68941610  1
loop_
_geom_bond_atom_site_label_1
_geom_bond_atom_site_label_2
_geom_bond_distance
_geom_bond_site_symmetry_2
Na0 O18 2.297206 1_465
Na0 O12 2.366889 1_555
Na0 O31 2.379413 1_455
Na0 O26 2.424961 1_565
Na0 O8 2.543876 1_455
Na0 O21 2.723581 1_465
Na1 O14 2.300336 1_555
Na1 O22 2.338455 1_555
Na1 O5 2.358898 1_555
Na1 O24 2.413193 1_655
Na1 O31 2.681701 1_555
Na1 O6 2.765503 1_555
Na2 O10 2.228240 1_555
Na2 O20 2.258145 1_555
Na2 O1 2.298956 1_555
Na2 O30 2.300885 1_455
Na2 O0 2.553128 1_555
Na2 O28 2.628528 1_555
Na3 O7 2.228240 1_555
Na3 O6 2.258145 1_555
Na3 O13 2.298956 1_555
Na3 O24 2.300885 1_655
Na3 O21 2.553128 1_555
Na3 O14 2.628528 1_555
Na4 O19 2.300336 1_555
Na4 O7 2.338455 1_455
Na4 O3 2.358898 1_556
Na4 O6 2.413193 1_555
Na4 O13 2.681701 1_555
Na4 O24 2.765503 1_555
Na5 O22 2.228240 1_555
Na5 O24 2.258145 1_555
Na5 O31 2.298956 1_455
Na5 O6 2.300885 1_555
Na5 O12 2.553128 1_555
Na5 O19 2.628528 1_555
Na6 O15 2.228240 1_555
Na6 O30 2.258145 1_555
Na6 O9 2.298956 1_655
Na6 O20 2.300885 1_555
Na6 O16 2.553128 1_555
Na6 O29 2.628528 1_555
Na7 O27 2.297206 1_565
Na7 O0 2.366889 1_555
Na7 O1 2.379413 1_555
Na7 O23 2.424961 1_565
Na7 O2 2.543876 1_555
Na7 O16 2.723581 1_565
Na8 O18 2.248459 1_565
Na8 O31 2.254321 1_555
Na8 O22 2.344606 1_555
Na8 O25 2.394309 1_655
Na8 O2 2.590384 1_555
Na8 O5 2.735854 1_555
Na9 O25 2.297206 1_645
Na9 O16 2.366889 1_555
Na9 O9 2.379413 1_655
Na9 O2 2.424961 1_545
Na9 O23 2.543876 1_655
Na9 O0 2.723581 1_645
Na10 O29 2.300336 1_555
Na10 O10 2.338455 1_655
Na10 O11 2.358898 1_554
Na10 O20 2.413193 1_555
Na10 O1 2.681701 1_555
Na10 O30 2.765503 1_555
Na11 O4 2.297206 1_545
Na11 O21 2.366889 1_555
Na11 O13 2.379413 1_555
Na11 O8 2.424961 1_545
Na11 O26 2.543876 1_555
Na11 O12 2.723581 1_545
Na12 O28 2.300336 1_555
Na12 O15 2.338455 1_555
Na12 O17 2.358898 1_555
Na12 O30 2.413193 1_455
Na12 O9 2.681701 1_555
Na12 O20 2.765503 1_555
Na13 O27 2.248459 1_565
Na13 O1 2.254321 1_555
Na13 O10 2.344606 1_655
Na13 O4 2.394309 1_554
Na13 O8 2.590384 1_554
Na13 O11 2.735854 1_554
Na14 O4 2.248459 1_545
Na14 O13 2.254321 1_555
Na14 O7 2.344606 1_455
Na14 O27 2.394309 1_556
Na14 O23 2.590384 1_556
Na14 O3 2.735854 1_556
Na15 O25 2.248459 1_545
Na15 O9 2.254321 1_555
Na15 O15 2.344606 1_555
Na15 O18 2.394309 1_455
Na15 O26 2.590384 1_555
Na15 O17 2.735854 1_555
O0 Te7 1.987781 1_455
O0 Te3 2.054332 1_555
O1 Te7 1.850947 1_555
O2 Te3 2.008282 1_555
O2 Te7 2.035928 1_555
O2 O25 2.779474 1_555
O3 Te5 1.970711 1_555
O3 Te1 2.031577 1_555
O4 Te6 1.840016 1_555
O4 O8 2.779474 1_455
O5 Te3 1.970711 1_655
O5 Te7 2.031577 1_555
O6 Te0 1.842393 1_555
O7 Te5 1.833885 1_556
O8 Te6 2.008282 1_655
O8 Te0 2.035928 1_555
O9 Te1 1.850947 1_555
O10 Te6 1.833885 1_554
O10 O19 2.726647 1_554
O11 Te6 1.970711 1_555
O11 Te0 2.031577 1_555
O11 O6 2.746713 1_555
O12 Te0 1.987781 1_555
O12 Te6 2.054332 1_555
O13 Te2 1.850947 1_555
O14 Te2 1.970755 1_555
O14 Te4 2.015089 1_555
O14 O15 2.726647 1_555
O15 Te4 1.833885 1_555
O16 Te1 1.987781 1_555
O16 Te5 2.054332 1_555
O17 Te4 1.970711 1_455
O17 Te2 2.031577 1_555
O17 O24 2.746713 1_555
O18 Te4 1.840016 1_555
O18 O26 2.779474 1_555
O19 Te0 1.970755 1_455
O19 Te6 2.015089 1_555
O20 Te1 1.842393 1_555
O20 O3 2.746713 1_555
O21 Te2 1.987781 1_655
O21 Te4 2.054332 1_555
O22 Te3 1.833885 1_555
O22 O28 2.726647 1_555
O23 Te5 2.008282 1_455
O23 Te1 2.035928 1_555
O23 O27 2.779474 1_455
O24 Te2 1.842393 1_555
O25 Te3 1.840016 1_555
O26 Te4 2.008282 1_555
O26 Te2 2.035928 1_555
O27 Te5 1.840016 1_555
O28 Te7 1.970755 1_555
O28 Te3 2.015089 1_555
O29 Te1 1.970755 1_655
O29 Te5 2.015089 1_555
O29 O7 2.726647 1_554
O30 Te7 1.842393 1_555
O30 O5 2.746713 1_555
O31 Te0 1.850947 1_555
