# generated using pymatgen
data_HfGeTe4
_symmetry_space_group_name_H-M   'P 1'
_cell_length_a   4.01324803
_cell_length_b   8.57909793
_cell_length_c   11.09401546
_cell_angle_alpha   89.99996202
_cell_angle_beta   89.99832936
_cell_angle_gamma   103.50848710
_symmetry_Int_Tables_number   1
_chemical_formula_structural   HfGeTe4
_chemical_formula_sum   'Hf2 Ge2 Te8'
_cell_volume   371.40047935
_cell_formula_units_Z   2
loop_
 _symmetry_equiv_pos_site_id
 _symmetry_equiv_pos_as_xyz
  1  'x, y, z'
loop_
 _atom_site_type_symbol
 _atom_site_label
 _atom_site_symmetry_multiplicity
 _atom_site_fract_x
 _atom_site_fract_y
 _atom_site_fract_z
 _atom_site_occupancy
  Hf  Hf0  1  0.34466837  0.68921834  0.27287268  1
  Hf  Hf1  1  0.65534076  0.31077783  0.77287939  1
  Ge  Ge0  1  0.22950911  0.45780994  0.46240426  1
  Ge  Ge1  1  0.77049867  0.54219194  0.96240041  1
  Te  Te0  1  0.27403311  0.54937245  0.69652321  1
  Te  Te1  1  0.37537100  0.75141233  0.00059314  1
  Te  Te2  1  0.72596839  0.45059442  0.19648959  1
  Te  Te3  1  0.97268748  0.94786424  0.24149981  1
  Te  Te4  1  0.10308543  0.20910932  0.95827256  1
  Te  Te5  1  0.89683021  0.79090298  0.45826352  1
  Te  Te6  1  0.02736884  0.05214944  0.74152886  1
  Te  Te7  1  0.62463865  0.24859677  0.50059057  1
loop_
_geom_bond_atom_site_label_1
_geom_bond_atom_site_label_2
_geom_bond_distance
_geom_bond_site_symmetry_2
Hf0 Te2 2.949522 1_455
Hf0 Te2 2.951973 1_555
Hf0 Te3 2.963859 1_555
Hf0 Te3 2.970028 1_455
Hf0 Te5 2.992266 1_455
Hf0 Te5 2.999799 1_555
Hf0 Te1 3.064899 1_555
Hf1 Te0 2.949248 1_655
Hf1 Te0 2.951728 1_555
Hf1 Te6 2.963637 1_555
Hf1 Te6 2.969987 1_655
Hf1 Te4 2.992044 1_655
Hf1 Te4 2.999963 1_555
Hf1 Te7 3.064990 1_555
Ge0 Te7 2.691715 1_555
Ge0 Te7 2.694097 1_455
Ge0 Te0 2.707305 1_555
Ge0 Hf0 2.854367 1_555
Ge0 Te5 3.425374 1_455
Ge0 Te5 3.430041 1_555
Ge0 Te2 3.568245 1_455
Ge0 Te2 3.568429 1_555
Ge1 Te1 2.691756 1_556
Ge1 Te1 2.694165 1_656
Ge1 Te2 2.707059 1_556
Ge1 Hf1 2.854335 1_555
Ge1 Te4 3.425072 1_655
Ge1 Te4 3.430200 1_555
Ge1 Te0 3.567824 1_655
Ge1 Te0 3.568151 1_555
Te0 Te1 3.770954 1_556
Te1 Te3 3.720590 1_555
Te1 Te3 3.723882 1_455
Te2 Te7 3.771081 1_555
Te3 Te5 2.738134 1_555
Te3 Te4 3.823868 1_664
Te4 Te6 2.737952 1_555
Te5 Te6 3.824249 1_665
Te6 Te7 3.720627 1_555
Te6 Te7 3.724279 1_455
