# generated using pymatgen
data_K3PO4
_symmetry_space_group_name_H-M   'P 1'
_cell_length_a   5.93523976
_cell_length_b   8.05900519
_cell_length_c   11.18210995
_cell_angle_alpha   90.00000000
_cell_angle_beta   90.00000000
_cell_angle_gamma   90.00000000
_symmetry_Int_Tables_number   1
_chemical_formula_structural   K3PO4
_chemical_formula_sum   'K12 P4 O16'
_cell_volume   534.86411477
_cell_formula_units_Z   4
loop_
 _symmetry_equiv_pos_site_id
 _symmetry_equiv_pos_as_xyz
  1  'x, y, z'
loop_
 _atom_site_type_symbol
 _atom_site_label
 _atom_site_symmetry_multiplicity
 _atom_site_fract_x
 _atom_site_fract_y
 _atom_site_fract_z
 _atom_site_occupancy
  K  K0  1  0.80520415  0.49259520  0.64378960  1
  K  K1  1  0.19479585  0.99259520  0.35621040  1
  K  K2  1  0.30520415  0.50740480  0.85621040  1
  K  K3  1  0.13539678  0.25000000  0.06892068  1
  K  K4  1  0.63539678  0.75000000  0.43107932  1
  K  K5  1  0.86460322  0.75000000  0.93107932  1
  K  K6  1  0.30520415  0.99259520  0.85621040  1
  K  K7  1  0.36460322  0.25000000  0.56892068  1
  K  K8  1  0.69479585  0.49259520  0.14378960  1
  K  K9  1  0.19479585  0.50740480  0.35621040  1
  K  K10  1  0.80520415  0.00740480  0.64378960  1
  K  K11  1  0.69479585  0.00740480  0.14378960  1
  P  P0  1  0.78219203  0.25000000  0.38454267  1
  P  P1  1  0.71780797  0.25000000  0.88454267  1
  P  P2  1  0.21780797  0.75000000  0.61545733  1
  P  P3  1  0.28219203  0.75000000  0.11545733  1
  O  O0  1  0.05153675  0.75000000  0.50820149  1
  O  O1  1  0.63418571  0.09239260  0.38965282  1
  O  O2  1  0.13418571  0.90760740  0.11034718  1
  O  O3  1  0.86581429  0.40760740  0.88965282  1
  O  O4  1  0.13418571  0.59239260  0.11034718  1
  O  O5  1  0.57784711  0.25000000  0.76769443  1
  O  O6  1  0.36581429  0.90760740  0.61034718  1
  O  O7  1  0.44846325  0.75000000  0.00820149  1
  O  O8  1  0.63418571  0.40760740  0.38965282  1
  O  O9  1  0.92215289  0.25000000  0.26769443  1
  O  O10  1  0.55153675  0.25000000  0.99179851  1
  O  O11  1  0.86581429  0.09239260  0.88965282  1
  O  O12  1  0.36581429  0.59239260  0.61034718  1
  O  O13  1  0.94846325  0.25000000  0.49179851  1
  O  O14  1  0.07784711  0.75000000  0.73230557  1
  O  O15  1  0.42215289  0.75000000  0.23230557  1
loop_
_geom_bond_atom_site_label_1
_geom_bond_atom_site_label_2
_geom_bond_distance
_geom_bond_site_symmetry_2
K0 O13 2.726512 1_555
K0 O5 2.750075 1_555
K0 O12 2.754587 1_555
K0 O14 2.810964 1_655
K0 O3 2.856047 1_555
K0 O0 2.956275 1_655
K0 O8 3.094374 1_555
K0 K4 3.313080 1_555
K1 O0 2.726512 1_555
K1 O15 2.750075 1_555
K1 O1 2.754587 1_565
K1 O9 2.810964 1_465
K1 O2 2.856047 1_555
K1 O13 2.956275 1_465
K1 O6 3.094374 1_555
K1 K7 3.313080 1_565
K2 O7 2.726512 1_556
K2 O14 2.750075 1_555
K2 O3 2.754587 1_455
K2 O5 2.810964 1_555
K2 O12 2.856047 1_555
K2 O10 2.956275 1_555
K2 O4 3.094374 1_556
K2 K3 3.313080 1_556
K3 O9 2.557796 1_455
K3 O10 2.616118 1_554
K3 O4 2.797967 1_555
K3 O2 2.797967 1_545
K3 O3 2.862134 1_454
K3 O11 2.862134 1_454
K3 K6 3.313080 1_544
K4 O15 2.557796 1_555
K4 O0 2.616118 1_655
K4 O1 2.797967 1_565
K4 O8 2.797967 1_555
K4 O6 2.862134 1_555
K4 O12 2.862134 1_555
K5 O14 2.557796 1_655
K5 O7 2.616118 1_556
K5 O11 2.797967 1_565
K5 O3 2.797967 1_555
K5 O2 2.862134 1_656
K5 O4 2.862134 1_656
K5 K8 3.313080 1_556
K6 O7 2.726512 1_556
K6 O14 2.750075 1_555
K6 O11 2.754587 1_465
K6 O5 2.810964 1_565
K6 O6 2.856047 1_555
K6 O10 2.956275 1_565
K6 O2 3.094374 1_556
K7 O5 2.557796 1_555
K7 O13 2.616118 1_455
K7 O12 2.797967 1_555
K7 O6 2.797967 1_545
K7 O8 2.862134 1_555
K7 O1 2.862134 1_555
K7 K9 3.313080 1_555
K8 O10 2.726512 1_554
K8 O9 2.750075 1_555
K8 O4 2.754587 1_655
K8 O15 2.810964 1_555
K8 O8 2.856047 1_555
K8 O7 2.956275 1_555
K8 O3 3.094374 1_554
K9 O0 2.726512 1_555
K9 O15 2.750075 1_555
K9 O8 2.754587 1_555
K9 O9 2.810964 1_455
K9 O4 2.856047 1_555
K9 O13 2.956275 1_455
K9 O12 3.094374 1_555
K10 O13 2.726512 1_555
K10 O5 2.750075 1_555
K10 O6 2.754587 1_545
K10 O14 2.810964 1_645
K10 O11 2.856047 1_555
K10 O0 2.956275 1_645
K10 O1 3.094374 1_555
K10 K4 3.313080 1_545
K11 O10 2.726512 1_554
K11 O9 2.750075 1_555
K11 O2 2.754587 1_645
K11 O15 2.810964 1_545
K11 O1 2.856047 1_555
K11 O7 2.956275 1_545
K11 O11 3.094374 1_554
K11 K5 3.313080 1_544
O0 P2 1.553166 1_555
O1 P0 1.545396 1_555
O2 P3 1.545396 1_555
O3 P1 1.545396 1_555
O4 P3 1.545396 1_555
O5 P1 1.548320 1_555
O6 P2 1.545396 1_555
O7 P3 1.553166 1_555
O8 P0 1.545396 1_555
O9 P0 1.548320 1_555
O10 P1 1.553166 1_555
O11 P1 1.545396 1_555
O12 P2 1.545396 1_555
O13 P0 1.553166 1_555
O14 P2 1.548320 1_555
O15 P3 1.548320 1_555
