# generated using pymatgen
data_BaBi2(B2O5)2
_symmetry_space_group_name_H-M   'P 1'
_cell_length_a   6.48026700
_cell_length_b   10.27732200
_cell_length_c   12.60511197
_cell_angle_alpha   76.89781172
_cell_angle_beta   90.00000000
_cell_angle_gamma   90.00000000
_symmetry_Int_Tables_number   1
_chemical_formula_structural   BaBi2(B2O5)2
_chemical_formula_sum   'Ba4 Bi8 B16 O40'
_cell_volume   817.64343146
_cell_formula_units_Z   4
loop_
 _symmetry_equiv_pos_site_id
 _symmetry_equiv_pos_as_xyz
  1  'x, y, z'
loop_
 _atom_site_type_symbol
 _atom_site_label
 _atom_site_symmetry_multiplicity
 _atom_site_fract_x
 _atom_site_fract_y
 _atom_site_fract_z
 _atom_site_occupancy
  Ba  Ba0  1  0.40614500  0.87207700  0.37708200  1
  Ba  Ba1  1  0.09385500  0.87207700  0.87708200  1
  Ba  Ba2  1  0.59385500  0.12792300  0.62291800  1
  Ba  Ba3  1  0.90614500  0.12792300  0.12291800  1
  Bi  Bi0  1  0.85010100  0.72778400  0.62858300  1
  Bi  Bi1  1  0.32590500  0.51745400  0.61793700  1
  Bi  Bi2  1  0.14989900  0.27221600  0.37141700  1
  Bi  Bi3  1  0.17409500  0.51745400  0.11793700  1
  Bi  Bi4  1  0.64989900  0.72778400  0.12858300  1
  Bi  Bi5  1  0.67409500  0.48254600  0.38206300  1
  Bi  Bi6  1  0.82590500  0.48254600  0.88206300  1
  Bi  Bi7  1  0.35010100  0.27221600  0.87141700  1
  B  B0  1  0.08506100  0.21638000  0.67192700  1
  B  B1  1  0.79824400  0.38811600  0.66893200  1
  B  B2  1  0.87220000  0.19717900  0.84062000  1
  B  B3  1  0.62780000  0.19717900  0.34062000  1
  B  B4  1  0.11046400  0.99382400  0.60440200  1
  B  B5  1  0.41493900  0.21638000  0.17192700  1
  B  B6  1  0.58506100  0.78362000  0.82807300  1
  B  B7  1  0.70175600  0.38811600  0.16893200  1
  B  B8  1  0.91493900  0.78362000  0.32807300  1
  B  B9  1  0.20175600  0.61188400  0.33106800  1
  B  B10  1  0.29824400  0.61188400  0.83106800  1
  B  B11  1  0.12780000  0.80282100  0.15938000  1
  B  B12  1  0.38953600  0.99382400  0.10440200  1
  B  B13  1  0.88953600  0.00617600  0.39559800  1
  B  B14  1  0.61046400  0.00617600  0.89559800  1
  B  B15  1  0.37220000  0.80282100  0.65938000  1
  O  O0  1  0.09271400  0.50312300  0.29323400  1
  O  O1  1  0.33510800  0.12630800  0.10021200  1
  O  O2  1  0.78388400  0.29044500  0.27425300  1
  O  O3  1  0.23403100  0.91106800  0.07783200  1
  O  O4  1  0.41938400  0.05420200  0.86455400  1
  O  O5  1  0.08061600  0.05420200  0.36455400  1
  O  O6  1  0.59271400  0.49687700  0.20676600  1
  O  O7  1  0.73403100  0.08893200  0.42216800  1
  O  O8  1  0.28388400  0.70955500  0.22574700  1
  O  O9  1  0.37166700  0.56239000  0.40694400  1
  O  O10  1  0.87166700  0.43761000  0.09305600  1
  O  O11  1  0.77362200  0.71298400  0.79970800  1
  O  O12  1  0.83510800  0.87369200  0.39978800  1
  O  O13  1  0.06392400  0.68786900  0.38903900  1
  O  O14  1  0.91938400  0.94579800  0.63544600  1
  O  O15  1  0.72637800  0.71298400  0.29970800  1
  O  O16  1  0.90728600  0.49687700  0.70676600  1
  O  O17  1  0.50276000  0.72787100  0.59565100  1
  O  O18  1  0.16489200  0.12630800  0.60021200  1
  O  O19  1  0.27362200  0.28701600  0.70029200  1
  O  O20  1  0.71611600  0.29044500  0.77425300  1
  O  O21  1  0.99347100  0.13281100  0.76993800  1
  O  O22  1  0.21611600  0.70955500  0.72574700  1
  O  O23  1  0.99724000  0.72787100  0.09565100  1
  O  O24  1  0.62833300  0.43761000  0.59305600  1
  O  O25  1  0.66489200  0.87369200  0.89978800  1
  O  O26  1  0.12833300  0.56239000  0.90694400  1
  O  O27  1  0.26596900  0.91106800  0.57783200  1
  O  O28  1  0.49347100  0.86718900  0.73006200  1
  O  O29  1  0.22637800  0.28701600  0.20029200  1
  O  O30  1  0.76596900  0.08893200  0.92216800  1
  O  O31  1  0.49724000  0.27212900  0.40434900  1
  O  O32  1  0.00652900  0.86718900  0.23006200  1
  O  O33  1  0.58061600  0.94579800  0.13544600  1
  O  O34  1  0.43607600  0.68786900  0.88903900  1
  O  O35  1  0.40728600  0.50312300  0.79323400  1
  O  O36  1  0.56392400  0.31213100  0.11096100  1
  O  O37  1  0.93607600  0.31213100  0.61096100  1
  O  O38  1  0.50652900  0.13281100  0.26993800  1
  O  O39  1  0.00276000  0.27212900  0.90434900  1
loop_
_geom_bond_atom_site_label_1
_geom_bond_atom_site_label_2
_geom_bond_distance
_geom_bond_site_symmetry_2
Ba0 O38 2.790504 1_565
Ba0 O12 2.794925 1_555
Ba0 O5 2.800796 1_565
Ba0 O27 2.801566 1_555
Ba0 O17 2.885784 1_555
Ba0 O13 2.897507 1_555
Ba0 O8 2.915659 1_555
Ba0 O15 2.941775 1_555
Ba0 O9 3.127037 1_555
Ba0 O33 3.175417 1_555
Ba0 O32 3.191429 1_555
Ba0 O7 3.221647 1_565
Ba1 O21 2.790504 1_465
Ba1 O25 2.794925 1_455
Ba1 O4 2.800796 1_565
Ba1 O3 2.801566 1_556
Ba1 O23 2.885784 1_456
Ba1 O34 2.897507 1_555
Ba1 O22 2.915659 1_555
Ba1 O11 2.941775 1_455
Ba1 O26 3.127037 1_555
Ba1 O14 3.175417 1_455
Ba1 O28 3.191429 1_555
Ba1 O30 3.221647 1_465
Ba2 O28 2.790504 1_545
Ba2 O18 2.794925 1_555
Ba2 O14 2.800796 1_545
Ba2 O7 2.801566 1_555
Ba2 O31 2.885784 1_555
Ba2 O37 2.897507 1_555
Ba2 O20 2.915659 1_555
Ba2 O19 2.941775 1_555
Ba2 O24 3.127037 1_555
Ba2 O4 3.175417 1_555
Ba2 O21 3.191429 1_555
Ba2 O27 3.221647 1_545
Ba3 O32 2.790504 1_645
Ba3 O1 2.794925 1_655
Ba3 O33 2.800796 1_545
Ba3 O30 2.801566 1_554
Ba3 O39 2.885784 1_654
Ba3 O36 2.897507 1_555
Ba3 O2 2.915659 1_555
Ba3 O29 2.941775 1_655
Ba3 O10 3.127037 1_555
Ba3 O5 3.175417 1_655
Ba3 O38 3.191429 1_555
Ba3 O3 3.221647 1_645
Bi0 O11 2.184690 1_555
Bi0 O17 2.288784 1_555
Bi0 O14 2.305911 1_555
Bi0 O16 2.383246 1_555
Bi0 O22 2.656483 1_655
Bi0 O12 2.935089 1_555
Bi1 O24 2.174688 1_555
Bi1 O35 2.243828 1_555
Bi1 O19 2.384655 1_555
Bi1 O17 2.406963 1_555
Bi1 O9 2.611088 1_555
Bi1 O22 2.732606 1_555
Bi1 O16 2.924068 1_455
Bi2 O29 2.184690 1_555
Bi2 O31 2.288784 1_555
Bi2 O5 2.305911 1_555
Bi2 O0 2.383246 1_555
Bi2 O2 2.656483 1_455
Bi2 O18 2.935089 1_555
Bi3 O10 2.174688 1_455
Bi3 O0 2.243828 1_555
Bi3 O29 2.384655 1_555
Bi3 O23 2.406963 1_455
Bi3 O26 2.611088 1_554
Bi3 O8 2.732606 1_555
Bi3 O6 2.924068 1_555
Bi4 O15 2.184690 1_555
Bi4 O23 2.288784 1_555
Bi4 O33 2.305911 1_555
Bi4 O6 2.383246 1_555
Bi4 O8 2.656483 1_555
Bi4 O25 2.935089 1_554
Bi5 O9 2.174688 1_555
Bi5 O6 2.243828 1_555
Bi5 O15 2.384655 1_555
Bi5 O31 2.406963 1_555
Bi5 O24 2.611088 1_555
Bi5 O2 2.732606 1_555
Bi5 O0 2.924068 1_655
Bi6 O26 2.174688 1_655
Bi6 O16 2.243828 1_555
Bi6 O11 2.384655 1_555
Bi6 O39 2.406963 1_655
Bi6 O10 2.611088 1_556
Bi6 O20 2.732606 1_555
Bi6 O35 2.924068 1_555
Bi7 O19 2.184690 1_555
Bi7 O39 2.288784 1_555
Bi7 O4 2.305911 1_555
Bi7 O35 2.383246 1_555
Bi7 O20 2.656483 1_555
Bi7 O1 2.935089 1_556
B0 O21 1.461222 1_455
B0 O37 1.465676 1_455
B0 O19 1.505198 1_555
B0 O18 1.523518 1_555
B1 O24 1.471487 1_555
B1 O37 1.483344 1_555
B1 O16 1.489243 1_555
B1 O20 1.564977 1_555
B2 O21 1.454727 1_555
B2 O39 1.494996 1_655
B2 O30 1.499899 1_555
B2 O20 1.509345 1_555
B3 O38 1.454727 1_555
B3 O31 1.494996 1_555
B3 O7 1.499899 1_555
B3 O2 1.509345 1_555
B4 O14 1.357365 1_455
B4 O18 1.395884 1_565
B4 O27 1.407185 1_555
B5 O38 1.461222 1_555
B5 O36 1.465676 1_555
B5 O29 1.505198 1_555
B5 O1 1.523518 1_555
B6 O28 1.461222 1_555
B6 O34 1.465676 1_555
B6 O11 1.505198 1_555
B6 O25 1.523518 1_555
B7 O10 1.471487 1_555
B7 O36 1.483344 1_555
B7 O6 1.489243 1_555
B7 O2 1.564977 1_555
B8 O32 1.461222 1_655
B8 O13 1.465676 1_655
B8 O15 1.505198 1_555
B8 O12 1.523518 1_555
B9 O9 1.471487 1_555
B9 O13 1.483344 1_555
B9 O0 1.489243 1_555
B9 O8 1.564977 1_555
B10 O26 1.471487 1_555
B10 O34 1.483344 1_555
B10 O35 1.489243 1_555
B10 O22 1.564977 1_555
B11 O32 1.454727 1_555
B11 O23 1.494996 1_455
B11 O3 1.499899 1_555
B11 O8 1.509345 1_555
B12 O33 1.357365 1_555
B12 O1 1.395884 1_565
B12 O3 1.407185 1_555
B13 O5 1.357365 1_655
B13 O12 1.395884 1_545
B13 O7 1.407185 1_555
B14 O4 1.357365 1_555
B14 O25 1.395884 1_545
B14 O30 1.407185 1_555
B15 O28 1.454727 1_555
B15 O17 1.494996 1_555
B15 O27 1.499899 1_555
B15 O22 1.509345 1_555
