# generated using pymatgen
data_KSmP2S7
_symmetry_space_group_name_H-M   'P 1'
_cell_length_a   12.41296512
_cell_length_b   9.03657023
_cell_length_c   9.72223489
_cell_angle_alpha   89.75967615
_cell_angle_beta   90.00000000
_cell_angle_gamma   90.00000000
_symmetry_Int_Tables_number   1
_chemical_formula_structural   KSmP2S7
_chemical_formula_sum   'K4 Sm4 P8 S28'
_cell_volume   1090.53962980
_cell_formula_units_Z   4
loop_
 _symmetry_equiv_pos_site_id
 _symmetry_equiv_pos_as_xyz
  1  'x, y, z'
loop_
 _atom_site_type_symbol
 _atom_site_label
 _atom_site_symmetry_multiplicity
 _atom_site_fract_x
 _atom_site_fract_y
 _atom_site_fract_z
 _atom_site_occupancy
  K  K0  1  0.80766679  0.13081497  0.39464731  1
  K  K1  1  0.69233321  0.63081497  0.39464731  1
  K  K2  1  0.30766679  0.36918503  0.60535269  1
  K  K3  1  0.19233321  0.86918503  0.60535269  1
  Sm  Sm0  1  0.35734212  0.60690200  0.14195944  1
  Sm  Sm1  1  0.85734212  0.89309800  0.85804056  1
  Sm  Sm2  1  0.64265788  0.39309800  0.85804056  1
  Sm  Sm3  1  0.14265788  0.10690200  0.14195944  1
  P  P0  1  0.39701375  0.97752115  0.27456275  1
  P  P1  1  0.03556332  0.19775243  0.81586373  1
  P  P2  1  0.60298625  0.02247885  0.72543725  1
  P  P3  1  0.53556332  0.30224757  0.18413627  1
  P  P4  1  0.10298625  0.47752115  0.27456275  1
  P  P5  1  0.46443668  0.69775243  0.81586373  1
  P  P6  1  0.89701375  0.52247885  0.72543725  1
  P  P7  1  0.96443668  0.80224757  0.18413627  1
  S  S0  1  0.55645378  0.20938011  0.63191297  1
  S  S1  1  0.55731302  0.67919856  0.98620943  1
  S  S2  1  0.52583034  0.56985728  0.66687735  1
  S  S3  1  0.82977835  0.57420904  0.90917136  1
  S  S4  1  0.69192025  0.35277165  0.14941786  1
  S  S5  1  0.05075854  0.42149292  0.75212701  1
  S  S6  1  0.17022165  0.42579096  0.09082864  1
  S  S7  1  0.32977835  0.92579096  0.09082864  1
  S  S8  1  0.79210100  0.38847560  0.62967053  1
  S  S9  1  0.44354622  0.79061989  0.36808703  1
  S  S10  1  0.29210100  0.11152440  0.37032947  1
  S  S11  1  0.20789900  0.61152440  0.37032947  1
  S  S12  1  0.05645378  0.29061989  0.36808703  1
  S  S13  1  0.47416966  0.43014272  0.33312265  1
  S  S14  1  0.94354622  0.70938011  0.63191297  1
  S  S15  1  0.55075854  0.07850708  0.24787299  1
  S  S16  1  0.44268698  0.32080144  0.01379057  1
  S  S17  1  0.70789900  0.88847560  0.62967053  1
  S  S18  1  0.02583034  0.93014272  0.33312265  1
  S  S19  1  0.44924146  0.92149292  0.75212701  1
  S  S20  1  0.19192025  0.14722835  0.85058214  1
  S  S21  1  0.94268698  0.17919856  0.98620943  1
  S  S22  1  0.80807975  0.85277165  0.14941786  1
  S  S23  1  0.05731302  0.82080144  0.01379057  1
  S  S24  1  0.94924146  0.57850708  0.24787299  1
  S  S25  1  0.67022165  0.07420904  0.90917136  1
  S  S26  1  0.30807975  0.64722835  0.85058214  1
  S  S27  1  0.97416966  0.06985728  0.66687735  1
loop_
_geom_bond_atom_site_label_1
_geom_bond_atom_site_label_2
_geom_bond_distance
_geom_bond_site_symmetry_2
K0 S8 3.274792 1_555
K0 S18 3.314942 1_645
K0 S17 3.392408 1_545
K0 S27 3.401144 1_555
K0 S12 3.418454 1_655
K0 S4 3.425114 1_555
K0 S22 3.470956 1_545
K0 S15 3.526333 1_555
K0 S0 3.944955 1_555
K1 S17 3.274792 1_555
K1 S13 3.314942 1_555
K1 S8 3.392408 1_555
K1 S2 3.401144 1_555
K1 S9 3.418454 1_555
K1 S22 3.425114 1_555
K1 S4 3.470956 1_555
K1 S24 3.526333 1_555
K1 S14 3.944955 1_555
K2 S10 3.274792 1_555
K2 S2 3.314942 1_555
K2 S11 3.392408 1_555
K2 S13 3.401144 1_555
K2 S0 3.418454 1_555
K2 S20 3.425114 1_555
K2 S26 3.470956 1_555
K2 S5 3.526333 1_555
K2 S12 3.944955 1_555
K3 S11 3.274792 1_555
K3 S27 3.314942 1_465
K3 S10 3.392408 1_565
K3 S18 3.401144 1_555
K3 S14 3.418454 1_455
K3 S26 3.425114 1_555
K3 S20 3.470956 1_565
K3 S19 3.526333 1_555
K3 S9 3.944955 1_555
P0 S9 2.000012 1_555
P0 S10 2.009632 1_565
P0 S7 2.028043 1_555
P0 S15 2.130780 1_565
P1 S27 2.007143 1_455
P1 S20 2.021881 1_555
P1 S21 2.024276 1_455
P1 S5 2.120593 1_555
P2 S0 2.000012 1_555
P2 S17 2.009632 1_545
P2 S25 2.028043 1_555
P2 S19 2.130780 1_545
P3 S13 2.007143 1_555
P3 S4 2.021881 1_555
P3 S16 2.024276 1_555
P3 S15 2.120593 1_555
P4 S12 2.000012 1_555
P4 S11 2.009632 1_555
P4 S6 2.028043 1_555
P4 S24 2.130780 1_455
P5 S2 2.007143 1_555
P5 S26 2.021881 1_555
P5 S1 2.024276 1_555
P5 S19 2.120593 1_555
P6 S14 2.000012 1_555
P6 S8 2.009632 1_555
P6 S3 2.028043 1_555
P6 S5 2.130780 1_655
P7 S18 2.007143 1_655
P7 S22 2.021881 1_555
P7 S23 2.024276 1_655
P7 S24 2.120593 1_555
S0 Sm2 2.960586 1_555
S1 Sm0 2.978743 1_556
S1 Sm2 3.063687 1_555
S2 Sm2 2.843170 1_555
S3 Sm2 2.885741 1_555
S3 Sm1 2.942132 1_555
S4 Sm2 2.919423 1_554
S6 Sm0 2.885741 1_555
S6 Sm3 2.942132 1_555
S7 Sm3 2.885741 1_565
S7 Sm0 2.942132 1_555
S8 Sm2 2.893657 1_555
S9 Sm0 2.960586 1_555
S10 Sm3 2.893657 1_555
S11 Sm0 2.893657 1_555
S12 Sm3 2.960586 1_555
S13 Sm0 2.843170 1_555
S14 Sm1 2.960586 1_555
S16 Sm2 2.978743 1_554
S16 Sm0 3.063687 1_555
S17 Sm1 2.893657 1_555
S18 Sm3 2.843170 1_565
S20 Sm3 2.919423 1_556
S21 Sm3 2.978743 1_656
S21 Sm1 3.063687 1_545
S22 Sm1 2.919423 1_554
S23 Sm1 2.978743 1_454
S23 Sm3 3.063687 1_565
S25 Sm1 2.885741 1_545
S25 Sm2 2.942132 1_555
S26 Sm0 2.919423 1_556
S27 Sm1 2.843170 1_545
