# generated using pymatgen
data_Tb2InGe2
_symmetry_space_group_name_H-M   'P 1'
_cell_length_a   4.17560489
_cell_length_b   7.41149073
_cell_length_c   7.41149073
_cell_angle_alpha   90.00000000
_cell_angle_beta   90.00000000
_cell_angle_gamma   90.00000000
_symmetry_Int_Tables_number   1
_chemical_formula_structural   Tb2InGe2
_chemical_formula_sum   'Tb4 In2 Ge4'
_cell_volume   229.36679019
_cell_formula_units_Z   2
loop_
 _symmetry_equiv_pos_site_id
 _symmetry_equiv_pos_as_xyz
  1  'x, y, z'
loop_
 _atom_site_type_symbol
 _atom_site_label
 _atom_site_symmetry_multiplicity
 _atom_site_fract_x
 _atom_site_fract_y
 _atom_site_fract_z
 _atom_site_occupancy
  Tb  Tb0  1  0.50000000  0.82036402  0.32036402  1
  Tb  Tb1  1  0.50000000  0.17963598  0.67963598  1
  Tb  Tb2  1  0.50000000  0.32036402  0.17963598  1
  Tb  Tb3  1  0.50000000  0.67963598  0.82036402  1
  In  In0  1  -0.00000000  -0.00000000  0.00000000  1
  In  In1  1  -0.00000000  0.50000000  0.50000000  1
  Ge  Ge0  1  -0.00000000  0.88070019  0.61929981  1
  Ge  Ge1  1  0.00000000  0.11929981  0.38070019  1
  Ge  Ge2  1  -0.00000000  0.38070019  0.88070019  1
  Ge  Ge3  1  0.00000000  0.61929981  0.11929981  1
loop_
_geom_bond_atom_site_label_1
_geom_bond_atom_site_label_2
_geom_bond_distance
_geom_bond_site_symmetry_2
In0 Tb3 3.430615 1_544
In0 Tb1 3.430615 1_554
In0 Tb1 3.430615 1_454
In0 Tb3 3.430615 1_444
In0 Tb2 3.430615 1_455
In0 Tb2 3.430615 1_555
In0 Tb0 3.430615 1_545
In0 Tb0 3.430615 1_445
In1 Tb0 3.430615 1_455
In1 Tb1 3.430615 1_455
In1 Tb1 3.430615 1_555
In1 Tb2 3.430615 1_455
In1 Tb2 3.430615 1_555
In1 Tb3 3.430615 1_555
In1 Tb0 3.430615 1_555
In1 Tb3 3.430615 1_455
Ge0 Ge1 2.500865 1_565
Ge0 In0 2.956851 1_566
Ge0 In1 2.956851 1_555
Ge0 Tb3 2.966517 1_455
Ge0 Tb3 2.966517 1_555
Ge0 Tb0 3.076946 1_555
Ge0 Tb0 3.076946 1_455
Ge0 Tb1 3.076946 1_565
Ge0 Tb1 3.076946 1_465
Ge1 In1 2.956851 1_555
Ge1 In0 2.956851 1_555
Ge1 Tb2 2.966517 1_455
Ge1 Tb2 2.966517 1_555
Ge1 Tb0 3.076946 1_545
Ge1 Tb1 3.076946 1_455
Ge1 Tb0 3.076946 1_445
Ge1 Tb1 3.076946 1_555
Ge2 Ge3 2.500865 1_556
Ge2 In0 2.956851 1_556
Ge2 In1 2.956851 1_555
Ge2 Tb1 2.966517 1_455
Ge2 Tb1 2.966517 1_555
Ge2 Tb3 3.076946 1_455
Ge2 Tb3 3.076946 1_555
Ge2 Tb2 3.076946 1_456
Ge2 Tb2 3.076946 1_556
Ge3 In1 2.956851 1_555
Ge3 In0 2.956851 1_565
Ge3 Tb0 2.966517 1_555
Ge3 Tb0 2.966517 1_455
Ge3 Tb2 3.076946 1_455
Ge3 Tb2 3.076946 1_555
Ge3 Tb3 3.076946 1_554
Ge3 Tb3 3.076946 1_454
