# generated using pymatgen
data_K2Mo4O13
_symmetry_space_group_name_H-M   'P 1'
_cell_length_a   8.01158654
_cell_length_b   8.35216511
_cell_length_c   10.05282415
_cell_angle_alpha   107.22025849
_cell_angle_beta   103.23741893
_cell_angle_gamma   109.61117236
_symmetry_Int_Tables_number   1
_chemical_formula_structural   K2Mo4O13
_chemical_formula_sum   'K4 Mo8 O26'
_cell_volume   563.50995770
_cell_formula_units_Z   2
loop_
 _symmetry_equiv_pos_site_id
 _symmetry_equiv_pos_as_xyz
  1  'x, y, z'
loop_
 _atom_site_type_symbol
 _atom_site_label
 _atom_site_symmetry_multiplicity
 _atom_site_fract_x
 _atom_site_fract_y
 _atom_site_fract_z
 _atom_site_occupancy
  K  K0  1  0.74513362  0.78462458  0.43374901  1
  K  K1  1  0.25484160  0.21537088  0.56624709  1
  K  K2  1  0.69014380  0.23919697  0.31048489  1
  K  K3  1  0.30984478  0.76079870  0.68950359  1
  Mo  Mo0  1  0.81141119  0.50376672  0.05001638  1
  Mo  Mo1  1  0.18859058  0.49623151  0.94998408  1
  Mo  Mo2  1  0.82722130  0.90817855  0.06201672  1
  Mo  Mo3  1  0.17277918  0.09182212  0.93798403  1
  Mo  Mo4  1  0.77514089  0.60489475  0.72623848  1
  Mo  Mo5  1  0.22485914  0.39510555  0.27376422  1
  Mo  Mo6  1  0.77275260  0.19992991  0.70628374  1
  Mo  Mo7  1  0.22725068  0.80006998  0.29371523  1
  O  O0  1  0.65312705  0.94160011  0.96000208  1
  O  O1  1  0.34687064  0.05840079  0.04000169  1
  O  O2  1  0.95004715  0.86279697  0.88045464  1
  O  O3  1  0.04994963  0.13720484  0.11954511  1
  O  O4  1  0.89646747  0.61657710  0.60689090  1
  O  O5  1  0.10353731  0.38342787  0.39311380  1
  O  O6  1  0.70969311  0.63445756  0.94430661  1
  O  O7  1  0.29031008  0.36554107  0.05569174  1
  O  O8  1  0.71499212  0.50990453  0.18461485  1
  O  O9  1  0.28501235  0.49010012  0.81538597  1
  O  O10  1  0.86810450  0.18683368  0.56834876  1
  O  O11  1  0.13189470  0.81316716  0.43165143  1
  O  O12  1  0.63875379  0.34484711  0.66138553  1
  O  O13  1  0.36124504  0.65515266  0.33861774  1
  O  O14  1  0.02439684  0.78606876  0.14565614  1
  O  O15  1  0.97560913  0.21393322  0.85434284  1
  O  O16  1  0.67859986  0.28210183  0.90809418  1
  O  O17  1  0.32140850  0.71789800  0.09190841  1
  O  O18  1  0.59646845  0.98202412  0.64270890  1
  O  O19  1  0.40353830  0.01797791  0.35729470  1
  O  O20  1  0.58653222  0.64342751  0.65353335  1
  O  O21  1  0.41346644  0.35656931  0.34646338  1
  O  O22  1  0.96345911  0.51506949  0.86420201  1
  O  O23  1  0.03654305  0.48493107  0.13579888  1
  O  O24  1  0.79430280  0.94317146  0.22877798  1
  O  O25  1  0.20570202  0.05682751  0.77122292  1
loop_
_geom_bond_atom_site_label_1
_geom_bond_atom_site_label_2
_geom_bond_distance
_geom_bond_site_symmetry_2
K0 O13 2.711297 1_555
K0 O8 2.746667 1_555
K0 O24 2.791356 1_555
K0 O4 2.844616 1_555
K0 O10 2.926264 1_565
K0 O18 2.993809 1_555
K0 O11 3.032402 1_655
K0 O20 3.116022 1_555
K0 O21 3.363071 1_555
K1 O12 2.711466 1_555
K1 O9 2.746644 1_555
K1 O25 2.791345 1_555
K1 O5 2.844517 1_555
K1 O11 2.926252 1_545
K1 O19 2.993923 1_555
K1 O10 3.032233 1_455
K1 O21 3.116104 1_555
K1 O20 3.363148 1_555
K2 O19 2.658836 1_555
K2 O21 2.760643 1_555
K2 O24 2.824977 1_545
K2 O8 2.874021 1_555
K2 O10 2.888087 1_555
K2 O5 2.929082 1_655
K2 O1 2.931499 1_555
K2 O4 3.198725 1_555
K2 O0 3.538555 1_544
K3 O18 2.658869 1_555
K3 O20 2.760697 1_555
K3 O25 2.824929 1_565
K3 O9 2.874052 1_555
K3 O11 2.887986 1_555
K3 O4 2.928982 1_455
K3 O0 2.931623 1_555
K3 O5 3.198601 1_555
K3 O1 3.538662 1_566
Mo0 O8 1.701294 1_555
Mo0 O16 1.736018 1_554
Mo0 O23 1.892109 1_655
Mo0 O6 1.967789 1_554
Mo0 O14 2.145020 1_655
Mo0 O22 2.459953 1_554
Mo1 O9 1.701307 1_555
Mo1 O17 1.736038 1_556
Mo1 O22 1.892115 1_455
Mo1 O7 1.967779 1_556
Mo1 O15 2.144986 1_455
Mo1 O23 2.459953 1_556
Mo2 O0 1.688432 1_554
Mo2 O24 1.711573 1_555
Mo2 O3 1.938746 1_665
Mo2 O6 1.989056 1_554
Mo2 O2 2.259796 1_554
Mo2 O14 2.285490 1_655
Mo3 O1 1.688428 1_556
Mo3 O25 1.711585 1_555
Mo3 O2 1.938754 1_445
Mo3 O7 1.989038 1_556
Mo3 O3 2.259809 1_556
Mo3 O15 2.285472 1_455
Mo4 O20 1.697347 1_555
Mo4 O4 1.712762 1_555
Mo4 O12 1.891731 1_555
Mo4 O2 2.002150 1_555
Mo4 O22 2.276018 1_555
Mo4 O6 2.331198 1_555
Mo5 O21 1.697339 1_555
Mo5 O5 1.712749 1_555
Mo5 O13 1.891725 1_555
Mo5 O3 2.002155 1_555
Mo5 O23 2.276019 1_555
Mo5 O7 2.331250 1_555
Mo6 O18 1.699392 1_545
Mo6 O10 1.723283 1_555
Mo6 O15 1.879319 1_555
Mo6 O12 1.948078 1_555
Mo6 O16 2.319451 1_555
Mo6 O22 2.344812 1_555
Mo7 O19 1.699409 1_565
Mo7 O11 1.723315 1_555
Mo7 O14 1.879313 1_555
Mo7 O13 1.948067 1_555
Mo7 O17 2.319445 1_555
Mo7 O23 2.344805 1_555
O0 O6 2.717451 1_555
O1 O7 2.717421 1_555
O2 O3 2.509256 1_666
O2 O6 2.565714 1_555
O3 O7 2.565737 1_555
O12 O22 2.513479 1_555
O13 O23 2.513471 1_555
O14 O6 2.461597 1_454
O14 O23 2.523176 1_555
O15 O7 2.461582 1_656
O15 O22 2.523171 1_555
