# generated using pymatgen
data_Ca3TiBe2Si2(As3O10)2
_symmetry_space_group_name_H-M   'P 1'
_cell_length_a   8.43236808
_cell_length_b   8.43236808
_cell_length_c   15.49999000
_cell_angle_alpha   90.00000000
_cell_angle_beta   90.00000000
_cell_angle_gamma   120.00000067
_symmetry_Int_Tables_number   1
_chemical_formula_structural   Ca3TiBe2Si2(As3O10)2
_chemical_formula_sum   'Ca6 Ti2 Be4 Si4 As12 O40'
_cell_volume   954.46752942
_cell_formula_units_Z   2
loop_
 _symmetry_equiv_pos_site_id
 _symmetry_equiv_pos_as_xyz
  1  'x, y, z'
loop_
 _atom_site_type_symbol
 _atom_site_label
 _atom_site_symmetry_multiplicity
 _atom_site_fract_x
 _atom_site_fract_y
 _atom_site_fract_z
 _atom_site_occupancy
  Ca  Ca0  1  0.59342700  0.00000000  0.25000000  1
  Ca  Ca1  1  0.59342700  0.59342700  0.75000000  1
  Ca  Ca2  1  0.40657300  0.00000000  0.75000000  1
  Ca  Ca3  1  0.00000000  0.59342700  0.25000000  1
  Ca  Ca4  1  0.40657300  0.40657300  0.25000000  1
  Ca  Ca5  1  0.00000000  0.40657300  0.75000000  1
  Ti  Ti0  1  0.00000000  0.00000000  0.25000000  1
  Ti  Ti1  1  0.00000000  0.00000000  0.75000000  1
  Be  Be0  1  0.33333300  0.66666700  0.13070800  1
  Be  Be1  1  0.66666700  0.33333300  0.86929200  1
  Be  Be2  1  0.66666700  0.33333300  0.36929200  1
  Be  Be3  1  0.33333300  0.66666700  0.63070800  1
  Si  Si0  1  0.33333300  0.66666700  0.92712600  1
  Si  Si1  1  0.33333300  0.66666700  0.42712600  1
  Si  Si2  1  0.66666700  0.33333300  0.07287400  1
  Si  Si3  1  0.66666700  0.33333300  0.57287400  1
  As  As0  1  0.29630300  0.01865400  0.39584200  1
  As  As1  1  0.98134600  0.70369700  0.89584200  1
  As  As2  1  0.98134600  0.27764900  0.39584200  1
  As  As3  1  0.01865400  0.72235100  0.60415800  1
  As  As4  1  0.27764900  0.29630300  0.60415800  1
  As  As5  1  0.72235100  0.01865400  0.89584200  1
  As  As6  1  0.29630300  0.27764900  0.89584200  1
  As  As7  1  0.01865400  0.29630300  0.10415800  1
  As  As8  1  0.70369700  0.72235100  0.10415800  1
  As  As9  1  0.70369700  0.98134600  0.60415800  1
  As  As10  1  0.72235100  0.70369700  0.39584200  1
  As  As11  1  0.27764900  0.98134600  0.10415800  1
  O  O0  1  0.88533000  0.77911500  0.67606400  1
  O  O1  1  0.27966400  0.46509400  0.67487500  1
  O  O2  1  0.46509400  0.27966400  0.82512500  1
  O  O3  1  0.12919400  0.59725200  0.88334900  1
  O  O4  1  0.59725200  0.46805800  0.11665100  1
  O  O5  1  0.40274800  0.53194200  0.88334900  1
  O  O6  1  0.22088500  0.10621500  0.67606400  1
  O  O7  1  0.72033600  0.18543000  0.82512500  1
  O  O8  1  0.46805800  0.59725200  0.38334900  1
  O  O9  1  0.87080600  0.46805800  0.61665100  1
  O  O10  1  0.12919400  0.53194200  0.38334900  1
  O  O11  1  0.66666700  0.33333300  0.47064800  1
  O  O12  1  0.89378500  0.11467000  0.67606400  1
  O  O13  1  0.40274800  0.87080600  0.38334900  1
  O  O14  1  0.10621500  0.22088500  0.82393600  1
  O  O15  1  0.66666700  0.33333300  0.97064800  1
  O  O16  1  0.72033600  0.53490600  0.32512500  1
  O  O17  1  0.46509400  0.18543000  0.32512500  1
  O  O18  1  0.11467000  0.89378500  0.82393600  1
  O  O19  1  0.18543000  0.72033600  0.67487500  1
  O  O20  1  0.53490600  0.72033600  0.17487500  1
  O  O21  1  0.22088500  0.11467000  0.17606400  1
  O  O22  1  0.53490600  0.81457000  0.67487500  1
  O  O23  1  0.88533000  0.10621500  0.17606400  1
  O  O24  1  0.33333300  0.66666700  0.02935200  1
  O  O25  1  0.27966400  0.81457000  0.17487500  1
  O  O26  1  0.81457000  0.27966400  0.32512500  1
  O  O27  1  0.10621500  0.88533000  0.32393600  1
  O  O28  1  0.11467000  0.22088500  0.32393600  1
  O  O29  1  0.33333300  0.66666700  0.52935200  1
  O  O30  1  0.46805800  0.87080600  0.88334900  1
  O  O31  1  0.53194200  0.12919400  0.11665100  1
  O  O32  1  0.81457000  0.53490600  0.82512500  1
  O  O33  1  0.18543000  0.46509400  0.17487500  1
  O  O34  1  0.53194200  0.40274800  0.61665100  1
  O  O35  1  0.59725200  0.12919400  0.61665100  1
  O  O36  1  0.77911500  0.88533000  0.82393600  1
  O  O37  1  0.87080600  0.40274800  0.11665100  1
  O  O38  1  0.77911500  0.89378500  0.32393600  1
  O  O39  1  0.89378500  0.77911500  0.17606400  1
loop_
_geom_bond_atom_site_label_1
_geom_bond_atom_site_label_2
_geom_bond_distance
_geom_bond_site_symmetry_2
Ca0 O23 2.443276 1_555
Ca0 O38 2.443276 1_545
Ca0 O26 2.448868 1_555
Ca0 O20 2.448868 1_545
Ca0 O13 2.508496 1_545
Ca0 O31 2.508496 1_555
Ca0 O25 2.581457 1_545
Ca0 O17 2.581457 1_555
Ca1 O0 2.443276 1_555
Ca1 O36 2.443276 1_555
Ca1 O32 2.448868 1_555
Ca1 O22 2.448868 1_555
Ca1 O5 2.508496 1_555
Ca1 O34 2.508496 1_555
Ca1 O1 2.581457 1_555
Ca1 O2 2.581457 1_555
Ca2 O18 2.443276 1_545
Ca2 O6 2.443276 1_555
Ca2 O19 2.448868 1_545
Ca2 O2 2.448868 1_555
Ca2 O35 2.508496 1_555
Ca2 O30 2.508496 1_545
Ca2 O7 2.581457 1_555
Ca2 O22 2.581457 1_545
Ca3 O27 2.443276 1_555
Ca3 O39 2.443276 1_455
Ca3 O25 2.448868 1_555
Ca3 O16 2.448868 1_455
Ca3 O37 2.508496 1_455
Ca3 O10 2.508496 1_555
Ca3 O26 2.581457 1_455
Ca3 O33 2.581457 1_555
Ca4 O21 2.443276 1_555
Ca4 O28 2.443276 1_555
Ca4 O33 2.448868 1_555
Ca4 O17 2.448868 1_555
Ca4 O8 2.508496 1_555
Ca4 O4 2.508496 1_555
Ca4 O20 2.581457 1_555
Ca4 O16 2.581457 1_555
Ca5 O12 2.443276 1_455
Ca5 O14 2.443276 1_555
Ca5 O7 2.448868 1_455
Ca5 O1 2.448868 1_555
Ca5 O3 2.508496 1_555
Ca5 O9 2.508496 1_455
Ca5 O19 2.581457 1_555
Ca5 O32 2.581457 1_455
Be0 O24 1.571017 1_555
Be0 O25 1.671324 1_555
Be0 O33 1.671329 1_555
Be0 O20 1.671331 1_555
Be1 O15 1.571017 1_555
Be1 O7 1.671324 1_555
Be1 O32 1.671329 1_555
Be1 O2 1.671331 1_555
Be2 O11 1.571017 1_555
Be2 O26 1.671324 1_555
Be2 O17 1.671329 1_555
Be2 O16 1.671331 1_555
Be3 O29 1.571017 1_555
Be3 O19 1.671324 1_555
Be3 O22 1.671329 1_555
Be3 O1 1.671331 1_555
As0 O17 1.789797 1_555
As0 O27 1.809239 1_545
As0 O13 1.875223 1_545
As1 O32 1.789797 1_555
As1 O18 1.809239 1_655
As1 O3 1.875223 1_655
As2 O26 1.789797 1_555
As2 O28 1.809239 1_655
As2 O10 1.875223 1_655
As3 O19 1.789797 1_555
As3 O0 1.809239 1_455
As3 O9 1.875223 1_455
As4 O1 1.789797 1_555
As4 O6 1.809239 1_555
As4 O34 1.875223 1_555
As5 O7 1.789797 1_555
As5 O36 1.809239 1_545
As5 O30 1.875223 1_545
As6 O2 1.789797 1_555
As6 O14 1.809239 1_555
As6 O5 1.875223 1_555
As7 O33 1.789797 1_555
As7 O23 1.809239 1_455
As7 O37 1.875223 1_455
As8 O20 1.789797 1_555
As8 O39 1.809239 1_555
As8 O4 1.875223 1_555
As9 O22 1.789797 1_555
As9 O12 1.809239 1_565
As9 O35 1.875223 1_565
As10 O16 1.789797 1_555
As10 O38 1.809239 1_555
As10 O8 1.875223 1_555
As11 O25 1.789797 1_555
As11 O21 1.809239 1_565
As11 O31 1.875223 1_565
O0 Ti1 1.979019 1_665
O3 Si0 1.660900 1_555
O4 Si2 1.660908 1_555
O5 Si0 1.660908 1_555
O6 Ti1 1.979019 1_555
O8 Si1 1.660908 1_555
O9 Si3 1.660902 1_555
O10 Si1 1.660902 1_555
O11 Si3 1.584502 1_555
O12 Ti1 1.979019 1_655
O13 Si1 1.660900 1_555
O14 Ti1 1.979019 1_555
O15 Si2 1.584502 1_556
O18 Ti1 1.979019 1_565
O21 Ti0 1.979019 1_555
O23 Ti0 1.979019 1_655
O24 Si0 1.584502 1_554
O27 Ti0 1.979019 1_565
O28 Ti0 1.979019 1_555
O29 Si1 1.584502 1_555
O30 Si0 1.660902 1_555
O31 Si2 1.660902 1_555
O34 Si3 1.660908 1_555
O35 Si3 1.660900 1_555
O36 Ti1 1.979019 1_665
O37 Si2 1.660900 1_555
O38 Ti0 1.979019 1_665
O39 Ti0 1.979019 1_665
