# generated using pymatgen
data_Na8(CuO2)5
_symmetry_space_group_name_H-M   'P 1'
_cell_length_a   5.64505259
_cell_length_b   8.06993013
_cell_length_c   8.06993076
_cell_angle_alpha   119.05293318
_cell_angle_beta   100.86537690
_cell_angle_gamma   100.86536870
_symmetry_Int_Tables_number   1
_chemical_formula_structural   Na8(CuO2)5
_chemical_formula_sum   'Na8 Cu5 O10'
_cell_volume   298.34451753
_cell_formula_units_Z   1
loop_
 _symmetry_equiv_pos_site_id
 _symmetry_equiv_pos_as_xyz
  1  'x, y, z'
loop_
 _atom_site_type_symbol
 _atom_site_label
 _atom_site_symmetry_multiplicity
 _atom_site_fract_x
 _atom_site_fract_y
 _atom_site_fract_z
 _atom_site_occupancy
  Na  Na0  1  0.39926045  0.26584670  0.54097430  1
  Na  Na1  1  0.36366318  0.73536331  0.95645148  1
  Na  Na2  1  0.08975942  0.51900508  0.51900508  1
  Na  Na3  1  0.14414722  0.85765387  0.29714225  1
  Na  Na4  1  0.39926045  0.54097430  0.26584670  1
  Na  Na5  1  0.36366318  0.95645148  0.73536331  1
  Na  Na6  1  0.14414722  0.29714225  0.85765387  1
  Na  Na7  1  0.14849830  0.09023204  0.09023204  1
  Cu  Cu0  1  0.75128010  0.01930728  0.41743655  1
  Cu  Cu1  1  0.78047072  0.62829614  0.82738397  1
  Cu  Cu2  1  0.78047072  0.82738397  0.62829614  1
  Cu  Cu3  1  0.72120982  0.19565841  0.19565841  1
  Cu  Cu4  1  0.75128010  0.41743655  0.01930728  1
  O  O0  1  0.52834013  0.47921503  0.87946284  1
  O  O1  1  0.52564220  0.65403722  0.65403722  1
  O  O2  1  0.97929149  0.15646193  0.35451626  1
  O  O3  1  0.97929149  0.35451626  0.15646193  1
  O  O4  1  0.00655374  0.57042487  0.98856531  1
  O  O5  1  0.52834013  0.87946284  0.47921503  1
  O  O6  1  0.03217230  0.78402686  0.78402686  1
  O  O7  1  0.49094994  0.04599396  0.26073737  1
  O  O8  1  0.00655374  0.98856531  0.57042487  1
  O  O9  1  0.49094994  0.26073737  0.04599396  1
loop_
_geom_bond_atom_site_label_1
_geom_bond_atom_site_label_2
_geom_bond_distance
_geom_bond_site_symmetry_2
Na0 O0 2.272835 1_555
Na0 O2 2.289084 1_455
Na0 O7 2.328220 1_555
Na0 O1 2.700194 1_555
Na0 Na3 2.764904 1_545
Na0 O8 2.970346 1_545
Na0 Na2 2.972938 1_555
Na1 O0 2.284280 1_555
Na1 O6 2.327702 1_555
Na1 O4 2.328751 1_555
Na1 O7 2.346755 1_566
Na1 O1 2.595112 1_555
Na1 Na2 2.973102 1_555
Na2 O1 2.292236 1_555
Na2 O6 2.309881 1_555
Na2 O2 2.436967 1_455
Na2 O3 2.436967 1_455
Na2 Na4 2.972938 1_555
Na2 Na5 2.973102 1_555
Na3 O4 2.272252 1_554
Na3 O8 2.296814 1_555
Na3 O5 2.301537 1_555
Na3 O7 2.399536 1_565
Na3 O2 2.611358 1_465
Na4 O5 2.272835 1_555
Na4 O3 2.289084 1_455
Na4 O9 2.328220 1_555
Na4 O1 2.700194 1_555
Na4 Na6 2.764905 1_554
Na4 O4 2.970346 1_554
Na5 O5 2.284281 1_555
Na5 O6 2.327702 1_555
Na5 O8 2.328751 1_555
Na5 O9 2.346755 1_566
Na5 O1 2.595112 1_555
Na6 O8 2.272252 1_545
Na6 O4 2.296813 1_555
Na6 O0 2.301538 1_555
Na6 O9 2.399536 1_556
Na6 O3 2.611358 1_456
Na7 O6 2.342961 1_544
Na7 O7 2.343562 1_555
Na7 O9 2.343562 1_555
Na7 O3 2.366444 1_455
Na7 O2 2.366444 1_455
Cu0 O5 1.831263 1_545
Cu0 O2 1.842485 1_555
Cu0 O8 1.850378 1_645
Cu0 O7 1.867709 1_555
Cu0 Na0 3.035135 1_555
Cu1 O6 1.913628 1_655
Cu1 O1 1.925002 1_555
Cu1 O0 1.928940 1_555
Cu1 O4 1.930711 1_655
Cu1 Na0 2.777446 1_555
Cu1 Na1 2.860742 1_555
Cu1 Na2 3.179026 1_655
Cu2 O6 1.913628 1_655
Cu2 O1 1.925002 1_555
Cu2 O5 1.928939 1_555
Cu2 O8 1.930711 1_655
Cu2 Na4 2.777446 1_555
Cu2 Na5 2.860742 1_555
Cu2 Na2 3.179026 1_655
Cu3 O9 1.925011 1_555
Cu3 O7 1.925011 1_555
Cu3 O2 1.931183 1_555
Cu3 O3 1.931183 1_555
Cu3 Na2 2.690690 1_655
Cu4 O0 1.831263 1_554
Cu4 O3 1.842485 1_555
Cu4 O4 1.850378 1_654
Cu4 O9 1.867709 1_555
Cu4 Na4 3.035136 1_555
