# generated using pymatgen
data_LiCoSiO4
_symmetry_space_group_name_H-M   'P 1'
_cell_length_a   5.08045300
_cell_length_b   6.65106600
_cell_length_c   10.39988500
_cell_angle_alpha   90.00000000
_cell_angle_beta   90.00000000
_cell_angle_gamma   90.00000000
_symmetry_Int_Tables_number   1
_chemical_formula_structural   LiCoSiO4
_chemical_formula_sum   'Li4 Co4 Si4 O16'
_cell_volume   351.41656751
_cell_formula_units_Z   4
loop_
 _symmetry_equiv_pos_site_id
 _symmetry_equiv_pos_as_xyz
  1  'x, y, z'
loop_
 _atom_site_type_symbol
 _atom_site_label
 _atom_site_symmetry_multiplicity
 _atom_site_fract_x
 _atom_site_fract_y
 _atom_site_fract_z
 _atom_site_occupancy
  Li  Li0  1  0.75911700  0.00967300  0.15468800  1
  Li  Li1  1  0.75911700  0.49032700  0.65468800  1
  Li  Li2  1  0.25911700  0.50967300  0.34531200  1
  Li  Li3  1  0.25911700  0.99032700  0.84531200  1
  Co  Co0  1  0.26170600  0.01340500  0.33170300  1
  Co  Co1  1  0.26170600  0.48659500  0.83170300  1
  Co  Co2  1  0.76170600  0.51340500  0.16829700  1
  Co  Co3  1  0.76170600  0.98659500  0.66829700  1
  Si  Si0  1  0.26254200  0.23304400  0.59377200  1
  Si  Si1  1  0.26254200  0.26695600  0.09377200  1
  Si  Si2  1  0.76254200  0.73304400  0.90622800  1
  Si  Si3  1  0.76254200  0.76695600  0.40622800  1
  O  O0  1  0.12292500  0.03861400  0.66455500  1
  O  O1  1  0.14924600  0.06023100  0.16123700  1
  O  O2  1  0.21046400  0.26162600  0.93783400  1
  O  O3  1  0.58177300  0.22144100  0.62359300  1
  O  O4  1  0.58177300  0.27855900  0.12359300  1
  O  O5  1  0.21046400  0.23837400  0.43783400  1
  O  O6  1  0.14924600  0.43976900  0.66123700  1
  O  O7  1  0.12292500  0.46138600  0.16455500  1
  O  O8  1  0.62292500  0.53861400  0.83544500  1
  O  O9  1  0.64924600  0.56023100  0.33876300  1
  O  O10  1  0.71046400  0.76162600  0.56216600  1
  O  O11  1  0.08177300  0.72144100  0.87640700  1
  O  O12  1  0.08177300  0.77855900  0.37640700  1
  O  O13  1  0.71046400  0.73837400  0.06216600  1
  O  O14  1  0.64924600  0.93976900  0.83876300  1
  O  O15  1  0.62292500  0.96138600  0.33544500  1
loop_
_geom_bond_atom_site_label_1
_geom_bond_atom_site_label_2
_geom_bond_distance
_geom_bond_site_symmetry_2
Li0 O1 2.011508 1_655
Li0 O4 2.028461 1_555
Li0 O15 2.028728 1_545
Li0 O13 2.059835 1_545
Li1 O6 2.011508 1_655
Li1 O3 2.028461 1_555
Li1 O8 2.028728 1_555
Li1 O10 2.059835 1_555
Li2 O9 2.011508 1_555
Li2 O12 2.028461 1_555
Li2 O7 2.028728 1_555
Li2 O5 2.059835 1_555
Li3 O14 2.011508 1_555
Li3 O11 2.028461 1_555
Li3 O0 2.028728 1_565
Li3 O2 2.059835 1_565
Co0 O15 1.867891 1_545
Co0 O12 1.868575 1_545
Co0 O5 1.877472 1_555
Co0 O1 1.888478 1_555
Co1 O8 1.867891 1_555
Co1 O11 1.868575 1_555
Co1 O2 1.877472 1_555
Co1 O6 1.888478 1_555
Co2 O7 1.867891 1_655
Co2 O4 1.868575 1_555
Co2 O13 1.877472 1_555
Co2 O9 1.888478 1_555
Co3 O0 1.867891 1_665
Co3 O3 1.868575 1_565
Co3 O10 1.877472 1_555
Co3 O14 1.888478 1_555
O0 Si0 1.648425 1_555
O1 Si1 1.647439 1_555
O2 Si1 1.643560 1_556
O3 Si0 1.653027 1_555
O4 Si1 1.653027 1_555
O5 Si0 1.643560 1_555
O6 Si0 1.647439 1_555
O7 Si1 1.648425 1_555
O8 Si2 1.648425 1_555
O9 Si3 1.647439 1_555
O10 Si3 1.643560 1_555
O11 Si2 1.653027 1_455
O12 Si3 1.653027 1_455
O13 Si2 1.643560 1_554
O14 Si2 1.647439 1_555
O15 Si3 1.648425 1_555
