# generated using pymatgen
data_Ge2C2(SeF2)3
_symmetry_space_group_name_H-M   'P 1'
_cell_length_a   11.62696670
_cell_length_b   11.62696670
_cell_length_c   11.62696670
_cell_angle_alpha   60.00000000
_cell_angle_beta   60.00000000
_cell_angle_gamma   60.00000000
_symmetry_Int_Tables_number   1
_chemical_formula_structural   Ge2C2(SeF2)3
_chemical_formula_sum   'Ge8 C8 Se12 F24'
_cell_volume   1111.43556149
_cell_formula_units_Z   4
loop_
 _symmetry_equiv_pos_site_id
 _symmetry_equiv_pos_as_xyz
  1  'x, y, z'
loop_
 _atom_site_type_symbol
 _atom_site_label
 _atom_site_symmetry_multiplicity
 _atom_site_fract_x
 _atom_site_fract_y
 _atom_site_fract_z
 _atom_site_occupancy
  Ge  Ge0  1  0.82694800  0.82694800  0.82694800  1
  Ge  Ge1  1  0.73084300  0.42305200  0.42305200  1
  Ge  Ge2  1  0.42305200  0.73084300  0.42305200  1
  Ge  Ge3  1  0.42305200  0.42305200  0.73084300  1
  Ge  Ge4  1  0.82694800  0.51915700  0.82694800  1
  Ge  Ge5  1  0.82694800  0.82694800  0.51915700  1
  Ge  Ge6  1  0.51915700  0.82694800  0.82694800  1
  Ge  Ge7  1  0.42305200  0.42305200  0.42305200  1
  C  C0  1  0.89913200  0.89913200  0.89913200  1
  C  C1  1  0.94739600  0.35086800  0.35086800  1
  C  C2  1  0.35086800  0.94739600  0.35086800  1
  C  C3  1  0.35086800  0.35086800  0.94739600  1
  C  C4  1  0.89913200  0.30260400  0.89913200  1
  C  C5  1  0.89913200  0.89913200  0.30260400  1
  C  C6  1  0.30260400  0.89913200  0.89913200  1
  C  C7  1  0.35086800  0.35086800  0.35086800  1
  Se  Se0  1  0.92265400  0.57734600  0.92265400  1
  Se  Se1  1  0.67265400  0.32734600  0.32734600  1
  Se  Se2  1  0.32734600  0.67265400  0.67265400  1
  Se  Se3  1  0.67265400  0.32734600  0.67265400  1
  Se  Se4  1  0.32734600  0.32734600  0.67265400  1
  Se  Se5  1  0.67265400  0.67265400  0.32734600  1
  Se  Se6  1  0.92265400  0.92265400  0.57734600  1
  Se  Se7  1  0.57734600  0.92265400  0.92265400  1
  Se  Se8  1  0.92265400  0.57734600  0.57734600  1
  Se  Se9  1  0.57734600  0.57734600  0.92265400  1
  Se  Se10  1  0.32734600  0.67265400  0.32734600  1
  Se  Se11  1  0.57734600  0.92265400  0.57734600  1
  F  F0  1  0.79046800  0.97962500  0.97962500  1
  F  F1  1  0.99971800  0.27037500  0.45953200  1
  F  F2  1  0.27037500  0.99971800  0.27037500  1
  F  F3  1  0.27037500  0.27037500  0.99971800  1
  F  F4  1  0.99971800  0.45953200  0.27037500  1
  F  F5  1  0.27037500  0.45953200  0.99971800  1
  F  F6  1  0.27037500  0.99971800  0.45953200  1
  F  F7  1  0.97962500  0.79046800  0.97962500  1
  F  F8  1  0.97962500  0.97962500  0.79046800  1
  F  F9  1  0.79046800  0.25028200  0.97962500  1
  F  F10  1  0.79046800  0.97962500  0.25028200  1
  F  F11  1  0.97962500  0.25028200  0.97962500  1
  F  F12  1  0.25028200  0.79046800  0.97962500  1
  F  F13  1  0.25028200  0.97962500  0.79046800  1
  F  F14  1  0.97962500  0.97962500  0.25028200  1
  F  F15  1  0.45953200  0.99971800  0.27037500  1
  F  F16  1  0.45953200  0.27037500  0.99971800  1
  F  F17  1  0.99971800  0.27037500  0.27037500  1
  F  F18  1  0.45953200  0.27037500  0.27037500  1
  F  F19  1  0.27037500  0.45953200  0.27037500  1
  F  F20  1  0.27037500  0.27037500  0.45953200  1
  F  F21  1  0.97962500  0.79046800  0.25028200  1
  F  F22  1  0.97962500  0.25028200  0.79046800  1
  F  F23  1  0.25028200  0.97962500  0.97962500  1
loop_
_geom_bond_atom_site_label_1
_geom_bond_atom_site_label_2
_geom_bond_distance
_geom_bond_site_symmetry_2
Ge0 Se6 2.382911 1_555
Ge0 Se0 2.382911 1_555
Ge0 Se7 2.382911 1_555
Ge1 Se1 2.382903 1_555
Ge1 Se5 2.382913 1_555
Ge1 Se3 2.382913 1_555
Ge2 Se10 2.382903 1_555
Ge2 Se2 2.382913 1_555
Ge2 Se5 2.382913 1_555
Ge3 Se4 2.382903 1_555
Ge3 Se2 2.382913 1_555
Ge3 Se3 2.382913 1_555
Ge4 Se0 2.382903 1_555
Ge4 Se8 2.382913 1_555
Ge4 Se9 2.382913 1_555
Ge5 Se6 2.382903 1_555
Ge5 Se8 2.382913 1_555
Ge5 Se11 2.382913 1_555
Ge6 Se7 2.382903 1_555
Ge6 Se11 2.382913 1_555
Ge6 Se9 2.382913 1_555
Ge7 Se4 2.382911 1_555
Ge7 Se10 2.382911 1_555
Ge7 Se1 2.382911 1_555
C0 F0 1.363474 1_555
C0 F8 1.363474 1_555
C0 F7 1.363474 1_555
C0 Ge0 2.055810 1_555
C1 F17 1.363474 1_555
C1 F4 1.363474 1_555
C1 F1 1.363474 1_555
C1 Ge1 2.055820 1_555
C2 F2 1.363474 1_555
C2 F6 1.363474 1_555
C2 F15 1.363474 1_555
C2 Ge2 2.055820 1_555
C3 F3 1.363474 1_555
C3 F5 1.363474 1_555
C3 F16 1.363474 1_555
C3 Ge3 2.055820 1_555
C4 F22 1.363474 1_555
C4 F9 1.363474 1_555
C4 F11 1.363474 1_555
C4 Ge4 2.055820 1_555
C5 F10 1.363474 1_555
C5 F21 1.363474 1_555
C5 F14 1.363474 1_555
C5 Ge5 2.055820 1_555
C6 F12 1.363474 1_555
C6 F13 1.363474 1_555
C6 F23 1.363474 1_555
C6 Ge6 2.055820 1_555
C7 F18 1.363474 1_555
C7 F19 1.363474 1_555
C7 F20 1.363474 1_555
C7 Ge7 2.055810 1_555
F0 Se7 3.277106 1_555
F1 Se3 3.277106 1_555
F2 Se10 3.277106 1_555
F3 Se4 3.277106 1_555
F4 Se5 3.277106 1_555
F5 Se2 3.277106 1_555
F6 Se2 3.277106 1_555
F7 Se0 3.277106 1_555
F8 Se6 3.277106 1_555
F9 Se9 3.277106 1_555
F10 Se11 3.277106 1_555
F11 Se0 3.277106 1_555
F12 Se9 3.277106 1_555
F13 Se11 3.277106 1_555
F14 Se6 3.277106 1_555
F15 Se5 3.277106 1_555
F16 Se3 3.277106 1_555
F17 Se1 3.277106 1_555
F18 Se1 3.277106 1_555
F19 Se10 3.277106 1_555
F20 Se4 3.277106 1_555
F21 Se8 3.277106 1_555
F22 Se8 3.277106 1_555
F23 Se7 3.277106 1_555
