# generated using pymatgen
data_Ta2SnO6
_symmetry_space_group_name_H-M   'P 1'
_cell_length_a   9.05726002
_cell_length_b   9.05726002
_cell_length_c   5.62191553
_cell_angle_alpha   88.62123050
_cell_angle_beta   88.62123050
_cell_angle_gamma   31.54040145
_symmetry_Int_Tables_number   1
_chemical_formula_structural   Ta2SnO6
_chemical_formula_sum   'Ta4 Sn2 O12'
_cell_volume   241.17186285
_cell_formula_units_Z   2
loop_
 _symmetry_equiv_pos_site_id
 _symmetry_equiv_pos_as_xyz
  1  'x, y, z'
loop_
 _atom_site_type_symbol
 _atom_site_label
 _atom_site_symmetry_multiplicity
 _atom_site_fract_x
 _atom_site_fract_y
 _atom_site_fract_z
 _atom_site_occupancy
  Ta  Ta0  1  0.92536300  0.41388100  0.83673200  1
  Ta  Ta1  1  0.41388100  0.92536300  0.33673200  1
  Ta  Ta2  1  0.58477700  0.07342700  0.66522600  1
  Ta  Ta3  1  0.07342700  0.58477700  0.16522600  1
  Sn  Sn0  1  0.76858300  0.22922600  0.26332300  1
  Sn  Sn1  1  0.22922600  0.76858300  0.76332300  1
  O  O0  1  0.32055800  0.39168000  0.42474100  1
  O  O1  1  0.68617000  0.60205300  0.57079900  1
  O  O2  1  0.27942400  0.15829700  0.64733600  1
  O  O3  1  0.39168000  0.32055800  0.92474100  1
  O  O4  1  0.15699700  0.98927400  0.40558500  1
  O  O5  1  0.84438900  0.00908500  0.60042100  1
  O  O6  1  0.98927400  0.15699700  0.90558500  1
  O  O7  1  0.72194000  0.84022300  0.35356200  1
  O  O8  1  0.00908500  0.84438900  0.10042100  1
  O  O9  1  0.15829700  0.27942400  0.14733600  1
  O  O10  1  0.84022300  0.72194000  0.85356200  1
  O  O11  1  0.60205300  0.68617000  0.07079900  1
loop_
_geom_bond_atom_site_label_1
_geom_bond_atom_site_label_2
_geom_bond_distance
_geom_bond_site_symmetry_2
O0 Ta3 1.886555 1_555
O0 Ta2 2.018324 1_555
O0 O2 2.713975 1_555
O0 O7 2.720067 1_545
O0 Sn0 3.027307 1_555
O1 Ta0 1.890210 1_555
O1 Ta1 2.012363 1_555
O1 O7 2.700985 1_555
O1 O2 2.744148 1_565
O2 Ta0 2.019128 1_455
O2 Ta2 2.153091 1_555
O2 Ta1 2.163049 1_545
O3 Ta2 1.886555 1_555
O3 Ta3 2.018324 1_556
O3 O9 2.713975 1_556
O3 Sn1 3.027307 1_555
O4 Ta1 1.889452 1_555
O4 Sn0 2.181392 1_465
O4 Sn1 2.471666 1_555
O5 Ta2 1.906456 1_555
O5 Sn1 2.201954 1_645
O5 Sn0 2.363424 1_555
O6 Ta0 1.889452 1_555
O6 Sn1 2.181392 1_645
O6 Sn0 2.471666 1_556
O7 Ta3 2.002402 1_655
O7 Ta2 2.162250 1_565
O7 Ta1 2.174938 1_555
O8 Ta3 1.906456 1_555
O8 Sn0 2.201954 1_465
O8 Sn1 2.363424 1_554
O9 Ta1 2.019128 1_545
O9 Ta3 2.153091 1_555
O9 Ta0 2.163049 1_454
O10 Ta2 2.002402 1_565
O10 Ta3 2.162250 1_656
O10 Ta0 2.174938 1_555
O10 O11 2.700985 1_556
O10 O3 2.720067 1_655
O11 Ta1 1.890210 1_555
O11 Ta0 2.012363 1_554
O11 O9 2.744148 1_655
