# generated using pymatgen
data_LuNiGe
_symmetry_space_group_name_H-M   'P 1'
_cell_length_a   11.18535389
_cell_length_b   11.18535389
_cell_length_c   9.16136800
_cell_angle_alpha   90.00000000
_cell_angle_beta   90.00000000
_cell_angle_gamma   158.75361701
_symmetry_Int_Tables_number   1
_chemical_formula_structural   LuNiGe
_chemical_formula_sum   'Lu8 Ni8 Ge8'
_cell_volume   415.35845019
_cell_formula_units_Z   8
loop_
 _symmetry_equiv_pos_site_id
 _symmetry_equiv_pos_as_xyz
  1  'x, y, z'
loop_
 _atom_site_type_symbol
 _atom_site_label
 _atom_site_symmetry_multiplicity
 _atom_site_fract_x
 _atom_site_fract_y
 _atom_site_fract_z
 _atom_site_occupancy
  Lu  Lu0  1  0.11503800  0.88496200  0.25000000  1
  Lu  Lu1  1  0.58332900  0.41667100  0.55960900  1
  Lu  Lu2  1  0.72581100  0.27418900  0.75000000  1
  Lu  Lu3  1  0.41667100  0.58332900  0.44039100  1
  Lu  Lu4  1  0.41667100  0.58332900  0.05960900  1
  Lu  Lu5  1  0.27418900  0.72581100  0.25000000  1
  Lu  Lu6  1  0.88496200  0.11503800  0.75000000  1
  Lu  Lu7  1  0.58332900  0.41667100  0.94039100  1
  Ni  Ni0  1  0.02805200  0.97194800  0.75000000  1
  Ni  Ni1  1  0.80927400  0.19072600  0.48266200  1
  Ni  Ni2  1  0.19072600  0.80927400  0.98266200  1
  Ni  Ni3  1  0.97194800  0.02805200  0.25000000  1
  Ni  Ni4  1  0.80927400  0.19072600  0.01733800  1
  Ni  Ni5  1  0.19072600  0.80927400  0.51733800  1
  Ni  Ni6  1  0.00000000  0.00000000  0.50000000  1
  Ni  Ni7  1  0.00000000  0.00000000  0.00000000  1
  Ge  Ge0  1  0.47463800  0.52536200  0.75000000  1
  Ge  Ge1  1  0.86362900  0.13637100  0.25000000  1
  Ge  Ge2  1  0.69961200  0.30038800  0.39715800  1
  Ge  Ge3  1  0.13637100  0.86362900  0.75000000  1
  Ge  Ge4  1  0.30038800  0.69961200  0.89715800  1
  Ge  Ge5  1  0.30038800  0.69961200  0.60284200  1
  Ge  Ge6  1  0.69961200  0.30038800  0.10284200  1
  Ge  Ge7  1  0.52536200  0.47463800  0.25000000  1
loop_
_geom_bond_atom_site_label_1
_geom_bond_atom_site_label_2
_geom_bond_distance
_geom_bond_site_symmetry_2
Lu0 Ni5 2.961075 1_555
Lu0 Ni2 2.961075 1_554
Lu0 Ni3 3.146162 1_465
Lu0 Ni7 3.412243 1_565
Lu0 Ni6 3.412243 1_565
Lu0 Lu5 3.499300 1_555
Lu0 Lu7 3.575384 1_454
Lu0 Lu1 3.575384 1_455
Lu0 Lu7 3.575384 1_564
Lu0 Lu1 3.575384 1_565
Lu1 Ni6 2.811938 1_555
Lu1 Ni6 2.811938 1_665
Lu1 Ni0 2.961663 1_655
Lu1 Ni0 2.961663 1_545
Lu1 Ni5 3.158785 1_655
Lu1 Ni5 3.158785 1_545
Lu2 Ni1 3.060421 1_555
Lu2 Ni4 3.060421 1_556
Lu2 Ni2 3.064357 1_655
Lu2 Ni2 3.064357 1_545
Lu2 Ni5 3.064357 1_655
Lu2 Ni5 3.064357 1_545
Lu2 Lu6 3.499300 1_555
Lu3 Ni6 2.811938 1_555
Lu3 Ni6 2.811938 1_665
Lu3 Ni3 2.961663 1_565
Lu3 Ni3 2.961663 1_455
Lu3 Ni1 3.158785 1_565
Lu3 Ni1 3.158785 1_455
Lu3 Lu6 3.575384 1_565
Lu3 Lu6 3.575384 1_455
Lu4 Ni7 2.811938 1_555
Lu4 Ni7 2.811938 1_665
Lu4 Ni3 2.961663 1_565
Lu4 Ni3 2.961663 1_455
Lu4 Ni4 3.158785 1_565
Lu4 Ni4 3.158785 1_455
Lu4 Lu6 3.575384 1_454
Lu4 Lu6 3.575384 1_564
Lu5 Ni5 3.060421 1_555
Lu5 Ni2 3.060421 1_554
Lu5 Ni1 3.064357 1_565
Lu5 Ni4 3.064357 1_565
Lu5 Ni1 3.064357 1_455
Lu5 Ni4 3.064357 1_455
Lu6 Ni1 2.961075 1_555
Lu6 Ni4 2.961075 1_556
Lu6 Ni0 3.146162 1_645
Lu6 Ni7 3.412243 1_656
Lu6 Ni6 3.412243 1_655
Lu7 Ni7 2.811938 1_556
Lu7 Ni7 2.811938 1_666
Lu7 Ni0 2.961663 1_655
Lu7 Ni0 2.961663 1_545
Lu7 Ni2 3.158785 1_655
Lu7 Ni2 3.158785 1_545
Ni0 Ni6 2.371939 1_565
Ni0 Ni7 2.371939 1_566
Ni3 Ni6 2.371939 1_655
Ni3 Ni7 2.371939 1_655
Ge0 Ni0 2.373009 1_655
Ge0 Ni0 2.373009 1_545
Ge0 Lu6 2.853002 1_565
Ge0 Lu6 2.853002 1_455
Ge0 Lu1 2.958652 1_555
Ge0 Lu7 2.958652 1_555
Ge0 Lu4 3.109638 1_556
Ge0 Lu3 3.109638 1_555
Ge0 Ni6 3.131856 1_555
Ge0 Ni7 3.131856 1_556
Ge0 Ni6 3.131856 1_665
Ge0 Ni7 3.131856 1_666
Ge1 Ni3 2.381641 1_555
Ge1 Ni1 2.443688 1_555
Ge1 Ni4 2.443688 1_555
Ge1 Lu5 2.849418 1_655
Ge1 Lu5 2.849418 1_545
Ge1 Lu3 2.941838 1_655
Ge1 Lu3 2.941838 1_545
Ge1 Lu4 2.941838 1_655
Ge1 Lu4 2.941838 1_545
Ge2 Ni5 2.345697 1_655
Ge2 Ni5 2.345697 1_545
Ge2 Ni1 2.535223 1_555
Ge2 Ge6 2.696337 1_555
Ge2 Lu1 2.958364 1_555
Ge2 Lu5 2.959428 1_655
Ge2 Lu5 2.959428 1_545
Ge2 Lu0 3.086646 1_655
Ge2 Lu0 3.086646 1_545
Ge2 Lu2 3.283441 1_555
Ge3 Ni0 2.381641 1_555
Ge3 Ni2 2.443688 1_555
Ge3 Ni5 2.443688 1_555
Ge3 Lu2 2.849418 1_565
Ge3 Lu2 2.849418 1_455
Ge3 Lu1 2.941838 1_565
Ge3 Lu7 2.941838 1_565
Ge3 Lu7 2.941838 1_455
Ge3 Lu1 2.941838 1_455
Ge4 Ni4 2.345697 1_566
Ge4 Ni4 2.345697 1_456
Ge4 Ni2 2.535223 1_555
Ge4 Ge5 2.696337 1_555
Ge4 Lu4 2.958364 1_556
Ge4 Lu2 2.959428 1_565
Ge4 Lu2 2.959428 1_455
Ge4 Lu6 3.086646 1_565
Ge4 Lu6 3.086646 1_455
Ge4 Lu5 3.283441 1_556
Ge5 Ni1 2.345697 1_565
Ge5 Ni1 2.345697 1_455
Ge5 Ni5 2.535223 1_555
Ge5 Lu3 2.958364 1_555
Ge5 Lu2 2.959428 1_565
Ge5 Lu2 2.959428 1_455
Ge5 Lu6 3.086646 1_565
Ge5 Lu6 3.086646 1_455
Ge5 Lu5 3.283441 1_555
Ge6 Ni2 2.345697 1_654
Ge6 Ni2 2.345697 1_544
Ge6 Ni4 2.535223 1_555
Ge6 Lu7 2.958364 1_554
Ge6 Lu5 2.959428 1_655
Ge6 Lu5 2.959428 1_545
Ge6 Lu0 3.086646 1_655
Ge6 Lu0 3.086646 1_545
Ge6 Lu2 3.283441 1_554
Ge7 Ni3 2.373009 1_565
Ge7 Ni3 2.373009 1_455
Ge7 Lu0 2.853002 1_655
Ge7 Lu0 2.853002 1_545
Ge7 Lu3 2.958652 1_555
Ge7 Lu4 2.958652 1_555
Ge7 Lu7 3.109638 1_554
Ge7 Lu1 3.109638 1_555
Ge7 Ni6 3.131856 1_555
Ge7 Ni7 3.131856 1_665
Ge7 Ni7 3.131856 1_555
Ge7 Ni6 3.131856 1_665
