# generated using pymatgen
data_Ca14MnSb11
_symmetry_space_group_name_H-M   'P 1'
_cell_length_a   16.24345859
_cell_length_b   16.24345859
_cell_length_c   16.24345859
_cell_angle_alpha   117.81815103
_cell_angle_beta   117.81815103
_cell_angle_gamma   93.82253291
_symmetry_Int_Tables_number   1
_chemical_formula_structural   Ca14MnSb11
_chemical_formula_sum   'Ca56 Mn4 Sb44'
_cell_volume   3122.96823902
_cell_formula_units_Z   4
loop_
 _symmetry_equiv_pos_site_id
 _symmetry_equiv_pos_as_xyz
  1  'x, y, z'
loop_
 _atom_site_type_symbol
 _atom_site_label
 _atom_site_symmetry_multiplicity
 _atom_site_fract_x
 _atom_site_fract_y
 _atom_site_fract_z
 _atom_site_occupancy
  Ca  Ca0  1  0.74608380  0.52721167  0.86700605  1
  Ca  Ca1  1  0.24608380  0.37907776  0.21887213  1
  Ca  Ca2  1  0.77721167  0.49608380  0.36700605  1
  Ca  Ca3  1  0.27721167  0.91020562  0.28112787  1
  Ca  Ca4  1  0.00391620  0.72278833  0.63299395  1
  Ca  Ca5  1  0.50391620  0.87092224  0.28112787  1
  Ca  Ca6  1  0.97278833  0.75391620  0.13299395  1
  Ca  Ca7  1  0.47278833  0.33979438  0.21887213  1
  Ca  Ca8  1  0.16020562  0.02721167  0.78112787  1
  Ca  Ca9  1  0.66020562  0.87907776  0.13299395  1
  Ca  Ca10  1  0.62907776  0.99608380  0.71887213  1
  Ca  Ca11  1  0.12907776  0.41020562  0.63299395  1
  Ca  Ca12  1  0.58979438  0.22278833  0.71887213  1
  Ca  Ca13  1  0.08979438  0.37092224  0.36700605  1
  Ca  Ca14  1  0.12092224  0.25391620  0.78112787  1
  Ca  Ca15  1  0.62092224  0.83979438  0.86700605  1
  Ca  Ca16  1  0.89464655  0.99810161  0.14933824  1
  Ca  Ca17  1  0.39464655  0.24530831  0.89654394  1
  Ca  Ca18  1  0.24810161  0.64464655  0.64933824  1
  Ca  Ca19  1  0.74810161  0.09876337  0.60345606  1
  Ca  Ca20  1  0.85535345  0.25189839  0.35066176  1
  Ca  Ca21  1  0.35535345  0.00469169  0.60345606  1
  Ca  Ca22  1  0.50189839  0.60535345  0.85066176  1
  Ca  Ca23  1  0.00189839  0.15123663  0.89654394  1
  Ca  Ca24  1  0.34876337  0.49810161  0.10345606  1
  Ca  Ca25  1  0.84876337  0.74530831  0.85066176  1
  Ca  Ca26  1  0.49530831  0.14464655  0.39654394  1
  Ca  Ca27  1  0.99530831  0.59876337  0.35066176  1
  Ca  Ca28  1  0.40123663  0.75189839  0.39654394  1
  Ca  Ca29  1  0.90123663  0.50469169  0.64933824  1
  Ca  Ca30  1  0.25469169  0.10535345  0.10345606  1
  Ca  Ca31  1  0.75469169  0.65123663  0.14933824  1
  Ca  Ca32  1  0.98043289  0.37500000  0.10543289  1
  Ca  Ca33  1  0.48043289  0.37500000  0.60543289  1
  Ca  Ca34  1  0.62500000  0.73043289  0.60543289  1
  Ca  Ca35  1  0.12500000  0.51956711  0.89456711  1
  Ca  Ca36  1  0.76956711  0.87500000  0.39456711  1
  Ca  Ca37  1  0.26956711  0.87500000  0.89456711  1
  Ca  Ca38  1  0.62500000  0.23043289  0.10543289  1
  Ca  Ca39  1  0.12500000  0.01956711  0.39456711  1
  Ca  Ca40  1  0.12276665  0.60278308  0.16053705  1
  Ca  Ca41  1  0.62276665  0.46222859  0.51998357  1
  Ca  Ca42  1  0.85278308  0.87276665  0.66053705  1
  Ca  Ca43  1  0.35278308  0.69224602  0.98001643  1
  Ca  Ca44  1  0.62723335  0.64721692  0.33946295  1
  Ca  Ca45  1  0.12723335  0.78777141  0.98001643  1
  Ca  Ca46  1  0.89721692  0.37723335  0.83946295  1
  Ca  Ca47  1  0.39721692  0.55775398  0.51998357  1
  Ca  Ca48  1  0.94224602  0.10278308  0.48001643  1
  Ca  Ca49  1  0.44224602  0.96222859  0.83946295  1
  Ca  Ca50  1  0.71222859  0.37276665  0.01998357  1
  Ca  Ca51  1  0.21222859  0.19224602  0.33946295  1
  Ca  Ca52  1  0.80775398  0.14721692  0.01998357  1
  Ca  Ca53  1  0.30775398  0.28777141  0.66053705  1
  Ca  Ca54  1  0.03777141  0.87723335  0.48001643  1
  Ca  Ca55  1  0.53777141  0.05775398  0.16053705  1
  Mn  Mn0  1  0.50000000  0.50000000  0.00000000  1
  Mn  Mn1  1  -0.00000000  -0.00000000  0.00000000  1
  Mn  Mn2  1  0.75000000  0.25000000  0.50000000  1
  Mn  Mn3  1  0.25000000  0.75000000  0.50000000  1
  Sb  Sb0  1  0.88538580  0.88538580  0.27077060  1
  Sb  Sb1  1  0.38538580  0.11461420  0.00000000  1
  Sb  Sb2  1  0.13538580  0.63538580  0.77077060  1
  Sb  Sb3  1  0.63538580  0.86461420  0.50000000  1
  Sb  Sb4  1  0.86461420  0.36461420  0.22922940  1
  Sb  Sb5  1  0.36461420  0.13538580  0.50000000  1
  Sb  Sb6  1  0.61461420  0.61461420  0.72922940  1
  Sb  Sb7  1  0.11461420  0.38538580  0.00000000  1
  Sb  Sb8  1  0.17387442  0.81814124  0.36507811  1
  Sb  Sb9  1  0.67387442  0.30879531  0.35573218  1
  Sb  Sb10  1  0.06814124  0.92387442  0.86507811  1
  Sb  Sb11  1  0.56814124  0.70306314  0.14426782  1
  Sb  Sb12  1  0.57612558  0.43185876  0.13492189  1
  Sb  Sb13  1  0.07612558  0.94120469  0.14426782  1
  Sb  Sb14  1  0.68185876  0.32612558  0.63492189  1
  Sb  Sb15  1  0.18185876  0.54693686  0.35573218  1
  Sb  Sb16  1  0.95306314  0.31814124  0.64426782  1
  Sb  Sb17  1  0.45306314  0.80879531  0.63492189  1
  Sb  Sb18  1  0.55879531  0.42387442  0.85573218  1
  Sb  Sb19  1  0.05879531  0.20306314  0.13492189  1
  Sb  Sb20  1  0.79693686  0.93185876  0.85573218  1
  Sb  Sb21  1  0.29693686  0.44120469  0.86507811  1
  Sb  Sb22  1  0.19120469  0.82612558  0.64426782  1
  Sb  Sb23  1  0.69120469  0.04693686  0.36507811  1
  Sb  Sb24  1  0.95836069  0.60435935  0.90581956  1
  Sb  Sb25  1  0.45836069  0.55254013  0.35400034  1
  Sb  Sb26  1  0.85435935  0.70836069  0.40581956  1
  Sb  Sb27  1  0.35435935  0.94853979  0.14599966  1
  Sb  Sb28  1  0.79163931  0.64564065  0.59418044  1
  Sb  Sb29  1  0.29163931  0.69745987  0.14599966  1
  Sb  Sb30  1  0.89564065  0.54163931  0.09418044  1
  Sb  Sb31  1  0.39564065  0.30146021  0.35400034  1
  Sb  Sb32  1  0.19853979  0.10435935  0.64599966  1
  Sb  Sb33  1  0.69853979  0.05254013  0.09418044  1
  Sb  Sb34  1  0.80254013  0.20836069  0.85400034  1
  Sb  Sb35  1  0.30254013  0.44853979  0.59418044  1
  Sb  Sb36  1  0.55146021  0.14564065  0.85400034  1
  Sb  Sb37  1  0.05146021  0.19745987  0.40581956  1
  Sb  Sb38  1  0.94745987  0.04163931  0.64599966  1
  Sb  Sb39  1  0.44745987  0.80146021  0.90581956  1
  Sb  Sb40  1  0.75000000  0.75000000  0.00000000  1
  Sb  Sb41  1  0.25000000  0.25000000  0.00000000  1
  Sb  Sb42  1  -0.00000000  0.50000000  0.50000000  1
  Sb  Sb43  1  0.50000000  -0.00000000  0.50000000  1
loop_
_geom_bond_atom_site_label_1
_geom_bond_atom_site_label_2
_geom_bond_distance
_geom_bond_site_symmetry_2
Ca0 Sb40 3.211144 1_556
Ca0 Sb30 3.213019 1_556
Ca0 Sb14 3.217353 1_555
Ca0 Sb6 3.239391 1_555
Ca0 Sb24 3.242656 1_555
Ca0 Sb18 3.258590 1_555
Ca0 Ca46 3.600968 1_555
Ca0 Ca6 3.779024 1_556
Ca0 Ca33 3.800868 1_555
Ca1 Sb41 3.211144 1_555
Ca1 Sb31 3.213010 1_555
Ca1 Sb15 3.217346 1_555
Ca1 Sb7 3.239401 1_555
Ca1 Sb25 3.242652 1_555
Ca1 Sb19 3.258597 1_555
Ca1 Ca47 3.600968 1_555
Ca1 Ca7 3.779024 1_555
Ca1 Ca32 3.800868 1_455
Ca2 Sb42 3.211144 1_655
Ca2 Sb28 3.213019 1_555
Ca2 Sb12 3.217353 1_555
Ca2 Sb4 3.239391 1_555
Ca2 Sb26 3.242656 1_555
Ca2 Sb9 3.258590 1_555
Ca2 Ca44 3.600968 1_555
Ca2 Ca4 3.779024 1_655
Ca2 Ca38 3.800868 1_555
Ca3 Sb43 3.211144 1_565
Ca3 Sb29 3.213003 1_555
Ca3 Sb13 3.217357 1_555
Ca3 Sb5 3.239401 1_565
Ca3 Sb27 3.242641 1_555
Ca3 Sb8 3.258586 1_555
Ca3 Ca45 3.600970 1_554
Ca3 Ca5 3.779024 1_555
Ca3 Ca39 3.800868 1_565
Ca4 Sb42 3.211144 1_555
Ca4 Sb26 3.213019 1_455
Ca4 Sb10 3.217353 1_555
Ca4 Sb2 3.239391 1_555
Ca4 Sb28 3.242656 1_455
Ca4 Sb22 3.258590 1_555
Ca4 Ca42 3.600968 1_455
Ca5 Sb43 3.211144 1_565
Ca5 Sb27 3.213010 1_555
Ca5 Sb11 3.217346 1_555
Ca5 Sb3 3.239401 1_555
Ca5 Sb29 3.242652 1_555
Ca5 Sb23 3.258597 1_565
Ca6 Sb40 3.211144 1_555
Ca6 Sb24 3.213019 1_554
Ca6 Sb8 3.217353 1_655
Ca6 Sb0 3.239391 1_555
Ca6 Sb30 3.242656 1_555
Ca6 Sb13 3.258590 1_655
Ca7 Sb41 3.211144 1_555
Ca7 Sb25 3.213003 1_555
Ca7 Sb9 3.217357 1_555
Ca7 Sb1 3.239401 1_555
Ca7 Sb31 3.242641 1_555
Ca7 Sb12 3.258586 1_555
Ca8 Sb41 3.211144 1_556
Ca8 Sb38 3.213003 1_455
Ca8 Sb22 3.217357 1_545
Ca8 Sb1 3.239401 1_556
Ca8 Sb32 3.242641 1_555
Ca8 Sb10 3.258586 1_545
Ca9 Sb40 3.211144 1_555
Ca9 Sb39 3.213010 1_554
Ca9 Sb23 3.217346 1_565
Ca9 Sb0 3.239399 1_555
Ca9 Sb33 3.242640 1_565
Ca9 Sb11 3.258597 1_555
Ca10 Sb43 3.211144 1_565
Ca10 Sb36 3.213010 1_565
Ca10 Sb20 3.217346 1_555
Ca10 Sb3 3.239401 1_555
Ca10 Sb34 3.242652 1_565
Ca10 Sb17 3.258597 1_555
Ca10 Ca52 3.600968 1_566
Ca10 Ca12 3.779024 1_565
Ca10 Ca34 3.800868 1_555
Ca11 Sb42 3.211144 1_555
Ca11 Sb37 3.213010 1_555
Ca11 Sb21 3.217346 1_555
Ca11 Sb2 3.239399 1_555
Ca11 Sb35 3.242640 1_555
Ca11 Sb16 3.258597 1_455
Ca11 Ca53 3.600957 1_555
Ca11 Ca13 3.779024 1_555
Ca11 Ca35 3.800868 1_555
Ca12 Sb43 3.211144 1_555
Ca12 Sb34 3.213003 1_555
Ca12 Sb18 3.217357 1_555
Ca12 Sb5 3.239401 1_555
Ca12 Sb36 3.242641 1_555
Ca12 Sb14 3.258586 1_555
Ca12 Ca50 3.600970 1_556
Ca12 Ca33 3.800868 1_555
Ca13 Sb42 3.211144 1_555
Ca13 Sb35 3.213010 1_555
Ca13 Sb19 3.217346 1_555
Ca13 Sb4 3.239399 1_455
Ca13 Sb37 3.242640 1_555
Ca13 Sb15 3.258597 1_555
Ca13 Ca51 3.600957 1_555
Ca13 Ca32 3.800868 1_455
Ca14 Sb41 3.211144 1_556
Ca14 Sb32 3.213010 1_555
Ca14 Sb16 3.217346 1_455
Ca14 Sb7 3.239401 1_556
Ca14 Sb38 3.242652 1_455
Ca14 Sb21 3.258597 1_555
Ca14 Ca48 3.600968 1_455
Ca14 Ca8 3.779024 1_555
Ca14 Ca35 3.800868 1_555
Ca15 Sb40 3.211144 1_556
Ca15 Sb33 3.213010 1_566
Ca15 Sb17 3.217346 1_555
Ca15 Sb6 3.239399 1_555
Ca15 Sb39 3.242640 1_555
Ca15 Sb20 3.258597 1_555
Ca15 Ca49 3.600957 1_555
Ca15 Ca9 3.779024 1_556
Ca15 Ca34 3.800868 1_555
Ca16 Sb13 3.173255 1_655
Ca16 Sb33 3.191087 1_565
Ca16 Sb37 3.276482 1_665
Ca16 Sb0 3.297930 1_555
Ca16 Sb40 3.455387 1_555
Ca16 Mn1 3.570873 1_665
Ca16 Sb20 3.786799 1_554
Ca16 Ca39 3.822048 1_665
Ca16 Ca52 3.835594 1_565
Ca17 Sb12 3.173271 1_556
Ca17 Sb32 3.191080 1_555
Ca17 Sb36 3.276476 1_555
Ca17 Sb1 3.297958 1_556
Ca17 Sb41 3.455400 1_556
Ca17 Mn0 3.570868 1_556
Ca17 Sb21 3.786794 1_555
Ca17 Ca38 3.822055 1_556
Ca17 Ca53 3.835590 1_555
Ca18 Sb22 3.173255 1_555
Ca18 Sb35 3.191087 1_555
Ca18 Sb39 3.276482 1_555
Ca18 Sb2 3.297930 1_555
Ca18 Sb42 3.455387 1_555
Ca18 Mn3 3.570873 1_555
Ca18 Sb15 3.786799 1_555
Ca18 Ca37 3.822048 1_555
Ca18 Ca47 3.835594 1_555
Ca19 Sb23 3.173286 1_555
Ca19 Sb34 3.191072 1_555
Ca19 Sb38 3.276491 1_555
Ca19 Sb3 3.297940 1_545
Ca19 Sb43 3.455382 1_555
Ca19 Mn2 3.570886 1_555
Ca19 Sb14 3.786787 1_555
Ca19 Ca36 3.822055 1_545
Ca19 Ca46 3.835591 1_555
Ca20 Sb9 3.173255 1_555
Ca20 Sb37 3.191087 1_655
Ca20 Sb33 3.276482 1_555
Ca20 Sb4 3.297930 1_555
Ca20 Sb42 3.455387 1_655
Ca20 Mn2 3.570873 1_555
Ca20 Sb16 3.786799 1_555
Ca20 Ca38 3.822048 1_555
Ca20 Ca48 3.835594 1_555
Ca21 Sb8 3.173271 1_545
Ca21 Sb36 3.191080 1_555
Ca21 Sb32 3.276476 1_555
Ca21 Sb5 3.297958 1_555
Ca21 Sb43 3.455400 1_555
Ca21 Mn3 3.570868 1_545
Ca21 Sb17 3.786794 1_545
Ca21 Ca39 3.822055 1_555
Ca21 Ca49 3.835590 1_545
Ca22 Sb18 3.173255 1_555
Ca22 Sb39 3.191087 1_555
Ca22 Sb35 3.276482 1_555
Ca22 Sb6 3.297930 1_555
Ca22 Sb40 3.455387 1_556
Ca22 Mn0 3.570873 1_556
Ca22 Sb11 3.786799 1_556
Ca22 Ca33 3.822048 1_555
Ca22 Ca43 3.835594 1_555
Ca23 Sb19 3.173286 1_556
Ca23 Sb38 3.191072 1_455
Ca23 Sb34 3.276491 1_455
Ca23 Sb7 3.297940 1_556
Ca23 Sb41 3.455382 1_556
Ca23 Mn1 3.570886 1_556
Ca23 Sb10 3.786787 1_545
Ca23 Ca32 3.822055 1_456
Ca23 Ca42 3.835591 1_445
Ca24 Sb21 3.173286 1_554
Ca24 Sb25 3.191072 1_555
Ca24 Sb29 3.276491 1_555
Ca24 Sb7 3.297940 1_555
Ca24 Sb41 3.455382 1_555
Ca24 Mn0 3.570886 1_555
Ca24 Sb12 3.786787 1_555
Ca24 Ca35 3.822055 1_554
Ca24 Ca44 3.835591 1_555
Ca25 Sb20 3.173271 1_555
Ca25 Sb24 3.191095 1_555
Ca25 Sb28 3.276476 1_555
Ca25 Sb6 3.297948 1_555
Ca25 Sb40 3.455387 1_556
Ca25 Mn1 3.570873 1_666
Ca25 Sb13 3.786794 1_656
Ca25 Ca34 3.822048 1_555
Ca25 Ca45 3.835591 1_655
Ca26 Sb14 3.173271 1_555
Ca26 Sb27 3.191080 1_545
Ca26 Sb31 3.276476 1_555
Ca26 Sb5 3.297958 1_555
Ca26 Sb43 3.455400 1_555
Ca26 Mn2 3.570868 1_555
Ca26 Sb23 3.786794 1_555
Ca26 Ca33 3.822055 1_555
Ca26 Ca55 3.835590 1_555
Ca27 Sb15 3.173271 1_655
Ca27 Sb26 3.191095 1_555
Ca27 Sb30 3.276476 1_555
Ca27 Sb4 3.297948 1_555
Ca27 Sb42 3.455387 1_655
Ca27 Mn3 3.570873 1_655
Ca27 Sb22 3.786794 1_655
Ca27 Ca32 3.822048 1_555
Ca27 Ca54 3.835591 1_655
Ca28 Sb17 3.173286 1_555
Ca28 Sb29 3.191072 1_555
Ca28 Sb25 3.276491 1_555
Ca28 Sb3 3.297940 1_555
Ca28 Sb43 3.455382 1_565
Ca28 Mn3 3.570886 1_555
Ca28 Sb8 3.786787 1_555
Ca28 Ca34 3.822055 1_555
Ca28 Ca40 3.835591 1_555
Ca29 Sb16 3.173271 1_555
Ca29 Sb28 3.191095 1_555
Ca29 Sb24 3.276476 1_555
Ca29 Sb2 3.297948 1_655
Ca29 Sb42 3.455387 1_655
Ca29 Mn2 3.570873 1_555
Ca29 Sb9 3.786794 1_555
Ca29 Ca35 3.822048 1_655
Ca29 Ca41 3.835591 1_555
Ca30 Sb10 3.173271 1_544
Ca30 Sb31 3.191080 1_555
Ca30 Sb27 3.276476 1_545
Ca30 Sb1 3.297958 1_555
Ca30 Sb41 3.455400 1_555
Ca30 Mn1 3.570868 1_555
Ca30 Sb19 3.786794 1_555
Ca30 Ca37 3.822055 1_544
Ca30 Ca51 3.835590 1_555
Ca31 Sb11 3.173271 1_555
Ca31 Sb30 3.191095 1_555
Ca31 Sb26 3.276476 1_555
Ca31 Sb0 3.297948 1_555
Ca31 Sb40 3.455387 1_555
Ca31 Mn0 3.570873 1_555
Ca31 Sb18 3.786794 1_554
Ca31 Ca36 3.822048 1_555
Ca31 Ca50 3.835591 1_555
Ca32 Sb30 3.159281 1_555
Ca32 Sb34 3.159293 1_554
Ca32 Sb19 3.286821 1_655
Ca32 Sb15 3.286821 1_655
Ca32 Sb7 3.378825 1_655
Ca32 Sb4 3.378840 1_555
Ca32 Ca52 3.697747 1_555
Ca32 Ca40 3.697747 1_655
Ca32 Ca46 3.898148 1_554
Ca32 Ca50 3.898163 1_555
Ca33 Sb31 3.159296 1_555
Ca33 Sb35 3.159296 1_555
Ca33 Sb18 3.286815 1_555
Ca33 Sb14 3.286827 1_555
Ca33 Sb6 3.378821 1_555
Ca33 Sb5 3.378825 1_555
Ca33 Ca41 3.697738 1_555
Ca33 Ca53 3.697739 1_555
Ca33 Ca47 3.898148 1_555
Ca33 Ca51 3.898157 1_555
Ca34 Sb28 3.159281 1_555
Ca34 Sb25 3.159293 1_555
Ca34 Sb17 3.286821 1_555
Ca34 Sb20 3.286821 1_555
Ca34 Sb3 3.378825 1_555
Ca34 Sb6 3.378840 1_555
Ca34 Ca47 3.697747 1_555
Ca34 Ca42 3.697747 1_555
Ca34 Ca44 3.898148 1_555
Ca34 Ca41 3.898163 1_555
Ca35 Sb24 3.159281 1_455
Ca35 Sb29 3.159293 1_556
Ca35 Sb21 3.286821 1_555
Ca35 Sb16 3.286821 1_455
Ca35 Sb7 3.378825 1_556
Ca35 Sb2 3.378840 1_555
Ca35 Ca43 3.697747 1_555
Ca35 Ca46 3.697747 1_455
Ca35 Ca40 3.898148 1_556
Ca35 Ca45 3.898163 1_555
Ca36 Sb26 3.159281 1_555
Ca36 Sb38 3.159293 1_565
Ca36 Sb23 3.286821 1_565
Ca36 Sb11 3.286821 1_555
Ca36 Sb3 3.378825 1_555
Ca36 Sb0 3.378840 1_555
Ca36 Ca48 3.697747 1_565
Ca36 Ca44 3.697747 1_555
Ca36 Ca5 3.800868 1_555
Ca36 Ca9 3.800868 1_555
Ca36 Ca42 3.898148 1_555
Ca36 Ca54 3.898163 1_655
Ca37 Sb27 3.159296 1_556
Ca37 Sb39 3.159296 1_555
Ca37 Sb22 3.286815 1_555
Ca37 Sb10 3.286827 1_555
Ca37 Sb2 3.378821 1_555
Ca37 Sb1 3.378825 1_566
Ca37 Ca45 3.697738 1_555
Ca37 Ca49 3.697739 1_555
Ca37 Ca4 3.800868 1_555
Ca37 Ca8 3.800868 1_565
Ca37 Ca43 3.898148 1_555
Ca37 Ca55 3.898157 1_566
Ca38 Sb33 3.159296 1_555
Ca38 Sb36 3.159296 1_554
Ca38 Sb9 3.286815 1_555
Ca38 Sb12 3.286827 1_555
Ca38 Sb4 3.378821 1_555
Ca38 Sb1 3.378825 1_555
Ca38 Ca50 3.697738 1_555
Ca38 Ca55 3.697739 1_555
Ca38 Ca7 3.800868 1_555
Ca38 Ca52 3.898148 1_555
Ca38 Ca49 3.898157 1_544
Ca39 Sb32 3.159296 1_555
Ca39 Sb37 3.159296 1_555
Ca39 Sb13 3.286815 1_545
Ca39 Sb8 3.286827 1_545
Ca39 Sb0 3.378821 1_445
Ca39 Sb5 3.378825 1_555
Ca39 Ca54 3.697738 1_545
Ca39 Ca51 3.697739 1_555
Ca39 Ca6 3.800868 1_445
Ca39 Ca48 3.898148 1_455
Ca39 Ca53 3.898157 1_555
Ca40 Sb8 3.186823 1_555
Ca40 Sb7 3.210651 1_555
Ca40 Sb29 3.213461 1_555
Ca40 Sb30 3.249625 1_455
Ca40 Sb15 3.428889 1_555
Ca40 Ca6 3.600968 1_455
Ca40 Sb24 3.747870 1_454
Ca41 Sb9 3.186832 1_555
Ca41 Sb6 3.210667 1_555
Ca41 Sb28 3.213476 1_555
Ca41 Sb31 3.249618 1_555
Ca41 Sb14 3.428889 1_555
Ca41 Ca7 3.600970 1_555
Ca41 Sb25 3.747879 1_555
Ca42 Sb10 3.186823 1_655
Ca42 Sb3 3.210651 1_555
Ca42 Sb38 3.213461 1_565
Ca42 Sb28 3.249625 1_555
Ca42 Sb20 3.428889 1_555
Ca42 Sb26 3.747870 1_555
Ca43 Sb11 3.186828 1_556
Ca43 Sb2 3.210657 1_555
Ca43 Sb39 3.213475 1_555
Ca43 Sb29 3.249635 1_556
Ca43 Sb21 3.428889 1_555
Ca43 Ca5 3.600968 1_556
Ca43 Sb27 3.747873 1_556
Ca44 Sb12 3.186823 1_555
Ca44 Sb3 3.210651 1_555
Ca44 Sb25 3.213461 1_555
Ca44 Sb26 3.249625 1_555
Ca44 Sb11 3.428889 1_555
Ca44 Sb28 3.747870 1_555
Ca45 Sb13 3.186832 1_556
Ca45 Sb2 3.210667 1_555
Ca45 Sb24 3.213476 1_455
Ca45 Sb27 3.249618 1_556
Ca45 Sb10 3.428889 1_555
Ca45 Sb29 3.747879 1_556
Ca46 Sb14 3.186823 1_555
Ca46 Sb7 3.210651 1_656
Ca46 Sb34 3.213461 1_555
Ca46 Sb24 3.249625 1_555
Ca46 Sb16 3.428889 1_555
Ca46 Sb30 3.747870 1_556
Ca47 Sb15 3.186828 1_555
Ca47 Sb6 3.210657 1_555
Ca47 Sb35 3.213475 1_555
Ca47 Sb25 3.249635 1_555
Ca47 Sb17 3.428889 1_555
Ca47 Sb31 3.747873 1_555
Ca48 Sb16 3.186828 1_555
Ca48 Sb0 3.210657 1_545
Ca48 Sb37 3.213475 1_655
Ca48 Sb38 3.249635 1_555
Ca48 Sb23 3.428889 1_555
Ca48 Sb32 3.747873 1_655
Ca49 Sb17 3.186823 1_555
Ca49 Sb1 3.210657 1_566
Ca49 Sb36 3.213489 1_565
Ca49 Sb39 3.249608 1_555
Ca49 Sb22 3.428889 1_555
Ca49 Sb33 3.747870 1_566
Ca50 Sb18 3.186832 1_554
Ca50 Sb4 3.210667 1_555
Ca50 Sb30 3.213476 1_555
Ca50 Sb36 3.249618 1_554
Ca50 Sb12 3.428889 1_555
Ca50 Sb34 3.747879 1_554
Ca51 Sb19 3.186823 1_555
Ca51 Sb5 3.210657 1_555
Ca51 Sb31 3.213489 1_555
Ca51 Sb37 3.249608 1_555
Ca51 Sb13 3.428889 1_545
Ca51 Sb35 3.747870 1_555
Ca52 Sb20 3.186828 1_544
Ca52 Sb4 3.210657 1_555
Ca52 Sb33 3.213475 1_555
Ca52 Sb34 3.249635 1_554
Ca52 Sb19 3.428889 1_655
Ca52 Sb36 3.747873 1_554
Ca53 Sb21 3.186823 1_555
Ca53 Sb5 3.210657 1_555
Ca53 Sb32 3.213489 1_555
Ca53 Sb35 3.249608 1_555
Ca53 Sb18 3.428889 1_555
Ca53 Sb37 3.747870 1_555
Ca54 Sb22 3.186832 1_555
Ca54 Sb0 3.210667 1_455
Ca54 Sb26 3.213476 1_455
Ca54 Sb32 3.249618 1_565
Ca54 Sb8 3.428889 1_555
Ca54 Ca8 3.600970 1_565
Ca54 Sb38 3.747879 1_465
Ca55 Sb23 3.186823 1_555
Ca55 Sb1 3.210657 1_555
Ca55 Sb27 3.213489 1_545
Ca55 Sb33 3.249608 1_555
Ca55 Sb9 3.428889 1_555
Ca55 Ca9 3.600957 1_545
Ca55 Sb39 3.747870 1_544
Mn0 Sb12 2.733945 1_555
Mn0 Sb18 2.733946 1_554
Mn0 Sb11 2.733947 1_555
Mn0 Sb21 2.733947 1_554
Mn1 Sb10 2.733945 1_544
Mn1 Sb13 2.733946 1_545
Mn1 Sb20 2.733947 1_444
Mn1 Sb19 2.733947 1_555
Mn2 Sb14 2.733945 1_555
Mn2 Sb9 2.733946 1_555
Mn2 Sb16 2.733947 1_555
Mn2 Sb23 2.733947 1_555
Mn3 Sb8 2.733945 1_555
Mn3 Sb22 2.733946 1_555
Mn3 Sb15 2.733947 1_555
Mn3 Sb17 2.733947 1_555
Sb0 Sb40 3.212028 1_555
Sb1 Sb41 3.212040 1_555
Sb2 Sb42 3.212028 1_555
Sb3 Sb43 3.212040 1_565
Sb4 Sb42 3.212028 1_655
Sb40 Sb6 3.212028 1_554
Sb41 Sb7 3.212040 1_555
Sb43 Sb5 3.212040 1_555
