# generated using pymatgen
data_CsFe2S3
_symmetry_space_group_name_H-M   'P 1'
_cell_length_a   5.52663483
_cell_length_b   7.62743959
_cell_length_c   7.62743611
_cell_angle_alpha   102.79060907
_cell_angle_beta   89.99969924
_cell_angle_gamma   90.00025363
_symmetry_Int_Tables_number   1
_chemical_formula_structural   CsFe2S3
_chemical_formula_sum   'Cs2 Fe4 S6'
_cell_volume   313.54900602
_cell_formula_units_Z   2
loop_
 _symmetry_equiv_pos_site_id
 _symmetry_equiv_pos_as_xyz
  1  'x, y, z'
loop_
 _atom_site_type_symbol
 _atom_site_label
 _atom_site_symmetry_multiplicity
 _atom_site_fract_x
 _atom_site_fract_y
 _atom_site_fract_z
 _atom_site_occupancy
  Cs  Cs0  1  0.75000085  0.67097304  0.32900612  1
  Cs  Cs1  1  0.24999914  0.32900579  0.67097304  1
  Fe  Fe0  1  0.00000056  0.85978964  0.85978893  1
  Fe  Fe1  1  0.49999933  0.14021787  0.14021885  1
  Fe  Fe2  1  -0.00000087  0.14022366  0.14022208  1
  Fe  Fe3  1  0.49999972  0.85977573  0.85977737  1
  S  S0  1  0.74999611  0.10919742  0.89080655  1
  S  S1  1  0.25000106  0.89080726  0.10919866  1
  S  S2  1  0.75000850  0.63020868  0.83864529  1
  S  S3  1  0.25000544  0.36979379  0.16136309  1
  S  S4  1  0.24999451  0.83864583  0.63020842  1
  S  S5  1  0.74999565  0.16136230  0.36979358  1
loop_
_geom_bond_atom_site_label_1
_geom_bond_atom_site_label_2
_geom_bond_distance
_geom_bond_site_symmetry_2
Cs0 S3 3.639701 1_555
Cs0 S3 3.639745 1_655
Cs0 S4 3.639846 1_655
Cs0 S4 3.639890 1_555
Cs0 S2 3.683860 1_554
Cs0 S5 3.684053 1_565
Cs0 S1 3.808284 1_655
Cs0 S1 3.808306 1_555
Cs0 S5 3.967516 1_555
Cs0 S2 3.967679 1_555
Cs1 S5 3.639705 1_555
Cs1 S5 3.639744 1_455
Cs1 S2 3.639833 1_455
Cs1 S2 3.639907 1_555
Cs1 S4 3.683855 1_545
Cs1 S3 3.684056 1_556
Cs1 S0 3.808296 1_555
Cs1 S0 3.808296 1_455
Cs1 S3 3.967510 1_555
Cs1 S4 3.967688 1_555
Fe0 S2 2.208214 1_455
Fe0 S4 2.208216 1_555
Fe0 S1 2.320488 1_556
Fe0 S0 2.320489 1_465
Fe0 Fe2 2.669218 1_566
Fe0 Fe3 2.763313 1_555
Fe0 Fe3 2.763322 1_455
Fe1 S3 2.208199 1_555
Fe1 S5 2.208200 1_555
Fe1 S1 2.320476 1_545
Fe1 S0 2.320479 1_554
Fe1 Fe3 2.669296 1_544
Fe1 Fe2 2.763316 1_655
Fe1 Fe2 2.763319 1_555
Fe2 S5 2.208200 1_455
Fe2 S3 2.208201 1_555
Fe2 S0 2.320527 1_454
Fe2 S1 2.320530 1_545
Fe3 S2 2.208207 1_555
Fe3 S4 2.208208 1_555
Fe3 S0 2.320532 1_565
Fe3 S1 2.320534 1_556
