# generated using pymatgen
data_CsNa5(WN3)2
_symmetry_space_group_name_H-M   'P 1'
_cell_length_a   10.33819900
_cell_length_b   9.48052600
_cell_length_c   19.69309614
_cell_angle_alpha   89.91029045
_cell_angle_beta   90.00000000
_cell_angle_gamma   90.00000000
_symmetry_Int_Tables_number   1
_chemical_formula_structural   CsNa5(WN3)2
_chemical_formula_sum   'Cs8 Na40 W16 N48'
_cell_volume   1930.14879481
_cell_formula_units_Z   8
loop_
 _symmetry_equiv_pos_site_id
 _symmetry_equiv_pos_as_xyz
  1  'x, y, z'
loop_
 _atom_site_type_symbol
 _atom_site_label
 _atom_site_symmetry_multiplicity
 _atom_site_fract_x
 _atom_site_fract_y
 _atom_site_fract_z
 _atom_site_occupancy
  Cs  Cs0  1  0.23946100  0.87293300  0.04090200  1
  Cs  Cs1  1  0.26555800  0.38352800  0.08138600  1
  Cs  Cs2  1  0.73444200  0.61647200  0.91861400  1
  Cs  Cs3  1  0.73946100  0.12706700  0.45909800  1
  Cs  Cs4  1  0.76053900  0.12706700  0.95909800  1
  Cs  Cs5  1  0.23444200  0.38352800  0.58138600  1
  Cs  Cs6  1  0.26053900  0.87293300  0.54090200  1
  Cs  Cs7  1  0.76555800  0.61647200  0.41861400  1
  Na  Na0  1  0.99712700  0.62494900  0.56410300  1
  Na  Na1  1  0.50631200  0.62005400  0.56207800  1
  Na  Na2  1  0.00664100  0.87527100  0.68184800  1
  Na  Na3  1  0.49343100  0.88966300  0.68134200  1
  Na  Na4  1  0.50953000  0.62771400  0.79526000  1
  Na  Na5  1  0.52021600  0.87367600  0.94752500  1
  Na  Na6  1  0.51273000  0.36725300  0.67256200  1
  Na  Na7  1  0.47978400  0.12632400  0.05247500  1
  Na  Na8  1  0.98727000  0.36725300  0.17256200  1
  Na  Na9  1  0.00287300  0.37505100  0.43589700  1
  Na  Na10  1  0.01273000  0.63274700  0.82743800  1
  Na  Na11  1  0.50664100  0.12472900  0.81815200  1
  Na  Na12  1  0.83353200  0.12123800  0.65975200  1
  Na  Na13  1  0.48727000  0.63274700  0.32743800  1
  Na  Na14  1  0.50656900  0.11033700  0.31865800  1
  Na  Na15  1  0.83565000  0.62049000  0.71426400  1
  Na  Na16  1  0.00656900  0.88966300  0.18134200  1
  Na  Na17  1  0.49368800  0.37994600  0.43792200  1
  Na  Na18  1  0.66435000  0.62049000  0.21426400  1
  Na  Na19  1  0.66646800  0.12123800  0.15975200  1
  Na  Na20  1  0.97978400  0.87367600  0.44752500  1
  Na  Na21  1  0.49335900  0.87527100  0.18184800  1
  Na  Na22  1  0.99047000  0.62771400  0.29526000  1
  Na  Na23  1  0.50822400  0.86986000  0.43977800  1
  Na  Na24  1  0.33353200  0.87876200  0.84024800  1
  Na  Na25  1  0.99368800  0.62005400  0.06207800  1
  Na  Na26  1  0.50287300  0.62494900  0.06410300  1
  Na  Na27  1  0.49177600  0.13014000  0.56022200  1
  Na  Na28  1  0.00953000  0.37228600  0.70474000  1
  Na  Na29  1  0.00631200  0.37994600  0.93792200  1
  Na  Na30  1  0.99343100  0.11033700  0.81865800  1
  Na  Na31  1  0.49047000  0.37228600  0.20474000  1
  Na  Na32  1  0.16646800  0.87876200  0.34024800  1
  Na  Na33  1  0.49712700  0.37505100  0.93589700  1
  Na  Na34  1  0.16435000  0.37951000  0.28573600  1
  Na  Na35  1  0.99335900  0.12472900  0.31815200  1
  Na  Na36  1  0.99177600  0.86986000  0.93977800  1
  Na  Na37  1  0.00822400  0.13014000  0.06022200  1
  Na  Na38  1  0.33565000  0.37951000  0.78573600  1
  Na  Na39  1  0.02021600  0.12632400  0.55247500  1
  W  W0  1  0.26163600  0.07934400  0.21385600  1
  W  W1  1  0.75582400  0.82676300  0.09543400  1
  W  W2  1  0.25582400  0.17323700  0.40456600  1
  W  W3  1  0.75584100  0.42228700  0.58878100  1
  W  W4  1  0.74150000  0.32564100  0.78054600  1
  W  W5  1  0.74417600  0.82676300  0.59543400  1
  W  W6  1  0.24417600  0.17323700  0.90456600  1
  W  W7  1  0.76163600  0.92065600  0.28614400  1
  W  W8  1  0.73836400  0.92065600  0.78614400  1
  W  W9  1  0.24415900  0.57771300  0.41121900  1
  W  W10  1  0.75850000  0.32564100  0.28054600  1
  W  W11  1  0.25850000  0.67435900  0.21945400  1
  W  W12  1  0.24150000  0.67435900  0.71945400  1
  W  W13  1  0.23836400  0.07934400  0.71385600  1
  W  W14  1  0.25584100  0.57771300  0.91121900  1
  W  W15  1  0.74415900  0.42228700  0.08878100  1
  N  N0  1  0.39604300  0.63854000  0.44990500  1
  N  N1  1  0.74982300  0.86573000  0.69187400  1
  N  N2  1  0.10395700  0.63854000  0.94990500  1
  N  N3  1  0.37329900  0.16192700  0.66830700  1
  N  N4  1  0.62290600  0.41389600  0.32354500  1
  N  N5  1  0.92051600  0.86816000  0.32191500  1
  N  N6  1  0.38403000  0.08138400  0.94180400  1
  N  N7  1  0.26185500  0.37460600  0.91559800  1
  N  N8  1  0.74410600  0.12349900  0.29015800  1
  N  N9  1  0.12670100  0.16192700  0.16830700  1
  N  N10  1  0.57948400  0.86816000  0.82191500  1
  N  N11  1  0.24410600  0.87650100  0.20984200  1
  N  N12  1  0.39628000  0.65375800  0.95506300  1
  N  N13  1  0.23814500  0.37460600  0.41559800  1
  N  N14  1  0.89604300  0.36146000  0.05009500  1
  N  N15  1  0.87329900  0.83807300  0.83169300  1
  N  N16  1  0.75589400  0.12349900  0.79015800  1
  N  N17  1  0.08195400  0.61586100  0.68626100  1
  N  N18  1  0.58195400  0.38413900  0.81373900  1
  N  N19  1  0.75017700  0.86573000  0.19187400  1
  N  N20  1  0.25017700  0.13427000  0.30812600  1
  N  N21  1  0.76185500  0.62539400  0.58440200  1
  N  N22  1  0.88403000  0.91861600  0.55819600  1
  N  N23  1  0.74066900  0.36881200  0.18474100  1
  N  N24  1  0.07948400  0.13184000  0.67808500  1
  N  N25  1  0.87709400  0.41389600  0.82354500  1
  N  N26  1  0.25933100  0.63118800  0.81525900  1
  N  N27  1  0.11597000  0.08138400  0.44180400  1
  N  N28  1  0.90993900  0.88882400  0.05941300  1
  N  N29  1  0.12290600  0.58610400  0.17645500  1
  N  N30  1  0.73814500  0.62539400  0.08440200  1
  N  N31  1  0.60372000  0.34624200  0.04493700  1
  N  N32  1  0.24982300  0.13427000  0.80812600  1
  N  N33  1  0.24066900  0.63118800  0.31525900  1
  N  N34  1  0.75933100  0.36881200  0.68474100  1
  N  N35  1  0.40993900  0.11117600  0.44058700  1
  N  N36  1  0.61597000  0.91861600  0.05819600  1
  N  N37  1  0.89628000  0.34624200  0.54493700  1
  N  N38  1  0.25589400  0.87650100  0.70984200  1
  N  N39  1  0.41804600  0.61586100  0.18626100  1
  N  N40  1  0.09006100  0.11117600  0.94058700  1
  N  N41  1  0.10372000  0.65375800  0.45506300  1
  N  N42  1  0.62670100  0.83807300  0.33169300  1
  N  N43  1  0.60395700  0.36146000  0.55009500  1
  N  N44  1  0.42051600  0.13184000  0.17808500  1
  N  N45  1  0.59006100  0.88882400  0.55941300  1
  N  N46  1  0.37709400  0.58610400  0.67645500  1
  N  N47  1  0.91804600  0.38413900  0.31373900  1
loop_
_geom_bond_atom_site_label_1
_geom_bond_atom_site_label_2
_geom_bond_distance
_geom_bond_site_symmetry_2
Cs0 N12 3.132825 1_554
Cs0 N6 3.152095 1_564
Cs0 N2 3.181862 1_554
Cs0 Na36 3.244016 1_454
Cs0 N11 3.327523 1_555
Cs0 N40 3.372807 1_564
Cs0 N28 3.429449 1_455
Cs0 Na5 3.435987 1_554
Cs0 Na37 3.436362 1_565
Cs0 Na7 3.463724 1_565
Cs0 Na25 3.517719 1_455
Cs0 Na26 3.626090 1_555
Cs0 Na16 3.670499 1_555
Cs0 Na21 3.820316 1_555
Cs1 N29 3.062639 1_555
Cs1 N9 3.064851 1_555
Cs1 N7 3.266331 1_554
Cs1 Na7 3.343559 1_555
Cs1 Na31 3.364246 1_555
Cs1 Na26 3.372124 1_555
Cs1 Na8 3.394703 1_455
Cs1 N39 3.408311 1_555
Cs1 N44 3.445597 1_555
Cs1 N31 3.586488 1_555
Cs1 Na37 3.609048 1_555
Cs1 Na25 3.615240 1_455
Cs2 N25 3.062639 1_555
Cs2 N15 3.064851 1_555
Cs2 N30 3.266331 1_556
Cs2 Na5 3.343559 1_555
Cs2 Na4 3.364246 1_555
Cs2 Na33 3.372124 1_555
Cs2 Na10 3.394703 1_655
Cs2 N18 3.408311 1_555
Cs2 N10 3.445597 1_555
Cs2 N12 3.586488 1_555
Cs2 Na36 3.609048 1_555
Cs2 Na29 3.615240 1_655
Cs3 N37 3.132825 1_555
Cs3 N22 3.152095 1_545
Cs3 N43 3.181862 1_555
Cs3 Na27 3.244016 1_555
Cs3 N8 3.327523 1_555
Cs3 N45 3.372807 1_545
Cs3 N35 3.429449 1_555
Cs3 Na39 3.435987 1_655
Cs3 Na23 3.436362 1_545
Cs3 Na20 3.463724 1_545
Cs3 Na17 3.517719 1_555
Cs3 Na9 3.626090 1_655
Cs3 Na14 3.670499 1_555
Cs3 Na35 3.820316 1_555
Cs4 N31 3.132825 1_556
Cs4 N36 3.152095 1_546
Cs4 N14 3.181862 1_556
Cs4 Na37 3.244016 1_656
Cs4 N16 3.327523 1_555
Cs4 N28 3.372807 1_546
Cs4 N40 3.429449 1_655
Cs4 Na7 3.435987 1_556
Cs4 Na36 3.436362 1_545
Cs4 Na5 3.463724 1_545
Cs4 Na29 3.517719 1_655
Cs4 Na33 3.626090 1_555
Cs4 Na30 3.670499 1_555
Cs4 Na11 3.820316 1_555
Cs5 N46 3.062639 1_555
Cs5 N3 3.064851 1_555
Cs5 N13 3.266331 1_555
Cs5 Na39 3.343559 1_555
Cs5 Na28 3.364246 1_555
Cs5 Na0 3.372124 1_455
Cs5 Na6 3.394703 1_555
Cs5 N17 3.408311 1_555
Cs5 N24 3.445597 1_555
Cs5 N37 3.586488 1_455
Cs5 Na27 3.609048 1_555
Cs5 Na1 3.615240 1_555
Cs6 N41 3.132825 1_555
Cs6 N27 3.152095 1_565
Cs6 N0 3.181862 1_555
Cs6 Na23 3.244016 1_555
Cs6 N38 3.327523 1_555
Cs6 N35 3.372807 1_565
Cs6 N45 3.429449 1_555
Cs6 Na20 3.435987 1_455
Cs6 Na27 3.436362 1_565
Cs6 Na39 3.463724 1_565
Cs6 Na1 3.517719 1_555
Cs6 Na0 3.626090 1_455
Cs6 Na3 3.670499 1_555
Cs6 Na2 3.820316 1_555
Cs7 N4 3.062639 1_555
Cs7 N42 3.064851 1_555
Cs7 N21 3.266331 1_555
Cs7 Na20 3.343559 1_555
Cs7 Na22 3.364246 1_555
Cs7 Na9 3.372124 1_655
Cs7 Na13 3.394703 1_555
Cs7 N47 3.408311 1_555
Cs7 N5 3.445597 1_555
Cs7 N41 3.586488 1_655
Cs7 Na23 3.609048 1_555
Cs7 Na17 3.615240 1_555
Na0 Na2 3.321983 1_655
Na1 Na6 3.235145 1_555
Na2 Na30 3.501809 1_465
Na3 Na4 3.348199 1_555
Na10 Na15 2.886701 1_455
Na10 Na29 3.235145 1_555
Na11 Na24 2.970977 1_545
Na11 Na38 3.059743 1_555
Na11 Na33 3.321983 1_555
Na11 Na3 3.501809 1_545
Na12 Na39 2.861811 1_655
Na12 Na2 2.970977 1_645
Na12 Na28 3.125192 1_655
Na13 Na18 2.886701 1_555
Na13 Na17 3.235145 1_555
Na14 Na31 3.348199 1_555
Na14 Na21 3.501809 1_545
Na15 Na28 2.967330 1_655
Na15 Na2 3.059743 1_655
Na16 Na22 3.348199 1_455
Na16 Na35 3.501809 1_465
Na18 Na31 2.967330 1_555
Na18 Na21 3.059743 1_555
Na19 Na7 2.861811 1_555
Na19 Na21 2.970977 1_545
Na19 Na31 3.125192 1_555
Na20 Na32 2.861811 1_655
Na21 Na26 3.321983 1_555
Na22 Na34 2.967330 1_655
Na22 Na32 3.125192 1_655
Na24 Na5 2.861811 1_555
Na24 Na4 3.125192 1_555
Na25 Na8 3.235145 1_555
Na28 Na30 3.348199 1_455
Na32 Na35 2.970977 1_465
Na34 Na8 2.886701 1_455
Na34 Na35 3.059743 1_455
Na35 Na9 3.321983 1_655
Na38 Na6 2.886701 1_555
Na38 Na4 2.967330 1_555
N0 W9 1.838447 1_555
N0 Na23 2.488539 1_555
N0 Na1 2.491765 1_555
N0 Na13 2.590265 1_555
N0 Na17 2.662126 1_555
N1 W8 1.932535 1_555
N1 W5 1.936247 1_555
N1 Na15 2.526687 1_555
N1 Na12 2.648029 1_565
N1 Na2 2.663893 1_655
N1 Na3 2.668370 1_555
N2 W14 1.838447 1_555
N2 Na36 2.488539 1_455
N2 Na25 2.491765 1_456
N2 Na10 2.590265 1_555
N2 Na29 2.662126 1_555
N3 W13 1.833405 1_555
N3 Na6 2.423758 1_555
N3 Na27 2.474609 1_555
N3 Na3 2.875566 1_545
N3 Na38 3.125608 1_555
N3 Na11 3.275560 1_555
N4 W10 1.839666 1_555
N4 Na13 2.505498 1_555
N4 Na17 2.638063 1_555
N4 Na31 2.739888 1_555
N4 Na18 2.939051 1_555
N4 Na14 3.120730 1_555
N5 W7 1.854926 1_555
N5 Na22 2.449219 1_555
N5 Na35 2.547283 1_565
N5 Na20 2.549022 1_555
N5 Na32 2.570192 1_655
N5 Na16 2.914588 1_655
N6 W6 1.839713 1_555
N6 Na5 2.423202 1_545
N6 Na7 2.431954 1_556
N6 Na11 2.775275 1_555
N6 Na24 2.823913 1_545
N6 Na33 3.021738 1_555
N7 W14 1.928359 1_555
N7 W6 1.930416 1_555
N7 Na33 2.464924 1_555
N7 Na38 2.669089 1_555
N7 Na29 2.678675 1_555
N8 W10 1.931185 1_555
N8 W7 1.933319 1_545
N8 Na14 2.522071 1_555
N8 Na35 2.635169 1_555
N8 Na19 2.690722 1_555
N9 W0 1.833405 1_555
N9 Na8 2.423758 1_455
N9 Na37 2.474609 1_555
N9 Na16 2.875566 1_545
N9 Na34 3.125608 1_555
N9 Na35 3.275560 1_455
N10 W8 1.854926 1_555
N10 Na4 2.449219 1_555
N10 Na11 2.547283 1_565
N10 Na5 2.549022 1_555
N10 Na24 2.570192 1_555
N10 Na3 2.914588 1_555
N11 W11 1.931185 1_555
N11 W0 1.933319 1_565
N11 Na16 2.522071 1_555
N11 Na21 2.635169 1_555
N11 Na32 2.690722 1_555
N12 W14 1.837169 1_555
N12 Na26 2.428614 1_556
N12 Na5 2.451469 1_555
N12 Na33 2.866049 1_555
N12 Na24 3.173085 1_555
N12 Na4 3.367177 1_555
N13 W9 1.928359 1_555
N13 W2 1.930416 1_555
N13 Na9 2.464924 1_555
N13 Na34 2.669089 1_555
N13 Na17 2.678675 1_555
N14 W15 1.838447 1_555
N14 Na37 2.488539 1_655
N14 Na29 2.491765 1_654
N14 Na8 2.590265 1_555
N14 Na25 2.662126 1_555
N15 W8 1.833405 1_555
N15 Na10 2.423758 1_655
N15 Na36 2.474609 1_555
N15 Na30 2.875566 1_565
N15 Na15 3.125608 1_555
N15 Na2 3.275560 1_655
N16 W4 1.931185 1_555
N16 W8 1.933319 1_545
N16 Na30 2.522071 1_555
N16 Na11 2.635169 1_555
N16 Na12 2.690722 1_555
N17 W12 1.859187 1_555
N17 Na28 2.454158 1_555
N17 Na0 2.561850 1_455
N17 Na2 2.580983 1_555
N17 Na15 2.605756 1_455
N17 Na10 2.875545 1_555
N18 W4 1.859187 1_555
N18 Na4 2.454158 1_555
N18 Na33 2.561850 1_555
N18 Na11 2.580983 1_555
N18 Na38 2.605756 1_555
N18 Na6 2.875545 1_555
N19 W7 1.932535 1_555
N19 W1 1.936247 1_555
N19 Na18 2.526687 1_555
N19 Na19 2.648029 1_565
N19 Na21 2.663893 1_555
N19 Na16 2.668370 1_655
N20 W0 1.932535 1_555
N20 W2 1.936247 1_555
N20 Na34 2.526687 1_555
N20 Na32 2.648029 1_545
N20 Na35 2.663893 1_455
N20 Na14 2.668370 1_555
N21 W3 1.928359 1_555
N21 W5 1.930416 1_555
N21 Na0 2.464924 1_555
N21 Na15 2.669089 1_555
N21 Na1 2.678675 1_555
N22 W5 1.839713 1_555
N22 Na39 2.423202 1_665
N22 Na20 2.431954 1_555
N22 Na2 2.775275 1_655
N22 Na12 2.823913 1_565
N22 Na0 3.021738 1_555
N23 W10 1.938737 1_555
N23 W15 1.956138 1_555
N23 Na19 2.518584 1_555
N23 Na8 2.560712 1_555
N23 Na18 2.580325 1_555
N23 Na31 2.616634 1_555
N24 W13 1.854926 1_555
N24 Na28 2.449219 1_555
N24 Na2 2.547283 1_545
N24 Na39 2.549022 1_555
N24 Na12 2.570192 1_455
N24 Na30 2.914588 1_455
N25 W4 1.839666 1_555
N25 Na10 2.505498 1_655
N25 Na29 2.638063 1_655
N25 Na28 2.739888 1_655
N25 Na15 2.939051 1_555
N25 Na30 3.120730 1_555
N26 W12 1.938737 1_555
N26 W14 1.956138 1_555
N26 Na24 2.518584 1_555
N26 Na10 2.560712 1_555
N26 Na38 2.580325 1_555
N26 Na4 2.616634 1_555
N27 W2 1.839713 1_555
N27 Na20 2.423202 1_445
N27 Na39 2.431954 1_555
N27 Na35 2.775275 1_455
N27 Na32 2.823913 1_545
N27 Na9 3.021738 1_555
N28 W1 1.840268 1_555
N28 Na37 2.503367 1_665
N28 Na36 2.510001 1_554
N28 Na16 2.600702 1_655
N28 Na25 2.691595 1_555
N29 W11 1.839666 1_555
N29 Na8 2.505498 1_455
N29 Na25 2.638063 1_455
N29 Na22 2.739888 1_455
N29 Na34 2.939051 1_555
N29 Na16 3.120730 1_555
N30 W15 1.928359 1_555
N30 W1 1.930416 1_555
N30 Na26 2.464924 1_555
N30 Na18 2.669089 1_555
N30 Na25 2.678675 1_555
N31 W15 1.837169 1_555
N31 Na33 2.428614 1_554
N31 Na7 2.451469 1_555
N31 Na26 2.866049 1_555
N31 Na19 3.173085 1_555
N31 Na31 3.367177 1_555
N32 W13 1.932535 1_555
N32 W6 1.936247 1_555
N32 Na38 2.526687 1_555
N32 Na24 2.648029 1_545
N32 Na11 2.663893 1_555
N32 Na30 2.668370 1_455
N33 W11 1.938737 1_555
N33 W9 1.956138 1_555
N33 Na32 2.518584 1_555
N33 Na13 2.560712 1_555
N33 Na34 2.580325 1_555
N33 Na22 2.616634 1_455
N34 W4 1.938737 1_555
N34 W3 1.956138 1_555
N34 Na12 2.518584 1_555
N34 Na6 2.560712 1_555
N34 Na15 2.580325 1_555
N34 Na28 2.616634 1_655
N35 W2 1.840268 1_555
N35 Na23 2.503367 1_545
N35 Na27 2.510001 1_555
N35 Na14 2.600702 1_555
N35 Na17 2.691595 1_555
N36 W1 1.839713 1_555
N36 Na7 2.423202 1_565
N36 Na5 2.431954 1_554
N36 Na21 2.775275 1_555
N36 Na19 2.823913 1_565
N36 Na26 3.021738 1_555
N37 W3 1.837169 1_555
N37 Na9 2.428614 1_655
N37 Na39 2.451469 1_655
N37 Na0 2.866049 1_555
N37 Na12 3.173085 1_555
N37 Na28 3.367177 1_655
N38 W12 1.931185 1_555
N38 W13 1.933319 1_565
N38 Na3 2.522071 1_555
N38 Na2 2.635169 1_555
N38 Na24 2.690722 1_555
N39 W11 1.859187 1_555
N39 Na31 2.454158 1_555
N39 Na26 2.561850 1_555
N39 Na21 2.580983 1_555
N39 Na18 2.605756 1_555
N39 Na13 2.875545 1_555
N40 W6 1.840268 1_555
N40 Na36 2.503367 1_445
N40 Na37 2.510001 1_556
N40 Na30 2.600702 1_455
N40 Na29 2.691595 1_555
N41 W9 1.837169 1_555
N41 Na0 2.428614 1_455
N41 Na20 2.451469 1_455
N41 Na9 2.866049 1_555
N41 Na32 3.173085 1_555
N41 Na22 3.367177 1_455
N42 W7 1.833405 1_555
N42 Na13 2.423758 1_555
N42 Na23 2.474609 1_555
N42 Na14 2.875566 1_565
N42 Na18 3.125608 1_555
N42 Na21 3.275560 1_555
N43 W3 1.838447 1_555
N43 Na27 2.488539 1_555
N43 Na17 2.491765 1_555
N43 Na6 2.590265 1_555
N43 Na1 2.662126 1_555
N44 W0 1.854926 1_555
N44 Na31 2.449219 1_555
N44 Na21 2.547283 1_545
N44 Na7 2.549022 1_555
N44 Na19 2.570192 1_555
N44 Na14 2.914588 1_555
N45 W5 1.840268 1_555
N45 Na27 2.503367 1_565
N45 Na23 2.510001 1_555
N45 Na3 2.600702 1_555
N45 Na1 2.691595 1_555
N46 W12 1.839666 1_555
N46 Na6 2.505498 1_555
N46 Na1 2.638063 1_555
N46 Na4 2.739888 1_555
N46 Na38 2.939051 1_555
N46 Na3 3.120730 1_555
N47 W10 1.859187 1_555
N47 Na22 2.454158 1_555
N47 Na9 2.561850 1_655
N47 Na35 2.580983 1_555
N47 Na34 2.605756 1_655
N47 Na8 2.875545 1_555
