# generated using pymatgen
data_Mo15Se19
_symmetry_space_group_name_H-M   'P 1'
_cell_length_a   20.57848708
_cell_length_b   20.57848708
_cell_length_c   20.57848667
_cell_angle_alpha   27.20918157
_cell_angle_beta   27.20918157
_cell_angle_gamma   27.20918429
_symmetry_Int_Tables_number   1
_chemical_formula_structural   Mo15Se19
_chemical_formula_sum   'Mo30 Se38'
_cell_volume   1607.45398722
_cell_formula_units_Z   2
loop_
 _symmetry_equiv_pos_site_id
 _symmetry_equiv_pos_as_xyz
  1  'x, y, z'
loop_
 _atom_site_type_symbol
 _atom_site_label
 _atom_site_symmetry_multiplicity
 _atom_site_fract_x
 _atom_site_fract_y
 _atom_site_fract_z
 _atom_site_occupancy
  Mo  Mo0  1  0.75000000  0.91067400  0.58932600  1
  Mo  Mo1  1  0.99776900  0.19011600  0.87164700  1
  Mo  Mo2  1  0.63439500  0.95607300  0.77622300  1
  Mo  Mo3  1  0.62835300  0.30988400  0.50223100  1
  Mo  Mo4  1  0.50223100  0.62835300  0.30988400  1
  Mo  Mo5  1  0.12835300  0.00223100  0.80988400  1
  Mo  Mo6  1  0.37164700  0.69011600  0.49776900  1
  Mo  Mo7  1  0.41067400  0.25000000  0.08932600  1
  Mo  Mo8  1  0.27622300  0.45607300  0.13439500  1
  Mo  Mo9  1  0.00223100  0.80988400  0.12835300  1
  Mo  Mo10  1  0.22377700  0.36560500  0.04392700  1
  Mo  Mo11  1  0.80988400  0.12835300  0.00223100  1
  Mo  Mo12  1  0.58932600  0.75000000  0.91067400  1
  Mo  Mo13  1  0.25000000  0.08932600  0.41067400  1
  Mo  Mo14  1  0.95607300  0.77622300  0.63439500  1
  Mo  Mo15  1  0.19011600  0.87164700  0.99776900  1
  Mo  Mo16  1  0.30988400  0.50223100  0.62835300  1
  Mo  Mo17  1  0.08932600  0.41067400  0.25000000  1
  Mo  Mo18  1  0.45607300  0.13439500  0.27622300  1
  Mo  Mo19  1  0.13439500  0.27622300  0.45607300  1
  Mo  Mo20  1  0.77622300  0.63439500  0.95607300  1
  Mo  Mo21  1  0.54392700  0.86560500  0.72377700  1
  Mo  Mo22  1  0.72377700  0.54392700  0.86560500  1
  Mo  Mo23  1  0.49776900  0.37164700  0.69011600  1
  Mo  Mo24  1  0.87164700  0.99776900  0.19011600  1
  Mo  Mo25  1  0.36560500  0.04392700  0.22377700  1
  Mo  Mo26  1  0.04392700  0.22377700  0.36560500  1
  Mo  Mo27  1  0.91067400  0.58932600  0.75000000  1
  Mo  Mo28  1  0.69011600  0.49776900  0.37164700  1
  Mo  Mo29  1  0.86560500  0.72377700  0.54392700  1
  Se  Se0  1  0.05294900  0.68875600  0.30627800  1
  Se  Se1  1  0.81124400  0.44705100  0.19372200  1
  Se  Se2  1  0.55294900  0.80627800  0.18875600  1
  Se  Se3  1  0.08048600  0.46124300  0.81394400  1
  Se  Se4  1  0.44705100  0.19372200  0.81124400  1
  Se  Se5  1  0.18875600  0.55294900  0.80627800  1
  Se  Se6  1  0.17717400  0.17717400  0.17717400  1
  Se  Se7  1  0.68875600  0.30627800  0.05294900  1
  Se  Se8  1  0.03875700  0.41951400  0.68605600  1
  Se  Se9  1  0.91951400  0.53875700  0.18605600  1
  Se  Se10  1  0.41951400  0.68605600  0.03875700  1
  Se  Se11  1  0.05977000  0.75000000  0.44023000  1
  Se  Se12  1  0.69372200  0.94705100  0.31124400  1
  Se  Se13  1  0.94705100  0.31124400  0.69372200  1
  Se  Se14  1  0.67717400  0.67717400  0.67717400  1
  Se  Se15  1  0.30627800  0.05294900  0.68875600  1
  Se  Se16  1  0.53875700  0.18605600  0.91951400  1
  Se  Se17  1  0.82282600  0.82282600  0.82282600  1
  Se  Se18  1  0.44023000  0.05977000  0.75000000  1
  Se  Se19  1  0.05388400  0.05388400  0.05388400  1
  Se  Se20  1  0.19372200  0.81124400  0.44705100  1
  Se  Se21  1  0.80627800  0.18875600  0.55294900  1
  Se  Se22  1  0.81394400  0.08048600  0.46124300  1
  Se  Se23  1  0.46124300  0.81394400  0.08048600  1
  Se  Se24  1  0.94023000  0.25000000  0.55977000  1
  Se  Se25  1  0.44611600  0.44611600  0.44611600  1
  Se  Se26  1  0.31124400  0.69372200  0.94705100  1
  Se  Se27  1  0.25000000  0.55977000  0.94023000  1
  Se  Se28  1  0.68605600  0.03875700  0.41951400  1
  Se  Se29  1  0.75000000  0.44023000  0.05977000  1
  Se  Se30  1  0.18605600  0.91951400  0.53875700  1
  Se  Se31  1  0.32282600  0.32282600  0.32282600  1
  Se  Se32  1  0.58048600  0.31394400  0.96124300  1
  Se  Se33  1  0.96124300  0.58048600  0.31394400  1
  Se  Se34  1  0.55388400  0.55388400  0.55388400  1
  Se  Se35  1  0.55977000  0.94023000  0.25000000  1
  Se  Se36  1  0.31394400  0.96124300  0.58048600  1
  Se  Se37  1  0.94611600  0.94611600  0.94611600  1
loop_
_geom_bond_atom_site_label_1
_geom_bond_atom_site_label_2
_geom_bond_distance
_geom_bond_site_symmetry_2
Mo0 Se28 2.552880 1_565
Mo0 Se22 2.552880 1_565
Mo0 Se18 2.597699 1_565
Mo0 Se11 2.597699 1_655
Mo0 Mo12 2.694163 1_555
Mo0 Mo27 2.694163 1_555
Mo0 Mo2 2.736416 1_555
Mo0 Mo29 2.736416 1_555
Mo0 Mo21 2.839107 1_555
Mo0 Mo14 2.839107 1_555
Mo1 Se19 2.549707 1_656
Mo1 Se13 2.577790 1_555
Mo1 Se7 2.587956 1_556
Mo1 Se8 2.620432 1_655
Mo1 Se15 2.638067 1_655
Mo1 Mo24 2.689200 1_546
Mo1 Mo15 2.689200 1_645
Mo1 Mo11 2.823296 1_556
Mo1 Mo5 2.823296 1_655
Mo2 Se17 2.549420 1_555
Mo2 Se23 2.595268 1_556
Mo2 Se22 2.632651 1_565
Mo2 Se4 2.662827 1_565
Mo2 Mo20 2.703203 1_555
Mo2 Se18 2.725990 1_565
Mo3 Se25 2.549708 1_555
Mo3 Se21 2.577791 1_555
Mo3 Se4 2.587955 1_555
Mo3 Se22 2.620432 1_555
Mo3 Se1 2.638067 1_555
Mo3 Mo4 2.689200 1_555
Mo4 Se25 2.549707 1_555
Mo4 Se2 2.577790 1_555
Mo4 Se1 2.587956 1_555
Mo4 Se23 2.620432 1_555
Mo4 Se20 2.638068 1_555
Mo4 Mo6 2.823296 1_555
Mo5 Se37 2.549707 1_445
Mo5 Se15 2.577790 1_555
Mo5 Se13 2.587956 1_455
Mo5 Se36 2.620432 1_545
Mo5 Se26 2.638068 1_545
Mo5 Mo9 2.689200 1_546
Mo6 Se34 2.549708 1_555
Mo6 Se20 2.577791 1_555
Mo6 Se2 2.587955 1_555
Mo6 Se30 2.620432 1_555
Mo6 Se5 2.638067 1_555
Mo7 Se16 2.552880 1_554
Mo7 Se32 2.552880 1_554
Mo7 Se35 2.597699 1_545
Mo7 Se27 2.597699 1_554
Mo7 Mo8 2.839107 1_555
Mo8 Se31 2.549420 1_555
Mo8 Se32 2.595268 1_554
Mo8 Se33 2.632652 1_455
Mo8 Se26 2.662827 1_554
Mo8 Se27 2.725990 1_554
Mo9 Se37 2.549707 1_454
Mo9 Se0 2.577790 1_555
Mo9 Se26 2.587956 1_554
Mo9 Se33 2.620432 1_455
Mo9 Se12 2.638067 1_455
Mo10 Se6 2.549420 1_555
Mo10 Se9 2.595269 1_455
Mo10 Se16 2.632652 1_554
Mo10 Se5 2.662827 1_554
Mo10 Mo26 2.703202 1_555
Mo10 Mo25 2.703203 1_555
Mo10 Se27 2.725990 1_554
Mo10 Mo7 2.736416 1_555
Mo10 Mo17 2.839107 1_555
Mo11 Se37 2.549708 1_544
Mo11 Se7 2.577791 1_555
Mo11 Se12 2.587955 1_545
Mo11 Se32 2.620432 1_554
Mo11 Se13 2.638067 1_554
Mo11 Mo5 2.689200 1_654
Mo11 Mo9 2.689200 1_645
Mo11 Mo24 2.823296 1_545
Mo12 Se23 2.552880 1_556
Mo12 Se10 2.552880 1_556
Mo12 Se18 2.597699 1_565
Mo12 Se29 2.597699 1_556
Mo12 Mo27 2.694163 1_555
Mo12 Mo21 2.736416 1_555
Mo12 Mo20 2.736416 1_555
Mo12 Mo2 2.839107 1_555
Mo12 Mo22 2.839107 1_555
Mo13 Se36 2.552880 1_545
Mo13 Se30 2.552880 1_545
Mo13 Se35 2.597699 1_545
Mo13 Se24 2.597699 1_455
Mo13 Mo7 2.694163 1_555
Mo13 Mo17 2.694163 1_555
Mo13 Mo25 2.736416 1_555
Mo13 Mo19 2.736416 1_555
Mo13 Mo18 2.839107 1_555
Mo13 Mo26 2.839107 1_555
Mo14 Se17 2.549420 1_555
Mo14 Se22 2.595268 1_565
Mo14 Se3 2.632652 1_655
Mo14 Se20 2.662827 1_655
Mo14 Mo20 2.703202 1_555
Mo14 Mo2 2.703203 1_555
Mo14 Se11 2.725990 1_655
Mo14 Mo27 2.736416 1_555
Mo15 Se19 2.549708 1_566
Mo15 Se26 2.577791 1_555
Mo15 Se15 2.587955 1_565
Mo15 Se10 2.620432 1_556
Mo15 Se0 2.638067 1_556
Mo15 Mo24 2.689200 1_456
Mo15 Mo5 2.823296 1_565
Mo15 Mo9 2.823296 1_556
Mo16 Se25 2.549707 1_555
Mo16 Se5 2.577790 1_555
Mo16 Se20 2.587956 1_555
Mo16 Se3 2.620432 1_555
Mo16 Se4 2.638067 1_555
Mo16 Mo4 2.689200 1_555
Mo16 Mo3 2.689200 1_555
Mo16 Mo6 2.823296 1_555
Mo16 Mo23 2.823296 1_555
Mo17 Se33 2.552880 1_455
Mo17 Se9 2.552880 1_455
Mo17 Se27 2.597698 1_554
Mo17 Se24 2.597698 1_455
Mo17 Mo7 2.694163 1_555
Mo17 Mo8 2.736416 1_555
Mo17 Mo26 2.736416 1_555
Mo17 Mo19 2.839107 1_555
Mo18 Se31 2.549420 1_555
Mo18 Se36 2.595268 1_545
Mo18 Se32 2.632651 1_554
Mo18 Se12 2.662827 1_545
Mo18 Mo19 2.703203 1_555
Mo18 Mo8 2.703203 1_555
Mo18 Se35 2.725990 1_545
Mo18 Mo7 2.736416 1_555
Mo19 Se31 2.549420 1_555
Mo19 Se33 2.595269 1_455
Mo19 Se36 2.632652 1_545
Mo19 Se13 2.662827 1_455
Mo19 Mo8 2.703202 1_555
Mo19 Se24 2.725990 1_455
Mo20 Se17 2.549420 1_555
Mo20 Se3 2.595269 1_655
Mo20 Se23 2.632652 1_556
Mo20 Se1 2.662827 1_556
Mo20 Se29 2.725990 1_556
Mo20 Mo27 2.839107 1_555
Mo21 Se14 2.549420 1_555
Mo21 Se28 2.595268 1_565
Mo21 Se10 2.632651 1_556
Mo21 Se15 2.662827 1_565
Mo21 Mo29 2.703203 1_555
Mo21 Mo22 2.703203 1_555
Mo21 Se18 2.725990 1_565
Mo22 Se14 2.549420 1_555
Mo22 Se10 2.595268 1_556
Mo22 Se8 2.632652 1_655
Mo22 Se7 2.662827 1_556
Mo22 Mo29 2.703202 1_555
Mo22 Se29 2.725990 1_556
Mo22 Mo27 2.736416 1_555
Mo23 Se34 2.549707 1_555
Mo23 Se4 2.577790 1_555
Mo23 Se5 2.587956 1_555
Mo23 Se16 2.620432 1_555
Mo23 Se21 2.638068 1_555
Mo23 Mo28 2.689200 1_555
Mo23 Mo6 2.689200 1_555
Mo23 Mo3 2.823296 1_555
Mo24 Se19 2.549707 1_665
Mo24 Se12 2.577790 1_555
Mo24 Se0 2.587956 1_655
Mo24 Se28 2.620432 1_565
Mo24 Se7 2.638068 1_565
Mo24 Mo9 2.823296 1_655
Mo25 Se6 2.549420 1_555
Mo25 Se16 2.595268 1_554
Mo25 Se30 2.632651 1_545
Mo25 Se2 2.662827 1_545
Mo25 Mo26 2.703203 1_555
Mo25 Se35 2.725990 1_545
Mo25 Mo7 2.839107 1_555
Mo26 Se6 2.549420 1_555
Mo26 Se30 2.595268 1_545
Mo26 Se9 2.632652 1_455
Mo26 Se21 2.662827 1_455
Mo26 Se24 2.725990 1_455
Mo27 Se3 2.552880 1_655
Mo27 Se8 2.552880 1_655
Mo27 Se11 2.597698 1_655
Mo27 Se29 2.597698 1_556
Mo27 Mo29 2.839107 1_555
Mo28 Se34 2.549707 1_555
Mo28 Se1 2.577790 1_555
Mo28 Se21 2.587956 1_555
Mo28 Se9 2.620432 1_555
Mo28 Se2 2.638067 1_555
Mo28 Mo6 2.689200 1_555
Mo28 Mo3 2.823296 1_555
Mo28 Mo4 2.823296 1_555
Mo29 Se14 2.549420 1_555
Mo29 Se8 2.595269 1_655
Mo29 Se28 2.632652 1_565
Mo29 Se0 2.662827 1_655
Mo29 Se11 2.725990 1_655
Se0 Se31 3.475810 1_555
Se0 Se10 3.625800 1_555
Se1 Se6 3.475810 1_655
Se1 Se22 3.625800 1_555
Se2 Se9 3.625800 1_555
Se3 Se4 3.625800 1_555
Se4 Se6 3.475810 1_556
Se10 Se29 3.489438 1_555
Se10 Se19 3.567687 1_565
Se11 Se8 3.489438 1_555
Se11 Se22 3.489438 1_465
Se12 Se14 3.475810 1_555
Se12 Se33 3.625800 1_555
Se13 Se14 3.475810 1_555
Se13 Se32 3.625800 1_555
Se14 Se26 3.475810 1_555
Se15 Se31 3.475810 1_555
Se15 Se8 3.625800 1_555
Se16 Se35 3.489438 1_546
Se16 Se34 3.567686 1_555
Se16 Se21 3.625800 1_555
Se17 Se2 3.475810 1_556
Se17 Se21 3.475810 1_565
Se17 Se5 3.475810 1_655
Se18 Se23 3.489438 1_546
Se18 Se28 3.489438 1_555
Se19 Se28 3.567686 1_455
Se19 Se8 3.567686 1_554
Se20 Se6 3.475810 1_565
Se20 Se23 3.625800 1_555
Se22 Se25 3.567687 1_555
Se23 Se25 3.567686 1_555
Se24 Se33 3.489438 1_555
Se24 Se30 3.489438 1_645
Se25 Se3 3.567686 1_555
Se26 Se36 3.625800 1_555
Se27 Se9 3.489438 1_456
Se27 Se32 3.489438 1_555
Se28 Se7 3.625800 1_555
Se29 Se3 3.489438 1_654
Se30 Se34 3.567687 1_555
Se30 Se5 3.625800 1_555
Se31 Se7 3.475810 1_555
Se32 Se37 3.567687 1_545
Se33 Se37 3.567686 1_554
Se34 Se9 3.567686 1_555
Se35 Se36 3.489438 1_555
Se36 Se37 3.567686 1_455
