# generated using pymatgen
data_AsC3N3F8
_symmetry_space_group_name_H-M   'P 1'
_cell_length_a   8.40776843
_cell_length_b   8.40776843
_cell_length_c   13.88780435
_cell_angle_alpha   70.28644498
_cell_angle_beta   70.28644498
_cell_angle_gamma   75.86275112
_symmetry_Int_Tables_number   1
_chemical_formula_structural   AsC3N3F8
_chemical_formula_sum   'As4 C12 N12 F32'
_cell_volume   860.55235618
_cell_formula_units_Z   4
loop_
 _symmetry_equiv_pos_site_id
 _symmetry_equiv_pos_as_xyz
  1  'x, y, z'
loop_
 _atom_site_type_symbol
 _atom_site_label
 _atom_site_symmetry_multiplicity
 _atom_site_fract_x
 _atom_site_fract_y
 _atom_site_fract_z
 _atom_site_occupancy
  As  As0  1  0.18996200  0.73531700  0.44330100  1
  As  As1  1  0.26468300  0.81003800  0.05669900  1
  As  As2  1  0.73531700  0.18996200  0.94330100  1
  As  As3  1  0.81003800  0.26468300  0.55669900  1
  C  C0  1  0.20576000  0.19835500  0.52834700  1
  C  C1  1  0.14988700  0.27744400  0.36908600  1
  C  C2  1  0.41499800  0.21018700  0.37966700  1
  C  C3  1  0.79424000  0.80164500  0.47165300  1
  C  C4  1  0.58500200  0.78981300  0.62033300  1
  C  C5  1  0.21018700  0.41499800  0.87966700  1
  C  C6  1  0.80164500  0.79424000  0.97165300  1
  C  C7  1  0.72255600  0.85011300  0.13091400  1
  C  C8  1  0.85011300  0.72255600  0.63091400  1
  C  C9  1  0.27744400  0.14988700  0.86908600  1
  C  C10  1  0.78981300  0.58500200  0.12033300  1
  C  C11  1  0.19835500  0.20576000  0.02834700  1
  N  N0  1  0.75321400  0.91640400  0.02402700  1
  N  N1  1  0.68744300  0.74063800  0.68297600  1
  N  N2  1  0.31255700  0.25936200  0.31702400  1
  N  N3  1  0.25936200  0.31255700  0.81702400  1
  N  N4  1  0.91640400  0.75321400  0.52402700  1
  N  N5  1  0.62849700  0.82199000  0.51534400  1
  N  N6  1  0.17801000  0.37150300  0.98465600  1
  N  N7  1  0.24678600  0.08359600  0.97597300  1
  N  N8  1  0.37150300  0.17801000  0.48465600  1
  N  N9  1  0.74063800  0.68744300  0.18297600  1
  N  N10  1  0.82199000  0.62849700  0.01534400  1
  N  N11  1  0.08359600  0.24678600  0.47597300  1
  F  F0  1  0.13675700  0.93281800  0.35539400  1
  F  F1  1  0.46008400  0.78893800  0.95868600  1
  F  F2  1  0.18912000  0.58060100  0.83152400  1
  F  F3  1  0.81088000  0.41939900  0.16847600  1
  F  F4  1  0.15259700  0.16701300  0.63224000  1
  F  F5  1  0.62563800  0.14983500  0.86808600  1
  F  F6  1  0.58060100  0.18912000  0.33152400  1
  F  F7  1  0.14983500  0.62563800  0.36808600  1
  F  F8  1  0.15454800  0.80057700  0.97181900  1
  F  F9  1  0.06718200  0.86324300  0.14460600  1
  F  F10  1  0.83298700  0.84740300  0.86776000  1
  F  F11  1  0.86324300  0.06718200  0.64460600  1
  F  F12  1  0.84740300  0.83298700  0.36776000  1
  F  F13  1  0.37436200  0.85016500  0.13191400  1
  F  F14  1  0.85016500  0.37436200  0.63191400  1
  F  F15  1  0.84545200  0.19942300  0.02818100  1
  F  F16  1  0.93281800  0.13675700  0.85539400  1
  F  F17  1  0.16701300  0.15259700  0.13224000  1
  F  F18  1  0.80057700  0.15454800  0.47181900  1
  F  F19  1  0.19942300  0.84545200  0.52818100  1
  F  F20  1  0.41939900  0.81088000  0.66847600  1
  F  F21  1  0.72192700  0.40758600  0.87887600  1
  F  F22  1  0.21106200  0.53991600  0.54131400  1
  F  F23  1  0.04011500  0.32873300  0.31260900  1
  F  F24  1  0.40758600  0.72192700  0.37887600  1
  F  F25  1  0.67126700  0.95988500  0.18739100  1
  F  F26  1  0.59241400  0.27807300  0.62112400  1
  F  F27  1  0.78893800  0.46008400  0.45868600  1
  F  F28  1  0.32873300  0.04011500  0.81260900  1
  F  F29  1  0.95988500  0.67126700  0.68739100  1
  F  F30  1  0.53991600  0.21106200  0.04131400  1
  F  F31  1  0.27807300  0.59241400  0.12112400  1
loop_
_geom_bond_atom_site_label_1
_geom_bond_atom_site_label_2
_geom_bond_distance
_geom_bond_site_symmetry_2
As0 F24 1.738966 1_555
As0 F0 1.756664 1_555
As0 F19 1.757552 1_555
As0 F7 1.759233 1_555
As0 F22 1.759330 1_555
As0 N4 2.185117 1_455
As1 F31 1.738966 1_555
As1 F9 1.756664 1_555
As1 F8 1.757552 1_554
As1 F13 1.759233 1_555
As1 F1 1.759330 1_554
As1 N7 2.185117 1_564
As2 F21 1.738966 1_555
As2 F16 1.756664 1_555
As2 F15 1.757552 1_556
As2 F5 1.759233 1_555
As2 F30 1.759330 1_556
As2 N0 2.185117 1_546
As3 F26 1.738966 1_555
As3 F11 1.756664 1_555
As3 F18 1.757552 1_555
As3 F14 1.759233 1_555
As3 F27 1.759330 1_555
As3 N11 2.185117 1_655
C0 F4 1.310336 1_555
C0 N8 1.312438 1_555
C0 N11 1.360053 1_555
C1 F23 1.311004 1_555
C1 N2 1.312217 1_555
C1 N11 1.354433 1_555
C2 F6 1.322282 1_555
C2 N8 1.324904 1_555
C2 N2 1.326095 1_555
C3 F12 1.310336 1_555
C3 N5 1.312438 1_555
C3 N4 1.360053 1_555
C4 F20 1.322282 1_555
C4 N5 1.324904 1_555
C4 N1 1.326095 1_555
C5 F2 1.322282 1_555
C5 N6 1.324904 1_555
C5 N3 1.326095 1_555
C6 F10 1.310336 1_555
C6 N10 1.312438 1_556
C6 N0 1.360053 1_556
C7 F25 1.311004 1_555
C7 N9 1.312217 1_555
C7 N0 1.354433 1_555
C8 F29 1.311004 1_555
C8 N1 1.312217 1_555
C8 N4 1.354433 1_555
C9 F28 1.311004 1_555
C9 N3 1.312217 1_555
C9 N7 1.354433 1_555
C10 F3 1.322282 1_555
C10 N10 1.324904 1_555
C10 N9 1.326095 1_555
C11 F17 1.310336 1_555
C11 N6 1.312438 1_554
C11 N7 1.360053 1_554
F0 F19 2.459706 1_555
F1 F13 2.461021 1_556
F8 F9 2.459706 1_556
F11 F18 2.459706 1_555
F14 F27 2.461021 1_555
F15 F16 2.459706 1_554
F22 F7 2.461021 1_555
F30 F5 2.461021 1_554
