# generated using pymatgen
data_Sm3CuSe6
_symmetry_space_group_name_H-M   'P 1'
_cell_length_a   17.07340880
_cell_length_b   7.18175922
_cell_length_c   7.91832415
_cell_angle_alpha   89.43982188
_cell_angle_beta   90.00000000
_cell_angle_gamma   90.00000000
_symmetry_Int_Tables_number   1
_chemical_formula_structural   Sm3CuSe6
_chemical_formula_sum   'Sm12 Cu4 Se24'
_cell_volume   970.87562790
_cell_formula_units_Z   4
loop_
 _symmetry_equiv_pos_site_id
 _symmetry_equiv_pos_as_xyz
  1  'x, y, z'
loop_
 _atom_site_type_symbol
 _atom_site_label
 _atom_site_symmetry_multiplicity
 _atom_site_fract_x
 _atom_site_fract_y
 _atom_site_fract_z
 _atom_site_occupancy
  Sm  Sm0  1  0.75000000  0.76471716  0.44330115  1
  Sm  Sm1  1  0.58702883  0.25602086  0.55866702  1
  Sm  Sm2  1  0.40913087  0.27375120  0.94384781  1
  Sm  Sm3  1  0.09086913  0.27375120  0.94384781  1
  Sm  Sm4  1  0.90913087  0.72624880  0.05615219  1
  Sm  Sm5  1  0.75000000  0.23278804  0.94577089  1
  Sm  Sm6  1  0.41297117  0.74397914  0.44133298  1
  Sm  Sm7  1  0.08702883  0.74397914  0.44133298  1
  Sm  Sm8  1  0.59086913  0.72624880  0.05615219  1
  Sm  Sm9  1  0.25000000  0.23528284  0.55669885  1
  Sm  Sm10  1  0.25000000  0.76721196  0.05422911  1
  Sm  Sm11  1  0.91297117  0.25602086  0.55866702  1
  Cu  Cu0  1  0.47111140  0.89539436  0.79779298  1
  Cu  Cu1  1  0.97111140  0.10460564  0.20220702  1
  Cu  Cu2  1  0.52888860  0.10460564  0.20220702  1
  Cu  Cu3  1  0.02888860  0.89539436  0.79779298  1
  Se  Se0  1  0.58145759  0.10799154  0.90964840  1
  Se  Se1  1  0.08145759  0.89200846  0.09035160  1
  Se  Se2  1  0.25000000  0.88495492  0.39626359  1
  Se  Se3  1  0.17684080  0.43079437  0.25036338  1
  Se  Se4  1  0.41854241  0.89200846  0.09035160  1
  Se  Se5  1  0.82239107  0.42070989  0.25569676  1
  Se  Se6  1  0.99996493  0.57336594  0.74776703  1
  Se  Se7  1  0.67684080  0.56920563  0.74963662  1
  Se  Se8  1  0.82315920  0.56920563  0.74963662  1
  Se  Se9  1  0.75000000  0.87308082  0.09717594  1
  Se  Se10  1  0.41856835  0.11428395  0.60017207  1
  Se  Se11  1  0.49996493  0.42663406  0.25223297  1
  Se  Se12  1  0.91856835  0.88571605  0.39982793  1
  Se  Se13  1  0.17760893  0.57929011  0.74430324  1
  Se  Se14  1  0.75000000  0.11504508  0.60373641  1
  Se  Se15  1  0.50003507  0.57336594  0.74776703  1
  Se  Se16  1  0.67760893  0.42070989  0.25569676  1
  Se  Se17  1  0.58143165  0.88571605  0.39982793  1
  Se  Se18  1  0.32315920  0.43079437  0.25036338  1
  Se  Se19  1  0.32239107  0.57929011  0.74430324  1
  Se  Se20  1  0.00003507  0.42663406  0.25223297  1
  Se  Se21  1  0.08143165  0.11428395  0.60017207  1
  Se  Se22  1  0.25000000  0.12691918  0.90282406  1
  Se  Se23  1  0.91854241  0.10799154  0.90964840  1
loop_
_geom_bond_atom_site_label_1
_geom_bond_atom_site_label_2
_geom_bond_distance
_geom_bond_site_symmetry_2
Cu0 Se10 2.382556 1_565
Cu0 Se15 2.401544 1_555
Cu0 Se4 2.484264 1_556
Cu0 Se0 2.586795 1_565
Cu0 Sm8 3.129365 1_556
Cu0 Sm2 3.146797 1_565
Cu0 Sm6 3.192922 1_555
Cu0 Se19 3.435008 1_555
Cu1 Se12 2.382556 1_545
Cu1 Se20 2.401544 1_655
Cu1 Se23 2.484264 1_554
Cu1 Se1 2.586795 1_645
Cu1 Sm3 3.129365 1_654
Cu1 Sm4 3.146797 1_545
Cu1 Sm11 3.192922 1_555
Cu1 Se5 3.435008 1_555
Cu2 Se17 2.382556 1_545
Cu2 Se11 2.401544 1_555
Cu2 Se0 2.484264 1_554
Cu2 Se4 2.586795 1_545
Cu2 Sm2 3.129365 1_554
Cu2 Sm8 3.146797 1_545
Cu2 Sm1 3.192922 1_555
Cu2 Se16 3.435008 1_555
Cu3 Se21 2.382556 1_565
Cu3 Se6 2.401544 1_455
Cu3 Se1 2.484264 1_556
Cu3 Se23 2.586795 1_465
Cu3 Sm4 3.129365 1_456
Cu3 Sm3 3.146797 1_565
Cu3 Sm7 3.192922 1_555
Cu3 Se13 3.435008 1_555
Se0 Sm1 2.967380 1_555
Se0 Sm8 2.970802 1_546
Se0 Sm5 3.028308 1_555
Se0 Sm2 3.186435 1_555
Se1 Sm7 2.967380 1_555
Se1 Sm3 2.970802 1_564
Se1 Sm10 3.028308 1_555
Se1 Sm4 3.186435 1_455
Se2 Sm9 2.829570 1_565
Se2 Sm10 2.845159 1_555
Se2 Sm6 2.981194 1_555
Se2 Sm7 2.981194 1_555
Se3 Sm9 3.057611 1_555
Se3 Sm3 3.061184 1_554
Se3 Sm10 3.120288 1_555
Se3 Sm7 3.124646 1_555
Se4 Sm6 2.967380 1_555
Se4 Sm2 2.970802 1_564
Se4 Sm10 3.028308 1_555
Se4 Sm8 3.186435 1_555
Se5 Sm5 3.071870 1_554
Se5 Sm4 3.071965 1_555
Se5 Sm11 3.080651 1_555
Se5 Sm0 3.147994 1_555
Se6 Se8 3.018859 1_555
Se6 Sm3 3.063373 1_655
Se6 Sm7 3.088767 1_655
Se6 Sm4 3.102568 1_556
Se6 Sm11 3.115949 1_555
Se7 Se8 2.498154 1_555
Se7 Sm0 3.057611 1_555
Se7 Sm8 3.061184 1_556
Se7 Sm5 3.120288 1_555
Se7 Sm1 3.124646 1_555
Se7 Se9 3.743451 1_556
Se8 Sm0 3.057611 1_555
Se8 Sm4 3.061184 1_556
Se8 Sm5 3.120288 1_555
Se8 Sm11 3.124646 1_555
Se8 Se9 3.743451 1_556
Se9 Sm5 2.837312 1_564
Se9 Sm0 2.841754 1_555
Se9 Sm4 2.933564 1_555
Se9 Sm8 2.933564 1_555
Se10 Sm6 2.954499 1_545
Se10 Sm2 2.967184 1_555
Se10 Sm9 3.025042 1_555
Se10 Sm1 3.067593 1_555
Se11 Se18 3.018859 1_555
Se11 Se16 3.033407 1_555
Se11 Sm8 3.063373 1_555
Se11 Sm1 3.088767 1_555
Se11 Sm2 3.102568 1_554
Se11 Sm6 3.115949 1_555
Se12 Sm11 2.954499 1_565
Se12 Sm4 2.967184 1_555
Se12 Sm0 3.025042 1_555
Se12 Sm7 3.067593 1_655
Se13 Se19 2.471925 1_555
Se13 Se6 3.033407 1_455
Se13 Sm10 3.071870 1_556
Se13 Sm3 3.071965 1_555
Se13 Sm7 3.080651 1_555
Se13 Sm9 3.147994 1_555
Se13 Se2 3.717956 1_555
Se14 Sm0 2.829570 1_545
Se14 Sm5 2.845159 1_555
Se14 Sm1 2.981194 1_555
Se14 Sm11 2.981194 1_555
Se14 Se16 3.717956 1_555
Se14 Se5 3.717956 1_555
Se15 Se7 3.018859 1_555
Se15 Se19 3.033407 1_555
Se15 Sm2 3.063373 1_555
Se15 Sm6 3.088767 1_555
Se15 Sm8 3.102568 1_556
Se15 Sm1 3.115949 1_555
Se16 Se5 2.471925 1_555
Se16 Sm5 3.071870 1_554
Se16 Sm8 3.071965 1_555
Se16 Sm1 3.080651 1_555
Se16 Sm0 3.147994 1_555
Se17 Sm1 2.954499 1_565
Se17 Sm8 2.967184 1_555
Se17 Sm0 3.025042 1_555
Se17 Sm6 3.067593 1_555
Se18 Se3 2.498154 1_555
Se18 Sm9 3.057611 1_555
Se18 Sm2 3.061184 1_554
Se18 Sm10 3.120288 1_555
Se18 Sm6 3.124646 1_555
Se18 Se22 3.743451 1_554
Se19 Sm10 3.071870 1_556
Se19 Sm2 3.071965 1_555
Se19 Sm6 3.080651 1_555
Se19 Sm9 3.147994 1_555
Se19 Se2 3.717956 1_555
Se20 Se3 3.018859 1_555
Se20 Se5 3.033407 1_455
Se20 Sm4 3.063373 1_455
Se20 Sm11 3.088767 1_455
Se20 Sm3 3.102568 1_554
Se20 Sm7 3.115949 1_555
Se21 Sm7 2.954499 1_545
Se21 Sm3 2.967184 1_555
Se21 Sm9 3.025042 1_555
Se21 Sm11 3.067593 1_455
Se22 Sm10 2.837312 1_546
Se22 Sm9 2.841754 1_555
Se22 Sm3 2.933564 1_555
Se22 Sm2 2.933564 1_555
Se22 Se3 3.743451 1_556
Se23 Sm11 2.967380 1_555
Se23 Sm4 2.970802 1_546
Se23 Sm5 3.028308 1_555
Se23 Sm3 3.186435 1_655
