# generated using pymatgen
data_Sr2MnP3O11
_symmetry_space_group_name_H-M   'P 1'
_cell_length_a   6.84213021
_cell_length_b   6.65605596
_cell_length_c   19.09297885
_cell_angle_alpha   80.72379743
_cell_angle_beta   90.00000000
_cell_angle_gamma   90.00000000
_symmetry_Int_Tables_number   1
_chemical_formula_structural   Sr2MnP3O11
_chemical_formula_sum   'Sr8 Mn4 P12 O44'
_cell_volume   858.15384394
_cell_formula_units_Z   4
loop_
 _symmetry_equiv_pos_site_id
 _symmetry_equiv_pos_as_xyz
  1  'x, y, z'
loop_
 _atom_site_type_symbol
 _atom_site_label
 _atom_site_symmetry_multiplicity
 _atom_site_fract_x
 _atom_site_fract_y
 _atom_site_fract_z
 _atom_site_occupancy
  Sr  Sr0  1  0.95747609  0.33826129  0.76862117  1
  Sr  Sr1  1  0.35916756  0.68599461  0.42762341  1
  Sr  Sr2  1  0.64083244  0.31400539  0.57237659  1
  Sr  Sr3  1  0.45747609  0.66173871  0.73137883  1
  Sr  Sr4  1  0.85916756  0.31400539  0.07237659  1
  Sr  Sr5  1  0.04252391  0.66173871  0.23137883  1
  Sr  Sr6  1  0.14083244  0.68599461  0.92762341  1
  Sr  Sr7  1  0.54252391  0.33826129  0.26862117  1
  Mn  Mn0  1  0.36959318  0.04094703  0.12359852  1
  Mn  Mn1  1  0.63040682  0.95905297  0.87640148  1
  Mn  Mn2  1  0.86959318  0.95905297  0.37640148  1
  Mn  Mn3  1  0.13040682  0.04094703  0.62359852  1
  P  P0  1  0.95720168  0.82375878  0.77092705  1
  P  P1  1  0.69017665  0.82120325  0.04312146  1
  P  P2  1  0.04279832  0.17624122  0.22907295  1
  P  P3  1  0.63621520  0.44304148  0.90813593  1
  P  P4  1  0.36378480  0.55695852  0.09186407  1
  P  P5  1  0.30982335  0.17879675  0.95687854  1
  P  P6  1  0.13621520  0.55695852  0.59186407  1
  P  P7  1  0.19017665  0.17879675  0.45687854  1
  P  P8  1  0.80982335  0.82120325  0.54312146  1
  P  P9  1  0.54279832  0.82375878  0.27092705  1
  P  P10  1  0.45720168  0.17624122  0.72907295  1
  P  P11  1  0.86378480  0.44304148  0.40813593  1
  O  O0  1  0.49796113  0.31277910  0.96869115  1
  O  O1  1  0.32199026  0.70390044  0.14322562  1
  O  O2  1  0.17800974  0.70390044  0.64322562  1
  O  O3  1  0.88579602  0.92379475  0.83576454  1
  O  O4  1  0.98017484  0.62965019  0.37550400  1
  O  O5  1  0.19499985  0.30820766  0.25542063  1
  O  O6  1  0.68764218  0.49415884  0.44885775  1
  O  O7  1  0.61972591  -0.00192733  0.08016246  1
  O  O8  1  0.00203887  0.31277910  0.46869115  1
  O  O9  1  0.83900258  0.69155417  0.08551834  1
  O  O10  1  0.67800974  0.29609956  0.85677438  1
  O  O11  1  0.33900258  0.30844583  0.41448166  1
  O  O12  1  -0.00203887  0.68722090  0.53130885  1
  O  O13  1  0.13403273  0.69424217  0.79725884  1
  O  O14  1  0.81235782  0.49415884  0.94885775  1
  O  O15  1  0.98597178  0.98975613  0.28470228  1
  O  O16  1  0.01982516  0.37034981  0.62449600  1
  O  O17  1  0.66099742  0.69155417  0.58551834  1
  O  O18  1  0.75951185  0.91120828  0.96796787  1
  O  O19  1  0.38027409  0.00192733  0.91983754  1
  O  O20  1  0.30500015  0.30820766  0.75542063  1
  O  O21  1  0.61420398  0.92379475  0.33576454  1
  O  O22  1  0.69499985  0.69179234  0.24457937  1
  O  O23  1  0.86596727  0.30575783  0.20274116  1
  O  O24  1  0.31235782  0.50584116  0.55114225  1
  O  O25  1  0.50203887  0.68722090  0.03130885  1
  O  O26  1  0.11420398  0.07620525  0.16423546  1
  O  O27  1  0.25951185  0.08879172  0.53203213  1
  O  O28  1  0.36596727  0.69424217  0.29725884  1
  O  O29  1  0.01402822  0.01024387  0.71529772  1
  O  O30  1  0.18764218  0.50584116  0.05114225  1
  O  O31  1  0.51402822  0.98975613  0.78470228  1
  O  O32  1  0.82199026  0.29609956  0.35677438  1
  O  O33  1  0.51982516  0.62965019  0.87550400  1
  O  O34  1  0.88027409  -0.00192733  0.58016246  1
  O  O35  1  0.11972591  0.00192733  0.41983754  1
  O  O36  1  0.63403273  0.30575783  0.70274116  1
  O  O37  1  0.48017484  0.37034981  0.12449600  1
  O  O38  1  0.38579602  0.07620525  0.66423546  1
  O  O39  1  0.48597178  0.01024387  0.21529772  1
  O  O40  1  0.16099742  0.30844583  0.91448166  1
  O  O41  1  0.74048815  0.91120828  0.46796787  1
  O  O42  1  0.24048815  0.08879172  0.03203213  1
  O  O43  1  0.80500015  0.69179234  0.74457937  1
loop_
_geom_bond_atom_site_label_1
_geom_bond_atom_site_label_2
_geom_bond_distance
_geom_bond_site_symmetry_2
Mn0 O39 1.904156 1_555
Mn0 O42 1.938738 1_555
Mn0 O26 1.941442 1_555
Mn0 O7 1.942819 1_555
Mn0 O1 2.237931 1_545
Mn0 O37 2.322074 1_555
Mn1 O31 1.904156 1_555
Mn1 O18 1.938738 1_555
Mn1 O3 1.941442 1_555
Mn1 O19 1.942819 1_565
Mn1 O10 2.237931 1_565
Mn1 O33 2.322074 1_555
Mn2 O15 1.904156 1_555
Mn2 O41 1.938738 1_555
Mn2 O21 1.941442 1_555
Mn2 O35 1.942819 1_665
Mn2 O32 2.237931 1_565
Mn2 O4 2.322074 1_555
Mn3 O29 1.904156 1_555
Mn3 O27 1.938738 1_555
Mn3 O38 1.941442 1_555
Mn3 O34 1.942819 1_455
Mn3 O2 2.237931 1_545
Mn3 O16 2.322074 1_555
O0 P5 1.602515 1_555
O0 P3 1.630996 1_555
O1 P4 1.519618 1_555
O1 Sr5 2.532909 1_555
O2 P6 1.519618 1_555
O2 Sr3 2.532909 1_555
O3 P0 1.574891 1_555
O3 Sr6 2.780531 1_655
O3 Sr0 2.890384 1_565
O4 P11 1.521721 1_555
O4 Sr5 2.758698 1_655
O4 Sr1 2.824088 1_655
O5 P2 1.500514 1_555
O5 Sr7 2.402863 1_555
O5 Sr5 2.547167 1_555
O6 P11 1.502677 1_555
O6 Sr2 2.488080 1_555
O6 Sr1 2.584372 1_555
O7 P1 1.544946 1_545
O7 Sr4 2.650917 1_555
O8 P7 1.602515 1_555
O8 P11 1.630996 1_455
O9 P1 1.487163 1_555
O9 Sr4 2.569119 1_555
O9 Sr5 3.091286 1_655
O10 P3 1.519618 1_555
O10 Sr0 2.532909 1_555
O11 P7 1.487163 1_555
O11 Sr1 2.569119 1_555
O11 Sr7 3.091286 1_555
O12 P8 1.602515 1_455
O12 P6 1.630996 1_555
O13 P0 1.523174 1_455
O13 Sr6 2.481227 1_555
O13 Sr3 2.571821 1_555
O13 Sr0 2.791084 1_455
O14 P3 1.502677 1_555
O14 Sr4 2.488080 1_556
O14 Sr6 2.584372 1_655
O15 P2 1.547573 1_665
O15 Sr5 2.582572 1_655
O16 P6 1.521721 1_555
O16 Sr0 2.758698 1_455
O16 Sr2 2.824088 1_455
O17 P8 1.487163 1_555
O17 Sr2 2.569119 1_555
O17 Sr3 3.091286 1_555
O18 P1 1.538107 1_556
O18 Sr6 3.165413 1_655
O19 P5 1.544946 1_555
O19 Sr6 2.650917 1_545
O20 P10 1.500514 1_555
O20 Sr0 2.402863 1_455
O20 Sr3 2.547167 1_555
O21 P9 1.574891 1_555
O21 Sr1 2.780531 1_555
O21 Sr7 2.890384 1_565
O22 P9 1.500514 1_555
O22 Sr5 2.402863 1_655
O22 Sr7 2.547167 1_555
O23 P2 1.523174 1_655
O23 Sr4 2.481227 1_555
O23 Sr7 2.571821 1_555
O23 Sr5 2.791084 1_655
O24 P6 1.502677 1_555
O24 Sr1 2.488080 1_555
O24 Sr2 2.584372 1_555
O25 P1 1.602515 1_555
O25 P4 1.630996 1_555
O26 P2 1.574891 1_555
O26 Sr4 2.780531 1_455
O26 Sr5 2.890384 1_545
O27 P7 1.538107 1_555
O27 Sr2 3.165413 1_555
O28 P9 1.523174 1_555
O28 Sr1 2.481227 1_555
O28 Sr5 2.571821 1_555
O28 Sr7 2.791084 1_555
O29 P0 1.547573 1_445
O29 Sr0 2.582572 1_455
O30 P4 1.502677 1_555
O30 Sr6 2.488080 1_554
O30 Sr4 2.584372 1_455
O31 P10 1.547573 1_565
O31 Sr3 2.582572 1_555
O32 P11 1.519618 1_555
O32 Sr7 2.532909 1_555
O33 P3 1.521721 1_555
O33 Sr3 2.758698 1_555
O33 Sr6 2.824088 1_555
O34 P8 1.544946 1_545
O34 Sr2 2.650917 1_555
O35 P7 1.544946 1_555
O35 Sr1 2.650917 1_545
O36 P10 1.523174 1_555
O36 Sr2 2.481227 1_555
O36 Sr0 2.571821 1_555
O36 Sr3 2.791084 1_555
O37 P4 1.521721 1_555
O37 Sr7 2.758698 1_555
O37 Sr4 2.824088 1_555
O38 P10 1.574891 1_555
O38 Sr2 2.780531 1_555
O38 Sr3 2.890384 1_545
O39 P9 1.547573 1_545
O39 Sr7 2.582572 1_555
O40 P5 1.487163 1_555
O40 Sr6 2.569119 1_555
O40 Sr0 3.091286 1_455
O41 P8 1.538107 1_555
O41 Sr1 3.165413 1_555
O42 P5 1.538107 1_554
O42 Sr4 3.165413 1_455
O43 P0 1.500514 1_555
O43 Sr3 2.402863 1_555
O43 Sr0 2.547167 1_555
