# generated using pymatgen
data_Li(Sn3Pd)2
_symmetry_space_group_name_H-M   'P 1'
_cell_length_a   6.68511544
_cell_length_b   6.68511544
_cell_length_c   8.71084240
_cell_angle_alpha   90.00000000
_cell_angle_beta   90.00000000
_cell_angle_gamma   90.00000000
_symmetry_Int_Tables_number   1
_chemical_formula_structural   Li(Sn3Pd)2
_chemical_formula_sum   'Li2 Sn12 Pd4'
_cell_volume   389.29424067
_cell_formula_units_Z   2
loop_
 _symmetry_equiv_pos_site_id
 _symmetry_equiv_pos_as_xyz
  1  'x, y, z'
loop_
 _atom_site_type_symbol
 _atom_site_label
 _atom_site_symmetry_multiplicity
 _atom_site_fract_x
 _atom_site_fract_y
 _atom_site_fract_z
 _atom_site_occupancy
  Li  Li0  1  -0.00000000  0.00000000  0.50000000  1
  Li  Li1  1  0.50000000  0.50000000  0.50000000  1
  Sn  Sn0  1  0.83707183  0.33707183  -0.00000000  1
  Sn  Sn1  1  0.65859960  0.15859960  0.32042454  1
  Sn  Sn2  1  0.34140040  0.84140040  0.32042454  1
  Sn  Sn3  1  0.15859960  0.34140040  0.67957546  1
  Sn  Sn4  1  0.15859960  0.34140040  0.32042454  1
  Sn  Sn5  1  0.34140040  0.84140040  0.67957546  1
  Sn  Sn6  1  0.66292817  0.83707183  0.00000000  1
  Sn  Sn7  1  0.16292817  0.66292817  0.00000000  1
  Sn  Sn8  1  0.33707183  0.16292817  -0.00000000  1
  Sn  Sn9  1  0.65859960  0.15859960  0.67957546  1
  Sn  Sn10  1  0.84140040  0.65859960  0.32042454  1
  Sn  Sn11  1  0.84140040  0.65859960  0.67957546  1
  Pd  Pd0  1  0.50000000  0.50000000  0.17941331  1
  Pd  Pd1  1  0.50000000  0.50000000  0.82058669  1
  Pd  Pd2  1  -0.00000000  0.00000000  0.17941331  1
  Pd  Pd3  1  -0.00000000  0.00000000  0.82058669  1
loop_
_geom_bond_atom_site_label_1
_geom_bond_atom_site_label_2
_geom_bond_distance
_geom_bond_site_symmetry_2
Li0 Pd2 2.792580 1_555
Li0 Pd3 2.792580 1_555
Li0 Sn3 2.963095 1_555
Li0 Sn4 2.963095 1_555
Li0 Sn9 2.963095 1_455
Li0 Sn1 2.963095 1_455
Li0 Sn2 2.963095 1_545
Li0 Sn5 2.963095 1_545
Li0 Sn10 2.963095 1_445
Li0 Sn11 2.963095 1_445
Li1 Pd0 2.792580 1_555
Li1 Pd1 2.792580 1_555
Li1 Sn10 2.963095 1_555
Li1 Sn5 2.963095 1_555
Li1 Sn2 2.963095 1_555
Li1 Sn11 2.963095 1_555
Li1 Sn9 2.963095 1_555
Li1 Sn1 2.963095 1_555
Li1 Sn3 2.963095 1_555
Li1 Sn4 2.963095 1_555
Sn0 Sn7 3.080705 1_655
Sn0 Sn9 3.261538 1_554
Sn0 Sn1 3.261538 1_555
Sn0 Sn3 3.523009 1_654
Sn0 Sn4 3.523009 1_655
Sn0 Sn10 3.523009 1_555
Sn0 Sn11 3.523009 1_554
Sn0 Sn8 3.539489 1_655
Sn0 Sn6 3.539489 1_545
Sn0 Sn8 3.539489 1_555
Sn0 Sn6 3.539489 1_555
Sn1 Sn2 2.998859 1_545
Sn1 Sn9 3.128507 1_555
Sn1 Sn6 3.523009 1_545
Sn1 Sn8 3.523009 1_555
Sn2 Sn5 3.128507 1_555
Sn2 Sn7 3.261538 1_555
Sn2 Sn6 3.523009 1_555
Sn2 Sn8 3.523009 1_565
Sn3 Sn4 3.128507 1_555
Sn3 Sn8 3.261538 1_556
Sn3 Sn7 3.523009 1_556
Sn4 Sn8 3.261538 1_555
Sn4 Sn7 3.523009 1_555
Sn5 Sn9 2.998859 1_565
Sn5 Sn7 3.261538 1_556
Sn5 Sn6 3.523009 1_556
Sn5 Sn8 3.523009 1_566
Sn6 Sn8 3.080705 1_565
Sn6 Sn9 3.523009 1_564
Sn6 Sn7 3.539489 1_655
Sn6 Sn7 3.539489 1_555
Sn7 Sn8 3.539489 1_565
Sn7 Sn8 3.539489 1_555
Sn8 Sn9 3.523009 1_554
Sn10 Sn4 2.998859 1_655
Sn10 Sn11 3.128507 1_555
Sn10 Sn6 3.261538 1_555
Sn10 Sn7 3.523009 1_655
Sn11 Sn3 2.998859 1_655
Sn11 Sn6 3.261538 1_556
Sn11 Sn7 3.523009 1_656
Pd0 Sn10 2.800327 1_555
Pd0 Sn2 2.800327 1_555
Pd0 Sn4 2.800327 1_555
Pd0 Sn1 2.800327 1_555
Pd0 Sn7 2.950672 1_555
Pd0 Sn8 2.950672 1_555
Pd0 Sn0 2.950672 1_555
Pd0 Sn6 2.950672 1_555
Pd0 Pd1 3.125682 1_554
Pd1 Sn11 2.800327 1_555
Pd1 Sn5 2.800327 1_555
Pd1 Sn9 2.800327 1_555
Pd1 Sn3 2.800327 1_555
Pd1 Sn7 2.950672 1_556
Pd1 Sn8 2.950672 1_556
Pd1 Sn6 2.950672 1_556
Pd1 Sn0 2.950672 1_556
Pd2 Sn4 2.800327 1_555
Pd2 Sn1 2.800327 1_455
Pd2 Sn10 2.800327 1_445
Pd2 Sn2 2.800327 1_545
Pd2 Sn0 2.950672 1_455
Pd2 Sn6 2.950672 1_445
Pd2 Sn8 2.950672 1_555
Pd2 Sn7 2.950672 1_545
Pd2 Pd3 3.125682 1_554
Pd3 Sn3 2.800327 1_555
Pd3 Sn9 2.800327 1_455
Pd3 Sn5 2.800327 1_545
Pd3 Sn11 2.800327 1_445
Pd3 Sn6 2.950672 1_446
Pd3 Sn8 2.950672 1_556
Pd3 Sn7 2.950672 1_546
Pd3 Sn0 2.950672 1_456
