# generated using pymatgen
data_La23Cd4Pt7
_symmetry_space_group_name_H-M   'P 1'
_cell_length_a   10.26355803
_cell_length_b   10.26355803
_cell_length_c   23.34586000
_cell_angle_alpha   90.00000000
_cell_angle_beta   90.00000000
_cell_angle_gamma   120.00000022
_symmetry_Int_Tables_number   1
_chemical_formula_structural   La23Cd4Pt7
_chemical_formula_sum   'La46 Cd8 Pt14'
_cell_volume   2129.78808067
_cell_formula_units_Z   2
loop_
 _symmetry_equiv_pos_site_id
 _symmetry_equiv_pos_as_xyz
  1  'x, y, z'
loop_
 _atom_site_type_symbol
 _atom_site_label
 _atom_site_symmetry_multiplicity
 _atom_site_fract_x
 _atom_site_fract_y
 _atom_site_fract_z
 _atom_site_occupancy
  La  La0  1  0.40999300  0.20499700  0.94558500  1
  La  La1  1  0.33333300  0.66666700  0.14480400  1
  La  La2  1  0.57839100  0.78919500  0.99146600  1
  La  La3  1  0.12810000  0.87190000  0.13540800  1
  La  La4  1  0.20563400  0.79436600  0.72066400  1
  La  La5  1  0.91512900  0.45756500  0.35593700  1
  La  La6  1  0.92061500  0.46030700  0.08499500  1
  La  La7  1  0.07938500  0.53969300  0.58499500  1
  La  La8  1  0.78919500  0.21080500  0.49146600  1
  La  La9  1  0.12810000  0.25620000  0.13540800  1
  La  La10  1  0.20012600  0.40025200  0.28367300  1
  La  La11  1  0.59000700  0.79500300  0.44558500  1
  La  La12  1  0.87190000  0.12810000  0.63540800  1
  La  La13  1  0.58873200  0.79436600  0.72066400  1
  La  La14  1  0.79500300  0.20499700  0.94558500  1
  La  La15  1  0.21080500  0.78919500  0.99146600  1
  La  La16  1  0.40025200  0.20012600  0.78367300  1
  La  La17  1  0.20499700  0.40999300  0.44558500  1
  La  La18  1  0.53969300  0.07938500  0.08499500  1
  La  La19  1  0.79500300  0.59000700  0.94558500  1
  La  La20  1  0.42160900  0.21080500  0.49146600  1
  La  La21  1  0.08487100  0.54243500  0.85593700  1
  La  La22  1  0.46030700  0.53969300  0.58499500  1
  La  La23  1  0.79987400  0.59974800  0.78367300  1
  La  La24  1  0.20563400  0.41126800  0.72066400  1
  La  La25  1  0.00000000  0.00000000  0.49365900  1
  La  La26  1  0.59974800  0.79987400  0.28367300  1
  La  La27  1  0.20012600  0.79987400  0.28367300  1
  La  La28  1  0.79987400  0.20012600  0.78367300  1
  La  La29  1  0.66666700  0.33333300  0.64480400  1
  La  La30  1  0.54243500  0.08487100  0.35593700  1
  La  La31  1  0.25620000  0.12810000  0.63540800  1
  La  La32  1  0.00000000  0.00000000  0.99365900  1
  La  La33  1  0.20499700  0.79500300  0.44558500  1
  La  La34  1  0.45756500  0.54243500  0.85593700  1
  La  La35  1  0.79436600  0.58873200  0.22066400  1
  La  La36  1  0.45756500  0.91512900  0.85593700  1
  La  La37  1  0.79436600  0.20563400  0.22066400  1
  La  La38  1  0.21080500  0.42160900  0.99146600  1
  La  La39  1  0.78919500  0.57839100  0.49146600  1
  La  La40  1  0.46030700  0.92061500  0.58499500  1
  La  La41  1  0.54243500  0.45756500  0.35593700  1
  La  La42  1  0.53969300  0.46030700  0.08499500  1
  La  La43  1  0.87190000  0.74380000  0.63540800  1
  La  La44  1  0.74380000  0.87190000  0.13540800  1
  La  La45  1  0.41126800  0.20563400  0.22066400  1
  Cd  Cd0  1  0.21370400  0.10685200  0.36298400  1
  Cd  Cd1  1  0.00000000  0.00000000  0.24921200  1
  Cd  Cd2  1  0.10685200  0.21370400  0.86298400  1
  Cd  Cd3  1  0.89314800  0.78629600  0.36298400  1
  Cd  Cd4  1  0.89314800  0.10685200  0.36298400  1
  Cd  Cd5  1  0.00000000  0.00000000  0.74921200  1
  Cd  Cd6  1  0.10685200  0.89314800  0.86298400  1
  Cd  Cd7  1  0.78629600  0.89314800  0.86298400  1
  Pt  Pt0  1  0.66666700  0.33333300  0.86189300  1
  Pt  Pt1  1  0.33333300  0.66666700  0.36189300  1
  Pt  Pt2  1  0.95685200  0.47842600  0.71201100  1
  Pt  Pt3  1  0.47842600  0.52157400  0.21201100  1
  Pt  Pt4  1  0.52157400  0.47842600  0.71201100  1
  Pt  Pt5  1  0.52157400  0.04314800  0.71201100  1
  Pt  Pt6  1  0.14203200  0.85796800  0.56301200  1
  Pt  Pt7  1  0.85796800  0.71593600  0.06301200  1
  Pt  Pt8  1  0.04314800  0.52157400  0.21201100  1
  Pt  Pt9  1  0.14203200  0.28406400  0.56301200  1
  Pt  Pt10  1  0.28406400  0.14203200  0.06301200  1
  Pt  Pt11  1  0.85796800  0.14203200  0.06301200  1
  Pt  Pt12  1  0.71593600  0.85796800  0.56301200  1
  Pt  Pt13  1  0.47842600  0.95685200  0.21201100  1
loop_
_geom_bond_atom_site_label_1
_geom_bond_atom_site_label_2
_geom_bond_distance
_geom_bond_site_symmetry_2
La0 Pt10 2.961138 1_556
La0 Pt0 3.003761 1_555
La0 La16 3.780966 1_555
La0 La32 3.813134 1_555
La0 La38 3.848967 1_555
La0 La15 3.848984 1_545
La0 La34 3.862929 1_555
La0 La36 3.862946 1_545
La0 La19 3.951572 1_555
La0 La14 3.951572 1_555
La0 La42 3.967744 1_556
La0 La18 3.967754 1_556
La1 Pt13 3.019042 1_555
La1 Pt8 3.019042 1_555
La1 Pt3 3.019050 1_555
La1 La3 3.655016 1_555
La1 La9 3.655025 1_555
La1 La44 3.655025 1_555
La1 La18 3.925190 1_565
La1 La6 3.925190 1_455
La1 La42 3.925207 1_555
La1 La15 4.190405 1_554
La1 La2 4.190414 1_554
La1 La38 4.190414 1_554
La2 La44 3.668000 1_556
La2 Pt7 3.707637 1_556
La2 Pt11 3.707643 1_566
La2 La32 3.747822 1_665
La2 La38 3.772740 1_555
La2 La34 3.850003 1_555
La2 La36 3.850003 1_555
La2 La42 3.870297 1_556
La3 Pt10 2.944101 1_565
La3 Pt7 2.944101 1_455
La3 Pt13 3.708330 1_555
La3 Pt8 3.708330 1_555
La3 La45 3.766420 1_565
La3 La35 3.766420 1_455
La3 La6 3.843136 1_455
La4 Pt2 2.965756 1_455
La4 Pt5 2.965756 1_565
La4 La43 3.766420 1_455
La4 Pt6 3.850275 1_555
La4 La40 3.893088 1_555
La4 La7 3.893088 1_555
La5 Pt8 3.547523 1_655
La5 Pt1 3.719807 1_655
La5 La8 3.850003 1_555
La6 Pt11 3.040941 1_555
La6 Pt7 3.040951 1_555
La6 Pt8 3.158988 1_655
La6 La9 3.843128 1_655
La7 Pt6 3.040941 1_555
La7 Pt9 3.040951 1_555
La7 Pt2 3.158988 1_455
La7 La8 3.870297 1_455
La8 Pt9 3.707646 1_655
La8 Pt12 3.707646 1_545
La9 Pt11 2.944101 1_455
La9 Pt10 2.944101 1_555
La9 Pt3 3.708330 1_555
La9 Pt8 3.708330 1_555
La10 Pt1 2.990361 1_555
La10 Pt3 2.991904 1_555
La10 Pt8 2.991904 1_555
La10 La41 3.669999 1_555
La10 La5 3.670008 1_455
La10 La9 3.690603 1_555
La10 La17 3.780966 1_555
La11 Pt12 2.961138 1_555
La11 Pt1 3.003761 1_555
La11 La26 3.780966 1_555
La11 La25 3.813134 1_665
La11 La39 3.848967 1_555
La11 La8 3.848984 1_565
La11 La41 3.862929 1_555
La11 La30 3.862946 1_565
La11 La17 3.951572 1_555
La11 La33 3.951572 1_555
La11 La22 3.967744 1_555
La11 La40 3.967754 1_555
La12 Pt9 2.944101 1_655
La12 Pt12 2.944101 1_545
La12 La29 3.655016 1_555
La12 La8 3.668003 1_555
La12 La28 3.690603 1_555
La12 Pt2 3.708330 1_555
La12 Pt5 3.708330 1_555
La12 La24 3.766420 1_655
La12 La13 3.766420 1_545
La12 La7 3.843136 1_655
La12 La40 3.843136 1_545
La13 Pt4 2.965756 1_555
La13 Pt5 2.965756 1_565
La13 La43 3.766420 1_555
La13 Pt12 3.850275 1_555
La13 La36 3.871769 1_555
La13 La34 3.871774 1_555
La13 La22 3.893088 1_555
La13 La40 3.893094 1_555
La13 La24 3.931949 1_555
La13 La4 3.931949 1_555
La14 Pt11 2.961142 1_556
La14 Pt0 3.003747 1_555
La14 La28 3.780967 1_555
La14 La32 3.813142 1_655
La14 La2 3.848984 1_545
La14 La38 3.848984 1_655
La14 La36 3.862936 1_545
La14 La21 3.862936 1_655
La14 La19 3.951572 1_555
La14 La18 3.967744 1_556
La14 La6 3.967744 1_556
La15 La3 3.668003 1_556
La15 Pt10 3.707646 1_566
La15 Pt7 3.707646 1_456
La15 La32 3.747831 1_565
La15 La2 3.772740 1_555
La15 La38 3.772740 1_555
La15 La19 3.848984 1_455
La15 La36 3.850003 1_555
La15 La21 3.850003 1_555
La15 La18 3.870297 1_566
La15 La6 3.870297 1_456
La16 Pt0 2.990361 1_555
La16 Pt4 2.991904 1_555
La16 Pt5 2.991904 1_555
La16 La34 3.669999 1_555
La16 La36 3.670008 1_545
La16 La31 3.690603 1_555
La17 Pt9 2.961138 1_555
La17 Pt1 3.003761 1_555
La17 La25 3.813134 1_555
La17 La20 3.848967 1_555
La17 La8 3.848984 1_455
La17 La41 3.862929 1_555
La17 La5 3.862946 1_455
La17 La33 3.951572 1_555
La17 La22 3.967744 1_555
La17 La7 3.967754 1_555
La18 Pt11 3.040941 1_555
La18 Pt10 3.040951 1_555
La18 Pt13 3.158988 1_545
La18 La44 3.843128 1_545
La18 La3 3.843136 1_545
La18 La2 3.870297 1_544
La18 La37 3.893088 1_555
La18 La45 3.893094 1_555
La18 La6 3.909615 1_555
La18 La42 3.909615 1_555
La19 Pt7 2.961138 1_556
La19 Pt0 3.003761 1_555
La19 La23 3.780966 1_555
La19 La32 3.813134 1_665
La19 La2 3.848967 1_555
La19 La34 3.862929 1_555
La19 La21 3.862946 1_655
La19 La42 3.967744 1_556
La19 La6 3.967754 1_556
La20 La31 3.668000 1_555
La20 Pt9 3.707637 1_555
La20 Pt6 3.707643 1_545
La20 La25 3.747822 1_555
La20 La39 3.772740 1_555
La20 La8 3.772740 1_555
La20 La33 3.848984 1_545
La20 La41 3.850003 1_555
La20 La30 3.850003 1_555
La20 La22 3.870297 1_555
La20 La40 3.870297 1_545
La20 La29 4.190414 1_555
La21 Pt2 3.547523 1_455
La21 La28 3.670002 1_455
La21 La23 3.670008 1_455
La21 Pt0 3.719807 1_455
La21 La36 3.825166 1_555
La21 La34 3.825166 1_555
La21 La38 3.850003 1_555
La21 La24 3.871769 1_555
La21 La4 3.871775 1_555
La22 Pt9 3.040945 1_555
La22 Pt12 3.040945 1_555
La22 Pt4 3.158991 1_555
La22 La31 3.843136 1_555
La22 La43 3.843136 1_555
La22 La39 3.870297 1_555
La22 La24 3.893088 1_555
La22 La7 3.909615 1_555
La22 La40 3.909615 1_555
La22 La29 3.925207 1_555
La23 Pt0 2.990361 1_555
La23 Pt4 2.991904 1_555
La23 Pt2 2.991904 1_555
La23 La34 3.669999 1_555
La23 La43 3.690603 1_555
La24 Pt4 2.965756 1_555
La24 Pt2 2.965756 1_455
La24 La31 3.766420 1_555
La24 Pt9 3.850275 1_555
La24 La34 3.871774 1_555
La24 La7 3.893094 1_555
La24 La4 3.931949 1_555
La25 Pt12 2.999440 1_445
La25 Pt9 2.999440 1_555
La25 Pt6 2.999440 1_545
La25 La39 3.747822 1_445
La25 La8 3.747831 1_455
La25 La33 3.813142 1_545
La26 Pt1 2.990361 1_555
La26 Pt3 2.991904 1_555
La26 Pt13 2.991904 1_555
La26 La41 3.669999 1_555
La26 La30 3.670008 1_565
La26 La44 3.690603 1_555
La27 Pt1 2.990354 1_555
La27 Pt13 2.991904 1_555
La27 Pt8 2.991904 1_555
La27 La30 3.670002 1_565
La27 La5 3.670002 1_455
La27 La3 3.690603 1_555
La27 La33 3.780967 1_555
La28 Pt0 2.990354 1_555
La28 Pt2 2.991904 1_555
La28 Pt5 2.991904 1_555
La28 La36 3.670002 1_545
La29 Pt2 3.019042 1_555
La29 Pt5 3.019042 1_555
La29 Pt4 3.019050 1_555
La29 La31 3.655025 1_555
La29 La43 3.655025 1_555
La29 La7 3.925190 1_655
La29 La40 3.925190 1_545
La29 La8 4.190405 1_555
La29 La39 4.190414 1_555
La30 Pt13 3.547523 1_545
La30 Pt1 3.719807 1_545
La30 La5 3.825166 1_555
La30 La41 3.825166 1_555
La30 La8 3.850003 1_555
La30 La33 3.862936 1_545
La30 La45 3.871769 1_555
La30 La37 3.871775 1_555
La31 Pt6 2.944101 1_545
La31 Pt9 2.944101 1_555
La31 Pt4 3.708330 1_555
La31 Pt5 3.708330 1_555
La31 La4 3.766420 1_545
La31 La40 3.843128 1_545
La32 Pt7 2.999440 1_446
La32 Pt10 2.999440 1_556
La32 Pt11 2.999440 1_456
La32 La38 3.747822 1_555
La33 Pt6 2.961142 1_555
La33 Pt1 3.003747 1_555
La33 La39 3.848984 1_455
La33 La5 3.862936 1_455
La33 La40 3.967744 1_555
La33 La7 3.967744 1_555
La34 Pt4 3.547521 1_555
La34 Pt0 3.719807 1_555
La34 La36 3.825166 1_555
La34 La38 3.850003 1_555
La35 Pt3 2.965756 1_555
La35 Pt8 2.965756 1_655
La35 La44 3.766420 1_555
La35 Pt7 3.850275 1_555
La35 La5 3.871769 1_555
La35 La41 3.871774 1_555
La35 La42 3.893088 1_555
La35 La6 3.893094 1_555
La35 La45 3.931949 1_555
La35 La37 3.931949 1_555
La36 Pt5 3.547523 1_565
La36 Pt0 3.719807 1_565
La36 La4 3.871775 1_555
La37 Pt8 2.965756 1_655
La37 Pt13 2.965756 1_545
La37 La44 3.766420 1_545
La37 La9 3.766420 1_655
La37 Pt11 3.850275 1_555
La37 La5 3.871775 1_555
La37 La6 3.893088 1_555
La37 La45 3.931949 1_555
La38 La9 3.668000 1_556
La38 Pt10 3.707637 1_556
La38 Pt11 3.707643 1_456
La38 La42 3.870297 1_556
La38 La6 3.870297 1_456
La39 La43 3.668000 1_555
La39 Pt12 3.707637 1_555
La39 Pt6 3.707643 1_655
La39 La8 3.772740 1_555
La39 La41 3.850003 1_555
La39 La5 3.850003 1_555
La39 La7 3.870297 1_655
La40 Pt6 3.040941 1_555
La40 Pt12 3.040951 1_555
La40 Pt5 3.158988 1_565
La40 La8 3.870297 1_565
La40 La7 3.909615 1_555
La41 Pt3 3.547521 1_555
La41 Pt1 3.719807 1_555
La41 La5 3.825166 1_555
La41 La45 3.871774 1_555
La42 Pt10 3.040945 1_555
La42 Pt7 3.040945 1_555
La42 Pt3 3.158991 1_555
La42 La9 3.843136 1_555
La42 La44 3.843136 1_555
La42 La45 3.893088 1_555
La42 La6 3.909615 1_555
La43 Pt6 2.944101 1_655
La43 Pt12 2.944101 1_555
La43 Pt4 3.708330 1_555
La43 Pt2 3.708330 1_555
La43 La7 3.843128 1_655
La44 Pt11 2.944101 1_565
La44 Pt7 2.944101 1_555
La44 Pt3 3.708330 1_555
La44 Pt13 3.708330 1_555
La45 Pt3 2.965756 1_555
La45 Pt13 2.965756 1_545
La45 La9 3.766420 1_555
La45 Pt10 3.850275 1_555
Cd0 Cd1 3.265429 1_555
Cd0 Cd3 3.290045 1_445
Cd0 Cd4 3.290045 1_455
Cd0 La30 3.496094 1_555
Cd0 La41 3.496100 1_555
Cd0 La20 3.523082 1_555
Cd0 La25 3.593748 1_555
Cd0 La27 3.596600 1_545
Cd0 La10 3.596600 1_555
Cd0 La17 3.699316 1_555
Cd0 La33 3.699325 1_545
Cd0 La45 3.758093 1_555
Cd1 Cd3 3.265429 1_445
Cd1 Cd4 3.265429 1_455
Cd1 La9 3.499237 1_555
Cd1 La44 3.499237 1_445
Cd1 La3 3.499237 1_545
Cd1 La26 3.647473 1_445
Cd1 La10 3.647473 1_555
Cd1 La27 3.647473 1_545
Cd1 La45 3.715816 1_555
Cd1 La35 3.715816 1_445
Cd1 La37 3.715816 1_455
Cd2 Cd5 3.265429 1_555
Cd2 Cd7 3.290045 1_445
Cd2 Cd6 3.290045 1_545
Cd2 La21 3.496094 1_555
Cd2 La34 3.496100 1_555
Cd2 La38 3.523082 1_555
Cd2 La32 3.593748 1_555
Cd2 La28 3.596600 1_455
Cd2 La16 3.596600 1_555
Cd2 La0 3.699316 1_555
Cd2 La14 3.699325 1_455
Cd2 La24 3.758093 1_555
Cd3 Cd4 3.290045 1_565
Cd3 La5 3.496094 1_555
Cd3 La41 3.496100 1_555
Cd3 La39 3.523082 1_555
Cd3 La25 3.593748 1_665
Cd3 La27 3.596600 1_655
Cd3 La26 3.596600 1_555
Cd3 La11 3.699316 1_555
Cd3 La33 3.699325 1_655
Cd3 La35 3.758093 1_555
Cd4 La30 3.496104 1_555
Cd4 La5 3.496104 1_555
Cd4 La8 3.523087 1_555
Cd4 La25 3.593748 1_655
Cd4 La26 3.596600 1_545
Cd4 La10 3.596600 1_655
Cd4 La11 3.699321 1_545
Cd4 La17 3.699321 1_655
Cd4 La37 3.758093 1_555
Cd5 Cd7 3.265429 1_445
Cd5 Cd6 3.265429 1_545
Cd5 La43 3.499237 1_445
Cd5 La31 3.499237 1_555
Cd5 La12 3.499237 1_455
Cd5 La16 3.647473 1_555
Cd5 La23 3.647473 1_445
Cd5 La28 3.647473 1_455
Cd5 La24 3.715816 1_555
Cd5 La13 3.715816 1_445
Cd5 La4 3.715816 1_545
Cd6 Cd7 3.290045 1_455
Cd6 La21 3.496104 1_555
Cd6 La36 3.496104 1_555
Cd6 La15 3.523087 1_555
Cd6 La32 3.593748 1_565
Cd6 La23 3.596600 1_455
Cd6 La16 3.596600 1_565
Cd6 La19 3.699321 1_455
Cd6 La0 3.699321 1_565
Cd6 La4 3.758093 1_555
Cd7 La36 3.496094 1_555
Cd7 La34 3.496100 1_555
Cd7 La2 3.523082 1_555
Cd7 La32 3.593748 1_665
Cd7 La28 3.596600 1_565
Cd7 La23 3.596600 1_555
Cd7 La19 3.699316 1_555
Cd7 La14 3.699325 1_565
Cd7 La13 3.758093 1_555
