# generated using pymatgen
data_KZnB(PO4)2
_symmetry_space_group_name_H-M   'P 1'
_cell_length_a   9.11501124
_cell_length_b   9.11501124
_cell_length_c   8.52347199
_cell_angle_alpha   89.07037104
_cell_angle_beta   89.07037104
_cell_angle_gamma   90.50768462
_symmetry_Int_Tables_number   1
_chemical_formula_structural   KZnB(PO4)2
_chemical_formula_sum   'K4 Zn4 B4 P8 O32'
_cell_volume   707.94339445
_cell_formula_units_Z   4
loop_
 _symmetry_equiv_pos_site_id
 _symmetry_equiv_pos_as_xyz
  1  'x, y, z'
loop_
 _atom_site_type_symbol
 _atom_site_label
 _atom_site_symmetry_multiplicity
 _atom_site_fract_x
 _atom_site_fract_y
 _atom_site_fract_z
 _atom_site_occupancy
  K  K0  1  0.03050800  0.96949200  0.75000000  1
  K  K1  1  0.96949200  0.03050800  0.25000000  1
  K  K2  1  0.59770400  0.40229600  0.25000000  1
  K  K3  1  0.40229600  0.59770400  0.75000000  1
  Zn  Zn0  1  0.31364500  0.93391500  0.43878200  1
  Zn  Zn1  1  0.06608500  0.68635500  0.06121800  1
  Zn  Zn2  1  0.93391500  0.31364500  0.93878200  1
  Zn  Zn3  1  0.68635500  0.06608500  0.56121800  1
  B  B0  1  0.79545000  0.57604900  0.57370500  1
  B  B1  1  0.42395100  0.20455000  0.92629500  1
  B  B2  1  0.20455000  0.42395100  0.42629500  1
  B  B3  1  0.57604900  0.79545000  0.07370500  1
  P  P0  1  0.68936700  0.05278600  0.94064400  1
  P  P1  1  0.61133000  0.77418500  0.40747900  1
  P  P2  1  0.77418500  0.61133000  0.90747900  1
  P  P3  1  0.22581500  0.38867000  0.09252100  1
  P  P4  1  0.05278600  0.68936700  0.44064400  1
  P  P5  1  0.38867000  0.22581500  0.59252100  1
  P  P6  1  0.31063300  0.94721400  0.05935600  1
  P  P7  1  0.94721400  0.31063300  0.55935600  1
  O  O0  1  0.42813700  0.26553000  0.76479300  1
  O  O1  1  0.09745400  0.28005400  0.08449900  1
  O  O2  1  0.92606700  0.67055300  0.56661400  1
  O  O3  1  0.80131700  0.46941500  0.00302000  1
  O  O4  1  0.57518700  0.17531000  0.98066400  1
  O  O5  1  0.42481300  0.82469000  0.01933600  1
  O  O6  1  0.99220000  0.67027200  0.27674100  1
  O  O7  1  0.67027200  0.99220000  0.77674100  1
  O  O8  1  0.19868300  0.53058500  0.99698000  1
  O  O9  1  0.84223000  0.11725700  0.97063400  1
  O  O10  1  0.57186300  0.73447000  0.23520700  1
  O  O11  1  0.73447000  0.57186300  0.73520700  1
  O  O12  1  0.28005400  0.09745400  0.58449900  1
  O  O13  1  0.07393300  0.32944700  0.43338600  1
  O  O14  1  0.62579700  0.67665400  0.96890600  1
  O  O15  1  0.82469000  0.42481300  0.51933600  1
  O  O16  1  0.32972800  0.00780000  0.22325900  1
  O  O17  1  0.32334600  0.37420300  0.53109400  1
  O  O18  1  0.32944700  0.07393300  0.93338600  1
  O  O19  1  0.88274300  0.15777000  0.52936600  1
  O  O20  1  0.26553000  0.42813700  0.26479300  1
  O  O21  1  0.46941500  0.80131700  0.50302000  1
  O  O22  1  0.67665400  0.62579700  0.46890600  1
  O  O23  1  0.00780000  0.32972800  0.72325900  1
  O  O24  1  0.53058500  0.19868300  0.49698000  1
  O  O25  1  0.11725700  0.84223000  0.47063400  1
  O  O26  1  0.67055300  0.92606700  0.06661400  1
  O  O27  1  0.37420300  0.32334600  0.03109400  1
  O  O28  1  0.15777000  0.88274300  0.02936600  1
  O  O29  1  0.90254600  0.71994600  0.91550100  1
  O  O30  1  0.71994600  0.90254600  0.41550100  1
  O  O31  1  0.17531000  0.57518700  0.48066400  1
loop_
_geom_bond_atom_site_label_1
_geom_bond_atom_site_label_2
_geom_bond_distance
_geom_bond_site_symmetry_2
K0 O25 2.772286 1_555
K0 O28 2.772286 1_556
K0 O9 2.883442 1_465
K0 O19 2.883442 1_465
K0 O29 2.884388 1_455
K0 O12 2.884388 1_565
K0 O7 3.296334 1_455
K0 O23 3.296334 1_565
K0 O2 3.303746 1_455
K0 O18 3.303746 1_565
K1 O9 2.772286 1_554
K1 O19 2.772286 1_555
K1 O25 2.883442 1_645
K1 O28 2.883442 1_645
K1 O30 2.884388 1_545
K1 O1 2.884388 1_655
K1 O6 3.296334 1_545
K1 O16 3.296334 1_655
K1 O26 3.303746 1_545
K1 O13 3.303746 1_655
K2 O3 2.839305 1_555
K2 O24 2.839305 1_555
K2 O22 2.879305 1_555
K2 O27 2.879305 1_555
K2 O20 3.039734 1_555
K2 O10 3.039734 1_555
K2 O15 3.123272 1_555
K2 O4 3.123272 1_554
K3 O21 2.839305 1_555
K3 O8 2.839305 1_555
K3 O14 2.879305 1_555
K3 O17 2.879305 1_555
K3 O0 3.039734 1_555
K3 O11 3.039734 1_555
K3 O5 3.123272 1_556
K3 O31 3.123272 1_555
B0 O2 1.463196 1_555
B0 O11 1.475944 1_555
B0 O22 1.484243 1_555
B0 O15 1.486381 1_555
B1 O18 1.463196 1_555
B1 O0 1.475944 1_555
B1 O27 1.484243 1_556
B1 O4 1.486381 1_555
B2 O13 1.463196 1_555
B2 O20 1.475944 1_555
B2 O17 1.484243 1_555
B2 O31 1.486381 1_555
B3 O26 1.463196 1_555
B3 O10 1.475944 1_555
B3 O14 1.484243 1_554
B3 O5 1.486381 1_555
O0 P5 1.564803 1_555
O1 P3 1.529065 1_555
O1 Zn2 1.978444 1_454
O2 P4 1.570556 1_655
O3 P2 1.541306 1_554
O3 Zn2 1.952103 1_554
O4 P0 1.571057 1_555
O5 P6 1.571057 1_555
O6 P4 1.522550 1_655
O6 Zn1 1.949101 1_655
O7 P0 1.522550 1_565
O7 Zn3 1.949101 1_565
O8 P3 1.541306 1_556
O8 Zn1 1.952103 1_556
O9 P0 1.534281 1_555
O9 Zn2 1.981630 1_555
O10 P1 1.564803 1_555
O11 P2 1.564803 1_555
O12 P5 1.529065 1_555
O12 Zn0 1.978444 1_545
O13 P7 1.570556 1_455
O14 P2 1.568275 1_555
O15 P7 1.571057 1_555
O16 P6 1.522550 1_545
O16 Zn0 1.949101 1_545
O17 P5 1.568275 1_555
O18 P6 1.570556 1_546
O19 P7 1.534281 1_555
O19 Zn3 1.981630 1_555
O20 P3 1.564803 1_555
O21 P1 1.541306 1_555
O21 Zn0 1.952103 1_555
O22 P1 1.568275 1_555
O23 P7 1.522550 1_455
O23 Zn2 1.949101 1_455
O24 P5 1.541306 1_555
O24 Zn3 1.952103 1_555
O25 P4 1.534281 1_555
O25 Zn0 1.981630 1_555
O26 P0 1.570556 1_564
O27 P3 1.568275 1_555
O28 P6 1.534281 1_555
O28 Zn1 1.981630 1_555
O29 P2 1.529065 1_555
O29 Zn1 1.978444 1_656
O30 P1 1.529065 1_555
O30 Zn3 1.978444 1_565
O31 P4 1.571057 1_555
