# generated using pymatgen
data_In5S5Br
_symmetry_space_group_name_H-M   'P 1'
_cell_length_a   3.95744709
_cell_length_b   9.14793245
_cell_length_c   15.10718985
_cell_angle_alpha   90.00000000
_cell_angle_beta   90.00000000
_cell_angle_gamma   90.00000000
_symmetry_Int_Tables_number   1
_chemical_formula_structural   In5S5Br
_chemical_formula_sum   'In10 S10 Br2'
_cell_volume   546.91741592
_cell_formula_units_Z   2
loop_
 _symmetry_equiv_pos_site_id
 _symmetry_equiv_pos_as_xyz
  1  'x, y, z'
loop_
 _atom_site_type_symbol
 _atom_site_label
 _atom_site_symmetry_multiplicity
 _atom_site_fract_x
 _atom_site_fract_y
 _atom_site_fract_z
 _atom_site_occupancy
  In  In0  1  -0.00000000  0.88439115  0.40192196  1
  In  In1  1  0.50000000  0.11560885  0.90192196  1
  In  In2  1  0.50000000  0.60519394  0.52655669  1
  In  In3  1  0.00000000  0.39480606  0.02655669  1
  In  In4  1  0.50000000  0.18493117  0.30290330  1
  In  In5  1  -0.00000000  0.81506883  0.80290330  1
  In  In6  1  0.50000000  0.47800778  0.25584308  1
  In  In7  1  0.00000000  0.52199222  0.75584308  1
  In  In8  1  0.50000000  0.86452111  0.10532478  1
  In  In9  1  0.00000000  0.13547889  0.60532478  1
  S  S0  1  0.50000000  0.69832822  0.36191265  1
  S  S1  1  0.00000000  0.30167178  0.86191265  1
  S  S2  1  0.50000000  0.43669782  0.66297872  1
  S  S3  1  0.00000000  0.56330218  0.16297872  1
  S  S4  1  0.00000000  0.77148221  0.56274591  1
  S  S5  1  0.50000000  0.22851779  0.06274591  1
  S  S6  1  0.50000000  0.05851303  0.45331313  1
  S  S7  1  0.00000000  0.94148697  0.95331313  1
  S  S8  1  0.00000000  0.02820364  0.25246868  1
  S  S9  1  0.50000000  0.97179636  0.75246868  1
  Br  Br0  1  0.00000000  0.40147966  0.46071111  1
  Br  Br1  1  0.50000000  0.59852034  0.96071111  1
loop_
_geom_bond_atom_site_label_1
_geom_bond_atom_site_label_2
_geom_bond_distance
_geom_bond_site_symmetry_2
In0 S8 2.613143 1_565
In0 S4 2.640037 1_555
In0 S6 2.656180 1_465
In0 S6 2.656180 1_565
In0 S0 2.679141 1_455
In0 S0 2.679141 1_555
In1 S9 2.613143 1_545
In1 S5 2.640037 1_556
In1 S7 2.656180 1_545
In1 S7 2.656180 1_645
In1 S1 2.679141 1_555
In1 S1 2.679141 1_655
In2 S4 2.555049 1_555
In2 S4 2.555049 1_655
In2 S2 2.573600 1_555
In2 S0 2.629180 1_555
In3 S5 2.555049 1_455
In3 S5 2.555049 1_555
In3 S3 2.573600 1_555
In3 S1 2.629180 1_554
In4 S6 2.549631 1_555
In4 S8 2.559583 1_555
In4 S8 2.559583 1_655
In4 In6 2.773707 1_555
In5 S7 2.549631 1_555
In5 S9 2.559583 1_555
In5 S9 2.559583 1_455
In5 In7 2.773707 1_555
In6 S3 2.548008 1_555
In6 S3 2.548008 1_655
In6 S0 2.574854 1_555
In7 S2 2.548008 1_555
In7 S2 2.548008 1_455
In7 S1 2.574854 1_555
In8 S7 3.112048 1_554
In8 S7 3.112048 1_654
In8 S8 3.331493 1_565
In8 S8 3.331493 1_665
In8 S5 3.391379 1_565
In8 S3 3.502416 1_555
In8 S3 3.502416 1_655
In8 S0 4.163802 1_555
In9 S6 3.112048 1_555
In9 S6 3.112048 1_455
In9 S9 3.331493 1_545
In9 S9 3.331493 1_445
In9 S4 3.391379 1_545
In9 S2 3.502416 1_555
In9 S2 3.502416 1_455
In9 S1 4.163802 1_555
Br0 In2 2.894431 1_455
Br0 In2 2.894431 1_555
Br0 In9 3.270194 1_555
Br0 S2 3.654643 1_555
Br0 S2 3.654643 1_455
Br0 S0 3.676591 1_455
Br0 S0 3.676591 1_555
Br0 In4 3.677391 1_555
Br0 In4 3.677391 1_455
Br0 S6 3.710976 1_555
Br0 S6 3.710976 1_455
Br0 In6 3.739566 1_555
Br0 In6 3.739566 1_455
Br1 In3 2.894431 1_556
Br1 In3 2.894431 1_656
Br1 In8 3.270194 1_556
Br1 S3 3.654643 1_656
Br1 S3 3.654643 1_556
Br1 S1 3.676591 1_555
Br1 S1 3.676591 1_655
Br1 In5 3.677391 1_555
Br1 In5 3.677391 1_655
Br1 S7 3.710976 1_555
Br1 S7 3.710976 1_655
Br1 In7 3.739566 1_555
Br1 In7 3.739566 1_655
