# generated using pymatgen
data_YbH7C3O8
_symmetry_space_group_name_H-M   'P 1'
_cell_length_a   6.44309019
_cell_length_b   6.46061516
_cell_length_c   9.35544570
_cell_angle_alpha   71.54818785
_cell_angle_beta   87.12850051
_cell_angle_gamma   83.18337489
_symmetry_Int_Tables_number   1
_chemical_formula_structural   YbH7C3O8
_chemical_formula_sum   'Yb2 H14 C6 O16'
_cell_volume   366.76837536
_cell_formula_units_Z   2
loop_
 _symmetry_equiv_pos_site_id
 _symmetry_equiv_pos_as_xyz
  1  'x, y, z'
loop_
 _atom_site_type_symbol
 _atom_site_label
 _atom_site_symmetry_multiplicity
 _atom_site_fract_x
 _atom_site_fract_y
 _atom_site_fract_z
 _atom_site_occupancy
  Yb  Yb0  1  0.74966100  0.74334666  0.74905008  1
  Yb  Yb1  1  0.25033900  0.25665334  0.25094992  1
  H  H0  1  0.59713259  0.18708293  0.57348962  1
  H  H1  1  0.85078117  0.69819839  0.05685299  1
  H  H2  1  0.40286741  0.81291707  0.42651038  1
  H  H3  1  0.79330076  0.11774076  0.93586230  1
  H  H4  1  0.15187584  0.82901877  0.42874544  1
  H  H5  1  0.60157044  0.69639882  0.05095613  1
  H  H6  1  0.19970568  0.27988260  0.65691618  1
  H  H7  1  0.26694146  0.63543176  0.71159395  1
  H  H8  1  0.80029432  0.72011740  0.34308382  1
  H  H9  1  0.14921883  0.30180161  0.94314701  1
  H  H10  1  0.84812416  0.17098123  0.57125456  1
  H  H11  1  0.39842956  0.30360118  0.94904387  1
  H  H12  1  0.20669924  0.88225924  0.06413770  1
  H  H13  1  0.73305854  0.36456824  0.28840605  1
  C  C0  1  0.22059782  0.70583279  0.12432992  1
  C  C1  1  0.75355211  0.22687044  0.24137770  1
  C  C2  1  0.78843078  0.71582420  0.46122625  1
  C  C3  1  0.24644789  0.77312956  0.75862230  1
  C  C4  1  0.21156922  0.28417580  0.53877375  1
  C  C5  1  0.77940218  0.29416721  0.87567008  1
  O  O0  1  0.94957932  0.72991625  0.52853623  1
  O  O1  1  0.72948905  0.73531529  0.98904086  1
  O  O2  1  0.27505059  0.89822520  0.37482661  1
  O  O3  1  0.59203978  0.14529048  0.22359287  1
  O  O4  1  0.06312466  0.83890550  0.79088704  1
  O  O5  1  0.72494941  0.10177480  0.62517339  1
  O  O6  1  0.27051095  0.26468471  0.01095914  1
  O  O7  1  0.40796022  0.85470952  0.77640713  1
  O  O8  1  0.05042068  0.27008375  0.47146377  1
  O  O9  1  0.93687534  0.16109450  0.20911296  1
  O  O10  1  0.60117583  0.40351587  0.85079219  1
  O  O11  1  0.61400241  0.69986845  0.53078754  1
  O  O12  1  0.05766137  0.60772242  0.16778673  1
  O  O13  1  0.39882417  0.59648413  0.14920781  1
  O  O14  1  0.94233863  0.39227758  0.83221327  1
  O  O15  1  0.38599759  0.30013155  0.46921246  1
loop_
_geom_bond_atom_site_label_1
_geom_bond_atom_site_label_2
_geom_bond_distance
_geom_bond_site_symmetry_2
H0 O5 0.989557 1_555
H0 O15 1.667877 1_555
H1 O1 0.989750 1_554
H1 O12 1.662876 1_655
H2 O2 0.989557 1_555
H2 O11 1.667877 1_555
H4 O2 0.992755 1_555
H4 O0 1.636526 1_455
H5 O1 0.993579 1_554
H5 O13 1.634721 1_555
H9 O6 0.989750 1_556
H9 O14 1.662876 1_455
H10 O5 0.992755 1_555
H10 O8 1.636526 1_655
H11 O6 0.993579 1_556
H11 O10 1.634721 1_555
C0 H12 1.094916 1_555
C0 O13 1.265714 1_555
C0 O12 1.273280 1_555
C1 H13 1.102941 1_555
C1 O3 1.261531 1_555
C1 O9 1.262212 1_555
C2 H8 1.095846 1_555
C2 O0 1.267724 1_555
C2 O11 1.268444 1_555
C3 H7 1.102941 1_555
C3 O7 1.261531 1_555
C3 O4 1.262212 1_555
C4 H6 1.095846 1_555
C4 O8 1.267724 1_555
C4 O15 1.268444 1_555
C5 H3 1.094916 1_555
C5 O10 1.265714 1_555
C5 O14 1.273280 1_555
O0 Yb0 2.396505 1_555
O1 Yb0 2.226930 1_555
O2 Yb1 2.227761 1_565
O3 Yb1 2.261486 1_555
O4 Yb0 2.267506 1_455
O5 Yb0 2.227761 1_545
O6 Yb1 2.226930 1_555
O7 Yb0 2.261486 1_555
O8 Yb1 2.396505 1_555
O9 Yb1 2.267506 1_655
O10 Yb0 2.392925 1_555
O11 Yb0 2.369093 1_555
O12 Yb1 2.366893 1_555
O13 Yb1 2.392925 1_555
O14 Yb0 2.366893 1_555
O15 Yb1 2.369093 1_555
