# generated using pymatgen
data_Cs3AlGe2O7
_symmetry_space_group_name_H-M   'P 1'
_cell_length_a   9.89805641
_cell_length_b   9.89805641
_cell_length_c   7.65767467
_cell_angle_alpha   73.05655124
_cell_angle_beta   73.05655124
_cell_angle_gamma   121.53379437
_symmetry_Int_Tables_number   1
_chemical_formula_structural   Cs3AlGe2O7
_chemical_formula_sum   'Cs6 Al2 Ge4 O14'
_cell_volume   513.11414659
_cell_formula_units_Z   2
loop_
 _symmetry_equiv_pos_site_id
 _symmetry_equiv_pos_as_xyz
  1  'x, y, z'
loop_
 _atom_site_type_symbol
 _atom_site_label
 _atom_site_symmetry_multiplicity
 _atom_site_fract_x
 _atom_site_fract_y
 _atom_site_fract_z
 _atom_site_occupancy
  Cs  Cs0  1  0.59141289  0.98325049  0.73139297  1
  Cs  Cs1  1  0.01173193  0.98826807  0.75000000  1
  Cs  Cs2  1  0.98325049  0.59141289  0.23139297  1
  Cs  Cs3  1  0.98826807  0.01173193  0.25000000  1
  Cs  Cs4  1  0.01674951  0.40858711  0.76860703  1
  Cs  Cs5  1  0.40858711  0.01674951  0.26860703  1
  Al  Al0  1  0.44154706  0.55845294  0.75000000  1
  Al  Al1  1  0.55845294  0.44154706  0.25000000  1
  Ge  Ge0  1  0.76165631  0.56284192  0.76129794  1
  Ge  Ge1  1  0.43715808  0.23834369  0.73870206  1
  Ge  Ge2  1  0.56284192  0.76165631  0.26129794  1
  Ge  Ge3  1  0.23834369  0.43715808  0.23870206  1
  O  O0  1  0.65612247  0.66006980  0.73374835  1
  O  O1  1  0.66006980  0.65612247  0.23374835  1
  O  O2  1  0.52076622  0.27827165  0.47535149  1
  O  O3  1  0.33993020  0.34387753  0.76625165  1
  O  O4  1  0.00284741  0.27595284  0.43894650  1
  O  O5  1  0.47923378  0.72172835  0.52464851  1
  O  O6  1  0.27595284  0.00284741  0.93894650  1
  O  O7  1  0.27827165  0.52076622  0.97535149  1
  O  O8  1  0.35500552  0.64499448  0.25000000  1
  O  O9  1  0.34387753  0.33993020  0.26625165  1
  O  O10  1  0.72404716  -0.00284741  0.06105350  1
  O  O11  1  0.64499448  0.35500552  0.75000000  1
  O  O12  1  -0.00284741  0.72404716  0.56105350  1
  O  O13  1  0.72172835  0.47923378  0.02464851  1
loop_
_geom_bond_atom_site_label_1
_geom_bond_atom_site_label_2
_geom_bond_distance
_geom_bond_site_symmetry_2
Cs0 O4 2.924856 1_665
Cs0 O10 3.171808 1_566
Cs0 O6 3.199069 1_565
Cs0 O5 3.293447 1_555
Cs0 O7 3.294160 1_555
Cs0 O8 3.330994 1_556
Cs0 O11 3.485651 1_565
Cs0 O2 3.529635 1_565
Cs0 O0 3.572044 1_555
Cs1 O9 3.172226 1_565
Cs1 O1 3.172226 1_456
Cs1 O10 3.196951 1_466
Cs1 O4 3.196951 1_565
Cs1 O6 3.299461 1_565
Cs1 O12 3.299461 1_555
Cs1 O3 3.389445 1_565
Cs1 O0 3.389445 1_455
Cs1 O13 3.636723 1_456
Cs1 O2 3.636723 1_565
Cs1 Cs3 3.850233 1_465
Cs1 Cs3 3.850233 1_466
Cs2 O6 2.924856 1_664
Cs2 O12 3.171808 1_655
Cs2 O4 3.199069 1_655
Cs2 O13 3.293447 1_555
Cs2 O2 3.294160 1_555
Cs2 O11 3.330994 1_555
Cs2 O8 3.485651 1_655
Cs2 O7 3.529635 1_654
Cs2 O1 3.572044 1_555
Cs3 O3 3.172226 1_654
Cs3 O0 3.172226 1_545
Cs3 O12 3.196951 1_645
Cs3 O6 3.196951 1_654
Cs3 O4 3.299461 1_655
Cs3 O10 3.299461 1_555
Cs3 O9 3.389445 1_655
Cs3 O1 3.389445 1_545
Cs3 O5 3.636723 1_545
Cs3 O7 3.636723 1_654
Cs4 O10 2.924856 1_456
Cs4 O4 3.171808 1_555
Cs4 O12 3.199069 1_555
Cs4 O7 3.293447 1_555
Cs4 O5 3.294160 1_555
Cs4 O8 3.330994 1_555
Cs4 O11 3.485651 1_455
Cs4 O13 3.529635 1_456
Cs4 O3 3.572044 1_555
Cs5 O12 2.924856 1_545
Cs5 O6 3.171808 1_554
Cs5 O10 3.199069 1_555
Cs5 O2 3.293447 1_555
Cs5 O13 3.294160 1_555
Cs5 O11 3.330994 1_554
Cs5 O8 3.485651 1_545
Cs5 O5 3.529635 1_545
Cs5 O9 3.572044 1_555
Al0 O3 1.753995 1_555
Al0 O0 1.753995 1_555
Al0 O5 1.760001 1_555
Al0 O7 1.760001 1_555
Al1 O9 1.753995 1_555
Al1 O1 1.753995 1_555
Al1 O13 1.760001 1_555
Al1 O2 1.760001 1_555
Ge0 O12 1.711982 1_655
Ge0 O0 1.767322 1_555
Ge0 O13 1.768775 1_556
Ge0 O11 1.802793 1_555
Ge1 O6 1.711982 1_555
Ge1 O3 1.767322 1_555
Ge1 O2 1.768775 1_555
Ge1 O11 1.802793 1_555
Ge2 O10 1.711982 1_565
Ge2 O1 1.767322 1_555
Ge2 O5 1.768775 1_555
Ge2 O8 1.802793 1_555
Ge3 O4 1.711982 1_555
Ge3 O9 1.767322 1_555
Ge3 O7 1.768775 1_554
Ge3 O8 1.802793 1_555
