# generated using pymatgen
data_K(CuSe)2
_symmetry_space_group_name_H-M   'P 1'
_cell_length_a   7.86759205
_cell_length_b   7.86920178
_cell_length_c   14.90873917
_cell_angle_alpha   105.32488375
_cell_angle_beta   105.31861375
_cell_angle_gamma   90.02183391
_symmetry_Int_Tables_number   1
_chemical_formula_structural   K(CuSe)2
_chemical_formula_sum   'K8 Cu16 Se16'
_cell_volume   856.12836797
_cell_formula_units_Z   8
loop_
 _symmetry_equiv_pos_site_id
 _symmetry_equiv_pos_as_xyz
  1  'x, y, z'
loop_
 _atom_site_type_symbol
 _atom_site_label
 _atom_site_symmetry_multiplicity
 _atom_site_fract_x
 _atom_site_fract_y
 _atom_site_fract_z
 _atom_site_occupancy
  K  K0_0  1  0.25000000  0.25000000  0.00000000  1
  K  K0_1  1  0.25000000  0.25000000  0.50000000  1
  K  K0_2  1  0.25000000  0.75000000  0.00000000  1
  K  K0_3  1  0.25000000  0.75000000  0.50000000  1
  K  K0_4  1  0.75000000  0.25000000  0.00000000  1
  K  K0_5  1  0.75000000  0.25000000  0.50000000  1
  K  K0_6  1  0.75000000  0.75000000  0.00000000  1
  K  K0_7  1  0.75000000  0.75000000  0.50000000  1
  Cu  Cu0_0  1  0.37484975  0.12512847  0.24995939  1
  Cu  Cu0_1  1  0.37484975  0.12512847  0.74995939  1
  Cu  Cu0_2  1  0.37484975  0.62512847  0.24995939  1
  Cu  Cu0_3  1  0.37484975  0.62512847  0.74995939  1
  Cu  Cu0_4  1  0.87484975  0.12512847  0.24995939  1
  Cu  Cu0_5  1  0.87484975  0.12512847  0.74995939  1
  Cu  Cu0_6  1  0.87484975  0.62512847  0.24995939  1
  Cu  Cu0_7  1  0.87484975  0.62512847  0.74995939  1
  Cu  Cu1_0  1  0.12515025  0.37487153  0.25004062  1
  Cu  Cu1_1  1  0.12515025  0.37487153  0.75004062  1
  Cu  Cu1_2  1  0.12515025  0.87487153  0.25004062  1
  Cu  Cu1_3  1  0.12515025  0.87487153  0.75004062  1
  Cu  Cu1_4  1  0.62515025  0.37487153  0.25004062  1
  Cu  Cu1_5  1  0.62515025  0.37487153  0.75004062  1
  Cu  Cu1_6  1  0.62515025  0.87487153  0.25004062  1
  Cu  Cu1_7  1  0.62515025  0.87487153  0.75004062  1
  Se  Se0_0  1  0.07190109  0.07194544  0.14409906  1
  Se  Se0_1  1  0.07190109  0.07194544  0.64409907  1
  Se  Se0_2  1  0.07190109  0.57194544  0.14409906  1
  Se  Se0_3  1  0.07190109  0.57194544  0.64409907  1
  Se  Se0_4  1  0.57190109  0.07194544  0.14409907  1
  Se  Se0_5  1  0.57190109  0.07194544  0.64409907  1
  Se  Se0_6  1  0.57190110  0.57194544  0.14409907  1
  Se  Se0_7  1  0.57190109  0.57194544  0.64409907  1
  Se  Se1_0  1  0.42809891  0.42805455  0.35590044  1
  Se  Se1_1  1  0.42809891  0.42805455  0.85590044  1
  Se  Se1_2  1  0.42809891  0.92805455  0.35590044  1
  Se  Se1_3  1  0.42809891  0.92805455  0.85590044  1
  Se  Se1_4  1  0.92809891  0.42805455  0.35590044  1
  Se  Se1_5  1  0.92809891  0.42805455  0.85590044  1
  Se  Se1_6  1  0.92809891  0.92805455  0.35590044  1
  Se  Se1_7  1  0.92809891  0.92805455  0.85590044  1
loop_
_geom_bond_atom_site_label_1
_geom_bond_atom_site_label_2
_geom_bond_distance
_geom_bond_site_symmetry_2
K0_0 Se0_6 3.419227 1_555
K0_0 Se1_7 3.419229 1_444
K0_0 Se0_4 3.422217 1_555
K0_0 Se1_5 3.422221 1_454
K0_0 Se0_2 3.422491 1_555
K0_0 Se1_3 3.422495 1_544
K0_0 Se0_0 3.423756 1_555
K0_0 Se1_1 3.423762 1_554
K0_0 K0_4 3.933796 1_455
K0_0 K0_4 3.933796 1_555
K0_0 K0_2 3.934601 1_555
K0_0 K0_2 3.934601 1_545
K0_1 Se0_7 3.419227 1_555
K0_1 Se1_6 3.419229 1_445
K0_1 Se0_5 3.422217 1_555
K0_1 Se1_4 3.422221 1_455
K0_1 Se0_3 3.422491 1_555
K0_1 Se1_2 3.422495 1_545
K0_1 Se0_1 3.423756 1_555
K0_1 Se1_0 3.423762 1_555
K0_1 K0_5 3.933796 1_555
K0_1 K0_5 3.933796 1_455
K0_1 K0_3 3.934601 1_555
K0_1 K0_3 3.934601 1_545
K0_2 Se0_4 3.419227 1_565
K0_2 Se1_5 3.419229 1_454
K0_2 Se0_6 3.422217 1_555
K0_2 Se1_7 3.422221 1_454
K0_2 Se0_0 3.422491 1_565
K0_2 Se1_1 3.422495 1_554
K0_2 Se0_2 3.423756 1_555
K0_2 Se1_3 3.423762 1_554
K0_2 K0_6 3.933796 1_555
K0_2 K0_6 3.933796 1_455
K0_3 Se0_5 3.419227 1_565
K0_3 Se1_4 3.419229 1_455
K0_3 Se0_7 3.422217 1_555
K0_3 Se1_6 3.422221 1_455
K0_3 Se0_1 3.422491 1_565
K0_3 Se1_0 3.422495 1_555
K0_3 Se0_3 3.423756 1_555
K0_3 Se1_2 3.423762 1_555
K0_3 K0_7 3.933796 1_455
K0_3 K0_7 3.933796 1_555
K0_4 Se0_2 3.419227 1_655
K0_4 Se1_3 3.419229 1_544
K0_4 Se0_0 3.422217 1_655
K0_4 Se1_1 3.422221 1_554
K0_4 Se0_6 3.422491 1_555
K0_4 Se1_7 3.422495 1_544
K0_4 Se0_4 3.423756 1_555
K0_4 Se1_5 3.423762 1_554
K0_4 K0_6 3.934601 1_555
K0_4 K0_6 3.934601 1_545
K0_5 Se0_3 3.419227 1_655
K0_5 Se1_2 3.419229 1_545
K0_5 Se0_1 3.422217 1_655
K0_5 Se1_0 3.422221 1_555
K0_5 Se0_7 3.422491 1_555
K0_5 Se1_6 3.422495 1_545
K0_5 Se0_5 3.423756 1_555
K0_5 Se1_4 3.423762 1_555
K0_5 K0_7 3.934601 1_555
K0_5 K0_7 3.934601 1_545
K0_6 Se0_0 3.419227 1_665
K0_6 Se1_1 3.419229 1_554
K0_6 Se0_2 3.422217 1_655
K0_6 Se1_3 3.422221 1_554
K0_6 Se0_4 3.422491 1_565
K0_6 Se1_5 3.422495 1_554
K0_6 Se0_6 3.423756 1_555
K0_6 Se1_7 3.423762 1_554
K0_7 Se0_1 3.419227 1_665
K0_7 Se1_0 3.419229 1_555
K0_7 Se0_3 3.422217 1_655
K0_7 Se1_2 3.422221 1_555
K0_7 Se0_5 3.422491 1_565
K0_7 Se1_4 3.422495 1_555
K0_7 Se0_7 3.423756 1_555
K0_7 Se1_6 3.423762 1_555
Cu0_0 Se0_0 2.451425 1_555
Cu0_0 Se1_0 2.451952 1_555
Cu0_0 Se0_4 2.452278 1_555
Cu0_0 Se1_2 2.453731 1_545
Cu0_0 Cu1_0 2.779326 1_555
Cu0_0 Cu1_4 2.781159 1_555
Cu0_0 Cu1_2 2.781581 1_545
Cu0_0 Cu1_6 2.785531 1_545
Cu0_1 Se0_1 2.451425 1_555
Cu0_1 Se1_1 2.451952 1_555
Cu0_1 Se0_5 2.452278 1_555
Cu0_1 Se1_3 2.453731 1_545
Cu0_1 Cu1_1 2.779326 1_555
Cu0_1 Cu1_5 2.781159 1_555
Cu0_1 Cu1_3 2.781581 1_545
Cu0_1 Cu1_7 2.785531 1_545
Cu0_2 Se0_2 2.451425 1_555
Cu0_2 Se1_2 2.451952 1_555
Cu0_2 Se0_6 2.452278 1_555
Cu0_2 Se1_0 2.453731 1_555
Cu0_2 Cu1_2 2.779326 1_555
Cu0_2 Cu1_6 2.781159 1_555
Cu0_2 Cu1_0 2.781581 1_555
Cu0_2 Cu1_4 2.785531 1_555
Cu0_3 Se0_3 2.451425 1_555
Cu0_3 Se1_3 2.451952 1_555
Cu0_3 Se0_7 2.452278 1_555
Cu0_3 Se1_1 2.453731 1_555
Cu0_3 Cu1_3 2.779326 1_555
Cu0_3 Cu1_7 2.781159 1_555
Cu0_3 Cu1_1 2.781581 1_555
Cu0_3 Cu1_5 2.785531 1_555
Cu0_4 Se0_4 2.451425 1_555
Cu0_4 Se1_4 2.451952 1_555
Cu0_4 Se0_0 2.452278 1_655
Cu0_4 Se1_6 2.453731 1_545
Cu0_4 Cu1_4 2.779326 1_555
Cu0_4 Cu1_0 2.781159 1_655
Cu0_4 Cu1_6 2.781581 1_545
Cu0_4 Cu1_2 2.785531 1_645
Cu0_5 Se0_5 2.451425 1_555
Cu0_5 Se1_5 2.451952 1_555
Cu0_5 Se0_1 2.452278 1_655
Cu0_5 Se1_7 2.453731 1_545
Cu0_5 Cu1_5 2.779326 1_555
Cu0_5 Cu1_1 2.781159 1_655
Cu0_5 Cu1_7 2.781581 1_545
Cu0_5 Cu1_3 2.785531 1_645
Cu0_6 Se0_6 2.451425 1_555
Cu0_6 Se1_6 2.451952 1_555
Cu0_6 Se0_2 2.452278 1_655
Cu0_6 Se1_4 2.453731 1_555
Cu0_6 Cu1_6 2.779326 1_555
Cu0_6 Cu1_2 2.781159 1_655
Cu0_6 Cu1_4 2.781581 1_555
Cu0_6 Cu1_0 2.785531 1_655
Cu0_7 Se0_7 2.451425 1_555
Cu0_7 Se1_7 2.451952 1_555
Cu0_7 Se0_3 2.452278 1_655
Cu0_7 Se1_5 2.453731 1_555
Cu0_7 Cu1_7 2.779326 1_555
Cu0_7 Cu1_3 2.781159 1_655
Cu0_7 Cu1_5 2.781581 1_555
Cu0_7 Cu1_1 2.785531 1_655
Cu1_0 Se1_0 2.451423 1_555
Cu1_0 Se0_0 2.451954 1_555
Cu1_0 Se1_4 2.452272 1_455
Cu1_0 Se0_2 2.453736 1_555
Cu1_1 Se1_1 2.451423 1_555
Cu1_1 Se0_1 2.451954 1_555
Cu1_1 Se1_5 2.452272 1_455
Cu1_1 Se0_3 2.453736 1_555
Cu1_2 Se1_2 2.451423 1_555
Cu1_2 Se0_2 2.451954 1_555
Cu1_2 Se1_6 2.452272 1_455
Cu1_2 Se0_0 2.453736 1_565
Cu1_3 Se1_3 2.451423 1_555
Cu1_3 Se0_3 2.451954 1_555
Cu1_3 Se1_7 2.452272 1_455
Cu1_3 Se0_1 2.453736 1_565
Cu1_4 Se1_4 2.451423 1_555
Cu1_4 Se0_4 2.451954 1_555
Cu1_4 Se1_0 2.452272 1_555
Cu1_4 Se0_6 2.453736 1_555
Cu1_5 Se1_5 2.451423 1_555
Cu1_5 Se0_5 2.451954 1_555
Cu1_5 Se1_1 2.452272 1_555
Cu1_5 Se0_7 2.453736 1_555
Cu1_6 Se1_6 2.451423 1_555
Cu1_6 Se0_6 2.451954 1_555
Cu1_6 Se1_2 2.452272 1_555
Cu1_6 Se0_4 2.453736 1_565
Cu1_7 Se1_7 2.451423 1_555
Cu1_7 Se0_7 2.451954 1_555
Cu1_7 Se1_3 2.452272 1_555
Cu1_7 Se0_5 2.453736 1_565
