# generated using pymatgen
data_KCu2AsS3
_symmetry_space_group_name_H-M   'P 1'
_cell_length_a   6.33851900
_cell_length_b   8.97342019
_cell_length_c   10.35405763
_cell_angle_alpha   90.70786056
_cell_angle_beta   91.33342679
_cell_angle_gamma   90.65266887
_symmetry_Int_Tables_number   1
_chemical_formula_structural   KCu2AsS3
_chemical_formula_sum   'K4 Cu8 As4 S12'
_cell_volume   588.67551708
_cell_formula_units_Z   4
loop_
 _symmetry_equiv_pos_site_id
 _symmetry_equiv_pos_as_xyz
  1  'x, y, z'
loop_
 _atom_site_type_symbol
 _atom_site_label
 _atom_site_symmetry_multiplicity
 _atom_site_fract_x
 _atom_site_fract_y
 _atom_site_fract_z
 _atom_site_occupancy
  K  K0  1  0.20563300  0.93308500  0.86853300  1
  K  K1  1  0.70211900  0.93015300  0.62915900  1
  K  K2  1  0.29788100  0.06984700  0.37084100  1
  K  K3  1  0.79436700  0.06691500  0.13146700  1
  Cu  Cu0  1  0.57213600  0.34712700  0.54473400  1
  Cu  Cu1  1  0.98507000  0.74834800  0.35570400  1
  Cu  Cu2  1  0.42786400  0.65287300  0.45526600  1
  Cu  Cu3  1  0.06716900  0.35687800  0.96116600  1
  Cu  Cu4  1  0.50085500  0.59735400  0.83490700  1
  Cu  Cu5  1  0.49914500  0.40264600  0.16509300  1
  Cu  Cu6  1  0.01493000  0.25165200  0.64429600  1
  Cu  Cu7  1  0.93283100  0.64312200  0.03883400  1
  As  As0  1  0.46785100  0.68491600  0.15311100  1
  As  As1  1  0.98204200  0.45183600  0.35524300  1
  As  As2  1  0.53214900  0.31508400  0.84688900  1
  As  As3  1  0.01795800  0.54816400  0.64475700  1
  S  S0  1  0.85431600  0.19462500  0.83475000  1
  S  S1  1  0.36486800  0.19591000  0.67105000  1
  S  S2  1  0.13892800  0.58211000  0.85645700  1
  S  S3  1  0.86107200  0.41789000  0.14354300  1
  S  S4  1  0.84951900  0.22918300  0.44412100  1
  S  S5  1  0.63513200  0.80409000  0.32895000  1
  S  S6  1  0.15048100  0.77081700  0.55587900  1
  S  S7  1  0.36346900  0.22474100  0.02617200  1
  S  S8  1  0.14568400  0.80537500  0.16525000  1
  S  S9  1  0.34627500  0.41976800  0.36058800  1
  S  S10  1  0.65372500  0.58023200  0.63941200  1
  S  S11  1  0.63653100  0.77525900  0.97382800  1
loop_
_geom_bond_atom_site_label_1
_geom_bond_atom_site_label_2
_geom_bond_distance
_geom_bond_site_symmetry_2
K0 S2 3.173466 1_555
K0 S7 3.205194 1_566
K0 S11 3.262174 1_555
K0 S0 3.269892 1_465
K0 S1 3.304986 1_565
K0 S8 3.320793 1_556
K0 S6 3.541384 1_555
K0 K1 3.994725 1_455
K0 K3 3.996270 1_466
K0 S11 4.038748 1_455
K0 K1 4.050978 1_555
K1 S10 3.154790 1_555
K1 S1 3.252466 1_565
K1 S0 3.289625 1_565
K1 S6 3.295876 1_655
K1 S5 3.311000 1_555
K1 S4 3.449202 1_565
K1 S6 3.818613 1_555
K1 S11 3.875431 1_555
K1 K2 3.889387 1_565
K2 S9 3.154790 1_555
K2 S5 3.252466 1_545
K2 S8 3.289625 1_545
K2 S4 3.295876 1_455
K2 S1 3.311000 1_555
K2 S6 3.449202 1_545
K2 S4 3.818613 1_555
K2 S7 3.875431 1_555
K2 K3 3.994725 1_455
K2 K3 4.050978 1_555
K3 S3 3.173466 1_555
K3 S11 3.205194 1_544
K3 S7 3.262174 1_555
K3 S8 3.269892 1_645
K3 S5 3.304986 1_545
K3 S0 3.320793 1_554
K3 S4 3.541384 1_555
K3 S7 4.038748 1_655
Cu0 S1 2.315390 1_555
Cu0 S4 2.323151 1_555
Cu0 S10 2.346263 1_555
Cu0 S9 2.456566 1_555
Cu0 K2 3.478464 1_555
Cu1 S5 2.290623 1_555
Cu1 S8 2.300755 1_655
Cu1 S6 2.306385 1_655
Cu1 K2 3.481789 1_665
Cu2 S5 2.315390 1_555
Cu2 S6 2.323151 1_555
Cu2 S9 2.346263 1_555
Cu2 S10 2.456566 1_555
Cu2 K1 3.478464 1_555
Cu3 S7 2.323329 1_556
Cu3 S0 2.340799 1_455
Cu3 S2 2.350169 1_555
Cu3 S3 2.382789 1_456
Cu3 Cu7 2.828439 1_456
Cu3 K3 3.608630 1_456
Cu4 S10 2.268645 1_555
Cu4 S11 2.282875 1_555
Cu4 S2 2.312733 1_555
Cu4 K0 3.582151 1_555
Cu5 S9 2.268645 1_555
Cu5 S7 2.282875 1_555
Cu5 S3 2.312733 1_555
Cu5 K3 3.582151 1_555
Cu6 S1 2.290623 1_555
Cu6 S0 2.300755 1_455
Cu6 S4 2.306385 1_455
Cu6 K1 3.481789 1_445
Cu7 S11 2.323329 1_554
Cu7 S8 2.340799 1_655
Cu7 S3 2.350169 1_555
Cu7 S2 2.382789 1_654
Cu7 K0 3.608630 1_654
As0 S11 2.314312 1_554
As0 S8 2.326606 1_555
As0 S5 2.327842 1_555
As0 Cu5 2.547258 1_555
As1 S3 2.320635 1_555
As1 S9 2.329278 1_655
As1 S4 2.363782 1_555
As1 Cu1 2.660522 1_555
As1 As3 3.112010 1_655
As2 S7 2.314312 1_556
As2 S0 2.326606 1_555
As2 S1 2.327842 1_555
As2 Cu4 2.547258 1_555
As3 S2 2.320635 1_555
As3 S10 2.329278 1_455
As3 S6 2.363782 1_555
As3 Cu6 2.660522 1_555
