# generated using pymatgen
data_Ce(CuSi)2
_symmetry_space_group_name_H-M   'P 1'
_cell_length_a   4.07149891
_cell_length_b   4.07149918
_cell_length_c   5.69386624
_cell_angle_alpha   110.94880488
_cell_angle_beta   110.94881751
_cell_angle_gamma   90.00000528
_symmetry_Int_Tables_number   1
_chemical_formula_structural   Ce(CuSi)2
_chemical_formula_sum   'Ce1 Cu2 Si2'
_cell_volume   81.43317934
_cell_formula_units_Z   1
loop_
 _symmetry_equiv_pos_site_id
 _symmetry_equiv_pos_as_xyz
  1  'x, y, z'
loop_
 _atom_site_type_symbol
 _atom_site_label
 _atom_site_symmetry_multiplicity
 _atom_site_fract_x
 _atom_site_fract_y
 _atom_site_fract_z
 _atom_site_occupancy
  Ce  Ce0  1  0.00000000  -0.00000000  -0.00000000  1
  Cu  Cu0  1  0.75000000  0.25000000  0.50000000  1
  Cu  Cu1  1  0.25000000  0.75000000  0.50000000  1
  Si  Si0  1  0.62150919  0.62150919  0.24301939  1
  Si  Si1  1  0.37849081  0.37849081  0.75698061  1
loop_
_geom_bond_atom_site_label_1
_geom_bond_atom_site_label_2
_geom_bond_distance
_geom_bond_site_symmetry_2
Ce0 Si1 3.116682 1_444
Ce0 Si0 3.116682 1_555
Ce0 Si1 3.116685 1_454
Ce0 Si0 3.116685 1_545
Ce0 Si0 3.116685 1_455
Ce0 Si1 3.116685 1_544
Ce0 Si0 3.116687 1_445
Ce0 Si1 3.116687 1_554
Ce0 Cu0 3.190167 1_555
Ce0 Cu1 3.190167 1_444
Ce0 Cu0 3.190167 1_454
Ce0 Cu1 3.190167 1_545
Ce0 Cu0 3.190167 1_455
Ce0 Cu1 3.190167 1_544
Ce0 Cu1 3.190167 1_555
Ce0 Cu0 3.190167 1_444
Cu0 Si0 2.395390 1_555
Cu0 Si1 2.395390 1_555
Cu0 Si1 2.395393 1_655
Cu0 Si0 2.395394 1_545
Cu0 Cu1 2.878984 1_655
Cu0 Cu1 2.878984 1_545
Cu0 Cu1 2.878985 1_645
Cu0 Cu1 2.878985 1_555
Cu1 Si1 2.395390 1_555
Cu1 Si0 2.395390 1_555
Cu1 Si0 2.395393 1_455
Cu1 Si1 2.395394 1_565
Si0 Si1 2.387611 1_554
