# generated using pymatgen
data_K4Nb2Si8O23
_symmetry_space_group_name_H-M   'P 1'
_cell_length_a   6.88260900
_cell_length_b   7.96334539
_cell_length_c   11.16331181
_cell_angle_alpha   104.08304556
_cell_angle_beta   89.20216188
_cell_angle_gamma   107.92376630
_symmetry_Int_Tables_number   1
_chemical_formula_structural   K4Nb2Si8O23
_chemical_formula_sum   'K4 Nb2 Si8 O23'
_cell_volume   563.42032084
_cell_formula_units_Z   1
loop_
 _symmetry_equiv_pos_site_id
 _symmetry_equiv_pos_as_xyz
  1  'x, y, z'
loop_
 _atom_site_type_symbol
 _atom_site_label
 _atom_site_symmetry_multiplicity
 _atom_site_fract_x
 _atom_site_fract_y
 _atom_site_fract_z
 _atom_site_occupancy
  K  K0  1  0.27754900  0.24368100  0.48101800  1
  K  K1  1  0.72245100  0.75631900  0.51898200  1
  K  K2  1  0.33262500  0.29870400  0.14790000  1
  K  K3  1  0.66737500  0.70129600  0.85210000  1
  Nb  Nb0  1  0.78489000  0.27303500  0.31020200  1
  Nb  Nb1  1  0.21511000  0.72696500  0.68979800  1
  Si  Si0  1  0.96982400  0.89429700  0.21219000  1
  Si  Si1  1  0.03017600  0.10570300  0.78781000  1
  Si  Si2  1  0.17305500  0.69612300  0.37597400  1
  Si  Si3  1  0.82694500  0.30387700  0.62402600  1
  Si  Si4  1  0.51389200  0.81808900  0.21484600  1
  Si  Si5  1  0.48610800  0.18191100  0.78515400  1
  Si  Si6  1  0.16917500  0.69595200  0.00474900  1
  Si  Si7  1  0.83082500  0.30404800  0.99525100  1
  O  O0  1  0.37481800  0.70855800  0.08423300  1
  O  O1  1  0.62518200  0.29144200  0.91576700  1
  O  O2  1  0.40584800  0.72236000  0.32491800  1
  O  O3  1  0.59415200  0.27764000  0.67508200  1
  O  O4  1  0.72690800  0.76855200  0.18967300  1
  O  O5  1  0.27309200  0.23144800  0.81032700  1
  O  O6  1  0.54769500  0.03367700  0.25400900  1
  O  O7  1  0.45230500  0.96632300  0.74599100  1
  O  O8  1  0.05075100  0.47938100  0.33833100  1
  O  O9  1  0.94924900  0.52061900  0.66166900  1
  O  O10  1  0.00234900  0.10762600  0.26054800  1
  O  O11  1  0.99765100  0.89237400  0.73945200  1
  O  O12  1  0.61418900  0.40359300  0.36340900  1
  O  O13  1  0.38581100  0.59640700  0.63659100  1
  O  O14  1  0.07440800  0.85549100  0.07791100  1
  O  O15  1  0.92559200  0.14450900  0.92208900  1
  O  O16  1  0.76971900  0.28306100  0.13056000  1
  O  O17  1  0.23028100  0.71693900  0.86944000  1
  O  O18  1  0.00000000  0.50000000  0.00000000  1
  O  O19  1  0.06891400  0.81506600  0.31083500  1
  O  O20  1  0.93108600  0.18493400  0.68916500  1
  O  O21  1  0.81826300  0.21787200  0.47648800  1
  O  O22  1  0.18173700  0.78212800  0.52351200  1
loop_
_geom_bond_atom_site_label_1
_geom_bond_atom_site_label_2
_geom_bond_distance
_geom_bond_site_symmetry_2
K0 O12 2.761621 1_555
K0 O13 2.799103 1_555
K0 O10 2.896180 1_555
K0 O3 2.999724 1_555
K0 O21 3.104315 1_455
K0 O20 3.315460 1_455
K0 O19 3.350343 1_545
K0 O8 3.438654 1_555
K0 O6 3.520787 1_555
K0 O22 3.676575 1_545
K1 O13 2.761621 1_555
K1 O12 2.799103 1_555
K1 O11 2.896180 1_555
K1 O2 2.999724 1_555
K1 O22 3.104315 1_655
K1 O19 3.315460 1_655
K1 O20 3.350343 1_565
K1 O9 3.438654 1_555
K1 O7 3.520787 1_555
K1 O21 3.676575 1_565
K2 O10 2.790448 1_555
K2 O12 2.897684 1_555
K2 O16 3.050549 1_555
K2 O8 3.235386 1_555
K2 O1 3.259815 1_554
K2 O14 3.325938 1_545
K2 O6 3.352126 1_555
K2 O2 3.358235 1_555
K2 O0 3.432448 1_555
K2 O15 3.504759 1_454
K2 O5 3.685313 1_554
K3 O11 2.790448 1_555
K3 O13 2.897684 1_555
K3 O17 3.050549 1_555
K3 O9 3.235386 1_555
K3 O0 3.259815 1_556
K3 O15 3.325938 1_565
K3 O7 3.352126 1_555
K3 O3 3.358235 1_555
K3 O1 3.432448 1_555
K3 O14 3.504759 1_656
K3 O4 3.685313 1_556
Nb0 O12 1.801641 1_555
Nb0 O8 2.015237 1_655
Nb0 O16 2.031696 1_555
Nb0 O21 2.040197 1_555
Nb0 O6 2.055033 1_555
Nb0 O10 2.262159 1_655
Nb1 O13 1.801641 1_555
Nb1 O9 2.015237 1_455
Nb1 O17 2.031696 1_555
Nb1 O22 2.040197 1_555
Nb1 O7 2.055033 1_555
Nb1 O11 2.262159 1_455
O0 Si6 1.644630 1_555
O0 Si4 1.645920 1_555
O1 Si7 1.644630 1_555
O1 Si5 1.645920 1_555
O2 Si4 1.650903 1_555
O2 Si2 1.661955 1_555
O3 Si5 1.650903 1_555
O3 Si3 1.661955 1_555
O4 Si4 1.635422 1_555
O4 Si0 1.649208 1_555
O5 Si5 1.635422 1_555
O5 Si1 1.649208 1_555
O6 Si4 1.607604 1_545
O7 Si5 1.607604 1_565
O8 Si2 1.620751 1_555
O9 Si3 1.620751 1_555
O10 Si0 1.597026 1_445
O11 Si1 1.597026 1_665
O14 Si6 1.642189 1_555
O14 Si0 1.655914 1_455
O15 Si7 1.642189 1_555
O15 Si1 1.655914 1_655
O16 Si7 1.596342 1_554
O17 Si6 1.596342 1_556
O18 Si6 1.623778 1_555
O18 Si7 1.623778 1_454
O19 Si0 1.643094 1_455
O19 Si2 1.645372 1_555
O20 Si1 1.643094 1_655
O20 Si3 1.645372 1_555
O21 Si3 1.616752 1_555
O22 Si2 1.616752 1_555
