# generated using pymatgen
data_LiAsS2
_symmetry_space_group_name_H-M   'P 1'
_cell_length_a   6.54642543
_cell_length_b   6.54642543
_cell_length_c   5.36852991
_cell_angle_alpha   68.96894086
_cell_angle_beta   68.96894086
_cell_angle_gamma   48.67904726
_symmetry_Int_Tables_number   1
_chemical_formula_structural   LiAsS2
_chemical_formula_sum   'Li2 As2 S4'
_cell_volume   158.82116733
_cell_formula_units_Z   2
loop_
 _symmetry_equiv_pos_site_id
 _symmetry_equiv_pos_as_xyz
  1  'x, y, z'
loop_
 _atom_site_type_symbol
 _atom_site_label
 _atom_site_symmetry_multiplicity
 _atom_site_fract_x
 _atom_site_fract_y
 _atom_site_fract_z
 _atom_site_occupancy
  Li  Li0  1  0.76583900  0.23985099  0.99512805  1
  Li  Li1  1  0.23985099  0.76583900  0.49512805  1
  As  As0  1  0.93976410  0.50059506  0.32109260  1
  As  As1  1  0.50059506  0.93976410  0.82109260  1
  S  S0  1  0.75928680  0.28350840  0.47579063  1
  S  S1  1  0.28350840  0.75928680  0.97579063  1
  S  S2  1  0.96035230  0.55789136  0.71423973  1
  S  S3  1  0.55789136  0.96035230  0.21423973  1
loop_
_geom_bond_atom_site_label_1
_geom_bond_atom_site_label_2
_geom_bond_distance
_geom_bond_site_symmetry_2
Li0 S0 2.678797 1_556
Li0 S3 2.679521 1_546
Li0 S1 2.701020 1_645
Li0 S1 2.710525 1_555
Li0 S0 2.711941 1_555
Li0 S2 2.845982 1_555
Li1 S1 2.678797 1_555
Li1 S2 2.679521 1_455
Li1 S0 2.701020 1_465
Li1 S0 2.710525 1_555
Li1 S1 2.711941 1_554
Li1 S3 2.845982 1_555
As0 S0 2.184297 1_555
As0 S2 2.335108 1_555
As0 S3 2.343362 1_555
As0 S2 3.106015 1_554
As0 S3 3.178489 1_645
As1 S1 2.184297 1_555
As1 S3 2.335108 1_556
As1 S2 2.343362 1_555
As1 S3 3.106015 1_555
As1 S2 3.178489 1_465
