# generated using pymatgen
data_KNi3As3O11
_symmetry_space_group_name_H-M   'P 1'
_cell_length_a   9.84319100
_cell_length_b   10.25604000
_cell_length_c   10.41556577
_cell_angle_alpha   60.21672773
_cell_angle_beta   90.00000000
_cell_angle_gamma   90.00000000
_symmetry_Int_Tables_number   1
_chemical_formula_structural   KNi3As3O11
_chemical_formula_sum   'K4 Ni12 As12 O44'
_cell_volume   912.58522161
_cell_formula_units_Z   4
loop_
 _symmetry_equiv_pos_site_id
 _symmetry_equiv_pos_as_xyz
  1  'x, y, z'
loop_
 _atom_site_type_symbol
 _atom_site_label
 _atom_site_symmetry_multiplicity
 _atom_site_fract_x
 _atom_site_fract_y
 _atom_site_fract_z
 _atom_site_occupancy
  K  K0  1  0.76738100  0.40913900  0.08995800  1
  K  K1  1  0.73261900  0.40913900  0.58995800  1
  K  K2  1  0.23261900  0.59086100  0.91004200  1
  K  K3  1  0.26738100  0.59086100  0.41004200  1
  Ni  Ni0  1  0.36784200  0.08771200  0.23651300  1
  Ni  Ni1  1  0.63698500  0.73816300  0.11851100  1
  Ni  Ni2  1  0.87105900  0.09110600  0.90059500  1
  Ni  Ni3  1  0.37105900  0.90889400  0.59940500  1
  Ni  Ni4  1  0.36301500  0.26183700  0.88148900  1
  Ni  Ni5  1  0.62894100  0.09110600  0.40059500  1
  Ni  Ni6  1  0.86784200  0.91228800  0.26348700  1
  Ni  Ni7  1  0.63215800  0.91228800  0.76348700  1
  Ni  Ni8  1  0.13215800  0.08771200  0.73651300  1
  Ni  Ni9  1  0.86301500  0.73816300  0.61851100  1
  Ni  Ni10  1  0.13698500  0.26183700  0.38148900  1
  Ni  Ni11  1  0.12894100  0.90889400  0.09940500  1
  As  As0  1  0.34290200  0.90146500  0.93153800  1
  As  As1  1  0.42618500  0.22840600  0.58561500  1
  As  As2  1  0.44323100  0.40714000  0.24070000  1
  As  As3  1  0.94323100  0.59286000  0.25930000  1
  As  As4  1  0.07381500  0.22840600  0.08561500  1
  As  As5  1  0.55676900  0.59286000  0.75930000  1
  As  As6  1  0.84290200  0.09853500  0.56846200  1
  As  As7  1  0.92618500  0.77159400  0.91438500  1
  As  As8  1  0.15709800  0.90146500  0.43153800  1
  As  As9  1  0.57381500  0.77159400  0.41438500  1
  As  As10  1  0.05676900  0.40714000  0.74070000  1
  As  As11  1  0.65709800  0.09853500  0.06846200  1
  O  O0  1  0.24103200  0.06386800  0.41422600  1
  O  O1  1  0.01638400  0.25400900  0.22325700  1
  O  O2  1  0.01240100  0.38679700  0.92114400  1
  O  O3  1  0.27291400  0.91474400  0.77112200  1
  O  O4  1  0.25281300  0.23740300  0.56451400  1
  O  O5  1  0.49766000  0.24228200  0.24932100  1
  O  O6  1  0.48325900  0.10405800  0.06468800  1
  O  O7  1  0.23613000  0.76499900  0.58462900  1
  O  O8  1  0.50301700  0.07326500  0.58592700  1
  O  O9  1  0.99766000  0.75771800  0.25067900  1
  O  O10  1  0.46655800  0.44303200  0.88209600  1
  O  O11  1  0.75281300  0.76259700  0.93548600  1
  O  O12  1  0.49698300  0.92673500  0.41407300  1
  O  O13  1  0.25896800  0.06386800  0.91422600  1
  O  O14  1  0.72825500  0.58111900  0.77048200  1
  O  O15  1  0.48759900  0.38679700  0.42114400  1
  O  O16  1  0.98361600  0.74599100  0.77674300  1
  O  O17  1  0.00234000  0.24228200  0.74932100  1
  O  O18  1  0.50234000  0.75771800  0.75067900  1
  O  O19  1  0.74718700  0.76259700  0.43548600  1
  O  O20  1  0.96655800  0.55696800  0.61790400  1
  O  O21  1  0.51638400  0.74599100  0.27674300  1
  O  O22  1  0.72708600  0.08525600  0.22887800  1
  O  O23  1  0.01674100  0.10405800  0.56468800  1
  O  O24  1  0.03344200  0.44303200  0.38209600  1
  O  O25  1  0.24718700  0.23740300  0.06451300  1
  O  O26  1  0.27174500  0.41888100  0.22951800  1
  O  O27  1  0.75896800  0.93613200  0.58577400  1
  O  O28  1  0.77174500  0.58111900  0.27048200  1
  O  O29  1  0.99698300  0.07326500  0.08592700  1
  O  O30  1  0.00301700  0.92673500  0.91407300  1
  O  O31  1  0.22708600  0.91474400  0.27112200  1
  O  O32  1  0.51674100  0.89594200  0.93531200  1
  O  O33  1  0.76387000  0.23500100  0.41537100  1
  O  O34  1  0.51240100  0.61320300  0.57885600  1
  O  O35  1  0.98759900  0.61320300  0.07885600  1
  O  O36  1  0.53344200  0.55696800  0.11790400  1
  O  O37  1  0.73613000  0.23500100  0.91537100  1
  O  O38  1  0.48361600  0.25400900  0.72325700  1
  O  O39  1  0.77291400  0.08525600  0.72887800  1
  O  O40  1  0.74103200  0.93613200  0.08577400  1
  O  O41  1  0.26387000  0.76499900  0.08462900  1
  O  O42  1  0.98325900  0.89594200  0.43531200  1
  O  O43  1  0.22825500  0.41888100  0.72951800  1
loop_
_geom_bond_atom_site_label_1
_geom_bond_atom_site_label_2
_geom_bond_distance
_geom_bond_site_symmetry_2
K0 O36 2.850311 1_555
K0 O1 2.876077 1_655
K0 O14 2.915671 1_554
K0 O22 2.917219 1_555
K0 O33 2.943646 1_555
K0 O35 2.975202 1_555
K0 O2 3.059580 1_654
K0 O37 3.133257 1_554
K0 O5 3.148071 1_555
K0 O28 3.153259 1_555
K0 O11 3.155342 1_554
K0 O10 3.581660 1_554
K1 O20 2.850311 1_555
K1 O38 2.876077 1_555
K1 O28 2.915671 1_555
K1 O39 2.917219 1_555
K1 O37 2.943646 1_555
K1 O34 2.975202 1_555
K1 O15 3.059580 1_555
K1 O33 3.133257 1_555
K1 O17 3.148071 1_655
K1 O14 3.153259 1_555
K1 O19 3.155342 1_555
K1 O24 3.581660 1_655
K2 O10 2.850311 1_555
K2 O16 2.876077 1_455
K2 O26 2.915671 1_556
K2 O3 2.917219 1_555
K2 O7 2.943646 1_555
K2 O2 2.975202 1_555
K2 O35 3.059580 1_456
K2 O41 3.133257 1_556
K2 O18 3.148071 1_555
K2 O43 3.153259 1_555
K2 O25 3.155342 1_556
K2 O36 3.581660 1_556
K3 O24 2.850311 1_555
K3 O21 2.876077 1_555
K3 O43 2.915671 1_555
K3 O31 2.917219 1_555
K3 O41 2.943646 1_555
K3 O15 2.975202 1_555
K3 O34 3.059580 1_555
K3 O7 3.133257 1_555
K3 O9 3.148071 1_455
K3 O26 3.153259 1_555
K3 O4 3.155342 1_555
K3 O20 3.581660 1_455
Ni0 O6 2.055132 1_555
Ni0 O25 2.060220 1_555
Ni0 O5 2.091368 1_555
Ni0 O31 2.135698 1_545
Ni0 O0 2.143431 1_555
Ni0 O12 2.174523 1_545
Ni1 O21 2.064764 1_555
Ni1 O28 2.080012 1_555
Ni1 O36 2.122241 1_555
Ni1 O11 2.126523 1_554
Ni1 O32 2.143102 1_554
Ni1 O40 2.144720 1_555
Ni2 O17 2.032097 1_655
Ni2 O37 2.047247 1_555
Ni2 O39 2.059688 1_555
Ni2 O30 2.076926 1_645
Ni2 O40 2.199756 1_546
Ni2 O29 2.223766 1_556
Ni3 O18 2.032097 1_555
Ni3 O7 2.047247 1_555
Ni3 O3 2.059688 1_555
Ni3 O8 2.076926 1_565
Ni3 O0 2.199756 1_565
Ni3 O12 2.223766 1_555
Ni4 O38 2.064764 1_555
Ni4 O43 2.080012 1_555
Ni4 O10 2.122241 1_555
Ni4 O25 2.126514 1_556
Ni4 O6 2.143102 1_556
Ni4 O13 2.144720 1_555
Ni5 O5 2.032097 1_555
Ni5 O33 2.047247 1_555
Ni5 O22 2.059688 1_555
Ni5 O12 2.076926 1_545
Ni5 O27 2.199756 1_545
Ni5 O8 2.223766 1_555
Ni6 O42 2.055132 1_555
Ni6 O19 2.060215 1_555
Ni6 O9 2.091368 1_555
Ni6 O22 2.135698 1_565
Ni6 O40 2.143431 1_555
Ni6 O29 2.174523 1_565
Ni7 O32 2.055132 1_555
Ni7 O11 2.060215 1_555
Ni7 O18 2.091368 1_555
Ni7 O39 2.135698 1_565
Ni7 O27 2.143431 1_555
Ni7 O8 2.174523 1_565
Ni8 O23 2.055132 1_555
Ni8 O4 2.060215 1_555
Ni8 O17 2.091368 1_555
Ni8 O3 2.135698 1_545
Ni8 O13 2.143431 1_555
Ni8 O30 2.174523 1_545
Ni9 O16 2.064764 1_555
Ni9 O14 2.080012 1_555
Ni9 O20 2.122241 1_555
Ni9 O19 2.126523 1_555
Ni9 O42 2.143102 1_555
Ni9 O27 2.144720 1_555
Ni10 O1 2.064764 1_555
Ni10 O26 2.080012 1_555
Ni10 O24 2.122241 1_555
Ni10 O4 2.126523 1_555
Ni10 O23 2.143102 1_555
Ni10 O0 2.144720 1_555
Ni11 O9 2.032097 1_455
Ni11 O41 2.047247 1_555
Ni11 O31 2.059688 1_555
Ni11 O29 2.076926 1_465
Ni11 O13 2.199756 1_564
Ni11 O30 2.223766 1_554
As0 O41 1.699856 1_556
As0 O32 1.711873 1_555
As0 O3 1.748923 1_555
As0 O13 1.786332 1_565
As1 O38 1.678619 1_555
As1 O4 1.717244 1_555
As1 O8 1.760262 1_555
As1 O15 1.781666 1_555
As2 O36 1.683183 1_555
As2 O26 1.692150 1_555
As2 O5 1.732929 1_555
As2 O15 1.837648 1_555
As3 O24 1.683183 1_655
As3 O28 1.692150 1_555
As3 O9 1.732929 1_555
As3 O35 1.837648 1_555
As4 O1 1.678619 1_555
As4 O25 1.717245 1_555
As4 O29 1.760262 1_455
As4 O2 1.781666 1_554
As5 O10 1.683183 1_555
As5 O14 1.692150 1_555
As5 O18 1.732929 1_555
As5 O34 1.837648 1_555
As6 O33 1.699856 1_555
As6 O23 1.711873 1_655
As6 O39 1.748923 1_555
As6 O27 1.786332 1_545
As7 O16 1.678619 1_555
As7 O11 1.717244 1_555
As7 O30 1.760262 1_655
As7 O35 1.781666 1_556
As8 O7 1.699856 1_555
As8 O42 1.711873 1_455
As8 O31 1.748923 1_555
As8 O0 1.786332 1_565
As9 O21 1.678619 1_555
As9 O19 1.717244 1_555
As9 O12 1.760262 1_555
As9 O34 1.781666 1_555
As10 O20 1.683183 1_455
As10 O43 1.692150 1_555
As10 O17 1.732929 1_555
As10 O2 1.837648 1_555
As11 O37 1.699856 1_554
As11 O6 1.711873 1_555
As11 O22 1.748923 1_555
As11 O40 1.786332 1_545
