# generated using pymatgen
data_CsUN3O11
_symmetry_space_group_name_H-M   'P 1'
_cell_length_a   8.75884388
_cell_length_b   8.75884388
_cell_length_c   8.75884413
_cell_angle_alpha   68.59567669
_cell_angle_beta   68.59567669
_cell_angle_gamma   68.59568151
_symmetry_Int_Tables_number   1
_chemical_formula_structural   CsUN3O11
_chemical_formula_sum   'Cs2 U2 N6 O22'
_cell_volume   561.25481847
_cell_formula_units_Z   2
loop_
 _symmetry_equiv_pos_site_id
 _symmetry_equiv_pos_as_xyz
  1  'x, y, z'
loop_
 _atom_site_type_symbol
 _atom_site_label
 _atom_site_symmetry_multiplicity
 _atom_site_fract_x
 _atom_site_fract_y
 _atom_site_fract_z
 _atom_site_occupancy
  Cs  Cs0  1  0.50000000  0.50000000  0.50000000  1
  Cs  Cs1  1  0.00000000  0.00000000  0.00000000  1
  U  U0  1  0.75000000  0.75000000  0.75000000  1
  U  U1  1  0.25000000  0.25000000  0.25000000  1
  N  N0  1  0.45164800  0.04835200  0.75000000  1
  N  N1  1  0.04835200  0.75000000  0.45164800  1
  N  N2  1  0.75000000  0.45164800  0.04835200  1
  N  N3  1  0.54835200  0.95164800  0.25000000  1
  N  N4  1  0.95164800  0.25000000  0.54835200  1
  N  N5  1  0.25000000  0.54835200  0.95164800  1
  O  O0  1  0.65986800  0.65986800  0.65986800  1
  O  O1  1  0.84013200  0.84013200  0.84013200  1
  O  O2  1  0.34013200  0.34013200  0.34013200  1
  O  O3  1  0.15986800  0.15986800  0.15986800  1
  O  O4  1  0.32723200  0.17276800  0.75000000  1
  O  O5  1  0.17276800  0.75000000  0.32723200  1
  O  O6  1  0.75000000  0.32723200  0.17276800  1
  O  O7  1  0.67276800  0.82723200  0.25000000  1
  O  O8  1  0.82723200  0.25000000  0.67276800  1
  O  O9  1  0.25000000  0.67276800  0.82723200  1
  O  O10  1  0.58963300  0.04613700  0.62733000  1
  O  O11  1  0.04613700  0.62733000  0.58963300  1
  O  O12  1  0.62733000  0.58963300  0.04613700  1
  O  O13  1  0.45386300  0.91036700  0.87267000  1
  O  O14  1  0.91036700  0.87267000  0.45386300  1
  O  O15  1  0.87267000  0.45386300  0.91036700  1
  O  O16  1  0.41036700  0.95386300  0.37267000  1
  O  O17  1  0.95386300  0.37267000  0.41036700  1
  O  O18  1  0.37267000  0.41036700  0.95386300  1
  O  O19  1  0.54613700  0.08963300  0.12733000  1
  O  O20  1  0.08963300  0.12733000  0.54613700  1
  O  O21  1  0.12733000  0.54613700  0.08963300  1
loop_
_geom_bond_atom_site_label_1
_geom_bond_atom_site_label_2
_geom_bond_distance
_geom_bond_site_symmetry_2
Cs0 O2 3.189912 1_555
Cs0 O0 3.189912 1_555
Cs0 O7 3.386146 1_555
Cs0 O4 3.386146 1_555
Cs0 O9 3.386146 1_555
Cs0 O6 3.386146 1_555
Cs0 O8 3.386146 1_555
Cs0 O5 3.386146 1_555
Cs0 O16 3.576089 1_555
Cs0 O10 3.576089 1_555
Cs0 O18 3.576089 1_555
Cs0 O12 3.576089 1_555
Cs0 O17 3.576089 1_555
Cs0 O11 3.576089 1_555
Cs1 O3 3.189912 1_555
Cs1 O1 3.189912 1_444
Cs1 O4 3.386146 1_554
Cs1 O7 3.386146 1_445
Cs1 O5 3.386146 1_545
Cs1 O8 3.386146 1_454
Cs1 O6 3.386146 1_455
Cs1 O9 3.386146 1_544
Cs1 O13 3.576089 1_544
Cs1 O19 3.576089 1_455
Cs1 O14 3.576089 1_445
Cs1 O20 3.576089 1_554
Cs1 O15 3.576089 1_454
Cs1 O21 3.576089 1_545
N0 O4 1.228126 1_555
N0 O10 1.290654 1_555
N0 O13 1.290654 1_545
N1 O5 1.228126 1_555
N1 O11 1.290654 1_555
N1 O14 1.290654 1_455
N2 O6 1.228126 1_555
N2 O15 1.290654 1_554
N2 O12 1.290654 1_555
N3 O7 1.228126 1_555
N3 O19 1.290654 1_565
N3 O16 1.290654 1_555
N4 O8 1.228126 1_555
N4 O17 1.290654 1_555
N4 O20 1.290654 1_655
N5 O9 1.228126 1_555
N5 O21 1.290654 1_556
N5 O18 1.290654 1_555
O0 U0 1.798441 1_555
O1 U0 1.798441 1_555
O2 U1 1.798441 1_555
O3 U1 1.798441 1_555
O10 U0 2.502689 1_545
O11 U0 2.502689 1_455
O12 U0 2.502688 1_554
O13 U0 2.502689 1_555
O14 U0 2.502688 1_555
O15 U0 2.502689 1_555
O16 U1 2.502689 1_565
O17 U1 2.502689 1_655
O18 U1 2.502688 1_556
O19 U1 2.502689 1_555
O20 U1 2.502688 1_555
O21 U1 2.502689 1_555
