# generated using pymatgen
data_DyInNi
_symmetry_space_group_name_H-M   'P 1'
_cell_length_a   7.41260451
_cell_length_b   7.41260388
_cell_length_c   3.75160849
_cell_angle_alpha   90.00000000
_cell_angle_beta   90.00000000
_cell_angle_gamma   120.00000287
_symmetry_Int_Tables_number   1
_chemical_formula_structural   DyInNi
_chemical_formula_sum   'Dy3 In3 Ni3'
_cell_volume   178.52118094
_cell_formula_units_Z   3
loop_
 _symmetry_equiv_pos_site_id
 _symmetry_equiv_pos_as_xyz
  1  'x, y, z'
loop_
 _atom_site_type_symbol
 _atom_site_label
 _atom_site_symmetry_multiplicity
 _atom_site_fract_x
 _atom_site_fract_y
 _atom_site_fract_z
 _atom_site_occupancy
  Dy  Dy0  1  0.41218522  0.41218522  0.50000000  1
  Dy  Dy1  1  0.58781478  -0.00000000  0.50000000  1
  Dy  Dy2  1  1.00000000  0.58781478  0.50000000  1
  In  In0  1  0.74639332  0.74639332  -0.00000000  1
  In  In1  1  1.00000000  0.25360668  0.00000000  1
  In  In2  1  0.25360668  -0.00000000  0.00000000  1
  Ni  Ni0  1  0.66666700  0.33333300  0.00000000  1
  Ni  Ni1  1  0.33333300  0.66666700  0.00000000  1
  Ni  Ni2  1  -0.00000000  -0.00000000  0.50000000  1
loop_
_geom_bond_atom_site_label_1
_geom_bond_atom_site_label_2
_geom_bond_distance
_geom_bond_site_symmetry_2
Dy0 Ni1 2.919121 1_555
Dy0 Ni1 2.919121 1_556
Dy0 Ni0 2.919121 1_556
Dy0 Ni0 2.919121 1_555
Dy0 Ni2 3.055366 1_555
Dy0 In0 3.107397 1_555
Dy0 In0 3.107397 1_556
Dy0 In2 3.262535 1_556
Dy0 In2 3.262535 1_555
Dy0 In1 3.262535 1_456
Dy0 In1 3.262535 1_455
Dy1 Ni0 2.919116 1_556
Dy1 Ni0 2.919116 1_555
Dy1 Ni1 2.919117 1_546
Dy1 Ni1 2.919117 1_545
Dy1 Ni2 3.055366 1_655
Dy1 In2 3.107397 1_556
Dy1 In2 3.107397 1_555
Dy1 In1 3.262535 1_555
Dy1 In1 3.262535 1_556
Dy1 In0 3.262535 1_545
Dy1 In0 3.262535 1_546
Dy2 Ni1 2.919116 1_656
Dy2 Ni1 2.919116 1_655
Dy2 Ni0 2.919117 1_556
Dy2 Ni0 2.919117 1_555
Dy2 Ni2 3.055366 1_665
Dy2 In1 3.107397 1_555
Dy2 In1 3.107397 1_556
Dy2 In2 3.262535 1_665
Dy2 In2 3.262535 1_666
Dy2 In0 3.262535 1_555
Dy2 In0 3.262535 1_556
In0 Ni2 2.655676 1_664
In0 Ni2 2.655676 1_665
In0 Ni0 2.813309 1_555
In0 Ni1 2.813309 1_555
In0 In1 3.256058 1_565
In0 In2 3.256058 1_665
In1 Ni2 2.655676 1_654
In1 Ni2 2.655676 1_655
In1 Ni0 2.813302 1_555
In1 Ni1 2.813306 1_655
In1 In2 3.256058 1_655
In2 Ni2 2.655676 1_555
In2 Ni2 2.655676 1_554
In2 Ni1 2.813301 1_545
In2 Ni0 2.813306 1_555
