# generated using pymatgen
data_Na4VHO5
_symmetry_space_group_name_H-M   'P 1'
_cell_length_a   7.54427500
_cell_length_b   8.40770400
_cell_length_c   9.13524600
_cell_angle_alpha   90.00000000
_cell_angle_beta   90.00000000
_cell_angle_gamma   90.00000000
_symmetry_Int_Tables_number   1
_chemical_formula_structural   Na4VHO5
_chemical_formula_sum   'Na16 V4 H4 O20'
_cell_volume   579.44893784
_cell_formula_units_Z   4
loop_
 _symmetry_equiv_pos_site_id
 _symmetry_equiv_pos_as_xyz
  1  'x, y, z'
loop_
 _atom_site_type_symbol
 _atom_site_label
 _atom_site_symmetry_multiplicity
 _atom_site_fract_x
 _atom_site_fract_y
 _atom_site_fract_z
 _atom_site_occupancy
  Na  Na0  1  0.51265300  0.34643900  0.62911600  1
  Na  Na1  1  0.98734700  0.34643900  0.62911600  1
  Na  Na2  1  0.51265300  0.15356100  0.12911600  1
  Na  Na3  1  0.75000000  0.24066200  0.87311100  1
  Na  Na4  1  0.98734700  0.15356100  0.12911600  1
  Na  Na5  1  0.01265300  0.65356100  0.37088400  1
  Na  Na6  1  0.48734700  0.65356100  0.37088400  1
  Na  Na7  1  0.25000000  0.75933800  0.12688900  1
  Na  Na8  1  0.00000000  0.00000000  0.50000000  1
  Na  Na9  1  0.48734700  0.84643900  0.87088400  1
  Na  Na10  1  0.75000000  0.25933800  0.37311100  1
  Na  Na11  1  0.01265300  0.84643900  0.87088400  1
  Na  Na12  1  0.50000000  0.50000000  0.00000000  1
  Na  Na13  1  0.25000000  0.74066200  0.62688900  1
  Na  Na14  1  0.50000000  0.00000000  0.50000000  1
  Na  Na15  1  0.00000000  0.50000000  0.00000000  1
  V  V0  1  0.25000000  0.34954000  0.36293800  1
  V  V1  1  0.25000000  0.15046000  0.86293800  1
  V  V2  1  0.75000000  0.84954000  0.13706200  1
  V  V3  1  0.75000000  0.65046000  0.63706200  1
  H  H0  1  0.75000000  0.05268600  0.66579300  1
  H  H1  1  0.75000000  0.44731400  0.16579300  1
  H  H2  1  0.25000000  0.55268600  0.83420700  1
  H  H3  1  0.25000000  0.94731400  0.33420700  1
  O  O0  1  0.55969200  0.73180300  0.12898500  1
  O  O1  1  0.75000000  0.34365500  0.11803300  1
  O  O2  1  0.75000000  0.97776700  0.98456700  1
  O  O3  1  0.94030800  0.76819700  0.62898500  1
  O  O4  1  0.75000000  0.52223300  0.48456700  1
  O  O5  1  0.55969200  0.76819700  0.62898500  1
  O  O6  1  0.25000000  0.65634500  0.88196700  1
  O  O7  1  0.25000000  0.03316600  0.70646300  1
  O  O8  1  0.05969200  0.23180300  0.37101500  1
  O  O9  1  0.25000000  0.84365500  0.38196700  1
  O  O10  1  0.44030800  0.26819700  0.87101500  1
  O  O11  1  0.75000000  0.15634500  0.61803300  1
  O  O12  1  0.25000000  0.02223300  0.01543300  1
  O  O13  1  0.94030800  0.73180300  0.12898500  1
  O  O14  1  0.25000000  0.47776700  0.51543300  1
  O  O15  1  0.75000000  0.53316600  0.79353700  1
  O  O16  1  0.05969200  0.26819700  0.87101500  1
  O  O17  1  0.75000000  0.96683400  0.29353700  1
  O  O18  1  0.44030800  0.23180300  0.37101500  1
  O  O19  1  0.25000000  0.46683400  0.20646300  1
loop_
_geom_bond_atom_site_label_1
_geom_bond_atom_site_label_2
_geom_bond_distance
_geom_bond_site_symmetry_2
Na0 O10 2.369363 1_555
Na0 O11 2.402281 1_555
Na0 O14 2.494827 1_555
Na0 O18 2.605023 1_555
Na0 O4 2.671056 1_555
Na0 O15 2.815510 1_555
Na1 O16 2.369363 1_655
Na1 O11 2.402281 1_555
Na1 O14 2.494827 1_655
Na1 O8 2.605023 1_655
Na1 O4 2.671056 1_555
Na1 O15 2.815510 1_555
Na2 O18 2.369363 1_555
Na2 O1 2.402281 1_555
Na2 O12 2.494827 1_555
Na2 O10 2.605023 1_554
Na2 O2 2.671056 1_544
Na2 O17 2.815510 1_545
Na3 O16 2.347921 1_655
Na3 O10 2.347921 1_555
Na3 O1 2.399146 1_556
Na3 O2 2.433578 1_545
Na3 O11 2.435650 1_555
Na3 O15 2.564472 1_555
Na4 O8 2.369363 1_655
Na4 O1 2.402281 1_555
Na4 O12 2.494827 1_655
Na4 O16 2.605023 1_654
Na4 O2 2.671056 1_544
Na4 O17 2.815510 1_545
Na5 O13 2.369363 1_455
Na5 O9 2.402281 1_555
Na5 O4 2.494827 1_455
Na5 O3 2.605023 1_455
Na5 O14 2.671056 1_555
Na5 O19 2.815510 1_555
Na6 O0 2.369363 1_555
Na6 O9 2.402281 1_555
Na6 O4 2.494827 1_555
Na6 O5 2.605023 1_555
Na6 O14 2.671056 1_555
Na6 O19 2.815510 1_555
Na7 O0 2.347921 1_555
Na7 O13 2.347921 1_455
Na7 O6 2.399146 1_554
Na7 O12 2.433578 1_565
Na7 O9 2.435650 1_555
Na7 O19 2.564472 1_555
Na8 O8 2.321539 1_555
Na8 O3 2.321539 1_445
Na8 O11 2.539255 1_455
Na8 O9 2.539255 1_545
Na8 O7 2.681856 1_555
Na8 O17 2.681856 1_445
Na9 O5 2.369363 1_555
Na9 O6 2.402281 1_555
Na9 O2 2.494827 1_555
Na9 O0 2.605023 1_556
Na9 O12 2.671056 1_566
Na9 O7 2.815510 1_565
Na10 O8 2.347921 1_655
Na10 O18 2.347921 1_555
Na10 O11 2.399146 1_555
Na10 O4 2.433578 1_555
Na10 O1 2.435650 1_555
Na10 O17 2.564472 1_545
Na11 O3 2.369363 1_455
Na11 O6 2.402281 1_555
Na11 O2 2.494827 1_455
Na11 O13 2.605023 1_456
Na11 O12 2.671056 1_566
Na11 O7 2.815510 1_565
Na12 O0 2.321539 1_555
Na12 O10 2.321539 1_554
Na12 O1 2.539255 1_555
Na12 O6 2.539255 1_554
Na12 O19 2.681856 1_555
Na12 O15 2.681856 1_554
Na13 O5 2.347921 1_555
Na13 O3 2.347921 1_455
Na13 O9 2.399146 1_555
Na13 O14 2.433578 1_555
Na13 O6 2.435650 1_555
Na13 O7 2.564472 1_565
Na14 O18 2.321539 1_555
Na14 O5 2.321539 1_545
Na14 O11 2.539255 1_555
Na14 O9 2.539255 1_545
Na14 O7 2.681856 1_555
Na14 O17 2.681856 1_545
Na15 O13 2.321539 1_455
Na15 O16 2.321539 1_554
Na15 O6 2.539255 1_554
Na15 O1 2.539255 1_455
Na15 O19 2.681856 1_555
Na15 O15 2.681856 1_454
H0 O11 0.974643 1_555
H0 Na8 2.459140 1_655
H0 Na14 2.459140 1_555
H0 Na3 2.466713 1_555
H0 Na9 3.231662 1_545
H0 Na11 3.231662 1_645
H1 O1 0.974643 1_555
H1 Na12 2.459140 1_555
H1 Na15 2.459140 1_655
H1 Na10 2.466713 1_555
H1 Na6 3.231662 1_555
H1 Na5 3.231662 1_655
H2 O6 0.974643 1_555
H2 Na15 2.459140 1_556
H2 Na12 2.459140 1_556
H2 Na13 2.466713 1_555
H2 Na1 3.231662 1_455
H2 Na0 3.231662 1_555
H3 O9 0.974643 1_555
H3 Na14 2.459140 1_565
H3 Na8 2.459140 1_565
H3 Na7 2.466713 1_555
H3 Na2 3.231662 1_565
H3 Na4 3.231662 1_465
O0 V2 1.745474 1_555
O2 V2 1.761522 1_556
O3 V3 1.745474 1_555
O4 V3 1.761522 1_555
O5 V3 1.745474 1_555
O7 V1 1.736614 1_555
O8 V0 1.745474 1_555
O10 V1 1.745474 1_555
O12 V1 1.761522 1_554
O13 V2 1.745474 1_555
O14 V0 1.761522 1_555
O15 V3 1.736614 1_555
O16 V1 1.745474 1_555
O17 V2 1.736614 1_555
O18 V0 1.745474 1_555
O19 V0 1.736614 1_555
