# generated using pymatgen
data_Zr7P4
_symmetry_space_group_name_H-M   'P 1'
_cell_length_a   7.25278031
_cell_length_b   16.24012624
_cell_length_c   29.66260751
_cell_angle_alpha   104.53898113
_cell_angle_beta   89.99397719
_cell_angle_gamma   102.90623210
_symmetry_Int_Tables_number   1
_chemical_formula_structural   Zr7P4
_chemical_formula_sum   'Zr112 P64'
_cell_volume   3290.71579609
_cell_formula_units_Z   16
loop_
 _symmetry_equiv_pos_site_id
 _symmetry_equiv_pos_as_xyz
  1  'x, y, z'
loop_
 _atom_site_type_symbol
 _atom_site_label
 _atom_site_symmetry_multiplicity
 _atom_site_fract_x
 _atom_site_fract_y
 _atom_site_fract_z
 _atom_site_occupancy
  Zr  Zr0_0  1  0.33007264  0.16000331  0.48481464  1
  Zr  Zr0_1  1  0.33007265  0.16000331  0.98481464  1
  Zr  Zr0_2  1  0.33007265  0.66000331  0.48481464  1
  Zr  Zr0_3  1  0.33007265  0.66000330  0.98481464  1
  Zr  Zr0_4  1  0.83007264  0.16000331  0.48481464  1
  Zr  Zr0_5  1  0.83007264  0.16000331  0.98481464  1
  Zr  Zr0_6  1  0.83007265  0.66000331  0.48481464  1
  Zr  Zr0_7  1  0.83007264  0.66000330  0.98481464  1
  Zr  Zr1_0  1  0.00188983  0.00414723  0.33344722  1
  Zr  Zr1_1  1  0.00188983  0.00414723  0.83344722  1
  Zr  Zr1_2  1  0.00188983  0.50414722  0.33344722  1
  Zr  Zr1_3  1  0.00188983  0.50414722  0.83344722  1
  Zr  Zr1_4  1  0.50188983  0.00414723  0.33344722  1
  Zr  Zr1_5  1  0.50188983  0.00414723  0.83344722  1
  Zr  Zr1_6  1  0.50188983  0.50414722  0.33344722  1
  Zr  Zr1_7  1  0.50188983  0.50414722  0.83344722  1
  Zr  Zr2_0  1  0.41147805  0.32314540  0.22885646  1
  Zr  Zr2_1  1  0.41147805  0.32314540  0.72885646  1
  Zr  Zr2_2  1  0.41147805  0.82314540  0.22885646  1
  Zr  Zr2_3  1  0.41147805  0.82314540  0.72885646  1
  Zr  Zr2_4  1  0.91147805  0.32314540  0.22885646  1
  Zr  Zr2_5  1  0.91147805  0.32314540  0.72885646  1
  Zr  Zr2_6  1  0.91147805  0.82314540  0.22885646  1
  Zr  Zr2_7  1  0.91147805  0.82314540  0.72885645  1
  Zr  Zr3_0  1  0.08852195  0.17685460  0.27114354  1
  Zr  Zr3_1  1  0.08852195  0.17685460  0.77114355  1
  Zr  Zr3_2  1  0.08852195  0.67685460  0.27114354  1
  Zr  Zr3_3  1  0.08852195  0.67685460  0.77114355  1
  Zr  Zr3_4  1  0.58852195  0.17685460  0.27114354  1
  Zr  Zr3_5  1  0.58852195  0.17685460  0.77114355  1
  Zr  Zr3_6  1  0.58852195  0.67685460  0.27114354  1
  Zr  Zr3_7  1  0.58852195  0.67685460  0.77114355  1
  Zr  Zr4_0  1  0.21590119  0.43149700  0.41710801  1
  Zr  Zr4_1  1  0.21590119  0.43149700  0.91710801  1
  Zr  Zr4_2  1  0.21590119  0.93149700  0.41710801  1
  Zr  Zr4_3  1  0.21590119  0.93149700  0.91710801  1
  Zr  Zr4_4  1  0.71590119  0.43149700  0.41710801  1
  Zr  Zr4_5  1  0.71590119  0.43149700  0.91710801  1
  Zr  Zr4_6  1  0.71590119  0.93149700  0.41710801  1
  Zr  Zr4_7  1  0.71590118  0.93149700  0.91710801  1
  Zr  Zr5_0  1  0.00000000  0.00000000  0.00000000  1
  Zr  Zr5_1  1  0.00000000  0.00000000  0.50000000  1
  Zr  Zr5_2  1  0.00000000  0.50000000  0.00000000  1
  Zr  Zr5_3  1  0.00000000  0.50000000  0.50000000  1
  Zr  Zr5_4  1  0.50000000  0.00000000  0.00000000  1
  Zr  Zr5_5  1  0.50000000  0.00000000  0.50000000  1
  Zr  Zr5_6  1  0.50000000  0.50000000  0.00000000  1
  Zr  Zr5_7  1  0.50000000  0.50000000  0.50000000  1
  Zr  Zr6_0  1  0.28409882  0.06850300  0.08289199  1
  Zr  Zr6_1  1  0.28409882  0.06850300  0.58289199  1
  Zr  Zr6_2  1  0.28409882  0.56850300  0.08289199  1
  Zr  Zr6_3  1  0.28409882  0.56850300  0.58289199  1
  Zr  Zr6_4  1  0.78409882  0.06850300  0.08289199  1
  Zr  Zr6_5  1  0.78409881  0.06850300  0.58289199  1
  Zr  Zr6_6  1  0.78409882  0.56850300  0.08289199  1
  Zr  Zr6_7  1  0.78409882  0.56850300  0.58289199  1
  Zr  Zr7_0  1  0.10232823  0.20449129  0.39809631  1
  Zr  Zr7_1  1  0.10232823  0.20449129  0.89809631  1
  Zr  Zr7_2  1  0.10232823  0.70449130  0.39809631  1
  Zr  Zr7_3  1  0.10232823  0.70449129  0.89809631  1
  Zr  Zr7_4  1  0.60232823  0.20449130  0.39809631  1
  Zr  Zr7_5  1  0.60232822  0.20449130  0.89809631  1
  Zr  Zr7_6  1  0.60232823  0.70449130  0.39809631  1
  Zr  Zr7_7  1  0.60232823  0.70449129  0.89809631  1
  Zr  Zr8_0  1  0.49811017  0.49585277  0.16655278  1
  Zr  Zr8_1  1  0.49811017  0.49585277  0.66655278  1
  Zr  Zr8_2  1  0.49811017  0.99585278  0.16655278  1
  Zr  Zr8_3  1  0.49811017  0.99585278  0.66655278  1
  Zr  Zr8_4  1  0.99811017  0.49585278  0.16655278  1
  Zr  Zr8_5  1  0.99811017  0.49585278  0.66655278  1
  Zr  Zr8_6  1  0.99811017  0.99585278  0.16655278  1
  Zr  Zr8_7  1  0.99811017  0.99585277  0.66655278  1
  Zr  Zr9_0  1  0.09748086  0.19489072  0.15502742  1
  Zr  Zr9_1  1  0.09748086  0.19489072  0.65502742  1
  Zr  Zr9_2  1  0.09748086  0.69489072  0.15502742  1
  Zr  Zr9_3  1  0.09748086  0.69489072  0.65502742  1
  Zr  Zr9_4  1  0.59748085  0.19489072  0.15502742  1
  Zr  Zr9_5  1  0.59748086  0.19489072  0.65502742  1
  Zr  Zr9_6  1  0.59748086  0.69489072  0.15502742  1
  Zr  Zr9_7  1  0.59748086  0.69489072  0.65502742  1
  Zr  Zr10_0  1  0.39767178  0.29550870  0.10190369  1
  Zr  Zr10_1  1  0.39767178  0.29550870  0.60190369  1
  Zr  Zr10_2  1  0.39767178  0.79550871  0.10190369  1
  Zr  Zr10_3  1  0.39767178  0.79550871  0.60190369  1
  Zr  Zr10_4  1  0.89767177  0.29550870  0.10190369  1
  Zr  Zr10_5  1  0.89767177  0.29550871  0.60190369  1
  Zr  Zr10_6  1  0.89767178  0.79550871  0.10190369  1
  Zr  Zr10_7  1  0.89767178  0.79550871  0.60190369  1
  Zr  Zr11_0  1  0.40251914  0.30510928  0.34497258  1
  Zr  Zr11_1  1  0.40251915  0.30510928  0.84497259  1
  Zr  Zr11_2  1  0.40251915  0.80510928  0.34497259  1
  Zr  Zr11_3  1  0.40251915  0.80510928  0.84497259  1
  Zr  Zr11_4  1  0.90251914  0.30510928  0.34497259  1
  Zr  Zr11_5  1  0.90251915  0.30510928  0.84497259  1
  Zr  Zr11_6  1  0.90251915  0.80510928  0.34497258  1
  Zr  Zr11_7  1  0.90251914  0.80510928  0.84497259  1
  Zr  Zr12_0  1  0.16992736  0.33999670  0.01518536  1
  Zr  Zr12_1  1  0.16992736  0.33999669  0.51518536  1
  Zr  Zr12_2  1  0.16992736  0.83999669  0.01518536  1
  Zr  Zr12_3  1  0.16992736  0.83999670  0.51518536  1
  Zr  Zr12_4  1  0.66992736  0.33999670  0.01518536  1
  Zr  Zr12_5  1  0.66992736  0.33999670  0.51518536  1
  Zr  Zr12_6  1  0.66992736  0.83999669  0.01518536  1
  Zr  Zr12_7  1  0.66992736  0.83999670  0.51518536  1
  Zr  Zr13_0  1  0.25000000  0.00000000  0.25000000  1
  Zr  Zr13_1  1  0.25000000  0.00000000  0.75000000  1
  Zr  Zr13_2  1  0.25000000  0.50000000  0.25000000  1
  Zr  Zr13_3  1  0.25000000  0.50000000  0.75000000  1
  Zr  Zr13_4  1  0.75000000  0.00000000  0.25000000  1
  Zr  Zr13_5  1  0.75000000  0.00000000  0.75000000  1
  Zr  Zr13_6  1  0.75000000  0.50000000  0.25000000  1
  Zr  Zr13_7  1  0.75000000  0.50000000  0.75000000  1
  P  P0_0  1  0.18702288  0.37402009  0.30017287  1
  P  P0_1  1  0.18702288  0.37402009  0.80017287  1
  P  P0_2  1  0.18702288  0.87402009  0.30017287  1
  P  P0_3  1  0.18702288  0.87402009  0.80017287  1
  P  P0_4  1  0.68702287  0.37402009  0.30017287  1
  P  P0_5  1  0.68702288  0.37402009  0.80017287  1
  P  P0_6  1  0.68702288  0.87402009  0.30017287  1
  P  P0_7  1  0.68702288  0.87402009  0.80017287  1
  P  P1_0  1  0.03136293  0.06280846  0.42629644  1
  P  P1_1  1  0.03136293  0.06280846  0.92629644  1
  P  P1_2  1  0.03136293  0.56280846  0.42629644  1
  P  P1_3  1  0.03136293  0.56280846  0.92629644  1
  P  P1_4  1  0.53136293  0.06280846  0.42629644  1
  P  P1_5  1  0.53136293  0.06280846  0.92629644  1
  P  P1_6  1  0.53136293  0.56280846  0.42629644  1
  P  P1_7  1  0.53136293  0.56280846  0.92629644  1
  P  P2_0  1  0.31297713  0.12597991  0.19982713  1
  P  P2_1  1  0.31297713  0.12597991  0.69982713  1
  P  P2_2  1  0.31297713  0.62597991  0.19982713  1
  P  P2_3  1  0.31297713  0.62597991  0.69982713  1
  P  P2_4  1  0.81297712  0.12597991  0.19982713  1
  P  P2_5  1  0.81297713  0.12597991  0.69982713  1
  P  P2_6  1  0.81297713  0.62597991  0.19982713  1
  P  P2_7  1  0.81297713  0.62597991  0.69982713  1
  P  P3_0  1  0.31550565  0.13063814  0.32970865  1
  P  P3_1  1  0.31550565  0.13063814  0.82970865  1
  P  P3_2  1  0.31550566  0.63063814  0.32970865  1
  P  P3_3  1  0.31550566  0.63063814  0.82970865  1
  P  P3_4  1  0.81550565  0.13063814  0.32970865  1
  P  P3_5  1  0.81550565  0.13063814  0.82970865  1
  P  P3_6  1  0.81550566  0.63063814  0.32970865  1
  P  P3_7  1  0.81550565  0.63063814  0.82970865  1
  P  P4_0  1  0.46863707  0.43719104  0.07370357  1
  P  P4_1  1  0.46863707  0.43719104  0.57370357  1
  P  P4_2  1  0.46863707  0.93719104  0.07370357  1
  P  P4_3  1  0.46863707  0.93719104  0.57370357  1
  P  P4_4  1  0.96863707  0.43719104  0.07370356  1
  P  P4_5  1  0.96863707  0.43719104  0.57370357  1
  P  P4_6  1  0.96863707  0.93719104  0.07370356  1
  P  P4_7  1  0.96863707  0.93719104  0.57370357  1
  P  P5_0  1  0.08885508  0.17802158  0.05543471  1
  P  P5_1  1  0.08885508  0.17802158  0.55543471  1
  P  P5_2  1  0.08885508  0.67802158  0.05543471  1
  P  P5_3  1  0.08885508  0.67802158  0.55543471  1
  P  P5_4  1  0.58885508  0.17802158  0.05543471  1
  P  P5_5  1  0.58885508  0.17802158  0.55543471  1
  P  P5_6  1  0.58885508  0.67802158  0.05543471  1
  P  P5_7  1  0.58885508  0.67802158  0.55543471  1
  P  P6_0  1  0.18449435  0.36936186  0.17029136  1
  P  P6_1  1  0.18449435  0.36936186  0.67029136  1
  P  P6_2  1  0.18449435  0.86936186  0.17029136  1
  P  P6_3  1  0.18449435  0.86936186  0.67029136  1
  P  P6_4  1  0.68449435  0.36936186  0.17029136  1
  P  P6_5  1  0.68449435  0.36936186  0.67029136  1
  P  P6_6  1  0.68449435  0.86936186  0.17029136  1
  P  P6_7  1  0.68449435  0.86936186  0.67029136  1
  P  P7_0  1  0.41114492  0.32197842  0.44456530  1
  P  P7_1  1  0.41114492  0.32197842  0.94456530  1
  P  P7_2  1  0.41114493  0.82197842  0.44456530  1
  P  P7_3  1  0.41114493  0.82197842  0.94456530  1
  P  P7_4  1  0.91114492  0.32197842  0.44456530  1
  P  P7_5  1  0.91114493  0.32197842  0.94456530  1
  P  P7_6  1  0.91114492  0.82197842  0.44456530  1
  P  P7_7  1  0.91114492  0.82197842  0.94456530  1
loop_
_geom_bond_atom_site_label_1
_geom_bond_atom_site_label_2
_geom_bond_distance
_geom_bond_site_symmetry_2
Zr0_0 Zr5_5 3.239173 1_555
Zr0_0 Zr5_1 3.239528 1_555
Zr0_0 Zr12_5 3.300235 1_555
Zr0_0 Zr12_1 3.301449 1_555
Zr0_0 Zr7_4 3.366376 1_555
Zr0_0 Zr7_0 3.366622 1_555
Zr0_1 Zr5_4 3.239173 1_556
Zr0_1 Zr5_0 3.239528 1_556
Zr0_1 Zr12_4 3.300235 1_556
Zr0_1 Zr12_0 3.301449 1_556
Zr0_1 Zr7_5 3.366376 1_555
Zr0_1 Zr7_1 3.366622 1_555
Zr0_2 Zr5_7 3.239173 1_555
Zr0_2 Zr5_3 3.239528 1_555
Zr0_2 Zr12_7 3.300235 1_555
Zr0_2 Zr12_3 3.301449 1_555
Zr0_2 Zr7_6 3.366376 1_555
Zr0_2 Zr7_2 3.366622 1_555
Zr0_3 Zr5_6 3.239173 1_556
Zr0_3 Zr5_2 3.239528 1_556
Zr0_3 Zr12_6 3.300235 1_556
Zr0_3 Zr12_2 3.301449 1_556
Zr0_3 Zr7_7 3.366376 1_555
Zr0_3 Zr7_3 3.366622 1_555
Zr0_4 Zr5_1 3.239173 1_655
Zr0_4 Zr5_5 3.239528 1_555
Zr0_4 Zr12_1 3.300235 1_655
Zr0_4 Zr12_5 3.301449 1_555
Zr0_4 Zr7_0 3.366376 1_655
Zr0_4 Zr7_4 3.366622 1_555
Zr0_5 Zr5_0 3.239173 1_656
Zr0_5 Zr5_4 3.239528 1_556
Zr0_5 Zr12_0 3.300235 1_656
Zr0_5 Zr12_4 3.301449 1_556
Zr0_5 Zr7_1 3.366376 1_655
Zr0_5 Zr7_5 3.366622 1_555
Zr0_6 Zr5_3 3.239173 1_655
Zr0_6 Zr5_7 3.239528 1_555
Zr0_6 Zr12_3 3.300235 1_655
Zr0_6 Zr12_7 3.301449 1_555
Zr0_6 Zr7_2 3.366376 1_655
Zr0_6 Zr7_6 3.366622 1_555
Zr0_7 Zr5_2 3.239173 1_656
Zr0_7 Zr5_6 3.239528 1_556
Zr0_7 Zr12_2 3.300235 1_656
Zr0_7 Zr12_6 3.301449 1_556
Zr0_7 Zr7_3 3.366376 1_655
Zr0_7 Zr7_7 3.366622 1_555
Zr2_0 Zr9_0 3.148419 1_555
Zr2_0 Zr9_4 3.149380 1_555
Zr2_0 Zr3_0 3.422562 1_555
Zr2_0 Zr3_4 3.424302 1_555
Zr2_1 Zr9_1 3.148419 1_555
Zr2_1 Zr9_5 3.149380 1_555
Zr2_1 Zr3_1 3.422562 1_555
Zr2_1 Zr3_5 3.424302 1_555
Zr2_2 Zr9_2 3.148419 1_555
Zr2_2 Zr9_6 3.149380 1_555
Zr2_2 Zr3_2 3.422562 1_555
Zr2_2 Zr3_6 3.424302 1_555
Zr2_3 Zr9_3 3.148419 1_555
Zr2_3 Zr9_7 3.149380 1_555
Zr2_3 Zr3_3 3.422562 1_555
Zr2_3 Zr3_7 3.424302 1_555
Zr2_4 Zr9_4 3.148419 1_555
Zr2_4 Zr9_0 3.149380 1_655
Zr2_4 Zr3_4 3.422562 1_555
Zr2_4 Zr3_0 3.424302 1_655
Zr2_5 Zr9_5 3.148419 1_555
Zr2_5 Zr9_1 3.149380 1_655
Zr2_5 Zr3_5 3.422562 1_555
Zr2_5 Zr3_1 3.424302 1_655
Zr2_6 Zr9_6 3.148419 1_555
Zr2_6 Zr9_2 3.149380 1_655
Zr2_6 Zr3_6 3.422562 1_555
Zr2_6 Zr3_2 3.424302 1_655
Zr2_7 Zr9_7 3.148419 1_555
Zr2_7 Zr9_3 3.149380 1_655
Zr2_7 Zr3_7 3.422562 1_555
Zr2_7 Zr3_3 3.424302 1_655
Zr4_0 Zr5_7 3.022032 1_555
Zr4_0 Zr5_3 3.023128 1_555
Zr4_1 Zr5_6 3.022032 1_556
Zr4_1 Zr5_2 3.023128 1_556
Zr4_2 Zr5_5 3.022032 1_565
Zr4_2 Zr5_1 3.023128 1_565
Zr4_3 Zr5_4 3.022032 1_566
Zr4_3 Zr5_0 3.023128 1_566
Zr4_4 Zr5_3 3.022032 1_655
Zr4_4 Zr5_7 3.023128 1_555
Zr4_5 Zr5_2 3.022032 1_656
Zr4_5 Zr5_6 3.023128 1_556
Zr4_6 Zr5_1 3.022032 1_665
Zr4_6 Zr5_5 3.023128 1_565
Zr4_7 Zr5_0 3.022032 1_666
Zr4_7 Zr5_4 3.023128 1_566
Zr5_0 Zr6_0 3.022032 1_555
Zr5_0 Zr6_4 3.023128 1_455
Zr5_1 Zr6_1 3.022032 1_555
Zr5_1 Zr6_5 3.023128 1_455
Zr5_2 Zr6_2 3.022032 1_555
Zr5_2 Zr6_6 3.023128 1_455
Zr5_3 Zr6_3 3.022032 1_555
Zr5_3 Zr6_7 3.023128 1_455
Zr5_4 Zr6_4 3.022032 1_555
Zr5_4 Zr6_0 3.023128 1_555
Zr5_5 Zr6_5 3.022032 1_555
Zr5_5 Zr6_1 3.023128 1_555
Zr5_6 Zr6_6 3.022032 1_555
Zr5_6 Zr6_2 3.023128 1_555
Zr5_7 Zr6_7 3.022032 1_555
Zr5_7 Zr6_3 3.023128 1_555
Zr6_0 Zr9_0 3.107844 1_555
Zr6_0 Zr9_4 3.109560 1_555
Zr6_1 Zr9_1 3.107844 1_555
Zr6_1 Zr9_5 3.109560 1_555
Zr6_2 Zr9_2 3.107844 1_555
Zr6_2 Zr9_6 3.109560 1_555
Zr6_3 Zr9_3 3.107844 1_555
Zr6_3 Zr9_7 3.109560 1_555
Zr6_4 Zr9_4 3.107844 1_555
Zr6_4 Zr9_0 3.109560 1_655
Zr6_5 Zr9_5 3.107844 1_555
Zr6_5 Zr9_1 3.109560 1_655
Zr6_6 Zr9_6 3.107844 1_555
Zr6_6 Zr9_2 3.109560 1_655
Zr6_7 Zr9_7 3.107844 1_555
Zr6_7 Zr9_3 3.109560 1_655
Zr8_0 Zr9_6 3.255584 1_555
Zr8_1 Zr9_7 3.255584 1_555
Zr8_2 Zr9_4 3.255584 1_565
Zr8_3 Zr9_5 3.255584 1_565
Zr8_4 Zr9_2 3.255584 1_655
Zr8_5 Zr9_3 3.255584 1_655
Zr8_6 Zr9_0 3.255584 1_665
Zr8_7 Zr9_1 3.255584 1_665
Zr10_0 Zr9_0 3.097794 1_555
Zr10_0 Zr9_4 3.099101 1_555
Zr10_0 Zr12_4 3.366376 1_555
Zr10_0 Zr12_0 3.366622 1_555
Zr10_1 Zr9_1 3.097794 1_555
Zr10_1 Zr9_5 3.099101 1_555
Zr10_1 Zr12_5 3.366376 1_555
Zr10_1 Zr12_1 3.366622 1_555
Zr10_2 Zr9_2 3.097794 1_555
Zr10_2 Zr9_6 3.099101 1_555
Zr10_2 Zr12_6 3.366376 1_555
Zr10_2 Zr12_2 3.366622 1_555
Zr10_3 Zr9_3 3.097794 1_555
Zr10_3 Zr9_7 3.099101 1_555
Zr10_3 Zr12_7 3.366376 1_555
Zr10_3 Zr12_3 3.366622 1_555
Zr10_4 Zr9_4 3.097794 1_555
Zr10_4 Zr9_0 3.099101 1_655
Zr10_4 Zr12_0 3.366376 1_655
Zr10_4 Zr12_4 3.366622 1_555
Zr10_5 Zr9_5 3.097794 1_555
Zr10_5 Zr9_1 3.099101 1_655
Zr10_5 Zr12_1 3.366376 1_655
Zr10_5 Zr12_5 3.366622 1_555
Zr10_6 Zr9_6 3.097794 1_555
Zr10_6 Zr9_2 3.099101 1_655
Zr10_6 Zr12_2 3.366376 1_655
Zr10_6 Zr12_6 3.366622 1_555
Zr10_7 Zr9_7 3.097794 1_555
Zr10_7 Zr9_3 3.099101 1_655
Zr10_7 Zr12_3 3.366376 1_655
Zr10_7 Zr12_7 3.366622 1_555
Zr11_0 Zr7_0 3.097794 1_555
Zr11_0 Zr7_4 3.099101 1_555
Zr11_0 Zr4_0 3.107844 1_555
Zr11_0 Zr4_4 3.109560 1_555
Zr11_0 Zr3_0 3.148419 1_555
Zr11_0 Zr3_4 3.149380 1_555
Zr11_0 Zr1_6 3.255584 1_555
Zr11_1 Zr7_1 3.097794 1_555
Zr11_1 Zr7_5 3.099101 1_555
Zr11_1 Zr4_1 3.107844 1_555
Zr11_1 Zr4_5 3.109560 1_555
Zr11_1 Zr3_1 3.148419 1_555
Zr11_1 Zr3_5 3.149380 1_555
Zr11_1 Zr1_7 3.255584 1_555
Zr11_2 Zr7_2 3.097794 1_555
Zr11_2 Zr7_6 3.099101 1_555
Zr11_2 Zr4_2 3.107844 1_555
Zr11_2 Zr4_6 3.109560 1_555
Zr11_2 Zr3_2 3.148419 1_555
Zr11_2 Zr3_6 3.149380 1_555
Zr11_2 Zr1_4 3.255584 1_565
Zr11_3 Zr7_3 3.097794 1_555
Zr11_3 Zr7_7 3.099101 1_555
Zr11_3 Zr4_3 3.107844 1_555
Zr11_3 Zr4_7 3.109560 1_555
Zr11_3 Zr3_3 3.148419 1_555
Zr11_3 Zr3_7 3.149380 1_555
Zr11_3 Zr1_5 3.255584 1_565
Zr11_4 Zr7_4 3.097794 1_555
Zr11_4 Zr7_0 3.099101 1_655
Zr11_4 Zr4_4 3.107844 1_555
Zr11_4 Zr4_0 3.109560 1_655
Zr11_4 Zr3_4 3.148419 1_555
Zr11_4 Zr3_0 3.149380 1_655
Zr11_4 Zr1_2 3.255584 1_655
Zr11_5 Zr7_5 3.097794 1_555
Zr11_5 Zr7_1 3.099101 1_655
Zr11_5 Zr4_5 3.107844 1_555
Zr11_5 Zr4_1 3.109560 1_655
Zr11_5 Zr3_5 3.148419 1_555
Zr11_5 Zr3_1 3.149380 1_655
Zr11_5 Zr1_3 3.255584 1_655
Zr11_6 Zr7_6 3.097794 1_555
Zr11_6 Zr7_2 3.099101 1_655
Zr11_6 Zr4_6 3.107844 1_555
Zr11_6 Zr4_2 3.109560 1_655
Zr11_6 Zr3_6 3.148419 1_555
Zr11_6 Zr3_2 3.149380 1_655
Zr11_6 Zr1_0 3.255584 1_665
Zr11_7 Zr7_7 3.097794 1_555
Zr11_7 Zr7_3 3.099101 1_655
Zr11_7 Zr4_7 3.107844 1_555
Zr11_7 Zr4_3 3.109560 1_655
Zr11_7 Zr3_7 3.148419 1_555
Zr11_7 Zr3_3 3.149380 1_655
Zr11_7 Zr1_1 3.255584 1_665
Zr12_0 Zr5_2 3.239173 1_555
Zr12_0 Zr5_6 3.239528 1_555
Zr12_1 Zr5_3 3.239173 1_555
Zr12_1 Zr5_7 3.239528 1_555
Zr12_2 Zr5_0 3.239173 1_565
Zr12_2 Zr5_4 3.239528 1_565
Zr12_3 Zr5_1 3.239173 1_565
Zr12_3 Zr5_5 3.239528 1_565
Zr12_4 Zr5_6 3.239173 1_555
Zr12_4 Zr5_2 3.239528 1_655
Zr12_5 Zr5_7 3.239173 1_555
Zr12_5 Zr5_3 3.239528 1_655
Zr12_6 Zr5_4 3.239173 1_565
Zr12_6 Zr5_0 3.239528 1_665
Zr12_7 Zr5_5 3.239173 1_565
Zr12_7 Zr5_1 3.239528 1_665
Zr13_0 Zr1_4 3.054719 1_555
Zr13_0 Zr8_6 3.054719 1_445
Zr13_0 Zr1_0 3.055997 1_555
Zr13_0 Zr8_2 3.055997 1_545
Zr13_0 Zr3_0 3.257643 1_555
Zr13_0 Zr2_2 3.257643 1_545
Zr13_0 Zr3_4 3.258295 1_555
Zr13_0 Zr2_6 3.258295 1_445
Zr13_0 Zr13_4 3.626390 1_555
Zr13_0 Zr13_4 3.626390 1_455
Zr13_1 Zr1_5 3.054719 1_555
Zr13_1 Zr8_7 3.054719 1_445
Zr13_1 Zr1_1 3.055997 1_555
Zr13_1 Zr8_3 3.055997 1_545
Zr13_1 Zr3_1 3.257643 1_555
Zr13_1 Zr2_3 3.257643 1_545
Zr13_1 Zr3_5 3.258295 1_555
Zr13_1 Zr2_7 3.258295 1_445
Zr13_1 Zr13_5 3.626390 1_455
Zr13_1 Zr13_5 3.626390 1_555
Zr13_2 Zr8_4 3.054719 1_455
Zr13_2 Zr1_6 3.054719 1_555
Zr13_2 Zr8_0 3.055997 1_555
Zr13_2 Zr1_2 3.055997 1_555
Zr13_2 Zr3_2 3.257643 1_555
Zr13_2 Zr2_0 3.257643 1_555
Zr13_2 Zr3_6 3.258295 1_555
Zr13_2 Zr2_4 3.258295 1_455
Zr13_2 Zr13_6 3.626390 1_555
Zr13_2 Zr13_6 3.626390 1_455
Zr13_3 Zr1_7 3.054719 1_555
Zr13_3 Zr8_5 3.054719 1_455
Zr13_3 Zr8_1 3.055997 1_555
Zr13_3 Zr1_3 3.055997 1_555
Zr13_3 Zr3_3 3.257643 1_555
Zr13_3 Zr2_1 3.257643 1_555
Zr13_3 Zr3_7 3.258295 1_555
Zr13_3 Zr2_5 3.258295 1_455
Zr13_3 Zr13_7 3.626390 1_555
Zr13_3 Zr13_7 3.626390 1_455
Zr13_4 Zr8_2 3.054719 1_545
Zr13_4 Zr1_0 3.054719 1_655
Zr13_4 Zr8_6 3.055997 1_545
Zr13_4 Zr1_4 3.055997 1_555
Zr13_4 Zr3_4 3.257643 1_555
Zr13_4 Zr2_6 3.257643 1_545
Zr13_4 Zr3_0 3.258295 1_655
Zr13_4 Zr2_2 3.258295 1_545
Zr13_5 Zr1_1 3.054719 1_655
Zr13_5 Zr8_3 3.054719 1_545
Zr13_5 Zr1_5 3.055997 1_555
Zr13_5 Zr8_7 3.055997 1_545
Zr13_5 Zr3_5 3.257643 1_555
Zr13_5 Zr2_7 3.257643 1_545
Zr13_5 Zr3_1 3.258295 1_655
Zr13_5 Zr2_3 3.258295 1_545
Zr13_6 Zr8_0 3.054719 1_555
Zr13_6 Zr1_2 3.054719 1_655
Zr13_6 Zr1_6 3.055997 1_555
Zr13_6 Zr8_4 3.055997 1_555
Zr13_6 Zr3_6 3.257643 1_555
Zr13_6 Zr2_4 3.257643 1_555
Zr13_6 Zr3_2 3.258295 1_655
Zr13_6 Zr2_0 3.258295 1_555
Zr13_7 Zr8_1 3.054719 1_555
Zr13_7 Zr1_3 3.054719 1_655
Zr13_7 Zr1_7 3.055997 1_555
Zr13_7 Zr8_5 3.055997 1_555
Zr13_7 Zr3_7 3.257643 1_555
Zr13_7 Zr2_5 3.257643 1_555
Zr13_7 Zr3_3 3.258295 1_655
Zr13_7 Zr2_1 3.258295 1_555
P0_0 Zr11_0 2.643788 1_555
P0_0 Zr11_4 2.643988 1_455
P0_0 Zr1_6 2.729951 1_555
P0_0 Zr1_2 2.731869 1_555
P0_0 Zr2_0 2.744156 1_555
P0_0 Zr2_4 2.745416 1_455
P0_0 Zr13_2 2.778585 1_555
P0_0 Zr3_0 3.016379 1_555
P0_0 Zr4_0 3.351656 1_555
P0_1 Zr11_1 2.643788 1_555
P0_1 Zr11_5 2.643988 1_455
P0_1 Zr1_7 2.729951 1_555
P0_1 Zr1_3 2.731869 1_555
P0_1 Zr2_1 2.744156 1_555
P0_1 Zr2_5 2.745416 1_455
P0_1 Zr13_3 2.778585 1_555
P0_1 Zr3_1 3.016379 1_555
P0_1 Zr4_1 3.351656 1_555
P0_2 Zr11_2 2.643788 1_555
P0_2 Zr11_6 2.643988 1_455
P0_2 Zr1_4 2.729951 1_565
P0_2 Zr1_0 2.731869 1_565
P0_2 Zr2_2 2.744156 1_555
P0_2 Zr2_6 2.745416 1_455
P0_2 Zr13_0 2.778585 1_565
P0_2 Zr3_2 3.016379 1_555
P0_2 Zr4_2 3.351656 1_555
P0_3 Zr11_3 2.643788 1_555
P0_3 Zr11_7 2.643988 1_455
P0_3 Zr1_5 2.729951 1_565
P0_3 Zr1_1 2.731869 1_565
P0_3 Zr2_3 2.744156 1_555
P0_3 Zr2_7 2.745416 1_455
P0_3 Zr13_1 2.778585 1_565
P0_3 Zr3_3 3.016379 1_555
P0_3 Zr4_3 3.351656 1_555
P0_4 Zr11_4 2.643788 1_555
P0_4 Zr11_0 2.643988 1_555
P0_4 Zr1_2 2.729951 1_655
P0_4 Zr1_6 2.731869 1_555
P0_4 Zr2_4 2.744156 1_555
P0_4 Zr2_0 2.745416 1_555
P0_4 Zr13_6 2.778585 1_555
P0_4 Zr3_4 3.016379 1_555
P0_4 Zr4_4 3.351656 1_555
P0_5 Zr11_5 2.643788 1_555
P0_5 Zr11_1 2.643988 1_555
P0_5 Zr1_3 2.729951 1_655
P0_5 Zr1_7 2.731869 1_555
P0_5 Zr2_5 2.744156 1_555
P0_5 Zr2_1 2.745416 1_555
P0_5 Zr13_7 2.778585 1_555
P0_5 Zr3_5 3.016379 1_555
P0_5 Zr4_5 3.351656 1_555
P0_6 Zr11_6 2.643788 1_555
P0_6 Zr11_2 2.643988 1_555
P0_6 Zr1_0 2.729951 1_665
P0_6 Zr1_4 2.731869 1_565
P0_6 Zr2_6 2.744156 1_555
P0_6 Zr2_2 2.745416 1_555
P0_6 Zr13_4 2.778585 1_565
P0_6 Zr3_6 3.016379 1_555
P0_6 Zr4_6 3.351656 1_555
P0_7 Zr11_7 2.643788 1_555
P0_7 Zr11_3 2.643988 1_555
P0_7 Zr1_1 2.729951 1_665
P0_7 Zr1_5 2.731869 1_565
P0_7 Zr2_7 2.744156 1_555
P0_7 Zr2_3 2.745416 1_555
P0_7 Zr13_5 2.778585 1_565
P0_7 Zr3_7 3.016379 1_555
P0_7 Zr4_7 3.351656 1_555
P1_0 Zr7_0 2.587704 1_555
P1_0 Zr5_1 2.624444 1_555
P1_0 Zr1_0 2.670284 1_555
P1_0 Zr0_4 2.699838 1_455
P1_0 Zr0_0 2.701054 1_555
P1_0 Zr4_6 2.717623 1_445
P1_0 Zr4_2 2.719626 1_545
P1_1 Zr7_1 2.587704 1_555
P1_1 Zr5_0 2.624444 1_556
P1_1 Zr1_1 2.670284 1_555
P1_1 Zr0_5 2.699838 1_455
P1_1 Zr0_1 2.701054 1_555
P1_1 Zr4_7 2.717623 1_445
P1_1 Zr4_3 2.719626 1_545
P1_2 Zr7_2 2.587704 1_555
P1_2 Zr5_3 2.624444 1_555
P1_2 Zr1_2 2.670284 1_555
P1_2 Zr0_6 2.699838 1_455
P1_2 Zr0_2 2.701054 1_555
P1_2 Zr4_4 2.717623 1_455
P1_2 Zr4_0 2.719626 1_555
P1_3 Zr7_3 2.587704 1_555
P1_3 Zr5_2 2.624444 1_556
P1_3 Zr1_3 2.670284 1_555
P1_3 Zr0_7 2.699838 1_455
P1_3 Zr0_3 2.701054 1_555
P1_3 Zr4_5 2.717623 1_455
P1_3 Zr4_1 2.719626 1_555
P1_4 Zr7_4 2.587704 1_555
P1_4 Zr5_5 2.624444 1_555
P1_4 Zr1_4 2.670284 1_555
P1_4 Zr0_0 2.699838 1_555
P1_4 Zr0_4 2.701054 1_555
P1_4 Zr4_2 2.717623 1_545
P1_4 Zr4_6 2.719626 1_545
P1_5 Zr7_5 2.587704 1_555
P1_5 Zr5_4 2.624444 1_556
P1_5 Zr1_5 2.670284 1_555
P1_5 Zr0_1 2.699838 1_555
P1_5 Zr0_5 2.701054 1_555
P1_5 Zr4_3 2.717623 1_545
P1_5 Zr4_7 2.719626 1_545
P1_6 Zr7_6 2.587704 1_555
P1_6 Zr5_7 2.624444 1_555
P1_6 Zr1_6 2.670284 1_555
P1_6 Zr0_2 2.699838 1_555
P1_6 Zr0_6 2.701054 1_555
P1_6 Zr4_0 2.717623 1_555
P1_6 Zr4_4 2.719626 1_555
P1_7 Zr7_7 2.587704 1_555
P1_7 Zr5_6 2.624444 1_556
P1_7 Zr1_7 2.670284 1_555
P1_7 Zr0_3 2.699838 1_555
P1_7 Zr0_7 2.701054 1_555
P1_7 Zr4_1 2.717623 1_555
P1_7 Zr4_5 2.719626 1_555
P2_0 Zr9_0 2.643788 1_555
P2_0 Zr9_4 2.643988 1_555
P2_0 Zr8_6 2.729951 1_445
P2_0 Zr8_2 2.731869 1_545
P2_0 Zr3_0 2.744156 1_555
P2_0 Zr3_4 2.745416 1_555
P2_0 Zr13_0 2.778585 1_555
P2_0 Zr2_0 3.016379 1_555
P2_0 Zr6_0 3.351656 1_555
P2_1 Zr9_1 2.643788 1_555
P2_1 Zr9_5 2.643988 1_555
P2_1 Zr8_7 2.729951 1_445
P2_1 Zr8_3 2.731869 1_545
P2_1 Zr3_1 2.744156 1_555
P2_1 Zr3_5 2.745416 1_555
P2_1 Zr13_1 2.778585 1_555
P2_1 Zr2_1 3.016379 1_555
P2_1 Zr6_1 3.351656 1_555
P2_2 Zr9_2 2.643788 1_555
P2_2 Zr9_6 2.643988 1_555
P2_2 Zr8_4 2.729951 1_455
P2_2 Zr8_0 2.731869 1_555
P2_2 Zr3_2 2.744156 1_555
P2_2 Zr3_6 2.745416 1_555
P2_2 Zr13_2 2.778585 1_555
P2_2 Zr2_2 3.016379 1_555
P2_2 Zr6_2 3.351656 1_555
P2_3 Zr9_3 2.643788 1_555
P2_3 Zr9_7 2.643988 1_555
P2_3 Zr8_5 2.729951 1_455
P2_3 Zr8_1 2.731869 1_555
P2_3 Zr3_3 2.744156 1_555
P2_3 Zr3_7 2.745416 1_555
P2_3 Zr13_3 2.778585 1_555
P2_3 Zr2_3 3.016379 1_555
P2_3 Zr6_3 3.351656 1_555
P2_4 Zr9_4 2.643788 1_555
P2_4 Zr9_0 2.643988 1_655
P2_4 Zr8_2 2.729951 1_545
P2_4 Zr8_6 2.731869 1_545
P2_4 Zr3_4 2.744156 1_555
P2_4 Zr3_0 2.745416 1_655
P2_4 Zr13_4 2.778585 1_555
P2_4 Zr2_4 3.016379 1_555
P2_4 Zr6_4 3.351656 1_555
P2_5 Zr9_5 2.643788 1_555
P2_5 Zr9_1 2.643988 1_655
P2_5 Zr8_3 2.729951 1_545
P2_5 Zr8_7 2.731869 1_545
P2_5 Zr3_5 2.744156 1_555
P2_5 Zr3_1 2.745416 1_655
P2_5 Zr13_5 2.778585 1_555
P2_5 Zr2_5 3.016379 1_555
P2_5 Zr6_5 3.351656 1_555
P2_6 Zr9_6 2.643788 1_555
P2_6 Zr9_2 2.643988 1_655
P2_6 Zr8_0 2.729951 1_555
P2_6 Zr8_4 2.731869 1_555
P2_6 Zr3_6 2.744156 1_555
P2_6 Zr3_2 2.745416 1_655
P2_6 Zr13_6 2.778585 1_555
P2_6 Zr2_6 3.016379 1_555
P2_6 Zr6_6 3.351656 1_555
P2_7 Zr9_7 2.643788 1_555
P2_7 Zr9_3 2.643988 1_655
P2_7 Zr8_1 2.729951 1_555
P2_7 Zr8_5 2.731869 1_555
P2_7 Zr3_7 2.744156 1_555
P2_7 Zr3_3 2.745416 1_655
P2_7 Zr13_7 2.778585 1_555
P2_7 Zr2_7 3.016379 1_555
P2_7 Zr6_7 3.351656 1_555
P3_0 Zr11_0 2.681190 1_555
P3_0 Zr13_0 2.710812 1_555
P3_0 Zr1_4 2.722942 1_555
P3_0 Zr1_0 2.726343 1_555
P3_0 Zr3_4 2.737170 1_555
P3_0 Zr3_0 2.738353 1_555
P3_0 Zr7_4 2.746964 1_555
P3_0 Zr7_0 2.747770 1_555
P3_1 Zr11_1 2.681190 1_555
P3_1 Zr13_1 2.710812 1_555
P3_1 Zr1_5 2.722942 1_555
P3_1 Zr1_1 2.726343 1_555
P3_1 Zr3_5 2.737170 1_555
P3_1 Zr3_1 2.738353 1_555
P3_1 Zr7_5 2.746964 1_555
P3_1 Zr7_1 2.747770 1_555
P3_2 Zr11_2 2.681190 1_555
P3_2 Zr13_2 2.710812 1_555
P3_2 Zr1_6 2.722942 1_555
P3_2 Zr1_2 2.726343 1_555
P3_2 Zr3_6 2.737170 1_555
P3_2 Zr3_2 2.738353 1_555
P3_2 Zr7_6 2.746964 1_555
P3_2 Zr7_2 2.747770 1_555
P3_3 Zr11_3 2.681190 1_555
P3_3 Zr13_3 2.710812 1_555
P3_3 Zr1_7 2.722942 1_555
P3_3 Zr1_3 2.726343 1_555
P3_3 Zr3_7 2.737170 1_555
P3_3 Zr3_3 2.738353 1_555
P3_3 Zr7_7 2.746964 1_555
P3_3 Zr7_3 2.747770 1_555
P3_4 Zr11_4 2.681190 1_555
P3_4 Zr13_4 2.710812 1_555
P3_4 Zr1_0 2.722942 1_655
P3_4 Zr1_4 2.726343 1_555
P3_4 Zr3_0 2.737170 1_655
P3_4 Zr3_4 2.738353 1_555
P3_4 Zr7_0 2.746964 1_655
P3_4 Zr7_4 2.747770 1_555
P3_5 Zr11_5 2.681190 1_555
P3_5 Zr13_5 2.710812 1_555
P3_5 Zr1_1 2.722942 1_655
P3_5 Zr1_5 2.726343 1_555
P3_5 Zr3_1 2.737170 1_655
P3_5 Zr3_5 2.738353 1_555
P3_5 Zr7_1 2.746964 1_655
P3_5 Zr7_5 2.747770 1_555
P3_6 Zr11_6 2.681190 1_555
P3_6 Zr13_6 2.710812 1_555
P3_6 Zr1_2 2.722942 1_655
P3_6 Zr1_6 2.726343 1_555
P3_6 Zr3_2 2.737170 1_655
P3_6 Zr3_6 2.738353 1_555
P3_6 Zr7_2 2.746964 1_655
P3_6 Zr7_6 2.747770 1_555
P3_7 Zr11_7 2.681190 1_555
P3_7 Zr13_7 2.710812 1_555
P3_7 Zr1_3 2.722942 1_655
P3_7 Zr1_7 2.726343 1_555
P3_7 Zr3_3 2.737170 1_655
P3_7 Zr3_7 2.738353 1_555
P3_7 Zr7_3 2.746964 1_655
P3_7 Zr7_7 2.747770 1_555
P4_0 Zr10_0 2.587697 1_555
P4_0 Zr5_6 2.624448 1_555
P4_0 Zr8_0 2.670285 1_555
P4_0 Zr12_4 2.699834 1_555
P4_0 Zr12_0 2.701052 1_555
P4_0 Zr6_6 2.717627 1_555
P4_0 Zr6_2 2.719633 1_555
P4_1 Zr10_1 2.587697 1_555
P4_1 Zr5_7 2.624448 1_555
P4_1 Zr8_1 2.670285 1_555
P4_1 Zr12_5 2.699834 1_555
P4_1 Zr12_1 2.701052 1_555
P4_1 Zr6_7 2.717627 1_555
P4_1 Zr6_3 2.719633 1_555
P4_2 Zr10_2 2.587697 1_555
P4_2 Zr5_4 2.624448 1_565
P4_2 Zr8_2 2.670285 1_555
P4_2 Zr12_6 2.699834 1_555
P4_2 Zr12_2 2.701052 1_555
P4_2 Zr6_4 2.717627 1_565
P4_2 Zr6_0 2.719633 1_565
P4_3 Zr10_3 2.587697 1_555
P4_3 Zr5_5 2.624448 1_565
P4_3 Zr8_3 2.670285 1_555
P4_3 Zr12_7 2.699834 1_555
P4_3 Zr12_3 2.701052 1_555
P4_3 Zr6_5 2.717627 1_565
P4_3 Zr6_1 2.719633 1_565
P4_4 Zr10_4 2.587697 1_555
P4_4 Zr5_2 2.624448 1_655
P4_4 Zr8_4 2.670285 1_555
P4_4 Zr12_0 2.699834 1_655
P4_4 Zr12_4 2.701052 1_555
P4_4 Zr6_2 2.717627 1_655
P4_4 Zr6_6 2.719633 1_555
P4_5 Zr10_5 2.587697 1_555
P4_5 Zr5_3 2.624448 1_655
P4_5 Zr8_5 2.670285 1_555
P4_5 Zr12_1 2.699834 1_655
P4_5 Zr12_5 2.701052 1_555
P4_5 Zr6_3 2.717627 1_655
P4_5 Zr6_7 2.719633 1_555
P4_6 Zr10_6 2.587697 1_555
P4_6 Zr5_0 2.624448 1_665
P4_6 Zr8_6 2.670285 1_555
P4_6 Zr12_2 2.699834 1_655
P4_6 Zr12_6 2.701052 1_555
P4_6 Zr6_0 2.717627 1_665
P4_6 Zr6_4 2.719633 1_565
P4_7 Zr10_7 2.587697 1_555
P4_7 Zr5_1 2.624448 1_665
P4_7 Zr8_7 2.670285 1_555
P4_7 Zr12_3 2.699834 1_655
P4_7 Zr12_7 2.701052 1_555
P4_7 Zr6_1 2.717627 1_665
P4_7 Zr6_5 2.719633 1_565
P5_0 Zr10_4 2.706313 1_455
P5_0 Zr10_0 2.707070 1_555
P5_0 Zr0_5 2.728399 1_454
P5_0 Zr0_1 2.730313 1_554
P5_0 Zr6_4 2.771835 1_455
P5_0 Zr6_0 2.772111 1_555
P5_0 Zr5_0 2.873789 1_555
P5_0 Zr9_0 2.896927 1_555
P5_0 Zr12_0 3.094570 1_555
P5_1 Zr10_5 2.706313 1_455
P5_1 Zr10_1 2.707070 1_555
P5_1 Zr0_4 2.728399 1_455
P5_1 Zr0_0 2.730313 1_555
P5_1 Zr6_5 2.771835 1_455
P5_1 Zr6_1 2.772111 1_555
P5_1 Zr5_1 2.873789 1_555
P5_1 Zr9_1 2.896927 1_555
P5_1 Zr12_1 3.094570 1_555
P5_2 Zr10_6 2.706313 1_455
P5_2 Zr10_2 2.707070 1_555
P5_2 Zr0_7 2.728399 1_454
P5_2 Zr0_3 2.730313 1_554
P5_2 Zr6_6 2.771835 1_455
P5_2 Zr6_2 2.772111 1_555
P5_2 Zr5_2 2.873789 1_555
P5_2 Zr9_2 2.896927 1_555
P5_2 Zr12_2 3.094570 1_555
P5_3 Zr10_7 2.706313 1_455
P5_3 Zr10_3 2.707070 1_555
P5_3 Zr0_6 2.728399 1_455
P5_3 Zr0_2 2.730313 1_555
P5_3 Zr6_7 2.771835 1_455
P5_3 Zr6_3 2.772111 1_555
P5_3 Zr5_3 2.873789 1_555
P5_3 Zr9_3 2.896927 1_555
P5_3 Zr12_3 3.094570 1_555
P5_4 Zr10_0 2.706313 1_555
P5_4 Zr10_4 2.707070 1_555
P5_4 Zr0_1 2.728399 1_554
P5_4 Zr0_5 2.730313 1_554
P5_4 Zr6_0 2.771835 1_555
P5_4 Zr6_4 2.772111 1_555
P5_4 Zr5_4 2.873789 1_555
P5_4 Zr9_4 2.896927 1_555
P5_4 Zr12_4 3.094570 1_555
P5_5 Zr10_1 2.706313 1_555
P5_5 Zr10_5 2.707070 1_555
P5_5 Zr0_0 2.728399 1_555
P5_5 Zr0_4 2.730313 1_555
P5_5 Zr6_1 2.771835 1_555
P5_5 Zr6_5 2.772111 1_555
P5_5 Zr5_5 2.873789 1_555
P5_5 Zr9_5 2.896927 1_555
P5_5 Zr12_5 3.094570 1_555
P5_6 Zr10_2 2.706313 1_555
P5_6 Zr10_6 2.707070 1_555
P5_6 Zr0_3 2.728399 1_554
P5_6 Zr0_7 2.730313 1_554
P5_6 Zr6_2 2.771835 1_555
P5_6 Zr6_6 2.772111 1_555
P5_6 Zr5_6 2.873789 1_555
P5_6 Zr9_6 2.896927 1_555
P5_6 Zr12_6 3.094570 1_555
P5_7 Zr10_3 2.706313 1_555
P5_7 Zr10_7 2.707070 1_555
P5_7 Zr0_2 2.728399 1_555
P5_7 Zr0_6 2.730313 1_555
P5_7 Zr6_3 2.771835 1_555
P5_7 Zr6_7 2.772111 1_555
P5_7 Zr5_7 2.873789 1_555
P5_7 Zr9_7 2.896927 1_555
P5_7 Zr12_7 3.094570 1_555
P6_0 Zr9_0 2.681190 1_555
P6_0 Zr13_2 2.710812 1_555
P6_0 Zr8_4 2.722942 1_455
P6_0 Zr8_0 2.726343 1_555
P6_0 Zr2_4 2.737170 1_455
P6_0 Zr2_0 2.738353 1_555
P6_0 Zr10_4 2.746964 1_455
P6_0 Zr10_0 2.747770 1_555
P6_1 Zr9_1 2.681190 1_555
P6_1 Zr13_3 2.710812 1_555
P6_1 Zr8_5 2.722942 1_455
P6_1 Zr8_1 2.726343 1_555
P6_1 Zr2_5 2.737170 1_455
P6_1 Zr2_1 2.738353 1_555
P6_1 Zr10_5 2.746964 1_455
P6_1 Zr10_1 2.747770 1_555
P6_2 Zr9_2 2.681190 1_555
P6_2 Zr13_0 2.710812 1_565
P6_2 Zr8_6 2.722942 1_455
P6_2 Zr8_2 2.726343 1_555
P6_2 Zr2_6 2.737170 1_455
P6_2 Zr2_2 2.738353 1_555
P6_2 Zr10_6 2.746964 1_455
P6_2 Zr10_2 2.747770 1_555
P6_3 Zr9_3 2.681190 1_555
P6_3 Zr13_1 2.710812 1_565
P6_3 Zr8_7 2.722942 1_455
P6_3 Zr8_3 2.726343 1_555
P6_3 Zr2_7 2.737170 1_455
P6_3 Zr2_3 2.738353 1_555
P6_3 Zr10_7 2.746964 1_455
P6_3 Zr10_3 2.747770 1_555
P6_4 Zr9_4 2.681190 1_555
P6_4 Zr13_6 2.710812 1_555
P6_4 Zr8_0 2.722942 1_555
P6_4 Zr8_4 2.726343 1_555
P6_4 Zr2_0 2.737170 1_555
P6_4 Zr2_4 2.738353 1_555
P6_4 Zr10_0 2.746964 1_555
P6_4 Zr10_4 2.747770 1_555
P6_5 Zr9_5 2.681190 1_555
P6_5 Zr13_7 2.710812 1_555
P6_5 Zr8_1 2.722942 1_555
P6_5 Zr8_5 2.726343 1_555
P6_5 Zr2_1 2.737170 1_555
P6_5 Zr2_5 2.738353 1_555
P6_5 Zr10_1 2.746964 1_555
P6_5 Zr10_5 2.747770 1_555
P6_6 Zr9_6 2.681190 1_555
P6_6 Zr13_4 2.710812 1_565
P6_6 Zr8_2 2.722942 1_555
P6_6 Zr8_6 2.726343 1_555
P6_6 Zr2_2 2.737170 1_555
P6_6 Zr2_6 2.738353 1_555
P6_6 Zr10_2 2.746964 1_555
P6_6 Zr10_6 2.747770 1_555
P6_7 Zr9_7 2.681190 1_555
P6_7 Zr13_5 2.710812 1_565
P6_7 Zr8_3 2.722942 1_555
P6_7 Zr8_7 2.726343 1_555
P6_7 Zr2_3 2.737170 1_555
P6_7 Zr2_7 2.738353 1_555
P6_7 Zr10_3 2.746964 1_555
P6_7 Zr10_7 2.747770 1_555
P7_0 Zr7_4 2.706313 1_555
P7_0 Zr7_0 2.707070 1_555
P7_0 Zr12_5 2.728399 1_555
P7_0 Zr12_1 2.730313 1_555
P7_0 Zr4_4 2.771835 1_555
P7_0 Zr4_0 2.772111 1_555
P7_0 Zr5_7 2.873789 1_555
P7_0 Zr11_0 2.896927 1_555
P7_0 Zr0_0 3.094570 1_555
P7_1 Zr7_5 2.706313 1_555
P7_1 Zr7_1 2.707070 1_555
P7_1 Zr12_4 2.728399 1_556
P7_1 Zr12_0 2.730313 1_556
P7_1 Zr4_5 2.771835 1_555
P7_1 Zr4_1 2.772111 1_555
P7_1 Zr5_6 2.873789 1_556
P7_1 Zr11_1 2.896927 1_555
P7_1 Zr0_1 3.094570 1_555
P7_2 Zr7_6 2.706313 1_555
P7_2 Zr7_2 2.707070 1_555
P7_2 Zr12_7 2.728399 1_555
P7_2 Zr12_3 2.730313 1_555
P7_2 Zr4_6 2.771835 1_555
P7_2 Zr4_2 2.772111 1_555
P7_2 Zr5_5 2.873789 1_565
P7_2 Zr11_2 2.896927 1_555
P7_2 Zr0_2 3.094570 1_555
P7_3 Zr7_7 2.706313 1_555
P7_3 Zr7_3 2.707070 1_555
P7_3 Zr12_6 2.728399 1_556
P7_3 Zr12_2 2.730313 1_556
P7_3 Zr4_7 2.771835 1_555
P7_3 Zr4_3 2.772111 1_555
P7_3 Zr5_4 2.873789 1_566
P7_3 Zr11_3 2.896927 1_555
P7_3 Zr0_3 3.094570 1_555
P7_4 Zr7_0 2.706313 1_655
P7_4 Zr7_4 2.707070 1_555
P7_4 Zr12_1 2.728399 1_655
P7_4 Zr12_5 2.730313 1_555
P7_4 Zr4_0 2.771835 1_655
P7_4 Zr4_4 2.772111 1_555
P7_4 Zr5_3 2.873789 1_655
P7_4 Zr11_4 2.896927 1_555
P7_4 Zr0_4 3.094570 1_555
P7_5 Zr7_1 2.706313 1_655
P7_5 Zr7_5 2.707070 1_555
P7_5 Zr12_0 2.728399 1_656
P7_5 Zr12_4 2.730313 1_556
P7_5 Zr4_1 2.771835 1_655
P7_5 Zr4_5 2.772111 1_555
P7_5 Zr5_2 2.873789 1_656
P7_5 Zr11_5 2.896927 1_555
P7_5 Zr0_5 3.094570 1_555
P7_6 Zr7_2 2.706313 1_655
P7_6 Zr7_6 2.707070 1_555
P7_6 Zr12_3 2.728399 1_655
P7_6 Zr12_7 2.730313 1_555
P7_6 Zr4_2 2.771835 1_655
P7_6 Zr4_6 2.772111 1_555
P7_6 Zr5_1 2.873789 1_665
P7_6 Zr11_6 2.896927 1_555
P7_6 Zr0_6 3.094570 1_555
P7_7 Zr7_3 2.706313 1_655
P7_7 Zr7_7 2.707070 1_555
P7_7 Zr12_2 2.728399 1_656
P7_7 Zr12_6 2.730313 1_556
P7_7 Zr4_3 2.771835 1_655
P7_7 Zr4_7 2.772111 1_555
P7_7 Zr5_0 2.873789 1_666
P7_7 Zr11_7 2.896927 1_555
P7_7 Zr0_7 3.094570 1_555
