# generated using pymatgen
data_KLa(PSe3)2
_symmetry_space_group_name_H-M   'P 1'
_cell_length_a   7.94587100
_cell_length_b   12.01401100
_cell_length_c   12.64140334
_cell_angle_alpha   70.60571735
_cell_angle_beta   90.00000000
_cell_angle_gamma   90.00000000
_symmetry_Int_Tables_number   1
_chemical_formula_structural   KLa(PSe3)2
_chemical_formula_sum   'K4 La4 P8 Se24'
_cell_volume   1138.29363434
_cell_formula_units_Z   4
loop_
 _symmetry_equiv_pos_site_id
 _symmetry_equiv_pos_as_xyz
  1  'x, y, z'
loop_
 _atom_site_type_symbol
 _atom_site_label
 _atom_site_symmetry_multiplicity
 _atom_site_fract_x
 _atom_site_fract_y
 _atom_site_fract_z
 _atom_site_occupancy
  K  K0  1  0.58797400  0.87378700  0.87162700  1
  K  K1  1  0.08797400  0.62621300  0.12837300  1
  K  K2  1  0.41202600  0.12621300  0.12837300  1
  K  K3  1  0.91202600  0.37378700  0.87162700  1
  La  La0  1  0.60329200  0.40356400  0.35110000  1
  La  La1  1  0.39670800  0.59643600  0.64890000  1
  La  La2  1  0.89670800  0.90356400  0.35110000  1
  La  La3  1  0.10329200  0.09643600  0.64890000  1
  P  P0  1  0.40317700  0.74675800  0.32469400  1
  P  P1  1  0.88370100  0.23237600  0.21103900  1
  P  P2  1  0.59682300  0.25324200  0.67530600  1
  P  P3  1  0.09682300  0.24675800  0.32469400  1
  P  P4  1  0.11629900  0.76762400  0.78896100  1
  P  P5  1  0.38370100  0.26762400  0.78896100  1
  P  P6  1  0.90317700  0.75324200  0.67530600  1
  P  P7  1  0.61629900  0.73237600  0.21103900  1
  Se  Se0  1  0.71178000  0.63926800  0.78433300  1
  Se  Se1  1  0.97285700  0.31765700  0.44761600  1
  Se  Se2  1  0.28752900  0.08641600  0.86989000  1
  Se  Se3  1  0.81074100  0.63393400  0.32946600  1
  Se  Se4  1  0.21178000  0.86073200  0.21566700  1
  Se  Se5  1  0.78752900  0.41358400  0.13011000  1
  Se  Se6  1  0.68958200  0.43492000  0.58834000  1
  Se  Se7  1  0.48060800  0.37227200  0.88803200  1
  Se  Se8  1  0.18958200  0.06508000  0.41166000  1
  Se  Se9  1  0.81041800  0.93492000  0.58834000  1
  Se  Se10  1  0.52714300  0.81765700  0.44761600  1
  Se  Se11  1  0.31041800  0.56508000  0.41166000  1
  Se  Se12  1  0.02714300  0.68234300  0.55238400  1
  Se  Se13  1  0.47285700  0.18234300  0.55238400  1
  Se  Se14  1  0.51939200  0.62772800  0.11196800  1
  Se  Se15  1  0.68925900  0.13393400  0.32946600  1
  Se  Se16  1  0.21247100  0.58641600  0.86989000  1
  Se  Se17  1  0.28822000  0.36073200  0.21566700  1
  Se  Se18  1  0.31074100  0.86606600  0.67053400  1
  Se  Se19  1  0.71247100  0.91358400  0.13011000  1
  Se  Se20  1  0.01939200  0.87227200  0.88803200  1
  Se  Se21  1  0.18925900  0.36606600  0.67053400  1
  Se  Se22  1  0.78822000  0.13926800  0.78433300  1
  Se  Se23  1  0.98060800  0.12772800  0.11196800  1
loop_
_geom_bond_atom_site_label_1
_geom_bond_atom_site_label_2
_geom_bond_distance
_geom_bond_site_symmetry_2
K0 Se18 3.388223 1_555
K0 Se22 3.403641 1_565
K0 Se20 3.433942 1_655
K0 Se2 3.491135 1_565
K0 Se0 3.491247 1_555
K0 Se14 3.507396 1_556
K0 Se19 3.594704 1_556
K0 Se9 3.839443 1_555
K1 Se3 3.388223 1_455
K1 Se17 3.403641 1_555
K1 Se14 3.433942 1_555
K1 Se5 3.491135 1_455
K1 Se4 3.491247 1_555
K1 Se20 3.507396 1_554
K1 Se16 3.594704 1_554
K1 Se11 3.839443 1_555
K2 Se15 3.388223 1_555
K2 Se4 3.403641 1_545
K2 Se23 3.433942 1_455
K2 Se19 3.491135 1_545
K2 Se17 3.491247 1_555
K2 Se7 3.507396 1_554
K2 Se2 3.594704 1_554
K2 Se8 3.839443 1_555
K3 Se21 3.388223 1_655
K3 Se0 3.403641 1_555
K3 Se7 3.433942 1_555
K3 Se16 3.491135 1_655
K3 Se22 3.491247 1_555
K3 Se23 3.507396 1_556
K3 Se5 3.594704 1_556
K3 Se6 3.839443 1_555
La0 Se5 3.120665 1_555
La0 Se3 3.154233 1_555
La0 Se17 3.169965 1_555
La0 Se13 3.181356 1_555
La0 Se1 3.215690 1_555
La0 Se6 3.218172 1_555
La0 Se11 3.279272 1_555
La0 Se14 3.380644 1_555
La0 Se15 3.409262 1_555
La1 Se16 3.120665 1_555
La1 Se21 3.154233 1_555
La1 Se0 3.169965 1_555
La1 Se10 3.181356 1_555
La1 Se12 3.215690 1_555
La1 Se11 3.218172 1_555
La1 Se6 3.279272 1_555
La1 Se7 3.380644 1_555
La1 Se18 3.409262 1_555
La2 Se19 3.120665 1_555
La2 Se15 3.154233 1_565
La2 Se4 3.169965 1_655
La2 Se12 3.181356 1_655
La2 Se10 3.215690 1_555
La2 Se9 3.218172 1_555
La2 Se8 3.279272 1_665
La2 Se23 3.380644 1_565
La2 Se3 3.409262 1_555
La3 Se2 3.120665 1_555
La3 Se18 3.154233 1_545
La3 Se22 3.169965 1_455
La3 Se1 3.181356 1_455
La3 Se13 3.215690 1_555
La3 Se8 3.218172 1_555
La3 Se9 3.279272 1_445
La3 Se20 3.380644 1_545
La3 Se21 3.409262 1_555
P0 Se4 2.198645 1_555
P0 Se11 2.218630 1_555
P0 Se10 2.233709 1_555
P0 P7 2.264231 1_555
P1 Se23 2.188103 1_555
P1 Se15 2.202535 1_555
P1 Se5 2.211539 1_555
P1 P3 2.264231 1_655
P2 Se22 2.198645 1_555
P2 Se6 2.218630 1_555
P2 Se13 2.233709 1_555
P2 P5 2.264231 1_555
P3 Se17 2.198645 1_555
P3 Se8 2.218630 1_555
P3 Se1 2.233709 1_455
P4 Se20 2.188103 1_555
P4 Se18 2.202535 1_555
P4 Se16 2.211539 1_555
P4 P6 2.264231 1_455
P5 Se7 2.188103 1_555
P5 Se21 2.202535 1_555
P5 Se2 2.211539 1_555
P6 Se0 2.198645 1_555
P6 Se9 2.218630 1_555
P6 Se12 2.233709 1_655
P7 Se14 2.188103 1_555
P7 Se3 2.202535 1_555
P7 Se19 2.211539 1_555
