# generated using pymatgen
data_Cd5Mo2(P2O7)4
_symmetry_space_group_name_H-M   'P 1'
_cell_length_a   6.69116050
_cell_length_b   6.69116050
_cell_length_c   24.44349561
_cell_angle_alpha   84.71921275
_cell_angle_beta   84.71921275
_cell_angle_gamma   96.77827622
_symmetry_Int_Tables_number   1
_chemical_formula_structural   Cd5Mo2(P2O7)4
_chemical_formula_sum   'Cd10 Mo4 P16 O56'
_cell_volume   1076.23791487
_cell_formula_units_Z   2
loop_
 _symmetry_equiv_pos_site_id
 _symmetry_equiv_pos_as_xyz
  1  'x, y, z'
loop_
 _atom_site_type_symbol
 _atom_site_label
 _atom_site_symmetry_multiplicity
 _atom_site_fract_x
 _atom_site_fract_y
 _atom_site_fract_z
 _atom_site_occupancy
  Cd  Cd0  1  0.68168378  0.70240841  0.00790814  1
  Cd  Cd1  1  0.31831622  0.29759159  0.99209186  1
  Cd  Cd2  1  0.20140798  0.79859202  0.75000000  1
  Cd  Cd3  1  0.79859202  0.20140798  0.25000000  1
  Cd  Cd4  1  0.11515277  0.41507685  0.86318605  1
  Cd  Cd5  1  0.88484723  0.58492315  0.13681395  1
  Cd  Cd6  1  0.41507685  0.11515277  0.36318605  1
  Cd  Cd7  1  0.29759159  0.31831622  0.49209186  1
  Cd  Cd8  1  0.70240841  0.68168378  0.50790814  1
  Cd  Cd9  1  0.58492315  0.88484723  0.63681395  1
  Mo  Mo0  1  0.02403359  0.71925888  0.38280045  1
  Mo  Mo1  1  0.28074112  0.97596641  0.11719955  1
  Mo  Mo2  1  0.71925888  0.02403359  0.88280045  1
  Mo  Mo3  1  0.97596641  0.28074112  0.61719955  1
  P  P0  1  0.30710029  0.20412243  0.23107936  1
  P  P1  1  0.69289971  0.79587757  0.76892064  1
  P  P2  1  0.17619337  0.76682793  0.00709092  1
  P  P3  1  0.76682793  0.17619337  0.50709092  1
  P  P4  1  0.80658575  0.08288869  0.11282546  1
  P  P5  1  0.52325171  0.61800723  0.37366854  1
  P  P6  1  0.47674829  0.38199277  0.62633146  1
  P  P7  1  0.79587757  0.69289971  0.26892064  1
  P  P8  1  0.08288869  0.80658575  0.61282546  1
  P  P9  1  0.23317207  0.82380663  0.49290908  1
  P  P10  1  0.61800723  0.52325171  0.87366854  1
  P  P11  1  0.19341425  0.91711131  0.88717454  1
  P  P12  1  0.38199277  0.47674829  0.12633146  1
  P  P13  1  0.20412243  0.30710029  0.73107936  1
  P  P14  1  0.91711131  0.19341425  0.38717454  1
  P  P15  1  0.82380663  0.23317207  0.99290908  1
  O  O0  1  0.95521856  0.93133835  0.12544948  1
  O  O1  1  0.89677684  0.18597601  0.05197852  1
  O  O2  1  0.71666524  0.97700106  0.80218858  1
  O  O3  1  0.66634522  0.98248489  0.54012217  1
  O  O4  1  0.11744899  0.26204198  0.25803996  1
  O  O5  1  0.64237878  0.24087319  0.62915720  1
  O  O6  1  0.70420553  0.71084497  0.40195648  1
  O  O7  1  0.41104703  0.43548300  0.90117503  1
  O  O8  1  0.02299894  0.28333476  0.69781142  1
  O  O9  1  0.56451700  0.58895297  0.59882497  1
  O  O10  1  0.41154193  0.39486704  0.18711799  1
  O  O11  1  0.97700106  0.71666524  0.30218858  1
  O  O12  1  0.63497663  0.34439896  0.50307965  1
  O  O13  1  0.98319065  0.59779550  0.60593041  1
  O  O14  1  0.03226486  0.74154181  0.47180819  1
  O  O15  1  0.39486704  0.41154193  0.68711799  1
  O  O16  1  0.53748877  0.81727192  0.72816852  1
  O  O17  1  0.96773514  0.25845819  0.52819181  1
  O  O18  1  0.04478144  0.06866165  0.87455052  1
  O  O19  1  0.75912681  0.35762122  0.87084280  1
  O  O20  1  0.36502337  0.65560104  0.49692035  1
  O  O21  1  0.26204198  0.11744899  0.75803996  1
  O  O22  1  0.06866165  0.04478144  0.37455052  1
  O  O23  1  0.35762122  0.75912681  0.37084280  1
  O  O24  1  0.93133835  0.95521856  0.62544948  1
  O  O25  1  0.01751511  0.33365478  0.95987783  1
  O  O26  1  0.29579447  0.28915503  0.59804352  1
  O  O27  1  0.58895297  0.56451700  0.09882497  1
  O  O28  1  0.81402399  0.10322316  0.44802148  1
  O  O29  1  0.46251123  0.18272808  0.27183148  1
  O  O30  1  0.71084497  0.70420553  0.90195648  1
  O  O31  1  0.33365478  0.01751511  0.45987783  1
  O  O32  1  0.98248489  0.66634522  0.04012217  1
  O  O33  1  0.75308367  0.18058567  0.34928978  1
  O  O34  1  0.40220450  0.01680935  0.89406959  1
  O  O35  1  0.18597601  0.89677684  0.55197852  1
  O  O36  1  0.60513296  0.58845807  0.31288201  1
  O  O37  1  0.10322316  0.81402399  0.94802148  1
  O  O38  1  0.73795802  0.88255101  0.24196004  1
  O  O39  1  0.81941433  0.24691633  0.15071022  1
  O  O40  1  0.34439896  0.63497663  0.00307965  1
  O  O41  1  0.28333476  0.02299894  0.19781142  1
  O  O42  1  0.18058567  0.75308367  0.84928978  1
  O  O43  1  0.28915503  0.29579447  0.09804352  1
  O  O44  1  0.24691633  0.81941433  0.65071022  1
  O  O45  1  0.59779550  0.98319065  0.10593041  1
  O  O46  1  0.24087319  0.64237878  0.12915720  1
  O  O47  1  0.25845819  0.96773514  0.02819181  1
  O  O48  1  0.88255101  0.73795802  0.74196004  1
  O  O49  1  0.65560104  0.36502337  0.99692035  1
  O  O50  1  0.58845807  0.60513296  0.81288201  1
  O  O51  1  0.01680935  0.40220450  0.39406959  1
  O  O52  1  0.18272808  0.46251123  0.77183148  1
  O  O53  1  0.81727192  0.53748877  0.22816852  1
  O  O54  1  0.43548300  0.41104703  0.40117503  1
  O  O55  1  0.74154181  0.03226486  0.97180819  1
loop_
_geom_bond_atom_site_label_1
_geom_bond_atom_site_label_2
_geom_bond_distance
_geom_bond_site_symmetry_2
Cd0 O32 2.258464 1_555
Cd0 O40 2.264783 1_555
Cd0 O55 2.275571 1_564
Cd0 O49 2.286071 1_554
Cd0 O27 2.325644 1_555
Cd0 O30 2.578008 1_554
Cd1 O25 2.258464 1_555
Cd1 O49 2.264783 1_555
Cd1 O47 2.275571 1_546
Cd1 O40 2.286071 1_556
Cd1 O7 2.325644 1_555
Cd1 O43 2.578008 1_556
Cd2 O21 2.154686 1_565
Cd2 O48 2.154686 1_455
Cd2 O16 2.248964 1_555
Cd2 O52 2.248964 1_555
Cd2 O42 2.407098 1_555
Cd2 O44 2.407098 1_555
Cd3 O4 2.154686 1_655
Cd3 O38 2.154686 1_545
Cd3 O53 2.248964 1_555
Cd3 O29 2.248964 1_555
Cd3 O33 2.407098 1_555
Cd3 O39 2.407098 1_555
Cd4 O52 2.222924 1_555
Cd4 O42 2.240454 1_555
Cd4 O7 2.258043 1_555
Cd4 O18 2.295952 1_555
Cd4 O19 2.355065 1_455
Cd4 O25 2.388394 1_555
Cd5 O53 2.222924 1_555
Cd5 O39 2.240454 1_555
Cd5 O27 2.258043 1_555
Cd5 O0 2.295952 1_555
Cd5 O46 2.355065 1_655
Cd5 O32 2.388394 1_555
Cd6 O29 2.222924 1_555
Cd6 O33 2.240454 1_555
Cd6 O54 2.258043 1_555
Cd6 O22 2.295952 1_555
Cd6 O23 2.355065 1_545
Cd6 O31 2.388394 1_555
Cd7 O31 2.258464 1_555
Cd7 O20 2.264783 1_555
Cd7 O17 2.275571 1_455
Cd7 O12 2.286071 1_555
Cd7 O54 2.325644 1_555
Cd7 O26 2.578008 1_555
Cd8 O3 2.258464 1_555
Cd8 O12 2.264783 1_555
Cd8 O14 2.275571 1_655
Cd8 O20 2.286071 1_555
Cd8 O9 2.325644 1_555
Cd8 O6 2.578008 1_555
Cd9 O16 2.222924 1_555
Cd9 O44 2.240454 1_555
Cd9 O9 2.258043 1_555
Cd9 O24 2.295952 1_555
Cd9 O5 2.355065 1_565
Cd9 O3 2.388394 1_555
Mo0 O11 2.025119 1_455
Mo0 O51 2.108219 1_555
Mo0 O6 2.141113 1_455
Mo0 O22 2.151415 1_565
Mo0 O14 2.199680 1_555
Mo0 O23 2.205405 1_555
Mo1 O41 2.025119 1_565
Mo1 O45 2.108219 1_555
Mo1 O43 2.141113 1_565
Mo1 O0 2.151415 1_455
Mo1 O47 2.199680 1_555
Mo1 O46 2.205405 1_555
Mo2 O2 2.025119 1_545
Mo2 O34 2.108219 1_555
Mo2 O30 2.141113 1_545
Mo2 O18 2.151415 1_655
Mo2 O55 2.199680 1_555
Mo2 O19 2.205405 1_555
Mo3 O8 2.025119 1_655
Mo3 O13 2.108219 1_555
Mo3 O26 2.141113 1_655
Mo3 O24 2.151415 1_545
Mo3 O17 2.199680 1_555
Mo3 O5 2.205405 1_555
O0 P4 1.532823 1_565
O1 P15 1.582749 1_554
O1 P4 1.612375 1_555
O2 P1 1.521526 1_555
O3 P3 1.511833 1_565
O4 P0 1.484583 1_555
O5 P6 1.540694 1_555
O6 P5 1.544550 1_555
O7 P10 1.509500 1_555
O8 P13 1.521526 1_555
O9 P6 1.509500 1_555
O10 P12 1.573777 1_555
O10 P0 1.634257 1_555
O11 P7 1.521526 1_555
O12 P3 1.511518 1_555
O13 P8 1.506390 1_655
O14 P9 1.543174 1_555
O15 P6 1.573777 1_555
O15 P13 1.634257 1_555
O16 P1 1.514486 1_555
O17 P3 1.543174 1_555
O18 P11 1.532823 1_545
O19 P10 1.540694 1_555
O20 P9 1.511518 1_555
O21 P13 1.484583 1_555
O22 P14 1.532823 1_455
O23 P5 1.540694 1_555
O24 P8 1.532823 1_655
O25 P15 1.511833 1_455
O26 P6 1.544550 1_555
O27 P12 1.509500 1_555
O28 P3 1.582749 1_555
O28 P14 1.612375 1_555
O29 P0 1.514486 1_555
O30 P10 1.544550 1_555
O31 P9 1.511833 1_545
O32 P2 1.511833 1_655
O33 P14 1.499657 1_555
O34 P11 1.506390 1_545
O35 P9 1.582749 1_555
O35 P8 1.612375 1_555
O36 P5 1.573777 1_555
O36 P7 1.634257 1_555
O37 P2 1.582749 1_556
O37 P11 1.612375 1_555
O38 P7 1.484583 1_555
O39 P4 1.499657 1_555
O40 P2 1.511518 1_555
O41 P0 1.521526 1_555
O42 P11 1.499657 1_555
O43 P12 1.544550 1_555
O44 P8 1.499657 1_555
O45 P4 1.506390 1_565
O46 P12 1.540694 1_555
O47 P2 1.543174 1_555
O48 P1 1.484583 1_555
O49 P15 1.511518 1_555
O50 P10 1.573777 1_555
O50 P1 1.634257 1_555
O51 P14 1.506390 1_455
O52 P13 1.514486 1_555
O53 P7 1.514486 1_555
O54 P5 1.509500 1_555
O55 P15 1.543174 1_555
