# generated using pymatgen
data_ScH13Cl2O7
_symmetry_space_group_name_H-M   'P 1'
_cell_length_a   7.06730731
_cell_length_b   8.59377014
_cell_length_c   15.64023731
_cell_angle_alpha   90.00000000
_cell_angle_beta   90.00000000
_cell_angle_gamma   90.00000000
_symmetry_Int_Tables_number   1
_chemical_formula_structural   ScH13Cl2O7
_chemical_formula_sum   'Sc4 H52 Cl8 O28'
_cell_volume   949.90691224
_cell_formula_units_Z   4
loop_
 _symmetry_equiv_pos_site_id
 _symmetry_equiv_pos_as_xyz
  1  'x, y, z'
loop_
 _atom_site_type_symbol
 _atom_site_label
 _atom_site_symmetry_multiplicity
 _atom_site_fract_x
 _atom_site_fract_y
 _atom_site_fract_z
 _atom_site_occupancy
  Sc  Sc0  1  -0.00000000  0.63315755  0.41968264  1
  Sc  Sc1  1  -0.00000000  0.36684245  0.58031736  1
  Sc  Sc2  1  0.50000000  0.13315755  0.08031736  1
  Sc  Sc3  1  0.50000000  0.86684245  0.91968264  1
  H  H0  1  -0.00000000  0.78577678  0.25415919  1
  H  H1  1  -0.00000000  0.21422322  0.74584081  1
  H  H2  1  0.50000000  0.28577678  0.24584081  1
  H  H3  1  0.50000000  0.71422322  0.75415919  1
  H  H4  1  -0.00000000  0.92202770  0.32142223  1
  H  H5  1  -0.00000000  0.07797230  0.67857777  1
  H  H6  1  0.50000000  0.42202770  0.17857777  1
  H  H7  1  0.50000000  0.57797230  0.82142223  1
  H  H8  1  -0.00000000  0.31619961  0.40536246  1
  H  H9  1  -0.00000000  0.68380039  0.59463754  1
  H  H10  1  0.50000000  0.81619961  0.09463754  1
  H  H11  1  0.50000000  0.18380039  0.90536246  1
  H  H12  1  0.29475779  0.59555557  0.28966376  1
  H  H13  1  0.29475779  0.40444443  0.71033624  1
  H  H14  1  0.20524221  0.09555557  0.21033624  1
  H  H15  1  0.20524221  0.90444443  0.78966376  1
  H  H16  1  0.70524221  0.40444443  0.71033624  1
  H  H17  1  0.70524221  0.59555557  0.28966376  1
  H  H18  1  0.79475779  0.90444443  0.78966376  1
  H  H19  1  0.79475779  0.09555557  0.21033624  1
  H  H20  1  0.28140697  0.44612179  0.34733520  1
  H  H21  1  0.28140697  0.55387821  0.65266480  1
  H  H22  1  0.21859303  0.94612179  0.15266480  1
  H  H23  1  0.21859303  0.05387821  0.84733520  1
  H  H24  1  0.71859303  0.55387821  0.65266480  1
  H  H25  1  0.71859303  0.44612179  0.34733520  1
  H  H26  1  0.78140697  0.05387821  0.84733520  1
  H  H27  1  0.78140697  0.94612179  0.15266480  1
  H  H28  1  0.29345756  0.77307533  0.51166314  1
  H  H29  1  0.29345756  0.22692467  0.48833686  1
  H  H30  1  0.20654244  0.27307533  0.98833686  1
  H  H31  1  0.20654244  0.72692467  0.01166314  1
  H  H32  1  0.70654244  0.22692467  0.48833686  1
  H  H33  1  0.70654244  0.77307533  0.51166314  1
  H  H34  1  0.79345756  0.72692467  0.01166314  1
  H  H35  1  0.79345756  0.27307533  0.98833686  1
  H  H36  1  0.31997405  0.83647903  0.41715843  1
  H  H37  1  0.31997405  0.16352097  0.58284157  1
  H  H38  1  0.18002595  0.33647903  0.08284157  1
  H  H39  1  0.18002595  0.66352097  0.91715843  1
  H  H40  1  0.68002595  0.16352097  0.58284157  1
  H  H41  1  0.68002595  0.83647903  0.41715843  1
  H  H42  1  0.81997405  0.66352097  0.91715843  1
  H  H43  1  0.81997405  0.33647903  0.08284157  1
  H  H44  1  -0.00000000  0.52265365  0.14794333  1
  H  H45  1  -0.00000000  0.47734635  0.85205667  1
  H  H46  1  0.50000000  0.02265365  0.35205667  1
  H  H47  1  0.50000000  0.97734635  0.64794333  1
  H  H48  1  -0.00000000  0.36753811  0.20278585  1
  H  H49  1  -0.00000000  0.63246189  0.79721415  1
  H  H50  1  0.50000000  0.86753811  0.29721415  1
  H  H51  1  0.50000000  0.13246189  0.70278585  1
  Cl  Cl0  1  -0.00000000  0.16673825  0.29669523  1
  Cl  Cl1  1  -0.00000000  0.83326175  0.70330477  1
  Cl  Cl2  1  0.50000000  0.66673825  0.20330477  1
  Cl  Cl3  1  0.50000000  0.33326175  0.79669523  1
  Cl  Cl4  1  -0.00000000  0.76889371  0.11770746  1
  Cl  Cl5  1  -0.00000000  0.23110629  0.88229254  1
  Cl  Cl6  1  0.50000000  0.26889371  0.38229254  1
  Cl  Cl7  1  0.50000000  0.73110629  0.61770746  1
  O  O0  1  -0.00000000  0.80832230  0.31551656  1
  O  O1  1  -0.00000000  0.19167770  0.68448344  1
  O  O2  1  0.50000000  0.30832230  0.18448344  1
  O  O3  1  0.50000000  0.69167770  0.81551656  1
  O  O4  1  -0.00000000  0.39725048  0.44894264  1
  O  O5  1  -0.00000000  0.60274952  0.55105736  1
  O  O6  1  0.50000000  0.89725048  0.05105736  1
  O  O7  1  0.50000000  0.10274952  0.94894264  1
  O  O8  1  0.21218131  0.53918067  0.32978972  1
  O  O9  1  0.21218131  0.46081933  0.67021028  1
  O  O10  1  0.28781869  0.03918067  0.17021028  1
  O  O11  1  0.28781869  0.96081933  0.82978972  1
  O  O12  1  0.78781869  0.46081933  0.67021028  1
  O  O13  1  0.78781869  0.53918067  0.32978972  1
  O  O14  1  0.71218131  0.96081933  0.82978972  1
  O  O15  1  0.71218131  0.03918067  0.17021028  1
  O  O16  1  0.22859873  0.78949198  0.45736025  1
  O  O17  1  0.22859873  0.21050802  0.54263975  1
  O  O18  1  0.27140127  0.28949198  0.04263975  1
  O  O19  1  0.27140127  0.71050802  0.95736025  1
  O  O20  1  0.77140127  0.21050802  0.54263975  1
  O  O21  1  0.77140127  0.78949198  0.45736025  1
  O  O22  1  0.72859873  0.71050802  0.95736025  1
  O  O23  1  0.72859873  0.28949198  0.04263975  1
  O  O24  1  -0.00000000  0.40882098  0.14455516  1
  O  O25  1  -0.00000000  0.59117902  0.85544484  1
  O  O26  1  0.50000000  0.90882098  0.35544484  1
  O  O27  1  0.50000000  0.09117902  0.64455516  1
loop_
_geom_bond_atom_site_label_1
_geom_bond_atom_site_label_2
_geom_bond_distance
_geom_bond_site_symmetry_2
H0 O0 0.979008 1_555
H1 O1 0.979008 1_555
H2 O2 0.979008 1_555
H3 O3 0.979008 1_555
H4 O0 0.981514 1_555
H5 O1 0.981514 1_555
H6 O2 0.981514 1_555
H7 O3 0.981514 1_555
H8 O4 0.974547 1_555
H9 O5 0.974547 1_555
H10 O6 0.974547 1_555
H11 O7 0.974547 1_555
H12 O8 0.984455 1_555
H13 O9 0.984455 1_555
H14 O10 0.984455 1_555
H15 O11 0.984455 1_555
H16 O12 0.984455 1_555
H17 O13 0.984455 1_555
H18 O14 0.984455 1_555
H19 O15 0.984455 1_555
H20 O8 0.976843 1_555
H21 O9 0.976843 1_555
H22 O10 0.976843 1_565
H23 O11 0.976843 1_545
H24 O12 0.976843 1_555
H25 O13 0.976843 1_555
H26 O14 0.976843 1_545
H27 O15 0.976843 1_565
H28 O16 0.975367 1_555
H29 O17 0.975367 1_555
H30 O18 0.975367 1_556
H31 O19 0.975367 1_554
H32 O20 0.975367 1_555
H33 O21 0.975367 1_555
H34 O22 0.975367 1_554
H35 O23 0.975367 1_556
H36 O16 0.987637 1_555
H37 O17 0.987637 1_555
H38 O18 0.987637 1_555
H39 O19 0.987637 1_555
H40 O20 0.987637 1_555
H41 O21 0.987637 1_555
H42 O22 0.987637 1_555
H43 O23 0.987637 1_555
H44 O24 0.979686 1_555
H45 O25 0.979686 1_555
H46 O26 0.979686 1_545
H47 O27 0.979686 1_565
H48 O24 0.977403 1_555
H49 O25 0.977403 1_555
H50 O26 0.977403 1_555
H51 O27 0.977403 1_555
Cl0 H14 2.074250 1_555
Cl0 H19 2.074250 1_455
Cl0 H8 2.130341 1_555
Cl0 H4 2.138251 1_545
Cl0 H48 2.266068 1_555
Cl1 H18 2.074250 1_455
Cl1 H15 2.074250 1_555
Cl1 H9 2.130341 1_555
Cl1 H5 2.138251 1_565
Cl1 H49 2.266068 1_555
Cl2 H12 2.074250 1_555
Cl2 H17 2.074250 1_555
Cl2 H10 2.130341 1_555
Cl2 H6 2.138251 1_555
Cl2 H50 2.266068 1_555
Cl3 H13 2.074250 1_555
Cl3 H16 2.074250 1_555
Cl3 H11 2.130341 1_555
Cl3 H7 2.138251 1_555
Cl3 H51 2.266068 1_555
Cl4 H0 2.139064 1_555
Cl4 H44 2.168326 1_555
Cl4 H27 2.237238 1_455
Cl4 H22 2.237238 1_555
Cl4 H34 2.238665 1_455
Cl4 H31 2.238665 1_555
Cl5 H1 2.139064 1_555
Cl5 H45 2.168326 1_555
Cl5 H26 2.237238 1_455
Cl5 H23 2.237238 1_555
Cl5 H30 2.238665 1_555
Cl5 H35 2.238665 1_455
Cl6 H2 2.139064 1_555
Cl6 H46 2.168326 1_555
Cl6 H25 2.237238 1_555
Cl6 H20 2.237238 1_555
Cl6 H32 2.238665 1_555
Cl6 H29 2.238665 1_555
Cl7 H3 2.139064 1_555
Cl7 H47 2.168326 1_555
Cl7 H24 2.237238 1_555
Cl7 H21 2.237238 1_555
Cl7 H28 2.238665 1_555
Cl7 H33 2.238665 1_555
O0 Sc0 2.218161 1_555
O1 Sc1 2.218161 1_555
O2 Sc2 2.218161 1_555
O3 Sc3 2.218161 1_555
O4 Sc1 2.071282 1_555
O4 Sc0 2.078341 1_555
O5 Sc0 2.071282 1_555
O5 Sc1 2.078341 1_555
O6 Sc3 2.071282 1_554
O6 Sc2 2.078341 1_565
O7 Sc2 2.071282 1_556
O7 Sc3 2.078341 1_545
O8 Sc0 2.208525 1_555
O9 Sc1 2.208525 1_555
O10 Sc2 2.208525 1_555
O11 Sc3 2.208525 1_555
O12 Sc1 2.208525 1_655
O13 Sc0 2.208525 1_655
O14 Sc3 2.208525 1_555
O15 Sc2 2.208525 1_555
O16 Sc0 2.182280 1_555
O17 Sc1 2.182280 1_555
O18 Sc2 2.182280 1_555
O19 Sc3 2.182280 1_555
O20 Sc1 2.182280 1_655
O21 Sc0 2.182280 1_655
O22 Sc3 2.182280 1_555
O23 Sc2 2.182280 1_555
