# generated using pymatgen
data_BaZnFeF7
_symmetry_space_group_name_H-M   'P 1'
_cell_length_a   10.11361800
_cell_length_b   5.69930600
_cell_length_c   9.72661448
_cell_angle_alpha   86.87566982
_cell_angle_beta   90.00000000
_cell_angle_gamma   90.00000000
_symmetry_Int_Tables_number   1
_chemical_formula_structural   BaZnFeF7
_chemical_formula_sum   'Ba4 Zn4 Fe4 F28'
_cell_volume   559.81459319
_cell_formula_units_Z   4
loop_
 _symmetry_equiv_pos_site_id
 _symmetry_equiv_pos_as_xyz
  1  'x, y, z'
loop_
 _atom_site_type_symbol
 _atom_site_label
 _atom_site_symmetry_multiplicity
 _atom_site_fract_x
 _atom_site_fract_y
 _atom_site_fract_z
 _atom_site_occupancy
  Ba  Ba0  1  0.32144100  0.73801000  0.49875700  1
  Ba  Ba1  1  0.82144100  0.26199000  0.00124300  1
  Ba  Ba2  1  0.67855900  0.26199000  0.50124300  1
  Ba  Ba3  1  0.17855900  0.73801000  0.99875700  1
  Zn  Zn0  1  0.39811500  0.29945700  0.81058000  1
  Zn  Zn1  1  0.89811500  0.70054300  0.68942000  1
  Zn  Zn2  1  0.10188500  0.29945700  0.31058000  1
  Zn  Zn3  1  0.60188500  0.70054300  0.18942000  1
  Fe  Fe0  1  0.60965900  0.80306900  0.81186900  1
  Fe  Fe1  1  0.39034100  0.19693100  0.18813100  1
  Fe  Fe2  1  0.89034100  0.80306900  0.31186900  1
  Fe  Fe3  1  0.10965900  0.19693100  0.68813100  1
  F  F0  1  0.44251700  0.88983500  0.12347800  1
  F  F1  1  0.04953700  0.63452200  0.36937100  1
  F  F2  1  0.70894000  0.52691700  0.75290200  1
  F  F3  1  0.29106000  0.47308300  0.24709800  1
  F  F4  1  0.45873300  0.10992300  0.36695600  1
  F  F5  1  0.81092800  0.74072500  0.49797000  1
  F  F6  1  0.77647800  0.97540400  0.75265100  1
  F  F7  1  0.95873300  0.89007700  0.13304400  1
  F  F8  1  0.45046300  0.63452200  0.86937100  1
  F  F9  1  0.20894000  0.47308300  0.74709800  1
  F  F10  1  0.05748300  0.88983500  0.62347800  1
  F  F11  1  0.55748300  0.11016500  0.87652200  1
  F  F12  1  0.27647800  0.02459600  0.74734900  1
  F  F13  1  0.95831000  0.61068100  0.87500200  1
  F  F14  1  0.54126700  0.89007700  0.63304400  1
  F  F15  1  0.04126700  0.10992300  0.86695600  1
  F  F16  1  0.22352200  0.02459600  0.24734900  1
  F  F17  1  0.94251700  0.11016500  0.37652200  1
  F  F18  1  0.45831000  0.38931900  0.62499800  1
  F  F19  1  0.95046300  0.36547800  0.63062900  1
  F  F20  1  0.04169000  0.38931900  0.12499800  1
  F  F21  1  0.72352200  0.97540400  0.25265100  1
  F  F22  1  0.54169000  0.61068100  0.37500200  1
  F  F23  1  0.31092800  0.25927500  0.00203000  1
  F  F24  1  0.18907200  0.25927500  0.50203000  1
  F  F25  1  0.68907200  0.74072500  0.99797000  1
  F  F26  1  0.54953700  0.36547800  0.13062900  1
  F  F27  1  0.79106000  0.52691700  0.25290200  1
loop_
_geom_bond_atom_site_label_1
_geom_bond_atom_site_label_2
_geom_bond_distance
_geom_bond_site_symmetry_2
Ba0 F22 2.651904 1_555
Ba0 F18 2.665935 1_555
Ba0 F14 2.742873 1_555
Ba0 F4 2.787139 1_565
Ba0 F3 2.961209 1_555
Ba0 F9 3.001921 1_555
Ba0 F12 3.025164 1_565
Ba0 F16 3.031976 1_565
Ba0 F24 3.037799 1_555
Ba0 F10 3.075941 1_555
Ba0 F1 3.094303 1_555
Ba0 F24 3.260286 1_565
Ba1 F20 2.651904 1_655
Ba1 F13 2.665935 1_554
Ba1 F15 2.742873 1_654
Ba1 F7 2.787139 1_545
Ba1 F27 2.961209 1_555
Ba1 F2 3.001921 1_554
Ba1 F6 3.025164 1_544
Ba1 F21 3.031976 1_545
Ba1 F25 3.037799 1_554
Ba1 F11 3.075941 1_554
Ba1 F26 3.094303 1_555
Ba1 F25 3.260286 1_544
Ba2 F18 2.651904 1_555
Ba2 F22 2.665935 1_555
Ba2 F4 2.742873 1_555
Ba2 F14 2.787139 1_545
Ba2 F2 2.961209 1_555
Ba2 F27 3.001921 1_555
Ba2 F21 3.025164 1_545
Ba2 F6 3.031976 1_545
Ba2 F5 3.037799 1_555
Ba2 F17 3.075941 1_555
Ba2 F19 3.094303 1_555
Ba2 F5 3.260286 1_545
Ba3 F13 2.651904 1_455
Ba3 F20 2.665935 1_556
Ba3 F7 2.742873 1_456
Ba3 F15 2.787139 1_565
Ba3 F9 2.961209 1_555
Ba3 F3 3.001921 1_556
Ba3 F16 3.025164 1_566
Ba3 F12 3.031976 1_565
Ba3 F23 3.037799 1_556
Ba3 F0 3.075941 1_556
Ba3 F8 3.094303 1_555
Ba3 F23 3.260286 1_566
F0 Fe1 1.963978 1_565
F0 Zn3 2.024277 1_555
F0 F16 2.654787 1_565
F0 F23 2.707172 1_565
F1 Fe2 1.941458 1_455
F1 Zn2 2.091182 1_555
F1 F5 2.799467 1_455
F2 Fe0 1.978038 1_555
F2 Zn1 2.225840 1_555
F2 F25 2.742958 1_555
F3 Fe1 1.978038 1_555
F3 Zn2 2.225840 1_555
F4 Fe1 1.911988 1_555
F5 Fe2 1.994436 1_555
F5 Zn1 2.061827 1_555
F6 Fe0 2.020210 1_555
F6 Zn1 2.109649 1_555
F7 Fe2 1.911988 1_555
F8 Fe0 1.941458 1_555
F8 Zn0 2.091182 1_555
F9 Fe3 1.978038 1_555
F9 Zn0 2.225840 1_555
F10 Fe3 1.963978 1_565
F10 Zn1 2.024277 1_455
F10 F12 2.654787 1_565
F10 F24 2.707172 1_565
F11 Fe0 1.963978 1_545
F11 Zn0 2.024277 1_555
F11 F6 2.654787 1_545
F11 F25 2.707172 1_545
F12 Fe3 2.020210 1_555
F12 Zn0 2.109649 1_555
F12 F15 2.703784 1_555
F12 F24 2.813550 1_555
F13 Zn1 1.946916 1_555
F14 Fe0 1.911988 1_555
F14 F6 2.703784 1_555
F15 Fe3 1.911988 1_555
F16 Fe1 2.020210 1_555
F16 Zn2 2.109649 1_555
F16 F4 2.703784 1_555
F16 F23 2.813550 1_555
F17 Fe2 1.963978 1_545
F17 Zn2 2.024277 1_655
F17 F21 2.654787 1_545
F17 F5 2.707172 1_545
F18 Zn0 1.946916 1_555
F19 Fe3 1.941458 1_655
F19 Zn1 2.091182 1_555
F19 F24 2.799467 1_655
F20 Zn2 1.946916 1_555
F21 Fe2 2.020210 1_555
F21 Zn3 2.109649 1_555
F21 F7 2.703784 1_555
F21 F5 2.813550 1_555
F22 Zn3 1.946916 1_555
F23 Fe1 1.994436 1_555
F23 Zn0 2.061827 1_554
F23 F3 2.742958 1_555
F23 F26 2.799467 1_555
F24 Fe3 1.994436 1_555
F24 Zn2 2.061827 1_555
F24 F9 2.742958 1_555
F25 Fe0 1.994436 1_555
F25 Zn3 2.061827 1_556
F25 F8 2.799467 1_555
F25 F6 2.813550 1_555
F26 Fe1 1.941458 1_555
F26 Zn3 2.091182 1_555
F27 Fe2 1.978038 1_555
F27 Zn3 2.225840 1_555
F27 F5 2.742958 1_555
