# generated using pymatgen
data_Rb2CaV2O7
_symmetry_space_group_name_H-M   'P 1'
_cell_length_a   6.07976500
_cell_length_b   10.49859100
_cell_length_c   15.34588125
_cell_angle_alpha   63.61298222
_cell_angle_beta   90.00000000
_cell_angle_gamma   90.00000000
_symmetry_Int_Tables_number   1
_chemical_formula_structural   Rb2CaV2O7
_chemical_formula_sum   'Rb8 Ca4 V8 O28'
_cell_volume   877.45883966
_cell_formula_units_Z   4
loop_
 _symmetry_equiv_pos_site_id
 _symmetry_equiv_pos_as_xyz
  1  'x, y, z'
loop_
 _atom_site_type_symbol
 _atom_site_label
 _atom_site_symmetry_multiplicity
 _atom_site_fract_x
 _atom_site_fract_y
 _atom_site_fract_z
 _atom_site_occupancy
  Rb  Rb0  1  0.76518300  0.97337600  0.16931000  1
  Rb  Rb1  1  0.72499000  0.50068400  0.86978600  1
  Rb  Rb2  1  0.23481700  0.02662400  0.83069000  1
  Rb  Rb3  1  0.26518300  0.02662400  0.33069000  1
  Rb  Rb4  1  0.73481700  0.97337600  0.66931000  1
  Rb  Rb5  1  0.27501000  0.49931600  0.13021400  1
  Rb  Rb6  1  0.22499000  0.49931600  0.63021400  1
  Rb  Rb7  1  0.77501000  0.50068400  0.36978600  1
  Ca  Ca0  1  0.23960000  0.22988700  0.02166300  1
  Ca  Ca1  1  0.26040000  0.22988700  0.52166300  1
  Ca  Ca2  1  0.73960000  0.77011300  0.47833700  1
  Ca  Ca3  1  0.76040000  0.77011300  0.97833700  1
  V  V0  1  0.73431000  0.33786800  0.63906900  1
  V  V1  1  0.72844000  0.17301000  0.87776700  1
  V  V2  1  0.27156000  0.82699000  0.12223300  1
  V  V3  1  0.26569000  0.66213200  0.36093100  1
  V  V4  1  0.77156000  0.17301000  0.37776700  1
  V  V5  1  0.76569000  0.33786800  0.13906900  1
  V  V6  1  0.23431000  0.66213200  0.86093100  1
  V  V7  1  0.22844000  0.82699000  0.62223300  1
  O  O0  1  0.18705500  0.68148400  0.23987600  1
  O  O1  1  0.94598200  0.27020000  0.59824100  1
  O  O2  1  0.27038200  0.98577200  0.13006700  1
  O  O3  1  0.77038200  0.01422800  0.36993300  1
  O  O4  1  0.91639600  0.17607800  0.95963100  1
  O  O5  1  0.72961800  0.01422800  0.86993300  1
  O  O6  1  0.49021200  0.25180600  0.64357100  1
  O  O7  1  0.46918400  0.21173500  0.90425500  1
  O  O8  1  0.08360400  0.82392200  0.04036900  1
  O  O9  1  0.55401800  0.27020000  0.09824100  1
  O  O10  1  0.50978800  0.74819400  0.35642900  1
  O  O11  1  0.99021200  0.74819400  0.85642900  1
  O  O12  1  0.05401800  0.72980000  0.40175900  1
  O  O13  1  0.96918400  0.78826500  0.59574500  1
  O  O14  1  0.03081600  0.21173500  0.40425500  1
  O  O15  1  0.58360400  0.17607800  0.45963100  1
  O  O16  1  0.44598200  0.72980000  0.90175900  1
  O  O17  1  0.29198600  0.48242400  0.43274600  1
  O  O18  1  0.70801400  0.51757600  0.56725400  1
  O  O19  1  0.81294500  0.31851600  0.76012400  1
  O  O20  1  0.41639600  0.82392200  0.54036900  1
  O  O21  1  0.79198600  0.51757600  0.06725400  1
  O  O22  1  0.00978800  0.25180600  0.14357100  1
  O  O23  1  0.22961800  0.98577200  0.63006700  1
  O  O24  1  0.31294500  0.68148400  0.73987600  1
  O  O25  1  0.68705500  0.31851600  0.26012400  1
  O  O26  1  0.20801400  0.48242400  0.93274600  1
  O  O27  1  0.53081600  0.78826500  0.09574500  1
loop_
_geom_bond_atom_site_label_1
_geom_bond_atom_site_label_2
_geom_bond_distance
_geom_bond_site_symmetry_2
Ca0 O7 2.352881 1_554
Ca0 O4 2.358932 1_454
Ca0 O2 2.362428 1_545
Ca0 O9 2.378313 1_555
Ca0 O26 2.390067 1_554
Ca0 O22 2.426444 1_555
Ca1 O14 2.352881 1_555
Ca1 O15 2.358932 1_555
Ca1 O23 2.362428 1_545
Ca1 O1 2.378313 1_455
Ca1 O17 2.390067 1_555
Ca1 O6 2.426444 1_555
Ca2 O13 2.352881 1_555
Ca2 O20 2.358932 1_555
Ca2 O3 2.362428 1_565
Ca2 O12 2.378313 1_655
Ca2 O18 2.390067 1_555
Ca2 O10 2.426444 1_555
Ca3 O27 2.352881 1_556
Ca3 O8 2.358932 1_656
Ca3 O5 2.362428 1_565
Ca3 O16 2.378313 1_555
Ca3 O21 2.390067 1_556
Ca3 O11 2.426444 1_555
O0 V3 1.839944 1_555
O0 V2 1.845381 1_555
O0 Rb5 3.104263 1_555
O0 Rb7 3.238747 1_455
O0 Rb0 3.767291 1_455
O1 V0 1.717277 1_555
O1 Rb4 3.086694 1_545
O1 Rb6 3.154863 1_655
O1 Rb7 3.418503 1_555
O1 Rb2 3.773503 1_655
O2 V2 1.723799 1_555
O2 Rb0 3.059355 1_555
O2 Rb0 3.121538 1_455
O2 Rb3 3.291998 1_565
O3 V4 1.723799 1_555
O3 Rb3 3.059355 1_655
O3 Rb3 3.121538 1_555
O3 Rb0 3.291998 1_545
O4 V1 1.709111 1_555
O4 Rb0 3.105001 1_546
O4 Rb1 3.269941 1_555
O4 Rb2 3.589529 1_655
O5 V1 1.723799 1_555
O5 Rb2 3.059355 1_555
O5 Rb2 3.121538 1_655
O5 Rb4 3.291998 1_545
O6 V0 1.722813 1_555
O6 Rb6 2.986793 1_555
O6 Rb4 3.144196 1_545
O6 Rb2 3.195532 1_555
O7 V1 1.721007 1_555
O7 Rb2 3.005284 1_555
O7 Rb1 3.236471 1_555
O7 Rb6 4.209424 1_555
O8 V2 1.709111 1_555
O8 Rb2 3.105001 1_564
O8 Rb5 3.269941 1_555
O8 Rb0 3.589529 1_455
O9 V5 1.717277 1_555
O9 Rb0 3.086694 1_545
O9 Rb5 3.154863 1_555
O9 Rb1 3.418503 1_554
O9 Rb3 3.773503 1_555
O10 V3 1.722813 1_555
O10 Rb7 2.986793 1_555
O10 Rb3 3.144196 1_565
O10 Rb0 3.195532 1_555
O11 V6 1.722813 1_655
O11 Rb1 2.986793 1_555
O11 Rb2 3.144196 1_665
O11 Rb4 3.195532 1_555
O12 V3 1.717277 1_555
O12 Rb3 3.086694 1_565
O12 Rb7 3.154863 1_455
O12 Rb6 3.418503 1_555
O12 Rb0 3.773503 1_455
O13 V7 1.721007 1_655
O13 Rb4 3.005284 1_555
O13 Rb6 3.236471 1_655
O13 Rb1 4.209424 1_555
O14 V4 1.721007 1_455
O14 Rb3 3.005284 1_555
O14 Rb7 3.236471 1_455
O14 Rb5 4.209424 1_555
O15 V4 1.709111 1_555
O15 Rb4 3.105001 1_545
O15 Rb7 3.269941 1_555
O15 Rb3 3.589529 1_555
O16 V6 1.717277 1_555
O16 Rb2 3.086694 1_565
O16 Rb1 3.154863 1_555
O16 Rb5 3.418503 1_556
O16 Rb4 3.773503 1_555
O17 V3 1.717994 1_555
O17 Rb7 3.070775 1_555
O17 Rb6 3.139726 1_555
O17 Rb7 3.268737 1_455
O18 V0 1.717994 1_555
O18 Rb6 3.070775 1_555
O18 Rb7 3.139726 1_555
O18 Rb6 3.268737 1_655
O19 V0 1.839944 1_555
O19 V1 1.845381 1_555
O19 Rb1 3.104263 1_555
O19 Rb6 3.238747 1_655
O19 Rb2 3.767291 1_655
O20 V7 1.709111 1_555
O20 Rb3 3.105001 1_565
O20 Rb6 3.269941 1_555
O20 Rb4 3.589529 1_555
O21 V5 1.717994 1_555
O21 Rb5 3.070775 1_655
O21 Rb1 3.139726 1_554
O21 Rb5 3.268737 1_555
O22 V5 1.722813 1_455
O22 Rb5 2.986793 1_555
O22 Rb0 3.144196 1_445
O22 Rb3 3.195532 1_555
O23 V7 1.723799 1_555
O23 Rb4 3.059355 1_455
O23 Rb4 3.121538 1_555
O23 Rb2 3.291998 1_565
O24 V6 1.839944 1_555
O24 V7 1.845381 1_555
O24 Rb6 3.104263 1_555
O24 Rb1 3.238747 1_555
O24 Rb4 3.767291 1_555
O25 V5 1.839944 1_555
O25 V4 1.845381 1_555
O25 Rb7 3.104263 1_555
O25 Rb5 3.238747 1_555
O25 Rb3 3.767291 1_555
O26 V6 1.717994 1_555
O26 Rb1 3.070775 1_455
O26 Rb5 3.139726 1_556
O26 Rb1 3.268737 1_555
O27 V2 1.721007 1_555
O27 Rb0 3.005284 1_555
O27 Rb5 3.236471 1_555
O27 Rb7 4.209424 1_555
