# generated using pymatgen
data_KTa(GeO3)3
_symmetry_space_group_name_H-M   'P 1'
_cell_length_a   7.08418733
_cell_length_b   7.08418733
_cell_length_c   10.29223200
_cell_angle_alpha   90.00000000
_cell_angle_beta   90.00000000
_cell_angle_gamma   119.99999375
_symmetry_Int_Tables_number   1
_chemical_formula_structural   KTa(GeO3)3
_chemical_formula_sum   'K2 Ta2 Ge6 O18'
_cell_volume   447.32204337
_cell_formula_units_Z   2
loop_
 _symmetry_equiv_pos_site_id
 _symmetry_equiv_pos_as_xyz
  1  'x, y, z'
loop_
 _atom_site_type_symbol
 _atom_site_label
 _atom_site_symmetry_multiplicity
 _atom_site_fract_x
 _atom_site_fract_y
 _atom_site_fract_z
 _atom_site_occupancy
  K  K0  1  0.66666700  0.33333300  0.00000000  1
  K  K1  1  0.66666700  0.33333300  0.50000000  1
  Ta  Ta0  1  0.33333300  0.66666700  0.00000000  1
  Ta  Ta1  1  0.33333300  0.66666700  0.50000000  1
  Ge  Ge0  1  0.07279800  0.28970300  0.25000000  1
  Ge  Ge1  1  0.21690600  0.92720200  0.25000000  1
  Ge  Ge2  1  0.71029700  0.78309400  0.25000000  1
  Ge  Ge3  1  0.71029700  0.92720200  0.75000000  1
  Ge  Ge4  1  0.21690600  0.28970300  0.75000000  1
  Ge  Ge5  1  0.07279800  0.78309400  0.75000000  1
  O  O0  1  0.26609100  0.19944700  0.25000000  1
  O  O1  1  0.93335600  0.73390900  0.25000000  1
  O  O2  1  0.80055300  0.06664400  0.25000000  1
  O  O3  1  0.80055300  0.73390900  0.75000000  1
  O  O4  1  0.93335600  0.19944700  0.75000000  1
  O  O5  1  0.26609100  0.06664400  0.75000000  1
  O  O6  1  0.09685400  0.43988100  0.10976100  1
  O  O7  1  0.34302700  0.90314600  0.39023900  1
  O  O8  1  0.56011900  0.65697300  0.39023900  1
  O  O9  1  0.56011900  0.65697300  0.10976100  1
  O  O10  1  0.34302700  0.90314600  0.10976100  1
  O  O11  1  0.56011900  0.90314600  0.89023900  1
  O  O12  1  0.34302700  0.43988100  0.89023900  1
  O  O13  1  0.09685400  0.65697300  0.89023900  1
  O  O14  1  0.34302700  0.43988100  0.60976100  1
  O  O15  1  0.09685400  0.65697300  0.60976100  1
  O  O16  1  0.09685400  0.43988100  0.39023900  1
  O  O17  1  0.56011900  0.90314600  0.60976100  1
loop_
_geom_bond_atom_site_label_1
_geom_bond_atom_site_label_2
_geom_bond_distance
_geom_bond_site_symmetry_2
K0 O11 2.972043 1_544
K0 O6 2.972043 1_655
K0 O13 2.972045 1_654
K0 O10 2.972045 1_545
K0 O9 2.972050 1_555
K0 O12 2.972050 1_554
K0 O2 3.589083 1_555
K0 O4 3.589083 1_554
K0 O1 3.589087 1_555
K0 O5 3.589087 1_554
K0 O3 3.589088 1_554
K0 O0 3.589088 1_555
K1 O17 2.972043 1_545
K1 O16 2.972043 1_655
K1 O15 2.972045 1_655
K1 O7 2.972045 1_545
K1 O8 2.972050 1_555
K1 O14 2.972050 1_555
K1 O2 3.589083 1_555
K1 O4 3.589083 1_555
K1 O1 3.589087 1_555
K1 O5 3.589087 1_555
K1 O3 3.589088 1_555
K1 O0 3.589088 1_555
Ge0 O6 1.750120 1_555
Ge0 O16 1.750120 1_555
Ge0 O0 1.777470 1_555
Ge0 O2 1.780176 1_455
Ge1 O10 1.750116 1_555
Ge1 O7 1.750116 1_555
Ge1 O1 1.777476 1_455
Ge1 O0 1.780178 1_565
Ge2 O8 1.750119 1_555
Ge2 O9 1.750119 1_555
Ge2 O2 1.777477 1_565
Ge2 O1 1.780171 1_555
Ge3 O17 1.750120 1_555
Ge3 O11 1.750120 1_555
Ge3 O3 1.777470 1_555
Ge3 O4 1.780176 1_565
Ge4 O14 1.750119 1_555
Ge4 O12 1.750119 1_555
Ge4 O4 1.777477 1_455
Ge4 O5 1.780171 1_555
Ge5 O15 1.750116 1_555
Ge5 O13 1.750116 1_555
Ge5 O5 1.777476 1_565
Ge5 O3 1.780178 1_455
O6 Ta0 1.993081 1_555
O7 Ta1 1.993078 1_555
O8 Ta1 1.993084 1_555
O9 Ta0 1.993084 1_555
O10 Ta0 1.993078 1_555
O11 Ta0 1.993081 1_556
O12 Ta0 1.993084 1_556
O13 Ta0 1.993078 1_556
O14 Ta1 1.993084 1_555
O15 Ta1 1.993078 1_555
O16 Ta1 1.993081 1_555
O17 Ta1 1.993081 1_555
