# generated using pymatgen
data_Ca(BiO2)2
_symmetry_space_group_name_H-M   'P 1'
_cell_length_a   10.19674131
_cell_length_b   10.19674131
_cell_length_c   12.41466543
_cell_angle_alpha   61.70359441
_cell_angle_beta   61.70359441
_cell_angle_gamma   68.83986534
_symmetry_Int_Tables_number   1
_chemical_formula_structural   Ca(BiO2)2
_chemical_formula_sum   'Ca8 Bi16 O32'
_cell_volume   985.16599250
_cell_formula_units_Z   8
loop_
 _symmetry_equiv_pos_site_id
 _symmetry_equiv_pos_as_xyz
  1  'x, y, z'
loop_
 _atom_site_type_symbol
 _atom_site_label
 _atom_site_symmetry_multiplicity
 _atom_site_fract_x
 _atom_site_fract_y
 _atom_site_fract_z
 _atom_site_occupancy
  Ca  Ca0  1  0.00477694  0.57931286  0.83813258  1
  Ca  Ca1  1  0.05352586  0.85293863  0.91825302  1
  Ca  Ca2  1  0.99522306  0.42068714  0.16186742  1
  Ca  Ca3  1  0.57931286  0.00477694  0.33813258  1
  Ca  Ca4  1  0.14706137  0.94647414  0.58174698  1
  Ca  Ca5  1  0.94647414  0.14706137  0.08174698  1
  Ca  Ca6  1  0.85293863  0.05352586  0.41825302  1
  Ca  Ca7  1  0.42068714  0.99522306  0.66186742  1
  Bi  Bi0  1  0.65126019  0.47246710  0.06344288  1
  Bi  Bi1  1  0.24818675  0.04387136  0.23340450  1
  Bi  Bi2  1  0.75181325  0.95612864  0.76659550  1
  Bi  Bi3  1  0.34531436  0.27595478  0.78139275  1
  Bi  Bi4  1  0.82376208  0.35057745  0.50667780  1
  Bi  Bi5  1  0.17623792  0.64942255  0.49332220  1
  Bi  Bi6  1  0.52753290  0.34873981  0.43655712  1
  Bi  Bi7  1  0.34873981  0.52753290  0.93655712  1
  Bi  Bi8  1  0.47246710  0.65126019  0.56344288  1
  Bi  Bi9  1  0.64942255  0.17623792  0.99332220  1
  Bi  Bi10  1  0.65468564  0.72404522  0.21860725  1
  Bi  Bi11  1  0.04387136  0.24818675  0.73340450  1
  Bi  Bi12  1  0.72404522  0.65468564  0.71860725  1
  Bi  Bi13  1  0.95612864  0.75181325  0.26659550  1
  Bi  Bi14  1  0.35057745  0.82376208  0.00667780  1
  Bi  Bi15  1  0.27595478  0.34531436  0.28139275  1
  O  O0  1  0.58803464  0.95893311  0.16282416  1
  O  O1  1  0.57193919  0.31438439  0.60118770  1
  O  O2  1  0.30471116  0.29625055  0.61956860  1
  O  O3  1  0.95880775  0.83728778  0.78444929  1
  O  O4  1  0.89617664  0.11331236  0.57332672  1
  O  O5  1  0.22181990  0.64514244  0.64345466  1
  O  O6  1  0.10382336  0.88668764  0.42667328  1
  O  O7  1  0.83728778  0.95880775  0.28444929  1
  O  O8  1  0.04119225  0.16271222  0.21555071  1
  O  O9  1  0.64514244  0.22181990  0.14345466  1
  O  O10  1  0.27368290  0.10192115  0.36452647  1
  O  O11  1  0.41196536  0.04106689  0.83717584  1
  O  O12  1  0.10192115  0.27368290  0.86452647  1
  O  O13  1  0.89807885  0.72631710  0.13547353  1
  O  O14  1  0.04106689  0.41196536  0.33717584  1
  O  O15  1  0.41762278  0.87238358  0.54745929  1
  O  O16  1  0.68561561  0.42806081  0.89881230  1
  O  O17  1  0.95893311  0.58803464  0.66282416  1
  O  O18  1  0.72631710  0.89807885  0.63547353  1
  O  O19  1  0.88668764  0.10382336  0.92667328  1
  O  O20  1  0.87238358  0.41762278  0.04745929  1
  O  O21  1  0.42806081  0.68561561  0.39881230  1
  O  O22  1  0.29625055  0.30471116  0.11956860  1
  O  O23  1  0.16271222  0.04119225  0.71555071  1
  O  O24  1  0.12761642  0.58237722  0.95254071  1
  O  O25  1  0.58237722  0.12761642  0.45254071  1
  O  O26  1  0.69528884  0.70374945  0.38043140  1
  O  O27  1  0.70374945  0.69528884  0.88043140  1
  O  O28  1  0.11331236  0.89617664  0.07332672  1
  O  O29  1  0.77818010  0.35485756  0.35654534  1
  O  O30  1  0.35485756  0.77818010  0.85654534  1
  O  O31  1  0.31438439  0.57193919  0.10118770  1
loop_
_geom_bond_atom_site_label_1
_geom_bond_atom_site_label_2
_geom_bond_distance
_geom_bond_site_symmetry_2
Ca0 O3 2.308105 1_455
Ca0 O24 2.311764 1_555
Ca0 O20 2.347949 1_456
Ca0 O5 2.377633 1_555
Ca0 O17 2.390427 1_455
Ca0 O27 2.745184 1_455
Ca0 O12 2.812762 1_555
Ca1 O23 2.358811 1_565
Ca1 O13 2.361300 1_456
Ca1 O3 2.366695 1_455
Ca1 O24 2.459666 1_555
Ca1 O28 2.526623 1_556
Ca1 O19 2.528325 1_465
Ca1 O30 2.690709 1_555
Ca2 O8 2.308105 1_655
Ca2 O20 2.311764 1_555
Ca2 O24 2.347949 1_654
Ca2 O29 2.377633 1_555
Ca2 O14 2.390427 1_655
Ca2 O22 2.745184 1_655
Ca2 O13 2.812762 1_555
Ca3 O7 2.308105 1_545
Ca3 O25 2.311764 1_555
Ca3 O15 2.347949 1_545
Ca3 O9 2.377633 1_555
Ca3 O0 2.390427 1_545
Ca3 O26 2.745184 1_545
Ca3 O10 2.812762 1_555
Ca4 O3 2.358811 1_455
Ca4 O10 2.361300 1_565
Ca4 O23 2.366695 1_565
Ca4 O15 2.459666 1_555
Ca4 O6 2.526623 1_555
Ca4 O4 2.528325 1_465
Ca4 O5 2.690709 1_555
Ca5 O7 2.358811 1_545
Ca5 O12 2.361300 1_654
Ca5 O8 2.366695 1_655
Ca5 O20 2.459666 1_555
Ca5 O19 2.526623 1_554
Ca5 O28 2.528325 1_645
Ca5 O9 2.690709 1_555
Ca6 O8 2.358811 1_655
Ca6 O18 2.361300 1_545
Ca6 O7 2.366695 1_545
Ca6 O25 2.459666 1_555
Ca6 O4 2.526623 1_555
Ca6 O6 2.528325 1_645
Ca6 O29 2.690709 1_555
Ca7 O23 2.308105 1_565
Ca7 O15 2.311764 1_555
Ca7 O25 2.347949 1_565
Ca7 O30 2.377633 1_555
Ca7 O11 2.390427 1_565
Ca7 O2 2.745184 1_565
Ca7 O18 2.812762 1_555
Bi0 O20 2.051016 1_555
Bi0 O16 2.142212 1_554
Bi0 O9 2.274225 1_555
Bi0 O27 2.332760 1_554
Bi1 O8 2.077222 1_555
Bi1 O10 2.119818 1_555
Bi1 O6 2.280700 1_545
Bi1 O22 2.456083 1_555
Bi2 O3 2.077222 1_555
Bi2 O18 2.119818 1_555
Bi2 O4 2.280700 1_565
Bi2 O27 2.456083 1_555
Bi3 O11 2.092001 1_555
Bi3 O2 2.140755 1_555
Bi3 O12 2.194442 1_555
Bi3 O1 2.328055 1_555
Bi4 O29 2.102709 1_555
Bi4 O4 2.115347 1_555
Bi4 O14 2.249819 1_655
Bi4 O1 2.350237 1_555
Bi5 O5 2.102709 1_555
Bi5 O6 2.115347 1_555
Bi5 O17 2.249819 1_455
Bi5 O21 2.350237 1_555
Bi6 O25 2.051016 1_555
Bi6 O1 2.142212 1_555
Bi6 O29 2.274225 1_555
Bi6 O2 2.332760 1_555
Bi7 O24 2.051016 1_555
Bi7 O31 2.142212 1_556
Bi7 O30 2.274225 1_555
Bi7 O22 2.332760 1_556
Bi8 O15 2.051016 1_555
Bi8 O21 2.142212 1_555
Bi8 O5 2.274225 1_555
Bi8 O26 2.332760 1_555
Bi9 O9 2.102709 1_556
Bi9 O19 2.115347 1_555
Bi9 O0 2.249819 1_546
Bi9 O16 2.350237 1_555
Bi10 O0 2.092001 1_555
Bi10 O26 2.140755 1_555
Bi10 O13 2.194442 1_555
Bi10 O21 2.328055 1_555
Bi11 O23 2.077222 1_555
Bi11 O12 2.119818 1_555
Bi11 O19 2.280700 1_455
Bi11 O2 2.456083 1_555
Bi12 O17 2.092001 1_555
Bi12 O27 2.140755 1_555
Bi12 O18 2.194442 1_555
Bi12 O16 2.328055 1_555
Bi13 O7 2.077222 1_555
Bi13 O13 2.119818 1_555
Bi13 O28 2.280700 1_655
Bi13 O26 2.456083 1_555
Bi14 O30 2.102709 1_554
Bi14 O28 2.115347 1_555
Bi14 O11 2.249819 1_564
Bi14 O31 2.350237 1_555
Bi15 O14 2.092001 1_555
Bi15 O22 2.140755 1_555
Bi15 O10 2.194442 1_555
Bi15 O31 2.328055 1_555
O0 O9 2.822326 1_565
O1 O29 2.683288 1_555
O1 O2 2.691718 1_555
O2 O23 2.902618 1_555
O10 O22 2.700959 1_555
O10 O15 2.903553 1_545
O11 O30 2.822326 1_545
O12 O2 2.700959 1_555
O12 O20 2.903553 1_456
O13 O26 2.700959 1_555
O13 O24 2.903553 1_654
O14 O29 2.822326 1_455
O16 O9 2.683288 1_556
O16 O27 2.691718 1_555
O17 O5 2.822326 1_655
O18 O27 2.700959 1_555
O18 O25 2.903553 1_565
O21 O5 2.683288 1_555
O21 O26 2.691718 1_555
O22 O31 2.691718 1_555
O22 O8 2.902618 1_555
O26 O7 2.902618 1_555
O27 O3 2.902618 1_555
O30 O31 2.683288 1_556
