# generated using pymatgen
data_CaB3H5O8
_symmetry_space_group_name_H-M   'P 1'
_cell_length_a   11.31061200
_cell_length_b   6.14122300
_cell_length_c   8.82133486
_cell_angle_alpha   69.87754258
_cell_angle_beta   90.00000000
_cell_angle_gamma   90.00000000
_symmetry_Int_Tables_number   1
_chemical_formula_structural   CaB3H5O8
_chemical_formula_sum   'Ca4 B12 H20 O32'
_cell_volume   575.33677163
_cell_formula_units_Z   4
loop_
 _symmetry_equiv_pos_site_id
 _symmetry_equiv_pos_as_xyz
  1  'x, y, z'
loop_
 _atom_site_type_symbol
 _atom_site_label
 _atom_site_symmetry_multiplicity
 _atom_site_fract_x
 _atom_site_fract_y
 _atom_site_fract_z
 _atom_site_occupancy
  Ca  Ca0  1  0.70580300  0.74050800  0.11363800  1
  Ca  Ca1  1  0.28777200  0.25701100  0.38404000  1
  Ca  Ca2  1  0.78777200  0.74298900  0.61596000  1
  Ca  Ca3  1  0.20580300  0.25949200  0.88636200  1
  B  B0  1  0.17185500  0.83407900  0.28759500  1
  B  B1  1  0.21486700  0.68377500  0.58292800  1
  B  B2  1  0.71486700  0.31622500  0.41707200  1
  B  B3  1  0.83134500  0.16454100  0.21199100  1
  B  B4  1  0.67185500  0.16592100  0.71240500  1
  B  B5  1  0.05023600  0.50315300  0.47076900  1
  B  B6  1  0.55023600  0.49684700  0.52923100  1
  B  B7  1  0.95100700  0.49864400  0.03080400  1
  B  B8  1  0.79366500  0.31356800  0.91560700  1
  B  B9  1  0.33134500  0.83545900  0.78800900  1
  B  B10  1  0.45100700  0.50135600  0.96919600  1
  B  B11  1  0.29366500  0.68643200  0.08439300  1
  H  H0  1  0.08137600  0.13378600  0.17147900  1
  H  H1  1  0.98202100  0.95738500  0.95719700  1
  H  H2  1  0.60229700  0.32523500  0.07307400  1
  H  H3  1  0.02189900  0.03987300  0.54374800  1
  H  H4  1  0.52410300  0.69956300  0.67307600  1
  H  H5  1  0.91756800  0.86258000  0.33056700  1
  H  H6  1  0.58137600  0.86621400  0.82852100  1
  H  H7  1  0.41756800  0.13742000  0.66943300  1
  H  H8  1  0.97321800  0.69575500  0.17743100  1
  H  H9  1  0.50896800  0.97939000  0.22411900  1
  H  H10  1  0.02954400  0.76794400  0.65441800  1
  H  H11  1  0.47321800  0.30424500  0.82256900  1
  H  H12  1  0.52189900  0.96012700  0.45625200  1
  H  H13  1  0.52954400  0.23205600  0.34558200  1
  H  H14  1  0.10229700  0.67476500  0.92692600  1
  H  H15  1  0.48202100  0.04261500  0.04280300  1
  H  H16  1  0.41115300  0.65558200  0.38140900  1
  H  H17  1  0.00896800  0.02061000  0.77588100  1
  H  H18  1  0.91115300  0.34441800  0.61859100  1
  H  H19  1  0.02410300  0.30043700  0.32692400  1
  O  O0  1  0.92254500  0.69829600  0.08414200  1
  O  O1  1  0.33788900  0.06966900  0.66844900  1
  O  O2  1  0.23176100  0.85735500  0.43684100  1
  O  O3  1  0.05613000  0.72271300  0.33424100  1
  O  O4  1  0.07380000  0.29495500  0.42249400  1
  O  O5  1  0.43104100  0.50474500  0.46018400  1
  O  O6  1  0.57380000  0.70504500  0.57750600  1
  O  O7  1  0.44730000  0.72614800  0.83382700  1
  O  O8  1  0.02124900  0.08053200  0.86613200  1
  O  O9  1  0.52124900  0.91946800  0.13386800  1
  O  O10  1  0.83788900  0.93033100  0.33155100  1
  O  O11  1  0.57095500  0.48261600  0.03835900  1
  O  O12  1  0.27213700  0.85710100  0.93766200  1
  O  O13  1  0.48215800  0.09122900  0.36802100  1
  O  O14  1  0.75507700  0.31603800  0.27078600  1
  O  O15  1  0.16242000  0.06942600  0.17060000  1
  O  O16  1  0.66242000  0.93057400  0.82940000  1
  O  O17  1  0.98215800  0.90877100  0.63197900  1
  O  O18  1  0.25507700  0.68396200  0.72921400  1
  O  O19  1  0.64440100  0.50705000  0.40650700  1
  O  O20  1  0.42254500  0.30170400  0.91585800  1
  O  O21  1  0.55613000  0.27728700  0.66575900  1
  O  O22  1  0.93104100  0.49525500  0.53981600  1
  O  O23  1  0.14440100  0.49295000  0.59349300  1
  O  O24  1  0.74934400  0.31581600  0.76986500  1
  O  O25  1  0.85889700  0.50849700  0.90634400  1
  O  O26  1  0.94730000  0.27385200  0.16617300  1
  O  O27  1  0.07095500  0.51738400  0.96164100  1
  O  O28  1  0.73176100  0.14264500  0.56315900  1
  O  O29  1  0.24934400  0.68418400  0.23013500  1
  O  O30  1  0.35889700  0.49150300  0.09365600  1
  O  O31  1  0.77213700  0.14289900  0.06233800  1
loop_
_geom_bond_atom_site_label_1
_geom_bond_atom_site_label_2
_geom_bond_distance
_geom_bond_site_symmetry_2
Ca0 O9 2.394156 1_555
Ca0 O16 2.424117 1_554
Ca0 O11 2.449333 1_555
Ca0 O31 2.470820 1_565
Ca0 O0 2.488190 1_555
Ca0 O14 2.557566 1_555
Ca0 O19 2.581426 1_555
Ca0 O10 2.971187 1_555
Ca1 O2 2.419851 1_545
Ca1 O1 2.439950 1_555
Ca1 O13 2.447334 1_555
Ca1 O4 2.465948 1_555
Ca1 O5 2.468768 1_555
Ca1 O29 2.542358 1_555
Ca1 O30 2.597017 1_555
Ca1 O15 2.893911 1_555
Ca2 O28 2.419851 1_565
Ca2 O10 2.439950 1_555
Ca2 O17 2.447334 1_555
Ca2 O6 2.465948 1_555
Ca2 O22 2.468768 1_555
Ca2 O24 2.542358 1_555
Ca2 O25 2.597017 1_555
Ca2 O16 2.893911 1_555
Ca3 O8 2.394156 1_555
Ca3 O15 2.424117 1_556
Ca3 O27 2.449333 1_555
Ca3 O12 2.470820 1_545
Ca3 O20 2.488190 1_555
Ca3 O18 2.557566 1_555
Ca3 O23 2.581426 1_555
Ca3 O1 2.971187 1_555
B0 O15 1.462577 1_565
B0 O3 1.468573 1_555
B0 O29 1.481053 1_555
B0 O2 1.530466 1_555
B1 O18 1.368610 1_555
B1 O2 1.374175 1_555
B1 O23 1.393598 1_555
B2 O14 1.368610 1_555
B2 O28 1.374175 1_555
B2 O19 1.393598 1_555
B3 O10 1.463854 1_545
B3 O26 1.465404 1_555
B3 O14 1.486862 1_555
B3 O31 1.526311 1_555
B4 O16 1.462577 1_545
B4 O21 1.468573 1_555
B4 O24 1.481053 1_555
B4 O28 1.530466 1_555
B5 O3 1.468221 1_555
B5 O22 1.473285 1_455
B5 O4 1.503933 1_555
B5 O23 1.504531 1_555
B6 O21 1.468221 1_555
B6 O5 1.473285 1_555
B6 O6 1.503933 1_555
B6 O19 1.504531 1_555
B7 O27 1.475724 1_654
B7 O26 1.482980 1_555
B7 O0 1.491742 1_555
B7 O25 1.499578 1_554
B8 O24 1.375553 1_555
B8 O31 1.378321 1_556
B8 O25 1.384484 1_555
B9 O1 1.463854 1_565
B9 O7 1.465404 1_555
B9 O18 1.486862 1_555
B9 O12 1.526311 1_555
B10 O11 1.475724 1_556
B10 O7 1.482980 1_555
B10 O20 1.491742 1_555
B10 O30 1.499578 1_556
B11 O29 1.375553 1_555
B11 O12 1.378321 1_554
B11 O30 1.384484 1_555
H0 O15 0.999325 1_555
H0 O26 1.736119 1_455
H1 O8 0.998056 1_665
H2 O11 0.974650 1_555
H3 O17 1.012366 1_445
H4 O6 1.004145 1_555
H4 O7 1.717965 1_555
H5 O10 0.993918 1_555
H5 O3 1.782100 1_655
H6 O16 0.999325 1_555
H6 O7 1.736119 1_555
H7 O1 0.993918 1_555
H7 O21 1.782100 1_555
H8 O0 0.998559 1_555
H8 O3 1.725649 1_655
H9 O9 0.995051 1_555
H10 O17 0.978068 1_455
H11 O20 0.998559 1_555
H11 O21 1.725649 1_555
H12 O13 1.012366 1_565
H13 O13 0.978068 1_555
H14 O27 0.974650 1_555
H15 O9 0.998056 1_545
H16 O5 0.973992 1_555
H17 O8 0.995051 1_555
H18 O22 0.973992 1_555
H19 O4 1.004145 1_555
H19 O26 1.717965 1_455
