# generated using pymatgen
data_Pr2Ni2I
_symmetry_space_group_name_H-M   'P 1'
_cell_length_a   8.16109854
_cell_length_b   8.16109687
_cell_length_c   35.02620294
_cell_angle_alpha   90.00000000
_cell_angle_beta   90.00000000
_cell_angle_gamma   119.99999830
_symmetry_Int_Tables_number   1
_chemical_formula_structural   Pr2Ni2I
_chemical_formula_sum   'Pr32 Ni32 I16'
_cell_volume   2020.32320983
_cell_formula_units_Z   16
loop_
 _symmetry_equiv_pos_site_id
 _symmetry_equiv_pos_as_xyz
  1  'x, y, z'
loop_
 _atom_site_type_symbol
 _atom_site_label
 _atom_site_symmetry_multiplicity
 _atom_site_fract_x
 _atom_site_fract_y
 _atom_site_fract_z
 _atom_site_occupancy
  Pr  Pr0_0  1  0.00000000  0.00000000  0.30219346  1
  Pr  Pr0_1  1  0.00000000  0.00000000  0.80219346  1
  Pr  Pr0_2  1  0.00000000  0.50000000  0.30219346  1
  Pr  Pr0_3  1  0.00000000  0.50000000  0.80219346  1
  Pr  Pr0_4  1  0.50000000  0.00000000  0.30219346  1
  Pr  Pr0_5  1  0.50000000  0.00000000  0.80219346  1
  Pr  Pr0_6  1  0.50000000  0.50000000  0.30219346  1
  Pr  Pr0_7  1  0.50000000  0.50000000  0.80219346  1
  Pr  Pr1_0  1  0.00000000  0.00000000  0.19780654  1
  Pr  Pr1_1  1  0.00000000  0.00000000  0.69780654  1
  Pr  Pr1_2  1  0.00000000  0.50000000  0.19780654  1
  Pr  Pr1_3  1  0.00000000  0.50000000  0.69780654  1
  Pr  Pr1_4  1  0.50000000  0.00000000  0.19780654  1
  Pr  Pr1_5  1  0.50000000  0.00000000  0.69780654  1
  Pr  Pr1_6  1  0.50000000  0.50000000  0.19780654  1
  Pr  Pr1_7  1  0.50000000  0.50000000  0.69780654  1
  Pr  Pr2_0  1  0.00000000  0.00000000  0.05219346  1
  Pr  Pr2_1  1  0.00000000  0.00000000  0.55219346  1
  Pr  Pr2_2  1  0.00000000  0.50000000  0.05219346  1
  Pr  Pr2_3  1  0.00000000  0.50000000  0.55219346  1
  Pr  Pr2_4  1  0.50000000  0.00000000  0.05219346  1
  Pr  Pr2_5  1  0.50000000  0.00000000  0.55219346  1
  Pr  Pr2_6  1  0.50000000  0.50000000  0.05219346  1
  Pr  Pr2_7  1  0.50000000  0.50000000  0.55219346  1
  Pr  Pr3_0  1  0.00000000  0.00000000  0.44780654  1
  Pr  Pr3_1  1  0.00000000  0.00000000  0.94780654  1
  Pr  Pr3_2  1  0.00000000  0.50000000  0.44780654  1
  Pr  Pr3_3  1  0.00000000  0.50000000  0.94780654  1
  Pr  Pr3_4  1  0.50000000  0.00000000  0.44780654  1
  Pr  Pr3_5  1  0.50000000  0.00000000  0.94780654  1
  Pr  Pr3_6  1  0.50000000  0.50000000  0.44780654  1
  Pr  Pr3_7  1  0.50000000  0.50000000  0.94780654  1
  Ni  Ni0_0  1  0.33333350  0.16666650  0.25030973  1
  Ni  Ni0_1  1  0.33333350  0.16666650  0.75030973  1
  Ni  Ni0_2  1  0.33333350  0.66666650  0.25030973  1
  Ni  Ni0_3  1  0.33333350  0.66666650  0.75030973  1
  Ni  Ni0_4  1  0.83333350  0.16666650  0.25030973  1
  Ni  Ni0_5  1  0.83333350  0.16666650  0.75030973  1
  Ni  Ni0_6  1  0.83333350  0.66666650  0.25030973  1
  Ni  Ni0_7  1  0.83333350  0.66666650  0.75030973  1
  Ni  Ni1_0  1  0.16666650  0.33333350  0.00030974  1
  Ni  Ni1_1  1  0.16666650  0.33333350  0.50030974  1
  Ni  Ni1_2  1  0.16666650  0.83333350  0.00030974  1
  Ni  Ni1_3  1  0.16666650  0.83333350  0.50030974  1
  Ni  Ni1_4  1  0.66666650  0.33333350  0.00030974  1
  Ni  Ni1_5  1  0.66666650  0.33333350  0.50030974  1
  Ni  Ni1_6  1  0.66666650  0.83333350  0.00030974  1
  Ni  Ni1_7  1  0.66666650  0.83333350  0.50030974  1
  Ni  Ni2_0  1  0.33333350  0.16666650  0.49969027  1
  Ni  Ni2_1  1  0.33333350  0.16666650  0.99969027  1
  Ni  Ni2_2  1  0.33333350  0.66666650  0.49969027  1
  Ni  Ni2_3  1  0.33333350  0.66666650  0.99969027  1
  Ni  Ni2_4  1  0.83333350  0.16666650  0.49969027  1
  Ni  Ni2_5  1  0.83333350  0.16666650  0.99969027  1
  Ni  Ni2_6  1  0.83333350  0.66666650  0.49969027  1
  Ni  Ni2_7  1  0.83333350  0.66666650  0.99969027  1
  Ni  Ni3_0  1  0.16666650  0.33333350  0.24969026  1
  Ni  Ni3_1  1  0.16666650  0.33333350  0.74969026  1
  Ni  Ni3_2  1  0.16666650  0.83333350  0.24969026  1
  Ni  Ni3_3  1  0.16666650  0.83333350  0.74969026  1
  Ni  Ni3_4  1  0.66666650  0.33333350  0.24969026  1
  Ni  Ni3_5  1  0.66666650  0.33333350  0.74969026  1
  Ni  Ni3_6  1  0.66666650  0.83333350  0.24969026  1
  Ni  Ni3_7  1  0.66666650  0.83333350  0.74969026  1
  I  I0_0  1  0.33333350  0.16666650  0.12500000  1
  I  I0_1  1  0.33333350  0.16666650  0.62500000  1
  I  I0_2  1  0.33333350  0.66666650  0.12500000  1
  I  I0_3  1  0.33333350  0.66666650  0.62500000  1
  I  I0_4  1  0.83333350  0.16666650  0.12500000  1
  I  I0_5  1  0.83333350  0.16666650  0.62500000  1
  I  I0_6  1  0.83333350  0.66666650  0.12500000  1
  I  I0_7  1  0.83333350  0.66666650  0.62500000  1
  I  I1_0  1  0.16666650  0.33333350  0.37500000  1
  I  I1_1  1  0.16666650  0.33333350  0.87500000  1
  I  I1_2  1  0.16666650  0.83333350  0.37500000  1
  I  I1_3  1  0.16666650  0.83333350  0.87500000  1
  I  I1_4  1  0.66666650  0.33333350  0.37500000  1
  I  I1_5  1  0.66666650  0.33333350  0.87500000  1
  I  I1_6  1  0.66666650  0.83333350  0.37500000  1
  I  I1_7  1  0.66666650  0.83333350  0.87500000  1
loop_
_geom_bond_atom_site_label_1
_geom_bond_atom_site_label_2
_geom_bond_distance
_geom_bond_site_symmetry_2
Ni0_0 Ni3_2 2.356003 1_545
Ni0_0 Ni3_4 2.356004 1_555
Ni0_0 Ni3_0 2.356011 1_555
Ni0_0 Pr0_4 2.975370 1_555
Ni0_0 Pr0_6 2.975372 1_555
Ni0_0 Pr0_0 2.975373 1_555
Ni0_0 Pr1_4 2.988671 1_555
Ni0_0 Pr1_6 2.988674 1_555
Ni0_0 Pr1_0 2.988674 1_555
Ni0_1 Ni3_3 2.356003 1_545
Ni0_1 Ni3_5 2.356004 1_555
Ni0_1 Ni3_1 2.356011 1_555
Ni0_1 Pr0_5 2.975370 1_555
Ni0_1 Pr0_7 2.975372 1_555
Ni0_1 Pr0_1 2.975373 1_555
Ni0_1 Pr1_5 2.988671 1_555
Ni0_1 Pr1_7 2.988674 1_555
Ni0_1 Pr1_1 2.988674 1_555
Ni0_2 Ni3_0 2.356003 1_555
Ni0_2 Ni3_6 2.356004 1_555
Ni0_2 Ni3_2 2.356011 1_555
Ni0_2 Pr0_6 2.975370 1_555
Ni0_2 Pr0_4 2.975372 1_565
Ni0_2 Pr0_2 2.975373 1_555
Ni0_2 Pr1_6 2.988671 1_555
Ni0_2 Pr1_4 2.988674 1_565
Ni0_2 Pr1_2 2.988674 1_555
Ni0_3 Ni3_1 2.356003 1_555
Ni0_3 Ni3_7 2.356004 1_555
Ni0_3 Ni3_3 2.356011 1_555
Ni0_3 Pr0_7 2.975370 1_555
Ni0_3 Pr0_5 2.975372 1_565
Ni0_3 Pr0_3 2.975373 1_555
Ni0_3 Pr1_7 2.988671 1_555
Ni0_3 Pr1_5 2.988674 1_565
Ni0_3 Pr1_3 2.988674 1_555
Ni0_4 Ni3_6 2.356003 1_545
Ni0_4 Ni3_0 2.356004 1_655
Ni0_4 Ni3_4 2.356011 1_555
Ni0_4 Pr0_0 2.975370 1_655
Ni0_4 Pr0_2 2.975372 1_655
Ni0_4 Pr0_4 2.975373 1_555
Ni0_4 Pr1_0 2.988671 1_655
Ni0_4 Pr1_2 2.988674 1_655
Ni0_4 Pr1_4 2.988674 1_555
Ni0_5 Ni3_7 2.356003 1_545
Ni0_5 Ni3_1 2.356004 1_655
Ni0_5 Ni3_5 2.356011 1_555
Ni0_5 Pr0_1 2.975370 1_655
Ni0_5 Pr0_3 2.975372 1_655
Ni0_5 Pr0_5 2.975373 1_555
Ni0_5 Pr1_1 2.988671 1_655
Ni0_5 Pr1_3 2.988674 1_655
Ni0_5 Pr1_5 2.988674 1_555
Ni0_6 Ni3_4 2.356003 1_555
Ni0_6 Ni3_2 2.356004 1_655
Ni0_6 Ni3_6 2.356011 1_555
Ni0_6 Pr0_2 2.975370 1_655
Ni0_6 Pr0_0 2.975372 1_665
Ni0_6 Pr0_6 2.975373 1_555
Ni0_6 Pr1_2 2.988671 1_655
Ni0_6 Pr1_0 2.988674 1_665
Ni0_6 Pr1_6 2.988674 1_555
Ni0_7 Ni3_5 2.356003 1_555
Ni0_7 Ni3_3 2.356004 1_655
Ni0_7 Ni3_7 2.356011 1_555
Ni0_7 Pr0_3 2.975370 1_655
Ni0_7 Pr0_1 2.975372 1_665
Ni0_7 Pr0_7 2.975373 1_555
Ni0_7 Pr1_3 2.988671 1_655
Ni0_7 Pr1_1 2.988674 1_665
Ni0_7 Pr1_7 2.988674 1_555
Ni1_0 Ni2_3 2.356003 1_554
Ni1_0 Ni2_5 2.356004 1_454
Ni1_0 Ni2_1 2.356011 1_554
Ni1_0 Pr2_2 2.975370 1_555
Ni1_0 Pr2_0 2.975372 1_555
Ni1_0 Pr2_6 2.975373 1_555
Ni1_0 Pr3_3 2.988671 1_554
Ni1_0 Pr3_1 2.988674 1_554
Ni1_0 Pr3_7 2.988674 1_554
Ni1_1 Ni2_2 2.356003 1_555
Ni1_1 Ni2_4 2.356004 1_455
Ni1_1 Ni2_0 2.356011 1_555
Ni1_1 Pr2_3 2.975370 1_555
Ni1_1 Pr2_1 2.975372 1_555
Ni1_1 Pr2_7 2.975373 1_555
Ni1_1 Pr3_2 2.988671 1_555
Ni1_1 Pr3_0 2.988674 1_555
Ni1_1 Pr3_6 2.988674 1_555
Ni1_2 Ni2_1 2.356003 1_564
Ni1_2 Ni2_7 2.356004 1_454
Ni1_2 Ni2_3 2.356011 1_554
Ni1_2 Pr2_0 2.975370 1_565
Ni1_2 Pr2_2 2.975372 1_555
Ni1_2 Pr2_4 2.975373 1_565
Ni1_2 Pr3_1 2.988671 1_564
Ni1_2 Pr3_3 2.988674 1_554
Ni1_2 Pr3_5 2.988674 1_564
Ni1_3 Ni2_0 2.356003 1_565
Ni1_3 Ni2_6 2.356004 1_455
Ni1_3 Ni2_2 2.356011 1_555
Ni1_3 Pr2_1 2.975370 1_565
Ni1_3 Pr2_3 2.975372 1_555
Ni1_3 Pr2_5 2.975373 1_565
Ni1_3 Pr3_0 2.988671 1_565
Ni1_3 Pr3_2 2.988674 1_555
Ni1_3 Pr3_4 2.988674 1_565
Ni1_4 Ni2_7 2.356003 1_554
Ni1_4 Ni2_1 2.356004 1_554
Ni1_4 Ni2_5 2.356011 1_554
Ni1_4 Pr2_6 2.975370 1_555
Ni1_4 Pr2_4 2.975372 1_555
Ni1_4 Pr2_2 2.975373 1_655
Ni1_4 Pr3_7 2.988671 1_554
Ni1_4 Pr3_5 2.988674 1_554
Ni1_4 Pr3_3 2.988674 1_654
Ni1_5 Ni2_6 2.356003 1_555
Ni1_5 Ni2_0 2.356004 1_555
Ni1_5 Ni2_4 2.356011 1_555
Ni1_5 Pr2_7 2.975370 1_555
Ni1_5 Pr2_5 2.975372 1_555
Ni1_5 Pr2_3 2.975373 1_655
Ni1_5 Pr3_6 2.988671 1_555
Ni1_5 Pr3_4 2.988674 1_555
Ni1_5 Pr3_2 2.988674 1_655
Ni1_6 Ni2_5 2.356003 1_564
Ni1_6 Ni2_3 2.356004 1_554
Ni1_6 Ni2_7 2.356011 1_554
Ni1_6 Pr2_4 2.975370 1_565
Ni1_6 Pr2_6 2.975372 1_555
Ni1_6 Pr2_0 2.975373 1_665
Ni1_6 Pr3_5 2.988671 1_564
Ni1_6 Pr3_7 2.988674 1_554
Ni1_6 Pr3_1 2.988674 1_664
Ni1_7 Ni2_4 2.356003 1_565
Ni1_7 Ni2_2 2.356004 1_555
Ni1_7 Ni2_6 2.356011 1_555
Ni1_7 Pr2_5 2.975370 1_565
Ni1_7 Pr2_7 2.975372 1_555
Ni1_7 Pr2_1 2.975373 1_665
Ni1_7 Pr3_4 2.988671 1_565
Ni1_7 Pr3_6 2.988674 1_555
Ni1_7 Pr3_0 2.988674 1_665
Ni2_0 Pr3_4 2.975370 1_555
Ni2_0 Pr3_6 2.975372 1_555
Ni2_0 Pr3_0 2.975373 1_555
Ni2_0 Pr2_5 2.988671 1_555
Ni2_0 Pr2_7 2.988674 1_555
Ni2_0 Pr2_1 2.988674 1_555
Ni2_1 Pr3_5 2.975370 1_555
Ni2_1 Pr3_7 2.975372 1_555
Ni2_1 Pr3_1 2.975373 1_555
Ni2_1 Pr2_4 2.988671 1_556
Ni2_1 Pr2_6 2.988674 1_556
Ni2_1 Pr2_0 2.988674 1_556
Ni2_2 Pr3_6 2.975370 1_555
Ni2_2 Pr3_4 2.975372 1_565
Ni2_2 Pr3_2 2.975373 1_555
Ni2_2 Pr2_7 2.988671 1_555
Ni2_2 Pr2_5 2.988674 1_565
Ni2_2 Pr2_3 2.988674 1_555
Ni2_3 Pr3_7 2.975370 1_555
Ni2_3 Pr3_5 2.975372 1_565
Ni2_3 Pr3_3 2.975373 1_555
Ni2_3 Pr2_6 2.988671 1_556
Ni2_3 Pr2_4 2.988674 1_566
Ni2_3 Pr2_2 2.988674 1_556
Ni2_4 Pr3_0 2.975370 1_655
Ni2_4 Pr3_2 2.975372 1_655
Ni2_4 Pr3_4 2.975373 1_555
Ni2_4 Pr2_1 2.988671 1_655
Ni2_4 Pr2_3 2.988674 1_655
Ni2_4 Pr2_5 2.988674 1_555
Ni2_5 Pr3_1 2.975370 1_655
Ni2_5 Pr3_3 2.975372 1_655
Ni2_5 Pr3_5 2.975373 1_555
Ni2_5 Pr2_0 2.988671 1_656
Ni2_5 Pr2_2 2.988674 1_656
Ni2_5 Pr2_4 2.988674 1_556
Ni2_6 Pr3_2 2.975370 1_655
Ni2_6 Pr3_0 2.975372 1_665
Ni2_6 Pr3_6 2.975373 1_555
Ni2_6 Pr2_3 2.988671 1_655
Ni2_6 Pr2_1 2.988674 1_665
Ni2_6 Pr2_7 2.988674 1_555
Ni2_7 Pr3_3 2.975370 1_655
Ni2_7 Pr3_1 2.975372 1_665
Ni2_7 Pr3_7 2.975373 1_555
Ni2_7 Pr2_2 2.988671 1_656
Ni2_7 Pr2_0 2.988674 1_666
Ni2_7 Pr2_6 2.988674 1_556
Ni3_0 Pr1_2 2.975370 1_555
Ni3_0 Pr1_0 2.975372 1_555
Ni3_0 Pr1_6 2.975373 1_555
Ni3_0 Pr0_2 2.988671 1_555
Ni3_0 Pr0_0 2.988674 1_555
Ni3_0 Pr0_6 2.988674 1_555
Ni3_1 Pr1_3 2.975370 1_555
Ni3_1 Pr1_1 2.975372 1_555
Ni3_1 Pr1_7 2.975373 1_555
Ni3_1 Pr0_3 2.988671 1_555
Ni3_1 Pr0_1 2.988674 1_555
Ni3_1 Pr0_7 2.988674 1_555
Ni3_2 Pr1_0 2.975370 1_565
Ni3_2 Pr1_2 2.975372 1_555
Ni3_2 Pr1_4 2.975373 1_565
Ni3_2 Pr0_0 2.988671 1_565
Ni3_2 Pr0_2 2.988674 1_555
Ni3_2 Pr0_4 2.988674 1_565
Ni3_3 Pr1_1 2.975370 1_565
Ni3_3 Pr1_3 2.975372 1_555
Ni3_3 Pr1_5 2.975373 1_565
Ni3_3 Pr0_1 2.988671 1_565
Ni3_3 Pr0_3 2.988674 1_555
Ni3_3 Pr0_5 2.988674 1_565
Ni3_4 Pr1_6 2.975370 1_555
Ni3_4 Pr1_4 2.975372 1_555
Ni3_4 Pr1_2 2.975373 1_655
Ni3_4 Pr0_6 2.988671 1_555
Ni3_4 Pr0_4 2.988674 1_555
Ni3_4 Pr0_2 2.988674 1_655
Ni3_5 Pr1_7 2.975370 1_555
Ni3_5 Pr1_5 2.975372 1_555
Ni3_5 Pr1_3 2.975373 1_655
Ni3_5 Pr0_7 2.988671 1_555
Ni3_5 Pr0_5 2.988674 1_555
Ni3_5 Pr0_3 2.988674 1_655
Ni3_6 Pr1_4 2.975370 1_565
Ni3_6 Pr1_6 2.975372 1_555
Ni3_6 Pr1_0 2.975373 1_665
Ni3_6 Pr0_4 2.988671 1_565
Ni3_6 Pr0_6 2.988674 1_555
Ni3_6 Pr0_0 2.988674 1_665
Ni3_7 Pr1_5 2.975370 1_565
Ni3_7 Pr1_7 2.975372 1_555
Ni3_7 Pr1_1 2.975373 1_665
Ni3_7 Pr0_5 2.988671 1_565
Ni3_7 Pr0_7 2.988674 1_555
Ni3_7 Pr0_1 2.988674 1_665
I0_0 Pr2_4 3.471812 1_555
I0_0 Pr1_4 3.471812 1_555
I0_0 Pr1_6 3.471814 1_555
I0_0 Pr2_6 3.471814 1_555
I0_0 Pr2_0 3.471815 1_555
I0_0 Pr1_0 3.471815 1_555
I0_0 I0_2 4.080548 1_555
I0_0 I0_2 4.080548 1_545
I0_0 I0_6 4.080549 1_555
I0_0 I0_6 4.080549 1_445
I0_0 I0_4 4.080549 1_455
I0_0 I0_4 4.080549 1_555
I0_1 Pr2_5 3.471812 1_555
I0_1 Pr1_5 3.471812 1_555
I0_1 Pr2_7 3.471814 1_555
I0_1 Pr1_7 3.471814 1_555
I0_1 Pr2_1 3.471815 1_555
I0_1 Pr1_1 3.471815 1_555
I0_1 I0_3 4.080548 1_555
I0_1 I0_3 4.080548 1_545
I0_1 I0_7 4.080549 1_445
I0_1 I0_7 4.080549 1_555
I0_1 I0_5 4.080549 1_455
I0_1 I0_5 4.080549 1_555
I0_2 Pr1_6 3.471812 1_555
I0_2 Pr2_6 3.471812 1_555
I0_2 Pr2_4 3.471814 1_565
I0_2 Pr1_4 3.471814 1_565
I0_2 Pr1_2 3.471815 1_555
I0_2 Pr2_2 3.471815 1_555
I0_2 I0_4 4.080549 1_455
I0_2 I0_4 4.080549 1_565
I0_2 I0_6 4.080549 1_555
I0_2 I0_6 4.080549 1_455
I0_3 Pr2_7 3.471812 1_555
I0_3 Pr1_7 3.471812 1_555
I0_3 Pr1_5 3.471814 1_565
I0_3 Pr2_5 3.471814 1_565
I0_3 Pr1_3 3.471815 1_555
I0_3 Pr2_3 3.471815 1_555
I0_3 I0_5 4.080549 1_455
I0_3 I0_5 4.080549 1_565
I0_3 I0_7 4.080549 1_455
I0_3 I0_7 4.080549 1_555
I0_4 Pr2_0 3.471812 1_655
I0_4 Pr1_0 3.471812 1_655
I0_4 Pr2_2 3.471814 1_655
I0_4 Pr1_2 3.471814 1_655
I0_4 Pr2_4 3.471815 1_555
I0_4 Pr1_4 3.471815 1_555
I0_4 I0_6 4.080548 1_555
I0_4 I0_6 4.080548 1_545
I0_5 Pr1_1 3.471812 1_655
I0_5 Pr2_1 3.471812 1_655
I0_5 Pr2_3 3.471814 1_655
I0_5 Pr1_3 3.471814 1_655
I0_5 Pr2_5 3.471815 1_555
I0_5 Pr1_5 3.471815 1_555
I0_5 I0_7 4.080548 1_555
I0_5 I0_7 4.080548 1_545
I0_6 Pr2_2 3.471812 1_655
I0_6 Pr1_2 3.471812 1_655
I0_6 Pr2_0 3.471814 1_665
I0_6 Pr1_0 3.471814 1_665
I0_6 Pr1_6 3.471815 1_555
I0_6 Pr2_6 3.471815 1_555
I0_7 Pr2_3 3.471812 1_655
I0_7 Pr1_3 3.471812 1_655
I0_7 Pr1_1 3.471814 1_665
I0_7 Pr2_1 3.471814 1_665
I0_7 Pr2_7 3.471815 1_555
I0_7 Pr1_7 3.471815 1_555
I1_0 Pr3_2 3.471812 1_555
I1_0 Pr0_2 3.471812 1_555
I1_0 Pr3_0 3.471814 1_555
I1_0 Pr0_0 3.471814 1_555
I1_0 Pr3_6 3.471815 1_555
I1_0 Pr0_6 3.471815 1_555
I1_0 I1_2 4.080548 1_545
I1_0 I1_2 4.080548 1_555
I1_0 I1_6 4.080549 1_555
I1_0 I1_6 4.080549 1_445
I1_0 I1_4 4.080549 1_455
I1_0 I1_4 4.080549 1_555
I1_1 Pr0_3 3.471812 1_555
I1_1 Pr3_3 3.471812 1_555
I1_1 Pr0_1 3.471814 1_555
I1_1 Pr3_1 3.471814 1_555
I1_1 Pr0_7 3.471815 1_555
I1_1 Pr3_7 3.471815 1_555
I1_1 I1_3 4.080548 1_545
I1_1 I1_3 4.080548 1_555
I1_1 I1_7 4.080549 1_555
I1_1 I1_7 4.080549 1_445
I1_1 I1_5 4.080549 1_455
I1_1 I1_5 4.080549 1_555
I1_2 Pr3_0 3.471812 1_565
I1_2 Pr0_0 3.471812 1_565
I1_2 Pr3_2 3.471814 1_555
I1_2 Pr0_2 3.471814 1_555
I1_2 Pr3_4 3.471815 1_565
I1_2 Pr0_4 3.471815 1_565
I1_2 I1_4 4.080549 1_565
I1_2 I1_4 4.080549 1_455
I1_2 I1_6 4.080549 1_455
I1_2 I1_6 4.080549 1_555
I1_3 Pr0_1 3.471812 1_565
I1_3 Pr3_1 3.471812 1_565
I1_3 Pr0_3 3.471814 1_555
I1_3 Pr3_3 3.471814 1_555
I1_3 Pr0_5 3.471815 1_565
I1_3 Pr3_5 3.471815 1_565
I1_3 I1_5 4.080549 1_565
I1_3 I1_5 4.080549 1_455
I1_3 I1_7 4.080549 1_455
I1_3 I1_7 4.080549 1_555
I1_4 Pr3_6 3.471812 1_555
I1_4 Pr0_6 3.471812 1_555
I1_4 Pr3_4 3.471814 1_555
I1_4 Pr0_4 3.471814 1_555
I1_4 Pr3_2 3.471815 1_655
I1_4 Pr0_2 3.471815 1_655
I1_4 I1_6 4.080548 1_555
I1_4 I1_6 4.080548 1_545
I1_5 Pr0_7 3.471812 1_555
I1_5 Pr3_7 3.471812 1_555
I1_5 Pr0_5 3.471814 1_555
I1_5 Pr3_5 3.471814 1_555
I1_5 Pr0_3 3.471815 1_655
I1_5 Pr3_3 3.471815 1_655
I1_5 I1_7 4.080548 1_555
I1_5 I1_7 4.080548 1_545
I1_6 Pr3_4 3.471812 1_565
I1_6 Pr0_4 3.471812 1_565
I1_6 Pr3_6 3.471814 1_555
I1_6 Pr0_6 3.471814 1_555
I1_6 Pr3_0 3.471815 1_665
I1_6 Pr0_0 3.471815 1_665
I1_7 Pr0_5 3.471812 1_565
I1_7 Pr3_5 3.471812 1_565
I1_7 Pr0_7 3.471814 1_555
I1_7 Pr3_7 3.471814 1_555
I1_7 Pr0_1 3.471815 1_665
I1_7 Pr3_1 3.471815 1_665
