# generated using pymatgen
data_Sr2NiTeO6
_symmetry_space_group_name_H-M   'P 1'
_cell_length_a   6.29575724
_cell_length_b   6.29575724
_cell_length_c   6.29575724
_cell_angle_alpha   128.44945161
_cell_angle_beta   128.04925151
_cell_angle_gamma   76.22188077
_symmetry_Int_Tables_number   1
_chemical_formula_structural   Sr2NiTeO6
_chemical_formula_sum   'Sr2 Ni1 Te1 O6'
_cell_volume   149.57837315
_cell_formula_units_Z   1
loop_
 _symmetry_equiv_pos_site_id
 _symmetry_equiv_pos_as_xyz
  1  'x, y, z'
loop_
 _atom_site_type_symbol
 _atom_site_label
 _atom_site_symmetry_multiplicity
 _atom_site_fract_x
 _atom_site_fract_y
 _atom_site_fract_z
 _atom_site_occupancy
  Sr  Sr0  1  0.30837400  0.30837400  0.00000000  1
  Sr  Sr1  1  0.69162600  0.69162600  0.00000000  1
  Ni  Ni0  1  0.00000000  0.00000000  0.00000000  1
  Te  Te0  1  0.00000000  0.50000000  0.50000000  1
  O  O0  1  0.75706100  0.75561800  0.51267900  1
  O  O1  1  0.24293900  0.24438200  0.48732100  1
  O  O2  1  0.80094500  0.30094500  0.50000000  1
  O  O3  1  0.75706100  0.24438200  0.00144300  1
  O  O4  1  0.24293900  0.75561800  0.99855700  1
  O  O5  1  0.19905500  0.69905500  0.50000000  1
loop_
_geom_bond_atom_site_label_1
_geom_bond_atom_site_label_2
_geom_bond_distance
_geom_bond_site_symmetry_2
Ni0 O0 1.893529 1_444
Ni0 O1 1.893529 1_555
Ni0 O4 1.893529 1_544
Ni0 O3 1.893529 1_455
Ni0 Sr0 3.055129 1_555
Ni0 Sr1 3.055129 1_445
O0 Te0 1.937492 1_655
O0 Sr1 2.751883 1_555
O0 Sr0 2.751883 1_555
O0 O5 2.764594 1_655
O0 O2 2.764594 1_555
O1 Te0 1.937492 1_555
O1 Sr1 2.751883 1_556
O1 Sr0 2.751883 1_556
O1 O5 2.764594 1_555
O1 O2 2.764594 1_455
O2 Te0 1.972082 1_655
O2 Sr0 2.758428 1_656
O2 Sr0 2.758428 1_555
O2 O4 2.764594 1_655
O2 O3 2.764594 1_555
O2 Sr1 2.944111 1_545
O2 Sr1 2.944111 1_556
O3 Te0 1.937492 1_655
O3 Sr1 2.751883 1_555
O3 Sr0 2.751883 1_555
O3 O5 2.764594 1_655
O4 Te0 1.937492 1_555
O4 Sr1 2.751883 1_556
O4 Sr0 2.751883 1_556
O4 O5 2.764594 1_555
O5 Te0 1.972082 1_555
O5 Sr1 2.758428 1_455
O5 Sr1 2.758428 1_556
O5 Sr0 2.944111 1_566
O5 Sr0 2.944111 1_555
