# generated using pymatgen
data_CsTa2P5O18
_symmetry_space_group_name_H-M   'P 1'
_cell_length_a   5.15241145
_cell_length_b   10.93587177
_cell_length_c   14.42786369
_cell_angle_alpha   82.90765879
_cell_angle_beta   86.93438395
_cell_angle_gamma   84.67389512
_symmetry_Int_Tables_number   1
_chemical_formula_structural   CsTa2P5O18
_chemical_formula_sum   'Cs2 Ta4 P10 O36'
_cell_volume   802.52392353
_cell_formula_units_Z   2
loop_
 _symmetry_equiv_pos_site_id
 _symmetry_equiv_pos_as_xyz
  1  'x, y, z'
loop_
 _atom_site_type_symbol
 _atom_site_label
 _atom_site_symmetry_multiplicity
 _atom_site_fract_x
 _atom_site_fract_y
 _atom_site_fract_z
 _atom_site_occupancy
  Cs  Cs0  1  0.70528897  0.89959882  0.62001140  1
  Cs  Cs1  1  0.29471103  0.10040118  0.37998860  1
  Ta  Ta0  1  0.70097964  0.71110948  0.99047194  1
  Ta  Ta1  1  0.74996291  0.44298898  0.64664849  1
  Ta  Ta2  1  0.25003709  0.55701102  0.35335151  1
  Ta  Ta3  1  0.29902036  0.28889052  0.00952806  1
  P  P0  1  0.22052563  0.62860922  0.57799488  1
  P  P1  1  0.80919605  0.14795521  0.13957530  1
  P  P2  1  0.20999522  0.55432160  0.11157524  1
  P  P3  1  0.77947437  0.37139078  0.42200512  1
  P  P4  1  0.70265961  0.76919858  0.33288743  1
  P  P5  1  0.29734039  0.23080142  0.66711257  1
  P  P6  1  0.59918476  0.91407444  0.15412999  1
  P  P7  1  0.79000478  0.44567840  0.88842476  1
  P  P8  1  0.19080395  0.85204479  0.86042470  1
  P  P9  1  0.40081524  0.08592556  0.84587001  1
  O  O0  1  0.18100053  0.42526013  0.08478896  1
  O  O1  1  0.68062066  0.86185236  0.39828470  1
  O  O2  1  0.82220350  0.15197152  0.23962731  1
  O  O3  1  0.95443513  0.81025890  0.92284926  1
  O  O4  1  0.81899947  0.57473987  0.91521104  1
  O  O5  1  0.43326155  0.55454902  0.64064899  1
  O  O6  1  0.95734919  0.58749070  0.62335782  1
  O  O7  1  0.23732178  0.76240367  0.56423607  1
  O  O8  1  0.97110806  0.64018450  0.08166981  1
  O  O9  1  0.64792221  0.03262953  0.80839717  1
  O  O10  1  0.56901917  0.22547397  0.09479424  1
  O  O11  1  0.76267822  0.23759633  0.43576393  1
  O  O12  1  0.35207779  0.96737047  0.19160283  1
  O  O13  1  0.54486271  0.39867088  0.93943832  1
  O  O14  1  0.22845866  0.17151982  0.77284139  1
  O  O15  1  0.25394291  0.56787195  0.48481863  1
  O  O16  1  0.04556487  0.18974110  0.07715074  1
  O  O17  1  0.92911373  0.66785778  0.34692474  1
  O  O18  1  0.54315876  0.29826787  0.67626208  1
  O  O19  1  0.04265081  0.41250930  0.37664218  1
  O  O20  1  0.20862103  0.98682134  0.89017465  1
  O  O21  1  0.07088627  0.33214222  0.65307526  1
  O  O22  1  0.77154134  0.82848018  0.22715861  1
  O  O23  1  0.79137897  0.01317866  0.10982535  1
  O  O24  1  0.45513729  0.60132912  0.06056168  1
  O  O25  1  0.74605709  0.43212805  0.51518137  1
  O  O26  1  0.76313769  0.45307638  0.78437447  1
  O  O27  1  0.58931372  0.83621477  0.07254937  1
  O  O28  1  0.23686231  0.54692362  0.21562553  1
  O  O29  1  0.02889194  0.35981550  0.91833019  1
  O  O30  1  0.31937934  0.13814764  0.60171530  1
  O  O31  1  0.17779650  0.84802848  0.76037269  1
  O  O32  1  0.41068628  0.16378523  0.92745063  1
  O  O33  1  0.43098083  0.77452603  0.90520576  1
  O  O34  1  0.45684124  0.70173213  0.32373792  1
  O  O35  1  0.56673845  0.44545098  0.35935101  1
loop_
_geom_bond_atom_site_label_1
_geom_bond_atom_site_label_2
_geom_bond_distance
_geom_bond_site_symmetry_2
Cs0 O7 3.116366 1_655
Cs0 O30 3.122804 1_565
Cs0 O7 3.144771 1_555
Cs0 O31 3.215059 1_655
Cs0 O9 3.225221 1_565
Cs0 O1 3.286296 1_555
Cs0 O31 3.349586 1_555
Cs0 O6 3.532965 1_555
Cs0 O30 4.261382 1_665
Cs1 O11 3.116366 1_455
Cs1 O1 3.122804 1_545
Cs1 O11 3.144771 1_555
Cs1 O2 3.215059 1_455
Cs1 O12 3.225221 1_545
Cs1 O30 3.286296 1_555
Cs1 O2 3.349586 1_555
Cs1 O19 3.532965 1_555
Cs1 O1 4.261382 1_445
O0 P2 1.530928 1_555
O0 Ta3 1.983377 1_555
O1 P4 1.460516 1_555
O2 P1 1.454912 1_555
O3 P8 1.545175 1_655
O3 Ta0 1.923103 1_555
O4 P7 1.530928 1_555
O4 Ta0 1.983377 1_555
O5 P0 1.560427 1_555
O5 Ta1 1.943719 1_555
O6 P0 1.553987 1_655
O6 Ta1 1.973788 1_555
O7 P0 1.462079 1_555
O8 P2 1.524807 1_655
O8 Ta0 2.003371 1_554
O9 P9 1.455836 1_555
O10 P1 1.556594 1_555
O10 Ta3 1.929487 1_555
O11 P3 1.462079 1_555
O12 P6 1.455836 1_555
O13 P7 1.526112 1_555
O13 Ta3 1.978363 1_556
O14 P9 1.573915 1_555
O14 P5 1.616731 1_555
O15 P0 1.566068 1_555
O15 Ta2 1.916372 1_555
O16 P1 1.545175 1_455
O16 Ta3 1.923103 1_555
O17 P4 1.536363 1_555
O17 Ta2 1.956713 1_655
O18 P5 1.543168 1_555
O18 Ta1 1.979927 1_555
O19 P3 1.553987 1_455
O19 Ta2 1.973788 1_555
O20 P9 1.588803 1_565
O20 P8 1.597059 1_555
O21 P5 1.536363 1_555
O21 Ta1 1.956713 1_455
O22 P6 1.573915 1_555
O22 P4 1.616731 1_555
O23 P6 1.588803 1_545
O23 P1 1.597059 1_555
O24 P2 1.526112 1_555
O24 Ta0 1.978363 1_554
O25 P3 1.566068 1_555
O25 Ta1 1.916372 1_555
O26 P7 1.506498 1_555
O26 Ta1 2.008795 1_555
O27 P6 1.541074 1_555
O27 Ta0 1.945822 1_554
O28 P2 1.506498 1_555
O28 Ta2 2.008795 1_555
O29 P7 1.524807 1_455
O29 Ta3 2.003371 1_556
O30 P5 1.460516 1_555
O31 P8 1.454912 1_555
O32 P9 1.541074 1_555
O32 Ta3 1.945822 1_556
O33 P8 1.556594 1_555
O33 Ta0 1.929487 1_555
O34 P4 1.543168 1_555
O34 Ta2 1.979927 1_555
O35 P3 1.560427 1_555
O35 Ta2 1.943719 1_555
