# generated using pymatgen
data_DyTiClO3
_symmetry_space_group_name_H-M   'P 1'
_cell_length_a   5.29712443
_cell_length_b   5.29712443
_cell_length_c   9.90590831
_cell_angle_alpha   74.45669371
_cell_angle_beta   74.45669371
_cell_angle_gamma   43.45717468
_symmetry_Int_Tables_number   1
_chemical_formula_structural   DyTiClO3
_chemical_formula_sum   'Dy2 Ti2 Cl2 O6'
_cell_volume   183.05404152
_cell_formula_units_Z   2
loop_
 _symmetry_equiv_pos_site_id
 _symmetry_equiv_pos_as_xyz
  1  'x, y, z'
loop_
 _atom_site_type_symbol
 _atom_site_label
 _atom_site_symmetry_multiplicity
 _atom_site_fract_x
 _atom_site_fract_y
 _atom_site_fract_z
 _atom_site_occupancy
  Dy  Dy0  1  0.77833100  0.77833100  0.20488300  1
  Dy  Dy1  1  0.22166900  0.22166900  0.79511700  1
  Ti  Ti0  1  0.61870100  0.61870100  0.57011700  1
  Ti  Ti1  1  0.38129900  0.38129900  0.42988300  1
  Cl  Cl0  1  0.11403500  0.11403500  0.09478700  1
  Cl  Cl1  1  0.88596500  0.88596500  0.90521300  1
  O  O0  1  0.16782700  0.16782700  0.56494100  1
  O  O1  1  0.57785600  0.57785600  0.37526000  1
  O  O2  1  0.65064800  0.65064800  0.74790200  1
  O  O3  1  0.34935200  0.34935200  0.25209800  1
  O  O4  1  0.83217300  0.83217300  0.43505900  1
  O  O5  1  0.42214400  0.42214400  0.62474000  1
loop_
_geom_bond_atom_site_label_1
_geom_bond_atom_site_label_2
_geom_bond_distance
_geom_bond_site_symmetry_2
Dy0 O3 2.177522 1_565
Dy0 O3 2.177522 1_655
Dy0 O1 2.195453 1_555
Dy0 O4 2.485294 1_555
Dy1 O2 2.177522 1_545
Dy1 O2 2.177522 1_455
Dy1 O5 2.195453 1_555
Dy1 O0 2.485294 1_555
Cl0 Dy1 2.849554 1_554
Cl0 Dy0 2.943963 1_455
Cl0 Dy0 2.943963 1_545
Cl0 O3 3.142233 1_555
Cl0 Dy0 3.166381 1_445
Cl0 O3 3.273772 1_545
Cl0 O3 3.273772 1_455
Cl0 Cl1 3.316067 1_444
Cl0 O1 3.334808 1_545
Cl0 O1 3.334808 1_455
Cl0 Cl1 3.410992 1_544
Cl0 Cl1 3.410992 1_454
Cl1 Dy0 2.849554 1_556
Cl1 Dy1 2.943963 1_565
Cl1 Dy1 2.943963 1_655
Cl1 O2 3.142233 1_555
Cl1 Dy1 3.166381 1_665
Cl1 O2 3.273772 1_655
Cl1 O2 3.273772 1_565
Cl1 O5 3.334808 1_655
Cl1 O5 3.334808 1_565
O0 Ti0 2.016877 1_545
O0 Ti0 2.016877 1_455
O0 Ti1 2.140573 1_555
O1 Ti1 1.852264 1_555
O1 Ti0 2.082075 1_555
O2 Ti0 1.876126 1_555
O3 Ti1 1.876126 1_555
O4 Ti1 2.016877 1_655
O4 Ti1 2.016877 1_565
O4 Ti0 2.140573 1_555
O5 Ti0 1.852264 1_555
O5 Ti1 2.082075 1_555
