# generated using pymatgen
data_Nd6S4N3Cl
_symmetry_space_group_name_H-M   'P 1'
_cell_length_a   4.02346700
_cell_length_b   11.82081700
_cell_length_c   26.71453500
_cell_angle_alpha   90.00000000
_cell_angle_beta   90.00000000
_cell_angle_gamma   90.00000000
_symmetry_Int_Tables_number   1
_chemical_formula_structural   Nd6S4N3Cl
_chemical_formula_sum   'Nd24 S16 N12 Cl4'
_cell_volume   1270.56110620
_cell_formula_units_Z   4
loop_
 _symmetry_equiv_pos_site_id
 _symmetry_equiv_pos_as_xyz
  1  'x, y, z'
loop_
 _atom_site_type_symbol
 _atom_site_label
 _atom_site_symmetry_multiplicity
 _atom_site_fract_x
 _atom_site_fract_y
 _atom_site_fract_z
 _atom_site_occupancy
  Nd  Nd0  1  0.25000000  0.38374200  0.29454500  1
  Nd  Nd1  1  0.75000000  0.08736800  0.04049200  1
  Nd  Nd2  1  0.75000000  0.58736800  0.45950800  1
  Nd  Nd3  1  0.25000000  0.23302800  0.66874300  1
  Nd  Nd4  1  0.25000000  0.41263200  0.54049200  1
  Nd  Nd5  1  0.25000000  0.88374200  0.20545500  1
  Nd  Nd6  1  0.75000000  0.55504500  0.19082000  1
  Nd  Nd7  1  0.75000000  0.05504500  0.30918000  1
  Nd  Nd8  1  0.25000000  0.23424600  0.93463800  1
  Nd  Nd9  1  0.75000000  0.61625800  0.70545500  1
  Nd  Nd10  1  0.75000000  0.76697200  0.33125700  1
  Nd  Nd11  1  0.25000000  0.94495500  0.69082000  1
  Nd  Nd12  1  0.25000000  0.94236700  0.42629900  1
  Nd  Nd13  1  0.25000000  0.44236700  0.07370100  1
  Nd  Nd14  1  0.25000000  0.73424600  0.56536200  1
  Nd  Nd15  1  0.75000000  0.26575400  0.43463800  1
  Nd  Nd16  1  0.75000000  0.11625800  0.79454500  1
  Nd  Nd17  1  0.75000000  0.55763300  0.92629900  1
  Nd  Nd18  1  0.75000000  0.05763300  0.57370100  1
  Nd  Nd19  1  0.75000000  0.26697200  0.16874300  1
  Nd  Nd20  1  0.25000000  0.44495500  0.80918000  1
  Nd  Nd21  1  0.75000000  0.76575400  0.06536200  1
  Nd  Nd22  1  0.25000000  0.91263200  0.95950800  1
  Nd  Nd23  1  0.25000000  0.73302800  0.83125700  1
  S  S0  1  0.75000000  0.31699700  0.85856100  1
  S  S1  1  0.25000000  0.21487300  0.10335600  1
  S  S2  1  0.25000000  0.54555200  0.63448600  1
  S  S3  1  0.75000000  0.95444800  0.13448600  1
  S  S4  1  0.75000000  0.28512700  0.60335600  1
  S  S5  1  0.75000000  0.45444800  0.36551400  1
  S  S6  1  0.25000000  0.04555200  0.86551400  1
  S  S7  1  0.25000000  0.71487300  0.39664400  1
  S  S8  1  0.25000000  0.14550100  0.49249000  1
  S  S9  1  0.75000000  0.85449900  0.50751000  1
  S  S10  1  0.75000000  0.81699700  0.64143900  1
  S  S11  1  0.25000000  0.64550100  0.00751000  1
  S  S12  1  0.75000000  0.35449900  0.99249000  1
  S  S13  1  0.25000000  0.18300300  0.35856100  1
  S  S14  1  0.75000000  0.78512700  0.89664400  1
  S  S15  1  0.25000000  0.68300300  0.14143900  1
  N  N0  1  0.75000000  0.40218900  0.49066900  1
  N  N1  1  0.25000000  0.56058100  0.87642400  1
  N  N2  1  0.75000000  0.38871700  0.23952800  1
  N  N3  1  0.75000000  0.93941900  0.37642400  1
  N  N4  1  0.75000000  0.43941900  0.12357600  1
  N  N5  1  0.25000000  0.06058100  0.62357600  1
  N  N6  1  0.25000000  0.11128300  0.73952800  1
  N  N7  1  0.25000000  0.59781100  0.50933100  1
  N  N8  1  0.75000000  0.88871700  0.26047200  1
  N  N9  1  0.75000000  0.90218900  0.00933100  1
  N  N10  1  0.25000000  0.61128300  0.76047200  1
  N  N11  1  0.25000000  0.09781100  0.99066900  1
  Cl  Cl0  1  0.25000000  0.63156300  0.26795900  1
  Cl  Cl1  1  0.75000000  0.36843700  0.73204100  1
  Cl  Cl2  1  0.25000000  0.13156300  0.23204100  1
  Cl  Cl3  1  0.75000000  0.86843700  0.76795900  1
loop_
_geom_bond_atom_site_label_1
_geom_bond_atom_site_label_2
_geom_bond_distance
_geom_bond_site_symmetry_2
Nd0 S5 2.887921 1_555
Nd0 S5 2.887921 1_455
Nd0 S13 2.924943 1_555
Nd1 S3 2.962076 1_545
Nd1 S1 3.023093 1_555
Nd1 S1 3.023093 1_655
Nd1 S12 3.408157 1_554
Nd2 S5 2.962076 1_555
Nd2 S7 3.023093 1_555
Nd2 S7 3.023093 1_655
Nd2 S9 3.408157 1_555
Nd3 S4 2.734520 1_455
Nd3 S4 2.734520 1_555
Nd3 S2 3.805954 1_555
Nd4 S2 2.962076 1_555
Nd4 S4 3.023093 1_455
Nd4 S4 3.023093 1_555
Nd4 S8 3.408157 1_555
Nd5 S3 2.887921 1_455
Nd5 S3 2.887921 1_555
Nd5 S15 2.924943 1_555
Nd6 S15 2.841689 1_655
Nd6 S15 2.841689 1_555
Nd7 S13 2.841689 1_655
Nd7 S13 2.841689 1_555
Nd8 S6 2.895720 1_555
Nd8 S12 2.907961 1_555
Nd8 S12 2.907961 1_455
Nd8 S0 3.022319 1_455
Nd8 S0 3.022319 1_555
Nd9 S2 2.887921 1_555
Nd9 S2 2.887921 1_655
Nd9 S10 2.924943 1_555
Nd10 S7 2.734520 1_555
Nd10 S7 2.734520 1_655
Nd10 S5 3.805954 1_555
Nd11 S10 2.841689 1_555
Nd11 S10 2.841689 1_455
Nd12 S7 2.803430 1_555
Nd12 S8 2.982039 1_565
Nd12 S9 3.135714 1_555
Nd12 S9 3.135714 1_455
Nd12 S13 3.371331 1_565
Nd13 S1 2.803430 1_555
Nd13 S11 2.982039 1_555
Nd13 S12 3.135714 1_454
Nd13 S12 3.135714 1_554
Nd13 S15 3.371331 1_555
Nd14 S2 2.895720 1_555
Nd14 S9 2.907961 1_555
Nd14 S9 2.907961 1_455
Nd14 S10 3.022319 1_455
Nd14 S10 3.022319 1_555
Nd15 S5 2.895720 1_555
Nd15 S8 2.907961 1_655
Nd15 S8 2.907961 1_555
Nd15 S13 3.022319 1_555
Nd15 S13 3.022319 1_655
Nd16 S6 2.887921 1_655
Nd16 S6 2.887921 1_555
Nd16 S0 2.924943 1_555
Nd17 S14 2.803430 1_555
Nd17 S12 2.982039 1_555
Nd17 S11 3.135714 1_556
Nd17 S11 3.135714 1_656
Nd17 S0 3.371331 1_555
Nd18 S4 2.803430 1_555
Nd18 S9 2.982039 1_545
Nd18 S8 3.135714 1_655
Nd18 S8 3.135714 1_555
Nd18 S10 3.371331 1_545
Nd19 S1 2.734520 1_555
Nd19 S1 2.734520 1_655
Nd19 S3 3.805954 1_545
Nd20 S0 2.841689 1_455
Nd20 S0 2.841689 1_555
Nd21 S3 2.895720 1_555
Nd21 S11 2.907961 1_555
Nd21 S11 2.907961 1_655
Nd21 S15 3.022319 1_655
Nd21 S15 3.022319 1_555
Nd22 S6 2.962076 1_565
Nd22 S14 3.023093 1_555
Nd22 S14 3.023093 1_455
Nd22 S11 3.408157 1_556
Nd23 S14 2.734520 1_455
Nd23 S14 2.734520 1_555
Nd23 S6 3.805954 1_565
S1 S3 3.770337 1_545
S1 S3 3.770337 1_445
S2 S4 3.770337 1_455
S2 S4 3.770337 1_555
S5 S7 3.770337 1_655
S5 S7 3.770337 1_555
S14 S6 3.770337 1_565
S14 S6 3.770337 1_665
N0 Nd15 2.200358 1_555
N0 Nd2 2.341912 1_555
N0 Nd4 2.415340 1_655
N0 Nd4 2.415340 1_555
N0 S4 3.313187 1_555
N1 Nd20 2.257244 1_555
N1 Nd23 2.368809 1_555
N1 Nd17 2.413202 1_555
N1 Nd17 2.413202 1_455
N2 Nd6 2.357717 1_555
N2 Nd19 2.376325 1_555
N2 Nd0 2.492129 1_555
N2 Nd0 2.492129 1_655
N3 Nd7 2.257244 1_565
N3 Nd10 2.368809 1_555
N3 Nd12 2.413202 1_655
N3 Nd12 2.413202 1_555
N4 Nd6 2.257244 1_555
N4 Nd19 2.368809 1_555
N4 Nd13 2.413202 1_555
N4 Nd13 2.413202 1_655
N5 Nd11 2.257244 1_545
N5 Nd3 2.368809 1_555
N5 Nd18 2.413202 1_555
N5 Nd18 2.413202 1_455
N6 Nd11 2.357717 1_545
N6 Nd3 2.376325 1_555
N6 Nd16 2.492129 1_555
N6 Nd16 2.492129 1_455
N7 Nd14 2.200358 1_555
N7 Nd4 2.341912 1_555
N7 Nd2 2.415340 1_555
N7 Nd2 2.415340 1_455
N7 S7 3.313187 1_555
N8 Nd7 2.357717 1_565
N8 Nd10 2.376325 1_555
N8 Nd5 2.492129 1_655
N8 Nd5 2.492129 1_555
N9 Nd21 2.200358 1_555
N9 Nd1 2.341912 1_565
N9 Nd22 2.415340 1_554
N9 Nd22 2.415340 1_654
N9 S14 3.313187 1_554
N10 Nd20 2.357717 1_555
N10 Nd23 2.376325 1_555
N10 Nd9 2.492129 1_555
N10 Nd9 2.492129 1_455
N11 Nd8 2.200358 1_555
N11 Nd22 2.341912 1_545
N11 Nd1 2.415340 1_556
N11 Nd1 2.415340 1_456
N11 S1 3.313187 1_556
Cl0 Nd0 3.014314 1_555
Cl0 Nd6 3.018579 1_555
Cl0 Nd6 3.018579 1_455
Cl0 Nd10 3.077099 1_455
Cl0 Nd10 3.077099 1_555
Cl0 Nd5 3.416760 1_555
Cl0 S15 3.434184 1_555
Cl0 S7 3.576033 1_555
Cl1 Nd9 3.014314 1_555
Cl1 Nd20 3.018579 1_655
Cl1 Nd20 3.018579 1_555
Cl1 Nd3 3.077099 1_555
Cl1 Nd3 3.077099 1_655
Cl1 Nd16 3.416760 1_555
Cl1 S0 3.434184 1_555
Cl1 S4 3.576033 1_555
Cl2 Nd5 3.014314 1_545
Cl2 Nd7 3.018579 1_455
Cl2 Nd7 3.018579 1_555
Cl2 Nd19 3.077099 1_555
Cl2 Nd19 3.077099 1_455
Cl2 Nd0 3.416760 1_555
Cl2 S13 3.434184 1_555
Cl2 S1 3.576033 1_555
Cl3 Nd16 3.014314 1_565
Cl3 Nd11 3.018579 1_555
Cl3 Nd11 3.018579 1_655
Cl3 Nd23 3.077099 1_555
Cl3 Nd23 3.077099 1_655
Cl3 Nd9 3.416760 1_555
Cl3 S10 3.434184 1_555
Cl3 S14 3.576033 1_555
