# generated using pymatgen
data_SrHfO3
_symmetry_space_group_name_H-M   'P 1'
_cell_length_a   5.73453937
_cell_length_b   5.73453937
_cell_length_c   4.13569603
_cell_angle_alpha   90.00000000
_cell_angle_beta   90.00000000
_cell_angle_gamma   90.00000000
_symmetry_Int_Tables_number   1
_chemical_formula_structural   SrHfO3
_chemical_formula_sum   'Sr2 Hf2 O6'
_cell_volume   136.00212319
_cell_formula_units_Z   2
loop_
 _symmetry_equiv_pos_site_id
 _symmetry_equiv_pos_as_xyz
  1  'x, y, z'
loop_
 _atom_site_type_symbol
 _atom_site_label
 _atom_site_symmetry_multiplicity
 _atom_site_fract_x
 _atom_site_fract_y
 _atom_site_fract_z
 _atom_site_occupancy
  Sr  Sr0  1  0.00000000  0.50000000  -0.00000000  1
  Sr  Sr1  1  0.50000000  -0.00000000  -0.00000000  1
  Hf  Hf0  1  -0.00000000  -0.00000000  0.50000000  1
  Hf  Hf1  1  0.50000000  0.50000000  0.50000000  1
  O  O0  1  0.70057199  0.20057199  0.50000000  1
  O  O1  1  0.79942801  0.70057199  0.50000000  1
  O  O2  1  0.00000000  -0.00000000  -0.00000000  1
  O  O3  1  0.50000000  0.50000000  -0.00000000  1
  O  O4  1  0.20057199  0.29942801  0.50000000  1
  O  O5  1  0.29942801  0.79942801  0.50000000  1
loop_
_geom_bond_atom_site_label_1
_geom_bond_atom_site_label_2
_geom_bond_distance
_geom_bond_site_symmetry_2
Hf0 O0 2.066713 1_455
Hf0 O1 2.066713 1_445
Hf0 O5 2.066713 1_545
Hf0 O4 2.066713 1_555
Hf0 O2 2.067848 1_556
Hf0 O2 2.067848 1_555
Hf1 O5 2.066713 1_555
Hf1 O0 2.066713 1_555
Hf1 O4 2.066713 1_555
Hf1 O1 2.066713 1_555
Hf1 O3 2.067848 1_555
Hf1 O3 2.067848 1_556
O0 Sr1 2.630943 1_555
O0 Sr1 2.630943 1_556
O0 Sr0 3.189472 1_656
O0 Sr0 3.189472 1_655
O1 Sr0 2.630943 1_655
O1 Sr0 2.630943 1_656
O1 Sr1 3.189472 1_565
O1 Sr1 3.189472 1_566
O2 Sr1 2.867270 1_455
O2 Sr0 2.867270 1_555
O2 Sr1 2.867270 1_555
O2 Sr0 2.867270 1_545
O3 Sr0 2.867270 1_555
O3 Sr0 2.867270 1_655
O3 Sr1 2.867270 1_555
O3 Sr1 2.867270 1_565
O4 Sr0 2.630943 1_555
O4 Sr0 2.630943 1_556
O4 Sr1 3.189472 1_555
O4 Sr1 3.189472 1_556
O5 Sr1 2.630943 1_565
O5 Sr1 2.630943 1_566
O5 Sr0 3.189472 1_555
O5 Sr0 3.189472 1_556
