# generated using pymatgen
data_KEr(PO3)4
_symmetry_space_group_name_H-M   'P 1'
_cell_length_a   8.93721100
_cell_length_b   10.38235900
_cell_length_c   12.76954218
_cell_angle_alpha   55.12901139
_cell_angle_beta   90.00000000
_cell_angle_gamma   90.00000000
_symmetry_Int_Tables_number   1
_chemical_formula_structural   KEr(PO3)4
_chemical_formula_sum   'K4 Er4 P16 O48'
_cell_volume   972.12247968
_cell_formula_units_Z   4
loop_
 _symmetry_equiv_pos_site_id
 _symmetry_equiv_pos_as_xyz
  1  'x, y, z'
loop_
 _atom_site_type_symbol
 _atom_site_label
 _atom_site_symmetry_multiplicity
 _atom_site_fract_x
 _atom_site_fract_y
 _atom_site_fract_z
 _atom_site_occupancy
  K  K0  1  0.56724800  0.74565900  0.95872800  1
  K  K1  1  0.06724800  0.25434100  0.54127200  1
  K  K2  1  0.43275200  0.25434100  0.04127200  1
  K  K3  1  0.93275200  0.74565900  0.45872800  1
  Er  Er0  1  0.27240400  0.81523600  0.68412300  1
  Er  Er1  1  0.77240400  0.18476400  0.81587700  1
  Er  Er2  1  0.72759600  0.18476400  0.31587700  1
  Er  Er3  1  0.22759600  0.81523600  0.18412300  1
  P  P0  1  0.38856600  0.69854500  0.47820200  1
  P  P1  1  0.88856600  0.30145500  0.02179800  1
  P  P2  1  0.61143400  0.30145500  0.52179800  1
  P  P3  1  0.11143400  0.69854500  0.97820200  1
  P  P4  1  0.59241200  0.88992000  0.25817900  1
  P  P5  1  0.09241200  0.11008000  0.24182100  1
  P  P6  1  0.40758800  0.11008000  0.74182100  1
  P  P7  1  0.90758800  0.88992000  0.75817900  1
  P  P8  1  0.52288100  0.52094600  0.72638900  1
  P  P9  1  0.02288100  0.47905400  0.77361100  1
  P  P10  1  0.47711900  0.47905400  0.27361100  1
  P  P11  1  0.97711900  0.52094600  0.22638900  1
  P  P12  1  0.66927700  0.82242900  0.63676000  1
  P  P13  1  0.16927700  0.17757100  0.86324000  1
  P  P14  1  0.33072300  0.17757100  0.36324000  1
  P  P15  1  0.83072300  0.82242900  0.13676000  1
  O  O0  1  0.33242400  0.79817700  0.52004000  1
  O  O1  1  0.83242400  0.20182300  0.97996000  1
  O  O2  1  0.66757600  0.20182300  0.47996000  1
  O  O3  1  0.16757600  0.79817700  0.02004000  1
  O  O4  1  0.44992000  0.53581100  0.60314600  1
  O  O5  1  0.94992000  0.46418900  0.89685400  1
  O  O6  1  0.55008000  0.46418900  0.39685400  1
  O  O7  1  0.05008000  0.53581100  0.10314600  1
  O  O8  1  0.65619600  0.65083700  0.66220200  1
  O  O9  1  0.15619600  0.34916300  0.83779800  1
  O  O10  1  0.34380400  0.34916300  0.33779800  1
  O  O11  1  0.84380400  0.65083700  0.16220200  1
  O  O12  1  0.41198700  0.56622400  0.78880500  1
  O  O13  1  0.91198700  0.43377600  0.71119500  1
  O  O14  1  0.58801300  0.43377600  0.21119500  1
  O  O15  1  0.08801300  0.56622400  0.28880500  1
  O  O16  1  0.28638400  0.66491700  0.40326100  1
  O  O17  1  0.78638400  0.33508300  0.09673900  1
  O  O18  1  0.71361600  0.33508300  0.59673900  1
  O  O19  1  0.21361600  0.66491700  0.90326100  1
  O  O20  1  0.45943200  0.92705000  0.17335700  1
  O  O21  1  0.95943200  0.07295000  0.32664300  1
  O  O22  1  0.54056800  0.07295000  0.82664300  1
  O  O23  1  0.04056800  0.92705000  0.67335700  1
  O  O24  1  0.70979300  0.77853200  0.24745000  1
  O  O25  1  0.20979300  0.22146800  0.25255000  1
  O  O26  1  0.29020700  0.22146800  0.75255000  1
  O  O27  1  0.79020700  0.77853200  0.74745000  1
  O  O28  1  0.32225300  0.97665600  0.75653200  1
  O  O29  1  0.82225300  0.02334400  0.74346800  1
  O  O30  1  0.67774700  0.02334400  0.24346800  1
  O  O31  1  0.17774700  0.97665600  0.25653200  1
  O  O32  1  0.52620600  0.86489400  0.67154300  1
  O  O33  1  0.02620600  0.13510600  0.82845700  1
  O  O34  1  0.47379400  0.13510600  0.32845700  1
  O  O35  1  0.97379400  0.86489400  0.17154300  1
  O  O36  1  0.54715600  0.76705000  0.40500600  1
  O  O37  1  0.04715600  0.23295000  0.09499400  1
  O  O38  1  0.45284400  0.23295000  0.59499400  1
  O  O39  1  0.95284400  0.76705000  0.90500600  1
  O  O40  1  0.40863100  0.63925700  0.19239900  1
  O  O41  1  0.90863100  0.36074300  0.30760100  1
  O  O42  1  0.59136900  0.36074300  0.80760100  1
  O  O43  1  0.09136900  0.63925700  0.69239900  1
  O  O44  1  0.73888200  0.92788000  0.50761800  1
  O  O45  1  0.23888200  0.07212000  0.99238200  1
  O  O46  1  0.26111800  0.07212000  0.49238200  1
  O  O47  1  0.76111800  0.92788000  0.00761800  1
loop_
_geom_bond_atom_site_label_1
_geom_bond_atom_site_label_2
_geom_bond_distance
_geom_bond_site_symmetry_2
K0 O22 2.809778 1_565
K0 O47 2.884724 1_556
K0 O40 2.892101 1_556
K0 O14 2.996036 1_556
K0 O32 3.150312 1_555
K0 O28 3.183061 1_555
K0 O27 3.211379 1_555
K0 O11 3.302166 1_556
K0 O19 3.445576 1_555
K0 O39 3.495953 1_555
K0 O12 3.837510 1_555
K1 O23 2.809778 1_545
K1 O46 2.884724 1_555
K1 O41 2.892101 1_455
K1 O15 2.996036 1_555
K1 O33 3.150312 1_555
K1 O29 3.183061 1_455
K1 O26 3.211379 1_555
K1 O10 3.302166 1_555
K1 O18 3.445576 1_455
K1 O38 3.495953 1_555
K1 O13 3.837510 1_455
K2 O20 2.809778 1_545
K2 O45 2.884724 1_554
K2 O42 2.892101 1_554
K2 O12 2.996036 1_554
K2 O34 3.150312 1_555
K2 O30 3.183061 1_555
K2 O25 3.211379 1_555
K2 O9 3.302166 1_554
K2 O17 3.445576 1_555
K2 O37 3.495953 1_555
K2 O14 3.837510 1_555
K3 O21 2.809778 1_565
K3 O44 2.884724 1_555
K3 O43 2.892101 1_655
K3 O13 2.996036 1_555
K3 O35 3.150312 1_555
K3 O31 3.183061 1_655
K3 O24 3.211379 1_555
K3 O8 3.302166 1_555
K3 O16 3.445576 1_655
K3 O36 3.495953 1_555
K3 O15 3.837510 1_655
Er0 O0 2.265740 1_555
Er0 O32 2.311280 1_555
Er0 O23 2.340327 1_555
Er0 O19 2.355513 1_555
Er0 O28 2.373614 1_555
Er0 O46 2.377246 1_565
Er0 O43 2.397154 1_555
Er0 O12 2.464817 1_555
Er1 O1 2.265740 1_555
Er1 O33 2.311280 1_655
Er1 O22 2.340327 1_555
Er1 O18 2.355513 1_555
Er1 O29 2.373614 1_555
Er1 O47 2.377246 1_546
Er1 O42 2.397154 1_555
Er1 O13 2.464817 1_555
Er2 O2 2.265740 1_555
Er2 O34 2.311280 1_555
Er2 O21 2.340327 1_555
Er2 O17 2.355513 1_555
Er2 O30 2.373614 1_555
Er2 O44 2.377246 1_545
Er2 O41 2.397154 1_555
Er2 O14 2.464817 1_555
Er3 O3 2.265740 1_555
Er3 O35 2.311280 1_455
Er3 O20 2.340327 1_555
Er3 O16 2.355513 1_555
Er3 O31 2.373614 1_555
Er3 O45 2.377246 1_564
Er3 O40 2.397154 1_555
Er3 O15 2.464817 1_555
O0 P0 1.496368 1_555
O1 P1 1.496368 1_556
O2 P2 1.496368 1_555
O3 P3 1.496368 1_554
O4 P0 1.618165 1_555
O4 P8 1.627266 1_555
O5 P1 1.618165 1_556
O5 P9 1.627266 1_655
O6 P2 1.618165 1_555
O6 P10 1.627266 1_555
O7 P3 1.618165 1_554
O7 P11 1.627266 1_455
O8 P12 1.622111 1_555
O8 P8 1.626693 1_555
O9 P13 1.622111 1_555
O9 P9 1.626693 1_555
O10 P14 1.622111 1_555
O10 P10 1.626693 1_555
O11 P15 1.622111 1_555
O11 P11 1.626693 1_555
O12 P8 1.505625 1_555
O13 P9 1.505625 1_655
O14 P10 1.505625 1_555
O15 P11 1.505625 1_455
O16 P0 1.501230 1_555
O17 P1 1.501230 1_555
O18 P2 1.501230 1_555
O19 P3 1.501230 1_555
O20 P4 1.502268 1_555
O21 P5 1.502268 1_655
O22 P6 1.502268 1_555
O23 P7 1.502268 1_455
O24 P15 1.623901 1_555
O24 P4 1.624158 1_555
O25 P14 1.623901 1_555
O25 P5 1.624158 1_555
O26 P13 1.623901 1_555
O26 P6 1.624158 1_555
O27 P12 1.623901 1_555
O27 P7 1.624158 1_555
O28 P6 1.496099 1_565
O29 P7 1.496099 1_545
O30 P4 1.496099 1_545
O31 P5 1.496099 1_565
O32 P12 1.500180 1_555
O33 P13 1.500180 1_555
O34 P14 1.500180 1_555
O35 P15 1.500180 1_555
O36 P4 1.603537 1_555
O36 P0 1.621180 1_555
O37 P5 1.603537 1_555
O37 P1 1.621180 1_455
O38 P6 1.603537 1_555
O38 P2 1.621180 1_555
O39 P7 1.603537 1_555
O39 P3 1.621180 1_655
O40 P10 1.498091 1_555
O41 P11 1.498091 1_555
O42 P8 1.498091 1_555
O43 P9 1.498091 1_555
O44 P12 1.496872 1_555
O45 P13 1.496872 1_555
O46 P14 1.496872 1_555
O47 P15 1.496872 1_555
