# generated using pymatgen
data_Cs11Rb7O3
_symmetry_space_group_name_H-M   'P 1'
_cell_length_a   9.11531100
_cell_length_b   22.15874100
_cell_length_c   32.59372400
_cell_angle_alpha   90.00000000
_cell_angle_beta   90.00000000
_cell_angle_gamma   90.00000000
_symmetry_Int_Tables_number   1
_chemical_formula_structural   Cs11Rb7O3
_chemical_formula_sum   'Cs44 Rb28 O12'
_cell_volume   6583.40473759
_cell_formula_units_Z   4
loop_
 _symmetry_equiv_pos_site_id
 _symmetry_equiv_pos_as_xyz
  1  'x, y, z'
loop_
 _atom_site_type_symbol
 _atom_site_label
 _atom_site_symmetry_multiplicity
 _atom_site_fract_x
 _atom_site_fract_y
 _atom_site_fract_z
 _atom_site_occupancy
  Cs  Cs0  1  0.53747500  0.75584000  0.33306700  1
  Cs  Cs1  1  0.46072500  0.55219900  0.66223600  1
  Cs  Cs2  1  0.01965700  0.45518900  0.77085700  1
  Cs  Cs3  1  0.98381200  0.75849300  0.33266800  1
  Cs  Cs4  1  0.51618800  0.24150700  0.83266800  1
  Cs  Cs5  1  0.46252500  0.25584000  0.16693300  1
  Cs  Cs6  1  0.52179200  0.96279800  0.95227700  1
  Cs  Cs7  1  0.02179200  0.53720200  0.04772300  1
  Cs  Cs8  1  0.25295600  0.63132900  0.57643000  1
  Cs  Cs9  1  0.24887400  0.59687500  0.15840500  1
  Cs  Cs10  1  0.53927500  0.05219900  0.83776400  1
  Cs  Cs11  1  0.74704400  0.13132900  0.92357000  1
  Cs  Cs12  1  0.53172400  0.95276700  0.72847900  1
  Cs  Cs13  1  0.24590700  0.37597800  0.25231100  1
  Cs  Cs14  1  0.54455000  0.94631700  0.33743900  1
  Cs  Cs15  1  0.24704400  0.36867100  0.07643000  1
  Cs  Cs16  1  0.03747500  0.74416000  0.66693300  1
  Cs  Cs17  1  0.96072500  0.94780100  0.33776400  1
  Cs  Cs18  1  0.03927500  0.44780100  0.16223600  1
  Cs  Cs19  1  0.04455000  0.55368300  0.66256100  1
  Cs  Cs20  1  0.74590700  0.12402200  0.74768900  1
  Cs  Cs21  1  0.02766000  0.46160600  0.54938900  1
  Cs  Cs22  1  0.97820800  0.03720200  0.45227700  1
  Cs  Cs23  1  0.46827600  0.45276700  0.77152100  1
  Cs  Cs24  1  0.52766000  0.03839400  0.45061100  1
  Cs  Cs25  1  0.75112600  0.09687500  0.34159500  1
  Cs  Cs26  1  0.74887400  0.90312500  0.84159500  1
  Cs  Cs27  1  0.95545000  0.05368300  0.83743900  1
  Cs  Cs28  1  0.48034300  0.54481100  0.27085700  1
  Cs  Cs29  1  0.75295600  0.86867100  0.42357000  1
  Cs  Cs30  1  0.45545000  0.44631700  0.16256100  1
  Cs  Cs31  1  0.51965700  0.04481100  0.22914300  1
  Cs  Cs32  1  0.47234000  0.53839400  0.04938900  1
  Cs  Cs33  1  0.98034300  0.95518900  0.72914300  1
  Cs  Cs34  1  0.47820800  0.46279800  0.54772300  1
  Cs  Cs35  1  0.25112600  0.40312500  0.65840500  1
  Cs  Cs36  1  0.25409300  0.62402200  0.75231100  1
  Cs  Cs37  1  0.01618800  0.25849300  0.16733200  1
  Cs  Cs38  1  0.97234000  0.96160600  0.95061100  1
  Cs  Cs39  1  0.75409300  0.87597800  0.24768900  1
  Cs  Cs40  1  0.96827600  0.04723300  0.22847900  1
  Cs  Cs41  1  0.03172400  0.54723300  0.27152100  1
  Cs  Cs42  1  0.96252500  0.24416000  0.83306700  1
  Cs  Cs43  1  0.48381200  0.74150700  0.66733200  1
  Rb  Rb0  1  0.74902100  0.88598400  0.09049500  1
  Rb  Rb1  1  0.24776200  0.00971700  0.09291900  1
  Rb  Rb2  1  0.75026600  0.67986800  0.50867000  1
  Rb  Rb3  1  0.75539200  0.88977500  0.57595200  1
  Rb  Rb4  1  0.74973400  0.32013200  0.00867000  1
  Rb  Rb5  1  0.74460800  0.11022500  0.07595200  1
  Rb  Rb6  1  0.24731000  0.19166500  0.34712700  1
  Rb  Rb7  1  0.75579300  0.67754000  0.81320500  1
  Rb  Rb8  1  0.74886700  0.27726900  0.46612400  1
  Rb  Rb9  1  0.75269000  0.69166500  0.15287300  1
  Rb  Rb10  1  0.24886700  0.22273100  0.53387600  1
  Rb  Rb11  1  0.24902100  0.61401600  0.90950500  1
  Rb  Rb12  1  0.74420700  0.32246000  0.31320500  1
  Rb  Rb13  1  0.24973400  0.17986800  0.99133000  1
  Rb  Rb14  1  0.25539200  0.61022500  0.42404800  1
  Rb  Rb15  1  0.25097900  0.38598400  0.40950500  1
  Rb  Rb16  1  0.75113300  0.72273100  0.96612400  1
  Rb  Rb17  1  0.75223800  0.50971700  0.40708100  1
  Rb  Rb18  1  0.25223800  0.99028300  0.59291900  1
  Rb  Rb19  1  0.24420700  0.17754000  0.68679500  1
  Rb  Rb20  1  0.25026600  0.82013200  0.49133000  1
  Rb  Rb21  1  0.25269000  0.80833500  0.84712700  1
  Rb  Rb22  1  0.25579300  0.82246000  0.18679500  1
  Rb  Rb23  1  0.75097900  0.11401600  0.59049500  1
  Rb  Rb24  1  0.24460800  0.38977500  0.92404800  1
  Rb  Rb25  1  0.74731000  0.30833500  0.65287300  1
  Rb  Rb26  1  0.25113300  0.77726900  0.03387600  1
  Rb  Rb27  1  0.74776200  0.49028300  0.90708100  1
  O  O0  1  0.24675400  0.49695600  0.72267400  1
  O  O1  1  0.74575600  0.00344700  0.90149100  1
  O  O2  1  0.25740200  0.65912200  0.66569100  1
  O  O3  1  0.75424400  0.99655300  0.40149100  1
  O  O4  1  0.74259800  0.15912200  0.83430900  1
  O  O5  1  0.24259800  0.34087800  0.16569100  1
  O  O6  1  0.75740200  0.84087800  0.33430900  1
  O  O7  1  0.25324600  0.50304400  0.22267400  1
  O  O8  1  0.74675400  0.00304400  0.27732600  1
  O  O9  1  0.75324600  0.99695600  0.77732600  1
  O  O10  1  0.25424400  0.50344700  0.59850900  1
  O  O11  1  0.24575600  0.49655300  0.09850900  1
loop_
_geom_bond_atom_site_label_1
_geom_bond_atom_site_label_2
_geom_bond_distance
_geom_bond_site_symmetry_2
Cs0 O6 2.751580 1_555
Cs0 Rb14 5.080979 1_555
Cs0 Rb22 5.612611 1_555
Cs0 Rb20 5.957548 1_555
Cs1 O10 3.003964 1_555
Cs1 O2 3.010163 1_555
Cs1 O0 3.030358 1_555
Cs1 Cs8 3.805654 1_555
Cs1 Cs35 3.818058 1_555
Cs1 Cs36 3.834047 1_555
Cs1 Cs23 4.188925 1_555
Cs1 Cs43 4.203385 1_555
Cs1 Cs34 4.228553 1_555
Cs2 O0 2.758271 1_555
Cs2 Rb27 5.144050 1_455
Cs2 Rb24 5.588942 1_555
Cs2 Rb25 5.616073 1_455
Cs2 Rb7 5.653820 1_455
Cs3 O6 2.755857 1_555
Cs3 Rb14 5.078710 1_655
Cs3 Rb22 5.546277 1_655
Cs3 Rb20 5.874341 1_655
Cs4 O4 2.755857 1_555
Cs4 Rb24 5.078710 1_555
Cs4 Rb19 5.546277 1_555
Cs4 Rb13 5.874341 1_555
Cs5 O5 2.751580 1_555
Cs5 Rb5 5.080979 1_555
Cs5 Rb12 5.612611 1_555
Cs5 Rb4 5.957548 1_555
Cs6 O1 2.778323 1_565
Cs6 Rb0 5.242391 1_556
Cs6 Rb1 5.322944 1_566
Cs6 Rb21 5.429344 1_555
Cs6 Rb26 5.482827 1_556
Cs6 Rb13 5.559333 1_565
Cs6 Rb5 5.571918 1_566
Cs6 Rb16 5.733402 1_555
Cs7 O11 2.778323 1_555
Cs7 Rb11 5.242391 1_554
Cs7 Rb27 5.322944 1_454
Cs7 Rb9 5.429344 1_455
Cs7 Rb16 5.482827 1_454
Cs7 Rb4 5.559333 1_455
Cs7 Rb24 5.571918 1_554
Cs7 Rb26 5.733402 1_555
Cs8 O10 2.923678 1_555
Cs8 O2 2.974093 1_555
Cs8 Rb14 4.988713 1_555
Cs8 Rb20 5.019659 1_555
Cs8 Rb2 5.155953 1_555
Cs8 Rb2 5.199122 1_455
Cs9 O7 2.951713 1_555
Cs9 O11 2.958681 1_555
Cs9 Rb9 4.990057 1_455
Cs9 Rb9 5.053198 1_555
Cs9 Rb22 5.083997 1_555
Cs9 Rb26 5.696774 1_555
Cs10 O1 3.003964 1_555
Cs10 O4 3.010163 1_555
Cs10 O9 3.030358 1_545
Cs10 Cs11 3.805654 1_555
Cs10 Cs26 3.818058 1_545
Cs10 Cs20 3.834047 1_555
Cs10 Cs12 4.188925 1_545
Cs10 Cs4 4.203385 1_555
Cs10 Cs6 4.228553 1_545
Cs11 O1 2.923678 1_555
Cs11 O4 2.974093 1_555
Cs11 Cs27 3.801336 1_555
Cs11 Rb5 4.988713 1_556
Cs11 Rb4 5.019659 1_556
Cs11 Rb13 5.155953 1_555
Cs11 Rb13 5.199122 1_655
Cs12 O9 2.751530 1_555
Cs12 Rb18 5.167558 1_555
Cs12 Rb3 5.551584 1_555
Cs12 Rb21 5.627357 1_555
Cs12 Rb19 5.789798 1_565
Cs13 O5 2.928597 1_555
Cs13 O7 2.977469 1_555
Cs13 Cs30 3.825559 1_555
Cs13 Cs18 3.834047 1_555
Cs13 Rb12 5.096747 1_555
Cs13 Rb6 5.121622 1_555
Cs13 Rb12 5.124386 1_455
Cs13 Rb15 5.128541 1_555
Cs14 O8 2.969198 1_565
Cs14 O6 3.038680 1_555
Cs14 O3 3.041571 1_555
Cs14 Cs29 3.801336 1_555
Cs14 Cs39 3.825559 1_555
Cs14 Cs25 3.833291 1_565
Cs14 Cs31 4.156210 1_565
Cs15 O11 2.923678 1_555
Cs15 O5 2.974093 1_555
Cs15 Cs30 3.801336 1_555
Cs15 Cs18 3.805654 1_555
Cs15 Rb24 4.988713 1_554
Cs15 Rb13 5.019659 1_554
Cs15 Rb4 5.155953 1_455
Cs15 Rb4 5.199122 1_555
Cs16 O2 2.751580 1_555
Cs16 Rb3 5.080979 1_455
Cs16 Rb7 5.612611 1_455
Cs16 Rb2 5.957548 1_455
Cs17 O3 3.003964 1_555
Cs17 O6 3.010163 1_555
Cs17 O8 3.030358 1_565
Cs17 Cs29 3.805654 1_555
Cs17 Cs25 3.818058 1_565
Cs17 Cs39 3.834047 1_555
Cs17 Cs40 4.188925 1_565
Cs17 Cs3 4.203385 1_555
Cs17 Cs22 4.228553 1_565
Cs18 O11 3.003964 1_555
Cs18 O5 3.010163 1_555
Cs18 O7 3.030358 1_555
Cs18 Cs9 3.818058 1_555
Cs18 Cs41 4.188925 1_555
Cs18 Cs37 4.203385 1_555
Cs18 Cs7 4.228553 1_555
Cs19 O0 2.969198 1_555
Cs19 O2 3.038680 1_555
Cs19 O10 3.041571 1_555
Cs19 Cs8 3.801336 1_555
Cs19 Cs36 3.825559 1_555
Cs19 Cs35 3.833291 1_555
Cs19 Cs2 4.156210 1_555
Cs20 O4 2.928597 1_555
Cs20 O9 2.977469 1_545
Cs20 Cs27 3.825559 1_555
Cs20 Rb19 5.096747 1_655
Cs20 Rb25 5.121622 1_555
Cs20 Rb19 5.124386 1_555
Cs20 Rb23 5.128541 1_555
Cs21 O10 2.772836 1_555
Cs21 Rb15 5.266809 1_555
Cs21 Rb17 5.380863 1_455
Cs21 Rb25 5.426041 1_455
Cs21 Rb8 5.523409 1_455
Cs21 Rb2 5.616562 1_455
Cs21 Rb14 5.643075 1_555
Cs21 Rb10 5.686743 1_555
Cs22 O3 2.778323 1_545
Cs22 Rb23 5.242391 1_555
Cs22 Rb18 5.322944 1_645
Cs22 Rb6 5.429344 1_655
Cs22 Rb10 5.482827 1_655
Cs22 Rb20 5.559333 1_645
Cs22 Rb3 5.571918 1_545
Cs22 Rb8 5.733402 1_555
Cs23 O0 2.751530 1_555
Cs23 Rb27 5.167558 1_555
Cs23 Rb24 5.551584 1_555
Cs23 Rb25 5.627357 1_555
Cs23 Rb7 5.789798 1_555
Cs24 O3 2.772836 1_545
Cs24 Rb23 5.266809 1_555
Cs24 Rb18 5.380863 1_545
Cs24 Rb6 5.426041 1_555
Cs24 Rb10 5.523409 1_555
Cs24 Rb20 5.616562 1_545
Cs24 Rb3 5.643075 1_545
Cs24 Rb8 5.686743 1_555
Cs25 O8 2.951713 1_555
Cs25 O3 2.958681 1_545
Cs25 Rb6 4.990057 1_655
Cs25 Rb6 5.053198 1_555
Cs25 Rb12 5.083997 1_555
Cs25 Rb8 5.696774 1_555
Cs26 O9 2.951713 1_555
Cs26 O1 2.958681 1_565
Cs26 Cs27 3.833291 1_565
Cs26 Rb21 4.990057 1_555
Cs26 Rb21 5.053198 1_655
Cs26 Rb7 5.083997 1_555
Cs26 Rb16 5.696774 1_555
Cs27 O9 2.969198 1_545
Cs27 O4 3.038680 1_555
Cs27 O1 3.041571 1_555
Cs27 Cs33 4.156210 1_545
Cs28 O7 2.758271 1_555
Cs28 Cs30 4.156210 1_555
Cs28 Rb17 5.144050 1_555
Cs28 Rb14 5.588942 1_555
Cs28 Rb9 5.616073 1_555
Cs28 Rb12 5.653820 1_555
Cs29 O3 2.923678 1_555
Cs29 O6 2.974093 1_555
Cs29 Rb3 4.988713 1_555
Cs29 Rb2 5.019659 1_555
Cs29 Rb20 5.155953 1_655
Cs29 Rb20 5.199122 1_555
Cs30 O7 2.969198 1_555
Cs30 O5 3.038680 1_555
Cs30 O11 3.041571 1_555
Cs30 Cs9 3.833291 1_555
Cs31 O8 2.758271 1_555
Cs31 Rb1 5.144050 1_555
Cs31 Rb5 5.588942 1_555
Cs31 Rb6 5.616073 1_555
Cs31 Rb22 5.653820 1_545
Cs32 O11 2.772836 1_555
Cs32 Rb11 5.266809 1_554
Cs32 Rb27 5.380863 1_554
Cs32 Rb9 5.426041 1_555
Cs32 Rb16 5.523409 1_554
Cs32 Rb4 5.616562 1_555
Cs32 Rb24 5.643075 1_554
Cs32 Rb26 5.686743 1_555
Cs33 O9 2.758271 1_555
Cs33 Rb18 5.144050 1_655
Cs33 Rb3 5.588942 1_555
Cs33 Rb21 5.616073 1_655
Cs33 Rb19 5.653820 1_665
Cs34 O10 2.778323 1_555
Cs34 Rb15 5.242391 1_555
Cs34 Rb17 5.322944 1_555
Cs34 Rb25 5.429344 1_555
Cs34 Rb8 5.482827 1_555
Cs34 Rb2 5.559333 1_555
Cs34 Rb14 5.571918 1_555
Cs34 Rb10 5.733402 1_555
Cs35 O0 2.951713 1_555
Cs35 O10 2.958681 1_555
Cs35 Rb25 4.990057 1_555
Cs35 Rb25 5.053198 1_455
Cs35 Rb19 5.083997 1_555
Cs35 Rb10 5.696774 1_555
Cs36 O2 2.928597 1_555
Cs36 O0 2.977469 1_555
Cs36 Rb7 5.096747 1_455
Cs36 Rb21 5.121622 1_555
Cs36 Rb7 5.124386 1_555
Cs36 Rb11 5.128541 1_555
Cs37 O5 2.755857 1_555
Cs37 Rb5 5.078710 1_455
Cs37 Rb12 5.546277 1_455
Cs37 Rb4 5.874341 1_455
Cs38 O1 2.772836 1_565
Cs38 Rb0 5.266809 1_556
Cs38 Rb1 5.380863 1_666
Cs38 Rb21 5.426041 1_655
Cs38 Rb26 5.523409 1_656
Cs38 Rb13 5.616562 1_665
Cs38 Rb5 5.643075 1_566
Cs38 Rb16 5.686743 1_555
Cs39 O6 2.928597 1_555
Cs39 O8 2.977469 1_565
Cs39 Rb22 5.096747 1_555
Cs39 Rb9 5.121622 1_555
Cs39 Rb22 5.124386 1_655
Cs39 Rb0 5.128541 1_555
Cs40 O8 2.751530 1_555
Cs40 Rb1 5.167558 1_655
Cs40 Rb5 5.551584 1_555
Cs40 Rb6 5.627357 1_655
Cs40 Rb22 5.789798 1_645
Cs41 O7 2.751530 1_555
Cs41 Rb17 5.167558 1_455
Cs41 Rb14 5.551584 1_555
Cs41 Rb9 5.627357 1_455
Cs41 Rb12 5.789798 1_455
Cs42 O4 2.751580 1_555
Cs42 Rb24 5.080979 1_655
Cs42 Rb19 5.612611 1_655
Cs42 Rb13 5.957548 1_655
Cs43 O2 2.755857 1_555
Cs43 Rb3 5.078710 1_555
Cs43 Rb7 5.546277 1_555
Cs43 Rb2 5.874341 1_555
Rb0 Rb9 4.761849 1_555
Rb0 Rb5 4.991618 1_565
Rb0 Rb1 5.309546 1_665
Rb0 Rb1 5.329212 1_565
Rb0 Rb16 5.433152 1_554
Rb0 Rb26 5.459480 1_555
Rb0 Rb26 5.491529 1_655
Rb0 Rb22 5.660975 1_555
Rb0 Rb22 5.759513 1_655
Rb1 Rb13 5.017921 1_554
Rb1 Rb5 5.077098 1_555
Rb1 Rb5 5.128455 1_455
Rb1 Rb22 5.156054 1_545
Rb1 Rb26 5.498605 1_545
Rb2 Rb3 5.142535 1_555
Rb2 Rb20 5.545428 1_655
Rb2 Rb20 5.545428 1_555
Rb4 Rb5 5.142535 1_555
Rb6 Rb8 6.267726 1_455
Rb6 Rb8 6.288333 1_555
Rb10 Rb19 5.083975 1_555
Rb10 Rb8 5.206652 1_455
Rb10 Rb8 5.206652 1_555
Rb10 Rb15 5.433152 1_555
Rb10 Rb23 5.459480 1_455
Rb10 Rb23 5.491529 1_555
Rb10 Rb18 5.498605 1_545
Rb10 Rb6 6.125664 1_555
Rb10 Rb25 6.267726 1_555
Rb10 Rb25 6.288333 1_455
Rb11 Rb21 4.761849 1_555
Rb11 Rb24 4.991618 1_555
Rb11 Rb27 5.309546 1_555
Rb11 Rb27 5.329212 1_455
Rb11 Rb26 5.433152 1_556
Rb11 Rb16 5.459480 1_455
Rb11 Rb16 5.491529 1_555
Rb11 Rb7 5.660975 1_455
Rb11 Rb7 5.759513 1_555
Rb12 Rb8 5.083975 1_555
Rb12 Rb17 5.156054 1_555
Rb12 Rb6 5.489765 1_555
Rb12 Rb6 5.536530 1_655
Rb12 Rb15 5.660975 1_555
Rb12 Rb15 5.759513 1_655
Rb13 Rb24 5.142535 1_555
Rb13 Rb5 5.507934 1_556
Rb13 Rb4 5.545428 1_456
Rb13 Rb4 5.545428 1_556
Rb13 Rb5 5.584726 1_456
Rb14 Rb15 4.991618 1_555
Rb14 Rb17 5.077098 1_555
Rb14 Rb17 5.128455 1_455
Rb14 Rb20 5.142535 1_555
Rb14 Rb2 5.507934 1_555
Rb14 Rb2 5.584726 1_455
Rb15 Rb6 4.761849 1_555
Rb15 Rb17 5.309546 1_455
Rb15 Rb17 5.329212 1_555
Rb15 Rb8 5.459480 1_555
Rb15 Rb8 5.491529 1_455
Rb16 Rb7 5.083975 1_555
Rb16 Rb26 5.206652 1_556
Rb16 Rb26 5.206652 1_656
Rb16 Rb27 5.498605 1_555
Rb16 Rb9 6.125664 1_556
Rb16 Rb21 6.267726 1_555
Rb16 Rb21 6.288333 1_655
Rb17 Rb2 5.017921 1_555
Rb17 Rb8 5.498605 1_555
Rb18 Rb20 5.017921 1_555
Rb18 Rb3 5.077098 1_455
Rb18 Rb3 5.128455 1_555
Rb18 Rb19 5.156054 1_565
Rb18 Rb23 5.309546 1_565
Rb18 Rb23 5.329212 1_465
Rb19 Rb25 5.489765 1_455
Rb19 Rb25 5.536530 1_555
Rb19 Rb23 5.660975 1_455
Rb19 Rb23 5.759513 1_555
Rb20 Rb3 5.507934 1_455
Rb20 Rb3 5.584726 1_555
Rb21 Rb7 5.489765 1_455
Rb21 Rb7 5.536530 1_555
Rb21 Rb26 6.125664 1_556
Rb22 Rb26 5.083975 1_555
Rb22 Rb9 5.489765 1_555
Rb22 Rb9 5.536530 1_455
Rb23 Rb25 4.761849 1_555
Rb23 Rb3 4.991618 1_545
Rb23 Rb8 5.433152 1_555
Rb24 Rb27 5.077098 1_455
Rb24 Rb27 5.128455 1_555
Rb24 Rb4 5.507934 1_456
Rb24 Rb4 5.584726 1_556
Rb25 Rb8 6.125664 1_555
Rb26 Rb9 6.267726 1_455
Rb26 Rb9 6.288333 1_555
Rb27 Rb4 5.017921 1_556
Rb27 Rb7 5.156054 1_555
