# generated using pymatgen
data_ZnS
_symmetry_space_group_name_H-M   'P 1'
_cell_length_a   37.82863160
_cell_length_b   37.82863158
_cell_length_c   37.82863220
_cell_angle_alpha   5.84871469
_cell_angle_beta   5.84871498
_cell_angle_gamma   5.84871460
_symmetry_Int_Tables_number   1
_chemical_formula_structural   ZnS
_chemical_formula_sum   'Zn12 S12'
_cell_volume   487.23233702
_cell_formula_units_Z   12
loop_
 _symmetry_equiv_pos_site_id
 _symmetry_equiv_pos_as_xyz
  1  'x, y, z'
loop_
 _atom_site_type_symbol
 _atom_site_label
 _atom_site_symmetry_multiplicity
 _atom_site_fract_x
 _atom_site_fract_y
 _atom_site_fract_z
 _atom_site_occupancy
  Zn  Zn0  1  0.08333575  0.08333575  0.08333575  1
  Zn  Zn1  1  0.86111355  0.86111355  0.86111355  1
  Zn  Zn2  1  0.16666889  0.16666889  0.16666889  1
  Zn  Zn3  1  0.38888900  0.38888900  0.38888900  1
  Zn  Zn4  1  0.91667901  0.91667901  0.91667901  1
  Zn  Zn5  1  0.77778297  0.77778297  0.77778297  1
  Zn  Zn6  1  0.27778667  0.27778667  0.27778667  1
  Zn  Zn7  1  0.00000433  0.00000433  0.00000433  1
  Zn  Zn8  1  0.69445933  0.69445933  0.69445933  1
  Zn  Zn9  1  0.55555180  0.55555180  0.55555180  1
  Zn  Zn10  1  0.63888955  0.63888955  0.63888955  1
  Zn  Zn11  1  0.47222124  0.47222124  0.47222124  1
  S  S0  1  0.29860929  0.29860929  0.29860929  1
  S  S1  1  0.40971551  0.40971551  0.40971551  1
  S  S2  1  0.93749817  0.93749817  0.93749817  1
  S  S3  1  0.79860648  0.79860648  0.79860648  1
  S  S4  1  0.65969989  0.65969989  0.65969989  1
  S  S5  1  0.02084788  0.02084788  0.02084788  1
  S  S6  1  0.49304743  0.49304743  0.49304743  1
  S  S7  1  0.10416402  0.10416402  0.10416402  1
  S  S8  1  0.18749605  0.18749605  0.18749605  1
  S  S9  1  0.71527483  0.71527483  0.71527483  1
  S  S10  1  0.57639648  0.57639648  0.57639648  1
  S  S11  1  0.88192188  0.88192188  0.88192188  1
loop_
_geom_bond_atom_site_label_1
_geom_bond_atom_site_label_2
_geom_bond_distance
_geom_bond_site_symmetry_2
S0 Zn6 2.358970 1_555
S0 Zn10 2.363370 1_554
S0 Zn10 2.363370 1_545
S0 Zn10 2.363370 1_455
S1 Zn3 2.359410 1_555
S1 Zn0 2.363621 1_565
S1 Zn0 2.363621 1_655
S1 Zn0 2.363621 1_556
S2 Zn4 2.358578 1_555
S2 Zn6 2.363681 1_665
S2 Zn6 2.363681 1_656
S2 Zn6 2.363681 1_566
S3 Zn5 2.359071 1_555
S3 Zn11 2.363414 1_565
S3 Zn11 2.363414 1_655
S3 Zn11 2.363414 1_556
S4 Zn10 2.357579 1_555
S4 Zn7 2.364284 1_665
S4 Zn7 2.364284 1_656
S4 Zn7 2.364284 1_566
S5 Zn7 2.361341 1_555
S5 Zn8 2.363289 1_454
S5 Zn8 2.363289 1_544
S5 Zn8 2.363289 1_445
S6 Zn11 2.359374 1_555
S6 Zn2 2.363667 1_565
S6 Zn2 2.363667 1_655
S6 Zn2 2.363667 1_556
S7 Zn0 2.359610 1_555
S7 Zn5 2.363572 1_454
S7 Zn5 2.363572 1_544
S7 Zn5 2.363572 1_445
S8 Zn2 2.359484 1_555
S8 Zn1 2.363517 1_454
S8 Zn1 2.363517 1_544
S8 Zn1 2.363518 1_445
S9 Zn8 2.358163 1_555
S9 Zn3 2.363392 1_565
S9 Zn3 2.363392 1_655
S9 Zn3 2.363392 1_556
S10 Zn9 2.361469 1_555
S10 Zn4 2.363456 1_554
S10 Zn4 2.363456 1_545
S10 Zn4 2.363456 1_455
S11 Zn1 2.357351 1_555
S11 Zn9 2.363986 1_565
S11 Zn9 2.363987 1_655
S11 Zn9 2.363987 1_556
