# generated using pymatgen
data_GdCuSe2
_symmetry_space_group_name_H-M   'P 1'
_cell_length_a   6.62790958
_cell_length_b   7.09859867
_cell_length_c   7.34709361
_cell_angle_alpha   89.99936424
_cell_angle_beta   90.00036188
_cell_angle_gamma   96.39785279
_symmetry_Int_Tables_number   1
_chemical_formula_structural   GdCuSe2
_chemical_formula_sum   'Gd4 Cu4 Se8'
_cell_volume   343.51963819
_cell_formula_units_Z   4
loop_
 _symmetry_equiv_pos_site_id
 _symmetry_equiv_pos_as_xyz
  1  'x, y, z'
loop_
 _atom_site_type_symbol
 _atom_site_label
 _atom_site_symmetry_multiplicity
 _atom_site_fract_x
 _atom_site_fract_y
 _atom_site_fract_z
 _atom_site_occupancy
  Gd  Gd0  1  0.19320567  0.79953448  0.95444319  1
  Gd  Gd1  1  0.80679141  0.70046926  0.45444183  1
  Gd  Gd2  1  0.80679433  0.20046552  0.04555681  1
  Gd  Gd3  1  0.19320859  0.29953074  0.54555817  1
  Cu  Cu0  1  0.56871092  0.54540152  0.84075419  1
  Cu  Cu1  1  0.43129313  0.95459839  0.34075517  1
  Cu  Cu2  1  0.43128908  0.45459848  0.15924581  1
  Cu  Cu3  1  0.56870687  0.04540161  0.65924483  1
  Se  Se0  1  0.59754002  0.28009990  0.38821845  1
  Se  Se1  1  0.40245856  0.21991496  0.88821384  1
  Se  Se2  1  0.40245998  0.71990010  0.61178155  1
  Se  Se3  1  0.59754144  0.78008504  0.11178616  1
  Se  Se4  1  0.92169190  0.50268590  0.77532162  1
  Se  Se5  1  0.07829361  0.99732225  0.27533116  1
  Se  Se6  1  0.07830810  0.49731410  0.22467838  1
  Se  Se7  1  0.92170639  0.00267775  0.72466884  1
loop_
_geom_bond_atom_site_label_1
_geom_bond_atom_site_label_2
_geom_bond_distance
_geom_bond_site_symmetry_2
Gd0 Se5 2.889290 1_556
Gd0 Se4 2.926707 1_455
Gd0 Se3 2.935935 1_556
Gd0 Se7 2.957314 1_465
Gd0 Se2 2.959062 1_555
Gd0 Se6 2.959768 1_556
Gd0 Se1 3.184781 1_565
Gd1 Se4 2.889167 1_555
Gd1 Se5 2.926639 1_655
Gd1 Se2 2.935894 1_555
Gd1 Se6 2.957423 1_655
Gd1 Se3 2.958953 1_555
Gd1 Se7 2.959715 1_565
Gd1 Se0 3.184708 1_555
Gd2 Se7 2.889290 1_554
Gd2 Se6 2.926707 1_655
Gd2 Se1 2.935935 1_554
Gd2 Se5 2.957314 1_645
Gd2 Se0 2.959062 1_555
Gd2 Se4 2.959768 1_554
Gd2 Se3 3.184781 1_545
Gd3 Se6 2.889167 1_555
Gd3 Se7 2.926639 1_455
Gd3 Se0 2.935894 1_555
Gd3 Se4 2.957423 1_455
Gd3 Se1 2.958953 1_555
Gd3 Se5 2.959715 1_545
Gd3 Se2 3.184708 1_555
Cu0 Se2 2.425436 1_555
Cu0 Se4 2.440195 1_555
Cu0 Se1 2.471188 1_555
Cu0 Cu2 2.567053 1_556
Cu0 Se3 2.589634 1_556
Cu0 Gd0 3.338703 1_555
Cu1 Se3 2.425496 1_555
Cu1 Se5 2.440308 1_555
Cu1 Se0 2.471279 1_565
Cu1 Cu3 2.567026 1_565
Cu1 Se2 2.589643 1_555
Cu1 Gd1 3.338627 1_555
Cu2 Se0 2.425436 1_555
Cu2 Se6 2.440195 1_555
Cu2 Se3 2.471188 1_555
Cu2 Se1 2.589634 1_554
Cu2 Gd2 3.338703 1_555
Cu3 Se1 2.425496 1_555
Cu3 Se7 2.440308 1_555
Cu3 Se2 2.471279 1_545
Cu3 Se0 2.589643 1_555
Cu3 Gd3 3.338627 1_555
