# generated using pymatgen
data_SrLiAlF6
_symmetry_space_group_name_H-M   'P 1'
_cell_length_a   10.26708400
_cell_length_b   5.15717100
_cell_length_c   8.50670852
_cell_angle_alpha   88.93717268
_cell_angle_beta   90.00000000
_cell_angle_gamma   90.00000000
_symmetry_Int_Tables_number   1
_chemical_formula_structural   SrLiAlF6
_chemical_formula_sum   'Sr4 Li4 Al4 F24'
_cell_volume   450.34513488
_cell_formula_units_Z   4
loop_
 _symmetry_equiv_pos_site_id
 _symmetry_equiv_pos_as_xyz
  1  'x, y, z'
loop_
 _atom_site_type_symbol
 _atom_site_label
 _atom_site_symmetry_multiplicity
 _atom_site_fract_x
 _atom_site_fract_y
 _atom_site_fract_z
 _atom_site_occupancy
  Sr  Sr0  1  0.31435100  0.33039900  0.52536000  1
  Sr  Sr1  1  0.18564900  0.33039900  0.02536000  1
  Sr  Sr2  1  0.81435100  0.66960100  0.97464000  1
  Sr  Sr3  1  0.68564900  0.66960100  0.47464000  1
  Li  Li0  1  0.06864300  0.74460000  0.33217700  1
  Li  Li1  1  0.43135700  0.74460000  0.83217700  1
  Li  Li2  1  0.56864300  0.25540000  0.16782300  1
  Li  Li3  1  0.93135700  0.25540000  0.66782300  1
  Al  Al0  1  0.09704900  0.77437800  0.73920400  1
  Al  Al1  1  0.90295100  0.22562200  0.26079600  1
  Al  Al2  1  0.59704900  0.22562200  0.76079600  1
  Al  Al3  1  0.40295100  0.77437800  0.23920400  1
  F  F0  1  0.84598100  0.91754400  0.33309900  1
  F  F1  1  0.98252700  0.52469900  0.17611000  1
  F  F2  1  0.48252700  0.47530100  0.32389000  1
  F  F3  1  0.42899200  0.10540100  0.77617900  1
  F  F4  1  0.10178100  0.64088600  0.54492700  1
  F  F5  1  0.60178100  0.35911400  0.95507300  1
  F  F6  1  0.61710300  0.11965900  0.55945900  1
  F  F7  1  0.24248900  0.60593300  0.26765600  1
  F  F8  1  0.38289700  0.88034100  0.44054100  1
  F  F9  1  0.89821900  0.35911400  0.45507300  1
  F  F10  1  0.92899200  0.89459900  0.72382100  1
  F  F11  1  0.25751100  0.60593300  0.76765600  1
  F  F12  1  0.15401900  0.08245600  0.66690100  1
  F  F13  1  0.34598100  0.08245600  0.16690100  1
  F  F14  1  0.11710300  0.88034100  0.94054100  1
  F  F15  1  0.74248900  0.39406700  0.23234400  1
  F  F16  1  0.07100800  0.10540100  0.27617900  1
  F  F17  1  0.57100800  0.89459900  0.22382100  1
  F  F18  1  0.65401900  0.91754400  0.83309900  1
  F  F19  1  0.51747300  0.52469900  0.67611000  1
  F  F20  1  0.75751100  0.39406700  0.73234400  1
  F  F21  1  0.88289700  0.11965900  0.05945900  1
  F  F22  1  0.39821900  0.64088600  0.04492700  1
  F  F23  1  0.01747300  0.47530100  0.82389000  1
loop_
_geom_bond_atom_site_label_1
_geom_bond_atom_site_label_2
_geom_bond_distance
_geom_bond_site_symmetry_2
Al0 F12 1.791227 1_565
Al0 F4 1.802719 1_555
Al0 F14 1.819103 1_555
Al0 F10 1.837311 1_455
Al0 F11 1.876059 1_555
Al0 F23 1.877295 1_555
Al1 F0 1.791227 1_545
Al1 F9 1.802719 1_555
Al1 F21 1.819103 1_555
Al1 F16 1.837311 1_655
Al1 F15 1.876059 1_555
Al1 F1 1.877295 1_555
Al2 F18 1.791227 1_545
Al2 F5 1.802719 1_555
Al2 F6 1.819103 1_555
Al2 F3 1.837311 1_555
Al2 F20 1.876059 1_555
Al2 F19 1.877295 1_555
Al3 F13 1.791227 1_565
Al3 F22 1.802719 1_555
Al3 F8 1.819103 1_555
Al3 F17 1.837311 1_555
Al3 F7 1.876059 1_555
Al3 F2 1.877295 1_555
F0 Sr3 2.395294 1_555
F0 Li0 2.453979 1_655
F0 F21 2.560988 1_565
F1 Li0 1.971362 1_655
F1 F16 2.481442 1_655
F1 Sr2 2.535667 1_554
F1 F21 2.543869 1_555
F1 Sr1 2.654327 1_655
F2 Li2 1.971362 1_555
F2 Sr0 2.535667 1_555
F2 F8 2.543869 1_555
F2 Sr3 2.654327 1_555
F3 Li1 1.912296 1_545
F3 Sr0 2.681867 1_555
F4 Li0 1.908224 1_555
F4 Sr0 2.713805 1_555
F5 Li2 1.908224 1_556
F5 Sr2 2.713805 1_555
F6 Sr3 2.542673 1_545
F6 Sr3 2.997282 1_555
F7 Li0 2.003262 1_555
F7 F8 2.514155 1_555
F7 Sr1 2.591659 1_555
F7 Sr0 2.693284 1_555
F8 Sr0 2.542673 1_565
F8 Sr0 2.997282 1_555
F9 Li3 1.908224 1_555
F9 Sr3 2.713805 1_555
F10 Li3 1.912296 1_565
F10 F23 2.481442 1_655
F10 Sr2 2.681867 1_555
F11 Li1 2.003262 1_555
F11 F4 2.483170 1_555
F11 F14 2.514155 1_555
F11 Sr0 2.591659 1_555
F11 Sr1 2.693284 1_556
F12 Sr0 2.395294 1_555
F12 Li3 2.453979 1_455
F12 F14 2.560988 1_545
F13 Sr1 2.395294 1_555
F13 Li2 2.453979 1_555
F13 F8 2.560988 1_545
F14 Sr1 2.542673 1_566
F14 F23 2.543869 1_555
F14 Sr1 2.997282 1_556
F15 Li2 2.003262 1_555
F15 F9 2.483170 1_555
F15 F21 2.514155 1_555
F15 Sr3 2.591659 1_555
F15 Sr2 2.693284 1_554
F16 Li0 1.912296 1_545
F16 Sr1 2.681867 1_555
F17 Li2 1.912296 1_565
F17 F2 2.481442 1_555
F17 Sr3 2.681867 1_555
F18 Sr2 2.395294 1_555
F18 Li1 2.453979 1_555
F18 F6 2.560988 1_565
F19 Li1 1.971362 1_555
F19 F3 2.481442 1_555
F19 Sr3 2.535667 1_555
F19 F6 2.543869 1_555
F19 Sr0 2.654327 1_555
F20 Li3 2.003262 1_555
F20 F5 2.483170 1_555
F20 F6 2.514155 1_555
F20 Sr2 2.591659 1_555
F20 Sr3 2.693284 1_555
F21 Sr2 2.542673 1_544
F21 Sr2 2.997282 1_554
F22 Li1 1.908224 1_554
F22 F7 2.483170 1_555
F22 Sr1 2.713805 1_555
F23 Li3 1.971362 1_455
F23 Sr1 2.535667 1_556
F23 Sr2 2.654327 1_455
