# generated using pymatgen
data_Ba7Ru4Br2O15
_symmetry_space_group_name_H-M   'P 1'
_cell_length_a   18.13759451
_cell_length_b   18.13759451
_cell_length_c   18.13759455
_cell_angle_alpha   18.71407390
_cell_angle_beta   18.71407390
_cell_angle_gamma   18.71407740
_symmetry_Int_Tables_number   1
_chemical_formula_structural   Ba7Ru4Br2O15
_chemical_formula_sum   'Ba7 Ru4 Br2 O15'
_cell_volume   536.66731158
_cell_formula_units_Z   1
loop_
 _symmetry_equiv_pos_site_id
 _symmetry_equiv_pos_as_xyz
  1  'x, y, z'
loop_
 _atom_site_type_symbol
 _atom_site_label
 _atom_site_symmetry_multiplicity
 _atom_site_fract_x
 _atom_site_fract_y
 _atom_site_fract_z
 _atom_site_occupancy
  Ba  Ba0  1  0.08141200  0.08141200  0.08141200  1
  Ba  Ba1  1  0.20852800  0.20852800  0.20852800  1
  Ba  Ba2  1  0.79147200  0.79147200  0.79147200  1
  Ba  Ba3  1  0.91858800  0.91858800  0.91858800  1
  Ba  Ba4  1  0.71274800  0.71274800  0.71274800  1
  Ba  Ba5  1  0.28725200  0.28725200  0.28725200  1
  Ba  Ba6  1  0.00000000  0.00000000  0.00000000  1
  Ru  Ru0  1  0.40509800  0.40509800  0.40509800  1
  Ru  Ru1  1  0.64676400  0.64676400  0.64676400  1
  Ru  Ru2  1  0.59490200  0.59490200  0.59490200  1
  Ru  Ru3  1  0.35323600  0.35323600  0.35323600  1
  Br  Br0  1  0.85628600  0.85628600  0.85628600  1
  Br  Br1  1  0.14371400  0.14371400  0.14371400  1
  O  O0  1  0.32068200  0.77284300  0.77284300  1
  O  O1  1  0.77284300  0.32068200  0.77284300  1
  O  O2  1  0.89921000  0.41591700  0.41591700  1
  O  O3  1  0.22715700  0.67931800  0.22715700  1
  O  O4  1  0.41591700  0.89921000  0.41591700  1
  O  O5  1  0.58408300  0.10079000  0.58408300  1
  O  O6  1  0.77284300  0.77284300  0.32068200  1
  O  O7  1  0.00000000  0.50000000  0.50000000  1
  O  O8  1  0.10079000  0.58408300  0.58408300  1
  O  O9  1  0.67931800  0.22715700  0.22715700  1
  O  O10  1  0.58408300  0.58408300  0.10079000  1
  O  O11  1  0.22715700  0.22715700  0.67931800  1
  O  O12  1  0.41591700  0.41591700  0.89921000  1
  O  O13  1  0.50000000  0.00000000  0.50000000  1
  O  O14  1  0.50000000  0.50000000  0.00000000  1
loop_
_geom_bond_atom_site_label_1
_geom_bond_atom_site_label_2
_geom_bond_distance
_geom_bond_site_symmetry_2
Ba0 O11 2.713391 1_554
Ba0 O3 2.713391 1_545
Ba0 O9 2.713391 1_455
Ba0 O8 2.982166 1_554
Ba0 O5 2.982166 1_554
Ba0 O8 2.982166 1_545
Ba0 O5 2.982166 1_455
Ba0 O10 2.982167 1_545
Ba0 O10 2.982167 1_455
Ba0 Br1 3.329747 1_555
Ba1 O12 2.574000 1_554
Ba1 O2 2.574000 1_455
Ba1 O4 2.574000 1_545
Ba1 Br1 3.464002 1_555
Ba1 Br0 3.551918 1_445
Ba1 Br0 3.551918 1_454
Ba1 Br0 3.551918 1_544
Ba2 O10 2.574000 1_556
Ba2 O8 2.574000 1_655
Ba2 O5 2.574000 1_565
Ba2 Br0 3.464002 1_555
Ba2 Br1 3.551918 1_665
Ba2 Br1 3.551918 1_656
Ba2 Br1 3.551918 1_566
Ba3 O6 2.713391 1_556
Ba3 O1 2.713391 1_565
Ba3 O0 2.713391 1_655
Ba3 O2 2.982166 1_556
Ba3 O4 2.982166 1_556
Ba3 O2 2.982166 1_565
Ba3 O4 2.982166 1_655
Ba3 O12 2.982167 1_565
Ba3 O12 2.982167 1_655
Ba3 Br0 3.329747 1_555
Ba4 O10 2.918605 1_556
Ba4 O5 2.918605 1_565
Ba4 O8 2.918605 1_655
Ba4 O9 2.954560 1_556
Ba4 O3 2.954560 1_556
Ba4 O9 2.954560 1_565
Ba4 O3 2.954560 1_655
Ba4 O11 2.954560 1_565
Ba4 O11 2.954560 1_655
Ba4 O14 2.994034 1_556
Ba4 O13 2.994035 1_565
Ba4 O7 2.994035 1_655
Ba5 O12 2.918605 1_554
Ba5 O4 2.918605 1_545
Ba5 O2 2.918605 1_455
Ba5 O1 2.954560 1_554
Ba5 O0 2.954560 1_554
Ba5 O1 2.954560 1_455
Ba5 O0 2.954560 1_545
Ba5 O6 2.954560 1_545
Ba5 O6 2.954560 1_455
Ba5 O14 2.994034 1_555
Ba5 O13 2.994035 1_555
Ba5 O7 2.994035 1_555
Ba6 O7 2.948921 1_545
Ba6 O13 2.948921 1_455
Ba6 O13 2.948921 1_554
Ba6 O7 2.948921 1_554
Ba6 O14 2.948922 1_455
Ba6 O14 2.948922 1_545
Ba6 O11 3.024484 1_554
Ba6 O6 3.024484 1_445
Ba6 O9 3.024485 1_455
Ba6 O3 3.024485 1_545
Ba6 O1 3.024485 1_454
Ba6 O0 3.024485 1_544
Br0 Br1 4.196920 1_665
Br0 Br1 4.196920 1_656
Br0 Br1 4.196920 1_566
O0 Ru1 2.026069 1_555
O0 Ru2 2.118266 1_555
O1 Ru1 2.026069 1_555
O1 Ru2 2.118266 1_555
O2 Ru2 1.903197 1_555
O3 Ru3 2.026069 1_555
O3 Ru0 2.118266 1_555
O4 Ru2 1.903197 1_555
O5 Ru0 1.903197 1_555
O6 Ru1 2.026068 1_555
O6 Ru2 2.118266 1_555
O7 Ru3 2.007530 1_555
O7 Ru1 2.007530 1_455
O8 Ru0 1.903197 1_555
O9 Ru3 2.026069 1_555
O9 Ru0 2.118266 1_555
O10 Ru0 1.903196 1_555
O11 Ru3 2.026068 1_555
O11 Ru0 2.118266 1_555
O12 Ru2 1.903196 1_555
O13 Ru3 2.007530 1_555
O13 Ru1 2.007530 1_545
O14 Ru1 2.007530 1_554
O14 Ru3 2.007530 1_555
