# generated using pymatgen
data_K2PdSe10
_symmetry_space_group_name_H-M   'P 1'
_cell_length_a   13.05287599
_cell_length_b   13.05182980
_cell_length_c   13.05364396
_cell_angle_alpha   103.14083869
_cell_angle_beta   103.14029020
_cell_angle_gamma   123.05498871
_symmetry_Int_Tables_number   1
_chemical_formula_structural   K2PdSe10
_chemical_formula_sum   'K8 Pd4 Se40'
_cell_volume   1638.34813678
_cell_formula_units_Z   4
loop_
 _symmetry_equiv_pos_site_id
 _symmetry_equiv_pos_as_xyz
  1  'x, y, z'
loop_
 _atom_site_type_symbol
 _atom_site_label
 _atom_site_symmetry_multiplicity
 _atom_site_fract_x
 _atom_site_fract_y
 _atom_site_fract_z
 _atom_site_occupancy
  K  K0  1  0.85127110  0.65540491  0.01130315  1
  K  K1  1  0.39877588  0.90999730  0.30407759  1
  K  K2  1  0.90546474  0.60127397  0.51126962  1
  K  K3  1  0.60587587  0.09469445  0.69587967  1
  K  K4  1  0.09000445  0.39417256  0.48880859  1
  K  K5  1  0.34461910  0.35579422  0.19583660  1
  K  K6  1  0.64411431  0.83995430  0.98874060  1
  K  K7  1  0.15998371  0.14879044  0.80409124  1
  Pd  Pd0  1  0.74997583  0.24997990  0.49988531  1
  Pd  Pd1  1  0.24992910  0.75000299  0.50000558  1
  Pd  Pd2  1  0.49988986  0.49994696  -0.00009039  1
  Pd  Pd3  1  0.00010649  0.00013166  -0.00003040  1
  Se  Se0  1  0.08138677  0.13136344  0.33041522  1
  Se  Se1  1  0.40894126  0.76747993  0.66119729  1
  Se  Se2  1  0.32179187  0.26946704  0.41977517  1
  Se  Se3  1  0.22906161  0.51135233  0.80107381  1
  Se  Se4  1  0.51955332  0.07185932  0.91969264  1
  Se  Se5  1  0.57164804  0.77067441  0.28217865  1
  Se  Se6  1  0.92826554  0.84796762  0.44772134  1
  Se  Se7  1  0.40032483  0.48057328  0.55238891  1
  Se  Se8  1  0.44911813  0.61869256  0.45010053  1
  Se  Se9  1  0.23250079  0.89364034  0.64158740  1
  Se  Se10  1  0.15214750  0.59971539  0.08034738  1
  Se  Se11  1  0.10641996  0.74788571  0.33879409  1
  Se  Se12  1  0.86866188  0.19905277  0.95006161  1
  Se  Se13  1  0.64945211  0.56801280  0.19822892  1
  Se  Se14  1  0.38135932  0.83138596  0.83044094  1
  Se  Se15  1  0.81800186  0.39964443  0.69821903  1
  Se  Se16  1  0.14353187  0.98240318  0.14145052  1
  Se  Se17  1  0.60041197  0.29870965  0.41836850  1
  Se  Se18  1  0.00098720  0.55087639  0.16959134  1
  Se  Se19  1  0.76133163  0.97902510  0.30110225  1
  Se  Se20  1  0.16866665  -0.00095942  0.55004960  1
  Se  Se21  1  0.25212679  0.59091471  0.35861158  1
  Se  Se22  1  0.67817107  0.46044676  0.69890621  1
  Se  Se23  1  0.84992879  0.90222300  0.58034282  1
  Se  Se24  1  0.01749670  0.15900449  0.16116339  1
  Se  Se25  1  0.36963858  0.45133925  0.80172202  1
  Se  Se26  1  0.88020537  0.18189110  0.58135833  1
  Se  Se27  1  0.54881751  0.35050955  0.91838703  1
  Se  Se28  1  -0.00211321  0.85632828  0.83884964  1
  Se  Se29  1  0.53988537  0.23866714  0.21781064  1
  Se  Se30  1  0.73056723  0.15027544  0.05234907  1
  Se  Se31  1  0.80095526  0.75099604  0.66958349  1
  Se  Se32  1  0.48861280  0.28981521  0.71778680  1
  Se  Se33  1  0.43186114  0.63019330  0.08152212  1
  Se  Se34  1  0.70129979  0.11959205  0.30166568  1
  Se  Se35  1  0.84098030  0.00211441  0.85853764  1
  Se  Se36  1  0.09794213  0.67814090  0.94779568  1
  Se  Se37  1  0.71040669  0.42829715  0.19897805  1
  Se  Se38  1  0.02065714  0.32169257  0.78204306  1
  Se  Se39  1  0.24898501  0.91859276  0.05001942  1
loop_
_geom_bond_atom_site_label_1
_geom_bond_atom_site_label_2
_geom_bond_distance
_geom_bond_site_symmetry_2
K0 Se27 3.373849 1_554
K0 Se36 3.380144 1_654
K0 Se16 3.413154 1_655
K0 Se18 3.507691 1_655
K0 Se22 3.609721 1_554
K0 Pd2 3.817854 1_555
K0 Se28 3.843883 1_654
K0 Pd3 3.864954 1_665
K0 Se13 3.886487 1_555
K0 Se11 4.197496 1_655
K0 K6 4.501749 1_554
K1 Se34 3.374775 1_565
K1 Se10 3.379161 1_555
K1 Se11 3.414508 1_555
K1 Se39 3.506291 1_555
K1 Se5 3.607373 1_555
K1 Pd0 3.816162 1_565
K1 Se21 3.845260 1_555
K1 Pd1 3.865024 1_555
K1 Se17 3.885737 1_565
K1 Se16 4.198905 1_555
K1 K3 4.502822 1_565
K2 Se17 3.375477 1_555
K2 Se6 3.380116 1_555
K2 Se9 3.413853 1_655
K2 Se31 3.507692 1_555
K2 Se37 3.608776 1_555
K2 Pd0 3.816462 1_555
K2 Se11 3.844412 1_655
K2 Pd1 3.862012 1_655
K2 Se15 3.885054 1_555
K2 Se28 4.198020 1_655
K2 K4 4.500913 1_655
K3 Se15 3.375400 1_555
K3 Se4 3.379398 1_555
K3 Se1 3.415810 1_545
K3 Se12 3.507674 1_555
K3 Se32 3.609755 1_555
K3 Pd0 3.818153 1_555
K3 Se9 3.843576 1_545
K3 Pd1 3.863959 1_545
K3 Se26 3.887660 1_555
K3 Se35 4.199405 1_555
K4 Se26 3.374104 1_455
K4 Se7 3.380923 1_555
K4 Se21 3.413525 1_555
K4 Se0 3.507437 1_555
K4 Se3 3.608619 1_555
K4 Pd0 3.816435 1_455
K4 Se1 3.842193 1_555
K4 Pd1 3.863241 1_555
K4 Se34 3.886118 1_455
K4 Se24 4.198901 1_555
K5 Se13 3.374384 1_555
K5 Se2 3.380956 1_555
K5 Se24 3.415070 1_555
K5 Se8 3.508291 1_555
K5 Se29 3.610135 1_555
K5 Pd2 3.817537 1_555
K5 Se16 3.843067 1_545
K5 Pd3 3.861539 1_555
K5 Se33 3.886329 1_555
K5 Se21 4.199135 1_555
K5 K7 4.502126 1_554
K6 Se33 3.375925 1_556
K6 Se30 3.380287 1_566
K6 Se35 3.414651 1_565
K6 Se14 3.507073 1_555
K6 Se19 3.609707 1_556
K6 Pd2 3.816288 1_556
K6 Se24 3.843261 1_666
K6 Pd3 3.864937 1_666
K6 Se25 3.884799 1_555
K6 Se1 4.198180 1_555
K7 Se25 3.374700 1_555
K7 Se23 3.377877 1_445
K7 Se28 3.415673 1_545
K7 Se20 3.506479 1_555
K7 Se38 3.607938 1_555
K7 Pd2 3.815564 1_556
K7 Se35 3.844027 1_455
K7 Pd3 3.862939 1_556
K7 Se27 3.887326 1_555
K7 Se9 4.198264 1_545
Pd0 Se34 2.462867 1_555
Pd0 Se17 2.462873 1_555
Pd0 Se26 2.462946 1_555
Pd0 Se15 2.463763 1_555
Pd1 Se11 2.462304 1_555
Pd1 Se9 2.462326 1_555
Pd1 Se21 2.462794 1_555
Pd1 Se1 2.463130 1_555
Pd2 Se25 2.462353 1_554
Pd2 Se33 2.463056 1_555
Pd2 Se13 2.463065 1_555
Pd2 Se27 2.463455 1_554
Pd3 Se35 2.461734 1_454
Pd3 Se16 2.462521 1_545
Pd3 Se24 2.462572 1_555
Pd3 Se28 2.462747 1_544
Se0 Se24 2.357914 1_555
Se0 Se2 2.380336 1_555
Se1 Se14 2.357425 1_555
Se2 Se7 2.362747 1_555
Se3 Se38 2.378358 1_555
Se7 Se8 2.380521 1_555
Se10 Se36 2.362408 1_554
Se10 Se18 2.380588 1_555
Se11 Se18 2.357842 1_555
Se12 Se35 2.357784 1_555
Se12 Se30 2.380379 1_556
Se13 Se37 2.354942 1_555
Se14 Se4 2.380716 1_565
Se15 Se22 2.354884 1_555
Se16 Se39 2.357606 1_555
Se17 Se29 2.354485 1_555
Se19 Se34 2.354737 1_565
Se19 Se5 2.378599 1_555
Se20 Se9 2.357890 1_545
Se20 Se6 2.380286 1_445
Se21 Se8 2.357810 1_555
Se22 Se32 2.378704 1_555
Se23 Se6 2.362490 1_555
Se23 Se31 2.380996 1_555
Se25 Se3 2.354662 1_555
Se26 Se38 2.355165 1_655
Se27 Se32 2.354582 1_555
Se28 Se31 2.358180 1_455
Se29 Se37 2.378272 1_555
Se30 Se4 2.362807 1_554
Se33 Se5 2.354905 1_555
Se36 Se39 2.380488 1_556
