# generated using pymatgen
data_LiCrPO4
_symmetry_space_group_name_H-M   'P 1'
_cell_length_a   5.99065665
_cell_length_b   6.50136152
_cell_length_c   9.71304419
_cell_angle_alpha   109.59024451
_cell_angle_beta   92.81074292
_cell_angle_gamma   98.74819776
_symmetry_Int_Tables_number   1
_chemical_formula_structural   LiCrPO4
_chemical_formula_sum   'Li4 Cr4 P4 O16'
_cell_volume   350.21530292
_cell_formula_units_Z   4
loop_
 _symmetry_equiv_pos_site_id
 _symmetry_equiv_pos_as_xyz
  1  'x, y, z'
loop_
 _atom_site_type_symbol
 _atom_site_label
 _atom_site_symmetry_multiplicity
 _atom_site_fract_x
 _atom_site_fract_y
 _atom_site_fract_z
 _atom_site_occupancy
  Li  Li0  1  0.41715300  0.03760900  0.67551000  1
  Li  Li1  1  0.58284900  0.96238700  0.32448600  1
  Li  Li2  1  0.40917600  0.53887800  0.70485700  1
  Li  Li3  1  0.59083300  0.46112000  0.29514200  1
  Cr  Cr0  1  0.01501900  0.17608300  0.27578800  1
  Cr  Cr1  1  0.98498400  0.82393500  0.72421900  1
  Cr  Cr2  1  0.79480200  0.28910400  0.92687600  1
  Cr  Cr3  1  0.20516000  0.71088600  0.07311000  1
  P  P0  1  0.70781100  0.80204600  0.98592900  1
  P  P1  1  0.29218600  0.19795900  0.01407700  1
  P  P2  1  0.84501500  0.33818000  0.61079000  1
  P  P3  1  0.15499300  0.66182100  0.38920900  1
  O  O0  1  0.09585500  0.41083700  0.66970200  1
  O  O1  1  0.90415500  0.58915800  0.33029600  1
  O  O2  1  0.20751100  0.04636000  0.10504000  1
  O  O3  1  0.79248500  0.95364400  0.89496300  1
  O  O4  1  0.73058800  0.94464900  0.15154100  1
  O  O5  1  0.26942100  0.05535100  0.84846300  1
  O  O6  1  0.28718600  0.80732000  0.30843000  1
  O  O7  1  0.71282100  0.19267800  0.69156800  1
  O  O8  1  0.86518700  0.62559100  0.96101600  1
  O  O9  1  0.13480500  0.37440200  0.03897700  1
  O  O10  1  0.19108900  0.80421800  0.55702600  1
  O  O11  1  0.80890700  0.19578200  0.44297700  1
  O  O12  1  0.53722700  0.31526600  0.07414500  1
  O  O13  1  0.46277200  0.68472700  0.92585900  1
  O  O14  1  0.27139600  0.45231900  0.36540900  1
  O  O15  1  0.72861600  0.54769200  0.63459600  1
loop_
_geom_bond_atom_site_label_1
_geom_bond_atom_site_label_2
_geom_bond_distance
_geom_bond_site_symmetry_2
Li0 O7 1.871444 1_555
Li0 O10 1.874017 1_545
Li0 O5 1.914559 1_555
Li1 O6 1.871416 1_555
Li1 O11 1.874031 1_565
Li1 O4 1.914517 1_555
Li2 O0 1.898400 1_555
Li2 O13 2.021131 1_555
Li2 O15 2.062049 1_555
Li3 O1 1.898401 1_555
Li3 O12 2.021092 1_555
Li3 O14 2.062055 1_555
Cr0 O11 2.069634 1_455
Cr0 O14 2.079291 1_555
Cr0 O2 2.082558 1_555
Cr0 O4 2.103453 1_445
Cr0 O1 2.749027 1_455
Cr1 O10 2.069625 1_655
Cr1 O15 2.079289 1_555
Cr1 O3 2.082539 1_555
Cr1 O5 2.103421 1_665
Cr1 O0 2.749175 1_655
Cr2 O8 2.071882 1_555
Cr2 O3 2.095194 1_545
Cr2 O12 2.142241 1_556
Cr2 O9 2.162365 1_656
Cr2 O7 2.166429 1_555
Cr3 O9 2.071871 1_555
Cr3 O2 2.095219 1_565
Cr3 O13 2.142293 1_554
Cr3 O8 2.162183 1_454
Cr3 O6 2.166569 1_555
O0 P2 1.525501 1_455
O1 P3 1.525494 1_655
O2 P1 1.576440 1_555
O3 P0 1.576456 1_555
O4 P0 1.551019 1_554
O5 P1 1.551047 1_556
O6 P3 1.571093 1_555
O7 P2 1.571102 1_555
O8 P0 1.558421 1_555
O9 P1 1.558390 1_555
O10 P3 1.566325 1_555
O11 P2 1.566294 1_555
O12 P1 1.534279 1_555
O13 P0 1.534290 1_555
O14 P3 1.577487 1_555
O15 P2 1.577523 1_555
