# generated using pymatgen
data_Re3Se4Cl
_symmetry_space_group_name_H-M   'P 1'
_cell_length_a   6.65976946
_cell_length_b   6.70206605
_cell_length_c   9.06957481
_cell_angle_alpha   77.46007732
_cell_angle_beta   71.18515221
_cell_angle_gamma   86.10161705
_symmetry_Int_Tables_number   1
_chemical_formula_structural   Re3Se4Cl
_chemical_formula_sum   'Re6 Se8 Cl2'
_cell_volume   374.04069710
_cell_formula_units_Z   2
loop_
 _symmetry_equiv_pos_site_id
 _symmetry_equiv_pos_as_xyz
  1  'x, y, z'
loop_
 _atom_site_type_symbol
 _atom_site_label
 _atom_site_symmetry_multiplicity
 _atom_site_fract_x
 _atom_site_fract_y
 _atom_site_fract_z
 _atom_site_occupancy
  Re  Re0  1  0.89338353  0.75330319  0.53582978  1
  Re  Re1  1  0.84834970  0.37542986  0.71083771  1
  Re  Re2  1  0.15165030  0.62457014  0.28916229  1
  Re  Re3  1  0.77296149  0.46063449  0.43302671  1
  Re  Re4  1  0.10661647  0.24669681  0.46417022  1
  Re  Re5  1  0.22703851  0.53936551  0.56697329  1
  Se  Se0  1  0.82218054  0.82117526  0.27223449  1
  Se  Se1  1  0.17781946  0.17882474  0.72776551  1
  Se  Se2  1  0.52993615  0.59602750  0.68398917  1
  Se  Se3  1  0.72149155  0.10293944  0.60363367  1
  Se  Se4  1  0.27850845  0.89706056  0.39636633  1
  Se  Se5  1  0.47006385  0.40397250  0.31601083  1
  Se  Se6  1  0.03274983  0.33491135  0.20068878  1
  Se  Se7  1  0.96725017  0.66508865  0.79931122  1
  Cl  Cl0  1  0.34143010  0.78073242  0.02522262  1
  Cl  Cl1  1  0.65856990  0.21926758  0.97477738  1
loop_
_geom_bond_atom_site_label_1
_geom_bond_atom_site_label_2
_geom_bond_distance
_geom_bond_site_symmetry_2
Re0 Se0 2.525250 1_555
Re0 Se7 2.531255 1_555
Re0 Se2 2.531668 1_555
Re0 Se4 2.611674 1_655
Re0 Re3 2.617309 1_555
Re0 Re2 2.619558 1_655
Re0 Re5 2.620871 1_655
Re0 Se3 2.643207 1_565
Re0 Re1 2.659644 1_555
Re1 Se1 2.512090 1_655
Re1 Se7 2.516921 1_555
Re1 Se2 2.548009 1_555
Re1 Se3 2.550492 1_555
Re1 Re4 2.619558 1_655
Re1 Re5 2.627114 1_655
Re1 Re3 2.660616 1_555
Re2 Se0 2.512090 1_455
Re2 Se6 2.516921 1_555
Re2 Se5 2.548009 1_555
Re2 Se4 2.550492 1_555
Re2 Re3 2.627114 1_455
Re2 Re4 2.659644 1_555
Re2 Re5 2.660616 1_555
Re3 Se0 2.518362 1_555
Re3 Se6 2.522866 1_655
Re3 Se3 2.533300 1_555
Re3 Re4 2.620871 1_655
Re3 Se2 2.635268 1_555
Re3 Se5 2.645717 1_555
Re4 Se1 2.525250 1_555
Re4 Se6 2.531255 1_555
Re4 Se5 2.531668 1_555
Re4 Se3 2.611674 1_455
Re4 Re5 2.617309 1_555
Re4 Se4 2.643207 1_545
Re5 Se1 2.518362 1_555
Re5 Se7 2.522866 1_455
Re5 Se4 2.533300 1_555
Re5 Se5 2.635268 1_555
Re5 Se2 2.645717 1_555
Se0 Se4 3.464790 1_555
Se1 Se3 3.464790 1_555
Se2 Se3 3.551772 1_565
Se4 Se5 3.551772 1_565
Cl0 Re2 2.358724 1_555
Cl0 Se2 3.410677 1_554
Cl0 Se0 3.491402 1_455
Cl0 Se4 3.507066 1_555
Cl0 Se5 3.512369 1_555
Cl0 Se6 3.513761 1_555
Cl1 Re1 2.358724 1_555
Cl1 Se5 3.410677 1_556
Cl1 Se1 3.491402 1_655
Cl1 Se3 3.507066 1_555
Cl1 Se2 3.512369 1_555
Cl1 Se7 3.513761 1_555
