# generated using pymatgen
data_GdCu(WO4)2
_symmetry_space_group_name_H-M   'P 1'
_cell_length_a   7.21233000
_cell_length_b   7.35630526
_cell_length_c   7.46472988
_cell_angle_alpha   113.69850176
_cell_angle_beta   116.47422023
_cell_angle_gamma   90.89439287
_symmetry_Int_Tables_number   1
_chemical_formula_structural   GdCu(WO4)2
_chemical_formula_sum   'Gd2 Cu2 W4 O16'
_cell_volume   315.32269222
_cell_formula_units_Z   2
loop_
 _symmetry_equiv_pos_site_id
 _symmetry_equiv_pos_as_xyz
  1  'x, y, z'
loop_
 _atom_site_type_symbol
 _atom_site_label
 _atom_site_symmetry_multiplicity
 _atom_site_fract_x
 _atom_site_fract_y
 _atom_site_fract_z
 _atom_site_occupancy
  Gd  Gd0  1  0.81493900  0.71847500  0.54706300  1
  Gd  Gd1  1  0.18506100  0.28152500  0.45293700  1
  Cu  Cu0  1  0.26706900  0.68983600  0.05691900  1
  Cu  Cu1  1  0.73293100  0.31016400  0.94308100  1
  W  W0  1  0.34837900  0.88669100  0.70664500  1
  W  W1  1  0.65162100  0.11330900  0.29335500  1
  W  W2  1  0.74485200  0.70618100  0.98122300  1
  W  W3  1  0.25514800  0.29381900  0.01877700  1
  O  O0  1  0.61541000  0.81534700  0.73844100  1
  O  O1  1  0.38459000  0.18465300  0.26155900  1
  O  O2  1  0.48272000  0.82820300  0.01297900  1
  O  O3  1  0.51728000  0.17179700  0.98702100  1
  O  O4  1  0.13434600  0.97986700  0.79628100  1
  O  O5  1  0.86565400  0.02013300  0.20371900  1
  O  O6  1  0.28811100  0.98256300  0.50508300  1
  O  O7  1  0.71188900  0.01743700  0.49491700  1
  O  O8  1  0.18250500  0.62537300  0.55038700  1
  O  O9  1  0.81749500  0.37462700  0.44961300  1
  O  O10  1  0.82478500  0.66824800  0.23055000  1
  O  O11  1  0.17521500  0.33175200  0.76945000  1
  O  O12  1  0.96898000  0.69579800  0.92341800  1
  O  O13  1  0.03102000  0.30420200  0.07658200  1
  O  O14  1  0.44547100  0.54846400  0.23955100  1
  O  O15  1  0.55452900  0.45153600  0.76044900  1
loop_
_geom_bond_atom_site_label_1
_geom_bond_atom_site_label_2
_geom_bond_distance
_geom_bond_site_symmetry_2
Gd0 O10 2.274315 1_555
Gd0 O9 2.337080 1_555
Gd0 O4 2.372845 1_655
Gd0 O0 2.380384 1_555
Gd0 O7 2.453951 1_565
Gd0 O14 2.463467 1_555
Gd0 O12 2.598937 1_555
Gd0 O8 2.740296 1_655
Gd1 O11 2.274315 1_555
Gd1 O8 2.337080 1_555
Gd1 O5 2.372845 1_455
Gd1 O1 2.380384 1_555
Gd1 O6 2.453951 1_545
Gd1 O15 2.463467 1_555
Gd1 O13 2.598937 1_555
Gd1 O9 2.740296 1_455
Cu0 O12 1.935206 1_454
Cu0 O14 2.052608 1_555
Cu0 O2 2.058286 1_555
Cu0 O11 2.473205 1_554
Cu1 O13 1.935206 1_656
Cu1 O15 2.052608 1_555
Cu1 O3 2.058286 1_555
Cu1 O10 2.473205 1_556
O0 W0 1.940376 1_555
O0 W2 2.117951 1_555
O0 O12 2.662629 1_555
O0 O5 2.776704 1_566
O1 W1 1.940376 1_555
O1 W3 2.117951 1_555
O1 O13 2.662629 1_555
O1 O4 2.776704 1_544
O2 W1 2.093234 1_565
O2 W2 2.172038 1_554
O2 W0 2.276266 1_554
O2 O5 2.530759 1_565
O3 W0 2.093234 1_545
O3 W3 2.172038 1_556
O3 W1 2.276266 1_556
O3 O4 2.530759 1_545
O4 W0 1.971227 1_555
O4 W3 2.101211 1_566
O4 O8 2.653159 1_555
O5 W1 1.971227 1_555
O5 W2 2.101211 1_544
O5 O9 2.653159 1_555
O6 W0 1.797118 1_555
O7 W1 1.797118 1_555
O8 W0 1.835416 1_555
O9 W1 1.835416 1_555
O10 W2 1.827564 1_554
O10 O5 2.696903 1_565
O11 W3 1.827564 1_556
O11 O4 2.696903 1_545
O12 W2 1.845076 1_555
O13 W3 1.845076 1_555
O14 W3 1.878944 1_555
O15 W2 1.878944 1_555
