# generated using pymatgen
data_K2Li4UO6
_symmetry_space_group_name_H-M   'P 1'
_cell_length_a   6.12119939
_cell_length_b   6.12119939
_cell_length_c   5.67365300
_cell_angle_alpha   90.00000000
_cell_angle_beta   90.00000000
_cell_angle_gamma   119.99999343
_symmetry_Int_Tables_number   1
_chemical_formula_structural   K2Li4UO6
_chemical_formula_sum   'K2 Li4 U1 O6'
_cell_volume   184.10538188
_cell_formula_units_Z   1
loop_
 _symmetry_equiv_pos_site_id
 _symmetry_equiv_pos_as_xyz
  1  'x, y, z'
loop_
 _atom_site_type_symbol
 _atom_site_label
 _atom_site_symmetry_multiplicity
 _atom_site_fract_x
 _atom_site_fract_y
 _atom_site_fract_z
 _atom_site_occupancy
  K  K0  1  0.33333300  0.66666700  0.53019000  1
  K  K1  1  0.66666700  0.33333300  0.46981000  1
  Li  Li0  1  0.00000000  0.00000000  0.50000000  1
  Li  Li1  1  0.50000000  0.00000000  0.00000000  1
  Li  Li2  1  0.50000000  0.50000000  0.00000000  1
  Li  Li3  1  0.00000000  0.50000000  0.00000000  1
  U  U0  1  0.00000000  0.00000000  0.00000000  1
  O  O0  1  0.67293700  0.83646800  0.20509400  1
  O  O1  1  0.32706300  0.16353200  0.79490600  1
  O  O2  1  0.83646800  0.67293700  0.79490600  1
  O  O3  1  0.16353200  0.83646800  0.20509400  1
  O  O4  1  0.83646800  0.16353200  0.79490600  1
  O  O5  1  0.16353200  0.32706300  0.20509400  1
loop_
_geom_bond_atom_site_label_1
_geom_bond_atom_site_label_2
_geom_bond_distance
_geom_bond_site_symmetry_2
K0 O3 2.577418 1_555
K0 O0 2.577425 1_555
K0 O5 2.577425 1_555
K0 Li1 3.198049 1_566
K0 Li3 3.198049 1_556
K0 Li2 3.198052 1_556
K0 O1 3.409413 1_565
K0 O2 3.409413 1_455
K0 O2 3.409413 1_555
K0 O1 3.409413 1_555
K0 O4 3.409414 1_565
K0 O4 3.409414 1_455
K1 O4 2.577418 1_555
K1 O2 2.577425 1_555
K1 O1 2.577425 1_555
K1 Li1 3.198049 1_555
K1 Li3 3.198049 1_655
K1 Li2 3.198052 1_555
K1 O5 3.409413 1_655
K1 O0 3.409413 1_545
K1 O0 3.409413 1_555
K1 O5 3.409413 1_555
K1 O3 3.409414 1_655
K1 O3 3.409414 1_545
Li0 O0 2.409489 1_445
Li0 O1 2.409489 1_555
Li0 O5 2.409489 1_555
Li0 O2 2.409489 1_445
Li0 O4 2.409492 1_455
Li0 O3 2.409492 1_545
Li1 O4 2.129858 1_554
Li1 O3 2.129858 1_545
Li1 O1 2.129862 1_554
Li1 O0 2.129862 1_545
Li2 O0 2.129858 1_555
Li2 O2 2.129858 1_554
Li2 O5 2.129858 1_555
Li2 O1 2.129858 1_554
Li3 O3 2.129858 1_555
Li3 O4 2.129858 1_454
Li3 O5 2.129862 1_555
Li3 O2 2.129862 1_454
O0 U0 2.088084 1_665
O1 U0 2.088084 1_556
O2 U0 2.088084 1_666
O3 U0 2.088089 1_565
O4 U0 2.088089 1_656
O5 U0 2.088084 1_555
