# generated using pymatgen
data_Nb3H12C4NCl9
_symmetry_space_group_name_H-M   'P 1'
_cell_length_a   11.14832331
_cell_length_b   11.14832331
_cell_length_c   8.91287300
_cell_angle_alpha   90.00000000
_cell_angle_beta   90.00000000
_cell_angle_gamma   119.99999592
_symmetry_Int_Tables_number   1
_chemical_formula_structural   Nb3H12C4NCl9
_chemical_formula_sum   'Nb6 H24 C8 N2 Cl18'
_cell_volume   959.32879033
_cell_formula_units_Z   2
loop_
 _symmetry_equiv_pos_site_id
 _symmetry_equiv_pos_as_xyz
  1  'x, y, z'
loop_
 _atom_site_type_symbol
 _atom_site_label
 _atom_site_symmetry_multiplicity
 _atom_site_fract_x
 _atom_site_fract_y
 _atom_site_fract_z
 _atom_site_occupancy
  Nb  Nb0  1  0.90850900  0.09149100  0.85961600  1
  Nb  Nb1  1  0.09149100  0.18298200  0.14038400  1
  Nb  Nb2  1  0.18298200  0.09149100  0.85961600  1
  Nb  Nb3  1  0.90850900  0.81701800  0.85961600  1
  Nb  Nb4  1  0.81701800  0.90850900  0.14038400  1
  Nb  Nb5  1  0.09149100  0.90850900  0.14038400  1
  H  H0  1  0.59396300  0.18792600  0.47137800  1
  H  H1  1  0.40603700  0.81207400  0.52862200  1
  H  H2  1  0.44054600  0.72027300  0.91681400  1
  H  H3  1  0.72027300  0.27972700  0.08318600  1
  H  H4  1  0.27972700  0.72027300  0.91681400  1
  H  H5  1  0.51360900  0.64741600  0.69299300  1
  H  H6  1  0.18792600  0.59396300  0.52862200  1
  H  H7  1  0.27972700  0.55945400  0.91681400  1
  H  H8  1  0.86619400  0.35258400  0.30700700  1
  H  H9  1  0.48639100  0.35258400  0.30700700  1
  H  H10  1  0.48639100  0.13380600  0.30700700  1
  H  H11  1  0.64741600  0.51360900  0.30700700  1
  H  H12  1  0.72027300  0.44054600  0.08318600  1
  H  H13  1  0.59396300  0.40603700  0.47137800  1
  H  H14  1  0.13380600  0.64741600  0.69299300  1
  H  H15  1  0.86619400  0.51360900  0.30700700  1
  H  H16  1  0.35258400  0.48639100  0.69299300  1
  H  H17  1  0.51360900  0.86619400  0.69299300  1
  H  H18  1  0.55945400  0.27972700  0.08318600  1
  H  H19  1  0.81207400  0.40603700  0.47137800  1
  H  H20  1  0.64741600  0.13380600  0.30700700  1
  H  H21  1  0.40603700  0.59396300  0.52862200  1
  H  H22  1  0.35258400  0.86619400  0.69299300  1
  H  H23  1  0.13380600  0.48639100  0.69299300  1
  C  C0  1  0.81362900  0.40681500  0.34849300  1
  C  C1  1  0.66666700  0.33333300  0.12332500  1
  C  C2  1  0.59318500  0.40681500  0.34849300  1
  C  C3  1  0.59318500  0.18637100  0.34849300  1
  C  C4  1  0.40681500  0.59318500  0.65150700  1
  C  C5  1  0.33333300  0.66666700  0.87667500  1
  C  C6  1  0.18637100  0.59318500  0.65150700  1
  C  C7  1  0.40681500  0.81362900  0.65150700  1
  N  N0  1  0.66666700  0.33333300  0.29193100  1
  N  N1  1  0.33333300  0.66666700  0.70806900  1
  Cl  Cl0  1  0.20535100  0.10267600  0.31642800  1
  Cl  Cl1  1  0.00000000  0.68949400  0.00000000  1
  Cl  Cl2  1  0.10267600  0.89732400  0.68357200  1
  Cl  Cl3  1  0.80211400  0.19788600  0.70007400  1
  Cl  Cl4  1  0.89732400  0.10267600  0.31642800  1
  Cl  Cl5  1  0.19788600  0.80211400  0.29992600  1
  Cl  Cl6  1  0.31050600  0.00000000  0.00000000  1
  Cl  Cl7  1  0.31050600  0.31050600  0.00000000  1
  Cl  Cl8  1  0.39577200  0.19788600  0.70007400  1
  Cl  Cl9  1  0.19788600  0.39577200  0.29992600  1
  Cl  Cl10  1  0.80211400  0.60422800  0.70007400  1
  Cl  Cl11  1  0.68949400  0.00000000  0.00000000  1
  Cl  Cl12  1  0.60422800  0.80211400  0.29992600  1
  Cl  Cl13  1  0.00000000  0.31050600  0.00000000  1
  Cl  Cl14  1  0.79464900  0.89732400  0.68357200  1
  Cl  Cl15  1  0.89732400  0.79464900  0.31642800  1
  Cl  Cl16  1  0.10267600  0.20535100  0.68357200  1
  Cl  Cl17  1  0.68949400  0.68949400  0.00000000  1
loop_
_geom_bond_atom_site_label_1
_geom_bond_atom_site_label_2
_geom_bond_distance
_geom_bond_site_symmetry_2
Nb0 Nb2 3.059914 1_655
Nb0 Nb3 3.059914 1_545
Nb0 Nb4 3.063214 1_546
Nb0 Nb1 3.063214 1_656
Nb1 Nb5 3.059914 1_545
Nb1 Nb4 3.059914 1_445
Nb1 Nb2 3.063214 1_554
Nb2 Nb3 3.059914 1_445
Nb2 Nb5 3.063214 1_546
Nb3 Nb4 3.063214 1_556
Nb3 Nb5 3.063214 1_656
Nb4 Nb5 3.059914 1_655
C0 H19 1.095361 1_555
C0 H15 1.095403 1_555
C0 H8 1.095421 1_555
C0 N0 1.505777 1_555
C1 H3 1.095183 1_555
C1 H18 1.095192 1_555
C1 H12 1.095192 1_555
C1 N0 1.502764 1_555
C2 H13 1.095361 1_555
C2 H11 1.095403 1_555
C2 H9 1.095403 1_555
C2 N0 1.505795 1_555
C3 H0 1.095361 1_555
C3 H10 1.095403 1_555
C3 H20 1.095421 1_555
C3 N0 1.505777 1_555
C4 H21 1.095361 1_555
C4 H5 1.095403 1_555
C4 H16 1.095403 1_555
C4 N1 1.505795 1_555
C5 H4 1.095183 1_555
C5 H7 1.095192 1_555
C5 H2 1.095192 1_555
C5 N1 1.502764 1_555
C6 H6 1.095361 1_555
C6 H23 1.095403 1_555
C6 H14 1.095421 1_555
C6 N1 1.505777 1_555
C7 H1 1.095361 1_555
C7 H17 1.095403 1_555
C7 H22 1.095421 1_555
C7 N1 1.505777 1_555
Cl0 Nb1 2.451760 1_555
Cl0 Nb5 2.451767 1_545
Cl0 H9 2.975999 1_555
Cl0 H10 2.976008 1_555
Cl0 Cl9 3.313191 1_555
Cl0 Cl5 3.313202 1_545
Cl0 Cl4 3.433985 1_455
Cl0 Cl15 3.433985 1_445
Cl1 Nb3 2.465187 1_454
Cl1 Nb5 2.465187 1_555
Cl1 H4 3.053253 1_554
Cl1 H12 3.053253 1_455
Cl1 H14 3.260742 1_554
Cl1 H15 3.260746 1_455
Cl1 Cl10 3.289287 1_454
Cl1 Cl5 3.289287 1_555
Cl2 Nb3 2.451768 1_455
Cl2 Nb2 2.451768 1_565
Cl2 H14 2.975985 1_555
Cl2 H22 2.975985 1_555
Cl2 Cl8 3.313197 1_565
Cl3 Nb0 2.498540 1_555
Cl3 H0 3.048667 1_555
Cl3 H19 3.048667 1_555
Cl3 H23 3.482704 1_655
Cl3 H17 3.482704 1_545
Cl4 Nb4 2.451768 1_545
Cl4 Nb1 2.451768 1_655
Cl4 H20 2.975985 1_555
Cl4 H8 2.975985 1_555
Cl4 Cl9 3.313197 1_655
Cl5 Nb5 2.498540 1_555
Cl5 H6 3.048667 1_555
Cl5 H1 3.048667 1_555
Cl5 Cl6 3.289287 1_565
Cl5 H10 3.482704 1_565
Cl5 H15 3.482704 1_455
Cl6 Nb2 2.465187 1_554
Cl6 Nb5 2.465187 1_545
Cl6 H4 3.053253 1_544
Cl6 H18 3.053253 1_555
Cl6 H22 3.260742 1_544
Cl6 H10 3.260746 1_555
Cl6 Cl8 3.289287 1_554
Cl7 Nb1 2.465187 1_555
Cl7 Nb2 2.465187 1_554
Cl7 H18 3.053253 1_555
Cl7 H7 3.053253 1_554
Cl7 H9 3.260748 1_555
Cl7 H16 3.260748 1_554
Cl7 Cl9 3.289287 1_555
Cl7 Cl8 3.289287 1_554
Cl8 Nb2 2.498540 1_555
Cl8 H0 3.048667 1_555
Cl8 H13 3.048667 1_555
Cl8 H22 3.482700 1_545
Cl8 H16 3.482711 1_555
Cl9 Nb1 2.498540 1_555
Cl9 H6 3.048667 1_555
Cl9 H21 3.048667 1_555
Cl9 H8 3.482700 1_455
Cl9 H9 3.482711 1_555
Cl10 Nb3 2.498540 1_555
Cl10 H19 3.048667 1_555
Cl10 H13 3.048667 1_555
Cl10 Cl17 3.289287 1_556
Cl10 Cl14 3.313191 1_555
Cl10 Cl2 3.313197 1_655
Cl10 H14 3.482700 1_655
Cl10 H5 3.482711 1_555
Cl11 Nb4 2.465187 1_545
Cl11 Nb0 2.465187 1_554
Cl11 H3 3.053253 1_555
Cl11 H2 3.053253 1_544
Cl11 H20 3.260742 1_555
Cl11 H17 3.260746 1_544
Cl11 Cl12 3.289287 1_545
Cl11 Cl3 3.289287 1_554
Cl12 Nb4 2.498540 1_555
Cl12 H1 3.048667 1_555
Cl12 H21 3.048667 1_555
Cl12 Cl17 3.289287 1_555
Cl12 Cl15 3.313191 1_555
Cl12 Cl4 3.313197 1_565
Cl12 H20 3.482700 1_565
Cl12 H11 3.482711 1_555
Cl13 Nb1 2.465187 1_555
Cl13 Nb0 2.465187 1_454
Cl13 H3 3.053253 1_455
Cl13 H7 3.053253 1_554
Cl13 H8 3.260742 1_455
Cl13 H23 3.260746 1_554
Cl13 Cl9 3.289287 1_555
Cl13 Cl3 3.289287 1_454
Cl14 Nb3 2.451760 1_555
Cl14 Nb0 2.451767 1_565
Cl14 H5 2.975999 1_555
Cl14 H17 2.976008 1_555
Cl14 Cl3 3.313202 1_565
Cl14 Cl2 3.433985 1_655
Cl14 Cl16 3.433985 1_665
Cl15 Nb4 2.451760 1_555
Cl15 Nb5 2.451767 1_655
Cl15 H11 2.975999 1_555
Cl15 H15 2.976008 1_555
Cl15 Cl5 3.313202 1_655
Cl15 Cl4 3.433985 1_565
Cl16 Nb2 2.451760 1_555
Cl16 Nb0 2.451767 1_455
Cl16 H16 2.975999 1_555
Cl16 H23 2.976008 1_555
Cl16 Cl8 3.313191 1_555
Cl16 Cl3 3.313202 1_455
Cl16 Cl2 3.433985 1_545
Cl17 Nb4 2.465187 1_555
Cl17 Nb3 2.465187 1_554
Cl17 H12 3.053253 1_555
Cl17 H2 3.053253 1_554
Cl17 H11 3.260748 1_555
Cl17 H5 3.260748 1_554
