# generated using pymatgen
data_CSNF5
_symmetry_space_group_name_H-M   'P 1'
_cell_length_a   6.04922800
_cell_length_b   8.59703200
_cell_length_c   9.73268100
_cell_angle_alpha   90.00000000
_cell_angle_beta   90.00000000
_cell_angle_gamma   90.00000000
_symmetry_Int_Tables_number   1
_chemical_formula_structural   CSNF5
_chemical_formula_sum   'C4 S4 N4 F20'
_cell_volume   506.15203360
_cell_formula_units_Z   4
loop_
 _symmetry_equiv_pos_site_id
 _symmetry_equiv_pos_as_xyz
  1  'x, y, z'
loop_
 _atom_site_type_symbol
 _atom_site_label
 _atom_site_symmetry_multiplicity
 _atom_site_fract_x
 _atom_site_fract_y
 _atom_site_fract_z
 _atom_site_occupancy
  C  C0  1  0.25000000  0.02635900  0.35812000  1
  C  C1  1  0.75000000  0.52635900  0.14188000  1
  C  C2  1  0.25000000  0.47364100  0.85812000  1
  C  C3  1  0.75000000  0.97364100  0.64188000  1
  S  S0  1  0.25000000  0.92790000  0.19915400  1
  S  S1  1  0.25000000  0.57210000  0.69915400  1
  S  S2  1  0.75000000  0.07210000  0.80084600  1
  S  S3  1  0.75000000  0.42790000  0.30084600  1
  N  N0  1  0.25000000  0.40790400  0.96269000  1
  N  N1  1  0.75000000  0.90790400  0.53731000  1
  N  N2  1  0.25000000  0.09209600  0.46269000  1
  N  N3  1  0.75000000  0.59209600  0.03731000  1
  F  F0  1  0.25000000  0.09156100  0.11982400  1
  F  F1  1  0.25000000  0.83857700  0.05551200  1
  F  F2  1  0.25000000  0.76355200  0.27817800  1
  F  F3  1  0.01548000  0.42756300  0.30085200  1
  F  F4  1  0.25000000  0.66142300  0.55551200  1
  F  F5  1  0.75000000  0.59156100  0.38017600  1
  F  F6  1  0.25000000  0.40843900  0.61982400  1
  F  F7  1  0.98452000  0.92756300  0.19914800  1
  F  F8  1  0.01548000  0.07243700  0.80085200  1
  F  F9  1  0.98452000  0.57243700  0.69914800  1
  F  F10  1  0.51548000  0.57243700  0.69914800  1
  F  F11  1  0.48452000  0.07243700  0.80085200  1
  F  F12  1  0.75000000  0.33857700  0.44448800  1
  F  F13  1  0.48452000  0.42756300  0.30085200  1
  F  F14  1  0.75000000  0.16142300  0.94448800  1
  F  F15  1  0.75000000  0.23644800  0.72182200  1
  F  F16  1  0.51548000  0.92756300  0.19914800  1
  F  F17  1  0.75000000  0.26355200  0.22182200  1
  F  F18  1  0.25000000  0.73644800  0.77817800  1
  F  F19  1  0.75000000  0.90843900  0.88017600  1
loop_
_geom_bond_atom_site_label_1
_geom_bond_atom_site_label_2
_geom_bond_distance
_geom_bond_site_symmetry_2
C0 N2 1.164128 1_555
C0 S0 1.763578 1_545
C1 N3 1.164128 1_555
C1 S3 1.763578 1_555
C2 N0 1.164128 1_555
C2 S1 1.763578 1_555
C3 N1 1.164128 1_555
C3 S2 1.763578 1_565
F0 S0 1.604922 1_545
F1 S0 1.595041 1_555
F2 S0 1.608676 1_555
F3 S3 1.605952 1_455
F4 S1 1.595041 1_555
F5 S3 1.604922 1_555
F6 S1 1.604922 1_555
F7 S0 1.605952 1_655
F8 S2 1.605952 1_455
F9 S1 1.605952 1_655
F10 S1 1.605952 1_555
F11 S2 1.605952 1_555
F12 S3 1.595041 1_555
F13 S3 1.605952 1_555
F14 S2 1.595041 1_555
F15 S2 1.608676 1_555
F16 S0 1.605952 1_555
F17 S3 1.608676 1_555
F18 S1 1.608676 1_555
F19 S2 1.604922 1_565
