# generated using pymatgen
data_SnH58C16S4(N11O9)2
_symmetry_space_group_name_H-M   'P 1'
_cell_length_a   7.45973900
_cell_length_b   10.77129187
_cell_length_c   16.27149807
_cell_angle_alpha   104.81355599
_cell_angle_beta   91.76679942
_cell_angle_gamma   104.79810289
_symmetry_Int_Tables_number   1
_chemical_formula_structural   SnH58C16S4(N11O9)2
_chemical_formula_sum   'Sn1 H58 C16 S4 N22 O18'
_cell_volume   1215.57180249
_cell_formula_units_Z   1
loop_
 _symmetry_equiv_pos_site_id
 _symmetry_equiv_pos_as_xyz
  1  'x, y, z'
loop_
 _atom_site_type_symbol
 _atom_site_label
 _atom_site_symmetry_multiplicity
 _atom_site_fract_x
 _atom_site_fract_y
 _atom_site_fract_z
 _atom_site_occupancy
  Sn  Sn0  1  0.00000000  0.50000000  0.00000000  1
  H  H0  1  0.29263600  0.27616600  0.48320200  1
  H  H1  1  0.20058500  0.75470100  0.02657600  1
  H  H2  1  0.00773100  0.25235800  0.33762500  1
  H  H3  1  0.70736400  0.72383400  0.51679800  1
  H  H4  1  0.15493100  0.89677100  0.53138700  1
  H  H5  1  0.67577600  0.48811100  0.74896600  1
  H  H6  1  0.38425100  0.95584300  0.83174800  1
  H  H7  1  0.13645700  0.39204500  0.71455000  1
  H  H8  1  0.40349200  0.74313500  0.50972000  1
  H  H9  1  0.88786500  0.94646500  0.41738400  1
  H  H10  1  0.22466100  0.38911400  0.56648000  1
  H  H11  1  0.64588400  0.41002500  0.33096400  1
  H  H12  1  0.35411600  0.58997500  0.66903600  1
  H  H13  1  0.86354300  0.60795500  0.28545000  1
  H  H14  1  0.51934700  0.99145100  0.92836800  1
  H  H15  1  0.81074200  0.59990000  0.64205500  1
  H  H16  1  0.25939400  0.84571700  0.22780400  1
  H  H17  1  0.59650800  0.25686500  0.49028000  1
  H  H18  1  0.96373300  0.97517200  0.92232300  1
  H  H19  1  0.79941500  0.24529900  0.97342400  1
  H  H20  1  0.69031600  0.69003400  0.27536500  1
  H  H21  1  0.39227700  0.30814300  0.19454800  1
  H  H22  1  0.18925800  0.40010000  0.35794500  1
  H  H23  1  0.67873900  0.78049700  0.91107000  1
  H  H24  1  0.74060600  0.15428300  0.77219600  1
  H  H25  1  0.25173000  0.30539300  0.93806300  1
  H  H26  1  0.48065300  0.00854900  0.07163200  1
  H  H27  1  0.32422400  0.51188900  0.25103400  1
  H  H28  1  0.32126100  0.21950300  0.08893000  1
  H  H29  1  0.37207900  0.25802900  0.84883100  1
  H  H30  1  0.30381400  0.64851300  0.95028500  1
  H  H31  1  0.29660000  0.74268700  0.69155700  1
  H  H32  1  0.31301600  0.05015900  0.52332700  1
  H  H33  1  0.68698400  0.94984100  0.47667300  1
  H  H34  1  0.70340000  0.25731300  0.30844300  1
  H  H35  1  0.60772300  0.69185700  0.80545200  1
  H  H36  1  0.99226900  0.74764200  0.66237500  1
  H  H37  1  0.11213500  0.05353500  0.58261600  1
  H  H38  1  0.03626700  0.02482800  0.07767700  1
  H  H39  1  0.84506900  0.10322900  0.46861300  1
  H  H40  1  0.69618600  0.35148700  0.04971500  1
  H  H41  1  0.83334500  0.44419900  0.81192600  1
  H  H42  1  0.61574900  0.04415700  0.16825200  1
  H  H43  1  0.65859200  0.33853700  0.93794500  1
  H  H44  1  0.77533900  0.61088600  0.43352000  1
  H  H45  1  0.14874600  0.84647900  0.32425900  1
  H  H46  1  0.16665500  0.55580100  0.18807400  1
  H  H47  1  0.85125400  0.15352100  0.67574100  1
  H  H48  1  0.94516900  0.09415900  0.75710600  1
  H  H49  1  0.76585700  0.36908600  0.57245700  1
  H  H50  1  0.07418400  0.94403900  0.82751600  1
  H  H51  1  0.30968400  0.30996600  0.72463500  1
  H  H52  1  0.34140800  0.66146300  0.06205500  1
  H  H53  1  0.92581600  0.05596100  0.17248400  1
  H  H54  1  0.23414300  0.63091400  0.42754300  1
  H  H55  1  0.05483100  0.90584100  0.24289400  1
  H  H56  1  0.74827000  0.69460700  0.06193700  1
  H  H57  1  0.62792100  0.74197100  0.15116900  1
  C  C0  1  0.82101800  0.64276600  0.16811700  1
  C  C1  1  0.75229700  0.99937600  0.06100800  1
  C  C2  1  0.50240500  0.39488000  0.57913300  1
  C  C3  1  0.24229500  0.66166000  0.01112300  1
  C  C4  1  0.92663900  0.42535600  0.34764800  1
  C  C5  1  0.78029100  0.99771300  0.43635000  1
  C  C6  1  0.81817800  0.10224300  0.72570900  1
  C  C7  1  0.49759500  0.60512000  0.42086700  1
  C  C8  1  0.75770500  0.33834000  0.98887700  1
  C  C9  1  0.74547300  0.60275300  0.87430100  1
  C  C10  1  0.21970900  0.00228700  0.56365000  1
  C  C11  1  0.17898200  0.35723400  0.83188300  1
  C  C12  1  0.24770300  0.00062400  0.93899200  1
  C  C13  1  0.25452700  0.39724700  0.12569900  1
  C  C14  1  0.18182200  0.89775700  0.27429100  1
  C  C15  1  0.07336100  0.57464400  0.65235200  1
  S  S0  1  0.64863200  0.98759600  0.34105700  1
  S  S1  1  0.67810600  0.93645700  0.67799200  1
  S  S2  1  0.35136800  0.01240400  0.65894300  1
  S  S3  1  0.32189400  0.06354300  0.32200800  1
  N  N0  1  0.26191900  0.50372800  0.19185000  1
  N  N1  1  0.91721100  0.02458400  0.10781900  1
  N  N2  1  0.34739900  0.30874800  0.13511500  1
  N  N3  1  0.25470500  0.64142200  0.67662600  1
  N  N4  1  0.36896600  0.66576100  0.45569700  1
  N  N5  1  0.50859800  0.94525600  0.61843100  1
  N  N6  1  0.71636300  0.69117700  0.12200000  1
  N  N7  1  0.08278900  0.97541600  0.89218100  1
  N  N8  1  0.95026300  0.64655400  0.64918700  1
  N  N9  1  0.04973700  0.35344600  0.35081300  1
  N  N10  1  0.65260100  0.69125200  0.86488500  1
  N  N11  1  0.32635600  0.34862700  0.54000600  1
  N  N12  1  0.74529500  0.35857800  0.32337400  1
  N  N13  1  0.67364400  0.65137300  0.45999400  1
  N  N14  1  0.28363700  0.30882300  0.87800000  1
  N  N15  1  0.39955300  0.99331900  0.89635500  1
  N  N16  1  0.78692200  0.64487000  0.24850800  1
  N  N17  1  0.63103400  0.33423900  0.54430300  1
  N  N18  1  0.73808100  0.49627200  0.80815000  1
  N  N19  1  0.60044700  0.00668100  0.10364500  1
  N  N20  1  0.21307800  0.35513000  0.75149200  1
  N  N21  1  0.49140200  0.05474400  0.38156900  1
  O  O0  1  0.73947900  0.96624300  0.97954300  1
  O  O1  1  0.02029200  0.44713200  0.63324900  1
  O  O2  1  0.95330100  0.59539800  0.13585600  1
  O  O3  1  0.22934600  0.93223100  0.70714800  1
  O  O4  1  0.16608600  0.37937600  0.05241600  1
  O  O5  1  0.04669900  0.40460200  0.86414400  1
  O  O6  1  0.38263300  0.12217900  0.25246700  1
  O  O7  1  0.42542100  0.15346800  0.70637200  1
  O  O8  1  0.20961600  0.13035900  0.38066800  1
  O  O9  1  0.83391400  0.62062400  0.94758400  1
  O  O10  1  0.77065400  0.06776900  0.29285200  1
  O  O11  1  0.57457900  0.84653200  0.29362800  1
  O  O12  1  0.54597600  0.49184100  0.64699500  1
  O  O13  1  0.97970800  0.55286800  0.36675100  1
  O  O14  1  0.79038400  0.86964100  0.61933200  1
  O  O15  1  0.45402400  0.50815900  0.35300500  1
  O  O16  1  0.26052100  0.03375700  0.02045700  1
  O  O17  1  0.61736700  0.87782100  0.74753300  1
loop_
_geom_bond_atom_site_label_1
_geom_bond_atom_site_label_2
_geom_bond_distance
_geom_bond_site_symmetry_2
H0 N11 1.021392 1_555
H0 O8 1.932144 1_555
H2 N9 1.015831 1_555
H3 N13 1.021392 1_555
H3 O14 1.932144 1_555
H5 N18 1.029263 1_555
H6 N15 1.016453 1_555
H7 N20 1.031140 1_555
H8 N4 1.017544 1_555
H10 N11 1.021927 1_555
H11 N12 1.026085 1_555
H12 N3 1.026085 1_555
H13 N16 1.031140 1_555
H14 N15 1.027696 1_555
H15 N8 1.022154 1_555
H17 N17 1.017544 1_555
H18 N7 1.027448 1_655
H20 N16 1.018220 1_555
H20 O11 2.044104 1_555
H21 N2 1.015729 1_555
H22 N9 1.022154 1_555
H23 N10 1.025989 1_555
H25 N14 1.020528 1_555
H26 N19 1.027696 1_555
H27 N0 1.029263 1_555
H28 N2 1.025989 1_555
H29 N14 1.015280 1_555
H31 N3 1.015933 1_555
H34 N12 1.015933 1_555
H35 N10 1.015729 1_555
H36 N8 1.015831 1_555
H38 N1 1.027448 1_455
H41 N18 1.020753 1_555
H42 N19 1.016453 1_555
H44 N13 1.021927 1_555
H46 N0 1.020753 1_555
H49 N17 1.026204 1_555
H50 N7 1.014087 1_555
H51 N20 1.018220 1_555
H51 O7 2.044104 1_555
H53 N1 1.014087 1_555
H54 N4 1.026204 1_555
H56 N6 1.020528 1_555
H57 N6 1.015280 1_555
C0 O2 1.289116 1_555
C0 N16 1.335884 1_555
C0 N6 1.347741 1_555
C1 O0 1.275328 1_554
C1 N1 1.353939 1_565
C1 N19 1.355260 1_565
C2 O12 1.276893 1_555
C2 N11 1.352873 1_555
C2 N17 1.353867 1_555
C3 H52 1.094249 1_555
C3 H1 1.095281 1_555
C3 H30 1.095508 1_554
C3 Sn0 2.131358 1_555
C4 O13 1.279105 1_555
C4 N9 1.351537 1_655
C4 N12 1.352077 1_555
C5 H9 1.094695 1_555
C5 H33 1.094840 1_555
C5 H39 1.095236 1_565
C5 S0 1.773622 1_555
C6 H24 1.094117 1_555
C6 H47 1.095168 1_555
C6 H48 1.095916 1_555
C6 S1 1.780820 1_545
C7 O15 1.276893 1_555
C7 N13 1.352873 1_555
C7 N4 1.353867 1_555
C8 H43 1.094249 1_555
C8 H19 1.095281 1_555
C8 H40 1.095508 1_556
C8 Sn0 2.131358 1_656
C9 O9 1.289744 1_555
C9 N18 1.345305 1_555
C9 N10 1.348193 1_555
C10 H37 1.094695 1_555
C10 H32 1.094840 1_555
C10 H4 1.095236 1_545
C10 S2 1.773622 1_555
C11 O5 1.289116 1_555
C11 N20 1.335884 1_555
C11 N14 1.347741 1_555
C12 O16 1.275328 1_556
C12 N7 1.353939 1_545
C12 N15 1.355260 1_545
C13 O4 1.289744 1_555
C13 N0 1.345305 1_555
C13 N2 1.348193 1_555
C14 H16 1.094117 1_555
C14 H45 1.095168 1_555
C14 H55 1.095916 1_555
C14 S3 1.780820 1_565
C15 O1 1.279105 1_555
C15 N8 1.351537 1_455
C15 N3 1.352077 1_555
N5 S2 1.603296 1_565
N5 S1 1.606167 1_555
N21 S0 1.603296 1_545
N21 S3 1.606167 1_555
O2 Sn0 2.265549 1_655
O3 S2 1.475936 1_565
O4 Sn0 2.296593 1_555
O5 Sn0 2.265549 1_556
O6 S3 1.461316 1_555
O7 S2 1.467916 1_555
O8 S3 1.461667 1_555
O9 Sn0 2.296593 1_656
O10 S0 1.475936 1_545
O11 S0 1.467916 1_555
O14 S1 1.461667 1_555
O17 S1 1.461316 1_555
