# generated using pymatgen
data_Ba6Na2Nb2P2O17
_symmetry_space_group_name_H-M   'P 1'
_cell_length_a   5.85038468
_cell_length_b   5.85038468
_cell_length_c   14.63175817
_cell_angle_alpha   90.00000000
_cell_angle_beta   90.00000000
_cell_angle_gamma   120.00000637
_symmetry_Int_Tables_number   1
_chemical_formula_structural   Ba6Na2Nb2P2O17
_chemical_formula_sum   'Ba6 Na2 Nb2 P2 O17'
_cell_volume   433.70653417
_cell_formula_units_Z   1
loop_
 _symmetry_equiv_pos_site_id
 _symmetry_equiv_pos_as_xyz
  1  'x, y, z'
loop_
 _atom_site_type_symbol
 _atom_site_label
 _atom_site_symmetry_multiplicity
 _atom_site_fract_x
 _atom_site_fract_y
 _atom_site_fract_z
 _atom_site_occupancy
  Ba  Ba0  1  0.66666700  0.33333300  0.65783687  1
  Ba  Ba1  1  0.33333300  0.66666700  0.34216313  1
  Ba  Ba2  1  0.66666700  0.33333300  0.18017682  1
  Ba  Ba3  1  0.33333300  0.66666700  0.81982318  1
  Ba  Ba4  1  0.00000000  -0.00000000  -0.00000000  1
  Ba  Ba5  1  0.00000000  -0.00000000  0.50000000  1
  Na  Na0  1  0.00000000  -0.00000000  0.75450402  1
  Na  Na1  1  0.00000000  -0.00000000  0.24549598  1
  Nb  Nb0  1  0.33333300  0.66666700  0.58818597  1
  Nb  Nb1  1  0.66666700  0.33333300  0.41181403  1
  P  P0  1  0.33333300  0.66666700  0.10501521  1
  P  P1  1  0.66666700  0.33333300  0.89498479  1
  O  O0  1  0.17560650  0.35121300  0.66159790  1
  O  O1  1  0.81007391  0.18992609  0.85700007  1
  O  O2  1  0.50000000  -0.00000000  0.50000000  1
  O  O3  1  0.64878700  0.82439350  0.66159790  1
  O  O4  1  0.18992609  0.37985219  0.14299993  1
  O  O5  1  0.33333300  0.66666700  0.00082060  1
  O  O6  1  0.82439350  0.64878700  0.33840210  1
  O  O7  1  0.82439350  0.17560650  0.33840210  1
  O  O8  1  0.62014781  0.81007391  0.14299993  1
  O  O9  1  0.66666700  0.33333300  -0.00082060  1
  O  O10  1  0.81007391  0.62014781  0.85700007  1
  O  O11  1  0.37985219  0.18992609  0.85700007  1
  O  O12  1  0.18992609  0.81007391  0.14299993  1
  O  O13  1  0.00000000  0.50000000  0.50000000  1
  O  O14  1  0.17560650  0.82439350  0.66159790  1
  O  O15  1  0.35121300  0.17560650  0.33840210  1
  O  O16  1  0.50000000  0.50000000  0.50000000  1
loop_
_geom_bond_atom_site_label_1
_geom_bond_atom_site_label_2
_geom_bond_distance
_geom_bond_site_symmetry_2
Ba0 O2 2.861069 1_555
Ba0 O13 2.861069 1_655
Ba0 O16 2.861072 1_555
Ba0 O3 2.927109 1_545
Ba0 O0 2.927109 1_655
Ba0 O14 2.927112 1_545
Ba0 O14 2.927112 1_655
Ba0 O3 2.927115 1_555
Ba0 O0 2.927115 1_555
Ba0 O1 3.256335 1_555
Ba0 O10 3.256337 1_555
Ba0 O11 3.256337 1_555
Ba1 O2 2.861069 1_565
Ba1 O13 2.861069 1_555
Ba1 O16 2.861072 1_555
Ba1 O6 2.927109 1_455
Ba1 O15 2.927109 1_565
Ba1 O7 2.927112 1_455
Ba1 O7 2.927112 1_565
Ba1 O6 2.927115 1_555
Ba1 O15 2.927115 1_555
Ba1 O12 3.256335 1_555
Ba1 O4 3.256337 1_555
Ba1 O8 3.256337 1_555
Ba2 O9 2.648310 1_555
Ba2 O7 2.813221 1_555
Ba2 O15 2.813224 1_555
Ba2 O6 2.813224 1_555
Ba2 O8 2.984657 1_545
Ba2 O4 2.984657 1_655
Ba2 O12 2.984660 1_545
Ba2 O12 2.984660 1_655
Ba2 O4 2.984663 1_555
Ba2 O8 2.984663 1_555
Ba3 O5 2.648310 1_556
Ba3 O14 2.813221 1_555
Ba3 O3 2.813224 1_555
Ba3 O0 2.813224 1_555
Ba3 O11 2.984657 1_565
Ba3 O10 2.984657 1_455
Ba3 O1 2.984660 1_565
Ba3 O1 2.984660 1_455
Ba3 O11 2.984663 1_555
Ba3 O10 2.984663 1_555
Ba4 O10 2.842849 1_444
Ba4 O11 2.842849 1_554
Ba4 O4 2.842849 1_555
Ba4 O8 2.842849 1_445
Ba4 O12 2.842849 1_545
Ba4 O1 2.842849 1_454
Ba4 O9 3.377739 1_455
Ba4 O5 3.377739 1_545
Ba4 O9 3.377744 1_555
Ba4 O9 3.377744 1_445
Ba4 O5 3.377744 1_555
Ba4 O5 3.377744 1_445
Ba5 O16 2.925192 1_445
Ba5 O16 2.925192 1_555
Ba5 O2 2.925192 1_455
Ba5 O13 2.925192 1_545
Ba5 O2 2.925192 1_555
Ba5 O13 2.925192 1_555
Ba5 O3 2.959243 1_445
Ba5 O0 2.959243 1_555
Ba5 O15 2.959243 1_555
Ba5 O6 2.959243 1_445
Ba5 O14 2.959243 1_545
Ba5 O7 2.959243 1_455
Na0 O0 2.239275 1_555
Na0 O3 2.239275 1_445
Na0 O14 2.239275 1_545
Na0 O10 2.439876 1_445
Na0 O11 2.439876 1_555
Na0 O1 2.439876 1_455
Na1 O6 2.239275 1_445
Na1 O15 2.239275 1_555
Na1 O7 2.239275 1_455
Na1 O4 2.439876 1_555
Na1 O8 2.439876 1_445
Na1 O12 2.439876 1_545
Nb0 O14 1.925682 1_555
Nb0 O3 1.925686 1_555
Nb0 O0 1.925686 1_555
Nb0 O2 2.125361 1_565
Nb0 O13 2.125361 1_555
Nb0 O16 2.125365 1_555
Nb1 O7 1.925682 1_555
Nb1 O6 1.925686 1_555
Nb1 O15 1.925686 1_555
Nb1 O13 2.125361 1_655
Nb1 O2 2.125361 1_555
Nb1 O16 2.125365 1_555
O1 P1 1.555823 1_555
O4 P0 1.555828 1_555
O5 P0 1.524550 1_555
O8 P0 1.555828 1_555
O9 P1 1.524550 1_554
O10 P1 1.555828 1_555
O11 P1 1.555828 1_555
O12 P0 1.555823 1_555
