# generated using pymatgen
data_Ta2NiSe7
_symmetry_space_group_name_H-M   'P 1'
_cell_length_a   15.09820309
_cell_length_b   15.09820309
_cell_length_c   37.29904676
_cell_angle_alpha   72.72597029
_cell_angle_beta   72.72597029
_cell_angle_gamma   26.92481236
_symmetry_Int_Tables_number   1
_chemical_formula_structural   Ta2NiSe7
_chemical_formula_sum   'Ta32 Ni16 Se112'
_cell_volume   3666.26515017
_cell_formula_units_Z   16
loop_
 _symmetry_equiv_pos_site_id
 _symmetry_equiv_pos_as_xyz
  1  'x, y, z'
loop_
 _atom_site_type_symbol
 _atom_site_label
 _atom_site_symmetry_multiplicity
 _atom_site_fract_x
 _atom_site_fract_y
 _atom_site_fract_z
 _atom_site_occupancy
  Ta  Ta0_0  1  0.42364250  0.42364250  0.20001100  1
  Ta  Ta0_1  1  0.42364250  0.42364250  0.70001100  1
  Ta  Ta0_2  1  0.42364250  0.92364250  0.20001100  1
  Ta  Ta0_3  1  0.42364250  0.92364250  0.70001100  1
  Ta  Ta0_4  1  0.92364250  0.42364250  0.20001100  1
  Ta  Ta0_5  1  0.92364250  0.42364250  0.70001100  1
  Ta  Ta0_6  1  0.92364250  0.92364250  0.20001100  1
  Ta  Ta0_7  1  0.92364250  0.92364250  0.70001100  1
  Ta  Ta1_0  1  0.07635750  0.07635750  0.29998900  1
  Ta  Ta1_1  1  0.07635750  0.07635750  0.79998900  1
  Ta  Ta1_2  1  0.07635750  0.57635750  0.29998900  1
  Ta  Ta1_3  1  0.07635750  0.57635750  0.79998900  1
  Ta  Ta1_4  1  0.57635750  0.07635750  0.29998900  1
  Ta  Ta1_5  1  0.57635750  0.07635750  0.79998900  1
  Ta  Ta1_6  1  0.57635750  0.57635750  0.29998900  1
  Ta  Ta1_7  1  0.57635750  0.57635750  0.79998900  1
  Ta  Ta2_0  1  0.38602000  0.38602000  0.04525950  1
  Ta  Ta2_1  1  0.38602000  0.38602000  0.54525950  1
  Ta  Ta2_2  1  0.38602000  0.88602000  0.04525950  1
  Ta  Ta2_3  1  0.38602000  0.88602000  0.54525950  1
  Ta  Ta2_4  1  0.88602000  0.38602000  0.04525950  1
  Ta  Ta2_5  1  0.88602000  0.38602000  0.54525950  1
  Ta  Ta2_6  1  0.88602000  0.88602000  0.04525950  1
  Ta  Ta2_7  1  0.88602000  0.88602000  0.54525950  1
  Ta  Ta3_0  1  0.11398000  0.11398000  0.45474050  1
  Ta  Ta3_1  1  0.11398000  0.11398000  0.95474050  1
  Ta  Ta3_2  1  0.11398000  0.61398000  0.45474050  1
  Ta  Ta3_3  1  0.11398000  0.61398000  0.95474050  1
  Ta  Ta3_4  1  0.61398000  0.11398000  0.45474050  1
  Ta  Ta3_5  1  0.61398000  0.11398000  0.95474050  1
  Ta  Ta3_6  1  0.61398000  0.61398000  0.45474050  1
  Ta  Ta3_7  1  0.61398000  0.61398000  0.95474050  1
  Ni  Ni0_0  1  0.15510600  0.15510600  0.10455250  1
  Ni  Ni0_1  1  0.15510600  0.15510600  0.60455250  1
  Ni  Ni0_2  1  0.15510600  0.65510600  0.10455250  1
  Ni  Ni0_3  1  0.15510600  0.65510600  0.60455250  1
  Ni  Ni0_4  1  0.65510600  0.15510600  0.10455250  1
  Ni  Ni0_5  1  0.65510600  0.15510600  0.60455250  1
  Ni  Ni0_6  1  0.65510600  0.65510600  0.10455250  1
  Ni  Ni0_7  1  0.65510600  0.65510600  0.60455250  1
  Ni  Ni1_0  1  0.34489400  0.34489400  0.39544750  1
  Ni  Ni1_1  1  0.34489400  0.34489400  0.89544750  1
  Ni  Ni1_2  1  0.34489400  0.84489400  0.39544750  1
  Ni  Ni1_3  1  0.34489400  0.84489400  0.89544750  1
  Ni  Ni1_4  1  0.84489400  0.34489400  0.39544750  1
  Ni  Ni1_5  1  0.84489400  0.34489400  0.89544750  1
  Ni  Ni1_6  1  0.84489400  0.84489400  0.39544750  1
  Ni  Ni1_7  1  0.84489400  0.84489400  0.89544750  1
  Se  Se0_0  1  0.32039950  0.32039950  0.00592650  1
  Se  Se0_1  1  0.32039950  0.32039950  0.50592650  1
  Se  Se0_2  1  0.32039950  0.82039950  0.00592650  1
  Se  Se0_3  1  0.32039950  0.82039950  0.50592650  1
  Se  Se0_4  1  0.82039950  0.32039950  0.00592650  1
  Se  Se0_5  1  0.82039950  0.32039950  0.50592650  1
  Se  Se0_6  1  0.82039950  0.82039950  0.00592650  1
  Se  Se0_7  1  0.82039950  0.82039950  0.50592650  1
  Se  Se1_0  1  0.17960050  0.17960050  0.49407350  1
  Se  Se1_1  1  0.17960050  0.17960050  0.99407350  1
  Se  Se1_2  1  0.17960050  0.67960050  0.49407350  1
  Se  Se1_3  1  0.17960050  0.67960050  0.99407350  1
  Se  Se1_4  1  0.67960050  0.17960050  0.49407350  1
  Se  Se1_5  1  0.67960050  0.17960050  0.99407350  1
  Se  Se1_6  1  0.67960050  0.67960050  0.49407350  1
  Se  Se1_7  1  0.67960050  0.67960050  0.99407350  1
  Se  Se2_0  1  0.21456450  0.21456450  0.14786350  1
  Se  Se2_1  1  0.21456450  0.21456450  0.64786350  1
  Se  Se2_2  1  0.21456450  0.71456450  0.14786350  1
  Se  Se2_3  1  0.21456450  0.71456450  0.64786350  1
  Se  Se2_4  1  0.71456450  0.21456450  0.14786350  1
  Se  Se2_5  1  0.71456450  0.21456450  0.64786350  1
  Se  Se2_6  1  0.71456450  0.71456450  0.14786350  1
  Se  Se2_7  1  0.71456450  0.71456450  0.64786350  1
  Se  Se3_0  1  0.28543550  0.28543550  0.35213650  1
  Se  Se3_1  1  0.28543550  0.28543550  0.85213650  1
  Se  Se3_2  1  0.28543550  0.78543550  0.35213650  1
  Se  Se3_3  1  0.28543550  0.78543550  0.85213650  1
  Se  Se3_4  1  0.78543550  0.28543550  0.35213650  1
  Se  Se3_5  1  0.78543550  0.28543550  0.85213650  1
  Se  Se3_6  1  0.78543550  0.78543550  0.35213650  1
  Se  Se3_7  1  0.78543550  0.78543550  0.85213650  1
  Se  Se4_0  1  0.45623750  0.45623750  0.06975550  1
  Se  Se4_1  1  0.45623750  0.45623750  0.56975550  1
  Se  Se4_2  1  0.45623750  0.95623750  0.06975550  1
  Se  Se4_3  1  0.45623750  0.95623750  0.56975550  1
  Se  Se4_4  1  0.95623750  0.45623750  0.06975550  1
  Se  Se4_5  1  0.95623750  0.45623750  0.56975550  1
  Se  Se4_6  1  0.95623750  0.95623750  0.06975550  1
  Se  Se4_7  1  0.95623750  0.95623750  0.56975550  1
  Se  Se5_0  1  0.04376250  0.04376250  0.43024450  1
  Se  Se5_1  1  0.04376250  0.04376250  0.93024450  1
  Se  Se5_2  1  0.04376250  0.54376250  0.43024450  1
  Se  Se5_3  1  0.04376250  0.54376250  0.93024450  1
  Se  Se5_4  1  0.54376250  0.04376250  0.43024450  1
  Se  Se5_5  1  0.54376250  0.04376250  0.93024450  1
  Se  Se5_6  1  0.54376250  0.54376250  0.43024450  1
  Se  Se5_7  1  0.54376250  0.54376250  0.93024450  1
  Se  Se6_0  1  0.08050650  0.08050650  0.08642350  1
  Se  Se6_1  1  0.08050650  0.08050650  0.58642350  1
  Se  Se6_2  1  0.08050650  0.58050650  0.08642350  1
  Se  Se6_3  1  0.08050650  0.58050650  0.58642350  1
  Se  Se6_4  1  0.58050650  0.08050650  0.08642350  1
  Se  Se6_5  1  0.58050650  0.08050650  0.58642350  1
  Se  Se6_6  1  0.58050650  0.58050650  0.08642350  1
  Se  Se6_7  1  0.58050650  0.58050650  0.58642350  1
  Se  Se7_0  1  0.41949350  0.41949350  0.41357650  1
  Se  Se7_1  1  0.41949350  0.41949350  0.91357650  1
  Se  Se7_2  1  0.41949350  0.91949350  0.41357650  1
  Se  Se7_3  1  0.41949350  0.91949350  0.91357650  1
  Se  Se7_4  1  0.91949350  0.41949350  0.41357650  1
  Se  Se7_5  1  0.91949350  0.41949350  0.91357650  1
  Se  Se7_6  1  0.91949350  0.91949350  0.41357650  1
  Se  Se7_7  1  0.91949350  0.91949350  0.91357650  1
  Se  Se8_0  1  0.23618450  0.23618450  0.21005150  1
  Se  Se8_1  1  0.23618450  0.23618450  0.71005150  1
  Se  Se8_2  1  0.23618450  0.73618450  0.21005150  1
  Se  Se8_3  1  0.23618450  0.73618450  0.71005150  1
  Se  Se8_4  1  0.73618450  0.23618450  0.21005150  1
  Se  Se8_5  1  0.73618450  0.23618450  0.71005150  1
  Se  Se8_6  1  0.73618450  0.73618450  0.21005150  1
  Se  Se8_7  1  0.73618450  0.73618450  0.71005150  1
  Se  Se9_0  1  0.26381550  0.26381550  0.28994850  1
  Se  Se9_1  1  0.26381550  0.26381550  0.78994850  1
  Se  Se9_2  1  0.26381550  0.76381550  0.28994850  1
  Se  Se9_3  1  0.26381550  0.76381550  0.78994850  1
  Se  Se9_4  1  0.76381550  0.26381550  0.28994850  1
  Se  Se9_5  1  0.76381550  0.26381550  0.78994850  1
  Se  Se9_6  1  0.76381550  0.76381550  0.28994850  1
  Se  Se9_7  1  0.76381550  0.76381550  0.78994850  1
  Se  Se10_0  1  0.10251050  0.10251050  0.22211600  1
  Se  Se10_1  1  0.10251050  0.10251050  0.72211600  1
  Se  Se10_2  1  0.10251050  0.60251050  0.22211600  1
  Se  Se10_3  1  0.10251050  0.60251050  0.72211600  1
  Se  Se10_4  1  0.60251050  0.10251050  0.22211600  1
  Se  Se10_5  1  0.60251050  0.10251050  0.72211600  1
  Se  Se10_6  1  0.60251050  0.60251050  0.22211600  1
  Se  Se10_7  1  0.60251050  0.60251050  0.72211600  1
  Se  Se11_0  1  0.39748950  0.39748950  0.27788400  1
  Se  Se11_1  1  0.39748950  0.39748950  0.77788400  1
  Se  Se11_2  1  0.39748950  0.89748950  0.27788400  1
  Se  Se11_3  1  0.39748950  0.89748950  0.77788400  1
  Se  Se11_4  1  0.89748950  0.39748950  0.27788400  1
  Se  Se11_5  1  0.89748950  0.39748950  0.77788400  1
  Se  Se11_6  1  0.89748950  0.89748950  0.27788400  1
  Se  Se11_7  1  0.89748950  0.89748950  0.77788400  1
  Se  Se12_0  1  0.37225850  0.37225850  0.14953650  1
  Se  Se12_1  1  0.37225850  0.37225850  0.64953650  1
  Se  Se12_2  1  0.37225850  0.87225850  0.14953650  1
  Se  Se12_3  1  0.37225850  0.87225850  0.64953650  1
  Se  Se12_4  1  0.87225850  0.37225850  0.14953650  1
  Se  Se12_5  1  0.87225850  0.37225850  0.64953650  1
  Se  Se12_6  1  0.87225850  0.87225850  0.14953650  1
  Se  Se12_7  1  0.87225850  0.87225850  0.64953650  1
  Se  Se13_0  1  0.12774150  0.12774150  0.35046350  1
  Se  Se13_1  1  0.12774150  0.12774150  0.85046350  1
  Se  Se13_2  1  0.12774150  0.62774150  0.35046350  1
  Se  Se13_3  1  0.12774150  0.62774150  0.85046350  1
  Se  Se13_4  1  0.62774150  0.12774150  0.35046350  1
  Se  Se13_5  1  0.62774150  0.12774150  0.85046350  1
  Se  Se13_6  1  0.62774150  0.62774150  0.35046350  1
  Se  Se13_7  1  0.62774150  0.62774150  0.85046350  1
loop_
_geom_bond_atom_site_label_1
_geom_bond_atom_site_label_2
_geom_bond_distance
_geom_bond_site_symmetry_2
Ni0_0 Se4_2 2.416170 1_545
Ni0_0 Se4_4 2.416170 1_455
Ni0_0 Se12_4 2.417873 1_455
Ni0_0 Se12_2 2.417873 1_545
Ni0_0 Se6_0 2.482177 1_555
Ni0_0 Se2_0 2.716818 1_555
Ni0_0 Ta2_4 3.008475 1_455
Ni0_0 Ta2_2 3.008475 1_545
Ni0_1 Se4_3 2.416170 1_545
Ni0_1 Se4_5 2.416170 1_455
Ni0_1 Se12_5 2.417873 1_455
Ni0_1 Se12_3 2.417873 1_545
Ni0_1 Se6_1 2.482177 1_555
Ni0_1 Se2_1 2.716818 1_555
Ni0_1 Ta2_3 3.008475 1_545
Ni0_1 Ta2_5 3.008475 1_455
Ni0_2 Se4_0 2.416170 1_555
Ni0_2 Se4_6 2.416170 1_455
Ni0_2 Se12_6 2.417873 1_455
Ni0_2 Se12_0 2.417873 1_555
Ni0_2 Se6_2 2.482177 1_555
Ni0_2 Se2_2 2.716818 1_555
Ni0_2 Ta2_0 3.008475 1_555
Ni0_2 Ta2_6 3.008475 1_455
Ni0_3 Se4_1 2.416170 1_555
Ni0_3 Se4_7 2.416170 1_455
Ni0_3 Se12_7 2.417873 1_455
Ni0_3 Se12_1 2.417873 1_555
Ni0_3 Se6_3 2.482177 1_555
Ni0_3 Se2_3 2.716818 1_555
Ni0_3 Ta2_1 3.008475 1_555
Ni0_3 Ta2_7 3.008475 1_455
Ni0_4 Se4_0 2.416170 1_555
Ni0_4 Se4_6 2.416170 1_545
Ni0_4 Se12_6 2.417873 1_545
Ni0_4 Se12_0 2.417873 1_555
Ni0_4 Se6_4 2.482177 1_555
Ni0_4 Se2_4 2.716818 1_555
Ni0_4 Ta2_0 3.008475 1_555
Ni0_4 Ta2_6 3.008475 1_545
Ni0_5 Se4_1 2.416170 1_555
Ni0_5 Se4_7 2.416170 1_545
Ni0_5 Se12_7 2.417873 1_545
Ni0_5 Se12_1 2.417873 1_555
Ni0_5 Se6_5 2.482177 1_555
Ni0_5 Se2_5 2.716818 1_555
Ni0_5 Ta2_1 3.008475 1_555
Ni0_5 Ta2_7 3.008475 1_545
Ni0_6 Se4_2 2.416170 1_555
Ni0_6 Se4_4 2.416170 1_555
Ni0_6 Se12_4 2.417873 1_555
Ni0_6 Se12_2 2.417873 1_555
Ni0_6 Se6_6 2.482177 1_555
Ni0_6 Se2_6 2.716818 1_555
Ni0_6 Ta2_4 3.008475 1_555
Ni0_6 Ta2_2 3.008475 1_555
Ni0_7 Se4_3 2.416170 1_555
Ni0_7 Se4_5 2.416170 1_555
Ni0_7 Se12_5 2.417873 1_555
Ni0_7 Se12_3 2.417873 1_555
Ni0_7 Se6_7 2.482177 1_555
Ni0_7 Se2_7 2.716818 1_555
Ni0_7 Ta2_5 3.008475 1_555
Ni0_7 Ta2_3 3.008475 1_555
Ni1_0 Se5_4 2.416170 1_555
Ni1_0 Se5_2 2.416170 1_555
Ni1_0 Se13_2 2.417873 1_555
Ni1_0 Se13_4 2.417873 1_555
Ni1_0 Se7_0 2.482177 1_555
Ni1_0 Se3_0 2.716818 1_555
Ni1_0 Ta3_2 3.008475 1_555
Ni1_0 Ta3_4 3.008475 1_555
Ni1_1 Se5_5 2.416170 1_555
Ni1_1 Se5_3 2.416170 1_555
Ni1_1 Se13_5 2.417873 1_555
Ni1_1 Se13_3 2.417873 1_555
Ni1_1 Se7_1 2.482177 1_555
Ni1_1 Se3_1 2.716818 1_555
Ni1_1 Ta3_3 3.008475 1_555
Ni1_1 Ta3_5 3.008475 1_555
Ni1_2 Se5_6 2.416170 1_555
Ni1_2 Se5_0 2.416170 1_565
Ni1_2 Se13_6 2.417873 1_555
Ni1_2 Se13_0 2.417873 1_565
Ni1_2 Se7_2 2.482177 1_555
Ni1_2 Se3_2 2.716818 1_555
Ni1_2 Ta3_0 3.008475 1_565
Ni1_2 Ta3_6 3.008475 1_555
Ni1_3 Se5_7 2.416170 1_555
Ni1_3 Se5_1 2.416170 1_565
Ni1_3 Se13_1 2.417873 1_565
Ni1_3 Se13_7 2.417873 1_555
Ni1_3 Se7_3 2.482177 1_555
Ni1_3 Se3_3 2.716818 1_555
Ni1_3 Ta3_1 3.008475 1_565
Ni1_3 Ta3_7 3.008475 1_555
Ni1_4 Se5_6 2.416170 1_555
Ni1_4 Se5_0 2.416170 1_655
Ni1_4 Se13_6 2.417873 1_555
Ni1_4 Se13_0 2.417873 1_655
Ni1_4 Se7_4 2.482177 1_555
Ni1_4 Se3_4 2.716818 1_555
Ni1_4 Ta3_0 3.008475 1_655
Ni1_4 Ta3_6 3.008475 1_555
Ni1_5 Se5_7 2.416170 1_555
Ni1_5 Se5_1 2.416170 1_655
Ni1_5 Se13_7 2.417873 1_555
Ni1_5 Se13_1 2.417873 1_655
Ni1_5 Se7_5 2.482177 1_555
Ni1_5 Se3_5 2.716818 1_555
Ni1_5 Ta3_1 3.008475 1_655
Ni1_5 Ta3_7 3.008475 1_555
Ni1_6 Se5_4 2.416170 1_565
Ni1_6 Se5_2 2.416170 1_655
Ni1_6 Se13_4 2.417873 1_565
Ni1_6 Se13_2 2.417873 1_655
Ni1_6 Se7_6 2.482177 1_555
Ni1_6 Se3_6 2.716818 1_555
Ni1_6 Ta3_2 3.008475 1_655
Ni1_6 Ta3_4 3.008475 1_565
Ni1_7 Se5_3 2.416170 1_655
Ni1_7 Se5_5 2.416170 1_565
Ni1_7 Se13_5 2.417873 1_565
Ni1_7 Se13_3 2.417873 1_655
Ni1_7 Se7_7 2.482177 1_555
Ni1_7 Se3_7 2.716818 1_555
Ni1_7 Ta3_3 3.008475 1_655
Ni1_7 Ta3_5 3.008475 1_565
Se0_0 Ta3_3 2.622897 1_554
Se0_0 Ta3_5 2.622897 1_554
Se0_0 Ta2_0 2.755417 1_555
Se0_0 Se0_6 3.514972 1_455
Se0_0 Se0_6 3.514972 1_545
Se0_0 Se6_2 3.568729 1_555
Se0_0 Se6_4 3.568729 1_555
Se0_0 Se5_5 3.608002 1_554
Se0_0 Se5_3 3.608002 1_554
Se0_1 Ta3_2 2.622897 1_555
Se0_1 Ta3_4 2.622897 1_555
Se0_1 Ta2_1 2.755417 1_555
Se0_1 Se0_7 3.514972 1_455
Se0_1 Se0_7 3.514972 1_545
Se0_1 Se6_3 3.568729 1_555
Se0_1 Se6_5 3.568729 1_555
Se0_1 Se5_4 3.608002 1_555
Se0_1 Se5_2 3.608002 1_555
Se0_2 Ta3_1 2.622897 1_564
Se0_2 Ta3_7 2.622897 1_554
Se0_2 Ta2_2 2.755417 1_555
Se0_2 Se0_4 3.514972 1_555
Se0_2 Se0_4 3.514972 1_465
Se0_2 Se6_6 3.568729 1_555
Se0_2 Se6_0 3.568729 1_565
Se0_2 Se5_7 3.608002 1_554
Se0_2 Se5_1 3.608002 1_564
Se0_3 Ta3_6 2.622897 1_555
Se0_3 Ta3_0 2.622897 1_565
Se0_3 Ta2_3 2.755417 1_555
Se0_3 Se0_5 3.514972 1_555
Se0_3 Se0_5 3.514972 1_465
Se0_3 Se6_7 3.568729 1_555
Se0_3 Se6_1 3.568729 1_565
Se0_3 Se5_6 3.608002 1_555
Se0_3 Se5_0 3.608002 1_565
Se0_4 Ta3_1 2.622897 1_654
Se0_4 Ta3_7 2.622897 1_554
Se0_4 Ta2_4 2.755417 1_555
Se0_4 Se6_6 3.568729 1_555
Se0_4 Se6_0 3.568729 1_655
Se0_4 Se5_7 3.608002 1_554
Se0_4 Se5_1 3.608002 1_654
Se0_5 Ta3_0 2.622897 1_655
Se0_5 Ta3_6 2.622897 1_555
Se0_5 Ta2_5 2.755417 1_555
Se0_5 Se6_7 3.568729 1_555
Se0_5 Se6_1 3.568729 1_655
Se0_5 Se5_6 3.608002 1_555
Se0_5 Se5_0 3.608002 1_655
Se0_6 Ta3_5 2.622897 1_564
Se0_6 Ta3_3 2.622897 1_654
Se0_6 Ta2_6 2.755417 1_555
Se0_6 Se6_4 3.568729 1_565
Se0_6 Se6_2 3.568729 1_655
Se0_6 Se5_3 3.608002 1_654
Se0_6 Se5_5 3.608002 1_564
Se0_7 Ta3_2 2.622897 1_655
Se0_7 Ta3_4 2.622897 1_565
Se0_7 Ta2_7 2.755417 1_555
Se0_7 Se6_3 3.568729 1_655
Se0_7 Se6_5 3.568729 1_565
Se0_7 Se5_4 3.608002 1_565
Se0_7 Se5_2 3.608002 1_655
Se1_0 Ta2_5 2.622897 1_455
Se1_0 Ta2_3 2.622897 1_545
Se1_0 Ta3_0 2.755417 1_555
Se1_0 Se1_6 3.514972 1_455
Se1_0 Se1_6 3.514972 1_545
Se1_0 Se7_4 3.568729 1_455
Se1_0 Se7_2 3.568729 1_545
Se1_0 Se4_5 3.608002 1_455
Se1_0 Se4_3 3.608002 1_545
Se1_1 Ta2_4 2.622897 1_456
Se1_1 Ta2_2 2.622897 1_546
Se1_1 Ta3_1 2.755417 1_555
Se1_1 Se1_7 3.514972 1_455
Se1_1 Se1_7 3.514972 1_545
Se1_1 Se7_3 3.568729 1_545
Se1_1 Se7_5 3.568729 1_455
Se1_1 Se4_2 3.608002 1_546
Se1_1 Se4_4 3.608002 1_456
Se1_2 Ta2_1 2.622897 1_555
Se1_2 Ta2_7 2.622897 1_455
Se1_2 Ta3_2 2.755417 1_555
Se1_2 Se1_4 3.514972 1_555
Se1_2 Se1_4 3.514972 1_465
Se1_2 Se7_0 3.568729 1_555
Se1_2 Se7_6 3.568729 1_455
Se1_2 Se4_1 3.608002 1_555
Se1_2 Se4_7 3.608002 1_455
Se1_3 Ta2_0 2.622897 1_556
Se1_3 Ta2_6 2.622897 1_456
Se1_3 Ta3_3 2.755417 1_555
Se1_3 Se1_5 3.514972 1_555
Se1_3 Se1_5 3.514972 1_465
Se1_3 Se7_1 3.568729 1_555
Se1_3 Se7_7 3.568729 1_455
Se1_3 Se4_0 3.608002 1_556
Se1_3 Se4_6 3.608002 1_456
Se1_4 Ta2_7 2.622897 1_545
Se1_4 Ta2_1 2.622897 1_555
Se1_4 Ta3_4 2.755417 1_555
Se1_4 Se7_0 3.568729 1_555
Se1_4 Se7_6 3.568729 1_545
Se1_4 Se4_1 3.608002 1_555
Se1_4 Se4_7 3.608002 1_545
Se1_5 Ta2_0 2.622897 1_556
Se1_5 Ta2_6 2.622897 1_546
Se1_5 Ta3_5 2.755417 1_555
Se1_5 Se7_1 3.568729 1_555
Se1_5 Se7_7 3.568729 1_545
Se1_5 Se4_0 3.608002 1_556
Se1_5 Se4_6 3.608002 1_546
Se1_6 Ta2_5 2.622897 1_555
Se1_6 Ta2_3 2.622897 1_555
Se1_6 Ta3_6 2.755417 1_555
Se1_6 Se7_2 3.568729 1_555
Se1_6 Se7_4 3.568729 1_555
Se1_6 Se4_5 3.608002 1_555
Se1_6 Se4_3 3.608002 1_555
Se1_7 Ta2_4 2.622897 1_556
Se1_7 Ta2_2 2.622897 1_556
Se1_7 Ta3_7 2.755417 1_555
Se1_7 Se7_3 3.568729 1_555
Se1_7 Se7_5 3.568729 1_555
Se1_7 Se4_2 3.608002 1_556
Se1_7 Se4_4 3.608002 1_556
Se2_0 Se8_0 2.585104 1_555
Se2_0 Ta0_4 2.624648 1_455
Se2_0 Ta0_2 2.624648 1_545
Se2_0 Se4_4 3.474368 1_455
Se2_0 Se4_2 3.474368 1_545
Se2_0 Se2_6 3.514972 1_545
Se2_0 Se2_6 3.514972 1_455
Se2_1 Se8_1 2.585104 1_555
Se2_1 Ta0_5 2.624648 1_455
Se2_1 Ta0_3 2.624648 1_545
Se2_1 Se4_5 3.474368 1_455
Se2_1 Se4_3 3.474368 1_545
Se2_1 Se2_7 3.514972 1_455
Se2_1 Se2_7 3.514972 1_545
Se2_2 Se8_2 2.585104 1_555
Se2_2 Ta0_0 2.624648 1_555
Se2_2 Ta0_6 2.624648 1_455
Se2_2 Se4_6 3.474368 1_455
Se2_2 Se4_0 3.474368 1_555
Se2_2 Se2_4 3.514972 1_555
Se2_2 Se2_4 3.514972 1_465
Se2_3 Se8_3 2.585104 1_555
Se2_3 Ta0_1 2.624648 1_555
Se2_3 Ta0_7 2.624648 1_455
Se2_3 Se4_1 3.474368 1_555
Se2_3 Se4_7 3.474368 1_455
Se2_3 Se2_5 3.514972 1_555
Se2_3 Se2_5 3.514972 1_465
Se2_4 Se8_4 2.585104 1_555
Se2_4 Ta0_0 2.624648 1_555
Se2_4 Ta0_6 2.624648 1_545
Se2_4 Se4_6 3.474368 1_545
Se2_4 Se4_0 3.474368 1_555
Se2_5 Se8_5 2.585104 1_555
Se2_5 Ta0_1 2.624648 1_555
Se2_5 Ta0_7 2.624648 1_545
Se2_5 Se4_7 3.474368 1_545
Se2_5 Se4_1 3.474368 1_555
Se2_6 Se8_6 2.585104 1_555
Se2_6 Ta0_4 2.624648 1_555
Se2_6 Ta0_2 2.624648 1_555
Se2_6 Se4_4 3.474368 1_555
Se2_6 Se4_2 3.474368 1_555
Se2_7 Se8_7 2.585104 1_555
Se2_7 Ta0_5 2.624648 1_555
Se2_7 Ta0_3 2.624648 1_555
Se2_7 Se4_5 3.474368 1_555
Se2_7 Se4_3 3.474368 1_555
Se3_0 Se9_0 2.585104 1_555
Se3_0 Ta1_2 2.624648 1_555
Se3_0 Ta1_4 2.624648 1_555
Se3_0 Se5_4 3.474368 1_555
Se3_0 Se5_2 3.474368 1_555
Se3_0 Se3_6 3.514972 1_545
Se3_0 Se3_6 3.514972 1_455
Se3_1 Se9_1 2.585104 1_555
Se3_1 Ta1_3 2.624648 1_555
Se3_1 Ta1_5 2.624648 1_555
Se3_1 Se5_3 3.474368 1_555
Se3_1 Se5_5 3.474368 1_555
Se3_1 Se3_7 3.514972 1_455
Se3_1 Se3_7 3.514972 1_545
Se3_2 Se9_2 2.585104 1_555
Se3_2 Ta1_0 2.624648 1_565
Se3_2 Ta1_6 2.624648 1_555
Se3_2 Se5_0 3.474368 1_565
Se3_2 Se5_6 3.474368 1_555
Se3_2 Se3_4 3.514972 1_465
Se3_2 Se3_4 3.514972 1_555
Se3_3 Se9_3 2.585104 1_555
Se3_3 Ta1_7 2.624648 1_555
Se3_3 Ta1_1 2.624648 1_565
Se3_3 Se5_1 3.474368 1_565
Se3_3 Se5_7 3.474368 1_555
Se3_3 Se3_5 3.514972 1_555
Se3_3 Se3_5 3.514972 1_465
Se3_4 Se9_4 2.585104 1_555
Se3_4 Ta1_0 2.624648 1_655
Se3_4 Ta1_6 2.624648 1_555
Se3_4 Se5_0 3.474368 1_655
Se3_4 Se5_6 3.474368 1_555
Se3_5 Se9_5 2.585104 1_555
Se3_5 Ta1_7 2.624648 1_555
Se3_5 Ta1_1 2.624648 1_655
Se3_5 Se5_1 3.474368 1_655
Se3_5 Se5_7 3.474368 1_555
Se3_6 Se9_6 2.585104 1_555
Se3_6 Ta1_4 2.624648 1_565
Se3_6 Ta1_2 2.624648 1_655
Se3_6 Se5_4 3.474368 1_565
Se3_6 Se5_2 3.474368 1_655
Se3_7 Se9_7 2.585104 1_555
Se3_7 Ta1_5 2.624648 1_565
Se3_7 Ta1_3 2.624648 1_655
Se3_7 Se5_5 3.474368 1_565
Se3_7 Se5_3 3.474368 1_655
Se4_0 Ta2_0 2.497480 1_555
Se4_1 Ta2_1 2.497480 1_555
Se4_2 Ta2_2 2.497480 1_555
Se4_3 Ta2_3 2.497480 1_555
Se4_4 Ta2_4 2.497480 1_555
Se4_5 Ta2_5 2.497480 1_555
Se4_6 Ta2_6 2.497480 1_555
Se4_7 Ta2_7 2.497480 1_555
Se5_0 Ta3_0 2.497480 1_555
Se5_1 Ta3_1 2.497480 1_555
Se5_2 Ta3_2 2.497480 1_555
Se5_3 Ta3_3 2.497480 1_555
Se5_4 Ta3_4 2.497480 1_555
Se5_5 Ta3_5 2.497480 1_555
Se5_6 Ta3_6 2.497480 1_555
Se5_7 Ta3_7 2.497480 1_555
Se6_0 Ta2_2 2.564241 1_545
Se6_0 Ta2_4 2.564241 1_455
Se6_1 Ta2_3 2.564241 1_545
Se6_1 Ta2_5 2.564241 1_455
Se6_2 Ta2_6 2.564241 1_455
Se6_2 Ta2_0 2.564241 1_555
Se6_3 Ta2_1 2.564241 1_555
Se6_3 Ta2_7 2.564241 1_455
Se6_4 Ta2_6 2.564241 1_545
Se6_4 Ta2_0 2.564241 1_555
Se6_5 Ta2_7 2.564241 1_545
Se6_5 Ta2_1 2.564241 1_555
Se6_6 Ta2_2 2.564241 1_555
Se6_6 Ta2_4 2.564241 1_555
Se6_7 Ta2_3 2.564241 1_555
Se6_7 Ta2_5 2.564241 1_555
Se7_0 Ta3_4 2.564241 1_555
Se7_0 Ta3_2 2.564241 1_555
Se7_1 Ta3_5 2.564241 1_555
Se7_1 Ta3_3 2.564241 1_555
Se7_2 Ta3_6 2.564241 1_555
Se7_2 Ta3_0 2.564241 1_565
Se7_3 Ta3_7 2.564241 1_555
Se7_3 Ta3_1 2.564241 1_565
Se7_4 Ta3_6 2.564241 1_555
Se7_4 Ta3_0 2.564241 1_655
Se7_5 Ta3_7 2.564241 1_555
Se7_5 Ta3_1 2.564241 1_655
Se7_6 Ta3_4 2.564241 1_565
Se7_6 Ta3_2 2.564241 1_655
Se7_7 Ta3_5 2.564241 1_565
Se7_7 Ta3_3 2.564241 1_655
Se8_0 Ta0_2 2.649968 1_545
Se8_0 Ta0_4 2.649968 1_455
Se8_0 Se9_0 3.319032 1_555
Se8_0 Se8_6 3.514972 1_545
Se8_0 Se8_6 3.514972 1_455
Se8_1 Ta0_3 2.649968 1_545
Se8_1 Ta0_5 2.649968 1_455
Se8_1 Se9_1 3.319032 1_555
Se8_1 Se8_7 3.514972 1_545
Se8_1 Se8_7 3.514972 1_455
Se8_2 Ta0_0 2.649968 1_555
Se8_2 Ta0_6 2.649968 1_455
Se8_2 Se9_2 3.319032 1_555
Se8_2 Se8_4 3.514972 1_555
Se8_2 Se8_4 3.514972 1_465
Se8_3 Ta0_1 2.649968 1_555
Se8_3 Ta0_7 2.649968 1_455
Se8_3 Se9_3 3.319032 1_555
Se8_3 Se8_5 3.514972 1_465
Se8_3 Se8_5 3.514972 1_555
Se8_4 Ta0_0 2.649968 1_555
Se8_4 Ta0_6 2.649968 1_545
Se8_4 Se9_4 3.319032 1_555
Se8_5 Ta0_1 2.649968 1_555
Se8_5 Ta0_7 2.649968 1_545
Se8_5 Se9_5 3.319032 1_555
Se8_6 Ta0_4 2.649968 1_555
Se8_6 Ta0_2 2.649968 1_555
Se8_6 Se9_6 3.319032 1_555
Se8_7 Ta0_5 2.649968 1_555
Se8_7 Ta0_3 2.649968 1_555
Se8_7 Se9_7 3.319032 1_555
Se9_0 Ta1_2 2.649968 1_555
Se9_0 Ta1_4 2.649968 1_555
Se9_0 Se9_6 3.514972 1_455
Se9_0 Se9_6 3.514972 1_545
Se9_1 Ta1_3 2.649968 1_555
Se9_1 Ta1_5 2.649968 1_555
Se9_1 Se9_7 3.514972 1_545
Se9_1 Se9_7 3.514972 1_455
Se9_2 Ta1_0 2.649968 1_565
Se9_2 Ta1_6 2.649968 1_555
Se9_2 Se9_4 3.514972 1_555
Se9_2 Se9_4 3.514972 1_465
Se9_3 Ta1_1 2.649968 1_565
Se9_3 Ta1_7 2.649968 1_555
Se9_3 Se9_5 3.514972 1_555
Se9_3 Se9_5 3.514972 1_465
Se9_4 Ta1_0 2.649968 1_655
Se9_4 Ta1_6 2.649968 1_555
Se9_5 Ta1_1 2.649968 1_655
Se9_5 Ta1_7 2.649968 1_555
Se9_6 Ta1_2 2.649968 1_655
Se9_6 Ta1_4 2.649968 1_565
Se9_7 Ta1_3 2.649968 1_655
Se9_7 Ta1_5 2.649968 1_565
Se10_0 Ta0_4 2.660894 1_455
Se10_0 Ta0_2 2.660894 1_545
Se10_0 Ta1_0 2.768435 1_555
Se10_0 Se12_4 3.129697 1_455
Se10_0 Se12_2 3.129697 1_545
Se10_0 Se11_4 3.292130 1_455
Se10_0 Se11_2 3.292130 1_545
Se10_0 Se9_4 3.500020 1_455
Se10_0 Se9_2 3.500020 1_545
Se10_0 Se10_6 3.514972 1_455
Se10_0 Se10_6 3.514972 1_545
Se10_1 Ta0_3 2.660894 1_545
Se10_1 Ta0_5 2.660894 1_455
Se10_1 Ta1_1 2.768435 1_555
Se10_1 Se12_5 3.129697 1_455
Se10_1 Se12_3 3.129697 1_545
Se10_1 Se11_3 3.292130 1_545
Se10_1 Se11_5 3.292130 1_455
Se10_1 Se9_5 3.500020 1_455
Se10_1 Se9_3 3.500020 1_545
Se10_1 Se10_7 3.514972 1_545
Se10_1 Se10_7 3.514972 1_455
Se10_2 Ta0_6 2.660894 1_455
Se10_2 Ta0_0 2.660894 1_555
Se10_2 Ta1_2 2.768435 1_555
Se10_2 Se12_6 3.129697 1_455
Se10_2 Se12_0 3.129697 1_555
Se10_2 Se11_0 3.292130 1_555
Se10_2 Se11_6 3.292130 1_455
Se10_2 Se9_0 3.500020 1_555
Se10_2 Se9_6 3.500020 1_455
Se10_2 Se10_4 3.514972 1_465
Se10_2 Se10_4 3.514972 1_555
Se10_3 Ta0_7 2.660894 1_455
Se10_3 Ta0_1 2.660894 1_555
Se10_3 Ta1_3 2.768435 1_555
Se10_3 Se12_1 3.129697 1_555
Se10_3 Se12_7 3.129697 1_455
Se10_3 Se11_7 3.292130 1_455
Se10_3 Se11_1 3.292130 1_555
Se10_3 Se9_7 3.500020 1_455
Se10_3 Se9_1 3.500020 1_555
Se10_3 Se10_5 3.514972 1_465
Se10_3 Se10_5 3.514972 1_555
Se10_4 Ta0_6 2.660894 1_545
Se10_4 Ta0_0 2.660894 1_555
Se10_4 Ta1_4 2.768435 1_555
Se10_4 Se12_0 3.129697 1_555
Se10_4 Se12_6 3.129697 1_545
Se10_4 Se11_0 3.292130 1_555
Se10_4 Se11_6 3.292130 1_545
Se10_4 Se9_0 3.500020 1_555
Se10_4 Se9_6 3.500020 1_545
Se10_5 Ta0_7 2.660894 1_545
Se10_5 Ta0_1 2.660894 1_555
Se10_5 Ta1_5 2.768435 1_555
Se10_5 Se12_1 3.129697 1_555
Se10_5 Se12_7 3.129697 1_545
Se10_5 Se11_1 3.292130 1_555
Se10_5 Se11_7 3.292130 1_545
Se10_5 Se9_1 3.500020 1_555
Se10_5 Se9_7 3.500020 1_545
Se10_6 Ta0_4 2.660894 1_555
Se10_6 Ta0_2 2.660894 1_555
Se10_6 Ta1_6 2.768435 1_555
Se10_6 Se12_4 3.129697 1_555
Se10_6 Se12_2 3.129697 1_555
Se10_6 Se11_4 3.292130 1_555
Se10_6 Se11_2 3.292130 1_555
Se10_6 Se9_4 3.500020 1_555
Se10_6 Se9_2 3.500020 1_555
Se10_7 Ta0_5 2.660894 1_555
Se10_7 Ta0_3 2.660894 1_555
Se10_7 Ta1_7 2.768435 1_555
Se10_7 Se12_3 3.129697 1_555
Se10_7 Se12_5 3.129697 1_555
Se10_7 Se11_5 3.292130 1_555
Se10_7 Se11_3 3.292130 1_555
Se10_7 Se9_5 3.500020 1_555
Se10_7 Se9_3 3.500020 1_555
Se11_0 Ta1_4 2.660894 1_555
Se11_0 Ta1_2 2.660894 1_555
Se11_0 Ta0_0 2.768435 1_555
Se11_0 Se13_2 3.129697 1_555
Se11_0 Se13_4 3.129697 1_555
Se11_0 Se8_2 3.500020 1_555
Se11_0 Se8_4 3.500020 1_555
Se11_0 Se11_6 3.514972 1_455
Se11_0 Se11_6 3.514972 1_545
Se11_1 Ta1_5 2.660894 1_555
Se11_1 Ta1_3 2.660894 1_555
Se11_1 Ta0_1 2.768435 1_555
Se11_1 Se13_5 3.129697 1_555
Se11_1 Se13_3 3.129697 1_555
Se11_1 Se8_3 3.500020 1_555
Se11_1 Se8_5 3.500020 1_555
Se11_1 Se11_7 3.514972 1_545
Se11_1 Se11_7 3.514972 1_455
Se11_2 Ta1_6 2.660894 1_555
Se11_2 Ta1_0 2.660894 1_565
Se11_2 Ta0_2 2.768435 1_555
Se11_2 Se13_6 3.129697 1_555
Se11_2 Se13_0 3.129697 1_565
Se11_2 Se8_6 3.500020 1_555
Se11_2 Se8_0 3.500020 1_565
Se11_2 Se11_4 3.514972 1_555
Se11_2 Se11_4 3.514972 1_465
Se11_3 Ta1_7 2.660894 1_555
Se11_3 Ta1_1 2.660894 1_565
Se11_3 Ta0_3 2.768435 1_555
Se11_3 Se13_7 3.129697 1_555
Se11_3 Se13_1 3.129697 1_565
Se11_3 Se8_1 3.500020 1_565
Se11_3 Se8_7 3.500020 1_555
Se11_3 Se11_5 3.514972 1_555
Se11_3 Se11_5 3.514972 1_465
Se11_4 Ta1_6 2.660894 1_555
Se11_4 Ta1_0 2.660894 1_655
Se11_4 Ta0_4 2.768435 1_555
Se11_4 Se13_6 3.129697 1_555
Se11_4 Se13_0 3.129697 1_655
Se11_4 Se8_6 3.500020 1_555
Se11_4 Se8_0 3.500020 1_655
Se11_5 Ta1_7 2.660894 1_555
Se11_5 Ta1_1 2.660894 1_655
Se11_5 Ta0_5 2.768435 1_555
Se11_5 Se13_7 3.129697 1_555
Se11_5 Se13_1 3.129697 1_655
Se11_5 Se8_7 3.500020 1_555
Se11_5 Se8_1 3.500020 1_655
Se11_6 Ta1_4 2.660894 1_565
Se11_6 Ta1_2 2.660894 1_655
Se11_6 Ta0_6 2.768435 1_555
Se11_6 Se13_2 3.129697 1_655
Se11_6 Se13_4 3.129697 1_565
Se11_6 Se8_2 3.500020 1_655
Se11_6 Se8_4 3.500020 1_565
Se11_7 Ta1_5 2.660894 1_565
Se11_7 Ta1_3 2.660894 1_655
Se11_7 Ta0_7 2.768435 1_555
Se11_7 Se13_3 3.129697 1_655
Se11_7 Se13_5 3.129697 1_565
Se11_7 Se8_5 3.500020 1_565
Se11_7 Se8_3 3.500020 1_655
Se12_0 Ta0_0 2.748856 1_555
Se12_0 Se2_2 3.215178 1_555
Se12_0 Se2_4 3.215178 1_555
Se12_0 Se6_4 3.449099 1_555
Se12_0 Se6_2 3.449099 1_555
Se12_1 Ta0_1 2.748856 1_555
Se12_1 Se2_3 3.215178 1_555
Se12_1 Se2_5 3.215178 1_555
Se12_1 Se6_5 3.449099 1_555
Se12_1 Se6_3 3.449099 1_555
Se12_2 Ta0_2 2.748856 1_555
Se12_2 Se2_0 3.215178 1_565
Se12_2 Se2_6 3.215178 1_555
Se12_2 Se6_0 3.449099 1_565
Se12_2 Se6_6 3.449099 1_555
Se12_3 Ta0_3 2.748856 1_555
Se12_3 Se2_1 3.215178 1_565
Se12_3 Se2_7 3.215178 1_555
Se12_3 Se6_7 3.449099 1_555
Se12_3 Se6_1 3.449099 1_565
Se12_4 Ta0_4 2.748856 1_555
Se12_4 Se2_0 3.215178 1_655
Se12_4 Se2_6 3.215178 1_555
Se12_4 Se6_0 3.449099 1_655
Se12_4 Se6_6 3.449099 1_555
Se12_5 Ta0_5 2.748856 1_555
Se12_5 Se2_1 3.215178 1_655
Se12_5 Se2_7 3.215178 1_555
Se12_5 Se6_7 3.449099 1_555
Se12_5 Se6_1 3.449099 1_655
Se12_6 Ta0_6 2.748856 1_555
Se12_6 Se2_2 3.215178 1_655
Se12_6 Se2_4 3.215178 1_565
Se12_6 Se6_4 3.449099 1_565
Se12_6 Se6_2 3.449099 1_655
Se12_7 Ta0_7 2.748856 1_555
Se12_7 Se2_3 3.215178 1_655
Se12_7 Se2_5 3.215178 1_565
Se12_7 Se6_5 3.449099 1_565
Se12_7 Se6_3 3.449099 1_655
Se13_0 Ta1_0 2.748856 1_555
Se13_0 Se3_4 3.215178 1_455
Se13_0 Se3_2 3.215178 1_545
Se13_0 Se7_4 3.449099 1_455
Se13_0 Se7_2 3.449099 1_545
Se13_1 Ta1_1 2.748856 1_555
Se13_1 Se3_5 3.215178 1_455
Se13_1 Se3_3 3.215178 1_545
Se13_1 Se7_5 3.449099 1_455
Se13_1 Se7_3 3.449099 1_545
Se13_2 Ta1_2 2.748856 1_555
Se13_2 Se3_6 3.215178 1_455
Se13_2 Se3_0 3.215178 1_555
Se13_2 Se7_6 3.449099 1_455
Se13_2 Se7_0 3.449099 1_555
Se13_3 Ta1_3 2.748856 1_555
Se13_3 Se3_7 3.215178 1_455
Se13_3 Se3_1 3.215178 1_555
Se13_3 Se7_7 3.449099 1_455
Se13_3 Se7_1 3.449099 1_555
Se13_4 Ta1_4 2.748856 1_555
Se13_4 Se3_6 3.215178 1_545
Se13_4 Se3_0 3.215178 1_555
Se13_4 Se7_6 3.449099 1_545
Se13_4 Se7_0 3.449099 1_555
Se13_5 Ta1_5 2.748856 1_555
Se13_5 Se3_7 3.215178 1_545
Se13_5 Se3_1 3.215178 1_555
Se13_5 Se7_1 3.449099 1_555
Se13_5 Se7_7 3.449099 1_545
Se13_6 Ta1_6 2.748856 1_555
Se13_6 Se3_4 3.215178 1_555
Se13_6 Se3_2 3.215178 1_555
Se13_6 Se7_4 3.449099 1_555
Se13_6 Se7_2 3.449099 1_555
Se13_7 Ta1_7 2.748856 1_555
Se13_7 Se3_3 3.215178 1_555
Se13_7 Se3_5 3.215178 1_555
Se13_7 Se7_5 3.449099 1_555
Se13_7 Se7_3 3.449099 1_555
