# generated using pymatgen
data_C3S2ClO2F3
_symmetry_space_group_name_H-M   'P 1'
_cell_length_a   17.02532600
_cell_length_b   5.77263200
_cell_length_c   9.09379711
_cell_angle_alpha   68.63937540
_cell_angle_beta   90.00000000
_cell_angle_gamma   90.00000000
_symmetry_Int_Tables_number   1
_chemical_formula_structural   C3S2ClO2F3
_chemical_formula_sum   'C12 S8 Cl4 O8 F12'
_cell_volume   832.35220426
_cell_formula_units_Z   4
loop_
 _symmetry_equiv_pos_site_id
 _symmetry_equiv_pos_as_xyz
  1  'x, y, z'
loop_
 _atom_site_type_symbol
 _atom_site_label
 _atom_site_symmetry_multiplicity
 _atom_site_fract_x
 _atom_site_fract_y
 _atom_site_fract_z
 _atom_site_occupancy
  C  C0  1  0.59202800  0.75184500  0.79299800  1
  C  C1  1  0.09202800  0.24815500  0.70700200  1
  C  C2  1  0.99660200  0.81958200  0.29627700  1
  C  C3  1  0.23447500  0.55014000  0.99664500  1
  C  C4  1  0.40797200  0.24815500  0.20700200  1
  C  C5  1  0.73447500  0.44986000  0.50335500  1
  C  C6  1  0.76552500  0.44986000  0.00335500  1
  C  C7  1  0.00339800  0.18041800  0.70372300  1
  C  C8  1  0.50339800  0.81958200  0.79627700  1
  C  C9  1  0.90797200  0.75184500  0.29299800  1
  C  C10  1  0.26552500  0.55014000  0.49664500  1
  C  C11  1  0.49660200  0.18041800  0.20372300  1
  S  S0  1  0.25982500  0.23823700  0.63060700  1
  S  S1  1  0.65092900  0.85767900  0.92071200  1
  S  S2  1  0.34907100  0.14232100  0.07928800  1
  S  S3  1  0.74017500  0.76176300  0.36939300  1
  S  S4  1  0.24017500  0.23823700  0.13060700  1
  S  S5  1  0.75982500  0.76176300  0.86939300  1
  S  S6  1  0.84907100  0.85767900  0.42071200  1
  S  S7  1  0.15092900  0.14232100  0.57928800  1
  Cl  Cl0  1  0.98727700  0.86716200  0.82425600  1
  Cl  Cl1  1  0.48727700  0.13283800  0.67574400  1
  Cl  Cl2  1  0.51272300  0.86716200  0.32425600  1
  Cl  Cl3  1  0.01272300  0.13283800  0.17574400  1
  O  O0  1  0.22001000  0.67774600  0.40123700  1
  O  O1  1  0.77999000  0.32225400  0.59876300  1
  O  O2  1  0.11526200  0.35955800  0.78821300  1
  O  O3  1  0.38473800  0.35955800  0.28821300  1
  O  O4  1  0.27999000  0.67774600  0.90123700  1
  O  O5  1  0.88473800  0.64044200  0.21178700  1
  O  O6  1  0.72001000  0.32225400  0.09876300  1
  O  O7  1  0.61526200  0.64044200  0.71178700  1
  F  F0  1  0.83762300  0.36322700  0.97867700  1
  F  F1  1  0.33762300  0.63677300  0.52132300  1
  F  F2  1  0.98123900  0.21740000  0.55153300  1
  F  F3  1  0.48123900  0.78260000  0.94846700  1
  F  F4  1  0.04096300  0.66852700  0.24615100  1
  F  F5  1  0.66237700  0.36322700  0.47867700  1
  F  F6  1  0.51876100  0.21740000  0.05153300  1
  F  F7  1  0.95903700  0.33147300  0.75384900  1
  F  F8  1  0.54096300  0.33147300  0.25384900  1
  F  F9  1  0.16237700  0.63677300  0.02132300  1
  F  F10  1  0.45903700  0.66852700  0.74615100  1
  F  F11  1  0.01876100  0.78260000  0.44846700  1
loop_
_geom_bond_atom_site_label_1
_geom_bond_atom_site_label_2
_geom_bond_distance
_geom_bond_site_symmetry_2
C0 O7 1.208891 1_555
C0 C8 1.561802 1_555
C0 S1 1.801284 1_555
C1 O2 1.208891 1_555
C1 C7 1.561802 1_555
C1 S7 1.801284 1_555
C2 F4 1.352079 1_655
C2 F11 1.374076 1_655
C2 C9 1.561802 1_555
C2 Cl3 1.761493 1_665
C3 O4 1.195946 1_555
C3 F9 1.374393 1_556
C3 S4 1.771284 1_556
C4 O3 1.208891 1_555
C4 S2 1.801284 1_555
C5 O1 1.195946 1_555
C5 F5 1.374393 1_555
C5 S3 1.771284 1_555
C6 O6 1.195946 1_555
C6 F0 1.374393 1_554
C6 S5 1.771284 1_554
C7 F7 1.352079 1_455
C7 F2 1.374076 1_455
C7 Cl0 1.761493 1_445
C8 F10 1.352079 1_555
C8 F3 1.374076 1_555
C8 Cl1 1.761493 1_565
C9 O5 1.208891 1_555
C9 S6 1.801284 1_555
C10 O0 1.195946 1_555
C10 F1 1.374393 1_555
C10 S0 1.771284 1_555
C11 F8 1.352079 1_555
C11 F6 1.374076 1_555
C11 C4 1.561802 1_555
C11 Cl2 1.761493 1_545
S0 S7 2.037125 1_555
S1 S5 2.037125 1_555
S2 S4 2.037125 1_555
S3 S6 2.037125 1_555
