# generated using pymatgen
data_Rb2Tb3AlF16
_symmetry_space_group_name_H-M   'P 1'
_cell_length_a   7.57109423
_cell_length_b   7.57109423
_cell_length_c   13.11897100
_cell_angle_alpha   90.00000000
_cell_angle_beta   90.00000000
_cell_angle_gamma   120.00000198
_symmetry_Int_Tables_number   1
_chemical_formula_structural   Rb2Tb3AlF16
_chemical_formula_sum   'Rb4 Tb6 Al2 F32'
_cell_volume   651.24994194
_cell_formula_units_Z   2
loop_
 _symmetry_equiv_pos_site_id
 _symmetry_equiv_pos_as_xyz
  1  'x, y, z'
loop_
 _atom_site_type_symbol
 _atom_site_label
 _atom_site_symmetry_multiplicity
 _atom_site_fract_x
 _atom_site_fract_y
 _atom_site_fract_z
 _atom_site_occupancy
  Rb  Rb0  1  0.33333300  0.66666700  0.44119800  1
  Rb  Rb1  1  0.66666700  0.33333300  0.55880200  1
  Rb  Rb2  1  0.66666700  0.33333300  0.94119800  1
  Rb  Rb3  1  0.33333300  0.66666700  0.05880200  1
  Tb  Tb0  1  0.17201600  0.82798400  0.75000000  1
  Tb  Tb1  1  0.82798400  0.17201600  0.25000000  1
  Tb  Tb2  1  0.17201600  0.34403100  0.75000000  1
  Tb  Tb3  1  0.34403100  0.17201600  0.25000000  1
  Tb  Tb4  1  0.65596900  0.82798400  0.75000000  1
  Tb  Tb5  1  0.82798400  0.65596900  0.25000000  1
  Al  Al0  1  0.00000000  0.00000000  0.00000000  1
  Al  Al1  1  0.00000000  0.00000000  0.50000000  1
  F  F0  1  0.18845100  0.81154900  0.25000000  1
  F  F1  1  0.88582000  0.77164100  0.57883000  1
  F  F2  1  0.44907700  0.55092300  0.65259400  1
  F  F3  1  0.11418000  0.22835900  0.07883000  1
  F  F4  1  0.11418000  0.22835900  0.42117000  1
  F  F5  1  0.37690200  0.18845100  0.75000000  1
  F  F6  1  0.00000000  0.00000000  0.25000000  1
  F  F7  1  0.77164100  0.88582000  0.42117000  1
  F  F8  1  0.10184600  0.55092300  0.65259400  1
  F  F9  1  0.44907700  0.89815400  0.65259400  1
  F  F10  1  0.22835900  0.11418000  0.57883000  1
  F  F11  1  0.81154900  0.18845100  0.75000000  1
  F  F12  1  0.55092300  0.10184600  0.34740600  1
  F  F13  1  0.77164100  0.88582000  0.07883000  1
  F  F14  1  0.88582000  0.11418000  0.92117000  1
  F  F15  1  0.88582000  0.11418000  0.57883000  1
  F  F16  1  0.62309800  0.81154900  0.25000000  1
  F  F17  1  0.55092300  0.10184600  0.15259400  1
  F  F18  1  0.11418000  0.88582000  0.42117000  1
  F  F19  1  0.11418000  0.88582000  0.07883000  1
  F  F20  1  0.89815400  0.44907700  0.34740600  1
  F  F21  1  0.55092300  0.44907700  0.34740600  1
  F  F22  1  0.22835900  0.11418000  0.92117000  1
  F  F23  1  0.89815400  0.44907700  0.15259400  1
  F  F24  1  0.10184600  0.55092300  0.84740600  1
  F  F25  1  0.44907700  0.89815400  0.84740600  1
  F  F26  1  0.18845100  0.37690200  0.25000000  1
  F  F27  1  0.44907700  0.55092300  0.84740600  1
  F  F28  1  0.88582000  0.77164100  0.92117000  1
  F  F29  1  0.81154900  0.62309800  0.75000000  1
  F  F30  1  0.00000000  0.00000000  0.75000000  1
  F  F31  1  0.55092300  0.44907700  0.15259400  1
loop_
_geom_bond_atom_site_label_1
_geom_bond_atom_site_label_2
_geom_bond_distance
_geom_bond_site_symmetry_2
Al0 F22 1.819724 1_554
Al0 F3 1.819724 1_555
Al0 F28 1.819724 1_444
Al0 F13 1.819724 1_445
Al0 F19 1.819730 1_545
Al0 F14 1.819730 1_454
Al1 F4 1.819724 1_555
Al1 F10 1.819724 1_555
Al1 F7 1.819724 1_445
Al1 F1 1.819724 1_445
Al1 F18 1.819730 1_545
Al1 F15 1.819730 1_455
F0 Tb3 2.370854 1_565
F0 Tb5 2.370854 1_455
F0 F19 2.447691 1_555
F0 F18 2.447691 1_555
F0 F6 2.471256 1_565
F0 F20 2.821909 1_455
F0 F12 2.821909 1_565
F0 F17 2.821909 1_565
F0 F23 2.821909 1_455
F0 Rb3 3.146640 1_555
F0 Rb0 3.146640 1_555
F0 F16 3.290753 1_555
F0 F26 3.290753 1_555
F1 F29 2.447693 1_555
F1 F30 2.698981 1_665
F1 Rb1 2.885866 1_555
F1 Tb4 2.999215 1_555
F1 Tb0 2.999225 1_655
F1 F2 3.022762 1_555
F1 F8 3.022768 1_655
F2 Tb2 2.280557 1_555
F2 Tb4 2.280557 1_555
F2 F27 2.555733 1_555
F2 F9 2.628919 1_555
F2 F8 2.628919 1_555
F2 F5 2.821909 1_555
F2 F29 2.821909 1_555
F2 Rb1 3.107369 1_555
F2 Rb0 3.161476 1_555
F3 F6 2.698981 1_555
F3 Rb3 2.885866 1_555
F3 Tb3 2.999215 1_555
F3 Tb1 2.999225 1_455
F3 F31 3.022762 1_555
F4 F6 2.698981 1_555
F4 Rb0 2.885866 1_555
F4 Tb3 2.999215 1_555
F4 Tb1 2.999225 1_455
F5 Tb2 2.370848 1_555
F5 Tb0 2.370854 1_545
F5 F9 2.821909 1_545
F5 Rb1 3.146644 1_555
F5 Rb2 3.146644 1_555
F6 Tb5 2.255729 1_445
F6 Tb3 2.255729 1_555
F6 Tb1 2.255735 1_455
F6 F7 2.698981 1_445
F7 Rb0 2.885866 1_555
F7 Tb5 2.999215 1_555
F7 Tb1 2.999225 1_565
F8 Tb0 2.280555 1_555
F8 Tb2 2.280561 1_555
F8 F9 2.628919 1_555
F8 Rb1 3.107363 1_455
F8 Rb0 3.161473 1_555
F9 Tb0 2.280555 1_555
F9 Tb4 2.280561 1_555
F9 Rb1 3.107363 1_565
F9 Rb0 3.161473 1_555
F10 F5 2.447693 1_555
F10 F30 2.698981 1_555
F10 Rb1 2.885866 1_555
F10 Tb2 2.999215 1_555
F10 Tb0 2.999225 1_545
F10 F2 3.022762 1_555
F10 F9 3.022768 1_545
F11 Tb2 2.370854 1_655
F11 Tb4 2.370854 1_545
F11 F15 2.447691 1_555
F11 F14 2.447691 1_555
F11 F30 2.471256 1_655
F11 F8 2.821909 1_655
F11 F24 2.821909 1_655
F11 F25 2.821909 1_545
F11 F9 2.821909 1_545
F11 Rb1 3.146640 1_555
F11 Rb2 3.146640 1_555
F11 F29 3.290753 1_555
F11 F5 3.290753 1_555
F12 Tb1 2.280555 1_555
F12 Tb3 2.280561 1_555
F12 F17 2.555733 1_555
F12 F20 2.628919 1_555
F12 F21 2.628919 1_555
F12 F16 2.821909 1_545
F12 F18 3.022762 1_545
F12 F7 3.022768 1_545
F12 Rb0 3.107363 1_545
F12 Rb1 3.161473 1_555
F13 F16 2.447693 1_555
F13 F6 2.698981 1_665
F13 Rb3 2.885866 1_555
F13 Tb5 2.999215 1_555
F13 Tb1 2.999225 1_565
F13 F31 3.022762 1_555
F13 F17 3.022768 1_565
F14 F30 2.698984 1_655
F14 Rb2 2.885853 1_555
F14 Tb2 2.999222 1_655
F14 Tb4 2.999222 1_545
F14 F24 3.022762 1_655
F14 F25 3.022762 1_545
F15 F30 2.698984 1_655
F15 Rb1 2.885853 1_555
F15 Tb2 2.999222 1_655
F15 Tb4 2.999222 1_545
F15 F8 3.022762 1_655
F15 F9 3.022762 1_545
F16 Tb5 2.370848 1_555
F16 Tb1 2.370854 1_565
F16 F7 2.447693 1_555
F16 F6 2.471256 1_665
F16 F21 2.821909 1_555
F16 F31 2.821909 1_555
F16 F17 2.821909 1_565
F16 Rb0 3.146644 1_555
F16 Rb3 3.146644 1_555
F16 F26 3.290753 1_555
F17 Tb1 2.280555 1_555
F17 Tb3 2.280561 1_555
F17 F23 2.628919 1_555
F17 F31 2.628919 1_555
F17 F19 3.022762 1_545
F17 Rb3 3.107363 1_545
F17 Rb2 3.161473 1_554
F18 F6 2.698984 1_565
F18 Rb0 2.885853 1_555
F18 Tb3 2.999222 1_565
F18 Tb5 2.999222 1_455
F18 F20 3.022762 1_455
F19 F6 2.698984 1_565
F19 Rb3 2.885853 1_555
F19 Tb3 2.999222 1_565
F19 Tb5 2.999222 1_455
F19 F23 3.022762 1_455
F20 Tb1 2.280555 1_555
F20 Tb5 2.280561 1_555
F20 F23 2.555733 1_555
F20 F21 2.628919 1_555
F20 F26 2.821909 1_655
F20 F4 3.022768 1_655
F20 Rb0 3.107363 1_655
F20 Rb1 3.161473 1_555
F21 Tb3 2.280557 1_555
F21 Tb5 2.280557 1_555
F21 F31 2.555733 1_555
F21 F26 2.821909 1_555
F21 F4 3.022762 1_555
F21 F7 3.022762 1_555
F21 Rb0 3.107369 1_555
F21 Rb1 3.161476 1_555
F22 F5 2.447693 1_555
F22 F30 2.698981 1_555
F22 Rb2 2.885866 1_555
F22 Tb2 2.999215 1_555
F22 Tb0 2.999225 1_545
F22 F27 3.022762 1_555
F22 F25 3.022768 1_545
F23 Tb1 2.280555 1_555
F23 Tb5 2.280561 1_555
F23 F31 2.628919 1_555
F23 F26 2.821909 1_655
F23 F3 3.022768 1_655
F23 Rb3 3.107363 1_655
F23 Rb2 3.161473 1_554
F24 Tb0 2.280555 1_555
F24 Tb2 2.280561 1_555
F24 F8 2.555733 1_555
F24 F25 2.628919 1_555
F24 F27 2.628919 1_555
F24 F29 2.821909 1_455
F24 F28 3.022768 1_455
F24 Rb2 3.107363 1_455
F24 Rb3 3.161473 1_556
F25 Tb0 2.280555 1_555
F25 Tb4 2.280561 1_555
F25 F9 2.555733 1_555
F25 F27 2.628919 1_555
F25 F5 2.821909 1_565
F25 Rb2 3.107363 1_565
F25 Rb3 3.161473 1_556
F26 Tb3 2.370848 1_555
F26 Tb1 2.370854 1_455
F26 F3 2.447693 1_555
F26 F4 2.447693 1_555
F26 F6 2.471256 1_555
F26 F31 2.821909 1_555
F26 Rb3 3.146644 1_555
F26 Rb0 3.146644 1_555
F27 Tb2 2.280557 1_555
F27 Tb4 2.280557 1_555
F27 F5 2.821909 1_555
F27 F29 2.821909 1_555
F27 F28 3.022762 1_555
F27 Rb2 3.107369 1_555
F27 Rb3 3.161476 1_556
F28 F29 2.447693 1_555
F28 F30 2.698981 1_665
F28 Rb2 2.885866 1_555
F28 Tb4 2.999215 1_555
F28 Tb0 2.999225 1_655
F29 Tb4 2.370848 1_555
F29 Tb0 2.370854 1_655
F29 F30 2.471256 1_665
F29 F8 2.821909 1_655
F29 Rb2 3.146644 1_555
F29 Rb1 3.146644 1_555
F29 F5 3.290753 1_555
F30 Tb4 2.255729 1_445
F30 Tb2 2.255729 1_555
F30 Tb0 2.255735 1_545
F30 F5 2.471256 1_555
F31 Tb3 2.280557 1_555
F31 Tb5 2.280557 1_555
F31 Rb3 3.107369 1_555
F31 Rb2 3.161476 1_554
