# generated using pymatgen
data_H8C2I3N
_symmetry_space_group_name_H-M   'P 1'
_cell_length_a   6.59731100
_cell_length_b   10.10922100
_cell_length_c   14.95699800
_cell_angle_alpha   90.00000000
_cell_angle_beta   90.00000000
_cell_angle_gamma   90.00000000
_symmetry_Int_Tables_number   1
_chemical_formula_structural   H8C2I3N
_chemical_formula_sum   'H32 C8 I12 N4'
_cell_volume   997.53716216
_cell_formula_units_Z   4
loop_
 _symmetry_equiv_pos_site_id
 _symmetry_equiv_pos_as_xyz
  1  'x, y, z'
loop_
 _atom_site_type_symbol
 _atom_site_label
 _atom_site_symmetry_multiplicity
 _atom_site_fract_x
 _atom_site_fract_y
 _atom_site_fract_z
 _atom_site_occupancy
  H  H0  1  0.48366900  0.36546500  0.36328500  1
  H  H1  1  0.33507700  0.60949200  0.54841900  1
  H  H2  1  0.16492300  0.89050800  0.54841900  1
  H  H3  1  0.81727200  0.31981200  0.31281600  1
  H  H4  1  0.83507700  0.39050800  0.95158100  1
  H  H5  1  0.51633100  0.63453500  0.63671500  1
  H  H6  1  0.01633100  0.36546500  0.86328500  1
  H  H7  1  0.68272800  0.31981200  0.81281600  1
  H  H8  1  0.83507700  0.10949200  0.45158100  1
  H  H9  1  0.66492300  0.39050800  0.45158100  1
  H  H10  1  0.51400300  0.25750500  0.94967300  1
  H  H11  1  0.48599700  0.74249500  0.05032700  1
  H  H12  1  0.51400300  0.24249500  0.44967300  1
  H  H13  1  0.16492300  0.60949200  0.04841900  1
  H  H14  1  0.01400300  0.75750500  0.05032700  1
  H  H15  1  0.31727200  0.68018800  0.18718400  1
  H  H16  1  0.98366900  0.63453500  0.13671500  1
  H  H17  1  0.18272800  0.81981200  0.18718400  1
  H  H18  1  0.66492300  0.10949200  0.95158100  1
  H  H19  1  0.31727200  0.81981200  0.68718400  1
  H  H20  1  0.81727200  0.18018800  0.81281600  1
  H  H21  1  0.98366900  0.86546500  0.63671500  1
  H  H22  1  0.48366900  0.13453500  0.86328500  1
  H  H23  1  0.18272800  0.68018800  0.68718400  1
  H  H24  1  0.98599700  0.25750500  0.44967300  1
  H  H25  1  0.01633100  0.13453500  0.36328500  1
  H  H26  1  0.68272800  0.18018800  0.31281600  1
  H  H27  1  0.98599700  0.24249500  0.94967300  1
  H  H28  1  0.01400300  0.74249500  0.55032700  1
  H  H29  1  0.48599700  0.75750500  0.55032700  1
  H  H30  1  0.33507700  0.89050800  0.04841900  1
  H  H31  1  0.51633100  0.86546500  0.13671500  1
  C  C0  1  0.59085600  0.31708500  0.40875800  1
  C  C1  1  0.09085600  0.68291500  0.09124200  1
  C  C2  1  0.40914400  0.81708500  0.09124200  1
  C  C3  1  0.90914400  0.31708500  0.90875800  1
  C  C4  1  0.40914400  0.68291500  0.59124200  1
  C  C5  1  0.59085600  0.18291500  0.90875800  1
  C  C6  1  0.09085600  0.81708500  0.59124200  1
  C  C7  1  0.90914400  0.18291500  0.40875800  1
  I  I0  1  0.57918200  0.44685900  0.15063800  1
  I  I1  1  0.25000000  0.25000000  0.14672100  1
  I  I2  1  0.07918200  0.94685900  0.84936200  1
  I  I3  1  0.92081800  0.05314100  0.15063800  1
  I  I4  1  0.57918200  0.05314100  0.65063800  1
  I  I5  1  0.75000000  0.75000000  0.85327900  1
  I  I6  1  0.25000000  0.25000000  0.64672100  1
  I  I7  1  0.42081800  0.94685900  0.34936200  1
  I  I8  1  0.92081800  0.44685900  0.65063800  1
  I  I9  1  0.75000000  0.75000000  0.35327900  1
  I  I10  1  0.42081800  0.55314100  0.84936200  1
  I  I11  1  0.07918200  0.55314100  0.34936200  1
  N  N0  1  0.25000000  0.75000000  0.64587300  1
  N  N1  1  0.75000000  0.25000000  0.35412700  1
  N  N2  1  0.25000000  0.75000000  0.14587300  1
  N  N3  1  0.75000000  0.25000000  0.85412700  1
loop_
_geom_bond_atom_site_label_1
_geom_bond_atom_site_label_2
_geom_bond_distance
_geom_bond_site_symmetry_2
H0 I11 3.280852 1_555
H0 I0 3.345157 1_555
H0 I1 3.772408 1_555
H1 I11 3.469710 1_555
H1 I8 3.536921 1_455
H1 I6 3.960318 1_555
H2 I7 3.469710 1_555
H2 I4 3.536921 1_565
H2 I6 3.960318 1_565
H3 N1 1.037706 1_555
H3 I11 2.974601 1_655
H3 I0 3.162406 1_555
H3 I1 3.849656 1_655
H4 I0 3.469710 1_556
H4 I10 3.536921 1_555
H4 I5 3.960318 1_555
H5 I8 3.280852 1_555
H5 I10 3.345157 1_555
H5 I5 3.772408 1_555
H6 I10 3.280852 1_555
H6 I8 3.345157 1_455
H6 I6 3.772408 1_555
H7 N3 1.037706 1_555
H7 I10 2.974601 1_555
H7 I8 3.162406 1_555
H7 I6 3.849656 1_555
H8 I4 3.469710 1_555
H8 I7 3.536921 1_545
H8 I9 3.960318 1_545
H9 I8 3.469710 1_555
H9 I11 3.536921 1_655
H9 I9 3.960318 1_555
H10 I10 3.400151 1_555
H10 I1 3.424262 1_556
H10 I0 3.589454 1_556
H11 I0 3.400151 1_555
H11 I5 3.424262 1_554
H11 I10 3.589454 1_554
H12 I7 3.400151 1_545
H12 I6 3.424262 1_555
H12 I4 3.589454 1_555
H13 I10 3.469710 1_554
H13 I0 3.536921 1_555
H13 I1 3.960318 1_555
H14 I3 3.400151 1_465
H14 I5 3.424262 1_454
H14 I2 3.589454 1_554
H15 N2 1.037706 1_555
H15 I0 2.974601 1_555
H15 I11 3.162406 1_555
H15 I9 3.849656 1_555
H16 I0 3.280852 1_555
H16 I11 3.345157 1_655
H16 I9 3.772408 1_555
H17 N2 1.037706 1_555
H17 I3 2.974601 1_465
H17 I7 3.162406 1_555
H17 I9 3.849656 1_455
H18 I3 3.469710 1_556
H18 I2 3.536921 1_645
H18 I5 3.960318 1_545
H19 N0 1.037706 1_555
H19 I4 2.974601 1_565
H19 I2 3.162406 1_555
H19 I5 3.849656 1_555
H20 N3 1.037706 1_555
H20 I2 2.974601 1_645
H20 I4 3.162406 1_555
H20 I6 3.849656 1_655
H21 I4 3.280852 1_565
H21 I2 3.345157 1_655
H21 I5 3.772408 1_555
H22 I2 3.280852 1_545
H22 I4 3.345157 1_555
H22 I6 3.772408 1_555
H23 N0 1.037706 1_555
H23 I8 2.974601 1_455
H23 I10 3.162406 1_555
H23 I5 3.849656 1_455
H24 I11 3.400151 1_655
H24 I6 3.424262 1_655
H24 I8 3.589454 1_555
H25 I7 3.280852 1_545
H25 I3 3.345157 1_455
H25 I1 3.772408 1_555
H26 N1 1.037706 1_555
H26 I7 2.974601 1_545
H26 I3 3.162406 1_555
H26 I1 3.849656 1_555
H27 I2 3.400151 1_645
H27 I1 3.424262 1_656
H27 I3 3.589454 1_556
H28 I8 3.400151 1_455
H28 I9 3.424262 1_455
H28 I11 3.589454 1_555
H29 I4 3.400151 1_565
H29 I9 3.424262 1_555
H29 I7 3.589454 1_555
H30 I2 3.469710 1_554
H30 I3 3.536921 1_465
H30 I1 3.960318 1_565
H31 I3 3.280852 1_565
H31 I7 3.345157 1_555
H31 I9 3.772408 1_555
C0 H9 1.095423 1_555
C0 H12 1.095519 1_555
C0 H0 1.096289 1_555
C0 N1 1.493298 1_555
C1 H13 1.095423 1_555
C1 H14 1.095519 1_555
C1 H16 1.096289 1_455
C1 N2 1.493298 1_555
C2 H30 1.095423 1_555
C2 H11 1.095519 1_555
C2 H31 1.096289 1_555
C2 N2 1.493298 1_555
C3 H4 1.095423 1_555
C3 H27 1.095519 1_555
C3 H6 1.096289 1_655
C3 N3 1.493298 1_555
C4 H1 1.095423 1_555
C4 H29 1.095519 1_555
C4 H5 1.096289 1_555
C4 N0 1.493298 1_555
C5 H18 1.095423 1_555
C5 H10 1.095519 1_555
C5 H22 1.096289 1_555
C5 N3 1.493298 1_555
C6 H2 1.095423 1_555
C6 H28 1.095519 1_555
C6 H21 1.096289 1_455
C6 N0 1.493298 1_555
C7 H8 1.095423 1_555
C7 H24 1.095519 1_555
C7 H25 1.096289 1_655
C7 N1 1.493298 1_555
I0 I1 2.946226 1_555
I1 I3 2.946226 1_455
I2 I5 2.946226 1_455
I4 I6 2.946226 1_555
I6 I8 2.946226 1_455
I7 I9 2.946226 1_555
I10 I5 2.946226 1_555
I11 I9 2.946226 1_455
