# generated using pymatgen
data_Sc2CrB2Rh5
_symmetry_space_group_name_H-M   'P 1'
_cell_length_a   18.76558200
_cell_length_b   18.76558200
_cell_length_c   6.15197200
_cell_angle_alpha   90.00000000
_cell_angle_beta   90.00000000
_cell_angle_gamma   90.00000000
_symmetry_Int_Tables_number   1
_chemical_formula_structural   Sc2CrB2Rh5
_chemical_formula_sum   'Sc32 Cr16 B32 Rh80'
_cell_volume   2166.39890098
_cell_formula_units_Z   16
loop_
 _symmetry_equiv_pos_site_id
 _symmetry_equiv_pos_as_xyz
  1  'x, y, z'
loop_
 _atom_site_type_symbol
 _atom_site_label
 _atom_site_symmetry_multiplicity
 _atom_site_fract_x
 _atom_site_fract_y
 _atom_site_fract_z
 _atom_site_occupancy
  Sc  Sc0_0  1  0.41206000  0.16206000  0.00000000  1
  Sc  Sc0_1  1  0.41206000  0.16206000  0.50000000  1
  Sc  Sc0_2  1  0.41206000  0.66206000  0.00000000  1
  Sc  Sc0_3  1  0.41206000  0.66206000  0.50000000  1
  Sc  Sc0_4  1  0.91206000  0.16206000  0.00000000  1
  Sc  Sc0_5  1  0.91206000  0.16206000  0.50000000  1
  Sc  Sc0_6  1  0.91206000  0.66206000  0.00000000  1
  Sc  Sc0_7  1  0.91206000  0.66206000  0.50000000  1
  Sc  Sc1_0  1  0.16206000  0.08794000  0.00000000  1
  Sc  Sc1_1  1  0.16206000  0.08794000  0.50000000  1
  Sc  Sc1_2  1  0.16206000  0.58794000  0.00000000  1
  Sc  Sc1_3  1  0.16206000  0.58794000  0.50000000  1
  Sc  Sc1_4  1  0.66206000  0.08794000  0.00000000  1
  Sc  Sc1_5  1  0.66206000  0.08794000  0.50000000  1
  Sc  Sc1_6  1  0.66206000  0.58794000  0.00000000  1
  Sc  Sc1_7  1  0.66206000  0.58794000  0.50000000  1
  Sc  Sc2_0  1  0.33794000  0.41206000  0.00000000  1
  Sc  Sc2_1  1  0.33794000  0.41206000  0.50000000  1
  Sc  Sc2_2  1  0.33794000  0.91206000  0.00000000  1
  Sc  Sc2_3  1  0.33794000  0.91206000  0.50000000  1
  Sc  Sc2_4  1  0.83794000  0.41206000  0.00000000  1
  Sc  Sc2_5  1  0.83794000  0.41206000  0.50000000  1
  Sc  Sc2_6  1  0.83794000  0.91206000  0.00000000  1
  Sc  Sc2_7  1  0.83794000  0.91206000  0.50000000  1
  Sc  Sc3_0  1  0.08794000  0.33794000  0.00000000  1
  Sc  Sc3_1  1  0.08794000  0.33794000  0.50000000  1
  Sc  Sc3_2  1  0.08794000  0.83794000  0.00000000  1
  Sc  Sc3_3  1  0.08794000  0.83794000  0.50000000  1
  Sc  Sc3_4  1  0.58794000  0.33794000  0.00000000  1
  Sc  Sc3_5  1  0.58794000  0.33794000  0.50000000  1
  Sc  Sc3_6  1  0.58794000  0.83794000  0.00000000  1
  Sc  Sc3_7  1  0.58794000  0.83794000  0.50000000  1
  Cr  Cr0_0  1  0.00000000  0.00000000  0.00000000  1
  Cr  Cr0_1  1  0.00000000  0.00000000  0.50000000  1
  Cr  Cr0_2  1  0.00000000  0.50000000  0.00000000  1
  Cr  Cr0_3  1  0.00000000  0.50000000  0.50000000  1
  Cr  Cr0_4  1  0.50000000  0.00000000  0.00000000  1
  Cr  Cr0_5  1  0.50000000  0.00000000  0.50000000  1
  Cr  Cr0_6  1  0.50000000  0.50000000  0.00000000  1
  Cr  Cr0_7  1  0.50000000  0.50000000  0.50000000  1
  Cr  Cr1_0  1  0.25000000  0.25000000  0.00000000  1
  Cr  Cr1_1  1  0.25000000  0.25000000  0.50000000  1
  Cr  Cr1_2  1  0.25000000  0.75000000  0.00000000  1
  Cr  Cr1_3  1  0.25000000  0.75000000  0.50000000  1
  Cr  Cr1_4  1  0.75000000  0.25000000  0.00000000  1
  Cr  Cr1_5  1  0.75000000  0.25000000  0.50000000  1
  Cr  Cr1_6  1  0.75000000  0.75000000  0.00000000  1
  Cr  Cr1_7  1  0.75000000  0.75000000  0.50000000  1
  B  B0_0  1  0.31132950  0.06132950  0.00000000  1
  B  B0_1  1  0.31132950  0.06132950  0.50000000  1
  B  B0_2  1  0.31132950  0.56132950  0.00000000  1
  B  B0_3  1  0.31132950  0.56132950  0.50000000  1
  B  B0_4  1  0.81132950  0.06132950  0.00000000  1
  B  B0_5  1  0.81132950  0.06132950  0.50000000  1
  B  B0_6  1  0.81132950  0.56132950  0.00000000  1
  B  B0_7  1  0.81132950  0.56132950  0.50000000  1
  B  B1_0  1  0.06132950  0.18867050  0.00000000  1
  B  B1_1  1  0.06132950  0.18867050  0.50000000  1
  B  B1_2  1  0.06132950  0.68867050  0.00000000  1
  B  B1_3  1  0.06132950  0.68867050  0.50000000  1
  B  B1_4  1  0.56132950  0.18867050  0.00000000  1
  B  B1_5  1  0.56132950  0.18867050  0.50000000  1
  B  B1_6  1  0.56132950  0.68867050  0.00000000  1
  B  B1_7  1  0.56132950  0.68867050  0.50000000  1
  B  B2_0  1  0.43867050  0.31132950  0.00000000  1
  B  B2_1  1  0.43867050  0.31132950  0.50000000  1
  B  B2_2  1  0.43867050  0.81132950  0.00000000  1
  B  B2_3  1  0.43867050  0.81132950  0.50000000  1
  B  B2_4  1  0.93867050  0.31132950  0.00000000  1
  B  B2_5  1  0.93867050  0.31132950  0.50000000  1
  B  B2_6  1  0.93867050  0.81132950  0.00000000  1
  B  B2_7  1  0.93867050  0.81132950  0.50000000  1
  B  B3_0  1  0.18867050  0.43867050  0.00000000  1
  B  B3_1  1  0.18867050  0.43867050  0.50000000  1
  B  B3_2  1  0.18867050  0.93867050  0.00000000  1
  B  B3_3  1  0.18867050  0.93867050  0.50000000  1
  B  B3_4  1  0.68867050  0.43867050  0.00000000  1
  B  B3_5  1  0.68867050  0.43867050  0.50000000  1
  B  B3_6  1  0.68867050  0.93867050  0.00000000  1
  B  B3_7  1  0.68867050  0.93867050  0.50000000  1
  Rh  Rh0_0  1  0.03533550  0.10929650  0.25000000  1
  Rh  Rh0_1  1  0.03533550  0.10929650  0.75000000  1
  Rh  Rh0_2  1  0.03533550  0.60929650  0.25000000  1
  Rh  Rh0_3  1  0.03533550  0.60929650  0.75000000  1
  Rh  Rh0_4  1  0.53533550  0.10929650  0.25000000  1
  Rh  Rh0_5  1  0.53533550  0.10929650  0.75000000  1
  Rh  Rh0_6  1  0.53533550  0.60929650  0.25000000  1
  Rh  Rh0_7  1  0.53533550  0.60929650  0.75000000  1
  Rh  Rh1_0  1  0.10929650  0.46466450  0.25000000  1
  Rh  Rh1_1  1  0.10929650  0.46466450  0.75000000  1
  Rh  Rh1_2  1  0.10929650  0.96466450  0.25000000  1
  Rh  Rh1_3  1  0.10929650  0.96466450  0.75000000  1
  Rh  Rh1_4  1  0.60929650  0.46466450  0.25000000  1
  Rh  Rh1_5  1  0.60929650  0.46466450  0.75000000  1
  Rh  Rh1_6  1  0.60929650  0.96466450  0.25000000  1
  Rh  Rh1_7  1  0.60929650  0.96466450  0.75000000  1
  Rh  Rh2_0  1  0.39070350  0.03533550  0.25000000  1
  Rh  Rh2_1  1  0.39070350  0.03533550  0.75000000  1
  Rh  Rh2_2  1  0.39070350  0.53533550  0.25000000  1
  Rh  Rh2_3  1  0.39070350  0.53533550  0.75000000  1
  Rh  Rh2_4  1  0.89070350  0.03533550  0.25000000  1
  Rh  Rh2_5  1  0.89070350  0.03533550  0.75000000  1
  Rh  Rh2_6  1  0.89070350  0.53533550  0.25000000  1
  Rh  Rh2_7  1  0.89070350  0.53533550  0.75000000  1
  Rh  Rh3_0  1  0.46466450  0.39070350  0.25000000  1
  Rh  Rh3_1  1  0.46466450  0.39070350  0.75000000  1
  Rh  Rh3_2  1  0.46466450  0.89070350  0.25000000  1
  Rh  Rh3_3  1  0.46466450  0.89070350  0.75000000  1
  Rh  Rh3_4  1  0.96466450  0.39070350  0.25000000  1
  Rh  Rh3_5  1  0.96466450  0.39070350  0.75000000  1
  Rh  Rh3_6  1  0.96466450  0.89070350  0.25000000  1
  Rh  Rh3_7  1  0.96466450  0.89070350  0.75000000  1
  Rh  Rh4_0  1  0.21466450  0.35929650  0.25000000  1
  Rh  Rh4_1  1  0.21466450  0.35929650  0.75000000  1
  Rh  Rh4_2  1  0.21466450  0.85929650  0.25000000  1
  Rh  Rh4_3  1  0.21466450  0.85929650  0.75000000  1
  Rh  Rh4_4  1  0.71466450  0.35929650  0.25000000  1
  Rh  Rh4_5  1  0.71466450  0.35929650  0.75000000  1
  Rh  Rh4_6  1  0.71466450  0.85929650  0.25000000  1
  Rh  Rh4_7  1  0.71466450  0.85929650  0.75000000  1
  Rh  Rh5_0  1  0.28533550  0.14070350  0.25000000  1
  Rh  Rh5_1  1  0.28533550  0.14070350  0.75000000  1
  Rh  Rh5_2  1  0.28533550  0.64070350  0.25000000  1
  Rh  Rh5_3  1  0.28533550  0.64070350  0.75000000  1
  Rh  Rh5_4  1  0.78533550  0.14070350  0.25000000  1
  Rh  Rh5_5  1  0.78533550  0.14070350  0.75000000  1
  Rh  Rh5_6  1  0.78533550  0.64070350  0.25000000  1
  Rh  Rh5_7  1  0.78533550  0.64070350  0.75000000  1
  Rh  Rh6_0  1  0.35929650  0.28533550  0.25000000  1
  Rh  Rh6_1  1  0.35929650  0.28533550  0.75000000  1
  Rh  Rh6_2  1  0.35929650  0.78533550  0.25000000  1
  Rh  Rh6_3  1  0.35929650  0.78533550  0.75000000  1
  Rh  Rh6_4  1  0.85929650  0.28533550  0.25000000  1
  Rh  Rh6_5  1  0.85929650  0.28533550  0.75000000  1
  Rh  Rh6_6  1  0.85929650  0.78533550  0.25000000  1
  Rh  Rh6_7  1  0.85929650  0.78533550  0.75000000  1
  Rh  Rh7_0  1  0.14070350  0.21466450  0.25000000  1
  Rh  Rh7_1  1  0.14070350  0.21466450  0.75000000  1
  Rh  Rh7_2  1  0.14070350  0.71466450  0.25000000  1
  Rh  Rh7_3  1  0.14070350  0.71466450  0.75000000  1
  Rh  Rh7_4  1  0.64070350  0.21466450  0.25000000  1
  Rh  Rh7_5  1  0.64070350  0.21466450  0.75000000  1
  Rh  Rh7_6  1  0.64070350  0.71466450  0.25000000  1
  Rh  Rh7_7  1  0.64070350  0.71466450  0.75000000  1
  Rh  Rh8_0  1  0.25000000  0.00000000  0.25000000  1
  Rh  Rh8_1  1  0.25000000  0.00000000  0.75000000  1
  Rh  Rh8_2  1  0.25000000  0.50000000  0.25000000  1
  Rh  Rh8_3  1  0.25000000  0.50000000  0.75000000  1
  Rh  Rh8_4  1  0.75000000  0.00000000  0.25000000  1
  Rh  Rh8_5  1  0.75000000  0.00000000  0.75000000  1
  Rh  Rh8_6  1  0.75000000  0.50000000  0.25000000  1
  Rh  Rh8_7  1  0.75000000  0.50000000  0.75000000  1
  Rh  Rh9_0  1  0.00000000  0.25000000  0.25000000  1
  Rh  Rh9_1  1  0.00000000  0.25000000  0.75000000  1
  Rh  Rh9_2  1  0.00000000  0.75000000  0.25000000  1
  Rh  Rh9_3  1  0.00000000  0.75000000  0.75000000  1
  Rh  Rh9_4  1  0.50000000  0.25000000  0.25000000  1
  Rh  Rh9_5  1  0.50000000  0.25000000  0.75000000  1
  Rh  Rh9_6  1  0.50000000  0.75000000  0.25000000  1
  Rh  Rh9_7  1  0.50000000  0.75000000  0.75000000  1
loop_
_geom_bond_atom_site_label_1
_geom_bond_atom_site_label_2
_geom_bond_distance
_geom_bond_site_symmetry_2
Sc0_0 Sc0_1 3.075986 1_554
Sc0_0 Sc0_1 3.075986 1_555
Sc0_2 Sc0_3 3.075986 1_554
Sc0_2 Sc0_3 3.075986 1_555
Sc0_4 Sc0_5 3.075986 1_555
Sc0_4 Sc0_5 3.075986 1_554
Sc0_6 Sc0_7 3.075986 1_555
Sc0_6 Sc0_7 3.075986 1_554
Sc1_0 Sc1_1 3.075986 1_554
Sc1_0 Sc1_1 3.075986 1_555
Sc1_2 Sc1_3 3.075986 1_555
Sc1_2 Sc1_3 3.075986 1_554
Sc1_4 Sc1_5 3.075986 1_554
Sc1_4 Sc1_5 3.075986 1_555
Sc1_6 Sc1_7 3.075986 1_555
Sc1_6 Sc1_7 3.075986 1_554
Sc2_0 Sc2_1 3.075986 1_554
Sc2_0 Sc2_1 3.075986 1_555
Sc2_2 Sc2_3 3.075986 1_554
Sc2_2 Sc2_3 3.075986 1_555
Sc2_4 Sc2_5 3.075986 1_555
Sc2_4 Sc2_5 3.075986 1_554
Sc2_6 Sc2_7 3.075986 1_555
Sc2_6 Sc2_7 3.075986 1_554
Sc3_0 Sc3_1 3.075986 1_555
Sc3_0 Sc3_1 3.075986 1_554
Sc3_2 Sc3_3 3.075986 1_555
Sc3_2 Sc3_3 3.075986 1_554
Sc3_4 Sc3_5 3.075986 1_555
Sc3_4 Sc3_5 3.075986 1_554
Sc3_6 Sc3_7 3.075986 1_555
Sc3_6 Sc3_7 3.075986 1_554
Cr0_0 Rh0_0 2.647974 1_555
Cr0_0 Rh1_2 2.647974 1_545
Cr0_0 Rh0_1 2.647974 1_554
Cr0_0 Rh1_3 2.647974 1_544
Cr0_0 Rh2_5 2.647974 1_454
Cr0_0 Rh2_4 2.647974 1_455
Cr0_0 Rh3_6 2.647974 1_445
Cr0_0 Rh3_7 2.647974 1_444
Cr0_0 Cr0_1 3.075986 1_555
Cr0_0 Cr0_1 3.075986 1_554
Cr0_1 Rh0_1 2.647974 1_555
Cr0_1 Rh1_3 2.647974 1_545
Cr0_1 Rh0_0 2.647974 1_555
Cr0_1 Rh1_2 2.647974 1_545
Cr0_1 Rh2_5 2.647974 1_455
Cr0_1 Rh3_7 2.647974 1_445
Cr0_1 Rh2_4 2.647974 1_455
Cr0_1 Rh3_6 2.647974 1_445
Cr0_2 Rh1_0 2.647974 1_555
Cr0_2 Rh0_3 2.647974 1_554
Cr0_2 Rh0_2 2.647974 1_555
Cr0_2 Rh1_1 2.647974 1_554
Cr0_2 Rh3_4 2.647974 1_455
Cr0_2 Rh3_5 2.647974 1_454
Cr0_2 Rh2_6 2.647974 1_455
Cr0_2 Rh2_7 2.647974 1_454
Cr0_2 Cr0_3 3.075986 1_554
Cr0_2 Cr0_3 3.075986 1_555
Cr0_3 Rh1_1 2.647974 1_555
Cr0_3 Rh1_0 2.647974 1_555
Cr0_3 Rh0_3 2.647974 1_555
Cr0_3 Rh0_2 2.647974 1_555
Cr0_3 Rh3_5 2.647974 1_455
Cr0_3 Rh3_4 2.647974 1_455
Cr0_3 Rh2_7 2.647974 1_455
Cr0_3 Rh2_6 2.647974 1_455
Cr0_4 Rh0_4 2.647974 1_555
Cr0_4 Rh0_5 2.647974 1_554
Cr0_4 Rh1_6 2.647974 1_545
Cr0_4 Rh1_7 2.647974 1_544
Cr0_4 Rh2_0 2.647974 1_555
Cr0_4 Rh2_1 2.647974 1_554
Cr0_4 Rh3_2 2.647974 1_545
Cr0_4 Rh3_3 2.647974 1_544
Cr0_4 Cr0_5 3.075986 1_555
Cr0_4 Cr0_5 3.075986 1_554
Cr0_5 Rh0_5 2.647974 1_555
Cr0_5 Rh0_4 2.647974 1_555
Cr0_5 Rh1_7 2.647974 1_545
Cr0_5 Rh1_6 2.647974 1_545
Cr0_5 Rh2_1 2.647974 1_555
Cr0_5 Rh2_0 2.647974 1_555
Cr0_5 Rh3_3 2.647974 1_545
Cr0_5 Rh3_2 2.647974 1_545
Cr0_6 Rh1_4 2.647974 1_555
Cr0_6 Rh0_6 2.647974 1_555
Cr0_6 Rh1_5 2.647974 1_554
Cr0_6 Rh0_7 2.647974 1_554
Cr0_6 Rh2_2 2.647974 1_555
Cr0_6 Rh3_0 2.647974 1_555
Cr0_6 Rh2_3 2.647974 1_554
Cr0_6 Rh3_1 2.647974 1_554
Cr0_6 Cr0_7 3.075986 1_554
Cr0_6 Cr0_7 3.075986 1_555
Cr0_7 Rh1_5 2.647974 1_555
Cr0_7 Rh0_7 2.647974 1_555
Cr0_7 Rh1_4 2.647974 1_555
Cr0_7 Rh0_6 2.647974 1_555
Cr0_7 Rh3_1 2.647974 1_555
Cr0_7 Rh2_3 2.647974 1_555
Cr0_7 Rh2_2 2.647974 1_555
Cr0_7 Rh3_0 2.647974 1_555
Cr1_0 Rh6_0 2.647974 1_555
Cr1_0 Rh6_1 2.647974 1_554
Cr1_0 Rh4_1 2.647974 1_554
Cr1_0 Rh4_0 2.647974 1_555
Cr1_0 Rh5_0 2.647974 1_555
Cr1_0 Rh5_1 2.647974 1_554
Cr1_0 Rh7_0 2.647974 1_555
Cr1_0 Rh7_1 2.647974 1_554
Cr1_0 Cr1_1 3.075986 1_555
Cr1_0 Cr1_1 3.075986 1_554
Cr1_1 Rh6_1 2.647974 1_555
Cr1_1 Rh6_0 2.647974 1_555
Cr1_1 Rh4_1 2.647974 1_555
Cr1_1 Rh4_0 2.647974 1_555
Cr1_1 Rh5_1 2.647974 1_555
Cr1_1 Rh5_0 2.647974 1_555
Cr1_1 Rh7_1 2.647974 1_555
Cr1_1 Rh7_0 2.647974 1_555
Cr1_2 Rh6_2 2.647974 1_555
Cr1_2 Rh6_3 2.647974 1_554
Cr1_2 Rh4_2 2.647974 1_555
Cr1_2 Rh4_3 2.647974 1_554
Cr1_2 Rh5_2 2.647974 1_555
Cr1_2 Rh5_3 2.647974 1_554
Cr1_2 Rh7_2 2.647974 1_555
Cr1_2 Rh7_3 2.647974 1_554
Cr1_2 Cr1_3 3.075986 1_554
Cr1_2 Cr1_3 3.075986 1_555
Cr1_3 Rh6_3 2.647974 1_555
Cr1_3 Rh6_2 2.647974 1_555
Cr1_3 Rh4_3 2.647974 1_555
Cr1_3 Rh4_2 2.647974 1_555
Cr1_3 Rh5_3 2.647974 1_555
Cr1_3 Rh5_2 2.647974 1_555
Cr1_3 Rh7_3 2.647974 1_555
Cr1_3 Rh7_2 2.647974 1_555
Cr1_4 Rh6_4 2.647974 1_555
Cr1_4 Rh6_5 2.647974 1_554
Cr1_4 Rh4_4 2.647974 1_555
Cr1_4 Rh4_5 2.647974 1_554
Cr1_4 Rh5_4 2.647974 1_555
Cr1_4 Rh5_5 2.647974 1_554
Cr1_4 Rh7_4 2.647974 1_555
Cr1_4 Rh7_5 2.647974 1_554
Cr1_4 Cr1_5 3.075986 1_554
Cr1_4 Cr1_5 3.075986 1_555
Cr1_5 Rh6_5 2.647974 1_555
Cr1_5 Rh6_4 2.647974 1_555
Cr1_5 Rh4_5 2.647974 1_555
Cr1_5 Rh4_4 2.647974 1_555
Cr1_5 Rh5_5 2.647974 1_555
Cr1_5 Rh5_4 2.647974 1_555
Cr1_5 Rh7_5 2.647974 1_555
Cr1_5 Rh7_4 2.647974 1_555
Cr1_6 Rh6_6 2.647974 1_555
Cr1_6 Rh6_7 2.647974 1_554
Cr1_6 Rh4_6 2.647974 1_555
Cr1_6 Rh4_7 2.647974 1_554
Cr1_6 Rh5_7 2.647974 1_554
Cr1_6 Rh5_6 2.647974 1_555
Cr1_6 Rh7_6 2.647974 1_555
Cr1_6 Rh7_7 2.647974 1_554
Cr1_6 Cr1_7 3.075986 1_554
Cr1_6 Cr1_7 3.075986 1_555
Cr1_7 Rh6_7 2.647974 1_555
Cr1_7 Rh6_6 2.647974 1_555
Cr1_7 Rh4_7 2.647974 1_555
Cr1_7 Rh4_6 2.647974 1_555
Cr1_7 Rh5_7 2.647974 1_555
Cr1_7 Rh5_6 2.647974 1_555
Cr1_7 Rh7_7 2.647974 1_555
Cr1_7 Rh7_6 2.647974 1_555
B0_0 Rh2_0 2.195899 1_555
B0_0 Rh2_1 2.195899 1_554
B0_0 Rh5_0 2.195899 1_555
B0_0 Rh5_1 2.195899 1_554
B0_0 Rh8_0 2.239306 1_555
B0_0 Rh8_1 2.239306 1_554
B0_0 Sc0_0 2.673240 1_555
B0_0 Sc2_2 2.845292 1_545
B0_0 Sc1_0 2.845292 1_555
B0_1 Rh2_1 2.195899 1_555
B0_1 Rh2_0 2.195899 1_555
B0_1 Rh5_1 2.195899 1_555
B0_1 Rh5_0 2.195899 1_555
B0_1 Rh8_0 2.239306 1_555
B0_1 Rh8_1 2.239306 1_555
B0_1 Sc0_1 2.673240 1_555
B0_1 Sc2_3 2.845292 1_545
B0_1 Sc1_1 2.845292 1_555
B0_2 Rh2_2 2.195899 1_555
B0_2 Rh2_3 2.195899 1_554
B0_2 Rh5_2 2.195899 1_555
B0_2 Rh5_3 2.195899 1_554
B0_2 Rh8_2 2.239306 1_555
B0_2 Rh8_3 2.239306 1_554
B0_2 Sc0_2 2.673240 1_555
B0_2 Sc2_0 2.845292 1_555
B0_2 Sc1_2 2.845292 1_555
B0_3 Rh2_3 2.195899 1_555
B0_3 Rh2_2 2.195899 1_555
B0_3 Rh5_3 2.195899 1_555
B0_3 Rh5_2 2.195899 1_555
B0_3 Rh8_3 2.239306 1_555
B0_3 Rh8_2 2.239306 1_555
B0_3 Sc0_3 2.673240 1_555
B0_3 Sc2_1 2.845292 1_555
B0_3 Sc1_3 2.845292 1_555
B0_4 Rh2_4 2.195899 1_555
B0_4 Rh2_5 2.195899 1_554
B0_4 Rh5_4 2.195899 1_555
B0_4 Rh5_5 2.195899 1_554
B0_4 Rh8_4 2.239306 1_555
B0_4 Rh8_5 2.239306 1_554
B0_4 Sc0_4 2.673240 1_555
B0_4 Sc2_6 2.845292 1_545
B0_4 Sc1_4 2.845292 1_555
B0_5 Rh2_5 2.195899 1_555
B0_5 Rh2_4 2.195899 1_555
B0_5 Rh5_4 2.195899 1_555
B0_5 Rh5_5 2.195899 1_555
B0_5 Rh8_5 2.239306 1_555
B0_5 Rh8_4 2.239306 1_555
B0_5 Sc0_5 2.673240 1_555
B0_5 Sc2_7 2.845292 1_545
B0_5 Sc1_5 2.845292 1_555
B0_6 Rh2_6 2.195899 1_555
B0_6 Rh2_7 2.195899 1_554
B0_6 Rh5_6 2.195899 1_555
B0_6 Rh5_7 2.195899 1_554
B0_6 Rh8_6 2.239306 1_555
B0_6 Rh8_7 2.239306 1_554
B0_6 Sc0_6 2.673240 1_555
B0_6 Sc2_4 2.845292 1_555
B0_6 Sc1_6 2.845292 1_555
B0_7 Rh2_7 2.195899 1_555
B0_7 Rh2_6 2.195899 1_555
B0_7 Rh5_7 2.195899 1_555
B0_7 Rh5_6 2.195899 1_555
B0_7 Rh8_7 2.239306 1_555
B0_7 Rh8_6 2.239306 1_555
B0_7 Sc0_7 2.673240 1_555
B0_7 Sc2_5 2.845292 1_555
B0_7 Sc1_7 2.845292 1_555
B1_0 Rh7_0 2.195899 1_555
B1_0 Rh7_1 2.195899 1_554
B1_0 Rh0_1 2.195899 1_554
B1_0 Rh0_0 2.195899 1_555
B1_0 Rh9_0 2.239306 1_555
B1_0 Rh9_1 2.239306 1_554
B1_0 Sc1_0 2.673240 1_555
B1_0 Sc0_4 2.845292 1_455
B1_0 Sc3_0 2.845292 1_555
B1_1 Rh7_1 2.195899 1_555
B1_1 Rh7_0 2.195899 1_555
B1_1 Rh0_1 2.195899 1_555
B1_1 Rh0_0 2.195899 1_555
B1_1 Rh9_1 2.239306 1_555
B1_1 Rh9_0 2.239306 1_555
B1_1 Sc1_1 2.673240 1_555
B1_1 Sc0_5 2.845292 1_455
B1_1 Sc3_1 2.845292 1_555
B1_2 Rh7_2 2.195899 1_555
B1_2 Rh7_3 2.195899 1_554
B1_2 Rh0_2 2.195899 1_555
B1_2 Rh0_3 2.195899 1_554
B1_2 Rh9_2 2.239306 1_555
B1_2 Rh9_3 2.239306 1_554
B1_2 Sc1_2 2.673240 1_555
B1_2 Sc0_6 2.845292 1_455
B1_2 Sc3_2 2.845292 1_555
B1_3 Rh7_3 2.195899 1_555
B1_3 Rh7_2 2.195899 1_555
B1_3 Rh0_3 2.195899 1_555
B1_3 Rh0_2 2.195899 1_555
B1_3 Rh9_3 2.239306 1_555
B1_3 Rh9_2 2.239306 1_555
B1_3 Sc1_3 2.673240 1_555
B1_3 Sc0_7 2.845292 1_455
B1_3 Sc3_3 2.845292 1_555
B1_4 Rh7_4 2.195899 1_555
B1_4 Rh7_5 2.195899 1_554
B1_4 Rh0_5 2.195899 1_554
B1_4 Rh0_4 2.195899 1_555
B1_4 Rh9_4 2.239306 1_555
B1_4 Rh9_5 2.239306 1_554
B1_4 Sc1_4 2.673240 1_555
B1_4 Sc0_0 2.845292 1_555
B1_4 Sc3_4 2.845292 1_555
B1_5 Rh7_5 2.195899 1_555
B1_5 Rh7_4 2.195899 1_555
B1_5 Rh0_5 2.195899 1_555
B1_5 Rh0_4 2.195899 1_555
B1_5 Rh9_5 2.239306 1_555
B1_5 Rh9_4 2.239306 1_555
B1_5 Sc1_5 2.673240 1_555
B1_5 Sc0_1 2.845292 1_555
B1_5 Sc3_5 2.845292 1_555
B1_6 Rh7_6 2.195899 1_555
B1_6 Rh7_7 2.195899 1_554
B1_6 Rh0_6 2.195899 1_555
B1_6 Rh0_7 2.195899 1_554
B1_6 Rh9_6 2.239306 1_555
B1_6 Rh9_7 2.239306 1_554
B1_6 Sc1_6 2.673240 1_555
B1_6 Sc0_2 2.845292 1_555
B1_6 Sc3_6 2.845292 1_555
B1_7 Rh7_7 2.195899 1_555
B1_7 Rh7_6 2.195899 1_555
B1_7 Rh0_7 2.195899 1_555
B1_7 Rh0_6 2.195899 1_555
B1_7 Rh9_7 2.239306 1_555
B1_7 Rh9_6 2.239306 1_555
B1_7 Sc1_7 2.673240 1_555
B1_7 Sc0_3 2.845292 1_555
B1_7 Sc3_7 2.845292 1_555
B2_0 Rh6_0 2.195899 1_555
B2_0 Rh6_1 2.195899 1_554
B2_0 Rh3_0 2.195899 1_555
B2_0 Rh3_1 2.195899 1_554
B2_0 Rh9_4 2.239306 1_555
B2_0 Rh9_5 2.239306 1_554
B2_0 Sc2_0 2.673240 1_555
B2_0 Sc0_0 2.845292 1_555
B2_0 Sc3_4 2.845292 1_555
B2_1 Rh6_1 2.195899 1_555
B2_1 Rh6_0 2.195899 1_555
B2_1 Rh3_1 2.195899 1_555
B2_1 Rh3_0 2.195899 1_555
B2_1 Rh9_4 2.239306 1_555
B2_1 Rh9_5 2.239306 1_555
B2_1 Sc2_1 2.673240 1_555
B2_1 Sc0_1 2.845292 1_555
B2_1 Sc3_5 2.845292 1_555
B2_2 Rh3_2 2.195899 1_555
B2_2 Rh6_2 2.195899 1_555
B2_2 Rh3_3 2.195899 1_554
B2_2 Rh6_3 2.195899 1_554
B2_2 Rh9_6 2.239306 1_555
B2_2 Rh9_7 2.239306 1_554
B2_2 Sc2_2 2.673240 1_555
B2_2 Sc0_2 2.845292 1_555
B2_2 Sc3_6 2.845292 1_555
B2_3 Rh3_3 2.195899 1_555
B2_3 Rh3_2 2.195899 1_555
B2_3 Rh6_3 2.195899 1_555
B2_3 Rh6_2 2.195899 1_555
B2_3 Rh9_7 2.239306 1_555
B2_3 Rh9_6 2.239306 1_555
B2_3 Sc2_3 2.673240 1_555
B2_3 Sc0_3 2.845292 1_555
B2_3 Sc3_7 2.845292 1_555
B2_4 Rh6_4 2.195899 1_555
B2_4 Rh6_5 2.195899 1_554
B2_4 Rh3_4 2.195899 1_555
B2_4 Rh3_5 2.195899 1_554
B2_4 Rh9_0 2.239306 1_655
B2_4 Rh9_1 2.239306 1_654
B2_4 Sc2_4 2.673240 1_555
B2_4 Sc0_4 2.845292 1_555
B2_4 Sc3_0 2.845292 1_655
B2_5 Rh6_5 2.195899 1_555
B2_5 Rh6_4 2.195899 1_555
B2_5 Rh3_5 2.195899 1_555
B2_5 Rh3_4 2.195899 1_555
B2_5 Rh9_1 2.239306 1_655
B2_5 Rh9_0 2.239306 1_655
B2_5 Sc2_5 2.673240 1_555
B2_5 Sc0_5 2.845292 1_555
B2_5 Sc3_1 2.845292 1_655
B2_6 Rh6_6 2.195899 1_555
B2_6 Rh3_6 2.195899 1_555
B2_6 Rh3_7 2.195899 1_554
B2_6 Rh6_7 2.195899 1_554
B2_6 Rh9_2 2.239306 1_655
B2_6 Rh9_3 2.239306 1_654
B2_6 Sc2_6 2.673240 1_555
B2_6 Sc0_6 2.845292 1_555
B2_6 Sc3_2 2.845292 1_655
B2_7 Rh6_7 2.195899 1_555
B2_7 Rh3_7 2.195899 1_555
B2_7 Rh6_6 2.195899 1_555
B2_7 Rh3_6 2.195899 1_555
B2_7 Rh9_3 2.239306 1_655
B2_7 Rh9_2 2.239306 1_655
B2_7 Sc2_7 2.673240 1_555
B2_7 Sc0_7 2.845292 1_555
B2_7 Sc3_3 2.845292 1_655
B3_0 Rh4_0 2.195899 1_555
B3_0 Rh4_1 2.195899 1_554
B3_0 Rh1_0 2.195899 1_555
B3_0 Rh1_1 2.195899 1_554
B3_0 Rh8_2 2.239306 1_555
B3_0 Rh8_3 2.239306 1_554
B3_0 Sc3_0 2.673240 1_555
B3_0 Sc2_0 2.845292 1_555
B3_0 Sc1_2 2.845292 1_555
B3_1 Rh4_1 2.195899 1_555
B3_1 Rh4_0 2.195899 1_555
B3_1 Rh1_1 2.195899 1_555
B3_1 Rh1_0 2.195899 1_555
B3_1 Rh8_3 2.239306 1_555
B3_1 Rh8_2 2.239306 1_555
B3_1 Sc3_1 2.673240 1_555
B3_1 Sc2_1 2.845292 1_555
B3_1 Sc1_3 2.845292 1_555
B3_2 Rh4_2 2.195899 1_555
B3_2 Rh4_3 2.195899 1_554
B3_2 Rh1_2 2.195899 1_555
B3_2 Rh1_3 2.195899 1_554
B3_2 Rh8_0 2.239306 1_565
B3_2 Rh8_1 2.239306 1_564
B3_2 Sc3_2 2.673240 1_555
B3_2 Sc2_2 2.845292 1_555
B3_2 Sc1_0 2.845292 1_565
B3_3 Rh4_3 2.195899 1_555
B3_3 Rh4_2 2.195899 1_555
B3_3 Rh1_3 2.195899 1_555
B3_3 Rh1_2 2.195899 1_555
B3_3 Rh8_1 2.239306 1_565
B3_3 Rh8_0 2.239306 1_565
B3_3 Sc3_3 2.673240 1_555
B3_3 Sc2_3 2.845292 1_555
B3_3 Sc1_1 2.845292 1_565
B3_4 Rh4_4 2.195899 1_555
B3_4 Rh4_5 2.195899 1_554
B3_4 Rh1_4 2.195899 1_555
B3_4 Rh1_5 2.195899 1_554
B3_4 Rh8_6 2.239306 1_555
B3_4 Rh8_7 2.239306 1_554
B3_4 Sc3_4 2.673240 1_555
B3_4 Sc2_4 2.845292 1_555
B3_4 Sc1_6 2.845292 1_555
B3_5 Rh4_5 2.195899 1_555
B3_5 Rh4_4 2.195899 1_555
B3_5 Rh1_5 2.195899 1_555
B3_5 Rh1_4 2.195899 1_555
B3_5 Rh8_7 2.239306 1_555
B3_5 Rh8_6 2.239306 1_555
B3_5 Sc3_5 2.673240 1_555
B3_5 Sc2_5 2.845292 1_555
B3_5 Sc1_7 2.845292 1_555
B3_6 Rh4_6 2.195899 1_555
B3_6 Rh4_7 2.195899 1_554
B3_6 Rh1_7 2.195899 1_554
B3_6 Rh1_6 2.195899 1_555
B3_6 Rh8_4 2.239306 1_565
B3_6 Rh8_5 2.239306 1_564
B3_6 Sc3_6 2.673240 1_555
B3_6 Sc2_6 2.845292 1_555
B3_6 Sc1_4 2.845292 1_565
B3_7 Rh4_7 2.195899 1_555
B3_7 Rh4_6 2.195899 1_555
B3_7 Rh1_7 2.195899 1_555
B3_7 Rh1_6 2.195899 1_555
B3_7 Rh8_5 2.239306 1_565
B3_7 Rh8_4 2.239306 1_565
B3_7 Sc3_7 2.673240 1_555
B3_7 Sc2_7 2.845292 1_555
B3_7 Sc1_5 2.845292 1_565
Rh0_0 Rh9_0 2.722373 1_555
Rh0_0 Sc1_1 2.860280 1_555
Rh0_0 Sc1_0 2.860280 1_555
Rh0_0 Sc0_4 2.949122 1_455
Rh0_0 Sc0_5 2.949122 1_455
Rh0_0 Rh1_2 3.048390 1_545
Rh0_0 Rh2_4 3.048390 1_455
Rh0_1 Rh9_1 2.722373 1_555
Rh0_1 Sc1_1 2.860280 1_555
Rh0_1 Sc1_0 2.860280 1_556
Rh0_1 Sc0_5 2.949122 1_455
Rh0_1 Sc0_4 2.949122 1_456
Rh0_1 Rh1_3 3.048390 1_545
Rh0_1 Rh2_5 3.048390 1_455
Rh0_2 Rh9_2 2.722373 1_555
Rh0_2 Sc1_2 2.860280 1_555
Rh0_2 Sc1_3 2.860280 1_555
Rh0_2 Sc0_6 2.949122 1_455
Rh0_2 Sc0_7 2.949122 1_455
Rh0_2 Rh1_0 3.048390 1_555
Rh0_2 Rh2_6 3.048390 1_455
Rh0_3 Rh9_3 2.722373 1_555
Rh0_3 Sc1_3 2.860280 1_555
Rh0_3 Sc1_2 2.860280 1_556
Rh0_3 Sc0_7 2.949122 1_455
Rh0_3 Sc0_6 2.949122 1_456
Rh0_3 Rh1_1 3.048390 1_555
Rh0_3 Rh2_7 3.048390 1_455
Rh0_4 Rh9_4 2.722373 1_555
Rh0_4 Sc1_4 2.860280 1_555
Rh0_4 Sc1_5 2.860280 1_555
Rh0_4 Sc0_1 2.949122 1_555
Rh0_4 Sc0_0 2.949122 1_555
Rh0_4 Rh1_6 3.048390 1_545
Rh0_4 Rh2_0 3.048390 1_555
Rh0_5 Rh9_5 2.722373 1_555
Rh0_5 Sc1_5 2.860280 1_555
Rh0_5 Sc1_4 2.860280 1_556
Rh0_5 Sc0_1 2.949122 1_555
Rh0_5 Sc0_0 2.949122 1_556
Rh0_5 Rh1_7 3.048390 1_545
Rh0_5 Rh2_1 3.048390 1_555
Rh0_6 Rh9_6 2.722373 1_555
Rh0_6 Sc1_6 2.860280 1_555
Rh0_6 Sc1_7 2.860280 1_555
Rh0_6 Sc0_3 2.949122 1_555
Rh0_6 Sc0_2 2.949122 1_555
Rh0_6 Rh1_4 3.048390 1_555
Rh0_6 Rh2_2 3.048390 1_555
Rh0_7 Rh9_7 2.722373 1_555
Rh0_7 Sc1_7 2.860280 1_555
Rh0_7 Sc1_6 2.860280 1_556
Rh0_7 Sc0_3 2.949122 1_555
Rh0_7 Sc0_2 2.949122 1_556
Rh0_7 Rh1_5 3.048390 1_555
Rh0_7 Rh2_3 3.048390 1_555
Rh1_0 Rh8_2 2.722373 1_555
Rh1_0 Sc3_0 2.860280 1_555
Rh1_0 Sc3_1 2.860280 1_555
Rh1_0 Sc1_3 2.949122 1_555
Rh1_0 Sc1_2 2.949122 1_555
Rh1_0 Rh3_4 3.048390 1_455
Rh1_1 Rh8_3 2.722373 1_555
Rh1_1 Sc3_1 2.860280 1_555
Rh1_1 Sc3_0 2.860280 1_556
Rh1_1 Sc1_3 2.949122 1_555
Rh1_1 Sc1_2 2.949122 1_556
Rh1_1 Rh3_5 3.048390 1_455
Rh1_2 Rh8_0 2.722373 1_565
Rh1_2 Sc3_3 2.860280 1_555
Rh1_2 Sc3_2 2.860280 1_555
Rh1_2 Sc1_1 2.949122 1_565
Rh1_2 Sc1_0 2.949122 1_565
Rh1_2 Rh3_6 3.048390 1_455
Rh1_3 Rh8_1 2.722373 1_565
Rh1_3 Sc3_3 2.860280 1_555
Rh1_3 Sc3_2 2.860280 1_556
Rh1_3 Sc1_1 2.949122 1_565
Rh1_3 Sc1_0 2.949122 1_566
Rh1_3 Rh3_7 3.048390 1_455
Rh1_4 Rh8_6 2.722373 1_555
Rh1_4 Sc3_5 2.860280 1_555
Rh1_4 Sc3_4 2.860280 1_555
Rh1_4 Sc1_6 2.949122 1_555
Rh1_4 Sc1_7 2.949122 1_555
Rh1_4 Rh3_0 3.048390 1_555
Rh1_5 Rh8_7 2.722373 1_555
Rh1_5 Sc3_5 2.860280 1_555
Rh1_5 Sc3_4 2.860280 1_556
Rh1_5 Sc1_7 2.949122 1_555
Rh1_5 Sc1_6 2.949122 1_556
Rh1_5 Rh3_1 3.048390 1_555
Rh1_6 Rh8_4 2.722373 1_565
Rh1_6 Sc3_7 2.860280 1_555
Rh1_6 Sc3_6 2.860280 1_555
Rh1_6 Sc1_5 2.949122 1_565
Rh1_6 Sc1_4 2.949122 1_565
Rh1_6 Rh3_2 3.048390 1_555
Rh1_7 Rh8_5 2.722373 1_565
Rh1_7 Sc3_7 2.860280 1_555
Rh1_7 Sc3_6 2.860280 1_556
Rh1_7 Sc1_5 2.949122 1_565
Rh1_7 Sc1_4 2.949122 1_566
Rh1_7 Rh3_3 3.048390 1_555
Rh2_0 Rh8_0 2.722373 1_555
Rh2_0 Sc0_1 2.860280 1_555
Rh2_0 Sc0_0 2.860280 1_555
Rh2_0 Sc2_3 2.949122 1_545
Rh2_0 Sc2_2 2.949122 1_545
Rh2_0 Rh3_2 3.048390 1_545
Rh2_1 Rh8_1 2.722373 1_555
Rh2_1 Sc0_1 2.860280 1_555
Rh2_1 Sc0_0 2.860280 1_556
Rh2_1 Sc2_3 2.949122 1_545
Rh2_1 Sc2_2 2.949122 1_546
Rh2_1 Rh3_3 3.048390 1_545
Rh2_2 Rh8_2 2.722373 1_555
Rh2_2 Sc0_3 2.860280 1_555
Rh2_2 Sc0_2 2.860280 1_555
Rh2_2 Sc2_0 2.949122 1_555
Rh2_2 Sc2_1 2.949122 1_555
Rh2_2 Rh3_0 3.048390 1_555
Rh2_3 Rh8_3 2.722373 1_555
Rh2_3 Sc0_3 2.860280 1_555
Rh2_3 Sc0_2 2.860280 1_556
Rh2_3 Sc2_1 2.949122 1_555
Rh2_3 Sc2_0 2.949122 1_556
Rh2_3 Rh3_1 3.048390 1_555
Rh2_4 Rh8_4 2.722373 1_555
Rh2_4 Sc0_4 2.860280 1_555
Rh2_4 Sc0_5 2.860280 1_555
Rh2_4 Sc2_6 2.949122 1_545
Rh2_4 Sc2_7 2.949122 1_545
Rh2_4 Rh3_6 3.048390 1_545
Rh2_5 Rh8_5 2.722373 1_555
Rh2_5 Sc0_5 2.860280 1_555
Rh2_5 Sc0_4 2.860280 1_556
Rh2_5 Sc2_7 2.949122 1_545
Rh2_5 Sc2_6 2.949122 1_546
Rh2_5 Rh3_7 3.048390 1_545
Rh2_6 Rh8_6 2.722373 1_555
Rh2_6 Sc0_6 2.860280 1_555
Rh2_6 Sc0_7 2.860280 1_555
Rh2_6 Sc2_4 2.949122 1_555
Rh2_6 Sc2_5 2.949122 1_555
Rh2_6 Rh3_4 3.048390 1_555
Rh2_7 Rh8_7 2.722373 1_555
Rh2_7 Sc0_7 2.860280 1_555
Rh2_7 Sc0_6 2.860280 1_556
Rh2_7 Sc2_5 2.949122 1_555
Rh2_7 Sc2_4 2.949122 1_556
Rh2_7 Rh3_5 3.048390 1_555
Rh3_0 Rh9_4 2.722373 1_555
Rh3_0 Sc2_0 2.860280 1_555
Rh3_0 Sc2_1 2.860280 1_555
Rh3_0 Sc3_4 2.949122 1_555
Rh3_0 Sc3_5 2.949122 1_555
Rh3_1 Rh9_5 2.722373 1_555
Rh3_1 Sc2_1 2.860280 1_555
Rh3_1 Sc2_0 2.860280 1_556
Rh3_1 Sc3_5 2.949122 1_555
Rh3_1 Sc3_4 2.949122 1_556
Rh3_2 Rh9_6 2.722373 1_555
Rh3_2 Sc2_2 2.860280 1_555
Rh3_2 Sc2_3 2.860280 1_555
Rh3_2 Sc3_6 2.949122 1_555
Rh3_2 Sc3_7 2.949122 1_555
Rh3_3 Rh9_7 2.722373 1_555
Rh3_3 Sc2_3 2.860280 1_555
Rh3_3 Sc2_2 2.860280 1_556
Rh3_3 Sc3_7 2.949122 1_555
Rh3_3 Sc3_6 2.949122 1_556
Rh3_4 Rh9_0 2.722373 1_655
Rh3_4 Sc2_4 2.860280 1_555
Rh3_4 Sc2_5 2.860280 1_555
Rh3_4 Sc3_0 2.949122 1_655
Rh3_4 Sc3_1 2.949122 1_655
Rh3_5 Rh9_1 2.722373 1_655
Rh3_5 Sc2_5 2.860280 1_555
Rh3_5 Sc2_4 2.860280 1_556
Rh3_5 Sc3_1 2.949122 1_655
Rh3_5 Sc3_0 2.949122 1_656
Rh3_6 Rh9_2 2.722373 1_655
Rh3_6 Sc2_6 2.860280 1_555
Rh3_6 Sc2_7 2.860280 1_555
Rh3_6 Sc3_3 2.949122 1_655
Rh3_6 Sc3_2 2.949122 1_655
Rh3_7 Rh9_3 2.722373 1_655
Rh3_7 Sc2_7 2.860280 1_555
Rh3_7 Sc2_6 2.860280 1_556
Rh3_7 Sc3_3 2.949122 1_655
Rh3_7 Sc3_2 2.949122 1_656
Rh4_0 Rh8_2 2.722373 1_555
Rh4_0 Sc3_1 2.860280 1_555
Rh4_0 Sc3_0 2.860280 1_555
Rh4_0 Sc2_0 2.949122 1_555
Rh4_0 Sc2_1 2.949122 1_555
Rh4_0 Rh7_0 3.048390 1_555
Rh4_0 Rh6_0 3.048390 1_555
Rh4_1 Rh8_3 2.722373 1_555
Rh4_1 Sc3_1 2.860280 1_555
Rh4_1 Sc3_0 2.860280 1_556
Rh4_1 Sc2_1 2.949122 1_555
Rh4_1 Sc2_0 2.949122 1_556
Rh4_1 Rh7_1 3.048390 1_555
Rh4_1 Rh6_1 3.048390 1_555
Rh4_2 Rh8_0 2.722373 1_565
Rh4_2 Sc3_2 2.860280 1_555
Rh4_2 Sc3_3 2.860280 1_555
Rh4_2 Sc2_3 2.949122 1_555
Rh4_2 Sc2_2 2.949122 1_555
Rh4_2 Rh6_2 3.048390 1_555
Rh4_2 Rh7_2 3.048390 1_555
Rh4_3 Rh8_1 2.722373 1_565
Rh4_3 Sc3_3 2.860280 1_555
Rh4_3 Sc3_2 2.860280 1_556
Rh4_3 Sc2_3 2.949122 1_555
Rh4_3 Sc2_2 2.949122 1_556
Rh4_3 Rh6_3 3.048390 1_555
Rh4_3 Rh7_3 3.048390 1_555
Rh4_4 Rh8_6 2.722373 1_555
Rh4_4 Sc3_5 2.860280 1_555
Rh4_4 Sc3_4 2.860280 1_555
Rh4_4 Sc2_4 2.949122 1_555
Rh4_4 Sc2_5 2.949122 1_555
Rh4_4 Rh7_4 3.048390 1_555
Rh4_4 Rh6_4 3.048390 1_555
Rh4_5 Rh8_7 2.722373 1_555
Rh4_5 Sc3_5 2.860280 1_555
Rh4_5 Sc3_4 2.860280 1_556
Rh4_5 Sc2_5 2.949122 1_555
Rh4_5 Sc2_4 2.949122 1_556
Rh4_5 Rh7_5 3.048390 1_555
Rh4_5 Rh6_5 3.048390 1_555
Rh4_6 Rh8_4 2.722373 1_565
Rh4_6 Sc3_7 2.860280 1_555
Rh4_6 Sc3_6 2.860280 1_555
Rh4_6 Sc2_6 2.949122 1_555
Rh4_6 Sc2_7 2.949122 1_555
Rh4_6 Rh7_6 3.048390 1_555
Rh4_6 Rh6_6 3.048390 1_555
Rh4_7 Rh8_5 2.722373 1_565
Rh4_7 Sc3_7 2.860280 1_555
Rh4_7 Sc3_6 2.860280 1_556
Rh4_7 Sc2_7 2.949122 1_555
Rh4_7 Sc2_6 2.949122 1_556
Rh4_7 Rh7_7 3.048390 1_555
Rh4_7 Rh6_7 3.048390 1_555
Rh5_0 Rh8_0 2.722373 1_555
Rh5_0 Sc0_0 2.860280 1_555
Rh5_0 Sc0_1 2.860280 1_555
Rh5_0 Sc1_1 2.949122 1_555
Rh5_0 Sc1_0 2.949122 1_555
Rh5_0 Rh7_0 3.048390 1_555
Rh5_0 Rh6_0 3.048390 1_555
Rh5_1 Rh8_1 2.722373 1_555
Rh5_1 Sc0_1 2.860280 1_555
Rh5_1 Sc0_0 2.860280 1_556
Rh5_1 Sc1_1 2.949122 1_555
Rh5_1 Sc1_0 2.949122 1_556
Rh5_1 Rh7_1 3.048390 1_555
Rh5_1 Rh6_1 3.048390 1_555
Rh5_2 Rh8_2 2.722373 1_555
Rh5_2 Sc0_2 2.860280 1_555
Rh5_2 Sc0_3 2.860280 1_555
Rh5_2 Sc1_2 2.949122 1_555
Rh5_2 Sc1_3 2.949122 1_555
Rh5_2 Rh7_2 3.048390 1_555
Rh5_2 Rh6_2 3.048390 1_555
Rh5_3 Rh8_3 2.722373 1_555
Rh5_3 Sc0_3 2.860280 1_555
Rh5_3 Sc0_2 2.860280 1_556
Rh5_3 Sc1_3 2.949122 1_555
Rh5_3 Sc1_2 2.949122 1_556
Rh5_3 Rh7_3 3.048390 1_555
Rh5_3 Rh6_3 3.048390 1_555
Rh5_4 Rh8_4 2.722373 1_555
Rh5_4 Sc0_5 2.860280 1_555
Rh5_4 Sc0_4 2.860280 1_555
Rh5_4 Sc1_4 2.949122 1_555
Rh5_4 Sc1_5 2.949122 1_555
Rh5_4 Rh7_4 3.048390 1_555
Rh5_4 Rh6_4 3.048390 1_555
Rh5_5 Rh8_5 2.722373 1_555
Rh5_5 Sc0_5 2.860280 1_555
Rh5_5 Sc0_4 2.860280 1_556
Rh5_5 Sc1_5 2.949122 1_555
Rh5_5 Sc1_4 2.949122 1_556
Rh5_5 Rh7_5 3.048390 1_555
Rh5_5 Rh6_5 3.048390 1_555
Rh5_6 Rh8_6 2.722373 1_555
Rh5_6 Sc0_7 2.860280 1_555
Rh5_6 Sc0_6 2.860280 1_555
Rh5_6 Sc1_6 2.949122 1_555
Rh5_6 Sc1_7 2.949122 1_555
Rh5_6 Rh7_6 3.048390 1_555
Rh5_6 Rh6_6 3.048390 1_555
Rh5_7 Rh8_7 2.722373 1_555
Rh5_7 Sc0_7 2.860280 1_555
Rh5_7 Sc0_6 2.860280 1_556
Rh5_7 Sc1_7 2.949122 1_555
Rh5_7 Sc1_6 2.949122 1_556
Rh5_7 Rh7_7 3.048390 1_555
Rh5_7 Rh6_7 3.048390 1_555
Rh6_0 Rh9_4 2.722373 1_555
Rh6_0 Sc2_0 2.860280 1_555
Rh6_0 Sc2_1 2.860280 1_555
Rh6_0 Sc0_1 2.949122 1_555
Rh6_0 Sc0_0 2.949122 1_555
Rh6_1 Rh9_5 2.722373 1_555
Rh6_1 Sc2_1 2.860280 1_555
Rh6_1 Sc2_0 2.860280 1_556
Rh6_1 Sc0_1 2.949122 1_555
Rh6_1 Sc0_0 2.949122 1_556
Rh6_2 Rh9_6 2.722373 1_555
Rh6_2 Sc2_2 2.860280 1_555
Rh6_2 Sc2_3 2.860280 1_555
Rh6_2 Sc0_2 2.949122 1_555
Rh6_2 Sc0_3 2.949122 1_555
Rh6_3 Rh9_7 2.722373 1_555
Rh6_3 Sc2_3 2.860280 1_555
Rh6_3 Sc2_2 2.860280 1_556
Rh6_3 Sc0_3 2.949122 1_555
Rh6_3 Sc0_2 2.949122 1_556
Rh6_4 Rh9_0 2.722373 1_655
Rh6_4 Sc2_4 2.860280 1_555
Rh6_4 Sc2_5 2.860280 1_555
Rh6_4 Sc0_5 2.949122 1_555
Rh6_4 Sc0_4 2.949122 1_555
Rh6_5 Rh9_1 2.722373 1_655
Rh6_5 Sc2_5 2.860280 1_555
Rh6_5 Sc2_4 2.860280 1_556
Rh6_5 Sc0_5 2.949122 1_555
Rh6_5 Sc0_4 2.949122 1_556
Rh6_6 Rh9_2 2.722373 1_655
Rh6_6 Sc2_7 2.860280 1_555
Rh6_6 Sc2_6 2.860280 1_555
Rh6_6 Sc0_7 2.949122 1_555
Rh6_6 Sc0_6 2.949122 1_555
Rh6_7 Rh9_3 2.722373 1_655
Rh6_7 Sc2_7 2.860280 1_555
Rh6_7 Sc2_6 2.860280 1_556
Rh6_7 Sc0_7 2.949122 1_555
Rh6_7 Sc0_6 2.949122 1_556
Rh7_0 Rh9_0 2.722373 1_555
Rh7_0 Sc1_1 2.860280 1_555
Rh7_0 Sc1_0 2.860280 1_555
Rh7_0 Sc3_1 2.949122 1_555
Rh7_0 Sc3_0 2.949122 1_555
Rh7_1 Rh9_1 2.722373 1_555
Rh7_1 Sc1_1 2.860280 1_555
Rh7_1 Sc1_0 2.860280 1_556
Rh7_1 Sc3_1 2.949122 1_555
Rh7_1 Sc3_0 2.949122 1_556
Rh7_2 Rh9_2 2.722373 1_555
Rh7_2 Sc1_3 2.860280 1_555
Rh7_2 Sc1_2 2.860280 1_555
Rh7_2 Sc3_2 2.949122 1_555
Rh7_2 Sc3_3 2.949122 1_555
Rh7_3 Rh9_3 2.722373 1_555
Rh7_3 Sc1_3 2.860280 1_555
Rh7_3 Sc1_2 2.860280 1_556
Rh7_3 Sc3_3 2.949122 1_555
Rh7_3 Sc3_2 2.949122 1_556
Rh7_4 Rh9_4 2.722373 1_555
Rh7_4 Sc1_4 2.860280 1_555
Rh7_4 Sc1_5 2.860280 1_555
Rh7_4 Sc3_5 2.949122 1_555
Rh7_4 Sc3_4 2.949122 1_555
Rh7_5 Rh9_5 2.722373 1_555
Rh7_5 Sc1_5 2.860280 1_555
Rh7_5 Sc1_4 2.860280 1_556
Rh7_5 Sc3_5 2.949122 1_555
Rh7_5 Sc3_4 2.949122 1_556
Rh7_6 Rh9_6 2.722373 1_555
Rh7_6 Sc1_6 2.860280 1_555
Rh7_6 Sc1_7 2.860280 1_555
Rh7_6 Sc3_7 2.949122 1_555
Rh7_6 Sc3_6 2.949122 1_555
Rh7_7 Rh9_7 2.722373 1_555
Rh7_7 Sc1_7 2.860280 1_555
Rh7_7 Sc1_6 2.860280 1_556
Rh7_7 Sc3_7 2.949122 1_555
Rh7_7 Sc3_6 2.949122 1_556
Rh8_0 Sc1_1 2.795003 1_555
Rh8_0 Sc1_0 2.795003 1_555
Rh8_0 Sc2_3 2.795003 1_545
Rh8_0 Sc2_2 2.795003 1_545
Rh8_1 Sc1_1 2.795003 1_555
Rh8_1 Sc1_0 2.795003 1_556
Rh8_1 Sc2_3 2.795003 1_545
Rh8_1 Sc2_2 2.795003 1_546
Rh8_2 Sc2_0 2.795003 1_555
Rh8_2 Sc2_1 2.795003 1_555
Rh8_2 Sc1_2 2.795003 1_555
Rh8_2 Sc1_3 2.795003 1_555
Rh8_3 Sc2_1 2.795003 1_555
Rh8_3 Sc1_3 2.795003 1_555
Rh8_3 Sc2_0 2.795003 1_556
Rh8_3 Sc1_2 2.795003 1_556
Rh8_4 Sc1_4 2.795003 1_555
Rh8_4 Sc1_5 2.795003 1_555
Rh8_4 Sc2_7 2.795003 1_545
Rh8_4 Sc2_6 2.795003 1_545
Rh8_5 Sc1_5 2.795003 1_555
Rh8_5 Sc2_7 2.795003 1_545
Rh8_5 Sc2_6 2.795003 1_546
Rh8_5 Sc1_4 2.795003 1_556
Rh8_6 Sc2_4 2.795003 1_555
Rh8_6 Sc2_5 2.795003 1_555
Rh8_6 Sc1_6 2.795003 1_555
Rh8_6 Sc1_7 2.795003 1_555
Rh8_7 Sc2_5 2.795003 1_555
Rh8_7 Sc2_4 2.795003 1_556
Rh8_7 Sc1_7 2.795003 1_555
Rh8_7 Sc1_6 2.795003 1_556
Rh9_0 Sc0_5 2.795003 1_455
Rh9_0 Sc0_4 2.795003 1_455
Rh9_0 Sc3_1 2.795003 1_555
Rh9_0 Sc3_0 2.795003 1_555
Rh9_1 Sc0_5 2.795003 1_455
Rh9_1 Sc3_1 2.795003 1_555
Rh9_1 Sc0_4 2.795003 1_456
Rh9_1 Sc3_0 2.795003 1_556
Rh9_2 Sc3_2 2.795003 1_555
Rh9_2 Sc3_3 2.795003 1_555
Rh9_2 Sc0_6 2.795003 1_455
Rh9_2 Sc0_7 2.795003 1_455
Rh9_3 Sc3_3 2.795003 1_555
Rh9_3 Sc0_7 2.795003 1_455
Rh9_3 Sc0_6 2.795003 1_456
Rh9_3 Sc3_2 2.795003 1_556
Rh9_4 Sc0_0 2.795003 1_555
Rh9_4 Sc0_1 2.795003 1_555
Rh9_4 Sc3_5 2.795003 1_555
Rh9_4 Sc3_4 2.795003 1_555
Rh9_5 Sc0_1 2.795003 1_555
Rh9_5 Sc0_0 2.795003 1_556
Rh9_5 Sc3_5 2.795003 1_555
Rh9_5 Sc3_4 2.795003 1_556
Rh9_6 Sc0_3 2.795003 1_555
Rh9_6 Sc0_2 2.795003 1_555
Rh9_6 Sc3_7 2.795003 1_555
Rh9_6 Sc3_6 2.795003 1_555
Rh9_7 Sc0_3 2.795003 1_555
Rh9_7 Sc0_2 2.795003 1_556
Rh9_7 Sc3_7 2.795003 1_555
Rh9_7 Sc3_6 2.795003 1_556
