# generated using pymatgen
data_AgBTe4C2(O3F10)2
_symmetry_space_group_name_H-M   'P 1'
_cell_length_a   10.57489100
_cell_length_b   13.47168524
_cell_length_c   16.96342350
_cell_angle_alpha   87.73804851
_cell_angle_beta   76.55582635
_cell_angle_gamma   89.14919669
_symmetry_Int_Tables_number   1
_chemical_formula_structural   AgBTe4C2(O3F10)2
_chemical_formula_sum   'Ag4 B4 Te16 C8 O24 F80'
_cell_volume   2348.54182339
_cell_formula_units_Z   4
loop_
 _symmetry_equiv_pos_site_id
 _symmetry_equiv_pos_as_xyz
  1  'x, y, z'
loop_
 _atom_site_type_symbol
 _atom_site_label
 _atom_site_symmetry_multiplicity
 _atom_site_fract_x
 _atom_site_fract_y
 _atom_site_fract_z
 _atom_site_occupancy
  Ag  Ag0  1  0.00000000  0.00000000  0.50000000  1
  Ag  Ag1  1  0.78837300  0.73922100  0.94148100  1
  Ag  Ag2  1  0.50000000  0.50000000  0.50000000  1
  Ag  Ag3  1  0.21162700  0.26077900  0.05851900  1
  B  B0  1  0.05189200  0.49918100  0.74936500  1
  B  B1  1  0.42713100  0.96981500  0.26053800  1
  B  B2  1  0.57286900  0.03018500  0.73946200  1
  B  B3  1  0.94810800  0.50081900  0.25063500  1
  Te  Te0  1  0.20741500  0.55243400  0.13744800  1
  Te  Te1  1  0.45165100  0.17398600  0.32344100  1
  Te  Te2  1  0.79258500  0.44756600  0.86255200  1
  Te  Te3  1  0.28066900  0.48285900  0.82900600  1
  Te  Te4  1  0.11494600  0.37337800  0.59934000  1
  Te  Te5  1  0.71933100  0.51714100  0.17099400  1
  Te  Te6  1  0.63427000  0.17847900  0.59539200  1
  Te  Te7  1  0.88505400  0.62662200  0.40066000  1
  Te  Te8  1  0.30993200  0.07104900  0.85094600  1
  Te  Te9  1  0.36573000  0.82152100  0.40460800  1
  Te  Te10  1  0.54834900  0.82601400  0.67655900  1
  Te  Te11  1  0.69006800  0.92895100  0.14905400  1
  Te  Te12  1  0.78964100  0.05329200  0.82944200  1
  Te  Te13  1  0.02524800  0.71314500  0.68995100  1
  Te  Te14  1  0.97475200  0.28685500  0.31004900  1
  Te  Te15  1  0.21035900  0.94670800  0.17055800  1
  C  C0  1  0.41650500  0.49778500  0.39961300  1
  C  C1  1  0.58946000  0.73571900  0.94026200  1
  C  C2  1  0.11152300  0.03787400  0.58103700  1
  C  C3  1  0.88847700  0.96212600  0.41896300  1
  C  C4  1  0.58349500  0.50221500  0.60038700  1
  C  C5  1  0.41054000  0.26428100  0.05973800  1
  C  C6  1  0.01892100  0.23016800  0.05411400  1
  C  C7  1  0.98107900  0.76983200  0.94588600  1
  O  O0  1  0.36946800  0.49884600  0.34588300  1
  O  O1  1  0.48285900  0.73849400  0.93826100  1
  O  O2  1  0.35890600  0.94106700  0.34486100  1
  O  O3  1  0.43759100  0.06806100  0.75308900  1
  O  O4  1  0.07867500  0.54583200  0.23479900  1
  O  O5  1  0.11711400  0.48343200  0.66373000  1
  O  O6  1  0.91636300  0.20912400  0.05166200  1
  O  O7  1  0.17229800  0.05584900  0.62557700  1
  O  O8  1  0.62941400  0.07449600  0.80181600  1
  O  O9  1  0.88042300  0.54926800  0.19202600  1
  O  O10  1  0.63053200  0.50115400  0.65411700  1
  O  O11  1  0.11957700  0.45073200  0.80797400  1
  O  O12  1  0.37058600  0.92550400  0.19818400  1
  O  O13  1  0.82770200  0.94415100  0.37442300  1
  O  O14  1  0.41652400  0.07930000  0.25237500  1
  O  O15  1  0.04947400  0.60803100  0.76163900  1
  O  O16  1  0.92132500  0.45416800  0.76520100  1
  O  O17  1  0.56240900  0.93193900  0.24691100  1
  O  O18  1  0.51714100  0.26150600  0.06173900  1
  O  O19  1  0.58347600  0.92070000  0.74762500  1
  O  O20  1  0.08363700  0.79087600  0.94833800  1
  O  O21  1  0.64109400  0.05893300  0.65513900  1
  O  O22  1  0.88288600  0.51656800  0.33627000  1
  O  O23  1  0.95052600  0.39196900  0.23836100  1
  F  F0  1  0.20938400  0.58769100  0.89573900  1
  F  F1  1  0.34346100  0.55868700  0.04371400  1
  F  F2  1  0.88076400  0.52915800  0.92092800  1
  F  F3  1  0.87385900  0.75445500  0.76508600  1
  F  F4  1  0.21650000  0.96785200  0.82029600  1
  F  F5  1  0.88159300  0.20185400  0.25966500  1
  F  F6  1  0.38837400  0.79275500  0.74646400  1
  F  F7  1  0.30911400  0.63053200  0.18688800  1
  F  F8  1  0.39229100  0.97872100  0.90895700  1
  F  F9  1  0.12614100  0.24554500  0.23491400  1
  F  F10  1  0.33415400  0.57197300  0.73919100  1
  F  F11  1  0.73480700  0.93104300  0.88571100  1
  F  F12  1  0.81158400  0.20155600  0.58980300  1
  F  F13  1  0.61162600  0.20724500  0.25353600  1
  F  F14  1  0.71106500  0.56425700  0.83269300  1
  F  F15  1  0.65653900  0.44131300  0.95628600  1
  F  F16  1  0.18841600  0.79844400  0.41019700  1
  F  F17  1  0.37259800  0.27247000  0.26955500  1
  F  F18  1  0.84354100  0.54227500  0.49395200  1
  F  F19  1  0.66584600  0.42802700  0.26080900  1
  F  F20  1  0.79061600  0.41230900  0.10426100  1
  F  F21  1  0.28893500  0.43574300  0.16730700  1
  F  F22  1  0.17540000  0.07790600  0.94612100  1
  F  F23  1  0.13196200  0.01619300  0.26431600  1
  F  F24  1  0.53907500  0.83618000  0.41123500  1
  F  F25  1  0.05497800  0.96729400  0.13648100  1
  F  F26  1  0.87842600  0.73341200  0.46978500  1
  F  F27  1  0.78350000  0.03214800  0.17970400  1
  F  F28  1  0.06193500  0.61416700  0.39988600  1
  F  F29  1  0.15645900  0.45772500  0.50604800  1
  F  F30  1  0.26519300  0.06895700  0.11428900  1
  F  F31  1  0.53687800  0.08625300  0.38308000  1
  F  F32  1  0.48165600  0.27465100  0.39110300  1
  F  F33  1  0.51834400  0.72534900  0.60889700  1
  F  F34  1  0.92260900  0.64074600  0.63604000  1
  F  F35  1  0.27332800  0.87877600  0.07497400  1
  F  F36  1  0.82356100  0.31267400  0.38942600  1
  F  F37  1  0.86071900  0.17130000  0.77633100  1
  F  F38  1  0.00053700  0.17616500  0.37679200  1
  F  F39  1  0.24427100  0.39246600  0.91935500  1
  F  F40  1  0.94502200  0.03270600  0.86351900  1
  F  F41  1  0.75572900  0.60753400  0.08064500  1
  F  F42  1  0.12157400  0.26658800  0.53021500  1
  F  F43  1  0.69088600  0.36946800  0.81311200  1
  F  F44  1  0.93806500  0.38583300  0.60011400  1
  F  F45  1  0.36532000  0.70322600  0.46823800  1
  F  F46  1  0.29641800  0.35519400  0.58704500  1
  F  F47  1  0.58608300  0.25895400  0.68562100  1
  F  F48  1  0.46312200  0.91374700  0.61692000  1
  F  F49  1  0.41391700  0.74104600  0.31437900  1
  F  F50  1  0.46092500  0.16382000  0.58876500  1
  F  F51  1  0.70747300  0.84758600  0.60054400  1
  F  F52  1  0.62740200  0.72753000  0.73044500  1
  F  F53  1  0.13667900  0.66575100  0.09550400  1
  F  F54  1  0.61334500  0.82394800  0.10607200  1
  F  F55  1  0.11840700  0.79814600  0.74033500  1
  F  F56  1  0.31006800  0.88985700  0.50139200  1
  F  F57  1  0.99946300  0.82383500  0.62320800  1
  F  F58  1  0.08312100  0.27869900  0.68565400  1
  F  F59  1  0.68993200  0.11014300  0.49860800  1
  F  F60  1  0.86332100  0.33424900  0.90449600  1
  F  F61  1  0.36787700  0.38049200  0.76545400  1
  F  F62  1  0.43816600  0.50883900  0.85697300  1
  F  F63  1  0.78499300  0.83557400  0.19676400  1
  F  F64  1  0.38665500  0.17605200  0.89392800  1
  F  F65  1  0.11923600  0.47084200  0.07907200  1
  F  F66  1  0.13928100  0.82870000  0.22366900  1
  F  F67  1  0.17643900  0.68732600  0.61057400  1
  F  F68  1  0.60770900  0.02127900  0.09104300  1
  F  F69  1  0.56183400  0.49116100  0.14302700  1
  F  F70  1  0.21500700  0.16442600  0.80323600  1
  F  F71  1  0.82460000  0.92209400  0.05387900  1
  F  F72  1  0.72667200  0.12122400  0.92502600  1
  F  F73  1  0.70358200  0.64480600  0.41295500  1
  F  F74  1  0.07739100  0.35925400  0.36396000  1
  F  F75  1  0.86803800  0.98380700  0.73568400  1
  F  F76  1  0.63212300  0.61950800  0.23454600  1
  F  F77  1  0.91687900  0.72130100  0.31434600  1
  F  F78  1  0.63468000  0.29677400  0.53176200  1
  F  F79  1  0.29252700  0.15241400  0.39945600  1
loop_
_geom_bond_atom_site_label_1
_geom_bond_atom_site_label_2
_geom_bond_distance
_geom_bond_site_symmetry_2
Ag0 C2 2.089970 1_555
Ag0 C3 2.089970 1_445
Ag1 C7 2.103961 1_555
Ag1 C1 2.109632 1_555
Ag1 F11 2.811855 1_555
Ag1 F41 2.854464 1_556
Ag1 F3 2.917566 1_555
Ag2 C4 2.093881 1_555
Ag2 C0 2.093881 1_555
Ag3 C6 2.103961 1_555
Ag3 C5 2.109632 1_555
Ag3 F30 2.811855 1_555
Ag3 F39 2.854464 1_554
Ag3 F9 2.917566 1_555
B0 O5 1.478189 1_555
B0 O16 1.478459 1_455
B0 O11 1.480734 1_555
B0 O15 1.488229 1_555
B1 O12 1.478934 1_555
B1 O14 1.481018 1_565
B1 O17 1.481260 1_555
B1 O2 1.483667 1_555
B2 O8 1.478934 1_555
B2 O19 1.481018 1_545
B2 O3 1.481260 1_555
B2 O21 1.483667 1_555
B3 O22 1.478189 1_555
B3 O4 1.478459 1_655
B3 O9 1.480734 1_555
B3 O23 1.488229 1_555
C0 O0 1.134868 1_555
C1 O1 1.135686 1_555
C2 O7 1.134638 1_555
C3 O13 1.134638 1_555
C4 O10 1.134868 1_555
C5 O18 1.135686 1_555
C6 O6 1.135502 1_455
C7 O20 1.135502 1_655
O2 Te9 1.878243 1_555
O3 Te8 1.881823 1_555
O4 Te0 1.880179 1_555
O5 Te4 1.879419 1_555
O8 Te12 1.875215 1_555
O9 Te5 1.879713 1_555
O11 Te3 1.879713 1_555
O12 Te15 1.875215 1_555
O14 Te1 1.887342 1_555
O15 Te13 1.883577 1_555
O16 Te2 1.880179 1_555
O17 Te11 1.881823 1_555
O19 Te10 1.887342 1_555
O21 Te6 1.878243 1_555
O22 Te7 1.879419 1_555
O23 Te14 1.883577 1_555
F0 Te3 1.882019 1_555
F0 F62 2.579363 1_555
F1 Te0 1.880013 1_555
F1 F21 2.581352 1_555
F1 F7 2.594670 1_555
F1 F53 2.597470 1_555
F1 F65 2.597806 1_555
F2 Te2 1.898439 1_555
F2 F60 2.665026 1_555
F3 Te13 1.891524 1_655
F3 F55 2.594471 1_655
F3 F57 2.608267 1_555
F4 Te8 1.875105 1_565
F5 Te14 1.874713 1_555
F5 F9 2.594471 1_655
F6 Te10 1.875260 1_555
F7 Te0 1.868040 1_555
F8 Te8 1.882480 1_565
F9 Te14 1.891524 1_455
F10 Te3 1.886131 1_555
F10 F62 2.604824 1_555
F10 F61 2.633569 1_555
F11 Te12 1.899085 1_565
F11 F40 2.572890 1_565
F12 Te6 1.885171 1_555
F12 F59 2.586021 1_555
F12 F78 2.607682 1_555
F13 Te1 1.875260 1_555
F13 F32 2.607326 1_555
F13 F17 2.620816 1_555
F14 Te2 1.889685 1_555
F14 F15 2.581352 1_555
F14 F2 2.617675 1_555
F15 Te2 1.880013 1_555
F15 F43 2.594670 1_555
F15 F60 2.597470 1_555
F15 F2 2.597806 1_555
F16 Te9 1.885171 1_555
F16 F56 2.586021 1_555
F16 F45 2.607682 1_555
F17 Te1 1.876522 1_555
F17 F32 2.587223 1_555
F18 Te7 1.881004 1_555
F18 F73 2.592559 1_555
F18 F26 2.609409 1_555
F18 O22 2.645579 1_555
F19 Te5 1.886131 1_555
F19 F69 2.604824 1_555
F19 F76 2.633569 1_555
F20 Te5 1.882019 1_555
F20 F69 2.579363 1_555
F21 Te0 1.889685 1_555
F21 F65 2.617675 1_555
F22 Te8 1.891803 1_555
F22 F64 2.568738 1_555
F22 F70 2.593899 1_555
F22 F4 2.596555 1_545
F22 F8 2.597413 1_545
F23 Te15 1.890624 1_545
F23 F25 2.597839 1_545
F23 F66 2.639730 1_545
F24 Te9 1.876229 1_555
F24 F45 2.579563 1_555
F24 F56 2.653244 1_555
F25 Te15 1.877884 1_555
F25 F30 2.572890 1_565
F25 F35 2.595851 1_555
F25 F66 2.610358 1_555
F26 Te7 1.881896 1_555
F26 F77 2.584180 1_555
F26 F28 2.596203 1_655
F26 F73 2.599627 1_555
F27 Te11 1.875105 1_545
F27 F71 2.596555 1_545
F28 Te7 1.872570 1_455
F29 Te4 1.881004 1_555
F29 F46 2.592559 1_555
F29 F42 2.609409 1_555
F29 O5 2.645579 1_555
F30 Te15 1.899085 1_545
F31 Te1 1.879004 1_555
F31 F32 2.597590 1_555
F32 Te1 1.887366 1_555
F32 F79 2.584475 1_555
F33 Te10 1.887366 1_555
F33 F51 2.584475 1_555
F33 F52 2.587223 1_555
F33 F48 2.597590 1_555
F33 F6 2.607326 1_555
F34 Te13 1.878593 1_655
F34 F57 2.593549 1_555
F35 Te15 1.872684 1_555
F35 O12 2.635353 1_555
F36 Te14 1.873422 1_555
F36 F38 2.583174 1_655
F37 Te12 1.873916 1_555
F37 F40 2.610358 1_555
F37 F75 2.639730 1_545
F38 Te14 1.891569 1_455
F38 F74 2.593549 1_555
F38 F5 2.597004 1_455
F38 F9 2.608267 1_555
F39 Te3 1.890052 1_555
F39 F62 2.595652 1_555
F39 O11 2.633522 1_555
F39 F61 2.643949 1_555
F40 Te12 1.877884 1_555
F40 F72 2.595851 1_555
F40 F75 2.597839 1_545
F41 Te5 1.890052 1_555
F41 F69 2.595652 1_555
F41 O9 2.633522 1_555
F41 F76 2.643949 1_555
F42 Te4 1.881896 1_555
F42 F58 2.584180 1_555
F42 F44 2.596203 1_455
F42 F46 2.599627 1_555
F43 Te2 1.868040 1_555
F44 Te4 1.872570 1_655
F45 Te9 1.888650 1_555
F45 F49 2.571921 1_555
F45 F56 2.625691 1_555
F46 Te4 1.894785 1_555
F46 F58 2.669505 1_555
F47 Te6 1.878731 1_555
F47 F78 2.571921 1_555
F48 Te10 1.879004 1_555
F49 Te9 1.878731 1_555
F50 Te6 1.876229 1_555
F50 F78 2.579563 1_555
F50 F59 2.653244 1_555
F51 Te10 1.885398 1_555
F52 Te10 1.876522 1_555
F52 F6 2.620816 1_555
F53 Te0 1.877244 1_555
F53 F65 2.665026 1_555
F54 Te11 1.892475 1_555
F54 F71 2.568738 1_555
F54 F63 2.648042 1_555
F54 F68 2.661654 1_565
F55 Te13 1.874713 1_555
F55 F57 2.597004 1_455
F56 Te9 1.882364 1_555
F56 O2 2.649831 1_555
F57 Te13 1.891569 1_655
F57 F67 2.583174 1_655
F58 Te4 1.876206 1_555
F59 Te6 1.882364 1_555
F59 F78 2.625691 1_555
F59 O21 2.649831 1_555
F60 Te2 1.877244 1_555
F61 Te3 1.879302 1_555
F61 F62 2.595945 1_555
F62 Te3 1.875989 1_555
F63 Te11 1.872164 1_555
F63 F71 2.593899 1_555
F64 Te8 1.892475 1_555
F64 F70 2.648042 1_555
F64 F8 2.661654 1_545
F65 Te0 1.898439 1_555
F66 Te15 1.873916 1_555
F67 Te13 1.873422 1_555
F68 Te11 1.882480 1_545
F68 F71 2.597413 1_545
F69 Te5 1.875989 1_555
F69 F76 2.595945 1_555
F70 Te8 1.872164 1_555
F71 Te11 1.891803 1_555
F72 Te12 1.872684 1_555
F72 O8 2.635353 1_555
F73 Te7 1.894785 1_555
F73 F77 2.669505 1_555
F74 Te14 1.878593 1_455
F75 Te12 1.890624 1_565
F76 Te5 1.879302 1_555
F77 Te7 1.876206 1_555
F78 Te6 1.888650 1_555
F79 Te1 1.885398 1_555
