# generated using pymatgen
data_Na3MoN3
_symmetry_space_group_name_H-M   'P 1'
_cell_length_a   8.72933760
_cell_length_b   8.72933760
_cell_length_c   6.32810381
_cell_angle_alpha   69.28558477
_cell_angle_beta   69.28558477
_cell_angle_gamma   77.14152636
_symmetry_Int_Tables_number   1
_chemical_formula_structural   Na3MoN3
_chemical_formula_sum   'Na12 Mo4 N12'
_cell_volume   419.25592709
_cell_formula_units_Z   4
loop_
 _symmetry_equiv_pos_site_id
 _symmetry_equiv_pos_as_xyz
  1  'x, y, z'
loop_
 _atom_site_type_symbol
 _atom_site_label
 _atom_site_symmetry_multiplicity
 _atom_site_fract_x
 _atom_site_fract_y
 _atom_site_fract_z
 _atom_site_occupancy
  Na  Na0  1  0.71690060  0.29499155  0.02939962  1
  Na  Na1  1  0.29499155  0.71690060  0.52939962  1
  Na  Na2  1  0.63646104  0.60195672  0.57159925  1
  Na  Na3  1  0.60195672  0.63646104  0.07159925  1
  Na  Na4  1  0.39791365  0.35596106  0.81067986  1
  Na  Na5  1  0.35596106  0.39791365  0.31067986  1
  Na  Na6  1  0.00447177  0.53131600  0.03471146  1
  Na  Na7  1  0.53131600  0.00447177  0.53471146  1
  Na  Na8  1  0.91891061  0.85202780  0.60497337  1
  Na  Na9  1  0.85202780  0.91891061  0.10497337  1
  Na  Na10  1  0.11777034  0.15791028  0.13449019  1
  Na  Na11  1  0.15791028  0.11777034  0.63449019  1
  Mo  Mo0  1  0.23923143  0.76416943  0.00415491  1
  Mo  Mo1  1  0.76416943  0.23923143  0.50415491  1
  Mo  Mo2  1  0.00804932  0.49067324  0.57769688  1
  Mo  Mo3  1  0.49067324  0.00804932  0.07769688  1
  N  N0  1  0.38860907  0.60298221  0.90995413  1
  N  N1  1  0.60298221  0.38860907  0.40995413  1
  N  N2  1  0.09888003  0.83135069  0.82886719  1
  N  N3  1  0.83135069  0.09888003  0.32886719  1
  N  N4  1  0.14755573  0.36972951  0.74258843  1
  N  N5  1  0.36972951  0.14755573  0.24258843  1
  N  N6  1  0.83122057  0.57261500  0.77537756  1
  N  N7  1  0.57261500  0.83122057  0.27537756  1
  N  N8  1  0.67547682  0.11586543  0.83115090  1
  N  N9  1  0.11586543  0.67547682  0.33115090  1
  N  N10  1  0.95273008  0.34838801  0.44755425  1
  N  N11  1  0.34838801  0.95273008  0.94755425  1
loop_
_geom_bond_atom_site_label_1
_geom_bond_atom_site_label_2
_geom_bond_distance
_geom_bond_site_symmetry_2
Na0 Na3 3.000938 1_555
Na0 Na5 3.131575 1_555
Na1 Na2 3.000938 1_555
Na1 Na4 3.131575 1_555
Na2 Na4 2.949523 1_555
Na3 Na5 2.949523 1_555
Na10 Na4 2.999804 1_554
Na10 Na6 3.090738 1_555
Na10 Na11 3.194078 1_554
Na10 Na11 3.194078 1_555
Na11 Na5 2.999804 1_555
Na11 Na7 3.090738 1_555
Mo0 N2 1.804660 1_554
Mo0 N0 1.806195 1_554
Mo0 N9 1.924148 1_555
Mo0 N11 1.945551 1_554
Mo1 N3 1.804660 1_555
Mo1 N1 1.806195 1_555
Mo1 N8 1.924148 1_555
Mo1 N10 1.945551 1_555
Mo2 N4 1.798280 1_555
Mo2 N6 1.798547 1_455
Mo2 N10 1.930300 1_455
Mo2 N9 1.943937 1_555
Mo3 N5 1.798280 1_555
Mo3 N7 1.798547 1_545
Mo3 N11 1.930300 1_544
Mo3 N8 1.943937 1_554
N0 Na4 2.428018 1_555
N0 Na2 2.448154 1_555
N0 Na5 2.494136 1_556
N0 Na3 2.530142 1_556
N0 Na1 2.606243 1_555
N1 Na5 2.428018 1_555
N1 Na3 2.448154 1_555
N1 Na4 2.494136 1_555
N1 Na2 2.530142 1_555
N1 Na0 2.606243 1_555
N2 Na8 2.403236 1_455
N2 Na1 2.408981 1_555
N2 Na9 2.414257 1_456
N2 Na11 2.445248 1_565
N2 Na6 2.650183 1_556
N3 Na9 2.403236 1_545
N3 Na0 2.408981 1_555
N3 Na8 2.414257 1_545
N3 Na10 2.445248 1_655
N3 Na7 2.650183 1_555
N4 Na4 2.342854 1_555
N4 Na10 2.480081 1_556
N4 Na11 2.499148 1_555
N4 Na6 2.528642 1_556
N4 Na5 2.654500 1_555
N4 Na1 3.205661 1_555
N5 Na5 2.342854 1_555
N5 Na11 2.480081 1_555
N5 Na10 2.499148 1_555
N5 Na7 2.528642 1_555
N5 Na4 2.654500 1_554
N5 Na0 3.205661 1_555
N6 Na3 2.327757 1_556
N6 Na2 2.396321 1_555
N6 Na8 2.466650 1_555
N6 Na6 2.490978 1_656
N6 Na0 2.576587 1_556
N7 Na2 2.327757 1_555
N7 Na3 2.396321 1_555
N7 Na9 2.466650 1_555
N7 Na7 2.490978 1_565
N7 Na1 2.576587 1_555
N8 Na0 2.471827 1_556
N8 Na9 2.633626 1_546
N8 Na4 2.837228 1_555
N8 Na7 3.090833 1_555
N8 Na8 3.141757 1_545
N9 Na1 2.471827 1_555
N9 Na8 2.633626 1_455
N9 Na5 2.837228 1_555
N9 Na6 3.090833 1_555
N9 Na9 3.141757 1_455
N10 Na6 2.472690 1_655
N10 Na11 2.620957 1_655
N10 Na10 2.830207 1_655
N10 Na2 3.180243 1_555
N11 Na7 2.472690 1_565
N11 Na10 2.620957 1_566
N11 Na11 2.830207 1_565
N11 Na3 3.180243 1_556
