# generated using pymatgen
data_SbC(Cl2O)2
_symmetry_space_group_name_H-M   'P 1'
_cell_length_a   7.12469600
_cell_length_b   7.43325175
_cell_length_c   16.68277045
_cell_angle_alpha   80.04876021
_cell_angle_beta   84.21983890
_cell_angle_gamma   82.95640403
_symmetry_Int_Tables_number   1
_chemical_formula_structural   SbC(Cl2O)2
_chemical_formula_sum   'Sb4 C4 Cl16 O8'
_cell_volume   860.79160502
_cell_formula_units_Z   4
loop_
 _symmetry_equiv_pos_site_id
 _symmetry_equiv_pos_as_xyz
  1  'x, y, z'
loop_
 _atom_site_type_symbol
 _atom_site_label
 _atom_site_symmetry_multiplicity
 _atom_site_fract_x
 _atom_site_fract_y
 _atom_site_fract_z
 _atom_site_occupancy
  Sb  Sb0  1  0.66323700  0.72940200  0.62495800  1
  Sb  Sb1  1  0.78235300  0.75634000  0.11365300  1
  Sb  Sb2  1  0.33676300  0.27059800  0.37504200  1
  Sb  Sb3  1  0.21764700  0.24366000  0.88634700  1
  C  C0  1  0.91493900  0.07551100  0.99931900  1
  C  C1  1  0.44278800  0.05009300  0.53310400  1
  C  C2  1  0.08506100  0.92448900  0.00068100  1
  C  C3  1  0.55721200  0.94990700  0.46689600  1
  Cl  Cl0  1  0.87594500  0.46986800  0.61069800  1
  Cl  Cl1  1  0.52935200  0.19579100  0.82944800  1
  Cl  Cl2  1  0.31047500  0.32602700  0.00554100  1
  Cl  Cl3  1  0.12405500  0.53013200  0.38930200  1
  Cl  Cl4  1  0.90430300  0.92615800  0.61386700  1
  Cl  Cl5  1  0.38958200  0.28541500  0.23413700  1
  Cl  Cl6  1  0.68952500  0.67397300  0.99445900  1
  Cl  Cl7  1  0.09106400  0.11330400  0.78686800  1
  Cl  Cl8  1  0.12009700  0.54540500  0.82916500  1
  Cl  Cl9  1  0.60434000  0.41822100  0.38732300  1
  Cl  Cl10  1  0.87990300  0.45459500  0.17083500  1
  Cl  Cl11  1  0.61041800  0.71458500  0.76586300  1
  Cl  Cl12  1  0.47064800  0.80420900  0.17055200  1
  Cl  Cl13  1  0.09569700  0.07384200  0.38613300  1
  Cl  Cl14  1  0.90893600  0.88669600  0.21313200  1
  Cl  Cl15  1  0.39566000  0.58177900  0.61267700  1
  O  O0  1  0.23422500  0.96223600  0.95607200  1
  O  O1  1  0.53344600  0.01584300  0.39297600  1
  O  O2  1  0.76577500  0.03776400  0.04392800  1
  O  O3  1  0.06442800  0.77238800  0.04641700  1
  O  O4  1  0.93557200  0.22761200  0.95358300  1
  O  O5  1  0.46655400  0.98415700  0.60702400  1
  O  O6  1  0.33222500  0.19183400  0.50927000  1
  O  O7  1  0.66777500  0.80816600  0.49073000  1
loop_
_geom_bond_atom_site_label_1
_geom_bond_atom_site_label_2
_geom_bond_distance
_geom_bond_site_symmetry_2
C0 O4 1.265729 1_555
C0 O2 1.266354 1_556
C0 C2 1.546885 1_646
C1 O5 1.265882 1_545
C1 O6 1.266268 1_555
C1 C3 1.547003 1_545
C2 O3 1.265729 1_555
C2 O0 1.266354 1_554
C3 O1 1.265882 1_565
C3 O7 1.266268 1_555
Cl0 Sb0 2.333238 1_555
Cl0 O7 3.236137 1_555
Cl1 Sb3 2.336224 1_555
Cl1 O0 3.260479 1_545
Cl2 Sb3 2.356126 1_554
Cl2 O0 3.083918 1_544
Cl2 O4 3.096102 1_454
Cl3 Sb2 2.333238 1_555
Cl3 O6 3.236137 1_555
Cl4 Sb0 2.362550 1_555
Cl4 O7 3.084089 1_555
Cl4 O5 3.106595 1_555
Cl5 Sb2 2.328513 1_555
Cl5 O1 3.208712 1_555
Cl6 Sb1 2.356126 1_556
Cl6 O2 3.083918 1_566
Cl6 O3 3.096102 1_656
Cl7 Sb3 2.361793 1_555
Cl7 O0 3.077819 1_545
Cl7 O4 3.106444 1_455
Cl8 Sb3 2.331438 1_555
Cl8 O4 3.183425 1_455
Cl9 Sb2 2.355819 1_555
Cl9 O1 3.077886 1_555
Cl9 O6 3.090593 1_555
Cl10 Sb1 2.331438 1_555
Cl10 O3 3.183425 1_655
Cl11 Sb0 2.328513 1_555
Cl11 O5 3.208712 1_555
Cl12 Sb1 2.336224 1_555
Cl12 O2 3.260479 1_565
Cl13 Sb2 2.362550 1_555
Cl13 O6 3.084089 1_555
Cl13 O1 3.106595 1_555
Cl14 Sb1 2.361793 1_555
Cl14 O2 3.077819 1_565
Cl14 O3 3.106444 1_655
Cl15 Sb0 2.355819 1_555
Cl15 O5 3.077886 1_555
Cl15 O7 3.090593 1_555
O0 Sb3 2.206605 1_565
O1 Sb2 2.208383 1_555
O2 Sb1 2.206605 1_545
O3 Sb1 2.206758 1_455
O4 Sb3 2.206758 1_655
O5 Sb0 2.208383 1_555
O6 Sb2 2.212510 1_555
O7 Sb0 2.212510 1_555
