# generated using pymatgen
data_YZr5Si5PO24
_symmetry_space_group_name_H-M   'P 1'
_cell_length_a   5.64987790
_cell_length_b   5.64987790
_cell_length_c   28.77259200
_cell_angle_alpha   90.00000000
_cell_angle_beta   90.00000000
_cell_angle_gamma   115.60064459
_symmetry_Int_Tables_number   1
_chemical_formula_structural   YZr5Si5PO24
_chemical_formula_sum   'Y2 Zr10 Si10 P2 O48'
_cell_volume   828.28665711
_cell_formula_units_Z   2
loop_
 _symmetry_equiv_pos_site_id
 _symmetry_equiv_pos_as_xyz
  1  'x, y, z'
loop_
 _atom_site_type_symbol
 _atom_site_label
 _atom_site_symmetry_multiplicity
 _atom_site_fract_x
 _atom_site_fract_y
 _atom_site_fract_z
 _atom_site_occupancy
  Y  Y0  1  0.00000000  0.50000000  0.58589300  1
  Y  Y1  1  0.50000000  0.00000000  0.41410700  1
  Zr  Zr0  1  0.50000000  0.50000000  0.50000000  1
  Zr  Zr1  1  0.00000000  0.00000000  0.32855700  1
  Zr  Zr2  1  0.50000000  0.50000000  0.16468600  1
  Zr  Zr3  1  0.00000000  0.00000000  0.00000000  1
  Zr  Zr4  1  0.50000000  0.50000000  0.83531400  1
  Zr  Zr5  1  0.00000000  0.00000000  0.67144300  1
  Zr  Zr6  1  0.00000000  0.50000000  0.24660100  1
  Zr  Zr7  1  0.50000000  0.00000000  0.08232700  1
  Zr  Zr8  1  0.00000000  0.50000000  0.91767300  1
  Zr  Zr9  1  0.50000000  0.00000000  0.75339900  1
  Si  Si0  1  0.00000000  0.00000000  0.50000000  1
  Si  Si1  1  0.50000000  0.00000000  0.24726200  1
  Si  Si2  1  0.50000000  0.50000000  0.32846500  1
  Si  Si3  1  0.00000000  0.50000000  0.08243900  1
  Si  Si4  1  0.00000000  0.00000000  0.16452200  1
  Si  Si5  1  0.50000000  0.00000000  0.91756100  1
  Si  Si6  1  0.50000000  0.50000000  0.00000000  1
  Si  Si7  1  0.00000000  0.50000000  0.75273800  1
  Si  Si8  1  0.00000000  0.00000000  0.83547800  1
  Si  Si9  1  0.50000000  0.50000000  0.67153500  1
  P  P0  1  0.50000000  0.00000000  0.58507200  1
  P  P1  1  0.00000000  0.50000000  0.41492800  1
  O  O0  1  0.25175500  0.93161100  0.61525800  1
  O  O1  1  0.56971000  0.24959200  0.55497100  1
  O  O2  1  0.43029000  0.75040800  0.55497100  1
  O  O3  1  0.75040800  0.43029000  0.44502900  1
  O  O4  1  0.74824500  0.06838900  0.61525800  1
  O  O5  1  0.06838900  0.74824500  0.38474200  1
  O  O6  1  0.72475700  0.90268500  0.47028500  1
  O  O7  1  0.93161100  0.25175500  0.38474200  1
  O  O8  1  0.22770800  0.91116300  0.27742100  1
  O  O9  1  0.09731500  0.27524300  0.52971500  1
  O  O10  1  0.24959200  0.56971000  0.44502900  1
  O  O11  1  0.90268500  0.72475700  0.52971500  1
  O  O12  1  0.58818100  0.27057300  0.21697600  1
  O  O13  1  0.22720800  0.41401000  0.29830700  1
  O  O14  1  0.41181900  0.72942700  0.21697600  1
  O  O15  1  0.72858000  0.41097400  0.11264700  1
  O  O16  1  0.27524300  0.09731500  0.47028500  1
  O  O17  1  0.59991700  0.77351200  0.35806100  1
  O  O18  1  0.77229200  0.08883700  0.27742100  1
  O  O19  1  0.40008300  0.22648800  0.35806100  1
  O  O20  1  0.08889700  0.77149100  0.05225000  1
  O  O21  1  0.72822600  0.91085000  0.13447900  1
  O  O22  1  0.91110300  0.22850900  0.05225000  1
  O  O23  1  0.22850900  0.91110300  0.94775000  1
  O  O24  1  0.77279200  0.58599000  0.29830700  1
  O  O25  1  0.08881300  0.27110400  0.19474700  1
  O  O26  1  0.27142000  0.58902600  0.11264700  1
  O  O27  1  0.91118700  0.72889600  0.19474700  1
  O  O28  1  0.58902600  0.27142000  0.88735300  1
  O  O29  1  0.22849200  0.41100700  0.96982000  1
  O  O30  1  0.41097400  0.72858000  0.88735300  1
  O  O31  1  0.72942700  0.41181900  0.78302400  1
  O  O32  1  0.27177400  0.08915000  0.13447900  1
  O  O33  1  0.58899300  0.77150800  0.03018000  1
  O  O34  1  0.77149100  0.08889700  0.94775000  1
  O  O35  1  0.41100700  0.22849200  0.03018000  1
  O  O36  1  0.08883700  0.77229200  0.72257900  1
  O  O37  1  0.72889600  0.91118700  0.80525300  1
  O  O38  1  0.91116300  0.22770800  0.72257900  1
  O  O39  1  0.77150800  0.58899300  0.96982000  1
  O  O40  1  0.08915000  0.27177400  0.86552100  1
  O  O41  1  0.27057300  0.58818100  0.78302400  1
  O  O42  1  0.91085000  0.72822600  0.86552100  1
  O  O43  1  0.22648800  0.40008300  0.64193900  1
  O  O44  1  0.27110400  0.08881300  0.80525300  1
  O  O45  1  0.58599000  0.77279200  0.70169300  1
  O  O46  1  0.41401000  0.22720800  0.70169300  1
  O  O47  1  0.77351200  0.59991700  0.64193900  1
loop_
_geom_bond_atom_site_label_1
_geom_bond_atom_site_label_2
_geom_bond_distance
_geom_bond_site_symmetry_2
O0 P0 1.549989 1_565
O0 Zr5 2.293641 1_565
O0 Y0 2.384549 1_555
O1 P0 1.553646 1_555
O1 Zr0 2.267132 1_555
O1 Y0 2.393952 1_655
O2 P0 1.553646 1_565
O2 Zr0 2.267132 1_555
O2 Y0 2.393952 1_555
O3 P1 1.553646 1_655
O3 Zr0 2.267132 1_555
O3 Y1 2.393952 1_555
O4 P0 1.549989 1_555
O4 Zr5 2.293641 1_655
O4 Y0 2.384549 1_655
O5 P1 1.549989 1_555
O5 Zr1 2.293641 1_565
O5 Y1 2.384549 1_565
O6 Si0 1.647025 1_665
O6 Zr0 2.241200 1_555
O6 Y1 2.265147 1_565
O7 P1 1.549989 1_655
O7 Zr1 2.293641 1_655
O7 Y1 2.384549 1_555
O8 Si1 1.644490 1_565
O8 Zr1 2.151712 1_565
O8 Zr6 2.292420 1_555
O9 Si0 1.647025 1_555
O9 Zr0 2.241200 1_555
O9 Y0 2.265147 1_555
O10 P1 1.553646 1_555
O10 Zr0 2.267132 1_555
O10 Y1 2.393952 1_565
O11 Si0 1.647025 1_665
O11 Zr0 2.241200 1_555
O11 Y0 2.265147 1_655
O12 Si1 1.638999 1_555
O12 Zr2 2.179475 1_555
O12 Zr6 2.283432 1_655
O13 Si2 1.648426 1_555
O13 Zr6 2.153178 1_555
O13 Zr1 2.298245 1_555
O14 Si1 1.638999 1_565
O14 Zr2 2.179475 1_555
O14 Zr6 2.283432 1_555
O15 Si3 1.641176 1_655
O15 Zr2 2.173499 1_555
O15 Zr7 2.286684 1_555
O16 Si0 1.647025 1_555
O16 Zr0 2.241200 1_555
O16 Y1 2.265147 1_555
O17 Si2 1.636436 1_555
O17 Zr1 2.228883 1_665
O17 Y1 2.276147 1_565
O18 Si1 1.644490 1_555
O18 Zr1 2.151712 1_655
O18 Zr6 2.292420 1_655
O19 Si2 1.636436 1_555
O19 Zr1 2.228883 1_555
O19 Y1 2.276147 1_555
O20 Si3 1.641279 1_555
O20 Zr3 2.177052 1_565
O20 Zr7 2.284538 1_565
O21 Si4 1.640205 1_665
O21 Zr7 2.174695 1_565
O21 Zr2 2.284653 1_555
O22 Si3 1.641279 1_655
O22 Zr3 2.177052 1_655
O22 Zr7 2.284538 1_555
O23 Si5 1.641279 1_565
O23 Zr3 2.177052 1_566
O23 Zr8 2.284538 1_555
O24 Si2 1.648426 1_555
O24 Zr6 2.153178 1_655
O24 Zr1 2.298245 1_665
O25 Si4 1.640121 1_555
O25 Zr6 2.170489 1_555
O25 Zr2 2.285006 1_555
O26 Si3 1.641176 1_555
O26 Zr2 2.173499 1_555
O26 Zr7 2.286684 1_565
O27 Si4 1.640121 1_665
O27 Zr6 2.170489 1_655
O27 Zr2 2.285006 1_555
O28 Si5 1.641176 1_555
O28 Zr4 2.173499 1_555
O28 Zr8 2.286684 1_655
O29 Si6 1.641166 1_556
O29 Zr8 2.175205 1_555
O29 Zr3 2.285232 1_556
O30 Si5 1.641176 1_565
O30 Zr4 2.173499 1_555
O30 Zr8 2.286684 1_555
O31 Si7 1.638999 1_655
O31 Zr4 2.179475 1_555
O31 Zr9 2.283432 1_555
O32 Si4 1.640205 1_555
O32 Zr7 2.174695 1_555
O32 Zr2 2.284653 1_555
O33 Si6 1.641166 1_555
O33 Zr7 2.175205 1_565
O33 Zr3 2.285232 1_665
O34 Si5 1.641279 1_555
O34 Zr3 2.177052 1_656
O34 Zr8 2.284538 1_655
O35 Si6 1.641166 1_555
O35 Zr7 2.175205 1_555
O35 Zr3 2.285232 1_555
O36 Si7 1.644490 1_555
O36 Zr5 2.151712 1_565
O36 Zr9 2.292420 1_565
O37 Si8 1.640121 1_665
O37 Zr9 2.170489 1_565
O37 Zr4 2.285006 1_555
O38 Si7 1.644490 1_655
O38 Zr5 2.151712 1_655
O38 Zr9 2.292420 1_555
O39 Si6 1.641166 1_556
O39 Zr8 2.175205 1_655
O39 Zr3 2.285232 1_666
O40 Si8 1.640205 1_555
O40 Zr8 2.174695 1_555
O40 Zr4 2.284653 1_555
O41 Si7 1.638999 1_555
O41 Zr4 2.179475 1_555
O41 Zr9 2.283432 1_565
O42 Si8 1.640205 1_665
O42 Zr8 2.174695 1_655
O42 Zr4 2.284653 1_555
O43 Si9 1.636436 1_555
O43 Zr5 2.228883 1_555
O43 Y0 2.276147 1_555
O44 Si8 1.640121 1_555
O44 Zr9 2.170489 1_555
O44 Zr4 2.285006 1_555
O45 Si9 1.648426 1_555
O45 Zr9 2.153178 1_565
O45 Zr5 2.298245 1_665
O46 Si9 1.648426 1_555
O46 Zr9 2.153178 1_555
O46 Zr5 2.298245 1_555
O47 Si9 1.636436 1_555
O47 Zr5 2.228883 1_665
O47 Y0 2.276147 1_655
